# Generated by pormake.
# Topology ana-f, (3,3)-cn, num edge types: 1
# Building blocks:
#     Node 0, Type 0, BuildingBlock: WUSLED_clean_sbu_0, # of connection points: 3
#     Node 1, Type 0, BuildingBlock: WUSLED_clean_sbu_0, # of connection points: 3
#     Node 2, Type 0, BuildingBlock: WUSLED_clean_sbu_0, # of connection points: 3
#     Node 3, Type 0, BuildingBlock: WUSLED_clean_sbu_0, # of connection points: 3
#     Node 4, Type 0, BuildingBlock: WUSLED_clean_sbu_0, # of connection points: 3
#     Node 5, Type 0, BuildingBlock: WUSLED_clean_sbu_0, # of connection points: 3
#     Node 6, Type 0, BuildingBlock: WUSLED_clean_sbu_0, # of connection points: 3
#     Node 7, Type 0, BuildingBlock: WUSLED_clean_sbu_0, # of connection points: 3
#     Node 8, Type 0, BuildingBlock: WUSLED_clean_sbu_0, # of connection points: 3
#     Node 9, Type 0, BuildingBlock: WUSLED_clean_sbu_0, # of connection points: 3
#     Node 10, Type 0, BuildingBlock: WUSLED_clean_sbu_0, # of connection points: 3
#     Node 11, Type 0, BuildingBlock: WUSLED_clean_sbu_0, # of connection points: 3
#     Node 12, Type 0, BuildingBlock: WUSLED_clean_sbu_0, # of connection points: 3
#     Node 13, Type 0, BuildingBlock: WUSLED_clean_sbu_0, # of connection points: 3
#     Node 14, Type 0, BuildingBlock: WUSLED_clean_sbu_0, # of connection points: 3
#     Node 15, Type 0, BuildingBlock: WUSLED_clean_sbu_0, # of connection points: 3
#     Node 16, Type 0, BuildingBlock: WUSLED_clean_sbu_0, # of connection points: 3
#     Node 17, Type 0, BuildingBlock: WUSLED_clean_sbu_0, # of connection points: 3
#     Node 18, Type 0, BuildingBlock: WUSLED_clean_sbu_0, # of connection points: 3
#     Node 19, Type 0, BuildingBlock: WUSLED_clean_sbu_0, # of connection points: 3
#     Node 20, Type 0, BuildingBlock: WUSLED_clean_sbu_0, # of connection points: 3
#     Node 21, Type 0, BuildingBlock: WUSLED_clean_sbu_0, # of connection points: 3
#     Node 22, Type 0, BuildingBlock: WUSLED_clean_sbu_0, # of connection points: 3
#     Node 23, Type 0, BuildingBlock: WUSLED_clean_sbu_0, # of connection points: 3
#     Node 24, Type 0, BuildingBlock: WUSLED_clean_sbu_0, # of connection points: 3
#     Node 25, Type 0, BuildingBlock: WUSLED_clean_sbu_0, # of connection points: 3
#     Node 26, Type 0, BuildingBlock: WUSLED_clean_sbu_0, # of connection points: 3
#     Node 27, Type 0, BuildingBlock: WUSLED_clean_sbu_0, # of connection points: 3
#     Node 28, Type 0, BuildingBlock: WUSLED_clean_sbu_0, # of connection points: 3
#     Node 29, Type 0, BuildingBlock: WUSLED_clean_sbu_0, # of connection points: 3
#     Node 30, Type 0, BuildingBlock: WUSLED_clean_sbu_0, # of connection points: 3
#     Node 31, Type 0, BuildingBlock: WUSLED_clean_sbu_0, # of connection points: 3
#     Node 32, Type 0, BuildingBlock: WUSLED_clean_sbu_0, # of connection points: 3
#     Node 33, Type 0, BuildingBlock: WUSLED_clean_sbu_0, # of connection points: 3
#     Node 34, Type 0, BuildingBlock: WUSLED_clean_sbu_0, # of connection points: 3
#     Node 35, Type 0, BuildingBlock: WUSLED_clean_sbu_0, # of connection points: 3
#     Node 36, Type 0, BuildingBlock: WUSLED_clean_sbu_0, # of connection points: 3
#     Node 37, Type 0, BuildingBlock: WUSLED_clean_sbu_0, # of connection points: 3
#     Node 38, Type 0, BuildingBlock: WUSLED_clean_sbu_0, # of connection points: 3
#     Node 39, Type 0, BuildingBlock: WUSLED_clean_sbu_0, # of connection points: 3
#     Node 40, Type 0, BuildingBlock: WUSLED_clean_sbu_0, # of connection points: 3
#     Node 41, Type 0, BuildingBlock: WUSLED_clean_sbu_0, # of connection points: 3
#     Node 42, Type 0, BuildingBlock: WUSLED_clean_sbu_0, # of connection points: 3
#     Node 43, Type 0, BuildingBlock: WUSLED_clean_sbu_0, # of connection points: 3
#     Node 44, Type 0, BuildingBlock: WUSLED_clean_sbu_0, # of connection points: 3
#     Node 45, Type 0, BuildingBlock: WUSLED_clean_sbu_0, # of connection points: 3
#     Node 46, Type 0, BuildingBlock: WUSLED_clean_sbu_0, # of connection points: 3
#     Node 47, Type 0, BuildingBlock: WUSLED_clean_sbu_0, # of connection points: 3
#     Node 48, Type 0, BuildingBlock: WUSLED_clean_sbu_0, # of connection points: 3
#     Node 49, Type 0, BuildingBlock: WUSLED_clean_sbu_0, # of connection points: 3
#     Node 50, Type 0, BuildingBlock: WUSLED_clean_sbu_0, # of connection points: 3
#     Node 51, Type 0, BuildingBlock: WUSLED_clean_sbu_0, # of connection points: 3
#     Node 52, Type 0, BuildingBlock: WUSLED_clean_sbu_0, # of connection points: 3
#     Node 53, Type 0, BuildingBlock: WUSLED_clean_sbu_0, # of connection points: 3
#     Node 54, Type 0, BuildingBlock: WUSLED_clean_sbu_0, # of connection points: 3
#     Node 55, Type 0, BuildingBlock: WUSLED_clean_sbu_0, # of connection points: 3
#     Node 56, Type 0, BuildingBlock: WUSLED_clean_sbu_0, # of connection points: 3
#     Node 57, Type 0, BuildingBlock: WUSLED_clean_sbu_0, # of connection points: 3
#     Node 58, Type 0, BuildingBlock: WUSLED_clean_sbu_0, # of connection points: 3
#     Node 59, Type 0, BuildingBlock: WUSLED_clean_sbu_0, # of connection points: 3
#     Node 60, Type 0, BuildingBlock: WUSLED_clean_sbu_0, # of connection points: 3
#     Node 61, Type 0, BuildingBlock: WUSLED_clean_sbu_0, # of connection points: 3
#     Node 62, Type 0, BuildingBlock: WUSLED_clean_sbu_0, # of connection points: 3
#     Node 63, Type 0, BuildingBlock: WUSLED_clean_sbu_0, # of connection points: 3
#     Node 64, Type 0, BuildingBlock: WUSLED_clean_sbu_0, # of connection points: 3
#     Node 65, Type 0, BuildingBlock: WUSLED_clean_sbu_0, # of connection points: 3
#     Node 66, Type 0, BuildingBlock: WUSLED_clean_sbu_0, # of connection points: 3
#     Node 67, Type 0, BuildingBlock: WUSLED_clean_sbu_0, # of connection points: 3
#     Node 68, Type 0, BuildingBlock: WUSLED_clean_sbu_0, # of connection points: 3
#     Node 69, Type 0, BuildingBlock: WUSLED_clean_sbu_0, # of connection points: 3
#     Node 70, Type 0, BuildingBlock: WUSLED_clean_sbu_0, # of connection points: 3
#     Node 71, Type 0, BuildingBlock: WUSLED_clean_sbu_0, # of connection points: 3
#     Node 72, Type 0, BuildingBlock: WUSLED_clean_sbu_0, # of connection points: 3
#     Node 73, Type 0, BuildingBlock: WUSLED_clean_sbu_0, # of connection points: 3
#     Node 74, Type 0, BuildingBlock: WUSLED_clean_sbu_0, # of connection points: 3
#     Node 75, Type 0, BuildingBlock: WUSLED_clean_sbu_0, # of connection points: 3
#     Node 76, Type 0, BuildingBlock: WUSLED_clean_sbu_0, # of connection points: 3
#     Node 77, Type 0, BuildingBlock: WUSLED_clean_sbu_0, # of connection points: 3
#     Node 78, Type 0, BuildingBlock: WUSLED_clean_sbu_0, # of connection points: 3
#     Node 79, Type 0, BuildingBlock: WUSLED_clean_sbu_0, # of connection points: 3
#     Node 80, Type 0, BuildingBlock: WUSLED_clean_sbu_0, # of connection points: 3
#     Node 81, Type 0, BuildingBlock: WUSLED_clean_sbu_0, # of connection points: 3
#     Node 82, Type 0, BuildingBlock: WUSLED_clean_sbu_0, # of connection points: 3
#     Node 83, Type 0, BuildingBlock: WUSLED_clean_sbu_0, # of connection points: 3
#     Node 84, Type 0, BuildingBlock: WUSLED_clean_sbu_0, # of connection points: 3
#     Node 85, Type 0, BuildingBlock: WUSLED_clean_sbu_0, # of connection points: 3
#     Node 86, Type 0, BuildingBlock: WUSLED_clean_sbu_0, # of connection points: 3
#     Node 87, Type 0, BuildingBlock: WUSLED_clean_sbu_0, # of connection points: 3
#     Node 88, Type 0, BuildingBlock: WUSLED_clean_sbu_0, # of connection points: 3
#     Node 89, Type 0, BuildingBlock: WUSLED_clean_sbu_0, # of connection points: 3
#     Node 90, Type 0, BuildingBlock: WUSLED_clean_sbu_0, # of connection points: 3
#     Node 91, Type 0, BuildingBlock: WUSLED_clean_sbu_0, # of connection points: 3
#     Node 92, Type 0, BuildingBlock: WUSLED_clean_sbu_0, # of connection points: 3
#     Node 93, Type 0, BuildingBlock: WUSLED_clean_sbu_0, # of connection points: 3
#     Node 94, Type 0, BuildingBlock: WUSLED_clean_sbu_0, # of connection points: 3
#     Node 95, Type 0, BuildingBlock: WUSLED_clean_sbu_0, # of connection points: 3
#     Node 96, Type 1, BuildingBlock: QEWDON_clean_linker_0, # of connection points: 3
#     Node 97, Type 1, BuildingBlock: QEWDON_clean_linker_0, # of connection points: 3
#     Node 98, Type 1, BuildingBlock: QEWDON_clean_linker_0, # of connection points: 3
#     Node 99, Type 1, BuildingBlock: QEWDON_clean_linker_0, # of connection points: 3
#     Node 100, Type 1, BuildingBlock: QEWDON_clean_linker_0, # of connection points: 3
#     Node 101, Type 1, BuildingBlock: QEWDON_clean_linker_0, # of connection points: 3
#     Node 102, Type 1, BuildingBlock: QEWDON_clean_linker_0, # of connection points: 3
#     Node 103, Type 1, BuildingBlock: QEWDON_clean_linker_0, # of connection points: 3
#     Node 104, Type 1, BuildingBlock: QEWDON_clean_linker_0, # of connection points: 3
#     Node 105, Type 1, BuildingBlock: QEWDON_clean_linker_0, # of connection points: 3
#     Node 106, Type 1, BuildingBlock: QEWDON_clean_linker_0, # of connection points: 3
#     Node 107, Type 1, BuildingBlock: QEWDON_clean_linker_0, # of connection points: 3
#     Node 108, Type 1, BuildingBlock: QEWDON_clean_linker_0, # of connection points: 3
#     Node 109, Type 1, BuildingBlock: QEWDON_clean_linker_0, # of connection points: 3
#     Node 110, Type 1, BuildingBlock: QEWDON_clean_linker_0, # of connection points: 3
#     Node 111, Type 1, BuildingBlock: QEWDON_clean_linker_0, # of connection points: 3
#     Node 112, Type 1, BuildingBlock: QEWDON_clean_linker_0, # of connection points: 3
#     Node 113, Type 1, BuildingBlock: QEWDON_clean_linker_0, # of connection points: 3
#     Node 114, Type 1, BuildingBlock: QEWDON_clean_linker_0, # of connection points: 3
#     Node 115, Type 1, BuildingBlock: QEWDON_clean_linker_0, # of connection points: 3
#     Node 116, Type 1, BuildingBlock: QEWDON_clean_linker_0, # of connection points: 3
#     Node 117, Type 1, BuildingBlock: QEWDON_clean_linker_0, # of connection points: 3
#     Node 118, Type 1, BuildingBlock: QEWDON_clean_linker_0, # of connection points: 3
#     Node 119, Type 1, BuildingBlock: QEWDON_clean_linker_0, # of connection points: 3
#     Node 120, Type 1, BuildingBlock: QEWDON_clean_linker_0, # of connection points: 3
#     Node 121, Type 1, BuildingBlock: QEWDON_clean_linker_0, # of connection points: 3
#     Node 122, Type 1, BuildingBlock: QEWDON_clean_linker_0, # of connection points: 3
#     Node 123, Type 1, BuildingBlock: QEWDON_clean_linker_0, # of connection points: 3
#     Node 124, Type 1, BuildingBlock: QEWDON_clean_linker_0, # of connection points: 3
#     Node 125, Type 1, BuildingBlock: QEWDON_clean_linker_0, # of connection points: 3
#     Node 126, Type 1, BuildingBlock: QEWDON_clean_linker_0, # of connection points: 3
#     Node 127, Type 1, BuildingBlock: QEWDON_clean_linker_0, # of connection points: 3
#     Node 128, Type 1, BuildingBlock: QEWDON_clean_linker_0, # of connection points: 3
#     Node 129, Type 1, BuildingBlock: QEWDON_clean_linker_0, # of connection points: 3
#     Node 130, Type 1, BuildingBlock: QEWDON_clean_linker_0, # of connection points: 3
#     Node 131, Type 1, BuildingBlock: QEWDON_clean_linker_0, # of connection points: 3
#     Node 132, Type 1, BuildingBlock: QEWDON_clean_linker_0, # of connection points: 3
#     Node 133, Type 1, BuildingBlock: QEWDON_clean_linker_0, # of connection points: 3
#     Node 134, Type 1, BuildingBlock: QEWDON_clean_linker_0, # of connection points: 3
#     Node 135, Type 1, BuildingBlock: QEWDON_clean_linker_0, # of connection points: 3
#     Node 136, Type 1, BuildingBlock: QEWDON_clean_linker_0, # of connection points: 3
#     Node 137, Type 1, BuildingBlock: QEWDON_clean_linker_0, # of connection points: 3
#     Node 138, Type 1, BuildingBlock: QEWDON_clean_linker_0, # of connection points: 3
#     Node 139, Type 1, BuildingBlock: QEWDON_clean_linker_0, # of connection points: 3
#     Node 140, Type 1, BuildingBlock: QEWDON_clean_linker_0, # of connection points: 3
#     Node 141, Type 1, BuildingBlock: QEWDON_clean_linker_0, # of connection points: 3
#     Node 142, Type 1, BuildingBlock: QEWDON_clean_linker_0, # of connection points: 3
#     Node 143, Type 1, BuildingBlock: QEWDON_clean_linker_0, # of connection points: 3
#     Node 144, Type 1, BuildingBlock: QEWDON_clean_linker_0, # of connection points: 3
#     Node 145, Type 1, BuildingBlock: QEWDON_clean_linker_0, # of connection points: 3
#     Node 146, Type 1, BuildingBlock: QEWDON_clean_linker_0, # of connection points: 3
#     Node 147, Type 1, BuildingBlock: QEWDON_clean_linker_0, # of connection points: 3
#     Node 148, Type 1, BuildingBlock: QEWDON_clean_linker_0, # of connection points: 3
#     Node 149, Type 1, BuildingBlock: QEWDON_clean_linker_0, # of connection points: 3
#     Node 150, Type 1, BuildingBlock: QEWDON_clean_linker_0, # of connection points: 3
#     Node 151, Type 1, BuildingBlock: QEWDON_clean_linker_0, # of connection points: 3
#     Node 152, Type 1, BuildingBlock: QEWDON_clean_linker_0, # of connection points: 3
#     Node 153, Type 1, BuildingBlock: QEWDON_clean_linker_0, # of connection points: 3
#     Node 154, Type 1, BuildingBlock: QEWDON_clean_linker_0, # of connection points: 3
#     Node 155, Type 1, BuildingBlock: QEWDON_clean_linker_0, # of connection points: 3
#     Node 156, Type 1, BuildingBlock: QEWDON_clean_linker_0, # of connection points: 3
#     Node 157, Type 1, BuildingBlock: QEWDON_clean_linker_0, # of connection points: 3
#     Node 158, Type 1, BuildingBlock: QEWDON_clean_linker_0, # of connection points: 3
#     Node 159, Type 1, BuildingBlock: QEWDON_clean_linker_0, # of connection points: 3
#     Node 160, Type 1, BuildingBlock: QEWDON_clean_linker_0, # of connection points: 3
#     Node 161, Type 1, BuildingBlock: QEWDON_clean_linker_0, # of connection points: 3
#     Node 162, Type 1, BuildingBlock: QEWDON_clean_linker_0, # of connection points: 3
#     Node 163, Type 1, BuildingBlock: QEWDON_clean_linker_0, # of connection points: 3
#     Node 164, Type 1, BuildingBlock: QEWDON_clean_linker_0, # of connection points: 3
#     Node 165, Type 1, BuildingBlock: QEWDON_clean_linker_0, # of connection points: 3
#     Node 166, Type 1, BuildingBlock: QEWDON_clean_linker_0, # of connection points: 3
#     Node 167, Type 1, BuildingBlock: QEWDON_clean_linker_0, # of connection points: 3
#     Node 168, Type 1, BuildingBlock: QEWDON_clean_linker_0, # of connection points: 3
#     Node 169, Type 1, BuildingBlock: QEWDON_clean_linker_0, # of connection points: 3
#     Node 170, Type 1, BuildingBlock: QEWDON_clean_linker_0, # of connection points: 3
#     Node 171, Type 1, BuildingBlock: QEWDON_clean_linker_0, # of connection points: 3
#     Node 172, Type 1, BuildingBlock: QEWDON_clean_linker_0, # of connection points: 3
#     Node 173, Type 1, BuildingBlock: QEWDON_clean_linker_0, # of connection points: 3
#     Node 174, Type 1, BuildingBlock: QEWDON_clean_linker_0, # of connection points: 3
#     Node 175, Type 1, BuildingBlock: QEWDON_clean_linker_0, # of connection points: 3
#     Node 176, Type 1, BuildingBlock: QEWDON_clean_linker_0, # of connection points: 3
#     Node 177, Type 1, BuildingBlock: QEWDON_clean_linker_0, # of connection points: 3
#     Node 178, Type 1, BuildingBlock: QEWDON_clean_linker_0, # of connection points: 3
#     Node 179, Type 1, BuildingBlock: QEWDON_clean_linker_0, # of connection points: 3
#     Node 180, Type 1, BuildingBlock: QEWDON_clean_linker_0, # of connection points: 3
#     Node 181, Type 1, BuildingBlock: QEWDON_clean_linker_0, # of connection points: 3
#     Node 182, Type 1, BuildingBlock: QEWDON_clean_linker_0, # of connection points: 3
#     Node 183, Type 1, BuildingBlock: QEWDON_clean_linker_0, # of connection points: 3
#     Node 184, Type 1, BuildingBlock: QEWDON_clean_linker_0, # of connection points: 3
#     Node 185, Type 1, BuildingBlock: QEWDON_clean_linker_0, # of connection points: 3
#     Node 186, Type 1, BuildingBlock: QEWDON_clean_linker_0, # of connection points: 3
#     Node 187, Type 1, BuildingBlock: QEWDON_clean_linker_0, # of connection points: 3
#     Node 188, Type 1, BuildingBlock: QEWDON_clean_linker_0, # of connection points: 3
#     Node 189, Type 1, BuildingBlock: QEWDON_clean_linker_0, # of connection points: 3
#     Node 190, Type 1, BuildingBlock: QEWDON_clean_linker_0, # of connection points: 3
#     Node 191, Type 1, BuildingBlock: QEWDON_clean_linker_0, # of connection points: 3
#     Edge 192, Type (0, 1), BuildingBlock: EZIPEK_clean_linker_0, # of connection points: 2
#     Edge 193, Type (0, 1), BuildingBlock: EZIPEK_clean_linker_0, # of connection points: 2
#     Edge 194, Type (0, 1), BuildingBlock: EZIPEK_clean_linker_0, # of connection points: 2
#     Edge 195, Type (0, 1), BuildingBlock: EZIPEK_clean_linker_0, # of connection points: 2
#     Edge 196, Type (0, 1), BuildingBlock: EZIPEK_clean_linker_0, # of connection points: 2
#     Edge 197, Type (0, 1), BuildingBlock: EZIPEK_clean_linker_0, # of connection points: 2
#     Edge 198, Type (0, 1), BuildingBlock: EZIPEK_clean_linker_0, # of connection points: 2
#     Edge 199, Type (0, 1), BuildingBlock: EZIPEK_clean_linker_0, # of connection points: 2
#     Edge 200, Type (0, 1), BuildingBlock: EZIPEK_clean_linker_0, # of connection points: 2
#     Edge 201, Type (0, 1), BuildingBlock: EZIPEK_clean_linker_0, # of connection points: 2
#     Edge 202, Type (0, 1), BuildingBlock: EZIPEK_clean_linker_0, # of connection points: 2
#     Edge 203, Type (0, 1), BuildingBlock: EZIPEK_clean_linker_0, # of connection points: 2
#     Edge 204, Type (0, 1), BuildingBlock: EZIPEK_clean_linker_0, # of connection points: 2
#     Edge 205, Type (0, 1), BuildingBlock: EZIPEK_clean_linker_0, # of connection points: 2
#     Edge 206, Type (0, 1), BuildingBlock: EZIPEK_clean_linker_0, # of connection points: 2
#     Edge 207, Type (0, 1), BuildingBlock: EZIPEK_clean_linker_0, # of connection points: 2
#     Edge 208, Type (0, 1), BuildingBlock: EZIPEK_clean_linker_0, # of connection points: 2
#     Edge 209, Type (0, 1), BuildingBlock: EZIPEK_clean_linker_0, # of connection points: 2
#     Edge 210, Type (0, 1), BuildingBlock: EZIPEK_clean_linker_0, # of connection points: 2
#     Edge 211, Type (0, 1), BuildingBlock: EZIPEK_clean_linker_0, # of connection points: 2
#     Edge 212, Type (0, 1), BuildingBlock: EZIPEK_clean_linker_0, # of connection points: 2
#     Edge 213, Type (0, 1), BuildingBlock: EZIPEK_clean_linker_0, # of connection points: 2
#     Edge 214, Type (0, 1), BuildingBlock: EZIPEK_clean_linker_0, # of connection points: 2
#     Edge 215, Type (0, 1), BuildingBlock: EZIPEK_clean_linker_0, # of connection points: 2
#     Edge 216, Type (0, 1), BuildingBlock: EZIPEK_clean_linker_0, # of connection points: 2
#     Edge 217, Type (0, 1), BuildingBlock: EZIPEK_clean_linker_0, # of connection points: 2
#     Edge 218, Type (0, 1), BuildingBlock: EZIPEK_clean_linker_0, # of connection points: 2
#     Edge 219, Type (0, 1), BuildingBlock: EZIPEK_clean_linker_0, # of connection points: 2
#     Edge 220, Type (0, 1), BuildingBlock: EZIPEK_clean_linker_0, # of connection points: 2
#     Edge 221, Type (0, 1), BuildingBlock: EZIPEK_clean_linker_0, # of connection points: 2
#     Edge 222, Type (0, 1), BuildingBlock: EZIPEK_clean_linker_0, # of connection points: 2
#     Edge 223, Type (0, 1), BuildingBlock: EZIPEK_clean_linker_0, # of connection points: 2
#     Edge 224, Type (0, 1), BuildingBlock: EZIPEK_clean_linker_0, # of connection points: 2
#     Edge 225, Type (0, 1), BuildingBlock: EZIPEK_clean_linker_0, # of connection points: 2
#     Edge 226, Type (0, 1), BuildingBlock: EZIPEK_clean_linker_0, # of connection points: 2
#     Edge 227, Type (0, 1), BuildingBlock: EZIPEK_clean_linker_0, # of connection points: 2
#     Edge 228, Type (0, 1), BuildingBlock: EZIPEK_clean_linker_0, # of connection points: 2
#     Edge 229, Type (0, 1), BuildingBlock: EZIPEK_clean_linker_0, # of connection points: 2
#     Edge 230, Type (0, 1), BuildingBlock: EZIPEK_clean_linker_0, # of connection points: 2
#     Edge 231, Type (0, 1), BuildingBlock: EZIPEK_clean_linker_0, # of connection points: 2
#     Edge 232, Type (0, 1), BuildingBlock: EZIPEK_clean_linker_0, # of connection points: 2
#     Edge 233, Type (0, 1), BuildingBlock: EZIPEK_clean_linker_0, # of connection points: 2
#     Edge 234, Type (0, 1), BuildingBlock: EZIPEK_clean_linker_0, # of connection points: 2
#     Edge 235, Type (0, 1), BuildingBlock: EZIPEK_clean_linker_0, # of connection points: 2
#     Edge 236, Type (0, 1), BuildingBlock: EZIPEK_clean_linker_0, # of connection points: 2
#     Edge 237, Type (0, 1), BuildingBlock: EZIPEK_clean_linker_0, # of connection points: 2
#     Edge 238, Type (0, 1), BuildingBlock: EZIPEK_clean_linker_0, # of connection points: 2
#     Edge 239, Type (0, 1), BuildingBlock: EZIPEK_clean_linker_0, # of connection points: 2
#     Edge 240, Type (0, 1), BuildingBlock: EZIPEK_clean_linker_0, # of connection points: 2
#     Edge 241, Type (0, 1), BuildingBlock: EZIPEK_clean_linker_0, # of connection points: 2
#     Edge 242, Type (0, 1), BuildingBlock: EZIPEK_clean_linker_0, # of connection points: 2
#     Edge 243, Type (0, 1), BuildingBlock: EZIPEK_clean_linker_0, # of connection points: 2
#     Edge 244, Type (0, 1), BuildingBlock: EZIPEK_clean_linker_0, # of connection points: 2
#     Edge 245, Type (0, 1), BuildingBlock: EZIPEK_clean_linker_0, # of connection points: 2
#     Edge 246, Type (0, 1), BuildingBlock: EZIPEK_clean_linker_0, # of connection points: 2
#     Edge 247, Type (0, 1), BuildingBlock: EZIPEK_clean_linker_0, # of connection points: 2
#     Edge 248, Type (0, 1), BuildingBlock: EZIPEK_clean_linker_0, # of connection points: 2
#     Edge 249, Type (0, 1), BuildingBlock: EZIPEK_clean_linker_0, # of connection points: 2
#     Edge 250, Type (0, 1), BuildingBlock: EZIPEK_clean_linker_0, # of connection points: 2
#     Edge 251, Type (0, 1), BuildingBlock: EZIPEK_clean_linker_0, # of connection points: 2
#     Edge 252, Type (0, 1), BuildingBlock: EZIPEK_clean_linker_0, # of connection points: 2
#     Edge 253, Type (0, 1), BuildingBlock: EZIPEK_clean_linker_0, # of connection points: 2
#     Edge 254, Type (0, 1), BuildingBlock: EZIPEK_clean_linker_0, # of connection points: 2
#     Edge 255, Type (0, 1), BuildingBlock: EZIPEK_clean_linker_0, # of connection points: 2
#     Edge 256, Type (0, 1), BuildingBlock: EZIPEK_clean_linker_0, # of connection points: 2
#     Edge 257, Type (0, 1), BuildingBlock: EZIPEK_clean_linker_0, # of connection points: 2
#     Edge 258, Type (0, 1), BuildingBlock: EZIPEK_clean_linker_0, # of connection points: 2
#     Edge 259, Type (0, 1), BuildingBlock: EZIPEK_clean_linker_0, # of connection points: 2
#     Edge 260, Type (0, 1), BuildingBlock: EZIPEK_clean_linker_0, # of connection points: 2
#     Edge 261, Type (0, 1), BuildingBlock: EZIPEK_clean_linker_0, # of connection points: 2
#     Edge 262, Type (0, 1), BuildingBlock: EZIPEK_clean_linker_0, # of connection points: 2
#     Edge 263, Type (0, 1), BuildingBlock: EZIPEK_clean_linker_0, # of connection points: 2
#     Edge 264, Type (0, 1), BuildingBlock: EZIPEK_clean_linker_0, # of connection points: 2
#     Edge 265, Type (0, 1), BuildingBlock: EZIPEK_clean_linker_0, # of connection points: 2
#     Edge 266, Type (0, 1), BuildingBlock: EZIPEK_clean_linker_0, # of connection points: 2
#     Edge 267, Type (0, 1), BuildingBlock: EZIPEK_clean_linker_0, # of connection points: 2
#     Edge 268, Type (0, 1), BuildingBlock: EZIPEK_clean_linker_0, # of connection points: 2
#     Edge 269, Type (0, 1), BuildingBlock: EZIPEK_clean_linker_0, # of connection points: 2
#     Edge 270, Type (0, 1), BuildingBlock: EZIPEK_clean_linker_0, # of connection points: 2
#     Edge 271, Type (0, 1), BuildingBlock: EZIPEK_clean_linker_0, # of connection points: 2
#     Edge 272, Type (0, 1), BuildingBlock: EZIPEK_clean_linker_0, # of connection points: 2
#     Edge 273, Type (0, 1), BuildingBlock: EZIPEK_clean_linker_0, # of connection points: 2
#     Edge 274, Type (0, 1), BuildingBlock: EZIPEK_clean_linker_0, # of connection points: 2
#     Edge 275, Type (0, 1), BuildingBlock: EZIPEK_clean_linker_0, # of connection points: 2
#     Edge 276, Type (0, 1), BuildingBlock: EZIPEK_clean_linker_0, # of connection points: 2
#     Edge 277, Type (0, 1), BuildingBlock: EZIPEK_clean_linker_0, # of connection points: 2
#     Edge 278, Type (0, 1), BuildingBlock: EZIPEK_clean_linker_0, # of connection points: 2
#     Edge 279, Type (0, 1), BuildingBlock: EZIPEK_clean_linker_0, # of connection points: 2
#     Edge 280, Type (0, 1), BuildingBlock: EZIPEK_clean_linker_0, # of connection points: 2
#     Edge 281, Type (0, 1), BuildingBlock: EZIPEK_clean_linker_0, # of connection points: 2
#     Edge 282, Type (0, 1), BuildingBlock: EZIPEK_clean_linker_0, # of connection points: 2
#     Edge 283, Type (0, 1), BuildingBlock: EZIPEK_clean_linker_0, # of connection points: 2
#     Edge 284, Type (0, 1), BuildingBlock: EZIPEK_clean_linker_0, # of connection points: 2
#     Edge 285, Type (0, 1), BuildingBlock: EZIPEK_clean_linker_0, # of connection points: 2
#     Edge 286, Type (0, 1), BuildingBlock: EZIPEK_clean_linker_0, # of connection points: 2
#     Edge 287, Type (0, 1), BuildingBlock: EZIPEK_clean_linker_0, # of connection points: 2
#     Edge 288, Type (0, 1), BuildingBlock: EZIPEK_clean_linker_0, # of connection points: 2
#     Edge 289, Type (0, 1), BuildingBlock: EZIPEK_clean_linker_0, # of connection points: 2
#     Edge 290, Type (0, 1), BuildingBlock: EZIPEK_clean_linker_0, # of connection points: 2
#     Edge 291, Type (0, 1), BuildingBlock: EZIPEK_clean_linker_0, # of connection points: 2
#     Edge 292, Type (0, 1), BuildingBlock: EZIPEK_clean_linker_0, # of connection points: 2
#     Edge 293, Type (0, 1), BuildingBlock: EZIPEK_clean_linker_0, # of connection points: 2
#     Edge 294, Type (0, 1), BuildingBlock: EZIPEK_clean_linker_0, # of connection points: 2
#     Edge 295, Type (0, 1), BuildingBlock: EZIPEK_clean_linker_0, # of connection points: 2
#     Edge 296, Type (0, 1), BuildingBlock: EZIPEK_clean_linker_0, # of connection points: 2
#     Edge 297, Type (0, 1), BuildingBlock: EZIPEK_clean_linker_0, # of connection points: 2
#     Edge 298, Type (0, 1), BuildingBlock: EZIPEK_clean_linker_0, # of connection points: 2
#     Edge 299, Type (0, 1), BuildingBlock: EZIPEK_clean_linker_0, # of connection points: 2
#     Edge 300, Type (0, 1), BuildingBlock: EZIPEK_clean_linker_0, # of connection points: 2
#     Edge 301, Type (0, 1), BuildingBlock: EZIPEK_clean_linker_0, # of connection points: 2
#     Edge 302, Type (0, 1), BuildingBlock: EZIPEK_clean_linker_0, # of connection points: 2
#     Edge 303, Type (0, 1), BuildingBlock: EZIPEK_clean_linker_0, # of connection points: 2
#     Edge 304, Type (0, 1), BuildingBlock: EZIPEK_clean_linker_0, # of connection points: 2
#     Edge 305, Type (0, 1), BuildingBlock: EZIPEK_clean_linker_0, # of connection points: 2
#     Edge 306, Type (0, 1), BuildingBlock: EZIPEK_clean_linker_0, # of connection points: 2
#     Edge 307, Type (0, 1), BuildingBlock: EZIPEK_clean_linker_0, # of connection points: 2
#     Edge 308, Type (0, 1), BuildingBlock: EZIPEK_clean_linker_0, # of connection points: 2
#     Edge 309, Type (0, 1), BuildingBlock: EZIPEK_clean_linker_0, # of connection points: 2
#     Edge 310, Type (0, 1), BuildingBlock: EZIPEK_clean_linker_0, # of connection points: 2
#     Edge 311, Type (0, 1), BuildingBlock: EZIPEK_clean_linker_0, # of connection points: 2
#     Edge 312, Type (0, 1), BuildingBlock: EZIPEK_clean_linker_0, # of connection points: 2
#     Edge 313, Type (0, 1), BuildingBlock: EZIPEK_clean_linker_0, # of connection points: 2
#     Edge 314, Type (0, 1), BuildingBlock: EZIPEK_clean_linker_0, # of connection points: 2
#     Edge 315, Type (0, 1), BuildingBlock: EZIPEK_clean_linker_0, # of connection points: 2
#     Edge 316, Type (0, 1), BuildingBlock: EZIPEK_clean_linker_0, # of connection points: 2
#     Edge 317, Type (0, 1), BuildingBlock: EZIPEK_clean_linker_0, # of connection points: 2
#     Edge 318, Type (0, 1), BuildingBlock: EZIPEK_clean_linker_0, # of connection points: 2
#     Edge 319, Type (0, 1), BuildingBlock: EZIPEK_clean_linker_0, # of connection points: 2
#     Edge 320, Type (0, 1), BuildingBlock: EZIPEK_clean_linker_0, # of connection points: 2
#     Edge 321, Type (0, 1), BuildingBlock: EZIPEK_clean_linker_0, # of connection points: 2
#     Edge 322, Type (0, 1), BuildingBlock: EZIPEK_clean_linker_0, # of connection points: 2
#     Edge 323, Type (0, 1), BuildingBlock: EZIPEK_clean_linker_0, # of connection points: 2
#     Edge 324, Type (0, 1), BuildingBlock: EZIPEK_clean_linker_0, # of connection points: 2
#     Edge 325, Type (0, 1), BuildingBlock: EZIPEK_clean_linker_0, # of connection points: 2
#     Edge 326, Type (0, 1), BuildingBlock: EZIPEK_clean_linker_0, # of connection points: 2
#     Edge 327, Type (0, 1), BuildingBlock: EZIPEK_clean_linker_0, # of connection points: 2
#     Edge 328, Type (0, 1), BuildingBlock: EZIPEK_clean_linker_0, # of connection points: 2
#     Edge 329, Type (0, 1), BuildingBlock: EZIPEK_clean_linker_0, # of connection points: 2
#     Edge 330, Type (0, 1), BuildingBlock: EZIPEK_clean_linker_0, # of connection points: 2
#     Edge 331, Type (0, 1), BuildingBlock: EZIPEK_clean_linker_0, # of connection points: 2
#     Edge 332, Type (0, 1), BuildingBlock: EZIPEK_clean_linker_0, # of connection points: 2
#     Edge 333, Type (0, 1), BuildingBlock: EZIPEK_clean_linker_0, # of connection points: 2
#     Edge 334, Type (0, 1), BuildingBlock: EZIPEK_clean_linker_0, # of connection points: 2
#     Edge 335, Type (0, 1), BuildingBlock: EZIPEK_clean_linker_0, # of connection points: 2
#     Edge 336, Type (0, 1), BuildingBlock: EZIPEK_clean_linker_0, # of connection points: 2
#     Edge 337, Type (0, 1), BuildingBlock: EZIPEK_clean_linker_0, # of connection points: 2
#     Edge 338, Type (0, 1), BuildingBlock: EZIPEK_clean_linker_0, # of connection points: 2
#     Edge 339, Type (0, 1), BuildingBlock: EZIPEK_clean_linker_0, # of connection points: 2
#     Edge 340, Type (0, 1), BuildingBlock: EZIPEK_clean_linker_0, # of connection points: 2
#     Edge 341, Type (0, 1), BuildingBlock: EZIPEK_clean_linker_0, # of connection points: 2
#     Edge 342, Type (0, 1), BuildingBlock: EZIPEK_clean_linker_0, # of connection points: 2
#     Edge 343, Type (0, 1), BuildingBlock: EZIPEK_clean_linker_0, # of connection points: 2
#     Edge 344, Type (0, 1), BuildingBlock: EZIPEK_clean_linker_0, # of connection points: 2
#     Edge 345, Type (0, 1), BuildingBlock: EZIPEK_clean_linker_0, # of connection points: 2
#     Edge 346, Type (0, 1), BuildingBlock: EZIPEK_clean_linker_0, # of connection points: 2
#     Edge 347, Type (0, 1), BuildingBlock: EZIPEK_clean_linker_0, # of connection points: 2
#     Edge 348, Type (0, 1), BuildingBlock: EZIPEK_clean_linker_0, # of connection points: 2
#     Edge 349, Type (0, 1), BuildingBlock: EZIPEK_clean_linker_0, # of connection points: 2
#     Edge 350, Type (0, 1), BuildingBlock: EZIPEK_clean_linker_0, # of connection points: 2
#     Edge 351, Type (0, 1), BuildingBlock: EZIPEK_clean_linker_0, # of connection points: 2
#     Edge 352, Type (0, 1), BuildingBlock: EZIPEK_clean_linker_0, # of connection points: 2
#     Edge 353, Type (0, 1), BuildingBlock: EZIPEK_clean_linker_0, # of connection points: 2
#     Edge 354, Type (0, 1), BuildingBlock: EZIPEK_clean_linker_0, # of connection points: 2
#     Edge 355, Type (0, 1), BuildingBlock: EZIPEK_clean_linker_0, # of connection points: 2
#     Edge 356, Type (0, 1), BuildingBlock: EZIPEK_clean_linker_0, # of connection points: 2
#     Edge 357, Type (0, 1), BuildingBlock: EZIPEK_clean_linker_0, # of connection points: 2
#     Edge 358, Type (0, 1), BuildingBlock: EZIPEK_clean_linker_0, # of connection points: 2
#     Edge 359, Type (0, 1), BuildingBlock: EZIPEK_clean_linker_0, # of connection points: 2
#     Edge 360, Type (0, 1), BuildingBlock: EZIPEK_clean_linker_0, # of connection points: 2
#     Edge 361, Type (0, 1), BuildingBlock: EZIPEK_clean_linker_0, # of connection points: 2
#     Edge 362, Type (0, 1), BuildingBlock: EZIPEK_clean_linker_0, # of connection points: 2
#     Edge 363, Type (0, 1), BuildingBlock: EZIPEK_clean_linker_0, # of connection points: 2
#     Edge 364, Type (0, 1), BuildingBlock: EZIPEK_clean_linker_0, # of connection points: 2
#     Edge 365, Type (0, 1), BuildingBlock: EZIPEK_clean_linker_0, # of connection points: 2
#     Edge 366, Type (0, 1), BuildingBlock: EZIPEK_clean_linker_0, # of connection points: 2
#     Edge 367, Type (0, 1), BuildingBlock: EZIPEK_clean_linker_0, # of connection points: 2
#     Edge 368, Type (0, 1), BuildingBlock: EZIPEK_clean_linker_0, # of connection points: 2
#     Edge 369, Type (0, 1), BuildingBlock: EZIPEK_clean_linker_0, # of connection points: 2
#     Edge 370, Type (0, 1), BuildingBlock: EZIPEK_clean_linker_0, # of connection points: 2
#     Edge 371, Type (0, 1), BuildingBlock: EZIPEK_clean_linker_0, # of connection points: 2
#     Edge 372, Type (0, 1), BuildingBlock: EZIPEK_clean_linker_0, # of connection points: 2
#     Edge 373, Type (0, 1), BuildingBlock: EZIPEK_clean_linker_0, # of connection points: 2
#     Edge 374, Type (0, 1), BuildingBlock: EZIPEK_clean_linker_0, # of connection points: 2
#     Edge 375, Type (0, 1), BuildingBlock: EZIPEK_clean_linker_0, # of connection points: 2
#     Edge 376, Type (0, 1), BuildingBlock: EZIPEK_clean_linker_0, # of connection points: 2
#     Edge 377, Type (0, 1), BuildingBlock: EZIPEK_clean_linker_0, # of connection points: 2
#     Edge 378, Type (0, 1), BuildingBlock: EZIPEK_clean_linker_0, # of connection points: 2
#     Edge 379, Type (0, 1), BuildingBlock: EZIPEK_clean_linker_0, # of connection points: 2
#     Edge 380, Type (0, 1), BuildingBlock: EZIPEK_clean_linker_0, # of connection points: 2
#     Edge 381, Type (0, 1), BuildingBlock: EZIPEK_clean_linker_0, # of connection points: 2
#     Edge 382, Type (0, 1), BuildingBlock: EZIPEK_clean_linker_0, # of connection points: 2
#     Edge 383, Type (0, 1), BuildingBlock: EZIPEK_clean_linker_0, # of connection points: 2
#     Edge 384, Type (0, 1), BuildingBlock: EZIPEK_clean_linker_0, # of connection points: 2
#     Edge 385, Type (0, 1), BuildingBlock: EZIPEK_clean_linker_0, # of connection points: 2
#     Edge 386, Type (0, 1), BuildingBlock: EZIPEK_clean_linker_0, # of connection points: 2
#     Edge 387, Type (0, 1), BuildingBlock: EZIPEK_clean_linker_0, # of connection points: 2
#     Edge 388, Type (0, 1), BuildingBlock: EZIPEK_clean_linker_0, # of connection points: 2
#     Edge 389, Type (0, 1), BuildingBlock: EZIPEK_clean_linker_0, # of connection points: 2
#     Edge 390, Type (0, 1), BuildingBlock: EZIPEK_clean_linker_0, # of connection points: 2
#     Edge 391, Type (0, 1), BuildingBlock: EZIPEK_clean_linker_0, # of connection points: 2
#     Edge 392, Type (0, 1), BuildingBlock: EZIPEK_clean_linker_0, # of connection points: 2
#     Edge 393, Type (0, 1), BuildingBlock: EZIPEK_clean_linker_0, # of connection points: 2
#     Edge 394, Type (0, 1), BuildingBlock: EZIPEK_clean_linker_0, # of connection points: 2
#     Edge 395, Type (0, 1), BuildingBlock: EZIPEK_clean_linker_0, # of connection points: 2
#     Edge 396, Type (0, 1), BuildingBlock: EZIPEK_clean_linker_0, # of connection points: 2
#     Edge 397, Type (0, 1), BuildingBlock: EZIPEK_clean_linker_0, # of connection points: 2
#     Edge 398, Type (0, 1), BuildingBlock: EZIPEK_clean_linker_0, # of connection points: 2
#     Edge 399, Type (0, 1), BuildingBlock: EZIPEK_clean_linker_0, # of connection points: 2
#     Edge 400, Type (0, 1), BuildingBlock: EZIPEK_clean_linker_0, # of connection points: 2
#     Edge 401, Type (0, 1), BuildingBlock: EZIPEK_clean_linker_0, # of connection points: 2
#     Edge 402, Type (0, 1), BuildingBlock: EZIPEK_clean_linker_0, # of connection points: 2
#     Edge 403, Type (0, 1), BuildingBlock: EZIPEK_clean_linker_0, # of connection points: 2
#     Edge 404, Type (0, 1), BuildingBlock: EZIPEK_clean_linker_0, # of connection points: 2
#     Edge 405, Type (0, 1), BuildingBlock: EZIPEK_clean_linker_0, # of connection points: 2
#     Edge 406, Type (0, 1), BuildingBlock: EZIPEK_clean_linker_0, # of connection points: 2
#     Edge 407, Type (0, 1), BuildingBlock: EZIPEK_clean_linker_0, # of connection points: 2
#     Edge 408, Type (0, 1), BuildingBlock: EZIPEK_clean_linker_0, # of connection points: 2
#     Edge 409, Type (0, 1), BuildingBlock: EZIPEK_clean_linker_0, # of connection points: 2
#     Edge 410, Type (0, 1), BuildingBlock: EZIPEK_clean_linker_0, # of connection points: 2
#     Edge 411, Type (0, 1), BuildingBlock: EZIPEK_clean_linker_0, # of connection points: 2
#     Edge 412, Type (0, 1), BuildingBlock: EZIPEK_clean_linker_0, # of connection points: 2
#     Edge 413, Type (0, 1), BuildingBlock: EZIPEK_clean_linker_0, # of connection points: 2
#     Edge 414, Type (0, 1), BuildingBlock: EZIPEK_clean_linker_0, # of connection points: 2
#     Edge 415, Type (0, 1), BuildingBlock: EZIPEK_clean_linker_0, # of connection points: 2
#     Edge 416, Type (0, 1), BuildingBlock: EZIPEK_clean_linker_0, # of connection points: 2
#     Edge 417, Type (0, 1), BuildingBlock: EZIPEK_clean_linker_0, # of connection points: 2
#     Edge 418, Type (0, 1), BuildingBlock: EZIPEK_clean_linker_0, # of connection points: 2
#     Edge 419, Type (0, 1), BuildingBlock: EZIPEK_clean_linker_0, # of connection points: 2
#     Edge 420, Type (0, 1), BuildingBlock: EZIPEK_clean_linker_0, # of connection points: 2
#     Edge 421, Type (0, 1), BuildingBlock: EZIPEK_clean_linker_0, # of connection points: 2
#     Edge 422, Type (0, 1), BuildingBlock: EZIPEK_clean_linker_0, # of connection points: 2
#     Edge 423, Type (0, 1), BuildingBlock: EZIPEK_clean_linker_0, # of connection points: 2
#     Edge 424, Type (0, 1), BuildingBlock: EZIPEK_clean_linker_0, # of connection points: 2
#     Edge 425, Type (0, 1), BuildingBlock: EZIPEK_clean_linker_0, # of connection points: 2
#     Edge 426, Type (0, 1), BuildingBlock: EZIPEK_clean_linker_0, # of connection points: 2
#     Edge 427, Type (0, 1), BuildingBlock: EZIPEK_clean_linker_0, # of connection points: 2
#     Edge 428, Type (0, 1), BuildingBlock: EZIPEK_clean_linker_0, # of connection points: 2
#     Edge 429, Type (0, 1), BuildingBlock: EZIPEK_clean_linker_0, # of connection points: 2
#     Edge 430, Type (0, 1), BuildingBlock: EZIPEK_clean_linker_0, # of connection points: 2
#     Edge 431, Type (0, 1), BuildingBlock: EZIPEK_clean_linker_0, # of connection points: 2
#     Edge 432, Type (0, 1), BuildingBlock: EZIPEK_clean_linker_0, # of connection points: 2
#     Edge 433, Type (0, 1), BuildingBlock: EZIPEK_clean_linker_0, # of connection points: 2
#     Edge 434, Type (0, 1), BuildingBlock: EZIPEK_clean_linker_0, # of connection points: 2
#     Edge 435, Type (0, 1), BuildingBlock: EZIPEK_clean_linker_0, # of connection points: 2
#     Edge 436, Type (0, 1), BuildingBlock: EZIPEK_clean_linker_0, # of connection points: 2
#     Edge 437, Type (0, 1), BuildingBlock: EZIPEK_clean_linker_0, # of connection points: 2
#     Edge 438, Type (0, 1), BuildingBlock: EZIPEK_clean_linker_0, # of connection points: 2
#     Edge 439, Type (0, 1), BuildingBlock: EZIPEK_clean_linker_0, # of connection points: 2
#     Edge 440, Type (0, 1), BuildingBlock: EZIPEK_clean_linker_0, # of connection points: 2
#     Edge 441, Type (0, 1), BuildingBlock: EZIPEK_clean_linker_0, # of connection points: 2
#     Edge 442, Type (0, 1), BuildingBlock: EZIPEK_clean_linker_0, # of connection points: 2
#     Edge 443, Type (0, 1), BuildingBlock: EZIPEK_clean_linker_0, # of connection points: 2
#     Edge 444, Type (0, 1), BuildingBlock: EZIPEK_clean_linker_0, # of connection points: 2
#     Edge 445, Type (0, 1), BuildingBlock: EZIPEK_clean_linker_0, # of connection points: 2
#     Edge 446, Type (0, 1), BuildingBlock: EZIPEK_clean_linker_0, # of connection points: 2
#     Edge 447, Type (0, 1), BuildingBlock: EZIPEK_clean_linker_0, # of connection points: 2
#     Edge 448, Type (0, 1), BuildingBlock: EZIPEK_clean_linker_0, # of connection points: 2
#     Edge 449, Type (0, 1), BuildingBlock: EZIPEK_clean_linker_0, # of connection points: 2
#     Edge 450, Type (0, 1), BuildingBlock: EZIPEK_clean_linker_0, # of connection points: 2
#     Edge 451, Type (0, 1), BuildingBlock: EZIPEK_clean_linker_0, # of connection points: 2
#     Edge 452, Type (0, 1), BuildingBlock: EZIPEK_clean_linker_0, # of connection points: 2
#     Edge 453, Type (0, 1), BuildingBlock: EZIPEK_clean_linker_0, # of connection points: 2
#     Edge 454, Type (0, 1), BuildingBlock: EZIPEK_clean_linker_0, # of connection points: 2
#     Edge 455, Type (0, 1), BuildingBlock: EZIPEK_clean_linker_0, # of connection points: 2
#     Edge 456, Type (0, 1), BuildingBlock: EZIPEK_clean_linker_0, # of connection points: 2
#     Edge 457, Type (0, 1), BuildingBlock: EZIPEK_clean_linker_0, # of connection points: 2
#     Edge 458, Type (0, 1), BuildingBlock: EZIPEK_clean_linker_0, # of connection points: 2
#     Edge 459, Type (0, 1), BuildingBlock: EZIPEK_clean_linker_0, # of connection points: 2
#     Edge 460, Type (0, 1), BuildingBlock: EZIPEK_clean_linker_0, # of connection points: 2
#     Edge 461, Type (0, 1), BuildingBlock: EZIPEK_clean_linker_0, # of connection points: 2
#     Edge 462, Type (0, 1), BuildingBlock: EZIPEK_clean_linker_0, # of connection points: 2
#     Edge 463, Type (0, 1), BuildingBlock: EZIPEK_clean_linker_0, # of connection points: 2
#     Edge 464, Type (0, 1), BuildingBlock: EZIPEK_clean_linker_0, # of connection points: 2
#     Edge 465, Type (0, 1), BuildingBlock: EZIPEK_clean_linker_0, # of connection points: 2
#     Edge 466, Type (0, 1), BuildingBlock: EZIPEK_clean_linker_0, # of connection points: 2
#     Edge 467, Type (0, 1), BuildingBlock: EZIPEK_clean_linker_0, # of connection points: 2
#     Edge 468, Type (0, 1), BuildingBlock: EZIPEK_clean_linker_0, # of connection points: 2
#     Edge 469, Type (0, 1), BuildingBlock: EZIPEK_clean_linker_0, # of connection points: 2
#     Edge 470, Type (0, 1), BuildingBlock: EZIPEK_clean_linker_0, # of connection points: 2
#     Edge 471, Type (0, 1), BuildingBlock: EZIPEK_clean_linker_0, # of connection points: 2
#     Edge 472, Type (0, 1), BuildingBlock: EZIPEK_clean_linker_0, # of connection points: 2
#     Edge 473, Type (0, 1), BuildingBlock: EZIPEK_clean_linker_0, # of connection points: 2
#     Edge 474, Type (0, 1), BuildingBlock: EZIPEK_clean_linker_0, # of connection points: 2
#     Edge 475, Type (0, 1), BuildingBlock: EZIPEK_clean_linker_0, # of connection points: 2
#     Edge 476, Type (0, 1), BuildingBlock: EZIPEK_clean_linker_0, # of connection points: 2
#     Edge 477, Type (0, 1), BuildingBlock: EZIPEK_clean_linker_0, # of connection points: 2
#     Edge 478, Type (0, 1), BuildingBlock: EZIPEK_clean_linker_0, # of connection points: 2
#     Edge 479, Type (0, 1), BuildingBlock: EZIPEK_clean_linker_0, # of connection points: 2
# Relax obj value: 0.011
# Max RMSD: 0.046
# Mean RMSD: 0.040
data_MOF--net-ana-f--node1-WUSLED_clean_sbu_0--node2-QEWDON_clean_linker_0--edge1-EZIPEK_clean_linker_0
_symmetry_space_group_name_H-M    P1
_symmetry_Int_Tables_number       1
_symmetry_cell_setting            triclinic
loop_
_symmetry_equiv_pos_as_xyz
'x, y, z'
_cell_length_a     152.89356
_cell_length_b     152.79954
_cell_length_c     152.85931
_cell_angle_alpha  90.02232
_cell_angle_beta   89.987483
_cell_angle_gamma 89.964255
loop_
_atom_site_label
_atom_site_type_symbol
_atom_site_fract_x
_atom_site_fract_y
_atom_site_fract_z
_atom_type_partial_charge
C0 C 0.08574 0.15365 0.44124 0.0
C1 C 0.09436 0.15649 0.4398 0.0
C2 C 0.09936 0.14818 0.45241 0.0
C3 C 0.10112 0.15374 0.44532 0.0
C4 C 0.09072 0.14548 0.45397 0.0
C5 C 0.08395 0.14818 0.4484 0.0
U6 U 0.07739 0.16896 0.42369 0.0
O7 O 0.07068 0.16641 0.41122 0.0
O8 O 0.06437 0.17465 0.42114 0.0
C9 C 0.06356 0.17063 0.41357 0.0
C10 C 0.07866 0.1563 0.43523 0.0
C11 C 0.05509 0.16623 0.41165 0.0
C12 C 0.03948 0.16412 0.4144 0.0
C13 C 0.04759 0.16771 0.41681 0.0
C14 C 0.0462 0.15749 0.40169 0.0
C15 C 0.03874 0.15901 0.4068 0.0
C16 C 0.05427 0.16107 0.40406 0.0
C17 C 0.09412 0.18706 0.41722 0.0
C18 C 0.09335 0.19712 0.4049 0.0
C19 C 0.10605 0.19714 0.41439 0.0
C20 C 0.10229 0.19055 0.41945 0.0
C21 C 0.1017 0.20038 0.407 0.0
C22 C 0.08959 0.19045 0.40997 0.0
C23 C 0.09083 0.17958 0.4223 0.0
O24 O 0.07494 0.16386 0.43697 0.0
O25 O 0.08041 0.15526 0.42688 0.0
O26 O 0.09022 0.17213 0.41806 0.0
O27 O 0.08421 0.18106 0.42758 0.0
H28 H 0.09588 0.16076 0.43435 0.0
H29 H 0.10775 0.15591 0.44404 0.0
H30 H 0.08925 0.14119 0.45941 0.0
H31 H 0.07734 0.14595 0.44963 0.0
H32 H 0.03378 0.16541 0.4184 0.0
H33 H 0.04793 0.17176 0.42261 0.0
H34 H 0.04575 0.15361 0.39577 0.0
H35 H 0.05986 0.15993 0.39985 0.0
H36 H 0.0899 0.19955 0.39921 0.0
H37 H 0.11248 0.19958 0.41612 0.0
H38 H 0.10588 0.188 0.42501 0.0
H39 H 0.08327 0.18781 0.40814 0.0
C40 C 0.11947 0.83559 0.68989 0.0
C41 C 0.1172 0.84433 0.68817 0.0
C42 C 0.12499 0.84907 0.70119 0.0
C43 C 0.11998 0.85103 0.69376 0.0
C44 C 0.12716 0.84032 0.703 0.0
C45 C 0.12443 0.83362 0.69736 0.0
U46 U 0.10397 0.82773 0.67234 0.0
O47 O 0.1061 0.82062 0.66004 0.0
O48 O 0.09758 0.81495 0.67012 0.0
C49 C 0.10153 0.81378 0.66256 0.0
C50 C 0.1166 0.82854 0.68394 0.0
C51 C 0.10553 0.80508 0.66099 0.0
C52 C 0.11809 0.79598 0.65729 0.0
C53 C 0.1146 0.80407 0.65982 0.0
C54 C 0.10358 0.78964 0.65747 0.0
C55 C 0.11259 0.78875 0.65591 0.0
C56 C 0.10008 0.79775 0.65995 0.0
C57 C 0.08676 0.84549 0.66578 0.0
C58 C 0.07714 0.84593 0.65311 0.0
C59 C 0.07683 0.85772 0.66372 0.0
C60 C 0.08323 0.85346 0.66864 0.0
C61 C 0.07384 0.85408 0.65585 0.0
C62 C 0.08361 0.84166 0.65804 0.0
C63 C 0.09408 0.84174 0.67077 0.0
O64 O 0.10887 0.82519 0.68567 0.0
O65 O 0.11778 0.8301 0.67557 0.0
O66 O 0.10144 0.84061 0.66647 0.0
O67 O 0.09227 0.83528 0.67615 0.0
H68 H 0.11331 0.84599 0.68248 0.0
H69 H 0.11823 0.85774 0.69229 0.0
H70 H 0.13102 0.83871 0.70872 0.0
H71 H 0.1262 0.82691 0.69882 0.0
H72 H 0.12506 0.79541 0.65615 0.0
H73 H 0.11897 0.80959 0.66062 0.0
H74 H 0.09923 0.78413 0.65646 0.0
H75 H 0.09307 0.79836 0.6608 0.0
H76 H 0.07489 0.84302 0.64705 0.0
H77 H 0.07436 0.86399 0.66594 0.0
H78 H 0.08559 0.85651 0.67459 0.0
H79 H 0.08629 0.83551 0.65573 0.0
C80 C 0.43677 0.86927 0.94098 0.0
C81 C 0.42811 0.86676 0.93922 0.0
C82 C 0.42304 0.87471 0.95203 0.0
C83 C 0.42129 0.86949 0.94468 0.0
C84 C 0.43171 0.87711 0.95389 0.0
C85 C 0.43853 0.87442 0.94838 0.0
U86 U 0.44513 0.85435 0.92308 0.0
O87 O 0.45242 0.85702 0.911 0.0
O88 O 0.45805 0.84822 0.92085 0.0
C89 C 0.45927 0.85243 0.91345 0.0
C90 C 0.44393 0.86658 0.93509 0.0
C91 C 0.46796 0.8565 0.91204 0.0
C92 C 0.47694 0.86903 0.90797 0.0
C93 C 0.46886 0.86554 0.91052 0.0
C94 C 0.48348 0.85462 0.90887 0.0
C95 C 0.48426 0.86357 0.90693 0.0
C96 C 0.47538 0.85112 0.91136 0.0
C97 C 0.42795 0.83719 0.91511 0.0
C98 C 0.42883 0.82259 0.90874 0.0
C99 C 0.41552 0.83109 0.90729 0.0
C100 C 0.41937 0.83794 0.91193 0.0
C101 C 0.42016 0.82332 0.90577 0.0
C102 C 0.43271 0.82949 0.9134 0.0
C103 C 0.43137 0.84434 0.92064 0.0
O104 O 0.44727 0.8588 0.93664 0.0
O105 O 0.44253 0.86802 0.92673 0.0
O106 O 0.43239 0.85197 0.91681 0.0
O107 O 0.43766 0.84244 0.9262 0.0
H108 H 0.42661 0.86274 0.93357 0.0
H109 H 0.41464 0.86757 0.94317 0.0
H110 H 0.43316 0.88113 0.95954 0.0
H111 H 0.44517 0.8764 0.94986 0.0
H112 H 0.47742 0.87595 0.90654 0.0
H113 H 0.46327 0.86987 0.91101 0.0
H114 H 0.48906 0.8503 0.90812 0.0
H115 H 0.47485 0.84413 0.91247 0.0
H116 H 0.43251 0.81664 0.90758 0.0
H117 H 0.40884 0.83177 0.90503 0.0
H118 H 0.41557 0.84379 0.9132 0.0
H119 H 0.43934 0.82875 0.91579 0.0
C120 C 0.40416 0.18787 0.19117 0.0
C121 C 0.40898 0.18006 0.19166 0.0
C122 C 0.3986 0.17416 0.20216 0.0
C123 C 0.40623 0.17326 0.19713 0.0
C124 C 0.39383 0.18201 0.20175 0.0
C125 C 0.3966 0.18883 0.19628 0.0
U126 U 0.41899 0.19576 0.17299 0.0
O127 O 0.41622 0.20286 0.16082 0.0
O128 O 0.42515 0.2086 0.17049 0.0
C129 C 0.42087 0.20973 0.16311 0.0
C130 C 0.40682 0.19488 0.1851 0.0
C131 C 0.41677 0.2184 0.16169 0.0
C132 C 0.40404 0.22742 0.15837 0.0
C133 C 0.40766 0.21937 0.16086 0.0
C134 C 0.41853 0.23381 0.15792 0.0
C135 C 0.40947 0.23464 0.15669 0.0
C136 C 0.42215 0.22574 0.16036 0.0
C137 C 0.43599 0.17829 0.1652 0.0
C138 C 0.45063 0.17878 0.15891 0.0
C139 C 0.44181 0.1657 0.1574 0.0
C140 C 0.43504 0.16973 0.16201 0.0
C141 C 0.4497 0.17013 0.15593 0.0
C142 C 0.44382 0.18284 0.16354 0.0
C143 C 0.42892 0.18189 0.17072 0.0
O144 O 0.41462 0.19823 0.1865 0.0
O145 O 0.40534 0.19322 0.17679 0.0
O146 O 0.42127 0.18288 0.16694 0.0
O147 O 0.43089 0.18828 0.17615 0.0
H148 H 0.41482 0.17919 0.18773 0.0
H149 H 0.40996 0.16723 0.19735 0.0
H150 H 0.38792 0.1828 0.20558 0.0
H151 H 0.39278 0.19479 0.19596 0.0
H152 H 0.39703 0.22794 0.15748 0.0
H153 H 0.40334 0.21384 0.16187 0.0
H154 H 0.42281 0.23931 0.15668 0.0
H155 H 0.42919 0.22516 0.16094 0.0
H156 H 0.45668 0.1823 0.1578 0.0
H157 H 0.44097 0.15903 0.15513 0.0
H158 H 0.42909 0.16608 0.16324 0.0
H159 H 0.44472 0.18945 0.16595 0.0
C160 C 0.08548 0.86853 0.08182 0.0
C161 C 0.09417 0.86612 0.08359 0.0
C162 C 0.09914 0.87412 0.07077 0.0
C163 C 0.10095 0.86893 0.07812 0.0
C164 C 0.09044 0.87642 0.06892 0.0
C165 C 0.08365 0.87366 0.07443 0.0
U166 U 0.07712 0.85289 0.09906 0.0
O167 O 0.06996 0.85502 0.11133 0.0
O168 O 0.06418 0.84678 0.10108 0.0
C169 C 0.06305 0.85063 0.10869 0.0
C170 C 0.07833 0.86568 0.08766 0.0
C171 C 0.05442 0.85476 0.11029 0.0
C172 C 0.04557 0.86742 0.11426 0.0
C173 C 0.05359 0.86383 0.11165 0.0
C174 C 0.03896 0.85302 0.11378 0.0
C175 C 0.03824 0.86202 0.11553 0.0
C176 C 0.047 0.84943 0.11122 0.0
C177 C 0.09416 0.83517 0.1058 0.0
C178 C 0.09347 0.82514 0.11815 0.0
C179 C 0.10618 0.82519 0.10867 0.0
C180 C 0.10237 0.83174 0.10358 0.0
C181 C 0.10184 0.82194 0.11607 0.0
C182 C 0.08965 0.83176 0.11305 0.0
C183 C 0.09083 0.84262 0.10071 0.0
O184 O 0.07486 0.85804 0.08577 0.0
O185 O 0.07984 0.8667 0.09607 0.0
O186 O 0.08987 0.85 0.10502 0.0
O187 O 0.08441 0.84104 0.09522 0.0
H188 H 0.09572 0.8621 0.08922 0.0
H189 H 0.10762 0.86707 0.07963 0.0
H190 H 0.08894 0.88042 0.06326 0.0
H191 H 0.07699 0.87555 0.07294 0.0
H192 H 0.04513 0.87438 0.11555 0.0
H193 H 0.05918 0.86812 0.11095 0.0
H194 H 0.03338 0.84876 0.1147 0.0
H195 H 0.04748 0.84242 0.11023 0.0
H196 H 0.09003 0.82269 0.12384 0.0
H197 H 0.11264 0.8228 0.10696 0.0
H198 H 0.10594 0.8343 0.09802 0.0
H199 H 0.08331 0.83436 0.11486 0.0
C200 C 0.40329 0.83561 0.33177 0.0
C201 C 0.40834 0.84326 0.33108 0.0
C202 C 0.39795 0.84934 0.32069 0.0
C203 C 0.40569 0.85007 0.32557 0.0
C204 C 0.39297 0.84165 0.32128 0.0
C205 C 0.39562 0.83482 0.32679 0.0
U206 U 0.41792 0.82775 0.3501 0.0
O207 O 0.41488 0.82105 0.36246 0.0
O208 O 0.42376 0.81487 0.35303 0.0
C209 C 0.41936 0.814 0.36038 0.0
C210 C 0.40579 0.82866 0.33797 0.0
C211 C 0.41504 0.80545 0.3621 0.0
C212 C 0.4132 0.78984 0.35916 0.0
C213 C 0.41677 0.79801 0.35693 0.0
C214 C 0.40612 0.79639 0.37173 0.0
C215 C 0.40788 0.78898 0.3666 0.0
C216 C 0.40968 0.80452 0.36952 0.0
C217 C 0.4353 0.84494 0.35756 0.0
C218 C 0.44987 0.84415 0.36399 0.0
C219 C 0.44141 0.85752 0.36513 0.0
C220 C 0.43456 0.85359 0.36055 0.0
C221 C 0.44915 0.85288 0.36679 0.0
C222 C 0.44298 0.84019 0.35938 0.0
C223 C 0.42817 0.84141 0.35207 0.0
O224 O 0.4135 0.82508 0.33664 0.0
O225 O 0.40434 0.83052 0.34623 0.0
O226 O 0.42048 0.84071 0.35584 0.0
O227 O 0.43001 0.83485 0.34681 0.0
H228 H 0.41425 0.84401 0.33492 0.0
H229 H 0.40959 0.85598 0.32522 0.0
H230 H 0.38696 0.84099 0.31757 0.0
H231 H 0.39163 0.82899 0.32727 0.0
H232 H 0.41467 0.78418 0.35516 0.0
H233 H 0.42098 0.79844 0.35125 0.0
H234 H 0.40207 0.79584 0.37752 0.0
H235 H 0.40835 0.81007 0.37374 0.0
H236 H 0.4558 0.84048 0.36524 0.0
H237 H 0.44074 0.86425 0.36726 0.0
H238 H 0.42873 0.85739 0.35918 0.0
H239 H 0.44372 0.83351 0.35713 0.0
C240 C 0.43697 0.15362 0.58137 0.0
C241 C 0.42933 0.15868 0.58066 0.0
C242 C 0.42322 0.14823 0.57033 0.0
C243 C 0.42251 0.15601 0.57516 0.0
C244 C 0.43091 0.14324 0.57094 0.0
C245 C 0.43774 0.14591 0.57643 0.0
U246 U 0.44477 0.16831 0.59967 0.0
O247 O 0.45142 0.16531 0.61207 0.0
O248 O 0.45761 0.17418 0.60263 0.0
C249 C 0.45844 0.16984 0.61002 0.0
C250 C 0.44391 0.15613 0.58757 0.0
C251 C 0.46699 0.1656 0.61188 0.0
C252 C 0.4824 0.16297 0.60855 0.0
C253 C 0.47423 0.16646 0.60623 0.0
C254 C 0.47626 0.15767 0.62215 0.0
C255 C 0.48347 0.15857 0.61655 0.0
C256 C 0.46813 0.16116 0.61986 0.0
C257 C 0.42755 0.1857 0.60704 0.0
C258 C 0.42842 0.2002 0.61364 0.0
C259 C 0.41496 0.19187 0.61455 0.0
C260 C 0.41887 0.18503 0.60993 0.0
C261 C 0.41966 0.19953 0.61635 0.0
C262 C 0.43235 0.19331 0.609 0.0
C263 C 0.43109 0.17856 0.60156 0.0
O264 O 0.44749 0.16385 0.58623 0.0
O265 O 0.44204 0.15471 0.59583 0.0
O266 O 0.43179 0.17087 0.60534 0.0
O267 O 0.43765 0.18039 0.59631 0.0
H268 H 0.42859 0.16463 0.58446 0.0
H269 H 0.41661 0.15993 0.5748 0.0
H270 H 0.43155 0.1372 0.56727 0.0
H271 H 0.44357 0.1419 0.57693 0.0
H272 H 0.48791 0.16376 0.60416 0.0
H273 H 0.47362 0.16993 0.60008 0.0
H274 H 0.47696 0.15433 0.62837 0.0
H275 H 0.46274 0.16052 0.62441 0.0
H276 H 0.43213 0.20607 0.61501 0.0
H277 H 0.40821 0.19124 0.6166 0.0
H278 H 0.41503 0.17925 0.60846 0.0
H279 H 0.43906 0.19399 0.60683 0.0
C280 C 0.11874 0.18734 0.83202 0.0
C281 C 0.11371 0.17968 0.83143 0.0
C282 C 0.12413 0.17345 0.82114 0.0
C283 C 0.11638 0.17279 0.82602 0.0
C284 C 0.12912 0.18115 0.82166 0.0
C285 C 0.12644 0.18805 0.82707 0.0
U286 U 0.10385 0.19557 0.84997 0.0
O287 O 0.10654 0.20274 0.86213 0.0
O288 O 0.09776 0.20849 0.85232 0.0
C289 C 0.10197 0.20963 0.85974 0.0
C290 C 0.11614 0.19445 0.83801 0.0
C291 C 0.10606 0.2183 0.8612 0.0
C292 C 0.11864 0.22726 0.86516 0.0
C293 C 0.11511 0.21919 0.86262 0.0
C294 C 0.10423 0.23382 0.86447 0.0
C295 C 0.1132 0.23458 0.8663 0.0
C296 C 0.10069 0.22573 0.86199 0.0
C297 C 0.08658 0.17837 0.85765 0.0
C298 C 0.07205 0.17932 0.86414 0.0
C299 C 0.08035 0.16585 0.86522 0.0
C300 C 0.08722 0.1697 0.86062 0.0
C301 C 0.07268 0.17057 0.86692 0.0
C302 C 0.07897 0.1832 0.85952 0.0
C303 C 0.09376 0.18183 0.8522 0.0
O304 O 0.10841 0.19791 0.83651 0.0
O305 O 0.11751 0.19284 0.84634 0.0
O306 O 0.10137 0.18277 0.85608 0.0
O307 O 0.09192 0.1882 0.84671 0.0
H308 H 0.10777 0.17899 0.83524 0.0
H309 H 0.11246 0.16689 0.82572 0.0
H310 H 0.13513 0.18175 0.81795 0.0
H311 H 0.13042 0.1939 0.82747 0.0
H312 H 0.12558 0.22773 0.86651 0.0
H313 H 0.11943 0.21359 0.86205 0.0
H314 H 0.09993 0.2394 0.86529 0.0
H315 H 0.0937 0.22521 0.86095 0.0
H316 H 0.06617 0.18306 0.86544 0.0
H317 H 0.08095 0.1591 0.86732 0.0
H318 H 0.09301 0.16584 0.85922 0.0
H319 H 0.07831 0.1899 0.8573 0.0
C320 C 0.43873 0.08536 0.15334 0.0
C321 C 0.43695 0.0941 0.15557 0.0
C322 C 0.45029 0.09882 0.14831 0.0
C323 C 0.44267 0.10079 0.15304 0.0
C324 C 0.45216 0.09007 0.14619 0.0
C325 C 0.44639 0.08338 0.14868 0.0
U326 U 0.4202 0.07742 0.16769 0.0
O327 O 0.40815 0.07016 0.16457 0.0
O328 O 0.41754 0.06472 0.17396 0.0
C329 C 0.41028 0.06346 0.16952 0.0
C330 C 0.43261 0.07832 0.15585 0.0
C331 C 0.40911 0.05473 0.16556 0.0
C332 C 0.41431 0.04252 0.15675 0.0
C333 C 0.41564 0.05085 0.16038 0.0
C334 C 0.39992 0.0419 0.16337 0.0
C335 C 0.40644 0.038 0.15821 0.0
C336 C 0.40126 0.0502 0.16701 0.0
C337 C 0.41222 0.09476 0.1847 0.0
C338 C 0.40572 0.09385 0.19924 0.0
C339 C 0.40493 0.1074 0.19104 0.0
C340 C 0.40942 0.10349 0.18412 0.0
C341 C 0.40317 0.10268 0.1987 0.0
C342 C 0.41024 0.08991 0.19228 0.0
C343 C 0.41776 0.09127 0.1776 0.0
O344 O 0.43384 0.07496 0.16367 0.0
O345 O 0.42433 0.07989 0.15414 0.0
O346 O 0.414 0.09025 0.16993 0.0
O347 O 0.42323 0.08493 0.17958 0.0
H348 H 0.43111 0.09577 0.15922 0.0
H349 H 0.44115 0.1075 0.15475 0.0
H350 H 0.45801 0.08845 0.14255 0.0
H351 H 0.4479 0.07668 0.14692 0.0
H352 H 0.4194 0.03961 0.15276 0.0
H353 H 0.42173 0.05425 0.15916 0.0
H354 H 0.39381 0.03852 0.16455 0.0
H355 H 0.39614 0.05309 0.17098 0.0
H356 H 0.40439 0.09011 0.2051 0.0
H357 H 0.40299 0.1142 0.1905 0.0
H358 H 0.41091 0.10736 0.17837 0.0
H359 H 0.41234 0.08317 0.19289 0.0
C360 C 0.18633 0.19079 0.40347 0.0
C361 C 0.1777 0.18932 0.40626 0.0
C362 C 0.17275 0.2021 0.39819 0.0
C363 C 0.17095 0.19491 0.40361 0.0
C364 C 0.1814 0.20368 0.39552 0.0
C365 C 0.18815 0.19804 0.39813 0.0
U366 U 0.19467 0.17311 0.41863 0.0
O367 O 0.20135 0.16063 0.41599 0.0
O368 O 0.20767 0.17049 0.4243 0.0
C369 C 0.20848 0.16293 0.42023 0.0
C370 C 0.1934 0.18474 0.40605 0.0
C371 C 0.21694 0.16102 0.41581 0.0
C372 C 0.23246 0.16399 0.41337 0.0
C373 C 0.22436 0.16637 0.41699 0.0
C374 C 0.2259 0.15091 0.40732 0.0
C375 C 0.23328 0.15622 0.40853 0.0
C376 C 0.21784 0.15326 0.41093 0.0
C377 C 0.17797 0.16656 0.43674 0.0
C378 C 0.17875 0.15416 0.44669 0.0
C379 C 0.1661 0.16374 0.44689 0.0
C380 C 0.16984 0.16883 0.4403 0.0
C381 C 0.17044 0.15629 0.45004 0.0
C382 C 0.18249 0.15926 0.44003 0.0
C383 C 0.18124 0.17169 0.42928 0.0
O384 O 0.19714 0.18642 0.41361 0.0
O385 O 0.19163 0.17639 0.40497 0.0
O386 O 0.18183 0.16749 0.4218 0.0
O387 O 0.18787 0.17695 0.43076 0.0
H388 H 0.17617 0.1838 0.41044 0.0
H389 H 0.16432 0.19361 0.40574 0.0
H390 H 0.18289 0.2092 0.39134 0.0
H391 H 0.19477 0.1993 0.39594 0.0
H392 H 0.23809 0.16815 0.41442 0.0
H393 H 0.22395 0.17232 0.42082 0.0
H394 H 0.22642 0.14486 0.40364 0.0
H395 H 0.21232 0.14891 0.41004 0.0
H396 H 0.18219 0.14843 0.44906 0.0
H397 H 0.1597 0.16548 0.44939 0.0
H398 H 0.16626 0.17443 0.43783 0.0
H399 H 0.18878 0.15742 0.43733 0.0
C400 C 0.08305 0.93817 0.6525 0.0
C401 C 0.07819 0.93332 0.65857 0.0
C402 C 0.06972 0.92638 0.64675 0.0
C403 C 0.07178 0.92741 0.65574 0.0
C404 C 0.07543 0.93059 0.64077 0.0
C405 C 0.08178 0.93656 0.64359 0.0
U406 U 0.10161 0.94505 0.66771 0.0
O407 O 0.11412 0.95166 0.66489 0.0
O408 O 0.1047 0.95768 0.67389 0.0
C409 C 0.11212 0.95856 0.66963 0.0
C410 C 0.08973 0.94459 0.65532 0.0
C411 C 0.11366 0.96716 0.6655 0.0
C412 C 0.10876 0.9796 0.65684 0.0
C413 C 0.10719 0.97132 0.66047 0.0
C414 C 0.12331 0.97961 0.66312 0.0
C415 C 0.11682 0.98381 0.65815 0.0
C416 C 0.12173 0.97136 0.66677 0.0
C417 C 0.10778 0.92784 0.68545 0.0
C418 C 0.1197 0.9286 0.69597 0.0
C419 C 0.11058 0.91564 0.69523 0.0
C420 C 0.10567 0.91948 0.68856 0.0
C421 C 0.11769 0.92011 0.69891 0.0
C422 C 0.11477 0.93244 0.68923 0.0
C423 C 0.10273 0.93134 0.67804 0.0
O424 O 0.08844 0.94835 0.66295 0.0
O425 O 0.09791 0.94224 0.65405 0.0
O426 O 0.10694 0.93199 0.67058 0.0
O427 O 0.09762 0.93806 0.67967 0.0
H428 H 0.07939 0.93402 0.66552 0.0
H429 H 0.06863 0.92354 0.66074 0.0
H430 H 0.07537 0.92925 0.63386 0.0
H431 H 0.08581 0.93985 0.63877 0.0
H432 H 0.10368 0.98273 0.65301 0.0
H433 H 0.10092 0.96819 0.6594 0.0
H434 H 0.12956 0.98275 0.66419 0.0
H435 H 0.1268 0.96826 0.67062 0.0
H436 H 0.12517 0.93214 0.69876 0.0
H437 H 0.10893 0.9091 0.69741 0.0
H438 H 0.1003 0.91583 0.68571 0.0
H439 H 0.11649 0.93891 0.68689 0.0
C440 C 0.33535 0.83215 0.90363 0.0
C441 C 0.34402 0.83387 0.90614 0.0
C442 C 0.34903 0.821 0.89825 0.0
C443 C 0.35081 0.82836 0.90343 0.0
C444 C 0.34035 0.81918 0.89584 0.0
C445 C 0.33355 0.82474 0.8985 0.0
U446 U 0.32694 0.84954 0.91908 0.0
O447 O 0.3198 0.86181 0.91682 0.0
O448 O 0.31397 0.85164 0.92513 0.0
C449 C 0.31287 0.85924 0.92122 0.0
C450 C 0.3282 0.83803 0.90639 0.0
C451 C 0.30428 0.86082 0.91704 0.0
C452 C 0.29544 0.86427 0.90424 0.0
C453 C 0.30343 0.86169 0.90792 0.0
C454 C 0.2889 0.86473 0.91866 0.0
C455 C 0.28817 0.86599 0.9096 0.0
C456 C 0.2969 0.8622 0.92235 0.0
C457 C 0.34393 0.85632 0.93684 0.0
C458 C 0.34333 0.86877 0.94676 0.0
C459 C 0.35591 0.85909 0.94688 0.0
C460 C 0.35208 0.85401 0.94035 0.0
C461 C 0.35165 0.86659 0.95004 0.0
C462 C 0.3395 0.86367 0.94015 0.0
C463 C 0.34059 0.85122 0.9294 0.0
O464 O 0.32467 0.83622 0.91402 0.0
O465 O 0.32973 0.84642 0.90532 0.0
O466 O 0.33968 0.85549 0.922 0.0
O467 O 0.33415 0.84575 0.93099 0.0
H468 H 0.34554 0.83951 0.91016 0.0
H469 H 0.35746 0.82984 0.90537 0.0
H470 H 0.33887 0.81352 0.89185 0.0
H471 H 0.3269 0.82328 0.89654 0.0
H472 H 0.29499 0.86517 0.89722 0.0
H473 H 0.30899 0.86063 0.90366 0.0
H474 H 0.28336 0.86601 0.9229 0.0
H475 H 0.2974 0.86159 0.9294 0.0
H476 H 0.33996 0.87453 0.94913 0.0
H477 H 0.36232 0.85731 0.94933 0.0
H478 H 0.35559 0.84837 0.93786 0.0
H479 H 0.3332 0.86555 0.9375 0.0
C480 C 0.43942 0.93766 0.36952 0.0
C481 C 0.43766 0.92896 0.36713 0.0
C482 C 0.45085 0.92408 0.37456 0.0
C483 C 0.44332 0.92221 0.36966 0.0
C484 C 0.45269 0.93279 0.37685 0.0
C485 C 0.447 0.93954 0.37436 0.0
U486 U 0.42102 0.94575 0.3551 0.0
O487 O 0.40897 0.95306 0.35818 0.0
O488 O 0.41844 0.95847 0.34885 0.0
C489 C 0.41116 0.95976 0.35326 0.0
C490 C 0.43336 0.94475 0.36701 0.0
C491 C 0.40999 0.96849 0.35724 0.0
C492 C 0.4154 0.98097 0.36551 0.0
C493 C 0.41672 0.97263 0.36192 0.0
C494 C 0.40059 0.98109 0.35986 0.0
C495 C 0.40732 0.98526 0.3645 0.0
C496 C 0.40192 0.97278 0.35625 0.0
C497 C 0.41304 0.92853 0.338 0.0
C498 C 0.40673 0.92948 0.32339 0.0
C499 C 0.40551 0.91603 0.33169 0.0
C500 C 0.41002 0.91988 0.33863 0.0
C501 C 0.40395 0.92073 0.32398 0.0
C502 C 0.41127 0.93336 0.33036 0.0
C503 C 0.41858 0.93195 0.34514 0.0
O504 O 0.43465 0.94813 0.35921 0.0
O505 O 0.42506 0.94322 0.36867 0.0
O506 O 0.41479 0.93295 0.35279 0.0
O507 O 0.4241 0.93825 0.34321 0.0
H508 H 0.43189 0.92737 0.36334 0.0
H509 H 0.44181 0.91553 0.36782 0.0
H510 H 0.45848 0.93433 0.38062 0.0
H511 H 0.44848 0.94621 0.37624 0.0
H512 H 0.42066 0.98409 0.3691 0.0
H513 H 0.42298 0.96942 0.36278 0.0
H514 H 0.39432 0.98429 0.35903 0.0
H515 H 0.39665 0.96969 0.35267 0.0
H516 H 0.40555 0.9332 0.31748 0.0
H517 H 0.40339 0.90928 0.33226 0.0
H518 H 0.41135 0.91603 0.34442 0.0
H519 H 0.41354 0.94004 0.32971 0.0
C520 C 0.33487 0.19032 0.61858 0.0
C521 C 0.34354 0.18866 0.61602 0.0
C522 C 0.34849 0.20154 0.62394 0.0
C523 C 0.3503 0.19421 0.61871 0.0
C524 C 0.33981 0.20328 0.6264 0.0
C525 C 0.33304 0.19769 0.62375 0.0
U526 U 0.32661 0.17286 0.60315 0.0
O527 O 0.31953 0.16057 0.60541 0.0
O528 O 0.31367 0.1707 0.59708 0.0
C529 C 0.3126 0.16312 0.601 0.0
C530 C 0.32776 0.18441 0.61583 0.0
C531 C 0.30401 0.16154 0.60519 0.0
C532 C 0.29517 0.15844 0.61808 0.0
C533 C 0.30314 0.16099 0.61434 0.0
C534 C 0.2887 0.15737 0.60366 0.0
C535 C 0.28795 0.15643 0.61277 0.0
C536 C 0.29668 0.15987 0.59991 0.0
C537 C 0.34372 0.16615 0.58546 0.0
C538 C 0.34316 0.15379 0.57543 0.0
C539 C 0.35578 0.16339 0.57552 0.0
C540 C 0.35191 0.16844 0.58206 0.0
C541 C 0.35152 0.15595 0.57225 0.0
C542 C 0.33928 0.15885 0.58205 0.0
C543 C 0.34031 0.17124 0.59289 0.0
O544 O 0.32424 0.18619 0.60819 0.0
O545 O 0.32933 0.17602 0.61692 0.0
O546 O 0.33939 0.16696 0.60028 0.0
O547 O 0.33384 0.17667 0.59127 0.0
H548 H 0.34509 0.18305 0.61197 0.0
H549 H 0.35696 0.19278 0.61673 0.0
H550 H 0.33831 0.20892 0.63043 0.0
H551 H 0.32639 0.1991 0.62576 0.0
H552 H 0.29471 0.15778 0.62513 0.0
H553 H 0.30867 0.16228 0.61857 0.0
H554 H 0.2832 0.15588 0.59945 0.0
H555 H 0.2972 0.16025 0.59285 0.0
H556 H 0.33978 0.14807 0.57297 0.0
H557 H 0.36222 0.16516 0.57314 0.0
H558 H 0.35542 0.17404 0.58463 0.0
H559 H 0.33295 0.15699 0.58462 0.0
C560 C 0.08164 0.08575 0.86948 0.0
C561 C 0.08317 0.09439 0.86671 0.0
C562 C 0.07032 0.09939 0.87464 0.0
C563 C 0.07757 0.10115 0.8693 0.0
C564 C 0.06868 0.09074 0.87729 0.0
C565 C 0.07433 0.08397 0.87474 0.0
U566 U 0.09936 0.07743 0.8544 0.0
O567 O 0.11184 0.07078 0.85704 0.0
O568 O 0.10203 0.06444 0.8487 0.0
C569 C 0.10957 0.06365 0.85278 0.0
C570 C 0.08768 0.07866 0.86694 0.0
C571 C 0.11152 0.05518 0.85716 0.0
C572 C 0.1086 0.03965 0.85961 0.0
C573 C 0.10617 0.04776 0.85602 0.0
C574 C 0.12172 0.04622 0.86555 0.0
C575 C 0.11641 0.03883 0.86437 0.0
C576 C 0.11932 0.05429 0.86197 0.0
C577 C 0.10585 0.09431 0.83641 0.0
C578 C 0.11789 0.09342 0.82603 0.0
C579 C 0.10885 0.10645 0.82663 0.0
C580 C 0.10383 0.10267 0.83324 0.0
C581 C 0.11599 0.10193 0.82306 0.0
C582 C 0.11286 0.08964 0.83272 0.0
C583 C 0.10076 0.09094 0.84383 0.0
O584 O 0.08604 0.07492 0.85937 0.0
O585 O 0.09602 0.08041 0.86807 0.0
O586 O 0.10495 0.09031 0.85131 0.0
O587 O 0.09554 0.08428 0.84229 0.0
H588 H 0.08873 0.0959 0.86259 0.0
H589 H 0.07892 0.10778 0.86718 0.0
H590 H 0.06311 0.08928 0.88141 0.0
H591 H 0.07302 0.07735 0.87692 0.0
H592 H 0.10444 0.034 0.85859 0.0
H593 H 0.10019 0.04816 0.85225 0.0
H594 H 0.12779 0.04571 0.86916 0.0
H595 H 0.12367 0.05982 0.86283 0.0
H596 H 0.12338 0.08984 0.82333 0.0
H597 H 0.10729 0.11301 0.82442 0.0
H598 H 0.09846 0.10637 0.83603 0.0
H599 H 0.11451 0.08317 0.8351 0.0
C600 C 0.18668 0.83147 0.11916 0.0
C601 C 0.17799 0.83319 0.11668 0.0
C602 C 0.17304 0.82031 0.1246 0.0
C603 C 0.17122 0.82767 0.11942 0.0
C604 C 0.18173 0.8185 0.12696 0.0
C605 C 0.18851 0.82406 0.12427 0.0
U606 U 0.19503 0.84889 0.10371 0.0
O607 O 0.20216 0.86115 0.10598 0.0
O608 O 0.20799 0.851 0.09765 0.0
C609 C 0.20908 0.85859 0.10156 0.0
C610 C 0.19381 0.83736 0.11638 0.0
C611 C 0.21769 0.86019 0.1057 0.0
C612 C 0.22657 0.86381 0.11843 0.0
C613 C 0.21857 0.8612 0.11481 0.0
C614 C 0.23307 0.86404 0.10399 0.0
C615 C 0.23383 0.86543 0.11304 0.0
C616 C 0.22506 0.86147 0.10035 0.0
C617 C 0.17802 0.85571 0.08599 0.0
C618 C 0.17874 0.86805 0.07595 0.0
C619 C 0.16601 0.85861 0.07602 0.0
C620 C 0.16981 0.85352 0.08258 0.0
C621 C 0.17036 0.86599 0.07276 0.0
C622 C 0.18255 0.86294 0.08258 0.0
C623 C 0.18136 0.85059 0.09342 0.0
O624 O 0.19732 0.83556 0.10874 0.0
O625 O 0.19227 0.84575 0.11747 0.0
O626 O 0.18228 0.85485 0.10082 0.0
O627 O 0.1878 0.84512 0.09181 0.0
H628 H 0.17644 0.83882 0.11267 0.0
H629 H 0.16456 0.82915 0.11751 0.0
H630 H 0.18324 0.81284 0.13095 0.0
H631 H 0.19517 0.8226 0.12621 0.0
H632 H 0.22703 0.86482 0.12543 0.0
H633 H 0.21301 0.86022 0.11909 0.0
H634 H 0.2386 0.86523 0.09972 0.0
H635 H 0.22455 0.86075 0.09332 0.0
H636 H 0.1822 0.87372 0.07349 0.0
H637 H 0.15955 0.85691 0.07364 0.0
H638 H 0.16622 0.84796 0.08514 0.0
H639 H 0.1889 0.86473 0.08516 0.0
C640 C 0.15356 0.44143 0.08459 0.0
C641 C 0.15861 0.44219 0.09224 0.0
C642 C 0.14807 0.45245 0.09833 0.0
C643 C 0.15589 0.44768 0.09905 0.0
C644 C 0.14308 0.45177 0.09064 0.0
C645 C 0.14581 0.44628 0.08382 0.0
U646 U 0.16888 0.42375 0.0766 0.0
O647 O 0.16651 0.41133 0.06979 0.0
O648 O 0.17487 0.42128 0.06368 0.0
C649 C 0.1709 0.4137 0.06278 0.0
C650 C 0.15623 0.43534 0.0776 0.0
C651 C 0.16668 0.41196 0.05423 0.0
C652 C 0.15383 0.40839 0.04551 0.0
C653 C 0.15755 0.41108 0.05344 0.0
C654 C 0.16822 0.40783 0.0389 0.0
C655 C 0.15915 0.40657 0.03824 0.0
C656 C 0.17195 0.41047 0.04685 0.0
C657 C 0.18663 0.41729 0.09374 0.0
C658 C 0.19657 0.40485 0.09335 0.0
C659 C 0.19643 0.41452 0.10592 0.0
C660 C 0.18997 0.41961 0.10196 0.0
C661 C 0.19967 0.40703 0.10174 0.0
C662 C 0.19003 0.40994 0.08938 0.0
C663 C 0.17923 0.42237 0.09027 0.0
O664 O 0.16384 0.437 0.07396 0.0
O665 O 0.15515 0.42701 0.07944 0.0
O666 O 0.1718 0.41813 0.0895 0.0
O667 O 0.18084 0.42764 0.08368 0.0
H668 H 0.16459 0.43846 0.09297 0.0
H669 H 0.1598 0.4481 0.10494 0.0
H670 H 0.13703 0.4554 0.08999 0.0
H671 H 0.14182 0.44575 0.07798 0.0
H672 H 0.14682 0.40747 0.04511 0.0
H673 H 0.15332 0.41221 0.05901 0.0
H674 H 0.17243 0.40648 0.03336 0.0
H675 H 0.17899 0.4111 0.0473 0.0
H676 H 0.19901 0.39909 0.09002 0.0
H677 H 0.19874 0.41631 0.11238 0.0
H678 H 0.1874 0.42524 0.10542 0.0
H679 H 0.1875 0.40806 0.08304 0.0
C680 C 0.65343 0.08313 0.93779 0.0
C681 C 0.65846 0.08232 0.93015 0.0
C682 C 0.64791 0.07208 0.9241 0.0
C683 C 0.65573 0.07682 0.92336 0.0
C684 C 0.64291 0.07282 0.93177 0.0
C685 C 0.64565 0.07833 0.93858 0.0
U686 U 0.66867 0.10092 0.94557 0.0
O687 O 0.66628 0.11312 0.95288 0.0
O688 O 0.67527 0.10325 0.95816 0.0
C689 C 0.67127 0.11075 0.95947 0.0
C690 C 0.65616 0.08918 0.9448 0.0
C691 C 0.66765 0.11218 0.96831 0.0
C692 C 0.65732 0.10889 0.97995 0.0
C693 C 0.66053 0.10738 0.97148 0.0
C694 C 0.66807 0.12022 0.98201 0.0
C695 C 0.66139 0.11496 0.98571 0.0
C696 C 0.67126 0.11871 0.97357 0.0
C697 C 0.68599 0.10766 0.92812 0.0
C698 C 0.69688 0.11923 0.92914 0.0
C699 C 0.69558 0.11069 0.91583 0.0
C700 C 0.68884 0.10583 0.9196 0.0
C701 C 0.69959 0.11747 0.92052 0.0
C702 C 0.69008 0.11435 0.93292 0.0
C703 C 0.6786 0.1026 0.93162 0.0
O704 O 0.66389 0.0876 0.94823 0.0
O705 O 0.6549 0.09752 0.94309 0.0
O706 O 0.67123 0.10689 0.93273 0.0
O707 O 0.68034 0.09712 0.93801 0.0
H708 H 0.66447 0.08602 0.9294 0.0
H709 H 0.65966 0.07634 0.91748 0.0
H710 H 0.63684 0.06922 0.93244 0.0
H711 H 0.64167 0.07889 0.94441 0.0
H712 H 0.65145 0.10542 0.98169 0.0
H713 H 0.65737 0.10256 0.96735 0.0
H714 H 0.67079 0.12577 0.98541 0.0
H715 H 0.67651 0.12278 0.97109 0.0
H716 H 0.69992 0.12445 0.93284 0.0
H717 H 0.69758 0.10924 0.90919 0.0
H718 H 0.68576 0.10069 0.91581 0.0
H719 H 0.68795 0.11584 0.93952 0.0
C720 C 0.18872 0.40349 0.18722 0.0
C721 C 0.18952 0.40863 0.17964 0.0
C722 C 0.19989 0.39822 0.17351 0.0
C723 C 0.19508 0.40603 0.17285 0.0
C724 C 0.19916 0.39312 0.18112 0.0
C725 C 0.1936 0.39574 0.18793 0.0
U726 U 0.17029 0.41804 0.19501 0.0
O727 O 0.15815 0.41501 0.20218 0.0
O728 O 0.16758 0.42434 0.20768 0.0
C729 C 0.16029 0.41993 0.2089 0.0
C730 C 0.18255 0.40601 0.19419 0.0
C731 C 0.1591 0.41593 0.21761 0.0
C732 C 0.16449 0.4075 0.23 0.0
C733 C 0.16579 0.41111 0.22167 0.0
C734 C 0.14978 0.41342 0.23028 0.0
C735 C 0.15647 0.40864 0.23436 0.0
C736 C 0.1511 0.41704 0.22197 0.0
C737 C 0.16264 0.43516 0.17767 0.0
C738 C 0.1561 0.44969 0.17862 0.0
C739 C 0.15543 0.44156 0.16502 0.0
C740 C 0.15991 0.43462 0.16892 0.0
C741 C 0.1536 0.44918 0.16979 0.0
C742 C 0.16061 0.44271 0.18255 0.0
C743 C 0.16809 0.428 0.18117 0.0
O744 O 0.18381 0.4138 0.19763 0.0
O745 O 0.17428 0.40443 0.19244 0.0
O746 O 0.16425 0.42037 0.18214 0.0
O747 O 0.17352 0.42992 0.18756 0.0
H748 H 0.18577 0.41461 0.17895 0.0
H749 H 0.19554 0.41002 0.16701 0.0
H750 H 0.2028 0.38707 0.18173 0.0
H751 H 0.19304 0.39167 0.19371 0.0
H752 H 0.16971 0.40381 0.23305 0.0
H753 H 0.17201 0.41015 0.2184 0.0
H754 H 0.14356 0.41435 0.23354 0.0
H755 H 0.14585 0.42073 0.21895 0.0
H756 H 0.15471 0.45552 0.18239 0.0
H757 H 0.15354 0.44105 0.15821 0.0
H758 H 0.16144 0.42889 0.16503 0.0
H759 H 0.16264 0.44329 0.18931 0.0
C760 C 0.8696 0.9402 0.43694 0.0
C761 C 0.86713 0.93846 0.42826 0.0
C762 C 0.87479 0.95149 0.42331 0.0
C763 C 0.86974 0.94405 0.42149 0.0
C764 C 0.87717 0.95331 0.43199 0.0
C765 C 0.8746 0.94769 0.43877 0.0
U766 U 0.85496 0.92199 0.44501 0.0
O767 O 0.85773 0.90997 0.45236 0.0
O768 O 0.84863 0.91966 0.45781 0.0
C769 C 0.85297 0.91234 0.45912 0.0
C770 C 0.86696 0.93424 0.44405 0.0
C771 C 0.85692 0.91105 0.46789 0.0
C772 C 0.8694 0.90747 0.47713 0.0
C773 C 0.86598 0.90987 0.46897 0.0
C774 C 0.85485 0.90782 0.48338 0.0
C775 C 0.86385 0.90623 0.48434 0.0
C776 C 0.85142 0.91017 0.47521 0.0
C777 C 0.83822 0.91388 0.42741 0.0
C778 C 0.82338 0.90806 0.42755 0.0
C779 C 0.8326 0.90593 0.41484 0.0
C780 C 0.83938 0.91042 0.41899 0.0
C781 C 0.82452 0.90484 0.41901 0.0
C782 C 0.83019 0.91258 0.43173 0.0
C783 C 0.84524 0.91944 0.43106 0.0
O784 O 0.85912 0.93562 0.44729 0.0
O785 O 0.86859 0.92591 0.44264 0.0
O786 O 0.85288 0.91568 0.43223 0.0
O787 O 0.84316 0.92497 0.43732 0.0
H788 H 0.86322 0.93275 0.42671 0.0
H789 H 0.86783 0.94256 0.41483 0.0
H790 H 0.88106 0.95904 0.4335 0.0
H791 H 0.87654 0.94916 0.44543 0.0
H792 H 0.87637 0.9063 0.47775 0.0
H793 H 0.87039 0.91053 0.46347 0.0
H794 H 0.85046 0.90693 0.48887 0.0
H795 H 0.84441 0.91102 0.47454 0.0
H796 H 0.81718 0.90725 0.43087 0.0
H797 H 0.8336 0.90348 0.40826 0.0
H798 H 0.84548 0.91139 0.41551 0.0
H799 H 0.82911 0.9152 0.43823 0.0
C800 C 0.83392 0.12002 0.18728 0.0
C801 C 0.83561 0.11777 0.17852 0.0
C802 C 0.8222 0.12496 0.17392 0.0
C803 C 0.82982 0.12026 0.17189 0.0
C804 C 0.82042 0.12711 0.18267 0.0
C805 C 0.82626 0.12467 0.18931 0.0
U806 U 0.85226 0.10538 0.19504 0.0
O807 O 0.86448 0.10825 0.20213 0.0
O808 O 0.85496 0.09908 0.20771 0.0
C809 C 0.86231 0.10339 0.20888 0.0
C810 C 0.84009 0.11748 0.19426 0.0
C811 C 0.86359 0.10741 0.21757 0.0
C812 C 0.85839 0.11601 0.22993 0.0
C813 C 0.857 0.11237 0.22162 0.0
C814 C 0.87299 0.10984 0.23019 0.0
C815 C 0.8664 0.11476 0.23427 0.0
C816 C 0.87159 0.10619 0.22191 0.0
C817 C 0.85927 0.08808 0.17761 0.0
C818 C 0.87111 0.07746 0.17845 0.0
C819 C 0.86216 0.07837 0.16538 0.0
C820 C 0.85727 0.08507 0.16919 0.0
C821 C 0.86915 0.07456 0.16993 0.0
C822 C 0.86619 0.08422 0.18227 0.0
C823 C 0.85408 0.09536 0.18117 0.0
O824 O 0.83876 0.10973 0.19773 0.0
O825 O 0.84838 0.11901 0.19255 0.0
O826 O 0.85816 0.10286 0.18216 0.0
O827 O 0.84877 0.0935 0.18767 0.0
H828 H 0.84145 0.11412 0.17681 0.0
H829 H 0.83127 0.11853 0.16517 0.0
H830 H 0.81455 0.13073 0.18434 0.0
H831 H 0.82481 0.12642 0.19603 0.0
H832 H 0.85324 0.1198 0.23298 0.0
H833 H 0.85079 0.11341 0.21837 0.0
H834 H 0.87921 0.10883 0.23344 0.0
H835 H 0.87676 0.10239 0.21889 0.0
H836 H 0.87649 0.07457 0.18204 0.0
H837 H 0.86056 0.07622 0.15882 0.0
H838 H 0.85195 0.08798 0.16551 0.0
H839 H 0.86782 0.08648 0.18879 0.0
C840 C 0.36881 0.58277 0.58543 0.0
C841 C 0.36631 0.58443 0.59412 0.0
C842 C 0.37438 0.57162 0.59902 0.0
C843 C 0.36911 0.57891 0.60087 0.0
C844 C 0.37674 0.56985 0.59032 0.0
C845 C 0.37398 0.57542 0.58356 0.0
U846 U 0.35392 0.60083 0.57736 0.0
O847 O 0.35676 0.6131 0.57043 0.0
O848 O 0.34793 0.60346 0.5645 0.0
C849 C 0.35224 0.61085 0.56346 0.0
C850 C 0.36614 0.58878 0.57836 0.0
C851 C 0.35647 0.61248 0.55485 0.0
C852 C 0.35811 0.60942 0.53924 0.0
C853 C 0.35463 0.60727 0.54746 0.0
C854 C 0.36534 0.62199 0.54561 0.0
C855 C 0.36346 0.61682 0.53826 0.0
C856 C 0.36187 0.61986 0.5538 0.0
C857 C 0.33671 0.60846 0.59467 0.0
C858 C 0.32204 0.6147 0.59402 0.0
C859 C 0.33067 0.61612 0.60724 0.0
C860 C 0.33752 0.61159 0.60327 0.0
C861 C 0.32284 0.61761 0.60271 0.0
C862 C 0.32894 0.61013 0.59002 0.0
C863 C 0.34384 0.60299 0.59113 0.0
O864 O 0.35838 0.5873 0.57496 0.0
O865 O 0.36757 0.59711 0.57994 0.0
O866 O 0.35149 0.6068 0.59024 0.0
O867 O 0.34196 0.59759 0.58469 0.0
H868 H 0.36227 0.59004 0.5957 0.0
H869 H 0.36721 0.58036 0.60755 0.0
H870 H 0.3808 0.56425 0.58878 0.0
H871 H 0.37596 0.57402 0.5769 0.0
H872 H 0.35655 0.60539 0.53362 0.0
H873 H 0.35039 0.60162 0.54799 0.0
H874 H 0.36942 0.62775 0.54497 0.0
H875 H 0.36329 0.62411 0.55929 0.0
H876 H 0.31604 0.61582 0.59042 0.0
H877 H 0.3314 0.61834 0.61393 0.0
H878 H 0.34342 0.61034 0.60699 0.0
H879 H 0.32814 0.60778 0.58338 0.0
C880 C 0.18892 0.61948 0.33526 0.0
C881 C 0.18984 0.61428 0.34278 0.0
C882 C 0.20017 0.62471 0.34891 0.0
C883 C 0.19543 0.61687 0.34955 0.0
C884 C 0.19933 0.62987 0.34135 0.0
C885 C 0.19373 0.62727 0.33457 0.0
U886 U 0.17089 0.60453 0.32743 0.0
O887 O 0.15853 0.60727 0.32052 0.0
O888 O 0.1682 0.5984 0.31468 0.0
C889 C 0.16075 0.60258 0.31365 0.0
C890 C 0.18272 0.61695 0.32832 0.0
C891 C 0.15931 0.60673 0.30505 0.0
C892 C 0.16431 0.61551 0.29274 0.0
C893 C 0.16581 0.61182 0.301 0.0
C894 C 0.14979 0.60916 0.29251 0.0
C895 C 0.15629 0.6142 0.28844 0.0
C896 C 0.1513 0.60545 0.30075 0.0
C897 C 0.16443 0.58679 0.3446 0.0
C898 C 0.15264 0.57612 0.34377 0.0
C899 C 0.16167 0.57699 0.35678 0.0
C900 C 0.16652 0.58371 0.35297 0.0
C901 C 0.15464 0.57321 0.35227 0.0
C902 C 0.1575 0.58292 0.33995 0.0
C903 C 0.16945 0.59421 0.34112 0.0
O904 O 0.18419 0.6093 0.32465 0.0
O905 O 0.17444 0.6182 0.33024 0.0
O906 O 0.16521 0.60165 0.34033 0.0
O907 O 0.17472 0.59258 0.33452 0.0
H908 H 0.18614 0.60827 0.34346 0.0
H909 H 0.19598 0.61282 0.35534 0.0
H910 H 0.20292 0.63595 0.34077 0.0
H911 H 0.19308 0.63138 0.32884 0.0
H912 H 0.16939 0.6194 0.2897 0.0
H913 H 0.17203 0.6129 0.30422 0.0
H914 H 0.14357 0.60809 0.28929 0.0
H915 H 0.14621 0.60155 0.30376 0.0
H916 H 0.14723 0.57326 0.3402 0.0
H917 H 0.16331 0.57482 0.36333 0.0
H918 H 0.17184 0.58663 0.35665 0.0
H919 H 0.15581 0.58522 0.33347 0.0
C920 C 0.33212 0.4037 0.83586 0.0
C921 C 0.33385 0.40614 0.84456 0.0
C922 C 0.32082 0.39847 0.84946 0.0
C923 C 0.32826 0.40351 0.85131 0.0
C924 C 0.31898 0.39617 0.84075 0.0
C925 C 0.32462 0.39875 0.834 0.0
U926 U 0.35031 0.41834 0.82767 0.0
O927 O 0.36259 0.41532 0.82082 0.0
O928 O 0.35304 0.42416 0.81475 0.0
C929 C 0.36042 0.4198 0.81381 0.0
C930 C 0.33818 0.40622 0.82878 0.0
C931 C 0.36212 0.4155 0.80524 0.0
C932 C 0.35889 0.41335 0.78973 0.0
C933 C 0.35668 0.41689 0.79792 0.0
C934 C 0.37196 0.40698 0.79601 0.0
C935 C 0.36657 0.4084 0.78873 0.0
C936 C 0.36978 0.41051 0.80416 0.0
C937 C 0.35796 0.43576 0.84474 0.0
C938 C 0.36434 0.45035 0.8438 0.0
C939 C 0.36558 0.44199 0.85722 0.0
C940 C 0.36101 0.4351 0.85337 0.0
C941 C 0.36718 0.4497 0.85252 0.0
C942 C 0.35974 0.44341 0.83992 0.0
C943 C 0.35246 0.4286 0.8413 0.0
O944 O 0.33677 0.41395 0.82526 0.0
O945 O 0.3465 0.40475 0.83041 0.0
O946 O 0.35623 0.42091 0.84054 0.0
O947 O 0.34709 0.43042 0.83482 0.0
H948 H 0.33957 0.41001 0.84613 0.0
H949 H 0.32976 0.40536 0.85798 0.0
H950 H 0.31326 0.39228 0.83922 0.0
H951 H 0.32317 0.39683 0.82733 0.0
H952 H 0.35468 0.41455 0.78417 0.0
H953 H 0.3508 0.4208 0.79847 0.0
H954 H 0.37793 0.40322 0.79535 0.0
H955 H 0.37419 0.40946 0.80961 0.0
H956 H 0.36555 0.45626 0.84009 0.0
H957 H 0.36774 0.44138 0.86394 0.0
H958 H 0.35968 0.42929 0.85721 0.0
H959 H 0.35745 0.44409 0.83325 0.0
C960 C 0.9374 0.87089 0.5854 0.0
C961 C 0.92942 0.86635 0.58543 0.0
C962 C 0.92394 0.87561 0.57371 0.0
C963 C 0.92274 0.86869 0.57963 0.0
C964 C 0.93192 0.88017 0.57368 0.0
C965 C 0.93861 0.87783 0.57951 0.0
U966 U 0.94525 0.85595 0.60337 0.0
O967 O 0.95784 0.84932 0.60567 0.0
O968 O 0.95266 0.85845 0.61547 0.0
C969 C 0.95925 0.85346 0.61308 0.0
C970 C 0.94444 0.86833 0.59148 0.0
C971 C 0.96806 0.85724 0.61418 0.0
C972 C 0.9792 0.868 0.61053 0.0
C973 C 0.97077 0.86458 0.60937 0.0
C974 C 0.98228 0.85681 0.62133 0.0
C975 C 0.98502 0.86412 0.6165 0.0
C976 C 0.97386 0.8534 0.62017 0.0
C977 C 0.92762 0.83869 0.61011 0.0
C978 C 0.92903 0.82525 0.61854 0.0
C979 C 0.91469 0.83046 0.61423 0.0
C980 C 0.91851 0.83766 0.61014 0.0
C981 C 0.9199 0.82417 0.61839 0.0
C982 C 0.93289 0.83249 0.6144 0.0
C983 C 0.93129 0.84609 0.60517 0.0
O984 O 0.94273 0.86969 0.5998 0.0
O985 O 0.9479 0.8606 0.59 0.0
O986 O 0.93766 0.84431 0.59967 0.0
O987 O 0.93244 0.85344 0.60948 0.0
H988 H 0.92836 0.86098 0.58993 0.0
H989 H 0.91665 0.86508 0.57972 0.0
H990 H 0.93296 0.88551 0.56914 0.0
H991 H 0.94473 0.8814 0.57939 0.0
H992 H 0.98121 0.87365 0.60676 0.0
H993 H 0.96638 0.86764 0.60472 0.0
H994 H 0.98667 0.85373 0.62597 0.0
H995 H 0.97188 0.84773 0.62394 0.0
H996 H 0.93314 0.82043 0.62172 0.0
H997 H 0.90764 0.82972 0.61405 0.0
H998 H 0.91435 0.84236 0.60685 0.0
H999 H 0.93994 0.83318 0.61443 0.0
C1000 C 0.90401 0.18836 0.33263 0.0
C1001 C 0.90866 0.18043 0.33231 0.0
C1002 C 0.89861 0.17479 0.32135 0.0
C1003 C 0.90599 0.17371 0.32671 0.0
C1004 C 0.89401 0.18275 0.32159 0.0
C1005 C 0.89669 0.1895 0.32721 0.0
U1006 U 0.91883 0.19589 0.35088 0.0
O1007 O 0.92545 0.20844 0.35344 0.0
O1008 O 0.91618 0.20316 0.36303 0.0
C1009 C 0.9212 0.20977 0.3608 0.0
C1010 C 0.90666 0.19531 0.33878 0.0
C1011 C 0.91738 0.21856 0.36197 0.0
C1012 C 0.90613 0.22943 0.35899 0.0
C1013 C 0.90967 0.22107 0.35765 0.0
C1014 C 0.91796 0.23287 0.36895 0.0
C1015 C 0.91026 0.23539 0.36465 0.0
C1016 C 0.92149 0.22452 0.36762 0.0
C1017 C 0.93575 0.17808 0.35793 0.0
C1018 C 0.94881 0.17938 0.36695 0.0
C1019 C 0.94378 0.16508 0.36228 0.0
C1020 C 0.93678 0.16896 0.3579 0.0
C1021 C 0.94987 0.17024 0.36678 0.0
C1022 C 0.94177 0.18329 0.36253 0.0
C1023 C 0.92853 0.18181 0.35278 0.0
O1024 O 0.90514 0.19359 0.34706 0.0
O1025 O 0.91447 0.19863 0.33742 0.0
O1026 O 0.9305 0.18822 0.34739 0.0
O1027 O 0.92108 0.18298 0.35689 0.0
H1028 H 0.91431 0.17943 0.33647 0.0
H1029 H 0.9096 0.1676 0.32662 0.0
H1030 H 0.88829 0.1837 0.31751 0.0
H1031 H 0.89302 0.19556 0.32738 0.0
H1032 H 0.90018 0.23127 0.35561 0.0
H1033 H 0.9064 0.21656 0.35327 0.0
H1034 H 0.92123 0.23738 0.37334 0.0
H1035 H 0.92744 0.2227 0.37102 0.0
H1036 H 0.95348 0.18345 0.37039 0.0
H1037 H 0.9445 0.15802 0.36208 0.0
H1038 H 0.93222 0.16484 0.35437 0.0
H1039 H 0.94108 0.19035 0.36261 0.0
C1040 C 0.58483 0.15344 0.08312 0.0
C1041 C 0.59284 0.15792 0.08332 0.0
C1042 C 0.59837 0.14888 0.07144 0.0
C1043 C 0.59956 0.15566 0.07752 0.0
C1044 C 0.59034 0.14441 0.07121 0.0
C1045 C 0.58362 0.14667 0.07703 0.0
U1046 U 0.57671 0.16778 0.10157 0.0
O1047 O 0.56397 0.17408 0.10402 0.0
O1048 O 0.5693 0.16475 0.11353 0.0
C1049 C 0.56263 0.16972 0.11131 0.0
C1050 C 0.57777 0.15581 0.08927 0.0
C1051 C 0.55387 0.16582 0.1124 0.0
C1052 C 0.5432 0.15436 0.10958 0.0
C1053 C 0.55154 0.15795 0.10828 0.0
C1054 C 0.53944 0.16647 0.1191 0.0
C1055 C 0.53709 0.1586 0.115 0.0
C1056 C 0.54776 0.17005 0.11781 0.0
C1057 C 0.59386 0.18514 0.10934 0.0
C1058 C 0.59398 0.2005 0.11368 0.0
C1059 C 0.60617 0.1911 0.11747 0.0
C1060 C 0.602 0.18404 0.11345 0.0
C1061 C 0.60231 0.19942 0.11742 0.0
C1062 C 0.58979 0.19341 0.10964 0.0
C1063 C 0.59042 0.17786 0.10396 0.0
O1064 O 0.57946 0.15421 0.09755 0.0
O1065 O 0.57426 0.16356 0.08801 0.0
O1066 O 0.58415 0.17966 0.09836 0.0
O1067 O 0.58944 0.17026 0.10786 0.0
H1068 H 0.59389 0.16317 0.08797 0.0
H1069 H 0.60569 0.15919 0.07778 0.0
H1070 H 0.58931 0.13917 0.06655 0.0
H1071 H 0.57748 0.14314 0.07678 0.0
H1072 H 0.54149 0.14828 0.10635 0.0
H1073 H 0.55617 0.15459 0.10409 0.0
H1074 H 0.53482 0.16984 0.1233 0.0
H1075 H 0.54945 0.17612 0.12105 0.0
H1076 H 0.59091 0.20689 0.11359 0.0
H1077 H 0.6126 0.19016 0.12031 0.0
H1078 H 0.60531 0.17777 0.11325 0.0
H1079 H 0.58353 0.19447 0.1065 0.0
C1080 C 0.62016 0.83592 0.83469 0.0
C1081 C 0.61567 0.84394 0.8347 0.0
C1082 C 0.6251 0.84941 0.82312 0.0
C1083 C 0.61812 0.85063 0.82896 0.0
C1084 C 0.62961 0.84139 0.82311 0.0
C1085 C 0.62716 0.83468 0.82887 0.0
U1086 U 0.60501 0.8281 0.85248 0.0
O1087 O 0.5983 0.81554 0.85468 0.0
O1088 O 0.60734 0.82065 0.86458 0.0
C1089 C 0.60237 0.81408 0.86212 0.0
C1090 C 0.6175 0.82887 0.84071 0.0
C1091 C 0.60613 0.80526 0.86323 0.0
C1092 C 0.61718 0.79426 0.85997 0.0
C1093 C 0.61375 0.80269 0.85878 0.0
C1094 C 0.60541 0.79089 0.87005 0.0
C1095 C 0.61302 0.7883 0.86561 0.0
C1096 C 0.602 0.79931 0.86886 0.0
C1097 C 0.5878 0.84581 0.85919 0.0
C1098 C 0.5746 0.8444 0.86799 0.0
C1099 C 0.57949 0.85872 0.86324 0.0
C1100 C 0.58662 0.8549 0.85903 0.0
C1101 C 0.5734 0.85352 0.86771 0.0
C1102 C 0.58178 0.84055 0.86374 0.0
C1103 C 0.5952 0.84213 0.85425 0.0
O1104 O 0.61878 0.83054 0.84905 0.0
O1105 O 0.60976 0.82547 0.83914 0.0
O1106 O 0.59343 0.83578 0.84873 0.0
O1107 O 0.60252 0.84092 0.8586 0.0
H1108 H 0.61025 0.84501 0.83915 0.0
H1109 H 0.61456 0.85676 0.82905 0.0
H1110 H 0.635 0.84033 0.81862 0.0
H1111 H 0.63069 0.82854 0.82876 0.0
H1112 H 0.62305 0.79237 0.85649 0.0
H1113 H 0.61702 0.8072 0.8544 0.0
H1114 H 0.60212 0.78638 0.87442 0.0
H1115 H 0.59611 0.80117 0.87235 0.0
H1116 H 0.56994 0.8403 0.87141 0.0
H1117 H 0.57866 0.86576 0.86295 0.0
H1118 H 0.59119 0.85905 0.85554 0.0
H1119 H 0.58259 0.83351 0.86392 0.0
C1120 C 0.93687 0.15241 0.9382 0.0
C1121 C 0.92883 0.15685 0.93817 0.0
C1122 C 0.92351 0.1476 0.94996 0.0
C1123 C 0.9222 0.15446 0.94401 0.0
C1124 C 0.93155 0.14314 0.94999 0.0
C1125 C 0.9382 0.14553 0.94414 0.0
U1126 U 0.94421 0.16715 0.91991 0.0
O1127 O 0.95659 0.17408 0.91739 0.0
O1128 O 0.95161 0.16461 0.90782 0.0
C1129 C 0.95809 0.1698 0.91007 0.0
C1130 C 0.94383 0.15502 0.93206 0.0
C1131 C 0.96696 0.16616 0.90905 0.0
C1132 C 0.97803 0.15519 0.91232 0.0
C1133 C 0.96957 0.15854 0.91348 0.0
C1134 C 0.98138 0.16703 0.90233 0.0
C1135 C 0.98399 0.15942 0.90675 0.0
C1136 C 0.97292 0.17037 0.90348 0.0
C1137 C 0.92592 0.18367 0.9129 0.0
C1138 C 0.92663 0.19749 0.905 0.0
C1139 C 0.91258 0.19083 0.9081 0.0
C1140 C 0.91678 0.18386 0.91223 0.0
C1141 C 0.91745 0.19773 0.90453 0.0
C1142 C 0.93086 0.19048 0.90918 0.0
C1143 C 0.92992 0.17653 0.91798 0.0
O1144 O 0.94215 0.15343 0.92378 0.0
O1145 O 0.94707 0.16288 0.93336 0.0
O1146 O 0.93626 0.17864 0.92338 0.0
O1147 O 0.93127 0.16911 0.91385 0.0
H1148 H 0.92768 0.16218 0.93363 0.0
H1149 H 0.91605 0.15799 0.9439 0.0
H1150 H 0.93268 0.13785 0.95457 0.0
H1151 H 0.94437 0.14204 0.94426 0.0
H1152 H 0.97995 0.14931 0.91579 0.0
H1153 H 0.96506 0.1552 0.9178 0.0
H1154 H 0.98588 0.17038 0.89801 0.0
H1155 H 0.97103 0.17626 0.90001 0.0
H1156 H 0.93047 0.20278 0.90229 0.0
H1157 H 0.9055 0.19092 0.9078 0.0
H1158 H 0.91286 0.17869 0.91509 0.0
H1159 H 0.93793 0.19045 0.90965 0.0
C1160 C 0.61989 0.18766 0.68835 0.0
C1161 C 0.61546 0.17962 0.6882 0.0
C1162 C 0.62463 0.17418 0.70001 0.0
C1163 C 0.61781 0.17293 0.69399 0.0
C1164 C 0.62907 0.18223 0.70016 0.0
C1165 C 0.62672 0.18893 0.69435 0.0
U1166 U 0.60505 0.19545 0.67029 0.0
O1167 O 0.59839 0.20802 0.66795 0.0
O1168 O 0.60759 0.20287 0.65821 0.0
C1169 C 0.60258 0.20945 0.66058 0.0
C1170 C 0.61734 0.1947 0.68227 0.0
C1171 C 0.60638 0.21826 0.65953 0.0
C1172 C 0.61754 0.22913 0.66277 0.0
C1173 C 0.61405 0.22072 0.66393 0.0
C1174 C 0.60571 0.23269 0.65282 0.0
C1175 C 0.61338 0.23517 0.65722 0.0
C1176 C 0.60224 0.22429 0.65398 0.0
C1177 C 0.58795 0.17778 0.66333 0.0
C1178 C 0.57457 0.17923 0.65481 0.0
C1179 C 0.57985 0.16485 0.65895 0.0
C1180 C 0.58698 0.16867 0.66316 0.0
C1181 C 0.57356 0.17008 0.65481 0.0
C1182 C 0.58174 0.18307 0.65907 0.0
C1183 C 0.59527 0.18144 0.66839 0.0
O1184 O 0.61876 0.19301 0.67396 0.0
O1185 O 0.60958 0.19811 0.6837 0.0
O1186 O 0.59342 0.18779 0.67388 0.0
O1187 O 0.60266 0.18262 0.66416 0.0
H1188 H 0.61017 0.17852 0.68362 0.0
H1189 H 0.6143 0.16678 0.6938 0.0
H1190 H 0.63433 0.18331 0.70479 0.0
H1191 H 0.6302 0.1951 0.69456 0.0
H1192 H 0.62345 0.23094 0.66622 0.0
H1193 H 0.61733 0.21615 0.66825 0.0
H1194 H 0.60242 0.23725 0.64852 0.0
H1195 H 0.59632 0.2225 0.65053 0.0
H1196 H 0.56975 0.18335 0.65165 0.0
H1197 H 0.57916 0.15779 0.65902 0.0
H1198 H 0.59168 0.16449 0.66643 0.0
H1199 H 0.58239 0.19013 0.65915 0.0
C1200 C 0.58479 0.87026 0.43791 0.0
C1201 C 0.59278 0.86571 0.43796 0.0
C1202 C 0.59821 0.87513 0.44958 0.0
C1203 C 0.59944 0.86813 0.44375 0.0
C1204 C 0.59023 0.87969 0.44953 0.0
C1205 C 0.58356 0.87726 0.44372 0.0
U1206 U 0.57706 0.85525 0.41993 0.0
O1207 O 0.56448 0.84864 0.41757 0.0
O1208 O 0.56973 0.85773 0.40779 0.0
C1209 C 0.56311 0.85278 0.41016 0.0
C1210 C 0.5778 0.86765 0.43181 0.0
C1211 C 0.55433 0.85662 0.40902 0.0
C1212 C 0.54345 0.86782 0.41219 0.0
C1213 C 0.55184 0.8643 0.41342 0.0
C1214 C 0.53997 0.85603 0.40217 0.0
C1215 C 0.53746 0.8637 0.40656 0.0
C1216 C 0.54834 0.85252 0.4034 0.0
C1217 C 0.5948 0.83803 0.41324 0.0
C1218 C 0.59353 0.82474 0.40454 0.0
C1219 C 0.6078 0.82988 0.40915 0.0
C1220 C 0.60391 0.83699 0.41334 0.0
C1221 C 0.60267 0.82368 0.40477 0.0
C1222 C 0.5896 0.83191 0.40877 0.0
C1223 C 0.59106 0.8454 0.41819 0.0
O1224 O 0.57953 0.86899 0.42349 0.0
O1225 O 0.57436 0.85991 0.43329 0.0
O1226 O 0.58466 0.8436 0.42364 0.0
O1227 O 0.58992 0.85276 0.4139 0.0
H1228 H 0.59386 0.86029 0.43353 0.0
H1229 H 0.60554 0.86453 0.44372 0.0
H1230 H 0.58917 0.88509 0.454 0.0
H1231 H 0.57744 0.88084 0.44377 0.0
H1232 H 0.54162 0.87374 0.41563 0.0
H1233 H 0.55637 0.86755 0.41779 0.0
H1234 H 0.53544 0.85277 0.39781 0.0
H1235 H 0.55015 0.8466 0.39995 0.0
H1236 H 0.58948 0.82 0.40119 0.0
H1237 H 0.61485 0.82915 0.4094 0.0
H1238 H 0.60802 0.84164 0.41678 0.0
H1239 H 0.58256 0.83261 0.40864 0.0
C1240 C 0.90146 0.83583 0.18847 0.0
C1241 C 0.9064 0.84343 0.19002 0.0
C1242 C 0.89515 0.84891 0.19986 0.0
C1243 C 0.90327 0.84992 0.1957 0.0
C1244 C 0.89022 0.84131 0.1983 0.0
C1245 C 0.89336 0.83482 0.19265 0.0
U1246 U 0.9174 0.82843 0.17091 0.0
O1247 O 0.92411 0.81584 0.16875 0.0
O1248 O 0.91532 0.82108 0.15869 0.0
C1249 C 0.92021 0.81447 0.1612 0.0
C1250 C 0.9046 0.82904 0.18236 0.0
C1251 C 0.91644 0.80568 0.15992 0.0
C1252 C 0.90526 0.79471 0.16279 0.0
C1253 C 0.90872 0.8031 0.16417 0.0
C1254 C 0.91721 0.79139 0.1529 0.0
C1255 C 0.9095 0.78879 0.15715 0.0
C1256 C 0.92065 0.79977 0.15428 0.0
C1257 C 0.93476 0.84596 0.16449 0.0
C1258 C 0.94771 0.8443 0.15537 0.0
C1259 C 0.9434 0.85868 0.16052 0.0
C1260 C 0.93625 0.855 0.16483 0.0
C1261 C 0.94919 0.85338 0.15578 0.0
C1262 C 0.94051 0.8406 0.15971 0.0
C1263 C 0.92727 0.84243 0.16939 0.0
O1264 O 0.90355 0.83084 0.17402 0.0
O1265 O 0.91235 0.82575 0.18413 0.0
O1266 O 0.92891 0.83606 0.17493 0.0
O1267 O 0.92 0.84128 0.16495 0.0
H1268 H 0.91265 0.84435 0.18681 0.0
H1269 H 0.90715 0.85575 0.19681 0.0
H1270 H 0.88392 0.84044 0.20143 0.0
H1271 H 0.88944 0.82902 0.1915 0.0
H1272 H 0.89931 0.79281 0.16613 0.0
H1273 H 0.90538 0.80757 0.16855 0.0
H1274 H 0.92056 0.78692 0.14853 0.0
H1275 H 0.92661 0.80164 0.15093 0.0
H1276 H 0.95214 0.84012 0.15174 0.0
H1277 H 0.94445 0.86568 0.16092 0.0
H1278 H 0.93189 0.85923 0.1685 0.0
H1279 H 0.93946 0.8336 0.15938 0.0
C1280 C 0.58412 0.9378 0.86976 0.0
C1281 C 0.58417 0.92982 0.8652 0.0
C1282 C 0.57243 0.92433 0.87443 0.0
C1283 C 0.57836 0.92314 0.86752 0.0
C1284 C 0.57236 0.93233 0.87897 0.0
C1285 C 0.57818 0.93902 0.87665 0.0
U1286 U 0.60247 0.94563 0.85522 0.0
O1287 O 0.60513 0.95829 0.84892 0.0
O1288 O 0.61464 0.9528 0.85817 0.0
C1289 C 0.61242 0.95954 0.85331 0.0
C1290 C 0.59031 0.94479 0.86734 0.0
C1291 C 0.6136 0.96826 0.85734 0.0
C1292 C 0.60786 0.98126 0.86455 0.0
C1293 C 0.60656 0.97289 0.86102 0.0
C1294 C 0.62325 0.98044 0.86088 0.0
C1295 C 0.61621 0.98509 0.86449 0.0
C1296 C 0.62195 0.97209 0.85732 0.0
C1297 C 0.6095 0.92809 0.83792 0.0
C1298 C 0.61775 0.92943 0.82435 0.0
C1299 C 0.61426 0.91508 0.83014 0.0
C1300 C 0.61002 0.91896 0.83723 0.0
C1301 C 0.61808 0.92026 0.82361 0.0
C1302 C 0.61346 0.93334 0.83149 0.0
C1303 C 0.60437 0.93177 0.84521 0.0
O1304 O 0.59858 0.94299 0.86883 0.0
O1305 O 0.58901 0.94833 0.85961 0.0
O1306 O 0.59903 0.93825 0.84336 0.0
O1307 O 0.60846 0.93275 0.85271 0.0
H1308 H 0.58871 0.92876 0.85986 0.0
H1309 H 0.57849 0.91702 0.86393 0.0
H1310 H 0.5678 0.93337 0.8843 0.0
H1311 H 0.57806 0.94514 0.88024 0.0
H1312 H 0.60236 0.98476 0.86734 0.0
H1313 H 0.60007 0.97006 0.86114 0.0
H1314 H 0.62974 0.98328 0.86079 0.0
H1315 H 0.62746 0.96864 0.85451 0.0
H1316 H 0.62066 0.93352 0.81936 0.0
H1317 H 0.61445 0.90801 0.82967 0.0
H1318 H 0.60699 0.91481 0.84211 0.0
H1319 H 0.61312 0.94041 0.83191 0.0
C1320 C 0.83552 0.83309 0.61925 0.0
C1321 C 0.83355 0.82429 0.62103 0.0
C1322 C 0.84895 0.82117 0.62363 0.0
C1323 C 0.84022 0.81836 0.62317 0.0
C1324 C 0.85092 0.82997 0.62191 0.0
C1325 C 0.84428 0.83587 0.6197 0.0
U1326 U 0.82759 0.85157 0.60477 0.0
O1327 O 0.81499 0.85413 0.59831 0.0
O1328 O 0.82023 0.86363 0.60772 0.0
C1329 C 0.81359 0.86139 0.60274 0.0
C1330 C 0.82848 0.83922 0.61667 0.0
C1331 C 0.8048 0.86252 0.60662 0.0
C1332 C 0.79142 0.85669 0.61299 0.0
C1333 C 0.79984 0.85538 0.60961 0.0
C1334 C 0.79282 0.87229 0.61055 0.0
C1335 C 0.78785 0.86515 0.61347 0.0
C1336 C 0.80122 0.87098 0.60714 0.0
C1337 C 0.84525 0.85914 0.58787 0.0
C1338 C 0.84401 0.86706 0.5741 0.0
C1339 C 0.85828 0.86437 0.58044 0.0
C1340 C 0.85436 0.8601 0.58749 0.0
C1341 C 0.85316 0.86779 0.57365 0.0
C1342 C 0.84006 0.86274 0.58118 0.0
C1343 C 0.84157 0.85384 0.59503 0.0
O1344 O 0.82991 0.84754 0.61838 0.0
O1345 O 0.82513 0.83794 0.60885 0.0
O1346 O 0.83523 0.84841 0.593 0.0
O1347 O 0.84042 0.85779 0.60258 0.0
H1348 H 0.82686 0.82198 0.62067 0.0
H1349 H 0.83859 0.81158 0.62443 0.0
H1350 H 0.85763 0.83224 0.62217 0.0
H1351 H 0.84602 0.84259 0.61826 0.0
H1352 H 0.78767 0.85111 0.61525 0.0
H1353 H 0.80246 0.8488 0.6093 0.0
H1354 H 0.79019 0.87886 0.61089 0.0
H1355 H 0.80492 0.87658 0.60486 0.0
H1356 H 0.83997 0.86967 0.56889 0.0
H1357 H 0.86535 0.86488 0.58021 0.0
H1358 H 0.85848 0.85735 0.59256 0.0
H1359 H 0.83301 0.86205 0.58135 0.0
C1360 C 0.93859 0.08583 0.36915 0.0
C1361 C 0.93851 0.09382 0.36461 0.0
C1362 C 0.95026 0.09933 0.37381 0.0
C1363 C 0.9443 0.10052 0.36692 0.0
C1364 C 0.95036 0.09133 0.37834 0.0
C1365 C 0.94455 0.08462 0.37602 0.0
U1366 U 0.92003 0.0779 0.35489 0.0
O1367 O 0.91736 0.06523 0.3486 0.0
O1368 O 0.90799 0.07061 0.35807 0.0
C1369 C 0.91016 0.06391 0.35313 0.0
C1370 C 0.93241 0.07882 0.36676 0.0
C1371 C 0.90909 0.05516 0.35711 0.0
C1372 C 0.91503 0.04187 0.36361 0.0
C1373 C 0.91627 0.05029 0.36018 0.0
C1374 C 0.89944 0.04312 0.3611 0.0
C1375 C 0.90661 0.03823 0.36407 0.0
C1376 C 0.90067 0.05151 0.35763 0.0
C1377 C 0.91215 0.09522 0.33778 0.0
C1378 C 0.90609 0.09453 0.32304 0.0
C1379 C 0.9047 0.10782 0.33157 0.0
C1380 C 0.90909 0.10384 0.33851 0.0
C1381 C 0.9033 0.10327 0.32374 0.0
C1382 C 0.91052 0.09052 0.33002 0.0
C1383 C 0.91764 0.09171 0.34491 0.0
O1384 O 0.92416 0.08055 0.36842 0.0
O1385 O 0.9336 0.07535 0.35898 0.0
O1386 O 0.92312 0.08536 0.34298 0.0
O1387 O 0.91384 0.09073 0.35256 0.0
H1388 H 0.93394 0.09488 0.35929 0.0
H1389 H 0.94414 0.10664 0.36335 0.0
H1390 H 0.95494 0.0903 0.38365 0.0
H1391 H 0.94471 0.07851 0.3796 0.0
H1392 H 0.92064 0.0382 0.36591 0.0
H1393 H 0.92282 0.05297 0.35987 0.0
H1394 H 0.8929 0.04042 0.36142 0.0
H1395 H 0.89505 0.05514 0.3553 0.0
H1396 H 0.90504 0.09091 0.31704 0.0
H1397 H 0.90257 0.11456 0.33223 0.0
H1398 H 0.91032 0.1076 0.3444 0.0
H1399 H 0.91282 0.08386 0.32928 0.0
C1400 C 0.68733 0.18765 0.12023 0.0
C1401 C 0.67939 0.18769 0.1156 0.0
C1402 C 0.67386 0.19935 0.1249 0.0
C1403 C 0.67271 0.1935 0.11792 0.0
C1404 C 0.68178 0.19932 0.12955 0.0
C1405 C 0.68848 0.19348 0.12723 0.0
U1406 U 0.69512 0.16958 0.10539 0.0
O1407 O 0.70772 0.16718 0.09881 0.0
O1408 O 0.70246 0.15744 0.10794 0.0
C1409 C 0.70909 0.15979 0.103 0.0
C1410 C 0.69435 0.18153 0.11772 0.0
C1411 C 0.71786 0.15869 0.10688 0.0
C1412 C 0.72858 0.16173 0.11825 0.0
C1413 C 0.72021 0.16293 0.11469 0.0
C1414 C 0.73233 0.15208 0.10623 0.0
C1415 C 0.7347 0.15631 0.11403 0.0
C1416 C 0.72398 0.15327 0.10269 0.0
C1417 C 0.67738 0.16287 0.08819 0.0
C1418 C 0.67862 0.15436 0.07477 0.0
C1419 C 0.66435 0.1588 0.08009 0.0
C1420 C 0.66827 0.1629 0.08723 0.0
C1421 C 0.66948 0.15456 0.07378 0.0
C1422 C 0.68257 0.15852 0.08196 0.0
C1423 C 0.68114 0.16782 0.09554 0.0
O1424 O 0.69261 0.17322 0.1191 0.0
O1425 O 0.69783 0.18296 0.10998 0.0
O1426 O 0.68756 0.17325 0.09372 0.0
O1427 O 0.68227 0.16354 0.10291 0.0
H1428 H 0.67838 0.18323 0.11018 0.0
H1429 H 0.66665 0.19346 0.11425 0.0
H1430 H 0.68278 0.20381 0.13494 0.0
H1431 H 0.69456 0.19354 0.13087 0.0
H1432 H 0.73029 0.16505 0.12427 0.0
H1433 H 0.71558 0.16714 0.11802 0.0
H1434 H 0.73697 0.14788 0.1029 0.0
H1435 H 0.72228 0.14995 0.09666 0.0
H1436 H 0.68267 0.15112 0.06994 0.0
H1437 H 0.6573 0.15901 0.07943 0.0
H1438 H 0.66417 0.16625 0.09196 0.0
H1439 H 0.68963 0.15845 0.08258 0.0
C1440 C 0.58391 0.08557 0.653 0.0
C1441 C 0.5842 0.09362 0.65744 0.0
C1442 C 0.5723 0.09917 0.64847 0.0
C1443 C 0.57844 0.10037 0.65519 0.0
C1444 C 0.57199 0.09113 0.64403 0.0
C1445 C 0.57778 0.08437 0.64629 0.0
U1446 U 0.60225 0.07732 0.66738 0.0
O1447 O 0.60467 0.06458 0.67363 0.0
O1448 O 0.61422 0.06986 0.6643 0.0
C1449 C 0.61189 0.06317 0.66917 0.0
C1450 C 0.59001 0.07849 0.65538 0.0
C1451 C 0.61291 0.05441 0.66518 0.0
C1452 C 0.60687 0.04108 0.65887 0.0
C1453 C 0.60568 0.04952 0.66228 0.0
C1454 C 0.62251 0.04236 0.66106 0.0
C1455 C 0.61528 0.03744 0.65827 0.0
C1456 C 0.62132 0.05077 0.6645 0.0
C1457 C 0.61007 0.09437 0.68482 0.0
C1458 C 0.61449 0.09426 0.70015 0.0
C1459 C 0.61809 0.10667 0.69096 0.0
C1460 C 0.61409 0.10257 0.68385 0.0
C1461 C 0.61813 0.10265 0.6992 0.0
C1462 C 0.61047 0.09015 0.693 0.0
C1463 C 0.60469 0.091 0.67752 0.0
O1464 O 0.5983 0.08014 0.65382 0.0
O1465 O 0.5887 0.07496 0.66311 0.0
O1466 O 0.59905 0.08475 0.67928 0.0
O1467 O 0.60861 0.09002 0.66993 0.0
H1468 H 0.58889 0.09467 0.66265 0.0
H1469 H 0.57875 0.10652 0.6587 0.0
H1470 H 0.56728 0.09009 0.63885 0.0
H1471 H 0.57746 0.07821 0.64279 0.0
H1472 H 0.60122 0.03738 0.65671 0.0
H1473 H 0.59913 0.05219 0.66272 0.0
H1474 H 0.62905 0.03966 0.66062 0.0
H1475 H 0.62698 0.05442 0.6667 0.0
H1476 H 0.61447 0.09108 0.70648 0.0
H1477 H 0.62085 0.11314 0.69012 0.0
H1478 H 0.61381 0.10598 0.67764 0.0
H1479 H 0.6074 0.08383 0.69396 0.0
C1480 C 0.687 0.83458 0.40296 0.0
C1481 C 0.67899 0.83459 0.40745 0.0
C1482 C 0.67355 0.82296 0.39806 0.0
C1483 C 0.67232 0.82882 0.40502 0.0
C1484 C 0.68156 0.82294 0.39356 0.0
C1485 C 0.68825 0.82873 0.39599 0.0
U1486 U 0.69469 0.85258 0.41796 0.0
O1487 O 0.70722 0.85494 0.42467 0.0
O1488 O 0.70205 0.86471 0.41551 0.0
C1489 C 0.70862 0.86236 0.42055 0.0
C1490 C 0.69401 0.84067 0.40558 0.0
C1491 C 0.71744 0.86352 0.41682 0.0
C1492 C 0.72861 0.86013 0.406 0.0
C1493 C 0.72018 0.85887 0.40938 0.0
C1494 C 0.73165 0.87068 0.41744 0.0
C1495 C 0.73441 0.86602 0.41002 0.0
C1496 C 0.72323 0.86943 0.42081 0.0
C1497 C 0.67688 0.85935 0.43502 0.0
C1498 C 0.67815 0.86819 0.44822 0.0
C1499 C 0.66388 0.8635 0.44314 0.0
C1500 C 0.66778 0.85924 0.43607 0.0
C1501 C 0.66901 0.86795 0.44929 0.0
C1502 C 0.68207 0.86389 0.44111 0.0
C1503 C 0.68063 0.85435 0.42769 0.0
O1504 O 0.69231 0.84898 0.40421 0.0
O1505 O 0.69741 0.83919 0.41334 0.0
O1506 O 0.68701 0.8489 0.42955 0.0
O1507 O 0.68182 0.85863 0.42033 0.0
H1508 H 0.6779 0.83906 0.41285 0.0
H1509 H 0.66619 0.82891 0.40859 0.0
H1510 H 0.68263 0.81843 0.38819 0.0
H1511 H 0.69439 0.82862 0.39246 0.0
H1512 H 0.73063 0.85648 0.40026 0.0
H1513 H 0.7158 0.85429 0.40621 0.0
H1514 H 0.73603 0.87525 0.42062 0.0
H1515 H 0.72123 0.87307 0.42656 0.0
H1516 H 0.6822 0.87159 0.45293 0.0
H1517 H 0.65683 0.86325 0.44387 0.0
H1518 H 0.66367 0.85576 0.43146 0.0
H1519 H 0.68912 0.86403 0.4404 0.0
C1520 C 0.93863 0.93705 0.15224 0.0
C1521 C 0.93865 0.92904 0.15674 0.0
C1522 C 0.95036 0.92364 0.14743 0.0
C1523 C 0.94447 0.92239 0.15436 0.0
C1524 C 0.95036 0.93165 0.14291 0.0
C1525 C 0.94452 0.93832 0.1453 0.0
U1526 U 0.9203 0.94446 0.16691 0.0
O1527 O 0.91763 0.95689 0.1737 0.0
O1528 O 0.90813 0.95172 0.16426 0.0
C1529 C 0.91035 0.95831 0.16933 0.0
C1530 C 0.93246 0.94401 0.15479 0.0
C1531 C 0.90889 0.96729 0.16582 0.0
C1532 C 0.91205 0.98292 0.16588 0.0
C1533 C 0.91418 0.97435 0.16833 0.0
C1534 C 0.89962 0.97756 0.15789 0.0
C1535 C 0.90424 0.98487 0.16125 0.0
C1536 C 0.90173 0.96899 0.16036 0.0
C1537 C 0.91333 0.92636 0.18363 0.0
C1538 C 0.90542 0.92725 0.19743 0.0
C1539 C 0.9085 0.9131 0.19092 0.0
C1540 C 0.91265 0.91722 0.18392 0.0
C1541 C 0.90493 0.91806 0.19776 0.0
C1542 C 0.90962 0.93139 0.19038 0.0
C1543 C 0.91844 0.93027 0.17645 0.0
O1544 O 0.92419 0.94226 0.15322 0.0
O1545 O 0.93374 0.94734 0.16261 0.0
O1546 O 0.92379 0.93668 0.17849 0.0
O1547 O 0.91433 0.9315 0.169 0.0
H1548 H 0.93415 0.92794 0.16211 0.0
H1549 H 0.94439 0.91626 0.15792 0.0
H1550 H 0.95488 0.93273 0.13757 0.0
H1551 H 0.94459 0.94445 0.14176 0.0
H1552 H 0.9167 0.98793 0.16761 0.0
H1553 H 0.91998 0.97329 0.17227 0.0
H1554 H 0.89439 0.97825 0.15323 0.0
H1555 H 0.89767 0.96368 0.15801 0.0
H1556 H 0.9027 0.93116 0.20267 0.0
H1557 H 0.90818 0.90602 0.19108 0.0
H1558 H 0.9155 0.91323 0.17879 0.0
H1559 H 0.91009 0.93846 0.19028 0.0
C1560 C 0.83561 0.18843 0.90131 0.0
C1561 C 0.84342 0.18966 0.90601 0.0
C1562 C 0.84864 0.19982 0.89493 0.0
C1563 C 0.84989 0.19533 0.90285 0.0
C1564 C 0.84084 0.19857 0.89023 0.0
C1565 C 0.83438 0.19291 0.89341 0.0
U1566 U 0.8282 0.17107 0.91744 0.0
O1567 O 0.81565 0.16909 0.92426 0.0
O1568 O 0.82074 0.1589 0.91552 0.0
C1569 C 0.81418 0.16153 0.92043 0.0
C1570 C 0.8288 0.18241 0.90454 0.0
C1571 C 0.80536 0.16031 0.91671 0.0
C1572 C 0.79444 0.16305 0.90546 0.0
C1573 C 0.80286 0.16437 0.90886 0.0
C1574 C 0.79095 0.15361 0.9177 0.0
C1575 C 0.78843 0.15766 0.90986 0.0
C1576 C 0.79936 0.15493 0.9211 0.0
C1577 C 0.84581 0.16466 0.93473 0.0
C1578 C 0.84419 0.15591 0.94793 0.0
C1579 C 0.8586 0.16051 0.94317 0.0
C1580 C 0.85489 0.16475 0.936 0.0
C1581 C 0.8533 0.15608 0.9492 0.0
C1582 C 0.84046 0.16018 0.94071 0.0
C1583 C 0.84225 0.16952 0.92722 0.0
O1584 O 0.83054 0.17404 0.90354 0.0
O1585 O 0.82558 0.18427 0.91229 0.0
O1586 O 0.83595 0.17513 0.92886 0.0
O1587 O 0.84102 0.16501 0.92 0.0
H1588 H 0.8445 0.18622 0.91212 0.0
H1589 H 0.85586 0.19621 0.90655 0.0
H1590 H 0.83978 0.20197 0.88411 0.0
H1591 H 0.82841 0.19203 0.88968 0.0
H1592 H 0.79261 0.16623 0.8994 0.0
H1593 H 0.8074 0.16855 0.90538 0.0
H1594 H 0.78641 0.14944 0.92119 0.0
H1595 H 0.80117 0.15174 0.92716 0.0
H1596 H 0.84002 0.15253 0.95255 0.0
H1597 H 0.86563 0.16072 0.94406 0.0
H1598 H 0.85912 0.16819 0.93146 0.0
H1599 H 0.83343 0.16005 0.93982 0.0
C1600 C 0.87105 0.58459 0.93719 0.0
C1601 C 0.86599 0.58283 0.92972 0.0
C1602 C 0.87747 0.57342 0.92396 0.0
C1603 C 0.86917 0.57726 0.92316 0.0
C1604 C 0.88252 0.57517 0.93144 0.0
C1605 C 0.87933 0.58071 0.93801 0.0
U1606 U 0.85503 0.60204 0.94466 0.0
O1607 O 0.84828 0.6041 0.95724 0.0
O1608 O 0.85705 0.61422 0.95209 0.0
C1609 C 0.85215 0.61165 0.95867 0.0
C1610 C 0.86787 0.59062 0.94402 0.0
C1611 C 0.8559 0.61288 0.96748 0.0
C1612 C 0.86713 0.61005 0.9784 0.0
C1613 C 0.86368 0.6087 0.97001 0.0
C1614 C 0.85506 0.61975 0.98182 0.0
C1615 C 0.86283 0.61558 0.98437 0.0
C1616 C 0.85163 0.61841 0.97344 0.0
C1617 C 0.83774 0.60849 0.92705 0.0
C1618 C 0.82472 0.61755 0.92862 0.0
C1619 C 0.8292 0.61248 0.91427 0.0
C1620 C 0.83635 0.60819 0.918 0.0
C1621 C 0.82333 0.61716 0.91954 0.0
C1622 C 0.83192 0.61323 0.93237 0.0
C1623 C 0.84523 0.60362 0.93063 0.0
O1624 O 0.86891 0.59898 0.9423 0.0
O1625 O 0.86012 0.58881 0.94728 0.0
O1626 O 0.84356 0.59803 0.93695 0.0
O1627 O 0.85247 0.60808 0.93184 0.0
H1628 H 0.85961 0.58581 0.92894 0.0
H1629 H 0.8652 0.57602 0.91742 0.0
H1630 H 0.88896 0.57229 0.93215 0.0
H1631 H 0.88335 0.58201 0.9437 0.0
H1632 H 0.87313 0.60677 0.98026 0.0
H1633 H 0.86707 0.60441 0.96549 0.0
H1634 H 0.85166 0.62404 0.98633 0.0
H1635 H 0.84562 0.6217 0.9716 0.0
H1636 H 0.82023 0.62113 0.93278 0.0
H1637 H 0.82822 0.6121 0.90726 0.0
H1638 H 0.84076 0.60456 0.91379 0.0
H1639 H 0.8329 0.61352 0.93938 0.0
C1640 C 0.36765 0.93997 0.08476 0.0
C1641 C 0.37171 0.94796 0.08277 0.0
C1642 C 0.37306 0.95131 0.09828 0.0
C1643 C 0.37438 0.95362 0.08949 0.0
C1644 C 0.36894 0.94336 0.10027 0.0
C1645 C 0.36621 0.93775 0.09357 0.0
U1646 U 0.35278 0.92189 0.07662 0.0
O1647 O 0.34625 0.91976 0.06394 0.0
O1648 O 0.35549 0.91 0.06897 0.0
C1649 C 0.3505 0.91243 0.06241 0.0
C1650 C 0.36489 0.93402 0.07766 0.0
C1651 C 0.35434 0.91147 0.05361 0.0
C1652 C 0.36577 0.91447 0.04295 0.0
C1653 C 0.36216 0.91569 0.0513 0.0
C1654 C 0.35377 0.90484 0.03914 0.0
C1655 C 0.3616 0.90902 0.03682 0.0
C1656 C 0.35017 0.90607 0.04747 0.0
C1657 C 0.33573 0.91393 0.09397 0.0
C1658 C 0.32045 0.90937 0.094 0.0
C1659 C 0.32977 0.90586 0.10632 0.0
C1660 C 0.33681 0.90993 0.10217 0.0
C1661 C 0.3215 0.90573 0.10237 0.0
C1662 C 0.32752 0.91347 0.08982 0.0
C1663 C 0.34298 0.91932 0.09051 0.0
O1664 O 0.36644 0.92566 0.07901 0.0
O1665 O 0.35706 0.9355 0.07444 0.0
O1666 O 0.34109 0.92506 0.08439 0.0
O1667 O 0.35052 0.91537 0.08929 0.0
H1668 H 0.37284 0.94982 0.07602 0.0
H1669 H 0.37754 0.95974 0.08784 0.0
H1670 H 0.36784 0.94149 0.10702 0.0
H1671 H 0.36301 0.93165 0.09526 0.0
H1672 H 0.37182 0.91774 0.04126 0.0
H1673 H 0.36548 0.91988 0.05595 0.0
H1674 H 0.35046 0.90062 0.0345 0.0
H1675 H 0.34414 0.90274 0.04915 0.0
H1676 H 0.3141 0.90932 0.09087 0.0
H1677 H 0.3307 0.90309 0.11278 0.0
H1678 H 0.34305 0.91025 0.10552 0.0
H1679 H 0.32648 0.91651 0.08351 0.0
C1680 C 0.83403 0.62114 0.8356 0.0
C1681 C 0.83411 0.61656 0.84356 0.0
C1682 C 0.8223 0.62569 0.84909 0.0
C1683 C 0.82828 0.61882 0.85025 0.0
C1684 C 0.82222 0.63028 0.84112 0.0
C1685 C 0.82806 0.62802 0.83441 0.0
U1686 U 0.85258 0.60681 0.82796 0.0
O1687 O 0.85532 0.60027 0.81543 0.0
O1688 O 0.86469 0.60979 0.82071 0.0
C1689 C 0.86254 0.60475 0.81407 0.0
C1690 C 0.84023 0.61875 0.8286 0.0
C1691 C 0.86364 0.60862 0.80527 0.0
C1692 C 0.85775 0.61548 0.79215 0.0
C1693 C 0.85652 0.61209 0.80059 0.0
C1694 C 0.8732 0.61208 0.793 0.0
C1695 C 0.8661 0.61548 0.7883 0.0
C1696 C 0.87198 0.60867 0.80142 0.0
C1697 C 0.85978 0.58997 0.8459 0.0
C1698 C 0.86751 0.57605 0.84505 0.0
C1699 C 0.86481 0.5828 0.85915 0.0
C1700 C 0.86067 0.5898 0.85502 0.0
C1701 C 0.86817 0.57583 0.85422 0.0
C1702 C 0.86332 0.5831 0.84089 0.0
C1703 C 0.85461 0.59712 0.84201 0.0
O1704 O 0.84848 0.62042 0.83035 0.0
O1705 O 0.83906 0.61095 0.82518 0.0
O1706 O 0.84929 0.59506 0.83558 0.0
O1707 O 0.85861 0.60464 0.84087 0.0
H1708 H 0.83868 0.61124 0.8446 0.0
H1709 H 0.82843 0.6152 0.85634 0.0
H1710 H 0.81763 0.63558 0.84011 0.0
H1711 H 0.82792 0.63162 0.82832 0.0
H1712 H 0.85219 0.6181 0.78862 0.0
H1713 H 0.85003 0.61215 0.80343 0.0
H1714 H 0.87969 0.61205 0.79015 0.0
H1715 H 0.87755 0.60602 0.80491 0.0
H1716 H 0.87006 0.5707 0.84116 0.0
H1717 H 0.86526 0.58272 0.86623 0.0
H1718 H 0.85796 0.59502 0.85899 0.0
H1719 H 0.86268 0.5831 0.83384 0.0
C1720 C 0.1549 0.08188 0.5846 0.0
C1721 C 0.15965 0.08153 0.59246 0.0
C1722 C 0.14947 0.07079 0.5983 0.0
C1723 C 0.15696 0.07601 0.59926 0.0
C1724 C 0.14477 0.07107 0.59041 0.0
C1725 C 0.14747 0.07658 0.5836 0.0
U1726 U 0.16966 0.10008 0.57667 0.0
O1727 O 0.17613 0.10244 0.564 0.0
O1728 O 0.16687 0.11209 0.56924 0.0
C1729 C 0.17185 0.10978 0.56262 0.0
C1730 C 0.15753 0.08794 0.57758 0.0
C1731 C 0.168 0.11088 0.55384 0.0
C1732 C 0.1566 0.108 0.54311 0.0
C1733 C 0.16019 0.10667 0.55145 0.0
C1734 C 0.16858 0.11771 0.53947 0.0
C1735 C 0.16077 0.11353 0.53707 0.0
C1736 C 0.17216 0.11639 0.54779 0.0
C1737 C 0.18679 0.1078 0.59406 0.0
C1738 C 0.19253 0.11611 0.60636 0.0
C1739 C 0.20213 0.11213 0.59439 0.0
C1740 C 0.19512 0.10802 0.59013 0.0
C1741 C 0.20091 0.11601 0.60263 0.0
C1742 C 0.18555 0.11203 0.60212 0.0
C1743 C 0.17955 0.10242 0.59054 0.0
O1744 O 0.15601 0.09625 0.57919 0.0
O1745 O 0.16534 0.08655 0.57423 0.0
O1746 O 0.18141 0.09679 0.5843 0.0
O1747 O 0.17199 0.10636 0.58944 0.0
H1748 H 0.16538 0.08559 0.59337 0.0
H1749 H 0.16064 0.0759 0.60531 0.0
H1750 H 0.13897 0.06709 0.58957 0.0
H1751 H 0.14372 0.07679 0.5776 0.0
H1752 H 0.15057 0.10471 0.54136 0.0
H1753 H 0.15688 0.1024 0.55603 0.0
H1754 H 0.17189 0.122 0.5349 0.0
H1755 H 0.17818 0.11971 0.54953 0.0
H1756 H 0.19148 0.11907 0.61271 0.0
H1757 H 0.20857 0.112 0.59143 0.0
H1758 H 0.19628 0.10479 0.58393 0.0
H1759 H 0.17922 0.11189 0.60532 0.0
C1760 C 0.18776 0.90234 0.83514 0.0
C1761 C 0.18577 0.90409 0.84395 0.0
C1762 C 0.19963 0.89775 0.84849 0.0
C1763 C 0.19164 0.90177 0.85058 0.0
C1764 C 0.20163 0.89599 0.8397 0.0
C1765 C 0.19572 0.89825 0.83307 0.0
U1766 U 0.16975 0.9174 0.8274 0.0
O1767 O 0.16757 0.9242 0.81488 0.0
O1768 O 0.15775 0.91499 0.81984 0.0
C1769 C 0.16021 0.92005 0.81333 0.0
C1770 C 0.18172 0.90509 0.82812 0.0
C1771 C 0.15924 0.9163 0.80448 0.0
C1772 C 0.16237 0.90505 0.79366 0.0
C1773 C 0.16348 0.90851 0.80208 0.0
C1774 C 0.15282 0.91715 0.78994 0.0
C1775 C 0.15704 0.90936 0.78753 0.0
C1776 C 0.15392 0.9206 0.79836 0.0
C1777 C 0.16269 0.93435 0.84522 0.0
C1778 C 0.15431 0.94784 0.84387 0.0
C1779 C 0.15833 0.94239 0.85821 0.0
C1780 C 0.16248 0.93524 0.85434 0.0
C1781 C 0.15429 0.94878 0.85302 0.0
C1782 C 0.15851 0.94065 0.83997 0.0
C1783 C 0.16773 0.92703 0.84151 0.0
O1784 O 0.17338 0.90364 0.82963 0.0
O1785 O 0.18323 0.9129 0.82486 0.0
O1786 O 0.1733 0.92893 0.83524 0.0
O1787 O 0.16349 0.91967 0.8402 0.0
H1788 H 0.17971 0.90732 0.8457 0.0
H1789 H 0.19002 0.90323 0.85732 0.0
H1790 H 0.20779 0.89294 0.83798 0.0
H1791 H 0.1974 0.89691 0.82631 0.0
H1792 H 0.16568 0.89903 0.7919 0.0
H1793 H 0.16762 0.9051 0.80672 0.0
H1794 H 0.14868 0.92056 0.78531 0.0
H1795 H 0.15059 0.92662 0.8001 0.0
H1796 H 0.15123 0.95274 0.83978 0.0
H1797 H 0.15837 0.94301 0.86527 0.0
H1798 H 0.16568 0.93046 0.85849 0.0
H1799 H 0.15862 0.94007 0.83291 0.0
C1800 C 0.6531 0.43901 0.43721 0.0
C1801 C 0.65746 0.43864 0.42913 0.0
C1802 C 0.64848 0.45056 0.4236 0.0
C1803 C 0.65516 0.44437 0.42237 0.0
C1804 C 0.64411 0.45093 0.43168 0.0
C1805 C 0.64641 0.44518 0.43845 0.0
U1806 U 0.66776 0.42091 0.44548 0.0
O1807 O 0.67422 0.41876 0.45819 0.0
O1808 O 0.66501 0.40901 0.45309 0.0
C1809 C 0.66998 0.41143 0.45968 0.0
C1810 C 0.65559 0.43299 0.44434 0.0
C1811 C 0.66614 0.41046 0.46848 0.0
C1812 C 0.65491 0.4137 0.47928 0.0
C1813 C 0.65843 0.41484 0.47089 0.0
C1814 C 0.66676 0.40381 0.48293 0.0
C1815 C 0.65906 0.40818 0.48536 0.0
C1816 C 0.67027 0.40495 0.47455 0.0
C1817 C 0.68515 0.41318 0.42833 0.0
C1818 C 0.69128 0.40509 0.41608 0.0
C1819 C 0.70054 0.40899 0.42833 0.0
C1820 C 0.69337 0.41297 0.43247 0.0
C1821 C 0.69957 0.40523 0.42 0.0
C1822 C 0.68415 0.40904 0.4202 0.0
C1823 C 0.67779 0.41849 0.43172 0.0
O1824 O 0.65412 0.42466 0.44277 0.0
O1825 O 0.66333 0.43443 0.44779 0.0
O1826 O 0.67952 0.42423 0.43789 0.0
O1827 O 0.67028 0.41446 0.43282 0.0
H1828 H 0.66265 0.43393 0.42806 0.0
H1829 H 0.65861 0.44401 0.41619 0.0
H1830 H 0.63896 0.45569 0.43274 0.0
H1831 H 0.64299 0.44556 0.44464 0.0
H1832 H 0.64896 0.41712 0.48105 0.0
H1833 H 0.65515 0.41911 0.46628 0.0
H1834 H 0.67004 0.39953 0.48753 0.0
H1835 H 0.67622 0.40151 0.47281 0.0
H1836 H 0.69042 0.40223 0.40965 0.0
H1837 H 0.7069 0.40916 0.43145 0.0
H1838 H 0.69435 0.41613 0.43874 0.0
H1839 H 0.6779 0.40917 0.41684 0.0
C1840 C 0.83381 0.40402 0.68718 0.0
C1841 C 0.83398 0.40843 0.67913 0.0
C1842 C 0.82216 0.39929 0.67369 0.0
C1843 C 0.8282 0.40609 0.67244 0.0
C1844 C 0.82196 0.39488 0.68175 0.0
C1845 C 0.82776 0.39723 0.68846 0.0
U1846 U 0.85234 0.41834 0.69504 0.0
O1847 O 0.85501 0.4247 0.70767 0.0
O1848 O 0.86439 0.41521 0.70233 0.0
C1849 C 0.86222 0.42018 0.70901 0.0
C1850 C 0.83997 0.40644 0.69419 0.0
C1851 C 0.8633 0.41624 0.71778 0.0
C1852 C 0.85739 0.40954 0.73096 0.0
C1853 C 0.85615 0.41296 0.72254 0.0
C1854 C 0.87291 0.41251 0.72992 0.0
C1855 C 0.86577 0.40931 0.73471 0.0
C1856 C 0.87168 0.41596 0.72153 0.0
C1857 C 0.86019 0.43535 0.67762 0.0
C1858 C 0.86618 0.45013 0.67817 0.0
C1859 C 0.86772 0.44142 0.665 0.0
C1860 C 0.86332 0.43452 0.66903 0.0
C1861 C 0.86904 0.44932 0.66947 0.0
C1862 C 0.86175 0.44318 0.68223 0.0
C1863 C 0.85471 0.42823 0.68118 0.0
O1864 O 0.84823 0.40477 0.69248 0.0
O1865 O 0.83877 0.41424 0.69761 0.0
O1866 O 0.84923 0.43021 0.68751 0.0
O1867 O 0.85851 0.42059 0.6822 0.0
H1868 H 0.83861 0.41369 0.67802 0.0
H1869 H 0.82844 0.40957 0.66627 0.0
H1870 H 0.81732 0.38963 0.68284 0.0
H1871 H 0.82753 0.39375 0.69463 0.0
H1872 H 0.85181 0.40706 0.73455 0.0
H1873 H 0.84963 0.41308 0.71977 0.0
H1874 H 0.87943 0.41237 0.73271 0.0
H1875 H 0.87728 0.41847 0.71798 0.0
H1876 H 0.86718 0.45618 0.68171 0.0
H1877 H 0.8699 0.44069 0.6583 0.0
H1878 H 0.86215 0.42857 0.66534 0.0
H1879 H 0.85939 0.444 0.68886 0.0
C1880 C 0.6881 0.6209 0.18723 0.0
C1881 C 0.68819 0.61626 0.1793 0.0
C1882 C 0.69987 0.62555 0.17381 0.0
C1883 C 0.69403 0.61856 0.17264 0.0
C1884 C 0.69979 0.63021 0.18174 0.0
C1885 C 0.69393 0.6279 0.18841 0.0
U1886 U 0.66986 0.60625 0.19505 0.0
O1887 O 0.66732 0.59979 0.20765 0.0
O1888 O 0.65773 0.60907 0.20234 0.0
C1889 C 0.66002 0.60415 0.20902 0.0
C1890 C 0.68193 0.61844 0.19422 0.0
C1891 C 0.65888 0.60806 0.2178 0.0
C1892 C 0.66476 0.61435 0.2312 0.0
C1893 C 0.66604 0.61104 0.22274 0.0
C1894 C 0.64917 0.61191 0.22984 0.0
C1895 C 0.65632 0.61478 0.23481 0.0
C1896 C 0.65045 0.60856 0.2214 0.0
C1897 C 0.66289 0.58891 0.17757 0.0
C1898 C 0.6547 0.57533 0.1791 0.0
C1899 C 0.65834 0.58084 0.16468 0.0
C1900 C 0.66248 0.58804 0.16846 0.0
C1901 C 0.6545 0.57439 0.16995 0.0
C1902 C 0.65889 0.58257 0.18291 0.0
C1903 C 0.66797 0.59627 0.18117 0.0
O1904 O 0.67365 0.6199 0.19243 0.0
O1905 O 0.68329 0.61071 0.19773 0.0
O1906 O 0.67341 0.59447 0.18758 0.0
O1907 O 0.6638 0.60371 0.18221 0.0
H1908 H 0.68373 0.61084 0.17826 0.0
H1909 H 0.69401 0.61489 0.16658 0.0
H1910 H 0.70427 0.6356 0.18275 0.0
H1911 H 0.69395 0.63156 0.19448 0.0
H1912 H 0.67035 0.61657 0.23494 0.0
H1913 H 0.67261 0.61075 0.2201 0.0
H1914 H 0.64261 0.61221 0.23251 0.0
H1915 H 0.64484 0.60629 0.21771 0.0
H1916 H 0.65177 0.5704 0.18325 0.0
H1917 H 0.65824 0.58022 0.15762 0.0
H1918 H 0.66554 0.59285 0.16425 0.0
H1919 H 0.65915 0.58314 0.18996 0.0
C1920 C 0.58541 0.65359 0.9402 0.0
C1921 C 0.59407 0.65619 0.93855 0.0
C1922 C 0.59909 0.64809 0.95128 0.0
C1923 C 0.60086 0.65343 0.94402 0.0
C1924 C 0.59042 0.64559 0.95302 0.0
C1925 C 0.58362 0.64831 0.9475 0.0
U1926 U 0.57699 0.66924 0.92301 0.0
O1927 O 0.56987 0.66712 0.91071 0.0
O1928 O 0.564 0.67528 0.92098 0.0
C1929 C 0.56292 0.67146 0.91335 0.0
C1930 C 0.57826 0.65641 0.93436 0.0
C1931 C 0.55434 0.66727 0.91172 0.0
C1932 C 0.54557 0.65452 0.90789 0.0
C1933 C 0.55355 0.65818 0.91051 0.0
C1934 C 0.5389 0.6689 0.90807 0.0
C1935 C 0.53823 0.65988 0.90647 0.0
C1936 C 0.5469 0.67257 0.91064 0.0
C1937 C 0.59399 0.68711 0.91649 0.0
C1938 C 0.59349 0.69714 0.90413 0.0
C1939 C 0.60597 0.69721 0.91391 0.0
C1940 C 0.6021 0.69061 0.9189 0.0
C1941 C 0.60178 0.70042 0.90641 0.0
C1942 C 0.58962 0.69048 0.90913 0.0
C1943 C 0.59063 0.6796 0.92148 0.0
O1944 O 0.57471 0.66401 0.93626 0.0
O1945 O 0.57981 0.65544 0.92595 0.0
O1946 O 0.58973 0.67226 0.9171 0.0
O1947 O 0.58417 0.68112 0.92695 0.0
H1948 H 0.59558 0.66033 0.93299 0.0
H1949 H 0.6075 0.65544 0.9426 0.0
H1950 H 0.58895 0.64149 0.95861 0.0
H1951 H 0.57699 0.64628 0.94891 0.0
H1952 H 0.54517 0.64754 0.90672 0.0
H1953 H 0.55916 0.65392 0.91132 0.0
H1954 H 0.53331 0.67314 0.90703 0.0
H1955 H 0.54734 0.67959 0.91152 0.0
H1956 H 0.59016 0.69956 0.89836 0.0
H1957 H 0.61235 0.69965 0.91578 0.0
H1958 H 0.60557 0.68808 0.92455 0.0
H1959 H 0.58335 0.68783 0.90717 0.0
C1960 C 0.61888 0.33535 0.19026 0.0
C1961 C 0.61388 0.34305 0.19086 0.0
C1962 C 0.62436 0.34923 0.20111 0.0
C1963 C 0.61659 0.34993 0.19626 0.0
C1964 C 0.62931 0.3415 0.20058 0.0
C1965 C 0.62659 0.3346 0.19519 0.0
U1966 U 0.60386 0.32718 0.17241 0.0
O1967 O 0.60646 0.31998 0.16025 0.0
O1968 O 0.5977 0.3143 0.17012 0.0
C1969 C 0.60186 0.31312 0.16267 0.0
C1970 C 0.61621 0.32825 0.1843 0.0
C1971 C 0.60593 0.30443 0.16122 0.0
C1972 C 0.61854 0.29538 0.15758 0.0
C1973 C 0.61501 0.30346 0.16009 0.0
C1974 C 0.60406 0.28897 0.15772 0.0
C1975 C 0.61308 0.28813 0.15619 0.0
C1976 C 0.60052 0.29707 0.16018 0.0
C1977 C 0.58664 0.34447 0.16479 0.0
C1978 C 0.57208 0.34358 0.15836 0.0
C1979 C 0.58041 0.35702 0.15726 0.0
C1980 C 0.58729 0.35313 0.16183 0.0
C1981 C 0.57272 0.35232 0.15559 0.0
C1982 C 0.579 0.33966 0.16296 0.0
C1983 C 0.59383 0.34098 0.17022 0.0
O1984 O 0.60848 0.32483 0.18585 0.0
O1985 O 0.61756 0.32984 0.17596 0.0
O1986 O 0.60141 0.33999 0.16629 0.0
O1987 O 0.59198 0.33463 0.17572 0.0
H1988 H 0.60793 0.34376 0.18707 0.0
H1989 H 0.61271 0.35585 0.19656 0.0
H1990 H 0.63533 0.34087 0.20427 0.0
H1991 H 0.63054 0.32873 0.19478 0.0
H1992 H 0.62552 0.29485 0.15646 0.0
H1993 H 0.61935 0.30901 0.16088 0.0
H1994 H 0.59975 0.28345 0.1567 0.0
H1995 H 0.5935 0.29765 0.16099 0.0
H1996 H 0.56619 0.33986 0.15709 0.0
H1997 H 0.58102 0.36376 0.15515 0.0
H1998 H 0.59309 0.35697 0.1632 0.0
H1999 H 0.57834 0.33297 0.16518 0.0
C2000 C 0.93722 0.36897 0.44108 0.0
C2001 C 0.92964 0.36385 0.44192 0.0
C2002 C 0.92344 0.37444 0.45205 0.0
C2003 C 0.9228 0.36656 0.44737 0.0
C2004 C 0.93107 0.3795 0.45132 0.0
C2005 C 0.93792 0.37678 0.44586 0.0
U2006 U 0.94525 0.35374 0.42334 0.0
O2007 O 0.9518 0.35633 0.41078 0.0
O2008 O 0.95818 0.34797 0.42056 0.0
C2009 C 0.95891 0.35203 0.413 0.0
C2010 C 0.94419 0.36638 0.43494 0.0
C2011 C 0.96738 0.35635 0.41097 0.0
C2012 C 0.98269 0.35952 0.41425 0.0
C2013 C 0.97459 0.35597 0.4167 0.0
C2014 C 0.97654 0.36393 0.40034 0.0
C2015 C 0.98371 0.36351 0.40603 0.0
C2016 C 0.96847 0.36037 0.40277 0.0
C2017 C 0.92842 0.33573 0.41696 0.0
C2018 C 0.92912 0.32574 0.40457 0.0
C2019 C 0.9164 0.32577 0.41405 0.0
C2020 C 0.92021 0.3323 0.41916 0.0
C2021 C 0.92074 0.32254 0.40664 0.0
C2022 C 0.93293 0.33235 0.40969 0.0
C2023 C 0.93175 0.34316 0.42208 0.0
O2024 O 0.94796 0.35881 0.43656 0.0
O2025 O 0.94224 0.36743 0.42664 0.0
O2026 O 0.93233 0.35064 0.41789 0.0
O2027 O 0.93844 0.34164 0.42726 0.0
H2028 H 0.92896 0.35782 0.43824 0.0
H2029 H 0.91695 0.36259 0.44784 0.0
H2030 H 0.93165 0.38561 0.45487 0.0
H2031 H 0.9437 0.38084 0.44527 0.0
H2032 H 0.98818 0.3591 0.41871 0.0
H2033 H 0.97401 0.35283 0.42303 0.0
H2034 H 0.97721 0.36695 0.39396 0.0
H2035 H 0.9631 0.36065 0.39815 0.0
H2036 H 0.93256 0.32331 0.39888 0.0
H2037 H 0.90995 0.32337 0.41575 0.0
H2038 H 0.91663 0.33484 0.42473 0.0
H2039 H 0.93927 0.33494 0.40789 0.0
C2040 C 0.90321 0.68809 0.6902 0.0
C2041 C 0.90819 0.6804 0.69101 0.0
C2042 C 0.89756 0.67441 0.7012 0.0
C2043 C 0.90539 0.67362 0.69648 0.0
C2044 C 0.89261 0.68212 0.70046 0.0
C2045 C 0.89542 0.68892 0.69499 0.0
U2046 U 0.91847 0.69566 0.67237 0.0
O2047 O 0.91614 0.703 0.66019 0.0
O2048 O 0.92524 0.70816 0.67002 0.0
C2049 C 0.92123 0.70953 0.66253 0.0
C2050 C 0.906 0.69507 0.68416 0.0
C2051 C 0.91772 0.71841 0.66114 0.0
C2052 C 0.90724 0.73001 0.66412 0.0
C2053 C 0.91039 0.72151 0.66565 0.0
C2054 C 0.91851 0.73223 0.65335 0.0
C2055 C 0.91157 0.73586 0.65833 0.0
C2056 C 0.92164 0.72377 0.65487 0.0
C2057 C 0.93549 0.67798 0.66548 0.0
C2058 C 0.94624 0.67886 0.65377 0.0
C2059 C 0.94493 0.66559 0.66235 0.0
C2060 C 0.93829 0.66944 0.6673 0.0
C2061 C 0.94889 0.67021 0.6555 0.0
C2062 C 0.93954 0.68273 0.65873 0.0
C2063 C 0.92818 0.68156 0.67062 0.0
O2064 O 0.91379 0.69839 0.68571 0.0
O2065 O 0.90468 0.69339 0.67584 0.0
O2066 O 0.92081 0.68278 0.66638 0.0
O2067 O 0.93005 0.68792 0.67609 0.0
H2068 H 0.9142 0.67962 0.68734 0.0
H2069 H 0.90928 0.66771 0.69696 0.0
H2070 H 0.88653 0.68282 0.70405 0.0
H2071 H 0.89148 0.69479 0.69442 0.0
H2072 H 0.90121 0.73169 0.66735 0.0
H2073 H 0.90701 0.71731 0.67025 0.0
H2074 H 0.92149 0.73572 0.64799 0.0
H2075 H 0.92708 0.72136 0.65101 0.0
H2076 H 0.94924 0.68252 0.6485 0.0
H2077 H 0.94688 0.65892 0.66378 0.0
H2078 H 0.93524 0.66569 0.67248 0.0
H2079 H 0.93745 0.68934 0.65725 0.0
C2080 C 0.5853 0.36903 0.58216 0.0
C2081 C 0.59395 0.36624 0.58358 0.0
C2082 C 0.59886 0.37451 0.57092 0.0
C2083 C 0.60068 0.36899 0.57803 0.0
C2084 C 0.5902 0.37717 0.56938 0.0
C2085 C 0.58346 0.37446 0.57498 0.0
U2086 U 0.57716 0.35371 0.59975 0.0
O2087 O 0.57049 0.35621 0.61225 0.0
O2088 O 0.56423 0.34788 0.60237 0.0
C2089 C 0.5634 0.35192 0.60994 0.0
C2090 C 0.57826 0.36636 0.58819 0.0
C2091 C 0.55491 0.35626 0.61187 0.0
C2092 C 0.53943 0.35882 0.60878 0.0
C2093 C 0.54755 0.35523 0.60641 0.0
C2094 C 0.54585 0.36456 0.62206 0.0
C2095 C 0.53854 0.3635 0.61664 0.0
C2096 C 0.55393 0.36097 0.61973 0.0
C2097 C 0.59416 0.33577 0.60611 0.0
C2098 C 0.59378 0.32587 0.61857 0.0
C2099 C 0.60618 0.32572 0.60869 0.0
C2100 C 0.60226 0.33225 0.60366 0.0
C2101 C 0.60206 0.32258 0.61626 0.0
C2102 C 0.58986 0.33248 0.61354 0.0
C2103 C 0.59074 0.34322 0.60107 0.0
O2104 O 0.5746 0.35877 0.58648 0.0
O2105 O 0.58002 0.36743 0.59654 0.0
O2106 O 0.59005 0.35066 0.60532 0.0
O2107 O 0.5841 0.34167 0.59583 0.0
H2108 H 0.5955 0.362 0.58905 0.0
H2109 H 0.60732 0.36686 0.5793 0.0
H2110 H 0.5887 0.38142 0.56391 0.0
H2111 H 0.57684 0.37666 0.57376 0.0
H2112 H 0.53384 0.3579 0.60453 0.0
H2113 H 0.54802 0.35154 0.60038 0.0
H2114 H 0.54528 0.36811 0.62818 0.0
H2115 H 0.55941 0.36175 0.62415 0.0
H2116 H 0.59051 0.32351 0.6244 0.0
H2117 H 0.61255 0.32326 0.6068 0.0
H2118 H 0.60567 0.33473 0.59796 0.0
H2119 H 0.5836 0.33515 0.61553 0.0
C2120 C 0.90308 0.33601 0.83214 0.0
C2121 C 0.90586 0.34465 0.83365 0.0
C2122 C 0.89784 0.34963 0.82086 0.0
C2123 C 0.90322 0.35141 0.82807 0.0
C2124 C 0.89519 0.34098 0.81924 0.0
C2125 C 0.89778 0.33421 0.82487 0.0
U2126 U 0.91822 0.32781 0.84984 0.0
O2127 O 0.91561 0.32122 0.86237 0.0
O2128 O 0.92397 0.31486 0.85257 0.0
C2129 C 0.91992 0.31411 0.86013 0.0
C2130 C 0.90565 0.32894 0.8382 0.0
C2131 C 0.91558 0.30564 0.86214 0.0
C2132 C 0.91209 0.29044 0.85867 0.0
C2133 C 0.91569 0.29854 0.85626 0.0
C2134 C 0.90817 0.2964 0.87281 0.0
C2135 C 0.90832 0.28932 0.86697 0.0
C2136 C 0.91178 0.30446 0.87043 0.0
C2137 C 0.93618 0.34471 0.85624 0.0
C2138 C 0.94646 0.3439 0.86837 0.0
C2139 C 0.94601 0.35683 0.85919 0.0
C2140 C 0.93942 0.35303 0.85415 0.0
C2141 C 0.94949 0.35237 0.86641 0.0
C2142 C 0.93979 0.3401 0.86333 0.0
C2143 C 0.92875 0.34134 0.85116 0.0
O2144 O 0.91322 0.32521 0.83655 0.0
O2145 O 0.90453 0.33072 0.84654 0.0
O2146 O 0.92129 0.34073 0.85536 0.0
O2147 O 0.93029 0.33466 0.84596 0.0
H2148 H 0.91001 0.34617 0.83919 0.0
H2149 H 0.90534 0.35804 0.8294 0.0
H2150 H 0.89104 0.3395 0.81369 0.0
H2151 H 0.8956 0.32759 0.82358 0.0
H2152 H 0.91229 0.28503 0.85409 0.0
H2153 H 0.91865 0.29919 0.84986 0.0
H2154 H 0.90532 0.29565 0.87926 0.0
H2155 H 0.91171 0.30975 0.87515 0.0
H2156 H 0.94908 0.34037 0.87393 0.0
H2157 H 0.94827 0.36335 0.85757 0.0
H2158 H 0.9367 0.35668 0.84872 0.0
H2159 H 0.93734 0.33367 0.86504 0.0
C2160 C 0.93694 0.65419 0.08122 0.0
C2161 C 0.92927 0.65922 0.08059 0.0
C2162 C 0.92312 0.64875 0.0703 0.0
C2163 C 0.92241 0.65652 0.07516 0.0
C2164 C 0.93082 0.64378 0.07086 0.0
C2165 C 0.93769 0.64648 0.07629 0.0
U2166 U 0.94515 0.6691 0.09921 0.0
O2167 O 0.95231 0.66637 0.11135 0.0
O2168 O 0.95808 0.67514 0.10155 0.0
C2169 C 0.95921 0.67092 0.10897 0.0
C2170 C 0.94401 0.65681 0.08723 0.0
C2171 C 0.96786 0.66679 0.11042 0.0
C2172 C 0.9768 0.65411 0.11413 0.0
C2173 C 0.96875 0.6577 0.1116 0.0
C2174 C 0.98332 0.66855 0.11393 0.0
C2175 C 0.98409 0.65953 0.1155 0.0
C2176 C 0.97526 0.67215 0.11144 0.0
C2177 C 0.92805 0.68646 0.10696 0.0
C2178 C 0.929 0.70108 0.11328 0.0
C2179 C 0.91564 0.69267 0.11472 0.0
C2180 C 0.91946 0.68578 0.11011 0.0
C2181 C 0.92032 0.70041 0.11624 0.0
C2182 C 0.93285 0.69414 0.10865 0.0
C2183 C 0.93146 0.67926 0.10147 0.0
O2184 O 0.94748 0.66454 0.08573 0.0
O2185 O 0.94238 0.65544 0.09556 0.0
O2186 O 0.93237 0.67164 0.10533 0.0
O2187 O 0.93782 0.68108 0.09596 0.0
H2188 H 0.92856 0.66517 0.08438 0.0
H2189 H 0.91651 0.66043 0.07483 0.0
H2190 H 0.93146 0.63775 0.06717 0.0
H2191 H 0.94355 0.64251 0.07672 0.0
H2192 H 0.97727 0.64714 0.11529 0.0
H2193 H 0.96318 0.6534 0.11084 0.0
H2194 H 0.98887 0.67283 0.11493 0.0
H2195 H 0.97474 0.67917 0.1106 0.0
H2196 H 0.93271 0.707 0.11443 0.0
H2197 H 0.90895 0.69204 0.11697 0.0
H2198 H 0.91563 0.67995 0.10886 0.0
H2199 H 0.93949 0.69483 0.10627 0.0
C2200 C 0.61926 0.68719 0.33269 0.0
C2201 C 0.6165 0.67855 0.33423 0.0
C2202 C 0.62463 0.67352 0.32152 0.0
C2203 C 0.6192 0.67177 0.3287 0.0
C2204 C 0.6273 0.68217 0.31989 0.0
C2205 C 0.62464 0.68896 0.32546 0.0
U2206 U 0.6038 0.69536 0.35012 0.0
O2207 O 0.60596 0.70253 0.36238 0.0
O2208 O 0.59754 0.70823 0.35223 0.0
C2209 C 0.60146 0.7094 0.3598 0.0
C2210 C 0.61647 0.69432 0.33857 0.0
C2211 C 0.60552 0.71807 0.36133 0.0
C2212 C 0.61812 0.72707 0.36512 0.0
C2213 C 0.61459 0.719 0.3626 0.0
C2214 C 0.60367 0.73356 0.36472 0.0
C2215 C 0.61267 0.73437 0.36637 0.0
C2216 C 0.60013 0.72547 0.36226 0.0
C2217 C 0.58636 0.67787 0.35673 0.0
C2218 C 0.57707 0.67728 0.36964 0.0
C2219 C 0.57603 0.66595 0.35858 0.0
C2220 C 0.58245 0.67017 0.35365 0.0
C2221 C 0.5734 0.66937 0.36668 0.0
C2222 C 0.58356 0.6815 0.3647 0.0
C2223 C 0.59375 0.68149 0.35174 0.0
O2224 O 0.60879 0.69776 0.3368 0.0
O2225 O 0.6176 0.69278 0.34696 0.0
O2226 O 0.6011 0.68255 0.35606 0.0
O2227 O 0.59203 0.68793 0.3463 0.0
H2228 H 0.61229 0.67706 0.33973 0.0
H2229 H 0.61706 0.66514 0.33004 0.0
H2230 H 0.63148 0.68362 0.31436 0.0
H2231 H 0.6268 0.69558 0.32414 0.0
H2232 H 0.62508 0.72758 0.36633 0.0
H2233 H 0.61892 0.71343 0.36191 0.0
H2234 H 0.59937 0.73912 0.36563 0.0
H2235 H 0.59313 0.72492 0.36133 0.0
H2236 H 0.5751 0.68001 0.37588 0.0
H2237 H 0.57327 0.65987 0.35619 0.0
H2238 H 0.58454 0.66727 0.34753 0.0
H2239 H 0.58653 0.68743 0.36718 0.0
C2240 C 0.9393 0.58532 0.65306 0.0
C2241 C 0.93998 0.59299 0.65808 0.0
C2242 C 0.95052 0.59896 0.64777 0.0
C2243 C 0.94557 0.59975 0.65546 0.0
C2244 C 0.94992 0.59125 0.6428 0.0
C2245 C 0.94434 0.58447 0.64543 0.0
U2246 U 0.92078 0.57758 0.66753 0.0
O2247 O 0.90863 0.57047 0.66441 0.0
O2248 O 0.918 0.5649 0.67376 0.0
C2249 C 0.91072 0.56372 0.66932 0.0
C2250 C 0.93309 0.57837 0.65557 0.0
C2251 C 0.9095 0.55503 0.66529 0.0
C2252 C 0.91482 0.54264 0.65679 0.0
C2253 C 0.91616 0.55096 0.66043 0.0
C2254 C 0.90013 0.5424 0.66275 0.0
C2255 C 0.90679 0.53831 0.65793 0.0
C2256 C 0.90148 0.55069 0.66641 0.0
C2257 C 0.91302 0.59493 0.68464 0.0
C2258 C 0.90677 0.59421 0.69929 0.0
C2259 C 0.90544 0.60751 0.69077 0.0
C2260 C 0.90996 0.60356 0.68388 0.0
C2261 C 0.90394 0.60293 0.69857 0.0
C2262 C 0.91131 0.59023 0.69236 0.0
C2263 C 0.91853 0.59141 0.67751 0.0
O2264 O 0.93432 0.57494 0.66336 0.0
O2265 O 0.92484 0.58015 0.65396 0.0
O2266 O 0.91475 0.59048 0.66985 0.0
O2267 O 0.92394 0.58501 0.67945 0.0
H2268 H 0.93611 0.59378 0.66397 0.0
H2269 H 0.94593 0.60567 0.65936 0.0
H2270 H 0.95368 0.59054 0.63684 0.0
H2271 H 0.94387 0.57862 0.64146 0.0
H2272 H 0.92002 0.53958 0.65307 0.0
H2273 H 0.92239 0.55421 0.65948 0.0
H2274 H 0.8939 0.53916 0.66368 0.0
H2275 H 0.89626 0.55372 0.67013 0.0
H2276 H 0.90563 0.59057 0.70527 0.0
H2277 H 0.90329 0.61423 0.69009 0.0
H2278 H 0.91124 0.60732 0.67802 0.0
H2279 H 0.91362 0.58357 0.69312 0.0
C2280 C 0.68698 0.69141 0.9038 0.0
C2281 C 0.67832 0.68972 0.90637 0.0
C2282 C 0.67327 0.70248 0.89834 0.0
C2283 C 0.67151 0.69519 0.90363 0.0
C2284 C 0.68193 0.70426 0.89586 0.0
C2285 C 0.68875 0.69874 0.89856 0.0
U2286 U 0.69533 0.67406 0.91929 0.0
O2287 O 0.70248 0.66179 0.91709 0.0
O2288 O 0.70827 0.67197 0.92541 0.0
C2289 C 0.70939 0.66437 0.92151 0.0
C2290 C 0.69414 0.68556 0.90659 0.0
C2291 C 0.71802 0.66275 0.91741 0.0
C2292 C 0.72691 0.65858 0.90484 0.0
C2293 C 0.71887 0.66123 0.90837 0.0
C2294 C 0.7335 0.65934 0.91922 0.0
C2295 C 0.73423 0.65743 0.91027 0.0
C2296 C 0.72545 0.66194 0.92276 0.0
C2297 C 0.67823 0.66726 0.93693 0.0
C2298 C 0.67885 0.65485 0.94689 0.0
C2299 C 0.66615 0.66436 0.94681 0.0
C2300 C 0.67001 0.66948 0.94032 0.0
C2301 C 0.67046 0.65693 0.95004 0.0
C2302 C 0.68271 0.65998 0.94032 0.0
C2303 C 0.68161 0.67238 0.92952 0.0
O2304 O 0.69762 0.68738 0.91424 0.0
O2305 O 0.69263 0.67716 0.90551 0.0
O2306 O 0.68257 0.66811 0.92212 0.0
O2307 O 0.68804 0.67784 0.93116 0.0
H2308 H 0.67682 0.68413 0.91047 0.0
H2309 H 0.66487 0.69373 0.90562 0.0
H2310 H 0.68339 0.70987 0.89178 0.0
H2311 H 0.69539 0.70018 0.89654 0.0
H2312 H 0.72735 0.65717 0.89791 0.0
H2313 H 0.71328 0.66183 0.90407 0.0
H2314 H 0.73908 0.65852 0.92351 0.0
H2315 H 0.72496 0.66305 0.92975 0.0
H2316 H 0.68227 0.64914 0.94932 0.0
H2317 H 0.65968 0.66607 0.94917 0.0
H2318 H 0.66646 0.67507 0.93777 0.0
H2319 H 0.68907 0.65817 0.93776 0.0
C2320 C 0.58151 0.4372 0.15327 0.0
C2321 C 0.58316 0.42852 0.15585 0.0
C2322 C 0.57019 0.42358 0.1481 0.0
C2323 C 0.57757 0.42176 0.15325 0.0
C2324 C 0.56843 0.43226 0.14565 0.0
C2325 C 0.57407 0.43903 0.1482 0.0
U2326 U 0.59929 0.44543 0.1683 0.0
O2327 O 0.61174 0.45212 0.16563 0.0
O2328 O 0.60197 0.45838 0.17409 0.0
C2329 C 0.60949 0.4592 0.16998 0.0
C2330 C 0.58755 0.44428 0.15582 0.0
C2331 C 0.61142 0.46771 0.16568 0.0
C2332 C 0.60832 0.4832 0.16317 0.0
C2333 C 0.60592 0.47506 0.16668 0.0
C2334 C 0.62169 0.47683 0.15757 0.0
C2335 C 0.61624 0.48414 0.15862 0.0
C2336 C 0.61932 0.46872 0.16108 0.0
C2337 C 0.60592 0.42844 0.18613 0.0
C2338 C 0.618 0.42929 0.19645 0.0
C2339 C 0.609 0.41624 0.19582 0.0
C2340 C 0.60394 0.42005 0.18925 0.0
C2341 C 0.61614 0.42077 0.19939 0.0
C2342 C 0.61292 0.43311 0.18981 0.0
C2343 C 0.60077 0.43185 0.17875 0.0
O2344 O 0.58594 0.44797 0.16343 0.0
O2345 O 0.59589 0.44256 0.15463 0.0
O2346 O 0.60492 0.43253 0.17126 0.0
O2347 O 0.59555 0.43849 0.18037 0.0
H2348 H 0.58883 0.42697 0.15981 0.0
H2349 H 0.57901 0.41511 0.15521 0.0
H2350 H 0.56275 0.43377 0.14169 0.0
H2351 H 0.57266 0.44568 0.14618 0.0
H2352 H 0.60405 0.48879 0.16408 0.0
H2353 H 0.59984 0.47456 0.17029 0.0
H2354 H 0.62785 0.47743 0.15412 0.0
H2355 H 0.62377 0.46325 0.16032 0.0
H2356 H 0.62348 0.43287 0.19915 0.0
H2357 H 0.60747 0.40968 0.198 0.0
H2358 H 0.59857 0.41636 0.18647 0.0
H2359 H 0.61454 0.43959 0.18746 0.0
C2360 C 0.83552 0.33199 0.40344 0.0
C2361 C 0.84306 0.33111 0.40861 0.0
C2362 C 0.84928 0.32094 0.39807 0.0
C2363 C 0.84989 0.32561 0.40595 0.0
C2364 C 0.84168 0.32171 0.39296 0.0
C2365 C 0.83485 0.32722 0.39563 0.0
U2366 U 0.82744 0.34981 0.41859 0.0
O2367 O 0.82088 0.36235 0.41592 0.0
O2368 O 0.81448 0.35259 0.42428 0.0
C2369 C 0.81374 0.36013 0.42018 0.0
C2370 C 0.82855 0.33817 0.40599 0.0
C2371 C 0.80528 0.36208 0.41577 0.0
C2372 C 0.78971 0.35927 0.41349 0.0
C2373 C 0.7978 0.35686 0.41711 0.0
C2374 C 0.79641 0.37212 0.40711 0.0
C2375 C 0.78897 0.36694 0.40849 0.0
C2376 C 0.80446 0.36973 0.41072 0.0
C2377 C 0.84423 0.35619 0.43667 0.0
C2378 C 0.84354 0.36855 0.44669 0.0
C2379 C 0.85622 0.35902 0.44668 0.0
C2380 C 0.85242 0.35394 0.44012 0.0
C2381 C 0.85189 0.36643 0.44992 0.0
C2382 C 0.83973 0.36346 0.44005 0.0
C2383 C 0.84089 0.35109 0.42923 0.0
O2384 O 0.82476 0.33657 0.41354 0.0
O2385 O 0.83053 0.34647 0.40493 0.0
O2386 O 0.84034 0.35528 0.42175 0.0
O2387 O 0.8342 0.3459 0.43072 0.0
H2388 H 0.84372 0.33478 0.41464 0.0
H2389 H 0.85571 0.32511 0.40996 0.0
H2390 H 0.84112 0.31817 0.38685 0.0
H2391 H 0.8291 0.32784 0.39154 0.0
H2392 H 0.78402 0.35522 0.41467 0.0
H2393 H 0.79815 0.35099 0.42107 0.0
H2394 H 0.79595 0.37808 0.4033 0.0
H2395 H 0.81003 0.37399 0.4097 0.0
H2396 H 0.84011 0.37425 0.44913 0.0
H2397 H 0.86266 0.35728 0.44909 0.0
H2398 H 0.85598 0.34836 0.43757 0.0
H2399 H 0.8334 0.36529 0.43744 0.0
C2400 C 0.9399 0.43761 0.87002 0.0
C2401 C 0.941 0.43021 0.86467 0.0
C2402 C 0.95101 0.42385 0.87528 0.0
C2403 C 0.94653 0.42339 0.86728 0.0
C2404 C 0.95001 0.43131 0.88057 0.0
C2405 C 0.94448 0.43814 0.87796 0.0
U2406 U 0.92217 0.44566 0.85482 0.0
O2407 O 0.90954 0.45209 0.85743 0.0
O2408 O 0.9193 0.45861 0.84917 0.0
C2409 C 0.91172 0.45925 0.85319 0.0
C2410 C 0.93369 0.44456 0.86751 0.0
C2411 C 0.9096 0.46767 0.85758 0.0
C2412 C 0.91308 0.48277 0.8615 0.0
C2413 C 0.91556 0.4747 0.85788 0.0
C2414 C 0.8987 0.47694 0.86464 0.0
C2415 C 0.90462 0.48395 0.86489 0.0
C2416 C 0.90116 0.4689 0.861 0.0
C2417 C 0.9162 0.42889 0.83654 0.0
C2418 C 0.90383 0.42933 0.82654 0.0
C2419 C 0.91377 0.41696 0.82633 0.0
C2420 C 0.91872 0.42084 0.83295 0.0
C2421 C 0.90621 0.42109 0.82318 0.0
C2422 C 0.90879 0.43321 0.83323 0.0
C2423 C 0.92116 0.43225 0.84407 0.0
O2424 O 0.93531 0.44846 0.86001 0.0
O2425 O 0.92541 0.4425 0.86848 0.0
O2426 O 0.91687 0.43271 0.8515 0.0
O2427 O 0.92628 0.43902 0.84268 0.0
H2428 H 0.93748 0.42966 0.85854 0.0
H2429 H 0.9472 0.41768 0.86313 0.0
H2430 H 0.9534 0.43176 0.88677 0.0
H2431 H 0.94368 0.44378 0.88218 0.0
H2432 H 0.91773 0.48812 0.86161 0.0
H2433 H 0.9221 0.474 0.85523 0.0
H2434 H 0.89214 0.47772 0.86719 0.0
H2435 H 0.89639 0.46367 0.86076 0.0
H2436 H 0.89801 0.43261 0.82416 0.0
H2437 H 0.9157 0.41062 0.82382 0.0
H2438 H 0.92441 0.41741 0.83544 0.0
H2439 H 0.90675 0.43943 0.83595 0.0
C2440 C 0.83569 0.69133 0.11871 0.0
C2441 C 0.84439 0.68952 0.11633 0.0
C2442 C 0.84933 0.70259 0.12394 0.0
C2443 C 0.85116 0.69509 0.11896 0.0
C2444 C 0.84063 0.70448 0.12622 0.0
C2445 C 0.83386 0.69887 0.12364 0.0
U2446 U 0.82725 0.67378 0.10344 0.0
O2447 O 0.82013 0.66154 0.10583 0.0
O2448 O 0.81426 0.67164 0.09746 0.0
C2449 C 0.81318 0.66408 0.10143 0.0
C2450 C 0.82855 0.68541 0.11603 0.0
C2451 C 0.80458 0.66249 0.1056 0.0
C2452 C 0.79575 0.65871 0.11833 0.0
C2453 C 0.80375 0.66132 0.11469 0.0
C2454 C 0.78915 0.65882 0.10393 0.0
C2455 C 0.78844 0.65727 0.11295 0.0
C2456 C 0.79716 0.66138 0.10029 0.0
C2457 C 0.84417 0.6669 0.08563 0.0
C2458 C 0.84336 0.65462 0.07551 0.0
C2459 C 0.85617 0.66397 0.07564 0.0
C2460 C 0.85241 0.66904 0.08224 0.0
C2461 C 0.85175 0.65665 0.07232 0.0
C2462 C 0.8396 0.65971 0.08218 0.0
C2463 C 0.84086 0.67203 0.09307 0.0
O2464 O 0.82498 0.68715 0.1084 0.0
O2465 O 0.8301 0.67702 0.11716 0.0
O2466 O 0.83998 0.6678 0.10049 0.0
O2467 O 0.8344 0.67749 0.09148 0.0
H2468 H 0.84594 0.68378 0.11247 0.0
H2469 H 0.85783 0.69355 0.11713 0.0
H2470 H 0.83912 0.71025 0.13005 0.0
H2471 H 0.82719 0.7004 0.1255 0.0
H2472 H 0.79532 0.65757 0.12531 0.0
H2473 H 0.80934 0.66215 0.11896 0.0
H2474 H 0.78358 0.65776 0.09968 0.0
H2475 H 0.79764 0.66222 0.09326 0.0
H2476 H 0.83986 0.64899 0.07301 0.0
H2477 H 0.86263 0.66563 0.07326 0.0
H2478 H 0.85604 0.67456 0.08483 0.0
H2479 H 0.83323 0.65796 0.08475 0.0
C2480 C 0.58065 0.58481 0.3698 0.0
C2481 C 0.57584 0.58974 0.36376 0.0
C2482 C 0.56757 0.59686 0.37563 0.0
C2483 C 0.56956 0.59578 0.36662 0.0
C2484 C 0.57322 0.59251 0.38158 0.0
C2485 C 0.57944 0.58642 0.37872 0.0
U2486 U 0.59883 0.5776 0.35428 0.0
O2487 O 0.61153 0.57132 0.35693 0.0
O2488 O 0.60194 0.56476 0.34851 0.0
C2489 C 0.60948 0.56416 0.35262 0.0
C2490 C 0.58725 0.57832 0.36695 0.0
C2491 C 0.6116 0.55572 0.35696 0.0
C2492 C 0.60846 0.54036 0.36012 0.0
C2493 C 0.60595 0.54844 0.35655 0.0
C2494 C 0.62226 0.54667 0.36464 0.0
C2495 C 0.61665 0.53942 0.36418 0.0
C2496 C 0.61978 0.55471 0.36105 0.0
C2497 C 0.60472 0.59442 0.33613 0.0
C2498 C 0.61715 0.59388 0.3262 0.0
C2499 C 0.60743 0.60642 0.32609 0.0
C2500 C 0.60236 0.60256 0.33263 0.0
C2501 C 0.61494 0.6022 0.32294 0.0
C2502 C 0.61207 0.59002 0.33281 0.0
C2503 C 0.59968 0.59106 0.3436 0.0
O2504 O 0.58577 0.5744 0.35943 0.0
O2505 O 0.59545 0.5807 0.36796 0.0
O2506 O 0.6039 0.59065 0.35107 0.0
O2507 O 0.59465 0.58423 0.34217 0.0
H2508 H 0.577 0.58903 0.35681 0.0
H2509 H 0.56647 0.59972 0.36164 0.0
H2510 H 0.57322 0.59385 0.38849 0.0
H2511 H 0.58344 0.58306 0.38351 0.0
H2512 H 0.60406 0.53483 0.35968 0.0
H2513 H 0.59965 0.54894 0.35336 0.0
H2514 H 0.62862 0.54606 0.36771 0.0
H2515 H 0.62433 0.56014 0.36136 0.0
H2516 H 0.62293 0.59053 0.32383 0.0
H2517 H 0.60562 0.61283 0.32365 0.0
H2518 H 0.59672 0.60605 0.33512 0.0
H2519 H 0.61399 0.58373 0.33547 0.0
C2520 C 0.6871 0.33225 0.61876 0.0
C2521 C 0.67846 0.33367 0.61595 0.0
C2522 C 0.67355 0.32097 0.62417 0.0
C2523 C 0.67174 0.32809 0.61867 0.0
C2524 C 0.68221 0.31944 0.62685 0.0
C2525 C 0.68894 0.32507 0.62417 0.0
U2526 U 0.69523 0.34996 0.60355 0.0
O2527 O 0.70187 0.36246 0.60613 0.0
O2528 O 0.70817 0.35263 0.59776 0.0
C2529 C 0.70897 0.36017 0.60185 0.0
C2530 C 0.69413 0.33831 0.61613 0.0
C2531 C 0.71745 0.36208 0.60623 0.0
C2532 C 0.73289 0.35891 0.60891 0.0
C2533 C 0.72479 0.35657 0.60527 0.0
C2534 C 0.72648 0.37226 0.61455 0.0
C2535 C 0.73378 0.36679 0.61356 0.0
C2536 C 0.71842 0.36995 0.6109 0.0
C2537 C 0.67825 0.35641 0.58564 0.0
C2538 C 0.67863 0.36891 0.57579 0.0
C2539 C 0.66623 0.35903 0.57561 0.0
C2540 C 0.67015 0.35398 0.58212 0.0
C2541 C 0.67035 0.36662 0.5725 0.0
C2542 C 0.68255 0.36384 0.58238 0.0
C2543 C 0.68167 0.35132 0.59305 0.0
O2544 O 0.69781 0.33665 0.60853 0.0
O2545 O 0.69235 0.34665 0.61724 0.0
O2546 O 0.68233 0.35553 0.60052 0.0
O2547 O 0.68832 0.3461 0.59148 0.0
H2548 H 0.67691 0.33915 0.61172 0.0
H2549 H 0.6651 0.32936 0.61652 0.0
H2550 H 0.68372 0.31397 0.63109 0.0
H2551 H 0.69556 0.32385 0.62638 0.0
H2552 H 0.73847 0.35463 0.60804 0.0
H2553 H 0.72432 0.35052 0.6016 0.0
H2554 H 0.72705 0.37839 0.61808 0.0
H2555 H 0.71296 0.37441 0.61163 0.0
H2556 H 0.68191 0.37474 0.57346 0.0
H2557 H 0.65985 0.35716 0.57314 0.0
H2558 H 0.66673 0.34827 0.58457 0.0
H2559 H 0.68881 0.36582 0.58505 0.0
C2560 C 0.65321 0.94074 0.58513 0.0
C2561 C 0.65841 0.94165 0.59265 0.0
C2562 C 0.64761 0.95141 0.59909 0.0
C2563 C 0.65563 0.94697 0.59957 0.0
C2564 C 0.64245 0.95057 0.59154 0.0
C2565 C 0.64524 0.94526 0.5846 0.0
U2566 U 0.66887 0.92358 0.57668 0.0
O2567 O 0.66674 0.91125 0.56962 0.0
O2568 O 0.67483 0.92152 0.56367 0.0
C2569 C 0.67102 0.91388 0.56263 0.0
C2570 C 0.65596 0.93485 0.578 0.0
C2571 C 0.66679 0.91224 0.55407 0.0
C2572 C 0.65401 0.90839 0.54535 0.0
C2573 C 0.6577 0.91097 0.55334 0.0
C2574 C 0.66833 0.90871 0.53859 0.0
C2575 C 0.65932 0.90707 0.53797 0.0
C2576 C 0.67203 0.91124 0.54658 0.0
C2577 C 0.68689 0.9172 0.59358 0.0
C2578 C 0.69671 0.90466 0.59325 0.0
C2579 C 0.69709 0.91474 0.6055 0.0
C2580 C 0.69054 0.91976 0.60159 0.0
C2581 C 0.7001 0.90707 0.60146 0.0
C2582 C 0.69009 0.90969 0.58934 0.0
C2583 C 0.67935 0.92216 0.59025 0.0
O2584 O 0.6635 0.93675 0.57434 0.0
O2585 O 0.65509 0.92646 0.57969 0.0
O2586 O 0.67202 0.91776 0.58943 0.0
O2587 O 0.68079 0.92761 0.58376 0.0
H2588 H 0.66456 0.93818 0.59319 0.0
H2589 H 0.65968 0.94752 0.60536 0.0
H2590 H 0.63624 0.95395 0.59107 0.0
H2591 H 0.64113 0.94461 0.57886 0.0
H2592 H 0.64704 0.90718 0.54499 0.0
H2593 H 0.65349 0.91172 0.55898 0.0
H2594 H 0.67253 0.90775 0.53296 0.0
H2595 H 0.67905 0.91217 0.54699 0.0
H2596 H 0.69897 0.89876 0.59004 0.0
H2597 H 0.69963 0.9167 0.61182 0.0
H2598 H 0.68814 0.92552 0.60496 0.0
H2599 H 0.68731 0.90761 0.58316 0.0
C2600 C 0.15353 0.58123 0.43749 0.0
C2601 C 0.15842 0.58077 0.42972 0.0
C2602 C 0.1481 0.57028 0.42368 0.0
C2603 C 0.15573 0.57532 0.42287 0.0
C2604 C 0.14327 0.57066 0.43149 0.0
C2605 C 0.14597 0.57611 0.43835 0.0
U2606 U 0.16828 0.59939 0.44556 0.0
O2607 O 0.16548 0.61153 0.45273 0.0
O2608 O 0.17442 0.60183 0.45843 0.0
C2609 C 0.17013 0.6092 0.45958 0.0
C2610 C 0.15614 0.58727 0.44455 0.0
C2611 C 0.16608 0.61064 0.46828 0.0
C2612 C 0.15351 0.61445 0.47733 0.0
C2613 C 0.15701 0.61192 0.46924 0.0
C2614 C 0.16798 0.61406 0.48375 0.0
C2615 C 0.15899 0.61573 0.48459 0.0
C2616 C 0.17149 0.61157 0.47565 0.0
C2617 C 0.18533 0.60729 0.42824 0.0
C2618 C 0.1999 0.61372 0.42895 0.0
C2619 C 0.19127 0.61511 0.41573 0.0
C2620 C 0.18448 0.61045 0.41966 0.0
C2621 C 0.19906 0.61667 0.42028 0.0
C2622 C 0.19307 0.60904 0.43291 0.0
C2623 C 0.17825 0.60174 0.43175 0.0
O2624 O 0.16392 0.58586 0.44794 0.0
O2625 O 0.15464 0.59558 0.44294 0.0
O2626 O 0.17059 0.60551 0.43274 0.0
O2627 O 0.1802 0.59627 0.4381 0.0
H2628 H 0.16426 0.58471 0.42893 0.0
H2629 H 0.15952 0.57513 0.41689 0.0
H2630 H 0.13735 0.56683 0.43221 0.0
H2631 H 0.1421 0.57641 0.44428 0.0
H2632 H 0.14655 0.61569 0.47785 0.0
H2633 H 0.15266 0.61123 0.46369 0.0
H2634 H 0.17231 0.61499 0.48928 0.0
H2635 H 0.1785 0.61065 0.47508 0.0
H2636 H 0.20588 0.6149 0.43256 0.0
H2637 H 0.19051 0.61735 0.40905 0.0
H2638 H 0.1786 0.60915 0.41592 0.0
H2639 H 0.19389 0.60666 0.43954 0.0
C2640 C 0.69126 0.9035 0.68707 0.0
C2641 C 0.68944 0.90608 0.67843 0.0
C2642 C 0.70221 0.89816 0.67321 0.0
C2643 C 0.69486 0.90339 0.67156 0.0
C2644 C 0.70412 0.89567 0.68185 0.0
C2645 C 0.69866 0.89832 0.68874 0.0
U2646 U 0.67392 0.91889 0.69565 0.0
O2647 O 0.66174 0.91661 0.70291 0.0
O2648 O 0.67193 0.92497 0.70862 0.0
C2649 C 0.66436 0.92106 0.7098 0.0
C2650 C 0.68547 0.90623 0.6943 0.0
C2651 C 0.66282 0.91697 0.71845 0.0
C2652 C 0.65884 0.90438 0.72739 0.0
C2653 C 0.66144 0.9079 0.71934 0.0
C2654 C 0.65936 0.91881 0.73392 0.0
C2655 C 0.65759 0.90983 0.73469 0.0
C2656 C 0.66191 0.92235 0.72586 0.0
C2657 C 0.66691 0.93655 0.67864 0.0
C2658 C 0.65439 0.94637 0.67924 0.0
C2659 C 0.66401 0.94653 0.66663 0.0
C2660 C 0.66917 0.94005 0.67047 0.0
C2661 C 0.6565 0.94963 0.6709 0.0
C2662 C 0.65956 0.93982 0.68308 0.0
C2663 C 0.67207 0.92914 0.68197 0.0
O2664 O 0.68729 0.91388 0.6978 0.0
O2665 O 0.67706 0.90512 0.69288 0.0
O2666 O 0.66784 0.92173 0.68295 0.0
O2667 O 0.67759 0.93079 0.68836 0.0
H2668 H 0.68381 0.91014 0.677 0.0
H2669 H 0.69331 0.90539 0.66493 0.0
H2670 H 0.70978 0.89164 0.68324 0.0
H2671 H 0.70019 0.89629 0.69535 0.0
H2672 H 0.65753 0.89742 0.72786 0.0
H2673 H 0.66211 0.90358 0.71376 0.0
H2674 H 0.65845 0.92311 0.73948 0.0
H2675 H 0.66291 0.92935 0.72533 0.0
H2676 H 0.64862 0.9487 0.68262 0.0
H2677 H 0.66574 0.94897 0.6602 0.0
H2678 H 0.67481 0.9376 0.66695 0.0
H2679 H 0.65772 0.93717 0.68939 0.0
C2680 C 0.36886 0.441 0.93724 0.0
C2681 C 0.36641 0.43928 0.92855 0.0
C2682 C 0.37422 0.45223 0.92362 0.0
C2683 C 0.36911 0.44483 0.92179 0.0
C2684 C 0.37656 0.45404 0.93232 0.0
C2685 C 0.37391 0.44844 0.93909 0.0
U2686 U 0.35344 0.42355 0.94555 0.0
O2687 O 0.35571 0.41126 0.95262 0.0
O2688 O 0.34738 0.42139 0.95849 0.0
C2689 C 0.3513 0.4138 0.95956 0.0
C2690 C 0.36611 0.43509 0.94436 0.0
C2691 C 0.35544 0.41216 0.96818 0.0
C2692 C 0.36805 0.40805 0.97701 0.0
C2693 C 0.36449 0.4107 0.96899 0.0
C2694 C 0.35369 0.40869 0.98365 0.0
C2695 C 0.36266 0.40684 0.98434 0.0
C2696 C 0.35011 0.41129 0.97562 0.0
C2697 C 0.33573 0.41685 0.92847 0.0
C2698 C 0.32562 0.40457 0.92914 0.0
C2699 C 0.32582 0.41401 0.91639 0.0
C2700 C 0.33238 0.41906 0.92023 0.0
C2701 C 0.32249 0.40666 0.92074 0.0
C2702 C 0.33225 0.40963 0.93298 0.0
C2703 C 0.34316 0.42193 0.93186 0.0
O2704 O 0.35847 0.43688 0.94789 0.0
O2705 O 0.3672 0.4267 0.94279 0.0
O2706 O 0.35055 0.41765 0.93276 0.0
O2707 O 0.34155 0.42736 0.93833 0.0
H2708 H 0.36245 0.43361 0.92698 0.0
H2709 H 0.36722 0.44335 0.91512 0.0
H2710 H 0.38049 0.45974 0.93384 0.0
H2711 H 0.37583 0.44991 0.94575 0.0
H2712 H 0.375 0.40668 0.97742 0.0
H2713 H 0.36877 0.41135 0.96338 0.0
H2714 H 0.34942 0.40781 0.98924 0.0
H2715 H 0.34312 0.41235 0.97515 0.0
H2716 H 0.3231 0.39892 0.93258 0.0
H2717 H 0.32349 0.41572 0.90992 0.0
H2718 H 0.335 0.42459 0.91666 0.0
H2719 H 0.33478 0.40783 0.93935 0.0
C2720 C 0.33296 0.62024 0.68738 0.0
C2721 C 0.33463 0.61783 0.67866 0.0
C2722 C 0.32141 0.62528 0.6739 0.0
C2723 C 0.32892 0.62037 0.67197 0.0
C2724 C 0.31965 0.62759 0.68262 0.0
C2725 C 0.3254 0.62509 0.68932 0.0
U2726 U 0.35105 0.6054 0.69534 0.0
O2727 O 0.36331 0.60818 0.70241 0.0
O2728 O 0.35366 0.5992 0.70807 0.0
C2729 C 0.36107 0.60341 0.70921 0.0
C2730 C 0.33906 0.61767 0.69441 0.0
C2731 C 0.36244 0.60747 0.71787 0.0
C2732 C 0.35729 0.61591 0.73037 0.0
C2733 C 0.35582 0.61228 0.72207 0.0
C2734 C 0.37203 0.61006 0.73033 0.0
C2735 C 0.36541 0.61482 0.73455 0.0
C2736 C 0.37054 0.60642 0.72206 0.0
C2737 C 0.35792 0.5879 0.67806 0.0
C2738 C 0.37009 0.57764 0.67869 0.0
C2739 C 0.36064 0.57798 0.66596 0.0
C2740 C 0.35568 0.58461 0.66981 0.0
C2741 C 0.36794 0.57452 0.6703 0.0
C2742 C 0.36511 0.58434 0.68255 0.0
C2743 C 0.35278 0.59524 0.68156 0.0
O2744 O 0.33761 0.60996 0.69794 0.0
O2745 O 0.34737 0.61907 0.69273 0.0
O2746 O 0.35693 0.60272 0.68249 0.0
O2747 O 0.34745 0.59349 0.68807 0.0
H2748 H 0.34038 0.61402 0.67702 0.0
H2749 H 0.33037 0.61851 0.66529 0.0
H2750 H 0.31387 0.63137 0.68422 0.0
H2751 H 0.32398 0.62698 0.696 0.0
H2752 H 0.35212 0.61958 0.73353 0.0
H2753 H 0.34952 0.6132 0.71895 0.0
H2754 H 0.37832 0.60916 0.73345 0.0
H2755 H 0.37574 0.60273 0.71892 0.0
H2756 H 0.37571 0.57503 0.68213 0.0
H2757 H 0.35889 0.57566 0.65949 0.0
H2758 H 0.35016 0.58728 0.66626 0.0
H2759 H 0.36693 0.58681 0.68894 0.0
C2760 C 0.86841 0.08183 0.08504 0.0
C2761 C 0.86385 0.08158 0.09301 0.0
C2762 C 0.87412 0.07082 0.09868 0.0
C2763 C 0.86668 0.0761 0.09978 0.0
C2764 C 0.87861 0.07099 0.09067 0.0
C2765 C 0.87577 0.07647 0.08389 0.0
U2766 U 0.85335 0.09986 0.07727 0.0
O2767 O 0.85592 0.11209 0.07018 0.0
O2768 O 0.84707 0.10232 0.06448 0.0
C2769 C 0.85126 0.10975 0.06334 0.0
C2770 C 0.86565 0.08788 0.07805 0.0
C2771 C 0.85527 0.11124 0.05464 0.0
C2772 C 0.86786 0.11491 0.04558 0.0
C2773 C 0.86435 0.11236 0.05365 0.0
C2774 C 0.85335 0.11483 0.03922 0.0
C2775 C 0.86236 0.11636 0.03836 0.0
C2776 C 0.84984 0.11234 0.04731 0.0
C2777 C 0.83639 0.10746 0.09481 0.0
C2778 C 0.82185 0.114 0.09413 0.0
C2779 C 0.83038 0.11502 0.10745 0.0
C2780 C 0.83718 0.11041 0.10346 0.0
C2781 C 0.82264 0.11675 0.10287 0.0
C2782 C 0.8287 0.10936 0.09011 0.0
C2783 C 0.84349 0.102 0.0912 0.0
O2784 O 0.85785 0.0864 0.07474 0.0
O2785 O 0.86706 0.0962 0.0797 0.0
O2786 O 0.85109 0.10587 0.09016 0.0
O2787 O 0.84154 0.09656 0.08482 0.0
H2788 H 0.85816 0.08569 0.09403 0.0
H2789 H 0.86315 0.07607 0.10593 0.0
H2790 H 0.88437 0.06697 0.08972 0.0
H2791 H 0.87938 0.0766 0.07779 0.0
H2792 H 0.87483 0.11602 0.04503 0.0
H2793 H 0.86872 0.11153 0.05917 0.0
H2794 H 0.84901 0.11589 0.03372 0.0
H2795 H 0.84282 0.11153 0.04792 0.0
H2796 H 0.81591 0.11531 0.0905 0.0
H2797 H 0.8311 0.11711 0.11419 0.0
H2798 H 0.84302 0.10899 0.10721 0.0
H2799 H 0.82792 0.10716 0.08342 0.0
C2800 C 0.69109 0.11934 0.83603 0.0
C2801 C 0.68926 0.11709 0.84476 0.0
C2802 C 0.70244 0.12454 0.84961 0.0
C2803 C 0.69487 0.11971 0.8515 0.0
C2804 C 0.70438 0.12664 0.84088 0.0
C2805 C 0.69873 0.12408 0.83413 0.0
U2806 U 0.67276 0.10486 0.82786 0.0
O2807 O 0.66052 0.10798 0.821 0.0
O2808 O 0.66998 0.09902 0.81496 0.0
C2809 C 0.66265 0.10343 0.81401 0.0
C2810 C 0.68502 0.11684 0.82895 0.0
C2811 C 0.66095 0.10768 0.80542 0.0
C2812 C 0.66413 0.10968 0.78988 0.0
C2813 C 0.66636 0.10622 0.79809 0.0
C2814 C 0.65109 0.11614 0.79615 0.0
C2815 C 0.65645 0.11464 0.78886 0.0
C2816 C 0.6533 0.11268 0.80433 0.0
C2817 C 0.66487 0.0876 0.84497 0.0
C2818 C 0.65846 0.07301 0.84415 0.0
C2819 C 0.65702 0.08158 0.85742 0.0
C2820 C 0.66168 0.0884 0.85354 0.0
C2821 C 0.65548 0.0738 0.85281 0.0
C2822 C 0.66315 0.07988 0.84024 0.0
C2823 C 0.67047 0.09468 0.84152 0.0
O2824 O 0.68635 0.10909 0.82546 0.0
O2825 O 0.67672 0.11842 0.83055 0.0
O2826 O 0.6668 0.10241 0.84074 0.0
O2827 O 0.67583 0.09276 0.83506 0.0
H2828 H 0.68343 0.11339 0.84636 0.0
H2829 H 0.69328 0.11802 0.85819 0.0
H2830 H 0.71021 0.13036 0.83932 0.0
H2831 H 0.70027 0.12584 0.82745 0.0
H2832 H 0.66832 0.10842 0.7843 0.0
H2833 H 0.67223 0.1023 0.79865 0.0
H2834 H 0.64513 0.11991 0.79549 0.0
H2835 H 0.64891 0.1138 0.80978 0.0
H2836 H 0.6573 0.06705 0.8405 0.0
H2837 H 0.65476 0.0823 0.8641 0.0
H2838 H 0.66296 0.09426 0.85732 0.0
H2839 H 0.66555 0.07908 0.83362 0.0
C2840 C 0.83143 0.9026 0.3351 0.0
C2841 C 0.82664 0.90874 0.33994 0.0
C2842 C 0.81815 0.89702 0.34703 0.0
C2843 C 0.82026 0.90599 0.34592 0.0
C2844 C 0.82378 0.89097 0.34278 0.0
C2845 C 0.8301 0.8937 0.33675 0.0
U2846 U 0.85017 0.91753 0.32804 0.0
O2847 O 0.86277 0.91442 0.32175 0.0
O2848 O 0.85351 0.92327 0.31525 0.0
C2849 C 0.86092 0.91892 0.31465 0.0
C2850 C 0.83813 0.9053 0.32865 0.0
C2851 C 0.86298 0.91463 0.30618 0.0
C2852 C 0.85945 0.91092 0.29104 0.0
C2853 C 0.857 0.91444 0.29916 0.0
C2854 C 0.87383 0.90764 0.2968 0.0
C2855 C 0.8679 0.90751 0.2898 0.0
C2856 C 0.8714 0.91118 0.30488 0.0
C2857 C 0.85699 0.93531 0.345 0.0
C2858 C 0.86366 0.94974 0.34381 0.0
C2859 C 0.8644 0.94177 0.35749 0.0
C2860 C 0.85977 0.93486 0.35373 0.0
C2861 C 0.8663 0.94929 0.35261 0.0
C2862 C 0.85902 0.94278 0.34002 0.0
C2863 C 0.8516 0.92806 0.34156 0.0
O2864 O 0.83692 0.91292 0.32482 0.0
O2865 O 0.84629 0.90396 0.331 0.0
O2866 O 0.85543 0.92037 0.34113 0.0
O2867 O 0.8465 0.9297 0.33483 0.0
H2868 H 0.8279 0.91567 0.33919 0.0
H2869 H 0.81719 0.91104 0.34979 0.0
H2870 H 0.82367 0.88407 0.34417 0.0
H2871 H 0.83407 0.88883 0.33346 0.0
H2872 H 0.85479 0.91089 0.2857 0.0
H2873 H 0.85048 0.91711 0.29991 0.0
H2874 H 0.88038 0.90507 0.29597 0.0
H2875 H 0.87618 0.91133 0.31012 0.0
H2876 H 0.8651 0.95551 0.33995 0.0
H2877 H 0.86639 0.94131 0.36428 0.0
H2878 H 0.85825 0.92919 0.3577 0.0
H2879 H 0.85695 0.94329 0.33327 0.0
C2880 C 0.43718 0.36941 0.08395 0.0
C2881 C 0.42915 0.36495 0.08401 0.0
C2882 C 0.42372 0.37428 0.07232 0.0
C2883 C 0.42247 0.36737 0.07824 0.0
C2884 C 0.43175 0.37874 0.07225 0.0
C2885 C 0.43845 0.37632 0.07804 0.0
U2886 U 0.44488 0.35446 0.10196 0.0
O2887 O 0.45743 0.34779 0.10435 0.0
O2888 O 0.4522 0.35694 0.1141 0.0
C2889 C 0.45881 0.35195 0.11175 0.0
C2890 C 0.44419 0.36681 0.09004 0.0
C2891 C 0.46759 0.35577 0.11288 0.0
C2892 C 0.47846 0.36697 0.10976 0.0
C2893 C 0.47008 0.36346 0.10852 0.0
C2894 C 0.48195 0.35514 0.11972 0.0
C2895 C 0.48446 0.36282 0.11536 0.0
C2896 C 0.47358 0.35164 0.11848 0.0
C2897 C 0.42714 0.33736 0.10876 0.0
C2898 C 0.42847 0.32408 0.11747 0.0
C2899 C 0.41415 0.32933 0.1131 0.0
C2900 C 0.41803 0.3364 0.10883 0.0
C2901 C 0.41932 0.3231 0.1174 0.0
C2902 C 0.43237 0.33119 0.11315 0.0
C2903 C 0.43085 0.34468 0.10374 0.0
O2904 O 0.44247 0.3682 0.09835 0.0
O2905 O 0.4476 0.35905 0.08858 0.0
O2906 O 0.43724 0.34282 0.09829 0.0
O2907 O 0.43201 0.35207 0.10798 0.0
H2908 H 0.42805 0.3596 0.08852 0.0
H2909 H 0.41633 0.36384 0.07837 0.0
H2910 H 0.43283 0.38407 0.0677 0.0
H2911 H 0.4446 0.37983 0.0779 0.0
H2912 H 0.48028 0.3729 0.10635 0.0
H2913 H 0.46554 0.36674 0.10417 0.0
H2914 H 0.48649 0.35185 0.12406 0.0
H2915 H 0.47178 0.3457 0.12191 0.0
H2916 H 0.43254 0.31931 0.12075 0.0
H2917 H 0.4071 0.32867 0.11298 0.0
H2918 H 0.41389 0.34107 0.10546 0.0
H2919 H 0.43942 0.33183 0.11315 0.0
C2920 C 0.40376 0.68794 0.83294 0.0
C2921 C 0.40862 0.68015 0.83239 0.0
C2922 C 0.39834 0.67431 0.82174 0.0
C2923 C 0.40593 0.67339 0.82682 0.0
C2924 C 0.39353 0.68213 0.82223 0.0
C2925 C 0.39623 0.6889 0.8278 0.0
U2926 U 0.41856 0.6958 0.85116 0.0
O2927 O 0.42504 0.70846 0.85353 0.0
O2928 O 0.41579 0.70324 0.86317 0.0
C2929 C 0.42078 0.70986 0.86086 0.0
C2930 C 0.40641 0.69493 0.83904 0.0
C2931 C 0.41693 0.71865 0.86195 0.0
C2932 C 0.4057 0.72949 0.8588 0.0
C2933 C 0.40927 0.72112 0.85753 0.0
C2934 C 0.41742 0.73298 0.86889 0.0
C2935 C 0.40976 0.73547 0.86448 0.0
C2936 C 0.42097 0.72463 0.86762 0.0
C2937 C 0.43574 0.67845 0.85881 0.0
C2938 C 0.45098 0.67854 0.86349 0.0
C2939 C 0.4418 0.66603 0.86671 0.0
C2940 C 0.43474 0.67017 0.86265 0.0
C2941 C 0.45002 0.67009 0.86698 0.0
C2942 C 0.44389 0.6827 0.85941 0.0
C2943 C 0.42847 0.68193 0.85346 0.0
O2944 O 0.40491 0.69328 0.84734 0.0
O2945 O 0.41421 0.69828 0.83765 0.0
O2946 O 0.4303 0.68817 0.84783 0.0
O2947 O 0.42092 0.68303 0.85743 0.0
H2948 H 0.41444 0.67927 0.83634 0.0
H2949 H 0.40971 0.66739 0.82655 0.0
H2950 H 0.38764 0.68294 0.81837 0.0
H2951 H 0.39239 0.69485 0.82815 0.0
H2952 H 0.39979 0.73131 0.85534 0.0
H2953 H 0.40605 0.71659 0.85313 0.0
H2954 H 0.42063 0.7375 0.8733 0.0
H2955 H 0.42688 0.72283 0.8711 0.0
H2956 H 0.45729 0.68176 0.86365 0.0
H2957 H 0.44094 0.65951 0.86936 0.0
H2958 H 0.42855 0.66673 0.86222 0.0
H2959 H 0.44486 0.68908 0.8565 0.0
C2960 C 0.08487 0.6526 0.58475 0.0
C2961 C 0.09286 0.65714 0.58477 0.0
C2962 C 0.09839 0.64778 0.57315 0.0
C2963 C 0.09956 0.65475 0.57902 0.0
C2964 C 0.09041 0.64322 0.57312 0.0
C2965 C 0.08369 0.64562 0.57889 0.0
U2966 U 0.07697 0.66756 0.60271 0.0
O2967 O 0.06436 0.67416 0.605 0.0
O2968 O 0.06956 0.66505 0.61479 0.0
C2969 C 0.06295 0.67001 0.6124 0.0
C2970 C 0.07782 0.65518 0.59081 0.0
C2971 C 0.05416 0.66619 0.6135 0.0
C2972 C 0.04336 0.65489 0.61051 0.0
C2973 C 0.05175 0.65839 0.60929 0.0
C2974 C 0.03971 0.66694 0.62015 0.0
C2975 C 0.03728 0.65915 0.61595 0.0
C2976 C 0.04808 0.67043 0.61893 0.0
C2977 C 0.09464 0.68477 0.60955 0.0
C2978 C 0.09332 0.69843 0.61767 0.0
C2979 C 0.10765 0.69267 0.61407 0.0
C2980 C 0.10376 0.68552 0.60995 0.0
C2981 C 0.10248 0.69921 0.61789 0.0
C2982 C 0.0894 0.69123 0.6135 0.0
C2983 C 0.09094 0.67741 0.60456 0.0
O2984 O 0.0795 0.65382 0.59913 0.0
O2985 O 0.07438 0.66292 0.58931 0.0
O2986 O 0.08457 0.67922 0.59907 0.0
O2987 O 0.08979 0.67004 0.60883 0.0
H2988 H 0.09389 0.66255 0.58924 0.0
H2989 H 0.10566 0.65835 0.57912 0.0
H2990 H 0.08938 0.63785 0.56861 0.0
H2991 H 0.07757 0.64205 0.57878 0.0
H2992 H 0.04159 0.64887 0.60721 0.0
H2993 H 0.05634 0.65502 0.60507 0.0
H2994 H 0.03511 0.67032 0.62437 0.0
H2995 H 0.04983 0.67645 0.62224 0.0
H2996 H 0.08924 0.70344 0.62059 0.0
H2997 H 0.11472 0.69316 0.61418 0.0
H2998 H 0.1079 0.68062 0.60691 0.0
H2999 H 0.08234 0.69078 0.61325 0.0
C3000 C 0.11954 0.33529 0.33304 0.0
C3001 C 0.11468 0.34308 0.33244 0.0
C3002 C 0.12487 0.34877 0.32164 0.0
C3003 C 0.11732 0.34976 0.32677 0.0
C3004 C 0.12968 0.34095 0.32216 0.0
C3005 C 0.12702 0.33425 0.32784 0.0
U3006 U 0.10504 0.32811 0.35168 0.0
O3007 O 0.09838 0.31569 0.35458 0.0
O3008 O 0.10795 0.32099 0.36388 0.0
C3009 C 0.10286 0.31437 0.36182 0.0
C3010 C 0.11697 0.32844 0.33932 0.0
C3011 C 0.10667 0.30556 0.36301 0.0
C3012 C 0.11342 0.29231 0.35727 0.0
C3013 C 0.11007 0.30075 0.35595 0.0
C3014 C 0.11013 0.29341 0.37274 0.0
C3015 C 0.11346 0.28858 0.36568 0.0
C3016 C 0.10675 0.30183 0.37141 0.0
C3017 C 0.08844 0.3463 0.35875 0.0
C3018 C 0.07521 0.34543 0.36758 0.0
C3019 C 0.08074 0.35955 0.36295 0.0
C3020 C 0.0877 0.35544 0.35871 0.0
C3021 C 0.0744 0.3546 0.36733 0.0
C3022 C 0.0822 0.34129 0.36329 0.0
C3023 C 0.09553 0.34233 0.35358 0.0
O3024 O 0.11866 0.33026 0.34755 0.0
O3025 O 0.1091 0.32515 0.33818 0.0
O3026 O 0.09338 0.33586 0.34833 0.0
O3027 O 0.10304 0.34112 0.35758 0.0
H3028 H 0.1089 0.34402 0.33644 0.0
H3029 H 0.11355 0.35576 0.32647 0.0
H3030 H 0.13554 0.34009 0.31827 0.0
H3031 H 0.13087 0.32831 0.32824 0.0
H3032 H 0.116 0.28868 0.35176 0.0
H3033 H 0.11011 0.3035 0.34942 0.0
H3034 H 0.11013 0.29065 0.37926 0.0
H3035 H 0.10415 0.30542 0.37694 0.0
H3036 H 0.07035 0.34151 0.37093 0.0
H3037 H 0.08021 0.36662 0.36269 0.0
H3038 H 0.09243 0.35941 0.35522 0.0
H3039 H 0.08267 0.33421 0.36338 0.0
C3040 C 0.43701 0.65316 0.43792 0.0
C3041 C 0.42895 0.65758 0.43778 0.0
C3042 C 0.42349 0.64829 0.44948 0.0
C3043 C 0.42225 0.65517 0.44352 0.0
C3044 C 0.43154 0.64386 0.44963 0.0
C3045 C 0.43826 0.64627 0.44387 0.0
U3046 U 0.44473 0.66811 0.41995 0.0
O3047 O 0.45724 0.67487 0.41763 0.0
O3048 O 0.45217 0.66566 0.40786 0.0
C3049 C 0.45871 0.67072 0.41024 0.0
C3050 C 0.44405 0.65577 0.43188 0.0
C3051 C 0.46754 0.667 0.40915 0.0
C3052 C 0.47872 0.65625 0.41275 0.0
C3053 C 0.47027 0.65964 0.41392 0.0
C3054 C 0.48178 0.66753 0.40205 0.0
C3055 C 0.48453 0.66019 0.40682 0.0
C3056 C 0.47335 0.67091 0.40322 0.0
C3057 C 0.42688 0.6851 0.41307 0.0
C3058 C 0.42811 0.69856 0.40464 0.0
C3059 C 0.41382 0.693 0.40868 0.0
C3060 C 0.41775 0.68591 0.41287 0.0
C3061 C 0.41895 0.6994 0.4046 0.0
C3062 C 0.43207 0.69142 0.40887 0.0
C3063 C 0.43064 0.67779 0.41809 0.0
O3064 O 0.44241 0.65436 0.42356 0.0
O3065 O 0.44741 0.66355 0.43335 0.0
O3066 O 0.43698 0.67968 0.42358 0.0
O3067 O 0.43189 0.67042 0.41383 0.0
H3068 H 0.42786 0.66291 0.43324 0.0
H3069 H 0.41609 0.65867 0.44333 0.0
H3070 H 0.43261 0.63856 0.45421 0.0
H3071 H 0.44443 0.6428 0.44408 0.0
H3072 H 0.48073 0.65057 0.41649 0.0
H3073 H 0.46588 0.65653 0.41853 0.0
H3074 H 0.48617 0.67065 0.39745 0.0
H3075 H 0.47136 0.6766 0.39948 0.0
H3076 H 0.43215 0.70347 0.40152 0.0
H3077 H 0.40676 0.69355 0.40872 0.0
H3078 H 0.41365 0.68111 0.41609 0.0
H3079 H 0.43913 0.6909 0.40898 0.0
C3080 C 0.11808 0.68769 0.19001 0.0
C3081 C 0.12225 0.68975 0.19793 0.0
C3082 C 0.12338 0.67427 0.20152 0.0
C3083 C 0.12486 0.68308 0.20367 0.0
C3084 C 0.11916 0.67221 0.19363 0.0
C3085 C 0.11649 0.67887 0.18794 0.0
U3086 U 0.10326 0.69542 0.17178 0.0
O3087 O 0.09659 0.70799 0.16939 0.0
O3088 O 0.10592 0.70286 0.15976 0.0
C3089 C 0.10086 0.70943 0.16207 0.0
C3090 C 0.11534 0.69472 0.18398 0.0
C3091 C 0.10465 0.71825 0.16102 0.0
C3092 C 0.11603 0.729 0.16391 0.0
C3093 C 0.11247 0.72064 0.1652 0.0
C3094 C 0.10396 0.73267 0.1543 0.0
C3095 C 0.1118 0.73507 0.15845 0.0
C3096 C 0.10042 0.72433 0.15559 0.0
C3097 C 0.08654 0.67758 0.16434 0.0
C3098 C 0.07325 0.6789 0.15564 0.0
C3099 C 0.07879 0.66456 0.15959 0.0
C3100 C 0.08577 0.66845 0.16398 0.0
C3101 C 0.07245 0.66973 0.15546 0.0
C3102 C 0.08028 0.68282 0.16008 0.0
C3103 C 0.0937 0.6813 0.16958 0.0
O3104 O 0.11695 0.69326 0.17565 0.0
O3105 O 0.10747 0.69791 0.18536 0.0
O3106 O 0.09165 0.6876 0.17506 0.0
O3107 O 0.10118 0.68258 0.16554 0.0
H3108 H 0.12349 0.69651 0.19967 0.0
H3109 H 0.1281 0.68478 0.20973 0.0
H3110 H 0.11794 0.66545 0.19189 0.0
H3111 H 0.1132 0.67713 0.18191 0.0
H3112 H 0.12208 0.73074 0.16716 0.0
H3113 H 0.11583 0.71603 0.16941 0.0
H3114 H 0.10062 0.73727 0.15007 0.0
H3115 H 0.09439 0.7226 0.1523 0.0
H3116 H 0.0684 0.68298 0.15249 0.0
H3117 H 0.07826 0.65749 0.15951 0.0
H3118 H 0.09052 0.66431 0.16724 0.0
H3119 H 0.08076 0.68989 0.1603 0.0
C3120 C 0.08465 0.37026 0.938 0.0
C3121 C 0.09269 0.36579 0.93803 0.0
C3122 C 0.098 0.37514 0.94975 0.0
C3123 C 0.0993 0.36821 0.94386 0.0
C3124 C 0.08998 0.37963 0.94972 0.0
C3125 C 0.08334 0.37721 0.94387 0.0
U3126 U 0.07707 0.3552 0.92001 0.0
O3127 O 0.06454 0.3485 0.91763 0.0
O3128 O 0.06974 0.35762 0.90785 0.0
C3129 C 0.06315 0.35263 0.91021 0.0
C3130 C 0.07769 0.36762 0.93188 0.0
C3131 C 0.05435 0.35642 0.90908 0.0
C3132 C 0.04334 0.36742 0.91244 0.0
C3133 C 0.05175 0.36395 0.91366 0.0
C3134 C 0.04006 0.35586 0.90208 0.0
C3135 C 0.03743 0.36338 0.90666 0.0
C3136 C 0.04846 0.35241 0.90329 0.0
C3137 C 0.0949 0.33807 0.9134 0.0
C3138 C 0.09368 0.32479 0.90468 0.0
C3139 C 0.10792 0.32992 0.9094 0.0
C3140 C 0.104 0.33703 0.91356 0.0
C3141 C 0.10281 0.32372 0.90498 0.0
C3142 C 0.08973 0.33195 0.90889 0.0
C3143 C 0.09113 0.34544 0.91834 0.0
O3144 O 0.07944 0.36896 0.92357 0.0
O3145 O 0.07429 0.35987 0.93336 0.0
O3146 O 0.08472 0.34361 0.92377 0.0
O3147 O 0.08995 0.35278 0.91402 0.0
H3148 H 0.09382 0.36041 0.93355 0.0
H3149 H 0.10544 0.36466 0.94381 0.0
H3150 H 0.08885 0.38498 0.95424 0.0
H3151 H 0.07719 0.38072 0.94394 0.0
H3152 H 0.04141 0.37322 0.91603 0.0
H3153 H 0.0562 0.36713 0.91815 0.0
H3154 H 0.03561 0.35267 0.8976 0.0
H3155 H 0.05036 0.3466 0.8997 0.0
H3156 H 0.08965 0.32005 0.9013 0.0
H3157 H 0.11497 0.32919 0.90969 0.0
H3158 H 0.10809 0.34167 0.91703 0.0
H3159 H 0.08268 0.33265 0.90872 0.0
C3160 C 0.4021 0.33515 0.68787 0.0
C3161 C 0.40657 0.34317 0.68774 0.0
C3162 C 0.39746 0.34861 0.6996 0.0
C3163 C 0.40427 0.34985 0.69357 0.0
C3164 C 0.39297 0.34059 0.69972 0.0
C3165 C 0.39527 0.3339 0.69388 0.0
U3166 U 0.41692 0.32738 0.66979 0.0
O3167 O 0.42355 0.3148 0.66739 0.0
O3168 O 0.41438 0.32002 0.65767 0.0
C3169 C 0.41937 0.31341 0.66001 0.0
C3170 C 0.40462 0.32812 0.68176 0.0
C3171 C 0.41554 0.30462 0.65892 0.0
C3172 C 0.40445 0.29371 0.66223 0.0
C3173 C 0.40794 0.30211 0.66342 0.0
C3174 C 0.41611 0.29025 0.65206 0.0
C3175 C 0.40852 0.28772 0.65656 0.0
C3176 C 0.41959 0.29864 0.65324 0.0
C3177 C 0.43409 0.34504 0.66297 0.0
C3178 C 0.44749 0.34363 0.65447 0.0
C3179 C 0.44223 0.35799 0.65872 0.0
C3180 C 0.43508 0.35416 0.66288 0.0
C3181 C 0.44852 0.35278 0.65455 0.0
C3182 C 0.44029 0.33977 0.65868 0.0
C3183 C 0.42674 0.34137 0.66798 0.0
O3184 O 0.40321 0.32985 0.67345 0.0
O3185 O 0.41236 0.32466 0.68318 0.0
O3186 O 0.42856 0.33498 0.67344 0.0
O3187 O 0.41936 0.34023 0.66373 0.0
H3188 H 0.41186 0.34426 0.68315 0.0
H3189 H 0.40782 0.35598 0.69339 0.0
H3190 H 0.38772 0.33952 0.70436 0.0
H3191 H 0.39176 0.32775 0.69407 0.0
H3192 H 0.39859 0.29186 0.66576 0.0
H3193 H 0.40473 0.30663 0.66783 0.0
H3194 H 0.41934 0.28573 0.64766 0.0
H3195 H 0.42546 0.30047 0.64971 0.0
H3196 H 0.4523 0.33952 0.65129 0.0
H3197 H 0.44293 0.36505 0.65884 0.0
H3198 H 0.43037 0.35832 0.66617 0.0
H3199 H 0.43963 0.33271 0.6587 0.0
C3200 C 0.0828 0.43806 0.36873 0.0
C3201 C 0.07877 0.43272 0.36248 0.0
C3202 C 0.06919 0.42624 0.37368 0.0
C3203 C 0.07223 0.4268 0.36493 0.0
C3204 C 0.07412 0.43093 0.38 0.0
C3205 C 0.08061 0.43691 0.37754 0.0
U3206 U 0.10156 0.44501 0.35398 0.0
O3207 O 0.10458 0.4576 0.34766 0.0
O3208 O 0.11394 0.4518 0.35686 0.0
C3209 C 0.11195 0.4586 0.35198 0.0
C3210 C 0.08951 0.44455 0.3662 0.0
C3211 C 0.11331 0.46728 0.35598 0.0
C3212 C 0.10999 0.47826 0.36703 0.0
C3213 C 0.10866 0.46991 0.36346 0.0
C3214 C 0.12064 0.48142 0.35572 0.0
C3215 C 0.11597 0.48408 0.36317 0.0
C3216 C 0.11931 0.47308 0.35216 0.0
C3217 C 0.10794 0.4277 0.33638 0.0
C3218 C 0.11972 0.42854 0.3257 0.0
C3219 C 0.1109 0.4154 0.32677 0.0
C3220 C 0.10598 0.41924 0.33344 0.0
C3221 C 0.11786 0.41996 0.32292 0.0
C3222 C 0.11479 0.43239 0.33244 0.0
C3223 C 0.10285 0.43124 0.34374 0.0
O3224 O 0.09766 0.44221 0.36759 0.0
O3225 O 0.08835 0.44835 0.35857 0.0
O3226 O 0.09769 0.43791 0.34205 0.0
O3227 O 0.10702 0.43198 0.35122 0.0
H3228 H 0.08071 0.43307 0.35567 0.0
H3229 H 0.06969 0.4226 0.35985 0.0
H3230 H 0.07332 0.42998 0.38692 0.0
H3231 H 0.08401 0.44059 0.38256 0.0
H3232 H 0.10633 0.48021 0.37278 0.0
H3233 H 0.10398 0.46553 0.36648 0.0
H3234 H 0.12528 0.48581 0.35266 0.0
H3235 H 0.12296 0.47117 0.34638 0.0
H3236 H 0.12507 0.43215 0.32279 0.0
H3237 H 0.10937 0.40879 0.32471 0.0
H3238 H 0.10072 0.41553 0.3364 0.0
H3239 H 0.11638 0.43894 0.33464 0.0
C3240 C 0.33515 0.33517 0.12034 0.0
C3241 C 0.34306 0.33508 0.11565 0.0
C3242 C 0.34862 0.32346 0.125 0.0
C3243 C 0.34974 0.32926 0.11797 0.0
C3244 C 0.34072 0.32355 0.12969 0.0
C3245 C 0.33403 0.32938 0.12737 0.0
U3246 U 0.32699 0.35337 0.1057 0.0
O3247 O 0.31424 0.35578 0.09948 0.0
O3248 O 0.31963 0.36544 0.10864 0.0
C3249 C 0.3129 0.36309 0.10383 0.0
C3250 C 0.32812 0.34131 0.1179 0.0
C3251 C 0.30418 0.36421 0.10786 0.0
C3252 C 0.2911 0.35835 0.11483 0.0
C3253 C 0.29951 0.3571 0.11136 0.0
C3254 C 0.29198 0.37382 0.11146 0.0
C3255 C 0.28728 0.36671 0.11487 0.0
C3256 C 0.30035 0.37257 0.10798 0.0
C3257 C 0.34399 0.36077 0.08804 0.0
C3258 C 0.34381 0.36502 0.07266 0.0
C3259 C 0.35634 0.36854 0.0817 0.0
C3260 C 0.35226 0.36468 0.08889 0.0
C3261 C 0.35225 0.36855 0.07349 0.0
C3262 C 0.33971 0.36113 0.07989 0.0
C3263 C 0.34061 0.35554 0.09544 0.0
O3264 O 0.32987 0.34961 0.1193 0.0
O3265 O 0.32454 0.33991 0.11021 0.0
O3266 O 0.33431 0.34992 0.09381 0.0
O3267 O 0.3397 0.35959 0.10297 0.0
H3268 H 0.34405 0.3395 0.1102 0.0
H3269 H 0.35578 0.32926 0.11426 0.0
H3270 H 0.33974 0.3191 0.13512 0.0
H3271 H 0.32798 0.32937 0.13106 0.0
H3272 H 0.28758 0.3528 0.11746 0.0
H3273 H 0.30233 0.3506 0.11137 0.0
H3274 H 0.28913 0.38032 0.11146 0.0
H3275 H 0.30383 0.37813 0.1053 0.0
H3276 H 0.34057 0.36497 0.06636 0.0
H3277 H 0.36285 0.37123 0.08245 0.0
H3278 H 0.35572 0.36443 0.09507 0.0
H3279 H 0.33334 0.35814 0.07902 0.0
C3280 C 0.43847 0.5853 0.86896 0.0
C3281 C 0.43857 0.59328 0.8644 0.0
C3282 C 0.45016 0.5987 0.87383 0.0
C3283 C 0.44437 0.59992 0.86681 0.0
C3284 C 0.45007 0.59073 0.87841 0.0
C3285 C 0.44425 0.58407 0.87599 0.0
U3286 U 0.42052 0.57755 0.85393 0.0
O3287 O 0.4181 0.56491 0.84744 0.0
O3288 O 0.40832 0.57033 0.85644 0.0
C3289 C 0.41067 0.56363 0.85157 0.0
C3290 C 0.43234 0.57832 0.86637 0.0
C3291 C 0.40948 0.5549 0.85551 0.0
C3292 C 0.41257 0.54415 0.86683 0.0
C3293 C 0.41383 0.55249 0.86323 0.0
C3294 C 0.40261 0.54054 0.85503 0.0
C3295 C 0.40696 0.53811 0.86274 0.0
C3296 C 0.40387 0.54887 0.85145 0.0
C3297 C 0.4139 0.59504 0.83655 0.0
C3298 C 0.40222 0.59432 0.82576 0.0
C3299 C 0.4111 0.6074 0.82698 0.0
C3300 C 0.41593 0.6035 0.83367 0.0
C3301 C 0.40416 0.60289 0.82304 0.0
C3302 C 0.40706 0.59041 0.83252 0.0
C3303 C 0.41891 0.59145 0.84393 0.0
O3304 O 0.42403 0.58013 0.86766 0.0
O3305 O 0.43385 0.57481 0.85867 0.0
O3306 O 0.42431 0.58499 0.84219 0.0
O3307 O 0.41462 0.59042 0.85131 0.0
H3308 H 0.43416 0.59435 0.85895 0.0
H3309 H 0.44437 0.60602 0.8632 0.0
H3310 H 0.45452 0.58967 0.88382 0.0
H3311 H 0.44426 0.57796 0.87958 0.0
H3312 H 0.41598 0.54238 0.87279 0.0
H3313 H 0.41819 0.55705 0.86646 0.0
H3314 H 0.39827 0.53598 0.8518 0.0
H3315 H 0.40046 0.55062 0.84548 0.0
H3316 H 0.39687 0.59075 0.82278 0.0
H3317 H 0.4127 0.614 0.82496 0.0
H3318 H 0.42118 0.60717 0.8367 0.0
H3319 H 0.40541 0.58386 0.83468 0.0
C3320 C 0.18688 0.68826 0.62001 0.0
C3321 C 0.17888 0.6882 0.61548 0.0
C3322 C 0.17337 0.6999 0.62475 0.0
C3323 C 0.17219 0.69398 0.61783 0.0
C3324 C 0.18136 0.69997 0.62929 0.0
C3325 C 0.18807 0.69417 0.62694 0.0
U3326 U 0.19476 0.67018 0.60518 0.0
O3327 O 0.20737 0.66782 0.59861 0.0
O3328 O 0.20215 0.65809 0.60777 0.0
C3329 C 0.20877 0.66044 0.60281 0.0
C3330 C 0.19392 0.68217 0.61747 0.0
C3331 C 0.21755 0.65935 0.60666 0.0
C3332 C 0.22838 0.66253 0.61788 0.0
C3333 C 0.22 0.66374 0.61435 0.0
C3334 C 0.23195 0.65256 0.60606 0.0
C3335 C 0.23442 0.65694 0.61375 0.0
C3336 C 0.22358 0.65376 0.60255 0.0
C3337 C 0.1771 0.66325 0.58799 0.0
C3338 C 0.17843 0.6549 0.57448 0.0
C3339 C 0.1641 0.65875 0.58008 0.0
C3340 C 0.16798 0.66295 0.58719 0.0
C3341 C 0.16927 0.65476 0.57365 0.0
C3342 C 0.18234 0.65914 0.58164 0.0
C3343 C 0.1808 0.66829 0.59532 0.0
O3344 O 0.19223 0.67386 0.61888 0.0
O3345 O 0.19737 0.68361 0.60972 0.0
O3346 O 0.18718 0.67375 0.59348 0.0
O3347 O 0.18194 0.66407 0.60272 0.0
H3348 H 0.17784 0.68369 0.61011 0.0
H3349 H 0.16608 0.69386 0.61424 0.0
H3350 H 0.18239 0.70451 0.63463 0.0
H3351 H 0.19419 0.69431 0.6305 0.0
H3352 H 0.23018 0.66596 0.62381 0.0
H3353 H 0.21544 0.66808 0.61761 0.0
H3354 H 0.23651 0.64823 0.60279 0.0
H3355 H 0.2218 0.65032 0.59661 0.0
H3356 H 0.18251 0.65185 0.56956 0.0
H3357 H 0.15703 0.6587 0.57953 0.0
H3358 H 0.16384 0.6661 0.59201 0.0
H3359 H 0.1894 0.65933 0.58215 0.0
C3360 C 0.0844 0.58567 0.15305 0.0
C3361 C 0.08425 0.59366 0.1576 0.0
C3362 C 0.07272 0.59906 0.14806 0.0
C3363 C 0.07845 0.6003 0.15513 0.0
C3364 C 0.07287 0.59107 0.14349 0.0
C3365 C 0.07869 0.58442 0.14598 0.0
U3366 U 0.10213 0.57785 0.16833 0.0
O3367 O 0.10443 0.56517 0.1748 0.0
O3368 O 0.11435 0.57059 0.16597 0.0
C3369 C 0.11191 0.56388 0.17077 0.0
C3370 C 0.0905 0.57869 0.15572 0.0
C3371 C 0.11312 0.55517 0.16679 0.0
C3372 C 0.11029 0.54456 0.15525 0.0
C3373 C 0.10901 0.55289 0.15889 0.0
C3374 C 0.11978 0.5407 0.16735 0.0
C3375 C 0.11568 0.53841 0.15947 0.0
C3376 C 0.11851 0.54902 0.17098 0.0
C3377 C 0.10849 0.59526 0.18591 0.0
C3378 C 0.12016 0.5946 0.19672 0.0
C3379 C 0.11097 0.60751 0.19571 0.0
C3380 C 0.10626 0.60362 0.18894 0.0
C3381 C 0.11802 0.60309 0.19959 0.0
C3382 C 0.11542 0.5907 0.18988 0.0
C3383 C 0.1036 0.5917 0.17843 0.0
O3384 O 0.09883 0.5805 0.15457 0.0
O3385 O 0.08888 0.57515 0.16338 0.0
O3386 O 0.09817 0.58524 0.18006 0.0
O3387 O 0.10801 0.59068 0.17112 0.0
H3388 H 0.08861 0.59474 0.16309 0.0
H3389 H 0.07841 0.6064 0.15874 0.0
H3390 H 0.06848 0.59 0.13805 0.0
H3391 H 0.07872 0.5783 0.14239 0.0
H3392 H 0.10707 0.5429 0.14916 0.0
H3393 H 0.10483 0.55755 0.15557 0.0
H3394 H 0.12395 0.53605 0.17069 0.0
H3395 H 0.12174 0.55066 0.17707 0.0
H3396 H 0.12558 0.5911 0.19966 0.0
H3397 H 0.10923 0.61404 0.19784 0.0
H3398 H 0.10093 0.60722 0.18596 0.0
H3399 H 0.11722 0.58423 0.18761 0.0
C3400 C 0.18741 0.33436 0.90379 0.0
C3401 C 0.17937 0.33448 0.90825 0.0
C3402 C 0.17386 0.32285 0.8989 0.0
C3403 C 0.17265 0.32877 0.90583 0.0
C3404 C 0.18189 0.32273 0.89443 0.0
C3405 C 0.18862 0.32846 0.89686 0.0
U3406 U 0.19534 0.35246 0.91859 0.0
O3407 O 0.20796 0.35473 0.92519 0.0
O3408 O 0.20287 0.36444 0.91593 0.0
C3409 C 0.20944 0.36206 0.92095 0.0
C3410 C 0.19447 0.34039 0.90638 0.0
C3411 C 0.21824 0.36305 0.91714 0.0
C3412 C 0.22901 0.35997 0.90582 0.0
C3413 C 0.22062 0.35881 0.90934 0.0
C3414 C 0.23274 0.3696 0.91786 0.0
C3415 C 0.23512 0.36538 0.91007 0.0
C3416 C 0.22436 0.36844 0.92137 0.0
C3417 C 0.17778 0.36001 0.93564 0.0
C3418 C 0.16507 0.36728 0.94185 0.0
C3419 C 0.17811 0.36537 0.95066 0.0
C3420 C 0.18227 0.36125 0.94358 0.0
C3421 C 0.1694 0.36823 0.94987 0.0
C3422 C 0.16922 0.3632 0.93481 0.0
C3423 C 0.1814 0.35474 0.92839 0.0
O3424 O 0.19287 0.34872 0.9049 0.0
O3425 O 0.19782 0.33897 0.91417 0.0
O3426 O 0.18764 0.34911 0.93027 0.0
O3427 O 0.18258 0.35877 0.92089 0.0
H3428 H 0.17832 0.33899 0.91362 0.0
H3429 H 0.16651 0.32894 0.90936 0.0
H3430 H 0.18293 0.31818 0.88909 0.0
H3431 H 0.19477 0.32828 0.89335 0.0
H3432 H 0.23075 0.35666 0.8998 0.0
H3433 H 0.21599 0.35462 0.90599 0.0
H3434 H 0.23736 0.37379 0.92122 0.0
H3435 H 0.22264 0.37177 0.92739 0.0
H3436 H 0.15837 0.36946 0.94112 0.0
H3437 H 0.18155 0.36609 0.95681 0.0
H3438 H 0.18889 0.35884 0.9444 0.0
H3439 H 0.16561 0.36227 0.92877 0.0
C3440 C 0.4386 0.43747 0.65306 0.0
C3441 C 0.43827 0.42943 0.6575 0.0
C3442 C 0.45015 0.42381 0.64851 0.0
C3443 C 0.444 0.42265 0.65524 0.0
C3444 C 0.45049 0.43185 0.64408 0.0
C3445 C 0.44474 0.43864 0.64633 0.0
U3446 U 0.42032 0.4458 0.66746 0.0
O3447 O 0.41795 0.45856 0.6737 0.0
O3448 O 0.40836 0.45328 0.66441 0.0
C3449 C 0.41071 0.45997 0.66927 0.0
C3450 C 0.43253 0.44458 0.65543 0.0
C3451 C 0.40971 0.46872 0.66525 0.0
C3452 C 0.41575 0.48174 0.65835 0.0
C3453 C 0.41689 0.47333 0.66183 0.0
C3454 C 0.40025 0.48099 0.66154 0.0
C3455 C 0.40742 0.48563 0.65821 0.0
C3456 C 0.40139 0.47261 0.66505 0.0
C3457 C 0.4125 0.42876 0.68492 0.0
C3458 C 0.40421 0.41655 0.69089 0.0
C3459 C 0.40843 0.42854 0.70035 0.0
C3460 C 0.41243 0.43274 0.69323 0.0
C3461 C 0.40451 0.42031 0.69925 0.0
C3462 C 0.40818 0.42072 0.6838 0.0
C3463 C 0.41787 0.43214 0.67761 0.0
O3464 O 0.42424 0.44295 0.6539 0.0
O3465 O 0.43387 0.44812 0.66316 0.0
O3466 O 0.42352 0.43838 0.67936 0.0
O3467 O 0.41395 0.43312 0.67003 0.0
H3468 H 0.43358 0.4284 0.66271 0.0
H3469 H 0.44366 0.4165 0.65874 0.0
H3470 H 0.45521 0.43286 0.63889 0.0
H3471 H 0.44509 0.4448 0.64284 0.0
H3472 H 0.42135 0.48523 0.65577 0.0
H3473 H 0.42337 0.47046 0.6619 0.0
H3474 H 0.39378 0.48388 0.66146 0.0
H3475 H 0.39577 0.46917 0.66766 0.0
H3476 H 0.40122 0.41019 0.68993 0.0
H3477 H 0.40872 0.43153 0.70677 0.0
H3478 H 0.41573 0.43891 0.69431 0.0
H3479 H 0.4082 0.41748 0.67749 0.0
C3480 C 0.33449 0.68822 0.40234 0.0
C3481 C 0.3425 0.68811 0.40682 0.0
C3482 C 0.34796 0.69992 0.39766 0.0
C3483 C 0.34918 0.69392 0.4045 0.0
C3484 C 0.33994 0.70003 0.39316 0.0
C3485 C 0.33325 0.69421 0.39548 0.0
U3486 U 0.32674 0.67008 0.41709 0.0
O3487 O 0.31417 0.66764 0.42371 0.0
O3488 O 0.31941 0.65796 0.41449 0.0
C3489 C 0.31281 0.66026 0.4195 0.0
C3490 C 0.32747 0.68211 0.40485 0.0
C3491 C 0.30401 0.65913 0.4157 0.0
C3492 C 0.2931 0.66225 0.40454 0.0
C3493 C 0.30149 0.6635 0.40802 0.0
C3494 C 0.28965 0.65229 0.41638 0.0
C3495 C 0.28712 0.65664 0.40871 0.0
C3496 C 0.29804 0.65353 0.41985 0.0
C3497 C 0.34451 0.66321 0.43418 0.0
C3498 C 0.34326 0.65465 0.44756 0.0
C3499 C 0.35755 0.65891 0.44216 0.0
C3500 C 0.35363 0.66311 0.43507 0.0
C3501 C 0.35241 0.65472 0.44848 0.0
C3502 C 0.33931 0.65889 0.44042 0.0
C3503 C 0.34076 0.66824 0.42688 0.0
O3504 O 0.32918 0.6738 0.40339 0.0
O3505 O 0.32403 0.6835 0.4126 0.0
O3506 O 0.33435 0.67366 0.42876 0.0
O3507 O 0.33961 0.66402 0.41947 0.0
H3508 H 0.34358 0.68354 0.41213 0.0
H3509 H 0.35531 0.69375 0.40806 0.0
H3510 H 0.33888 0.70464 0.38788 0.0
H3511 H 0.32711 0.69439 0.39196 0.0
H3512 H 0.29125 0.66566 0.39861 0.0
H3513 H 0.30601 0.66785 0.40473 0.0
H3514 H 0.28513 0.64794 0.41968 0.0
H3515 H 0.29986 0.6501 0.42578 0.0
H3516 H 0.33921 0.65144 0.4524 0.0
H3517 H 0.36461 0.65903 0.44278 0.0
H3518 H 0.35774 0.66642 0.43033 0.0
H3519 H 0.33225 0.65892 0.43984 0.0
C3520 C 0.36872 0.08315 0.43779 0.0
C3521 C 0.36383 0.0825 0.43003 0.0
C3522 C 0.37428 0.07203 0.42416 0.0
C3523 C 0.36659 0.07696 0.42327 0.0
C3524 C 0.37912 0.07261 0.43195 0.0
C3525 C 0.37635 0.07814 0.43872 0.0
U3526 U 0.35373 0.10128 0.44538 0.0
O3527 O 0.34708 0.10374 0.45793 0.0
O3528 O 0.3563 0.11341 0.4527 0.0
C3529 C 0.35129 0.11111 0.45931 0.0
C3530 C 0.366 0.08926 0.44475 0.0
C3531 C 0.35512 0.11223 0.4681 0.0
C3532 C 0.36646 0.10929 0.47887 0.0
C3533 C 0.36291 0.108 0.47051 0.0
C3534 C 0.35447 0.11902 0.48249 0.0
C3535 C 0.36226 0.11481 0.48492 0.0
C3536 C 0.35093 0.11774 0.47414 0.0
C3537 C 0.3368 0.10835 0.42757 0.0
C3538 C 0.32336 0.11681 0.42885 0.0
C3539 C 0.32904 0.11301 0.41453 0.0
C3540 C 0.33608 0.10873 0.41844 0.0
C3541 C 0.32259 0.11701 0.41969 0.0
C3542 C 0.33045 0.11248 0.43279 0.0
C3543 C 0.34405 0.10322 0.4313 0.0
O3544 O 0.36745 0.09756 0.44306 0.0
O3545 O 0.35819 0.08784 0.44806 0.0
O3546 O 0.34211 0.09777 0.43767 0.0
O3547 O 0.35148 0.10736 0.4325 0.0
H3548 H 0.35793 0.08634 0.42917 0.0
H3549 H 0.36279 0.07661 0.4173 0.0
H3550 H 0.38509 0.06886 0.43273 0.0
H3551 H 0.38022 0.07859 0.44464 0.0
H3552 H 0.37248 0.10598 0.48064 0.0
H3553 H 0.36623 0.10372 0.46593 0.0
H3554 H 0.35115 0.1233 0.48706 0.0
H3555 H 0.34493 0.12107 0.47239 0.0
H3556 H 0.31842 0.11986 0.43292 0.0
H3557 H 0.32854 0.11311 0.40746 0.0
H3558 H 0.34091 0.10557 0.41432 0.0
H3559 H 0.3309 0.11224 0.43986 0.0
C3560 C 0.86898 0.43965 0.58468 0.0
C3561 C 0.8732 0.44754 0.58262 0.0
C3562 C 0.87422 0.45119 0.59809 0.0
C3563 C 0.87579 0.45329 0.58929 0.0
C3564 C 0.86995 0.44333 0.60014 0.0
C3565 C 0.86731 0.43762 0.59349 0.0
U3566 U 0.85412 0.42145 0.577 0.0
O3567 O 0.84738 0.41908 0.56448 0.0
O3568 O 0.8567 0.40941 0.56954 0.0
C3569 C 0.85162 0.41173 0.563 0.0
C3570 C 0.86622 0.43361 0.57765 0.0
C3571 C 0.85536 0.41067 0.55417 0.0
C3572 C 0.86663 0.41361 0.54332 0.0
C3573 C 0.86312 0.41491 0.55171 0.0
C3574 C 0.85463 0.40388 0.53978 0.0
C3575 C 0.8624 0.40809 0.53731 0.0
C3576 C 0.85114 0.40517 0.54815 0.0
C3577 C 0.83739 0.41412 0.59488 0.0
C3578 C 0.82408 0.40547 0.59357 0.0
C3579 C 0.82952 0.40958 0.6079 0.0
C3580 C 0.83655 0.41388 0.604 0.0
C3581 C 0.82319 0.40542 0.60273 0.0
C3582 C 0.83116 0.40982 0.58965 0.0
C3583 C 0.84458 0.41931 0.59115 0.0
O3584 O 0.86782 0.42528 0.57912 0.0
O3585 O 0.85836 0.43501 0.57447 0.0
O3586 O 0.84254 0.42481 0.58486 0.0
O3587 O 0.85203 0.41522 0.58984 0.0
H3588 H 0.8745 0.44925 0.57587 0.0
H3589 H 0.87907 0.45934 0.58759 0.0
H3590 H 0.86866 0.44162 0.6069 0.0
H3591 H 0.86398 0.43161 0.59523 0.0
H3592 H 0.87263 0.41691 0.54152 0.0
H3593 H 0.86648 0.41917 0.55627 0.0
H3594 H 0.85128 0.3996 0.53523 0.0
H3595 H 0.84515 0.40183 0.54994 0.0
H3596 H 0.81924 0.40229 0.5895 0.0
H3597 H 0.82893 0.4096 0.61496 0.0
H3598 H 0.84128 0.41717 0.60814 0.0
H3599 H 0.8317 0.40995 0.58259 0.0
C3600 C 0.3336 0.11929 0.33523 0.0
C3601 C 0.3337 0.11481 0.34325 0.0
C3602 C 0.32196 0.12404 0.34874 0.0
C3603 C 0.32793 0.11716 0.34995 0.0
C3604 C 0.32184 0.12853 0.34072 0.0
C3605 C 0.32764 0.12617 0.334 0.0
U3606 U 0.35156 0.10436 0.3273 0.0
O3607 O 0.35394 0.09793 0.31461 0.0
O3608 O 0.36372 0.10693 0.32003 0.0
C3609 C 0.36136 0.10208 0.31332 0.0
C3610 C 0.33969 0.11676 0.3282 0.0
C3611 C 0.36254 0.10604 0.3046 0.0
C3612 C 0.35985 0.11766 0.29405 0.0
C3613 C 0.35855 0.11402 0.30237 0.0
C3614 C 0.36908 0.10538 0.2901 0.0
C3615 C 0.36512 0.11336 0.28786 0.0
C3616 C 0.3678 0.10175 0.29841 0.0
C3617 C 0.35832 0.08693 0.3447 0.0
C3618 C 0.37033 0.07648 0.34412 0.0
C3619 C 0.36101 0.07718 0.35694 0.0
C3620 C 0.35611 0.08381 0.35302 0.0
C3621 C 0.36822 0.07354 0.35258 0.0
C3622 C 0.36541 0.08318 0.3402 0.0
C3623 C 0.35327 0.09431 0.34115 0.0
O3624 O 0.348 0.11807 0.32994 0.0
O3625 O 0.3382 0.10906 0.32466 0.0
O3626 O 0.34786 0.09256 0.3347 0.0
O3627 O 0.35752 0.1017 0.34011 0.0
H3628 H 0.33825 0.10947 0.34432 0.0
H3629 H 0.32809 0.11361 0.35608 0.0
H3630 H 0.31726 0.13383 0.33966 0.0
H3631 H 0.32746 0.1297 0.32786 0.0
H3632 H 0.35673 0.12381 0.29243 0.0
H3633 H 0.35446 0.11742 0.30706 0.0
H3634 H 0.37316 0.10197 0.28541 0.0
H3635 H 0.37093 0.0956 0.30001 0.0
H3636 H 0.37587 0.07372 0.34066 0.0
H3637 H 0.35928 0.07499 0.36345 0.0
H3638 H 0.35066 0.08663 0.35659 0.0
H3639 H 0.3672 0.08552 0.33375 0.0
C3640 C 0.65336 0.58435 0.08558 0.0
C3641 C 0.65084 0.57573 0.08364 0.0
C3642 C 0.64892 0.57262 0.09914 0.0
C3643 C 0.64866 0.56989 0.09037 0.0
C3644 C 0.65138 0.58125 0.10109 0.0
C3645 C 0.65363 0.58705 0.09438 0.0
U3646 U 0.66802 0.60248 0.07713 0.0
O3647 O 0.67427 0.60467 0.06435 0.0
O3648 O 0.6651 0.61442 0.06957 0.0
C3649 C 0.66993 0.61196 0.06289 0.0
C3650 C 0.65594 0.59036 0.07845 0.0
C3651 C 0.66591 0.61297 0.05415 0.0
C3652 C 0.65896 0.60697 0.04113 0.0
C3653 C 0.66248 0.6058 0.04952 0.0
C3654 C 0.66213 0.62248 0.04194 0.0
C3655 C 0.65878 0.61532 0.03728 0.0
C3656 C 0.66567 0.62131 0.0503 0.0
C3657 C 0.68551 0.61034 0.09412 0.0
C3658 C 0.69159 0.61862 0.10628 0.0
C3659 C 0.70093 0.61439 0.09419 0.0
C3660 C 0.69378 0.6104 0.09006 0.0
C3661 C 0.69991 0.61832 0.10244 0.0
C3662 C 0.68446 0.61465 0.10216 0.0
C3663 C 0.67816 0.60499 0.09078 0.0
O3664 O 0.65441 0.59872 0.07985 0.0
O3665 O 0.66367 0.58888 0.07498 0.0
O3666 O 0.67988 0.59926 0.08459 0.0
O3667 O 0.6706 0.60896 0.08976 0.0
H3668 H 0.65064 0.57349 0.07692 0.0
H3669 H 0.64682 0.56324 0.08875 0.0
H3670 H 0.65168 0.58344 0.10782 0.0
H3671 H 0.65565 0.59363 0.09608 0.0
H3672 H 0.65638 0.60137 0.03763 0.0
H3673 H 0.66256 0.59931 0.05237 0.0
H3674 H 0.66202 0.62897 0.03908 0.0
H3675 H 0.66828 0.62692 0.05375 0.0
H3676 H 0.69068 0.62161 0.11264 0.0
H3677 H 0.70732 0.61411 0.09115 0.0
H3678 H 0.6948 0.6071 0.08387 0.0
H3679 H 0.67819 0.61464 0.10546 0.0
C3680 C 0.68832 0.40284 0.33507 0.0
C3681 C 0.68823 0.40738 0.34305 0.0
C3682 C 0.70013 0.39833 0.3485 0.0
C3683 C 0.69409 0.40515 0.34971 0.0
C3684 C 0.70023 0.39378 0.34051 0.0
C3685 C 0.69435 0.39602 0.33384 0.0
U3686 U 0.6699 0.41728 0.32728 0.0
O3687 O 0.66723 0.42367 0.31467 0.0
O3688 O 0.65776 0.41432 0.32007 0.0
C3689 C 0.65997 0.41924 0.31337 0.0
C3690 C 0.68212 0.40521 0.32808 0.0
C3691 C 0.65883 0.41528 0.30462 0.0
C3692 C 0.66468 0.40845 0.29146 0.0
C3693 C 0.66594 0.41188 0.29987 0.0
C3694 C 0.64919 0.41163 0.29247 0.0
C3695 C 0.6563 0.40833 0.28769 0.0
C3696 C 0.65045 0.41509 0.30085 0.0
C3697 C 0.66283 0.43453 0.34483 0.0
C3698 C 0.65462 0.44813 0.34346 0.0
C3699 C 0.65821 0.44244 0.35782 0.0
C3700 C 0.66238 0.43529 0.35396 0.0
C3701 C 0.6544 0.44895 0.35262 0.0
C3702 C 0.65884 0.44094 0.33957 0.0
C3703 C 0.66796 0.42724 0.34117 0.0
O3704 O 0.67386 0.40367 0.32988 0.0
O3705 O 0.68337 0.41295 0.32455 0.0
O3706 O 0.67333 0.42911 0.33472 0.0
O3707 O 0.66387 0.41975 0.34015 0.0
H3708 H 0.68362 0.41267 0.34412 0.0
H3709 H 0.69393 0.40875 0.35582 0.0
H3710 H 0.70487 0.38852 0.33946 0.0
H3711 H 0.69452 0.39244 0.32772 0.0
H3712 H 0.67024 0.4059 0.28787 0.0
H3713 H 0.67246 0.41193 0.30264 0.0
H3714 H 0.64268 0.41157 0.28968 0.0
H3715 H 0.64488 0.41768 0.3044 0.0
H3716 H 0.65171 0.45312 0.33936 0.0
H3717 H 0.6581 0.44297 0.36489 0.0
H3718 H 0.66543 0.43043 0.35812 0.0
H3719 H 0.65913 0.44047 0.33251 0.0
C3720 C 0.15365 0.93874 0.93758 0.0
C3721 C 0.158 0.93847 0.92949 0.0
C3722 C 0.14884 0.95026 0.924 0.0
C3723 C 0.15562 0.94419 0.92275 0.0
C3724 C 0.14448 0.95055 0.93208 0.0
C3725 C 0.14686 0.94481 0.93883 0.0
U3726 U 0.16848 0.92074 0.94572 0.0
O3727 O 0.17496 0.91857 0.95841 0.0
O3728 O 0.16583 0.90877 0.95326 0.0
C3729 C 0.17078 0.9112 0.95986 0.0
C3730 C 0.15621 0.93273 0.94467 0.0
C3731 C 0.16692 0.91018 0.96865 0.0
C3732 C 0.15566 0.91337 0.97944 0.0
C3733 C 0.15921 0.91456 0.97106 0.0
C3734 C 0.16749 0.90345 0.98307 0.0
C3735 C 0.15979 0.90782 0.9855 0.0
C3736 C 0.17103 0.90463 0.97471 0.0
C3737 C 0.18586 0.91322 0.92845 0.0
C3738 C 0.19188 0.90507 0.91618 0.0
C3739 C 0.2013 0.90922 0.92822 0.0
C3740 C 0.19416 0.91316 0.93244 0.0
C3741 C 0.20022 0.90534 0.91996 0.0
C3742 C 0.18477 0.90899 0.92038 0.0
C3743 C 0.17849 0.91847 0.93192 0.0
O3744 O 0.15481 0.92439 0.94307 0.0
O3745 O 0.16394 0.93421 0.9481 0.0
O3746 O 0.18021 0.92418 0.93812 0.0
O3747 O 0.171 0.9144 0.93301 0.0
H3748 H 0.16326 0.93384 0.9284 0.0
H3749 H 0.15907 0.94389 0.91657 0.0
H3750 H 0.13925 0.95521 0.93316 0.0
H3751 H 0.14344 0.94512 0.94503 0.0
H3752 H 0.14971 0.9168 0.98121 0.0
H3753 H 0.15595 0.91886 0.96647 0.0
H3754 H 0.17076 0.89915 0.98765 0.0
H3755 H 0.17698 0.90119 0.97296 0.0
H3756 H 0.19093 0.90211 0.9098 0.0
H3757 H 0.20771 0.90949 0.93123 0.0
H3758 H 0.19521 0.91641 0.93865 0.0
H3759 H 0.17847 0.909 0.91713 0.0
C3760 C 0.3343 0.90287 0.18689 0.0
C3761 C 0.33614 0.90477 0.17808 0.0
C3762 C 0.32235 0.89823 0.17362 0.0
C3763 C 0.33023 0.90243 0.1715 0.0
C3764 C 0.32049 0.89634 0.18241 0.0
C3765 C 0.32644 0.89863 0.18901 0.0
U3766 U 0.3523 0.91791 0.1947 0.0
O3767 O 0.35476 0.92433 0.20734 0.0
O3768 O 0.36452 0.91529 0.20192 0.0
C3769 C 0.36214 0.92011 0.20864 0.0
C3770 C 0.34043 0.90553 0.19386 0.0
C3771 C 0.36336 0.91611 0.21736 0.0
C3772 C 0.35765 0.90897 0.23041 0.0
C3773 C 0.35632 0.91247 0.22204 0.0
C3774 C 0.37306 0.91255 0.2295 0.0
C3775 C 0.36602 0.90901 0.2342 0.0
C3776 C 0.37173 0.91609 0.22115 0.0
C3777 C 0.35894 0.93534 0.17725 0.0
C3778 C 0.37064 0.94612 0.17794 0.0
C3779 C 0.36152 0.9451 0.165 0.0
C3780 C 0.35677 0.93835 0.16887 0.0
C3781 C 0.36854 0.94898 0.16945 0.0
C3782 C 0.36586 0.9393 0.18183 0.0
C3783 C 0.35395 0.92794 0.18083 0.0
O3784 O 0.34875 0.90419 0.19217 0.0
O3785 O 0.33891 0.91325 0.19735 0.0
O3786 O 0.34856 0.92969 0.18729 0.0
O3787 O 0.35823 0.92056 0.18186 0.0
H3788 H 0.34213 0.90812 0.1763 0.0
H3789 H 0.33174 0.90399 0.16475 0.0
H3790 H 0.31441 0.89315 0.18416 0.0
H3791 H 0.32487 0.89716 0.19576 0.0
H3792 H 0.35216 0.90623 0.23394 0.0
H3793 H 0.34981 0.91238 0.21925 0.0
H3794 H 0.37956 0.91261 0.23231 0.0
H3795 H 0.37724 0.91885 0.21766 0.0
H3796 H 0.37604 0.94906 0.18146 0.0
H3797 H 0.35981 0.94723 0.15846 0.0
H3798 H 0.35145 0.93537 0.16525 0.0
H3799 H 0.36762 0.93705 0.18831 0.0
C3800 C 0.18753 0.1198 0.68731 0.0
C3801 C 0.18574 0.11777 0.67852 0.0
C3802 C 0.19947 0.12441 0.67403 0.0
C3803 C 0.19164 0.1201 0.67193 0.0
C3804 C 0.20128 0.12644 0.6828 0.0
C3805 C 0.19533 0.12417 0.6894 0.0
U3806 U 0.16964 0.10468 0.69517 0.0
O3807 O 0.16723 0.09826 0.70782 0.0
O3808 O 0.1574 0.10721 0.70238 0.0
C3809 C 0.15981 0.10243 0.70911 0.0
C3810 C 0.18142 0.11714 0.6943 0.0
C3811 C 0.15857 0.10645 0.71783 0.0
C3812 C 0.1642 0.11379 0.7308 0.0
C3813 C 0.16555 0.11028 0.72243 0.0
C3814 C 0.14888 0.10982 0.73004 0.0
C3815 C 0.15587 0.11356 0.73466 0.0
C3816 C 0.15023 0.10627 0.72169 0.0
C3817 C 0.16318 0.08714 0.67773 0.0
C3818 C 0.15149 0.07635 0.6783 0.0
C3819 C 0.16083 0.07727 0.66551 0.0
C3820 C 0.1655 0.08406 0.66941 0.0
C3821 C 0.15374 0.07342 0.66986 0.0
C3822 C 0.15619 0.08321 0.68221 0.0
C3823 C 0.1681 0.09459 0.68132 0.0
O3824 O 0.17308 0.11841 0.6926 0.0
O3825 O 0.18299 0.10945 0.69782 0.0
O3826 O 0.17349 0.09291 0.68779 0.0
O3827 O 0.16374 0.10194 0.68233 0.0
H3828 H 0.1798 0.11433 0.67677 0.0
H3829 H 0.19017 0.11842 0.6652 0.0
H3830 H 0.20732 0.12972 0.68453 0.0
H3831 H 0.19686 0.12574 0.69614 0.0
H3832 H 0.16966 0.11669 0.73427 0.0
H3833 H 0.17203 0.11052 0.71957 0.0
H3834 H 0.14241 0.10961 0.73291 0.0
H3835 H 0.14476 0.10335 0.71826 0.0
H3836 H 0.14604 0.07343 0.68175 0.0
H3837 H 0.16265 0.0751 0.65901 0.0
H3838 H 0.17088 0.08701 0.66586 0.0
H3839 H 0.15432 0.08551 0.68865 0.0
H3840 H 0.11963 0.23215 0.3818 0.0
C3841 C 0.12592 0.22956 0.38378 0.0
C3842 C 0.12629 0.22244 0.38961 0.0
C3843 C 0.13367 0.23294 0.38009 0.0
H3844 H 0.13469 0.21327 0.39627 0.0
C3845 C 0.13441 0.21886 0.39191 0.0
C3846 C 0.14215 0.22216 0.38833 0.0
C3847 C 0.14177 0.22919 0.38245 0.0
C3848 C 0.13334 0.23972 0.37312 0.0
H3849 H 0.14778 0.23161 0.37956 0.0
C3850 C 0.12867 0.24763 0.3742 0.0
C3851 C 0.12876 0.25401 0.36753 0.0
C3852 C 0.13788 0.23825 0.36525 0.0
H3853 H 0.14142 0.23219 0.36419 0.0
C3854 C 0.13784 0.24451 0.35862 0.0
H3855 H 0.12519 0.24891 0.38025 0.0
C3856 C 0.13334 0.25236 0.35975 0.0
H3857 H 0.13346 0.2572 0.35457 0.0
H3858 H 0.14135 0.24329 0.35259 0.0
H3859 H 0.04215 0.87196 0.63148 0.0
C3860 C 0.04438 0.87843 0.63336 0.0
C3861 C 0.05165 0.8793 0.63895 0.0
C3862 C 0.04035 0.88591 0.62981 0.0
H3863 H 0.06049 0.88833 0.64525 0.0
C3864 C 0.0548 0.88766 0.64107 0.0
C3865 C 0.05077 0.89516 0.63768 0.0
C3866 C 0.04352 0.89425 0.63213 0.0
C3867 C 0.03351 0.88514 0.62295 0.0
H3868 H 0.04049 0.90006 0.62941 0.0
C3869 C 0.02578 0.88025 0.62425 0.0
C3870 C 0.01936 0.87991 0.61762 0.0
C3871 C 0.03477 0.88948 0.61494 0.0
H3872 H 0.04068 0.89321 0.61374 0.0
C3873 C 0.02848 0.88901 0.60835 0.0
H3874 H 0.02468 0.8769 0.6304 0.0
C3875 C 0.02081 0.88427 0.60968 0.0
H3876 H 0.01595 0.88405 0.60452 0.0
H3877 H 0.02953 0.89237 0.60221 0.0
H3878 H 0.40208 0.79082 0.88173 0.0
C3879 C 0.3958 0.79347 0.88368 0.0
C3880 C 0.39548 0.80052 0.8896 0.0
C3881 C 0.38804 0.79023 0.8799 0.0
H3882 H 0.38716 0.80968 0.89639 0.0
C3883 C 0.38739 0.80415 0.89193 0.0
C3884 C 0.37963 0.80098 0.88828 0.0
C3885 C 0.37996 0.79402 0.8823 0.0
C3886 C 0.38833 0.78353 0.87284 0.0
H3887 H 0.37393 0.79169 0.8794 0.0
C3888 C 0.39328 0.77576 0.87367 0.0
C3889 C 0.3933 0.76951 0.86686 0.0
C3890 C 0.38358 0.78498 0.86509 0.0
H3891 H 0.37983 0.79093 0.8642 0.0
C3892 C 0.38369 0.77884 0.85834 0.0
H3893 H 0.39696 0.7745 0.87959 0.0
C3894 C 0.3885 0.77114 0.85921 0.0
H3895 H 0.38847 0.76642 0.85392 0.0
H3896 H 0.38002 0.78005 0.85241 0.0
H3897 H 0.48194 0.15114 0.13221 0.0
C3898 C 0.47913 0.14493 0.13415 0.0
C3899 C 0.472 0.14481 0.13998 0.0
C3900 C 0.48225 0.13707 0.13045 0.0
H3901 H 0.46256 0.13674 0.14665 0.0
C3902 C 0.46815 0.13682 0.14228 0.0
C3903 C 0.47119 0.12896 0.13871 0.0
C3904 C 0.47825 0.12909 0.13285 0.0
C3905 C 0.48907 0.13717 0.12348 0.0
H3906 H 0.4805 0.12298 0.13003 0.0
C3907 C 0.49682 0.14215 0.12429 0.0
C3908 C 0.50316 0.142 0.11756 0.0
C3909 C 0.48775 0.1322 0.11584 0.0
H3910 H 0.48182 0.12843 0.11495 0.0
C3911 C 0.49399 0.13213 0.10918 0.0
H3912 H 0.49799 0.14601 0.13012 0.0
C3913 C 0.50165 0.13698 0.11003 0.0
H3914 H 0.50644 0.13682 0.10481 0.0
H3915 H 0.49287 0.12829 0.10334 0.0
H3916 H 0.11997 0.79047 0.14145 0.0
C3917 C 0.12626 0.79302 0.13941 0.0
C3918 C 0.1266 0.8001 0.13354 0.0
C3919 C 0.13403 0.78964 0.14306 0.0
H3920 H 0.13495 0.80923 0.12677 0.0
C3921 C 0.1347 0.80366 0.13116 0.0
C3922 C 0.14247 0.80035 0.13469 0.0
C3923 C 0.14212 0.79334 0.1406 0.0
C3924 C 0.13374 0.78287 0.15006 0.0
H3925 H 0.14816 0.7909 0.14341 0.0
C3926 C 0.12864 0.7752 0.14924 0.0
C3927 C 0.12863 0.76888 0.15598 0.0
C3928 C 0.13865 0.78415 0.15774 0.0
H3929 H 0.14251 0.79003 0.15863 0.0
C3930 C 0.13855 0.77795 0.16443 0.0
H3931 H 0.12483 0.77407 0.14337 0.0
C3932 C 0.13359 0.77035 0.16356 0.0
H3933 H 0.13363 0.76558 0.1688 0.0
H3934 H 0.14234 0.77903 0.1703 0.0
H3935 H 0.48184 0.87124 0.3903 0.0
C3936 C 0.47911 0.87751 0.38842 0.0
C3937 C 0.47193 0.87778 0.38266 0.0
C3938 C 0.48237 0.8853 0.39213 0.0
H3939 H 0.46257 0.88604 0.37609 0.0
C3940 C 0.46819 0.88585 0.38042 0.0
C3941 C 0.47138 0.89363 0.38401 0.0
C3942 C 0.47847 0.89335 0.38983 0.0
C3943 C 0.48924 0.88504 0.39903 0.0
H3944 H 0.48082 0.8994 0.39269 0.0
C3945 C 0.49699 0.88008 0.39804 0.0
C3946 C 0.50338 0.88009 0.4047 0.0
C3947 C 0.48798 0.88983 0.4068 0.0
H3948 H 0.48204 0.89358 0.40782 0.0
C3949 C 0.49427 0.88975 0.4134 0.0
H3950 H 0.4981 0.87637 0.3921 0.0
C3951 C 0.50193 0.88493 0.41236 0.0
H3952 H 0.50677 0.88498 0.41754 0.0
H3953 H 0.4932 0.89345 0.41934 0.0
H3954 H 0.40137 0.23205 0.64023 0.0
C3955 C 0.3951 0.22936 0.6383 0.0
C3956 C 0.39483 0.22226 0.63244 0.0
C3957 C 0.38732 0.23258 0.64206 0.0
H3958 H 0.38657 0.213 0.62572 0.0
C3959 C 0.38677 0.21856 0.63014 0.0
C3960 C 0.37899 0.22173 0.63377 0.0
C3961 C 0.37927 0.22873 0.6397 0.0
C3962 C 0.38757 0.23937 0.64904 0.0
H3963 H 0.37323 0.23106 0.64259 0.0
C3964 C 0.39244 0.24717 0.64808 0.0
C3965 C 0.39241 0.25351 0.6548 0.0
C3966 C 0.38286 0.23798 0.65682 0.0
H3967 H 0.37918 0.232 0.6578 0.0
C3968 C 0.38293 0.24421 0.66349 0.0
H3969 H 0.39608 0.24838 0.64213 0.0
C3970 C 0.38766 0.25194 0.66249 0.0
H3971 H 0.3876 0.25673 0.66772 0.0
H3972 H 0.37929 0.24305 0.66945 0.0
H3973 H 0.03995 0.15251 0.89063 0.0
C3974 C 0.04262 0.14623 0.88872 0.0
C3975 C 0.04974 0.14589 0.8829 0.0
C3976 C 0.03934 0.13847 0.89247 0.0
H3977 H 0.05898 0.13755 0.87625 0.0
C3978 C 0.0534 0.13779 0.88063 0.0
C3979 C 0.05019 0.13004 0.88426 0.0
C3980 C 0.04316 0.13039 0.89016 0.0
C3981 C 0.03253 0.13878 0.89943 0.0
H3982 H 0.04079 0.12436 0.89306 0.0
C3983 C 0.02472 0.14363 0.89842 0.0
C3984 C 0.01836 0.14363 0.90512 0.0
C3985 C 0.03392 0.13413 0.90726 0.0
H3986 H 0.0399 0.13047 0.90828 0.0
C3987 C 0.02767 0.13425 0.91391 0.0
H3988 H 0.02352 0.14722 0.89243 0.0
C3989 C 0.01994 0.13895 0.91285 0.0
H3990 H 0.01513 0.13891 0.91806 0.0
H3991 H 0.02883 0.13066 0.9199 0.0
H3992 H 0.38086 0.12137 0.23221 0.0
C3993 C 0.38299 0.12758 0.22952 0.0
C3994 C 0.38857 0.12767 0.2222 0.0
C3995 C 0.37977 0.13549 0.23302 0.0
H3996 H 0.39525 0.13573 0.21276 0.0
C3997 C 0.39108 0.13567 0.2185 0.0
C3998 C 0.388 0.14358 0.22193 0.0
C3999 C 0.38241 0.14348 0.22921 0.0
C4000 C 0.37303 0.13548 0.24006 0.0
H4001 H 0.37995 0.14963 0.23175 0.0
C4002 C 0.37388 0.13027 0.24765 0.0
C4003 C 0.36738 0.13051 0.25421 0.0
C4004 C 0.36555 0.14078 0.23911 0.0
H4005 H 0.36463 0.14473 0.23331 0.0
C4006 C 0.35911 0.14094 0.24556 0.0
H4007 H 0.3796 0.12616 0.24853 0.0
C4008 C 0.36001 0.13586 0.25307 0.0
H4009 H 0.35495 0.1361 0.25804 0.0
H4010 H 0.35338 0.14503 0.24474 0.0
H4011 H 0.1526 0.13089 0.48168 0.0
C4012 C 0.14629 0.13298 0.47921 0.0
C4013 C 0.14591 0.13891 0.47218 0.0
C4014 C 0.13855 0.12934 0.48263 0.0
H4015 H 0.13749 0.1458 0.4632 0.0
C4016 C 0.13778 0.14137 0.46873 0.0
C4017 C 0.13004 0.13784 0.47208 0.0
C4018 C 0.13043 0.13186 0.47903 0.0
C4019 C 0.13888 0.12226 0.48932 0.0
H4020 H 0.12441 0.12904 0.48149 0.0
C4021 C 0.14396 0.12302 0.497 0.0
C4022 C 0.14399 0.11621 0.50324 0.0
C4023 C 0.13401 0.11457 0.48794 0.0
H4024 H 0.13016 0.11373 0.48205 0.0
C4025 C 0.13414 0.10781 0.49406 0.0
H4026 H 0.14773 0.1289 0.4982 0.0
C4027 C 0.13908 0.10862 0.50168 0.0
H4028 H 0.13905 0.10333 0.50639 0.0
H4029 H 0.13038 0.10192 0.49291 0.0
H4030 H 0.1419 0.90196 0.73134 0.0
C4031 C 0.13986 0.89569 0.72874 0.0
C4032 C 0.1342 0.8954 0.72148 0.0
C4033 C 0.14329 0.88787 0.73224 0.0
H4034 H 0.12757 0.88711 0.71219 0.0
C4035 C 0.13181 0.88732 0.71789 0.0
C4036 C 0.13512 0.87951 0.72132 0.0
C4037 C 0.14083 0.8798 0.7285 0.0
C4038 C 0.15009 0.88808 0.73921 0.0
H4039 H 0.14348 0.87373 0.73104 0.0
C4040 C 0.14905 0.8931 0.74691 0.0
C4041 C 0.15558 0.893 0.75343 0.0
C4042 C 0.15778 0.88315 0.73811 0.0
H4043 H 0.15883 0.87933 0.73222 0.0
C4044 C 0.16427 0.88315 0.74451 0.0
H4045 H 0.14316 0.89692 0.7479 0.0
C4046 C 0.16318 0.88802 0.75214 0.0
H4047 H 0.16827 0.8879 0.75707 0.0
H4048 H 0.17016 0.87933 0.74357 0.0
H4049 H 0.36982 0.89198 0.98145 0.0
C4050 C 0.37612 0.88989 0.97894 0.0
C4051 C 0.37646 0.88397 0.9719 0.0
C4052 C 0.38389 0.89351 0.98234 0.0
H4053 H 0.38483 0.87709 0.96285 0.0
C4054 C 0.38457 0.88151 0.9684 0.0
C4055 C 0.39234 0.88502 0.97172 0.0
C4056 C 0.39198 0.89099 0.97869 0.0
C4057 C 0.38359 0.90056 0.98906 0.0
H4058 H 0.39802 0.89379 0.98113 0.0
C4059 C 0.3785 0.89979 0.99674 0.0
C4060 C 0.37849 0.90657 1.00301 0.0
C4061 C 0.3885 0.90824 0.98773 0.0
H4062 H 0.39235 0.90908 0.98184 0.0
C4063 C 0.3884 0.91496 0.99389 0.0
H4064 H 0.3747 0.89392 0.99791 0.0
C4065 C 0.38344 0.91414 1.0015 0.0
H4066 H 0.38349 0.91941 1.00624 0.0
H4067 H 0.39219 0.92084 0.99277 0.0
H4068 H 0.3813 0.90243 0.29051 0.0
C4069 C 0.38327 0.89619 0.29323 0.0
C4070 C 0.38887 0.89598 0.30054 0.0
C4071 C 0.37982 0.88834 0.28982 0.0
H4072 H 0.39539 0.88778 0.30999 0.0
C4073 C 0.39119 0.88793 0.30427 0.0
C4074 C 0.38789 0.88009 0.3009 0.0
C4075 C 0.38225 0.88031 0.29367 0.0
C4076 C 0.37305 0.88849 0.28283 0.0
H4077 H 0.37959 0.87422 0.29118 0.0
C4078 C 0.37418 0.8933 0.27502 0.0
C4079 C 0.36768 0.8931 0.26846 0.0
C4080 C 0.3653 0.88368 0.28402 0.0
H4081 H 0.36419 0.88004 0.29 0.0
C4082 C 0.35884 0.88359 0.27758 0.0
H4083 H 0.38013 0.89701 0.27395 0.0
C4084 C 0.36003 0.88824 0.26983 0.0
H4085 H 0.35498 0.88802 0.26486 0.0
H4086 H 0.35291 0.87987 0.27859 0.0
H4087 H 0.3701 0.13114 0.54054 0.0
C4088 C 0.37634 0.13321 0.54317 0.0
C4089 C 0.37655 0.13893 0.55038 0.0
C4090 C 0.38418 0.12977 0.53973 0.0
H4091 H 0.38475 0.14559 0.55972 0.0
C4092 C 0.3846 0.14133 0.55405 0.0
C4093 C 0.39244 0.13803 0.55067 0.0
C4094 C 0.39222 0.1323 0.5435 0.0
C4095 C 0.38403 0.12288 0.53284 0.0
H4096 H 0.39831 0.12966 0.54101 0.0
C4097 C 0.37893 0.12375 0.52517 0.0
C4098 C 0.37904 0.11711 0.51875 0.0
C4099 C 0.38907 0.11526 0.534 0.0
H4100 H 0.39294 0.11434 0.53986 0.0
C4101 C 0.38909 0.10867 0.52768 0.0
H4102 H 0.37503 0.12958 0.52414 0.0
C4103 C 0.38412 0.10959 0.5201 0.0
H4104 H 0.38426 0.10442 0.51524 0.0
H4105 H 0.39298 0.10284 0.52867 0.0
H4106 H 0.14056 0.12025 0.79096 0.0
C4107 C 0.13859 0.12649 0.79368 0.0
C4108 C 0.13299 0.12671 0.80098 0.0
C4109 C 0.14205 0.13433 0.79027 0.0
H4110 H 0.12652 0.13491 0.81048 0.0
C4111 C 0.13071 0.13476 0.80475 0.0
C4112 C 0.13403 0.14259 0.80139 0.0
C4113 C 0.13966 0.14237 0.79415 0.0
C4114 C 0.14882 0.13418 0.78327 0.0
H4115 H 0.14232 0.14845 0.79167 0.0
C4116 C 0.14768 0.12933 0.77547 0.0
C4117 C 0.15416 0.12954 0.76889 0.0
C4118 C 0.15655 0.13902 0.78442 0.0
H4119 H 0.15767 0.14269 0.79038 0.0
C4120 C 0.16299 0.13912 0.77796 0.0
H4121 H 0.14175 0.1256 0.77443 0.0
C4122 C 0.1618 0.13444 0.77023 0.0
H4123 H 0.16683 0.13466 0.76524 0.0
H4124 H 0.16891 0.14287 0.77894 0.0
H4125 H 0.15226 0.89134 0.04123 0.0
C4126 C 0.14597 0.88927 0.04377 0.0
C4127 C 0.14564 0.88338 0.05084 0.0
C4128 C 0.1382 0.89289 0.04038 0.0
H4129 H 0.1373 0.87655 0.05992 0.0
C4130 C 0.13754 0.88096 0.05436 0.0
C4131 C 0.12977 0.88446 0.05104 0.0
C4132 C 0.13011 0.89039 0.04405 0.0
C4133 C 0.13847 0.89991 0.03363 0.0
H4134 H 0.12407 0.89319 0.0416 0.0
C4135 C 0.14343 0.89904 0.02588 0.0
C4136 C 0.1434 0.90578 0.01958 0.0
C4137 C 0.13366 0.90764 0.03501 0.0
H4138 H 0.12989 0.90855 0.04095 0.0
C4139 C 0.13373 0.91433 0.02882 0.0
H4140 H 0.14716 0.89312 0.02468 0.0
C4141 C 0.13855 0.91342 0.02114 0.0
H4142 H 0.13848 0.91866 0.01637 0.0
H4143 H 0.13001 0.92025 0.02997 0.0
H4144 H 0.23099 0.38209 0.12077 0.0
C4145 C 0.22817 0.38404 0.12698 0.0
C4146 C 0.22091 0.38971 0.1271 0.0
C4147 C 0.23142 0.38049 0.13485 0.0
H4148 H 0.21132 0.39618 0.13518 0.0
C4149 C 0.21702 0.39195 0.1351 0.0
C4150 C 0.2202 0.38854 0.14297 0.0
C4151 C 0.22741 0.38286 0.14283 0.0
C4152 C 0.23839 0.37369 0.13478 0.0
H4153 H 0.22976 0.38012 0.14894 0.0
C4154 C 0.24627 0.37481 0.13008 0.0
C4155 C 0.2528 0.36829 0.13036 0.0
C4156 C 0.23711 0.36592 0.13955 0.0
H4157 H 0.23108 0.36481 0.1431 0.0
C4158 C 0.24354 0.35944 0.13972 0.0
H4159 H 0.2474 0.38077 0.1264 0.0
C4160 C 0.25135 0.36062 0.13519 0.0
H4161 H 0.25631 0.35556 0.13546 0.0
H4162 H 0.24246 0.3535 0.14341 0.0
H4163 H 0.73231 0.14157 0.90262 0.0
C4164 C 0.72974 0.13949 0.89635 0.0
C4165 C 0.7225 0.13382 0.89606 0.0
C4166 C 0.73327 0.14291 0.88854 0.0
H4167 H 0.71327 0.12713 0.88775 0.0
C4168 C 0.71895 0.13138 0.88797 0.0
C4169 C 0.72242 0.13466 0.88017 0.0
C4170 C 0.72958 0.14039 0.88046 0.0
C4171 C 0.74017 0.14978 0.88875 0.0
H4172 H 0.73213 0.14303 0.8744 0.0
C4173 C 0.74787 0.14885 0.89378 0.0
C4174 C 0.75431 0.15547 0.89367 0.0
C4175 C 0.73898 0.15746 0.8838 0.0
H4176 H 0.73308 0.15842 0.87999 0.0
C4177 C 0.7453 0.16402 0.8838 0.0
H4178 H 0.74893 0.14298 0.89761 0.0
C4179 C 0.75293 0.16304 0.88868 0.0
H4180 H 0.7578 0.16819 0.88854 0.0
H4181 H 0.74429 0.1699 0.87997 0.0
H4182 H 0.13115 0.48267 0.15132 0.0
C4183 C 0.13318 0.47997 0.14508 0.0
C4184 C 0.13874 0.47263 0.14491 0.0
C4185 C 0.12985 0.48345 0.13722 0.0
H4186 H 0.14528 0.46314 0.13677 0.0
C4187 C 0.14112 0.4689 0.13689 0.0
C4188 C 0.13793 0.47231 0.12903 0.0
C4189 C 0.13235 0.4796 0.1292 0.0
C4190 C 0.12313 0.49052 0.13732 0.0
H4191 H 0.1298 0.48213 0.12308 0.0
C4192 C 0.1241 0.49812 0.1425 0.0
C4193 C 0.11762 0.5047 0.14236 0.0
C4194 C 0.11557 0.48958 0.13216 0.0
H4195 H 0.11456 0.48377 0.12823 0.0
C4196 C 0.10914 0.49606 0.13209 0.0
H4197 H 0.12988 0.49898 0.14651 0.0
C4198 C 0.11015 0.50358 0.13714 0.0
H4199 H 0.10511 0.50856 0.13698 0.0
H4200 H 0.10335 0.49524 0.12811 0.0
H4201 H 0.7914 0.88187 0.40187 0.0
C4202 C 0.79355 0.88371 0.39536 0.0
C4203 C 0.80077 0.88934 0.39437 0.0
C4204 C 0.78947 0.88007 0.38796 0.0
H4205 H 0.80942 0.89569 0.38519 0.0
C4206 C 0.80379 0.89145 0.38596 0.0
C4207 C 0.79968 0.88801 0.37853 0.0
C4208 C 0.7925 0.88238 0.37957 0.0
C4209 C 0.78276 0.87309 0.38885 0.0
H4210 H 0.78942 0.8796 0.37382 0.0
C4211 C 0.77504 0.87431 0.39378 0.0
C4212 C 0.76873 0.86757 0.39421 0.0
C4213 C 0.78414 0.86506 0.38457 0.0
H4214 H 0.79005 0.86393 0.38082 0.0
C4215 C 0.77797 0.85837 0.38514 0.0
H4216 H 0.77385 0.88048 0.39707 0.0
C4217 C 0.77031 0.85961 0.38991 0.0
H4218 H 0.76554 0.85437 0.3902 0.0
H4219 H 0.77912 0.85221 0.38183 0.0
H4220 H 0.89161 0.04095 0.15162 0.0
C4221 C 0.8896 0.04364 0.14537 0.0
C4222 C 0.88456 0.05134 0.1452 0.0
C4223 C 0.89232 0.03965 0.13749 0.0
H4224 H 0.87843 0.06107 0.13703 0.0
C4225 C 0.8822 0.05505 0.13716 0.0
C4226 C 0.8848 0.05118 0.12929 0.0
C4227 C 0.88978 0.04347 0.12947 0.0
C4228 C 0.89819 0.03184 0.13756 0.0
H4229 H 0.89175 0.04052 0.12332 0.0
C4230 C 0.89695 0.02489 0.14354 0.0
C4231 C 0.90252 0.01752 0.14336 0.0
C4232 C 0.90516 0.03132 0.13157 0.0
H4233 H 0.90644 0.03661 0.12702 0.0
C4234 C 0.91068 0.02405 0.13143 0.0
H4235 H 0.89163 0.02511 0.14821 0.0
C4236 C 0.90937 0.01717 0.13727 0.0
H4237 H 0.91372 0.01157 0.13707 0.0
H4238 H 0.91602 0.02376 0.12679 0.0
H4239 H 0.29006 0.64087 0.62128 0.0
C4240 C 0.29283 0.639 0.62753 0.0
C4241 C 0.30005 0.63329 0.62776 0.0
C4242 C 0.28957 0.64269 0.63533 0.0
H4243 H 0.3095 0.62678 0.63596 0.0
C4244 C 0.30385 0.63107 0.6358 0.0
C4245 C 0.30066 0.63464 0.6436 0.0
C4246 C 0.29352 0.6404 0.64336 0.0
C4247 C 0.28264 0.64954 0.63511 0.0
H4248 H 0.29116 0.64323 0.64942 0.0
C4249 C 0.2749 0.64852 0.63015 0.0
C4250 C 0.26846 0.65514 0.63018 0.0
C4251 C 0.28384 0.65729 0.63994 0.0
H4252 H 0.28976 0.65833 0.6437 0.0
C4253 C 0.2775 0.66385 0.63989 0.0
H4254 H 0.27384 0.6426 0.6264 0.0
C4255 C 0.26985 0.66279 0.63506 0.0
H4256 H 0.26497 0.66794 0.63513 0.0
H4257 H 0.27852 0.66979 0.64362 0.0
H4258 H 0.13109 0.54034 0.37058 0.0
C4259 C 0.13315 0.543 0.37682 0.0
C4260 C 0.13864 0.55039 0.37702 0.0
C4261 C 0.12991 0.53942 0.38468 0.0
H4262 H 0.14511 0.55987 0.38521 0.0
C4263 C 0.14102 0.55407 0.38507 0.0
C4264 C 0.13793 0.55055 0.39292 0.0
C4265 C 0.13242 0.54322 0.39272 0.0
C4266 C 0.12321 0.53235 0.38456 0.0
H4267 H 0.12991 0.54062 0.39882 0.0
C4268 C 0.12428 0.52466 0.37952 0.0
C4269 C 0.11779 0.51809 0.37966 0.0
C4270 C 0.11555 0.53338 0.38957 0.0
H4271 H 0.11449 0.53926 0.39339 0.0
C4272 C 0.10912 0.52692 0.38961 0.0
H4273 H 0.13014 0.52373 0.37565 0.0
C4274 C 0.11023 0.51931 0.3847 0.0
H4275 H 0.10518 0.51434 0.38486 0.0
H4276 H 0.10325 0.52781 0.39347 0.0
H4277 H 0.39063 0.48259 0.87068 0.0
C4278 C 0.38868 0.47993 0.87696 0.0
C4279 C 0.3829 0.47277 0.87724 0.0
C4280 C 0.39234 0.48325 0.88474 0.0
H4281 H 0.37622 0.46352 0.88553 0.0
C4282 C 0.38058 0.46912 0.88532 0.0
C4283 C 0.38411 0.47238 0.8931 0.0
C4284 C 0.38996 0.47944 0.89281 0.0
C4285 C 0.39926 0.49011 0.88448 0.0
H4286 H 0.39276 0.48185 0.89886 0.0
C4287 C 0.39832 0.49781 0.87945 0.0
C4288 C 0.40498 0.50421 0.87946 0.0
C4289 C 0.40697 0.48888 0.88935 0.0
H4290 H 0.40795 0.48298 0.89316 0.0
C4291 C 0.41358 0.49517 0.88927 0.0
H4292 H 0.39242 0.49891 0.87568 0.0
C4293 C 0.4126 0.50279 0.88437 0.0
H4294 H 0.41778 0.50762 0.88442 0.0
H4295 H 0.41949 0.49412 0.89303 0.0
H4296 H 0.90114 0.78669 0.63269 0.0
C4297 C 0.895 0.79023 0.63242 0.0
C4298 C 0.89504 0.79918 0.63026 0.0
C4299 C 0.88702 0.78577 0.63362 0.0
H4300 H 0.88714 0.81059 0.62772 0.0
C4301 C 0.88711 0.80373 0.62955 0.0
C4302 C 0.87914 0.79943 0.63082 0.0
C4303 C 0.8791 0.79049 0.63289 0.0
C4304 C 0.88684 0.77608 0.63479 0.0
H4305 H 0.87289 0.78718 0.63373 0.0
C4306 C 0.89265 0.77175 0.64053 0.0
C4307 C 0.89244 0.76254 0.64133 0.0
C4308 C 0.88088 0.77104 0.6299 0.0
H4309 H 0.87644 0.77413 0.62532 0.0
C4310 C 0.88067 0.76195 0.63071 0.0
H4311 H 0.89727 0.77549 0.64439 0.0
C4312 C 0.88641 0.75772 0.63639 0.0
H4313 H 0.88616 0.75065 0.63693 0.0
H4314 H 0.87606 0.75817 0.6269 0.0
H4315 H 0.98645 0.15049 0.38225 0.0
C4316 C 0.9826 0.14454 0.38223 0.0
C4317 C 0.97367 0.14495 0.38001 0.0
C4318 C 0.98664 0.13638 0.38377 0.0
H4319 H 0.96192 0.13754 0.3776 0.0
C4320 C 0.96874 0.13724 0.37953 0.0
C4321 C 0.97261 0.12911 0.38114 0.0
C4322 C 0.9815 0.12871 0.3834 0.0
C4323 C 0.99633 0.13567 0.38479 0.0
H4324 H 0.98445 0.12237 0.38456 0.0
C4325 C 1.00119 0.14158 0.39 0.0
C4326 C 1.01036 0.14067 0.3907 0.0
C4327 C 1.00082 0.12899 0.38028 0.0
H4328 H 0.99735 0.12449 0.37605 0.0
C4329 C 1.00985 0.12811 0.38101 0.0
H4330 H 0.99791 0.14678 0.39353 0.0
C4331 C 0.0146 0.13389 0.38619 0.0
H4332 H 0.02163 0.13312 0.38666 0.0
H4333 H 0.0132 0.12295 0.3775 0.0
H4334 H 0.62283 0.236 0.13189 0.0
C4335 C 0.62874 0.23209 0.1321 0.0
C4336 C 0.62834 0.22316 0.12985 0.0
C4337 C 0.63686 0.23605 0.13399 0.0
H4338 H 0.63573 0.21135 0.12761 0.0
C4339 C 0.63602 0.21816 0.1296 0.0
C4340 C 0.6441 0.22195 0.13156 0.0
C4341 C 0.64448 0.23081 0.13392 0.0
C4342 C 0.63764 0.24574 0.13509 0.0
H4343 H 0.6508 0.23366 0.13539 0.0
C4344 C 0.63138 0.25071 0.13978 0.0
C4345 C 0.63233 0.25988 0.14052 0.0
C4346 C 0.64471 0.25014 0.13113 0.0
H4347 H 0.64949 0.24662 0.12726 0.0
C4348 C 0.64564 0.25917 0.13192 0.0
H4349 H 0.62585 0.24752 0.14285 0.0
C4350 C 0.6395 0.26402 0.13658 0.0
H4351 H 0.6403 0.27105 0.13707 0.0
H4352 H 0.6511 0.26244 0.12883 0.0
H4353 H 0.53641 0.87302 0.88256 0.0
C4354 C 0.54022 0.879 0.88258 0.0
C4355 C 0.54918 0.87864 0.88046 0.0
C4356 C 0.53612 0.88713 0.88413 0.0
H4357 H 0.5609 0.88613 0.87816 0.0
C4358 C 0.55406 0.88639 0.88003 0.0
C4359 C 0.55013 0.89449 0.88163 0.0
C4360 C 0.54123 0.89483 0.88384 0.0
C4361 C 0.52641 0.88779 0.88511 0.0
H4362 H 0.53825 0.90115 0.88503 0.0
C4363 C 0.52151 0.88166 0.89003 0.0
C4364 C 0.51233 0.88248 0.89065 0.0
C4365 C 0.52193 0.89461 0.88081 0.0
H4366 H 0.5254 0.89928 0.87677 0.0
C4367 C 0.51287 0.89541 0.88148 0.0
H4368 H 0.52478 0.87633 0.89337 0.0
C4369 C 0.5081 0.8894 0.88636 0.0
H4370 H 0.50106 0.8901 0.88676 0.0
H4371 H 0.50953 0.90068 0.87813 0.0
H4372 H 0.89929 0.23509 0.89116 0.0
C4373 C 0.89321 0.23168 0.88988 0.0
C4374 C 0.89276 0.22259 0.89102 0.0
C4375 C 0.88564 0.23641 0.8878 0.0
H4376 H 0.88461 0.21125 0.89101 0.0
C4377 C 0.88481 0.21821 0.88968 0.0
C4378 C 0.87716 0.22267 0.88696 0.0
C4379 C 0.87772 0.2319 0.88636 0.0
C4380 C 0.88561 0.24613 0.88816 0.0
H4381 H 0.87215 0.2359 0.88497 0.0
C4382 C 0.89124 0.25126 0.88292 0.0
C4383 C 0.89076 0.26048 0.8833 0.0
C4384 C 0.87969 0.25032 0.89381 0.0
H4385 H 0.87535 0.24653 0.89794 0.0
C4386 C 0.87931 0.25942 0.89425 0.0
H4387 H 0.8958 0.24813 0.87849 0.0
C4388 C 0.88479 0.26448 0.88901 0.0
H4389 H 0.88435 0.27155 0.88938 0.0
H4390 H 0.87473 0.26257 0.89864 0.0
H4391 H 0.53639 0.15064 0.64044 0.0
C4392 C 0.54018 0.14465 0.64042 0.0
C4393 C 0.54918 0.14498 0.64238 0.0
C4394 C 0.53602 0.13652 0.63911 0.0
H4395 H 0.56092 0.13746 0.64453 0.0
C4396 C 0.55404 0.13722 0.6428 0.0
C4397 C 0.55004 0.12911 0.64142 0.0
C4398 C 0.54108 0.12879 0.63945 0.0
C4399 C 0.52631 0.1359 0.63845 0.0
H4400 H 0.53801 0.12247 0.6385 0.0
C4401 C 0.52135 0.14162 0.63311 0.0
C4402 C 0.51215 0.14081 0.63274 0.0
C4403 C 0.5219 0.12952 0.64342 0.0
H4404 H 0.52546 0.12517 0.64773 0.0
C4405 C 0.51283 0.12875 0.64303 0.0
H4406 H 0.52459 0.14658 0.62923 0.0
C4407 C 0.50798 0.13433 0.63772 0.0
H4408 H 0.50093 0.13363 0.63751 0.0
H4409 H 0.50954 0.12381 0.6469 0.0
H4410 H 0.62238 0.78677 0.39001 0.0
C4411 C 0.62834 0.7906 0.38994 0.0
C4412 C 0.62795 0.79957 0.39204 0.0
C4413 C 0.63647 0.78653 0.38835 0.0
H4414 H 0.63539 0.81134 0.3943 0.0
C4415 C 0.63567 0.80449 0.39243 0.0
C4416 C 0.64378 0.80059 0.3908 0.0
C4417 C 0.64414 0.79169 0.38858 0.0
C4418 C 0.63718 0.77681 0.3874 0.0
H4419 H 0.65047 0.78874 0.38734 0.0
C4420 C 0.63098 0.77184 0.38263 0.0
C4421 C 0.63184 0.76265 0.38205 0.0
C4422 C 0.64411 0.77238 0.39158 0.0
H4423 H 0.64883 0.7759 0.39551 0.0
C4424 C 0.64496 0.76333 0.39093 0.0
H4425 H 0.62555 0.77505 0.37939 0.0
C4426 C 0.63888 0.75849 0.3862 0.0
H4427 H 0.63961 0.75144 0.38583 0.0
H4428 H 0.65032 0.76004 0.39418 0.0
H4429 H 0.98624 0.87216 0.1401 0.0
C4430 C 0.98245 0.87815 0.13994 0.0
C4431 C 0.97351 0.8779 0.14212 0.0
C4432 C 0.98658 0.88622 0.13816 0.0
H4433 H 0.96183 0.88552 0.14428 0.0
C4434 C 0.96866 0.88569 0.14237 0.0
C4435 C 0.97262 0.89372 0.14054 0.0
C4436 C 0.98151 0.89394 0.13826 0.0
C4437 C 0.99629 0.88681 0.13715 0.0
H4438 H 0.98451 0.90022 0.1369 0.0
C4439 C 1.00115 0.88056 0.13234 0.0
C4440 C 1.01033 0.88134 0.13167 0.0
C4441 C 1.0008 0.89369 0.14131 0.0
H4442 H 0.99735 0.89846 0.14527 0.0
C4443 C 1.00985 0.89445 0.1406 0.0
H4444 H 0.99787 0.87518 0.12911 0.0
C4445 C 0.01459 0.88833 0.13581 0.0
H4446 H 0.02164 0.889 0.13537 0.0
H4447 H 0.01321 0.89978 0.14384 0.0
H4448 H 0.6331 0.9005 0.7868 0.0
C4449 C 0.6332 0.89457 0.79068 0.0
C4450 C 0.63105 0.89499 0.79963 0.0
C4451 C 0.63488 0.88642 0.78666 0.0
H4452 H 0.62877 0.8876 0.81142 0.0
C4453 C 0.63069 0.88729 0.80459 0.0
C4454 C 0.63239 0.87917 0.80074 0.0
C4455 C 0.63467 0.87877 0.79186 0.0
C4456 C 0.6359 0.88566 0.77697 0.0
H4457 H 0.63595 0.87243 0.78896 0.0
C4458 C 0.64074 0.8918 0.77201 0.0
C4459 C 0.64141 0.89088 0.76283 0.0
C4460 C 0.63172 0.87872 0.77255 0.0
H4461 H 0.62774 0.87404 0.77606 0.0
C4462 C 0.63244 0.87782 0.76351 0.0
H4463 H 0.64398 0.89723 0.77521 0.0
C4464 C 0.63726 0.88384 0.75868 0.0
H4465 H 0.63769 0.88305 0.75164 0.0
H4466 H 0.62919 0.87245 0.76022 0.0
H4467 H 0.87307 0.88265 0.53691 0.0
C4468 C 0.87897 0.88288 0.54083 0.0
C4469 C 0.87851 0.88083 0.5498 0.0
C4470 C 0.88713 0.88462 0.53686 0.0
H4471 H 0.88584 0.87878 0.56167 0.0
C4472 C 0.88617 0.88063 0.55483 0.0
C4473 C 0.89429 0.88238 0.55103 0.0
C4474 C 0.89473 0.88456 0.54212 0.0
C4475 C 0.88794 0.88553 0.52716 0.0
H4476 H 0.90107 0.88589 0.53925 0.0
C4477 C 0.88175 0.89022 0.5221 0.0
C4478 C 0.88273 0.89078 0.51292 0.0
C4479 C 0.89497 0.8814 0.52284 0.0
H4480 H 0.89969 0.87753 0.52643 0.0
C4481 C 0.89592 0.88202 0.5138 0.0
H4482 H 0.87625 0.89342 0.52523 0.0
C4483 C 0.88986 0.88668 0.50887 0.0
H4484 H 0.89068 0.88703 0.50183 0.0
H4485 H 0.90136 0.8788 0.51059 0.0
H4486 H 0.88158 0.12243 0.29011 0.0
C4487 C 0.88362 0.1286 0.29295 0.0
C4488 C 0.88903 0.12859 0.30041 0.0
C4489 C 0.88049 0.13657 0.2895 0.0
H4490 H 0.89547 0.13651 0.31013 0.0
C4491 C 0.89143 0.13653 0.3043 0.0
C4492 C 0.88846 0.14449 0.30091 0.0
C4493 C 0.88306 0.1445 0.29349 0.0
C4494 C 0.87396 0.13669 0.28225 0.0
H4495 H 0.88071 0.1507 0.29096 0.0
C4496 C 0.87492 0.13144 0.27469 0.0
C4497 C 0.86868 0.1319 0.26789 0.0
C4498 C 0.8666 0.14218 0.28295 0.0
H4499 H 0.86556 0.14615 0.28873 0.0
C4500 C 0.86041 0.14256 0.27626 0.0
H4501 H 0.88055 0.12718 0.27399 0.0
C4502 C 0.86146 0.13749 0.26876 0.0
H4503 H 0.85661 0.1379 0.26361 0.0
H4504 H 0.85478 0.14682 0.27689 0.0
H4505 H 0.65041 0.14009 0.03659 0.0
C4506 C 0.6443 0.14028 0.04017 0.0
C4507 C 0.64437 0.14247 0.04911 0.0
C4508 C 0.6363 0.13891 0.03578 0.0
H4509 H 0.63652 0.14496 0.06056 0.0
C4510 C 0.63647 0.1431 0.05371 0.0
C4511 C 0.62848 0.14168 0.04949 0.0
C4512 C 0.62842 0.1395 0.04057 0.0
C4513 C 0.63607 0.13769 0.02609 0.0
H4514 H 0.6222 0.13847 0.03733 0.0
C4515 C 0.64204 0.13215 0.02171 0.0
C4516 C 0.64177 0.13132 0.01251 0.0
C4517 C 0.62988 0.14235 0.02111 0.0
H4518 H 0.62531 0.1468 0.02422 0.0
C4519 C 0.62961 0.14151 0.01203 0.0
H4520 H 0.64684 0.12846 0.02541 0.0
C4521 C 0.63551 0.13604 1.00775 0.0
H4522 H 0.63521 0.13547 1.00069 0.0
H4523 H 0.62483 0.14515 1.00829 0.0
H4524 H 0.63223 0.12286 0.73611 0.0
C4525 C 0.63234 0.12883 0.73228 0.0
C4526 C 0.63019 0.1285 0.72333 0.0
C4527 C 0.63396 0.13695 0.73637 0.0
H4528 H 0.62796 0.13601 0.7116 0.0
C4529 C 0.62985 0.13625 0.71844 0.0
C4530 C 0.63155 0.14433 0.72237 0.0
C4531 C 0.63373 0.14465 0.73127 0.0
C4532 C 0.63482 0.13761 0.74607 0.0
H4533 H 0.63493 0.15096 0.73428 0.0
C4534 C 0.64003 0.13173 0.75098 0.0
C4535 C 0.64059 0.1326 0.76017 0.0
C4536 C 0.63016 0.1442 0.75053 0.0
H4537 H 0.62594 0.14868 0.74701 0.0
C4538 C 0.63075 0.14504 0.75958 0.0
H4539 H 0.64366 0.12659 0.74771 0.0
C4540 C 0.63594 0.1393 0.76437 0.0
H4541 H 0.6363 0.14005 0.77142 0.0
H4542 H 0.62712 0.15014 0.7629 0.0
H4543 H 0.64923 0.8831 0.48598 0.0
C4544 C 0.64329 0.88318 0.48212 0.0
C4545 C 0.64371 0.88101 0.47318 0.0
C4546 C 0.63515 0.88485 0.48614 0.0
H4547 H 0.63631 0.87871 0.46139 0.0
C4548 C 0.63601 0.88063 0.46822 0.0
C4549 C 0.62789 0.88235 0.47207 0.0
C4550 C 0.6275 0.88463 0.48095 0.0
C4551 C 0.63442 0.8859 0.49584 0.0
H4552 H 0.62117 0.88594 0.48385 0.0
C4553 C 0.64064 0.89065 0.50079 0.0
C4554 C 0.63977 0.89132 0.50996 0.0
C4555 C 0.62744 0.88183 0.50028 0.0
H4556 H 0.62268 0.87791 0.49679 0.0
C4557 C 0.62657 0.88256 0.50933 0.0
H4558 H 0.64611 0.89381 0.49757 0.0
C4559 C 0.63268 0.88727 0.51414 0.0
H4560 H 0.63194 0.88771 0.52118 0.0
H4561 H 0.62117 0.87939 0.51263 0.0
H4562 H 0.89167 0.89974 0.23522 0.0
C4563 C 0.8904 0.8937 0.23171 0.0
C4564 C 0.89142 0.89344 0.2226 0.0
C4565 C 0.88857 0.88599 0.23632 0.0
H4566 H 0.8913 0.88554 0.21111 0.0
C4567 C 0.89003 0.88557 0.21808 0.0
C4568 C 0.88744 0.87781 0.22241 0.0
C4569 C 0.88723 0.87813 0.23168 0.0
C4570 C 0.8891 0.88581 0.24603 0.0
H4571 H 0.88633 0.87238 0.23557 0.0
C4572 C 0.8838 0.89122 0.25135 0.0
C4573 C 0.88435 0.89062 0.26055 0.0
C4574 C 0.89498 0.87997 0.25002 0.0
H4575 H 0.89916 0.87581 0.24609 0.0
C4576 C 0.89558 0.87947 0.2591 0.0
H4577 H 0.87919 0.89571 0.24837 0.0
C4578 C 0.89029 0.88473 0.26434 0.0
H4579 H 0.8908 0.88419 0.27139 0.0
H4580 H 0.90015 0.87496 0.2621 0.0
H4581 H 0.87232 0.14062 0.98622 0.0
C4582 C 0.87828 0.14039 0.98239 0.0
C4583 C 0.87796 0.14252 0.97343 0.0
C4584 C 0.88636 0.13858 0.98646 0.0
H4585 H 0.88548 0.1446 0.96169 0.0
C4586 C 0.8857 0.14271 0.96852 0.0
C4587 C 0.89375 0.14086 0.97243 0.0
C4588 C 0.89404 0.13862 0.98132 0.0
C4589 C 0.88702 0.1376 0.99617 0.0
H4590 H 0.90033 0.13723 0.98428 0.0
C4591 C 0.88077 0.13287 1.00109 0.0
C4592 C 0.88161 0.13221 1.01027 0.0
C4593 C 0.89398 0.14169 1.00062 0.0
H4594 H 0.89876 0.14558 0.99713 0.0
C4595 C 0.89481 0.14098 1.00967 0.0
H4596 H 0.87532 0.1297 0.99785 0.0
C4597 C 0.88868 0.13628 0.01447 0.0
H4598 H 0.88939 0.13586 0.02151 0.0
H4599 H 0.90019 0.14417 0.01298 0.0
H4600 H 0.78633 0.63268 0.90056 0.0
C4601 C 0.79013 0.63286 0.89458 0.0
C4602 C 0.79909 0.63072 0.89486 0.0
C4603 C 0.78601 0.6346 0.88651 0.0
H4604 H 0.81079 0.62861 0.88728 0.0
C4605 C 0.80395 0.63049 0.88709 0.0
C4606 C 0.8 0.63229 0.87905 0.0
C4607 C 0.7911 0.6345 0.87879 0.0
C4608 C 0.7763 0.63556 0.88589 0.0
H4609 H 0.7881 0.63584 0.87251 0.0
C4610 C 0.77141 0.64043 0.89207 0.0
C4611 C 0.76222 0.64107 0.89126 0.0
C4612 C 0.77182 0.63131 0.87905 0.0
H4613 H 0.7753 0.62732 0.87433 0.0
C4614 C 0.76277 0.63198 0.87826 0.0
H4615 H 0.77468 0.64374 0.89742 0.0
C4616 C 0.75799 0.63683 0.88431 0.0
H4617 H 0.75095 0.63723 0.88362 0.0
H4618 H 0.75943 0.62866 0.87297 0.0
H4619 H 0.28527 0.89051 0.12304 0.0
C4620 C 0.28921 0.89044 0.12893 0.0
C4621 C 0.29805 0.89301 0.12844 0.0
C4622 C 0.2854 0.88839 0.13708 0.0
H4623 H 0.3098 0.89571 0.13574 0.0
C4624 C 0.30308 0.89347 0.13608 0.0
C4625 C 0.29945 0.89134 0.14419 0.0
C4626 C 0.29071 0.8886 0.14465 0.0
C4627 C 0.27576 0.88694 0.13794 0.0
H4628 H 0.28799 0.88699 0.15099 0.0
C4629 C 0.27087 0.88225 0.13162 0.0
C4630 C 0.26175 0.88123 0.13263 0.0
C4631 C 0.2713 0.8906 0.14515 0.0
H4632 H 0.27473 0.89447 0.14999 0.0
C4633 C 0.26231 0.88951 0.14614 0.0
H4634 H 0.2741 0.87941 0.12599 0.0
C4635 C 0.25756 0.88486 0.13994 0.0
H4636 H 0.25056 0.88415 0.14078 0.0
H4637 H 0.259 0.89237 0.15172 0.0
H4638 H 0.88119 0.53838 0.87284 0.0
C4639 C 0.8824 0.54194 0.87886 0.0
C4640 C 0.88142 0.55105 0.87904 0.0
C4641 C 0.8841 0.53738 0.88663 0.0
H4642 H 0.88147 0.5626 0.88684 0.0
C4643 C 0.88275 0.55563 0.88688 0.0
C4644 C 0.88527 0.55136 0.8947 0.0
C4645 C 0.88535 0.54209 0.89447 0.0
C4646 C 0.88355 0.52766 0.88687 0.0
H4647 H 0.88605 0.53824 0.9003 0.0
C4648 C 0.88879 0.52232 0.88144 0.0
C4649 C 0.88822 0.51311 0.88206 0.0
C4650 C 0.87769 0.5237 0.89275 0.0
H4651 H 0.87354 0.52766 0.89692 0.0
C4652 C 0.87707 0.51462 0.89327 0.0
H4653 H 0.89338 0.52526 0.87692 0.0
C4654 C 0.88232 0.50935 0.888 0.0
H4655 H 0.8818 0.5023 0.88855 0.0
H4656 H 0.87253 0.51165 0.89782 0.0
H4657 H 0.23677 0.13159 0.62353 0.0
C4658 C 0.23279 0.13174 0.62939 0.0
C4659 C 0.22398 0.1291 0.62889 0.0
C4660 C 0.23652 0.13399 0.63753 0.0
H4661 H 0.2122 0.12642 0.63615 0.0
C4662 C 0.2189 0.12873 0.6365 0.0
C4663 C 0.22245 0.13104 0.6446 0.0
C4664 C 0.23116 0.13387 0.64506 0.0
C4665 C 0.24614 0.13558 0.63842 0.0
H4666 H 0.23381 0.13565 0.65139 0.0
C4667 C 0.25103 0.14008 0.63197 0.0
C4668 C 0.26014 0.14122 0.63299 0.0
C4669 C 0.25059 0.13223 0.64578 0.0
H4670 H 0.24717 0.12849 0.65073 0.0
C4671 C 0.25956 0.13346 0.6468 0.0
H4672 H 0.24783 0.14268 0.62621 0.0
C4673 C 0.26431 0.13792 0.64045 0.0
H4674 H 0.2713 0.13872 0.64131 0.0
H4675 H 0.26285 0.13084 0.65249 0.0
H4676 H 0.14028 0.98608 0.8726 0.0
C4677 C 0.14029 0.98228 0.87858 0.0
C4678 C 0.14222 0.97328 0.87823 0.0
C4679 C 0.13905 0.98646 0.88672 0.0
H4680 H 0.14442 0.96153 0.88573 0.0
C4681 C 0.1427 0.96842 0.88599 0.0
C4682 C 0.14139 0.97243 0.89411 0.0
C4683 C 0.13942 0.9814 0.89444 0.0
C4684 C 0.13843 0.99619 0.88735 0.0
H4685 H 0.13852 0.98447 0.90077 0.0
C4686 C 0.13316 1.0012 0.88161 0.0
C4687 C 0.13286 1.0104 0.88243 0.0
C4688 C 0.1434 1.00056 0.89376 0.0
H4689 H 0.14768 0.99697 0.89812 0.0
C4690 C 0.14307 1.00964 0.89455 0.0
H4691 H 0.12929 0.99799 0.87662 0.0
C4692 C 0.13782 0.01453 0.88895 0.0
H4693 H 0.13767 0.02159 0.88966 0.0
H4694 H 0.14693 0.0129 0.89951 0.0
H4695 H 0.73646 0.39125 0.39971 0.0
C4696 C 0.73262 0.39108 0.39376 0.0
C4697 C 0.72366 0.3932 0.3941 0.0
C4698 C 0.7367 0.38942 0.38564 0.0
H4699 H 0.71191 0.39535 0.38661 0.0
C4700 C 0.71875 0.39348 0.38637 0.0
C4701 C 0.72266 0.39173 0.37828 0.0
C4702 C 0.73157 0.38957 0.37796 0.0
C4703 C 0.7464 0.38853 0.38497 0.0
H4704 H 0.73456 0.38832 0.37165 0.0
C4705 C 0.75132 0.38342 0.39092 0.0
C4706 C 0.7605 0.38283 0.39004 0.0
C4707 C 0.75083 0.39307 0.37829 0.0
H4708 H 0.74731 0.39723 0.37376 0.0
C4709 C 0.75988 0.39247 0.37745 0.0
H4710 H 0.74807 0.37988 0.39612 0.0
C4711 C 0.76469 0.38737 0.38326 0.0
H4712 H 0.77173 0.38699 0.3825 0.0
H4713 H 0.76319 0.396 0.37228 0.0
H4714 H 0.89117 0.4826 0.65029 0.0
C4715 C 0.88911 0.4798 0.64411 0.0
C4716 C 0.88355 0.47247 0.64407 0.0
C4717 C 0.89239 0.48318 0.63617 0.0
H4718 H 0.87691 0.46291 0.63609 0.0
C4719 C 0.88109 0.46865 0.63611 0.0
C4720 C 0.88424 0.47195 0.62819 0.0
C4721 C 0.88983 0.47923 0.62822 0.0
C4722 C 0.89905 0.4903 0.63611 0.0
H4723 H 0.8923 0.48169 0.62205 0.0
C4724 C 0.89814 0.49791 0.6413 0.0
C4725 C 0.90449 0.50461 0.64089 0.0
C4726 C 0.90647 0.48946 0.63072 0.0
H4727 H 0.90746 0.48364 0.6268 0.0
C4728 C 0.91277 0.49604 0.6304 0.0
H4729 H 0.89247 0.49872 0.64548 0.0
C4730 C 0.91177 0.50359 0.63541 0.0
H4731 H 0.9167 0.50867 0.63503 0.0
H4732 H 0.91844 0.4953 0.62622 0.0
H4733 H 0.64039 0.53696 0.15065 0.0
C4734 C 0.64048 0.54072 0.14464 0.0
C4735 C 0.64247 0.54971 0.14495 0.0
C4736 C 0.63925 0.53651 0.13652 0.0
H4737 H 0.64483 0.56138 0.13739 0.0
C4738 C 0.64305 0.55452 0.13716 0.0
C4739 C 0.64175 0.55046 0.12907 0.0
C4740 C 0.63973 0.54152 0.12877 0.0
C4741 C 0.63852 0.52678 0.13595 0.0
H4742 H 0.63886 0.53841 0.12245 0.0
C4743 C 0.63313 0.52189 0.14166 0.0
C4744 C 0.6327 0.51269 0.14089 0.0
C4745 C 0.6435 0.5223 0.12962 0.0
H4746 H 0.64787 0.5258 0.12528 0.0
C4747 C 0.64305 0.51322 0.12888 0.0
H4748 H 0.62924 0.52519 0.14659 0.0
C4749 C 0.63768 0.50844 0.13445 0.0
H4750 H 0.63742 0.50139 0.13378 0.0
H4751 H 0.64692 0.50987 0.12398 0.0
H4752 H 0.62005 0.73214 0.88152 0.0
C4753 C 0.62634 0.72958 0.88356 0.0
C4754 C 0.62668 0.72245 0.88937 0.0
C4755 C 0.63411 0.73301 0.87997 0.0
H4756 H 0.63505 0.7133 0.8961 0.0
C4757 C 0.6348 0.71891 0.89175 0.0
C4758 C 0.64256 0.72226 0.88827 0.0
C4759 C 0.64221 0.72931 0.88241 0.0
C4760 C 0.63382 0.73983 0.87302 0.0
H4761 H 0.64823 0.73178 0.87962 0.0
C4762 C 0.62893 0.74762 0.87401 0.0
C4763 C 0.62896 0.75399 0.86733 0.0
C4764 C 0.63854 0.73848 0.86524 0.0
H4765 H 0.64225 0.73251 0.86424 0.0
C4766 C 0.63846 0.74473 0.8586 0.0
H4767 H 0.62528 0.74879 0.87997 0.0
C4768 C 0.63372 0.75245 0.85963 0.0
H4769 H 0.63378 0.75727 0.85444 0.0
H4770 H 0.64211 0.7436 0.85264 0.0
H4771 H 0.54002 0.37045 0.13191 0.0
C4772 C 0.54266 0.37674 0.13385 0.0
C4773 C 0.54977 0.37707 0.13969 0.0
C4774 C 0.53935 0.3845 0.13012 0.0
H4775 H 0.55896 0.38541 0.14639 0.0
C4776 C 0.55339 0.38517 0.14199 0.0
C4777 C 0.55014 0.39293 0.13839 0.0
C4778 C 0.54312 0.39259 0.13249 0.0
C4779 C 0.53257 0.38419 0.12314 0.0
H4780 H 0.54073 0.39862 0.12962 0.0
C4781 C 0.52483 0.37923 0.12407 0.0
C4782 C 0.5185 0.3792 0.11735 0.0
C4783 C 0.5339 0.38896 0.11538 0.0
H4784 H 0.53983 0.39271 0.11442 0.0
C4785 C 0.52768 0.38884 0.10871 0.0
H4786 H 0.52366 0.37554 0.13001 0.0
C4787 C 0.52002 0.38401 0.10969 0.0
H4788 H 0.51523 0.38404 0.10446 0.0
H4789 H 0.52881 0.39252 0.10277 0.0
H4790 H 0.90247 0.29096 0.38141 0.0
C4791 C 0.89621 0.2936 0.38343 0.0
C4792 C 0.89594 0.30077 0.3892 0.0
C4793 C 0.8884 0.29022 0.37986 0.0
H4794 H 0.88768 0.31011 0.39582 0.0
C4795 C 0.88787 0.30446 0.39152 0.0
C4796 C 0.88007 0.30114 0.3881 0.0
C4797 C 0.88034 0.29401 0.38232 0.0
C4798 C 0.88863 0.28339 0.37292 0.0
H4799 H 0.87428 0.29157 0.37957 0.0
C4800 C 0.89367 0.27568 0.37379 0.0
C4801 C 0.89363 0.26932 0.36708 0.0
C4802 C 0.88371 0.28465 0.36524 0.0
H4803 H 0.87989 0.29055 0.36432 0.0
C4804 C 0.88376 0.2784 0.3586 0.0
H4805 H 0.89748 0.27456 0.37966 0.0
C4806 C 0.88867 0.27077 0.35951 0.0
H4807 H 0.88859 0.26596 0.3543 0.0
H4808 H 0.87996 0.27947 0.35272 0.0
H4809 H 0.98132 0.65176 0.63139 0.0
C4810 C 0.97856 0.64553 0.63336 0.0
C4811 C 0.9712 0.64538 0.63889 0.0
C4812 C 0.98199 0.63765 0.62998 0.0
H4813 H 0.96161 0.63726 0.64529 0.0
C4814 C 0.96739 0.63736 0.64117 0.0
C4815 C 0.97076 0.62949 0.63793 0.0
C4816 C 0.97807 0.62965 0.63239 0.0
C4817 C 0.98905 0.63775 0.62326 0.0
H4818 H 0.98056 0.62353 0.62979 0.0
C4819 C 0.99673 0.6428 0.62428 0.0
C4820 C 1.00329 0.64264 0.61778 0.0
C4821 C 0.98803 0.63271 0.61562 0.0
H4822 H 0.98216 0.62888 0.61456 0.0
C4823 C 0.99448 0.63263 0.60918 0.0
H4824 H 0.99766 0.64671 0.63012 0.0
C4825 C 1.00208 0.63755 0.61025 0.0
H4826 H 1.00704 0.63738 0.60519 0.0
H4827 H 0.9936 0.62874 0.60333 0.0
H4828 H 0.62059 0.29108 0.64124 0.0
C4829 C 0.62686 0.29366 0.63917 0.0
C4830 C 0.62715 0.30076 0.63332 0.0
C4831 C 0.63466 0.29028 0.64275 0.0
H4832 H 0.63545 0.30992 0.62653 0.0
C4833 C 0.63524 0.30433 0.6309 0.0
C4834 C 0.64303 0.30102 0.63437 0.0
C4835 C 0.64273 0.294 0.64027 0.0
C4836 C 0.63442 0.28347 0.64971 0.0
H4837 H 0.64878 0.29157 0.64305 0.0
C4838 C 0.6295 0.27571 0.64878 0.0
C4839 C 0.62956 0.26934 0.65547 0.0
C4840 C 0.63923 0.28481 0.65745 0.0
H4841 H 0.64296 0.29076 0.6584 0.0
C4842 C 0.63919 0.27856 0.66409 0.0
H4843 H 0.62579 0.27454 0.64286 0.0
C4844 C 0.6344 0.27086 0.66311 0.0
H4845 H 0.63449 0.26605 0.66832 0.0
H4846 H 0.6429 0.27968 0.67001 0.0
H4847 H 0.98142 0.37064 0.89114 0.0
C4848 C 0.97871 0.3769 0.88923 0.0
C4849 C 0.97143 0.37716 0.88359 0.0
C4850 C 0.98208 0.38471 0.8928 0.0
H4851 H 0.96195 0.38542 0.87719 0.0
C4852 C 0.96767 0.38523 0.88139 0.0
C4853 C 0.97098 0.39304 0.88483 0.0
C4854 C 0.9782 0.39276 0.89049 0.0
C4855 C 0.98904 0.38447 0.89961 0.0
H4856 H 0.98064 0.39882 0.89326 0.0
C4857 C 0.99679 0.37954 0.89851 0.0
C4858 C 1.00327 0.37956 0.90509 0.0
C4859 C 0.98786 0.38925 0.90739 0.0
H4860 H 0.98193 0.39298 0.90848 0.0
C4861 C 0.99422 0.38917 0.91392 0.0
H4862 H 0.99785 0.37584 0.89255 0.0
C4863 C 1.00189 0.38437 0.91278 0.0
H4864 H 1.00679 0.38443 0.9179 0.0
H4865 H 0.99321 0.39286 0.91988 0.0
H4866 H 0.90224 0.73318 0.14004 0.0
C4867 C 0.89597 0.7305 0.13812 0.0
C4868 C 0.89568 0.72337 0.13229 0.0
C4869 C 0.8882 0.73376 0.14186 0.0
H4870 H 0.8874 0.7141 0.12562 0.0
C4871 C 0.88761 0.71968 0.13001 0.0
C4872 C 0.87984 0.72288 0.13362 0.0
C4873 C 0.88014 0.72992 0.13951 0.0
C4874 C 0.88846 0.74054 0.14886 0.0
H4875 H 0.8741 0.73227 0.14239 0.0
C4876 C 0.89339 0.74832 0.14797 0.0
C4877 C 0.89337 0.75463 0.15471 0.0
C4878 C 0.8837 0.73916 0.15662 0.0
H4879 H 0.87997 0.7332 0.15756 0.0
C4880 C 0.88377 0.74536 0.1633 0.0
H4881 H 0.89708 0.74952 0.14204 0.0
C4882 C 0.88855 0.75306 0.16236 0.0
H4883 H 0.88849 0.75783 0.16761 0.0
H4884 H 0.88009 0.7442 0.16924 0.0
H4885 H 0.54178 0.65202 0.39135 0.0
C4886 C 0.54379 0.6455 0.3894 0.0
C4887 C 0.55092 0.64443 0.38368 0.0
C4888 C 0.5396 0.63813 0.39299 0.0
H4889 H 0.55939 0.63515 0.3772 0.0
C4890 C 0.55379 0.63598 0.38148 0.0
C4891 C 0.5496 0.62859 0.38491 0.0
C4892 C 0.54247 0.6297 0.3906 0.0
C4893 C 0.53294 0.63908 0.4 0.0
H4894 H 0.53933 0.62398 0.39338 0.0
C4895 C 0.5252 0.64397 0.39878 0.0
C4896 C 0.51891 0.64445 0.40553 0.0
C4897 C 0.53437 0.63488 0.40806 0.0
H4898 H 0.54029 0.63115 0.40918 0.0
C4899 C 0.52822 0.6355 0.41477 0.0
H4900 H 0.52397 0.64719 0.39258 0.0
C4901 C 0.52053 0.64023 0.41352 0.0
H4902 H 0.51579 0.64056 0.41878 0.0
H4903 H 0.52941 0.63225 0.42095 0.0
H4904 H 0.88116 0.62149 0.73179 0.0
C4905 C 0.88306 0.62772 0.72901 0.0
C4906 C 0.88864 0.62791 0.72169 0.0
C4907 C 0.87954 0.63556 0.73236 0.0
H4908 H 0.89509 0.63608 0.71217 0.0
C4909 C 0.89088 0.63594 0.71788 0.0
C4910 C 0.88751 0.64378 0.72119 0.0
C4911 C 0.88187 0.64358 0.72842 0.0
C4912 C 0.87278 0.63542 0.73937 0.0
H4913 H 0.87915 0.64967 0.73086 0.0
C4914 C 0.87397 0.6307 0.74723 0.0
C4915 C 0.86749 0.63092 0.7538 0.0
C4916 C 0.86497 0.64014 0.73814 0.0
H4917 H 0.86381 0.64371 0.73213 0.0
C4918 C 0.85853 0.64025 0.7446 0.0
H4919 H 0.87996 0.62707 0.74832 0.0
C4920 C 0.85978 0.6357 0.75239 0.0
H4921 H 0.85474 0.63593 0.75737 0.0
H4922 H 0.85255 0.6439 0.74356 0.0
H4923 H 0.65216 0.63138 0.98124 0.0
C4924 C 0.64588 0.63337 0.97863 0.0
C4925 C 0.64556 0.63927 0.97157 0.0
C4926 C 0.63812 0.62965 0.98192 0.0
H4927 H 0.63723 0.64603 0.96241 0.0
C4928 C 0.63747 0.64161 0.96795 0.0
C4929 C 0.6297 0.638 0.97118 0.0
C4930 C 0.63004 0.63205 0.97815 0.0
C4931 C 0.6384 0.62266 0.98868 0.0
H4932 H 0.62401 0.62917 0.98053 0.0
C4933 C 0.64314 0.62367 0.99655 0.0
C4934 C 0.64303 0.61698 1.00292 0.0
C4935 C 0.63377 0.61484 0.98723 0.0
H4936 H 0.63017 0.61383 0.9812 0.0
C4937 C 0.63377 0.60819 0.99348 0.0
H4938 H 0.6467 0.62967 0.99781 0.0
C4939 C 0.63834 0.60926 1.00129 0.0
H4940 H 0.6382 0.60407 1.00612 0.0
H4941 H 0.63019 0.60221 0.99228 0.0
H4942 H 0.64096 0.40237 0.23124 0.0
C4943 C 0.63899 0.39613 0.22852 0.0
C4944 C 0.63332 0.39593 0.22127 0.0
C4945 C 0.64251 0.38829 0.23187 0.0
H4946 H 0.62679 0.38774 0.21182 0.0
C4947 C 0.63103 0.38788 0.2175 0.0
C4948 C 0.6344 0.38005 0.22081 0.0
C4949 C 0.64011 0.38026 0.228 0.0
C4950 C 0.64934 0.38844 0.23879 0.0
H4951 H 0.64283 0.37418 0.23043 0.0
C4952 C 0.64821 0.39313 0.24668 0.0
C4953 C 0.65476 0.39291 0.25318 0.0
C4954 C 0.65715 0.38374 0.23747 0.0
H4955 H 0.65825 0.38019 0.23143 0.0
C4956 C 0.66366 0.38364 0.24385 0.0
H4957 H 0.64222 0.39674 0.24785 0.0
C4958 C 0.66247 0.38816 0.25168 0.0
H4959 H 0.66756 0.38793 0.25661 0.0
H4960 H 0.66963 0.38001 0.24274 0.0
H4961 H 0.87015 0.39146 0.48166 0.0
C4962 C 0.87642 0.38941 0.47905 0.0
C4963 C 0.87669 0.38364 0.47187 0.0
C4964 C 0.88423 0.39291 0.48248 0.0
H4965 H 0.88496 0.37697 0.46259 0.0
C4966 C 0.88476 0.38127 0.46824 0.0
C4967 C 0.89257 0.38463 0.47161 0.0
C4968 C 0.89229 0.3904 0.47875 0.0
C4969 C 0.88402 0.39985 0.48933 0.0
H4970 H 0.89836 0.3931 0.48123 0.0
C4971 C 0.87895 0.39899 0.49701 0.0
C4972 C 0.87901 0.40568 0.50339 0.0
C4973 C 0.88897 0.40751 0.48809 0.0
H4974 H 0.89281 0.40841 0.4822 0.0
C4975 C 0.88894 0.41414 0.49435 0.0
H4976 H 0.87511 0.39313 0.49811 0.0
C4977 C 0.88401 0.41324 0.50196 0.0
H4978 H 0.88411 0.41844 0.50678 0.0
H4979 H 0.89276 0.42001 0.4933 0.0
H4980 H 0.88144 0.403 0.79126 0.0
C4981 C 0.88344 0.39668 0.79379 0.0
C4982 C 0.88924 0.39627 0.80093 0.0
C4983 C 0.87982 0.38895 0.79032 0.0
H4984 H 0.8959 0.38781 0.81005 0.0
C4985 C 0.89157 0.38812 0.80443 0.0
C4986 C 0.88805 0.38039 0.80104 0.0
C4987 C 0.8822 0.38082 0.79399 0.0
C4988 C 0.87287 0.38931 0.78352 0.0
H4989 H 0.87935 0.37482 0.79149 0.0
C4990 C 0.87399 0.39399 0.77564 0.0
C4991 C 0.86734 0.39393 0.76923 0.0
C4992 C 0.86499 0.38478 0.78496 0.0
H4993 H 0.86391 0.38123 0.79099 0.0
C4994 C 0.85838 0.38485 0.77867 0.0
H4995 H 0.88004 0.39746 0.77439 0.0
C4996 C 0.85955 0.38935 0.77084 0.0
H4997 H 0.85439 0.38925 0.76599 0.0
H4998 H 0.85234 0.38134 0.77986 0.0
H4999 H 0.87004 0.63185 0.04031 0.0
C5000 C 0.87628 0.63389 0.04297 0.0
C5001 C 0.87649 0.63957 0.05022 0.0
C5002 C 0.88412 0.63045 0.03953 0.0
H5003 H 0.88469 0.64617 0.05961 0.0
C5004 C 0.88454 0.64194 0.05391 0.0
C5005 C 0.89237 0.63864 0.05054 0.0
C5006 C 0.89216 0.63295 0.04334 0.0
C5007 C 0.88398 0.62359 0.03262 0.0
H5008 H 0.89825 0.63029 0.04085 0.0
C5009 C 0.87896 0.62451 0.0249 0.0
C5010 C 0.8791 0.61788 0.01846 0.0
C5011 C 0.88895 0.61592 0.03381 0.0
H5012 H 0.89274 0.61496 0.03972 0.0
C5013 C 0.88899 0.60935 0.02748 0.0
H5014 H 0.87511 0.63037 0.02384 0.0
C5015 C 0.88412 0.61032 0.01985 0.0
H5016 H 0.88427 0.60517 0.01497 0.0
H5017 H 0.89283 0.60349 0.0285 0.0
H5018 H 0.64041 0.62018 0.2915 0.0
C5019 C 0.63851 0.6265 0.2941 0.0
C5020 C 0.63264 0.62694 0.30118 0.0
C5021 C 0.64234 0.6342 0.29078 0.0
H5022 H 0.62605 0.63543 0.31034 0.0
C5023 C 0.63044 0.6351 0.30477 0.0
C5024 C 0.63417 0.64279 0.30152 0.0
C5025 C 0.6401 0.64233 0.29453 0.0
C5026 C 0.64935 0.63378 0.28405 0.0
H5027 H 0.64311 0.6483 0.29215 0.0
C5028 C 0.64816 0.62935 0.27603 0.0
C5029 C 0.65487 0.62935 0.26969 0.0
C5030 C 0.65735 0.638 0.28568 0.0
H5031 H 0.65847 0.64137 0.29182 0.0
C5032 C 0.66402 0.63788 0.27946 0.0
H5033 H 0.64201 0.62611 0.27463 0.0
C5034 C 0.66279 0.63362 0.2715 0.0
H5035 H 0.66801 0.63367 0.2667 0.0
H5036 H 0.67016 0.64115 0.2808 0.0
H5037 H 0.65183 0.39179 0.54114 0.0
C5038 C 0.64556 0.3897 0.5437 0.0
C5039 C 0.64527 0.3838 0.55076 0.0
C5040 C 0.63776 0.3933 0.54034 0.0
H5041 H 0.63698 0.37694 0.55987 0.0
C5042 C 0.63719 0.38134 0.55431 0.0
C5043 C 0.62939 0.38484 0.55103 0.0
C5044 C 0.62969 0.39078 0.54405 0.0
C5045 C 0.63799 0.40032 0.5336 0.0
H5046 H 0.62363 0.39358 0.54164 0.0
C5047 C 0.6429 0.39946 0.52582 0.0
C5048 C 0.64283 0.40621 0.51952 0.0
C5049 C 0.63318 0.40805 0.53501 0.0
H5050 H 0.62945 0.40895 0.54097 0.0
C5051 C 0.63321 0.41475 0.52882 0.0
H5052 H 0.64662 0.39354 0.5246 0.0
C5053 C 0.63799 0.41384 0.52112 0.0
H5054 H 0.63788 0.41909 0.51635 0.0
H5055 H 0.6295 0.42066 0.53 0.0
H5056 H 0.73147 0.88172 0.61963 0.0
C5057 C 0.72896 0.88372 0.62595 0.0
C5058 C 0.72192 0.88964 0.6264 0.0
C5059 C 0.73236 0.87998 0.63366 0.0
H5060 H 0.71289 0.8964 0.63489 0.0
C5061 C 0.71844 0.89197 0.63456 0.0
C5062 C 0.72176 0.88833 0.64226 0.0
C5063 C 0.72872 0.88236 0.6418 0.0
C5064 C 0.73903 0.8729 0.63326 0.0
H5065 H 0.73116 0.87942 0.64778 0.0
C5066 C 0.74697 0.87393 0.62864 0.0
C5067 C 0.75325 0.86715 0.62865 0.0
C5068 C 0.73741 0.86499 0.63766 0.0
H5069 H 0.73133 0.86399 0.64116 0.0
C5070 C 0.74357 0.85825 0.63755 0.0
H5071 H 0.74836 0.88 0.62526 0.0
C5072 C 0.75145 0.85933 0.63311 0.0
H5073 H 0.7562 0.85406 0.63317 0.0
H5074 H 0.74224 0.85219 0.64096 0.0
H5075 H 0.23156 0.64033 0.4016 0.0
C5076 C 0.2287 0.63848 0.39538 0.0
C5077 C 0.22147 0.63279 0.39523 0.0
C5078 C 0.23186 0.64217 0.38755 0.0
H5079 H 0.21188 0.62636 0.38714 0.0
C5080 C 0.21754 0.63063 0.38724 0.0
C5081 C 0.22065 0.63417 0.3794 0.0
C5082 C 0.22782 0.63989 0.37956 0.0
C5083 C 0.23879 0.64903 0.38769 0.0
H5084 H 0.23012 0.6427 0.37347 0.0
C5085 C 0.24656 0.64805 0.3926 0.0
C5086 C 0.25298 0.65468 0.39249 0.0
C5087 C 0.23753 0.65677 0.38284 0.0
H5088 H 0.23158 0.65779 0.37914 0.0
C5089 C 0.24385 0.66333 0.38283 0.0
H5090 H 0.24767 0.64214 0.39635 0.0
C5091 C 0.25154 0.6623 0.3876 0.0
H5092 H 0.2564 0.66746 0.38748 0.0
H5093 H 0.24278 0.66926 0.37909 0.0
H5094 H 0.63101 0.98092 0.65259 0.0
C5095 C 0.63298 0.97828 0.64632 0.0
C5096 C 0.6388 0.97115 0.646 0.0
C5097 C 0.62931 0.9816 0.63854 0.0
H5098 H 0.64545 0.96189 0.63768 0.0
C5099 C 0.64109 0.96749 0.63791 0.0
C5100 C 0.63755 0.97076 0.63014 0.0
C5101 C 0.63169 0.97782 0.63046 0.0
C5102 C 0.62233 0.98838 0.63882 0.0
H5103 H 0.62882 0.98022 0.62444 0.0
C5104 C 0.62344 0.99635 0.64336 0.0
C5105 C 0.61675 1.00272 0.64324 0.0
C5106 C 0.61443 0.98683 0.63437 0.0
H5107 H 0.61337 0.98072 0.63092 0.0
C5108 C 0.60779 0.99308 0.63438 0.0
H5109 H 0.62951 0.99769 0.64677 0.0
C5110 C 0.60894 1.001 0.63875 0.0
H5111 H 0.60374 1.00582 0.63861 0.0
H5112 H 0.60173 0.9918 0.63094 0.0
H5113 H 0.29085 0.38159 0.90246 0.0
C5114 C 0.29343 0.38364 0.89618 0.0
C5115 C 0.30055 0.38947 0.89589 0.0
C5116 C 0.29004 0.38007 0.88839 0.0
H5117 H 0.30973 0.39622 0.88758 0.0
C5118 C 0.30414 0.39187 0.8878 0.0
C5119 C 0.30081 0.38841 0.88001 0.0
C5120 C 0.29376 0.38255 0.88031 0.0
C5121 C 0.28323 0.37311 0.88863 0.0
H5122 H 0.29131 0.37979 0.87426 0.0
C5123 C 0.27551 0.37401 0.89364 0.0
C5124 C 0.26914 0.36733 0.89358 0.0
C5125 C 0.28451 0.36541 0.88374 0.0
H5126 H 0.29041 0.36448 0.87994 0.0
C5127 C 0.27825 0.35878 0.88378 0.0
H5128 H 0.27439 0.3799 0.89743 0.0
C5129 C 0.27061 0.35972 0.88865 0.0
H5130 H 0.26579 0.35452 0.88856 0.0
H5131 H 0.27933 0.35288 0.88 0.0
H5132 H 0.39231 0.54227 0.65202 0.0
C5133 C 0.39015 0.5448 0.64576 0.0
C5134 C 0.38438 0.55197 0.64549 0.0
C5135 C 0.39355 0.54129 0.63794 0.0
H5136 H 0.37751 0.5611 0.63721 0.0
C5137 C 0.38184 0.55547 0.63741 0.0
C5138 C 0.38512 0.55202 0.6296 0.0
C5139 C 0.39096 0.54495 0.62987 0.0
C5140 C 0.40045 0.53443 0.63812 0.0
H5141 H 0.39362 0.54241 0.6238 0.0
C5142 C 0.3994 0.52657 0.64286 0.0
C5143 C 0.40598 0.5201 0.64262 0.0
C5144 C 0.40821 0.53577 0.63335 0.0
H5145 H 0.40923 0.54178 0.62974 0.0
C5146 C 0.41476 0.52941 0.63325 0.0
H5147 H 0.39344 0.5254 0.64651 0.0
C5148 C 0.41365 0.52161 0.63782 0.0
H5149 H 0.41876 0.5167 0.63758 0.0
H5150 H 0.4207 0.53053 0.62956 0.0
H5151 H 0.79015 0.1403 0.12164 0.0
C5152 C 0.793 0.13845 0.12787 0.0
C5153 C 0.80022 0.13274 0.12802 0.0
C5154 C 0.78982 0.14215 0.1357 0.0
H5155 H 0.80979 0.12627 0.13612 0.0
C5156 C 0.80413 0.13056 0.13602 0.0
C5157 C 0.80103 0.13413 0.14385 0.0
C5158 C 0.79387 0.13988 0.14369 0.0
C5159 C 0.78285 0.14897 0.13556 0.0
H5160 H 0.79157 0.1427 0.14978 0.0
C5161 C 0.77514 0.14797 0.13056 0.0
C5162 C 0.76865 0.15455 0.13066 0.0
C5163 C 0.78399 0.15667 0.14048 0.0
H5164 H 0.7899 0.15771 0.14426 0.0
C5165 C 0.77761 0.16319 0.1405 0.0
H5166 H 0.77411 0.14209 0.12674 0.0
C5167 C 0.76998 0.16214 0.13564 0.0
H5168 H 0.76507 0.16726 0.13576 0.0
H5169 H 0.77858 0.16909 0.14431 0.0
H5170 H 0.63197 0.04105 0.87127 0.0
C5171 C 0.6338 0.04389 0.8775 0.0
C5172 C 0.63946 0.05115 0.87769 0.0
C5173 C 0.63015 0.04066 0.88533 0.0
H5174 H 0.64588 0.06071 0.88584 0.0
C5175 C 0.64162 0.05503 0.88571 0.0
C5176 C 0.63812 0.05185 0.89353 0.0
C5177 C 0.63242 0.04466 0.89334 0.0
C5178 C 0.62335 0.03368 0.88516 0.0
H5179 H 0.62963 0.04231 0.89941 0.0
C5180 C 0.62447 0.02586 0.88034 0.0
C5181 C 0.61794 0.01933 0.88051 0.0
C5182 C 0.61558 0.0349 0.88995 0.0
H5183 H 0.61447 0.04088 0.89359 0.0
C5184 C 0.6091 0.02848 0.89002 0.0
H5185 H 0.63042 0.02477 0.87665 0.0
C5186 C 0.61028 0.02073 0.88537 0.0
H5187 H 0.60521 0.01578 0.88556 0.0
H5188 H 0.60316 0.02951 0.89373 0.0
H5189 H 0.89039 0.98206 0.37026 0.0
C5190 C 0.88855 0.97937 0.37655 0.0
C5191 C 0.88269 0.97227 0.37692 0.0
C5192 C 0.89242 0.98259 0.38427 0.0
H5193 H 0.87611 0.96304 0.38531 0.0
C5194 C 0.88051 0.9686 0.38503 0.0
C5195 C 0.88426 0.97176 0.39275 0.0
C5196 C 0.89019 0.97875 0.39236 0.0
C5197 C 0.89941 0.98935 0.38391 0.0
H5198 H 0.8932 0.98107 0.39835 0.0
C5199 C 0.8983 0.99729 0.37932 0.0
C5200 C 0.90501 1.00364 0.37934 0.0
C5201 C 0.90735 0.9878 0.38831 0.0
H5202 H 0.90843 0.98172 0.39179 0.0
C5203 C 0.914 0.99403 0.38822 0.0
H5204 H 0.89222 0.99863 0.37594 0.0
C5205 C 0.91284 1.00192 0.38379 0.0
H5206 H 0.91805 1.00672 0.38387 0.0
H5207 H 0.92008 0.99276 0.39162 0.0
H5208 H 0.3994 0.28658 0.13278 0.0
C5209 C 0.39349 0.2905 0.13287 0.0
C5210 C 0.39399 0.29943 0.13063 0.0
C5211 C 0.38532 0.28659 0.13464 0.0
H5212 H 0.3867 0.31128 0.12829 0.0
C5213 C 0.38634 0.30447 0.13027 0.0
C5214 C 0.3782 0.30073 0.13207 0.0
C5215 C 0.37773 0.29187 0.13444 0.0
C5216 C 0.3845 0.2769 0.13582 0.0
H5217 H 0.37138 0.28907 0.13583 0.0
C5218 C 0.39079 0.27193 0.14047 0.0
C5219 C 0.38984 0.26277 0.14125 0.0
C5220 C 0.37737 0.2725 0.13197 0.0
H5221 H 0.37256 0.276 0.12813 0.0
C5222 C 0.37642 0.26347 0.13284 0.0
H5223 H 0.39637 0.27511 0.14346 0.0
C5224 C 0.3826 0.25863 0.13744 0.0
H5225 H 0.38179 0.25161 0.13797 0.0
H5226 H 0.37091 0.2602 0.12983 0.0
H5227 H 0.48657 0.64972 0.88175 0.0
C5228 C 0.4827 0.64378 0.88185 0.0
C5229 C 0.47381 0.64418 0.87948 0.0
C5230 C 0.48667 0.63565 0.88371 0.0
H5231 H 0.46207 0.63676 0.87704 0.0
C5232 C 0.46885 0.63648 0.8791 0.0
C5233 C 0.47265 0.62838 0.88103 0.0
C5234 C 0.48148 0.62801 0.8835 0.0
C5235 C 0.49635 0.63491 0.88493 0.0
H5236 H 0.48434 0.62168 0.88494 0.0
C5237 C 0.50122 0.64119 0.8897 0.0
C5238 C 0.51038 0.64031 0.89053 0.0
C5239 C 0.50085 0.62787 0.88102 0.0
H5240 H 0.49742 0.62308 0.87709 0.0
C5241 C 0.50987 0.627 0.88191 0.0
H5242 H 0.49796 0.6467 0.89274 0.0
C5243 C 0.51462 0.63316 0.88663 0.0
H5244 H 0.52164 0.63241 0.8872 0.0
H5245 H 0.51322 0.62155 0.87885 0.0
H5246 H 0.12218 0.73624 0.63232 0.0
C5247 C 0.12813 0.73239 0.63246 0.0
C5248 C 0.12774 0.7234 0.63043 0.0
C5249 C 0.13627 0.73645 0.63406 0.0
H5250 H 0.13517 0.7116 0.6283 0.0
C5251 C 0.13545 0.71846 0.63012 0.0
C5252 C 0.14356 0.72235 0.63175 0.0
C5253 C 0.14393 0.73126 0.63391 0.0
C5254 C 0.13698 0.74617 0.63496 0.0
H5255 H 0.15026 0.7342 0.63515 0.0
C5256 C 0.13078 0.75118 0.63969 0.0
C5257 C 0.13167 0.76037 0.64024 0.0
C5258 C 0.14392 0.75055 0.63076 0.0
H5259 H 0.14865 0.747 0.62685 0.0
C5260 C 0.14479 0.7596 0.63137 0.0
H5261 H 0.12535 0.748 0.64294 0.0
C5262 C 0.13872 0.76449 0.63608 0.0
H5263 H 0.13947 0.77153 0.63642 0.0
H5264 H 0.15016 0.76286 0.6281 0.0
H5265 H 0.03704 0.37277 0.38146 0.0
C5266 C 0.04031 0.37906 0.38154 0.0
C5267 C 0.04934 0.37951 0.3797 0.0
C5268 C 0.03543 0.38679 0.38272 0.0
H5269 H 0.0604 0.38804 0.37766 0.0
C5270 C 0.05352 0.38768 0.37933 0.0
C5271 C 0.04877 0.39539 0.38063 0.0
C5272 C 0.03978 0.39492 0.38241 0.0
C5273 C 0.0257 0.3866 0.38306 0.0
H5274 H 0.03611 0.40094 0.38318 0.0
C5275 C 0.02106 0.38096 0.38873 0.0
C5276 C 0.01182 0.38112 0.38887 0.0
C5277 C 0.02097 0.39221 0.3775 0.0
H5278 H 0.02433 0.39649 0.37296 0.0
C5279 C 0.01186 0.39231 0.37762 0.0
H5280 H 0.02457 0.37659 0.39308 0.0
C5281 C 1.00731 0.38683 0.38328 0.0
H5282 H 1.00022 0.38703 0.38331 0.0
H5283 H 1.00832 0.39666 0.3733 0.0
H5284 H 0.3991 0.73626 0.39003 0.0
C5285 C 0.39315 0.73241 0.38994 0.0
C5286 C 0.39356 0.72343 0.39197 0.0
C5287 C 0.385 0.73647 0.38843 0.0
H5288 H 0.38614 0.71162 0.39412 0.0
C5289 C 0.38584 0.71848 0.39232 0.0
C5290 C 0.37772 0.72239 0.39076 0.0
C5291 C 0.37734 0.73132 0.38866 0.0
C5292 C 0.38429 0.74618 0.38757 0.0
H5293 H 0.371 0.73429 0.38751 0.0
C5294 C 0.39027 0.75114 0.38254 0.0
C5295 C 0.38938 0.76032 0.38198 0.0
C5296 C 0.37756 0.7506 0.39206 0.0
H5297 H 0.373 0.74706 0.39618 0.0
C5298 C 0.37669 0.75965 0.39147 0.0
H5299 H 0.39552 0.74791 0.37903 0.0
C5300 C 0.38254 0.76449 0.38645 0.0
H5301 H 0.38177 0.77153 0.38609 0.0
H5302 H 0.37148 0.76295 0.39496 0.0
H5303 H 0.03601 0.64985 0.13983 0.0
C5304 C 0.03992 0.64393 0.13975 0.0
C5305 C 0.04884 0.64441 0.14201 0.0
C5306 C 0.036 0.63576 0.13799 0.0
H5307 H 0.06066 0.63709 0.1444 0.0
C5308 C 0.05386 0.63675 0.1424 0.0
C5309 C 0.0501 0.62861 0.14061 0.0
C5310 C 0.04126 0.62816 0.13823 0.0
C5311 C 0.02632 0.63495 0.13684 0.0
H5312 H 0.03843 0.6218 0.13687 0.0
C5313 C 0.02136 0.64117 0.13208 0.0
C5314 C 0.0122 0.64021 0.13132 0.0
C5315 C 0.0219 0.6279 0.14083 0.0
H5316 H 0.0254 0.62315 0.14475 0.0
C5317 C 0.01288 0.62696 0.13999 0.0
H5318 H 0.02456 0.64669 0.12899 0.0
C5319 C 1.00806 0.63306 0.13527 0.0
H5320 H 1.00103 0.63225 0.13476 0.0
H5321 H 1.0096 0.6215 0.1431 0.0
H5322 H 0.12264 0.28682 0.89035 0.0
C5323 C 0.1286 0.29065 0.89036 0.0
C5324 C 0.12819 0.29961 0.89247 0.0
C5325 C 0.13675 0.28658 0.88885 0.0
H5326 H 0.13561 0.31137 0.89484 0.0
C5327 C 0.13591 0.30453 0.89296 0.0
C5328 C 0.14403 0.30063 0.89141 0.0
C5329 C 0.14442 0.29173 0.88918 0.0
C5330 C 0.13746 0.27687 0.88787 0.0
H5331 H 0.15076 0.28878 0.88801 0.0
C5332 C 0.13133 0.27192 0.883 0.0
C5333 C 0.1322 0.26274 0.88239 0.0
C5334 C 0.14432 0.27242 0.89214 0.0
H5335 H 0.149 0.27591 0.89615 0.0
C5336 C 0.14518 0.26336 0.89147 0.0
H5337 H 0.12596 0.27515 0.87969 0.0
C5338 C 0.13916 0.25855 0.88662 0.0
H5339 H 0.1399 0.25151 0.88623 0.0
H5340 H 0.15048 0.26006 0.89479 0.0
H5341 H 0.48578 0.37215 0.64038 0.0
C5342 C 0.48202 0.37816 0.64038 0.0
C5343 C 0.47302 0.37787 0.64234 0.0
C5344 C 0.48622 0.38627 0.63909 0.0
H5345 H 0.46132 0.38545 0.64451 0.0
C5346 C 0.4682 0.38566 0.64278 0.0
C5347 C 0.47224 0.39375 0.64142 0.0
C5348 C 0.48119 0.39402 0.63944 0.0
C5349 C 0.49594 0.38683 0.63837 0.0
H5350 H 0.48429 0.40033 0.63848 0.0
C5351 C 0.50086 0.381 0.63312 0.0
C5352 C 0.51005 0.38176 0.6327 0.0
C5353 C 0.5004 0.39328 0.64323 0.0
H5354 H 0.49688 0.39771 0.64749 0.0
C5355 C 0.50947 0.394 0.64279 0.0
H5356 H 0.49758 0.37599 0.62933 0.0
C5357 C 0.51427 0.38831 0.63755 0.0
H5358 H 0.52132 0.38897 0.63731 0.0
H5359 H 0.5128 0.39899 0.64656 0.0
H5360 H 0.14156 0.40116 0.29033 0.0
C5361 C 0.13953 0.39498 0.29315 0.0
C5362 C 0.1341 0.39496 0.30059 0.0
C5363 C 0.14272 0.38703 0.2897 0.0
H5364 H 0.12773 0.38699 0.31033 0.0
C5365 C 0.13176 0.387 0.30449 0.0
C5366 C 0.13481 0.37906 0.30111 0.0
C5367 C 0.14022 0.37908 0.2937 0.0
C5368 C 0.14927 0.38695 0.28248 0.0
H5369 H 0.14264 0.3729 0.29118 0.0
C5370 C 0.14825 0.39213 0.27488 0.0
C5371 C 0.1545 0.3917 0.26809 0.0
C5372 C 0.15671 0.38156 0.28322 0.0
H5373 H 0.15778 0.37765 0.28902 0.0
C5374 C 0.16291 0.38122 0.27654 0.0
H5375 H 0.14257 0.39631 0.27415 0.0
C5376 C 0.16181 0.38623 0.26901 0.0
H5377 H 0.16667 0.38584 0.26386 0.0
H5378 H 0.16859 0.37705 0.2772 0.0
H5379 H 0.37239 0.38229 0.03639 0.0
C5380 C 0.37837 0.38236 0.04019 0.0
C5381 C 0.37805 0.38019 0.04913 0.0
C5382 C 0.38647 0.384 0.03608 0.0
H5383 H 0.38557 0.37786 0.06083 0.0
C5384 C 0.3858 0.37978 0.054 0.0
C5385 C 0.39387 0.38149 0.05007 0.0
C5386 C 0.39417 0.38376 0.04119 0.0
C5387 C 0.38712 0.385 0.02638 0.0
H5388 H 0.40048 0.38503 0.03821 0.0
C5389 C 0.38095 0.38988 0.02148 0.0
C5390 C 0.38176 0.39053 0.0123 0.0
C5391 C 0.39397 0.38076 0.02188 0.0
H5392 H 0.39867 0.37675 0.02535 0.0
C5393 C 0.39477 0.38145 0.01283 0.0
H5394 H 0.37558 0.39317 0.02475 0.0
C5395 C 0.38872 0.3863 1.00807 0.0
H5396 H 0.38942 0.38672 1.00102 0.0
H5397 H 0.40006 0.37815 1.00949 0.0
H5398 H 0.38088 0.62213 0.7904 0.0
C5399 C 0.38302 0.62826 0.79324 0.0
C5400 C 0.38844 0.62817 0.80068 0.0
C5401 C 0.37997 0.63627 0.78981 0.0
H5402 H 0.39495 0.63599 0.81044 0.0
C5403 C 0.39092 0.63607 0.8046 0.0
C5404 C 0.38802 0.64407 0.80125 0.0
C5405 C 0.38262 0.64417 0.79383 0.0
C5406 C 0.37341 0.63648 0.7826 0.0
H5407 H 0.38032 0.65039 0.79134 0.0
C5408 C 0.3743 0.63127 0.775 0.0
C5409 C 0.36803 0.63181 0.76824 0.0
C5410 C 0.36609 0.64202 0.78336 0.0
H5411 H 0.36511 0.64597 0.78917 0.0
C5412 C 0.35987 0.64247 0.77671 0.0
H5413 H 0.37989 0.62698 0.77425 0.0
C5414 C 0.36084 0.63743 0.76918 0.0
H5415 H 0.35597 0.63791 0.76405 0.0
H5416 H 0.35428 0.64676 0.77739 0.0
H5417 H 0.14951 0.6399 0.53681 0.0
C5418 C 0.14357 0.6398 0.54068 0.0
C5419 C 0.14399 0.64193 0.54964 0.0
C5420 C 0.13543 0.63816 0.53666 0.0
H5421 H 0.13659 0.64419 0.56143 0.0
C5422 C 0.13629 0.64229 0.5546 0.0
C5423 C 0.12817 0.64062 0.55074 0.0
C5424 C 0.12779 0.63837 0.54185 0.0
C5425 C 0.13469 0.63716 0.52696 0.0
H5426 H 0.12145 0.6371 0.53894 0.0
C5427 C 0.14087 0.63235 0.52199 0.0
C5428 C 0.13996 0.6317 0.51281 0.0
C5429 C 0.12775 0.64132 0.52254 0.0
H5430 H 0.12304 0.64528 0.52606 0.0
C5431 C 0.12686 0.64062 0.5135 0.0
H5432 H 0.1463 0.62912 0.52519 0.0
C5433 C 0.13291 0.63584 0.50866 0.0
H5434 H 0.13214 0.63543 0.50163 0.0
H5435 H 0.12148 0.64386 0.51022 0.0
H5436 H 0.14099 0.62206 0.23254 0.0
C5437 C 0.1388 0.62824 0.22982 0.0
C5438 C 0.13336 0.62825 0.2224 0.0
C5439 C 0.14181 0.6362 0.23339 0.0
H5440 H 0.12673 0.63621 0.21282 0.0
C5441 C 0.13079 0.63621 0.21865 0.0
C5442 C 0.13367 0.64416 0.22213 0.0
C5443 C 0.13911 0.64415 0.22951 0.0
C5444 C 0.14836 0.63632 0.24061 0.0
H5445 H 0.14138 0.65034 0.23211 0.0
C5446 C 0.14747 0.63101 0.24814 0.0
C5447 C 0.1537 0.6315 0.25493 0.0
C5448 C 0.15565 0.6419 0.23995 0.0
H5449 H 0.15662 0.64593 0.2342 0.0
C5450 C 0.16184 0.6423 0.24664 0.0
H5451 H 0.14189 0.62668 0.2488 0.0
C5452 C 0.16086 0.63717 0.2541 0.0
H5453 H 0.16571 0.6376 0.25925 0.0
H5454 H 0.16741 0.64663 0.24603 0.0
H5455 H 0.14892 0.38249 0.98635 0.0
C5456 C 0.14298 0.38269 0.98248 0.0
C5457 C 0.14341 0.38084 0.97347 0.0
C5458 C 0.13485 0.38433 0.98653 0.0
H5459 H 0.13601 0.37882 0.96164 0.0
C5460 C 0.13571 0.38057 0.96851 0.0
C5461 C 0.12759 0.38215 0.97241 0.0
C5462 C 0.1272 0.38424 0.98134 0.0
C5463 C 0.13412 0.38527 0.99624 0.0
H5464 H 0.12087 0.38548 0.98427 0.0
C5465 C 0.14036 0.38997 1.00123 0.0
C5466 C 0.13946 0.3906 1.0104 0.0
C5467 C 0.12713 0.38118 1.00065 0.0
H5468 H 0.12237 0.3773 0.99712 0.0
C5469 C 0.12625 0.38187 1.00969 0.0
H5470 H 0.14583 0.39314 0.99803 0.0
C5471 C 0.13236 0.38655 0.01455 0.0
H5472 H 0.1316 0.38695 0.02158 0.0
H5473 H 0.12084 0.37869 0.01297 0.0
H5474 H 0.3905 0.39984 0.73597 0.0
C5475 C 0.39029 0.39389 0.73211 0.0
C5476 C 0.39239 0.39424 0.72315 0.0
C5477 C 0.3886 0.38578 0.73617 0.0
H5478 H 0.39448 0.38676 0.71137 0.0
C5479 C 0.39262 0.38652 0.71821 0.0
C5480 C 0.39086 0.37843 0.72211 0.0
C5481 C 0.38871 0.3781 0.73103 0.0
C5482 C 0.38777 0.38509 0.74587 0.0
H5483 H 0.38746 0.37179 0.73401 0.0
C5484 C 0.38266 0.39102 0.75083 0.0
C5485 C 0.38212 0.39012 0.76001 0.0
C5486 C 0.39235 0.37841 0.75027 0.0
H5487 H 0.39649 0.37389 0.74672 0.0
C5488 C 0.39179 0.37755 0.75932 0.0
H5489 H 0.37908 0.39622 0.7476 0.0
C5490 C 0.3867 0.38335 0.76417 0.0
H5491 H 0.38636 0.38257 0.77121 0.0
H5492 H 0.39535 0.37238 0.76261 0.0
H5493 H 0.37212 0.64015 0.4854 0.0
C5494 C 0.3781 0.64012 0.48159 0.0
C5495 C 0.37774 0.64216 0.47261 0.0
C5496 C 0.38623 0.63865 0.4857 0.0
H5497 H 0.38522 0.64439 0.46087 0.0
C5498 C 0.38548 0.64258 0.46772 0.0
C5499 C 0.39359 0.64106 0.47168 0.0
C5500 C 0.39392 0.63894 0.4806 0.0
C5501 C 0.38688 0.6378 0.49541 0.0
H5502 H 0.40025 0.63783 0.48361 0.0
C5503 C 0.38092 0.63272 0.50034 0.0
C5504 C 0.38177 0.63217 0.50952 0.0
C5505 C 0.39355 0.64236 0.49986 0.0
H5506 H 0.39809 0.64651 0.49635 0.0
C5507 C 0.39438 0.64177 0.50891 0.0
H5508 H 0.37572 0.62917 0.49709 0.0
C5509 C 0.38855 0.6367 0.51372 0.0
H5510 H 0.38929 0.63634 0.52076 0.0
H5511 H 0.39954 0.64531 0.51223 0.0
H5512 H 0.28581 0.13198 0.39999 0.0
C5513 C 0.28965 0.13205 0.39403 0.0
C5514 C 0.29862 0.12997 0.39441 0.0
C5515 C 0.28557 0.13357 0.3859 0.0
H5516 H 0.31038 0.12775 0.38695 0.0
C5517 C 0.30353 0.12959 0.38668 0.0
C5518 C 0.29961 0.13117 0.37857 0.0
C5519 C 0.29069 0.13329 0.37821 0.0
C5520 C 0.27587 0.13442 0.38522 0.0
H5521 H 0.28769 0.13442 0.37189 0.0
C5522 C 0.27094 0.13963 0.39109 0.0
C5523 C 0.26176 0.14018 0.39022 0.0
C5524 C 0.27143 0.12976 0.37862 0.0
H5525 H 0.27496 0.12554 0.37415 0.0
C5526 C 0.26238 0.13034 0.37778 0.0
H5527 H 0.27419 0.14327 0.39623 0.0
C5528 C 0.25757 0.13552 0.38352 0.0
H5529 H 0.25053 0.13588 0.38277 0.0
H5530 H 0.25907 0.12672 0.37268 0.0
H5531 H 0.78629 0.39067 0.62236 0.0
C5532 C 0.79009 0.3907 0.62834 0.0
C5533 C 0.79906 0.39278 0.62799 0.0
C5534 C 0.78596 0.38932 0.63647 0.0
H5535 H 0.81077 0.3951 0.63548 0.0
C5536 C 0.80392 0.39327 0.63574 0.0
C5537 C 0.79995 0.39183 0.64385 0.0
C5538 C 0.79103 0.38971 0.64418 0.0
C5539 C 0.77625 0.38848 0.6371 0.0
H5540 H 0.788 0.38869 0.65051 0.0
C5541 C 0.77136 0.38324 0.63124 0.0
C5542 C 0.76217 0.38273 0.63204 0.0
C5543 C 0.77177 0.39321 0.64363 0.0
H5544 H 0.77526 0.39746 0.64809 0.0
C5545 C 0.76271 0.39266 0.64441 0.0
H5546 H 0.77465 0.37955 0.62615 0.0
C5547 C 0.75794 0.38745 0.63867 0.0
H5548 H 0.75089 0.38713 0.63937 0.0
H5549 H 0.75937 0.39634 0.64946 0.0
H5550 H 0.39192 0.04121 0.37173 0.0
C5551 C 0.38977 0.04398 0.37789 0.0
C5552 C 0.38425 0.05136 0.37787 0.0
C5553 C 0.39289 0.04055 0.38586 0.0
H5554 H 0.37764 0.06099 0.38578 0.0
C5555 C 0.38174 0.0552 0.38581 0.0
C5556 C 0.38473 0.05184 0.39377 0.0
C5557 C 0.39024 0.04449 0.39379 0.0
C5558 C 0.39954 0.03341 0.386 0.0
H5559 H 0.39261 0.04199 0.39998 0.0
C5560 C 0.39865 0.02577 0.38084 0.0
C5561 C 0.40499 0.01907 0.38133 0.0
C5562 C 0.40693 0.03427 0.39142 0.0
H5563 H 0.40789 0.04011 0.39532 0.0
C5564 C 0.41322 0.02768 0.39181 0.0
H5565 H 0.393 0.02495 0.37664 0.0
C5566 C 0.41225 0.0201 0.38683 0.0
H5567 H 0.41718 0.01502 0.38727 0.0
H5568 H 0.41887 0.02843 0.39601 0.0
H5569 H 0.73658 0.63269 0.12288 0.0
C5570 C 0.73268 0.63289 0.1288 0.0
C5571 C 0.72376 0.63064 0.12839 0.0
C5572 C 0.73663 0.63479 0.13693 0.0
H5573 H 0.71196 0.62838 0.13577 0.0
C5574 C 0.71876 0.63038 0.13607 0.0
C5575 C 0.72254 0.63232 0.14416 0.0
C5576 C 0.7314 0.6347 0.14455 0.0
C5577 C 0.74631 0.63592 0.13769 0.0
H5578 H 0.73425 0.63616 0.15087 0.0
C5579 C 0.75126 0.64063 0.13143 0.0
C5580 C 0.76042 0.6414 0.13237 0.0
C5581 C 0.75074 0.63197 0.14476 0.0
H5582 H 0.74725 0.62809 0.14954 0.0
C5583 C 0.75977 0.63279 0.14567 0.0
H5584 H 0.74805 0.6437 0.12591 0.0
C5585 C 0.76458 0.63748 0.13953 0.0
H5586 H 0.7716 0.63799 0.14033 0.0
H5587 H 0.76306 0.62971 0.15114 0.0
H5588 H 0.64049 0.48634 0.37207 0.0
C5589 C 0.64045 0.48256 0.37807 0.0
C5590 C 0.6423 0.47354 0.37776 0.0
C5591 C 0.63922 0.48679 0.38619 0.0
H5592 H 0.64435 0.4618 0.38532 0.0
C5593 C 0.6427 0.46871 0.38555 0.0
C5594 C 0.6414 0.47277 0.39364 0.0
C5595 C 0.63954 0.48176 0.39393 0.0
C5596 C 0.6387 0.49652 0.38677 0.0
H5597 H 0.63866 0.48488 0.40024 0.0
C5598 C 0.63335 0.50153 0.38112 0.0
C5599 C 0.63311 0.51075 0.38191 0.0
C5600 C 0.64383 0.50088 0.39305 0.0
H5601 H 0.64815 0.49727 0.39735 0.0
C5602 C 0.64358 0.50996 0.3938 0.0
H5603 H 0.62934 0.49833 0.37623 0.0
C5604 C 0.63825 0.51487 0.38829 0.0
H5605 H 0.63814 0.52193 0.38898 0.0
H5606 H 0.64757 0.51322 0.39867 0.0
H5607 H 0.23661 0.89065 0.89924 0.0
C5608 C 0.23268 0.89051 0.89334 0.0
C5609 C 0.22381 0.89296 0.89379 0.0
C5610 C 0.23654 0.88845 0.88521 0.0
H5611 H 0.21204 0.89549 0.88645 0.0
C5612 C 0.2188 0.89333 0.88614 0.0
C5613 C 0.22248 0.89121 0.87804 0.0
C5614 C 0.23126 0.88858 0.87762 0.0
C5615 C 0.2462 0.8871 0.88438 0.0
H5616 H 0.23402 0.88697 0.87129 0.0
C5617 C 0.25111 0.88248 0.89074 0.0
C5618 C 0.26025 0.88154 0.88977 0.0
C5619 C 0.25065 0.89076 0.87718 0.0
H5620 H 0.24719 0.89458 0.87231 0.0
C5621 C 0.25965 0.88974 0.87622 0.0
H5622 H 0.2479 0.87964 0.89638 0.0
C5623 C 0.26443 0.88517 0.88246 0.0
H5624 H 0.27144 0.88452 0.88164 0.0
H5625 H 0.26295 0.8926 0.87065 0.0
H5626 H 0.39141 0.982 0.15044 0.0
C5627 C 0.38914 0.97931 0.14429 0.0
C5628 C 0.38368 0.9719 0.14432 0.0
C5629 C 0.39204 0.9829 0.1363 0.0
H5630 H 0.37693 0.96236 0.13641 0.0
C5631 C 0.381 0.96818 0.13638 0.0
C5632 C 0.38378 0.97169 0.12841 0.0
C5633 C 0.38923 0.97906 0.12838 0.0
C5634 C 0.39859 0.99013 0.13612 0.0
H5635 H 0.39142 0.98169 0.12217 0.0
C5636 C 0.39776 0.99764 0.14146 0.0
C5637 C 0.40399 1.00444 0.1409 0.0
C5638 C 0.40582 0.98947 0.13045 0.0
H5639 H 0.40675 0.98373 0.1264 0.0
C5640 C 0.412 0.99616 0.12999 0.0
H5641 H 0.39224 0.9983 0.14586 0.0
C5642 C 0.41108 1.00362 0.13515 0.0
H5643 H 0.41592 1.00878 0.13466 0.0
H5644 H 0.41752 0.99557 0.12559 0.0
H5645 H 0.13152 0.04004 0.65066 0.0
C5646 C 0.13375 0.04281 0.64453 0.0
C5647 C 0.139 0.05037 0.64461 0.0
C5648 C 0.13098 0.03917 0.63651 0.0
H5649 H 0.14549 0.06013 0.63676 0.0
C5650 C 0.14159 0.0542 0.63669 0.0
C5651 C 0.13896 0.05063 0.62869 0.0
C5652 C 0.13373 0.0431 0.62862 0.0
C5653 C 0.12458 0.03181 0.63628 0.0
H5654 H 0.13163 0.04044 0.62239 0.0
C5655 C 0.12552 0.0243 0.6416 0.0
C5656 C 0.11941 0.01739 0.64102 0.0
C5657 C 0.11736 0.03234 0.63059 0.0
H5658 H 0.11634 0.03808 0.62655 0.0
C5659 C 0.11129 0.02555 0.6301 0.0
H5660 H 0.13104 0.02373 0.64602 0.0
C5661 C 0.11232 0.01811 0.63525 0.0
H5662 H 0.10757 0.01287 0.63474 0.0
H5663 H 0.10578 0.02606 0.62569 0.0
C5664 C 0.02573 0.15932 0.39677 0.0
C5665 C 0.03015 0.15538 0.40392 0.0
C5666 C 0.01925 0.14359 0.40414 0.0
C5667 C 0.01584 0.14669 0.39609 0.0
N5668 N 0.01573 0.15744 0.38458 0.0
N5669 N 0.03132 0.1437 0.41445 0.0
C5670 C 0.01895 0.15463 0.39243 0.0
C5671 C 0.02688 0.14756 0.40772 0.0
N5672 N 0.02802 0.16757 0.39418 0.0
N5673 N 0.01518 0.13681 0.4083 0.0
H5674 H 0.03683 0.1465 0.41735 0.0
H5675 H 0.02989 0.13748 0.41684 0.0
H5676 H 1.00958 0.13382 0.40578 0.0
H5677 H 0.01682 0.13469 0.41456 0.0
H5678 H 0.02455 0.17116 0.38955 0.0
H5679 H 0.03297 0.17114 0.39723 0.0
H5680 H 0.01845 0.16256 0.381 0.0
H5681 H 1.01057 0.15434 0.38138 0.0
C5682 C 0.12153 0.77499 0.65773 0.0
C5683 C 0.11626 0.78042 0.65233 0.0
C5684 C 0.11887 0.77054 0.63992 0.0
C5685 C 0.12523 0.76601 0.64491 0.0
N5686 N 0.13284 0.76384 0.65852 0.0
N5687 N 0.11037 0.7838 0.63807 0.0
C5688 C 0.12654 0.76814 0.65385 0.0
C5689 C 0.11494 0.77824 0.64339 0.0
N5690 N 0.12164 0.77636 0.66657 0.0
N5691 N 0.11665 0.76748 0.63181 0.0
H5692 H 0.10742 0.78953 0.6403 0.0
H5693 H 0.11005 0.7831 0.6313 0.0
H5694 H 0.11948 0.76187 0.62912 0.0
H5695 H 0.11148 0.76996 0.62815 0.0
H5696 H 0.12468 0.77216 0.67098 0.0
H5697 H 0.11804 0.78132 0.66957 0.0
H5698 H 0.1349 0.76576 0.66472 0.0
H5699 H 0.13634 0.75856 0.65598 0.0
C5700 C 0.49786 0.87275 0.90846 0.0
C5701 C 0.49255 0.86719 0.90325 0.0
C5702 C 0.50242 0.86948 0.89078 0.0
C5703 C 0.50681 0.8761 0.89554 0.0
N5704 N 0.50882 0.88426 0.90886 0.0
N5705 N 0.48935 0.86066 0.88923 0.0
C5706 C 0.50464 0.87772 0.90442 0.0
C5707 C 0.49479 0.86555 0.89438 0.0
N5708 N 0.49645 0.8732 0.91728 0.0
N5709 N 0.50554 0.86701 0.88277 0.0
H5710 H 0.48367 0.85768 0.89156 0.0
H5711 H 0.49007 0.86008 0.88248 0.0
H5712 H 0.51109 0.86984 0.87997 0.0
H5713 H 0.50318 0.86165 0.87929 0.0
H5714 H 0.50057 0.87648 0.9216 0.0
H5715 H 0.49154 0.86963 0.9204 0.0
H5716 H 0.50686 0.88653 0.91497 0.0
H5717 H 0.51406 0.88774 0.9062 0.0
C5718 C 0.40058 0.24842 0.1586 0.0
C5719 C 0.40564 0.24289 0.15311 0.0
C5720 C 0.40257 0.25253 0.14062 0.0
C5721 C 0.39642 0.25717 0.14577 0.0
N5722 N 0.38932 0.25961 0.15961 0.0
N5723 N 0.41099 0.23923 0.13869 0.0
C5724 C 0.39543 0.25521 0.15479 0.0
C5725 C 0.40662 0.24489 0.14408 0.0
N5726 N 0.40079 0.24722 0.16746 0.0
N5727 N 0.40449 0.25544 0.13238 0.0
H5728 H 0.41402 0.23354 0.14092 0.0
H5729 H 0.41105 0.23979 0.13191 0.0
H5730 H 0.40157 0.26099 0.12968 0.0
H5731 H 0.40952 0.25288 0.12857 0.0
H5732 H 0.39791 0.2515 0.17191 0.0
H5733 H 0.40449 0.2423 0.17041 0.0
H5734 H 0.38749 0.25781 0.16592 0.0
H5735 H 0.38573 0.26485 0.15711 0.0
C5736 C 0.02465 0.87121 0.11394 0.0
C5737 C 0.03001 0.86577 0.11921 0.0
C5738 C 0.02027 0.86835 0.13174 0.0
C5739 C 0.01582 0.87486 0.12687 0.0
N5740 N 0.01368 0.88272 0.11339 0.0
N5741 N 0.03337 0.85957 0.13335 0.0
C5742 C 0.0179 0.87627 0.11793 0.0
C5743 C 0.02787 0.86433 0.12815 0.0
N5744 N 0.02596 0.87145 0.10509 0.0
N5745 N 0.01723 0.86607 0.13983 0.0
H5746 H 0.03902 0.85653 0.13103 0.0
H5747 H 0.03271 0.85914 0.14012 0.0
H5748 H 0.0117 0.86896 0.14261 0.0
H5749 H 0.01963 0.8608 0.1434 0.0
H5750 H 0.02179 0.87463 0.10075 0.0
H5751 H 0.03084 0.86781 0.102 0.0
H5752 H 0.01558 0.88484 0.10721 0.0
H5753 H 1.00847 0.88626 0.11602 0.0
C5754 C 0.39658 0.77702 0.36526 0.0
C5755 C 0.40426 0.78033 0.3693 0.0
C5756 C 0.4033 0.76902 0.38067 0.0
C5757 C 0.39548 0.76589 0.37679 0.0
N5758 N 0.38592 0.76525 0.36432 0.0
N5759 N 0.41619 0.77822 0.37936 0.0
C5760 C 0.39256 0.76934 0.36869 0.0
C5761 C 0.40804 0.77588 0.37652 0.0
N5762 N 0.39287 0.78148 0.35845 0.0
N5763 N 0.40593 0.76575 0.38857 0.0
H5764 H 0.41979 0.78323 0.37644 0.0
H5765 H 0.41969 0.77475 0.38405 0.0
H5766 H 0.40279 0.76052 0.39163 0.0
H5767 H 0.41093 0.76847 0.3923 0.0
H5768 H 0.38674 0.78002 0.35588 0.0
H5769 H 0.39571 0.78703 0.35567 0.0
H5770 H 0.38395 0.76692 0.35802 0.0
H5771 H 0.3829 0.75962 0.36673 0.0
C5772 C 0.49511 0.14686 0.61593 0.0
C5773 C 0.49213 0.15499 0.61929 0.0
C5774 C 0.50376 0.15481 0.63038 0.0
C5775 C 0.50659 0.14656 0.62717 0.0
N5776 N 0.50662 0.13588 0.61563 0.0
N5777 N 0.49488 0.16779 0.62805 0.0
C5778 C 0.50281 0.14299 0.61948 0.0
C5779 C 0.49691 0.15933 0.62597 0.0
N5780 N 0.49032 0.1426 0.6097 0.0
N5781 N 0.50731 0.15808 0.6379 0.0
H5782 H 0.4899 0.17125 0.62492 0.0
H5783 H 0.4986 0.17163 0.63227 0.0
H5784 H 0.51253 0.15509 0.64113 0.0
H5785 H 0.50482 0.1635 0.6412 0.0
H5786 H 0.49155 0.13619 0.60772 0.0
H5787 H 0.48473 0.14527 0.60685 0.0
H5788 H 0.5047 0.13338 0.60959 0.0
H5789 H 0.51227 0.13296 0.61812 0.0
C5790 C 0.11534 0.24508 0.87885 0.0
C5791 C 0.11687 0.24287 0.86995 0.0
C5792 C 0.12732 0.25502 0.86867 0.0
C5793 C 0.1258 0.25717 0.87757 0.0
N5794 N 0.11689 0.25584 0.89046 0.0
N5795 N 0.12267 0.24682 0.85585 0.0
C5796 C 0.11927 0.25273 0.88241 0.0
C5797 C 0.12233 0.24821 0.86468 0.0
N5798 N 0.11055 0.2396 0.88406 0.0
N5799 N 0.13377 0.25923 0.86415 0.0
H5800 H 0.11909 0.24189 0.85277 0.0
H5801 H 0.12587 0.25096 0.8515 0.0
H5802 H 0.13726 0.26449 0.86677 0.0
H5803 H 0.13597 0.25729 0.858 0.0
H5804 H 0.11006 0.24031 0.89081 0.0
H5805 H 0.10758 0.23392 0.88175 0.0
H5806 H 0.1116 0.25343 0.894 0.0
H5807 H 0.11972 0.2614 0.89323 0.0
C5808 C 0.40036 0.02844 0.14624 0.0
C5809 C 0.40498 0.02919 0.15426 0.0
C5810 C 0.40792 0.01338 0.15416 0.0
C5811 C 0.40325 0.01262 0.14617 0.0
N5812 N 0.3936 0.01891 0.13545 0.0
N5813 N 0.41172 0.02233 0.16675 0.0
C5814 C 0.39899 0.02001 0.1425 0.0
C5815 C 0.40831 0.02163 0.15851 0.0
N5816 N 0.39759 0.03584 0.14203 0.0
N5817 N 0.41224 1.00625 0.15743 0.0
H5818 H 0.41223 0.02829 0.17004 0.0
H5819 H 0.41344 0.01698 0.17059 0.0
H5820 H 0.41173 1.00003 0.15466 0.0
H5821 H 0.41666 1.00655 0.1626 0.0
H5822 H 0.39508 0.03587 0.1357 0.0
H5823 H 0.39832 0.0421 0.14464 0.0
H5824 H 0.3896 0.02383 0.13295 0.0
H5825 H 0.39257 0.01284 0.1325 0.0
C5826 C 0.24646 0.1464 0.40889 0.0
C5827 C 0.24187 0.15339 0.40485 0.0
C5828 C 0.25264 0.15352 0.39293 0.0
C5829 C 0.25623 0.14559 0.39617 0.0
N5830 N 0.25663 0.13431 0.40716 0.0
N5831 N 0.24036 0.1636 0.39293 0.0
C5832 C 0.25326 0.14206 0.40422 0.0
C5833 C 0.24498 0.15706 0.39691 0.0
N5834 N 0.24432 0.14396 0.41723 0.0
N5835 N 0.25657 0.1576 0.38603 0.0
H5836 H 0.23482 0.16645 0.3957 0.0
H5837 H 0.24169 0.16586 0.38664 0.0
H5838 H 0.26218 0.15512 0.38303 0.0
H5839 H 0.2548 0.16379 0.3838 0.0
H5840 H 0.24792 0.13948 0.42088 0.0
H5841 H 0.23937 0.14703 0.42079 0.0
H5842 H 0.25402 0.13081 0.41238 0.0
H5843 H 0.2618 0.13111 0.40406 0.0
C5844 C 0.11538 1.00022 0.65869 0.0
C5845 C 0.11847 0.99262 0.6543 0.0
C5846 C 0.12433 1.0018 0.64247 0.0
C5847 C 0.12025 1.00922 0.64628 0.0
N5848 N 0.11163 0.01565 0.65779 0.0
N5849 N 0.12548 0.98596 0.64185 0.0
C5850 C 0.11578 1.00849 0.65439 0.0
C5851 C 0.12292 0.99336 0.64618 0.0
N5852 N 0.11219 0.99952 0.66701 0.0
N5853 N 0.12959 1.00287 0.63532 0.0
H5854 H 0.12471 0.97969 0.64443 0.0
H5855 H 0.12784 0.98594 0.63546 0.0
H5856 H 0.13067 1.00895 0.63242 0.0
H5857 H 0.13346 0.99791 0.63269 0.0
H5858 H 0.11066 1.00487 0.67094 0.0
H5859 H 0.1117 0.99355 0.67029 0.0
H5860 H 0.10734 0.01538 0.66308 0.0
H5861 H 0.11213 0.02187 0.65504 0.0
C5862 C 0.27804 0.87868 0.90663 0.0
C5863 C 0.27999 0.86962 0.9057 0.0
C5864 C 0.2677 0.86798 0.89547 0.0
C5865 C 0.2658 0.87702 0.8964 0.0
N5866 N 0.2676 0.89046 0.90438 0.0
N5867 N 0.27559 0.85528 0.90089 0.0
C5868 C 0.27045 0.88218 0.90253 0.0
C5869 C 0.27445 0.86415 0.90065 0.0
N5870 N 0.28371 0.88404 0.91101 0.0
N5871 N 0.26328 0.86315 0.88937 0.0
H5872 H 0.28048 0.8523 0.90462 0.0
H5873 H 0.2713 0.85084 0.89803 0.0
H5874 H 0.25806 0.86567 0.88577 0.0
H5875 H 0.26504 0.85682 0.88758 0.0
H5876 H 0.2832 0.89083 0.91104 0.0
H5877 H 0.28936 0.88177 0.91408 0.0
H5878 H 0.27017 0.89428 0.9094 0.0
H5879 H 0.26209 0.89319 0.90142 0.0
C5880 C 0.40872 1.00166 0.36381 0.0
C5881 C 0.40588 0.9941 0.36838 0.0
C5882 C 0.40037 1.00335 0.38033 0.0
C5883 C 0.40419 1.01077 0.37627 0.0
N5884 N 0.41232 0.01714 0.36437 0.0
N5885 N 0.39948 0.98751 0.3812 0.0
C5886 C 0.40838 1.00998 0.36802 0.0
C5887 C 0.40176 0.99488 0.37667 0.0
N5888 N 0.41162 1.00089 0.35538 0.0
N5889 N 0.39539 1.00445 0.38768 0.0
H5890 H 0.40024 0.98121 0.37866 0.0
H5891 H 0.39738 0.98754 0.38767 0.0
H5892 H 0.39434 1.01055 0.39056 0.0
H5893 H 0.3917 0.99948 0.39051 0.0
H5894 H 0.41294 1.00621 0.35134 0.0
H5895 H 0.41209 0.99488 0.35215 0.0
H5896 H 0.41641 0.01685 0.35894 0.0
H5897 H 0.41184 0.02339 0.36708 0.0
C5898 C 0.27799 0.14373 0.61613 0.0
C5899 C 0.2798 0.15283 0.61676 0.0
C5900 C 0.26744 0.15467 0.62687 0.0
C5901 C 0.26567 0.14557 0.62624 0.0
N5902 N 0.26772 0.1319 0.61874 0.0
N5903 N 0.27519 0.16728 0.62105 0.0
C5904 C 0.27043 0.14027 0.62032 0.0
C5905 C 0.27416 0.15841 0.6216 0.0
N5906 N 0.28377 0.13829 0.61198 0.0
N5907 N 0.26292 0.15964 0.63277 0.0
H5908 H 0.28005 0.17018 0.61725 0.0
H5909 H 0.27081 0.17175 0.62374 0.0
H5910 H 0.25771 0.15718 0.63643 0.0
H5911 H 0.26457 0.16606 0.63436 0.0
H5912 H 0.28336 0.13149 0.61218 0.0
H5913 H 0.28941 0.14052 0.60886 0.0
H5914 H 0.27036 0.12793 0.61387 0.0
H5915 H 0.26223 0.12919 0.62177 0.0
C5916 C 0.1159 0.02725 0.87613 0.0
C5917 C 0.1193 0.03025 0.86802 0.0
C5918 C 0.13065 0.01885 0.8684 0.0
C5919 C 0.12741 0.01604 0.87662 0.0
N5920 N 0.11629 0.01581 0.88737 0.0
N5921 N 0.12835 0.02768 0.85538 0.0
C5922 C 0.11971 0.01972 0.88013 0.0
C5923 C 0.12617 0.02561 0.8638 0.0
N5924 N 0.10943 0.0319 0.88021 0.0
N5925 N 0.13826 0.01538 0.86523 0.0
H5926 H 0.12517 0.0326 0.85187 0.0
H5927 H 0.13274 0.02407 0.85162 0.0
H5928 H 0.14154 1.01025 0.86832 0.0
H5929 H 0.14157 0.01785 0.85981 0.0
H5930 H 0.10736 0.03076 0.88659 0.0
H5931 H 0.10641 0.03731 0.87735 0.0
H5932 H 0.11039 0.01755 0.89031 0.0
H5933 H 0.11039 0.01755 0.89031 0.0
C5934 C 0.24396 0.87815 0.11581 0.0
C5935 C 0.24202 0.86911 0.11686 0.0
C5936 C 0.25434 0.86759 0.12708 0.0
C5937 C 0.25622 0.87663 0.12604 0.0
N5938 N 0.25438 0.88996 0.11791 0.0
N5939 N 0.24643 0.85483 0.12183 0.0
C5940 C 0.25155 0.8817 0.11985 0.0
C5941 C 0.24758 0.8637 0.12197 0.0
N5942 N 0.23828 0.88345 0.11137 0.0
N5943 N 0.25878 0.86284 0.13322 0.0
H5944 H 0.24154 0.85181 0.11816 0.0
H5945 H 0.25074 0.85042 0.12474 0.0
H5946 H 0.26401 0.86541 0.13677 0.0
H5947 H 0.25704 0.85653 0.13509 0.0
H5948 H 0.23878 0.89024 0.11125 0.0
H5949 H 0.23263 0.88115 0.10833 0.0
H5950 H 0.25181 0.89372 0.11285 0.0
H5951 H 0.25989 0.89273 0.12083 0.0
C5952 C 0.15622 0.39376 0.02825 0.0
C5953 C 0.15522 0.40282 0.03012 0.0
C5954 C 0.14493 0.40427 0.01785 0.0
C5955 C 0.14597 0.39522 0.016 0.0
N5956 N 0.15412 0.3819 0.01788 0.0
N5957 N 0.15027 0.41708 0.02561 0.0
C5958 C 0.15216 0.39017 0.02069 0.0
C5959 C 0.15009 0.4082 0.02454 0.0
N5960 N 0.16062 0.38848 0.03398 0.0
N5961 N 0.13874 0.40899 0.01345 0.0
H5962 H 0.15398 0.42014 0.03046 0.0
H5963 H 0.14735 0.42146 0.02127 0.0
H5964 H 0.13512 0.40639 1.00828 0.0
H5965 H 0.13689 0.41531 0.01518 0.0
H5966 H 0.1607 0.38168 0.03352 0.0
H5967 H 0.16366 0.3908 0.03962 0.0
H5968 H 0.15918 0.37815 0.02048 0.0
H5969 H 0.15121 0.3791 0.01238 0.0
C5970 C 0.65042 0.11263 0.9984 0.0
C5971 C 0.65804 0.11668 0.99501 0.0
C5972 C 0.6567 0.12811 1.00618 0.0
C5973 C 0.64792 0.12549 1.00768 0.0
N5974 N 0.63668 0.11452 1.00603 0.0
N5975 N 0.67091 0.12331 1.00118 0.0
C5976 C 0.64488 0.11747 1.0041 0.0
C5977 C 0.66203 0.12301 1.00052 0.0
N5978 N 0.6493 0.10384 0.9974 0.0
N5979 N 0.65986 0.13564 1.00979 0.0
H5980 H 0.67486 0.11872 0.99799 0.0
H5981 H 0.67418 0.12725 1.00568 0.0
H5982 H 0.65621 0.13955 0.01403 0.0
H5983 H 0.66593 0.13825 1.00809 0.0
H5984 H 0.64424 0.10036 1.00036 0.0
H5985 H 0.65421 0.09993 0.99469 0.0
H5986 H 0.63382 0.10923 1.0028 0.0
H5987 H 0.63262 0.11762 1.01056 0.0
C5988 C 0.15803 0.4093 0.25074 0.0
C5989 C 0.15507 0.40476 0.2432 0.0
C5990 C 0.14963 0.3928 0.25247 0.0
C5991 C 0.15357 0.39682 0.25985 0.0
N5992 N 0.16182 0.40865 0.26617 0.0
N5993 N 0.14848 0.39202 0.23664 0.0
C5994 C 0.15778 0.40505 0.25904 0.0
C5995 C 0.1509 0.39649 0.244 0.0
N5996 N 0.16096 0.41771 0.24997 0.0
N5997 N 0.14463 0.38547 0.25359 0.0
H5998 H 0.14914 0.39459 0.23035 0.0
H5999 H 0.14634 0.38556 0.23667 0.0
H6000 H 0.14367 0.38257 0.2597 0.0
H6001 H 0.14085 0.38267 0.24867 0.0
H6002 H 0.16238 0.42173 0.25528 0.0
H6003 H 0.16137 0.42096 0.24397 0.0
H6004 H 0.16593 0.41407 0.26585 0.0
H6005 H 0.16141 0.40593 0.27241 0.0
C6006 C 0.87268 0.90817 0.49813 0.0
C6007 C 0.86745 0.90273 0.49272 0.0
C6008 C 0.86998 0.89039 0.5027 0.0
C6009 C 0.87631 0.89541 0.50723 0.0
N6010 N 0.88391 0.90904 0.50935 0.0
N6011 N 0.86154 0.88844 0.48943 0.0
C6012 C 0.87764 0.90434 0.50505 0.0
C6013 C 0.8661 0.8938 0.49496 0.0
N6014 N 0.87282 0.91699 0.49669 0.0
N6015 N 0.86774 0.88231 0.50581 0.0
H6016 H 0.85862 0.89064 0.48367 0.0
H6017 H 0.86121 0.88168 0.49017 0.0
H6018 H 0.87054 0.87965 0.51144 0.0
H6019 H 0.86258 0.87862 0.50334 0.0
H6020 H 0.87584 0.92144 0.50087 0.0
H6021 H 0.86926 0.91996 0.49168 0.0
H6022 H 0.88599 0.91522 0.5074 0.0
H6023 H 0.88736 0.90654 0.51468 0.0
C6024 C 0.86486 0.11424 0.25066 0.0
C6025 C 0.8679 0.11867 0.24308 0.0
C6026 C 0.87355 0.1306 0.25227 0.0
C6027 C 0.86954 0.12671 0.25968 0.0
N6028 N 0.86111 0.11505 0.26609 0.0
N6029 N 0.8747 0.13124 0.23644 0.0
C6030 C 0.86519 0.11853 0.25894 0.0
C6031 C 0.87221 0.12687 0.24383 0.0
N6032 N 0.86179 0.10586 0.24994 0.0
N6033 N 0.87867 0.13785 0.25335 0.0
H6034 H 0.87399 0.12864 0.23017 0.0
H6035 H 0.87695 0.13767 0.23642 0.0
H6036 H 0.87969 0.14078 0.25943 0.0
H6037 H 0.88249 0.14055 0.2484 0.0
H6038 H 0.86031 0.10191 0.25528 0.0
H6039 H 0.86133 0.10259 0.24397 0.0
H6040 H 0.8569 0.1097 0.26581 0.0
H6041 H 0.86158 0.11781 0.27232 0.0
C6042 C 0.36315 0.62664 0.5251 0.0
C6043 C 0.36699 0.61945 0.52955 0.0
C6044 C 0.37865 0.61885 0.51852 0.0
C6045 C 0.37569 0.62694 0.51506 0.0
N6046 N 0.36515 0.63866 0.51491 0.0
N6047 N 0.37841 0.60862 0.53067 0.0
C6048 C 0.36785 0.63079 0.5182 0.0
C6049 C 0.37467 0.61542 0.52622 0.0
N6050 N 0.355 0.62945 0.52747 0.0
N6051 N 0.38531 0.61451 0.51442 0.0
H6052 H 0.37558 0.60583 0.53622 0.0
H6053 H 0.38454 0.60606 0.52919 0.0
H6054 H 0.3883 0.61692 0.50878 0.0
H6055 H 0.38732 0.60822 0.5161 0.0
H6056 H 0.35147 0.63412 0.524 0.0
H6057 H 0.35143 0.62653 0.53251 0.0
H6058 H 0.36014 0.64237 0.51763 0.0
H6059 H 0.36825 0.64171 0.50965 0.0
C6060 C 0.15026 0.62626 0.27896 0.0
C6061 C 0.15471 0.61813 0.27965 0.0
C6062 C 0.15739 0.61812 0.26379 0.0
C6063 C 0.15292 0.62624 0.2631 0.0
N6064 N 0.14362 0.63721 0.26952 0.0
N6065 N 0.161 0.60545 0.2727 0.0
C6066 C 0.14886 0.63003 0.27054 0.0
C6067 C 0.1578 0.61378 0.27204 0.0
N6068 N 0.14771 0.63056 0.28638 0.0
N6069 N 0.16153 0.61474 0.25662 0.0
H6070 H 0.16151 0.60215 0.27865 0.0
H6071 H 0.16253 0.60155 0.26733 0.0
H6072 H 0.16101 0.61752 0.2504 0.0
H6073 H 0.16581 0.60945 0.25685 0.0
H6074 H 0.14535 0.63695 0.28644 0.0
H6075 H 0.14847 0.62793 0.29264 0.0
H6076 H 0.13976 0.63982 0.27448 0.0
H6077 H 0.14256 0.64016 0.26346 0.0
C6078 C 0.36543 0.39693 0.77689 0.0
C6079 C 0.36923 0.4048 0.78005 0.0
C6080 C 0.38045 0.40412 0.76857 0.0
C6081 C 0.37681 0.39612 0.76558 0.0
N6082 N 0.36467 0.38614 0.76523 0.0
N6083 N 0.37877 0.41708 0.77763 0.0
C6084 C 0.36887 0.39296 0.76919 0.0
C6085 C 0.37622 0.40879 0.77543 0.0
N6086 N 0.35887 0.393 0.78152 0.0
N6087 N 0.3882 0.40699 0.76517 0.0
H6088 H 0.37579 0.42065 0.78263 0.0
H6089 H 0.38327 0.42071 0.77403 0.0
H6090 H 0.39132 0.40389 0.75994 0.0
H6091 H 0.39178 0.41215 0.76778 0.0
H6092 H 0.35652 0.38675 0.78016 0.0
H6093 H 0.35609 0.39578 0.7871 0.0
H6094 H 0.35847 0.38397 0.76702 0.0
H6095 H 0.36708 0.38315 0.75957 0.0
C6096 C 0.99533 0.87538 0.62269 0.0
C6097 C 0.99403 0.86768 0.61765 0.0
C6098 C 1.00982 0.86687 0.61477 0.0
C6099 C 1.01093 0.87516 0.61879 0.0
N6100 N 1.00476 0.88768 0.62614 0.0
N6101 N 0.99983 0.85638 0.60829 0.0
C6102 C 1.0037 0.87949 0.62272 0.0
C6103 C 1.00124 0.86345 0.61359 0.0
N6104 N 0.98859 0.87867 0.62758 0.0
N6105 N 0.01702 0.86226 0.61214 0.0
H6106 H 0.99366 0.85364 0.60732 0.0
H6107 H 1.00464 0.8536 0.60435 0.0
H6108 H 0.02338 0.86463 0.61291 0.0
H6109 H 0.01679 0.85582 0.60993 0.0
H6110 H 0.98933 0.88371 0.6321 0.0
H6111 H 0.98237 0.87587 0.62765 0.0
H6112 H 0.99958 0.89165 0.62811 0.0
H6113 H 1.01083 0.89076 0.62655 0.0
C6114 C 0.89918 0.24538 0.37165 0.0
C6115 C 0.90651 0.2443 0.36605 0.0
C6116 C 0.90663 0.26011 0.36315 0.0
C6117 C 0.89865 0.26099 0.3678 0.0
N6118 N 0.8869 0.25446 0.37603 0.0
N6119 N 0.91689 0.25041 0.35588 0.0
C6120 C 0.89484 0.25363 0.372 0.0
C6121 C 0.91021 0.25163 0.3617 0.0
N6122 N 0.89646 0.23855 0.37675 0.0
N6123 N 0.91082 0.26745 0.36021 0.0
H6124 H 0.91973 0.24432 0.35469 0.0
H6125 H 0.91922 0.2553 0.35175 0.0
H6126 H 0.90834 0.27374 0.36117 0.0
H6127 H 0.91708 0.26739 0.35752 0.0
H6128 H 0.89175 0.23914 0.38163 0.0
H6129 H 0.89944 0.23241 0.37659 0.0
H6130 H 0.88324 0.24917 0.37827 0.0
H6131 H 0.88367 0.26045 0.37667 0.0
C6132 C 0.52707 0.14764 0.12214 0.0
C6133 C 0.52819 0.15482 0.11636 0.0
C6134 C 0.51241 0.15487 0.11332 0.0
C6135 C 0.5115 0.14701 0.11818 0.0
N6136 N 0.51797 0.13546 0.12674 0.0
N6137 N 0.52216 0.16489 0.10582 0.0
C6138 C 0.51882 0.14331 0.12253 0.0
C6139 C 0.52091 0.15839 0.11183 0.0
N6140 N 0.53385 0.14506 0.12737 0.0
N6141 N 0.50511 0.159 0.11022 0.0
H6142 H 0.52827 0.16767 0.10458 0.0
H6143 H 0.51731 0.16709 0.10158 0.0
H6144 H 0.49881 0.15656 0.11121 0.0
H6145 H 0.5052 0.16518 0.10737 0.0
H6146 H 0.53321 0.14049 0.13238 0.0
H6147 H 0.53999 0.14803 0.1272 0.0
H6148 H 0.52325 0.13187 0.12911 0.0
H6149 H 0.51199 0.13224 0.1274 0.0
C6150 C 0.62401 0.77799 0.87228 0.0
C6151 C 0.61661 0.7793 0.86681 0.0
C6152 C 0.61612 0.76354 0.86368 0.0
C6153 C 0.62415 0.76243 0.8682 0.0
N6154 N 0.63617 0.7686 0.87631 0.0
N6155 N 0.60597 0.77355 0.85669 0.0
C6156 C 0.62818 0.76965 0.87244 0.0
C6157 C 0.61271 0.77212 0.8624 0.0
N6158 N 0.62693 0.78469 0.87743 0.0
N6159 N 0.61173 0.75634 0.8607 0.0
H6160 H 0.60325 0.77972 0.85563 0.0
H6161 H 0.60349 0.76877 0.85252 0.0
H6162 H 0.61408 0.74998 0.86154 0.0
H6163 H 0.60544 0.75657 0.85812 0.0
H6164 H 0.6317 0.78393 0.88224 0.0
H6165 H 0.62409 0.7909 0.87742 0.0
H6166 H 0.63996 0.77379 0.87857 0.0
H6167 H 0.63929 0.76255 0.87681 0.0
C6168 C 1.00015 0.1598 0.91003 0.0
C6169 C 0.99301 0.15588 0.90556 0.0
C6170 C 1.00274 0.14437 0.89993 0.0
C6171 C 1.00991 0.14841 0.90424 0.0
N6172 N 0.01591 0.16084 0.91181 0.0
N6173 N 0.98774 0.14559 0.89485 0.0
C6174 C 1.00875 0.15642 0.90878 0.0
C6175 C 0.99439 0.14852 0.90006 0.0
N6176 N 0.99865 0.1665 0.91577 0.0
N6177 N 1.00383 0.13639 0.89604 0.0
H6178 H 0.98153 0.14842 0.89484 0.0
H6179 H 0.98855 0.14085 0.89002 0.0
H6180 H 1.00989 0.13328 0.89558 0.0
H6181 H 0.99867 0.13259 0.89374 0.0
H6182 H 1.0034 0.16899 0.91998 0.0
H6183 H 0.99247 0.1692 0.91681 0.0
H6184 H 0.01563 0.16712 0.91443 0.0
H6185 H 0.02227 0.15851 0.91099 0.0
C6186 C 0.61325 0.25133 0.66054 0.0
C6187 C 0.61704 0.24413 0.65603 0.0
C6188 C 0.62862 0.25371 0.65033 0.0
C6189 C 0.6247 0.26094 0.65466 0.0
N6190 N 0.61242 0.2671 0.66234 0.0
N6191 N 0.6272 0.23871 0.64526 0.0
C6192 C 0.61672 0.25988 0.65926 0.0
C6193 C 0.62438 0.24541 0.65049 0.0
N6194 N 0.60658 0.24992 0.66633 0.0
N6195 N 0.63658 0.2547 0.64637 0.0
H6196 H 0.6243 0.23253 0.64527 0.0
H6197 H 0.63191 0.23946 0.6404 0.0
H6198 H 0.63975 0.26072 0.64588 0.0
H6199 H 0.6403 0.24949 0.64404 0.0
H6200 H 0.60418 0.2547 0.67055 0.0
H6201 H 0.60381 0.24377 0.66738 0.0
H6202 H 0.60616 0.26691 0.665 0.0
H6203 H 0.61481 0.27344 0.66151 0.0
C6204 C 0.52127 0.86361 0.40973 0.0
C6205 C 0.52851 0.8674 0.40531 0.0
C6206 C 0.51902 0.87905 0.39959 0.0
C6207 C 0.51175 0.87515 0.40385 0.0
N6208 N 0.50549 0.86285 0.41141 0.0
N6209 N 0.53404 0.87758 0.39463 0.0
C6210 C 0.51275 0.86713 0.40841 0.0
C6211 C 0.5273 0.87477 0.39979 0.0
N6212 N 0.52261 0.85689 0.41548 0.0
N6213 N 0.51808 0.88703 0.39566 0.0
H6214 H 0.54021 0.87465 0.39468 0.0
H6215 H 0.53335 0.88233 0.3898 0.0
H6216 H 0.51207 0.89023 0.39513 0.0
H6217 H 0.52332 0.89075 0.39338 0.0
H6218 H 0.5178 0.85449 0.41965 0.0
H6219 H 0.52874 0.85409 0.41657 0.0
H6220 H 0.50563 0.85657 0.41404 0.0
H6221 H 0.49917 0.86529 0.41056 0.0
C6222 C 0.89855 0.77866 0.15015 0.0
C6223 C 0.90587 0.77984 0.15574 0.0
C6224 C 0.90624 0.76402 0.15861 0.0
C6225 C 0.89826 0.76304 0.15399 0.0
N6226 N 0.88639 0.76942 0.14581 0.0
N6227 N 0.91635 0.77385 0.1659 0.0
C6228 C 0.89433 0.77035 0.1498 0.0
C6229 C 0.90968 0.77255 0.16008 0.0
N6230 N 0.89573 0.78545 0.14506 0.0
N6231 N 0.91056 0.75674 0.16152 0.0
H6232 H 0.91908 0.77998 0.16711 0.0
H6233 H 0.91875 0.76898 0.17002 0.0
H6234 H 0.90818 0.75041 0.16054 0.0
H6235 H 0.91682 0.75689 0.16419 0.0
H6236 H 0.89103 0.78479 0.14018 0.0
H6237 H 0.89862 0.79163 0.14521 0.0
H6238 H 0.88266 0.77467 0.14359 0.0
H6239 H 0.88324 0.76339 0.14517 0.0
C6240 C 0.62049 0.99487 0.87705 0.0
C6241 C 0.61759 0.99399 0.86827 0.0
C6242 C 0.61598 1.00995 0.8671 0.0
C6243 C 0.61898 1.01083 0.87585 0.0
N6244 N 0.62574 1.00449 0.88857 0.0
N6245 N 0.61417 1.00059 0.85438 0.0
C6246 C 0.62178 1.00338 0.88063 0.0
C6247 C 0.61584 1.00152 0.86311 0.0
N6248 N 0.62168 0.98755 0.88207 0.0
N6249 N 0.61295 0.01715 0.86274 0.0
H6250 H 0.61387 0.99451 0.85129 0.0
H6251 H 0.61374 1.00582 0.85004 0.0
H6252 H 0.61329 0.02346 0.86533 0.0
H6253 H 0.60968 0.01685 0.85678 0.0
H6254 H 0.6228 0.98772 0.88878 0.0
H6255 H 0.62099 0.98122 0.87963 0.0
H6256 H 0.62871 0.99944 0.89204 0.0
H6257 H 0.62671 1.01064 0.89137 0.0
C6258 C 0.77148 0.86543 0.61165 0.0
C6259 C 0.77891 0.86656 0.61711 0.0
C6260 C 0.76932 0.87029 0.62946 0.0
C6261 C 0.76192 0.8681 0.6243 0.0
N6262 N 0.75578 0.86314 0.61067 0.0
N6263 N 0.78506 0.86946 0.63133 0.0
C6264 C 0.76294 0.86563 0.61541 0.0
C6265 C 0.77787 0.8689 0.62604 0.0
N6266 N 0.77259 0.8643 0.60284 0.0
N6267 N 0.76812 0.87379 0.63761 0.0
H6268 H 0.79144 0.86866 0.62902 0.0
H6269 H 0.78473 0.87013 0.63809 0.0
H6270 H 0.76194 0.87484 0.6403 0.0
H6271 H 0.77317 0.87634 0.6414 0.0
H6272 H 0.76748 0.86436 0.59835 0.0
H6273 H 0.77875 0.86398 0.5999 0.0
H6274 H 0.75614 0.86025 0.60451 0.0
H6275 H 0.74942 0.86354 0.61311 0.0
C6276 C 0.90296 0.02825 0.37666 0.0
C6277 C 0.9053 0.02928 0.36773 0.0
C6278 C 0.90643 0.01332 0.36608 0.0
C6279 C 0.90397 0.01229 0.37497 0.0
N6280 N 0.8982 0.01848 0.38826 0.0
N6281 N 0.90764 0.02295 0.35349 0.0
C6282 C 0.90168 0.01969 0.38011 0.0
C6283 C 0.90652 0.02184 0.36229 0.0
N6284 N 0.9023 0.03546 0.38193 0.0
N6285 N 0.909 1.00616 0.36136 0.0
H6286 H 0.90789 0.02909 0.35053 0.0
H6287 H 0.90765 0.01781 0.34901 0.0
H6288 H 0.90869 0.9998 0.36382 0.0
H6289 H 0.91189 1.00654 0.3552 0.0
H6290 H 0.90163 0.03514 0.3887 0.0
H6291 H 0.90302 0.04184 0.37961 0.0
H6292 H 0.89559 0.02351 0.39204 0.0
H6293 H 0.89724 0.01229 0.39097 0.0
C6294 C 0.75082 0.15976 0.11419 0.0
C6295 C 0.74363 0.1551 0.11778 0.0
C6296 C 0.75311 0.14921 0.12935 0.0
C6297 C 0.76034 0.15371 0.12563 0.0
N6298 N 0.76658 0.16172 0.11361 0.0
N6299 N 0.7382 0.14403 0.1276 0.0
C6300 C 0.75934 0.15848 0.11774 0.0
C6301 C 0.74487 0.14939 0.125 0.0
N6302 N 0.74944 0.16568 0.10763 0.0
N6303 N 0.75405 0.14507 0.13722 0.0
H6304 H 0.73206 0.14406 0.12461 0.0
H6305 H 0.73893 0.13907 0.13221 0.0
H6306 H 0.76003 0.14457 0.14045 0.0
H6307 H 0.74882 0.1426 0.14081 0.0
H6308 H 0.7542 0.17001 0.1054 0.0
H6309 H 0.74332 0.16674 0.1048 0.0
H6310 H 0.76644 0.16452 0.10741 0.0
H6311 H 0.77289 0.1609 0.11607 0.0
C6312 C 0.6154 0.02107 0.66017 0.0
C6313 C 0.61654 0.02846 0.65465 0.0
C6314 C 0.62001 0.01877 0.64231 0.0
C6315 C 0.6178 1.01142 0.64753 0.0
N6316 N 0.61292 1.00541 0.66125 0.0
N6317 N 0.61932 0.03452 0.64037 0.0
C6318 C 0.61544 0.01252 0.65644 0.0
C6319 C 0.61875 0.02736 0.6457 0.0
N6320 N 0.61441 0.02225 0.66898 0.0
N6321 N 0.6234 0.01749 0.63413 0.0
H6322 H 0.61861 0.04092 0.64264 0.0
H6323 H 0.61989 0.03414 0.63359 0.0
H6324 H 0.62436 1.01128 0.63146 0.0
H6325 H 0.62596 0.02249 0.63029 0.0
H6326 H 0.61446 0.01715 0.67349 0.0
H6327 H 0.61419 0.02842 0.67189 0.0
H6328 H 0.6101 1.00584 0.66743 0.0
H6329 H 0.61318 0.99902 0.65883 0.0
C6330 C 0.75065 0.8632 0.41063 0.0
C6331 C 0.74341 0.86729 0.40647 0.0
C6332 C 0.75304 0.87259 0.39474 0.0
C6333 C 0.7603 0.86864 0.39899 0.0
N6334 N 0.76645 0.86186 0.41178 0.0
N6335 N 0.73792 0.87738 0.39568 0.0
C6336 C 0.75923 0.8645 0.40722 0.0
C6337 C 0.74468 0.87246 0.39887 0.0
N6338 N 0.74928 0.85777 0.4176 0.0
N6339 N 0.75406 0.87611 0.38659 0.0
H6340 H 0.7317 0.87738 0.3985 0.0
H6341 H 0.73863 0.88199 0.39072 0.0
H6342 H 0.76012 0.87658 0.38348 0.0
H6343 H 0.74886 0.87811 0.38267 0.0
H6344 H 0.75412 0.85382 0.42031 0.0
H6345 H 0.74312 0.85671 0.42033 0.0
H6346 H 0.76623 0.85956 0.41819 0.0
H6347 H 0.7728 0.86272 0.40943 0.0
C6348 C 0.89435 0.99629 0.15364 0.0
C6349 C 0.90158 0.9943 0.15912 0.0
C6350 C 0.907 1.00924 0.15689 0.0
C6351 C 0.90136 1.01009 0.14955 0.0
N6352 N 0.88915 1.00453 0.1412 0.0
N6353 N 0.90927 1.00177 0.17064 0.0
C6354 C 0.8948 1.00371 0.14806 0.0
C6355 C 0.90643 1.00161 0.16219 0.0
N6356 N 0.88661 0.99203 0.1548 0.0
N6357 N 0.91298 0.0156 0.15873 0.0
H6358 H 0.90756 0.99685 0.17505 0.0
H6359 H 0.91217 1.00723 0.17351 0.0
H6360 H 0.91329 0.02149 0.15528 0.0
H6361 H 0.91789 0.0148 0.16339 0.0
H6362 H 0.8809 0.99375 0.15149 0.0
H6363 H 0.88569 0.98771 0.16001 0.0
H6364 H 0.88485 0.99955 0.13938 0.0
H6365 H 0.88916 1.00992 0.13701 0.0
C6366 C 0.77819 0.1505 0.89913 0.0
C6367 C 0.77946 0.1563 0.90627 0.0
C6368 C 0.76371 0.15952 0.90648 0.0
C6369 C 0.76267 0.15467 0.89864 0.0
N6370 N 0.76891 0.14598 0.88706 0.0
N6371 N 0.77365 0.16693 0.9164 0.0
C6372 C 0.76989 0.1502 0.89488 0.0
C6373 C 0.77226 0.16092 0.90992 0.0
N6374 N 0.78488 0.14517 0.8965 0.0
N6375 N 0.75649 0.16273 0.91067 0.0
H6376 H 0.77979 0.16808 0.91913 0.0
H6377 H 0.76887 0.17122 0.91865 0.0
H6378 H 0.75015 0.1618 0.9083 0.0
H6379 H 0.75667 0.16559 0.91685 0.0
H6380 H 0.78413 0.14016 0.89196 0.0
H6381 H 0.79105 0.14528 0.89942 0.0
H6382 H 0.77412 0.14352 0.88342 0.0
H6383 H 0.76289 0.14538 0.8839 0.0
C6384 C 0.86276 0.61248 1.00058 0.0
C6385 C 0.86646 0.61696 0.99333 0.0
C6386 C 0.87795 0.62299 1.00283 0.0
C6387 C 0.87413 0.61865 1.0101 0.0
N6388 N 0.86201 0.61084 0.01637 0.0
N6389 N 0.87639 0.62787 0.98779 0.0
C6390 C 0.86622 0.61391 1.00911 0.0
C6391 C 0.87369 0.62266 0.99454 0.0
N6392 N 0.85617 0.60658 0.99925 0.0
N6393 N 0.88582 0.62711 1.00377 0.0
H6394 H 0.87348 0.62774 0.98162 0.0
H6395 H 0.88102 0.63281 0.98847 0.0
H6396 H 0.88898 0.62774 1.00979 0.0
H6397 H 0.88949 0.62946 0.99853 0.0
H6398 H 0.85386 0.60237 1.00408 0.0
H6399 H 0.85342 0.6054 0.99312 0.0
H6400 H 0.85579 0.60807 0.01623 0.0
H6401 H 0.86441 0.61177 0.02269 0.0
C6402 C 0.37272 0.90198 0.02689 0.0
C6403 C 0.36545 0.90768 0.02795 0.0
C6404 C 0.36551 0.9107 0.01216 0.0
C6405 C 0.37343 0.90594 0.01133 0.0
N6406 N 0.38504 0.89754 0.01791 0.0
N6407 N 0.3553 0.91809 0.02182 0.0
C6408 C 0.37713 0.90164 0.01869 0.0
C6409 C 0.36189 0.91216 0.02063 0.0
N6410 N 0.37529 0.89678 0.0337 0.0
N6411 N 0.36141 0.91374 1.00482 0.0
H6412 H 0.35245 0.9193 0.0279 0.0
H6413 H 0.35309 0.9223 0.01695 0.0
H6414 H 0.36392 0.91278 0.99854 0.0
H6415 H 0.35519 0.91652 1.00485 0.0
H6416 H 0.37993 0.89183 0.0331 0.0
H6417 H 0.37226 0.89692 0.03981 0.0
H6418 H 0.38861 0.89523 0.02323 0.0
H6419 H 0.38833 0.89692 0.01197 0.0
C6420 C 0.86572 0.6138 0.77191 0.0
C6421 C 0.8674 0.61912 0.77934 0.0
C6422 C 0.87137 0.63137 0.76973 0.0
C6423 C 0.86863 0.62642 0.76237 0.0
N6424 N 0.86279 0.6131 0.7563 0.0
N6425 N 0.87128 0.6331 0.78552 0.0
C6426 C 0.86577 0.61764 0.76341 0.0
C6427 C 0.87015 0.62793 0.7783 0.0
N6428 N 0.8642 0.60505 0.77299 0.0
N6429 N 0.87521 0.63935 0.76847 0.0
H6430 H 0.87063 0.63077 0.7919 0.0
H6431 H 0.87228 0.63983 0.78523 0.0
H6432 H 0.87614 0.64206 0.76227 0.0
H6433 H 0.87814 0.64296 0.77344 0.0
H6434 H 0.86382 0.60062 0.76783 0.0
H6435 H 0.86396 0.60207 0.77913 0.0
H6436 H 0.85962 0.60709 0.75671 0.0
H6437 H 0.86307 0.61559 0.74995 0.0
C6438 C 0.14968 0.12064 0.52717 0.0
C6439 C 0.15696 0.11495 0.5282 0.0
C6440 C 0.15697 0.11208 0.51238 0.0
C6441 C 0.14903 0.11682 0.51156 0.0
N6442 N 0.13738 0.12513 0.51819 0.0
N6443 N 0.16717 0.10464 0.522 0.0
C6444 C 0.1453 0.12104 0.51895 0.0
C6445 C 0.16056 0.11056 0.52084 0.0
N6446 N 0.14707 0.12577 0.53402 0.0
N6447 N 0.16111 0.10911 0.50502 0.0
H6448 H 0.17001 0.10339 0.52808 0.0
H6449 H 0.16942 0.10049 0.51709 0.0
H6450 H 0.15862 0.11013 0.49874 0.0
H6451 H 0.16734 0.10636 0.50504 0.0
H6452 H 0.14241 0.13071 0.53345 0.0
H6453 H 0.15008 0.12559 0.54014 0.0
H6454 H 0.13378 0.12739 0.52351 0.0
H6455 H 0.13411 0.1258 0.51224 0.0
C6456 C 0.15018 0.89851 0.7772 0.0
C6457 C 0.15589 0.90571 0.77855 0.0
C6458 C 0.15943 0.90585 0.76287 0.0
C6459 C 0.15466 0.89798 0.76177 0.0
N6460 N 0.14594 0.88636 0.76789 0.0
N6461 N 0.16655 0.91588 0.77292 0.0
C6462 C 0.15008 0.89422 0.76892 0.0
C6463 C 0.16063 0.90934 0.77143 0.0
N6464 N 0.14475 0.89588 0.7838 0.0
N6465 N 0.16275 0.91003 0.7557 0.0
H6466 H 0.16755 0.91866 0.77907 0.0
H6467 H 0.17092 0.91814 0.76822 0.0
H6468 H 0.16198 0.90762 0.74935 0.0
H6469 H 0.16556 0.91623 0.75591 0.0
H6470 H 0.13979 0.89129 0.78297 0.0
H6471 H 0.14471 0.89882 0.78996 0.0
H6472 H 0.14341 0.88273 0.77307 0.0
H6473 H 0.14549 0.88316 0.76188 0.0
C6474 C 0.65912 0.41145 0.50152 0.0
C6475 C 0.65534 0.40698 0.4943 0.0
C6476 C 0.64377 0.4012 0.50384 0.0
C6477 C 0.64769 0.40547 0.5111 0.0
N6478 N 0.65996 0.41313 0.51731 0.0
N6479 N 0.6452 0.39623 0.48882 0.0
C6480 C 0.65566 0.4101 0.51007 0.0
C6481 C 0.64801 0.40142 0.49554 0.0
N6482 N 0.66578 0.41726 0.50015 0.0
N6483 N 0.63581 0.39724 0.50481 0.0
H6484 H 0.6481 0.39629 0.48264 0.0
H6485 H 0.6405 0.39136 0.48954 0.0
H6486 H 0.63264 0.3967 0.51083 0.0
H6487 H 0.63209 0.39495 0.49958 0.0
H6488 H 0.66816 0.42146 0.50496 0.0
H6489 H 0.66852 0.41838 0.49401 0.0
H6490 H 0.66621 0.4158 0.51713 0.0
H6491 H 0.65757 0.41225 0.52364 0.0
C6492 C 0.86562 0.41102 0.75109 0.0
C6493 C 0.86708 0.40565 0.74365 0.0
C6494 C 0.87092 0.39333 0.75324 0.0
C6495 C 0.8684 0.39837 0.76062 0.0
N6496 N 0.86294 0.41182 0.76674 0.0
N6497 N 0.87055 0.39156 0.73745 0.0
C6498 C 0.86572 0.4072 0.7596 0.0
C6499 C 0.86965 0.39678 0.74467 0.0
N6500 N 0.86428 0.4198 0.75001 0.0
N6501 N 0.87459 0.38526 0.75446 0.0
H6502 H 0.86986 0.3939 0.73108 0.0
H6503 H 0.87141 0.38481 0.73775 0.0
H6504 H 0.87554 0.38254 0.76064 0.0
H6505 H 0.87737 0.38157 0.74945 0.0
H6506 H 0.86408 0.42426 0.75516 0.0
H6507 H 0.86402 0.42278 0.74388 0.0
H6508 H 0.8599 0.41791 0.76636 0.0
H6509 H 0.86326 0.40935 0.7731 0.0
C6510 C 0.65283 0.62723 0.24503 0.0
C6511 C 0.65499 0.61827 0.24382 0.0
C6512 C 0.65601 0.61625 0.25974 0.0
C6513 C 0.65375 0.62518 0.26095 0.0
N6514 N 0.6483 0.63873 0.25504 0.0
N6515 N 0.65699 0.60384 0.24985 0.0
C6516 C 0.6516 0.63052 0.25366 0.0
C6517 C 0.65605 0.61265 0.25114 0.0
N6518 N 0.6523 0.63265 0.23794 0.0
N6519 N 0.65844 0.61133 0.2668 0.0
H6520 H 0.65721 0.60101 0.24364 0.0
H6521 H 0.65688 0.59926 0.25488 0.0
H6522 H 0.65816 0.61366 0.27321 0.0
H6523 H 0.66118 0.60511 0.2663 0.0
H6524 H 0.65177 0.63943 0.23839 0.0
H6525 H 0.65296 0.63044 0.23152 0.0
H6526 H 0.64579 0.64267 0.25009 0.0
H6527 H 0.64737 0.64133 0.26128 0.0
C6528 C 0.52796 0.65731 0.89382 0.0
C6529 C 0.53004 0.65604 0.9028 0.0
C6530 C 0.5179 0.6456 0.9042 0.0
C6531 C 0.51588 0.64685 0.89523 0.0
N6532 N 0.51741 0.65536 0.8821 0.0
N6533 N 0.52589 0.65064 0.917 0.0
C6534 C 0.52038 0.65324 0.89026 0.0
C6535 C 0.52463 0.65071 0.90814 0.0
N6536 N 0.5335 0.66196 0.88857 0.0
N6537 N 0.51362 0.63927 0.90884 0.0
H6538 H 0.53076 0.65431 0.92005 0.0
H6539 H 0.52169 0.64755 0.92137 0.0
H6540 H 0.50842 0.6357 0.90625 0.0
H6541 H 0.51548 0.63725 0.91507 0.0
H6542 H 0.5329 0.66225 0.88179 0.0
H6543 H 0.53914 0.66502 0.89087 0.0
H6544 H 0.51985 0.66056 0.87844 0.0
H6545 H 0.5119 0.65243 0.87933 0.0
C6546 C 0.61556 0.27772 0.14362 0.0
C6547 C 0.6168 0.27984 0.15259 0.0
C6548 C 0.62705 0.26754 0.15413 0.0
C6549 C 0.62583 0.26548 0.14516 0.0
N6550 N 0.61741 0.26706 0.13197 0.0
N6551 N 0.62204 0.27568 0.16685 0.0
C6552 C 0.61953 0.27005 0.14013 0.0
C6553 C 0.62201 0.27437 0.158 0.0
N6554 N 0.61102 0.28331 0.1383 0.0
N6555 N 0.63329 0.26319 0.15883 0.0
H6556 H 0.61842 0.28064 0.16985 0.0
H6557 H 0.62504 0.27146 0.17127 0.0
H6558 H 0.6368 0.25792 0.15628 0.0
H6559 H 0.63529 0.26506 0.16507 0.0
H6560 H 0.61077 0.28267 0.13153 0.0
H6561 H 0.60803 0.28901 0.14056 0.0
H6562 H 0.61228 0.26956 0.12827 0.0
H6563 H 0.62027 0.26148 0.12925 0.0
C6564 C 0.99501 0.37556 0.40604 0.0
C6565 C 0.9923 0.36715 0.40316 0.0
C6566 C 1.00404 0.36699 0.39218 0.0
C6567 C 1.00653 0.37552 0.39485 0.0
N6568 N 1.00612 0.38693 0.40567 0.0
N6569 N 0.99552 0.35392 0.39524 0.0
C6570 C 1.0026 0.37944 0.40228 0.0
C6571 C 0.99728 0.36255 0.3968 0.0
N6572 N 0.99005 0.38003 0.412 0.0
N6573 N 1.00782 0.36334 0.38494 0.0
H6574 H 0.99061 0.35052 0.39854 0.0
H6575 H 0.99938 0.34994 0.39128 0.0
H6576 H 0.013 0.36628 0.38162 0.0
H6577 H 1.00557 0.35764 0.38197 0.0
H6578 H 0.99107 0.38657 0.4136 0.0
H6579 H 0.98454 0.37734 0.41499 0.0
H6580 H 1.00408 0.38975 0.41152 0.0
H6581 H 0.01168 0.38987 0.403 0.0
C6582 C 0.91245 0.75072 0.65043 0.0
C6583 C 0.90825 0.74515 0.65656 0.0
C6584 C 0.89505 0.75414 0.65528 0.0
C6585 C 0.89839 0.75776 0.6474 0.0
N6586 N 0.91073 0.76002 0.63776 0.0
N6587 N 0.89895 0.74738 0.66903 0.0
C6588 C 0.90729 0.75636 0.64514 0.0
C6589 C 0.90044 0.74846 0.66031 0.0
N6590 N 0.92133 0.75147 0.65052 0.0
N6591 N 0.88672 0.75599 0.6579 0.0
H6592 H 0.9037 0.74466 0.67312 0.0
H6593 H 0.89373 0.75029 0.67233 0.0
H6594 H 0.88276 0.76051 0.65466 0.0
H6595 H 0.88367 0.75273 0.66306 0.0
H6596 H 0.92472 0.75602 0.64674 0.0
H6597 H 0.92511 0.74829 0.65524 0.0
H6598 H 0.91692 0.75839 0.63541 0.0
H6599 H 0.90721 0.76425 0.63373 0.0
C6600 C 0.52692 0.37522 0.61587 0.0
C6601 C 0.52994 0.36719 0.61943 0.0
C6602 C 0.51844 0.36771 0.63065 0.0
C6603 C 0.51558 0.37586 0.62723 0.0
N6604 N 0.51542 0.38622 0.61541 0.0
N6605 N 0.5273 0.35466 0.6286 0.0
C6606 C 0.51926 0.3792 0.61941 0.0
C6607 C 0.52525 0.36306 0.6263 0.0
N6608 N 0.53163 0.37929 0.60945 0.0
N6609 N 0.51497 0.36466 0.6383 0.0
H6610 H 0.53225 0.35111 0.62552 0.0
H6611 H 0.52364 0.35096 0.63299 0.0
H6612 H 0.50978 0.36774 0.64149 0.0
H6613 H 0.5175 0.35935 0.64173 0.0
H6614 H 0.53038 0.38562 0.60729 0.0
H6615 H 0.53718 0.37652 0.60661 0.0
H6616 H 0.51727 0.38854 0.60928 0.0
H6617 H 0.50981 0.38921 0.61789 0.0
C6618 C 0.89615 0.27816 0.86689 0.0
C6619 C 0.90459 0.28073 0.86976 0.0
C6620 C 0.90476 0.26869 0.88041 0.0
C6621 C 0.89625 0.26624 0.87766 0.0
N6622 N 0.8848 0.26703 0.86691 0.0
N6623 N 0.91784 0.27725 0.87754 0.0
C6624 C 0.89228 0.27045 0.8704 0.0
C6625 C 0.9092 0.27558 0.87597 0.0
N6626 N 0.89162 0.28335 0.86118 0.0
N6627 N 0.90841 0.26474 0.88755 0.0
H6628 H 0.92125 0.28224 0.87437 0.0
H6629 H 0.92181 0.27326 0.88137 0.0
H6630 H 0.90547 0.25948 0.89076 0.0
H6631 H 0.9141 0.26693 0.89058 0.0
H6632 H 0.88506 0.28241 0.85963 0.0
H6633 H 0.89426 0.28898 0.85838 0.0
H6634 H 0.88197 0.26927 0.86113 0.0
H6635 H 0.88185 0.26139 0.86938 0.0
C6636 C 0.99778 0.65049 0.11376 0.0
C6637 C 0.99234 0.65577 0.11914 0.0
C6638 C 1.00207 0.65305 0.13163 0.0
C6639 C 1.00662 0.6467 0.12664 0.0
N6640 N 1.0089 0.63914 0.11301 0.0
N6641 N 0.98886 0.66164 0.13339 0.0
C6642 C 1.00458 0.64543 0.11767 0.0
C6643 C 0.99444 0.65705 0.12811 0.0
N6644 N 0.99648 0.6504 0.10492 0.0
N6645 N 1.00506 0.65521 0.13978 0.0
H6646 H 0.98318 0.66465 0.13111 0.0
H6647 H 0.98949 0.66194 0.14017 0.0
H6648 H 1.01061 0.65233 0.14253 0.0
H6649 H 1.00257 0.66038 0.14345 0.0
H6650 H 1.0007 0.64735 0.10052 0.0
H6651 H 0.99156 0.65403 0.10189 0.0
H6652 H 1.00704 0.63711 0.10679 0.0
H6653 H 0.01415 0.63561 0.11558 0.0
C6654 C 0.61499 0.74493 0.37886 0.0
C6655 C 0.61638 0.74268 0.36994 0.0
C6656 C 0.62676 0.75487 0.36844 0.0
C6657 C 0.62538 0.75705 0.37736 0.0
N6658 N 0.61669 0.75573 0.39039 0.0
N6659 N 0.62192 0.74661 0.35573 0.0
C6660 C 0.61895 0.75261 0.38232 0.0
C6661 C 0.62173 0.74803 0.36456 0.0
N6662 N 0.61031 0.73944 0.38416 0.0
N6663 N 0.63313 0.75909 0.3638 0.0
H6664 H 0.61831 0.74166 0.35272 0.0
H6665 H 0.62504 0.75076 0.35131 0.0
H6666 H 0.63664 0.76436 0.36634 0.0
H6667 H 0.63523 0.75713 0.35762 0.0
H6668 H 0.60993 0.74018 0.39092 0.0
H6669 H 0.60733 0.73373 0.38193 0.0
H6670 H 0.61146 0.75332 0.39403 0.0
H6671 H 0.61954 0.76132 0.39309 0.0
C6672 C 0.90111 0.52874 0.64578 0.0
C6673 C 0.90533 0.52949 0.65402 0.0
C6674 C 0.90796 0.51362 0.65423 0.0
C6675 C 0.90368 0.51286 0.64602 0.0
N6676 N 0.89471 0.51922 0.63476 0.0
N6677 N 0.91129 0.52263 0.66689 0.0
C6678 C 0.89976 0.52029 0.64206 0.0
C6679 C 0.90829 0.52191 0.6585 0.0
N6680 N 0.89871 0.53614 0.64135 0.0
N6681 N 0.91197 0.50645 0.65777 0.0
H6682 H 0.91176 0.52862 0.67015 0.0
H6683 H 0.91271 0.5173 0.67088 0.0
H6684 H 0.91149 0.50021 0.65504 0.0
H6685 H 0.91613 0.50672 0.66315 0.0
H6686 H 0.89652 0.53615 0.6349 0.0
H6687 H 0.89943 0.54241 0.64393 0.0
H6688 H 0.89094 0.52419 0.63201 0.0
H6689 H 0.89369 0.51314 0.63183 0.0
C6690 C 0.74784 0.65892 0.90108 0.0
C6691 C 0.74248 0.65371 0.90659 0.0
C6692 C 0.75227 0.64117 0.90422 0.0
C6693 C 0.75671 0.64595 0.89765 0.0
N6694 N 0.75882 0.65931 0.88959 0.0
N6695 N 0.73916 0.63966 0.91301 0.0
C6696 C 0.7546 0.65486 0.89609 0.0
C6697 C 0.74465 0.6448 0.90817 0.0
N6698 N 0.74649 0.66776 0.9007 0.0
N6699 N 0.75533 0.63312 0.90663 0.0
H6700 H 0.73351 0.64202 0.916 0.0
H6701 H 0.73984 0.6329 0.91355 0.0
H6702 H 0.76087 0.63031 0.9038 0.0
H6703 H 0.75292 0.62962 0.91196 0.0
H6704 H 0.75065 0.67206 0.89745 0.0
H6705 H 0.74159 0.67089 0.90427 0.0
H6706 H 0.7569 0.66546 0.88736 0.0
H6707 H 0.76404 0.65665 0.8861 0.0
C6708 C 0.62586 0.49744 0.15937 0.0
C6709 C 0.61908 0.49277 0.15506 0.0
C6710 C 0.61932 0.50352 0.14312 0.0
C6711 C 0.62708 0.50718 0.14665 0.0
N6712 N 0.63788 0.50773 0.1581 0.0
N6713 N 0.60935 0.49117 0.14276 0.0
C6714 C 0.63031 0.50428 0.15486 0.0
C6715 C 0.6157 0.49585 0.14698 0.0
N6716 N 0.62798 0.49534 0.1678 0.0
N6717 N 0.61548 0.5074 0.13604 0.0
H6718 H 0.60644 0.48561 0.14544 0.0
H6719 H 0.60733 0.49246 0.13639 0.0
H6720 H 0.61804 0.51303 0.13313 0.0
H6721 H 0.60941 0.50557 0.13357 0.0
H6722 H 0.63228 0.49898 0.17162 0.0
H6723 H 0.62483 0.49036 0.17125 0.0
H6724 H 0.6412 0.50518 0.16347 0.0
H6725 H 0.64114 0.51294 0.15512 0.0
C6726 C 0.7759 0.37691 0.40871 0.0
C6727 C 0.78039 0.36979 0.40479 0.0
C6728 C 0.76953 0.36948 0.39297 0.0
C6729 C 0.76603 0.37751 0.39606 0.0
N6730 N 0.7658 0.38904 0.4068 0.0
N6731 N 0.78171 0.35929 0.39309 0.0
C6732 C 0.76909 0.3812 0.404 0.0
C6733 C 0.77718 0.36597 0.39696 0.0
N6734 N 0.77813 0.37953 0.41697 0.0
N6735 N 0.76551 0.36528 0.38618 0.0
H6736 H 0.78725 0.35646 0.39588 0.0
H6737 H 0.78032 0.3569 0.38686 0.0
H6738 H 0.7599 0.36774 0.38317 0.0
H6739 H 0.76721 0.35903 0.38407 0.0
H6740 H 0.7746 0.38413 0.42055 0.0
H6741 H 0.78309 0.37651 0.42056 0.0
H6742 H 0.76848 0.39264 0.41192 0.0
H6743 H 0.76062 0.39219 0.40368 0.0
C6744 C 0.90436 0.49498 0.87719 0.0
C6745 C 0.90176 0.49252 0.86862 0.0
C6746 C 0.89133 0.50476 0.86817 0.0
C6747 C 0.89386 0.50714 0.87678 0.0
N6748 N 0.9042 0.50608 0.88858 0.0
N6749 N 0.89451 0.49622 0.85514 0.0
C6750 C 0.90088 0.50276 0.88097 0.0
C6751 C 0.89581 0.49781 0.86384 0.0
N6752 N 0.90978 0.48964 0.8819 0.0
N6753 N 0.88438 0.50884 0.86432 0.0
H6754 H 0.89771 0.49119 0.8518 0.0
H6755 H 0.8909 0.50032 0.85107 0.0
H6756 H 0.88114 0.51412 0.86718 0.0
H6757 H 0.8815 0.50671 0.85852 0.0
H6758 H 0.9111 0.49052 0.88852 0.0
H6759 H 0.91254 0.48395 0.87934 0.0
H6760 H 0.90984 0.5037 0.89158 0.0
H6761 H 0.90177 0.51177 0.89147 0.0
C6762 C 0.77818 0.64461 0.11554 0.0
C6763 C 0.78023 0.6536 0.11676 0.0
C6764 C 0.76799 0.65505 0.12709 0.0
C6765 C 0.76599 0.64607 0.12587 0.0
N6766 N 0.76763 0.63288 0.11744 0.0
N6767 N 0.77601 0.66783 0.12206 0.0
C6768 C 0.77057 0.64106 0.11955 0.0
C6769 C 0.77477 0.65897 0.12202 0.0
N6770 N 0.78378 0.63933 0.11096 0.0
N6771 N 0.76365 0.65973 0.13336 0.0
H6772 H 0.78092 0.67087 0.11842 0.0
H6773 H 0.77177 0.67222 0.12508 0.0
H6774 H 0.75842 0.65715 0.1369 0.0
H6775 H 0.76548 0.66598 0.13536 0.0
H6776 H 0.78319 0.63255 0.1107 0.0
H6777 H 0.78944 0.64163 0.10794 0.0
H6778 H 0.77013 0.62919 0.11229 0.0
H6779 H 0.76209 0.63012 0.12033 0.0
C6780 C 0.61638 0.52799 0.37612 0.0
C6781 C 0.61955 0.53085 0.36787 0.0
C6782 C 0.63056 0.51912 0.36793 0.0
C6783 C 0.62749 0.51638 0.37625 0.0
N6784 N 0.61619 0.51657 0.38718 0.0
N6785 N 0.628 0.52787 0.35491 0.0
C6786 C 0.61993 0.52028 0.37996 0.0
C6787 C 0.6261 0.52597 0.36344 0.0
N6788 N 0.61032 0.53291 0.3805 0.0
N6789 N 0.63799 0.51548 0.36453 0.0
H6790 H 0.62483 0.53284 0.35146 0.0
H6791 H 0.63211 0.52406 0.35103 0.0
H6792 H 0.64124 0.51027 0.3675 0.0
H6793 H 0.6412 0.51791 0.35904 0.0
H6794 H 0.6085 0.53176 0.38696 0.0
H6795 H 0.6075 0.53854 0.37787 0.0
H6796 H 0.61023 0.51858 0.38979 0.0
H6797 H 0.61869 0.51091 0.39009 0.0
C6798 C 0.74709 0.37642 0.61323 0.0
C6799 C 0.74236 0.36955 0.61731 0.0
C6800 C 0.75296 0.36946 0.62937 0.0
C6801 C 0.75667 0.3773 0.62608 0.0
N6802 N 0.75733 0.38843 0.61495 0.0
N6803 N 0.74057 0.35954 0.62937 0.0
C6804 C 0.75386 0.38075 0.61794 0.0
C6805 C 0.74532 0.36596 0.62535 0.0
N6806 N 0.7451 0.37875 0.60483 0.0
N6807 N 0.75676 0.36541 0.63638 0.0
H6808 H 0.73502 0.35673 0.62657 0.0
H6809 H 0.74178 0.35737 0.63571 0.0
H6810 H 0.76237 0.36787 0.6394 0.0
H6811 H 0.7549 0.35927 0.63866 0.0
H6812 H 0.7488 0.38314 0.60117 0.0
H6813 H 0.74018 0.37568 0.60124 0.0
H6814 H 0.75483 0.39188 0.60964 0.0
H6815 H 0.76249 0.39162 0.61808 0.0
C6816 C 0.65007 0.90883 0.52443 0.0
C6817 C 0.65545 0.90346 0.52976 0.0
C6818 C 0.6527 0.89101 0.51996 0.0
C6819 C 0.64626 0.89599 0.51553 0.0
N6820 N 0.63857 0.90958 0.51348 0.0
N6821 N 0.66147 0.88922 0.53304 0.0
C6822 C 0.64496 0.90494 0.51767 0.0
C6823 C 0.65677 0.89451 0.52757 0.0
N6824 N 0.64993 0.91767 0.5258 0.0
N6825 N 0.65488 0.8829 0.51688 0.0
H6826 H 0.66454 0.89148 0.53869 0.0
H6827 H 0.66181 0.88245 0.53236 0.0
H6828 H 0.65195 0.88017 0.51135 0.0
H6829 H 0.6601 0.87924 0.51927 0.0
H6830 H 0.6468 0.92208 0.52166 0.0
H6831 H 0.6536 0.9207 0.5307 0.0
H6832 H 0.63652 0.91578 0.51542 0.0
H6833 H 0.635 0.90703 0.50825 0.0
C6834 C 0.15 0.61405 0.49831 0.0
C6835 C 0.15532 0.61938 0.49288 0.0
C6836 C 0.15279 0.63187 0.50268 0.0
C6837 C 0.14638 0.62695 0.50722 0.0
N6838 N 0.13866 0.61341 0.50944 0.0
N6839 N 0.16136 0.63358 0.48946 0.0
C6840 C 0.14501 0.61801 0.50514 0.0
C6841 C 0.15672 0.62833 0.49502 0.0
N6842 N 0.1498 0.60521 0.49698 0.0
N6843 N 0.15506 0.63998 0.50571 0.0
H6844 H 0.16432 0.63128 0.48376 0.0
H6845 H 0.16174 0.64035 0.49012 0.0
H6846 H 0.15223 0.64273 0.51129 0.0
H6847 H 0.16027 0.64359 0.50323 0.0
H6848 H 0.14671 0.60084 0.50119 0.0
H6849 H 0.15339 0.60215 0.49204 0.0
H6850 H 0.13655 0.60722 0.50755 0.0
H6851 H 0.13517 0.61601 0.5147 0.0
C6852 C 0.64495 0.90762 0.74506 0.0
C6853 C 0.65389 0.90615 0.74294 0.0
C6854 C 0.65515 0.89581 0.75519 0.0
C6855 C 0.64621 0.89726 0.75725 0.0
N6856 N 0.63326 0.90604 0.7557 0.0
N6857 N 0.668 0.9005 0.74707 0.0
C6858 C 0.64135 0.90371 0.7527 0.0
C6859 C 0.65916 0.90077 0.74838 0.0
N6860 N 0.63976 0.91232 0.73949 0.0
N6861 N 0.65968 0.88942 0.7595 0.0
H6862 H 0.67109 0.90406 0.74214 0.0
H6863 H 0.67233 0.89737 0.75129 0.0
H6864 H 0.65705 0.88595 0.76475 0.0
H6865 H 0.66586 0.88726 0.75763 0.0
H6866 H 0.63299 0.91275 0.74012 0.0
H6867 H 0.64209 0.91527 0.7338 0.0
H6868 H 0.62969 0.91128 0.75322 0.0
H6869 H 0.63046 0.90323 0.76126 0.0
C6870 C 0.37186 0.40835 0.99794 0.0
C6871 C 0.36638 0.40312 0.99257 0.0
C6872 C 0.36882 0.39057 1.00232 0.0
C6873 C 0.37536 0.39538 1.00679 0.0
N6874 N 0.38334 0.40879 1.00892 0.0
N6875 N 0.36005 0.38903 0.98921 0.0
C6876 C 0.37686 0.40431 1.0047 0.0
C6877 C 0.36485 0.39419 0.99472 0.0
N6878 N 0.37219 0.41719 0.99662 0.0
N6879 N 0.36645 0.38251 1.00537 0.0
H6880 H 0.35706 0.39139 0.98355 0.0
H6881 H 0.35956 0.38227 0.98986 0.0
H6882 H 0.3693 0.37969 1.0109 0.0
H6883 H 0.36115 0.37898 1.00295 0.0
H6884 H 0.3754 0.4215 1.00079 0.0
H6885 H 0.3686 0.42031 0.99173 0.0
H6886 H 0.38553 0.41495 1.00702 0.0
H6887 H 0.38684 0.40613 0.01414 0.0
C6888 C 0.36413 0.61419 0.75097 0.0
C6889 C 0.36698 0.6187 0.74337 0.0
C6890 C 0.37265 0.63064 0.75254 0.0
C6891 C 0.36881 0.62666 0.75999 0.0
N6892 N 0.36059 0.61489 0.76645 0.0
N6893 N 0.37351 0.6314 0.73669 0.0
C6894 C 0.36453 0.61845 0.75926 0.0
C6895 C 0.37121 0.62695 0.7441 0.0
N6896 N 0.36115 0.60578 0.75025 0.0
N6897 N 0.37773 0.63793 0.75357 0.0
H6898 H 0.37271 0.62884 0.73041 0.0
H6899 H 0.37569 0.63785 0.73668 0.0
H6900 H 0.37883 0.64082 0.75966 0.0
H6901 H 0.38143 0.64069 0.74858 0.0
H6902 H 0.35981 0.60179 0.7556 0.0
H6903 H 0.36064 0.60253 0.74427 0.0
H6904 H 0.35644 0.6095 0.7662 0.0
H6905 H 0.36111 0.61762 0.77269 0.0
C6906 C 0.86478 0.12897 0.028 0.0
C6907 C 0.86606 0.11999 0.03008 0.0
C6908 C 0.87637 0.11855 0.01783 0.0
C6909 C 0.87512 0.12752 0.01582 0.0
N6910 N 0.8666 0.14066 0.01739 0.0
N6911 N 0.87137 0.10577 0.02588 0.0
C6912 C 0.86877 0.13251 0.02037 0.0
C6913 C 0.87131 0.11462 0.02462 0.0
N6914 N 0.86021 0.13426 0.0336 0.0
N6915 N 0.88266 0.11389 0.01351 0.0
H6916 H 0.86773 0.10273 0.03079 0.0
H6917 H 0.87441 0.10138 0.02164 0.0
H6918 H 0.8862 0.11647 1.00828 0.0
H6919 H 0.88468 0.10765 0.01536 0.0
H6920 H 0.85992 0.14104 0.03298 0.0
H6921 H 0.85722 0.13198 0.03928 0.0
H6922 H 0.86143 0.14433 0.01988 0.0
H6923 H 0.86947 0.1434 0.01183 0.0
C6924 C 0.64677 0.11405 0.7756 0.0
C6925 C 0.65375 0.11814 0.78016 0.0
C6926 C 0.65395 0.12991 0.76924 0.0
C6927 C 0.64602 0.12667 0.76569 0.0
N6928 N 0.63474 0.11568 0.76536 0.0
N6929 N 0.66404 0.13001 0.78149 0.0
C6930 C 0.64247 0.11865 0.76873 0.0
C6931 C 0.65747 0.12601 0.77693 0.0
N6932 N 0.6443 0.10576 0.77786 0.0
N6933 N 0.65805 0.13676 0.76522 0.0
H6934 H 0.66688 0.12727 0.78706 0.0
H6935 H 0.66634 0.13627 0.78009 0.0
H6936 H 0.65558 0.1397 0.75957 0.0
H6937 H 0.66424 0.139 0.76697 0.0
H6938 H 0.63982 0.10207 0.77431 0.0
H6939 H 0.64734 0.10225 0.78287 0.0
H6940 H 0.63122 0.11049 0.76802 0.0
H6941 H 0.63158 0.11872 0.76013 0.0
C6942 C 0.86813 0.89533 0.27863 0.0
C6943 C 0.87073 0.90388 0.28118 0.0
C6944 C 0.88116 0.90446 0.26896 0.0
C6945 C 0.87866 0.89586 0.2665 0.0
N6946 N 0.86834 0.88403 0.26744 0.0
N6947 N 0.87796 0.91741 0.27762 0.0
C6948 C 0.87163 0.89162 0.27083 0.0
C6949 C 0.87667 0.90872 0.27594 0.0
N6950 N 0.8627 0.89057 0.28391 0.0
N6951 N 0.8881 0.90837 0.26491 0.0
H6952 H 0.87475 0.9207 0.28268 0.0
H6953 H 0.88156 0.92153 0.27357 0.0
H6954 H 0.89133 0.90556 0.25959 0.0
H6955 H 0.89096 0.91416 0.26708 0.0
H6956 H 0.86139 0.88396 0.28296 0.0
H6957 H 0.85993 0.89309 0.28961 0.0
H6958 H 0.86271 0.881 0.26977 0.0
H6959 H 0.87079 0.8812 0.26173 0.0
C6960 C 0.50064 0.36275 0.11221 0.0
C6961 C 0.49339 0.36652 0.11664 0.0
C6962 C 0.50285 0.37816 0.12241 0.0
C6963 C 0.51013 0.37427 0.11814 0.0
N6964 N 0.51642 0.362 0.11054 0.0
N6965 N 0.48783 0.37666 0.12737 0.0
C6966 C 0.50916 0.36627 0.11355 0.0
C6967 C 0.49458 0.37387 0.12219 0.0
N6968 N 0.49932 0.35605 0.10642 0.0
N6969 N 0.50376 0.38614 0.12637 0.0
H6970 H 0.48168 0.37372 0.12731 0.0
H6971 H 0.48851 0.38138 0.13222 0.0
H6972 H 0.50976 0.38934 0.1269 0.0
H6973 H 0.49852 0.38983 0.12865 0.0
H6974 H 0.50414 0.35367 0.10224 0.0
H6975 H 0.4932 0.35325 0.10532 0.0
H6976 H 0.51629 0.35573 0.10789 0.0
H6977 H 0.52274 0.36443 0.11142 0.0
C6978 C 0.39858 0.74548 0.87131 0.0
C6979 C 0.406 0.74438 0.86582 0.0
C6980 C 0.40626 0.76021 0.863 0.0
C6981 C 0.39822 0.76111 0.86754 0.0
N6982 N 0.38628 0.75461 0.87552 0.0
N6983 N 0.41654 0.75048 0.8558 0.0
C6984 C 0.39429 0.75376 0.87163 0.0
C6985 C 0.40979 0.75171 0.86155 0.0
N6986 N 0.39575 0.73865 0.87633 0.0
N6987 N 0.41055 0.76753 0.86016 0.0
H6988 H 0.41935 0.74437 0.85461 0.0
H6989 H 0.41896 0.75537 0.85173 0.0
H6990 H 0.4081 0.77383 0.86112 0.0
H6991 H 0.41684 0.76744 0.85757 0.0
H6992 H 0.39097 0.73925 0.88115 0.0
H6993 H 0.39869 0.73248 0.8762 0.0
H6994 H 0.38256 0.74933 0.87767 0.0
H6995 H 0.38307 0.76061 0.87613 0.0
C6996 C 0.02114 0.65908 0.61258 0.0
C6997 C 0.02833 0.65546 0.61721 0.0
C6998 C 0.01882 0.64395 0.62315 0.0
C6999 C 0.0116 0.64768 0.61866 0.0
N7000 N 1.00537 0.65971 0.61064 0.0
N7001 N 0.03376 0.64563 0.62827 0.0
C7002 C 0.01261 0.65556 0.61388 0.0
C7003 C 0.02708 0.64825 0.62293 0.0
N7004 N 0.02252 0.66564 0.60665 0.0
N7005 N 0.01786 0.63609 0.62733 0.0
H7006 H 0.03991 0.64859 0.62821 0.0
H7007 H 0.03303 0.64103 0.63324 0.0
H7008 H 0.01186 0.6329 0.62788 0.0
H7009 H 0.02308 0.63248 0.62979 0.0
H7010 H 0.01775 0.6679 0.60234 0.0
H7011 H 0.02864 0.66844 0.60557 0.0
H7012 H 1.00552 0.66591 0.60783 0.0
H7013 H 0.99905 0.65727 0.61149 0.0
C7014 C 0.12592 0.2786 0.36974 0.0
C7015 C 0.11708 0.27963 0.36709 0.0
C7016 C 0.11551 0.26367 0.36579 0.0
C7017 C 0.12432 0.26264 0.36854 0.0
N7018 N 0.13738 0.2688 0.3748 0.0
N7019 N 0.10295 0.2733 0.36419 0.0
C7020 C 0.12935 0.27002 0.37107 0.0
C7021 C 0.11171 0.27219 0.36563 0.0
N7022 N 0.13113 0.28581 0.37067 0.0
N7023 N 0.1109 0.25652 0.36302 0.0
H7024 H 0.1 0.27944 0.36387 0.0
H7025 H 0.09849 0.26816 0.36397 0.0
H7026 H 0.11336 0.25016 0.3634 0.0
H7027 H 0.10485 0.2569 0.35993 0.0
H7028 H 0.13787 0.2855 0.37158 0.0
H7029 H 0.12881 0.29219 0.36994 0.0
H7030 H 0.14105 0.27381 0.37759 0.0
H7031 H 0.14008 0.2626 0.3758 0.0
C7032 C 0.50076 0.66087 0.40969 0.0
C7033 C 0.49355 0.65664 0.40564 0.0
C7034 C 0.50322 0.64484 0.40054 0.0
C7035 C 0.51045 0.64917 0.40444 0.0
N7036 N 0.51654 0.66208 0.41107 0.0
N7037 N 0.48811 0.64567 0.3957 0.0
C7038 C 0.50934 0.65745 0.40847 0.0
C7039 C 0.49485 0.64895 0.40058 0.0
N7040 N 0.49935 0.66792 0.41503 0.0
N7041 N 0.50427 0.63663 0.39714 0.0
H7042 H 0.48189 0.64848 0.39564 0.0
H7043 H 0.48885 0.64064 0.39117 0.0
H7044 H 0.51034 0.63353 0.39674 0.0
H7045 H 0.49909 0.63267 0.39519 0.0
H7046 H 0.50417 0.67069 0.41896 0.0
H7047 H 0.49318 0.67064 0.41603 0.0
H7048 H 0.5163 0.66852 0.41328 0.0
H7049 H 0.5229 0.65973 0.41026 0.0
C7050 C 0.12282 0.74502 0.15132 0.0
C7051 C 0.11559 0.74395 0.15706 0.0
C7052 C 0.11565 0.75974 0.1601 0.0
C7053 C 0.12355 0.76059 0.15531 0.0
N7054 N 0.13511 0.75401 0.14683 0.0
N7055 N 0.10547 0.75007 0.16751 0.0
C7056 C 0.12722 0.75323 0.15097 0.0
C7057 C 0.11204 0.75128 0.16156 0.0
N7058 N 0.12537 0.73822 0.1461 0.0
N7059 N 0.11156 0.76709 0.16318 0.0
H7060 H 0.10262 0.74399 0.16871 0.0
H7061 H 0.10327 0.75495 0.17173 0.0
H7062 H 0.11406 0.77337 0.16221 0.0
H7063 H 0.10535 0.76705 0.16598 0.0
H7064 H 0.12998 0.73882 0.14112 0.0
H7065 H 0.12234 0.7321 0.14624 0.0
H7066 H 0.13867 0.7487 0.14448 0.0
H7067 H 0.13839 0.75997 0.1462 0.0
C7068 C 0.02124 0.36307 0.90974 0.0
C7069 C 0.02846 0.36702 0.90544 0.0
C7070 C 0.0189 0.37872 0.89995 0.0
C7071 C 0.01166 0.37468 0.90412 0.0
N7072 N 1.00546 0.36218 0.9114 0.0
N7073 N 0.03395 0.37749 0.89502 0.0
C7074 C 0.01269 0.36656 0.9085 0.0
C7075 C 0.02721 0.37451 0.90009 0.0
N7076 N 0.02261 0.35621 0.91532 0.0
N7077 N 0.0179 0.38677 0.89618 0.0
H7078 H 0.04014 0.3746 0.89502 0.0
H7079 H 0.03324 0.38234 0.89029 0.0
H7080 H 0.01186 0.38991 0.89568 0.0
H7081 H 0.02311 0.39058 0.89399 0.0
H7082 H 0.0178 0.35367 0.91942 0.0
H7083 H 0.02875 0.35342 0.91634 0.0
H7084 H 1.00563 0.35584 0.91388 0.0
H7085 H 0.99912 0.3646 0.9106 0.0
C7086 C 0.39743 0.2775 0.64993 0.0
C7087 C 0.40486 0.27876 0.65536 0.0
C7088 C 0.40529 0.26299 0.65847 0.0
C7089 C 0.39724 0.26194 0.65398 0.0
N7090 N 0.38521 0.2682 0.64593 0.0
N7091 N 0.41551 0.27293 0.66544 0.0
C7092 C 0.39322 0.26919 0.64977 0.0
C7093 C 0.40875 0.27154 0.65975 0.0
N7094 N 0.39452 0.28423 0.64481 0.0
N7095 N 0.40965 0.25575 0.66142 0.0
H7096 H 0.41827 0.27908 0.6665 0.0
H7097 H 0.41798 0.26813 0.66959 0.0
H7098 H 0.40726 0.24941 0.66058 0.0
H7099 H 0.41596 0.25594 0.66398 0.0
H7100 H 0.38972 0.2835 0.64003 0.0
H7101 H 0.39739 0.29042 0.64483 0.0
H7102 H 0.38143 0.27341 0.64371 0.0
H7103 H 0.38206 0.26216 0.64544 0.0
C7104 C 0.11306 0.50032 0.36297 0.0
C7105 C 0.11728 0.49301 0.36688 0.0
C7106 C 0.12284 0.50243 0.37867 0.0
C7107 C 0.11873 0.50975 0.37468 0.0
N7108 N 0.11151 0.51614 0.36224 0.0
N7109 N 0.12758 0.48731 0.37735 0.0
C7110 C 0.11436 0.50883 0.36655 0.0
C7111 C 0.12261 0.49414 0.3744 0.0
N7112 N 0.10752 0.49906 0.35607 0.0
N7113 N 0.12665 0.50334 0.38671 0.0
H7114 H 0.1275 0.48114 0.37443 0.0
H7115 H 0.1323 0.48792 0.38222 0.0
H7116 H 0.12724 0.50937 0.38986 0.0
H7117 H 0.12879 0.49809 0.39048 0.0
H7118 H 0.10347 0.50393 0.35354 0.0
H7119 H 0.10647 0.49295 0.35321 0.0
H7120 H 0.10904 0.51605 0.3559 0.0
H7121 H 0.11234 0.52244 0.36474 0.0
C7122 C 0.27089 0.36632 0.11324 0.0
C7123 C 0.27833 0.36803 0.11853 0.0
C7124 C 0.26874 0.37211 0.13077 0.0
C7125 C 0.26138 0.36935 0.12585 0.0
N7126 N 0.25529 0.3634 0.11259 0.0
N7127 N 0.28453 0.372 0.13247 0.0
C7128 C 0.2624 0.36641 0.11709 0.0
C7129 C 0.27731 0.37086 0.12732 0.0
N7130 N 0.27196 0.36473 0.1045 0.0
N7131 N 0.2675 0.37602 0.13873 0.0
H7132 H 0.2909 0.37132 0.13014 0.0
H7133 H 0.28425 0.37306 0.13919 0.0
H7134 H 0.26131 0.37698 0.14143 0.0
H7135 H 0.27248 0.37897 0.14231 0.0
H7136 H 0.2668 0.36434 0.10008 0.0
H7137 H 0.27809 0.36447 0.10151 0.0
H7138 H 0.25569 0.36017 0.10661 0.0
H7139 H 0.24894 0.3637 0.11508 0.0
C7140 C 0.41014 0.52192 0.86285 0.0
C7141 C 0.40568 0.52921 0.86653 0.0
C7142 C 0.39988 0.51984 0.87823 0.0
C7143 C 0.40419 0.51253 0.87444 0.0
N7144 N 0.41185 0.50612 0.86227 0.0
N7145 N 0.39492 0.53485 0.87657 0.0
C7146 C 0.40881 0.51343 0.86645 0.0
C7147 C 0.40011 0.52808 0.87387 0.0
N7148 N 0.41595 0.52319 0.85616 0.0
N7149 N 0.39589 0.51899 0.88619 0.0
H7150 H 0.39499 0.54099 0.87358 0.0
H7151 H 0.39005 0.53421 0.88129 0.0
H7152 H 0.39534 0.51301 0.88944 0.0
H7153 H 0.39357 0.52427 0.88983 0.0
H7154 H 0.42015 0.51835 0.85385 0.0
H7155 H 0.41705 0.52929 0.8533 0.0
H7156 H 0.41453 0.5062 0.85601 0.0
H7157 H 0.41099 0.49983 0.86477 0.0
C7158 C 0.24458 0.65016 0.62481 0.0
C7159 C 0.24336 0.65571 0.61746 0.0
C7160 C 0.25911 0.65887 0.61722 0.0
C7161 C 0.26011 0.65428 0.62522 0.0
N7162 N 0.25379 0.646 0.63706 0.0
N7163 N 0.24924 0.66594 0.607 0.0
C7164 C 0.25285 0.64997 0.6291 0.0
C7165 C 0.25059 0.66017 0.6137 0.0
N7166 N 0.23785 0.64496 0.62759 0.0
N7167 N 0.26637 0.66191 0.61297 0.0
H7168 H 0.24312 0.66702 0.60419 0.0
H7169 H 0.25404 0.67014 0.60462 0.0
H7170 H 0.27268 0.66107 0.61541 0.0
H7171 H 0.26623 0.66456 0.6067 0.0
H7172 H 0.23855 0.64011 0.63231 0.0
H7173 H 0.23169 0.645 0.62465 0.0
H7174 H 0.24856 0.64369 0.64075 0.0
H7175 H 0.2598 0.64548 0.64025 0.0
C7176 C 0.12279 0.52837 0.1485 0.0
C7177 C 0.11696 0.52952 0.15564 0.0
C7178 C 0.11354 0.51381 0.15538 0.0
C7179 C 0.11843 0.51292 0.14755 0.0
N7180 N 0.12732 0.51934 0.13623 0.0
N7181 N 0.10622 0.52358 0.16555 0.0
C7182 C 0.12303 0.52018 0.14403 0.0
C7183 C 0.11223 0.52228 0.15905 0.0
N7184 N 0.1282 0.53507 0.14609 0.0
N7185 N 0.1102 0.50652 0.15933 0.0
H7186 H 0.10514 0.52966 0.16845 0.0
H7187 H 0.10185 0.5188 0.16764 0.0
H7188 H 0.11104 0.50024 0.15678 0.0
H7189 H 0.10729 0.50656 0.16549 0.0
H7190 H 0.13323 0.53439 0.14156 0.0
H7191 H 0.12813 0.54117 0.14917 0.0
H7192 H 0.12988 0.52461 0.13276 0.0
H7193 H 0.12788 0.5134 0.13293 0.0
C7194 C 0.24528 0.3723 0.89911 0.0
C7195 C 0.24406 0.36661 0.90634 0.0
C7196 C 0.25979 0.36333 0.90645 0.0
C7197 C 0.26079 0.36809 0.89855 0.0
N7198 N 0.25447 0.37663 0.8869 0.0
N7199 N 0.2499 0.35608 0.91653 0.0
C7200 C 0.25354 0.37252 0.89479 0.0
C7201 C 0.25126 0.362 0.90997 0.0
N7202 N 0.23859 0.37762 0.89647 0.0
N7203 N 0.26703 0.36015 0.91062 0.0
H7204 H 0.24377 0.35497 0.91932 0.0
H7205 H 0.25468 0.35179 0.91879 0.0
H7206 H 0.27335 0.36102 0.90819 0.0
H7207 H 0.26689 0.35736 0.91683 0.0
H7208 H 0.23931 0.38257 0.89186 0.0
H7209 H 0.23244 0.37757 0.89943 0.0
H7210 H 0.24924 0.37905 0.88328 0.0
H7211 H 0.26046 0.37716 0.88368 0.0
C7212 C 0.40788 0.50203 0.65978 0.0
C7213 C 0.4062 0.49457 0.6545 0.0
C7214 C 0.40225 0.50413 0.6422 0.0
C7215 C 0.40496 0.51151 0.64713 0.0
N7216 N 0.41081 0.51765 0.66041 0.0
N7217 N 0.40239 0.48833 0.64053 0.0
C7218 C 0.40783 0.51052 0.6559 0.0
C7219 C 0.40348 0.49557 0.64568 0.0
N7220 N 0.40939 0.50099 0.66854 0.0
N7221 N 0.39842 0.50534 0.6342 0.0
H7222 H 0.40306 0.48196 0.64289 0.0
H7223 H 0.40141 0.48859 0.6338 0.0
H7224 H 0.39749 0.51153 0.63146 0.0
H7225 H 0.39551 0.50035 0.63062 0.0
H7226 H 0.40976 0.50617 0.67294 0.0
H7227 H 0.40963 0.49487 0.67155 0.0
H7228 H 0.41398 0.51726 0.66642 0.0
H7229 H 0.41054 0.52399 0.6579 0.0
C7230 C 0.27093 0.65981 0.40885 0.0
C7231 C 0.27816 0.65537 0.40505 0.0
C7232 C 0.26862 0.64956 0.39349 0.0
C7233 C 0.26137 0.65385 0.3974 0.0
N7234 N 0.25515 0.6615 0.40968 0.0
N7235 N 0.28366 0.64462 0.3949 0.0
C7236 C 0.26239 0.65847 0.40539 0.0
C7237 C 0.27693 0.6498 0.39772 0.0
N7238 N 0.2723 0.66561 0.41553 0.0
N7239 N 0.26765 0.64557 0.38554 0.0
H7240 H 0.28984 0.64469 0.3978 0.0
H7241 H 0.28295 0.63976 0.39019 0.0
H7242 H 0.26162 0.64501 0.38239 0.0
H7243 H 0.27287 0.64327 0.38182 0.0
H7244 H 0.26749 0.6698 0.41793 0.0
H7245 H 0.27843 0.66672 0.41829 0.0
H7246 H 0.25532 0.66417 0.41594 0.0
H7247 H 0.24882 0.66062 0.40728 0.0
C7248 C 0.36246 0.11165 0.5011 0.0
C7249 C 0.36603 0.11617 0.49381 0.0
C7250 C 0.37765 0.1222 0.50314 0.0
C7251 C 0.37396 0.11783 0.51046 0.0
N7252 N 0.36197 0.10994 0.5169 0.0
N7253 N 0.37585 0.12712 0.48814 0.0
C7254 C 0.36606 0.11306 0.50958 0.0
C7255 C 0.37327 0.12188 0.49492 0.0
N7256 N 0.35587 0.10573 0.49986 0.0
N7257 N 0.38553 0.12635 0.50397 0.0
H7258 H 0.37284 0.127 0.48202 0.0
H7259 H 0.38047 0.13208 0.48877 0.0
H7260 H 0.38878 0.12697 0.50994 0.0
H7261 H 0.3891 0.12872 0.49869 0.0
H7262 H 0.35365 0.10149 0.5047 0.0
H7263 H 0.35302 0.10458 0.49377 0.0
H7264 H 0.35576 0.10715 0.51685 0.0
H7265 H 0.36447 0.11086 0.52319 0.0
C7266 C 0.8625 0.41116 0.5211 0.0
C7267 C 0.86613 0.4067 0.5284 0.0
C7268 C 0.87773 0.40066 0.51903 0.0
C7269 C 0.87398 0.40497 0.51171 0.0
N7270 N 0.8619 0.41277 0.5053 0.0
N7271 N 0.87603 0.39581 0.53406 0.0
C7272 C 0.86605 0.40972 0.51261 0.0
C7273 C 0.87339 0.401 0.52728 0.0
N7274 N 0.85589 0.41707 0.52235 0.0
N7275 N 0.88563 0.39655 0.51818 0.0
H7276 H 0.87305 0.39595 0.5402 0.0
H7277 H 0.88067 0.39086 0.53343 0.0
H7278 H 0.88886 0.39591 0.5122 0.0
H7279 H 0.88925 0.39422 0.52346 0.0
H7280 H 0.85362 0.42127 0.5175 0.0
H7281 H 0.85307 0.41825 0.52845 0.0
H7282 H 0.85568 0.41554 0.50538 0.0
H7283 H 0.86437 0.41182 0.499 0.0
C7284 C 0.36165 0.11391 0.27174 0.0
C7285 C 0.36645 0.1172 0.27899 0.0
C7286 C 0.37275 0.1287 0.26969 0.0
C7287 C 0.36809 0.12529 0.26241 0.0
N7288 N 0.35961 0.1137 0.25598 0.0
N7289 N 0.37788 0.1265 0.28456 0.0
C7290 C 0.36303 0.11756 0.26328 0.0
C7291 C 0.37242 0.12422 0.27786 0.0
N7292 N 0.3555 0.10754 0.27302 0.0
N7293 N 0.37718 0.13642 0.26888 0.0
H7294 H 0.37776 0.12341 0.29065 0.0
H7295 H 0.38301 0.13093 0.28389 0.0
H7296 H 0.37781 0.13973 0.26294 0.0
H7297 H 0.37981 0.13983 0.27416 0.0
H7298 H 0.35108 0.10555 0.26824 0.0
H7299 H 0.35436 0.10464 0.27909 0.0
H7300 H 0.35657 0.1076 0.25601 0.0
H7301 H 0.3605 0.11624 0.24971 0.0
C7302 C 0.66027 0.61499 0.02088 0.0
C7303 C 0.65502 0.61657 0.02838 0.0
C7304 C 0.64264 0.62054 0.01892 0.0
C7305 C 0.64756 0.61793 0.01149 0.0
N7306 N 0.66084 0.61222 1.00523 0.0
N7307 N 0.64106 0.62026 0.03473 0.0
C7308 C 0.65635 0.6151 0.01242 0.0
C7309 C 0.64617 0.61926 0.02745 0.0
N7310 N 0.66904 0.6135 0.02186 0.0
N7311 N 0.63462 0.62433 0.01779 0.0
H7312 H 0.64346 0.61955 0.04108 0.0
H7313 H 0.63433 0.62121 0.03451 0.0
H7314 H 0.63184 0.6253 0.01163 0.0
H7315 H 0.63103 0.62718 0.02283 0.0
H7316 H 0.67342 0.6132 0.01666 0.0
H7317 H 0.67208 0.61321 0.02796 0.0
H7318 H 0.66687 0.60907 1.00556 0.0
H7319 H 0.6583 0.61255 0.99891 0.0
C7320 C 0.65233 0.39583 0.27772 0.0
C7321 C 0.65497 0.40468 0.27875 0.0
C7322 C 0.65642 0.40619 0.2628 0.0
C7323 C 0.65368 0.39738 0.26178 0.0
N7324 N 0.64735 0.38434 0.26792 0.0
N7325 N 0.65789 0.4188 0.27239 0.0
C7326 C 0.65108 0.39237 0.26915 0.0
C7327 C 0.65649 0.41003 0.27131 0.0
N7328 N 0.65136 0.39063 0.28494 0.0
N7329 N 0.65928 0.41078 0.25568 0.0
H7330 H 0.65814 0.42178 0.27853 0.0
H7331 H 0.65815 0.42324 0.26724 0.0
H7332 H 0.65899 0.40829 0.24932 0.0
H7333 H 0.66236 0.41683 0.25607 0.0
H7334 H 0.65046 0.38389 0.28464 0.0
H7335 H 0.65204 0.39297 0.29132 0.0
H7336 H 0.64452 0.38069 0.27292 0.0
H7337 H 0.64639 0.38163 0.26173 0.0
C7338 C 0.1487 0.90103 0.99562 0.0
C7339 C 0.15605 0.90658 0.99443 0.0
C7340 C 0.1563 0.90966 1.01021 0.0
C7341 C 0.14831 0.90504 1.01118 0.0
N7342 N 0.13646 0.89683 1.00481 0.0
N7343 N 0.16648 0.91682 1.00036 0.0
C7344 C 0.14442 0.90079 1.0039 0.0
C7345 C 0.1598 0.91102 1.00168 0.0
N7346 N 0.14592 0.89586 0.98887 0.0
N7347 N 0.16056 0.91266 0.01747 0.0
H7348 H 0.16926 0.91795 0.99423 0.0
H7349 H 0.16884 0.92101 1.00519 0.0
H7350 H 0.15813 0.91177 0.02379 0.0
H7351 H 0.16682 0.91532 0.01733 0.0
H7352 H 0.14121 0.891 0.98955 0.0
H7353 H 0.14885 0.89593 0.9827 0.0
H7354 H 0.13276 0.89456 0.99957 0.0
H7355 H 0.13326 0.89628 1.01082 0.0
C7356 C 0.37018 0.89642 0.24399 0.0
C7357 C 0.36742 0.90525 0.24309 0.0
C7358 C 0.36592 0.90652 0.25905 0.0
C7359 C 0.36876 0.89772 0.25994 0.0
N7360 N 0.37529 0.88485 0.25362 0.0
N7361 N 0.36429 0.91924 0.24966 0.0
C7362 C 0.37145 0.89286 0.2525 0.0
C7363 C 0.36581 0.91047 0.25061 0.0
N7364 N 0.37126 0.89135 0.23669 0.0
N7365 N 0.36299 0.91096 0.26624 0.0
H7366 H 0.36401 0.92231 0.24357 0.0
H7367 H 0.36396 0.92361 0.25488 0.0
H7368 H 0.36329 0.90839 0.27256 0.0
H7369 H 0.35983 0.91699 0.26594 0.0
H7370 H 0.37226 0.88462 0.23688 0.0
H7371 H 0.37059 0.89378 0.23035 0.0
H7372 H 0.37818 0.88131 0.24858 0.0
H7373 H 0.37626 0.88207 0.25978 0.0
C7374 C 0.15624 0.11215 0.75107 0.0
C7375 C 0.15445 0.11732 0.74355 0.0
C7376 C 0.15024 0.12965 0.75297 0.0
C7377 C 0.15309 0.12487 0.7604 0.0
N7378 N 0.15918 0.11177 0.76668 0.0
N7379 N 0.15025 0.1311 0.73715 0.0
C7380 C 0.15611 0.11613 0.7595 0.0
C7381 C 0.15151 0.12609 0.74445 0.0
N7382 N 0.15794 0.10342 0.75012 0.0
N7383 N 0.14626 0.13759 0.75411 0.0
H7384 H 0.15091 0.12866 0.73081 0.0
H7385 H 0.1491 0.13781 0.73733 0.0
H7386 H 0.14529 0.14038 0.76026 0.0
H7387 H 0.14325 0.14106 0.74909 0.0
H7388 H 0.15841 0.09908 0.75535 0.0
H7389 H 0.15825 0.10034 0.74404 0.0
H7390 H 0.16246 0.10581 0.76637 0.0
H7391 H 0.15885 0.11435 0.773 0.0
C7392 C 0.10949 0.15022 0.46525 0.0
C7393 C 0.10667 0.14506 0.45805 0.0
C7394 C 0.11886 0.13485 0.46041 0.0
C7395 C 0.12159 0.13992 0.46771 0.0
N7396 N 0.11889 0.15152 0.47802 0.0
N7397 N 0.10764 0.13179 0.44958 0.0
C7398 C 0.11669 0.14733 0.47042 0.0
C7399 C 0.11104 0.13715 0.4559 0.0
N7400 N 0.10542 0.15801 0.46696 0.0
N7401 N 0.12394 0.12802 0.45761 0.0
H7402 H 0.10209 0.13338 0.44596 0.0
H7403 H 0.10992 0.12549 0.44834 0.0
H7404 H 0.12951 0.12592 0.46094 0.0
H7405 H 0.12296 0.12474 0.45173 0.0
H7406 H 0.10773 0.16259 0.47144 0.0
H7407 H 0.09993 0.16016 0.46353 0.0
H7408 H 0.11513 0.15642 0.48088 0.0
H7409 H 0.12422 0.14965 0.48185 0.0
C7410 C 0.13621 0.86033 0.70536 0.0
C7411 C 0.12803 0.85628 0.70701 0.0
C7412 C 0.12532 0.86649 0.71914 0.0
C7413 C 0.13305 0.87109 0.71688 0.0
N7414 N 0.14563 0.87293 0.70755 0.0
N7415 N 0.11449 0.85561 0.71505 0.0
C7416 C 0.13848 0.86812 0.70995 0.0
C7417 C 0.12252 0.85936 0.71383 0.0
N7418 N 0.14185 0.85666 0.69945 0.0
N7419 N 0.12075 0.8689 0.72645 0.0
H7420 H 0.11237 0.85017 0.71151 0.0
H7421 H 0.10971 0.85814 0.71919 0.0
H7422 H 0.12257 0.87417 0.73038 0.0
H7423 H 0.11555 0.86533 0.72901 0.0
H7424 H 0.14829 0.8587 0.69861 0.0
H7425 H 0.14031 0.85111 0.69579 0.0
H7426 H 0.14926 0.87177 0.70191 0.0
H7427 H 0.14768 0.8785 0.71094 0.0
C7428 C 0.41275 0.8725 0.96472 0.0
C7429 C 0.41569 0.87778 0.95766 0.0
C7430 C 0.4036 0.88808 0.96014 0.0
C7431 C 0.40077 0.88291 0.96732 0.0
N7432 N 0.40326 0.87108 0.97741 0.0
N7433 N 0.41496 0.89125 0.9495 0.0
C7434 C 0.40555 0.87539 0.96991 0.0
C7435 C 0.41144 0.88579 0.95565 0.0
N7436 N 0.41667 0.86461 0.96627 0.0
N7437 N 0.39861 0.895 0.95743 0.0
H7438 H 0.42055 0.88968 0.94591 0.0
H7439 H 0.41277 0.8976 0.94838 0.0
H7440 H 0.39302 0.89708 0.96074 0.0
H7441 H 0.39968 0.89839 0.95162 0.0
H7442 H 0.41426 0.85997 0.97062 0.0
H7443 H 0.42214 0.86245 0.9628 0.0
H7444 H 0.40695 0.86608 0.98019 0.0
H7445 H 0.39794 0.87295 0.98126 0.0
C7446 C 0.38861 0.16128 0.20445 0.0
C7447 C 0.39545 0.16671 0.20761 0.0
C7448 C 0.39729 0.15711 0.22038 0.0
C7449 C 0.3902 0.15191 0.2174 0.0
N7450 N 0.37805 0.14985 0.20757 0.0
N7451 N 0.4053 0.17079 0.21921 0.0
C7452 C 0.38553 0.15426 0.20973 0.0
C7453 C 0.39949 0.16492 0.21578 0.0
N7454 N 0.38532 0.16261 0.19624 0.0
N7455 N 0.40209 0.15442 0.22743 0.0
H7456 H 0.4071 0.17653 0.21598 0.0
H7457 H 0.4078 0.17036 0.22553 0.0
H7458 H 0.40052 0.14887 0.23107 0.0
H7459 H 0.40794 0.15734 0.22933 0.0
H7460 H 0.38107 0.15827 0.19314 0.0
H7461 H 0.38732 0.16773 0.1922 0.0
H7462 H 0.37383 0.15181 0.20261 0.0
H7463 H 0.37565 0.14461 0.21123 0.0
C7464 C 0.10951 0.87182 0.05817 0.0
C7465 C 0.10644 0.8772 0.06511 0.0
C7466 C 0.11839 0.88761 0.06248 0.0
C7467 C 0.12134 0.88233 0.05542 0.0
N7468 N 0.11907 0.87028 0.04555 0.0
N7469 N 0.10692 0.89084 0.073 0.0
C7470 C 0.11668 0.8747 0.05296 0.0
C7471 C 0.11056 0.88531 0.06698 0.0
N7472 N 0.1057 0.86385 0.05675 0.0
N7473 N 0.12327 0.89465 0.06509 0.0
H7474 H 0.10135 0.88926 0.0766 0.0
H7475 H 0.10901 0.89724 0.07401 0.0
H7476 H 0.12886 0.89672 0.06179 0.0
H7477 H 0.12211 0.89814 0.07082 0.0
H7478 H 0.10821 0.85915 0.05251 0.0
H7479 H 0.10023 0.86169 0.06021 0.0
H7480 H 0.11547 0.86517 0.04285 0.0
H7481 H 0.12438 0.87215 0.04168 0.0
C7482 C 0.39884 0.85844 0.30698 0.0
C7483 C 0.3949 0.85683 0.31524 0.0
C7484 C 0.38531 0.86957 0.31321 0.0
C7485 C 0.38992 0.87172 0.30545 0.0
N7486 N 0.40155 0.86878 0.29523 0.0
N7487 N 0.3851 0.86133 0.32677 0.0
C7488 C 0.39679 0.86628 0.30237 0.0
C7489 C 0.38829 0.8625 0.31849 0.0
N7490 N 0.40441 0.85237 0.30348 0.0
N7491 N 0.378 0.87421 0.31547 0.0
H7492 H 0.38703 0.85617 0.3308 0.0
H7493 H 0.38104 0.86581 0.32991 0.0
H7494 H 0.37568 0.87949 0.3118 0.0
H7495 H 0.37381 0.87241 0.32052 0.0
H7496 H 0.40681 0.85268 0.29712 0.0
H7497 H 0.4061 0.8466 0.30672 0.0
H7498 H 0.40727 0.86567 0.29323 0.0
H7499 H 0.40009 0.87436 0.29157 0.0
C7500 C 0.41409 0.14903 0.55664 0.0
C7501 C 0.41572 0.14516 0.56492 0.0
C7502 C 0.40298 0.13557 0.56301 0.0
C7503 C 0.40081 0.1401 0.5552 0.0
N7504 N 0.40373 0.15164 0.54487 0.0
N7505 N 0.41124 0.13547 0.57654 0.0
C7506 C 0.40624 0.14694 0.55206 0.0
C7507 C 0.41006 0.13858 0.56824 0.0
N7508 N 0.42015 0.15456 0.55308 0.0
N7509 N 0.39833 0.12828 0.56533 0.0
H7510 H 0.4164 0.13743 0.58055 0.0
H7511 H 0.40677 0.13145 0.57973 0.0
H7512 H 0.39305 0.12594 0.5617 0.0
H7513 H 0.40014 0.12413 0.57042 0.0
H7514 H 0.41982 0.15691 0.5467 0.0
H7515 H 0.42592 0.15628 0.5563 0.0
H7516 H 0.40684 0.15734 0.54282 0.0
H7517 H 0.39815 0.15015 0.54124 0.0
C7518 C 0.12322 0.16433 0.80745 0.0
C7519 C 0.12713 0.16592 0.81572 0.0
C7520 C 0.13661 0.15309 0.81375 0.0
C7521 C 0.13203 0.15097 0.80595 0.0
N7522 N 0.12047 0.15399 0.79569 0.0
N7523 N 0.13685 0.16138 0.82728 0.0
C7524 C 0.12522 0.15646 0.80285 0.0
C7525 C 0.13368 0.1602 0.819 0.0
N7526 N 0.11772 0.17044 0.80392 0.0
N7527 N 0.14386 0.14838 0.81604 0.0
H7528 H 0.13496 0.16657 0.83129 0.0
H7529 H 0.14085 0.15687 0.83045 0.0
H7530 H 0.14615 0.14307 0.81239 0.0
H7531 H 0.14805 0.15014 0.82111 0.0
H7532 H 0.11535 0.17014 0.79754 0.0
H7533 H 0.11606 0.17623 0.80714 0.0
H7534 H 0.11478 0.15715 0.79367 0.0
H7535 H 0.12189 0.14839 0.79205 0.0
C7536 C 0.46295 0.10898 0.15117 0.0
C7537 C 0.45623 0.10602 0.14548 0.0
C7538 C 0.4596 0.11785 0.13514 0.0
C7539 C 0.46648 0.12067 0.14071 0.0
N7540 N 0.47571 0.11825 0.15323 0.0
N7541 N 0.44902 0.10658 0.13148 0.0
C7542 C 0.46847 0.11601 0.14849 0.0
C7543 C 0.45484 0.11013 0.13727 0.0
N7544 N 0.46389 0.10523 0.15923 0.0
N7545 N 0.45741 0.12276 0.12799 0.0
H7546 H 0.44524 0.10108 0.13291 0.0
H7547 H 0.44838 0.10865 0.12502 0.0
H7548 H 0.46089 0.1283 0.12606 0.0
H7549 H 0.45182 0.1217 0.12425 0.0
H7550 H 0.46794 0.10769 0.16411 0.0
H7551 H 0.46019 0.09987 0.16128 0.0
H7552 H 0.47808 0.11462 0.15848 0.0
H7553 H 0.4798 0.12343 0.15149 0.0
C7554 C 0.16107 0.20588 0.38725 0.0
C7555 C 0.16546 0.20785 0.39519 0.0
C7556 C 0.15551 0.22024 0.39773 0.0
C7557 C 0.15059 0.21769 0.39029 0.0
N7558 N 0.14815 0.20784 0.37822 0.0
N7559 N 0.16677 0.21649 0.40831 0.0
C7560 C 0.15326 0.21048 0.38508 0.0
C7561 C 0.16269 0.21496 0.4005 0.0
N7562 N 0.16442 0.19965 0.38176 0.0
N7563 N 0.15336 0.22776 0.40207 0.0
H7564 H 0.17225 0.21298 0.41038 0.0
H7565 H 0.16449 0.22088 0.41299 0.0
H7566 H 0.14806 0.23168 0.40029 0.0
H7567 H 0.15716 0.23051 0.40701 0.0
H7568 H 0.16213 0.19855 0.37545 0.0
H7569 H 0.16997 0.19597 0.38326 0.0
H7570 H 0.1491 0.20202 0.37481 0.0
H7571 H 0.14258 0.21123 0.37621 0.0
C7572 C 0.06144 0.91755 0.63494 0.0
C7573 C 0.06244 0.92015 0.64379 0.0
C7574 C 0.05309 0.9078 0.6481 0.0
C7575 C 0.05435 0.90401 0.6397 0.0
N7576 N 0.05996 0.90543 0.62495 0.0
N7577 N 0.05327 0.92122 0.65651 0.0
C7578 C 0.05854 0.90895 0.63304 0.0
C7579 C 0.05655 0.91628 0.64985 0.0
N7580 N 0.06162 0.92366 0.62846 0.0
N7581 N 0.04868 0.9033 0.65443 0.0
H7582 H 0.05468 0.92789 0.65704 0.0
H7583 H 0.04833 0.91909 0.6607 0.0
H7584 H 0.0456 0.89732 0.65327 0.0
H7585 H 0.04848 0.90532 0.66094 0.0
H7586 H 0.06019 0.9222 0.62195 0.0
H7587 H 0.06177 0.93035 0.62989 0.0
H7588 H 0.06368 0.90863 0.6202 0.0
H7589 H 0.05808 0.89909 0.62326 0.0
C7590 C 0.36057 0.81709 0.8872 0.0
C7591 C 0.35634 0.81528 0.89527 0.0
C7592 C 0.36647 0.80306 0.89792 0.0
C7593 C 0.37123 0.80546 0.89033 0.0
N7594 N 0.37337 0.81508 0.87801 0.0
N7595 N 0.3554 0.80698 0.90864 0.0
C7596 C 0.36839 0.81253 0.885 0.0
C7597 C 0.3593 0.80834 0.90071 0.0
N7598 N 0.35704 0.82312 0.88162 0.0
N7599 N 0.36876 0.79566 0.90239 0.0
H7600 H 0.34993 0.8105 0.91074 0.0
H7601 H 0.35783 0.80275 0.91338 0.0
H7602 H 0.37406 0.79174 0.90059 0.0
H7603 H 0.36508 0.793 0.90747 0.0
H7604 H 0.35921 0.82408 0.87524 0.0
H7605 H 0.35147 0.82677 0.88312 0.0
H7606 H 0.37229 0.8208 0.87449 0.0
H7607 H 0.37898 0.81173 0.87602 0.0
C7608 C 0.45515 0.91258 0.3855 0.0
C7609 C 0.45671 0.91681 0.37739 0.0
C7610 C 0.46894 0.90678 0.37443 0.0
C7611 C 0.46678 0.90201 0.38209 0.0
N7612 N 0.4575 0.8998 0.39464 0.0
N7613 N 0.46464 0.9178 0.3638 0.0
C7614 C 0.45983 0.90479 0.38759 0.0
C7615 C 0.46352 0.9139 0.37178 0.0
N7616 N 0.44924 0.91607 0.39125 0.0
N7617 N 0.47625 0.90456 0.36978 0.0
H7618 H 0.46102 0.92322 0.36179 0.0
H7619 H 0.46877 0.91539 0.35896 0.0
H7620 H 0.48026 0.8993 0.37149 0.0
H7621 H 0.47873 0.90826 0.36463 0.0
H7622 H 0.44846 0.9139 0.39766 0.0
H7623 H 0.44552 0.92162 0.38984 0.0
H7624 H 0.45185 0.90083 0.39831 0.0
H7625 H 0.46093 0.89422 0.39655 0.0
C7626 C 0.35863 0.21428 0.62147 0.0
C7627 C 0.35577 0.2073 0.62689 0.0
C7628 C 0.36787 0.21008 0.63708 0.0
C7629 C 0.37061 0.21719 0.63177 0.0
N7630 N 0.36797 0.22704 0.61977 0.0
N7631 N 0.35664 0.19938 0.64049 0.0
C7632 C 0.36578 0.2196 0.62422 0.0
C7633 C 0.36007 0.20547 0.63491 0.0
N7634 N 0.35465 0.21566 0.61358 0.0
N7635 N 0.37292 0.20754 0.64402 0.0
H7636 H 0.35109 0.1957 0.63901 0.0
H7637 H 0.35886 0.19839 0.64685 0.0
H7638 H 0.3785 0.21092 0.646 0.0
H7639 H 0.37191 0.20179 0.64753 0.0
H7640 H 0.35701 0.21994 0.60884 0.0
H7641 H 0.3492 0.21212 0.61151 0.0
H7642 H 0.36423 0.22969 0.61474 0.0
H7643 H 0.37326 0.23098 0.62154 0.0
C7644 C 0.05757 0.10953 0.87212 0.0
C7645 C 0.06456 0.1067 0.87755 0.0
C7646 C 0.06181 0.11891 0.88765 0.0
C7647 C 0.0547 0.12162 0.88232 0.0
N7648 N 0.04484 0.11891 0.87035 0.0
N7649 N 0.07252 0.10768 0.89112 0.0
C7650 C 0.05228 0.11673 0.87482 0.0
C7651 C 0.06641 0.11108 0.88553 0.0
N7652 N 0.05617 0.10547 0.86427 0.0
N7653 N 0.06436 0.124 0.89455 0.0
H7654 H 0.0762 0.10212 0.88967 0.0
H7655 H 0.07352 0.10996 0.89746 0.0
H7656 H 0.06097 0.12961 0.8965 0.0
H7657 H 0.07011 0.12302 0.89806 0.0
H7658 H 0.05188 0.10779 0.85952 0.0
H7659 H 0.05968 0.09997 0.86225 0.0
H7660 H 0.04218 0.11514 0.86536 0.0
H7661 H 0.04092 0.12423 0.87208 0.0
C7662 C 0.16279 0.80763 0.12222 0.0
C7663 C 0.16575 0.81459 0.12762 0.0
C7664 C 0.15374 0.81188 0.13793 0.0
C7665 C 0.15089 0.80479 0.13263 0.0
N7666 N 0.15334 0.79493 0.1206 0.0
N7667 N 0.16508 0.82249 0.14125 0.0
C7668 C 0.15563 0.80236 0.12504 0.0
C7669 C 0.16154 0.81643 0.13569 0.0
N7670 N 0.16668 0.80623 0.11428 0.0
N7671 N 0.14878 0.81445 0.14493 0.0
H7672 H 0.17064 0.82613 0.13971 0.0
H7673 H 0.16293 0.82348 0.14763 0.0
H7674 H 0.14319 0.8111 0.14696 0.0
H7675 H 0.14986 0.82019 0.14843 0.0
H7676 H 0.16424 0.80197 0.10956 0.0
H7677 H 0.17213 0.80974 0.11216 0.0
H7678 H 0.15701 0.79226 0.11552 0.0
H7679 H 0.14805 0.79103 0.12243 0.0
C7680 C 0.13839 0.45467 0.11146 0.0
C7681 C 0.145 0.45792 0.1058 0.0
C7682 C 0.14685 0.47081 0.11523 0.0
C7683 C 0.13998 0.46774 0.12067 0.0
N7684 N 0.12808 0.45771 0.12314 0.0
N7685 N 0.15446 0.4697 0.10132 0.0
C7686 C 0.1354 0.45996 0.11851 0.0
C7687 C 0.14891 0.46619 0.1074 0.0
N7688 N 0.13524 0.44638 0.11031 0.0
N7689 N 0.15161 0.47796 0.11773 0.0
H7690 H 0.15615 0.46646 0.09555 0.0
H7691 H 0.15684 0.47607 0.10163 0.0
H7692 H 0.15015 0.48162 0.12332 0.0
H7693 H 0.15733 0.47995 0.11463 0.0
H7694 H 0.13119 0.44324 0.1148 0.0
H7695 H 0.13719 0.44232 0.10518 0.0
H7696 H 0.1239 0.45265 0.12134 0.0
H7697 H 0.12574 0.46139 0.1284 0.0
C7698 C 0.64873 0.05817 0.91528 0.0
C7699 C 0.64488 0.06652 0.91668 0.0
C7700 C 0.6355 0.06439 0.90382 0.0
C7701 C 0.64004 0.05652 0.90187 0.0
N7702 N 0.65148 0.0462 0.90519 0.0
N7703 N 0.63528 0.07808 0.91186 0.0
C7704 C 0.64677 0.05346 0.90748 0.0
C7705 C 0.6384 0.06974 0.91086 0.0
N7706 N 0.65414 0.0547 0.9215 0.0
N7707 N 0.62831 0.06666 0.899 0.0
H7708 H 0.63715 0.08216 0.91699 0.0
H7709 H 0.63134 0.0812 0.90726 0.0
H7710 H 0.62605 0.06293 0.89374 0.0
H7711 H 0.62415 0.0718 0.90064 0.0
H7712 H 0.65645 0.0483 0.92134 0.0
H7713 H 0.65576 0.05802 0.92725 0.0
H7714 H 0.65712 0.04419 0.90843 0.0
H7715 H 0.65008 0.04247 0.89965 0.0
C7716 C 0.2138 0.39908 0.16474 0.0
C7717 C 0.20544 0.39527 0.16606 0.0
C7718 C 0.20757 0.38598 0.15312 0.0
C7719 C 0.21548 0.39047 0.15127 0.0
N7720 N 0.22584 0.40182 0.15473 0.0
N7721 N 0.19384 0.38581 0.16108 0.0
C7722 C 0.21855 0.39714 0.15695 0.0
C7723 C 0.2022 0.38887 0.16016 0.0
N7724 N 0.21727 0.40442 0.17102 0.0
N7725 N 0.20529 0.37883 0.14824 0.0
H7726 H 0.18974 0.38767 0.16621 0.0
H7727 H 0.19072 0.38193 0.15643 0.0
H7728 H 0.20903 0.37657 0.14299 0.0
H7729 H 0.20011 0.3747 0.14981 0.0
H7730 H 0.22368 0.40669 0.17091 0.0
H7731 H 0.21393 0.40604 0.17675 0.0
H7732 H 0.22787 0.40742 0.15804 0.0
H7733 H 0.22958 0.40044 0.14919 0.0
C7734 C 0.87221 0.96428 0.41325 0.0
C7735 C 0.87766 0.95729 0.41602 0.0
C7736 C 0.88773 0.96011 0.40382 0.0
C7737 C 0.88238 0.96723 0.40116 0.0
N7738 N 0.87042 0.97709 0.40398 0.0
N7739 N 0.89127 0.9494 0.41501 0.0
C7740 C 0.87489 0.96963 0.40609 0.0
C7741 C 0.88564 0.95548 0.41163 0.0
N7742 N 0.86435 0.96564 0.4173 0.0
N7743 N 0.89461 0.95758 0.39869 0.0
H7744 H 0.88986 0.94572 0.42058 0.0
H7745 H 0.89761 0.94842 0.41271 0.0
H7746 H 0.89652 0.96098 0.39309 0.0
H7747 H 0.89812 0.95182 0.39964 0.0
H7748 H 0.85959 0.96993 0.415 0.0
H7749 H 0.86233 0.96206 0.42275 0.0
H7750 H 0.86544 0.97973 0.40779 0.0
H7751 H 0.87215 0.98105 0.39869 0.0
C7752 C 0.81739 0.13593 0.16264 0.0
C7753 C 0.81616 0.1277 0.16677 0.0
C7754 C 0.80394 0.12446 0.15684 0.0
C7755 C 0.80578 0.13226 0.15215 0.0
N7756 N 0.81462 0.14514 0.15 0.0
N7757 N 0.80872 0.11383 0.16764 0.0
C7758 C 0.81256 0.13796 0.15494 0.0
C7759 C 0.80951 0.1219 0.16385 0.0
N7760 N 0.82312 0.14183 0.16616 0.0
N7761 N 0.79676 0.1196 0.15463 0.0
H7762 H 0.81246 0.11187 0.173 0.0
H7763 H 0.80474 0.10888 0.1652 0.0
H7764 H 0.79263 0.12125 0.14946 0.0
H7765 H 0.7945 0.11432 0.15828 0.0
H7766 H 0.82364 0.14829 0.16407 0.0
H7767 H 0.82695 0.14047 0.17164 0.0
H7768 H 0.82014 0.14898 0.15104 0.0
H7769 H 0.81108 0.14699 0.14447 0.0
C7770 C 0.38566 0.56798 0.6104 0.0
C7771 C 0.37757 0.56599 0.6063 0.0
C7772 C 0.37528 0.5538 0.61654 0.0
C7773 C 0.3829 0.55637 0.62117 0.0
N7774 N 0.3951 0.56618 0.62305 0.0
N7775 N 0.36436 0.55743 0.60557 0.0
C7776 C 0.38806 0.5635 0.61821 0.0
C7777 C 0.37231 0.55897 0.60937 0.0
N7778 N 0.39108 0.57409 0.60676 0.0
N7779 N 0.37097 0.54634 0.61896 0.0
H7780 H 0.36214 0.56086 0.6001 0.0
H7781 H 0.35974 0.55311 0.60808 0.0
H7782 H 0.3729 0.54251 0.62427 0.0
H7783 H 0.3659 0.54357 0.61537 0.0
H7784 H 0.39746 0.57519 0.60883 0.0
H7785 H 0.38942 0.57768 0.6012 0.0
H7786 H 0.39851 0.57196 0.62189 0.0
H7787 H 0.39727 0.56287 0.62861 0.0
C7788 C 0.20259 0.63403 0.36227 0.0
C7789 C 0.20577 0.62762 0.35633 0.0
C7790 C 0.21891 0.62563 0.36539 0.0
C7791 C 0.21589 0.63231 0.37111 0.0
N7792 N 0.20579 0.64401 0.3742 0.0
N7793 N 0.21753 0.61841 0.3513 0.0
C7794 C 0.20801 0.63687 0.36929 0.0
C7795 C 0.21412 0.62375 0.35762 0.0
N7796 N 0.19425 0.63715 0.3614 0.0
N7797 N 0.22618 0.62089 0.36757 0.0
H7798 H 0.21417 0.61684 0.34557 0.0
H7799 H 0.22393 0.61609 0.35138 0.0
H7800 H 0.22995 0.62223 0.37309 0.0
H7801 H 0.22816 0.61528 0.36424 0.0
H7802 H 0.19118 0.64103 0.36607 0.0
H7803 H 0.19011 0.63532 0.35629 0.0
H7804 H 0.20064 0.64819 0.37265 0.0
H7805 H 0.20955 0.64623 0.37944 0.0
C7806 C 0.30823 0.40098 0.8598 0.0
C7807 C 0.31507 0.39548 0.85674 0.0
C7808 C 0.31223 0.38508 0.86865 0.0
C7809 C 0.30526 0.39048 0.8716 0.0
N7810 N 0.29562 0.40273 0.86934 0.0
N7811 N 0.32271 0.38169 0.85721 0.0
C7812 C 0.30295 0.39818 0.86696 0.0
C7813 C 0.31678 0.38732 0.86084 0.0
N7814 N 0.30697 0.40899 0.85601 0.0
N7815 N 0.3147 0.37799 0.87352 0.0
H7816 H 0.32636 0.38321 0.85164 0.0
H7817 H 0.32358 0.37526 0.85928 0.0
H7818 H 0.31136 0.37597 0.87912 0.0
H7819 H 0.32037 0.3744 0.87237 0.0
H7820 H 0.30282 0.41376 0.85853 0.0
H7821 H 0.31049 0.4111 0.85056 0.0
H7822 H 0.29303 0.4079 0.86575 0.0
H7823 H 0.29171 0.40092 0.87463 0.0
C7824 C 0.91529 0.87234 0.56013 0.0
C7825 C 0.91685 0.87788 0.56741 0.0
C7826 C 0.90459 0.88726 0.56292 0.0
C7827 C 0.90241 0.88114 0.55629 0.0
N7828 N 0.90494 0.8672 0.54929 0.0
N7829 N 0.91252 0.89012 0.57638 0.0
C7830 C 0.90759 0.87352 0.55504 0.0
C7831 C 0.9114 0.88525 0.56896 0.0
N7832 N 0.92128 0.86604 0.55798 0.0
N7833 N 0.90023 0.89507 0.56334 0.0
H7834 H 0.91749 0.88892 0.58089 0.0
H7835 H 0.90816 0.89495 0.5784 0.0
H7836 H 0.89521 0.89673 0.55903 0.0
H7837 H 0.90207 0.90019 0.56744 0.0
H7838 H 0.921 0.86242 0.55221 0.0
H7839 H 0.92698 0.86497 0.56157 0.0
H7840 H 0.90788 0.86106 0.54885 0.0
H7841 H 0.89934 0.86777 0.54544 0.0
C7842 C 0.90003 0.16557 0.30777 0.0
C7843 C 0.89558 0.16745 0.3157 0.0
C7844 C 0.88553 0.1552 0.313 0.0
C7845 C 0.89057 0.15277 0.3056 0.0
N7846 N 0.90305 0.15504 0.29624 0.0
N7847 N 0.88472 0.16356 0.32647 0.0
C7848 C 0.89792 0.15782 0.30303 0.0
C7849 C 0.88845 0.16216 0.31846 0.0
N7850 N 0.90615 0.17132 0.30468 0.0
N7851 N 0.87787 0.15092 0.31474 0.0
H7852 H 0.88661 0.16864 0.33062 0.0
H7853 H 0.88022 0.15933 0.32932 0.0
H7854 H 0.87559 0.14571 0.31097 0.0
H7855 H 0.87341 0.15297 0.31947 0.0
H7856 H 0.909 0.17083 0.29851 0.0
H7857 H 0.90788 0.17702 0.30801 0.0
H7858 H 0.90906 0.15782 0.29468 0.0
H7859 H 0.90155 0.14954 0.29248 0.0
C7860 C 0.60747 0.15216 0.05813 0.0
C7861 C 0.60557 0.14655 0.06528 0.0
C7862 C 0.61763 0.13686 0.06088 0.0
C7863 C 0.62018 0.14303 0.05443 0.0
N7864 N 0.61821 0.15712 0.04757 0.0
N7865 N 0.60934 0.13403 0.07412 0.0
C7866 C 0.61524 0.15082 0.05318 0.0
C7867 C 0.61075 0.13899 0.06681 0.0
N7868 N 0.60174 0.15868 0.05597 0.0
N7869 N 0.62171 0.12891 0.06124 0.0
H7870 H 0.60433 0.13533 0.07856 0.0
H7871 H 0.61351 0.12904 0.07614 0.0
H7872 H 0.62677 0.12716 0.057 0.0
H7873 H 0.6196 0.12377 0.06519 0.0
H7874 H 0.60226 0.1624 0.05029 0.0
H7875 H 0.59599 0.15987 0.05946 0.0
H7876 H 0.61547 0.16335 0.04715 0.0
H7877 H 0.62384 0.1564 0.0438 0.0
C7878 C 0.62208 0.85818 0.80957 0.0
C7879 C 0.62751 0.85653 0.81691 0.0
C7880 C 0.63704 0.86874 0.81262 0.0
C7881 C 0.63102 0.87103 0.80594 0.0
N7882 N 0.61715 0.86867 0.79875 0.0
N7883 N 0.63966 0.86069 0.82606 0.0
C7884 C 0.62338 0.86591 0.80456 0.0
C7885 C 0.63489 0.8619 0.81859 0.0
N7886 N 0.61577 0.85227 0.8073 0.0
N7887 N 0.64487 0.87302 0.81316 0.0
H7888 H 0.63836 0.8557 0.83052 0.0
H7889 H 0.64449 0.865 0.82817 0.0
H7890 H 0.64662 0.87806 0.80891 0.0
H7891 H 0.64992 0.8711 0.81731 0.0
H7892 H 0.61222 0.85262 0.80149 0.0
H7893 H 0.61461 0.84654 0.81083 0.0
H7894 H 0.61101 0.86578 0.79821 0.0
H7895 H 0.61781 0.87429 0.79495 0.0
C7896 C 0.91102 0.13791 0.95468 0.0
C7897 C 0.91646 0.14527 0.95626 0.0
C7898 C 0.90715 0.14963 0.9686 0.0
C7899 C 0.90194 0.14205 0.96728 0.0
N7900 N 0.89979 0.12813 0.96022 0.0
N7901 N 0.92086 0.15708 0.96574 0.0
C7902 C 0.90416 0.13592 0.96067 0.0
C7903 C 0.91488 0.1508 0.96355 0.0
N7904 N 0.9122 0.13303 0.94728 0.0
N7905 N 0.90448 0.15595 0.97436 0.0
H7906 H 0.92658 0.15814 0.96217 0.0
H7907 H 0.92056 0.1607 0.97151 0.0
H7908 H 0.89887 0.15538 0.97819 0.0
H7909 H 0.90744 0.16206 0.97485 0.0
H7910 H 0.90785 0.12821 0.94522 0.0
H7911 H 0.91722 0.13421 0.94281 0.0
H7912 H 0.90165 0.123 0.95613 0.0
H7913 H 0.89473 0.12649 0.96449 0.0
C7914 C 0.6344 0.16174 0.70473 0.0
C7915 C 0.62693 0.16706 0.70626 0.0
C7916 C 0.62257 0.15759 0.71846 0.0
C7917 C 0.63026 0.15252 0.71722 0.0
N7918 N 0.64429 0.15062 0.71032 0.0
N7919 N 0.61493 0.1712 0.7156 0.0
C7920 C 0.63643 0.15487 0.7107 0.0
C7921 C 0.62134 0.16534 0.71346 0.0
N7922 N 0.63934 0.16302 0.69739 0.0
N7923 N 0.61624 0.15479 0.72413 0.0
H7924 H 0.61382 0.17694 0.71206 0.0
H7925 H 0.61124 0.17081 0.72131 0.0
H7926 H 0.61686 0.14916 0.72794 0.0
H7927 H 0.61007 0.15763 0.72456 0.0
H7928 H 0.64425 0.15875 0.69537 0.0
H7929 H 0.63812 0.16804 0.69292 0.0
H7930 H 0.64943 0.15259 0.70631 0.0
H7931 H 0.64596 0.14556 0.71458 0.0
C7932 C 0.61071 0.88489 0.45417 0.0
C7933 C 0.6053 0.87752 0.45583 0.0
C7934 C 0.61461 0.87338 0.46824 0.0
C7935 C 0.61976 0.881 0.46687 0.0
N7936 N 0.62183 0.89484 0.45963 0.0
N7937 N 0.60096 0.86581 0.46544 0.0
C7938 C 0.61752 0.88702 0.46016 0.0
C7939 C 0.6069 0.8721 0.46319 0.0
N7940 N 0.60956 0.88965 0.44668 0.0
N7941 N 0.61731 0.86716 0.47407 0.0
H7942 H 0.59525 0.86467 0.46188 0.0
H7943 H 0.60127 0.86227 0.47125 0.0
H7944 H 0.62292 0.8678 0.4779 0.0
H7945 H 0.6144 0.86102 0.47461 0.0
H7946 H 0.61389 0.89446 0.44458 0.0
H7947 H 0.60459 0.88835 0.44219 0.0
H7948 H 0.61994 0.8999 0.45547 0.0
H7949 H 0.62685 0.89659 0.46391 0.0
C7950 C 0.88759 0.86342 0.20218 0.0
C7951 C 0.89168 0.85587 0.20576 0.0
C7952 C 0.8879 0.861 0.22044 0.0
C7953 C 0.88614 0.86945 0.21705 0.0
N7954 N 0.87882 0.8764 0.20502 0.0
N7955 N 0.89579 0.84747 0.21851 0.0
C7956 C 0.88432 0.87 0.20795 0.0
C7957 C 0.89185 0.85465 0.21495 0.0
N7958 N 0.88706 0.86443 0.19332 0.0
N7959 N 0.88417 0.85842 0.2281 0.0
H7960 H 0.89872 0.84259 0.21474 0.0
H7961 H 0.8967 0.84678 0.22524 0.0
H7962 H 0.87901 0.86196 0.23084 0.0
H7963 H 0.88483 0.8521 0.23061 0.0
H7964 H 0.88511 0.87022 0.19032 0.0
H7965 H 0.88904 0.85959 0.18892 0.0
H7966 H 0.87656 0.87682 0.19861 0.0
H7967 H 0.87578 0.88074 0.20934 0.0
C7968 C 0.56783 0.91187 0.88423 0.0
C7969 C 0.56623 0.91718 0.87678 0.0
C7970 C 0.55397 0.90771 0.87256 0.0
C7971 C 0.55527 0.90266 0.88026 0.0
N7972 N 0.56232 0.90082 0.89423 0.0
N7973 N 0.55676 0.9213 0.86487 0.0
C7974 C 0.56187 0.90503 0.88635 0.0
C7975 C 0.55897 0.91545 0.87126 0.0
N7976 N 0.57523 0.91313 0.88908 0.0
N7977 N 0.54825 0.90489 0.86629 0.0
H7978 H 0.56029 0.92703 0.86371 0.0
H7979 H 0.55101 0.9209 0.86124 0.0
H7980 H 0.54446 0.89926 0.86696 0.0
H7981 H 0.54777 0.90772 0.86011 0.0
H7982 H 0.5773 0.90887 0.89397 0.0
H7983 H 0.57971 0.91812 0.88778 0.0
H7984 H 0.56638 0.9028 0.89932 0.0
H7985 H 0.55806 0.89577 0.89597 0.0
C7986 C 0.86085 0.81098 0.61858 0.0
C7987 C 0.85614 0.81488 0.62559 0.0
C7988 C 0.86624 0.80827 0.63624 0.0
C7989 C 0.87083 0.80428 0.62924 0.0
N7990 N 0.87222 0.8005 0.6143 0.0
N7991 N 0.85338 0.81631 0.64105 0.0
C7992 C 0.86797 0.80527 0.62053 0.0
C7993 C 0.85853 0.81322 0.63442 0.0
N7994 N 0.85865 0.81295 0.61014 0.0
N7995 N 0.86944 0.80757 0.64456 0.0
H7996 H 0.84784 0.82015 0.63996 0.0
H7997 H 0.8542 0.81463 0.64759 0.0
H7998 H 0.87494 0.80382 0.64608 0.0
H7999 H 0.86701 0.81107 0.64987 0.0
H8000 H 0.86238 0.81124 0.60471 0.0
H8001 H 0.85323 0.81677 0.60852 0.0
H8002 H 0.87047 0.80022 0.60772 0.0
H8003 H 0.87047 0.80022 0.60772 0.0
C8004 C 0.96371 0.10823 0.37066 0.0
C8005 C 0.95645 0.10649 0.37616 0.0
C8006 C 0.96081 0.11861 0.38578 0.0
C8007 C 0.96743 0.12097 0.37972 0.0
N8008 N 0.97448 0.11877 0.36575 0.0
N8009 N 0.94742 0.11053 0.38845 0.0
C8010 C 0.96873 0.11595 0.372 0.0
C8011 C 0.95484 0.11179 0.38363 0.0
N8012 N 0.96591 0.10239 0.36424 0.0
N8013 N 0.96035 0.1228 0.39367 0.0
H8014 H 0.94294 0.10556 0.38713 0.0
H8015 H 0.94535 0.11479 0.39336 0.0
H8016 H 0.96461 0.12784 0.39543 0.0
H8017 H 0.95627 0.12082 0.39875 0.0
H8018 H 0.97167 0.10279 0.36062 0.0
H8019 H 0.96237 0.09668 0.36305 0.0
H8020 H 0.97496 0.11596 0.35956 0.0
H8021 H 0.97829 0.12438 0.36645 0.0
C8022 C 0.66527 0.213 0.12171 0.0
C8023 C 0.66675 0.20563 0.12717 0.0
C8024 C 0.65435 0.21 0.13643 0.0
C8025 C 0.65225 0.21671 0.13037 0.0
N8026 N 0.65499 0.22392 0.11658 0.0
N8027 N 0.66226 0.19651 0.13922 0.0
C8028 C 0.65755 0.21807 0.12285 0.0
C8029 C 0.6612 0.20399 0.13443 0.0
N8030 N 0.67133 0.21523 0.11553 0.0
N8031 N 0.64988 0.20948 0.14416 0.0
H8032 H 0.66726 0.19201 0.13803 0.0
H8033 H 0.65783 0.19442 0.14395 0.0
H8034 H 0.64482 0.21376 0.14579 0.0
H8035 H 0.65165 0.20531 0.14925 0.0
H8036 H 0.67111 0.22104 0.11199 0.0
H8037 H 0.67705 0.21164 0.1145 0.0
H8038 H 0.65801 0.22446 0.11051 0.0
H8039 H 0.64938 0.22778 0.11713 0.0
C8040 C 0.55904 0.10828 0.65191 0.0
C8041 C 0.56612 0.10638 0.64621 0.0
C8042 C 0.56158 0.11841 0.63656 0.0
C8043 C 0.55518 0.12093 0.64279 0.0
N8044 N 0.54855 0.11903 0.65701 0.0
N8045 N 0.5748 0.11013 0.63359 0.0
C8046 C 0.55407 0.11604 0.65062 0.0
C8047 C 0.56755 0.11155 0.63862 0.0
N8048 N 0.55697 0.10256 0.65847 0.0
N8049 N 0.56183 0.12247 0.6286 0.0
H8050 H 0.57927 0.10513 0.63484 0.0
H8051 H 0.57675 0.11429 0.62856 0.0
H8052 H 0.55757 0.12753 0.6269 0.0
H8053 H 0.56573 0.12037 0.62343 0.0
H8054 H 0.55134 0.10309 0.66226 0.0
H8055 H 0.56049 0.09682 0.65963 0.0
H8056 H 0.54824 0.11632 0.66325 0.0
H8057 H 0.54478 0.12468 0.65634 0.0
C8058 C 0.66476 0.80941 0.40112 0.0
C8059 C 0.66644 0.81673 0.39566 0.0
C8060 C 0.65424 0.81242 0.38612 0.0
C8061 C 0.65194 0.80576 0.39216 0.0
N8062 N 0.65426 0.79863 0.40606 0.0
N8063 N 0.66231 0.82584 0.38346 0.0
C8064 C 0.65703 0.8044 0.39982 0.0
C8065 C 0.66108 0.81838 0.38825 0.0
N8066 N 0.67066 0.80716 0.40745 0.0
N8067 N 0.64999 0.81293 0.37827 0.0
H8068 H 0.6673 0.8303 0.38476 0.0
H8069 H 0.65801 0.82793 0.37861 0.0
H8070 H 0.64495 0.80867 0.37652 0.0
H8071 H 0.65193 0.81705 0.3732 0.0
H8072 H 0.67029 0.80137 0.41102 0.0
H8073 H 0.67638 0.81069 0.4086 0.0
H8074 H 0.65713 0.79811 0.41222 0.0
H8075 H 0.64863 0.79484 0.40541 0.0
C8076 C 0.95495 0.9111 0.13771 0.0
C8077 C 0.95661 0.91654 0.14506 0.0
C8078 C 0.96892 0.90716 0.14933 0.0
C8079 C 0.96753 0.90195 0.14176 0.0
N8080 N 0.96038 0.89984 0.12788 0.0
N8081 N 0.96618 0.9209 0.1568 0.0
C8082 C 0.9609 0.90421 0.13567 0.0
C8083 C 0.96392 0.91492 0.15054 0.0
N8084 N 0.94752 0.9123 0.13289 0.0
N8085 N 0.9747 0.90446 0.15561 0.0
H8086 H 0.96265 0.92665 0.15787 0.0
H8087 H 0.97197 0.92057 0.16037 0.0
H8088 H 0.97849 0.89882 0.15502 0.0
H8089 H 0.97524 0.90742 0.16172 0.0
H8090 H 0.94542 0.90795 0.12809 0.0
H8091 H 0.94308 0.91734 0.13411 0.0
H8092 H 0.95627 0.90172 0.12279 0.0
H8093 H 0.96462 0.89476 0.12621 0.0
C8094 C 0.86275 0.20251 0.88677 0.0
C8095 C 0.85547 0.20586 0.8915 0.0
C8096 C 0.86045 0.22074 0.88838 0.0
C8097 C 0.86873 0.21744 0.88577 0.0
N8098 N 0.8755 0.20575 0.87779 0.0
N8099 N 0.84754 0.21834 0.89711 0.0
C8100 C 0.86919 0.20843 0.88352 0.0
C8101 C 0.85438 0.21503 0.89242 0.0
N8102 N 0.86363 0.19367 0.88566 0.0
N8103 N 0.85764 0.22865 0.88541 0.0
H8104 H 0.84283 0.2144 0.9001 0.0
H8105 H 0.84699 0.22499 0.89857 0.0
H8106 H 0.86054 0.23153 0.87995 0.0
H8107 H 0.85147 0.23119 0.88684 0.0
H8108 H 0.86924 0.19072 0.88315 0.0
H8109 H 0.85889 0.1892 0.88767 0.0
H8110 H 0.87594 0.19944 0.87526 0.0
H8111 H 0.8798 0.2102 0.87489 0.0
C8112 C 0.88468 0.5715 0.90923 0.0
C8113 C 0.88102 0.56771 0.91689 0.0
C8114 C 0.8853 0.55323 0.91153 0.0
C8115 C 0.88655 0.55676 0.90304 0.0
N8116 N 0.89336 0.56911 0.89613 0.0
N8117 N 0.8779 0.55473 0.92538 0.0
C8118 C 0.88802 0.56592 0.90254 0.0
C8119 C 0.88136 0.5585 0.91807 0.0
N8120 N 0.88476 0.58039 0.90824 0.0
N8121 N 0.88947 0.54572 0.91388 0.0
H8122 H 0.87498 0.55834 0.93039 0.0
H8123 H 0.87736 0.54796 0.92607 0.0
H8124 H 0.89444 0.5431 0.91 0.0
H8125 H 0.88925 0.54319 0.92021 0.0
H8126 H 0.88638 0.58347 0.90239 0.0
H8127 H 0.88275 0.58468 0.91315 0.0
H8128 H 0.89539 0.5756 0.89578 0.0
H8129 H 0.89655 0.56493 0.89175 0.0
C8130 C 0.37021 0.96331 0.10923 0.0
C8131 C 0.37608 0.95715 0.10548 0.0
C8132 C 0.38717 0.96083 0.11651 0.0
C8133 C 0.38139 0.96716 0.12012 0.0
N8134 N 0.36808 0.97552 0.11921 0.0
N8135 N 0.39057 0.951 0.10449 0.0
C8136 C 0.3731 0.96873 0.11625 0.0
C8137 C 0.38471 0.95623 0.10879 0.0
N8138 N 0.3618 0.96378 0.10624 0.0
N8139 N 0.39486 0.95896 0.12069 0.0
H8140 H 0.38892 0.94732 0.09899 0.0
H8141 H 0.39721 0.95079 0.10596 0.0
H8142 H 0.397 0.96234 0.12623 0.0
H8143 H 0.39887 0.95371 0.11906 0.0
H8144 H 0.35688 0.96735 0.10931 0.0
H8145 H 0.35956 0.96016 0.1009 0.0
H8146 H 0.36236 0.97762 0.11616 0.0
H8147 H 0.36998 0.97954 0.1244 0.0
C8148 C 0.80882 0.62238 0.85786 0.0
C8149 C 0.81606 0.62794 0.85623 0.0
C8150 C 0.81169 0.63727 0.86858 0.0
C8151 C 0.80512 0.63111 0.87083 0.0
N8152 N 0.79811 0.61718 0.86832 0.0
N8153 N 0.82503 0.6402 0.86049 0.0
C8154 C 0.80382 0.62352 0.86563 0.0
C8155 C 0.81765 0.6353 0.86169 0.0
N8156 N 0.80663 0.61609 0.85188 0.0
N8157 N 0.81213 0.64506 0.87296 0.0
H8158 H 0.82948 0.63903 0.85545 0.0
H8159 H 0.82709 0.64502 0.86484 0.0
H8160 H 0.80788 0.64668 0.87805 0.0
H8161 H 0.81618 0.6502 0.87108 0.0
H8162 H 0.80088 0.61245 0.85222 0.0
H8163 H 0.81016 0.61505 0.84613 0.0
H8164 H 0.79764 0.61106 0.86536 0.0
H8165 H 0.79432 0.61773 0.87396 0.0
C8166 C 0.15067 0.05722 0.60758 0.0
C8167 C 0.1464 0.06526 0.60572 0.0
C8168 C 0.13634 0.06282 0.61801 0.0
C8169 C 0.1412 0.05529 0.62043 0.0
N8170 N 0.15347 0.04566 0.61813 0.0
N8171 N 0.13586 0.07632 0.60969 0.0
C8172 C 0.14848 0.05255 0.61535 0.0
C8173 C 0.13938 0.06821 0.61106 0.0
N8174 N 0.15668 0.05396 0.60181 0.0
N8175 N 0.12871 0.06473 0.62229 0.0
H8176 H 0.13784 0.08043 0.60462 0.0
H8177 H 0.13145 0.07928 0.61396 0.0
H8178 H 0.12632 0.06098 0.62746 0.0
H8179 H 0.12437 0.06957 0.62025 0.0
H8180 H 0.15937 0.04772 0.60229 0.0
H8181 H 0.15848 0.05725 0.59611 0.0
H8182 H 0.15943 0.04395 0.61532 0.0
H8183 H 0.15194 0.04197 0.62367 0.0
C8184 C 0.20592 0.88742 0.85968 0.0
C8185 C 0.20603 0.89575 0.85556 0.0
C8186 C 0.21789 0.90053 0.8653 0.0
C8187 C 0.21723 0.89249 0.86993 0.0
N8188 N 0.21041 0.87845 0.87203 0.0
N8189 N 0.2116 0.91047 0.85461 0.0
C8190 C 0.21121 0.88596 0.86722 0.0
C8191 C 0.21192 0.90235 0.85838 0.0
N8192 N 0.20082 0.8809 0.85629 0.0
N8193 N 0.22428 0.9064 0.86751 0.0
H8194 H 0.2076 0.91194 0.84929 0.0
H8195 H 0.2149 0.91591 0.85702 0.0
H8196 H 0.22852 0.9055 0.87278 0.0
H8197 H 0.2258 0.91191 0.86382 0.0
H8198 H 0.20107 0.87442 0.85837 0.0
H8199 H 0.19671 0.88182 0.85093 0.0
H8200 H 0.20548 0.87385 0.87109 0.0
H8201 H 0.21445 0.877 0.87734 0.0
C8202 C 0.63858 0.45535 0.41128 0.0
C8203 C 0.6462 0.45674 0.4164 0.0
C8204 C 0.65064 0.46872 0.40667 0.0
C8205 C 0.64278 0.46765 0.40183 0.0
N8206 N 0.62853 0.4611 0.4004 0.0
N8207 N 0.65855 0.46581 0.42011 0.0
C8208 C 0.63652 0.46131 0.40441 0.0
C8209 C 0.65194 0.46377 0.41444 0.0
N8210 N 0.6335 0.44814 0.41276 0.0
N8211 N 0.65705 0.47416 0.40363 0.0
H8212 H 0.65971 0.46231 0.42586 0.0
H8213 H 0.66237 0.47142 0.41955 0.0
H8214 H 0.65639 0.47791 0.39797 0.0
H8215 H 0.66331 0.47444 0.4063 0.0
H8216 H 0.62843 0.44621 0.40863 0.0
H8217 H 0.63474 0.44368 0.41777 0.0
H8218 H 0.62335 0.45725 0.40254 0.0
H8219 H 0.62683 0.46536 0.39534 0.0
C8220 C 0.80882 0.40249 0.66465 0.0
C8221 C 0.81599 0.3969 0.66653 0.0
C8222 C 0.81158 0.38716 0.65453 0.0
C8223 C 0.80507 0.39329 0.65202 0.0
N8224 N 0.79822 0.4074 0.65394 0.0
N8225 N 0.82486 0.3844 0.66277 0.0
C8226 C 0.80384 0.4011 0.65691 0.0
C8227 C 0.81753 0.38933 0.66136 0.0
N8228 N 0.80666 0.40903 0.67037 0.0
N8229 N 0.81196 0.37919 0.65046 0.0
H8230 H 0.82932 0.38573 0.66775 0.0
H8231 H 0.82689 0.3794 0.65861 0.0
H8232 H 0.80771 0.37742 0.64542 0.0
H8233 H 0.81594 0.37408 0.65256 0.0
H8234 H 0.80096 0.41272 0.66986 0.0
H8235 H 0.81017 0.41025 0.67609 0.0
H8236 H 0.7978 0.41364 0.65664 0.0
H8237 H 0.79444 0.40667 0.6483 0.0
C8238 C 0.70454 0.63513 0.1612 0.0
C8239 C 0.70616 0.62783 0.16672 0.0
C8240 C 0.71865 0.62356 0.15756 0.0
C8241 C 0.7173 0.63111 0.1523 0.0
N8242 N 0.71007 0.64491 0.14997 0.0
N8243 N 0.71574 0.61617 0.1713 0.0
C8244 C 0.71058 0.63716 0.1544 0.0
C8245 C 0.71353 0.62238 0.16525 0.0
N8246 N 0.69705 0.63991 0.16224 0.0
N8247 N 0.72451 0.61731 0.155 0.0
H8248 H 0.71213 0.61511 0.17699 0.0
H8249 H 0.72155 0.61263 0.17108 0.0
H8250 H 0.7284 0.61789 0.14943 0.0
H8251 H 0.72504 0.61121 0.158 0.0
H8252 H 0.69498 0.64467 0.15783 0.0
H8253 H 0.69253 0.63869 0.1672 0.0
H8254 H 0.70589 0.65 0.15175 0.0
H8255 H 0.71438 0.64658 0.14495 0.0
C8256 C 0.60926 0.65037 0.96403 0.0
C8257 C 0.6064 0.64506 0.95696 0.0
C8258 C 0.61854 0.63485 0.95953 0.0
C8259 C 0.62129 0.64005 0.96672 0.0
N8260 N 0.61865 0.65188 0.97678 0.0
N8261 N 0.60728 0.63159 0.94881 0.0
C8262 C 0.61644 0.64755 0.96927 0.0
C8263 C 0.61072 0.63708 0.95498 0.0
N8264 N 0.60527 0.65824 0.96556 0.0
N8265 N 0.6236 0.62795 0.95686 0.0
H8266 H 0.60171 0.63312 0.94518 0.0
H8267 H 0.60953 0.62526 0.94771 0.0
H8268 H 0.62919 0.62592 0.9602 0.0
H8269 H 0.62259 0.62454 0.95106 0.0
H8270 H 0.60763 0.66291 0.96991 0.0
H8271 H 0.5998 0.66035 0.96207 0.0
H8272 H 0.61491 0.65686 0.97954 0.0
H8273 H 0.62396 0.65006 0.98067 0.0
C8274 C 0.62352 0.35835 0.21481 0.0
C8275 C 0.6274 0.35674 0.20652 0.0
C8276 C 0.63692 0.36954 0.20845 0.0
C8277 C 0.63238 0.37168 0.21626 0.0
N8278 N 0.62085 0.36869 0.22658 0.0
N8279 N 0.6371 0.36124 0.19492 0.0
C8280 C 0.62556 0.36621 0.21939 0.0
C8281 C 0.63396 0.36243 0.20321 0.0
N8282 N 0.61802 0.35226 0.21836 0.0
N8283 N 0.64417 0.37424 0.20612 0.0
H8284 H 0.63518 0.35606 0.19092 0.0
H8285 H 0.6411 0.36573 0.19173 0.0
H8286 H 0.64647 0.37954 0.20975 0.0
H8287 H 0.64833 0.37246 0.20103 0.0
H8288 H 0.61567 0.35257 0.22474 0.0
H8289 H 0.61633 0.34648 0.21514 0.0
H8290 H 0.61516 0.36555 0.22862 0.0
H8291 H 0.62231 0.37428 0.23022 0.0
C8292 C 0.91021 0.38404 0.45406 0.0
C8293 C 0.91592 0.37753 0.45744 0.0
C8294 C 0.90645 0.37581 0.47032 0.0
C8295 C 0.90097 0.38258 0.46712 0.0
N8296 N 0.89841 0.3943 0.45688 0.0
N8297 N 0.92042 0.36828 0.46938 0.0
C8298 C 0.90311 0.38706 0.45927 0.0
C8299 C 0.91432 0.37373 0.46576 0.0
N8300 N 0.91136 0.38707 0.44572 0.0
N8301 N 0.90397 0.37116 0.47755 0.0
H8302 H 0.92622 0.36659 0.46619 0.0
H8303 H 0.92011 0.366 0.47578 0.0
H8304 H 0.89838 0.37264 0.48116 0.0
H8305 H 0.90712 0.36549 0.47965 0.0
H8306 H 0.90685 0.39104 0.44251 0.0
H8307 H 0.91653 0.3851 0.44173 0.0
H8308 H 0.9002 0.39841 0.45176 0.0
H8309 H 0.89312 0.39665 0.46049 0.0
C8310 C 0.89826 0.66552 0.71506 0.0
C8311 C 0.89445 0.66699 0.70671 0.0
C8312 C 0.88498 0.65417 0.70873 0.0
C8313 C 0.88949 0.65214 0.71659 0.0
N8314 N 0.90091 0.65533 0.72696 0.0
N8315 N 0.88487 0.66228 0.69509 0.0
C8316 C 0.89623 0.6577 0.71971 0.0
C8317 C 0.88795 0.66122 0.70343 0.0
N8318 N 0.90368 0.6717 0.71858 0.0
N8319 N 0.87776 0.64942 0.70642 0.0
H8320 H 0.88679 0.66743 0.69105 0.0
H8321 H 0.88092 0.65773 0.69194 0.0
H8322 H 0.87545 0.64416 0.71011 0.0
H8323 H 0.87363 0.65112 0.70128 0.0
H8324 H 0.90596 0.67148 0.72499 0.0
H8325 H 0.90534 0.67745 0.71531 0.0
H8326 H 0.90656 0.65854 0.729 0.0
H8327 H 0.89948 0.64977 0.73064 0.0
C8328 C 0.60895 0.37241 0.55806 0.0
C8329 C 0.60613 0.37761 0.56523 0.0
C8330 C 0.61827 0.38784 0.56276 0.0
C8331 C 0.62099 0.38274 0.55548 0.0
N8332 N 0.61831 0.37106 0.54526 0.0
N8333 N 0.60708 0.39094 0.57361 0.0
C8334 C 0.61612 0.37529 0.55284 0.0
C8335 C 0.61048 0.38555 0.56732 0.0
N8336 N 0.60492 0.3646 0.55642 0.0
N8337 N 0.62333 0.3947 0.56549 0.0
H8338 H 0.60154 0.38936 0.57726 0.0
H8339 H 0.60934 0.39726 0.5748 0.0
H8340 H 0.62889 0.39679 0.56213 0.0
H8341 H 0.62236 0.39803 0.57135 0.0
H8342 H 0.60724 0.35999 0.55197 0.0
H8343 H 0.59945 0.36246 0.55989 0.0
H8344 H 0.61456 0.36613 0.54245 0.0
H8345 H 0.62362 0.37291 0.54139 0.0
C8346 C 0.90023 0.35981 0.80813 0.0
C8347 C 0.89486 0.35694 0.81514 0.0
C8348 C 0.88472 0.36914 0.81254 0.0
C8349 C 0.89001 0.37192 0.80543 0.0
N8350 N 0.90191 0.3693 0.79547 0.0
N8351 N 0.88133 0.35784 0.82318 0.0
C8352 C 0.8975 0.36705 0.80291 0.0
C8353 C 0.88688 0.36128 0.81707 0.0
N8354 N 0.90807 0.35577 0.80663 0.0
N8355 N 0.87781 0.3742 0.81517 0.0
H8356 H 0.88281 0.35225 0.82681 0.0
H8357 H 0.87499 0.36009 0.82424 0.0
H8358 H 0.87582 0.37981 0.81183 0.0
H8359 H 0.87434 0.37317 0.82093 0.0
H8360 H 0.91279 0.35812 0.80233 0.0
H8361 H 0.91011 0.35024 0.81009 0.0
H8362 H 0.9069 0.36555 0.79273 0.0
H8363 H 0.90015 0.37465 0.79161 0.0
C8364 C 0.90993 0.63914 0.06817 0.0
C8365 C 0.91562 0.6457 0.06487 0.0
C8366 C 0.9062 0.6475 0.05197 0.0
C8367 C 0.90074 0.64068 0.05509 0.0
N8368 N 0.89819 0.62887 0.06522 0.0
N8369 N 0.92012 0.65508 0.05304 0.0
C8370 C 0.90286 0.63614 0.06291 0.0
C8371 C 0.91404 0.64957 0.05658 0.0
N8372 N 0.91109 0.63602 0.07648 0.0
N8373 N 0.90374 0.6522 0.04477 0.0
H8374 H 0.92588 0.65679 0.05628 0.0
H8375 H 0.91983 0.65742 0.04665 0.0
H8376 H 0.89817 0.65072 0.04111 0.0
H8377 H 0.90687 0.65789 0.04273 0.0
H8378 H 0.90659 0.63201 0.07965 0.0
H8379 H 0.91625 0.63796 0.0805 0.0
H8380 H 0.89996 0.62473 0.07033 0.0
H8381 H 0.89292 0.62654 0.06157 0.0
C8382 C 0.62232 0.66357 0.30859 0.0
C8383 C 0.62757 0.66621 0.31578 0.0
C8384 C 0.63747 0.6538 0.31327 0.0
C8385 C 0.63231 0.65125 0.30598 0.0
N8386 N 0.62075 0.65431 0.29574 0.0
N8387 N 0.64086 0.66489 0.32414 0.0
C8388 C 0.62502 0.65634 0.30334 0.0
C8389 C 0.63539 0.66164 0.31785 0.0
N8390 N 0.61461 0.66781 0.30697 0.0
N8391 N 0.64418 0.64854 0.316 0.0
H8392 H 0.63944 0.67048 0.32778 0.0
H8393 H 0.64711 0.66245 0.32534 0.0
H8394 H 0.64613 0.64293 0.31262 0.0
H8395 H 0.64752 0.6494 0.32186 0.0
H8396 H 0.60996 0.66563 0.30251 0.0
H8397 H 0.61259 0.67331 0.31047 0.0
H8398 H 0.61595 0.65823 0.29293 0.0
H8399 H 0.62248 0.64897 0.29185 0.0
C8400 C 0.95296 0.6121 0.63816 0.0
C8401 C 0.95609 0.60638 0.64478 0.0
C8402 C 0.96907 0.61566 0.64676 0.0
C8403 C 0.96611 0.62116 0.63989 0.0
N8404 N 0.9562 0.6238 0.62792 0.0
N8405 N 0.96773 0.60175 0.65434 0.0
C8406 C 0.95834 0.61911 0.63524 0.0
C8407 C 0.96434 0.60787 0.64877 0.0
N8408 N 0.94469 0.61104 0.63491 0.0
N8409 N 0.97622 0.61805 0.65157 0.0
H8410 H 0.9644 0.59602 0.656 0.0
H8411 H 0.97408 0.60197 0.65677 0.0
H8412 H 0.97995 0.62359 0.65015 0.0
H8413 H 0.97813 0.6149 0.6573 0.0
H8414 H 0.94164 0.61557 0.63085 0.0
H8415 H 0.94059 0.60593 0.63679 0.0
H8416 H 0.95115 0.62208 0.6237 0.0
H8417 H 0.95994 0.62903 0.62564 0.0
C8418 C 0.66301 0.71517 0.90065 0.0
C8419 C 0.66594 0.70815 0.89531 0.0
C8420 C 0.65382 0.71071 0.88508 0.0
C8421 C 0.651 0.71785 0.89032 0.0
N8422 N 0.65351 0.72785 0.90222 0.0
N8423 N 0.66516 0.70007 0.8818 0.0
C8424 C 0.6558 0.72039 0.89784 0.0
C8425 C 0.66166 0.70619 0.88731 0.0
N8426 N 0.66697 0.71668 0.90853 0.0
N8427 N 0.64882 0.70806 0.87815 0.0
H8428 H 0.67075 0.69646 0.88333 0.0
H8429 H 0.66295 0.69898 0.87545 0.0
H8430 H 0.64322 0.71139 0.87611 0.0
H8431 H 0.64988 0.70228 0.87471 0.0
H8432 H 0.66457 0.721 0.91322 0.0
H8433 H 0.67246 0.71321 0.91064 0.0
H8434 H 0.65722 0.7306 0.90722 0.0
H8435 H 0.64818 0.73172 0.90041 0.0
C8436 C 0.56611 0.41208 0.13708 0.0
C8437 C 0.56443 0.41628 0.14519 0.0
C8438 C 0.55232 0.40608 0.14803 0.0
C8439 C 0.55461 0.40135 0.14038 0.0
N8440 N 0.56401 0.39929 0.12789 0.0
N8441 N 0.55636 0.41716 0.1587 0.0
C8442 C 0.56156 0.40424 0.13493 0.0
C8443 C 0.55761 0.41328 0.15074 0.0
N8444 N 0.57203 0.41565 0.13139 0.0
N8445 N 0.54501 0.40374 0.15263 0.0
H8446 H 0.55986 0.42266 0.16074 0.0
H8447 H 0.55222 0.4147 0.16351 0.0
H8448 H 0.5411 0.39844 0.15088 0.0
H8449 H 0.54243 0.4074 0.15777 0.0
H8450 H 0.57289 0.4135 0.12499 0.0
H8451 H 0.57569 0.42122 0.13285 0.0
H8452 H 0.56966 0.4004 0.12426 0.0
H8453 H 0.56067 0.39366 0.12594 0.0
C8454 C 0.85828 0.30714 0.39882 0.0
C8455 C 0.85678 0.3155 0.39503 0.0
C8456 C 0.86965 0.31358 0.38561 0.0
C8457 C 0.87169 0.3057 0.39008 0.0
N8458 N 0.86851 0.29526 0.40145 0.0
N8459 N 0.8615 0.3272 0.38556 0.0
C8460 C 0.86613 0.30252 0.3968 0.0
C8461 C 0.86256 0.31884 0.38858 0.0
N8462 N 0.85211 0.30357 0.40421 0.0
N8463 N 0.87442 0.31595 0.37842 0.0
H8464 H 0.85635 0.33124 0.3875 0.0
H8465 H 0.86606 0.33039 0.38164 0.0
H8466 H 0.8797 0.3123 0.3761 0.0
H8467 H 0.87271 0.3211 0.37431 0.0
H8468 H 0.85235 0.29715 0.40648 0.0
H8469 H 0.84633 0.30681 0.40587 0.0
H8470 H 0.8653 0.29317 0.40708 0.0
H8471 H 0.87409 0.2916 0.4 0.0
C8472 C 0.95309 0.41035 0.88447 0.0
C8473 C 0.95648 0.41634 0.87823 0.0
C8474 C 0.96958 0.40718 0.87645 0.0
C8475 C 0.96636 0.40141 0.88297 0.0
N8476 N 0.95597 0.39831 0.89441 0.0
N8477 N 0.96852 0.42139 0.86941 0.0
C8478 C 0.95839 0.40326 0.88736 0.0
C8479 C 0.96492 0.41503 0.87456 0.0
N8480 N 0.94467 0.41123 0.88736 0.0
N8481 N 0.97693 0.40498 0.87184 0.0
H8482 H 0.96525 0.42718 0.86785 0.0
H8483 H 0.97498 0.42128 0.86726 0.0
H8484 H 0.98061 0.39939 0.87317 0.0
H8485 H 0.97907 0.40837 0.86633 0.0
H8486 H 0.94147 0.40652 0.89109 0.0
H8487 H 0.9406 0.41638 0.88547 0.0
H8488 H 0.95072 0.39987 0.89847 0.0
H8489 H 0.95966 0.39304 0.89669 0.0
C8490 C 0.85963 0.71516 0.12122 0.0
C8491 C 0.85662 0.70839 0.12682 0.0
C8492 C 0.86857 0.71142 0.13713 0.0
C8493 C 0.87145 0.71834 0.13163 0.0
N8494 N 0.86908 0.72781 0.11928 0.0
N8495 N 0.85719 0.70093 0.1407 0.0
C8496 C 0.86676 0.72053 0.12393 0.0
C8497 C 0.86077 0.7068 0.13498 0.0
N8498 N 0.85581 0.7163 0.11321 0.0
N8499 N 0.87349 0.70906 0.14422 0.0
H8500 H 0.85164 0.69724 0.13924 0.0
H8501 H 0.85929 0.70015 0.14712 0.0
H8502 H 0.87908 0.71244 0.14616 0.0
H8503 H 0.87238 0.70343 0.14788 0.0
H8504 H 0.85829 0.7204 0.10838 0.0
H8505 H 0.85037 0.71272 0.11116 0.0
H8506 H 0.86544 0.73032 0.1141 0.0
H8507 H 0.87434 0.73179 0.12104 0.0
C8508 C 0.55468 0.60735 0.37263 0.0
C8509 C 0.56048 0.60328 0.37865 0.0
C8510 C 0.55698 0.61455 0.38946 0.0
C8511 C 0.5529 0.61964 0.38284 0.0
N8512 N 0.54715 0.62058 0.36816 0.0
N8513 N 0.55962 0.59972 0.39397 0.0
C8514 C 0.55148 0.61593 0.37444 0.0
C8515 C 0.55959 0.60587 0.38751 0.0
N8516 N 0.55122 0.60254 0.36597 0.0
N8517 N 0.55857 0.61799 0.39754 0.0
H8518 H 0.55958 0.59304 0.3925 0.0
H8519 H 0.55826 0.6012 0.40049 0.0
H8520 H 0.55692 0.62438 0.39926 0.0
H8521 H 0.5622 0.61465 0.40226 0.0
H8522 H 0.54633 0.60484 0.36181 0.0
H8523 H 0.55243 0.59583 0.36541 0.0
H8524 H 0.54685 0.6186 0.36164 0.0
H8525 H 0.54424 0.62664 0.36937 0.0
C8526 C 0.6635 0.3081 0.62203 0.0
C8527 C 0.66629 0.31526 0.62725 0.0
C8528 C 0.65412 0.31275 0.63743 0.0
C8529 C 0.65143 0.30549 0.63231 0.0
N8530 N 0.65416 0.29529 0.62061 0.0
N8531 N 0.66528 0.32361 0.64059 0.0
C8532 C 0.65633 0.30286 0.62487 0.0
C8533 C 0.66191 0.31733 0.63518 0.0
N8534 N 0.66756 0.30648 0.61422 0.0
N8535 N 0.64904 0.31546 0.64429 0.0
H8536 H 0.67082 0.32728 0.63902 0.0
H8537 H 0.663 0.32479 0.64689 0.0
H8538 H 0.64348 0.31209 0.64636 0.0
H8539 H 0.64999 0.32132 0.64763 0.0
H8540 H 0.66527 0.30204 0.6096 0.0
H8541 H 0.67304 0.30996 0.6121 0.0
H8542 H 0.65794 0.29249 0.61569 0.0
H8543 H 0.64886 0.29141 0.62244 0.0
C8544 C 0.6383 0.95314 0.61256 0.0
C8545 C 0.64452 0.95672 0.60667 0.0
C8546 C 0.64605 0.96969 0.61605 0.0
C8547 C 0.63955 0.96628 0.62172 0.0
N8548 N 0.62827 0.95565 0.62461 0.0
N8549 N 0.65321 0.96896 0.60188 0.0
C8550 C 0.6353 0.95827 0.61973 0.0
C8551 C 0.64806 0.96518 0.60814 0.0
N8552 N 0.63552 0.9447 0.61149 0.0
N8553 N 0.65052 0.97708 0.61838 0.0
H8554 H 0.65486 0.96581 0.59605 0.0
H8555 H 0.65527 0.97545 0.60211 0.0
H8556 H 0.64909 0.98065 0.62402 0.0
H8557 H 0.65602 0.97936 0.61507 0.0
H8558 H 0.63179 0.94136 0.61611 0.0
H8559 H 0.63747 0.94076 0.60627 0.0
H8560 H 0.6243 0.95038 0.62296 0.0
H8561 H 0.62593 0.95921 0.62995 0.0
C8562 C 0.14911 0.55666 0.41444 0.0
C8563 C 0.14504 0.56483 0.4162 0.0
C8564 C 0.13528 0.56273 0.40361 0.0
C8565 C 0.14 0.55506 0.4013 0.0
N8566 N 0.15187 0.54504 0.40395 0.0
N8567 N 0.13493 0.5762 0.412 0.0
C8568 C 0.14702 0.55208 0.40659 0.0
C8569 C 0.13827 0.568 0.41068 0.0
N8570 N 0.15485 0.55322 0.42037 0.0
N8571 N 0.12786 0.56488 0.39911 0.0
H8572 H 0.13686 0.58023 0.41716 0.0
H8573 H 0.13074 0.57931 0.40762 0.0
H8574 H 0.12553 0.56122 0.39384 0.0
H8575 H 0.1236 0.56984 0.40103 0.0
H8576 H 0.15737 0.5469 0.41996 0.0
H8577 H 0.15658 0.55644 0.42614 0.0
H8578 H 0.15768 0.54313 0.40693 0.0
H8579 H 0.15039 0.5414 0.39836 0.0
C8580 C 0.71478 0.90059 0.66283 0.0
C8581 C 0.70783 0.8952 0.66581 0.0
C8582 C 0.71032 0.88504 0.6536 0.0
C8583 C 0.71741 0.89033 0.65074 0.0
N8584 N 0.72736 0.90226 0.65324 0.0
N8585 N 0.69984 0.88163 0.66504 0.0
C8586 C 0.71994 0.89784 0.65557 0.0
C8587 C 0.70588 0.8872 0.6615 0.0
N8588 N 0.71626 0.90847 0.66681 0.0
N8589 N 0.70765 0.87813 0.64857 0.0
H8590 H 0.69629 0.88311 0.67068 0.0
H8591 H 0.69879 0.87529 0.66281 0.0
H8592 H 0.71091 0.87616 0.64291 0.0
H8593 H 0.7019 0.87466 0.64968 0.0
H8594 H 0.72052 0.9132 0.66439 0.0
H8595 H 0.71284 0.91054 0.67234 0.0
H8596 H 0.73011 0.90726 0.65696 0.0
H8597 H 0.73119 0.90049 0.64788 0.0
C8598 C 0.38529 0.45628 0.91216 0.0
C8599 C 0.37717 0.458 0.91635 0.0
C8600 C 0.37443 0.47019 0.90622 0.0
C8601 C 0.38209 0.46788 0.9015 0.0
N8602 N 0.39454 0.45842 0.89943 0.0
N8603 N 0.3637 0.46615 0.91723 0.0
C8604 C 0.38748 0.46088 0.90436 0.0
C8605 C 0.37168 0.46488 0.91337 0.0
N8606 N 0.39092 0.4503 0.91571 0.0
N8607 N 0.36989 0.47755 0.90391 0.0
H8608 H 0.36162 0.46261 0.92268 0.0
H8609 H 0.35893 0.47033 0.91478 0.0
H8610 H 0.37167 0.48149 0.89863 0.0
H8611 H 0.36476 0.48014 0.90757 0.0
H8612 H 0.39732 0.44941 0.91358 0.0
H8613 H 0.38942 0.44663 0.92127 0.0
H8614 H 0.39812 0.45273 0.90052 0.0
H8615 H 0.39653 0.4618 0.89384 0.0
C8616 C 0.30873 0.62241 0.66379 0.0
C8617 C 0.31548 0.62809 0.66669 0.0
C8618 C 0.31219 0.63832 0.65474 0.0
C8619 C 0.3053 0.63273 0.65195 0.0
N8620 N 0.296 0.62029 0.65448 0.0
N8621 N 0.32277 0.64204 0.66598 0.0
C8622 C 0.30326 0.62502 0.6567 0.0
C8623 C 0.31692 0.63625 0.66249 0.0
N8624 N 0.30772 0.6144 0.66765 0.0
N8625 N 0.31441 0.64542 0.64977 0.0
H8626 H 0.32654 0.64065 0.67149 0.0
H8627 H 0.32346 0.64847 0.66384 0.0
H8628 H 0.31093 0.64731 0.64421 0.0
H8629 H 0.32001 0.64915 0.6508 0.0
H8630 H 0.30364 0.60952 0.66524 0.0
H8631 H 0.31137 0.61242 0.67307 0.0
H8632 H 0.2936 0.6151 0.65816 0.0
H8633 H 0.29195 0.62197 0.64925 0.0
C8634 C 0.88451 0.06824 0.11119 0.0
C8635 C 0.87732 0.06533 0.10607 0.0
C8636 C 0.8752 0.05286 0.11599 0.0
C8637 C 0.8826 0.05558 0.12089 0.0
N8638 N 0.89531 0.06479 0.1223 0.0
N8639 N 0.86682 0.05413 0.10256 0.0
C8640 C 0.88758 0.06295 0.1182 0.0
C8641 C 0.87297 0.0574 0.10816 0.0
N8642 N 0.88816 0.07625 0.10958 0.0
N8643 N 0.87014 0.04614 0.119 0.0
H8644 H 0.86499 0.05732 0.0968 0.0
H8645 H 0.86403 0.04795 0.10321 0.0
H8646 H 0.8717 0.04253 0.12458 0.0
H8647 H 0.8641 0.04448 0.11633 0.0
H8648 H 0.89271 0.07921 0.11369 0.0
H8649 H 0.88616 0.0803 0.10446 0.0
H8650 H 0.89971 0.06949 0.12008 0.0
H8651 H 0.89772 0.06109 0.12751 0.0
C8652 C 0.71485 0.1219 0.86013 0.0
C8653 C 0.70821 0.12753 0.85688 0.0
C8654 C 0.71124 0.13809 0.86861 0.0
C8655 C 0.71801 0.13255 0.87174 0.0
N8656 N 0.7273 0.11998 0.86983 0.0
N8657 N 0.70098 0.14155 0.85698 0.0
C8658 C 0.72014 0.12469 0.86728 0.0
C8659 C 0.7067 0.13582 0.86079 0.0
N8660 N 0.71591 0.11377 0.85651 0.0
N8661 N 0.70892 0.14536 0.87331 0.0
H8662 H 0.69734 0.14001 0.85142 0.0
H8663 H 0.70028 0.14804 0.85891 0.0
H8664 H 0.71226 0.14739 0.8789 0.0
H8665 H 0.70338 0.14909 0.87202 0.0
H8666 H 0.7199 0.10894 0.85917 0.0
H8667 H 0.7124 0.11165 0.85106 0.0
H8668 H 0.72978 0.11466 0.86637 0.0
H8669 H 0.73122 0.1218 0.87512 0.0
C8670 C 0.80987 0.88527 0.35592 0.0
C8671 C 0.81094 0.89412 0.35336 0.0
C8672 C 0.80187 0.89847 0.36592 0.0
C8673 C 0.80311 0.89003 0.36962 0.0
N8674 N 0.80856 0.87523 0.36799 0.0
N8675 N 0.80188 0.90696 0.35254 0.0
C8676 C 0.80713 0.88335 0.36456 0.0
C8677 C 0.80519 0.90023 0.35739 0.0
N8678 N 0.80987 0.87882 0.34976 0.0
N8679 N 0.79758 0.90482 0.37052 0.0
H8680 H 0.80315 0.90749 0.34585 0.0
H8681 H 0.79703 0.9112 0.3548 0.0
H8682 H 0.79458 0.90365 0.37654 0.0
H8683 H 0.79743 0.91135 0.36856 0.0
H8684 H 0.80838 0.87232 0.3512 0.0
H8685 H 0.80996 0.8803 0.34309 0.0
H8686 H 0.81215 0.87046 0.36468 0.0
H8687 H 0.80682 0.87353 0.37437 0.0
C8688 C 0.41128 0.38411 0.06774 0.0
C8689 C 0.4166 0.37667 0.06611 0.0
C8690 C 0.40713 0.37246 0.05384 0.0
C8691 C 0.40206 0.38014 0.05519 0.0
N8692 N 0.40017 0.39409 0.06229 0.0
N8693 N 0.42075 0.36479 0.05659 0.0
C8694 C 0.40441 0.38622 0.0618 0.0
C8695 C 0.41488 0.37117 0.05883 0.0
N8696 N 0.41256 0.38895 0.07515 0.0
N8697 N 0.40433 0.3662 0.0481 0.0
H8698 H 0.42648 0.36364 0.06011 0.0
H8699 H 0.42035 0.36118 0.05083 0.0
H8700 H 0.3987 0.36687 0.04431 0.0
H8701 H 0.40718 0.36003 0.04759 0.0
H8702 H 0.40829 0.39383 0.07724 0.0
H8703 H 0.41757 0.38767 0.0796 0.0
H8704 H 0.40214 0.39918 0.06636 0.0
H8705 H 0.39511 0.39582 0.05805 0.0
C8706 C 0.39941 0.66532 0.80796 0.0
C8707 C 0.39529 0.66694 0.81614 0.0
C8708 C 0.38545 0.65448 0.81369 0.0
C8709 C 0.39018 0.65231 0.806 0.0
N8710 N 0.40216 0.65506 0.79614 0.0
N8711 N 0.3851 0.66255 0.82735 0.0
C8712 C 0.39728 0.65759 0.80319 0.0
C8713 C 0.38847 0.6614 0.81914 0.0
N8714 N 0.40522 0.67128 0.80469 0.0
N8715 N 0.37797 0.65 0.81569 0.0
H8716 H 0.38706 0.6676 0.8315 0.0
H8717 H 0.38086 0.65814 0.83033 0.0
H8718 H 0.37561 0.64484 0.8119 0.0
H8719 H 0.3737 0.65185 0.82067 0.0
H8720 H 0.40777 0.67098 0.79839 0.0
H8721 H 0.40697 0.67696 0.80805 0.0
H8722 H 0.40801 0.65803 0.79434 0.0
H8723 H 0.40066 0.64956 0.79237 0.0
C8724 C 0.10717 0.65088 0.55961 0.0
C8725 C 0.10553 0.64542 0.56693 0.0
C8726 C 0.11776 0.63592 0.56261 0.0
C8727 C 0.12003 0.64197 0.55595 0.0
N8728 N 0.11764 0.65586 0.54881 0.0
N8729 N 0.10972 0.63324 0.57604 0.0
C8730 C 0.1149 0.64961 0.5546 0.0
C8731 C 0.11092 0.63803 0.56859 0.0
N8732 N 0.10124 0.65719 0.55737 0.0
N8733 N 0.12206 0.62809 0.56312 0.0
H8734 H 0.10473 0.63452 0.58051 0.0
H8735 H 0.11404 0.62841 0.57814 0.0
H8736 H 0.1271 0.62636 0.55886 0.0
H8737 H 0.12015 0.62302 0.56725 0.0
H8738 H 0.10159 0.66076 0.55157 0.0
H8739 H 0.09552 0.65833 0.56091 0.0
H8740 H 0.11474 0.66201 0.54829 0.0
H8741 H 0.12327 0.65522 0.54501 0.0
C8742 C 0.13472 0.36168 0.31892 0.0
C8743 C 0.12789 0.35611 0.31598 0.0
C8744 C 0.12573 0.36543 0.30306 0.0
C8745 C 0.1328 0.37078 0.30583 0.0
N8746 N 0.14508 0.37317 0.3154 0.0
N8747 N 0.11791 0.35169 0.30462 0.0
C8748 C 0.13762 0.36863 0.31346 0.0
C8749 C 0.1237 0.35769 0.30784 0.0
N8750 N 0.13817 0.36054 0.32709 0.0
N8751 N 0.12078 0.36793 0.29605 0.0
H8752 H 0.11623 0.34599 0.30798 0.0
H8753 H 0.1153 0.35197 0.29834 0.0
H8754 H 0.12221 0.37344 0.29227 0.0
H8755 H 0.11494 0.36491 0.29429 0.0
H8756 H 0.14241 0.36498 0.33004 0.0
H8757 H 0.1363 0.35546 0.33125 0.0
H8758 H 0.14942 0.37135 0.32033 0.0
H8759 H 0.14736 0.37837 0.3116 0.0
C8760 C 0.41454 0.65146 0.46289 0.0
C8761 C 0.41634 0.64592 0.45567 0.0
C8762 C 0.40419 0.63632 0.45999 0.0
C8763 C 0.40176 0.64244 0.46654 0.0
N8764 N 0.40388 0.65647 0.47351 0.0
N8765 N 0.41241 0.63355 0.44669 0.0
C8766 C 0.40677 0.65017 0.46784 0.0
C8767 C 0.41107 0.63843 0.45406 0.0
N8768 N 0.42035 0.65788 0.46512 0.0
N8769 N 0.40001 0.62843 0.45954 0.0
H8770 H 0.41744 0.63483 0.44226 0.0
H8771 H 0.40818 0.62863 0.44462 0.0
H8772 H 0.39494 0.6267 0.46377 0.0
H8773 H 0.40204 0.62332 0.45551 0.0
H8774 H 0.41989 0.66154 0.47085 0.0
H8775 H 0.4261 0.65904 0.46162 0.0
H8776 H 0.40669 0.66266 0.47398 0.0
H8777 H 0.39822 0.65581 0.47725 0.0
C8778 C 0.13488 0.66362 0.20651 0.0
C8779 C 0.12632 0.66711 0.20744 0.0
C8780 C 0.12322 0.65652 0.21914 0.0
C8781 C 0.13142 0.65247 0.21755 0.0
N8782 N 0.14483 0.65155 0.20931 0.0
N8783 N 0.11208 0.66672 0.21417 0.0
C8784 C 0.13722 0.6559 0.21117 0.0
C8785 C 0.12043 0.66354 0.21367 0.0
N8786 N 0.14078 0.66775 0.20121 0.0
N8787 N 0.11818 0.65371 0.22598 0.0
H8788 H 0.10992 0.67207 0.21052 0.0
H8789 H 0.10713 0.66378 0.2178 0.0
H8790 H 0.12 0.64853 0.23003 0.0
H8791 H 0.11254 0.6569 0.22808 0.0
H8792 H 0.1474 0.66615 0.20096 0.0
H8793 H 0.13922 0.67326 0.19749 0.0
H8794 H 0.14885 0.65306 0.20402 0.0
H8795 H 0.14689 0.64602 0.21273 0.0
C8796 C 0.11042 0.38492 0.95453 0.0
C8797 C 0.10504 0.3775 0.95607 0.0
C8798 C 0.11432 0.37322 0.96844 0.0
C8799 C 0.11945 0.38087 0.96719 0.0
N8800 N 0.12149 0.39483 0.96016 0.0
N8801 N 0.10069 0.36567 0.96553 0.0
C8802 C 0.11721 0.38698 0.96056 0.0
C8803 C 0.10663 0.37199 0.96337 0.0
N8804 N 0.10927 0.38977 0.94711 0.0
N8805 N 0.11703 0.36691 0.97418 0.0
H8806 H 0.09499 0.36456 0.96194 0.0
H8807 H 0.10099 0.36206 0.97129 0.0
H8808 H 0.12264 0.36751 0.97802 0.0
H8809 H 0.11413 0.36076 0.97463 0.0
H8810 H 0.11359 0.39463 0.94509 0.0
H8811 H 0.1043 0.38853 0.94259 0.0
H8812 H 0.1196 0.39993 0.95606 0.0
H8813 H 0.12649 0.39653 0.96448 0.0
C8814 C 0.40085 0.35737 0.71308 0.0
C8815 C 0.39522 0.35572 0.70589 0.0
C8816 C 0.38584 0.36798 0.71041 0.0
C8817 C 0.39205 0.37026 0.71693 0.0
N8818 N 0.40608 0.36784 0.72377 0.0
N8819 N 0.38282 0.3599 0.69708 0.0
C8820 C 0.3997 0.36511 0.71812 0.0
C8821 C 0.3878 0.36112 0.70441 0.0
N8822 N 0.40721 0.35143 0.71518 0.0
N8823 N 0.37802 0.3723 0.71008 0.0
H8824 H 0.38398 0.35488 0.6926 0.0
H8825 H 0.37794 0.36422 0.6951 0.0
H8826 H 0.37641 0.37737 0.71436 0.0
H8827 H 0.37285 0.37039 0.70608 0.0
H8828 H 0.41092 0.35178 0.72088 0.0
H8829 H 0.40825 0.3457 0.71161 0.0
H8830 H 0.41223 0.36493 0.72416 0.0
H8831 H 0.40552 0.37346 0.7276 0.0
C8832 C 0.05984 0.41738 0.38474 0.0
C8833 C 0.06164 0.42008 0.37603 0.0
C8834 C 0.05265 0.4079 0.37068 0.0
C8835 C 0.05295 0.40405 0.37913 0.0
N8836 N 0.05666 0.40528 0.39442 0.0
N8837 N 0.05375 0.42138 0.36248 0.0
C8838 C 0.05649 0.40884 0.38624 0.0
C8839 C 0.05629 0.41636 0.36941 0.0
N8840 N 0.05955 0.42342 0.39128 0.0
N8841 N 0.04909 0.40342 0.36381 0.0
H8842 H 0.05537 0.42801 0.3621 0.0
H8843 H 0.04919 0.41935 0.35784 0.0
H8844 H 0.04617 0.39728 0.36449 0.0
H8845 H 0.04961 0.40554 0.35735 0.0
H8846 H 0.05761 0.42192 0.39765 0.0
H8847 H 0.05968 0.43011 0.38992 0.0
H8848 H 0.05994 0.40825 0.39962 0.0
H8849 H 0.05407 0.39913 0.39583 0.0
C8850 C 0.35723 0.30979 0.12191 0.0
C8851 C 0.35574 0.3172 0.12731 0.0
C8852 C 0.368 0.3128 0.13673 0.0
C8853 C 0.37011 0.30602 0.13074 0.0
N8854 N 0.36749 0.29875 0.11696 0.0
N8855 N 0.36019 0.32639 0.13933 0.0
C8856 C 0.3649 0.30466 0.12317 0.0
C8857 C 0.36123 0.31886 0.13462 0.0
N8858 N 0.35121 0.30755 0.11568 0.0
N8859 N 0.37237 0.31334 0.14451 0.0
H8860 H 0.35526 0.33093 0.13804 0.0
H8861 H 0.36458 0.32848 0.14409 0.0
H8862 H 0.37736 0.30902 0.14625 0.0
H8863 H 0.37057 0.31756 0.14955 0.0
H8864 H 0.35144 0.30171 0.11218 0.0
H8865 H 0.34554 0.31117 0.11456 0.0
H8866 H 0.36453 0.2982 0.11085 0.0
H8867 H 0.37306 0.29486 0.1176 0.0
C8868 C 0.45472 0.61124 0.88357 0.0
C8869 C 0.45642 0.60578 0.87623 0.0
C8870 C 0.46888 0.61503 0.87213 0.0
C8871 C 0.46746 0.62023 0.87971 0.0
N8872 N 0.46013 0.62242 0.89348 0.0
N8873 N 0.46609 0.60134 0.8646 0.0
C8874 C 0.46071 0.61805 0.88569 0.0
C8875 C 0.46382 0.60733 0.87085 0.0
N8876 N 0.44721 0.61012 0.88829 0.0
N8877 N 0.47478 0.61766 0.86595 0.0
H8878 H 0.46251 0.59564 0.86346 0.0
H8879 H 0.47192 0.60161 0.86109 0.0
H8880 H 0.47864 0.62325 0.86661 0.0
H8881 H 0.47537 0.61472 0.85983 0.0
H8882 H 0.44509 0.61449 0.89307 0.0
H8883 H 0.44272 0.60515 0.88699 0.0
H8884 H 0.45593 0.62058 0.89852 0.0
H8885 H 0.4644 0.62745 0.89522 0.0
C8886 C 0.16457 0.71341 0.62155 0.0
C8887 C 0.16623 0.70614 0.62707 0.0
C8888 C 0.15401 0.71054 0.63655 0.0
C8889 C 0.15172 0.71715 0.63044 0.0
N8890 N 0.15407 0.72416 0.61649 0.0
N8891 N 0.16207 0.69713 0.63933 0.0
C8892 C 0.15683 0.71844 0.62279 0.0
C8893 C 0.16085 0.70455 0.63448 0.0
N8894 N 0.17048 0.71561 0.61521 0.0
N8895 N 0.14973 0.71009 0.64439 0.0
H8896 H 0.16706 0.69265 0.63808 0.0
H8897 H 0.15776 0.69508 0.64419 0.0
H8898 H 0.14468 0.71437 0.64609 0.0
H8899 H 0.15165 0.70601 0.64949 0.0
H8900 H 0.17012 0.72138 0.6116 0.0
H8901 H 0.17621 0.71207 0.6141 0.0
H8902 H 0.15696 0.72463 0.61034 0.0
H8903 H 0.14844 0.72797 0.6171 0.0
C8904 C 0.06815 0.61153 0.13826 0.0
C8905 C 0.06646 0.60612 0.14561 0.0
C8906 C 0.05394 0.61535 0.14962 0.0
C8907 C 0.05535 0.6205 0.14201 0.0
N8908 N 0.06271 0.62261 0.12825 0.0
N8909 N 0.05676 0.60171 0.15723 0.0
C8910 C 0.06213 0.61831 0.13606 0.0
C8911 C 0.05903 0.60767 0.15096 0.0
N8912 N 0.0757 0.61042 0.13358 0.0
N8913 N 0.04803 0.61801 0.15579 0.0
H8914 H 0.06035 0.59602 0.15841 0.0
H8915 H 0.05091 0.60198 0.16071 0.0
H8916 H 0.04416 0.6236 0.1551 0.0
H8917 H 0.04744 0.61511 0.16192 0.0
H8918 H 0.07781 0.61477 0.12878 0.0
H8919 H 0.08021 0.60548 0.13492 0.0
H8920 H 0.06694 0.62076 0.12324 0.0
H8921 H 0.05841 0.62761 0.12646 0.0
C8922 C 0.16492 0.3094 0.90195 0.0
C8923 C 0.16669 0.31669 0.89649 0.0
C8924 C 0.15457 0.31243 0.88684 0.0
C8925 C 0.15218 0.30579 0.89287 0.0
N8926 N 0.15432 0.29868 0.90681 0.0
N8927 N 0.16272 0.3258 0.88424 0.0
C8928 C 0.15718 0.30443 0.90058 0.0
C8929 C 0.16142 0.31836 0.88903 0.0
N8930 N 0.17074 0.30713 0.90835 0.0
N8931 N 0.1504 0.31295 0.87895 0.0
H8932 H 0.16772 0.33025 0.88558 0.0
H8933 H 0.15849 0.32792 0.87934 0.0
H8934 H 0.14535 0.30871 0.87716 0.0
H8935 H 0.1524 0.31705 0.87389 0.0
H8936 H 0.17031 0.30135 0.91193 0.0
H8937 H 0.17647 0.31064 0.90956 0.0
H8938 H 0.15712 0.29816 0.91299 0.0
H8939 H 0.14868 0.29491 0.9061 0.0
C8940 C 0.46335 0.41462 0.65194 0.0
C8941 C 0.45629 0.41657 0.64624 0.0
C8942 C 0.46076 0.40451 0.63658 0.0
C8943 C 0.46714 0.40195 0.64281 0.0
N8944 N 0.47378 0.40381 0.65701 0.0
N8945 N 0.44758 0.41287 0.63362 0.0
C8946 C 0.46828 0.40683 0.65063 0.0
C8947 C 0.45483 0.41141 0.63865 0.0
N8948 N 0.46545 0.42033 0.6585 0.0
N8949 N 0.46047 0.40045 0.62861 0.0
H8950 H 0.44313 0.41789 0.63488 0.0
H8951 H 0.4456 0.40872 0.62859 0.0
H8952 H 0.46471 0.39537 0.6269 0.0
H8953 H 0.45659 0.40258 0.62344 0.0
H8954 H 0.47109 0.41977 0.66228 0.0
H8955 H 0.46197 0.42609 0.65966 0.0
H8956 H 0.47412 0.40652 0.66326 0.0
H8957 H 0.47752 0.39815 0.65634 0.0
C8958 C 0.35678 0.71338 0.40097 0.0
C8959 C 0.35508 0.70617 0.39538 0.0
C8960 C 0.36726 0.71064 0.38589 0.0
C8961 C 0.36958 0.71719 0.39206 0.0
N8962 N 0.3673 0.72407 0.4061 0.0
N8963 N 0.35918 0.69729 0.38299 0.0
C8964 C 0.36451 0.7184 0.39975 0.0
C8965 C 0.36042 0.70465 0.38792 0.0
N8966 N 0.3509 0.71552 0.40737 0.0
N8967 N 0.3715 0.71028 0.37802 0.0
H8968 H 0.35418 0.6928 0.38422 0.0
H8969 H 0.36346 0.69528 0.37809 0.0
H8970 H 0.37654 0.71456 0.37635 0.0
H8971 H 0.36954 0.70625 0.37288 0.0
H8972 H 0.35128 0.72124 0.41105 0.0
H8973 H 0.34517 0.71197 0.40847 0.0
H8974 H 0.36444 0.72448 0.41227 0.0
H8975 H 0.37292 0.72787 0.40549 0.0
C8976 C 0.37343 0.05824 0.41516 0.0
C8977 C 0.3774 0.06649 0.41676 0.0
C8978 C 0.38717 0.06428 0.4042 0.0
C8979 C 0.38256 0.05651 0.40204 0.0
N8980 N 0.3708 0.04641 0.40487 0.0
N8981 N 0.38734 0.07791 0.41233 0.0
C8982 C 0.37557 0.05355 0.40739 0.0
C8983 C 0.38412 0.06964 0.41118 0.0
N8984 N 0.36774 0.05484 0.42116 0.0
N8985 N 0.39457 0.06643 0.39967 0.0
H8986 H 0.38535 0.082 0.41742 0.0
H8987 H 0.39148 0.08098 0.40789 0.0
H8988 H 0.39696 0.0627 0.39447 0.0
H8989 H 0.39876 0.07148 0.40149 0.0
H8990 H 0.36531 0.04849 0.42086 0.0
H8991 H 0.36598 0.05814 0.42687 0.0
H8992 H 0.36501 0.0445 0.4079 0.0
H8993 H 0.37231 0.04271 0.39933 0.0
C8994 C 0.8712 0.46343 0.60872 0.0
C8995 C 0.87711 0.45714 0.60525 0.0
C8996 C 0.88788 0.46087 0.61657 0.0
C8997 C 0.88207 0.46732 0.61989 0.0
N8998 N 0.8689 0.47583 0.61843 0.0
N8999 N 0.89154 0.45082 0.60481 0.0
C9000 C 0.87393 0.46893 0.61573 0.0
C9001 C 0.88561 0.45618 0.60884 0.0
N9002 N 0.86289 0.46395 0.60544 0.0
N9003 N 0.89541 0.45898 0.62102 0.0
H9004 H 0.89003 0.44708 0.5993 0.0
H9005 H 0.89813 0.45055 0.60649 0.0
H9006 H 0.89742 0.46241 0.62657 0.0
H9007 H 0.89942 0.45366 0.61958 0.0
H9008 H 0.85792 0.46763 0.6083 0.0
H9009 H 0.86078 0.46028 0.60009 0.0
H9010 H 0.86331 0.47794 0.61516 0.0
H9011 H 0.87068 0.4799 0.62361 0.0
C9012 C 0.30853 0.1208 0.35764 0.0
C9013 C 0.31574 0.12637 0.35588 0.0
C9014 C 0.31131 0.13595 0.36802 0.0
C9015 C 0.30478 0.12981 0.37041 0.0
N9016 N 0.29788 0.11576 0.36824 0.0
N9017 N 0.32464 0.13877 0.35987 0.0
C9018 C 0.30354 0.12208 0.36538 0.0
C9019 C 0.31728 0.13386 0.36117 0.0
N9020 N 0.30637 0.11437 0.35181 0.0
N9021 N 0.3117 0.14385 0.37221 0.0
H9022 H 0.32911 0.1375 0.35487 0.0
H9023 H 0.32667 0.1437 0.36411 0.0
H9024 H 0.30744 0.14556 0.37726 0.0
H9025 H 0.31571 0.14897 0.37021 0.0
H9026 H 0.30065 0.1107 0.35223 0.0
H9027 H 0.3099 0.11323 0.34607 0.0
H9028 H 0.29746 0.10957 0.36542 0.0
H9029 H 0.29409 0.11641 0.37387 0.0
C9030 C 0.65388 0.56182 0.1105 0.0
C9031 C 0.64693 0.56638 0.10636 0.0
C9032 C 0.63646 0.56025 0.11691 0.0
C9033 C 0.64337 0.5555 0.12089 0.0
N9034 N 0.65836 0.5506 0.12083 0.0
N9035 N 0.6315 0.56906 0.10464 0.0
C9036 C 0.652 0.55593 0.11747 0.0
C9037 C 0.63817 0.56531 0.10926 0.0
N9038 N 0.66232 0.56331 0.10792 0.0
N9039 N 0.62832 0.56011 0.12062 0.0
H9040 H 0.63254 0.57302 0.09917 0.0
H9041 H 0.62491 0.56782 0.10581 0.0
H9042 H 0.62678 0.55624 0.12602 0.0
H9043 H 0.62321 0.56418 0.11869 0.0
H9044 H 0.66777 0.56108 0.11132 0.0
H9045 H 0.66393 0.56727 0.1026 0.0
H9046 H 0.66453 0.54985 0.11805 0.0
H9047 H 0.65729 0.54637 0.12608 0.0
C9048 C 0.7136 0.40175 0.35726 0.0
C9049 C 0.70642 0.39612 0.35561 0.0
C9050 C 0.71097 0.38672 0.36784 0.0
C9051 C 0.71748 0.39293 0.37011 0.0
N9052 N 0.72431 0.40697 0.36771 0.0
N9053 N 0.69762 0.38371 0.3598 0.0
C9054 C 0.71866 0.40059 0.36498 0.0
C9055 C 0.70495 0.38869 0.361 0.0
N9056 N 0.71569 0.40812 0.35133 0.0
N9057 N 0.71065 0.37888 0.37213 0.0
H9058 H 0.69312 0.38488 0.35481 0.0
H9059 H 0.69565 0.37882 0.36411 0.0
H9060 H 0.71495 0.37726 0.37718 0.0
H9061 H 0.70665 0.37371 0.37023 0.0
H9062 H 0.72138 0.41183 0.35168 0.0
H9063 H 0.71211 0.40917 0.34562 0.0
H9064 H 0.7247 0.41312 0.36481 0.0
H9065 H 0.72816 0.4064 0.37331 0.0
C9066 C 0.15209 0.96354 0.91487 0.0
C9067 C 0.14647 0.95642 0.91682 0.0
C9068 C 0.1367 0.96087 0.90485 0.0
C9069 C 0.14287 0.96731 0.90227 0.0
N9070 N 0.15704 0.97403 0.90407 0.0
N9071 N 0.13389 0.94763 0.91316 0.0
C9072 C 0.15071 0.96849 0.90711 0.0
C9073 C 0.13886 0.95493 0.9117 0.0
N9074 N 0.15867 0.96568 0.92054 0.0
N9075 N 0.12872 0.96055 0.90084 0.0
H9076 H 0.13522 0.94318 0.91816 0.0
H9077 H 0.12886 0.94563 0.90904 0.0
H9078 H 0.12695 0.96479 0.89579 0.0
H9079 H 0.12359 0.95661 0.90299 0.0
H9080 H 0.1624 0.97135 0.91998 0.0
H9081 H 0.15989 0.96219 0.92628 0.0
H9082 H 0.1633 0.97439 0.90674 0.0
H9083 H 0.15633 0.97777 0.89841 0.0
C9084 C 0.30992 0.90264 0.16381 0.0
C9085 C 0.31594 0.89613 0.16659 0.0
C9086 C 0.31084 0.88626 0.15496 0.0
C9087 C 0.30471 0.8927 0.15229 0.0
N9088 N 0.29747 0.90651 0.15473 0.0
N9089 N 0.32138 0.88136 0.16582 0.0
C9090 C 0.30395 0.90073 0.15691 0.0
C9091 C 0.31616 0.8878 0.16247 0.0
N9092 N 0.31013 0.91076 0.16759 0.0
N9093 N 0.31173 0.87875 0.15015 0.0
H9094 H 0.32553 0.88235 0.17115 0.0
H9095 H 0.32123 0.87488 0.16375 0.0
H9096 H 0.30768 0.87724 0.14487 0.0
H9097 H 0.31673 0.87423 0.15106 0.0
H9098 H 0.30673 0.91616 0.16521 0.0
H9099 H 0.31413 0.91229 0.1729 0.0
H9100 H 0.29588 0.91201 0.15843 0.0
H9101 H 0.29322 0.90555 0.14949 0.0
C9102 C 0.2056 0.1347 0.66272 0.0
C9103 C 0.2059 0.12646 0.667 0.0
C9104 C 0.21799 0.12182 0.65746 0.0
C9105 C 0.21715 0.12976 0.65268 0.0
N9106 N 0.20998 0.14358 0.65027 0.0
N9107 N 0.21187 0.11192 0.66827 0.0
C9108 C 0.21093 0.13618 0.65521 0.0
C9109 C 0.212 0.11997 0.66435 0.0
N9110 N 0.20028 0.14114 0.66594 0.0
N9111 N 0.22455 0.11608 0.65541 0.0
H9112 H 0.20786 0.11044 0.67359 0.0
H9113 H 0.21535 0.10652 0.666 0.0
H9114 H 0.22881 0.117 0.65016 0.0
H9115 H 0.22619 0.11068 0.65921 0.0
H9116 H 0.20036 0.14759 0.66375 0.0
H9117 H 0.19612 0.1402 0.67127 0.0
H9118 H 0.20492 0.14806 0.65108 0.0
H9119 H 0.21404 0.14505 0.64499 0.0
C9120 C 0.11036 0.20404 0.39347 0.0
C9121 C 0.10625 0.20686 0.40132 0.0
C9122 C 0.11402 0.2209 0.40049 0.0
C9123 C 0.11825 0.21798 0.39277 0.0
N9124 N 0.11879 0.20798 0.38061 0.0
N9125 N 0.1024 0.21858 0.4111 0.0
C9126 C 0.11581 0.20995 0.38881 0.0
C9127 C 0.10749 0.21553 0.40442 0.0
N9128 N 0.10951 0.19555 0.39078 0.0
N9129 N 0.11655 0.22859 0.40428 0.0
H9130 H 0.09756 0.21477 0.41405 0.0
H9131 H 0.10241 0.22507 0.4132 0.0
H9132 H 0.12109 0.23279 0.4014 0.0
H9133 H 0.11449 0.23062 0.41045 0.0
H9134 H 0.11319 0.19281 0.38574 0.0
H9135 H 0.10552 0.19101 0.39394 0.0
H9136 H 0.11662 0.20263 0.377 0.0
H9137 H 0.12285 0.21219 0.37708 0.0
C9138 C 0.05879 0.86018 0.65336 0.0
C9139 C 0.06754 0.85915 0.65042 0.0
C9140 C 0.06469 0.8694 0.6384 0.0
C9141 C 0.05649 0.8715 0.64221 0.0
N9142 N 0.04573 0.86922 0.65349 0.0
N9143 N 0.07913 0.86323 0.64049 0.0
C9144 C 0.05347 0.8669 0.64968 0.0
C9145 C 0.07054 0.86378 0.64294 0.0
N9146 N 0.05558 0.85468 0.65963 0.0
N9147 N 0.06684 0.87279 0.6304 0.0
H9148 H 0.08364 0.85916 0.6436 0.0
H9149 H 0.08195 0.86725 0.63578 0.0
H9150 H 0.06268 0.87694 0.62693 0.0
H9151 H 0.07232 0.87085 0.62686 0.0
H9152 H 0.04904 0.85453 0.66152 0.0
H9153 H 0.05933 0.84969 0.66241 0.0
H9154 H 0.04364 0.86685 0.65952 0.0
H9155 H 0.04158 0.87396 0.65086 0.0
C9156 C 0.41439 0.81651 0.89203 0.0
C9157 C 0.41567 0.81599 0.9012 0.0
C9158 C 0.40602 0.80317 0.90183 0.0
C9159 C 0.40356 0.80471 0.89303 0.0
N9160 N 0.40519 0.81288 0.87963 0.0
N9161 N 0.41275 0.80894 0.915 0.0
C9162 C 0.40781 0.81129 0.88804 0.0
C9163 C 0.41163 0.80924 0.90614 0.0
N9164 N 0.41949 0.82204 0.88719 0.0
N9165 N 0.40294 0.79592 0.90605 0.0
H9166 H 0.41697 0.81314 0.91835 0.0
H9167 H 0.40918 0.80487 0.91912 0.0
H9168 H 0.39881 0.79141 0.90301 0.0
H9169 H 0.40505 0.79395 0.91221 0.0
H9170 H 0.41947 0.82219 0.88038 0.0
H9171 H 0.42434 0.82594 0.88999 0.0
H9172 H 0.40723 0.81827 0.876 0.0
H9173 H 0.40055 0.80906 0.87641 0.0
C9174 C 0.46356 0.16123 0.15641 0.0
C9175 C 0.45694 0.16543 0.15142 0.0
C9176 C 0.46154 0.1574 0.13831 0.0
C9177 C 0.46798 0.15301 0.14336 0.0
N9178 N 0.47666 0.15221 0.15643 0.0
N9179 N 0.45107 0.16934 0.13736 0.0
C9180 C 0.46952 0.15546 0.15216 0.0
C9181 C 0.45644 0.16413 0.14225 0.0
N9182 N 0.46383 0.16238 0.16528 0.0
N9183 N 0.45995 0.15479 0.1299 0.0
H9184 H 0.44727 0.17429 0.14012 0.0
H9185 H 0.45096 0.16929 0.13055 0.0
H9186 H 0.4637 0.15005 0.12671 0.0
H9187 H 0.45465 0.15696 0.12622 0.0
H9188 H 0.46778 0.15871 0.16943 0.0
H9189 H 0.45971 0.1667 0.16858 0.0
H9190 H 0.47864 0.1543 0.1626 0.0
H9191 H 0.48109 0.14795 0.15344 0.0
C9192 C 0.11055 0.81841 0.12959 0.0
C9193 C 0.10645 0.81552 0.12177 0.0
C9194 C 0.11431 0.80153 0.12267 0.0
C9195 C 0.11854 0.80452 0.13036 0.0
N9196 N 0.11905 0.81459 0.14245 0.0
N9197 N 0.10266 0.80372 0.11206 0.0
C9198 C 0.11606 0.81256 0.13427 0.0
C9199 C 0.10774 0.80684 0.11872 0.0
N9200 N 0.10963 0.82691 0.13225 0.0
N9201 N 0.11688 0.79383 0.11892 0.0
H9202 H 0.0978 0.80749 0.1091 0.0
H9203 H 0.10271 0.79723 0.11 0.0
H9204 H 0.12145 0.78966 0.12182 0.0
H9205 H 0.11483 0.79175 0.11276 0.0
H9206 H 0.1133 0.8297 0.13726 0.0
H9207 H 0.1056 0.8314 0.12907 0.0
H9208 H 0.11685 0.81995 0.14604 0.0
H9209 H 0.12314 0.81043 0.146 0.0
C9210 C 0.45595 0.85883 0.38044 0.0
C9211 C 0.45647 0.85745 0.37129 0.0
C9212 C 0.46926 0.86712 0.37052 0.0
C9213 C 0.46774 0.86967 0.3793 0.0
N9214 N 0.45964 0.86815 0.39275 0.0
N9215 N 0.4635 0.8602 0.35744 0.0
C9216 C 0.46118 0.86546 0.38436 0.0
C9217 C 0.4632 0.86144 0.3663 0.0
N9218 N 0.45042 0.8538 0.38535 0.0
N9219 N 0.47649 0.87018 0.36625 0.0
H9220 H 0.45931 0.85592 0.35416 0.0
H9221 H 0.46755 0.86373 0.35327 0.0
H9222 H 0.48099 0.87437 0.36923 0.0
H9223 H 0.47845 0.86801 0.3601 0.0
H9224 H 0.45028 0.8539 0.39216 0.0
H9225 H 0.44651 0.84892 0.38261 0.0
H9226 H 0.45427 0.86614 0.39643 0.0
H9227 H 0.46349 0.87281 0.39592 0.0
C9228 C 0.41374 0.20623 0.63008 0.0
C9229 C 0.41513 0.20684 0.62093 0.0
C9230 C 0.4055 0.21968 0.62029 0.0
C9231 C 0.40294 0.21807 0.62905 0.0
N9232 N 0.40442 0.20982 0.64241 0.0
N9233 N 0.41245 0.21405 0.60717 0.0
C9234 C 0.40712 0.21145 0.63404 0.0
C9235 C 0.41117 0.21365 0.61601 0.0
N9236 N 0.41874 0.20063 0.63492 0.0
N9237 N 0.40246 0.22697 0.6161 0.0
H9238 H 0.41673 0.20989 0.60385 0.0
H9239 H 0.40894 0.21817 0.60303 0.0
H9240 H 0.39828 0.23145 0.61913 0.0
H9241 H 0.40463 0.22899 0.60998 0.0
H9242 H 0.41864 0.20041 0.64173 0.0
H9243 H 0.42361 0.19672 0.63214 0.0
H9244 H 0.40641 0.20441 0.64603 0.0
H9245 H 0.39977 0.21365 0.64562 0.0
C9246 C 0.05852 0.16217 0.86651 0.0
C9247 C 0.06533 0.16609 0.87147 0.0
C9248 C 0.06063 0.1581 0.88455 0.0
C9249 C 0.054 0.15397 0.87953 0.0
N9250 N 0.04515 0.15357 0.86655 0.0
N9251 N 0.07151 0.16965 0.88549 0.0
C9252 C 0.05244 0.15655 0.87077 0.0
C9253 C 0.0659 0.16468 0.88061 0.0
N9254 N 0.05817 0.16345 0.85767 0.0
N9255 N 0.06221 0.15537 0.89292 0.0
H9256 H 0.07545 0.1745 0.88273 0.0
H9257 H 0.0717 0.16954 0.89229 0.0
H9258 H 0.05834 0.15075 0.89611 0.0
H9259 H 0.06762 0.15732 0.89656 0.0
H9260 H 0.05405 0.15997 0.85351 0.0
H9261 H 0.06237 0.16769 0.85437 0.0
H9262 H 0.04317 0.15577 0.86042 0.0
H9263 H 0.04063 0.14942 0.86955 0.0
C9264 C 0.40409 0.11082 0.21299 0.0
C9265 C 0.3989 0.10724 0.20616 0.0
C9266 C 0.38621 0.11568 0.2112 0.0
C9267 C 0.39148 0.11948 0.21783 0.0
N9268 N 0.40457 0.11915 0.22653 0.0
N9269 N 0.38467 0.1044 0.20009 0.0
C9270 C 0.40014 0.11649 0.21924 0.0
C9271 C 0.38982 0.10905 0.20574 0.0
N9272 N 0.41288 0.1092 0.21319 0.0
N9273 N 0.37793 0.11877 0.20981 0.0
H9274 H 0.38718 0.09952 0.19602 0.0
H9275 H 0.37788 0.10481 0.19998 0.0
H9276 H 0.37499 0.12342 0.21385 0.0
H9277 H 0.37414 0.11708 0.20442 0.0
H9278 H 0.41722 0.11243 0.21733 0.0
H9279 H 0.41597 0.10493 0.20885 0.0
H9280 H 0.41062 0.11665 0.2284 0.0
H9281 H 0.40179 0.12334 0.23117 0.0
C9282 C 0.16171 0.1428 0.45366 0.0
C9283 C 0.1659 0.15059 0.4565 0.0
C9284 C 0.15826 0.1497 0.47061 0.0
C9285 C 0.15394 0.14204 0.46766 0.0
N9286 N 0.15319 0.12998 0.45757 0.0
N9287 N 0.16994 0.16024 0.46827 0.0
C9288 C 0.15627 0.13814 0.45958 0.0
C9289 C 0.16477 0.15362 0.46521 0.0
N9290 N 0.16247 0.14017 0.44514 0.0
N9291 N 0.15584 0.15344 0.47837 0.0
H9292 H 0.17476 0.16318 0.46444 0.0
H9293 H 0.17 0.16228 0.47477 0.0
H9294 H 0.15132 0.15055 0.48259 0.0
H9295 H 0.15796 0.15957 0.48043 0.0
H9296 H 0.15872 0.13519 0.4424 0.0
H9297 H 0.16644 0.14334 0.4406 0.0
H9298 H 0.15529 0.1264 0.45217 0.0
H9299 H 0.14914 0.12645 0.46178 0.0
C9300 C 0.13111 0.91153 0.70308 0.0
C9301 C 0.12313 0.91557 0.70559 0.0
C9302 C 0.1234 0.9077 0.7196 0.0
C9303 C 0.13124 0.9035 0.71696 0.0
N9304 N 0.14378 0.90301 0.70747 0.0
N9305 N 0.11283 0.91929 0.71691 0.0
C9306 C 0.13552 0.906 0.70913 0.0
C9307 C 0.11967 0.91425 0.71411 0.0
N9308 N 0.1342 0.91255 0.69475 0.0
N9309 N 0.11933 0.90513 0.72712 0.0
H9310 H 0.11002 0.92413 0.713 0.0
H9311 H 0.11046 0.91922 0.72329 0.0
H9312 H 0.12207 0.90058 0.73142 0.0
H9313 H 0.11308 0.90715 0.72892 0.0
H9314 H 0.13936 0.90893 0.69218 0.0
H9315 H 0.13124 0.91663 0.69016 0.0
H9316 H 0.14762 0.90521 0.70229 0.0
H9317 H 0.14713 0.89889 0.71176 0.0
C9318 C 0.36051 0.88004 0.95351 0.0
C9319 C 0.35629 0.87229 0.95643 0.0
C9320 C 0.36407 0.87321 0.97046 0.0
C9321 C 0.3684 0.88083 0.96744 0.0
N9322 N 0.36912 0.89283 0.95729 0.0
N9323 N 0.35231 0.86273 0.96828 0.0
C9324 C 0.36602 0.8847 0.95936 0.0
C9325 C 0.35749 0.8693 0.96514 0.0
N9326 N 0.35969 0.88263 0.94499 0.0
N9327 N 0.36654 0.86949 0.9782 0.0
H9328 H 0.34744 0.85979 0.96451 0.0
H9329 H 0.35229 0.86072 0.97479 0.0
H9330 H 0.37112 0.87236 0.98237 0.0
H9331 H 0.36441 0.86337 0.98031 0.0
H9332 H 0.36344 0.88757 0.94218 0.0
H9333 H 0.35566 0.87946 0.94049 0.0
H9334 H 0.367 0.8964 0.95189 0.0
H9335 H 0.37323 0.89637 0.96144 0.0
C9336 C 0.40479 0.91242 0.30978 0.0
C9337 C 0.39963 0.91622 0.31651 0.0
C9338 C 0.38676 0.90813 0.31142 0.0
C9339 C 0.39198 0.90411 0.30487 0.0
N9340 N 0.40517 0.90395 0.29632 0.0
N9341 N 0.38543 0.91957 0.32239 0.0
C9342 C 0.40074 0.90682 0.30354 0.0
C9343 C 0.39049 0.91471 0.31685 0.0
N9344 N 0.41363 0.91376 0.30966 0.0
N9345 N 0.37838 0.90531 0.31276 0.0
H9346 H 0.38804 0.92441 0.32644 0.0
H9347 H 0.37862 0.91938 0.32243 0.0
H9348 H 0.37534 0.90069 0.30876 0.0
H9349 H 0.37458 0.90717 0.3181 0.0
H9350 H 0.41791 0.91036 0.3056 0.0
H9351 H 0.41679 0.91797 0.314 0.0
H9352 H 0.41131 0.90624 0.2945 0.0
H9353 H 0.40232 0.89982 0.29168 0.0
C9354 C 0.35744 0.15342 0.55715 0.0
C9355 C 0.35619 0.15032 0.56581 0.0
C9356 C 0.36598 0.13796 0.56279 0.0
C9357 C 0.36842 0.14196 0.55478 0.0
N9358 N 0.36661 0.15344 0.54416 0.0
N9359 N 0.35949 0.13981 0.57713 0.0
C9360 C 0.36408 0.1496 0.55183 0.0
C9361 C 0.36039 0.14253 0.56865 0.0
N9362 N 0.35226 0.16002 0.55405 0.0
N9363 N 0.36908 0.12981 0.56477 0.0
H9364 H 0.35539 0.14291 0.58162 0.0
H9365 H 0.36322 0.13483 0.57989 0.0
H9366 H 0.37323 0.12634 0.56059 0.0
H9367 H 0.36693 0.12616 0.5701 0.0
H9368 H 0.35228 0.16211 0.54757 0.0
H9369 H 0.34734 0.16289 0.55783 0.0
H9370 H 0.36446 0.15958 0.54213 0.0
H9371 H 0.37124 0.15064 0.54 0.0
C9372 C 0.11823 0.1079 0.80794 0.0
C9373 C 0.12157 0.10645 0.81648 0.0
C9374 C 0.1341 0.1159 0.81318 0.0
C9375 C 0.12992 0.11857 0.80535 0.0
N9376 N 0.11809 0.11721 0.79506 0.0
N9377 N 0.13256 0.10922 0.82747 0.0
C9378 C 0.12207 0.11448 0.80258 0.0
C9379 C 0.12958 0.11035 0.81912 0.0
N9380 N 0.11138 0.10297 0.80501 0.0
N9381 N 0.14239 0.11877 0.81494 0.0
H9382 H 0.12951 0.10513 0.83199 0.0
H9383 H 0.13774 0.11275 0.83013 0.0
H9384 H 0.14582 0.12289 0.81072 0.0
H9385 H 0.14615 0.11645 0.82013 0.0
H9386 H 0.10907 0.10314 0.79861 0.0
H9387 H 0.10849 0.0981 0.80882 0.0
H9388 H 0.11183 0.11528 0.79319 0.0
H9389 H 0.1209 0.12179 0.79086 0.0
C9390 C 0.16167 0.87952 0.06917 0.0
C9391 C 0.16578 0.87168 0.06632 0.0
C9392 C 0.15796 0.87253 0.05231 0.0
C9393 C 0.15371 0.88023 0.05527 0.0
N9394 N 0.15315 0.89236 0.0653 0.0
N9395 N 0.16961 0.86193 0.05456 0.0
C9396 C 0.15617 0.88417 0.0633 0.0
C9397 C 0.16451 0.8686 0.05765 0.0
N9398 N 0.16258 0.88221 0.07766 0.0
N9399 N 0.15542 0.86876 0.04462 0.0
H9400 H 0.17447 0.85898 0.05835 0.0
H9401 H 0.16958 0.85985 0.04808 0.0
H9402 H 0.15086 0.87165 0.04044 0.0
H9403 H 0.15748 0.8626 0.04256 0.0
H9404 H 0.1589 0.88723 0.08042 0.0
H9405 H 0.16661 0.87905 0.08216 0.0
H9406 H 0.15533 0.89597 0.07065 0.0
H9407 H 0.14905 0.89589 0.06113 0.0
C9408 C 0.20299 0.39355 0.11062 0.0
C9409 C 0.20597 0.40134 0.10652 0.0
C9410 C 0.21977 0.40049 0.11469 0.0
C9411 C 0.21669 0.39283 0.11891 0.0
N9412 N 0.20663 0.38073 0.11926 0.0
N9413 N 0.21787 0.41097 0.10288 0.0
C9414 C 0.20872 0.3889 0.11627 0.0
C9415 C 0.21462 0.40437 0.10796 0.0
N9416 N 0.19451 0.39091 0.10957 0.0
N9417 N 0.2274 0.40427 0.11741 0.0
H9418 H 0.21422 0.41388 0.0979 0.0
H9419 H 0.22436 0.41301 0.10305 0.0
H9420 H 0.23144 0.40143 0.12212 0.0
H9421 H 0.2295 0.41041 0.11535 0.0
H9422 H 0.19165 0.38593 0.11323 0.0
H9423 H 0.1901 0.39407 0.10544 0.0
H9424 H 0.20133 0.37713 0.11697 0.0
H9425 H 0.21071 0.3772 0.12345 0.0
C9426 C 0.71482 0.11915 0.91464 0.0
C9427 C 0.70642 0.12283 0.91609 0.0
C9428 C 0.71025 0.13532 0.90677 0.0
C9429 C 0.71795 0.13086 0.90414 0.0
N9430 N 0.7278 0.11866 0.90548 0.0
N9431 N 0.69591 0.13432 0.91347 0.0
C9432 C 0.72039 0.12287 0.90816 0.0
C9433 C 0.70413 0.13098 0.91227 0.0
N9434 N 0.71742 0.1121 0.91949 0.0
N9435 N 0.7088 0.14368 0.90393 0.0
H9436 H 0.69129 0.13143 0.91757 0.0
H9437 H 0.69346 0.13965 0.91002 0.0
H9438 H 0.71315 0.14696 0.89982 0.0
H9439 H 0.70375 0.14762 0.90623 0.0
H9440 H 0.72372 0.10952 0.91932 0.0
H9441 H 0.71345 0.10928 0.92427 0.0
H9442 H 0.72944 0.11232 0.90736 0.0
H9443 H 0.73217 0.12139 0.90101 0.0
C9444 C 0.14018 0.45617 0.16352 0.0
C9445 C 0.14928 0.45663 0.16526 0.0
C9446 C 0.15042 0.4697 0.15599 0.0
C9447 C 0.14174 0.46826 0.15307 0.0
N9448 N 0.12822 0.4602 0.15389 0.0
N9449 N 0.16322 0.46372 0.16323 0.0
C9450 C 0.13652 0.46161 0.15691 0.0
C9451 C 0.15442 0.46347 0.16164 0.0
N9452 N 0.13509 0.45051 0.1682 0.0
N9453 N 0.15481 0.477 0.15327 0.0
H9454 H 0.16633 0.4594 0.1675 0.0
H9455 H 0.16752 0.46787 0.15998 0.0
H9456 H 0.15199 0.48161 0.1491 0.0
H9457 H 0.16087 0.47889 0.15572 0.0
H9458 H 0.1283 0.45037 0.16783 0.0
H9459 H 0.13765 0.44645 0.17305 0.0
H9460 H 0.12445 0.4548 0.15561 0.0
H9461 H 0.12523 0.46423 0.14926 0.0
C9462 C 0.8108 0.90582 0.40994 0.0
C9463 C 0.81723 0.90059 0.41415 0.0
C9464 C 0.81201 0.8876 0.40629 0.0
C9465 C 0.80559 0.89283 0.40207 0.0
N9466 N 0.79746 0.90629 0.40132 0.0
N9467 N 0.82266 0.88633 0.41801 0.0
C9468 C 0.80452 0.90175 0.40441 0.0
C9469 C 0.81738 0.8914 0.41288 0.0
N9470 N 0.81098 0.91472 0.41087 0.0
N9471 N 0.81327 0.87913 0.40368 0.0
H9472 H 0.82667 0.88895 0.42287 0.0
H9473 H 0.82249 0.87951 0.41801 0.0
H9474 H 0.80936 0.87606 0.39901 0.0
H9475 H 0.81851 0.8753 0.40573 0.0
H9476 H 0.80717 0.91897 0.40717 0.0
H9477 H 0.81537 0.91794 0.41498 0.0
H9478 H 0.7958 0.91256 0.40341 0.0
H9479 H 0.79278 0.90347 0.39722 0.0
C9480 C 0.88237 0.06996 0.16125 0.0
C9481 C 0.87443 0.06768 0.16548 0.0
C9482 C 0.87421 0.05358 0.15781 0.0
C9483 C 0.88197 0.056 0.15334 0.0
N9484 N 0.8947 0.0652 0.15241 0.0
N9485 N 0.86404 0.05663 0.16964 0.0
C9486 C 0.88649 0.06377 0.15565 0.0
C9487 C 0.87078 0.05922 0.16439 0.0
N9488 N 0.88569 0.07822 0.16217 0.0
N9489 N 0.86988 0.04613 0.15542 0.0
H9490 H 0.86144 0.06066 0.17451 0.0
H9491 H 0.86154 0.05029 0.16974 0.0
H9492 H 0.87236 0.04173 0.15082 0.0
H9493 H 0.86366 0.04451 0.15764 0.0
H9494 H 0.89083 0.08064 0.15843 0.0
H9495 H 0.88297 0.08287 0.16635 0.0
H9496 H 0.8987 0.07033 0.15442 0.0
H9497 H 0.89783 0.06076 0.14827 0.0
C9498 C 0.30887 0.61697 0.61141 0.0
C9499 C 0.3155 0.62204 0.60733 0.0
C9500 C 0.31069 0.63508 0.61535 0.0
C9501 C 0.30423 0.62996 0.61962 0.0
N9502 N 0.29565 0.6168 0.62025 0.0
N9503 N 0.32132 0.63616 0.60358 0.0
C9504 C 0.3028 0.62115 0.61712 0.0
C9505 C 0.31591 0.6312 0.60868 0.0
N9506 N 0.30869 0.60811 0.61021 0.0
N9507 N 0.31216 0.6435 0.61801 0.0
H9508 H 0.32522 0.63345 0.59867 0.0
H9509 H 0.32138 0.64297 0.60366 0.0
H9510 H 0.30831 0.64663 0.62269 0.0
H9511 H 0.31746 0.64723 0.61594 0.0
H9512 H 0.30472 0.6039 0.6138 0.0
H9513 H 0.31289 0.60485 0.60593 0.0
H9514 H 0.29375 0.61062 0.61811 0.0
H9515 H 0.29114 0.61974 0.62446 0.0
C9516 C 0.14129 0.56881 0.36084 0.0
C9517 C 0.1493 0.56642 0.35677 0.0
C9518 C 0.14928 0.55241 0.36462 0.0
C9519 C 0.14144 0.55493 0.36889 0.0
N9520 N 0.12875 0.56423 0.36945 0.0
N9521 N 0.15974 0.55527 0.35299 0.0
C9522 C 0.13702 0.5627 0.3664 0.0
C9523 C 0.15288 0.55795 0.35806 0.0
N9524 N 0.13806 0.57709 0.35982 0.0
N9525 N 0.15349 0.54494 0.36717 0.0
H9526 H 0.16246 0.55922 0.34813 0.0
H9527 H 0.16222 0.54892 0.35303 0.0
H9528 H 0.15085 0.5406 0.37173 0.0
H9529 H 0.15975 0.54324 0.3651 0.0
H9530 H 0.13286 0.57959 0.36345 0.0
H9531 H 0.14091 0.58171 0.3557 0.0
H9532 H 0.12482 0.56935 0.36728 0.0
H9533 H 0.1255 0.55988 0.37359 0.0
C9534 C 0.3808 0.45662 0.85842 0.0
C9535 C 0.37165 0.45709 0.85702 0.0
C9536 C 0.37082 0.46998 0.86657 0.0
C9537 C 0.3796 0.46851 0.86915 0.0
N9538 N 0.39307 0.46042 0.86773 0.0
N9539 N 0.35777 0.46411 0.8597 0.0
C9540 C 0.38468 0.46192 0.86501 0.0
C9541 C 0.36662 0.46385 0.86095 0.0
N9542 N 0.38573 0.45106 0.85343 0.0
N9543 N 0.36653 0.47724 0.86956 0.0
H9544 H 0.35451 0.45987 0.85547 0.0
H9545 H 0.35358 0.46819 0.86319 0.0
H9546 H 0.36948 0.48179 0.8737 0.0
H9547 H 0.36038 0.47916 0.86735 0.0
H9548 H 0.39254 0.45094 0.85354 0.0
H9549 H 0.38302 0.4471 0.84858 0.0
H9550 H 0.39677 0.45504 0.86577 0.0
H9551 H 0.39621 0.46432 0.87236 0.0
C9552 C 0.91252 0.81664 0.63103 0.0
C9553 C 0.91557 0.81636 0.62227 0.0
C9554 C 0.9066 0.80339 0.61935 0.0
C9555 C 0.90325 0.80389 0.628 0.0
N9556 N 0.90448 0.80939 0.64269 0.0
N9557 N 0.91747 0.80833 0.60886 0.0
C9558 C 0.90675 0.80999 0.63406 0.0
C9559 C 0.91328 0.8093 0.61671 0.0
N9560 N 0.91483 0.8235 0.63629 0.0
N9561 N 0.90301 0.79764 0.61351 0.0
H9562 H 0.92233 0.81263 0.60674 0.0
H9563 H 0.91672 0.80289 0.60483 0.0
H9564 H 0.89826 0.79307 0.61525 0.0
H9565 H 0.90436 0.7977 0.60684 0.0
H9566 H 0.91205 0.8247 0.64239 0.0
H9567 H 0.91931 0.82827 0.63435 0.0
H9568 H 0.9073 0.81314 0.64761 0.0
H9569 H 0.90026 0.80455 0.64502 0.0
C9570 C 0.96462 0.16325 0.36578 0.0
C9571 C 0.95744 0.16584 0.37104 0.0
C9572 C 0.96319 0.15712 0.38322 0.0
C9573 C 0.96936 0.1533 0.37745 0.0
N9574 N 0.97603 0.15254 0.36316 0.0
N9575 N 0.94981 0.16556 0.38481 0.0
C9576 C 0.97023 0.15645 0.36875 0.0
C9577 C 0.95679 0.16299 0.37985 0.0
N9578 N 0.96599 0.16727 0.35791 0.0
N9579 N 0.96346 0.15506 0.39191 0.0
H9580 H 0.9452 0.17009 0.38262 0.0
H9581 H 0.94834 0.16293 0.39092 0.0
H9582 H 0.96811 0.15077 0.3945 0.0
H9583 H 0.95964 0.15811 0.39665 0.0
H9584 H 0.97154 0.16629 0.3541 0.0
H9585 H 0.96192 0.17223 0.35558 0.0
H9586 H 0.97621 0.15376 0.35646 0.0
H9587 H 0.98037 0.14766 0.36512 0.0
C9588 C 0.61219 0.21229 0.11469 0.0
C9589 C 0.60742 0.20704 0.1207 0.0
C9590 C 0.61512 0.2139 0.133 0.0
C9591 C 0.62005 0.21895 0.12697 0.0
N9592 N 0.62192 0.22463 0.11241 0.0
N9593 N 0.60277 0.20419 0.13545 0.0
C9594 C 0.61807 0.21873 0.11792 0.0
C9595 C 0.60837 0.20832 0.12984 0.0
N9596 N 0.61148 0.21074 0.1059 0.0
N9597 N 0.61718 0.2142 0.1417 0.0
H9598 H 0.59778 0.20006 0.13328 0.0
H9599 H 0.60257 0.20537 0.14215 0.0
H9600 H 0.62182 0.21852 0.14423 0.0
H9601 H 0.6146 0.20995 0.14634 0.0
H9602 H 0.61557 0.21355 0.10123 0.0
H9603 H 0.60714 0.2062 0.10325 0.0
H9604 H 0.62014 0.22542 0.10589 0.0
H9605 H 0.62639 0.22931 0.11456 0.0
C9606 C 0.5586 0.86035 0.86644 0.0
C9607 C 0.56572 0.85786 0.87182 0.0
C9608 C 0.55969 0.86657 0.88388 0.0
C9609 C 0.55358 0.87031 0.87799 0.0
N9610 N 0.54713 0.87095 0.86361 0.0
N9611 N 0.57312 0.85827 0.88572 0.0
C9612 C 0.55287 0.86712 0.8693 0.0
C9613 C 0.5662 0.86074 0.88063 0.0
N9614 N 0.5574 0.85629 0.85857 0.0
N9615 N 0.55925 0.86866 0.89256 0.0
H9616 H 0.57782 0.85378 0.88362 0.0
H9617 H 0.57446 0.86094 0.89184 0.0
H9618 H 0.55452 0.87291 0.89506 0.0
H9619 H 0.56302 0.86566 0.89737 0.0
H9620 H 0.5519 0.85721 0.85466 0.0
H9621 H 0.56155 0.85135 0.85632 0.0
H9622 H 0.54706 0.86969 0.85692 0.0
H9623 H 0.54271 0.87579 0.86549 0.0
C9624 C 0.90933 0.21185 0.90628 0.0
C9625 C 0.91271 0.20529 0.90065 0.0
C9626 C 0.90489 0.21186 0.88826 0.0
C9627 C 0.90046 0.2175 0.89416 0.0
N9628 N 0.89799 0.22263 0.90889 0.0
N9629 N 0.91375 0.1988 0.88633 0.0
C9630 C 0.90265 0.21754 0.90319 0.0
C9631 C 0.91059 0.20529 0.89161 0.0
N9632 N 0.91253 0.2126 0.9146 0.0
N9633 N 0.90365 0.21284 0.87946 0.0
H9634 H 0.91819 0.19409 0.88851 0.0
H9635 H 0.91164 0.19777 0.87994 0.0
H9636 H 0.8995 0.2176 0.87685 0.0
H9637 H 0.90725 0.2095 0.87474 0.0
H9638 H 0.91099 0.21777 0.91877 0.0
H9639 H 0.91737 0.20846 0.91707 0.0
H9640 H 0.89854 0.22216 0.91566 0.0
H9641 H 0.89311 0.22696 0.9069 0.0
C9642 C 0.5588 0.16322 0.6563 0.0
C9643 C 0.56582 0.16575 0.65081 0.0
C9644 C 0.55963 0.15706 0.63882 0.0
C9645 C 0.55362 0.1533 0.64479 0.0
N9646 N 0.5474 0.15261 0.65928 0.0
N9647 N 0.57299 0.16543 0.63679 0.0
C9648 C 0.55304 0.15646 0.65351 0.0
C9649 C 0.56617 0.1629 0.64198 0.0
N9650 N 0.55772 0.16725 0.66421 0.0
N9651 N 0.55908 0.15497 0.63014 0.0
H9652 H 0.57767 0.16996 0.63883 0.0
H9653 H 0.57424 0.16281 0.63063 0.0
H9654 H 0.55432 0.15071 0.62771 0.0
H9655 H 0.56277 0.15798 0.62528 0.0
H9656 H 0.55228 0.16632 0.6682 0.0
H9657 H 0.56191 0.17216 0.66643 0.0
H9658 H 0.54744 0.15384 0.66598 0.0
H9659 H 0.54295 0.14777 0.65746 0.0
C9660 C 0.60993 0.81648 0.39187 0.0
C9661 C 0.60708 0.81602 0.40069 0.0
C9662 C 0.61647 0.80326 0.40324 0.0
C9663 C 0.61961 0.80395 0.39453 0.0
N9664 N 0.61787 0.80954 0.37994 0.0
N9665 N 0.60565 0.80776 0.41399 0.0
C9666 C 0.6158 0.81 0.38862 0.0
C9667 C 0.60967 0.80895 0.4061 0.0
N9668 N 0.60738 0.82336 0.38675 0.0
N9669 N 0.62037 0.79758 0.40894 0.0
H9670 H 0.6007 0.81188 0.41625 0.0
H9671 H 0.60664 0.80229 0.41793 0.0
H9672 H 0.62523 0.79318 0.40706 0.0
H9673 H 0.61914 0.79753 0.41564 0.0
H9674 H 0.61001 0.82469 0.38062 0.0
H9675 H 0.60284 0.82802 0.38885 0.0
H9676 H 0.61481 0.81326 0.37512 0.0
H9677 H 0.62215 0.80483 0.37745 0.0
C9678 C 0.96408 0.86007 0.15668 0.0
C9679 C 0.95685 0.85755 0.15146 0.0
C9680 C 0.96284 0.86587 0.13912 0.0
C9681 C 0.96907 0.86967 0.14483 0.0
N9682 N 0.97569 0.87059 0.15913 0.0
N9683 N 0.94923 0.85781 0.13767 0.0
C9684 C 0.96984 0.86669 0.1536 0.0
C9685 C 0.95628 0.86025 0.1426 0.0
N9686 N 0.96536 0.85615 0.16461 0.0
N9687 N 0.9632 0.86773 0.13038 0.0
H9688 H 0.94446 0.85349 0.13995 0.0
H9689 H 0.94785 0.86038 0.13152 0.0
H9690 H 0.96796 0.87183 0.12772 0.0
H9691 H 0.95933 0.86464 0.1257 0.0
H9692 H 0.97093 0.85708 0.16842 0.0
H9693 H 0.96119 0.85131 0.16701 0.0
H9694 H 0.97582 0.86949 0.16585 0.0
H9695 H 0.98014 0.87533 0.15708 0.0
C9696 C 0.61665 0.91299 0.80902 0.0
C9697 C 0.62213 0.91585 0.81594 0.0
C9698 C 0.63433 0.90739 0.80981 0.0
C9699 C 0.62843 0.90333 0.80392 0.0
N9700 N 0.61395 0.9021 0.79779 0.0
N9701 N 0.63622 0.91614 0.82295 0.0
C9702 C 0.61961 0.90621 0.80336 0.0
C9703 C 0.63104 0.91328 0.81625 0.0
N9704 N 0.60859 0.91671 0.80797 0.0
N9705 N 0.64305 0.90554 0.80923 0.0
H9706 H 0.63408 0.92072 0.82755 0.0
H9707 H 0.64246 0.91375 0.8242 0.0
H9708 H 0.64557 0.90124 0.80455 0.0
H9709 H 0.64785 0.90876 0.81282 0.0
H9710 H 0.60457 0.91553 0.8026 0.0
H9711 H 0.60625 0.92163 0.81209 0.0
H9712 H 0.60722 0.90311 0.79784 0.0
H9713 H 0.61592 0.89727 0.79339 0.0
C9714 C 0.86075 0.86621 0.55924 0.0
C9715 C 0.85764 0.87177 0.56599 0.0
C9716 C 0.8659 0.88404 0.55975 0.0
C9717 C 0.87019 0.87811 0.55404 0.0
N9718 N 0.87185 0.86354 0.54821 0.0
N9719 N 0.85687 0.886 0.5727 0.0
C9720 C 0.86752 0.86922 0.55361 0.0
C9721 C 0.85999 0.88075 0.56616 0.0
N9722 N 0.85725 0.85804 0.55829 0.0
N9723 N 0.86758 0.89279 0.55904 0.0
H9724 H 0.85226 0.88385 0.57725 0.0
H9725 H 0.85909 0.89233 0.57386 0.0
H9726 H 0.87189 0.89531 0.55438 0.0
H9727 H 0.8642 0.8976 0.56249 0.0
H9728 H 0.85861 0.85393 0.55303 0.0
H9729 H 0.85236 0.85564 0.5624 0.0
H9730 H 0.87101 0.85678 0.54838 0.0
H9731 H 0.87668 0.86554 0.54383 0.0
C9732 C 0.89006 0.1096 0.31646 0.0
C9733 C 0.89918 0.10794 0.31626 0.0
C9734 C 0.90065 0.11749 0.30343 0.0
C9735 C 0.89192 0.12033 0.30466 0.0
N9736 N 0.87816 0.11926 0.31228 0.0
N9737 N 0.91333 0.11028 0.30969 0.0
C9738 C 0.88652 0.11631 0.31106 0.0
C9739 C 0.90451 0.11175 0.30967 0.0
N9740 N 0.88482 0.10475 0.32184 0.0
N9741 N 0.90524 0.12036 0.29632 0.0
H9742 H 0.91637 0.10598 0.31403 0.0
H9743 H 0.91773 0.11367 0.30575 0.0
H9744 H 0.90254 0.1246 0.2917 0.0
H9745 H 0.91138 0.11797 0.29457 0.0
H9746 H 0.87802 0.10506 0.32176 0.0
H9747 H 0.88728 0.09981 0.32586 0.0
H9748 H 0.87424 0.11739 0.31752 0.0
H9749 H 0.87527 0.12397 0.30828 0.0
C9750 C 0.66268 0.15614 0.05899 0.0
C9751 C 0.66505 0.15063 0.06606 0.0
C9752 C 0.65616 0.13879 0.05987 0.0
C9753 C 0.6526 0.14479 0.05377 0.0
N9754 N 0.65227 0.15924 0.04743 0.0
N9755 N 0.66436 0.13667 0.07332 0.0
C9756 C 0.65593 0.15345 0.05317 0.0
C9757 C 0.662 0.14187 0.06644 0.0
N9758 N 0.66685 0.16397 0.05791 0.0
N9759 N 0.65388 0.13015 0.05937 0.0
H9760 H 0.66889 0.13864 0.07803 0.0
H9761 H 0.66158 0.13059 0.0746 0.0
H9762 H 0.64961 0.12777 0.0546 0.0
H9763 H 0.65675 0.12526 0.06313 0.0
H9764 H 0.66603 0.16796 0.05246 0.0
H9765 H 0.67176 0.16613 0.06214 0.0
H9766 H 0.65362 0.16592 0.04742 0.0
H9767 H 0.64745 0.15748 0.04293 0.0
C9768 C 0.61527 0.11229 0.71223 0.0
C9769 C 0.62134 0.10769 0.70689 0.0
C9770 C 0.63354 0.11547 0.71386 0.0
C9771 C 0.62744 0.12023 0.71899 0.0
N9772 N 0.61286 0.1218 0.72473 0.0
N9773 N 0.63616 0.1033 0.70393 0.0
C9774 C 0.61842 0.11812 0.71876 0.0
C9775 C 0.63047 0.10875 0.70817 0.0
N9776 N 0.60649 0.11149 0.71068 0.0
N9777 N 0.6422 0.11764 0.71418 0.0
H9778 H 0.63404 0.09834 0.69973 0.0
H9779 H 0.64286 0.10318 0.7051 0.0
H9780 H 0.64467 0.12225 0.71858 0.0
H9781 H 0.64688 0.11519 0.70988 0.0
H9782 H 0.60178 0.11547 0.71356 0.0
H9783 H 0.6039 0.10718 0.70608 0.0
H9784 H 0.60637 0.11991 0.7255 0.0
H9785 H 0.61495 0.12625 0.72947 0.0
C9786 C 0.66179 0.88096 0.45636 0.0
C9787 C 0.6646 0.87213 0.4569 0.0
C9788 C 0.65515 0.86972 0.46963 0.0
C9789 C 0.65205 0.87844 0.46886 0.0
N9790 N 0.65389 0.89299 0.46317 0.0
N9791 N 0.66594 0.85887 0.46527 0.0
C9792 C 0.65592 0.88428 0.46279 0.0
C9793 C 0.66196 0.86678 0.464 0.0
N9794 N 0.66439 0.886 0.44945 0.0
N9795 N 0.65121 0.86408 0.47534 0.0
H9796 H 0.6709 0.85657 0.46119 0.0
H9797 H 0.66491 0.85498 0.47076 0.0
H9798 H 0.64633 0.86602 0.4797 0.0
H9799 H 0.6524 0.85737 0.47545 0.0
H9800 H 0.66179 0.89214 0.44806 0.0
H9801 H 0.66892 0.88385 0.44482 0.0
H9802 H 0.65699 0.89776 0.45943 0.0
H9803 H 0.64961 0.89554 0.46784 0.0
C9804 C 0.90667 0.91005 0.21192 0.0
C9805 C 0.90104 0.91342 0.20537 0.0
C9806 C 0.88865 0.90567 0.21201 0.0
C9807 C 0.89455 0.90121 0.21762 0.0
N9808 N 0.90929 0.89869 0.22267 0.0
N9809 N 0.8867 0.9145 0.19894 0.0
C9810 C 0.90358 0.90337 0.21762 0.0
C9811 C 0.89199 0.91134 0.20542 0.0
N9812 N 0.91499 0.91323 0.21265 0.0
N9813 N 0.87985 0.90447 0.21304 0.0
H9814 H 0.88889 0.91892 0.19422 0.0
H9815 H 0.8803 0.91242 0.19795 0.0
H9816 H 0.87724 0.90035 0.21782 0.0
H9817 H 0.87513 0.90808 0.20971 0.0
H9818 H 0.91916 0.9117 0.21781 0.0
H9819 H 0.91746 0.91806 0.2085 0.0
H9820 H 0.91606 0.89922 0.22217 0.0
H9821 H 0.90731 0.89381 0.227 0.0
C9822 C 0.86023 0.15718 0.96397 0.0
C9823 C 0.85752 0.15186 0.95689 0.0
C9824 C 0.86574 0.1395 0.96299 0.0
C9825 C 0.86971 0.14528 0.96906 0.0
N9826 N 0.87092 0.15967 0.97542 0.0
N9827 N 0.85741 0.1379 0.94955 0.0
C9828 C 0.86687 0.1541 0.96971 0.0
C9829 C 0.86006 0.14293 0.95646 0.0
N9830 N 0.85646 0.16522 0.96514 0.0
N9831 N 0.86749 0.13074 0.96349 0.0
H9832 H 0.85303 0.14015 0.94483 0.0
H9833 H 0.85985 0.13168 0.94826 0.0
H9834 H 0.87163 0.12811 0.96824 0.0
H9835 H 0.86429 0.12603 0.95976 0.0
H9836 H 0.85754 0.16913 0.97061 0.0
H9837 H 0.85161 0.16762 0.96098 0.0
H9838 H 0.86993 0.16641 0.97545 0.0
H9839 H 0.87567 0.15762 0.97986 0.0
C9840 C 0.80849 0.61619 0.91274 0.0
C9841 C 0.81568 0.62145 0.91531 0.0
C9842 C 0.80969 0.63376 0.90694 0.0
C9843 C 0.80351 0.62802 0.9031 0.0
N9844 N 0.79696 0.61369 0.90215 0.0
N9845 N 0.82323 0.63527 0.9151 0.0
C9846 C 0.80276 0.61925 0.90608 0.0
C9847 C 0.81623 0.63031 0.91261 0.0
N9848 N 0.80723 0.60825 0.91665 0.0
N9849 N 0.8093 0.6425 0.90507 0.0
H9850 H 0.82797 0.63302 0.91947 0.0
H9851 H 0.8246 0.64143 0.91254 0.0
H9852 H 0.80455 0.64514 0.90093 0.0
H9853 H 0.81313 0.6472 0.90818 0.0
H9854 H 0.80168 0.60442 0.91568 0.0
H9855 H 0.81138 0.60587 0.92152 0.0
H9856 H 0.79685 0.60696 0.90325 0.0
H9857 H 0.79253 0.61571 0.89737 0.0
C9858 C 0.3128 0.89318 0.10842 0.0
C9859 C 0.31391 0.90234 0.10744 0.0
C9860 C 0.30215 0.90496 0.11807 0.0
C9861 C 0.30213 0.89591 0.1201 0.0
N9862 N 0.30716 0.88125 0.11728 0.0
N9863 N 0.30987 0.9171 0.11138 0.0
C9864 C 0.30728 0.88995 0.11519 0.0
C9865 C 0.30852 0.90828 0.11216 0.0
N9866 N 0.31705 0.88762 0.10284 0.0
N9867 N 0.29613 0.91036 0.12189 0.0
H9868 H 0.31435 0.91981 0.10701 0.0
H9869 H 0.30695 0.92174 0.11543 0.0
H9870 H 0.29149 0.90812 0.12636 0.0
H9871 H 0.29521 0.91686 0.12009 0.0
H9872 H 0.316 0.8809 0.10267 0.0
H9873 H 0.32113 0.88986 0.09785 0.0
H9874 H 0.31149 0.87667 0.11472 0.0
H9875 H 0.30288 0.87866 0.12194 0.0
C9876 C 0.86631 0.56171 0.86228 0.0
C9877 C 0.872 0.5682 0.8589 0.0
C9878 C 0.88432 0.56153 0.86674 0.0
C9879 C 0.87836 0.55599 0.87121 0.0
N9880 N 0.86358 0.55102 0.87368 0.0
N9881 N 0.88638 0.57452 0.85781 0.0
C9882 C 0.86934 0.55602 0.869 0.0
C9883 C 0.88103 0.5681 0.861 0.0
N9884 N 0.85799 0.56102 0.85908 0.0
N9885 N 0.8931 0.56046 0.868 0.0
H9886 H 0.88424 0.57921 0.85333 0.0
H9887 H 0.89278 0.57548 0.8599 0.0
H9888 H 0.89566 0.55569 0.87216 0.0
H9889 H 0.89786 0.56374 0.8644 0.0
H9890 H 0.85378 0.5559 0.86062 0.0
H9891 H 0.85556 0.56517 0.85423 0.0
H9892 H 0.85682 0.55157 0.87312 0.0
H9893 H 0.86552 0.54671 0.87858 0.0
C9894 C 0.20961 0.1286 0.60858 0.0
C9895 C 0.20841 0.11943 0.6078 0.0
C9896 C 0.21989 0.11694 0.61875 0.0
C9897 C 0.21999 0.12604 0.62056 0.0
N9898 N 0.21518 0.14068 0.61731 0.0
N9899 N 0.21216 0.10474 0.61221 0.0
C9900 C 0.21502 0.13194 0.61541 0.0
C9901 C 0.21361 0.11355 0.61279 0.0
N9902 N 0.20557 0.13407 0.60278 0.0
N9903 N 0.22577 0.11157 0.62282 0.0
H9904 H 0.20773 0.10197 0.60782 0.0
H9905 H 0.21493 0.10017 0.61644 0.0
H9906 H 0.23036 0.11387 0.62731 0.0
H9907 H 0.22664 0.10501 0.62119 0.0
H9908 H 0.20672 0.14078 0.60247 0.0
H9909 H 0.20158 0.13176 0.59774 0.0
H9910 H 0.21096 0.14524 0.61454 0.0
H9911 H 0.21937 0.14334 0.622 0.0
C9912 C 0.15594 0.96353 0.8599 0.0
C9913 C 0.15038 0.95655 0.8574 0.0
C9914 C 0.1385 0.96283 0.86618 0.0
C9915 C 0.14454 0.96881 0.86989 0.0
N9916 N 0.15907 0.97493 0.87048 0.0
N9917 N 0.13632 0.94949 0.8578 0.0
C9918 C 0.15324 0.96932 0.86667 0.0
C9919 C 0.14158 0.95627 0.86031 0.0
N9920 N 0.16383 0.96454 0.85583 0.0
N9921 N 0.12985 0.96345 0.86834 0.0
H9922 H 0.13829 0.9448 0.85325 0.0
H9923 H 0.13017 0.94829 0.86046 0.0
H9924 H 0.12748 0.96822 0.87262 0.0
H9925 H 0.12494 0.95978 0.86537 0.0
H9926 H 0.16787 0.96995 0.85674 0.0
H9927 H 0.166 0.96033 0.85091 0.0
H9928 H 0.16575 0.97485 0.86922 0.0
H9929 H 0.1573 0.9794 0.87533 0.0
C9930 C 0.71245 0.40816 0.41021 0.0
C9931 C 0.70726 0.40207 0.41493 0.0
C9932 C 0.71435 0.38987 0.40723 0.0
C9933 C 0.71934 0.39599 0.40236 0.0
N9934 N 0.72483 0.41064 0.40059 0.0
N9935 N 0.70458 0.38726 0.41952 0.0
C9936 C 0.71898 0.40504 0.40437 0.0
C9937 C 0.70867 0.39294 0.41396 0.0
N9938 N 0.71076 0.41693 0.41092 0.0
N9939 N 0.71478 0.38118 0.40515 0.0
H9940 H 0.70039 0.38937 0.42448 0.0
H9941 H 0.70585 0.38057 0.4197 0.0
H9942 H 0.71917 0.37873 0.40053 0.0
H9943 H 0.71058 0.37647 0.40769 0.0
H9944 H 0.71353 0.42164 0.40686 0.0
H9945 H 0.70615 0.41951 0.41523 0.0
H9946 H 0.72551 0.41717 0.4024 0.0
H9947 H 0.72958 0.40856 0.39614 0.0
C9948 C 0.88233 0.45655 0.66317 0.0
C9949 C 0.8732 0.45676 0.66474 0.0
C9950 C 0.87179 0.46948 0.65504 0.0
C9951 C 0.88055 0.46824 0.65231 0.0
N9952 N 0.8943 0.4606 0.65357 0.0
N9953 N 0.85905 0.46326 0.66218 0.0
C9954 C 0.88592 0.46188 0.65644 0.0
C9955 C 0.86789 0.46329 0.6608 0.0
N9956 N 0.88753 0.45124 0.66814 0.0
N9957 N 0.86722 0.47656 0.65206 0.0
H9958 H 0.85598 0.45896 0.66648 0.0
H9959 H 0.85468 0.46716 0.65869 0.0
H9960 H 0.86996 0.48115 0.64781 0.0
H9961 H 0.86106 0.47832 0.65437 0.0
H9962 H 0.89433 0.45133 0.6679 0.0
H9963 H 0.88503 0.44727 0.6731 0.0
H9964 H 0.8982 0.45537 0.65553 0.0
H9965 H 0.89723 0.46452 0.64882 0.0
C9966 C 0.64179 0.56674 0.16284 0.0
C9967 C 0.65063 0.56657 0.16565 0.0
C9968 C 0.65353 0.55378 0.15641 0.0
C9969 C 0.6448 0.5542 0.15327 0.0
N9970 N 0.63007 0.55943 0.15494 0.0
N9971 N 0.6642 0.55872 0.16709 0.0
C9972 C 0.63873 0.56013 0.15702 0.0
C9973 C 0.65625 0.55963 0.16312 0.0
N9974 N 0.63648 0.57346 0.16541 0.0
N9975 N 0.65937 0.54818 0.15258 0.0
H9976 H 0.66638 0.56299 0.17196 0.0
H9977 H 0.6683 0.55336 0.16616 0.0
H9978 H 0.65759 0.54365 0.1478 0.0
H9979 H 0.66607 0.54831 0.15377 0.0
H9980 H 0.63029 0.57459 0.16283 0.0
H9981 H 0.63845 0.57818 0.16993 0.0
H9982 H 0.62515 0.56306 0.15793 0.0
H9983 H 0.62773 0.55462 0.15069 0.0
C9984 C 0.60765 0.71555 0.9039 0.0
C9985 C 0.60647 0.70686 0.90081 0.0
C9986 C 0.61626 0.70991 0.88848 0.0
C9987 C 0.61862 0.71795 0.89244 0.0
N9988 N 0.61671 0.7286 0.90389 0.0
N9989 N 0.60994 0.69551 0.89038 0.0
C9990 C 0.61425 0.7209 0.90008 0.0
C9991 C 0.61073 0.70401 0.89306 0.0
N9992 N 0.60243 0.71863 0.91047 0.0
N9993 N 0.61939 0.70791 0.88034 0.0
H9994 H 0.6059 0.69098 0.89349 0.0
H9995 H 0.61372 0.69275 0.88543 0.0
H9996 H 0.62351 0.7121 0.87686 0.0
H9997 H 0.61728 0.70255 0.87671 0.0
H9998 H 0.60241 0.72512 0.91254 0.0
H9999 H 0.59754 0.71483 0.91334 0.0
H10000 H 0.61455 0.73064 0.91002 0.0
H10001 H 0.62131 0.73279 0.90109 0.0
C10002 C 0.56591 0.35824 0.14192 0.0
C10003 C 0.56537 0.35683 0.15107 0.0
C10004 C 0.5525 0.3664 0.15181 0.0
C10005 C 0.55403 0.36899 0.14304 0.0
N10006 N 0.56222 0.36757 0.12963 0.0
N10007 N 0.55826 0.3595 0.16489 0.0
C10008 C 0.56065 0.36484 0.138 0.0
C10009 C 0.55858 0.36077 0.15604 0.0
N10010 N 0.5715 0.35326 0.13702 0.0
N10011 N 0.54522 0.36941 0.15606 0.0
H10012 H 0.56246 0.35524 0.16818 0.0
H10013 H 0.55416 0.36299 0.16906 0.0
H10014 H 0.5407 0.37356 0.15307 0.0
H10015 H 0.54325 0.3672 0.16219 0.0
H10016 H 0.57167 0.35337 0.13022 0.0
H10017 H 0.57544 0.3484 0.13976 0.0
H10018 H 0.56762 0.36561 0.12597 0.0
H10019 H 0.55835 0.37222 0.12646 0.0
C10020 C 0.91485 0.30745 0.40397 0.0
C10021 C 0.91615 0.31612 0.40093 0.0
C10022 C 0.90655 0.31316 0.38842 0.0
C10023 C 0.90404 0.30514 0.39234 0.0
N10024 N 0.90569 0.29446 0.4038 0.0
N10025 N 0.91299 0.3275 0.39043 0.0
C10026 C 0.90827 0.30215 0.40004 0.0
C10027 C 0.91206 0.31901 0.3931 0.0
N10028 N 0.91993 0.30432 0.41062 0.0
N10029 N 0.90357 0.31518 0.38024 0.0
H10030 H 0.91702 0.33199 0.39361 0.0
H10031 H 0.90933 0.33029 0.38542 0.0
H10032 H 0.89947 0.31102 0.37669 0.0
H10033 H 0.90577 0.32053 0.37664 0.0
H10034 H 0.91988 0.29782 0.41268 0.0
H10035 H 0.92481 0.30808 0.41358 0.0
H10036 H 0.90774 0.2924 0.40995 0.0
H10037 H 0.9011 0.29031 0.40091 0.0
C10038 C 0.96401 0.66413 0.65362 0.0
C10039 C 0.95558 0.6657 0.65005 0.0
C10040 C 0.95914 0.65631 0.63752 0.0
C10041 C 0.96684 0.65355 0.64189 0.0
N10042 N 0.97684 0.65474 0.65398 0.0
N10043 N 0.94491 0.66322 0.6387 0.0
C10044 C 0.96943 0.65755 0.64984 0.0
C10045 C 0.95314 0.66191 0.64193 0.0
N10046 N 0.96677 0.66896 0.66062 0.0
N10047 N 0.95756 0.6535 0.62918 0.0
H10048 H 0.94038 0.66739 0.64165 0.0
H10049 H 0.94235 0.65979 0.6334 0.0
H10050 H 0.96183 0.64934 0.62584 0.0
H10051 H 0.9525 0.65588 0.6253 0.0
H10052 H 0.9731 0.6687 0.66311 0.0
H10053 H 0.96291 0.67382 0.66347 0.0
H10054 H 0.97857 0.65661 0.6603 0.0
H10055 H 0.98109 0.65017 0.65121 0.0
C10056 C 0.60799 0.30749 0.61887 0.0
C10057 C 0.60681 0.3162 0.62188 0.0
C10058 C 0.6167 0.31329 0.63417 0.0
C10059 C 0.61906 0.30521 0.63026 0.0
N10060 N 0.6171 0.29446 0.61893 0.0
N10061 N 0.61032 0.32766 0.63217 0.0
C10062 C 0.61464 0.30219 0.62269 0.0
C10063 C 0.61111 0.31914 0.62957 0.0
N10064 N 0.60273 0.30433 0.61237 0.0
N10065 N 0.61987 0.31537 0.64227 0.0
H10066 H 0.60625 0.33216 0.62905 0.0
H10067 H 0.61414 0.33047 0.63706 0.0
H10068 H 0.62402 0.31122 0.64576 0.0
H10069 H 0.61777 0.32076 0.64586 0.0
H10070 H 0.60271 0.29782 0.61037 0.0
H10071 H 0.59781 0.30809 0.60951 0.0
H10072 H 0.6149 0.29235 0.61284 0.0
H10073 H 0.62174 0.29031 0.62173 0.0
C10074 C 0.96458 0.35835 0.86877 0.0
C10075 C 0.95601 0.35693 0.87203 0.0
C10076 C 0.95918 0.36642 0.88457 0.0
C10077 C 0.96707 0.36905 0.88047 0.0
N10078 N 0.97747 0.36764 0.86873 0.0
N10079 N 0.94489 0.3598 0.88287 0.0
C10080 C 0.96991 0.36493 0.87265 0.0
C10081 C 0.95328 0.36088 0.87999 0.0
N10082 N 0.96758 0.35338 0.86197 0.0
N10083 N 0.95734 0.3693 0.89284 0.0
H10084 H 0.94038 0.35573 0.87977 0.0
H10085 H 0.94219 0.36337 0.88801 0.0
H10086 H 0.96154 0.37341 0.89631 0.0
H10087 H 0.95211 0.367 0.89654 0.0
H10088 H 0.97401 0.35353 0.85974 0.0
H10089 H 0.96379 0.3485 0.85905 0.0
H10090 H 0.97941 0.36567 0.86251 0.0
H10091 H 0.98165 0.37223 0.87157 0.0
C10092 C 0.91457 0.70731 0.12994 0.0
C10093 C 0.91586 0.70779 0.12077 0.0
C10094 C 0.90624 0.72064 0.12008 0.0
C10095 C 0.90377 0.71915 0.12889 0.0
N10096 N 0.90539 0.71107 0.14234 0.0
N10097 N 0.91297 0.71479 0.10694 0.0
C10098 C 0.90801 0.71259 0.13392 0.0
C10099 C 0.91183 0.71453 0.11581 0.0
N10100 N 0.91964 0.70179 0.13481 0.0
N10101 N 0.90317 0.72788 0.11583 0.0
H10102 H 0.91718 0.71056 0.10362 0.0
H10103 H 0.90941 0.71885 0.1028 0.0
H10104 H 0.89905 0.73242 0.11885 0.0
H10105 H 0.90528 0.72981 0.10965 0.0
H10106 H 0.91962 0.70167 0.14162 0.0
H10107 H 0.92448 0.69784 0.13203 0.0
H10108 H 0.90742 0.7057 0.146 0.0
H10109 H 0.90078 0.71495 0.14554 0.0
C10110 C 0.57023 0.65933 0.37936 0.0
C10111 C 0.56713 0.66429 0.37214 0.0
C10112 C 0.55286 0.65697 0.37313 0.0
C10113 C 0.55595 0.65209 0.38039 0.0
N10114 N 0.56662 0.65018 0.39181 0.0
N10115 N 0.55503 0.66939 0.36345 0.0
C10116 C 0.56433 0.65381 0.38397 0.0
C10117 C 0.55826 0.66361 0.36946 0.0
N10118 N 0.5789 0.6595 0.38151 0.0
N10119 N 0.54494 0.65498 0.36949 0.0
H10120 H 0.55884 0.67433 0.36068 0.0
H10121 H 0.54844 0.6698 0.36179 0.0
H10122 H 0.54074 0.65029 0.37212 0.0
H10123 H 0.54275 0.65758 0.36359 0.0
H10124 H 0.58173 0.65524 0.38601 0.0
H10125 H 0.58346 0.66346 0.37835 0.0
H10126 H 0.57228 0.65185 0.39521 0.0
H10127 H 0.56244 0.64609 0.39534 0.0
C10128 C 0.90472 0.61148 0.71262 0.0
C10129 C 0.89959 0.60753 0.70596 0.0
C10130 C 0.88665 0.61561 0.71095 0.0
C10131 C 0.89185 0.61976 0.71744 0.0
N10132 N 0.90504 0.62016 0.72596 0.0
N10133 N 0.8854 0.604 0.70016 0.0
C10134 C 0.90063 0.61715 0.71879 0.0
C10135 C 0.89044 0.60898 0.70562 0.0
N10136 N 0.91357 0.61021 0.71274 0.0
N10137 N 0.87825 0.61835 0.70958 0.0
H10138 H 0.88805 0.59911 0.69618 0.0
H10139 H 0.8786 0.60414 0.70014 0.0
H10140 H 0.87518 0.623 0.71353 0.0
H10141 H 0.87446 0.61639 0.70428 0.0
H10142 H 0.91783 0.61371 0.71674 0.0
H10143 H 0.91677 0.60595 0.70847 0.0
H10144 H 0.91121 0.61793 0.7278 0.0
H10145 H 0.90217 0.62433 0.73054 0.0
C10146 C 0.66442 0.65418 0.96506 0.0
C10147 C 0.66579 0.65119 0.95638 0.0
C10148 C 0.65619 0.63865 0.95919 0.0
C10149 C 0.65364 0.64251 0.96722 0.0
N10150 N 0.65518 0.6539 0.97799 0.0
N10151 N 0.66271 0.64077 0.9449 0.0
C10152 C 0.65782 0.6502 0.97029 0.0
C10153 C 0.66173 0.64337 0.95341 0.0
N10154 N 0.66947 0.66083 0.96827 0.0
N10155 N 0.65324 0.63047 0.95708 0.0
H10156 H 0.66676 0.64399 0.94046 0.0
H10157 H 0.65907 0.63577 0.94206 0.0
H10158 H 0.64912 0.62688 0.96118 0.0
H10159 H 0.6555 0.62692 0.95172 0.0
H10160 H 0.66935 0.66286 0.97477 0.0
H10161 H 0.67436 0.66382 0.96456 0.0
H10162 H 0.65719 0.66005 0.98011 0.0
H10163 H 0.65057 0.65098 0.98209 0.0
C10164 C 0.61847 0.41473 0.21446 0.0
C10165 C 0.62176 0.41623 0.20591 0.0
C10166 C 0.63434 0.40677 0.2091 0.0
C10167 C 0.63021 0.40407 0.21695 0.0
N10168 N 0.61842 0.40537 0.22731 0.0
N10169 N 0.6327 0.41352 0.19485 0.0
C10170 C 0.62236 0.40813 0.21977 0.0
C10171 C 0.62976 0.41234 0.20321 0.0
N10172 N 0.61162 0.41964 0.21745 0.0
N10173 N 0.64262 0.40393 0.20728 0.0
H10174 H 0.62962 0.41763 0.19036 0.0
H10175 H 0.63788 0.41001 0.19215 0.0
H10176 H 0.64608 0.39979 0.21146 0.0
H10177 H 0.64634 0.40628 0.20208 0.0
H10178 H 0.60934 0.41943 0.22387 0.0
H10179 H 0.60869 0.42452 0.21367 0.0
H10180 H 0.61218 0.40729 0.22923 0.0
H10181 H 0.62128 0.40078 0.23148 0.0
C10182 C 0.86062 0.37992 0.45355 0.0
C10183 C 0.85648 0.3721 0.45638 0.0
C10184 C 0.86431 0.37288 0.47039 0.0
C10185 C 0.86859 0.38057 0.46745 0.0
N10186 N 0.86918 0.39272 0.45747 0.0
N10187 N 0.8526 0.36237 0.46812 0.0
C10188 C 0.86614 0.38454 0.45944 0.0
C10189 C 0.85773 0.36901 0.46504 0.0
N10190 N 0.85974 0.38263 0.44507 0.0
N10191 N 0.86684 0.36907 0.47807 0.0
H10192 H 0.84773 0.35946 0.46432 0.0
H10193 H 0.85262 0.36028 0.4746 0.0
H10194 H 0.87142 0.37192 0.48225 0.0
H10195 H 0.86474 0.36292 0.4801 0.0
H10196 H 0.86344 0.38764 0.44232 0.0
H10197 H 0.8557 0.3795 0.44056 0.0
H10198 H 0.86702 0.39635 0.45213 0.0
H10199 H 0.87328 0.39622 0.46166 0.0
C10200 C 0.89292 0.41207 0.81953 0.0
C10201 C 0.90065 0.41639 0.8167 0.0
C10202 C 0.89993 0.40871 0.80261 0.0
C10203 C 0.89231 0.40429 0.80551 0.0
N10204 N 0.88022 0.40342 0.81555 0.0
N10205 N 0.91027 0.42055 0.80496 0.0
C10206 C 0.88835 0.40658 0.81358 0.0
C10207 C 0.90373 0.41528 0.80801 0.0
N10208 N 0.89027 0.41276 0.82804 0.0
N10209 N 0.90375 0.40631 0.79489 0.0
H10210 H 0.91312 0.42543 0.8088 0.0
H10211 H 0.91233 0.42063 0.79847 0.0
H10212 H 0.90097 0.40173 0.79066 0.0
H10213 H 0.90987 0.40851 0.79287 0.0
H10214 H 0.88534 0.40892 0.83076 0.0
H10215 H 0.89338 0.41675 0.83261 0.0
H10216 H 0.87659 0.40548 0.82094 0.0
H10217 H 0.87674 0.39933 0.81132 0.0
C10218 C 0.85753 0.65417 0.05716 0.0
C10219 C 0.85628 0.651 0.06579 0.0
C10220 C 0.86589 0.63854 0.0626 0.0
C10221 C 0.86836 0.6426 0.05464 0.0
N10222 N 0.86663 0.65419 0.04413 0.0
N10223 N 0.85946 0.64031 0.07698 0.0
C10224 C 0.86409 0.65032 0.05177 0.0
C10225 C 0.86038 0.64312 0.06854 0.0
N10226 N 0.85242 0.66087 0.05416 0.0
N10227 N 0.86892 0.63034 0.06449 0.0
H10228 H 0.8554 0.6434 0.08151 0.0
H10229 H 0.86313 0.63525 0.07968 0.0
H10230 H 0.87301 0.62687 0.06026 0.0
H10231 H 0.86675 0.62666 0.06979 0.0
H10232 H 0.85244 0.66303 0.0477 0.0
H10233 H 0.84756 0.66376 0.05799 0.0
H10234 H 0.86455 0.66037 0.04216 0.0
H10235 H 0.8712 0.65137 0.03991 0.0
C10236 C 0.62843 0.61102 0.31954 0.0
C10237 C 0.62065 0.60689 0.31658 0.0
C10238 C 0.62168 0.61472 0.30259 0.0
C10239 C 0.62936 0.61893 0.30563 0.0
N10240 N 0.64135 0.61944 0.3158 0.0
N10241 N 0.61107 0.60306 0.3047 0.0
C10242 C 0.63318 0.61648 0.31371 0.0
C10243 C 0.61769 0.60816 0.30787 0.0
N10244 N 0.63098 0.61018 0.32807 0.0
N10245 N 0.61799 0.61728 0.29486 0.0
H10246 H 0.60807 0.59821 0.30844 0.0
H10247 H 0.60908 0.6031 0.29818 0.0
H10248 H 0.62092 0.62185 0.29072 0.0
H10249 H 0.61185 0.61524 0.29275 0.0
H10250 H 0.63595 0.61389 0.33089 0.0
H10251 H 0.62773 0.60622 0.33257 0.0
H10252 H 0.64488 0.61724 0.3212 0.0
H10253 H 0.64496 0.6235 0.31166 0.0
C10254 C 0.66442 0.3693 0.55743 0.0
C10255 C 0.66561 0.37227 0.56614 0.0
C10256 C 0.65572 0.38459 0.56328 0.0
C10257 C 0.65337 0.38071 0.5552 0.0
N10258 N 0.65532 0.36942 0.5444 0.0
N10259 N 0.66209 0.38253 0.57764 0.0
C10260 C 0.65778 0.37315 0.55214 0.0
C10261 C 0.6613 0.37996 0.56911 0.0
N10262 N 0.66968 0.3628 0.55424 0.0
N10263 N 0.65255 0.39269 0.56539 0.0
H10264 H 0.66615 0.37938 0.58212 0.0
H10265 H 0.65828 0.38742 0.58047 0.0
H10266 H 0.6484 0.3962 0.56126 0.0
H10267 H 0.65465 0.39626 0.5708 0.0
H10268 H 0.6697 0.36082 0.54773 0.0
H10269 H 0.6746 0.35991 0.55799 0.0
H10270 H 0.65752 0.36333 0.54227 0.0
H10271 H 0.65069 0.37224 0.54026 0.0
C10272 C 0.70343 0.89375 0.61058 0.0
C10273 C 0.70644 0.9014 0.60624 0.0
C10274 C 0.72048 0.9004 0.61399 0.0
C10275 C 0.71741 0.89284 0.61839 0.0
N10276 N 0.70712 0.88096 0.61924 0.0
N10277 N 0.71838 0.91077 0.60211 0.0
C10278 C 0.70926 0.88905 0.61609 0.0
C10279 C 0.71518 0.9043 0.60738 0.0
N10280 N 0.69486 0.89129 0.60989 0.0
N10281 N 0.72825 0.90408 0.61641 0.0
H10282 H 0.71463 0.9137 0.59721 0.0
H10283 H 0.72492 0.91269 0.60205 0.0
H10284 H 0.73239 0.90122 0.62102 0.0
H10285 H 0.7304 0.91016 0.61422 0.0
H10286 H 0.69204 0.88643 0.61374 0.0
H10287 H 0.69036 0.8945 0.60591 0.0
H10288 H 0.70166 0.87745 0.61716 0.0
H10289 H 0.71125 0.87739 0.62333 0.0
C10290 C 0.20579 0.63041 0.41441 0.0
C10291 C 0.20633 0.62124 0.41569 0.0
C10292 C 0.21901 0.62058 0.40585 0.0
C10293 C 0.21743 0.62938 0.40341 0.0
N10294 N 0.20936 0.64282 0.40519 0.0
N10295 N 0.21335 0.60742 0.4127 0.0
C10296 C 0.21093 0.6344 0.40776 0.0
C10297 C 0.21303 0.61629 0.41156 0.0
N10298 N 0.20032 0.63526 0.41957 0.0
N10299 N 0.2262 0.61635 0.40264 0.0
H10300 H 0.20923 0.60409 0.41699 0.0
H10301 H 0.21737 0.60329 0.40907 0.0
H10302 H 0.23064 0.61938 0.39843 0.0
H10303 H 0.22821 0.61018 0.40473 0.0
H10304 H 0.20016 0.64207 0.41954 0.0
H10305 H 0.19648 0.63246 0.42447 0.0
H10306 H 0.20402 0.64649 0.40731 0.0
H10307 H 0.21316 0.64604 0.40052 0.0
C10308 C 0.64298 0.95293 0.6621 0.0
C10309 C 0.65073 0.95595 0.66624 0.0
C10310 C 0.64966 0.9699 0.65834 0.0
C10311 C 0.64203 0.96679 0.65408 0.0
N10312 N 0.63009 0.95656 0.65356 0.0
N10313 N 0.66021 0.96791 0.67007 0.0
C10314 C 0.63823 0.95871 0.65657 0.0
C10315 C 0.65364 0.96467 0.66495 0.0
N10316 N 0.64046 0.94439 0.66299 0.0
N10317 N 0.65332 0.97764 0.65576 0.0
H10318 H 0.66319 0.9642 0.67497 0.0
H10319 H 0.66216 0.97444 0.67002 0.0
H10320 H 0.6504 0.98174 0.65115 0.0
H10321 H 0.65943 0.97979 0.65784 0.0
H10322 H 0.63552 0.94153 0.65928 0.0
H10323 H 0.6437 0.93995 0.66702 0.0
H10324 H 0.62658 0.95115 0.65576 0.0
H10325 H 0.62649 0.96066 0.64946 0.0
C10326 C 0.31883 0.39316 0.91202 0.0
C10327 C 0.31602 0.40102 0.91612 0.0
C10328 C 0.30206 0.40029 0.90822 0.0
C10329 C 0.30498 0.39257 0.90398 0.0
N10330 N 0.31491 0.38036 0.90346 0.0
N10331 N 0.30432 0.41085 0.9199 0.0
C10332 C 0.31296 0.38856 0.90647 0.0
C10333 C 0.30739 0.40416 0.91481 0.0
N10334 N 0.32729 0.3904 0.91297 0.0
N10335 N 0.2944 0.40413 0.90565 0.0
H10336 H 0.30811 0.41376 0.92478 0.0
H10337 H 0.29786 0.41299 0.91984 0.0
H10338 H 0.29023 0.40128 0.90106 0.0
H10339 H 0.29239 0.4103 0.90771 0.0
H10340 H 0.33004 0.38536 0.9093 0.0
H10341 H 0.33179 0.39351 0.91704 0.0
H10342 H 0.32022 0.37671 0.90566 0.0
H10343 H 0.31073 0.37688 0.89933 0.0
C10344 C 0.38124 0.57053 0.66145 0.0
C10345 C 0.37342 0.5679 0.66571 0.0
C10346 C 0.37383 0.5538 0.65801 0.0
C10347 C 0.3815 0.55655 0.65358 0.0
N10348 N 0.39381 0.56631 0.65269 0.0
N10349 N 0.36349 0.55641 0.66982 0.0
C10350 C 0.38566 0.56451 0.65589 0.0
C10351 C 0.37014 0.55929 0.66458 0.0
N10352 N 0.38415 0.57895 0.66228 0.0
N10353 N 0.36986 0.54615 0.65562 0.0
H10354 H 0.36071 0.56031 0.67469 0.0
H10355 H 0.36126 0.54997 0.66988 0.0
H10356 H 0.37257 0.54186 0.65105 0.0
H10357 H 0.3637 0.54425 0.65782 0.0
H10358 H 0.38917 0.58159 0.6585 0.0
H10359 H 0.38119 0.58354 0.66638 0.0
H10360 H 0.39757 0.5716 0.65474 0.0
H10361 H 0.39715 0.56203 0.64855 0.0
C10362 C 0.81595 0.13046 0.10887 0.0
C10363 C 0.81537 0.1213 0.10749 0.0
C10364 C 0.8027 0.1206 0.11732 0.0
C10365 C 0.80429 0.12937 0.11985 0.0
N10366 N 0.81239 0.1428 0.11821 0.0
N10367 N 0.8083 0.10749 0.1103 0.0
C10368 C 0.8108 0.13441 0.11555 0.0
C10369 C 0.80866 0.11634 0.11156 0.0
N10370 N 0.82145 0.13533 0.10377 0.0
N10371 N 0.79549 0.11636 0.12049 0.0
H10372 H 0.81241 0.10419 0.10596 0.0
H10373 H 0.80426 0.10333 0.11387 0.0
H10374 H 0.79106 0.11936 0.12473 0.0
H10375 H 0.79348 0.11022 0.11834 0.0
H10376 H 0.82163 0.14214 0.10387 0.0
H10377 H 0.82529 0.13257 0.09886 0.0
H10378 H 0.81774 0.14647 0.11612 0.0
H10379 H 0.80859 0.14599 0.12289 0.0
C10380 C 0.65593 0.05978 0.86145 0.0
C10381 C 0.65095 0.06647 0.85735 0.0
C10382 C 0.63781 0.06175 0.86523 0.0
C10383 C 0.64285 0.05525 0.86954 0.0
N10384 N 0.65592 0.04653 0.87026 0.0
N10385 N 0.63692 0.07244 0.85349 0.0
C10386 C 0.65166 0.05373 0.8671 0.0
C10387 C 0.64178 0.06696 0.85862 0.0
N10388 N 0.66479 0.05951 0.86032 0.0
N10389 N 0.62937 0.06326 0.8678 0.0
H10390 H 0.6397 0.07633 0.84862 0.0
H10391 H 0.63011 0.07256 0.85351 0.0
H10392 H 0.62617 0.0594 0.87243 0.0
H10393 H 0.62569 0.06859 0.8657 0.0
H10394 H 0.66894 0.05549 0.86392 0.0
H10395 H 0.66811 0.06369 0.85607 0.0
H10396 H 0.66209 0.04458 0.86817 0.0
H10397 H 0.65291 0.04205 0.87444 0.0
C10398 C 0.8801 0.95606 0.35822 0.0
C10399 C 0.87094 0.95666 0.35695 0.0
C10400 C 0.87043 0.96962 0.36642 0.0
C10401 C 0.87922 0.96804 0.36888 0.0
N10402 N 0.89257 0.95979 0.3673 0.0
N10403 N 0.85722 0.96394 0.35969 0.0
C10404 C 0.88416 0.96137 0.3647 0.0
C10405 C 0.86607 0.96353 0.36089 0.0
N10406 N 0.88488 0.95038 0.35323 0.0
N10407 N 0.86627 0.97694 0.36945 0.0
H10408 H 0.85387 0.95974 0.35547 0.0
H10409 H 0.85312 0.96811 0.36317 0.0
H10410 H 0.86936 0.98147 0.37353 0.0
H10411 H 0.86011 0.97894 0.36735 0.0
H10412 H 0.89168 0.95015 0.35324 0.0
H10413 H 0.88203 0.94639 0.34847 0.0
H10414 H 0.89617 0.95435 0.36533 0.0
H10415 H 0.89584 0.96369 0.37184 0.0
C10416 C 0.41225 0.31602 0.13046 0.0
C10417 C 0.41492 0.3155 0.12159 0.0
C10418 C 0.40535 0.30286 0.11924 0.0
C10419 C 0.40236 0.30363 0.12801 0.0
N10420 N 0.40444 0.30924 0.14255 0.0
N10421 N 0.41601 0.30718 0.10828 0.0
C10422 C 0.40636 0.30964 0.13383 0.0
C10423 C 0.41215 0.30845 0.11625 0.0
N10424 N 0.415 0.32287 0.13551 0.0
N10425 N 0.40129 0.29719 0.11364 0.0
H10426 H 0.42097 0.31124 0.10593 0.0
H10427 H 0.41488 0.30172 0.10437 0.0
H10428 H 0.39642 0.29285 0.11564 0.0
H10429 H 0.4024 0.29708 0.10692 0.0
H10430 H 0.41251 0.32426 0.1417 0.0
H10431 H 0.41955 0.32746 0.13333 0.0
H10432 H 0.40762 0.31293 0.1473 0.0
H10433 H 0.40014 0.3046 0.14512 0.0
C10434 C 0.45873 0.66398 0.87949 0.0
C10435 C 0.45765 0.66507 0.87034 0.0
C10436 C 0.46955 0.65462 0.86764 0.0
C10437 C 0.46958 0.65248 0.87666 0.0
N10438 N 0.46448 0.65505 0.89132 0.0
N10439 N 0.46179 0.66137 0.85556 0.0
C10440 C 0.46434 0.65724 0.88266 0.0
C10441 C 0.46312 0.66049 0.86437 0.0
N10442 N 0.45438 0.66942 0.8851 0.0
N10443 N 0.47562 0.65093 0.8622 0.0
H10444 H 0.45728 0.66572 0.85289 0.0
H10445 H 0.46477 0.65742 0.85088 0.0
H10446 H 0.4803 0.64646 0.86438 0.0
H10447 H 0.47654 0.65283 0.85573 0.0
H10448 H 0.45539 0.66952 0.89183 0.0
H10449 H 0.45023 0.67439 0.88291 0.0
H10450 H 0.46009 0.6575 0.89592 0.0
H10451 H 0.46882 0.65043 0.89387 0.0
C10452 C 0.10953 0.70672 0.63072 0.0
C10453 C 0.1069 0.70693 0.62183 0.0
C10454 C 0.11647 0.71951 0.61911 0.0
C10455 C 0.11941 0.71904 0.62791 0.0
N10456 N 0.11732 0.71389 0.64261 0.0
N10457 N 0.10591 0.71477 0.60822 0.0
C10458 C 0.11541 0.71321 0.6339 0.0
C10459 C 0.1097 0.7138 0.61626 0.0
N10460 N 0.10674 0.70005 0.63599 0.0
N10461 N 0.12053 0.72502 0.61335 0.0
H10462 H 0.101 0.71061 0.60596 0.0
H10463 H 0.10705 0.7201 0.60413 0.0
H10464 H 0.12536 0.72945 0.61523 0.0
H10465 H 0.11948 0.7249 0.60663 0.0
H10466 H 0.10919 0.69887 0.64223 0.0
H10467 H 0.10217 0.69541 0.63393 0.0
H10468 H 0.11414 0.71033 0.64747 0.0
H10469 H 0.12162 0.7186 0.64505 0.0
C10470 C 0.05969 0.36157 0.36579 0.0
C10471 C 0.06678 0.3592 0.37127 0.0
C10472 C 0.06062 0.36809 0.38315 0.0
C10473 C 0.05441 0.37157 0.3772 0.0
N10474 N 0.04819 0.37205 0.36269 0.0
N10475 N 0.07418 0.36003 0.38514 0.0
C10476 C 0.05388 0.36832 0.36851 0.0
C10477 C 0.06723 0.36231 0.38 0.0
N10478 N 0.05857 0.35739 0.35796 0.0
N10479 N 0.06014 0.37032 0.39179 0.0
H10480 H 0.07893 0.35555 0.38314 0.0
H10481 H 0.07549 0.36286 0.39119 0.0
H10482 H 0.05536 0.37454 0.39423 0.0
H10483 H 0.06397 0.36746 0.39665 0.0
H10484 H 0.05307 0.35819 0.35403 0.0
H10485 H 0.06279 0.3525 0.35576 0.0
H10486 H 0.04825 0.37073 0.35601 0.0
H10487 H 0.04375 0.37692 0.36442 0.0
C10488 C 0.41177 0.71403 0.40608 0.0
C10489 C 0.4145 0.70707 0.40059 0.0
C10490 C 0.40583 0.71314 0.38853 0.0
C10491 C 0.4019 0.71908 0.39448 0.0
N10492 N 0.40093 0.72526 0.40897 0.0
N10493 N 0.41447 0.69994 0.38654 0.0
C10494 C 0.40494 0.71968 0.40323 0.0
C10495 C 0.41175 0.7067 0.39173 0.0
N10496 N 0.41567 0.71515 0.41404 0.0
N10497 N 0.40383 0.71369 0.37983 0.0
H10498 H 0.41905 0.69532 0.38862 0.0
H10499 H 0.41193 0.69865 0.38036 0.0
H10500 H 0.39951 0.71837 0.37737 0.0
H10501 H 0.40696 0.71006 0.37499 0.0
H10502 H 0.41459 0.72055 0.41805 0.0
H10503 H 0.42064 0.71104 0.4163 0.0
H10504 H 0.40208 0.72523 0.41568 0.0
H10505 H 0.39604 0.72964 0.4071 0.0
C10506 C 0.06543 0.66269 0.14234 0.0
C10507 C 0.06488 0.66532 0.15123 0.0
C10508 C 0.05225 0.65571 0.15348 0.0
C10509 C 0.05304 0.65277 0.1447 0.0
N10510 N 0.05871 0.65491 0.13019 0.0
N10511 N 0.05653 0.6663 0.16453 0.0
C10512 C 0.05907 0.6568 0.13892 0.0
C10513 C 0.05782 0.66251 0.15653 0.0
N10514 N 0.07228 0.6655 0.13733 0.0
N10515 N 0.04656 0.65162 0.15904 0.0
H10516 H 0.06058 0.67124 0.16694 0.0
H10517 H 0.05106 0.66515 0.16841 0.0
H10518 H 0.04223 0.64676 0.157 0.0
H10519 H 0.04644 0.65268 0.16576 0.0
H10520 H 0.07369 0.66305 0.13113 0.0
H10521 H 0.07684 0.67006 0.13955 0.0
H10522 H 0.06243 0.65811 0.12547 0.0
H10523 H 0.05409 0.65061 0.12758 0.0
C10524 C 0.10978 0.30898 0.90635 0.0
C10525 C 0.10725 0.31606 0.90093 0.0
C10526 C 0.11607 0.31004 0.88894 0.0
C10527 C 0.11983 0.30398 0.89488 0.0
N10528 N 0.12043 0.29759 0.90929 0.0
N10529 N 0.10768 0.3234 0.887 0.0
C10530 C 0.1166 0.30329 0.90356 0.0
C10531 C 0.11018 0.31652 0.89213 0.0
N10532 N 0.10569 0.30779 0.91421 0.0
N10533 N 0.11823 0.30959 0.88028 0.0
H10534 H 0.10313 0.32806 0.88906 0.0
H10535 H 0.11037 0.32474 0.88089 0.0
H10536 H 0.12253 0.30488 0.87783 0.0
H10537 H 0.11523 0.31332 0.87544 0.0
H10538 H 0.10663 0.30231 0.91816 0.0
H10539 H 0.10071 0.31191 0.91642 0.0
H10540 H 0.11915 0.29754 0.91598 0.0
H10541 H 0.12531 0.29319 0.90745 0.0
C10542 C 0.45595 0.36003 0.64179 0.0
C10543 C 0.45627 0.35712 0.6506 0.0
C10544 C 0.46907 0.36635 0.65339 0.0
C10545 C 0.46853 0.36956 0.64469 0.0
N10546 N 0.4631 0.368 0.63002 0.0
N10547 N 0.46434 0.35552 0.66401 0.0
C10548 C 0.46252 0.36586 0.63868 0.0
C10549 C 0.46329 0.35959 0.65612 0.0
N10550 N 0.44914 0.35754 0.63657 0.0
N10551 N 0.47472 0.37015 0.6592 0.0
H10552 H 0.46013 0.3506 0.66618 0.0
H10553 H 0.46976 0.35641 0.66802 0.0
H10554 H 0.47918 0.37499 0.65742 0.0
H10555 H 0.47466 0.36888 0.66589 0.0
H10556 H 0.44791 0.36022 0.63043 0.0
H10557 H 0.44443 0.35302 0.63857 0.0
H10558 H 0.4594 0.36503 0.62513 0.0
H10559 H 0.46787 0.37226 0.62763 0.0
C10560 C 0.11971 0.41396 0.30777 0.0
C10561 C 0.12327 0.41543 0.31621 0.0
C10562 C 0.13567 0.40588 0.31263 0.0
C10563 C 0.13127 0.40319 0.30493 0.0
N10564 N 0.1192 0.40461 0.29492 0.0
N10565 N 0.13456 0.41273 0.3269 0.0
C10566 C 0.12338 0.40733 0.30234 0.0
C10567 C 0.13133 0.41151 0.31865 0.0
N10568 N 0.1128 0.41892 0.305 0.0
N10569 N 0.14397 0.40295 0.3142 0.0
H10570 H 0.13167 0.41691 0.33145 0.0
H10571 H 0.13981 0.40921 0.32945 0.0
H10572 H 0.14725 0.39876 0.30991 0.0
H10573 H 0.14788 0.40525 0.31928 0.0
H10574 H 0.11032 0.41873 0.29866 0.0
H10575 H 0.11003 0.42382 0.30887 0.0
H10576 H 0.11292 0.40658 0.29318 0.0
H10577 H 0.1219 0.4 0.29066 0.0
C10578 C 0.3584 0.38078 0.06439 0.0
C10579 C 0.35725 0.37166 0.06573 0.0
C10580 C 0.36755 0.36856 0.0538 0.0
C10581 C 0.36977 0.37756 0.05351 0.0
N10582 N 0.36738 0.39238 0.05827 0.0
N10583 N 0.36082 0.35674 0.06197 0.0
C10584 C 0.36511 0.38374 0.05864 0.0
C10585 C 0.36172 0.36551 0.06038 0.0
N10586 N 0.35305 0.38655 0.06864 0.0
N10587 N 0.37111 0.36293 0.04783 0.0
H10588 H 0.35651 0.35422 0.06661 0.0
H10589 H 0.36471 0.35196 0.05907 0.0
H10590 H 0.37554 0.36495 0.04304 0.0
H10591 H 0.36914 0.35645 0.0471 0.0
H10592 H 0.353 0.39325 0.06744 0.0
H10593 H 0.3481 0.38452 0.07288 0.0
H10594 H 0.36502 0.39711 0.06256 0.0
H10595 H 0.37198 0.39477 0.05383 0.0
C10596 C 0.4025 0.60894 0.80788 0.0
C10597 C 0.39884 0.60748 0.81629 0.0
C10598 C 0.38661 0.61722 0.81266 0.0
C10599 C 0.39112 0.61987 0.805 0.0
N10600 N 0.40324 0.61832 0.79507 0.0
N10601 N 0.38748 0.61027 0.82689 0.0
C10602 C 0.39896 0.61563 0.80245 0.0
C10603 C 0.39081 0.61149 0.81867 0.0
N10604 N 0.40938 0.60391 0.80516 0.0
N10605 N 0.37834 0.62026 0.81417 0.0
H10606 H 0.39028 0.60602 0.83143 0.0
H10607 H 0.38226 0.61384 0.82941 0.0
H10608 H 0.37515 0.62451 0.80988 0.0
H10609 H 0.37435 0.61799 0.8192 0.0
H10610 H 0.41192 0.60409 0.79884 0.0
H10611 H 0.41205 0.59896 0.80903 0.0
H10612 H 0.4095 0.61627 0.79338 0.0
H10613 H 0.40064 0.62298 0.79081 0.0
C10614 C 0.16208 0.65619 0.55902 0.0
C10615 C 0.16486 0.65071 0.56597 0.0
C10616 C 0.15632 0.63857 0.55987 0.0
C10617 C 0.15233 0.6445 0.55395 0.0
N10618 N 0.15125 0.65897 0.54777 0.0
N10619 N 0.16498 0.63665 0.57306 0.0
C10620 C 0.1553 0.65328 0.55336 0.0
C10621 C 0.1622 0.64183 0.56632 0.0
N10622 N 0.1659 0.6642 0.55793 0.0
N10623 N 0.1544 0.62986 0.55931 0.0
H10624 H 0.16954 0.63876 0.57767 0.0
H10625 H 0.16251 0.63043 0.57433 0.0
H10626 H 0.1501 0.62736 0.55463 0.0
H10627 H 0.15757 0.62504 0.56293 0.0
H10628 H 0.16477 0.66821 0.55255 0.0
H10629 H 0.17083 0.6665 0.56205 0.0
H10630 H 0.15233 0.6657 0.5478 0.0
H10631 H 0.14641 0.65705 0.54338 0.0
C10632 C 0.11953 0.60898 0.21482 0.0
C10633 C 0.12323 0.60769 0.20641 0.0
C10634 C 0.13532 0.61753 0.21022 0.0
C10635 C 0.13076 0.62001 0.21791 0.0
N10636 N 0.11863 0.61818 0.22777 0.0
N10637 N 0.13456 0.61081 0.19587 0.0
C10638 C 0.12296 0.61565 0.22037 0.0
C10639 C 0.13121 0.61185 0.2041 0.0
N10640 N 0.11272 0.60383 0.21746 0.0
N10641 N 0.14355 0.62069 0.20877 0.0
H10642 H 0.13183 0.60661 0.19125 0.0
H10643 H 0.13973 0.6145 0.19342 0.0
H10644 H 0.14668 0.62492 0.21313 0.0
H10645 H 0.14758 0.61854 0.20372 0.0
H10646 H 0.11017 0.60389 0.22377 0.0
H10647 H 0.11013 0.5989 0.21351 0.0
H10648 H 0.11239 0.61603 0.22941 0.0
H10649 H 0.12116 0.62281 0.23211 0.0
C10650 C 0.16274 0.38099 0.95775 0.0
C10651 C 0.1645 0.37187 0.95746 0.0
C10652 C 0.15453 0.36955 0.96982 0.0
C10653 C 0.15174 0.37831 0.96912 0.0
N10654 N 0.15311 0.39264 0.96278 0.0
N10655 N 0.16215 0.3573 0.96306 0.0
C10656 C 0.15592 0.38416 0.96326 0.0
C10657 C 0.16056 0.3661 0.9636 0.0
N10658 N 0.16763 0.38657 0.95276 0.0
N10659 N 0.1511 0.36471 0.97647 0.0
H10660 H 0.16664 0.3546 0.9587 0.0
H10661 H 0.15871 0.35259 0.96655 0.0
H10662 H 0.15295 0.35832 0.978 0.0
H10663 H 0.15295 0.35832 0.978 0.0
H10664 H 0.1672 0.39335 0.95314 0.0
H10665 H 0.17267 0.38438 0.94871 0.0
H10666 H 0.15512 0.39703 0.95799 0.0
H10667 H 0.14845 0.3952 0.96706 0.0
C10668 C 0.40743 0.41027 0.71194 0.0
C10669 C 0.40135 0.41514 0.70687 0.0
C10670 C 0.38914 0.4075 0.71397 0.0
C10671 C 0.39523 0.4025 0.71885 0.0
N10672 N 0.4099 0.40048 0.7242 0.0
N10673 N 0.38658 0.41995 0.70438 0.0
C10674 C 0.4043 0.40439 0.71843 0.0
C10675 C 0.39223 0.41427 0.70835 0.0
N10676 N 0.41618 0.41085 0.71017 0.0
N10677 N 0.38043 0.40552 0.71443 0.0
H10678 H 0.38871 0.42495 0.70024 0.0
H10679 H 0.37991 0.42021 0.70573 0.0
H10680 H 0.37796 0.40087 0.71878 0.0
H10681 H 0.37572 0.40816 0.7103 0.0
H10682 H 0.42086 0.40669 0.71285 0.0
H10683 H 0.41878 0.41517 0.70557 0.0
H10684 H 0.41645 0.4022 0.72484 0.0
H10685 H 0.40782 0.39601 0.72892 0.0
C10686 C 0.35945 0.65616 0.46317 0.0
C10687 C 0.35685 0.65069 0.45615 0.0
C10688 C 0.36559 0.63867 0.46221 0.0
C10689 C 0.36941 0.64462 0.46822 0.0
N10690 N 0.37017 0.65908 0.47449 0.0
N10691 N 0.35711 0.6367 0.44891 0.0
C10692 C 0.36626 0.65334 0.46885 0.0
C10693 C 0.3597 0.64186 0.45574 0.0
N10694 N 0.35544 0.66407 0.46432 0.0
N10695 N 0.36769 0.62999 0.4627 0.0
H10696 H 0.35255 0.63876 0.44427 0.0
H10697 H 0.35973 0.63055 0.44761 0.0
H10698 H 0.37199 0.62753 0.46741 0.0
H10699 H 0.36464 0.62514 0.45902 0.0
H10700 H 0.35644 0.66805 0.46976 0.0
H10701 H 0.35049 0.66631 0.46019 0.0
H10702 H 0.36894 0.66579 0.4745 0.0
H10703 H 0.37504 0.65724 0.47889 0.0
C10704 C 0.31534 0.12998 0.41259 0.0
C10705 C 0.31495 0.12109 0.41525 0.0
C10706 C 0.30234 0.11858 0.40568 0.0
C10707 C 0.30296 0.12737 0.40272 0.0
N10708 N 0.30839 0.14198 0.40478 0.0
N10709 N 0.30686 0.10764 0.41628 0.0
C10710 C 0.30891 0.13326 0.40671 0.0
C10711 C 0.30799 0.11565 0.41247 0.0
N10712 N 0.3221 0.13512 0.41537 0.0
N10713 N 0.29675 0.1129 0.40161 0.0
H10714 H 0.31096 0.10531 0.42121 0.0
H10715 H 0.30145 0.10366 0.41516 0.0
H10716 H 0.29238 0.11484 0.39675 0.0
H10717 H 0.29677 0.10618 0.40268 0.0
H10718 H 0.3234 0.14133 0.41291 0.0
H10719 H 0.3267 0.13299 0.41994 0.0
H10720 H 0.31203 0.14678 0.40795 0.0
H10721 H 0.30372 0.1445 0.40049 0.0
C10722 C 0.80846 0.40677 0.60969 0.0
C10723 C 0.81554 0.40134 0.60714 0.0
C10724 C 0.80953 0.38931 0.61588 0.0
C10725 C 0.80346 0.39523 0.61966 0.0
N10726 N 0.79707 0.40965 0.62036 0.0
N10727 N 0.82286 0.3874 0.60744 0.0
C10728 C 0.80277 0.40393 0.61649 0.0
C10729 C 0.816 0.39253 0.61001 0.0
N10730 N 0.80727 0.41466 0.60567 0.0
N10731 N 0.80909 0.38063 0.618 0.0
H10732 H 0.8275 0.38948 0.60288 0.0
H10733 H 0.82421 0.38127 0.61007 0.0
H10734 H 0.80439 0.37816 0.62229 0.0
H10735 H 0.81283 0.3758 0.61499 0.0
H10736 H 0.8018 0.4186 0.60662 0.0
H10737 H 0.81142 0.41692 0.60073 0.0
H10738 H 0.79702 0.41635 0.61912 0.0
H10739 H 0.79267 0.40779 0.62522 0.0
C10740 C 0.3702 0.05838 0.35855 0.0
C10741 C 0.37363 0.06691 0.35723 0.0
C10742 C 0.38583 0.06352 0.36709 0.0
C10743 C 0.38151 0.05572 0.36961 0.0
N10744 N 0.36968 0.04549 0.36783 0.0
N10745 N 0.3846 0.07782 0.36034 0.0
C10746 C 0.3738 0.05299 0.36525 0.0
C10747 C 0.38152 0.06949 0.36139 0.0
N10748 N 0.3635 0.0555 0.35339 0.0
N10749 N 0.39402 0.06524 0.37024 0.0
H10750 H 0.38172 0.08235 0.35614 0.0
H10751 H 0.38968 0.08045 0.36403 0.0
H10752 H 0.39728 0.06098 0.37447 0.0
H10753 H 0.39788 0.0704 0.36806 0.0
H10754 H 0.36115 0.04911 0.35348 0.0
H10755 H 0.36079 0.05934 0.34844 0.0
H10756 H 0.36349 0.04365 0.36568 0.0
H10757 H 0.37232 0.04126 0.3725 0.0
C10758 C 0.71269 0.61548 0.11239 0.0
C10759 C 0.70757 0.62152 0.10752 0.0
C10760 C 0.71464 0.63381 0.11508 0.0
C10761 C 0.71955 0.62775 0.12011 0.0
N10762 N 0.72498 0.61311 0.12216 0.0
N10763 N 0.70502 0.63627 0.10264 0.0
C10764 C 0.71918 0.61867 0.11824 0.0
C10765 C 0.70902 0.63066 0.10834 0.0
N10766 N 0.71098 0.60671 0.11182 0.0
N10767 N 0.71508 0.64253 0.11702 0.0
H10768 H 0.70088 0.6341 0.09767 0.0
H10769 H 0.70634 0.64294 0.10235 0.0
H10770 H 0.71942 0.64504 0.12165 0.0
H10771 H 0.71092 0.64722 0.11436 0.0
H10772 H 0.7137 0.60206 0.11598 0.0
H10773 H 0.70639 0.60408 0.10752 0.0
H10774 H 0.72565 0.60655 0.12047 0.0
H10775 H 0.72971 0.61525 0.1266 0.0
C10776 C 0.65613 0.46365 0.35959 0.0
C10777 C 0.65052 0.45674 0.357 0.0
C10778 C 0.63861 0.46312 0.36567 0.0
C10779 C 0.64467 0.46903 0.36946 0.0
N10780 N 0.65926 0.475 0.37023 0.0
N10781 N 0.63638 0.44984 0.35721 0.0
C10782 C 0.65341 0.46945 0.36634 0.0
C10783 C 0.64169 0.45655 0.35982 0.0
N10784 N 0.66409 0.46458 0.35562 0.0
N10785 N 0.62995 0.46382 0.36775 0.0
H10786 H 0.63836 0.44514 0.35266 0.0
H10787 H 0.63019 0.44868 0.3598 0.0
H10788 H 0.62758 0.4686 0.37202 0.0
H10789 H 0.62503 0.4602 0.36472 0.0
H10790 H 0.66817 0.46995 0.35659 0.0
H10791 H 0.66628 0.46035 0.35073 0.0
H10792 H 0.66596 0.47484 0.36905 0.0
H10793 H 0.65749 0.47948 0.37506 0.0
C10794 C 0.20926 0.89299 0.91398 0.0
C10795 C 0.20785 0.90212 0.91482 0.0
C10796 C 0.21936 0.90494 0.904 0.0
C10797 C 0.21968 0.89587 0.90211 0.0
N10798 N 0.21518 0.8811 0.90521 0.0
N10799 N 0.21128 0.91693 0.91054 0.0
C10800 C 0.2148 0.88982 0.90718 0.0
C10801 C 0.21295 0.90815 0.90992 0.0
N10802 N 0.2053 0.88738 0.9197 0.0
N10803 N 0.22516 0.91047 0.90003 0.0
H10804 H 0.20675 0.91957 0.9149 0.0
H10805 H 0.21398 0.92158 0.90637 0.0
H10806 H 0.22984 0.90831 0.89556 0.0
H10807 H 0.22587 0.91704 0.90171 0.0
H10808 H 0.2066 0.8807 0.91997 0.0
H10809 H 0.20121 0.88957 0.92472 0.0
H10810 H 0.21103 0.87643 0.90791 0.0
H10811 H 0.21946 0.87857 0.90053 0.0
C10812 C 0.38169 0.95354 0.16066 0.0
C10813 C 0.37374 0.95584 0.16488 0.0
C10814 C 0.37343 0.96984 0.15703 0.0
C10815 C 0.38118 0.96738 0.15257 0.0
N10816 N 0.39395 0.95823 0.15171 0.0
N10817 N 0.36327 0.96688 0.16891 0.0
C10818 C 0.38575 0.95968 0.15497 0.0
C10819 C 0.37004 0.96426 0.16368 0.0
N10820 N 0.38505 0.94531 0.16165 0.0
N10821 N 0.36909 0.97727 0.15458 0.0
H10822 H 0.36071 0.9629 0.17383 0.0
H10823 H 0.36072 0.9732 0.16891 0.0
H10824 H 0.37158 0.98163 0.14996 0.0
H10825 H 0.36287 0.97892 0.15681 0.0
H10826 H 0.3902 0.94286 0.15792 0.0
H10827 H 0.38237 0.94068 0.16588 0.0
H10828 H 0.398 0.95316 0.15379 0.0
H10829 H 0.39704 0.96261 0.14747 0.0
C10830 C 0.15236 0.05811 0.66413 0.0
C10831 C 0.14861 0.06653 0.66526 0.0
C10832 C 0.13675 0.06261 0.6552 0.0
C10833 C 0.14138 0.05491 0.65288 0.0
N10834 N 0.15349 0.04509 0.65507 0.0
N10835 N 0.13732 0.07701 0.66183 0.0
C10836 C 0.14908 0.0525 0.65745 0.0
C10837 C 0.14072 0.06879 0.66092 0.0
N10838 N 0.15905 0.05553 0.66947 0.0
N10839 N 0.12858 0.06401 0.65185 0.0
H10840 H 0.13994 0.08167 0.66606 0.0
H10841 H 0.13222 0.07943 0.65801 0.0
H10842 H 0.12556 0.05959 0.6476 0.0
H10843 H 0.12449 0.06907 0.65386 0.0
H10844 H 0.16162 0.04922 0.66953 0.0
H10845 H 0.16153 0.05954 0.67441 0.0
H10846 H 0.15969 0.04348 0.65738 0.0
H10847 H 0.1511 0.04071 0.65042 0.0
loop_
_geom_bond_atom_site_label_1
_geom_bond_atom_site_label_2
_geom_bond_distance
_geom_bond_site_symmetry_2
_ccdc_geom_bond_type
C0 C1 1.264 . S
C0 C5 1.479 . S
C0 C10 1.465 . S
C1 C0 1.264 . S
C1 C3 1.339 . S
C1 H28 0.931 . S
C2 C3 1.395 . S
C2 C4 1.320 . S
C3 C1 1.339 . S
C3 C2 1.395 . S
C3 H29 0.929 . S
C4 C2 1.320 . S
C4 C5 1.405 . S
C4 H30 0.930 . S
C5 C0 1.479 . S
C5 C4 1.405 . S
C5 H31 0.931 . S
U6 O7 2.454 . S
U6 O8 2.458 . S
U6 C9 2.984 . S
U6 C10 2.847 . S
U6 C23 2.882 . S
U6 O24 2.441 . S
U6 O25 2.420 . S
U6 O26 2.455 . S
U6 O27 2.449 . S
O7 U6 2.454 . S
O7 C9 1.353 . S
O8 U6 2.458 . S
O8 C9 1.286 . S
C9 U6 2.984 . S
C9 O7 1.353 . S
C9 O8 1.286 . S
C9 C11 1.363 . S
C10 C0 1.465 . S
C10 U6 2.847 . S
C10 O24 1.249 . S
C10 O25 1.202 . S
C11 C9 1.363 . S
C11 C13 1.408 . S
C11 C16 1.342 . S
C12 C13 1.310 . S
C12 C15 1.461 . S
C12 H32 0.932 . S
C13 C11 1.408 . S
C13 C12 1.310 . S
C13 H33 0.930 . S
C14 C15 1.474 . S
C14 C16 1.285 . S
C14 H34 0.929 . S
C15 C12 1.461 . S
C15 C14 1.474 . S
C16 C11 1.342 . S
C16 C14 1.285 . S
C16 H35 0.930 . S
C17 C20 1.424 . S
C17 C22 1.245 . S
C17 C23 1.428 . S
C18 C21 1.260 . S
C18 C22 1.477 . S
C18 H36 0.932 . S
C19 C20 1.384 . S
C19 C21 1.479 . S
C19 H37 0.929 . S
C20 C17 1.424 . S
C20 C19 1.384 . S
C20 H38 0.928 . S
C21 C18 1.260 . S
C21 C19 1.479 . S
C22 C17 1.245 . S
C22 C18 1.477 . S
C22 H39 0.932 . S
C23 U6 2.882 . S
C23 C17 1.428 . S
C23 O26 1.301 . S
C23 O27 1.282 . S
O24 U6 2.441 . S
O24 C10 1.249 . S
O25 U6 2.420 . S
O25 C10 1.202 . S
O26 U6 2.455 . S
O26 C23 1.301 . S
O27 U6 2.449 . S
O27 C23 1.282 . S
H28 C1 0.931 . S
H29 C3 0.929 . S
H30 C4 0.930 . S
H31 C5 0.931 . S
H32 C12 0.932 . S
H33 C13 0.930 . S
H34 C14 0.929 . S
H35 C16 0.930 . S
H36 C18 0.932 . S
H37 C19 0.929 . S
H38 C20 0.928 . S
H39 C22 0.932 . S
C40 C41 1.264 . S
C40 C45 1.479 . S
C40 C50 1.465 . S
C41 C40 1.264 . S
C41 C43 1.339 . S
C41 H68 0.931 . S
C42 C43 1.395 . S
C42 C44 1.320 . S
C43 C41 1.339 . S
C43 C42 1.395 . S
C43 H69 0.929 . S
C44 C42 1.320 . S
C44 C45 1.405 . S
C44 H70 0.930 . S
C45 C40 1.479 . S
C45 C44 1.405 . S
C45 H71 0.931 . S
U46 O47 2.454 . S
U46 O48 2.458 . S
U46 C49 2.984 . S
U46 C50 2.847 . S
U46 C63 2.882 . S
U46 O64 2.441 . S
U46 O65 2.420 . S
U46 O66 2.455 . S
U46 O67 2.449 . S
O47 U46 2.454 . S
O47 C49 1.353 . S
O48 U46 2.458 . S
O48 C49 1.286 . S
C49 U46 2.984 . S
C49 O47 1.353 . S
C49 O48 1.286 . S
C49 C51 1.363 . S
C50 C40 1.465 . S
C50 U46 2.847 . S
C50 O64 1.249 . S
C50 O65 1.202 . S
C51 C49 1.363 . S
C51 C53 1.408 . S
C51 C56 1.342 . S
C52 C53 1.310 . S
C52 C55 1.461 . S
C52 H72 0.932 . S
C53 C51 1.408 . S
C53 C52 1.310 . S
C53 H73 0.930 . S
C54 C55 1.474 . S
C54 C56 1.285 . S
C54 H74 0.929 . S
C55 C52 1.461 . S
C55 C54 1.474 . S
C56 C51 1.342 . S
C56 C54 1.285 . S
C56 H75 0.930 . S
C57 C60 1.424 . S
C57 C62 1.245 . S
C57 C63 1.428 . S
C58 C61 1.260 . S
C58 C62 1.477 . S
C58 H76 0.932 . S
C59 C60 1.384 . S
C59 C61 1.479 . S
C59 H77 0.929 . S
C60 C57 1.424 . S
C60 C59 1.384 . S
C60 H78 0.928 . S
C61 C58 1.260 . S
C61 C59 1.479 . S
C62 C57 1.245 . S
C62 C58 1.477 . S
C62 H79 0.932 . S
C63 U46 2.882 . S
C63 C57 1.428 . S
C63 O66 1.301 . S
C63 O67 1.282 . S
O64 U46 2.441 . S
O64 C50 1.249 . S
O65 U46 2.420 . S
O65 C50 1.202 . S
O66 U46 2.455 . S
O66 C63 1.301 . S
O67 U46 2.449 . S
O67 C63 1.282 . S
H68 C41 0.931 . S
H69 C43 0.929 . S
H70 C44 0.930 . S
H71 C45 0.931 . S
H72 C52 0.932 . S
H73 C53 0.930 . S
H74 C54 0.929 . S
H75 C56 0.930 . S
H76 C58 0.932 . S
H77 C59 0.929 . S
H78 C60 0.928 . S
H79 C62 0.932 . S
C80 C81 1.264 . S
C80 C85 1.479 . S
C80 C90 1.465 . S
C81 C80 1.264 . S
C81 C83 1.339 . S
C81 H108 0.931 . S
C82 C83 1.395 . S
C82 C84 1.320 . S
C83 C81 1.339 . S
C83 C82 1.395 . S
C83 H109 0.929 . S
C84 C82 1.320 . S
C84 C85 1.405 . S
C84 H110 0.930 . S
C85 C80 1.479 . S
C85 C84 1.405 . S
C85 H111 0.931 . S
U86 O87 2.454 . S
U86 O88 2.458 . S
U86 C89 2.984 . S
U86 C90 2.847 . S
U86 C103 2.882 . S
U86 O104 2.441 . S
U86 O105 2.420 . S
U86 O106 2.455 . S
U86 O107 2.449 . S
O87 U86 2.454 . S
O87 C89 1.353 . S
O88 U86 2.458 . S
O88 C89 1.286 . S
C89 U86 2.984 . S
C89 O87 1.353 . S
C89 O88 1.286 . S
C89 C91 1.363 . S
C90 C80 1.465 . S
C90 U86 2.847 . S
C90 O104 1.249 . S
C90 O105 1.202 . S
C91 C89 1.363 . S
C91 C93 1.408 . S
C91 C96 1.342 . S
C92 C93 1.310 . S
C92 C95 1.461 . S
C92 H112 0.932 . S
C93 C91 1.408 . S
C93 C92 1.310 . S
C93 H113 0.930 . S
C94 C95 1.474 . S
C94 C96 1.285 . S
C94 H114 0.929 . S
C95 C92 1.461 . S
C95 C94 1.474 . S
C96 C91 1.342 . S
C96 C94 1.285 . S
C96 H115 0.930 . S
C97 C100 1.424 . S
C97 C102 1.245 . S
C97 C103 1.428 . S
C98 C101 1.260 . S
C98 C102 1.477 . S
C98 H116 0.932 . S
C99 C100 1.384 . S
C99 C101 1.479 . S
C99 H117 0.929 . S
C100 C97 1.424 . S
C100 C99 1.384 . S
C100 H118 0.928 . S
C101 C98 1.260 . S
C101 C99 1.479 . S
C102 C97 1.245 . S
C102 C98 1.477 . S
C102 H119 0.932 . S
C103 U86 2.882 . S
C103 C97 1.428 . S
C103 O106 1.301 . S
C103 O107 1.282 . S
O104 U86 2.441 . S
O104 C90 1.249 . S
O105 U86 2.420 . S
O105 C90 1.202 . S
O106 U86 2.455 . S
O106 C103 1.301 . S
O107 U86 2.449 . S
O107 C103 1.282 . S
H108 C81 0.931 . S
H109 C83 0.929 . S
H110 C84 0.930 . S
H111 C85 0.931 . S
H112 C92 0.932 . S
H113 C93 0.930 . S
H114 C94 0.929 . S
H115 C96 0.930 . S
H116 C98 0.932 . S
H117 C99 0.929 . S
H118 C100 0.928 . S
H119 C102 0.932 . S
C120 C121 1.264 . S
C120 C125 1.479 . S
C120 C130 1.465 . S
C121 C120 1.264 . S
C121 C123 1.339 . S
C121 H148 0.931 . S
C122 C123 1.395 . S
C122 C124 1.320 . S
C123 C121 1.339 . S
C123 C122 1.395 . S
C123 H149 0.929 . S
C124 C122 1.320 . S
C124 C125 1.405 . S
C124 H150 0.930 . S
C125 C120 1.479 . S
C125 C124 1.405 . S
C125 H151 0.931 . S
U126 O127 2.454 . S
U126 O128 2.458 . S
U126 C129 2.984 . S
U126 C130 2.847 . S
U126 C143 2.882 . S
U126 O144 2.441 . S
U126 O145 2.420 . S
U126 O146 2.455 . S
U126 O147 2.449 . S
O127 U126 2.454 . S
O127 C129 1.353 . S
O128 U126 2.458 . S
O128 C129 1.286 . S
C129 U126 2.984 . S
C129 O127 1.353 . S
C129 O128 1.286 . S
C129 C131 1.363 . S
C130 C120 1.465 . S
C130 U126 2.847 . S
C130 O144 1.249 . S
C130 O145 1.202 . S
C131 C129 1.363 . S
C131 C133 1.408 . S
C131 C136 1.342 . S
C132 C133 1.310 . S
C132 C135 1.461 . S
C132 H152 0.932 . S
C133 C131 1.408 . S
C133 C132 1.310 . S
C133 H153 0.930 . S
C134 C135 1.474 . S
C134 C136 1.285 . S
C134 H154 0.929 . S
C135 C132 1.461 . S
C135 C134 1.474 . S
C136 C131 1.342 . S
C136 C134 1.285 . S
C136 H155 0.930 . S
C137 C140 1.424 . S
C137 C142 1.245 . S
C137 C143 1.428 . S
C138 C141 1.260 . S
C138 C142 1.477 . S
C138 H156 0.932 . S
C139 C140 1.384 . S
C139 C141 1.479 . S
C139 H157 0.929 . S
C140 C137 1.424 . S
C140 C139 1.384 . S
C140 H158 0.928 . S
C141 C138 1.260 . S
C141 C139 1.479 . S
C142 C137 1.245 . S
C142 C138 1.477 . S
C142 H159 0.932 . S
C143 U126 2.882 . S
C143 C137 1.428 . S
C143 O146 1.301 . S
C143 O147 1.282 . S
O144 U126 2.441 . S
O144 C130 1.249 . S
O145 U126 2.420 . S
O145 C130 1.202 . S
O146 U126 2.455 . S
O146 C143 1.301 . S
O147 U126 2.449 . S
O147 C143 1.282 . S
H148 C121 0.931 . S
H149 C123 0.929 . S
H150 C124 0.930 . S
H151 C125 0.931 . S
H152 C132 0.932 . S
H153 C133 0.930 . S
H154 C134 0.929 . S
H155 C136 0.930 . S
H156 C138 0.932 . S
H157 C139 0.929 . S
H158 C140 0.928 . S
H159 C142 0.932 . S
C160 C161 1.264 . S
C160 C165 1.479 . S
C160 C170 1.465 . S
C161 C160 1.264 . S
C161 C163 1.339 . S
C161 H188 0.931 . S
C162 C163 1.395 . S
C162 C164 1.320 . S
C163 C161 1.339 . S
C163 C162 1.395 . S
C163 H189 0.929 . S
C164 C162 1.320 . S
C164 C165 1.405 . S
C164 H190 0.930 . S
C165 C160 1.479 . S
C165 C164 1.405 . S
C165 H191 0.931 . S
U166 O167 2.454 . S
U166 O168 2.458 . S
U166 C169 2.984 . S
U166 C170 2.847 . S
U166 C183 2.882 . S
U166 O184 2.441 . S
U166 O185 2.420 . S
U166 O186 2.455 . S
U166 O187 2.449 . S
O167 U166 2.454 . S
O167 C169 1.353 . S
O168 U166 2.458 . S
O168 C169 1.286 . S
C169 U166 2.984 . S
C169 O167 1.353 . S
C169 O168 1.286 . S
C169 C171 1.363 . S
C170 C160 1.465 . S
C170 U166 2.847 . S
C170 O184 1.249 . S
C170 O185 1.202 . S
C171 C169 1.363 . S
C171 C173 1.408 . S
C171 C176 1.342 . S
C172 C173 1.310 . S
C172 C175 1.461 . S
C172 H192 0.932 . S
C173 C171 1.408 . S
C173 C172 1.310 . S
C173 H193 0.930 . S
C174 C175 1.474 . S
C174 C176 1.285 . S
C174 H194 0.929 . S
C175 C172 1.461 . S
C175 C174 1.474 . S
C176 C171 1.342 . S
C176 C174 1.285 . S
C176 H195 0.930 . S
C177 C180 1.424 . S
C177 C182 1.245 . S
C177 C183 1.428 . S
C178 C181 1.260 . S
C178 C182 1.477 . S
C178 H196 0.932 . S
C179 C180 1.384 . S
C179 C181 1.479 . S
C179 H197 0.929 . S
C180 C177 1.424 . S
C180 C179 1.384 . S
C180 H198 0.928 . S
C181 C178 1.260 . S
C181 C179 1.479 . S
C182 C177 1.245 . S
C182 C178 1.477 . S
C182 H199 0.932 . S
C183 U166 2.882 . S
C183 C177 1.428 . S
C183 O186 1.301 . S
C183 O187 1.282 . S
O184 U166 2.441 . S
O184 C170 1.249 . S
O185 U166 2.420 . S
O185 C170 1.202 . S
O186 U166 2.455 . S
O186 C183 1.301 . S
O187 U166 2.449 . S
O187 C183 1.282 . S
H188 C161 0.931 . S
H189 C163 0.929 . S
H190 C164 0.930 . S
H191 C165 0.931 . S
H192 C172 0.932 . S
H193 C173 0.930 . S
H194 C174 0.929 . S
H195 C176 0.930 . S
H196 C178 0.932 . S
H197 C179 0.929 . S
H198 C180 0.928 . S
H199 C182 0.932 . S
C200 C201 1.264 . S
C200 C205 1.479 . S
C200 C210 1.465 . S
C201 C200 1.264 . S
C201 C203 1.339 . S
C201 H228 0.931 . S
C202 C203 1.395 . S
C202 C204 1.320 . S
C203 C201 1.339 . S
C203 C202 1.395 . S
C203 H229 0.929 . S
C204 C202 1.320 . S
C204 C205 1.405 . S
C204 H230 0.930 . S
C205 C200 1.479 . S
C205 C204 1.405 . S
C205 H231 0.931 . S
U206 O207 2.454 . S
U206 O208 2.458 . S
U206 C209 2.984 . S
U206 C210 2.847 . S
U206 C223 2.882 . S
U206 O224 2.441 . S
U206 O225 2.420 . S
U206 O226 2.455 . S
U206 O227 2.449 . S
O207 U206 2.454 . S
O207 C209 1.353 . S
O208 U206 2.458 . S
O208 C209 1.286 . S
C209 U206 2.984 . S
C209 O207 1.353 . S
C209 O208 1.286 . S
C209 C211 1.363 . S
C210 C200 1.465 . S
C210 U206 2.847 . S
C210 O224 1.249 . S
C210 O225 1.202 . S
C211 C209 1.363 . S
C211 C213 1.408 . S
C211 C216 1.342 . S
C212 C213 1.310 . S
C212 C215 1.461 . S
C212 H232 0.932 . S
C213 C211 1.408 . S
C213 C212 1.310 . S
C213 H233 0.930 . S
C214 C215 1.474 . S
C214 C216 1.285 . S
C214 H234 0.929 . S
C215 C212 1.461 . S
C215 C214 1.474 . S
C216 C211 1.342 . S
C216 C214 1.285 . S
C216 H235 0.930 . S
C217 C220 1.424 . S
C217 C222 1.245 . S
C217 C223 1.428 . S
C218 C221 1.260 . S
C218 C222 1.477 . S
C218 H236 0.932 . S
C219 C220 1.384 . S
C219 C221 1.479 . S
C219 H237 0.929 . S
C220 C217 1.424 . S
C220 C219 1.384 . S
C220 H238 0.928 . S
C221 C218 1.260 . S
C221 C219 1.479 . S
C222 C217 1.245 . S
C222 C218 1.477 . S
C222 H239 0.932 . S
C223 U206 2.882 . S
C223 C217 1.428 . S
C223 O226 1.301 . S
C223 O227 1.282 . S
O224 U206 2.441 . S
O224 C210 1.249 . S
O225 U206 2.420 . S
O225 C210 1.202 . S
O226 U206 2.455 . S
O226 C223 1.301 . S
O227 U206 2.449 . S
O227 C223 1.282 . S
H228 C201 0.931 . S
H229 C203 0.929 . S
H230 C204 0.930 . S
H231 C205 0.931 . S
H232 C212 0.932 . S
H233 C213 0.930 . S
H234 C214 0.929 . S
H235 C216 0.930 . S
H236 C218 0.932 . S
H237 C219 0.929 . S
H238 C220 0.928 . S
H239 C222 0.932 . S
C240 C241 1.264 . S
C240 C245 1.479 . S
C240 C250 1.465 . S
C241 C240 1.264 . S
C241 C243 1.339 . S
C241 H268 0.931 . S
C242 C243 1.395 . S
C242 C244 1.320 . S
C243 C241 1.339 . S
C243 C242 1.395 . S
C243 H269 0.929 . S
C244 C242 1.320 . S
C244 C245 1.405 . S
C244 H270 0.930 . S
C245 C240 1.479 . S
C245 C244 1.405 . S
C245 H271 0.931 . S
U246 O247 2.454 . S
U246 O248 2.458 . S
U246 C249 2.984 . S
U246 C250 2.847 . S
U246 C263 2.882 . S
U246 O264 2.441 . S
U246 O265 2.420 . S
U246 O266 2.455 . S
U246 O267 2.449 . S
O247 U246 2.454 . S
O247 C249 1.353 . S
O248 U246 2.458 . S
O248 C249 1.286 . S
C249 U246 2.984 . S
C249 O247 1.353 . S
C249 O248 1.286 . S
C249 C251 1.363 . S
C250 C240 1.465 . S
C250 U246 2.847 . S
C250 O264 1.249 . S
C250 O265 1.202 . S
C251 C249 1.363 . S
C251 C253 1.408 . S
C251 C256 1.342 . S
C252 C253 1.310 . S
C252 C255 1.461 . S
C252 H272 0.932 . S
C253 C251 1.408 . S
C253 C252 1.310 . S
C253 H273 0.930 . S
C254 C255 1.474 . S
C254 C256 1.285 . S
C254 H274 0.929 . S
C255 C252 1.461 . S
C255 C254 1.474 . S
C256 C251 1.342 . S
C256 C254 1.285 . S
C256 H275 0.930 . S
C257 C260 1.424 . S
C257 C262 1.245 . S
C257 C263 1.428 . S
C258 C261 1.260 . S
C258 C262 1.477 . S
C258 H276 0.932 . S
C259 C260 1.384 . S
C259 C261 1.479 . S
C259 H277 0.929 . S
C260 C257 1.424 . S
C260 C259 1.384 . S
C260 H278 0.928 . S
C261 C258 1.260 . S
C261 C259 1.479 . S
C262 C257 1.245 . S
C262 C258 1.477 . S
C262 H279 0.932 . S
C263 U246 2.882 . S
C263 C257 1.428 . S
C263 O266 1.301 . S
C263 O267 1.282 . S
O264 U246 2.441 . S
O264 C250 1.249 . S
O265 U246 2.420 . S
O265 C250 1.202 . S
O266 U246 2.455 . S
O266 C263 1.301 . S
O267 U246 2.449 . S
O267 C263 1.282 . S
H268 C241 0.931 . S
H269 C243 0.929 . S
H270 C244 0.930 . S
H271 C245 0.931 . S
H272 C252 0.932 . S
H273 C253 0.930 . S
H274 C254 0.929 . S
H275 C256 0.930 . S
H276 C258 0.932 . S
H277 C259 0.929 . S
H278 C260 0.928 . S
H279 C262 0.932 . S
C280 C281 1.264 . S
C280 C285 1.479 . S
C280 C290 1.465 . S
C281 C280 1.264 . S
C281 C283 1.339 . S
C281 H308 0.931 . S
C282 C283 1.395 . S
C282 C284 1.320 . S
C283 C281 1.339 . S
C283 C282 1.395 . S
C283 H309 0.929 . S
C284 C282 1.320 . S
C284 C285 1.405 . S
C284 H310 0.930 . S
C285 C280 1.479 . S
C285 C284 1.405 . S
C285 H311 0.931 . S
U286 O287 2.454 . S
U286 O288 2.458 . S
U286 C289 2.984 . S
U286 C290 2.847 . S
U286 C303 2.882 . S
U286 O304 2.441 . S
U286 O305 2.420 . S
U286 O306 2.455 . S
U286 O307 2.449 . S
O287 U286 2.454 . S
O287 C289 1.353 . S
O288 U286 2.458 . S
O288 C289 1.286 . S
C289 U286 2.984 . S
C289 O287 1.353 . S
C289 O288 1.286 . S
C289 C291 1.363 . S
C290 C280 1.465 . S
C290 U286 2.847 . S
C290 O304 1.249 . S
C290 O305 1.202 . S
C291 C289 1.363 . S
C291 C293 1.408 . S
C291 C296 1.342 . S
C292 C293 1.310 . S
C292 C295 1.461 . S
C292 H312 0.932 . S
C293 C291 1.408 . S
C293 C292 1.310 . S
C293 H313 0.930 . S
C294 C295 1.474 . S
C294 C296 1.285 . S
C294 H314 0.929 . S
C295 C292 1.461 . S
C295 C294 1.474 . S
C296 C291 1.342 . S
C296 C294 1.285 . S
C296 H315 0.930 . S
C297 C300 1.424 . S
C297 C302 1.245 . S
C297 C303 1.428 . S
C298 C301 1.260 . S
C298 C302 1.477 . S
C298 H316 0.932 . S
C299 C300 1.384 . S
C299 C301 1.479 . S
C299 H317 0.929 . S
C300 C297 1.424 . S
C300 C299 1.384 . S
C300 H318 0.928 . S
C301 C298 1.260 . S
C301 C299 1.479 . S
C302 C297 1.245 . S
C302 C298 1.477 . S
C302 H319 0.932 . S
C303 U286 2.882 . S
C303 C297 1.428 . S
C303 O306 1.301 . S
C303 O307 1.282 . S
O304 U286 2.441 . S
O304 C290 1.249 . S
O305 U286 2.420 . S
O305 C290 1.202 . S
O306 U286 2.455 . S
O306 C303 1.301 . S
O307 U286 2.449 . S
O307 C303 1.282 . S
H308 C281 0.931 . S
H309 C283 0.929 . S
H310 C284 0.930 . S
H311 C285 0.931 . S
H312 C292 0.932 . S
H313 C293 0.930 . S
H314 C294 0.929 . S
H315 C296 0.930 . S
H316 C298 0.932 . S
H317 C299 0.929 . S
H318 C300 0.928 . S
H319 C302 0.932 . S
C320 C321 1.264 . S
C320 C325 1.479 . S
C320 C330 1.465 . S
C321 C320 1.264 . S
C321 C323 1.339 . S
C321 H348 0.931 . S
C322 C323 1.395 . S
C322 C324 1.320 . S
C323 C321 1.339 . S
C323 C322 1.395 . S
C323 H349 0.929 . S
C324 C322 1.320 . S
C324 C325 1.405 . S
C324 H350 0.930 . S
C325 C320 1.479 . S
C325 C324 1.405 . S
C325 H351 0.931 . S
U326 O327 2.454 . S
U326 O328 2.458 . S
U326 C329 2.984 . S
U326 C330 2.847 . S
U326 C343 2.882 . S
U326 O344 2.441 . S
U326 O345 2.420 . S
U326 O346 2.455 . S
U326 O347 2.449 . S
O327 U326 2.454 . S
O327 C329 1.353 . S
O328 U326 2.458 . S
O328 C329 1.286 . S
C329 U326 2.984 . S
C329 O327 1.353 . S
C329 O328 1.286 . S
C329 C331 1.363 . S
C330 C320 1.465 . S
C330 U326 2.847 . S
C330 O344 1.249 . S
C330 O345 1.202 . S
C331 C329 1.363 . S
C331 C333 1.408 . S
C331 C336 1.342 . S
C332 C333 1.310 . S
C332 C335 1.461 . S
C332 H352 0.932 . S
C333 C331 1.408 . S
C333 C332 1.310 . S
C333 H353 0.930 . S
C334 C335 1.474 . S
C334 C336 1.285 . S
C334 H354 0.929 . S
C335 C332 1.461 . S
C335 C334 1.474 . S
C336 C331 1.342 . S
C336 C334 1.285 . S
C336 H355 0.930 . S
C337 C340 1.424 . S
C337 C342 1.245 . S
C337 C343 1.428 . S
C338 C341 1.260 . S
C338 C342 1.477 . S
C338 H356 0.932 . S
C339 C340 1.384 . S
C339 C341 1.479 . S
C339 H357 0.929 . S
C340 C337 1.424 . S
C340 C339 1.384 . S
C340 H358 0.928 . S
C341 C338 1.260 . S
C341 C339 1.479 . S
C342 C337 1.245 . S
C342 C338 1.477 . S
C342 H359 0.932 . S
C343 U326 2.882 . S
C343 C337 1.428 . S
C343 O346 1.301 . S
C343 O347 1.282 . S
O344 U326 2.441 . S
O344 C330 1.249 . S
O345 U326 2.420 . S
O345 C330 1.202 . S
O346 U326 2.455 . S
O346 C343 1.301 . S
O347 U326 2.449 . S
O347 C343 1.282 . S
H348 C321 0.931 . S
H349 C323 0.929 . S
H350 C324 0.930 . S
H351 C325 0.931 . S
H352 C332 0.932 . S
H353 C333 0.930 . S
H354 C334 0.929 . S
H355 C336 0.930 . S
H356 C338 0.932 . S
H357 C339 0.929 . S
H358 C340 0.928 . S
H359 C342 0.932 . S
C360 C361 1.264 . S
C360 C365 1.479 . S
C360 C370 1.465 . S
C361 C360 1.264 . S
C361 C363 1.339 . S
C361 H388 0.931 . S
C362 C363 1.395 . S
C362 C364 1.320 . S
C363 C361 1.339 . S
C363 C362 1.395 . S
C363 H389 0.929 . S
C364 C362 1.320 . S
C364 C365 1.405 . S
C364 H390 0.930 . S
C365 C360 1.479 . S
C365 C364 1.405 . S
C365 H391 0.931 . S
U366 O367 2.454 . S
U366 O368 2.458 . S
U366 C369 2.984 . S
U366 C370 2.847 . S
U366 C383 2.882 . S
U366 O384 2.441 . S
U366 O385 2.420 . S
U366 O386 2.455 . S
U366 O387 2.449 . S
O367 U366 2.454 . S
O367 C369 1.353 . S
O368 U366 2.458 . S
O368 C369 1.286 . S
C369 U366 2.984 . S
C369 O367 1.353 . S
C369 O368 1.286 . S
C369 C371 1.363 . S
C370 C360 1.465 . S
C370 U366 2.847 . S
C370 O384 1.249 . S
C370 O385 1.202 . S
C371 C369 1.363 . S
C371 C373 1.408 . S
C371 C376 1.342 . S
C372 C373 1.310 . S
C372 C375 1.461 . S
C372 H392 0.932 . S
C373 C371 1.408 . S
C373 C372 1.310 . S
C373 H393 0.930 . S
C374 C375 1.474 . S
C374 C376 1.285 . S
C374 H394 0.929 . S
C375 C372 1.461 . S
C375 C374 1.474 . S
C376 C371 1.342 . S
C376 C374 1.285 . S
C376 H395 0.930 . S
C377 C380 1.424 . S
C377 C382 1.245 . S
C377 C383 1.428 . S
C378 C381 1.260 . S
C378 C382 1.477 . S
C378 H396 0.932 . S
C379 C380 1.384 . S
C379 C381 1.479 . S
C379 H397 0.929 . S
C380 C377 1.424 . S
C380 C379 1.384 . S
C380 H398 0.928 . S
C381 C378 1.260 . S
C381 C379 1.479 . S
C382 C377 1.245 . S
C382 C378 1.477 . S
C382 H399 0.932 . S
C383 U366 2.882 . S
C383 C377 1.428 . S
C383 O386 1.301 . S
C383 O387 1.282 . S
O384 U366 2.441 . S
O384 C370 1.249 . S
O385 U366 2.420 . S
O385 C370 1.202 . S
O386 U366 2.455 . S
O386 C383 1.301 . S
O387 U366 2.449 . S
O387 C383 1.282 . S
H388 C361 0.931 . S
H389 C363 0.929 . S
H390 C364 0.930 . S
H391 C365 0.931 . S
H392 C372 0.932 . S
H393 C373 0.930 . S
H394 C374 0.929 . S
H395 C376 0.930 . S
H396 C378 0.932 . S
H397 C379 0.929 . S
H398 C380 0.928 . S
H399 C382 0.932 . S
C400 C401 1.264 . S
C400 C405 1.479 . S
C400 C410 1.465 . S
C401 C400 1.264 . S
C401 C403 1.339 . S
C401 H428 0.931 . S
C402 C403 1.395 . S
C402 C404 1.320 . S
C403 C401 1.339 . S
C403 C402 1.395 . S
C403 H429 0.929 . S
C404 C402 1.320 . S
C404 C405 1.405 . S
C404 H430 0.930 . S
C405 C400 1.479 . S
C405 C404 1.405 . S
C405 H431 0.931 . S
U406 O407 2.454 . S
U406 O408 2.458 . S
U406 C409 2.984 . S
U406 C410 2.847 . S
U406 C423 2.882 . S
U406 O424 2.441 . S
U406 O425 2.420 . S
U406 O426 2.455 . S
U406 O427 2.449 . S
O407 U406 2.454 . S
O407 C409 1.353 . S
O408 U406 2.458 . S
O408 C409 1.286 . S
C409 U406 2.984 . S
C409 O407 1.353 . S
C409 O408 1.286 . S
C409 C411 1.363 . S
C410 C400 1.465 . S
C410 U406 2.847 . S
C410 O424 1.249 . S
C410 O425 1.202 . S
C411 C409 1.363 . S
C411 C413 1.408 . S
C411 C416 1.342 . S
C412 C413 1.310 . S
C412 C415 1.461 . S
C412 H432 0.932 . S
C413 C411 1.408 . S
C413 C412 1.310 . S
C413 H433 0.930 . S
C414 C415 1.474 . S
C414 C416 1.285 . S
C414 H434 0.929 . S
C415 C412 1.461 . S
C415 C414 1.474 . S
C416 C411 1.342 . S
C416 C414 1.285 . S
C416 H435 0.930 . S
C417 C420 1.424 . S
C417 C422 1.245 . S
C417 C423 1.428 . S
C418 C421 1.260 . S
C418 C422 1.477 . S
C418 H436 0.932 . S
C419 C420 1.384 . S
C419 C421 1.479 . S
C419 H437 0.929 . S
C420 C417 1.424 . S
C420 C419 1.384 . S
C420 H438 0.928 . S
C421 C418 1.260 . S
C421 C419 1.479 . S
C422 C417 1.245 . S
C422 C418 1.477 . S
C422 H439 0.932 . S
C423 U406 2.882 . S
C423 C417 1.428 . S
C423 O426 1.301 . S
C423 O427 1.282 . S
O424 U406 2.441 . S
O424 C410 1.249 . S
O425 U406 2.420 . S
O425 C410 1.202 . S
O426 U406 2.455 . S
O426 C423 1.301 . S
O427 U406 2.449 . S
O427 C423 1.282 . S
H428 C401 0.931 . S
H429 C403 0.929 . S
H430 C404 0.930 . S
H431 C405 0.931 . S
H432 C412 0.932 . S
H433 C413 0.930 . S
H434 C414 0.929 . S
H435 C416 0.930 . S
H436 C418 0.932 . S
H437 C419 0.929 . S
H438 C420 0.928 . S
H439 C422 0.932 . S
C440 C441 1.264 . S
C440 C445 1.479 . S
C440 C450 1.465 . S
C441 C440 1.264 . S
C441 C443 1.339 . S
C441 H468 0.931 . S
C442 C443 1.395 . S
C442 C444 1.320 . S
C443 C441 1.339 . S
C443 C442 1.395 . S
C443 H469 0.929 . S
C444 C442 1.320 . S
C444 C445 1.405 . S
C444 H470 0.930 . S
C445 C440 1.479 . S
C445 C444 1.405 . S
C445 H471 0.931 . S
U446 O447 2.454 . S
U446 O448 2.458 . S
U446 C449 2.984 . S
U446 C450 2.847 . S
U446 C463 2.882 . S
U446 O464 2.441 . S
U446 O465 2.420 . S
U446 O466 2.455 . S
U446 O467 2.449 . S
O447 U446 2.454 . S
O447 C449 1.353 . S
O448 U446 2.458 . S
O448 C449 1.286 . S
C449 U446 2.984 . S
C449 O447 1.353 . S
C449 O448 1.286 . S
C449 C451 1.363 . S
C450 C440 1.465 . S
C450 U446 2.847 . S
C450 O464 1.249 . S
C450 O465 1.202 . S
C451 C449 1.363 . S
C451 C453 1.408 . S
C451 C456 1.342 . S
C452 C453 1.310 . S
C452 C455 1.461 . S
C452 H472 0.932 . S
C453 C451 1.408 . S
C453 C452 1.310 . S
C453 H473 0.930 . S
C454 C455 1.474 . S
C454 C456 1.285 . S
C454 H474 0.929 . S
C455 C452 1.461 . S
C455 C454 1.474 . S
C456 C451 1.342 . S
C456 C454 1.285 . S
C456 H475 0.930 . S
C457 C460 1.424 . S
C457 C462 1.245 . S
C457 C463 1.428 . S
C458 C461 1.260 . S
C458 C462 1.477 . S
C458 H476 0.932 . S
C459 C460 1.384 . S
C459 C461 1.479 . S
C459 H477 0.929 . S
C460 C457 1.424 . S
C460 C459 1.384 . S
C460 H478 0.928 . S
C461 C458 1.260 . S
C461 C459 1.479 . S
C462 C457 1.245 . S
C462 C458 1.477 . S
C462 H479 0.932 . S
C463 U446 2.882 . S
C463 C457 1.428 . S
C463 O466 1.301 . S
C463 O467 1.282 . S
O464 U446 2.441 . S
O464 C450 1.249 . S
O465 U446 2.420 . S
O465 C450 1.202 . S
O466 U446 2.455 . S
O466 C463 1.301 . S
O467 U446 2.449 . S
O467 C463 1.282 . S
H468 C441 0.931 . S
H469 C443 0.929 . S
H470 C444 0.930 . S
H471 C445 0.931 . S
H472 C452 0.932 . S
H473 C453 0.930 . S
H474 C454 0.929 . S
H475 C456 0.930 . S
H476 C458 0.932 . S
H477 C459 0.929 . S
H478 C460 0.928 . S
H479 C462 0.932 . S
C480 C481 1.264 . S
C480 C485 1.479 . S
C480 C490 1.465 . S
C481 C480 1.264 . S
C481 C483 1.339 . S
C481 H508 0.931 . S
C482 C483 1.395 . S
C482 C484 1.320 . S
C483 C481 1.339 . S
C483 C482 1.395 . S
C483 H509 0.929 . S
C484 C482 1.320 . S
C484 C485 1.405 . S
C484 H510 0.930 . S
C485 C480 1.479 . S
C485 C484 1.405 . S
C485 H511 0.931 . S
U486 O487 2.454 . S
U486 O488 2.458 . S
U486 C489 2.984 . S
U486 C490 2.847 . S
U486 C503 2.882 . S
U486 O504 2.441 . S
U486 O505 2.420 . S
U486 O506 2.455 . S
U486 O507 2.449 . S
O487 U486 2.454 . S
O487 C489 1.353 . S
O488 U486 2.458 . S
O488 C489 1.286 . S
C489 U486 2.984 . S
C489 O487 1.353 . S
C489 O488 1.286 . S
C489 C491 1.363 . S
C490 C480 1.465 . S
C490 U486 2.847 . S
C490 O504 1.249 . S
C490 O505 1.202 . S
C491 C489 1.363 . S
C491 C493 1.408 . S
C491 C496 1.342 . S
C492 C493 1.310 . S
C492 C495 1.461 . S
C492 H512 0.932 . S
C493 C491 1.408 . S
C493 C492 1.310 . S
C493 H513 0.930 . S
C494 C495 1.474 . S
C494 C496 1.285 . S
C494 H514 0.929 . S
C495 C492 1.461 . S
C495 C494 1.474 . S
C496 C491 1.342 . S
C496 C494 1.285 . S
C496 H515 0.930 . S
C497 C500 1.424 . S
C497 C502 1.245 . S
C497 C503 1.428 . S
C498 C501 1.260 . S
C498 C502 1.477 . S
C498 H516 0.932 . S
C499 C500 1.384 . S
C499 C501 1.479 . S
C499 H517 0.929 . S
C500 C497 1.424 . S
C500 C499 1.384 . S
C500 H518 0.928 . S
C501 C498 1.260 . S
C501 C499 1.479 . S
C502 C497 1.245 . S
C502 C498 1.477 . S
C502 H519 0.932 . S
C503 U486 2.882 . S
C503 C497 1.428 . S
C503 O506 1.301 . S
C503 O507 1.282 . S
O504 U486 2.441 . S
O504 C490 1.249 . S
O505 U486 2.420 . S
O505 C490 1.202 . S
O506 U486 2.455 . S
O506 C503 1.301 . S
O507 U486 2.449 . S
O507 C503 1.282 . S
H508 C481 0.931 . S
H509 C483 0.929 . S
H510 C484 0.930 . S
H511 C485 0.931 . S
H512 C492 0.932 . S
H513 C493 0.930 . S
H514 C494 0.929 . S
H515 C496 0.930 . S
H516 C498 0.932 . S
H517 C499 0.929 . S
H518 C500 0.928 . S
H519 C502 0.932 . S
C520 C521 1.264 . S
C520 C525 1.479 . S
C520 C530 1.465 . S
C521 C520 1.264 . S
C521 C523 1.339 . S
C521 H548 0.931 . S
C522 C523 1.395 . S
C522 C524 1.320 . S
C523 C521 1.339 . S
C523 C522 1.395 . S
C523 H549 0.929 . S
C524 C522 1.320 . S
C524 C525 1.405 . S
C524 H550 0.930 . S
C525 C520 1.479 . S
C525 C524 1.405 . S
C525 H551 0.931 . S
U526 O527 2.454 . S
U526 O528 2.458 . S
U526 C529 2.984 . S
U526 C530 2.847 . S
U526 C543 2.882 . S
U526 O544 2.441 . S
U526 O545 2.420 . S
U526 O546 2.455 . S
U526 O547 2.449 . S
O527 U526 2.454 . S
O527 C529 1.353 . S
O528 U526 2.458 . S
O528 C529 1.286 . S
C529 U526 2.984 . S
C529 O527 1.353 . S
C529 O528 1.286 . S
C529 C531 1.363 . S
C530 C520 1.465 . S
C530 U526 2.847 . S
C530 O544 1.249 . S
C530 O545 1.202 . S
C531 C529 1.363 . S
C531 C533 1.408 . S
C531 C536 1.342 . S
C532 C533 1.310 . S
C532 C535 1.461 . S
C532 H552 0.932 . S
C533 C531 1.408 . S
C533 C532 1.310 . S
C533 H553 0.930 . S
C534 C535 1.474 . S
C534 C536 1.285 . S
C534 H554 0.929 . S
C535 C532 1.461 . S
C535 C534 1.474 . S
C536 C531 1.342 . S
C536 C534 1.285 . S
C536 H555 0.930 . S
C537 C540 1.424 . S
C537 C542 1.245 . S
C537 C543 1.428 . S
C538 C541 1.260 . S
C538 C542 1.477 . S
C538 H556 0.932 . S
C539 C540 1.384 . S
C539 C541 1.479 . S
C539 H557 0.929 . S
C540 C537 1.424 . S
C540 C539 1.384 . S
C540 H558 0.928 . S
C541 C538 1.260 . S
C541 C539 1.479 . S
C542 C537 1.245 . S
C542 C538 1.477 . S
C542 H559 0.932 . S
C543 U526 2.882 . S
C543 C537 1.428 . S
C543 O546 1.301 . S
C543 O547 1.282 . S
O544 U526 2.441 . S
O544 C530 1.249 . S
O545 U526 2.420 . S
O545 C530 1.202 . S
O546 U526 2.455 . S
O546 C543 1.301 . S
O547 U526 2.449 . S
O547 C543 1.282 . S
H548 C521 0.931 . S
H549 C523 0.929 . S
H550 C524 0.930 . S
H551 C525 0.931 . S
H552 C532 0.932 . S
H553 C533 0.930 . S
H554 C534 0.929 . S
H555 C536 0.930 . S
H556 C538 0.932 . S
H557 C539 0.929 . S
H558 C540 0.928 . S
H559 C542 0.932 . S
C560 C561 1.264 . S
C560 C565 1.479 . S
C560 C570 1.465 . S
C561 C560 1.264 . S
C561 C563 1.339 . S
C561 H588 0.931 . S
C562 C563 1.395 . S
C562 C564 1.320 . S
C563 C561 1.339 . S
C563 C562 1.395 . S
C563 H589 0.929 . S
C564 C562 1.320 . S
C564 C565 1.405 . S
C564 H590 0.930 . S
C565 C560 1.479 . S
C565 C564 1.405 . S
C565 H591 0.931 . S
U566 O567 2.454 . S
U566 O568 2.458 . S
U566 C569 2.984 . S
U566 C570 2.847 . S
U566 C583 2.882 . S
U566 O584 2.441 . S
U566 O585 2.420 . S
U566 O586 2.455 . S
U566 O587 2.449 . S
O567 U566 2.454 . S
O567 C569 1.353 . S
O568 U566 2.458 . S
O568 C569 1.286 . S
C569 U566 2.984 . S
C569 O567 1.353 . S
C569 O568 1.286 . S
C569 C571 1.363 . S
C570 C560 1.465 . S
C570 U566 2.847 . S
C570 O584 1.249 . S
C570 O585 1.202 . S
C571 C569 1.363 . S
C571 C573 1.408 . S
C571 C576 1.342 . S
C572 C573 1.310 . S
C572 C575 1.461 . S
C572 H592 0.932 . S
C573 C571 1.408 . S
C573 C572 1.310 . S
C573 H593 0.930 . S
C574 C575 1.474 . S
C574 C576 1.285 . S
C574 H594 0.929 . S
C575 C572 1.461 . S
C575 C574 1.474 . S
C576 C571 1.342 . S
C576 C574 1.285 . S
C576 H595 0.930 . S
C577 C580 1.424 . S
C577 C582 1.245 . S
C577 C583 1.428 . S
C578 C581 1.260 . S
C578 C582 1.477 . S
C578 H596 0.932 . S
C579 C580 1.384 . S
C579 C581 1.479 . S
C579 H597 0.929 . S
C580 C577 1.424 . S
C580 C579 1.384 . S
C580 H598 0.928 . S
C581 C578 1.260 . S
C581 C579 1.479 . S
C582 C577 1.245 . S
C582 C578 1.477 . S
C582 H599 0.932 . S
C583 U566 2.882 . S
C583 C577 1.428 . S
C583 O586 1.301 . S
C583 O587 1.282 . S
O584 U566 2.441 . S
O584 C570 1.249 . S
O585 U566 2.420 . S
O585 C570 1.202 . S
O586 U566 2.455 . S
O586 C583 1.301 . S
O587 U566 2.449 . S
O587 C583 1.282 . S
H588 C561 0.931 . S
H589 C563 0.929 . S
H590 C564 0.930 . S
H591 C565 0.931 . S
H592 C572 0.932 . S
H593 C573 0.930 . S
H594 C574 0.929 . S
H595 C576 0.930 . S
H596 C578 0.932 . S
H597 C579 0.929 . S
H598 C580 0.928 . S
H599 C582 0.932 . S
C600 C601 1.264 . S
C600 C605 1.479 . S
C600 C610 1.465 . S
C601 C600 1.264 . S
C601 C603 1.339 . S
C601 H628 0.931 . S
C602 C603 1.395 . S
C602 C604 1.320 . S
C603 C601 1.339 . S
C603 C602 1.395 . S
C603 H629 0.929 . S
C604 C602 1.320 . S
C604 C605 1.405 . S
C604 H630 0.930 . S
C605 C600 1.479 . S
C605 C604 1.405 . S
C605 H631 0.931 . S
U606 O607 2.454 . S
U606 O608 2.458 . S
U606 C609 2.984 . S
U606 C610 2.847 . S
U606 C623 2.882 . S
U606 O624 2.441 . S
U606 O625 2.420 . S
U606 O626 2.455 . S
U606 O627 2.449 . S
O607 U606 2.454 . S
O607 C609 1.353 . S
O608 U606 2.458 . S
O608 C609 1.286 . S
C609 U606 2.984 . S
C609 O607 1.353 . S
C609 O608 1.286 . S
C609 C611 1.363 . S
C610 C600 1.465 . S
C610 U606 2.847 . S
C610 O624 1.249 . S
C610 O625 1.202 . S
C611 C609 1.363 . S
C611 C613 1.408 . S
C611 C616 1.342 . S
C612 C613 1.310 . S
C612 C615 1.461 . S
C612 H632 0.932 . S
C613 C611 1.408 . S
C613 C612 1.310 . S
C613 H633 0.930 . S
C614 C615 1.474 . S
C614 C616 1.285 . S
C614 H634 0.929 . S
C615 C612 1.461 . S
C615 C614 1.474 . S
C616 C611 1.342 . S
C616 C614 1.285 . S
C616 H635 0.930 . S
C617 C620 1.424 . S
C617 C622 1.245 . S
C617 C623 1.428 . S
C618 C621 1.260 . S
C618 C622 1.477 . S
C618 H636 0.932 . S
C619 C620 1.384 . S
C619 C621 1.479 . S
C619 H637 0.929 . S
C620 C617 1.424 . S
C620 C619 1.384 . S
C620 H638 0.928 . S
C621 C618 1.260 . S
C621 C619 1.479 . S
C622 C617 1.245 . S
C622 C618 1.477 . S
C622 H639 0.932 . S
C623 U606 2.882 . S
C623 C617 1.428 . S
C623 O626 1.301 . S
C623 O627 1.282 . S
O624 U606 2.441 . S
O624 C610 1.249 . S
O625 U606 2.420 . S
O625 C610 1.202 . S
O626 U606 2.455 . S
O626 C623 1.301 . S
O627 U606 2.449 . S
O627 C623 1.282 . S
H628 C601 0.931 . S
H629 C603 0.929 . S
H630 C604 0.930 . S
H631 C605 0.931 . S
H632 C612 0.932 . S
H633 C613 0.930 . S
H634 C614 0.929 . S
H635 C616 0.930 . S
H636 C618 0.932 . S
H637 C619 0.929 . S
H638 C620 0.928 . S
H639 C622 0.932 . S
C640 C641 1.264 . S
C640 C645 1.479 . S
C640 C650 1.465 . S
C641 C640 1.264 . S
C641 C643 1.339 . S
C641 H668 0.931 . S
C642 C643 1.395 . S
C642 C644 1.320 . S
C643 C641 1.339 . S
C643 C642 1.395 . S
C643 H669 0.929 . S
C644 C642 1.320 . S
C644 C645 1.405 . S
C644 H670 0.930 . S
C645 C640 1.479 . S
C645 C644 1.405 . S
C645 H671 0.931 . S
U646 O647 2.454 . S
U646 O648 2.458 . S
U646 C649 2.984 . S
U646 C650 2.847 . S
U646 C663 2.882 . S
U646 O664 2.441 . S
U646 O665 2.420 . S
U646 O666 2.455 . S
U646 O667 2.449 . S
O647 U646 2.454 . S
O647 C649 1.353 . S
O648 U646 2.458 . S
O648 C649 1.286 . S
C649 U646 2.984 . S
C649 O647 1.353 . S
C649 O648 1.286 . S
C649 C651 1.363 . S
C650 C640 1.465 . S
C650 U646 2.847 . S
C650 O664 1.249 . S
C650 O665 1.202 . S
C651 C649 1.363 . S
C651 C653 1.408 . S
C651 C656 1.342 . S
C652 C653 1.310 . S
C652 C655 1.461 . S
C652 H672 0.932 . S
C653 C651 1.408 . S
C653 C652 1.310 . S
C653 H673 0.930 . S
C654 C655 1.474 . S
C654 C656 1.285 . S
C654 H674 0.929 . S
C655 C652 1.461 . S
C655 C654 1.474 . S
C656 C651 1.342 . S
C656 C654 1.285 . S
C656 H675 0.930 . S
C657 C660 1.424 . S
C657 C662 1.245 . S
C657 C663 1.428 . S
C658 C661 1.260 . S
C658 C662 1.477 . S
C658 H676 0.932 . S
C659 C660 1.384 . S
C659 C661 1.479 . S
C659 H677 0.929 . S
C660 C657 1.424 . S
C660 C659 1.384 . S
C660 H678 0.928 . S
C661 C658 1.260 . S
C661 C659 1.479 . S
C662 C657 1.245 . S
C662 C658 1.477 . S
C662 H679 0.932 . S
C663 U646 2.882 . S
C663 C657 1.428 . S
C663 O666 1.301 . S
C663 O667 1.282 . S
O664 U646 2.441 . S
O664 C650 1.249 . S
O665 U646 2.420 . S
O665 C650 1.202 . S
O666 U646 2.455 . S
O666 C663 1.301 . S
O667 U646 2.449 . S
O667 C663 1.282 . S
H668 C641 0.931 . S
H669 C643 0.929 . S
H670 C644 0.930 . S
H671 C645 0.931 . S
H672 C652 0.932 . S
H673 C653 0.930 . S
H674 C654 0.929 . S
H675 C656 0.930 . S
H676 C658 0.932 . S
H677 C659 0.929 . S
H678 C660 0.928 . S
H679 C662 0.932 . S
C680 C681 1.264 . S
C680 C685 1.479 . S
C680 C690 1.465 . S
C681 C680 1.264 . S
C681 C683 1.339 . S
C681 H708 0.931 . S
C682 C683 1.395 . S
C682 C684 1.320 . S
C683 C681 1.339 . S
C683 C682 1.395 . S
C683 H709 0.929 . S
C684 C682 1.320 . S
C684 C685 1.405 . S
C684 H710 0.930 . S
C685 C680 1.479 . S
C685 C684 1.405 . S
C685 H711 0.931 . S
U686 O687 2.454 . S
U686 O688 2.458 . S
U686 C689 2.984 . S
U686 C690 2.847 . S
U686 C703 2.882 . S
U686 O704 2.441 . S
U686 O705 2.420 . S
U686 O706 2.455 . S
U686 O707 2.449 . S
O687 U686 2.454 . S
O687 C689 1.353 . S
O688 U686 2.458 . S
O688 C689 1.286 . S
C689 U686 2.984 . S
C689 O687 1.353 . S
C689 O688 1.286 . S
C689 C691 1.363 . S
C690 C680 1.465 . S
C690 U686 2.847 . S
C690 O704 1.249 . S
C690 O705 1.202 . S
C691 C689 1.363 . S
C691 C693 1.408 . S
C691 C696 1.342 . S
C692 C693 1.310 . S
C692 C695 1.461 . S
C692 H712 0.932 . S
C693 C691 1.408 . S
C693 C692 1.310 . S
C693 H713 0.930 . S
C694 C695 1.474 . S
C694 C696 1.285 . S
C694 H714 0.929 . S
C695 C692 1.461 . S
C695 C694 1.474 . S
C696 C691 1.342 . S
C696 C694 1.285 . S
C696 H715 0.930 . S
C697 C700 1.424 . S
C697 C702 1.245 . S
C697 C703 1.428 . S
C698 C701 1.260 . S
C698 C702 1.477 . S
C698 H716 0.932 . S
C699 C700 1.384 . S
C699 C701 1.479 . S
C699 H717 0.929 . S
C700 C697 1.424 . S
C700 C699 1.384 . S
C700 H718 0.928 . S
C701 C698 1.260 . S
C701 C699 1.479 . S
C702 C697 1.245 . S
C702 C698 1.477 . S
C702 H719 0.932 . S
C703 U686 2.882 . S
C703 C697 1.428 . S
C703 O706 1.301 . S
C703 O707 1.282 . S
O704 U686 2.441 . S
O704 C690 1.249 . S
O705 U686 2.420 . S
O705 C690 1.202 . S
O706 U686 2.455 . S
O706 C703 1.301 . S
O707 U686 2.449 . S
O707 C703 1.282 . S
H708 C681 0.931 . S
H709 C683 0.929 . S
H710 C684 0.930 . S
H711 C685 0.931 . S
H712 C692 0.932 . S
H713 C693 0.930 . S
H714 C694 0.929 . S
H715 C696 0.930 . S
H716 C698 0.932 . S
H717 C699 0.929 . S
H718 C700 0.928 . S
H719 C702 0.932 . S
C720 C721 1.264 . S
C720 C725 1.479 . S
C720 C730 1.465 . S
C721 C720 1.264 . S
C721 C723 1.339 . S
C721 H748 0.931 . S
C722 C723 1.395 . S
C722 C724 1.320 . S
C723 C721 1.339 . S
C723 C722 1.395 . S
C723 H749 0.929 . S
C724 C722 1.320 . S
C724 C725 1.405 . S
C724 H750 0.930 . S
C725 C720 1.479 . S
C725 C724 1.405 . S
C725 H751 0.931 . S
U726 O727 2.454 . S
U726 O728 2.458 . S
U726 C729 2.984 . S
U726 C730 2.847 . S
U726 C743 2.882 . S
U726 O744 2.441 . S
U726 O745 2.420 . S
U726 O746 2.455 . S
U726 O747 2.449 . S
O727 U726 2.454 . S
O727 C729 1.353 . S
O728 U726 2.458 . S
O728 C729 1.286 . S
C729 U726 2.984 . S
C729 O727 1.353 . S
C729 O728 1.286 . S
C729 C731 1.363 . S
C730 C720 1.465 . S
C730 U726 2.847 . S
C730 O744 1.249 . S
C730 O745 1.202 . S
C731 C729 1.363 . S
C731 C733 1.408 . S
C731 C736 1.342 . S
C732 C733 1.310 . S
C732 C735 1.461 . S
C732 H752 0.932 . S
C733 C731 1.408 . S
C733 C732 1.310 . S
C733 H753 0.930 . S
C734 C735 1.474 . S
C734 C736 1.285 . S
C734 H754 0.929 . S
C735 C732 1.461 . S
C735 C734 1.474 . S
C736 C731 1.342 . S
C736 C734 1.285 . S
C736 H755 0.930 . S
C737 C740 1.424 . S
C737 C742 1.245 . S
C737 C743 1.428 . S
C738 C741 1.260 . S
C738 C742 1.477 . S
C738 H756 0.932 . S
C739 C740 1.384 . S
C739 C741 1.479 . S
C739 H757 0.929 . S
C740 C737 1.424 . S
C740 C739 1.384 . S
C740 H758 0.928 . S
C741 C738 1.260 . S
C741 C739 1.479 . S
C742 C737 1.245 . S
C742 C738 1.477 . S
C742 H759 0.932 . S
C743 U726 2.882 . S
C743 C737 1.428 . S
C743 O746 1.301 . S
C743 O747 1.282 . S
O744 U726 2.441 . S
O744 C730 1.249 . S
O745 U726 2.420 . S
O745 C730 1.202 . S
O746 U726 2.455 . S
O746 C743 1.301 . S
O747 U726 2.449 . S
O747 C743 1.282 . S
H748 C721 0.931 . S
H749 C723 0.929 . S
H750 C724 0.930 . S
H751 C725 0.931 . S
H752 C732 0.932 . S
H753 C733 0.930 . S
H754 C734 0.929 . S
H755 C736 0.930 . S
H756 C738 0.932 . S
H757 C739 0.929 . S
H758 C740 0.928 . S
H759 C742 0.932 . S
C760 C761 1.264 . S
C760 C765 1.479 . S
C760 C770 1.465 . S
C761 C760 1.264 . S
C761 C763 1.339 . S
C761 H788 0.931 . S
C762 C763 1.395 . S
C762 C764 1.320 . S
C763 C761 1.339 . S
C763 C762 1.395 . S
C763 H789 0.929 . S
C764 C762 1.320 . S
C764 C765 1.405 . S
C764 H790 0.930 . S
C765 C760 1.479 . S
C765 C764 1.405 . S
C765 H791 0.931 . S
U766 O767 2.454 . S
U766 O768 2.458 . S
U766 C769 2.984 . S
U766 C770 2.847 . S
U766 C783 2.882 . S
U766 O784 2.441 . S
U766 O785 2.420 . S
U766 O786 2.455 . S
U766 O787 2.449 . S
O767 U766 2.454 . S
O767 C769 1.353 . S
O768 U766 2.458 . S
O768 C769 1.286 . S
C769 U766 2.984 . S
C769 O767 1.353 . S
C769 O768 1.286 . S
C769 C771 1.363 . S
C770 C760 1.465 . S
C770 U766 2.847 . S
C770 O784 1.249 . S
C770 O785 1.202 . S
C771 C769 1.363 . S
C771 C773 1.408 . S
C771 C776 1.342 . S
C772 C773 1.310 . S
C772 C775 1.461 . S
C772 H792 0.932 . S
C773 C771 1.408 . S
C773 C772 1.310 . S
C773 H793 0.930 . S
C774 C775 1.474 . S
C774 C776 1.285 . S
C774 H794 0.929 . S
C775 C772 1.461 . S
C775 C774 1.474 . S
C776 C771 1.342 . S
C776 C774 1.285 . S
C776 H795 0.930 . S
C777 C780 1.424 . S
C777 C782 1.245 . S
C777 C783 1.428 . S
C778 C781 1.260 . S
C778 C782 1.477 . S
C778 H796 0.932 . S
C779 C780 1.384 . S
C779 C781 1.479 . S
C779 H797 0.929 . S
C780 C777 1.424 . S
C780 C779 1.384 . S
C780 H798 0.928 . S
C781 C778 1.260 . S
C781 C779 1.479 . S
C782 C777 1.245 . S
C782 C778 1.477 . S
C782 H799 0.932 . S
C783 U766 2.882 . S
C783 C777 1.428 . S
C783 O786 1.301 . S
C783 O787 1.282 . S
O784 U766 2.441 . S
O784 C770 1.249 . S
O785 U766 2.420 . S
O785 C770 1.202 . S
O786 U766 2.455 . S
O786 C783 1.301 . S
O787 U766 2.449 . S
O787 C783 1.282 . S
H788 C761 0.931 . S
H789 C763 0.929 . S
H790 C764 0.930 . S
H791 C765 0.931 . S
H792 C772 0.932 . S
H793 C773 0.930 . S
H794 C774 0.929 . S
H795 C776 0.930 . S
H796 C778 0.932 . S
H797 C779 0.929 . S
H798 C780 0.928 . S
H799 C782 0.932 . S
C800 C801 1.264 . S
C800 C805 1.479 . S
C800 C810 1.465 . S
C801 C800 1.264 . S
C801 C803 1.339 . S
C801 H828 0.931 . S
C802 C803 1.395 . S
C802 C804 1.320 . S
C803 C801 1.339 . S
C803 C802 1.395 . S
C803 H829 0.929 . S
C804 C802 1.320 . S
C804 C805 1.405 . S
C804 H830 0.930 . S
C805 C800 1.479 . S
C805 C804 1.405 . S
C805 H831 0.931 . S
U806 O807 2.454 . S
U806 O808 2.458 . S
U806 C809 2.984 . S
U806 C810 2.847 . S
U806 C823 2.882 . S
U806 O824 2.441 . S
U806 O825 2.420 . S
U806 O826 2.455 . S
U806 O827 2.449 . S
O807 U806 2.454 . S
O807 C809 1.353 . S
O808 U806 2.458 . S
O808 C809 1.286 . S
C809 U806 2.984 . S
C809 O807 1.353 . S
C809 O808 1.286 . S
C809 C811 1.363 . S
C810 C800 1.465 . S
C810 U806 2.847 . S
C810 O824 1.249 . S
C810 O825 1.202 . S
C811 C809 1.363 . S
C811 C813 1.408 . S
C811 C816 1.342 . S
C812 C813 1.310 . S
C812 C815 1.461 . S
C812 H832 0.932 . S
C813 C811 1.408 . S
C813 C812 1.310 . S
C813 H833 0.930 . S
C814 C815 1.474 . S
C814 C816 1.285 . S
C814 H834 0.929 . S
C815 C812 1.461 . S
C815 C814 1.474 . S
C816 C811 1.342 . S
C816 C814 1.285 . S
C816 H835 0.930 . S
C817 C820 1.424 . S
C817 C822 1.245 . S
C817 C823 1.428 . S
C818 C821 1.260 . S
C818 C822 1.477 . S
C818 H836 0.932 . S
C819 C820 1.384 . S
C819 C821 1.479 . S
C819 H837 0.929 . S
C820 C817 1.424 . S
C820 C819 1.384 . S
C820 H838 0.928 . S
C821 C818 1.260 . S
C821 C819 1.479 . S
C822 C817 1.245 . S
C822 C818 1.477 . S
C822 H839 0.932 . S
C823 U806 2.882 . S
C823 C817 1.428 . S
C823 O826 1.301 . S
C823 O827 1.282 . S
O824 U806 2.441 . S
O824 C810 1.249 . S
O825 U806 2.420 . S
O825 C810 1.202 . S
O826 U806 2.455 . S
O826 C823 1.301 . S
O827 U806 2.449 . S
O827 C823 1.282 . S
H828 C801 0.931 . S
H829 C803 0.929 . S
H830 C804 0.930 . S
H831 C805 0.931 . S
H832 C812 0.932 . S
H833 C813 0.930 . S
H834 C814 0.929 . S
H835 C816 0.930 . S
H836 C818 0.932 . S
H837 C819 0.929 . S
H838 C820 0.928 . S
H839 C822 0.932 . S
C840 C841 1.264 . S
C840 C845 1.479 . S
C840 C850 1.465 . S
C841 C840 1.264 . S
C841 C843 1.339 . S
C841 H868 0.931 . S
C842 C843 1.395 . S
C842 C844 1.320 . S
C843 C841 1.339 . S
C843 C842 1.395 . S
C843 H869 0.929 . S
C844 C842 1.320 . S
C844 C845 1.405 . S
C844 H870 0.930 . S
C845 C840 1.479 . S
C845 C844 1.405 . S
C845 H871 0.931 . S
U846 O847 2.454 . S
U846 O848 2.458 . S
U846 C849 2.984 . S
U846 C850 2.847 . S
U846 C863 2.882 . S
U846 O864 2.441 . S
U846 O865 2.420 . S
U846 O866 2.455 . S
U846 O867 2.449 . S
O847 U846 2.454 . S
O847 C849 1.353 . S
O848 U846 2.458 . S
O848 C849 1.286 . S
C849 U846 2.984 . S
C849 O847 1.353 . S
C849 O848 1.286 . S
C849 C851 1.363 . S
C850 C840 1.465 . S
C850 U846 2.847 . S
C850 O864 1.249 . S
C850 O865 1.202 . S
C851 C849 1.363 . S
C851 C853 1.408 . S
C851 C856 1.342 . S
C852 C853 1.310 . S
C852 C855 1.461 . S
C852 H872 0.932 . S
C853 C851 1.408 . S
C853 C852 1.310 . S
C853 H873 0.930 . S
C854 C855 1.474 . S
C854 C856 1.285 . S
C854 H874 0.929 . S
C855 C852 1.461 . S
C855 C854 1.474 . S
C856 C851 1.342 . S
C856 C854 1.285 . S
C856 H875 0.930 . S
C857 C860 1.424 . S
C857 C862 1.245 . S
C857 C863 1.428 . S
C858 C861 1.260 . S
C858 C862 1.477 . S
C858 H876 0.932 . S
C859 C860 1.384 . S
C859 C861 1.479 . S
C859 H877 0.929 . S
C860 C857 1.424 . S
C860 C859 1.384 . S
C860 H878 0.928 . S
C861 C858 1.260 . S
C861 C859 1.479 . S
C862 C857 1.245 . S
C862 C858 1.477 . S
C862 H879 0.932 . S
C863 U846 2.882 . S
C863 C857 1.428 . S
C863 O866 1.301 . S
C863 O867 1.282 . S
O864 U846 2.441 . S
O864 C850 1.249 . S
O865 U846 2.420 . S
O865 C850 1.202 . S
O866 U846 2.455 . S
O866 C863 1.301 . S
O867 U846 2.449 . S
O867 C863 1.282 . S
H868 C841 0.931 . S
H869 C843 0.929 . S
H870 C844 0.930 . S
H871 C845 0.931 . S
H872 C852 0.932 . S
H873 C853 0.930 . S
H874 C854 0.929 . S
H875 C856 0.930 . S
H876 C858 0.932 . S
H877 C859 0.929 . S
H878 C860 0.928 . S
H879 C862 0.932 . S
C880 C881 1.264 . S
C880 C885 1.479 . S
C880 C890 1.465 . S
C881 C880 1.264 . S
C881 C883 1.339 . S
C881 H908 0.931 . S
C882 C883 1.395 . S
C882 C884 1.320 . S
C883 C881 1.339 . S
C883 C882 1.395 . S
C883 H909 0.929 . S
C884 C882 1.320 . S
C884 C885 1.405 . S
C884 H910 0.930 . S
C885 C880 1.479 . S
C885 C884 1.405 . S
C885 H911 0.931 . S
U886 O887 2.454 . S
U886 O888 2.458 . S
U886 C889 2.984 . S
U886 C890 2.847 . S
U886 C903 2.882 . S
U886 O904 2.441 . S
U886 O905 2.420 . S
U886 O906 2.455 . S
U886 O907 2.449 . S
O887 U886 2.454 . S
O887 C889 1.353 . S
O888 U886 2.458 . S
O888 C889 1.286 . S
C889 U886 2.984 . S
C889 O887 1.353 . S
C889 O888 1.286 . S
C889 C891 1.363 . S
C890 C880 1.465 . S
C890 U886 2.847 . S
C890 O904 1.249 . S
C890 O905 1.202 . S
C891 C889 1.363 . S
C891 C893 1.408 . S
C891 C896 1.342 . S
C892 C893 1.310 . S
C892 C895 1.461 . S
C892 H912 0.932 . S
C893 C891 1.408 . S
C893 C892 1.310 . S
C893 H913 0.930 . S
C894 C895 1.474 . S
C894 C896 1.285 . S
C894 H914 0.929 . S
C895 C892 1.461 . S
C895 C894 1.474 . S
C896 C891 1.342 . S
C896 C894 1.285 . S
C896 H915 0.930 . S
C897 C900 1.424 . S
C897 C902 1.245 . S
C897 C903 1.428 . S
C898 C901 1.260 . S
C898 C902 1.477 . S
C898 H916 0.932 . S
C899 C900 1.384 . S
C899 C901 1.479 . S
C899 H917 0.929 . S
C900 C897 1.424 . S
C900 C899 1.384 . S
C900 H918 0.928 . S
C901 C898 1.260 . S
C901 C899 1.479 . S
C902 C897 1.245 . S
C902 C898 1.477 . S
C902 H919 0.932 . S
C903 U886 2.882 . S
C903 C897 1.428 . S
C903 O906 1.301 . S
C903 O907 1.282 . S
O904 U886 2.441 . S
O904 C890 1.249 . S
O905 U886 2.420 . S
O905 C890 1.202 . S
O906 U886 2.455 . S
O906 C903 1.301 . S
O907 U886 2.449 . S
O907 C903 1.282 . S
H908 C881 0.931 . S
H909 C883 0.929 . S
H910 C884 0.930 . S
H911 C885 0.931 . S
H912 C892 0.932 . S
H913 C893 0.930 . S
H914 C894 0.929 . S
H915 C896 0.930 . S
H916 C898 0.932 . S
H917 C899 0.929 . S
H918 C900 0.928 . S
H919 C902 0.932 . S
C920 C921 1.264 . S
C920 C925 1.479 . S
C920 C930 1.465 . S
C921 C920 1.264 . S
C921 C923 1.339 . S
C921 H948 0.931 . S
C922 C923 1.395 . S
C922 C924 1.320 . S
C923 C921 1.339 . S
C923 C922 1.395 . S
C923 H949 0.929 . S
C924 C922 1.320 . S
C924 C925 1.405 . S
C924 H950 0.930 . S
C925 C920 1.479 . S
C925 C924 1.405 . S
C925 H951 0.931 . S
U926 O927 2.454 . S
U926 O928 2.458 . S
U926 C929 2.984 . S
U926 C930 2.847 . S
U926 C943 2.882 . S
U926 O944 2.441 . S
U926 O945 2.420 . S
U926 O946 2.455 . S
U926 O947 2.449 . S
O927 U926 2.454 . S
O927 C929 1.353 . S
O928 U926 2.458 . S
O928 C929 1.286 . S
C929 U926 2.984 . S
C929 O927 1.353 . S
C929 O928 1.286 . S
C929 C931 1.363 . S
C930 C920 1.465 . S
C930 U926 2.847 . S
C930 O944 1.249 . S
C930 O945 1.202 . S
C931 C929 1.363 . S
C931 C933 1.408 . S
C931 C936 1.342 . S
C932 C933 1.310 . S
C932 C935 1.461 . S
C932 H952 0.932 . S
C933 C931 1.408 . S
C933 C932 1.310 . S
C933 H953 0.930 . S
C934 C935 1.474 . S
C934 C936 1.285 . S
C934 H954 0.929 . S
C935 C932 1.461 . S
C935 C934 1.474 . S
C936 C931 1.342 . S
C936 C934 1.285 . S
C936 H955 0.930 . S
C937 C940 1.424 . S
C937 C942 1.245 . S
C937 C943 1.428 . S
C938 C941 1.260 . S
C938 C942 1.477 . S
C938 H956 0.932 . S
C939 C940 1.384 . S
C939 C941 1.479 . S
C939 H957 0.929 . S
C940 C937 1.424 . S
C940 C939 1.384 . S
C940 H958 0.928 . S
C941 C938 1.260 . S
C941 C939 1.479 . S
C942 C937 1.245 . S
C942 C938 1.477 . S
C942 H959 0.932 . S
C943 U926 2.882 . S
C943 C937 1.428 . S
C943 O946 1.301 . S
C943 O947 1.282 . S
O944 U926 2.441 . S
O944 C930 1.249 . S
O945 U926 2.420 . S
O945 C930 1.202 . S
O946 U926 2.455 . S
O946 C943 1.301 . S
O947 U926 2.449 . S
O947 C943 1.282 . S
H948 C921 0.931 . S
H949 C923 0.929 . S
H950 C924 0.930 . S
H951 C925 0.931 . S
H952 C932 0.932 . S
H953 C933 0.930 . S
H954 C934 0.929 . S
H955 C936 0.930 . S
H956 C938 0.932 . S
H957 C939 0.929 . S
H958 C940 0.928 . S
H959 C942 0.932 . S
C960 C961 1.264 . S
C960 C965 1.479 . S
C960 C970 1.465 . S
C961 C960 1.264 . S
C961 C963 1.339 . S
C961 H988 0.931 . S
C962 C963 1.395 . S
C962 C964 1.320 . S
C963 C961 1.339 . S
C963 C962 1.395 . S
C963 H989 0.929 . S
C964 C962 1.320 . S
C964 C965 1.405 . S
C964 H990 0.930 . S
C965 C960 1.479 . S
C965 C964 1.405 . S
C965 H991 0.931 . S
U966 O967 2.454 . S
U966 O968 2.458 . S
U966 C969 2.984 . S
U966 C970 2.847 . S
U966 C983 2.882 . S
U966 O984 2.441 . S
U966 O985 2.420 . S
U966 O986 2.455 . S
U966 O987 2.449 . S
O967 U966 2.454 . S
O967 C969 1.353 . S
O968 U966 2.458 . S
O968 C969 1.286 . S
C969 U966 2.984 . S
C969 O967 1.353 . S
C969 O968 1.286 . S
C969 C971 1.363 . S
C970 C960 1.465 . S
C970 U966 2.847 . S
C970 O984 1.249 . S
C970 O985 1.202 . S
C971 C969 1.363 . S
C971 C973 1.408 . S
C971 C976 1.342 . S
C972 C973 1.310 . S
C972 C975 1.461 . S
C972 H992 0.932 . S
C973 C971 1.408 . S
C973 C972 1.310 . S
C973 H993 0.930 . S
C974 C975 1.474 . S
C974 C976 1.285 . S
C974 H994 0.929 . S
C975 C972 1.461 . S
C975 C974 1.474 . S
C976 C971 1.342 . S
C976 C974 1.285 . S
C976 H995 0.930 . S
C977 C980 1.424 . S
C977 C982 1.245 . S
C977 C983 1.428 . S
C978 C981 1.260 . S
C978 C982 1.477 . S
C978 H996 0.932 . S
C979 C980 1.384 . S
C979 C981 1.479 . S
C979 H997 0.929 . S
C980 C977 1.424 . S
C980 C979 1.384 . S
C980 H998 0.928 . S
C981 C978 1.260 . S
C981 C979 1.479 . S
C982 C977 1.245 . S
C982 C978 1.477 . S
C982 H999 0.932 . S
C983 U966 2.882 . S
C983 C977 1.428 . S
C983 O986 1.301 . S
C983 O987 1.282 . S
O984 U966 2.441 . S
O984 C970 1.249 . S
O985 U966 2.420 . S
O985 C970 1.202 . S
O986 U966 2.455 . S
O986 C983 1.301 . S
O987 U966 2.449 . S
O987 C983 1.282 . S
H988 C961 0.931 . S
H989 C963 0.929 . S
H990 C964 0.930 . S
H991 C965 0.931 . S
H992 C972 0.932 . S
H993 C973 0.930 . S
H994 C974 0.929 . S
H995 C976 0.930 . S
H996 C978 0.932 . S
H997 C979 0.929 . S
H998 C980 0.928 . S
H999 C982 0.932 . S
C1000 C1001 1.264 . S
C1000 C1005 1.479 . S
C1000 C1010 1.465 . S
C1001 C1000 1.264 . S
C1001 C1003 1.339 . S
C1001 H1028 0.931 . S
C1002 C1003 1.395 . S
C1002 C1004 1.320 . S
C1003 C1001 1.339 . S
C1003 C1002 1.395 . S
C1003 H1029 0.929 . S
C1004 C1002 1.320 . S
C1004 C1005 1.405 . S
C1004 H1030 0.930 . S
C1005 C1000 1.479 . S
C1005 C1004 1.405 . S
C1005 H1031 0.931 . S
U1006 O1007 2.454 . S
U1006 O1008 2.458 . S
U1006 C1009 2.984 . S
U1006 C1010 2.847 . S
U1006 C1023 2.882 . S
U1006 O1024 2.441 . S
U1006 O1025 2.420 . S
U1006 O1026 2.455 . S
U1006 O1027 2.449 . S
O1007 U1006 2.454 . S
O1007 C1009 1.353 . S
O1008 U1006 2.458 . S
O1008 C1009 1.286 . S
C1009 U1006 2.984 . S
C1009 O1007 1.353 . S
C1009 O1008 1.286 . S
C1009 C1011 1.363 . S
C1010 C1000 1.465 . S
C1010 U1006 2.847 . S
C1010 O1024 1.249 . S
C1010 O1025 1.202 . S
C1011 C1009 1.363 . S
C1011 C1013 1.408 . S
C1011 C1016 1.342 . S
C1012 C1013 1.310 . S
C1012 C1015 1.461 . S
C1012 H1032 0.932 . S
C1013 C1011 1.408 . S
C1013 C1012 1.310 . S
C1013 H1033 0.930 . S
C1014 C1015 1.474 . S
C1014 C1016 1.285 . S
C1014 H1034 0.929 . S
C1015 C1012 1.461 . S
C1015 C1014 1.474 . S
C1016 C1011 1.342 . S
C1016 C1014 1.285 . S
C1016 H1035 0.930 . S
C1017 C1020 1.424 . S
C1017 C1022 1.245 . S
C1017 C1023 1.428 . S
C1018 C1021 1.260 . S
C1018 C1022 1.477 . S
C1018 H1036 0.932 . S
C1019 C1020 1.384 . S
C1019 C1021 1.479 . S
C1019 H1037 0.929 . S
C1020 C1017 1.424 . S
C1020 C1019 1.384 . S
C1020 H1038 0.928 . S
C1021 C1018 1.260 . S
C1021 C1019 1.479 . S
C1022 C1017 1.245 . S
C1022 C1018 1.477 . S
C1022 H1039 0.932 . S
C1023 U1006 2.882 . S
C1023 C1017 1.428 . S
C1023 O1026 1.301 . S
C1023 O1027 1.282 . S
O1024 U1006 2.441 . S
O1024 C1010 1.249 . S
O1025 U1006 2.420 . S
O1025 C1010 1.202 . S
O1026 U1006 2.455 . S
O1026 C1023 1.301 . S
O1027 U1006 2.449 . S
O1027 C1023 1.282 . S
H1028 C1001 0.931 . S
H1029 C1003 0.929 . S
H1030 C1004 0.930 . S
H1031 C1005 0.931 . S
H1032 C1012 0.932 . S
H1033 C1013 0.930 . S
H1034 C1014 0.929 . S
H1035 C1016 0.930 . S
H1036 C1018 0.932 . S
H1037 C1019 0.929 . S
H1038 C1020 0.928 . S
H1039 C1022 0.932 . S
C1040 C1041 1.264 . S
C1040 C1045 1.479 . S
C1040 C1050 1.465 . S
C1041 C1040 1.264 . S
C1041 C1043 1.339 . S
C1041 H1068 0.931 . S
C1042 C1043 1.395 . S
C1042 C1044 1.320 . S
C1043 C1041 1.339 . S
C1043 C1042 1.395 . S
C1043 H1069 0.929 . S
C1044 C1042 1.320 . S
C1044 C1045 1.405 . S
C1044 H1070 0.930 . S
C1045 C1040 1.479 . S
C1045 C1044 1.405 . S
C1045 H1071 0.931 . S
U1046 O1047 2.454 . S
U1046 O1048 2.458 . S
U1046 C1049 2.984 . S
U1046 C1050 2.847 . S
U1046 C1063 2.882 . S
U1046 O1064 2.441 . S
U1046 O1065 2.420 . S
U1046 O1066 2.455 . S
U1046 O1067 2.449 . S
O1047 U1046 2.454 . S
O1047 C1049 1.353 . S
O1048 U1046 2.458 . S
O1048 C1049 1.286 . S
C1049 U1046 2.984 . S
C1049 O1047 1.353 . S
C1049 O1048 1.286 . S
C1049 C1051 1.363 . S
C1050 C1040 1.465 . S
C1050 U1046 2.847 . S
C1050 O1064 1.249 . S
C1050 O1065 1.202 . S
C1051 C1049 1.363 . S
C1051 C1053 1.408 . S
C1051 C1056 1.342 . S
C1052 C1053 1.310 . S
C1052 C1055 1.461 . S
C1052 H1072 0.932 . S
C1053 C1051 1.408 . S
C1053 C1052 1.310 . S
C1053 H1073 0.930 . S
C1054 C1055 1.474 . S
C1054 C1056 1.285 . S
C1054 H1074 0.929 . S
C1055 C1052 1.461 . S
C1055 C1054 1.474 . S
C1056 C1051 1.342 . S
C1056 C1054 1.285 . S
C1056 H1075 0.930 . S
C1057 C1060 1.424 . S
C1057 C1062 1.245 . S
C1057 C1063 1.428 . S
C1058 C1061 1.260 . S
C1058 C1062 1.477 . S
C1058 H1076 0.932 . S
C1059 C1060 1.384 . S
C1059 C1061 1.479 . S
C1059 H1077 0.929 . S
C1060 C1057 1.424 . S
C1060 C1059 1.384 . S
C1060 H1078 0.928 . S
C1061 C1058 1.260 . S
C1061 C1059 1.479 . S
C1062 C1057 1.245 . S
C1062 C1058 1.477 . S
C1062 H1079 0.932 . S
C1063 U1046 2.882 . S
C1063 C1057 1.428 . S
C1063 O1066 1.301 . S
C1063 O1067 1.282 . S
O1064 U1046 2.441 . S
O1064 C1050 1.249 . S
O1065 U1046 2.420 . S
O1065 C1050 1.202 . S
O1066 U1046 2.455 . S
O1066 C1063 1.301 . S
O1067 U1046 2.449 . S
O1067 C1063 1.282 . S
H1068 C1041 0.931 . S
H1069 C1043 0.929 . S
H1070 C1044 0.930 . S
H1071 C1045 0.931 . S
H1072 C1052 0.932 . S
H1073 C1053 0.930 . S
H1074 C1054 0.929 . S
H1075 C1056 0.930 . S
H1076 C1058 0.932 . S
H1077 C1059 0.929 . S
H1078 C1060 0.928 . S
H1079 C1062 0.932 . S
C1080 C1081 1.264 . S
C1080 C1085 1.479 . S
C1080 C1090 1.465 . S
C1081 C1080 1.264 . S
C1081 C1083 1.339 . S
C1081 H1108 0.931 . S
C1082 C1083 1.395 . S
C1082 C1084 1.320 . S
C1083 C1081 1.339 . S
C1083 C1082 1.395 . S
C1083 H1109 0.929 . S
C1084 C1082 1.320 . S
C1084 C1085 1.405 . S
C1084 H1110 0.930 . S
C1085 C1080 1.479 . S
C1085 C1084 1.405 . S
C1085 H1111 0.931 . S
U1086 O1087 2.454 . S
U1086 O1088 2.458 . S
U1086 C1089 2.984 . S
U1086 C1090 2.847 . S
U1086 C1103 2.882 . S
U1086 O1104 2.441 . S
U1086 O1105 2.420 . S
U1086 O1106 2.455 . S
U1086 O1107 2.449 . S
O1087 U1086 2.454 . S
O1087 C1089 1.353 . S
O1088 U1086 2.458 . S
O1088 C1089 1.286 . S
C1089 U1086 2.984 . S
C1089 O1087 1.353 . S
C1089 O1088 1.286 . S
C1089 C1091 1.363 . S
C1090 C1080 1.465 . S
C1090 U1086 2.847 . S
C1090 O1104 1.249 . S
C1090 O1105 1.202 . S
C1091 C1089 1.363 . S
C1091 C1093 1.408 . S
C1091 C1096 1.342 . S
C1092 C1093 1.310 . S
C1092 C1095 1.461 . S
C1092 H1112 0.932 . S
C1093 C1091 1.408 . S
C1093 C1092 1.310 . S
C1093 H1113 0.930 . S
C1094 C1095 1.474 . S
C1094 C1096 1.285 . S
C1094 H1114 0.929 . S
C1095 C1092 1.461 . S
C1095 C1094 1.474 . S
C1096 C1091 1.342 . S
C1096 C1094 1.285 . S
C1096 H1115 0.930 . S
C1097 C1100 1.424 . S
C1097 C1102 1.245 . S
C1097 C1103 1.428 . S
C1098 C1101 1.260 . S
C1098 C1102 1.477 . S
C1098 H1116 0.932 . S
C1099 C1100 1.384 . S
C1099 C1101 1.479 . S
C1099 H1117 0.929 . S
C1100 C1097 1.424 . S
C1100 C1099 1.384 . S
C1100 H1118 0.928 . S
C1101 C1098 1.260 . S
C1101 C1099 1.479 . S
C1102 C1097 1.245 . S
C1102 C1098 1.477 . S
C1102 H1119 0.932 . S
C1103 U1086 2.882 . S
C1103 C1097 1.428 . S
C1103 O1106 1.301 . S
C1103 O1107 1.282 . S
O1104 U1086 2.441 . S
O1104 C1090 1.249 . S
O1105 U1086 2.420 . S
O1105 C1090 1.202 . S
O1106 U1086 2.455 . S
O1106 C1103 1.301 . S
O1107 U1086 2.449 . S
O1107 C1103 1.282 . S
H1108 C1081 0.931 . S
H1109 C1083 0.929 . S
H1110 C1084 0.930 . S
H1111 C1085 0.931 . S
H1112 C1092 0.932 . S
H1113 C1093 0.930 . S
H1114 C1094 0.929 . S
H1115 C1096 0.930 . S
H1116 C1098 0.932 . S
H1117 C1099 0.929 . S
H1118 C1100 0.928 . S
H1119 C1102 0.932 . S
C1120 C1121 1.264 . S
C1120 C1125 1.479 . S
C1120 C1130 1.465 . S
C1121 C1120 1.264 . S
C1121 C1123 1.339 . S
C1121 H1148 0.931 . S
C1122 C1123 1.395 . S
C1122 C1124 1.320 . S
C1123 C1121 1.339 . S
C1123 C1122 1.395 . S
C1123 H1149 0.929 . S
C1124 C1122 1.320 . S
C1124 C1125 1.405 . S
C1124 H1150 0.930 . S
C1125 C1120 1.479 . S
C1125 C1124 1.405 . S
C1125 H1151 0.931 . S
U1126 O1127 2.454 . S
U1126 O1128 2.458 . S
U1126 C1129 2.984 . S
U1126 C1130 2.847 . S
U1126 C1143 2.882 . S
U1126 O1144 2.441 . S
U1126 O1145 2.420 . S
U1126 O1146 2.455 . S
U1126 O1147 2.449 . S
O1127 U1126 2.454 . S
O1127 C1129 1.353 . S
O1128 U1126 2.458 . S
O1128 C1129 1.286 . S
C1129 U1126 2.984 . S
C1129 O1127 1.353 . S
C1129 O1128 1.286 . S
C1129 C1131 1.363 . S
C1130 C1120 1.465 . S
C1130 U1126 2.847 . S
C1130 O1144 1.249 . S
C1130 O1145 1.202 . S
C1131 C1129 1.363 . S
C1131 C1133 1.408 . S
C1131 C1136 1.342 . S
C1132 C1133 1.310 . S
C1132 C1135 1.461 . S
C1132 H1152 0.932 . S
C1133 C1131 1.408 . S
C1133 C1132 1.310 . S
C1133 H1153 0.930 . S
C1134 C1135 1.474 . S
C1134 C1136 1.285 . S
C1134 H1154 0.929 . S
C1135 C1132 1.461 . S
C1135 C1134 1.474 . S
C1136 C1131 1.342 . S
C1136 C1134 1.285 . S
C1136 H1155 0.930 . S
C1137 C1140 1.424 . S
C1137 C1142 1.245 . S
C1137 C1143 1.428 . S
C1138 C1141 1.260 . S
C1138 C1142 1.477 . S
C1138 H1156 0.932 . S
C1139 C1140 1.384 . S
C1139 C1141 1.479 . S
C1139 H1157 0.929 . S
C1140 C1137 1.424 . S
C1140 C1139 1.384 . S
C1140 H1158 0.928 . S
C1141 C1138 1.260 . S
C1141 C1139 1.479 . S
C1142 C1137 1.245 . S
C1142 C1138 1.477 . S
C1142 H1159 0.932 . S
C1143 U1126 2.882 . S
C1143 C1137 1.428 . S
C1143 O1146 1.301 . S
C1143 O1147 1.282 . S
O1144 U1126 2.441 . S
O1144 C1130 1.249 . S
O1145 U1126 2.420 . S
O1145 C1130 1.202 . S
O1146 U1126 2.455 . S
O1146 C1143 1.301 . S
O1147 U1126 2.449 . S
O1147 C1143 1.282 . S
H1148 C1121 0.931 . S
H1149 C1123 0.929 . S
H1150 C1124 0.930 . S
H1151 C1125 0.931 . S
H1152 C1132 0.932 . S
H1153 C1133 0.930 . S
H1154 C1134 0.929 . S
H1155 C1136 0.930 . S
H1156 C1138 0.932 . S
H1157 C1139 0.929 . S
H1158 C1140 0.928 . S
H1159 C1142 0.932 . S
C1160 C1161 1.264 . S
C1160 C1165 1.479 . S
C1160 C1170 1.465 . S
C1161 C1160 1.264 . S
C1161 C1163 1.339 . S
C1161 H1188 0.931 . S
C1162 C1163 1.395 . S
C1162 C1164 1.320 . S
C1163 C1161 1.339 . S
C1163 C1162 1.395 . S
C1163 H1189 0.929 . S
C1164 C1162 1.320 . S
C1164 C1165 1.405 . S
C1164 H1190 0.930 . S
C1165 C1160 1.479 . S
C1165 C1164 1.405 . S
C1165 H1191 0.931 . S
U1166 O1167 2.454 . S
U1166 O1168 2.458 . S
U1166 C1169 2.984 . S
U1166 C1170 2.847 . S
U1166 C1183 2.882 . S
U1166 O1184 2.441 . S
U1166 O1185 2.420 . S
U1166 O1186 2.455 . S
U1166 O1187 2.449 . S
O1167 U1166 2.454 . S
O1167 C1169 1.353 . S
O1168 U1166 2.458 . S
O1168 C1169 1.286 . S
C1169 U1166 2.984 . S
C1169 O1167 1.353 . S
C1169 O1168 1.286 . S
C1169 C1171 1.363 . S
C1170 C1160 1.465 . S
C1170 U1166 2.847 . S
C1170 O1184 1.249 . S
C1170 O1185 1.202 . S
C1171 C1169 1.363 . S
C1171 C1173 1.408 . S
C1171 C1176 1.342 . S
C1172 C1173 1.310 . S
C1172 C1175 1.461 . S
C1172 H1192 0.932 . S
C1173 C1171 1.408 . S
C1173 C1172 1.310 . S
C1173 H1193 0.930 . S
C1174 C1175 1.474 . S
C1174 C1176 1.285 . S
C1174 H1194 0.929 . S
C1175 C1172 1.461 . S
C1175 C1174 1.474 . S
C1176 C1171 1.342 . S
C1176 C1174 1.285 . S
C1176 H1195 0.930 . S
C1177 C1180 1.424 . S
C1177 C1182 1.245 . S
C1177 C1183 1.428 . S
C1178 C1181 1.260 . S
C1178 C1182 1.477 . S
C1178 H1196 0.932 . S
C1179 C1180 1.384 . S
C1179 C1181 1.479 . S
C1179 H1197 0.929 . S
C1180 C1177 1.424 . S
C1180 C1179 1.384 . S
C1180 H1198 0.928 . S
C1181 C1178 1.260 . S
C1181 C1179 1.479 . S
C1182 C1177 1.245 . S
C1182 C1178 1.477 . S
C1182 H1199 0.932 . S
C1183 U1166 2.882 . S
C1183 C1177 1.428 . S
C1183 O1186 1.301 . S
C1183 O1187 1.282 . S
O1184 U1166 2.441 . S
O1184 C1170 1.249 . S
O1185 U1166 2.420 . S
O1185 C1170 1.202 . S
O1186 U1166 2.455 . S
O1186 C1183 1.301 . S
O1187 U1166 2.449 . S
O1187 C1183 1.282 . S
H1188 C1161 0.931 . S
H1189 C1163 0.929 . S
H1190 C1164 0.930 . S
H1191 C1165 0.931 . S
H1192 C1172 0.932 . S
H1193 C1173 0.930 . S
H1194 C1174 0.929 . S
H1195 C1176 0.930 . S
H1196 C1178 0.932 . S
H1197 C1179 0.929 . S
H1198 C1180 0.928 . S
H1199 C1182 0.932 . S
C1200 C1201 1.264 . S
C1200 C1205 1.479 . S
C1200 C1210 1.465 . S
C1201 C1200 1.264 . S
C1201 C1203 1.339 . S
C1201 H1228 0.931 . S
C1202 C1203 1.395 . S
C1202 C1204 1.320 . S
C1203 C1201 1.339 . S
C1203 C1202 1.395 . S
C1203 H1229 0.929 . S
C1204 C1202 1.320 . S
C1204 C1205 1.405 . S
C1204 H1230 0.930 . S
C1205 C1200 1.479 . S
C1205 C1204 1.405 . S
C1205 H1231 0.931 . S
U1206 O1207 2.454 . S
U1206 O1208 2.458 . S
U1206 C1209 2.984 . S
U1206 C1210 2.847 . S
U1206 C1223 2.882 . S
U1206 O1224 2.441 . S
U1206 O1225 2.420 . S
U1206 O1226 2.455 . S
U1206 O1227 2.449 . S
O1207 U1206 2.454 . S
O1207 C1209 1.353 . S
O1208 U1206 2.458 . S
O1208 C1209 1.286 . S
C1209 U1206 2.984 . S
C1209 O1207 1.353 . S
C1209 O1208 1.286 . S
C1209 C1211 1.363 . S
C1210 C1200 1.465 . S
C1210 U1206 2.847 . S
C1210 O1224 1.249 . S
C1210 O1225 1.202 . S
C1211 C1209 1.363 . S
C1211 C1213 1.408 . S
C1211 C1216 1.342 . S
C1212 C1213 1.310 . S
C1212 C1215 1.461 . S
C1212 H1232 0.932 . S
C1213 C1211 1.408 . S
C1213 C1212 1.310 . S
C1213 H1233 0.930 . S
C1214 C1215 1.474 . S
C1214 C1216 1.285 . S
C1214 H1234 0.929 . S
C1215 C1212 1.461 . S
C1215 C1214 1.474 . S
C1216 C1211 1.342 . S
C1216 C1214 1.285 . S
C1216 H1235 0.930 . S
C1217 C1220 1.424 . S
C1217 C1222 1.245 . S
C1217 C1223 1.428 . S
C1218 C1221 1.260 . S
C1218 C1222 1.477 . S
C1218 H1236 0.932 . S
C1219 C1220 1.384 . S
C1219 C1221 1.479 . S
C1219 H1237 0.929 . S
C1220 C1217 1.424 . S
C1220 C1219 1.384 . S
C1220 H1238 0.928 . S
C1221 C1218 1.260 . S
C1221 C1219 1.479 . S
C1222 C1217 1.245 . S
C1222 C1218 1.477 . S
C1222 H1239 0.932 . S
C1223 U1206 2.882 . S
C1223 C1217 1.428 . S
C1223 O1226 1.301 . S
C1223 O1227 1.282 . S
O1224 U1206 2.441 . S
O1224 C1210 1.249 . S
O1225 U1206 2.420 . S
O1225 C1210 1.202 . S
O1226 U1206 2.455 . S
O1226 C1223 1.301 . S
O1227 U1206 2.449 . S
O1227 C1223 1.282 . S
H1228 C1201 0.931 . S
H1229 C1203 0.929 . S
H1230 C1204 0.930 . S
H1231 C1205 0.931 . S
H1232 C1212 0.932 . S
H1233 C1213 0.930 . S
H1234 C1214 0.929 . S
H1235 C1216 0.930 . S
H1236 C1218 0.932 . S
H1237 C1219 0.929 . S
H1238 C1220 0.928 . S
H1239 C1222 0.932 . S
C1240 C1241 1.264 . S
C1240 C1245 1.479 . S
C1240 C1250 1.465 . S
C1241 C1240 1.264 . S
C1241 C1243 1.339 . S
C1241 H1268 0.931 . S
C1242 C1243 1.395 . S
C1242 C1244 1.320 . S
C1243 C1241 1.339 . S
C1243 C1242 1.395 . S
C1243 H1269 0.929 . S
C1244 C1242 1.320 . S
C1244 C1245 1.405 . S
C1244 H1270 0.930 . S
C1245 C1240 1.479 . S
C1245 C1244 1.405 . S
C1245 H1271 0.931 . S
U1246 O1247 2.454 . S
U1246 O1248 2.458 . S
U1246 C1249 2.984 . S
U1246 C1250 2.847 . S
U1246 C1263 2.882 . S
U1246 O1264 2.441 . S
U1246 O1265 2.420 . S
U1246 O1266 2.455 . S
U1246 O1267 2.449 . S
O1247 U1246 2.454 . S
O1247 C1249 1.353 . S
O1248 U1246 2.458 . S
O1248 C1249 1.286 . S
C1249 U1246 2.984 . S
C1249 O1247 1.353 . S
C1249 O1248 1.286 . S
C1249 C1251 1.363 . S
C1250 C1240 1.465 . S
C1250 U1246 2.847 . S
C1250 O1264 1.249 . S
C1250 O1265 1.202 . S
C1251 C1249 1.363 . S
C1251 C1253 1.408 . S
C1251 C1256 1.342 . S
C1252 C1253 1.310 . S
C1252 C1255 1.461 . S
C1252 H1272 0.932 . S
C1253 C1251 1.408 . S
C1253 C1252 1.310 . S
C1253 H1273 0.930 . S
C1254 C1255 1.474 . S
C1254 C1256 1.285 . S
C1254 H1274 0.929 . S
C1255 C1252 1.461 . S
C1255 C1254 1.474 . S
C1256 C1251 1.342 . S
C1256 C1254 1.285 . S
C1256 H1275 0.930 . S
C1257 C1260 1.424 . S
C1257 C1262 1.245 . S
C1257 C1263 1.428 . S
C1258 C1261 1.260 . S
C1258 C1262 1.477 . S
C1258 H1276 0.932 . S
C1259 C1260 1.384 . S
C1259 C1261 1.479 . S
C1259 H1277 0.929 . S
C1260 C1257 1.424 . S
C1260 C1259 1.384 . S
C1260 H1278 0.928 . S
C1261 C1258 1.260 . S
C1261 C1259 1.479 . S
C1262 C1257 1.245 . S
C1262 C1258 1.477 . S
C1262 H1279 0.932 . S
C1263 U1246 2.882 . S
C1263 C1257 1.428 . S
C1263 O1266 1.301 . S
C1263 O1267 1.282 . S
O1264 U1246 2.441 . S
O1264 C1250 1.249 . S
O1265 U1246 2.420 . S
O1265 C1250 1.202 . S
O1266 U1246 2.455 . S
O1266 C1263 1.301 . S
O1267 U1246 2.449 . S
O1267 C1263 1.282 . S
H1268 C1241 0.931 . S
H1269 C1243 0.929 . S
H1270 C1244 0.930 . S
H1271 C1245 0.931 . S
H1272 C1252 0.932 . S
H1273 C1253 0.930 . S
H1274 C1254 0.929 . S
H1275 C1256 0.930 . S
H1276 C1258 0.932 . S
H1277 C1259 0.929 . S
H1278 C1260 0.928 . S
H1279 C1262 0.932 . S
C1280 C1281 1.264 . S
C1280 C1285 1.479 . S
C1280 C1290 1.465 . S
C1281 C1280 1.264 . S
C1281 C1283 1.339 . S
C1281 H1308 0.931 . S
C1282 C1283 1.395 . S
C1282 C1284 1.320 . S
C1283 C1281 1.339 . S
C1283 C1282 1.395 . S
C1283 H1309 0.929 . S
C1284 C1282 1.320 . S
C1284 C1285 1.405 . S
C1284 H1310 0.930 . S
C1285 C1280 1.479 . S
C1285 C1284 1.405 . S
C1285 H1311 0.931 . S
U1286 O1287 2.454 . S
U1286 O1288 2.458 . S
U1286 C1289 2.984 . S
U1286 C1290 2.847 . S
U1286 C1303 2.882 . S
U1286 O1304 2.441 . S
U1286 O1305 2.420 . S
U1286 O1306 2.455 . S
U1286 O1307 2.449 . S
O1287 U1286 2.454 . S
O1287 C1289 1.353 . S
O1288 U1286 2.458 . S
O1288 C1289 1.286 . S
C1289 U1286 2.984 . S
C1289 O1287 1.353 . S
C1289 O1288 1.286 . S
C1289 C1291 1.363 . S
C1290 C1280 1.465 . S
C1290 U1286 2.847 . S
C1290 O1304 1.249 . S
C1290 O1305 1.202 . S
C1291 C1289 1.363 . S
C1291 C1293 1.408 . S
C1291 C1296 1.342 . S
C1292 C1293 1.310 . S
C1292 C1295 1.461 . S
C1292 H1312 0.932 . S
C1293 C1291 1.408 . S
C1293 C1292 1.310 . S
C1293 H1313 0.930 . S
C1294 C1295 1.474 . S
C1294 C1296 1.285 . S
C1294 H1314 0.929 . S
C1295 C1292 1.461 . S
C1295 C1294 1.474 . S
C1296 C1291 1.342 . S
C1296 C1294 1.285 . S
C1296 H1315 0.930 . S
C1297 C1300 1.424 . S
C1297 C1302 1.245 . S
C1297 C1303 1.428 . S
C1298 C1301 1.260 . S
C1298 C1302 1.477 . S
C1298 H1316 0.932 . S
C1299 C1300 1.384 . S
C1299 C1301 1.479 . S
C1299 H1317 0.929 . S
C1300 C1297 1.424 . S
C1300 C1299 1.384 . S
C1300 H1318 0.928 . S
C1301 C1298 1.260 . S
C1301 C1299 1.479 . S
C1302 C1297 1.245 . S
C1302 C1298 1.477 . S
C1302 H1319 0.932 . S
C1303 U1286 2.882 . S
C1303 C1297 1.428 . S
C1303 O1306 1.301 . S
C1303 O1307 1.282 . S
O1304 U1286 2.441 . S
O1304 C1290 1.249 . S
O1305 U1286 2.420 . S
O1305 C1290 1.202 . S
O1306 U1286 2.455 . S
O1306 C1303 1.301 . S
O1307 U1286 2.449 . S
O1307 C1303 1.282 . S
H1308 C1281 0.931 . S
H1309 C1283 0.929 . S
H1310 C1284 0.930 . S
H1311 C1285 0.931 . S
H1312 C1292 0.932 . S
H1313 C1293 0.930 . S
H1314 C1294 0.929 . S
H1315 C1296 0.930 . S
H1316 C1298 0.932 . S
H1317 C1299 0.929 . S
H1318 C1300 0.928 . S
H1319 C1302 0.932 . S
C1320 C1321 1.264 . S
C1320 C1325 1.479 . S
C1320 C1330 1.465 . S
C1321 C1320 1.264 . S
C1321 C1323 1.339 . S
C1321 H1348 0.931 . S
C1322 C1323 1.395 . S
C1322 C1324 1.320 . S
C1323 C1321 1.339 . S
C1323 C1322 1.395 . S
C1323 H1349 0.929 . S
C1324 C1322 1.320 . S
C1324 C1325 1.405 . S
C1324 H1350 0.930 . S
C1325 C1320 1.479 . S
C1325 C1324 1.405 . S
C1325 H1351 0.931 . S
U1326 O1327 2.454 . S
U1326 O1328 2.458 . S
U1326 C1329 2.984 . S
U1326 C1330 2.847 . S
U1326 C1343 2.882 . S
U1326 O1344 2.441 . S
U1326 O1345 2.420 . S
U1326 O1346 2.455 . S
U1326 O1347 2.449 . S
O1327 U1326 2.454 . S
O1327 C1329 1.353 . S
O1328 U1326 2.458 . S
O1328 C1329 1.286 . S
C1329 U1326 2.984 . S
C1329 O1327 1.353 . S
C1329 O1328 1.286 . S
C1329 C1331 1.363 . S
C1330 C1320 1.465 . S
C1330 U1326 2.847 . S
C1330 O1344 1.249 . S
C1330 O1345 1.202 . S
C1331 C1329 1.363 . S
C1331 C1333 1.408 . S
C1331 C1336 1.342 . S
C1332 C1333 1.310 . S
C1332 C1335 1.461 . S
C1332 H1352 0.932 . S
C1333 C1331 1.408 . S
C1333 C1332 1.310 . S
C1333 H1353 0.930 . S
C1334 C1335 1.474 . S
C1334 C1336 1.285 . S
C1334 H1354 0.929 . S
C1335 C1332 1.461 . S
C1335 C1334 1.474 . S
C1336 C1331 1.342 . S
C1336 C1334 1.285 . S
C1336 H1355 0.930 . S
C1337 C1340 1.424 . S
C1337 C1342 1.245 . S
C1337 C1343 1.428 . S
C1338 C1341 1.260 . S
C1338 C1342 1.477 . S
C1338 H1356 0.932 . S
C1339 C1340 1.384 . S
C1339 C1341 1.479 . S
C1339 H1357 0.929 . S
C1340 C1337 1.424 . S
C1340 C1339 1.384 . S
C1340 H1358 0.928 . S
C1341 C1338 1.260 . S
C1341 C1339 1.479 . S
C1342 C1337 1.245 . S
C1342 C1338 1.477 . S
C1342 H1359 0.932 . S
C1343 U1326 2.882 . S
C1343 C1337 1.428 . S
C1343 O1346 1.301 . S
C1343 O1347 1.282 . S
O1344 U1326 2.441 . S
O1344 C1330 1.249 . S
O1345 U1326 2.420 . S
O1345 C1330 1.202 . S
O1346 U1326 2.455 . S
O1346 C1343 1.301 . S
O1347 U1326 2.449 . S
O1347 C1343 1.282 . S
H1348 C1321 0.931 . S
H1349 C1323 0.929 . S
H1350 C1324 0.930 . S
H1351 C1325 0.931 . S
H1352 C1332 0.932 . S
H1353 C1333 0.930 . S
H1354 C1334 0.929 . S
H1355 C1336 0.930 . S
H1356 C1338 0.932 . S
H1357 C1339 0.929 . S
H1358 C1340 0.928 . S
H1359 C1342 0.932 . S
C1360 C1361 1.264 . S
C1360 C1365 1.479 . S
C1360 C1370 1.465 . S
C1361 C1360 1.264 . S
C1361 C1363 1.339 . S
C1361 H1388 0.931 . S
C1362 C1363 1.395 . S
C1362 C1364 1.320 . S
C1363 C1361 1.339 . S
C1363 C1362 1.395 . S
C1363 H1389 0.929 . S
C1364 C1362 1.320 . S
C1364 C1365 1.405 . S
C1364 H1390 0.930 . S
C1365 C1360 1.479 . S
C1365 C1364 1.405 . S
C1365 H1391 0.931 . S
U1366 O1367 2.454 . S
U1366 O1368 2.458 . S
U1366 C1369 2.984 . S
U1366 C1370 2.847 . S
U1366 C1383 2.882 . S
U1366 O1384 2.441 . S
U1366 O1385 2.420 . S
U1366 O1386 2.455 . S
U1366 O1387 2.449 . S
O1367 U1366 2.454 . S
O1367 C1369 1.353 . S
O1368 U1366 2.458 . S
O1368 C1369 1.286 . S
C1369 U1366 2.984 . S
C1369 O1367 1.353 . S
C1369 O1368 1.286 . S
C1369 C1371 1.363 . S
C1370 C1360 1.465 . S
C1370 U1366 2.847 . S
C1370 O1384 1.249 . S
C1370 O1385 1.202 . S
C1371 C1369 1.363 . S
C1371 C1373 1.408 . S
C1371 C1376 1.342 . S
C1372 C1373 1.310 . S
C1372 C1375 1.461 . S
C1372 H1392 0.932 . S
C1373 C1371 1.408 . S
C1373 C1372 1.310 . S
C1373 H1393 0.930 . S
C1374 C1375 1.474 . S
C1374 C1376 1.285 . S
C1374 H1394 0.929 . S
C1375 C1372 1.461 . S
C1375 C1374 1.474 . S
C1376 C1371 1.342 . S
C1376 C1374 1.285 . S
C1376 H1395 0.930 . S
C1377 C1380 1.424 . S
C1377 C1382 1.245 . S
C1377 C1383 1.428 . S
C1378 C1381 1.260 . S
C1378 C1382 1.477 . S
C1378 H1396 0.932 . S
C1379 C1380 1.384 . S
C1379 C1381 1.479 . S
C1379 H1397 0.929 . S
C1380 C1377 1.424 . S
C1380 C1379 1.384 . S
C1380 H1398 0.928 . S
C1381 C1378 1.260 . S
C1381 C1379 1.479 . S
C1382 C1377 1.245 . S
C1382 C1378 1.477 . S
C1382 H1399 0.932 . S
C1383 U1366 2.882 . S
C1383 C1377 1.428 . S
C1383 O1386 1.301 . S
C1383 O1387 1.282 . S
O1384 U1366 2.441 . S
O1384 C1370 1.249 . S
O1385 U1366 2.420 . S
O1385 C1370 1.202 . S
O1386 U1366 2.455 . S
O1386 C1383 1.301 . S
O1387 U1366 2.449 . S
O1387 C1383 1.282 . S
H1388 C1361 0.931 . S
H1389 C1363 0.929 . S
H1390 C1364 0.930 . S
H1391 C1365 0.931 . S
H1392 C1372 0.932 . S
H1393 C1373 0.930 . S
H1394 C1374 0.929 . S
H1395 C1376 0.930 . S
H1396 C1378 0.932 . S
H1397 C1379 0.929 . S
H1398 C1380 0.928 . S
H1399 C1382 0.932 . S
C1400 C1401 1.264 . S
C1400 C1405 1.479 . S
C1400 C1410 1.465 . S
C1401 C1400 1.264 . S
C1401 C1403 1.339 . S
C1401 H1428 0.931 . S
C1402 C1403 1.395 . S
C1402 C1404 1.320 . S
C1403 C1401 1.339 . S
C1403 C1402 1.395 . S
C1403 H1429 0.929 . S
C1404 C1402 1.320 . S
C1404 C1405 1.405 . S
C1404 H1430 0.930 . S
C1405 C1400 1.479 . S
C1405 C1404 1.405 . S
C1405 H1431 0.931 . S
U1406 O1407 2.454 . S
U1406 O1408 2.458 . S
U1406 C1409 2.984 . S
U1406 C1410 2.847 . S
U1406 C1423 2.882 . S
U1406 O1424 2.441 . S
U1406 O1425 2.420 . S
U1406 O1426 2.455 . S
U1406 O1427 2.449 . S
O1407 U1406 2.454 . S
O1407 C1409 1.353 . S
O1408 U1406 2.458 . S
O1408 C1409 1.286 . S
C1409 U1406 2.984 . S
C1409 O1407 1.353 . S
C1409 O1408 1.286 . S
C1409 C1411 1.363 . S
C1410 C1400 1.465 . S
C1410 U1406 2.847 . S
C1410 O1424 1.249 . S
C1410 O1425 1.202 . S
C1411 C1409 1.363 . S
C1411 C1413 1.408 . S
C1411 C1416 1.342 . S
C1412 C1413 1.310 . S
C1412 C1415 1.461 . S
C1412 H1432 0.932 . S
C1413 C1411 1.408 . S
C1413 C1412 1.310 . S
C1413 H1433 0.930 . S
C1414 C1415 1.474 . S
C1414 C1416 1.285 . S
C1414 H1434 0.929 . S
C1415 C1412 1.461 . S
C1415 C1414 1.474 . S
C1416 C1411 1.342 . S
C1416 C1414 1.285 . S
C1416 H1435 0.930 . S
C1417 C1420 1.424 . S
C1417 C1422 1.245 . S
C1417 C1423 1.428 . S
C1418 C1421 1.260 . S
C1418 C1422 1.477 . S
C1418 H1436 0.932 . S
C1419 C1420 1.384 . S
C1419 C1421 1.479 . S
C1419 H1437 0.929 . S
C1420 C1417 1.424 . S
C1420 C1419 1.384 . S
C1420 H1438 0.928 . S
C1421 C1418 1.260 . S
C1421 C1419 1.479 . S
C1422 C1417 1.245 . S
C1422 C1418 1.477 . S
C1422 H1439 0.932 . S
C1423 U1406 2.882 . S
C1423 C1417 1.428 . S
C1423 O1426 1.301 . S
C1423 O1427 1.282 . S
O1424 U1406 2.441 . S
O1424 C1410 1.249 . S
O1425 U1406 2.420 . S
O1425 C1410 1.202 . S
O1426 U1406 2.455 . S
O1426 C1423 1.301 . S
O1427 U1406 2.449 . S
O1427 C1423 1.282 . S
H1428 C1401 0.931 . S
H1429 C1403 0.929 . S
H1430 C1404 0.930 . S
H1431 C1405 0.931 . S
H1432 C1412 0.932 . S
H1433 C1413 0.930 . S
H1434 C1414 0.929 . S
H1435 C1416 0.930 . S
H1436 C1418 0.932 . S
H1437 C1419 0.929 . S
H1438 C1420 0.928 . S
H1439 C1422 0.932 . S
C1440 C1441 1.264 . S
C1440 C1445 1.479 . S
C1440 C1450 1.465 . S
C1441 C1440 1.264 . S
C1441 C1443 1.339 . S
C1441 H1468 0.931 . S
C1442 C1443 1.395 . S
C1442 C1444 1.320 . S
C1443 C1441 1.339 . S
C1443 C1442 1.395 . S
C1443 H1469 0.929 . S
C1444 C1442 1.320 . S
C1444 C1445 1.405 . S
C1444 H1470 0.930 . S
C1445 C1440 1.479 . S
C1445 C1444 1.405 . S
C1445 H1471 0.931 . S
U1446 O1447 2.454 . S
U1446 O1448 2.458 . S
U1446 C1449 2.984 . S
U1446 C1450 2.847 . S
U1446 C1463 2.882 . S
U1446 O1464 2.441 . S
U1446 O1465 2.420 . S
U1446 O1466 2.455 . S
U1446 O1467 2.449 . S
O1447 U1446 2.454 . S
O1447 C1449 1.353 . S
O1448 U1446 2.458 . S
O1448 C1449 1.286 . S
C1449 U1446 2.984 . S
C1449 O1447 1.353 . S
C1449 O1448 1.286 . S
C1449 C1451 1.363 . S
C1450 C1440 1.465 . S
C1450 U1446 2.847 . S
C1450 O1464 1.249 . S
C1450 O1465 1.202 . S
C1451 C1449 1.363 . S
C1451 C1453 1.408 . S
C1451 C1456 1.342 . S
C1452 C1453 1.310 . S
C1452 C1455 1.461 . S
C1452 H1472 0.932 . S
C1453 C1451 1.408 . S
C1453 C1452 1.310 . S
C1453 H1473 0.930 . S
C1454 C1455 1.474 . S
C1454 C1456 1.285 . S
C1454 H1474 0.929 . S
C1455 C1452 1.461 . S
C1455 C1454 1.474 . S
C1456 C1451 1.342 . S
C1456 C1454 1.285 . S
C1456 H1475 0.930 . S
C1457 C1460 1.424 . S
C1457 C1462 1.245 . S
C1457 C1463 1.428 . S
C1458 C1461 1.260 . S
C1458 C1462 1.477 . S
C1458 H1476 0.932 . S
C1459 C1460 1.384 . S
C1459 C1461 1.479 . S
C1459 H1477 0.929 . S
C1460 C1457 1.424 . S
C1460 C1459 1.384 . S
C1460 H1478 0.928 . S
C1461 C1458 1.260 . S
C1461 C1459 1.479 . S
C1462 C1457 1.245 . S
C1462 C1458 1.477 . S
C1462 H1479 0.932 . S
C1463 U1446 2.882 . S
C1463 C1457 1.428 . S
C1463 O1466 1.301 . S
C1463 O1467 1.282 . S
O1464 U1446 2.441 . S
O1464 C1450 1.249 . S
O1465 U1446 2.420 . S
O1465 C1450 1.202 . S
O1466 U1446 2.455 . S
O1466 C1463 1.301 . S
O1467 U1446 2.449 . S
O1467 C1463 1.282 . S
H1468 C1441 0.931 . S
H1469 C1443 0.929 . S
H1470 C1444 0.930 . S
H1471 C1445 0.931 . S
H1472 C1452 0.932 . S
H1473 C1453 0.930 . S
H1474 C1454 0.929 . S
H1475 C1456 0.930 . S
H1476 C1458 0.932 . S
H1477 C1459 0.929 . S
H1478 C1460 0.928 . S
H1479 C1462 0.932 . S
C1480 C1481 1.264 . S
C1480 C1485 1.479 . S
C1480 C1490 1.465 . S
C1481 C1480 1.264 . S
C1481 C1483 1.339 . S
C1481 H1508 0.931 . S
C1482 C1483 1.395 . S
C1482 C1484 1.320 . S
C1483 C1481 1.339 . S
C1483 C1482 1.395 . S
C1483 H1509 0.929 . S
C1484 C1482 1.320 . S
C1484 C1485 1.405 . S
C1484 H1510 0.930 . S
C1485 C1480 1.479 . S
C1485 C1484 1.405 . S
C1485 H1511 0.931 . S
U1486 O1487 2.454 . S
U1486 O1488 2.458 . S
U1486 C1489 2.984 . S
U1486 C1490 2.847 . S
U1486 C1503 2.882 . S
U1486 O1504 2.441 . S
U1486 O1505 2.420 . S
U1486 O1506 2.455 . S
U1486 O1507 2.449 . S
O1487 U1486 2.454 . S
O1487 C1489 1.353 . S
O1488 U1486 2.458 . S
O1488 C1489 1.286 . S
C1489 U1486 2.984 . S
C1489 O1487 1.353 . S
C1489 O1488 1.286 . S
C1489 C1491 1.363 . S
C1490 C1480 1.465 . S
C1490 U1486 2.847 . S
C1490 O1504 1.249 . S
C1490 O1505 1.202 . S
C1491 C1489 1.363 . S
C1491 C1493 1.408 . S
C1491 C1496 1.342 . S
C1492 C1493 1.310 . S
C1492 C1495 1.461 . S
C1492 H1512 0.932 . S
C1493 C1491 1.408 . S
C1493 C1492 1.310 . S
C1493 H1513 0.930 . S
C1494 C1495 1.474 . S
C1494 C1496 1.285 . S
C1494 H1514 0.929 . S
C1495 C1492 1.461 . S
C1495 C1494 1.474 . S
C1496 C1491 1.342 . S
C1496 C1494 1.285 . S
C1496 H1515 0.930 . S
C1497 C1500 1.424 . S
C1497 C1502 1.245 . S
C1497 C1503 1.428 . S
C1498 C1501 1.260 . S
C1498 C1502 1.477 . S
C1498 H1516 0.932 . S
C1499 C1500 1.384 . S
C1499 C1501 1.479 . S
C1499 H1517 0.929 . S
C1500 C1497 1.424 . S
C1500 C1499 1.384 . S
C1500 H1518 0.928 . S
C1501 C1498 1.260 . S
C1501 C1499 1.479 . S
C1502 C1497 1.245 . S
C1502 C1498 1.477 . S
C1502 H1519 0.932 . S
C1503 U1486 2.882 . S
C1503 C1497 1.428 . S
C1503 O1506 1.301 . S
C1503 O1507 1.282 . S
O1504 U1486 2.441 . S
O1504 C1490 1.249 . S
O1505 U1486 2.420 . S
O1505 C1490 1.202 . S
O1506 U1486 2.455 . S
O1506 C1503 1.301 . S
O1507 U1486 2.449 . S
O1507 C1503 1.282 . S
H1508 C1481 0.931 . S
H1509 C1483 0.929 . S
H1510 C1484 0.930 . S
H1511 C1485 0.931 . S
H1512 C1492 0.932 . S
H1513 C1493 0.930 . S
H1514 C1494 0.929 . S
H1515 C1496 0.930 . S
H1516 C1498 0.932 . S
H1517 C1499 0.929 . S
H1518 C1500 0.928 . S
H1519 C1502 0.932 . S
C1520 C1521 1.264 . S
C1520 C1525 1.479 . S
C1520 C1530 1.465 . S
C1521 C1520 1.264 . S
C1521 C1523 1.339 . S
C1521 H1548 0.931 . S
C1522 C1523 1.395 . S
C1522 C1524 1.320 . S
C1523 C1521 1.339 . S
C1523 C1522 1.395 . S
C1523 H1549 0.929 . S
C1524 C1522 1.320 . S
C1524 C1525 1.405 . S
C1524 H1550 0.930 . S
C1525 C1520 1.479 . S
C1525 C1524 1.405 . S
C1525 H1551 0.931 . S
U1526 O1527 2.454 . S
U1526 O1528 2.458 . S
U1526 C1529 2.984 . S
U1526 C1530 2.847 . S
U1526 C1543 2.882 . S
U1526 O1544 2.441 . S
U1526 O1545 2.420 . S
U1526 O1546 2.455 . S
U1526 O1547 2.449 . S
O1527 U1526 2.454 . S
O1527 C1529 1.353 . S
O1528 U1526 2.458 . S
O1528 C1529 1.286 . S
C1529 U1526 2.984 . S
C1529 O1527 1.353 . S
C1529 O1528 1.286 . S
C1529 C1531 1.363 . S
C1530 C1520 1.465 . S
C1530 U1526 2.847 . S
C1530 O1544 1.249 . S
C1530 O1545 1.202 . S
C1531 C1529 1.363 . S
C1531 C1533 1.408 . S
C1531 C1536 1.342 . S
C1532 C1533 1.310 . S
C1532 C1535 1.461 . S
C1532 H1552 0.932 . S
C1533 C1531 1.408 . S
C1533 C1532 1.310 . S
C1533 H1553 0.930 . S
C1534 C1535 1.474 . S
C1534 C1536 1.285 . S
C1534 H1554 0.929 . S
C1535 C1532 1.461 . S
C1535 C1534 1.474 . S
C1536 C1531 1.342 . S
C1536 C1534 1.285 . S
C1536 H1555 0.930 . S
C1537 C1540 1.424 . S
C1537 C1542 1.245 . S
C1537 C1543 1.428 . S
C1538 C1541 1.260 . S
C1538 C1542 1.477 . S
C1538 H1556 0.932 . S
C1539 C1540 1.384 . S
C1539 C1541 1.479 . S
C1539 H1557 0.929 . S
C1540 C1537 1.424 . S
C1540 C1539 1.384 . S
C1540 H1558 0.928 . S
C1541 C1538 1.260 . S
C1541 C1539 1.479 . S
C1542 C1537 1.245 . S
C1542 C1538 1.477 . S
C1542 H1559 0.932 . S
C1543 U1526 2.882 . S
C1543 C1537 1.428 . S
C1543 O1546 1.301 . S
C1543 O1547 1.282 . S
O1544 U1526 2.441 . S
O1544 C1530 1.249 . S
O1545 U1526 2.420 . S
O1545 C1530 1.202 . S
O1546 U1526 2.455 . S
O1546 C1543 1.301 . S
O1547 U1526 2.449 . S
O1547 C1543 1.282 . S
H1548 C1521 0.931 . S
H1549 C1523 0.929 . S
H1550 C1524 0.930 . S
H1551 C1525 0.931 . S
H1552 C1532 0.932 . S
H1553 C1533 0.930 . S
H1554 C1534 0.929 . S
H1555 C1536 0.930 . S
H1556 C1538 0.932 . S
H1557 C1539 0.929 . S
H1558 C1540 0.928 . S
H1559 C1542 0.932 . S
C1560 C1561 1.264 . S
C1560 C1565 1.479 . S
C1560 C1570 1.465 . S
C1561 C1560 1.264 . S
C1561 C1563 1.339 . S
C1561 H1588 0.931 . S
C1562 C1563 1.395 . S
C1562 C1564 1.320 . S
C1563 C1561 1.339 . S
C1563 C1562 1.395 . S
C1563 H1589 0.929 . S
C1564 C1562 1.320 . S
C1564 C1565 1.405 . S
C1564 H1590 0.930 . S
C1565 C1560 1.479 . S
C1565 C1564 1.405 . S
C1565 H1591 0.931 . S
U1566 O1567 2.454 . S
U1566 O1568 2.458 . S
U1566 C1569 2.984 . S
U1566 C1570 2.847 . S
U1566 C1583 2.882 . S
U1566 O1584 2.441 . S
U1566 O1585 2.420 . S
U1566 O1586 2.455 . S
U1566 O1587 2.449 . S
O1567 U1566 2.454 . S
O1567 C1569 1.353 . S
O1568 U1566 2.458 . S
O1568 C1569 1.286 . S
C1569 U1566 2.984 . S
C1569 O1567 1.353 . S
C1569 O1568 1.286 . S
C1569 C1571 1.363 . S
C1570 C1560 1.465 . S
C1570 U1566 2.847 . S
C1570 O1584 1.249 . S
C1570 O1585 1.202 . S
C1571 C1569 1.363 . S
C1571 C1573 1.408 . S
C1571 C1576 1.342 . S
C1572 C1573 1.310 . S
C1572 C1575 1.461 . S
C1572 H1592 0.932 . S
C1573 C1571 1.408 . S
C1573 C1572 1.310 . S
C1573 H1593 0.930 . S
C1574 C1575 1.474 . S
C1574 C1576 1.285 . S
C1574 H1594 0.929 . S
C1575 C1572 1.461 . S
C1575 C1574 1.474 . S
C1576 C1571 1.342 . S
C1576 C1574 1.285 . S
C1576 H1595 0.930 . S
C1577 C1580 1.424 . S
C1577 C1582 1.245 . S
C1577 C1583 1.428 . S
C1578 C1581 1.260 . S
C1578 C1582 1.477 . S
C1578 H1596 0.932 . S
C1579 C1580 1.384 . S
C1579 C1581 1.479 . S
C1579 H1597 0.929 . S
C1580 C1577 1.424 . S
C1580 C1579 1.384 . S
C1580 H1598 0.928 . S
C1581 C1578 1.260 . S
C1581 C1579 1.479 . S
C1582 C1577 1.245 . S
C1582 C1578 1.477 . S
C1582 H1599 0.932 . S
C1583 U1566 2.882 . S
C1583 C1577 1.428 . S
C1583 O1586 1.301 . S
C1583 O1587 1.282 . S
O1584 U1566 2.441 . S
O1584 C1570 1.249 . S
O1585 U1566 2.420 . S
O1585 C1570 1.202 . S
O1586 U1566 2.455 . S
O1586 C1583 1.301 . S
O1587 U1566 2.449 . S
O1587 C1583 1.282 . S
H1588 C1561 0.931 . S
H1589 C1563 0.929 . S
H1590 C1564 0.930 . S
H1591 C1565 0.931 . S
H1592 C1572 0.932 . S
H1593 C1573 0.930 . S
H1594 C1574 0.929 . S
H1595 C1576 0.930 . S
H1596 C1578 0.932 . S
H1597 C1579 0.929 . S
H1598 C1580 0.928 . S
H1599 C1582 0.932 . S
C1600 C1601 1.264 . S
C1600 C1605 1.479 . S
C1600 C1610 1.465 . S
C1601 C1600 1.264 . S
C1601 C1603 1.339 . S
C1601 H1628 0.931 . S
C1602 C1603 1.395 . S
C1602 C1604 1.320 . S
C1603 C1601 1.339 . S
C1603 C1602 1.395 . S
C1603 H1629 0.929 . S
C1604 C1602 1.320 . S
C1604 C1605 1.405 . S
C1604 H1630 0.930 . S
C1605 C1600 1.479 . S
C1605 C1604 1.405 . S
C1605 H1631 0.931 . S
U1606 O1607 2.454 . S
U1606 O1608 2.458 . S
U1606 C1609 2.984 . S
U1606 C1610 2.847 . S
U1606 C1623 2.882 . S
U1606 O1624 2.441 . S
U1606 O1625 2.420 . S
U1606 O1626 2.455 . S
U1606 O1627 2.449 . S
O1607 U1606 2.454 . S
O1607 C1609 1.353 . S
O1608 U1606 2.458 . S
O1608 C1609 1.286 . S
C1609 U1606 2.984 . S
C1609 O1607 1.353 . S
C1609 O1608 1.286 . S
C1609 C1611 1.363 . S
C1610 C1600 1.465 . S
C1610 U1606 2.847 . S
C1610 O1624 1.249 . S
C1610 O1625 1.202 . S
C1611 C1609 1.363 . S
C1611 C1613 1.408 . S
C1611 C1616 1.342 . S
C1612 C1613 1.310 . S
C1612 C1615 1.461 . S
C1612 H1632 0.932 . S
C1613 C1611 1.408 . S
C1613 C1612 1.310 . S
C1613 H1633 0.930 . S
C1614 C1615 1.474 . S
C1614 C1616 1.285 . S
C1614 H1634 0.929 . S
C1615 C1612 1.461 . S
C1615 C1614 1.474 . S
C1616 C1611 1.342 . S
C1616 C1614 1.285 . S
C1616 H1635 0.930 . S
C1617 C1620 1.424 . S
C1617 C1622 1.245 . S
C1617 C1623 1.428 . S
C1618 C1621 1.260 . S
C1618 C1622 1.477 . S
C1618 H1636 0.932 . S
C1619 C1620 1.384 . S
C1619 C1621 1.479 . S
C1619 H1637 0.929 . S
C1620 C1617 1.424 . S
C1620 C1619 1.384 . S
C1620 H1638 0.928 . S
C1621 C1618 1.260 . S
C1621 C1619 1.479 . S
C1622 C1617 1.245 . S
C1622 C1618 1.477 . S
C1622 H1639 0.932 . S
C1623 U1606 2.882 . S
C1623 C1617 1.428 . S
C1623 O1626 1.301 . S
C1623 O1627 1.282 . S
O1624 U1606 2.441 . S
O1624 C1610 1.249 . S
O1625 U1606 2.420 . S
O1625 C1610 1.202 . S
O1626 U1606 2.455 . S
O1626 C1623 1.301 . S
O1627 U1606 2.449 . S
O1627 C1623 1.282 . S
H1628 C1601 0.931 . S
H1629 C1603 0.929 . S
H1630 C1604 0.930 . S
H1631 C1605 0.931 . S
H1632 C1612 0.932 . S
H1633 C1613 0.930 . S
H1634 C1614 0.929 . S
H1635 C1616 0.930 . S
H1636 C1618 0.932 . S
H1637 C1619 0.929 . S
H1638 C1620 0.928 . S
H1639 C1622 0.932 . S
C1640 C1641 1.264 . S
C1640 C1645 1.479 . S
C1640 C1650 1.465 . S
C1641 C1640 1.264 . S
C1641 C1643 1.339 . S
C1641 H1668 0.931 . S
C1642 C1643 1.395 . S
C1642 C1644 1.320 . S
C1643 C1641 1.339 . S
C1643 C1642 1.395 . S
C1643 H1669 0.929 . S
C1644 C1642 1.320 . S
C1644 C1645 1.405 . S
C1644 H1670 0.930 . S
C1645 C1640 1.479 . S
C1645 C1644 1.405 . S
C1645 H1671 0.931 . S
U1646 O1647 2.454 . S
U1646 O1648 2.458 . S
U1646 C1649 2.984 . S
U1646 C1650 2.847 . S
U1646 C1663 2.882 . S
U1646 O1664 2.441 . S
U1646 O1665 2.420 . S
U1646 O1666 2.455 . S
U1646 O1667 2.449 . S
O1647 U1646 2.454 . S
O1647 C1649 1.353 . S
O1648 U1646 2.458 . S
O1648 C1649 1.286 . S
C1649 U1646 2.984 . S
C1649 O1647 1.353 . S
C1649 O1648 1.286 . S
C1649 C1651 1.363 . S
C1650 C1640 1.465 . S
C1650 U1646 2.847 . S
C1650 O1664 1.249 . S
C1650 O1665 1.202 . S
C1651 C1649 1.363 . S
C1651 C1653 1.408 . S
C1651 C1656 1.342 . S
C1652 C1653 1.310 . S
C1652 C1655 1.461 . S
C1652 H1672 0.932 . S
C1653 C1651 1.408 . S
C1653 C1652 1.310 . S
C1653 H1673 0.930 . S
C1654 C1655 1.474 . S
C1654 C1656 1.285 . S
C1654 H1674 0.929 . S
C1655 C1652 1.461 . S
C1655 C1654 1.474 . S
C1656 C1651 1.342 . S
C1656 C1654 1.285 . S
C1656 H1675 0.930 . S
C1657 C1660 1.424 . S
C1657 C1662 1.245 . S
C1657 C1663 1.428 . S
C1658 C1661 1.260 . S
C1658 C1662 1.477 . S
C1658 H1676 0.932 . S
C1659 C1660 1.384 . S
C1659 C1661 1.479 . S
C1659 H1677 0.929 . S
C1660 C1657 1.424 . S
C1660 C1659 1.384 . S
C1660 H1678 0.928 . S
C1661 C1658 1.260 . S
C1661 C1659 1.479 . S
C1662 C1657 1.245 . S
C1662 C1658 1.477 . S
C1662 H1679 0.932 . S
C1663 U1646 2.882 . S
C1663 C1657 1.428 . S
C1663 O1666 1.301 . S
C1663 O1667 1.282 . S
O1664 U1646 2.441 . S
O1664 C1650 1.249 . S
O1665 U1646 2.420 . S
O1665 C1650 1.202 . S
O1666 U1646 2.455 . S
O1666 C1663 1.301 . S
O1667 U1646 2.449 . S
O1667 C1663 1.282 . S
H1668 C1641 0.931 . S
H1669 C1643 0.929 . S
H1670 C1644 0.930 . S
H1671 C1645 0.931 . S
H1672 C1652 0.932 . S
H1673 C1653 0.930 . S
H1674 C1654 0.929 . S
H1675 C1656 0.930 . S
H1676 C1658 0.932 . S
H1677 C1659 0.929 . S
H1678 C1660 0.928 . S
H1679 C1662 0.932 . S
C1680 C1681 1.264 . S
C1680 C1685 1.479 . S
C1680 C1690 1.465 . S
C1681 C1680 1.264 . S
C1681 C1683 1.339 . S
C1681 H1708 0.931 . S
C1682 C1683 1.395 . S
C1682 C1684 1.320 . S
C1683 C1681 1.339 . S
C1683 C1682 1.395 . S
C1683 H1709 0.929 . S
C1684 C1682 1.320 . S
C1684 C1685 1.405 . S
C1684 H1710 0.930 . S
C1685 C1680 1.479 . S
C1685 C1684 1.405 . S
C1685 H1711 0.931 . S
U1686 O1687 2.454 . S
U1686 O1688 2.458 . S
U1686 C1689 2.984 . S
U1686 C1690 2.847 . S
U1686 C1703 2.882 . S
U1686 O1704 2.441 . S
U1686 O1705 2.420 . S
U1686 O1706 2.455 . S
U1686 O1707 2.449 . S
O1687 U1686 2.454 . S
O1687 C1689 1.353 . S
O1688 U1686 2.458 . S
O1688 C1689 1.286 . S
C1689 U1686 2.984 . S
C1689 O1687 1.353 . S
C1689 O1688 1.286 . S
C1689 C1691 1.363 . S
C1690 C1680 1.465 . S
C1690 U1686 2.847 . S
C1690 O1704 1.249 . S
C1690 O1705 1.202 . S
C1691 C1689 1.363 . S
C1691 C1693 1.408 . S
C1691 C1696 1.342 . S
C1692 C1693 1.310 . S
C1692 C1695 1.461 . S
C1692 H1712 0.932 . S
C1693 C1691 1.408 . S
C1693 C1692 1.310 . S
C1693 H1713 0.930 . S
C1694 C1695 1.474 . S
C1694 C1696 1.285 . S
C1694 H1714 0.929 . S
C1695 C1692 1.461 . S
C1695 C1694 1.474 . S
C1696 C1691 1.342 . S
C1696 C1694 1.285 . S
C1696 H1715 0.930 . S
C1697 C1700 1.424 . S
C1697 C1702 1.245 . S
C1697 C1703 1.428 . S
C1698 C1701 1.260 . S
C1698 C1702 1.477 . S
C1698 H1716 0.932 . S
C1699 C1700 1.384 . S
C1699 C1701 1.479 . S
C1699 H1717 0.929 . S
C1700 C1697 1.424 . S
C1700 C1699 1.384 . S
C1700 H1718 0.928 . S
C1701 C1698 1.260 . S
C1701 C1699 1.479 . S
C1702 C1697 1.245 . S
C1702 C1698 1.477 . S
C1702 H1719 0.932 . S
C1703 U1686 2.882 . S
C1703 C1697 1.428 . S
C1703 O1706 1.301 . S
C1703 O1707 1.282 . S
O1704 U1686 2.441 . S
O1704 C1690 1.249 . S
O1705 U1686 2.420 . S
O1705 C1690 1.202 . S
O1706 U1686 2.455 . S
O1706 C1703 1.301 . S
O1707 U1686 2.449 . S
O1707 C1703 1.282 . S
H1708 C1681 0.931 . S
H1709 C1683 0.929 . S
H1710 C1684 0.930 . S
H1711 C1685 0.931 . S
H1712 C1692 0.932 . S
H1713 C1693 0.930 . S
H1714 C1694 0.929 . S
H1715 C1696 0.930 . S
H1716 C1698 0.932 . S
H1717 C1699 0.929 . S
H1718 C1700 0.928 . S
H1719 C1702 0.932 . S
C1720 C1721 1.264 . S
C1720 C1725 1.479 . S
C1720 C1730 1.465 . S
C1721 C1720 1.264 . S
C1721 C1723 1.339 . S
C1721 H1748 0.931 . S
C1722 C1723 1.395 . S
C1722 C1724 1.320 . S
C1723 C1721 1.339 . S
C1723 C1722 1.395 . S
C1723 H1749 0.929 . S
C1724 C1722 1.320 . S
C1724 C1725 1.405 . S
C1724 H1750 0.930 . S
C1725 C1720 1.479 . S
C1725 C1724 1.405 . S
C1725 H1751 0.931 . S
U1726 O1727 2.454 . S
U1726 O1728 2.458 . S
U1726 C1729 2.984 . S
U1726 C1730 2.847 . S
U1726 C1743 2.882 . S
U1726 O1744 2.441 . S
U1726 O1745 2.420 . S
U1726 O1746 2.455 . S
U1726 O1747 2.449 . S
O1727 U1726 2.454 . S
O1727 C1729 1.353 . S
O1728 U1726 2.458 . S
O1728 C1729 1.286 . S
C1729 U1726 2.984 . S
C1729 O1727 1.353 . S
C1729 O1728 1.286 . S
C1729 C1731 1.363 . S
C1730 C1720 1.465 . S
C1730 U1726 2.847 . S
C1730 O1744 1.249 . S
C1730 O1745 1.202 . S
C1731 C1729 1.363 . S
C1731 C1733 1.408 . S
C1731 C1736 1.342 . S
C1732 C1733 1.310 . S
C1732 C1735 1.461 . S
C1732 H1752 0.932 . S
C1733 C1731 1.408 . S
C1733 C1732 1.310 . S
C1733 H1753 0.930 . S
C1734 C1735 1.474 . S
C1734 C1736 1.285 . S
C1734 H1754 0.929 . S
C1735 C1732 1.461 . S
C1735 C1734 1.474 . S
C1736 C1731 1.342 . S
C1736 C1734 1.285 . S
C1736 H1755 0.930 . S
C1737 C1740 1.424 . S
C1737 C1742 1.245 . S
C1737 C1743 1.428 . S
C1738 C1741 1.260 . S
C1738 C1742 1.477 . S
C1738 H1756 0.932 . S
C1739 C1740 1.384 . S
C1739 C1741 1.479 . S
C1739 H1757 0.929 . S
C1740 C1737 1.424 . S
C1740 C1739 1.384 . S
C1740 H1758 0.928 . S
C1741 C1738 1.260 . S
C1741 C1739 1.479 . S
C1742 C1737 1.245 . S
C1742 C1738 1.477 . S
C1742 H1759 0.932 . S
C1743 U1726 2.882 . S
C1743 C1737 1.428 . S
C1743 O1746 1.301 . S
C1743 O1747 1.282 . S
O1744 U1726 2.441 . S
O1744 C1730 1.249 . S
O1745 U1726 2.420 . S
O1745 C1730 1.202 . S
O1746 U1726 2.455 . S
O1746 C1743 1.301 . S
O1747 U1726 2.449 . S
O1747 C1743 1.282 . S
H1748 C1721 0.931 . S
H1749 C1723 0.929 . S
H1750 C1724 0.930 . S
H1751 C1725 0.931 . S
H1752 C1732 0.932 . S
H1753 C1733 0.930 . S
H1754 C1734 0.929 . S
H1755 C1736 0.930 . S
H1756 C1738 0.932 . S
H1757 C1739 0.929 . S
H1758 C1740 0.928 . S
H1759 C1742 0.932 . S
C1760 C1761 1.264 . S
C1760 C1765 1.479 . S
C1760 C1770 1.465 . S
C1761 C1760 1.264 . S
C1761 C1763 1.339 . S
C1761 H1788 0.931 . S
C1762 C1763 1.395 . S
C1762 C1764 1.320 . S
C1763 C1761 1.339 . S
C1763 C1762 1.395 . S
C1763 H1789 0.929 . S
C1764 C1762 1.320 . S
C1764 C1765 1.405 . S
C1764 H1790 0.930 . S
C1765 C1760 1.479 . S
C1765 C1764 1.405 . S
C1765 H1791 0.931 . S
U1766 O1767 2.454 . S
U1766 O1768 2.458 . S
U1766 C1769 2.984 . S
U1766 C1770 2.847 . S
U1766 C1783 2.882 . S
U1766 O1784 2.441 . S
U1766 O1785 2.420 . S
U1766 O1786 2.455 . S
U1766 O1787 2.449 . S
O1767 U1766 2.454 . S
O1767 C1769 1.353 . S
O1768 U1766 2.458 . S
O1768 C1769 1.286 . S
C1769 U1766 2.984 . S
C1769 O1767 1.353 . S
C1769 O1768 1.286 . S
C1769 C1771 1.363 . S
C1770 C1760 1.465 . S
C1770 U1766 2.847 . S
C1770 O1784 1.249 . S
C1770 O1785 1.202 . S
C1771 C1769 1.363 . S
C1771 C1773 1.408 . S
C1771 C1776 1.342 . S
C1772 C1773 1.310 . S
C1772 C1775 1.461 . S
C1772 H1792 0.932 . S
C1773 C1771 1.408 . S
C1773 C1772 1.310 . S
C1773 H1793 0.930 . S
C1774 C1775 1.474 . S
C1774 C1776 1.285 . S
C1774 H1794 0.929 . S
C1775 C1772 1.461 . S
C1775 C1774 1.474 . S
C1776 C1771 1.342 . S
C1776 C1774 1.285 . S
C1776 H1795 0.930 . S
C1777 C1780 1.424 . S
C1777 C1782 1.245 . S
C1777 C1783 1.428 . S
C1778 C1781 1.260 . S
C1778 C1782 1.477 . S
C1778 H1796 0.932 . S
C1779 C1780 1.384 . S
C1779 C1781 1.479 . S
C1779 H1797 0.929 . S
C1780 C1777 1.424 . S
C1780 C1779 1.384 . S
C1780 H1798 0.928 . S
C1781 C1778 1.260 . S
C1781 C1779 1.479 . S
C1782 C1777 1.245 . S
C1782 C1778 1.477 . S
C1782 H1799 0.932 . S
C1783 U1766 2.882 . S
C1783 C1777 1.428 . S
C1783 O1786 1.301 . S
C1783 O1787 1.282 . S
O1784 U1766 2.441 . S
O1784 C1770 1.249 . S
O1785 U1766 2.420 . S
O1785 C1770 1.202 . S
O1786 U1766 2.455 . S
O1786 C1783 1.301 . S
O1787 U1766 2.449 . S
O1787 C1783 1.282 . S
H1788 C1761 0.931 . S
H1789 C1763 0.929 . S
H1790 C1764 0.930 . S
H1791 C1765 0.931 . S
H1792 C1772 0.932 . S
H1793 C1773 0.930 . S
H1794 C1774 0.929 . S
H1795 C1776 0.930 . S
H1796 C1778 0.932 . S
H1797 C1779 0.929 . S
H1798 C1780 0.928 . S
H1799 C1782 0.932 . S
C1800 C1801 1.264 . S
C1800 C1805 1.479 . S
C1800 C1810 1.465 . S
C1801 C1800 1.264 . S
C1801 C1803 1.339 . S
C1801 H1828 0.931 . S
C1802 C1803 1.395 . S
C1802 C1804 1.320 . S
C1803 C1801 1.339 . S
C1803 C1802 1.395 . S
C1803 H1829 0.929 . S
C1804 C1802 1.320 . S
C1804 C1805 1.405 . S
C1804 H1830 0.930 . S
C1805 C1800 1.479 . S
C1805 C1804 1.405 . S
C1805 H1831 0.931 . S
U1806 O1807 2.454 . S
U1806 O1808 2.458 . S
U1806 C1809 2.984 . S
U1806 C1810 2.847 . S
U1806 C1823 2.882 . S
U1806 O1824 2.441 . S
U1806 O1825 2.420 . S
U1806 O1826 2.455 . S
U1806 O1827 2.449 . S
O1807 U1806 2.454 . S
O1807 C1809 1.353 . S
O1808 U1806 2.458 . S
O1808 C1809 1.286 . S
C1809 U1806 2.984 . S
C1809 O1807 1.353 . S
C1809 O1808 1.286 . S
C1809 C1811 1.363 . S
C1810 C1800 1.465 . S
C1810 U1806 2.847 . S
C1810 O1824 1.249 . S
C1810 O1825 1.202 . S
C1811 C1809 1.363 . S
C1811 C1813 1.408 . S
C1811 C1816 1.342 . S
C1812 C1813 1.310 . S
C1812 C1815 1.461 . S
C1812 H1832 0.932 . S
C1813 C1811 1.408 . S
C1813 C1812 1.310 . S
C1813 H1833 0.930 . S
C1814 C1815 1.474 . S
C1814 C1816 1.285 . S
C1814 H1834 0.929 . S
C1815 C1812 1.461 . S
C1815 C1814 1.474 . S
C1816 C1811 1.342 . S
C1816 C1814 1.285 . S
C1816 H1835 0.930 . S
C1817 C1820 1.424 . S
C1817 C1822 1.245 . S
C1817 C1823 1.428 . S
C1818 C1821 1.260 . S
C1818 C1822 1.477 . S
C1818 H1836 0.932 . S
C1819 C1820 1.384 . S
C1819 C1821 1.479 . S
C1819 H1837 0.929 . S
C1820 C1817 1.424 . S
C1820 C1819 1.384 . S
C1820 H1838 0.928 . S
C1821 C1818 1.260 . S
C1821 C1819 1.479 . S
C1822 C1817 1.245 . S
C1822 C1818 1.477 . S
C1822 H1839 0.932 . S
C1823 U1806 2.882 . S
C1823 C1817 1.428 . S
C1823 O1826 1.301 . S
C1823 O1827 1.282 . S
O1824 U1806 2.441 . S
O1824 C1810 1.249 . S
O1825 U1806 2.420 . S
O1825 C1810 1.202 . S
O1826 U1806 2.455 . S
O1826 C1823 1.301 . S
O1827 U1806 2.449 . S
O1827 C1823 1.282 . S
H1828 C1801 0.931 . S
H1829 C1803 0.929 . S
H1830 C1804 0.930 . S
H1831 C1805 0.931 . S
H1832 C1812 0.932 . S
H1833 C1813 0.930 . S
H1834 C1814 0.929 . S
H1835 C1816 0.930 . S
H1836 C1818 0.932 . S
H1837 C1819 0.929 . S
H1838 C1820 0.928 . S
H1839 C1822 0.932 . S
C1840 C1841 1.264 . S
C1840 C1845 1.479 . S
C1840 C1850 1.465 . S
C1841 C1840 1.264 . S
C1841 C1843 1.339 . S
C1841 H1868 0.931 . S
C1842 C1843 1.395 . S
C1842 C1844 1.320 . S
C1843 C1841 1.339 . S
C1843 C1842 1.395 . S
C1843 H1869 0.929 . S
C1844 C1842 1.320 . S
C1844 C1845 1.405 . S
C1844 H1870 0.930 . S
C1845 C1840 1.479 . S
C1845 C1844 1.405 . S
C1845 H1871 0.931 . S
U1846 O1847 2.454 . S
U1846 O1848 2.458 . S
U1846 C1849 2.984 . S
U1846 C1850 2.847 . S
U1846 C1863 2.882 . S
U1846 O1864 2.441 . S
U1846 O1865 2.420 . S
U1846 O1866 2.455 . S
U1846 O1867 2.449 . S
O1847 U1846 2.454 . S
O1847 C1849 1.353 . S
O1848 U1846 2.458 . S
O1848 C1849 1.286 . S
C1849 U1846 2.984 . S
C1849 O1847 1.353 . S
C1849 O1848 1.286 . S
C1849 C1851 1.363 . S
C1850 C1840 1.465 . S
C1850 U1846 2.847 . S
C1850 O1864 1.249 . S
C1850 O1865 1.202 . S
C1851 C1849 1.363 . S
C1851 C1853 1.408 . S
C1851 C1856 1.342 . S
C1852 C1853 1.310 . S
C1852 C1855 1.461 . S
C1852 H1872 0.932 . S
C1853 C1851 1.408 . S
C1853 C1852 1.310 . S
C1853 H1873 0.930 . S
C1854 C1855 1.474 . S
C1854 C1856 1.285 . S
C1854 H1874 0.929 . S
C1855 C1852 1.461 . S
C1855 C1854 1.474 . S
C1856 C1851 1.342 . S
C1856 C1854 1.285 . S
C1856 H1875 0.930 . S
C1857 C1860 1.424 . S
C1857 C1862 1.245 . S
C1857 C1863 1.428 . S
C1858 C1861 1.260 . S
C1858 C1862 1.477 . S
C1858 H1876 0.932 . S
C1859 C1860 1.384 . S
C1859 C1861 1.479 . S
C1859 H1877 0.929 . S
C1860 C1857 1.424 . S
C1860 C1859 1.384 . S
C1860 H1878 0.928 . S
C1861 C1858 1.260 . S
C1861 C1859 1.479 . S
C1862 C1857 1.245 . S
C1862 C1858 1.477 . S
C1862 H1879 0.932 . S
C1863 U1846 2.882 . S
C1863 C1857 1.428 . S
C1863 O1866 1.301 . S
C1863 O1867 1.282 . S
O1864 U1846 2.441 . S
O1864 C1850 1.249 . S
O1865 U1846 2.420 . S
O1865 C1850 1.202 . S
O1866 U1846 2.455 . S
O1866 C1863 1.301 . S
O1867 U1846 2.449 . S
O1867 C1863 1.282 . S
H1868 C1841 0.931 . S
H1869 C1843 0.929 . S
H1870 C1844 0.930 . S
H1871 C1845 0.931 . S
H1872 C1852 0.932 . S
H1873 C1853 0.930 . S
H1874 C1854 0.929 . S
H1875 C1856 0.930 . S
H1876 C1858 0.932 . S
H1877 C1859 0.929 . S
H1878 C1860 0.928 . S
H1879 C1862 0.932 . S
C1880 C1881 1.264 . S
C1880 C1885 1.479 . S
C1880 C1890 1.465 . S
C1881 C1880 1.264 . S
C1881 C1883 1.339 . S
C1881 H1908 0.931 . S
C1882 C1883 1.395 . S
C1882 C1884 1.320 . S
C1883 C1881 1.339 . S
C1883 C1882 1.395 . S
C1883 H1909 0.929 . S
C1884 C1882 1.320 . S
C1884 C1885 1.405 . S
C1884 H1910 0.930 . S
C1885 C1880 1.479 . S
C1885 C1884 1.405 . S
C1885 H1911 0.931 . S
U1886 O1887 2.454 . S
U1886 O1888 2.458 . S
U1886 C1889 2.984 . S
U1886 C1890 2.847 . S
U1886 C1903 2.882 . S
U1886 O1904 2.441 . S
U1886 O1905 2.420 . S
U1886 O1906 2.455 . S
U1886 O1907 2.449 . S
O1887 U1886 2.454 . S
O1887 C1889 1.353 . S
O1888 U1886 2.458 . S
O1888 C1889 1.286 . S
C1889 U1886 2.984 . S
C1889 O1887 1.353 . S
C1889 O1888 1.286 . S
C1889 C1891 1.363 . S
C1890 C1880 1.465 . S
C1890 U1886 2.847 . S
C1890 O1904 1.249 . S
C1890 O1905 1.202 . S
C1891 C1889 1.363 . S
C1891 C1893 1.408 . S
C1891 C1896 1.342 . S
C1892 C1893 1.310 . S
C1892 C1895 1.461 . S
C1892 H1912 0.932 . S
C1893 C1891 1.408 . S
C1893 C1892 1.310 . S
C1893 H1913 0.930 . S
C1894 C1895 1.474 . S
C1894 C1896 1.285 . S
C1894 H1914 0.929 . S
C1895 C1892 1.461 . S
C1895 C1894 1.474 . S
C1896 C1891 1.342 . S
C1896 C1894 1.285 . S
C1896 H1915 0.930 . S
C1897 C1900 1.424 . S
C1897 C1902 1.245 . S
C1897 C1903 1.428 . S
C1898 C1901 1.260 . S
C1898 C1902 1.477 . S
C1898 H1916 0.932 . S
C1899 C1900 1.384 . S
C1899 C1901 1.479 . S
C1899 H1917 0.929 . S
C1900 C1897 1.424 . S
C1900 C1899 1.384 . S
C1900 H1918 0.928 . S
C1901 C1898 1.260 . S
C1901 C1899 1.479 . S
C1902 C1897 1.245 . S
C1902 C1898 1.477 . S
C1902 H1919 0.932 . S
C1903 U1886 2.882 . S
C1903 C1897 1.428 . S
C1903 O1906 1.301 . S
C1903 O1907 1.282 . S
O1904 U1886 2.441 . S
O1904 C1890 1.249 . S
O1905 U1886 2.420 . S
O1905 C1890 1.202 . S
O1906 U1886 2.455 . S
O1906 C1903 1.301 . S
O1907 U1886 2.449 . S
O1907 C1903 1.282 . S
H1908 C1881 0.931 . S
H1909 C1883 0.929 . S
H1910 C1884 0.930 . S
H1911 C1885 0.931 . S
H1912 C1892 0.932 . S
H1913 C1893 0.930 . S
H1914 C1894 0.929 . S
H1915 C1896 0.930 . S
H1916 C1898 0.932 . S
H1917 C1899 0.929 . S
H1918 C1900 0.928 . S
H1919 C1902 0.932 . S
C1920 C1921 1.264 . S
C1920 C1925 1.479 . S
C1920 C1930 1.465 . S
C1921 C1920 1.264 . S
C1921 C1923 1.339 . S
C1921 H1948 0.931 . S
C1922 C1923 1.395 . S
C1922 C1924 1.320 . S
C1923 C1921 1.339 . S
C1923 C1922 1.395 . S
C1923 H1949 0.929 . S
C1924 C1922 1.320 . S
C1924 C1925 1.405 . S
C1924 H1950 0.930 . S
C1925 C1920 1.479 . S
C1925 C1924 1.405 . S
C1925 H1951 0.931 . S
U1926 O1927 2.454 . S
U1926 O1928 2.458 . S
U1926 C1929 2.984 . S
U1926 C1930 2.847 . S
U1926 C1943 2.882 . S
U1926 O1944 2.441 . S
U1926 O1945 2.420 . S
U1926 O1946 2.455 . S
U1926 O1947 2.449 . S
O1927 U1926 2.454 . S
O1927 C1929 1.353 . S
O1928 U1926 2.458 . S
O1928 C1929 1.286 . S
C1929 U1926 2.984 . S
C1929 O1927 1.353 . S
C1929 O1928 1.286 . S
C1929 C1931 1.363 . S
C1930 C1920 1.465 . S
C1930 U1926 2.847 . S
C1930 O1944 1.249 . S
C1930 O1945 1.202 . S
C1931 C1929 1.363 . S
C1931 C1933 1.408 . S
C1931 C1936 1.342 . S
C1932 C1933 1.310 . S
C1932 C1935 1.461 . S
C1932 H1952 0.932 . S
C1933 C1931 1.408 . S
C1933 C1932 1.310 . S
C1933 H1953 0.930 . S
C1934 C1935 1.474 . S
C1934 C1936 1.285 . S
C1934 H1954 0.929 . S
C1935 C1932 1.461 . S
C1935 C1934 1.474 . S
C1936 C1931 1.342 . S
C1936 C1934 1.285 . S
C1936 H1955 0.930 . S
C1937 C1940 1.424 . S
C1937 C1942 1.245 . S
C1937 C1943 1.428 . S
C1938 C1941 1.260 . S
C1938 C1942 1.477 . S
C1938 H1956 0.932 . S
C1939 C1940 1.384 . S
C1939 C1941 1.479 . S
C1939 H1957 0.929 . S
C1940 C1937 1.424 . S
C1940 C1939 1.384 . S
C1940 H1958 0.928 . S
C1941 C1938 1.260 . S
C1941 C1939 1.479 . S
C1942 C1937 1.245 . S
C1942 C1938 1.477 . S
C1942 H1959 0.932 . S
C1943 U1926 2.882 . S
C1943 C1937 1.428 . S
C1943 O1946 1.301 . S
C1943 O1947 1.282 . S
O1944 U1926 2.441 . S
O1944 C1930 1.249 . S
O1945 U1926 2.420 . S
O1945 C1930 1.202 . S
O1946 U1926 2.455 . S
O1946 C1943 1.301 . S
O1947 U1926 2.449 . S
O1947 C1943 1.282 . S
H1948 C1921 0.931 . S
H1949 C1923 0.929 . S
H1950 C1924 0.930 . S
H1951 C1925 0.931 . S
H1952 C1932 0.932 . S
H1953 C1933 0.930 . S
H1954 C1934 0.929 . S
H1955 C1936 0.930 . S
H1956 C1938 0.932 . S
H1957 C1939 0.929 . S
H1958 C1940 0.928 . S
H1959 C1942 0.932 . S
C1960 C1961 1.264 . S
C1960 C1965 1.479 . S
C1960 C1970 1.465 . S
C1961 C1960 1.264 . S
C1961 C1963 1.339 . S
C1961 H1988 0.931 . S
C1962 C1963 1.395 . S
C1962 C1964 1.320 . S
C1963 C1961 1.339 . S
C1963 C1962 1.395 . S
C1963 H1989 0.929 . S
C1964 C1962 1.320 . S
C1964 C1965 1.405 . S
C1964 H1990 0.930 . S
C1965 C1960 1.479 . S
C1965 C1964 1.405 . S
C1965 H1991 0.931 . S
U1966 O1967 2.454 . S
U1966 O1968 2.458 . S
U1966 C1969 2.984 . S
U1966 C1970 2.847 . S
U1966 C1983 2.882 . S
U1966 O1984 2.441 . S
U1966 O1985 2.420 . S
U1966 O1986 2.455 . S
U1966 O1987 2.449 . S
O1967 U1966 2.454 . S
O1967 C1969 1.353 . S
O1968 U1966 2.458 . S
O1968 C1969 1.286 . S
C1969 U1966 2.984 . S
C1969 O1967 1.353 . S
C1969 O1968 1.286 . S
C1969 C1971 1.363 . S
C1970 C1960 1.465 . S
C1970 U1966 2.847 . S
C1970 O1984 1.249 . S
C1970 O1985 1.202 . S
C1971 C1969 1.363 . S
C1971 C1973 1.408 . S
C1971 C1976 1.342 . S
C1972 C1973 1.310 . S
C1972 C1975 1.461 . S
C1972 H1992 0.932 . S
C1973 C1971 1.408 . S
C1973 C1972 1.310 . S
C1973 H1993 0.930 . S
C1974 C1975 1.474 . S
C1974 C1976 1.285 . S
C1974 H1994 0.929 . S
C1975 C1972 1.461 . S
C1975 C1974 1.474 . S
C1976 C1971 1.342 . S
C1976 C1974 1.285 . S
C1976 H1995 0.930 . S
C1977 C1980 1.424 . S
C1977 C1982 1.245 . S
C1977 C1983 1.428 . S
C1978 C1981 1.260 . S
C1978 C1982 1.477 . S
C1978 H1996 0.932 . S
C1979 C1980 1.384 . S
C1979 C1981 1.479 . S
C1979 H1997 0.929 . S
C1980 C1977 1.424 . S
C1980 C1979 1.384 . S
C1980 H1998 0.928 . S
C1981 C1978 1.260 . S
C1981 C1979 1.479 . S
C1982 C1977 1.245 . S
C1982 C1978 1.477 . S
C1982 H1999 0.932 . S
C1983 U1966 2.882 . S
C1983 C1977 1.428 . S
C1983 O1986 1.301 . S
C1983 O1987 1.282 . S
O1984 U1966 2.441 . S
O1984 C1970 1.249 . S
O1985 U1966 2.420 . S
O1985 C1970 1.202 . S
O1986 U1966 2.455 . S
O1986 C1983 1.301 . S
O1987 U1966 2.449 . S
O1987 C1983 1.282 . S
H1988 C1961 0.931 . S
H1989 C1963 0.929 . S
H1990 C1964 0.930 . S
H1991 C1965 0.931 . S
H1992 C1972 0.932 . S
H1993 C1973 0.930 . S
H1994 C1974 0.929 . S
H1995 C1976 0.930 . S
H1996 C1978 0.932 . S
H1997 C1979 0.929 . S
H1998 C1980 0.928 . S
H1999 C1982 0.932 . S
C2000 C2001 1.264 . S
C2000 C2005 1.479 . S
C2000 C2010 1.465 . S
C2001 C2000 1.264 . S
C2001 C2003 1.339 . S
C2001 H2028 0.931 . S
C2002 C2003 1.395 . S
C2002 C2004 1.320 . S
C2003 C2001 1.339 . S
C2003 C2002 1.395 . S
C2003 H2029 0.929 . S
C2004 C2002 1.320 . S
C2004 C2005 1.405 . S
C2004 H2030 0.930 . S
C2005 C2000 1.479 . S
C2005 C2004 1.405 . S
C2005 H2031 0.931 . S
U2006 O2007 2.454 . S
U2006 O2008 2.458 . S
U2006 C2009 2.984 . S
U2006 C2010 2.847 . S
U2006 C2023 2.882 . S
U2006 O2024 2.441 . S
U2006 O2025 2.420 . S
U2006 O2026 2.455 . S
U2006 O2027 2.449 . S
O2007 U2006 2.454 . S
O2007 C2009 1.353 . S
O2008 U2006 2.458 . S
O2008 C2009 1.286 . S
C2009 U2006 2.984 . S
C2009 O2007 1.353 . S
C2009 O2008 1.286 . S
C2009 C2011 1.363 . S
C2010 C2000 1.465 . S
C2010 U2006 2.847 . S
C2010 O2024 1.249 . S
C2010 O2025 1.202 . S
C2011 C2009 1.363 . S
C2011 C2013 1.408 . S
C2011 C2016 1.342 . S
C2012 C2013 1.310 . S
C2012 C2015 1.461 . S
C2012 H2032 0.932 . S
C2013 C2011 1.408 . S
C2013 C2012 1.310 . S
C2013 H2033 0.930 . S
C2014 C2015 1.474 . S
C2014 C2016 1.285 . S
C2014 H2034 0.929 . S
C2015 C2012 1.461 . S
C2015 C2014 1.474 . S
C2016 C2011 1.342 . S
C2016 C2014 1.285 . S
C2016 H2035 0.930 . S
C2017 C2020 1.424 . S
C2017 C2022 1.245 . S
C2017 C2023 1.428 . S
C2018 C2021 1.260 . S
C2018 C2022 1.477 . S
C2018 H2036 0.932 . S
C2019 C2020 1.384 . S
C2019 C2021 1.479 . S
C2019 H2037 0.929 . S
C2020 C2017 1.424 . S
C2020 C2019 1.384 . S
C2020 H2038 0.928 . S
C2021 C2018 1.260 . S
C2021 C2019 1.479 . S
C2022 C2017 1.245 . S
C2022 C2018 1.477 . S
C2022 H2039 0.932 . S
C2023 U2006 2.882 . S
C2023 C2017 1.428 . S
C2023 O2026 1.301 . S
C2023 O2027 1.282 . S
O2024 U2006 2.441 . S
O2024 C2010 1.249 . S
O2025 U2006 2.420 . S
O2025 C2010 1.202 . S
O2026 U2006 2.455 . S
O2026 C2023 1.301 . S
O2027 U2006 2.449 . S
O2027 C2023 1.282 . S
H2028 C2001 0.931 . S
H2029 C2003 0.929 . S
H2030 C2004 0.930 . S
H2031 C2005 0.931 . S
H2032 C2012 0.932 . S
H2033 C2013 0.930 . S
H2034 C2014 0.929 . S
H2035 C2016 0.930 . S
H2036 C2018 0.932 . S
H2037 C2019 0.929 . S
H2038 C2020 0.928 . S
H2039 C2022 0.932 . S
C2040 C2041 1.264 . S
C2040 C2045 1.479 . S
C2040 C2050 1.465 . S
C2041 C2040 1.264 . S
C2041 C2043 1.339 . S
C2041 H2068 0.931 . S
C2042 C2043 1.395 . S
C2042 C2044 1.320 . S
C2043 C2041 1.339 . S
C2043 C2042 1.395 . S
C2043 H2069 0.929 . S
C2044 C2042 1.320 . S
C2044 C2045 1.405 . S
C2044 H2070 0.930 . S
C2045 C2040 1.479 . S
C2045 C2044 1.405 . S
C2045 H2071 0.931 . S
U2046 O2047 2.454 . S
U2046 O2048 2.458 . S
U2046 C2049 2.984 . S
U2046 C2050 2.847 . S
U2046 C2063 2.882 . S
U2046 O2064 2.441 . S
U2046 O2065 2.420 . S
U2046 O2066 2.455 . S
U2046 O2067 2.449 . S
O2047 U2046 2.454 . S
O2047 C2049 1.353 . S
O2048 U2046 2.458 . S
O2048 C2049 1.286 . S
C2049 U2046 2.984 . S
C2049 O2047 1.353 . S
C2049 O2048 1.286 . S
C2049 C2051 1.363 . S
C2050 C2040 1.465 . S
C2050 U2046 2.847 . S
C2050 O2064 1.249 . S
C2050 O2065 1.202 . S
C2051 C2049 1.363 . S
C2051 C2053 1.408 . S
C2051 C2056 1.342 . S
C2052 C2053 1.310 . S
C2052 C2055 1.461 . S
C2052 H2072 0.932 . S
C2053 C2051 1.408 . S
C2053 C2052 1.310 . S
C2053 H2073 0.930 . S
C2054 C2055 1.474 . S
C2054 C2056 1.285 . S
C2054 H2074 0.929 . S
C2055 C2052 1.461 . S
C2055 C2054 1.474 . S
C2056 C2051 1.342 . S
C2056 C2054 1.285 . S
C2056 H2075 0.930 . S
C2057 C2060 1.424 . S
C2057 C2062 1.245 . S
C2057 C2063 1.428 . S
C2058 C2061 1.260 . S
C2058 C2062 1.477 . S
C2058 H2076 0.932 . S
C2059 C2060 1.384 . S
C2059 C2061 1.479 . S
C2059 H2077 0.929 . S
C2060 C2057 1.424 . S
C2060 C2059 1.384 . S
C2060 H2078 0.928 . S
C2061 C2058 1.260 . S
C2061 C2059 1.479 . S
C2062 C2057 1.245 . S
C2062 C2058 1.477 . S
C2062 H2079 0.932 . S
C2063 U2046 2.882 . S
C2063 C2057 1.428 . S
C2063 O2066 1.301 . S
C2063 O2067 1.282 . S
O2064 U2046 2.441 . S
O2064 C2050 1.249 . S
O2065 U2046 2.420 . S
O2065 C2050 1.202 . S
O2066 U2046 2.455 . S
O2066 C2063 1.301 . S
O2067 U2046 2.449 . S
O2067 C2063 1.282 . S
H2068 C2041 0.931 . S
H2069 C2043 0.929 . S
H2070 C2044 0.930 . S
H2071 C2045 0.931 . S
H2072 C2052 0.932 . S
H2073 C2053 0.930 . S
H2074 C2054 0.929 . S
H2075 C2056 0.930 . S
H2076 C2058 0.932 . S
H2077 C2059 0.929 . S
H2078 C2060 0.928 . S
H2079 C2062 0.932 . S
C2080 C2081 1.264 . S
C2080 C2085 1.479 . S
C2080 C2090 1.465 . S
C2081 C2080 1.264 . S
C2081 C2083 1.339 . S
C2081 H2108 0.931 . S
C2082 C2083 1.395 . S
C2082 C2084 1.320 . S
C2083 C2081 1.339 . S
C2083 C2082 1.395 . S
C2083 H2109 0.929 . S
C2084 C2082 1.320 . S
C2084 C2085 1.405 . S
C2084 H2110 0.930 . S
C2085 C2080 1.479 . S
C2085 C2084 1.405 . S
C2085 H2111 0.931 . S
U2086 O2087 2.454 . S
U2086 O2088 2.458 . S
U2086 C2089 2.984 . S
U2086 C2090 2.847 . S
U2086 C2103 2.882 . S
U2086 O2104 2.441 . S
U2086 O2105 2.420 . S
U2086 O2106 2.455 . S
U2086 O2107 2.449 . S
O2087 U2086 2.454 . S
O2087 C2089 1.353 . S
O2088 U2086 2.458 . S
O2088 C2089 1.286 . S
C2089 U2086 2.984 . S
C2089 O2087 1.353 . S
C2089 O2088 1.286 . S
C2089 C2091 1.363 . S
C2090 C2080 1.465 . S
C2090 U2086 2.847 . S
C2090 O2104 1.249 . S
C2090 O2105 1.202 . S
C2091 C2089 1.363 . S
C2091 C2093 1.408 . S
C2091 C2096 1.342 . S
C2092 C2093 1.310 . S
C2092 C2095 1.461 . S
C2092 H2112 0.932 . S
C2093 C2091 1.408 . S
C2093 C2092 1.310 . S
C2093 H2113 0.930 . S
C2094 C2095 1.474 . S
C2094 C2096 1.285 . S
C2094 H2114 0.929 . S
C2095 C2092 1.461 . S
C2095 C2094 1.474 . S
C2096 C2091 1.342 . S
C2096 C2094 1.285 . S
C2096 H2115 0.930 . S
C2097 C2100 1.424 . S
C2097 C2102 1.245 . S
C2097 C2103 1.428 . S
C2098 C2101 1.260 . S
C2098 C2102 1.477 . S
C2098 H2116 0.932 . S
C2099 C2100 1.384 . S
C2099 C2101 1.479 . S
C2099 H2117 0.929 . S
C2100 C2097 1.424 . S
C2100 C2099 1.384 . S
C2100 H2118 0.928 . S
C2101 C2098 1.260 . S
C2101 C2099 1.479 . S
C2102 C2097 1.245 . S
C2102 C2098 1.477 . S
C2102 H2119 0.932 . S
C2103 U2086 2.882 . S
C2103 C2097 1.428 . S
C2103 O2106 1.301 . S
C2103 O2107 1.282 . S
O2104 U2086 2.441 . S
O2104 C2090 1.249 . S
O2105 U2086 2.420 . S
O2105 C2090 1.202 . S
O2106 U2086 2.455 . S
O2106 C2103 1.301 . S
O2107 U2086 2.449 . S
O2107 C2103 1.282 . S
H2108 C2081 0.931 . S
H2109 C2083 0.929 . S
H2110 C2084 0.930 . S
H2111 C2085 0.931 . S
H2112 C2092 0.932 . S
H2113 C2093 0.930 . S
H2114 C2094 0.929 . S
H2115 C2096 0.930 . S
H2116 C2098 0.932 . S
H2117 C2099 0.929 . S
H2118 C2100 0.928 . S
H2119 C2102 0.932 . S
C2120 C2121 1.264 . S
C2120 C2125 1.479 . S
C2120 C2130 1.465 . S
C2121 C2120 1.264 . S
C2121 C2123 1.339 . S
C2121 H2148 0.931 . S
C2122 C2123 1.395 . S
C2122 C2124 1.320 . S
C2123 C2121 1.339 . S
C2123 C2122 1.395 . S
C2123 H2149 0.929 . S
C2124 C2122 1.320 . S
C2124 C2125 1.405 . S
C2124 H2150 0.930 . S
C2125 C2120 1.479 . S
C2125 C2124 1.405 . S
C2125 H2151 0.931 . S
U2126 O2127 2.454 . S
U2126 O2128 2.458 . S
U2126 C2129 2.984 . S
U2126 C2130 2.847 . S
U2126 C2143 2.882 . S
U2126 O2144 2.441 . S
U2126 O2145 2.420 . S
U2126 O2146 2.455 . S
U2126 O2147 2.449 . S
O2127 U2126 2.454 . S
O2127 C2129 1.353 . S
O2128 U2126 2.458 . S
O2128 C2129 1.286 . S
C2129 U2126 2.984 . S
C2129 O2127 1.353 . S
C2129 O2128 1.286 . S
C2129 C2131 1.363 . S
C2130 C2120 1.465 . S
C2130 U2126 2.847 . S
C2130 O2144 1.249 . S
C2130 O2145 1.202 . S
C2131 C2129 1.363 . S
C2131 C2133 1.408 . S
C2131 C2136 1.342 . S
C2132 C2133 1.310 . S
C2132 C2135 1.461 . S
C2132 H2152 0.932 . S
C2133 C2131 1.408 . S
C2133 C2132 1.310 . S
C2133 H2153 0.930 . S
C2134 C2135 1.474 . S
C2134 C2136 1.285 . S
C2134 H2154 0.929 . S
C2135 C2132 1.461 . S
C2135 C2134 1.474 . S
C2136 C2131 1.342 . S
C2136 C2134 1.285 . S
C2136 H2155 0.930 . S
C2137 C2140 1.424 . S
C2137 C2142 1.245 . S
C2137 C2143 1.428 . S
C2138 C2141 1.260 . S
C2138 C2142 1.477 . S
C2138 H2156 0.932 . S
C2139 C2140 1.384 . S
C2139 C2141 1.479 . S
C2139 H2157 0.929 . S
C2140 C2137 1.424 . S
C2140 C2139 1.384 . S
C2140 H2158 0.928 . S
C2141 C2138 1.260 . S
C2141 C2139 1.479 . S
C2142 C2137 1.245 . S
C2142 C2138 1.477 . S
C2142 H2159 0.932 . S
C2143 U2126 2.882 . S
C2143 C2137 1.428 . S
C2143 O2146 1.301 . S
C2143 O2147 1.282 . S
O2144 U2126 2.441 . S
O2144 C2130 1.249 . S
O2145 U2126 2.420 . S
O2145 C2130 1.202 . S
O2146 U2126 2.455 . S
O2146 C2143 1.301 . S
O2147 U2126 2.449 . S
O2147 C2143 1.282 . S
H2148 C2121 0.931 . S
H2149 C2123 0.929 . S
H2150 C2124 0.930 . S
H2151 C2125 0.931 . S
H2152 C2132 0.932 . S
H2153 C2133 0.930 . S
H2154 C2134 0.929 . S
H2155 C2136 0.930 . S
H2156 C2138 0.932 . S
H2157 C2139 0.929 . S
H2158 C2140 0.928 . S
H2159 C2142 0.932 . S
C2160 C2161 1.264 . S
C2160 C2165 1.479 . S
C2160 C2170 1.465 . S
C2161 C2160 1.264 . S
C2161 C2163 1.339 . S
C2161 H2188 0.931 . S
C2162 C2163 1.395 . S
C2162 C2164 1.320 . S
C2163 C2161 1.339 . S
C2163 C2162 1.395 . S
C2163 H2189 0.929 . S
C2164 C2162 1.320 . S
C2164 C2165 1.405 . S
C2164 H2190 0.930 . S
C2165 C2160 1.479 . S
C2165 C2164 1.405 . S
C2165 H2191 0.931 . S
U2166 O2167 2.454 . S
U2166 O2168 2.458 . S
U2166 C2169 2.984 . S
U2166 C2170 2.847 . S
U2166 C2183 2.882 . S
U2166 O2184 2.441 . S
U2166 O2185 2.420 . S
U2166 O2186 2.455 . S
U2166 O2187 2.449 . S
O2167 U2166 2.454 . S
O2167 C2169 1.353 . S
O2168 U2166 2.458 . S
O2168 C2169 1.286 . S
C2169 U2166 2.984 . S
C2169 O2167 1.353 . S
C2169 O2168 1.286 . S
C2169 C2171 1.363 . S
C2170 C2160 1.465 . S
C2170 U2166 2.847 . S
C2170 O2184 1.249 . S
C2170 O2185 1.202 . S
C2171 C2169 1.363 . S
C2171 C2173 1.408 . S
C2171 C2176 1.342 . S
C2172 C2173 1.310 . S
C2172 C2175 1.461 . S
C2172 H2192 0.932 . S
C2173 C2171 1.408 . S
C2173 C2172 1.310 . S
C2173 H2193 0.930 . S
C2174 C2175 1.474 . S
C2174 C2176 1.285 . S
C2174 H2194 0.929 . S
C2175 C2172 1.461 . S
C2175 C2174 1.474 . S
C2176 C2171 1.342 . S
C2176 C2174 1.285 . S
C2176 H2195 0.930 . S
C2177 C2180 1.424 . S
C2177 C2182 1.245 . S
C2177 C2183 1.428 . S
C2178 C2181 1.260 . S
C2178 C2182 1.477 . S
C2178 H2196 0.932 . S
C2179 C2180 1.384 . S
C2179 C2181 1.479 . S
C2179 H2197 0.929 . S
C2180 C2177 1.424 . S
C2180 C2179 1.384 . S
C2180 H2198 0.928 . S
C2181 C2178 1.260 . S
C2181 C2179 1.479 . S
C2182 C2177 1.245 . S
C2182 C2178 1.477 . S
C2182 H2199 0.932 . S
C2183 U2166 2.882 . S
C2183 C2177 1.428 . S
C2183 O2186 1.301 . S
C2183 O2187 1.282 . S
O2184 U2166 2.441 . S
O2184 C2170 1.249 . S
O2185 U2166 2.420 . S
O2185 C2170 1.202 . S
O2186 U2166 2.455 . S
O2186 C2183 1.301 . S
O2187 U2166 2.449 . S
O2187 C2183 1.282 . S
H2188 C2161 0.931 . S
H2189 C2163 0.929 . S
H2190 C2164 0.930 . S
H2191 C2165 0.931 . S
H2192 C2172 0.932 . S
H2193 C2173 0.930 . S
H2194 C2174 0.929 . S
H2195 C2176 0.930 . S
H2196 C2178 0.932 . S
H2197 C2179 0.929 . S
H2198 C2180 0.928 . S
H2199 C2182 0.932 . S
C2200 C2201 1.264 . S
C2200 C2205 1.479 . S
C2200 C2210 1.465 . S
C2201 C2200 1.264 . S
C2201 C2203 1.339 . S
C2201 H2228 0.931 . S
C2202 C2203 1.395 . S
C2202 C2204 1.320 . S
C2203 C2201 1.339 . S
C2203 C2202 1.395 . S
C2203 H2229 0.929 . S
C2204 C2202 1.320 . S
C2204 C2205 1.405 . S
C2204 H2230 0.930 . S
C2205 C2200 1.479 . S
C2205 C2204 1.405 . S
C2205 H2231 0.931 . S
U2206 O2207 2.454 . S
U2206 O2208 2.458 . S
U2206 C2209 2.984 . S
U2206 C2210 2.847 . S
U2206 C2223 2.882 . S
U2206 O2224 2.441 . S
U2206 O2225 2.420 . S
U2206 O2226 2.455 . S
U2206 O2227 2.449 . S
O2207 U2206 2.454 . S
O2207 C2209 1.353 . S
O2208 U2206 2.458 . S
O2208 C2209 1.286 . S
C2209 U2206 2.984 . S
C2209 O2207 1.353 . S
C2209 O2208 1.286 . S
C2209 C2211 1.363 . S
C2210 C2200 1.465 . S
C2210 U2206 2.847 . S
C2210 O2224 1.249 . S
C2210 O2225 1.202 . S
C2211 C2209 1.363 . S
C2211 C2213 1.408 . S
C2211 C2216 1.342 . S
C2212 C2213 1.310 . S
C2212 C2215 1.461 . S
C2212 H2232 0.932 . S
C2213 C2211 1.408 . S
C2213 C2212 1.310 . S
C2213 H2233 0.930 . S
C2214 C2215 1.474 . S
C2214 C2216 1.285 . S
C2214 H2234 0.929 . S
C2215 C2212 1.461 . S
C2215 C2214 1.474 . S
C2216 C2211 1.342 . S
C2216 C2214 1.285 . S
C2216 H2235 0.930 . S
C2217 C2220 1.424 . S
C2217 C2222 1.245 . S
C2217 C2223 1.428 . S
C2218 C2221 1.260 . S
C2218 C2222 1.477 . S
C2218 H2236 0.932 . S
C2219 C2220 1.384 . S
C2219 C2221 1.479 . S
C2219 H2237 0.929 . S
C2220 C2217 1.424 . S
C2220 C2219 1.384 . S
C2220 H2238 0.928 . S
C2221 C2218 1.260 . S
C2221 C2219 1.479 . S
C2222 C2217 1.245 . S
C2222 C2218 1.477 . S
C2222 H2239 0.932 . S
C2223 U2206 2.882 . S
C2223 C2217 1.428 . S
C2223 O2226 1.301 . S
C2223 O2227 1.282 . S
O2224 U2206 2.441 . S
O2224 C2210 1.249 . S
O2225 U2206 2.420 . S
O2225 C2210 1.202 . S
O2226 U2206 2.455 . S
O2226 C2223 1.301 . S
O2227 U2206 2.449 . S
O2227 C2223 1.282 . S
H2228 C2201 0.931 . S
H2229 C2203 0.929 . S
H2230 C2204 0.930 . S
H2231 C2205 0.931 . S
H2232 C2212 0.932 . S
H2233 C2213 0.930 . S
H2234 C2214 0.929 . S
H2235 C2216 0.930 . S
H2236 C2218 0.932 . S
H2237 C2219 0.929 . S
H2238 C2220 0.928 . S
H2239 C2222 0.932 . S
C2240 C2241 1.264 . S
C2240 C2245 1.479 . S
C2240 C2250 1.465 . S
C2241 C2240 1.264 . S
C2241 C2243 1.339 . S
C2241 H2268 0.931 . S
C2242 C2243 1.395 . S
C2242 C2244 1.320 . S
C2243 C2241 1.339 . S
C2243 C2242 1.395 . S
C2243 H2269 0.929 . S
C2244 C2242 1.320 . S
C2244 C2245 1.405 . S
C2244 H2270 0.930 . S
C2245 C2240 1.479 . S
C2245 C2244 1.405 . S
C2245 H2271 0.931 . S
U2246 O2247 2.454 . S
U2246 O2248 2.458 . S
U2246 C2249 2.984 . S
U2246 C2250 2.847 . S
U2246 C2263 2.882 . S
U2246 O2264 2.441 . S
U2246 O2265 2.420 . S
U2246 O2266 2.455 . S
U2246 O2267 2.449 . S
O2247 U2246 2.454 . S
O2247 C2249 1.353 . S
O2248 U2246 2.458 . S
O2248 C2249 1.286 . S
C2249 U2246 2.984 . S
C2249 O2247 1.353 . S
C2249 O2248 1.286 . S
C2249 C2251 1.363 . S
C2250 C2240 1.465 . S
C2250 U2246 2.847 . S
C2250 O2264 1.249 . S
C2250 O2265 1.202 . S
C2251 C2249 1.363 . S
C2251 C2253 1.408 . S
C2251 C2256 1.342 . S
C2252 C2253 1.310 . S
C2252 C2255 1.461 . S
C2252 H2272 0.932 . S
C2253 C2251 1.408 . S
C2253 C2252 1.310 . S
C2253 H2273 0.930 . S
C2254 C2255 1.474 . S
C2254 C2256 1.285 . S
C2254 H2274 0.929 . S
C2255 C2252 1.461 . S
C2255 C2254 1.474 . S
C2256 C2251 1.342 . S
C2256 C2254 1.285 . S
C2256 H2275 0.930 . S
C2257 C2260 1.424 . S
C2257 C2262 1.245 . S
C2257 C2263 1.428 . S
C2258 C2261 1.260 . S
C2258 C2262 1.477 . S
C2258 H2276 0.932 . S
C2259 C2260 1.384 . S
C2259 C2261 1.479 . S
C2259 H2277 0.929 . S
C2260 C2257 1.424 . S
C2260 C2259 1.384 . S
C2260 H2278 0.928 . S
C2261 C2258 1.260 . S
C2261 C2259 1.479 . S
C2262 C2257 1.245 . S
C2262 C2258 1.477 . S
C2262 H2279 0.932 . S
C2263 U2246 2.882 . S
C2263 C2257 1.428 . S
C2263 O2266 1.301 . S
C2263 O2267 1.282 . S
O2264 U2246 2.441 . S
O2264 C2250 1.249 . S
O2265 U2246 2.420 . S
O2265 C2250 1.202 . S
O2266 U2246 2.455 . S
O2266 C2263 1.301 . S
O2267 U2246 2.449 . S
O2267 C2263 1.282 . S
H2268 C2241 0.931 . S
H2269 C2243 0.929 . S
H2270 C2244 0.930 . S
H2271 C2245 0.931 . S
H2272 C2252 0.932 . S
H2273 C2253 0.930 . S
H2274 C2254 0.929 . S
H2275 C2256 0.930 . S
H2276 C2258 0.932 . S
H2277 C2259 0.929 . S
H2278 C2260 0.928 . S
H2279 C2262 0.932 . S
C2280 C2281 1.264 . S
C2280 C2285 1.479 . S
C2280 C2290 1.465 . S
C2281 C2280 1.264 . S
C2281 C2283 1.339 . S
C2281 H2308 0.931 . S
C2282 C2283 1.395 . S
C2282 C2284 1.320 . S
C2283 C2281 1.339 . S
C2283 C2282 1.395 . S
C2283 H2309 0.929 . S
C2284 C2282 1.320 . S
C2284 C2285 1.405 . S
C2284 H2310 0.930 . S
C2285 C2280 1.479 . S
C2285 C2284 1.405 . S
C2285 H2311 0.931 . S
U2286 O2287 2.454 . S
U2286 O2288 2.458 . S
U2286 C2289 2.984 . S
U2286 C2290 2.847 . S
U2286 C2303 2.882 . S
U2286 O2304 2.441 . S
U2286 O2305 2.420 . S
U2286 O2306 2.455 . S
U2286 O2307 2.449 . S
O2287 U2286 2.454 . S
O2287 C2289 1.353 . S
O2288 U2286 2.458 . S
O2288 C2289 1.286 . S
C2289 U2286 2.984 . S
C2289 O2287 1.353 . S
C2289 O2288 1.286 . S
C2289 C2291 1.363 . S
C2290 C2280 1.465 . S
C2290 U2286 2.847 . S
C2290 O2304 1.249 . S
C2290 O2305 1.202 . S
C2291 C2289 1.363 . S
C2291 C2293 1.408 . S
C2291 C2296 1.342 . S
C2292 C2293 1.310 . S
C2292 C2295 1.461 . S
C2292 H2312 0.932 . S
C2293 C2291 1.408 . S
C2293 C2292 1.310 . S
C2293 H2313 0.930 . S
C2294 C2295 1.474 . S
C2294 C2296 1.285 . S
C2294 H2314 0.929 . S
C2295 C2292 1.461 . S
C2295 C2294 1.474 . S
C2296 C2291 1.342 . S
C2296 C2294 1.285 . S
C2296 H2315 0.930 . S
C2297 C2300 1.424 . S
C2297 C2302 1.245 . S
C2297 C2303 1.428 . S
C2298 C2301 1.260 . S
C2298 C2302 1.477 . S
C2298 H2316 0.932 . S
C2299 C2300 1.384 . S
C2299 C2301 1.479 . S
C2299 H2317 0.929 . S
C2300 C2297 1.424 . S
C2300 C2299 1.384 . S
C2300 H2318 0.928 . S
C2301 C2298 1.260 . S
C2301 C2299 1.479 . S
C2302 C2297 1.245 . S
C2302 C2298 1.477 . S
C2302 H2319 0.932 . S
C2303 U2286 2.882 . S
C2303 C2297 1.428 . S
C2303 O2306 1.301 . S
C2303 O2307 1.282 . S
O2304 U2286 2.441 . S
O2304 C2290 1.249 . S
O2305 U2286 2.420 . S
O2305 C2290 1.202 . S
O2306 U2286 2.455 . S
O2306 C2303 1.301 . S
O2307 U2286 2.449 . S
O2307 C2303 1.282 . S
H2308 C2281 0.931 . S
H2309 C2283 0.929 . S
H2310 C2284 0.930 . S
H2311 C2285 0.931 . S
H2312 C2292 0.932 . S
H2313 C2293 0.930 . S
H2314 C2294 0.929 . S
H2315 C2296 0.930 . S
H2316 C2298 0.932 . S
H2317 C2299 0.929 . S
H2318 C2300 0.928 . S
H2319 C2302 0.932 . S
C2320 C2321 1.264 . S
C2320 C2325 1.479 . S
C2320 C2330 1.465 . S
C2321 C2320 1.264 . S
C2321 C2323 1.339 . S
C2321 H2348 0.931 . S
C2322 C2323 1.395 . S
C2322 C2324 1.320 . S
C2323 C2321 1.339 . S
C2323 C2322 1.395 . S
C2323 H2349 0.929 . S
C2324 C2322 1.320 . S
C2324 C2325 1.405 . S
C2324 H2350 0.930 . S
C2325 C2320 1.479 . S
C2325 C2324 1.405 . S
C2325 H2351 0.931 . S
U2326 O2327 2.454 . S
U2326 O2328 2.458 . S
U2326 C2329 2.984 . S
U2326 C2330 2.847 . S
U2326 C2343 2.882 . S
U2326 O2344 2.441 . S
U2326 O2345 2.420 . S
U2326 O2346 2.455 . S
U2326 O2347 2.449 . S
O2327 U2326 2.454 . S
O2327 C2329 1.353 . S
O2328 U2326 2.458 . S
O2328 C2329 1.286 . S
C2329 U2326 2.984 . S
C2329 O2327 1.353 . S
C2329 O2328 1.286 . S
C2329 C2331 1.363 . S
C2330 C2320 1.465 . S
C2330 U2326 2.847 . S
C2330 O2344 1.249 . S
C2330 O2345 1.202 . S
C2331 C2329 1.363 . S
C2331 C2333 1.408 . S
C2331 C2336 1.342 . S
C2332 C2333 1.310 . S
C2332 C2335 1.461 . S
C2332 H2352 0.932 . S
C2333 C2331 1.408 . S
C2333 C2332 1.310 . S
C2333 H2353 0.930 . S
C2334 C2335 1.474 . S
C2334 C2336 1.285 . S
C2334 H2354 0.929 . S
C2335 C2332 1.461 . S
C2335 C2334 1.474 . S
C2336 C2331 1.342 . S
C2336 C2334 1.285 . S
C2336 H2355 0.930 . S
C2337 C2340 1.424 . S
C2337 C2342 1.245 . S
C2337 C2343 1.428 . S
C2338 C2341 1.260 . S
C2338 C2342 1.477 . S
C2338 H2356 0.932 . S
C2339 C2340 1.384 . S
C2339 C2341 1.479 . S
C2339 H2357 0.929 . S
C2340 C2337 1.424 . S
C2340 C2339 1.384 . S
C2340 H2358 0.928 . S
C2341 C2338 1.260 . S
C2341 C2339 1.479 . S
C2342 C2337 1.245 . S
C2342 C2338 1.477 . S
C2342 H2359 0.932 . S
C2343 U2326 2.882 . S
C2343 C2337 1.428 . S
C2343 O2346 1.301 . S
C2343 O2347 1.282 . S
O2344 U2326 2.441 . S
O2344 C2330 1.249 . S
O2345 U2326 2.420 . S
O2345 C2330 1.202 . S
O2346 U2326 2.455 . S
O2346 C2343 1.301 . S
O2347 U2326 2.449 . S
O2347 C2343 1.282 . S
H2348 C2321 0.931 . S
H2349 C2323 0.929 . S
H2350 C2324 0.930 . S
H2351 C2325 0.931 . S
H2352 C2332 0.932 . S
H2353 C2333 0.930 . S
H2354 C2334 0.929 . S
H2355 C2336 0.930 . S
H2356 C2338 0.932 . S
H2357 C2339 0.929 . S
H2358 C2340 0.928 . S
H2359 C2342 0.932 . S
C2360 C2361 1.264 . S
C2360 C2365 1.479 . S
C2360 C2370 1.465 . S
C2361 C2360 1.264 . S
C2361 C2363 1.339 . S
C2361 H2388 0.931 . S
C2362 C2363 1.395 . S
C2362 C2364 1.320 . S
C2363 C2361 1.339 . S
C2363 C2362 1.395 . S
C2363 H2389 0.929 . S
C2364 C2362 1.320 . S
C2364 C2365 1.405 . S
C2364 H2390 0.930 . S
C2365 C2360 1.479 . S
C2365 C2364 1.405 . S
C2365 H2391 0.931 . S
U2366 O2367 2.454 . S
U2366 O2368 2.458 . S
U2366 C2369 2.984 . S
U2366 C2370 2.847 . S
U2366 C2383 2.882 . S
U2366 O2384 2.441 . S
U2366 O2385 2.420 . S
U2366 O2386 2.455 . S
U2366 O2387 2.449 . S
O2367 U2366 2.454 . S
O2367 C2369 1.353 . S
O2368 U2366 2.458 . S
O2368 C2369 1.286 . S
C2369 U2366 2.984 . S
C2369 O2367 1.353 . S
C2369 O2368 1.286 . S
C2369 C2371 1.363 . S
C2370 C2360 1.465 . S
C2370 U2366 2.847 . S
C2370 O2384 1.249 . S
C2370 O2385 1.202 . S
C2371 C2369 1.363 . S
C2371 C2373 1.408 . S
C2371 C2376 1.342 . S
C2372 C2373 1.310 . S
C2372 C2375 1.461 . S
C2372 H2392 0.932 . S
C2373 C2371 1.408 . S
C2373 C2372 1.310 . S
C2373 H2393 0.930 . S
C2374 C2375 1.474 . S
C2374 C2376 1.285 . S
C2374 H2394 0.929 . S
C2375 C2372 1.461 . S
C2375 C2374 1.474 . S
C2376 C2371 1.342 . S
C2376 C2374 1.285 . S
C2376 H2395 0.930 . S
C2377 C2380 1.424 . S
C2377 C2382 1.245 . S
C2377 C2383 1.428 . S
C2378 C2381 1.260 . S
C2378 C2382 1.477 . S
C2378 H2396 0.932 . S
C2379 C2380 1.384 . S
C2379 C2381 1.479 . S
C2379 H2397 0.929 . S
C2380 C2377 1.424 . S
C2380 C2379 1.384 . S
C2380 H2398 0.928 . S
C2381 C2378 1.260 . S
C2381 C2379 1.479 . S
C2382 C2377 1.245 . S
C2382 C2378 1.477 . S
C2382 H2399 0.932 . S
C2383 U2366 2.882 . S
C2383 C2377 1.428 . S
C2383 O2386 1.301 . S
C2383 O2387 1.282 . S
O2384 U2366 2.441 . S
O2384 C2370 1.249 . S
O2385 U2366 2.420 . S
O2385 C2370 1.202 . S
O2386 U2366 2.455 . S
O2386 C2383 1.301 . S
O2387 U2366 2.449 . S
O2387 C2383 1.282 . S
H2388 C2361 0.931 . S
H2389 C2363 0.929 . S
H2390 C2364 0.930 . S
H2391 C2365 0.931 . S
H2392 C2372 0.932 . S
H2393 C2373 0.930 . S
H2394 C2374 0.929 . S
H2395 C2376 0.930 . S
H2396 C2378 0.932 . S
H2397 C2379 0.929 . S
H2398 C2380 0.928 . S
H2399 C2382 0.932 . S
C2400 C2401 1.264 . S
C2400 C2405 1.479 . S
C2400 C2410 1.465 . S
C2401 C2400 1.264 . S
C2401 C2403 1.339 . S
C2401 H2428 0.931 . S
C2402 C2403 1.395 . S
C2402 C2404 1.320 . S
C2403 C2401 1.339 . S
C2403 C2402 1.395 . S
C2403 H2429 0.929 . S
C2404 C2402 1.320 . S
C2404 C2405 1.405 . S
C2404 H2430 0.930 . S
C2405 C2400 1.479 . S
C2405 C2404 1.405 . S
C2405 H2431 0.931 . S
U2406 O2407 2.454 . S
U2406 O2408 2.458 . S
U2406 C2409 2.984 . S
U2406 C2410 2.847 . S
U2406 C2423 2.882 . S
U2406 O2424 2.441 . S
U2406 O2425 2.420 . S
U2406 O2426 2.455 . S
U2406 O2427 2.449 . S
O2407 U2406 2.454 . S
O2407 C2409 1.353 . S
O2408 U2406 2.458 . S
O2408 C2409 1.286 . S
C2409 U2406 2.984 . S
C2409 O2407 1.353 . S
C2409 O2408 1.286 . S
C2409 C2411 1.363 . S
C2410 C2400 1.465 . S
C2410 U2406 2.847 . S
C2410 O2424 1.249 . S
C2410 O2425 1.202 . S
C2411 C2409 1.363 . S
C2411 C2413 1.408 . S
C2411 C2416 1.342 . S
C2412 C2413 1.310 . S
C2412 C2415 1.461 . S
C2412 H2432 0.932 . S
C2413 C2411 1.408 . S
C2413 C2412 1.310 . S
C2413 H2433 0.930 . S
C2414 C2415 1.474 . S
C2414 C2416 1.285 . S
C2414 H2434 0.929 . S
C2415 C2412 1.461 . S
C2415 C2414 1.474 . S
C2416 C2411 1.342 . S
C2416 C2414 1.285 . S
C2416 H2435 0.930 . S
C2417 C2420 1.424 . S
C2417 C2422 1.245 . S
C2417 C2423 1.428 . S
C2418 C2421 1.260 . S
C2418 C2422 1.477 . S
C2418 H2436 0.932 . S
C2419 C2420 1.384 . S
C2419 C2421 1.479 . S
C2419 H2437 0.929 . S
C2420 C2417 1.424 . S
C2420 C2419 1.384 . S
C2420 H2438 0.928 . S
C2421 C2418 1.260 . S
C2421 C2419 1.479 . S
C2422 C2417 1.245 . S
C2422 C2418 1.477 . S
C2422 H2439 0.932 . S
C2423 U2406 2.882 . S
C2423 C2417 1.428 . S
C2423 O2426 1.301 . S
C2423 O2427 1.282 . S
O2424 U2406 2.441 . S
O2424 C2410 1.249 . S
O2425 U2406 2.420 . S
O2425 C2410 1.202 . S
O2426 U2406 2.455 . S
O2426 C2423 1.301 . S
O2427 U2406 2.449 . S
O2427 C2423 1.282 . S
H2428 C2401 0.931 . S
H2429 C2403 0.929 . S
H2430 C2404 0.930 . S
H2431 C2405 0.931 . S
H2432 C2412 0.932 . S
H2433 C2413 0.930 . S
H2434 C2414 0.929 . S
H2435 C2416 0.930 . S
H2436 C2418 0.932 . S
H2437 C2419 0.929 . S
H2438 C2420 0.928 . S
H2439 C2422 0.932 . S
C2440 C2441 1.264 . S
C2440 C2445 1.479 . S
C2440 C2450 1.465 . S
C2441 C2440 1.264 . S
C2441 C2443 1.339 . S
C2441 H2468 0.931 . S
C2442 C2443 1.395 . S
C2442 C2444 1.320 . S
C2443 C2441 1.339 . S
C2443 C2442 1.395 . S
C2443 H2469 0.929 . S
C2444 C2442 1.320 . S
C2444 C2445 1.405 . S
C2444 H2470 0.930 . S
C2445 C2440 1.479 . S
C2445 C2444 1.405 . S
C2445 H2471 0.931 . S
U2446 O2447 2.454 . S
U2446 O2448 2.458 . S
U2446 C2449 2.984 . S
U2446 C2450 2.847 . S
U2446 C2463 2.882 . S
U2446 O2464 2.441 . S
U2446 O2465 2.420 . S
U2446 O2466 2.455 . S
U2446 O2467 2.449 . S
O2447 U2446 2.454 . S
O2447 C2449 1.353 . S
O2448 U2446 2.458 . S
O2448 C2449 1.286 . S
C2449 U2446 2.984 . S
C2449 O2447 1.353 . S
C2449 O2448 1.286 . S
C2449 C2451 1.363 . S
C2450 C2440 1.465 . S
C2450 U2446 2.847 . S
C2450 O2464 1.249 . S
C2450 O2465 1.202 . S
C2451 C2449 1.363 . S
C2451 C2453 1.408 . S
C2451 C2456 1.342 . S
C2452 C2453 1.310 . S
C2452 C2455 1.461 . S
C2452 H2472 0.932 . S
C2453 C2451 1.408 . S
C2453 C2452 1.310 . S
C2453 H2473 0.930 . S
C2454 C2455 1.474 . S
C2454 C2456 1.285 . S
C2454 H2474 0.929 . S
C2455 C2452 1.461 . S
C2455 C2454 1.474 . S
C2456 C2451 1.342 . S
C2456 C2454 1.285 . S
C2456 H2475 0.930 . S
C2457 C2460 1.424 . S
C2457 C2462 1.245 . S
C2457 C2463 1.428 . S
C2458 C2461 1.260 . S
C2458 C2462 1.477 . S
C2458 H2476 0.932 . S
C2459 C2460 1.384 . S
C2459 C2461 1.479 . S
C2459 H2477 0.929 . S
C2460 C2457 1.424 . S
C2460 C2459 1.384 . S
C2460 H2478 0.928 . S
C2461 C2458 1.260 . S
C2461 C2459 1.479 . S
C2462 C2457 1.245 . S
C2462 C2458 1.477 . S
C2462 H2479 0.932 . S
C2463 U2446 2.882 . S
C2463 C2457 1.428 . S
C2463 O2466 1.301 . S
C2463 O2467 1.282 . S
O2464 U2446 2.441 . S
O2464 C2450 1.249 . S
O2465 U2446 2.420 . S
O2465 C2450 1.202 . S
O2466 U2446 2.455 . S
O2466 C2463 1.301 . S
O2467 U2446 2.449 . S
O2467 C2463 1.282 . S
H2468 C2441 0.931 . S
H2469 C2443 0.929 . S
H2470 C2444 0.930 . S
H2471 C2445 0.931 . S
H2472 C2452 0.932 . S
H2473 C2453 0.930 . S
H2474 C2454 0.929 . S
H2475 C2456 0.930 . S
H2476 C2458 0.932 . S
H2477 C2459 0.929 . S
H2478 C2460 0.928 . S
H2479 C2462 0.932 . S
C2480 C2481 1.264 . S
C2480 C2485 1.479 . S
C2480 C2490 1.465 . S
C2481 C2480 1.264 . S
C2481 C2483 1.339 . S
C2481 H2508 0.931 . S
C2482 C2483 1.395 . S
C2482 C2484 1.320 . S
C2483 C2481 1.339 . S
C2483 C2482 1.395 . S
C2483 H2509 0.929 . S
C2484 C2482 1.320 . S
C2484 C2485 1.405 . S
C2484 H2510 0.930 . S
C2485 C2480 1.479 . S
C2485 C2484 1.405 . S
C2485 H2511 0.931 . S
U2486 O2487 2.454 . S
U2486 O2488 2.458 . S
U2486 C2489 2.984 . S
U2486 C2490 2.847 . S
U2486 C2503 2.882 . S
U2486 O2504 2.441 . S
U2486 O2505 2.420 . S
U2486 O2506 2.455 . S
U2486 O2507 2.449 . S
O2487 U2486 2.454 . S
O2487 C2489 1.353 . S
O2488 U2486 2.458 . S
O2488 C2489 1.286 . S
C2489 U2486 2.984 . S
C2489 O2487 1.353 . S
C2489 O2488 1.286 . S
C2489 C2491 1.363 . S
C2490 C2480 1.465 . S
C2490 U2486 2.847 . S
C2490 O2504 1.249 . S
C2490 O2505 1.202 . S
C2491 C2489 1.363 . S
C2491 C2493 1.408 . S
C2491 C2496 1.342 . S
C2492 C2493 1.310 . S
C2492 C2495 1.461 . S
C2492 H2512 0.932 . S
C2493 C2491 1.408 . S
C2493 C2492 1.310 . S
C2493 H2513 0.930 . S
C2494 C2495 1.474 . S
C2494 C2496 1.285 . S
C2494 H2514 0.929 . S
C2495 C2492 1.461 . S
C2495 C2494 1.474 . S
C2496 C2491 1.342 . S
C2496 C2494 1.285 . S
C2496 H2515 0.930 . S
C2497 C2500 1.424 . S
C2497 C2502 1.245 . S
C2497 C2503 1.428 . S
C2498 C2501 1.260 . S
C2498 C2502 1.477 . S
C2498 H2516 0.932 . S
C2499 C2500 1.384 . S
C2499 C2501 1.479 . S
C2499 H2517 0.929 . S
C2500 C2497 1.424 . S
C2500 C2499 1.384 . S
C2500 H2518 0.928 . S
C2501 C2498 1.260 . S
C2501 C2499 1.479 . S
C2502 C2497 1.245 . S
C2502 C2498 1.477 . S
C2502 H2519 0.932 . S
C2503 U2486 2.882 . S
C2503 C2497 1.428 . S
C2503 O2506 1.301 . S
C2503 O2507 1.282 . S
O2504 U2486 2.441 . S
O2504 C2490 1.249 . S
O2505 U2486 2.420 . S
O2505 C2490 1.202 . S
O2506 U2486 2.455 . S
O2506 C2503 1.301 . S
O2507 U2486 2.449 . S
O2507 C2503 1.282 . S
H2508 C2481 0.931 . S
H2509 C2483 0.929 . S
H2510 C2484 0.930 . S
H2511 C2485 0.931 . S
H2512 C2492 0.932 . S
H2513 C2493 0.930 . S
H2514 C2494 0.929 . S
H2515 C2496 0.930 . S
H2516 C2498 0.932 . S
H2517 C2499 0.929 . S
H2518 C2500 0.928 . S
H2519 C2502 0.932 . S
C2520 C2521 1.264 . S
C2520 C2525 1.479 . S
C2520 C2530 1.465 . S
C2521 C2520 1.264 . S
C2521 C2523 1.339 . S
C2521 H2548 0.931 . S
C2522 C2523 1.395 . S
C2522 C2524 1.320 . S
C2523 C2521 1.339 . S
C2523 C2522 1.395 . S
C2523 H2549 0.929 . S
C2524 C2522 1.320 . S
C2524 C2525 1.405 . S
C2524 H2550 0.930 . S
C2525 C2520 1.479 . S
C2525 C2524 1.405 . S
C2525 H2551 0.931 . S
U2526 O2527 2.454 . S
U2526 O2528 2.458 . S
U2526 C2529 2.984 . S
U2526 C2530 2.847 . S
U2526 C2543 2.882 . S
U2526 O2544 2.441 . S
U2526 O2545 2.420 . S
U2526 O2546 2.455 . S
U2526 O2547 2.449 . S
O2527 U2526 2.454 . S
O2527 C2529 1.353 . S
O2528 U2526 2.458 . S
O2528 C2529 1.286 . S
C2529 U2526 2.984 . S
C2529 O2527 1.353 . S
C2529 O2528 1.286 . S
C2529 C2531 1.363 . S
C2530 C2520 1.465 . S
C2530 U2526 2.847 . S
C2530 O2544 1.249 . S
C2530 O2545 1.202 . S
C2531 C2529 1.363 . S
C2531 C2533 1.408 . S
C2531 C2536 1.342 . S
C2532 C2533 1.310 . S
C2532 C2535 1.461 . S
C2532 H2552 0.932 . S
C2533 C2531 1.408 . S
C2533 C2532 1.310 . S
C2533 H2553 0.930 . S
C2534 C2535 1.474 . S
C2534 C2536 1.285 . S
C2534 H2554 0.929 . S
C2535 C2532 1.461 . S
C2535 C2534 1.474 . S
C2536 C2531 1.342 . S
C2536 C2534 1.285 . S
C2536 H2555 0.930 . S
C2537 C2540 1.424 . S
C2537 C2542 1.245 . S
C2537 C2543 1.428 . S
C2538 C2541 1.260 . S
C2538 C2542 1.477 . S
C2538 H2556 0.932 . S
C2539 C2540 1.384 . S
C2539 C2541 1.479 . S
C2539 H2557 0.929 . S
C2540 C2537 1.424 . S
C2540 C2539 1.384 . S
C2540 H2558 0.928 . S
C2541 C2538 1.260 . S
C2541 C2539 1.479 . S
C2542 C2537 1.245 . S
C2542 C2538 1.477 . S
C2542 H2559 0.932 . S
C2543 U2526 2.882 . S
C2543 C2537 1.428 . S
C2543 O2546 1.301 . S
C2543 O2547 1.282 . S
O2544 U2526 2.441 . S
O2544 C2530 1.249 . S
O2545 U2526 2.420 . S
O2545 C2530 1.202 . S
O2546 U2526 2.455 . S
O2546 C2543 1.301 . S
O2547 U2526 2.449 . S
O2547 C2543 1.282 . S
H2548 C2521 0.931 . S
H2549 C2523 0.929 . S
H2550 C2524 0.930 . S
H2551 C2525 0.931 . S
H2552 C2532 0.932 . S
H2553 C2533 0.930 . S
H2554 C2534 0.929 . S
H2555 C2536 0.930 . S
H2556 C2538 0.932 . S
H2557 C2539 0.929 . S
H2558 C2540 0.928 . S
H2559 C2542 0.932 . S
C2560 C2561 1.264 . S
C2560 C2565 1.479 . S
C2560 C2570 1.465 . S
C2561 C2560 1.264 . S
C2561 C2563 1.339 . S
C2561 H2588 0.931 . S
C2562 C2563 1.395 . S
C2562 C2564 1.320 . S
C2563 C2561 1.339 . S
C2563 C2562 1.395 . S
C2563 H2589 0.929 . S
C2564 C2562 1.320 . S
C2564 C2565 1.405 . S
C2564 H2590 0.930 . S
C2565 C2560 1.479 . S
C2565 C2564 1.405 . S
C2565 H2591 0.931 . S
U2566 O2567 2.454 . S
U2566 O2568 2.458 . S
U2566 C2569 2.984 . S
U2566 C2570 2.847 . S
U2566 C2583 2.882 . S
U2566 O2584 2.441 . S
U2566 O2585 2.420 . S
U2566 O2586 2.455 . S
U2566 O2587 2.449 . S
O2567 U2566 2.454 . S
O2567 C2569 1.353 . S
O2568 U2566 2.458 . S
O2568 C2569 1.286 . S
C2569 U2566 2.984 . S
C2569 O2567 1.353 . S
C2569 O2568 1.286 . S
C2569 C2571 1.363 . S
C2570 C2560 1.465 . S
C2570 U2566 2.847 . S
C2570 O2584 1.249 . S
C2570 O2585 1.202 . S
C2571 C2569 1.363 . S
C2571 C2573 1.408 . S
C2571 C2576 1.342 . S
C2572 C2573 1.310 . S
C2572 C2575 1.461 . S
C2572 H2592 0.932 . S
C2573 C2571 1.408 . S
C2573 C2572 1.310 . S
C2573 H2593 0.930 . S
C2574 C2575 1.474 . S
C2574 C2576 1.285 . S
C2574 H2594 0.929 . S
C2575 C2572 1.461 . S
C2575 C2574 1.474 . S
C2576 C2571 1.342 . S
C2576 C2574 1.285 . S
C2576 H2595 0.930 . S
C2577 C2580 1.424 . S
C2577 C2582 1.245 . S
C2577 C2583 1.428 . S
C2578 C2581 1.260 . S
C2578 C2582 1.477 . S
C2578 H2596 0.932 . S
C2579 C2580 1.384 . S
C2579 C2581 1.479 . S
C2579 H2597 0.929 . S
C2580 C2577 1.424 . S
C2580 C2579 1.384 . S
C2580 H2598 0.928 . S
C2581 C2578 1.260 . S
C2581 C2579 1.479 . S
C2582 C2577 1.245 . S
C2582 C2578 1.477 . S
C2582 H2599 0.932 . S
C2583 U2566 2.882 . S
C2583 C2577 1.428 . S
C2583 O2586 1.301 . S
C2583 O2587 1.282 . S
O2584 U2566 2.441 . S
O2584 C2570 1.249 . S
O2585 U2566 2.420 . S
O2585 C2570 1.202 . S
O2586 U2566 2.455 . S
O2586 C2583 1.301 . S
O2587 U2566 2.449 . S
O2587 C2583 1.282 . S
H2588 C2561 0.931 . S
H2589 C2563 0.929 . S
H2590 C2564 0.930 . S
H2591 C2565 0.931 . S
H2592 C2572 0.932 . S
H2593 C2573 0.930 . S
H2594 C2574 0.929 . S
H2595 C2576 0.930 . S
H2596 C2578 0.932 . S
H2597 C2579 0.929 . S
H2598 C2580 0.928 . S
H2599 C2582 0.932 . S
C2600 C2601 1.264 . S
C2600 C2605 1.479 . S
C2600 C2610 1.465 . S
C2601 C2600 1.264 . S
C2601 C2603 1.339 . S
C2601 H2628 0.931 . S
C2602 C2603 1.395 . S
C2602 C2604 1.320 . S
C2603 C2601 1.339 . S
C2603 C2602 1.395 . S
C2603 H2629 0.929 . S
C2604 C2602 1.320 . S
C2604 C2605 1.405 . S
C2604 H2630 0.930 . S
C2605 C2600 1.479 . S
C2605 C2604 1.405 . S
C2605 H2631 0.931 . S
U2606 O2607 2.454 . S
U2606 O2608 2.458 . S
U2606 C2609 2.984 . S
U2606 C2610 2.847 . S
U2606 C2623 2.882 . S
U2606 O2624 2.441 . S
U2606 O2625 2.420 . S
U2606 O2626 2.455 . S
U2606 O2627 2.449 . S
O2607 U2606 2.454 . S
O2607 C2609 1.353 . S
O2608 U2606 2.458 . S
O2608 C2609 1.286 . S
C2609 U2606 2.984 . S
C2609 O2607 1.353 . S
C2609 O2608 1.286 . S
C2609 C2611 1.363 . S
C2610 C2600 1.465 . S
C2610 U2606 2.847 . S
C2610 O2624 1.249 . S
C2610 O2625 1.202 . S
C2611 C2609 1.363 . S
C2611 C2613 1.408 . S
C2611 C2616 1.342 . S
C2612 C2613 1.310 . S
C2612 C2615 1.461 . S
C2612 H2632 0.932 . S
C2613 C2611 1.408 . S
C2613 C2612 1.310 . S
C2613 H2633 0.930 . S
C2614 C2615 1.474 . S
C2614 C2616 1.285 . S
C2614 H2634 0.929 . S
C2615 C2612 1.461 . S
C2615 C2614 1.474 . S
C2616 C2611 1.342 . S
C2616 C2614 1.285 . S
C2616 H2635 0.930 . S
C2617 C2620 1.424 . S
C2617 C2622 1.245 . S
C2617 C2623 1.428 . S
C2618 C2621 1.260 . S
C2618 C2622 1.477 . S
C2618 H2636 0.932 . S
C2619 C2620 1.384 . S
C2619 C2621 1.479 . S
C2619 H2637 0.929 . S
C2620 C2617 1.424 . S
C2620 C2619 1.384 . S
C2620 H2638 0.928 . S
C2621 C2618 1.260 . S
C2621 C2619 1.479 . S
C2622 C2617 1.245 . S
C2622 C2618 1.477 . S
C2622 H2639 0.932 . S
C2623 U2606 2.882 . S
C2623 C2617 1.428 . S
C2623 O2626 1.301 . S
C2623 O2627 1.282 . S
O2624 U2606 2.441 . S
O2624 C2610 1.249 . S
O2625 U2606 2.420 . S
O2625 C2610 1.202 . S
O2626 U2606 2.455 . S
O2626 C2623 1.301 . S
O2627 U2606 2.449 . S
O2627 C2623 1.282 . S
H2628 C2601 0.931 . S
H2629 C2603 0.929 . S
H2630 C2604 0.930 . S
H2631 C2605 0.931 . S
H2632 C2612 0.932 . S
H2633 C2613 0.930 . S
H2634 C2614 0.929 . S
H2635 C2616 0.930 . S
H2636 C2618 0.932 . S
H2637 C2619 0.929 . S
H2638 C2620 0.928 . S
H2639 C2622 0.932 . S
C2640 C2641 1.264 . S
C2640 C2645 1.479 . S
C2640 C2650 1.465 . S
C2641 C2640 1.264 . S
C2641 C2643 1.339 . S
C2641 H2668 0.931 . S
C2642 C2643 1.395 . S
C2642 C2644 1.320 . S
C2643 C2641 1.339 . S
C2643 C2642 1.395 . S
C2643 H2669 0.929 . S
C2644 C2642 1.320 . S
C2644 C2645 1.405 . S
C2644 H2670 0.930 . S
C2645 C2640 1.479 . S
C2645 C2644 1.405 . S
C2645 H2671 0.931 . S
U2646 O2647 2.454 . S
U2646 O2648 2.458 . S
U2646 C2649 2.984 . S
U2646 C2650 2.847 . S
U2646 C2663 2.882 . S
U2646 O2664 2.441 . S
U2646 O2665 2.420 . S
U2646 O2666 2.455 . S
U2646 O2667 2.449 . S
O2647 U2646 2.454 . S
O2647 C2649 1.353 . S
O2648 U2646 2.458 . S
O2648 C2649 1.286 . S
C2649 U2646 2.984 . S
C2649 O2647 1.353 . S
C2649 O2648 1.286 . S
C2649 C2651 1.363 . S
C2650 C2640 1.465 . S
C2650 U2646 2.847 . S
C2650 O2664 1.249 . S
C2650 O2665 1.202 . S
C2651 C2649 1.363 . S
C2651 C2653 1.408 . S
C2651 C2656 1.342 . S
C2652 C2653 1.310 . S
C2652 C2655 1.461 . S
C2652 H2672 0.932 . S
C2653 C2651 1.408 . S
C2653 C2652 1.310 . S
C2653 H2673 0.930 . S
C2654 C2655 1.474 . S
C2654 C2656 1.285 . S
C2654 H2674 0.929 . S
C2655 C2652 1.461 . S
C2655 C2654 1.474 . S
C2656 C2651 1.342 . S
C2656 C2654 1.285 . S
C2656 H2675 0.930 . S
C2657 C2660 1.424 . S
C2657 C2662 1.245 . S
C2657 C2663 1.428 . S
C2658 C2661 1.260 . S
C2658 C2662 1.477 . S
C2658 H2676 0.932 . S
C2659 C2660 1.384 . S
C2659 C2661 1.479 . S
C2659 H2677 0.929 . S
C2660 C2657 1.424 . S
C2660 C2659 1.384 . S
C2660 H2678 0.928 . S
C2661 C2658 1.260 . S
C2661 C2659 1.479 . S
C2662 C2657 1.245 . S
C2662 C2658 1.477 . S
C2662 H2679 0.932 . S
C2663 U2646 2.882 . S
C2663 C2657 1.428 . S
C2663 O2666 1.301 . S
C2663 O2667 1.282 . S
O2664 U2646 2.441 . S
O2664 C2650 1.249 . S
O2665 U2646 2.420 . S
O2665 C2650 1.202 . S
O2666 U2646 2.455 . S
O2666 C2663 1.301 . S
O2667 U2646 2.449 . S
O2667 C2663 1.282 . S
H2668 C2641 0.931 . S
H2669 C2643 0.929 . S
H2670 C2644 0.930 . S
H2671 C2645 0.931 . S
H2672 C2652 0.932 . S
H2673 C2653 0.930 . S
H2674 C2654 0.929 . S
H2675 C2656 0.930 . S
H2676 C2658 0.932 . S
H2677 C2659 0.929 . S
H2678 C2660 0.928 . S
H2679 C2662 0.932 . S
C2680 C2681 1.264 . S
C2680 C2685 1.479 . S
C2680 C2690 1.465 . S
C2681 C2680 1.264 . S
C2681 C2683 1.339 . S
C2681 H2708 0.931 . S
C2682 C2683 1.395 . S
C2682 C2684 1.320 . S
C2683 C2681 1.339 . S
C2683 C2682 1.395 . S
C2683 H2709 0.929 . S
C2684 C2682 1.320 . S
C2684 C2685 1.405 . S
C2684 H2710 0.930 . S
C2685 C2680 1.479 . S
C2685 C2684 1.405 . S
C2685 H2711 0.931 . S
U2686 O2687 2.454 . S
U2686 O2688 2.458 . S
U2686 C2689 2.984 . S
U2686 C2690 2.847 . S
U2686 C2703 2.882 . S
U2686 O2704 2.441 . S
U2686 O2705 2.420 . S
U2686 O2706 2.455 . S
U2686 O2707 2.449 . S
O2687 U2686 2.454 . S
O2687 C2689 1.353 . S
O2688 U2686 2.458 . S
O2688 C2689 1.286 . S
C2689 U2686 2.984 . S
C2689 O2687 1.353 . S
C2689 O2688 1.286 . S
C2689 C2691 1.363 . S
C2690 C2680 1.465 . S
C2690 U2686 2.847 . S
C2690 O2704 1.249 . S
C2690 O2705 1.202 . S
C2691 C2689 1.363 . S
C2691 C2693 1.408 . S
C2691 C2696 1.342 . S
C2692 C2693 1.310 . S
C2692 C2695 1.461 . S
C2692 H2712 0.932 . S
C2693 C2691 1.408 . S
C2693 C2692 1.310 . S
C2693 H2713 0.930 . S
C2694 C2695 1.474 . S
C2694 C2696 1.285 . S
C2694 H2714 0.929 . S
C2695 C2692 1.461 . S
C2695 C2694 1.474 . S
C2696 C2691 1.342 . S
C2696 C2694 1.285 . S
C2696 H2715 0.930 . S
C2697 C2700 1.424 . S
C2697 C2702 1.245 . S
C2697 C2703 1.428 . S
C2698 C2701 1.260 . S
C2698 C2702 1.477 . S
C2698 H2716 0.932 . S
C2699 C2700 1.384 . S
C2699 C2701 1.479 . S
C2699 H2717 0.929 . S
C2700 C2697 1.424 . S
C2700 C2699 1.384 . S
C2700 H2718 0.928 . S
C2701 C2698 1.260 . S
C2701 C2699 1.479 . S
C2702 C2697 1.245 . S
C2702 C2698 1.477 . S
C2702 H2719 0.932 . S
C2703 U2686 2.882 . S
C2703 C2697 1.428 . S
C2703 O2706 1.301 . S
C2703 O2707 1.282 . S
O2704 U2686 2.441 . S
O2704 C2690 1.249 . S
O2705 U2686 2.420 . S
O2705 C2690 1.202 . S
O2706 U2686 2.455 . S
O2706 C2703 1.301 . S
O2707 U2686 2.449 . S
O2707 C2703 1.282 . S
H2708 C2681 0.931 . S
H2709 C2683 0.929 . S
H2710 C2684 0.930 . S
H2711 C2685 0.931 . S
H2712 C2692 0.932 . S
H2713 C2693 0.930 . S
H2714 C2694 0.929 . S
H2715 C2696 0.930 . S
H2716 C2698 0.932 . S
H2717 C2699 0.929 . S
H2718 C2700 0.928 . S
H2719 C2702 0.932 . S
C2720 C2721 1.264 . S
C2720 C2725 1.479 . S
C2720 C2730 1.465 . S
C2721 C2720 1.264 . S
C2721 C2723 1.339 . S
C2721 H2748 0.931 . S
C2722 C2723 1.395 . S
C2722 C2724 1.320 . S
C2723 C2721 1.339 . S
C2723 C2722 1.395 . S
C2723 H2749 0.929 . S
C2724 C2722 1.320 . S
C2724 C2725 1.405 . S
C2724 H2750 0.930 . S
C2725 C2720 1.479 . S
C2725 C2724 1.405 . S
C2725 H2751 0.931 . S
U2726 O2727 2.454 . S
U2726 O2728 2.458 . S
U2726 C2729 2.984 . S
U2726 C2730 2.847 . S
U2726 C2743 2.882 . S
U2726 O2744 2.441 . S
U2726 O2745 2.420 . S
U2726 O2746 2.455 . S
U2726 O2747 2.449 . S
O2727 U2726 2.454 . S
O2727 C2729 1.353 . S
O2728 U2726 2.458 . S
O2728 C2729 1.286 . S
C2729 U2726 2.984 . S
C2729 O2727 1.353 . S
C2729 O2728 1.286 . S
C2729 C2731 1.363 . S
C2730 C2720 1.465 . S
C2730 U2726 2.847 . S
C2730 O2744 1.249 . S
C2730 O2745 1.202 . S
C2731 C2729 1.363 . S
C2731 C2733 1.408 . S
C2731 C2736 1.342 . S
C2732 C2733 1.310 . S
C2732 C2735 1.461 . S
C2732 H2752 0.932 . S
C2733 C2731 1.408 . S
C2733 C2732 1.310 . S
C2733 H2753 0.930 . S
C2734 C2735 1.474 . S
C2734 C2736 1.285 . S
C2734 H2754 0.929 . S
C2735 C2732 1.461 . S
C2735 C2734 1.474 . S
C2736 C2731 1.342 . S
C2736 C2734 1.285 . S
C2736 H2755 0.930 . S
C2737 C2740 1.424 . S
C2737 C2742 1.245 . S
C2737 C2743 1.428 . S
C2738 C2741 1.260 . S
C2738 C2742 1.477 . S
C2738 H2756 0.932 . S
C2739 C2740 1.384 . S
C2739 C2741 1.479 . S
C2739 H2757 0.929 . S
C2740 C2737 1.424 . S
C2740 C2739 1.384 . S
C2740 H2758 0.928 . S
C2741 C2738 1.260 . S
C2741 C2739 1.479 . S
C2742 C2737 1.245 . S
C2742 C2738 1.477 . S
C2742 H2759 0.932 . S
C2743 U2726 2.882 . S
C2743 C2737 1.428 . S
C2743 O2746 1.301 . S
C2743 O2747 1.282 . S
O2744 U2726 2.441 . S
O2744 C2730 1.249 . S
O2745 U2726 2.420 . S
O2745 C2730 1.202 . S
O2746 U2726 2.455 . S
O2746 C2743 1.301 . S
O2747 U2726 2.449 . S
O2747 C2743 1.282 . S
H2748 C2721 0.931 . S
H2749 C2723 0.929 . S
H2750 C2724 0.930 . S
H2751 C2725 0.931 . S
H2752 C2732 0.932 . S
H2753 C2733 0.930 . S
H2754 C2734 0.929 . S
H2755 C2736 0.930 . S
H2756 C2738 0.932 . S
H2757 C2739 0.929 . S
H2758 C2740 0.928 . S
H2759 C2742 0.932 . S
C2760 C2761 1.264 . S
C2760 C2765 1.479 . S
C2760 C2770 1.465 . S
C2761 C2760 1.264 . S
C2761 C2763 1.339 . S
C2761 H2788 0.931 . S
C2762 C2763 1.395 . S
C2762 C2764 1.320 . S
C2763 C2761 1.339 . S
C2763 C2762 1.395 . S
C2763 H2789 0.929 . S
C2764 C2762 1.320 . S
C2764 C2765 1.405 . S
C2764 H2790 0.930 . S
C2765 C2760 1.479 . S
C2765 C2764 1.405 . S
C2765 H2791 0.931 . S
U2766 O2767 2.454 . S
U2766 O2768 2.458 . S
U2766 C2769 2.984 . S
U2766 C2770 2.847 . S
U2766 C2783 2.882 . S
U2766 O2784 2.441 . S
U2766 O2785 2.420 . S
U2766 O2786 2.455 . S
U2766 O2787 2.449 . S
O2767 U2766 2.454 . S
O2767 C2769 1.353 . S
O2768 U2766 2.458 . S
O2768 C2769 1.286 . S
C2769 U2766 2.984 . S
C2769 O2767 1.353 . S
C2769 O2768 1.286 . S
C2769 C2771 1.363 . S
C2770 C2760 1.465 . S
C2770 U2766 2.847 . S
C2770 O2784 1.249 . S
C2770 O2785 1.202 . S
C2771 C2769 1.363 . S
C2771 C2773 1.408 . S
C2771 C2776 1.342 . S
C2772 C2773 1.310 . S
C2772 C2775 1.461 . S
C2772 H2792 0.932 . S
C2773 C2771 1.408 . S
C2773 C2772 1.310 . S
C2773 H2793 0.930 . S
C2774 C2775 1.474 . S
C2774 C2776 1.285 . S
C2774 H2794 0.929 . S
C2775 C2772 1.461 . S
C2775 C2774 1.474 . S
C2776 C2771 1.342 . S
C2776 C2774 1.285 . S
C2776 H2795 0.930 . S
C2777 C2780 1.424 . S
C2777 C2782 1.245 . S
C2777 C2783 1.428 . S
C2778 C2781 1.260 . S
C2778 C2782 1.477 . S
C2778 H2796 0.932 . S
C2779 C2780 1.384 . S
C2779 C2781 1.479 . S
C2779 H2797 0.929 . S
C2780 C2777 1.424 . S
C2780 C2779 1.384 . S
C2780 H2798 0.928 . S
C2781 C2778 1.260 . S
C2781 C2779 1.479 . S
C2782 C2777 1.245 . S
C2782 C2778 1.477 . S
C2782 H2799 0.932 . S
C2783 U2766 2.882 . S
C2783 C2777 1.428 . S
C2783 O2786 1.301 . S
C2783 O2787 1.282 . S
O2784 U2766 2.441 . S
O2784 C2770 1.249 . S
O2785 U2766 2.420 . S
O2785 C2770 1.202 . S
O2786 U2766 2.455 . S
O2786 C2783 1.301 . S
O2787 U2766 2.449 . S
O2787 C2783 1.282 . S
H2788 C2761 0.931 . S
H2789 C2763 0.929 . S
H2790 C2764 0.930 . S
H2791 C2765 0.931 . S
H2792 C2772 0.932 . S
H2793 C2773 0.930 . S
H2794 C2774 0.929 . S
H2795 C2776 0.930 . S
H2796 C2778 0.932 . S
H2797 C2779 0.929 . S
H2798 C2780 0.928 . S
H2799 C2782 0.932 . S
C2800 C2801 1.264 . S
C2800 C2805 1.479 . S
C2800 C2810 1.465 . S
C2801 C2800 1.264 . S
C2801 C2803 1.339 . S
C2801 H2828 0.931 . S
C2802 C2803 1.395 . S
C2802 C2804 1.320 . S
C2803 C2801 1.339 . S
C2803 C2802 1.395 . S
C2803 H2829 0.929 . S
C2804 C2802 1.320 . S
C2804 C2805 1.405 . S
C2804 H2830 0.930 . S
C2805 C2800 1.479 . S
C2805 C2804 1.405 . S
C2805 H2831 0.931 . S
U2806 O2807 2.454 . S
U2806 O2808 2.458 . S
U2806 C2809 2.984 . S
U2806 C2810 2.847 . S
U2806 C2823 2.882 . S
U2806 O2824 2.441 . S
U2806 O2825 2.420 . S
U2806 O2826 2.455 . S
U2806 O2827 2.449 . S
O2807 U2806 2.454 . S
O2807 C2809 1.353 . S
O2808 U2806 2.458 . S
O2808 C2809 1.286 . S
C2809 U2806 2.984 . S
C2809 O2807 1.353 . S
C2809 O2808 1.286 . S
C2809 C2811 1.363 . S
C2810 C2800 1.465 . S
C2810 U2806 2.847 . S
C2810 O2824 1.249 . S
C2810 O2825 1.202 . S
C2811 C2809 1.363 . S
C2811 C2813 1.408 . S
C2811 C2816 1.342 . S
C2812 C2813 1.310 . S
C2812 C2815 1.461 . S
C2812 H2832 0.932 . S
C2813 C2811 1.408 . S
C2813 C2812 1.310 . S
C2813 H2833 0.930 . S
C2814 C2815 1.474 . S
C2814 C2816 1.285 . S
C2814 H2834 0.929 . S
C2815 C2812 1.461 . S
C2815 C2814 1.474 . S
C2816 C2811 1.342 . S
C2816 C2814 1.285 . S
C2816 H2835 0.930 . S
C2817 C2820 1.424 . S
C2817 C2822 1.245 . S
C2817 C2823 1.428 . S
C2818 C2821 1.260 . S
C2818 C2822 1.477 . S
C2818 H2836 0.932 . S
C2819 C2820 1.384 . S
C2819 C2821 1.479 . S
C2819 H2837 0.929 . S
C2820 C2817 1.424 . S
C2820 C2819 1.384 . S
C2820 H2838 0.928 . S
C2821 C2818 1.260 . S
C2821 C2819 1.479 . S
C2822 C2817 1.245 . S
C2822 C2818 1.477 . S
C2822 H2839 0.932 . S
C2823 U2806 2.882 . S
C2823 C2817 1.428 . S
C2823 O2826 1.301 . S
C2823 O2827 1.282 . S
O2824 U2806 2.441 . S
O2824 C2810 1.249 . S
O2825 U2806 2.420 . S
O2825 C2810 1.202 . S
O2826 U2806 2.455 . S
O2826 C2823 1.301 . S
O2827 U2806 2.449 . S
O2827 C2823 1.282 . S
H2828 C2801 0.931 . S
H2829 C2803 0.929 . S
H2830 C2804 0.930 . S
H2831 C2805 0.931 . S
H2832 C2812 0.932 . S
H2833 C2813 0.930 . S
H2834 C2814 0.929 . S
H2835 C2816 0.930 . S
H2836 C2818 0.932 . S
H2837 C2819 0.929 . S
H2838 C2820 0.928 . S
H2839 C2822 0.932 . S
C2840 C2841 1.264 . S
C2840 C2845 1.479 . S
C2840 C2850 1.465 . S
C2841 C2840 1.264 . S
C2841 C2843 1.339 . S
C2841 H2868 0.931 . S
C2842 C2843 1.395 . S
C2842 C2844 1.320 . S
C2843 C2841 1.339 . S
C2843 C2842 1.395 . S
C2843 H2869 0.929 . S
C2844 C2842 1.320 . S
C2844 C2845 1.405 . S
C2844 H2870 0.930 . S
C2845 C2840 1.479 . S
C2845 C2844 1.405 . S
C2845 H2871 0.931 . S
U2846 O2847 2.454 . S
U2846 O2848 2.458 . S
U2846 C2849 2.984 . S
U2846 C2850 2.847 . S
U2846 C2863 2.882 . S
U2846 O2864 2.441 . S
U2846 O2865 2.420 . S
U2846 O2866 2.455 . S
U2846 O2867 2.449 . S
O2847 U2846 2.454 . S
O2847 C2849 1.353 . S
O2848 U2846 2.458 . S
O2848 C2849 1.286 . S
C2849 U2846 2.984 . S
C2849 O2847 1.353 . S
C2849 O2848 1.286 . S
C2849 C2851 1.363 . S
C2850 C2840 1.465 . S
C2850 U2846 2.847 . S
C2850 O2864 1.249 . S
C2850 O2865 1.202 . S
C2851 C2849 1.363 . S
C2851 C2853 1.408 . S
C2851 C2856 1.342 . S
C2852 C2853 1.310 . S
C2852 C2855 1.461 . S
C2852 H2872 0.932 . S
C2853 C2851 1.408 . S
C2853 C2852 1.310 . S
C2853 H2873 0.930 . S
C2854 C2855 1.474 . S
C2854 C2856 1.285 . S
C2854 H2874 0.929 . S
C2855 C2852 1.461 . S
C2855 C2854 1.474 . S
C2856 C2851 1.342 . S
C2856 C2854 1.285 . S
C2856 H2875 0.930 . S
C2857 C2860 1.424 . S
C2857 C2862 1.245 . S
C2857 C2863 1.428 . S
C2858 C2861 1.260 . S
C2858 C2862 1.477 . S
C2858 H2876 0.932 . S
C2859 C2860 1.384 . S
C2859 C2861 1.479 . S
C2859 H2877 0.929 . S
C2860 C2857 1.424 . S
C2860 C2859 1.384 . S
C2860 H2878 0.928 . S
C2861 C2858 1.260 . S
C2861 C2859 1.479 . S
C2862 C2857 1.245 . S
C2862 C2858 1.477 . S
C2862 H2879 0.932 . S
C2863 U2846 2.882 . S
C2863 C2857 1.428 . S
C2863 O2866 1.301 . S
C2863 O2867 1.282 . S
O2864 U2846 2.441 . S
O2864 C2850 1.249 . S
O2865 U2846 2.420 . S
O2865 C2850 1.202 . S
O2866 U2846 2.455 . S
O2866 C2863 1.301 . S
O2867 U2846 2.449 . S
O2867 C2863 1.282 . S
H2868 C2841 0.931 . S
H2869 C2843 0.929 . S
H2870 C2844 0.930 . S
H2871 C2845 0.931 . S
H2872 C2852 0.932 . S
H2873 C2853 0.930 . S
H2874 C2854 0.929 . S
H2875 C2856 0.930 . S
H2876 C2858 0.932 . S
H2877 C2859 0.929 . S
H2878 C2860 0.928 . S
H2879 C2862 0.932 . S
C2880 C2881 1.264 . S
C2880 C2885 1.479 . S
C2880 C2890 1.465 . S
C2881 C2880 1.264 . S
C2881 C2883 1.339 . S
C2881 H2908 0.931 . S
C2882 C2883 1.395 . S
C2882 C2884 1.320 . S
C2883 C2881 1.339 . S
C2883 C2882 1.395 . S
C2883 H2909 0.929 . S
C2884 C2882 1.320 . S
C2884 C2885 1.405 . S
C2884 H2910 0.930 . S
C2885 C2880 1.479 . S
C2885 C2884 1.405 . S
C2885 H2911 0.931 . S
U2886 O2887 2.454 . S
U2886 O2888 2.458 . S
U2886 C2889 2.984 . S
U2886 C2890 2.847 . S
U2886 C2903 2.882 . S
U2886 O2904 2.441 . S
U2886 O2905 2.420 . S
U2886 O2906 2.455 . S
U2886 O2907 2.449 . S
O2887 U2886 2.454 . S
O2887 C2889 1.353 . S
O2888 U2886 2.458 . S
O2888 C2889 1.286 . S
C2889 U2886 2.984 . S
C2889 O2887 1.353 . S
C2889 O2888 1.286 . S
C2889 C2891 1.363 . S
C2890 C2880 1.465 . S
C2890 U2886 2.847 . S
C2890 O2904 1.249 . S
C2890 O2905 1.202 . S
C2891 C2889 1.363 . S
C2891 C2893 1.408 . S
C2891 C2896 1.342 . S
C2892 C2893 1.310 . S
C2892 C2895 1.461 . S
C2892 H2912 0.932 . S
C2893 C2891 1.408 . S
C2893 C2892 1.310 . S
C2893 H2913 0.930 . S
C2894 C2895 1.474 . S
C2894 C2896 1.285 . S
C2894 H2914 0.929 . S
C2895 C2892 1.461 . S
C2895 C2894 1.474 . S
C2896 C2891 1.342 . S
C2896 C2894 1.285 . S
C2896 H2915 0.930 . S
C2897 C2900 1.424 . S
C2897 C2902 1.245 . S
C2897 C2903 1.428 . S
C2898 C2901 1.260 . S
C2898 C2902 1.477 . S
C2898 H2916 0.932 . S
C2899 C2900 1.384 . S
C2899 C2901 1.479 . S
C2899 H2917 0.929 . S
C2900 C2897 1.424 . S
C2900 C2899 1.384 . S
C2900 H2918 0.928 . S
C2901 C2898 1.260 . S
C2901 C2899 1.479 . S
C2902 C2897 1.245 . S
C2902 C2898 1.477 . S
C2902 H2919 0.932 . S
C2903 U2886 2.882 . S
C2903 C2897 1.428 . S
C2903 O2906 1.301 . S
C2903 O2907 1.282 . S
O2904 U2886 2.441 . S
O2904 C2890 1.249 . S
O2905 U2886 2.420 . S
O2905 C2890 1.202 . S
O2906 U2886 2.455 . S
O2906 C2903 1.301 . S
O2907 U2886 2.449 . S
O2907 C2903 1.282 . S
H2908 C2881 0.931 . S
H2909 C2883 0.929 . S
H2910 C2884 0.930 . S
H2911 C2885 0.931 . S
H2912 C2892 0.932 . S
H2913 C2893 0.930 . S
H2914 C2894 0.929 . S
H2915 C2896 0.930 . S
H2916 C2898 0.932 . S
H2917 C2899 0.929 . S
H2918 C2900 0.928 . S
H2919 C2902 0.932 . S
C2920 C2921 1.264 . S
C2920 C2925 1.479 . S
C2920 C2930 1.465 . S
C2921 C2920 1.264 . S
C2921 C2923 1.339 . S
C2921 H2948 0.931 . S
C2922 C2923 1.395 . S
C2922 C2924 1.320 . S
C2923 C2921 1.339 . S
C2923 C2922 1.395 . S
C2923 H2949 0.929 . S
C2924 C2922 1.320 . S
C2924 C2925 1.405 . S
C2924 H2950 0.930 . S
C2925 C2920 1.479 . S
C2925 C2924 1.405 . S
C2925 H2951 0.931 . S
U2926 O2927 2.454 . S
U2926 O2928 2.458 . S
U2926 C2929 2.984 . S
U2926 C2930 2.847 . S
U2926 C2943 2.882 . S
U2926 O2944 2.441 . S
U2926 O2945 2.420 . S
U2926 O2946 2.455 . S
U2926 O2947 2.449 . S
O2927 U2926 2.454 . S
O2927 C2929 1.353 . S
O2928 U2926 2.458 . S
O2928 C2929 1.286 . S
C2929 U2926 2.984 . S
C2929 O2927 1.353 . S
C2929 O2928 1.286 . S
C2929 C2931 1.363 . S
C2930 C2920 1.465 . S
C2930 U2926 2.847 . S
C2930 O2944 1.249 . S
C2930 O2945 1.202 . S
C2931 C2929 1.363 . S
C2931 C2933 1.408 . S
C2931 C2936 1.342 . S
C2932 C2933 1.310 . S
C2932 C2935 1.461 . S
C2932 H2952 0.932 . S
C2933 C2931 1.408 . S
C2933 C2932 1.310 . S
C2933 H2953 0.930 . S
C2934 C2935 1.474 . S
C2934 C2936 1.285 . S
C2934 H2954 0.929 . S
C2935 C2932 1.461 . S
C2935 C2934 1.474 . S
C2936 C2931 1.342 . S
C2936 C2934 1.285 . S
C2936 H2955 0.930 . S
C2937 C2940 1.424 . S
C2937 C2942 1.245 . S
C2937 C2943 1.428 . S
C2938 C2941 1.260 . S
C2938 C2942 1.477 . S
C2938 H2956 0.932 . S
C2939 C2940 1.384 . S
C2939 C2941 1.479 . S
C2939 H2957 0.929 . S
C2940 C2937 1.424 . S
C2940 C2939 1.384 . S
C2940 H2958 0.928 . S
C2941 C2938 1.260 . S
C2941 C2939 1.479 . S
C2942 C2937 1.245 . S
C2942 C2938 1.477 . S
C2942 H2959 0.932 . S
C2943 U2926 2.882 . S
C2943 C2937 1.428 . S
C2943 O2946 1.301 . S
C2943 O2947 1.282 . S
O2944 U2926 2.441 . S
O2944 C2930 1.249 . S
O2945 U2926 2.420 . S
O2945 C2930 1.202 . S
O2946 U2926 2.455 . S
O2946 C2943 1.301 . S
O2947 U2926 2.449 . S
O2947 C2943 1.282 . S
H2948 C2921 0.931 . S
H2949 C2923 0.929 . S
H2950 C2924 0.930 . S
H2951 C2925 0.931 . S
H2952 C2932 0.932 . S
H2953 C2933 0.930 . S
H2954 C2934 0.929 . S
H2955 C2936 0.930 . S
H2956 C2938 0.932 . S
H2957 C2939 0.929 . S
H2958 C2940 0.928 . S
H2959 C2942 0.932 . S
C2960 C2961 1.264 . S
C2960 C2965 1.479 . S
C2960 C2970 1.465 . S
C2961 C2960 1.264 . S
C2961 C2963 1.339 . S
C2961 H2988 0.931 . S
C2962 C2963 1.395 . S
C2962 C2964 1.320 . S
C2963 C2961 1.339 . S
C2963 C2962 1.395 . S
C2963 H2989 0.929 . S
C2964 C2962 1.320 . S
C2964 C2965 1.405 . S
C2964 H2990 0.930 . S
C2965 C2960 1.479 . S
C2965 C2964 1.405 . S
C2965 H2991 0.931 . S
U2966 O2967 2.454 . S
U2966 O2968 2.458 . S
U2966 C2969 2.984 . S
U2966 C2970 2.847 . S
U2966 C2983 2.882 . S
U2966 O2984 2.441 . S
U2966 O2985 2.420 . S
U2966 O2986 2.455 . S
U2966 O2987 2.449 . S
O2967 U2966 2.454 . S
O2967 C2969 1.353 . S
O2968 U2966 2.458 . S
O2968 C2969 1.286 . S
C2969 U2966 2.984 . S
C2969 O2967 1.353 . S
C2969 O2968 1.286 . S
C2969 C2971 1.363 . S
C2970 C2960 1.465 . S
C2970 U2966 2.847 . S
C2970 O2984 1.249 . S
C2970 O2985 1.202 . S
C2971 C2969 1.363 . S
C2971 C2973 1.408 . S
C2971 C2976 1.342 . S
C2972 C2973 1.310 . S
C2972 C2975 1.461 . S
C2972 H2992 0.932 . S
C2973 C2971 1.408 . S
C2973 C2972 1.310 . S
C2973 H2993 0.930 . S
C2974 C2975 1.474 . S
C2974 C2976 1.285 . S
C2974 H2994 0.929 . S
C2975 C2972 1.461 . S
C2975 C2974 1.474 . S
C2976 C2971 1.342 . S
C2976 C2974 1.285 . S
C2976 H2995 0.930 . S
C2977 C2980 1.424 . S
C2977 C2982 1.245 . S
C2977 C2983 1.428 . S
C2978 C2981 1.260 . S
C2978 C2982 1.477 . S
C2978 H2996 0.932 . S
C2979 C2980 1.384 . S
C2979 C2981 1.479 . S
C2979 H2997 0.929 . S
C2980 C2977 1.424 . S
C2980 C2979 1.384 . S
C2980 H2998 0.928 . S
C2981 C2978 1.260 . S
C2981 C2979 1.479 . S
C2982 C2977 1.245 . S
C2982 C2978 1.477 . S
C2982 H2999 0.932 . S
C2983 U2966 2.882 . S
C2983 C2977 1.428 . S
C2983 O2986 1.301 . S
C2983 O2987 1.282 . S
O2984 U2966 2.441 . S
O2984 C2970 1.249 . S
O2985 U2966 2.420 . S
O2985 C2970 1.202 . S
O2986 U2966 2.455 . S
O2986 C2983 1.301 . S
O2987 U2966 2.449 . S
O2987 C2983 1.282 . S
H2988 C2961 0.931 . S
H2989 C2963 0.929 . S
H2990 C2964 0.930 . S
H2991 C2965 0.931 . S
H2992 C2972 0.932 . S
H2993 C2973 0.930 . S
H2994 C2974 0.929 . S
H2995 C2976 0.930 . S
H2996 C2978 0.932 . S
H2997 C2979 0.929 . S
H2998 C2980 0.928 . S
H2999 C2982 0.932 . S
C3000 C3001 1.264 . S
C3000 C3005 1.479 . S
C3000 C3010 1.465 . S
C3001 C3000 1.264 . S
C3001 C3003 1.339 . S
C3001 H3028 0.931 . S
C3002 C3003 1.395 . S
C3002 C3004 1.320 . S
C3003 C3001 1.339 . S
C3003 C3002 1.395 . S
C3003 H3029 0.929 . S
C3004 C3002 1.320 . S
C3004 C3005 1.405 . S
C3004 H3030 0.930 . S
C3005 C3000 1.479 . S
C3005 C3004 1.405 . S
C3005 H3031 0.931 . S
U3006 O3007 2.454 . S
U3006 O3008 2.458 . S
U3006 C3009 2.984 . S
U3006 C3010 2.847 . S
U3006 C3023 2.882 . S
U3006 O3024 2.441 . S
U3006 O3025 2.420 . S
U3006 O3026 2.455 . S
U3006 O3027 2.449 . S
O3007 U3006 2.454 . S
O3007 C3009 1.353 . S
O3008 U3006 2.458 . S
O3008 C3009 1.286 . S
C3009 U3006 2.984 . S
C3009 O3007 1.353 . S
C3009 O3008 1.286 . S
C3009 C3011 1.363 . S
C3010 C3000 1.465 . S
C3010 U3006 2.847 . S
C3010 O3024 1.249 . S
C3010 O3025 1.202 . S
C3011 C3009 1.363 . S
C3011 C3013 1.408 . S
C3011 C3016 1.342 . S
C3012 C3013 1.310 . S
C3012 C3015 1.461 . S
C3012 H3032 0.932 . S
C3013 C3011 1.408 . S
C3013 C3012 1.310 . S
C3013 H3033 0.930 . S
C3014 C3015 1.474 . S
C3014 C3016 1.285 . S
C3014 H3034 0.929 . S
C3015 C3012 1.461 . S
C3015 C3014 1.474 . S
C3016 C3011 1.342 . S
C3016 C3014 1.285 . S
C3016 H3035 0.930 . S
C3017 C3020 1.424 . S
C3017 C3022 1.245 . S
C3017 C3023 1.428 . S
C3018 C3021 1.260 . S
C3018 C3022 1.477 . S
C3018 H3036 0.932 . S
C3019 C3020 1.384 . S
C3019 C3021 1.479 . S
C3019 H3037 0.929 . S
C3020 C3017 1.424 . S
C3020 C3019 1.384 . S
C3020 H3038 0.928 . S
C3021 C3018 1.260 . S
C3021 C3019 1.479 . S
C3022 C3017 1.245 . S
C3022 C3018 1.477 . S
C3022 H3039 0.932 . S
C3023 U3006 2.882 . S
C3023 C3017 1.428 . S
C3023 O3026 1.301 . S
C3023 O3027 1.282 . S
O3024 U3006 2.441 . S
O3024 C3010 1.249 . S
O3025 U3006 2.420 . S
O3025 C3010 1.202 . S
O3026 U3006 2.455 . S
O3026 C3023 1.301 . S
O3027 U3006 2.449 . S
O3027 C3023 1.282 . S
H3028 C3001 0.931 . S
H3029 C3003 0.929 . S
H3030 C3004 0.930 . S
H3031 C3005 0.931 . S
H3032 C3012 0.932 . S
H3033 C3013 0.930 . S
H3034 C3014 0.929 . S
H3035 C3016 0.930 . S
H3036 C3018 0.932 . S
H3037 C3019 0.929 . S
H3038 C3020 0.928 . S
H3039 C3022 0.932 . S
C3040 C3041 1.264 . S
C3040 C3045 1.479 . S
C3040 C3050 1.465 . S
C3041 C3040 1.264 . S
C3041 C3043 1.339 . S
C3041 H3068 0.931 . S
C3042 C3043 1.395 . S
C3042 C3044 1.320 . S
C3043 C3041 1.339 . S
C3043 C3042 1.395 . S
C3043 H3069 0.929 . S
C3044 C3042 1.320 . S
C3044 C3045 1.405 . S
C3044 H3070 0.930 . S
C3045 C3040 1.479 . S
C3045 C3044 1.405 . S
C3045 H3071 0.931 . S
U3046 O3047 2.454 . S
U3046 O3048 2.458 . S
U3046 C3049 2.984 . S
U3046 C3050 2.847 . S
U3046 C3063 2.882 . S
U3046 O3064 2.441 . S
U3046 O3065 2.420 . S
U3046 O3066 2.455 . S
U3046 O3067 2.449 . S
O3047 U3046 2.454 . S
O3047 C3049 1.353 . S
O3048 U3046 2.458 . S
O3048 C3049 1.286 . S
C3049 U3046 2.984 . S
C3049 O3047 1.353 . S
C3049 O3048 1.286 . S
C3049 C3051 1.363 . S
C3050 C3040 1.465 . S
C3050 U3046 2.847 . S
C3050 O3064 1.249 . S
C3050 O3065 1.202 . S
C3051 C3049 1.363 . S
C3051 C3053 1.408 . S
C3051 C3056 1.342 . S
C3052 C3053 1.310 . S
C3052 C3055 1.461 . S
C3052 H3072 0.932 . S
C3053 C3051 1.408 . S
C3053 C3052 1.310 . S
C3053 H3073 0.930 . S
C3054 C3055 1.474 . S
C3054 C3056 1.285 . S
C3054 H3074 0.929 . S
C3055 C3052 1.461 . S
C3055 C3054 1.474 . S
C3056 C3051 1.342 . S
C3056 C3054 1.285 . S
C3056 H3075 0.930 . S
C3057 C3060 1.424 . S
C3057 C3062 1.245 . S
C3057 C3063 1.428 . S
C3058 C3061 1.260 . S
C3058 C3062 1.477 . S
C3058 H3076 0.932 . S
C3059 C3060 1.384 . S
C3059 C3061 1.479 . S
C3059 H3077 0.929 . S
C3060 C3057 1.424 . S
C3060 C3059 1.384 . S
C3060 H3078 0.928 . S
C3061 C3058 1.260 . S
C3061 C3059 1.479 . S
C3062 C3057 1.245 . S
C3062 C3058 1.477 . S
C3062 H3079 0.932 . S
C3063 U3046 2.882 . S
C3063 C3057 1.428 . S
C3063 O3066 1.301 . S
C3063 O3067 1.282 . S
O3064 U3046 2.441 . S
O3064 C3050 1.249 . S
O3065 U3046 2.420 . S
O3065 C3050 1.202 . S
O3066 U3046 2.455 . S
O3066 C3063 1.301 . S
O3067 U3046 2.449 . S
O3067 C3063 1.282 . S
H3068 C3041 0.931 . S
H3069 C3043 0.929 . S
H3070 C3044 0.930 . S
H3071 C3045 0.931 . S
H3072 C3052 0.932 . S
H3073 C3053 0.930 . S
H3074 C3054 0.929 . S
H3075 C3056 0.930 . S
H3076 C3058 0.932 . S
H3077 C3059 0.929 . S
H3078 C3060 0.928 . S
H3079 C3062 0.932 . S
C3080 C3081 1.264 . S
C3080 C3085 1.479 . S
C3080 C3090 1.465 . S
C3081 C3080 1.264 . S
C3081 C3083 1.339 . S
C3081 H3108 0.931 . S
C3082 C3083 1.395 . S
C3082 C3084 1.320 . S
C3083 C3081 1.339 . S
C3083 C3082 1.395 . S
C3083 H3109 0.929 . S
C3084 C3082 1.320 . S
C3084 C3085 1.405 . S
C3084 H3110 0.930 . S
C3085 C3080 1.479 . S
C3085 C3084 1.405 . S
C3085 H3111 0.931 . S
U3086 O3087 2.454 . S
U3086 O3088 2.458 . S
U3086 C3089 2.984 . S
U3086 C3090 2.847 . S
U3086 C3103 2.882 . S
U3086 O3104 2.441 . S
U3086 O3105 2.420 . S
U3086 O3106 2.455 . S
U3086 O3107 2.449 . S
O3087 U3086 2.454 . S
O3087 C3089 1.353 . S
O3088 U3086 2.458 . S
O3088 C3089 1.286 . S
C3089 U3086 2.984 . S
C3089 O3087 1.353 . S
C3089 O3088 1.286 . S
C3089 C3091 1.363 . S
C3090 C3080 1.465 . S
C3090 U3086 2.847 . S
C3090 O3104 1.249 . S
C3090 O3105 1.202 . S
C3091 C3089 1.363 . S
C3091 C3093 1.408 . S
C3091 C3096 1.342 . S
C3092 C3093 1.310 . S
C3092 C3095 1.461 . S
C3092 H3112 0.932 . S
C3093 C3091 1.408 . S
C3093 C3092 1.310 . S
C3093 H3113 0.930 . S
C3094 C3095 1.474 . S
C3094 C3096 1.285 . S
C3094 H3114 0.929 . S
C3095 C3092 1.461 . S
C3095 C3094 1.474 . S
C3096 C3091 1.342 . S
C3096 C3094 1.285 . S
C3096 H3115 0.930 . S
C3097 C3100 1.424 . S
C3097 C3102 1.245 . S
C3097 C3103 1.428 . S
C3098 C3101 1.260 . S
C3098 C3102 1.477 . S
C3098 H3116 0.932 . S
C3099 C3100 1.384 . S
C3099 C3101 1.479 . S
C3099 H3117 0.929 . S
C3100 C3097 1.424 . S
C3100 C3099 1.384 . S
C3100 H3118 0.928 . S
C3101 C3098 1.260 . S
C3101 C3099 1.479 . S
C3102 C3097 1.245 . S
C3102 C3098 1.477 . S
C3102 H3119 0.932 . S
C3103 U3086 2.882 . S
C3103 C3097 1.428 . S
C3103 O3106 1.301 . S
C3103 O3107 1.282 . S
O3104 U3086 2.441 . S
O3104 C3090 1.249 . S
O3105 U3086 2.420 . S
O3105 C3090 1.202 . S
O3106 U3086 2.455 . S
O3106 C3103 1.301 . S
O3107 U3086 2.449 . S
O3107 C3103 1.282 . S
H3108 C3081 0.931 . S
H3109 C3083 0.929 . S
H3110 C3084 0.930 . S
H3111 C3085 0.931 . S
H3112 C3092 0.932 . S
H3113 C3093 0.930 . S
H3114 C3094 0.929 . S
H3115 C3096 0.930 . S
H3116 C3098 0.932 . S
H3117 C3099 0.929 . S
H3118 C3100 0.928 . S
H3119 C3102 0.932 . S
C3120 C3121 1.264 . S
C3120 C3125 1.479 . S
C3120 C3130 1.465 . S
C3121 C3120 1.264 . S
C3121 C3123 1.339 . S
C3121 H3148 0.931 . S
C3122 C3123 1.395 . S
C3122 C3124 1.320 . S
C3123 C3121 1.339 . S
C3123 C3122 1.395 . S
C3123 H3149 0.929 . S
C3124 C3122 1.320 . S
C3124 C3125 1.405 . S
C3124 H3150 0.930 . S
C3125 C3120 1.479 . S
C3125 C3124 1.405 . S
C3125 H3151 0.931 . S
U3126 O3127 2.454 . S
U3126 O3128 2.458 . S
U3126 C3129 2.984 . S
U3126 C3130 2.847 . S
U3126 C3143 2.882 . S
U3126 O3144 2.441 . S
U3126 O3145 2.420 . S
U3126 O3146 2.455 . S
U3126 O3147 2.449 . S
O3127 U3126 2.454 . S
O3127 C3129 1.353 . S
O3128 U3126 2.458 . S
O3128 C3129 1.286 . S
C3129 U3126 2.984 . S
C3129 O3127 1.353 . S
C3129 O3128 1.286 . S
C3129 C3131 1.363 . S
C3130 C3120 1.465 . S
C3130 U3126 2.847 . S
C3130 O3144 1.249 . S
C3130 O3145 1.202 . S
C3131 C3129 1.363 . S
C3131 C3133 1.408 . S
C3131 C3136 1.342 . S
C3132 C3133 1.310 . S
C3132 C3135 1.461 . S
C3132 H3152 0.932 . S
C3133 C3131 1.408 . S
C3133 C3132 1.310 . S
C3133 H3153 0.930 . S
C3134 C3135 1.474 . S
C3134 C3136 1.285 . S
C3134 H3154 0.929 . S
C3135 C3132 1.461 . S
C3135 C3134 1.474 . S
C3136 C3131 1.342 . S
C3136 C3134 1.285 . S
C3136 H3155 0.930 . S
C3137 C3140 1.424 . S
C3137 C3142 1.245 . S
C3137 C3143 1.428 . S
C3138 C3141 1.260 . S
C3138 C3142 1.477 . S
C3138 H3156 0.932 . S
C3139 C3140 1.384 . S
C3139 C3141 1.479 . S
C3139 H3157 0.929 . S
C3140 C3137 1.424 . S
C3140 C3139 1.384 . S
C3140 H3158 0.928 . S
C3141 C3138 1.260 . S
C3141 C3139 1.479 . S
C3142 C3137 1.245 . S
C3142 C3138 1.477 . S
C3142 H3159 0.932 . S
C3143 U3126 2.882 . S
C3143 C3137 1.428 . S
C3143 O3146 1.301 . S
C3143 O3147 1.282 . S
O3144 U3126 2.441 . S
O3144 C3130 1.249 . S
O3145 U3126 2.420 . S
O3145 C3130 1.202 . S
O3146 U3126 2.455 . S
O3146 C3143 1.301 . S
O3147 U3126 2.449 . S
O3147 C3143 1.282 . S
H3148 C3121 0.931 . S
H3149 C3123 0.929 . S
H3150 C3124 0.930 . S
H3151 C3125 0.931 . S
H3152 C3132 0.932 . S
H3153 C3133 0.930 . S
H3154 C3134 0.929 . S
H3155 C3136 0.930 . S
H3156 C3138 0.932 . S
H3157 C3139 0.929 . S
H3158 C3140 0.928 . S
H3159 C3142 0.932 . S
C3160 C3161 1.264 . S
C3160 C3165 1.479 . S
C3160 C3170 1.465 . S
C3161 C3160 1.264 . S
C3161 C3163 1.339 . S
C3161 H3188 0.931 . S
C3162 C3163 1.395 . S
C3162 C3164 1.320 . S
C3163 C3161 1.339 . S
C3163 C3162 1.395 . S
C3163 H3189 0.929 . S
C3164 C3162 1.320 . S
C3164 C3165 1.405 . S
C3164 H3190 0.930 . S
C3165 C3160 1.479 . S
C3165 C3164 1.405 . S
C3165 H3191 0.931 . S
U3166 O3167 2.454 . S
U3166 O3168 2.458 . S
U3166 C3169 2.984 . S
U3166 C3170 2.847 . S
U3166 C3183 2.882 . S
U3166 O3184 2.441 . S
U3166 O3185 2.420 . S
U3166 O3186 2.455 . S
U3166 O3187 2.449 . S
O3167 U3166 2.454 . S
O3167 C3169 1.353 . S
O3168 U3166 2.458 . S
O3168 C3169 1.286 . S
C3169 U3166 2.984 . S
C3169 O3167 1.353 . S
C3169 O3168 1.286 . S
C3169 C3171 1.363 . S
C3170 C3160 1.465 . S
C3170 U3166 2.847 . S
C3170 O3184 1.249 . S
C3170 O3185 1.202 . S
C3171 C3169 1.363 . S
C3171 C3173 1.408 . S
C3171 C3176 1.342 . S
C3172 C3173 1.310 . S
C3172 C3175 1.461 . S
C3172 H3192 0.932 . S
C3173 C3171 1.408 . S
C3173 C3172 1.310 . S
C3173 H3193 0.930 . S
C3174 C3175 1.474 . S
C3174 C3176 1.285 . S
C3174 H3194 0.929 . S
C3175 C3172 1.461 . S
C3175 C3174 1.474 . S
C3176 C3171 1.342 . S
C3176 C3174 1.285 . S
C3176 H3195 0.930 . S
C3177 C3180 1.424 . S
C3177 C3182 1.245 . S
C3177 C3183 1.428 . S
C3178 C3181 1.260 . S
C3178 C3182 1.477 . S
C3178 H3196 0.932 . S
C3179 C3180 1.384 . S
C3179 C3181 1.479 . S
C3179 H3197 0.929 . S
C3180 C3177 1.424 . S
C3180 C3179 1.384 . S
C3180 H3198 0.928 . S
C3181 C3178 1.260 . S
C3181 C3179 1.479 . S
C3182 C3177 1.245 . S
C3182 C3178 1.477 . S
C3182 H3199 0.932 . S
C3183 U3166 2.882 . S
C3183 C3177 1.428 . S
C3183 O3186 1.301 . S
C3183 O3187 1.282 . S
O3184 U3166 2.441 . S
O3184 C3170 1.249 . S
O3185 U3166 2.420 . S
O3185 C3170 1.202 . S
O3186 U3166 2.455 . S
O3186 C3183 1.301 . S
O3187 U3166 2.449 . S
O3187 C3183 1.282 . S
H3188 C3161 0.931 . S
H3189 C3163 0.929 . S
H3190 C3164 0.930 . S
H3191 C3165 0.931 . S
H3192 C3172 0.932 . S
H3193 C3173 0.930 . S
H3194 C3174 0.929 . S
H3195 C3176 0.930 . S
H3196 C3178 0.932 . S
H3197 C3179 0.929 . S
H3198 C3180 0.928 . S
H3199 C3182 0.932 . S
C3200 C3201 1.264 . S
C3200 C3205 1.479 . S
C3200 C3210 1.465 . S
C3201 C3200 1.264 . S
C3201 C3203 1.339 . S
C3201 H3228 0.931 . S
C3202 C3203 1.395 . S
C3202 C3204 1.320 . S
C3203 C3201 1.339 . S
C3203 C3202 1.395 . S
C3203 H3229 0.929 . S
C3204 C3202 1.320 . S
C3204 C3205 1.405 . S
C3204 H3230 0.930 . S
C3205 C3200 1.479 . S
C3205 C3204 1.405 . S
C3205 H3231 0.931 . S
U3206 O3207 2.454 . S
U3206 O3208 2.458 . S
U3206 C3209 2.984 . S
U3206 C3210 2.847 . S
U3206 C3223 2.882 . S
U3206 O3224 2.441 . S
U3206 O3225 2.420 . S
U3206 O3226 2.455 . S
U3206 O3227 2.449 . S
O3207 U3206 2.454 . S
O3207 C3209 1.353 . S
O3208 U3206 2.458 . S
O3208 C3209 1.286 . S
C3209 U3206 2.984 . S
C3209 O3207 1.353 . S
C3209 O3208 1.286 . S
C3209 C3211 1.363 . S
C3210 C3200 1.465 . S
C3210 U3206 2.847 . S
C3210 O3224 1.249 . S
C3210 O3225 1.202 . S
C3211 C3209 1.363 . S
C3211 C3213 1.408 . S
C3211 C3216 1.342 . S
C3212 C3213 1.310 . S
C3212 C3215 1.461 . S
C3212 H3232 0.932 . S
C3213 C3211 1.408 . S
C3213 C3212 1.310 . S
C3213 H3233 0.930 . S
C3214 C3215 1.474 . S
C3214 C3216 1.285 . S
C3214 H3234 0.929 . S
C3215 C3212 1.461 . S
C3215 C3214 1.474 . S
C3216 C3211 1.342 . S
C3216 C3214 1.285 . S
C3216 H3235 0.930 . S
C3217 C3220 1.424 . S
C3217 C3222 1.245 . S
C3217 C3223 1.428 . S
C3218 C3221 1.260 . S
C3218 C3222 1.477 . S
C3218 H3236 0.932 . S
C3219 C3220 1.384 . S
C3219 C3221 1.479 . S
C3219 H3237 0.929 . S
C3220 C3217 1.424 . S
C3220 C3219 1.384 . S
C3220 H3238 0.928 . S
C3221 C3218 1.260 . S
C3221 C3219 1.479 . S
C3222 C3217 1.245 . S
C3222 C3218 1.477 . S
C3222 H3239 0.932 . S
C3223 U3206 2.882 . S
C3223 C3217 1.428 . S
C3223 O3226 1.301 . S
C3223 O3227 1.282 . S
O3224 U3206 2.441 . S
O3224 C3210 1.249 . S
O3225 U3206 2.420 . S
O3225 C3210 1.202 . S
O3226 U3206 2.455 . S
O3226 C3223 1.301 . S
O3227 U3206 2.449 . S
O3227 C3223 1.282 . S
H3228 C3201 0.931 . S
H3229 C3203 0.929 . S
H3230 C3204 0.930 . S
H3231 C3205 0.931 . S
H3232 C3212 0.932 . S
H3233 C3213 0.930 . S
H3234 C3214 0.929 . S
H3235 C3216 0.930 . S
H3236 C3218 0.932 . S
H3237 C3219 0.929 . S
H3238 C3220 0.928 . S
H3239 C3222 0.932 . S
C3240 C3241 1.264 . S
C3240 C3245 1.479 . S
C3240 C3250 1.465 . S
C3241 C3240 1.264 . S
C3241 C3243 1.339 . S
C3241 H3268 0.931 . S
C3242 C3243 1.395 . S
C3242 C3244 1.320 . S
C3243 C3241 1.339 . S
C3243 C3242 1.395 . S
C3243 H3269 0.929 . S
C3244 C3242 1.320 . S
C3244 C3245 1.405 . S
C3244 H3270 0.930 . S
C3245 C3240 1.479 . S
C3245 C3244 1.405 . S
C3245 H3271 0.931 . S
U3246 O3247 2.454 . S
U3246 O3248 2.458 . S
U3246 C3249 2.984 . S
U3246 C3250 2.847 . S
U3246 C3263 2.882 . S
U3246 O3264 2.441 . S
U3246 O3265 2.420 . S
U3246 O3266 2.455 . S
U3246 O3267 2.449 . S
O3247 U3246 2.454 . S
O3247 C3249 1.353 . S
O3248 U3246 2.458 . S
O3248 C3249 1.286 . S
C3249 U3246 2.984 . S
C3249 O3247 1.353 . S
C3249 O3248 1.286 . S
C3249 C3251 1.363 . S
C3250 C3240 1.465 . S
C3250 U3246 2.847 . S
C3250 O3264 1.249 . S
C3250 O3265 1.202 . S
C3251 C3249 1.363 . S
C3251 C3253 1.408 . S
C3251 C3256 1.342 . S
C3252 C3253 1.310 . S
C3252 C3255 1.461 . S
C3252 H3272 0.932 . S
C3253 C3251 1.408 . S
C3253 C3252 1.310 . S
C3253 H3273 0.930 . S
C3254 C3255 1.474 . S
C3254 C3256 1.285 . S
C3254 H3274 0.929 . S
C3255 C3252 1.461 . S
C3255 C3254 1.474 . S
C3256 C3251 1.342 . S
C3256 C3254 1.285 . S
C3256 H3275 0.930 . S
C3257 C3260 1.424 . S
C3257 C3262 1.245 . S
C3257 C3263 1.428 . S
C3258 C3261 1.260 . S
C3258 C3262 1.477 . S
C3258 H3276 0.932 . S
C3259 C3260 1.384 . S
C3259 C3261 1.479 . S
C3259 H3277 0.929 . S
C3260 C3257 1.424 . S
C3260 C3259 1.384 . S
C3260 H3278 0.928 . S
C3261 C3258 1.260 . S
C3261 C3259 1.479 . S
C3262 C3257 1.245 . S
C3262 C3258 1.477 . S
C3262 H3279 0.932 . S
C3263 U3246 2.882 . S
C3263 C3257 1.428 . S
C3263 O3266 1.301 . S
C3263 O3267 1.282 . S
O3264 U3246 2.441 . S
O3264 C3250 1.249 . S
O3265 U3246 2.420 . S
O3265 C3250 1.202 . S
O3266 U3246 2.455 . S
O3266 C3263 1.301 . S
O3267 U3246 2.449 . S
O3267 C3263 1.282 . S
H3268 C3241 0.931 . S
H3269 C3243 0.929 . S
H3270 C3244 0.930 . S
H3271 C3245 0.931 . S
H3272 C3252 0.932 . S
H3273 C3253 0.930 . S
H3274 C3254 0.929 . S
H3275 C3256 0.930 . S
H3276 C3258 0.932 . S
H3277 C3259 0.929 . S
H3278 C3260 0.928 . S
H3279 C3262 0.932 . S
C3280 C3281 1.264 . S
C3280 C3285 1.479 . S
C3280 C3290 1.465 . S
C3281 C3280 1.264 . S
C3281 C3283 1.339 . S
C3281 H3308 0.931 . S
C3282 C3283 1.395 . S
C3282 C3284 1.320 . S
C3283 C3281 1.339 . S
C3283 C3282 1.395 . S
C3283 H3309 0.929 . S
C3284 C3282 1.320 . S
C3284 C3285 1.405 . S
C3284 H3310 0.930 . S
C3285 C3280 1.479 . S
C3285 C3284 1.405 . S
C3285 H3311 0.931 . S
U3286 O3287 2.454 . S
U3286 O3288 2.458 . S
U3286 C3289 2.984 . S
U3286 C3290 2.847 . S
U3286 C3303 2.882 . S
U3286 O3304 2.441 . S
U3286 O3305 2.420 . S
U3286 O3306 2.455 . S
U3286 O3307 2.449 . S
O3287 U3286 2.454 . S
O3287 C3289 1.353 . S
O3288 U3286 2.458 . S
O3288 C3289 1.286 . S
C3289 U3286 2.984 . S
C3289 O3287 1.353 . S
C3289 O3288 1.286 . S
C3289 C3291 1.363 . S
C3290 C3280 1.465 . S
C3290 U3286 2.847 . S
C3290 O3304 1.249 . S
C3290 O3305 1.202 . S
C3291 C3289 1.363 . S
C3291 C3293 1.408 . S
C3291 C3296 1.342 . S
C3292 C3293 1.310 . S
C3292 C3295 1.461 . S
C3292 H3312 0.932 . S
C3293 C3291 1.408 . S
C3293 C3292 1.310 . S
C3293 H3313 0.930 . S
C3294 C3295 1.474 . S
C3294 C3296 1.285 . S
C3294 H3314 0.929 . S
C3295 C3292 1.461 . S
C3295 C3294 1.474 . S
C3296 C3291 1.342 . S
C3296 C3294 1.285 . S
C3296 H3315 0.930 . S
C3297 C3300 1.424 . S
C3297 C3302 1.245 . S
C3297 C3303 1.428 . S
C3298 C3301 1.260 . S
C3298 C3302 1.477 . S
C3298 H3316 0.932 . S
C3299 C3300 1.384 . S
C3299 C3301 1.479 . S
C3299 H3317 0.929 . S
C3300 C3297 1.424 . S
C3300 C3299 1.384 . S
C3300 H3318 0.928 . S
C3301 C3298 1.260 . S
C3301 C3299 1.479 . S
C3302 C3297 1.245 . S
C3302 C3298 1.477 . S
C3302 H3319 0.932 . S
C3303 U3286 2.882 . S
C3303 C3297 1.428 . S
C3303 O3306 1.301 . S
C3303 O3307 1.282 . S
O3304 U3286 2.441 . S
O3304 C3290 1.249 . S
O3305 U3286 2.420 . S
O3305 C3290 1.202 . S
O3306 U3286 2.455 . S
O3306 C3303 1.301 . S
O3307 U3286 2.449 . S
O3307 C3303 1.282 . S
H3308 C3281 0.931 . S
H3309 C3283 0.929 . S
H3310 C3284 0.930 . S
H3311 C3285 0.931 . S
H3312 C3292 0.932 . S
H3313 C3293 0.930 . S
H3314 C3294 0.929 . S
H3315 C3296 0.930 . S
H3316 C3298 0.932 . S
H3317 C3299 0.929 . S
H3318 C3300 0.928 . S
H3319 C3302 0.932 . S
C3320 C3321 1.264 . S
C3320 C3325 1.479 . S
C3320 C3330 1.465 . S
C3321 C3320 1.264 . S
C3321 C3323 1.339 . S
C3321 H3348 0.931 . S
C3322 C3323 1.395 . S
C3322 C3324 1.320 . S
C3323 C3321 1.339 . S
C3323 C3322 1.395 . S
C3323 H3349 0.929 . S
C3324 C3322 1.320 . S
C3324 C3325 1.405 . S
C3324 H3350 0.930 . S
C3325 C3320 1.479 . S
C3325 C3324 1.405 . S
C3325 H3351 0.931 . S
U3326 O3327 2.454 . S
U3326 O3328 2.458 . S
U3326 C3329 2.984 . S
U3326 C3330 2.847 . S
U3326 C3343 2.882 . S
U3326 O3344 2.441 . S
U3326 O3345 2.420 . S
U3326 O3346 2.455 . S
U3326 O3347 2.449 . S
O3327 U3326 2.454 . S
O3327 C3329 1.353 . S
O3328 U3326 2.458 . S
O3328 C3329 1.286 . S
C3329 U3326 2.984 . S
C3329 O3327 1.353 . S
C3329 O3328 1.286 . S
C3329 C3331 1.363 . S
C3330 C3320 1.465 . S
C3330 U3326 2.847 . S
C3330 O3344 1.249 . S
C3330 O3345 1.202 . S
C3331 C3329 1.363 . S
C3331 C3333 1.408 . S
C3331 C3336 1.342 . S
C3332 C3333 1.310 . S
C3332 C3335 1.461 . S
C3332 H3352 0.932 . S
C3333 C3331 1.408 . S
C3333 C3332 1.310 . S
C3333 H3353 0.930 . S
C3334 C3335 1.474 . S
C3334 C3336 1.285 . S
C3334 H3354 0.929 . S
C3335 C3332 1.461 . S
C3335 C3334 1.474 . S
C3336 C3331 1.342 . S
C3336 C3334 1.285 . S
C3336 H3355 0.930 . S
C3337 C3340 1.424 . S
C3337 C3342 1.245 . S
C3337 C3343 1.428 . S
C3338 C3341 1.260 . S
C3338 C3342 1.477 . S
C3338 H3356 0.932 . S
C3339 C3340 1.384 . S
C3339 C3341 1.479 . S
C3339 H3357 0.929 . S
C3340 C3337 1.424 . S
C3340 C3339 1.384 . S
C3340 H3358 0.928 . S
C3341 C3338 1.260 . S
C3341 C3339 1.479 . S
C3342 C3337 1.245 . S
C3342 C3338 1.477 . S
C3342 H3359 0.932 . S
C3343 U3326 2.882 . S
C3343 C3337 1.428 . S
C3343 O3346 1.301 . S
C3343 O3347 1.282 . S
O3344 U3326 2.441 . S
O3344 C3330 1.249 . S
O3345 U3326 2.420 . S
O3345 C3330 1.202 . S
O3346 U3326 2.455 . S
O3346 C3343 1.301 . S
O3347 U3326 2.449 . S
O3347 C3343 1.282 . S
H3348 C3321 0.931 . S
H3349 C3323 0.929 . S
H3350 C3324 0.930 . S
H3351 C3325 0.931 . S
H3352 C3332 0.932 . S
H3353 C3333 0.930 . S
H3354 C3334 0.929 . S
H3355 C3336 0.930 . S
H3356 C3338 0.932 . S
H3357 C3339 0.929 . S
H3358 C3340 0.928 . S
H3359 C3342 0.932 . S
C3360 C3361 1.264 . S
C3360 C3365 1.479 . S
C3360 C3370 1.465 . S
C3361 C3360 1.264 . S
C3361 C3363 1.339 . S
C3361 H3388 0.931 . S
C3362 C3363 1.395 . S
C3362 C3364 1.320 . S
C3363 C3361 1.339 . S
C3363 C3362 1.395 . S
C3363 H3389 0.929 . S
C3364 C3362 1.320 . S
C3364 C3365 1.405 . S
C3364 H3390 0.930 . S
C3365 C3360 1.479 . S
C3365 C3364 1.405 . S
C3365 H3391 0.931 . S
U3366 O3367 2.454 . S
U3366 O3368 2.458 . S
U3366 C3369 2.984 . S
U3366 C3370 2.847 . S
U3366 C3383 2.882 . S
U3366 O3384 2.441 . S
U3366 O3385 2.420 . S
U3366 O3386 2.455 . S
U3366 O3387 2.449 . S
O3367 U3366 2.454 . S
O3367 C3369 1.353 . S
O3368 U3366 2.458 . S
O3368 C3369 1.286 . S
C3369 U3366 2.984 . S
C3369 O3367 1.353 . S
C3369 O3368 1.286 . S
C3369 C3371 1.363 . S
C3370 C3360 1.465 . S
C3370 U3366 2.847 . S
C3370 O3384 1.249 . S
C3370 O3385 1.202 . S
C3371 C3369 1.363 . S
C3371 C3373 1.408 . S
C3371 C3376 1.342 . S
C3372 C3373 1.310 . S
C3372 C3375 1.461 . S
C3372 H3392 0.932 . S
C3373 C3371 1.408 . S
C3373 C3372 1.310 . S
C3373 H3393 0.930 . S
C3374 C3375 1.474 . S
C3374 C3376 1.285 . S
C3374 H3394 0.929 . S
C3375 C3372 1.461 . S
C3375 C3374 1.474 . S
C3376 C3371 1.342 . S
C3376 C3374 1.285 . S
C3376 H3395 0.930 . S
C3377 C3380 1.424 . S
C3377 C3382 1.245 . S
C3377 C3383 1.428 . S
C3378 C3381 1.260 . S
C3378 C3382 1.477 . S
C3378 H3396 0.932 . S
C3379 C3380 1.384 . S
C3379 C3381 1.479 . S
C3379 H3397 0.929 . S
C3380 C3377 1.424 . S
C3380 C3379 1.384 . S
C3380 H3398 0.928 . S
C3381 C3378 1.260 . S
C3381 C3379 1.479 . S
C3382 C3377 1.245 . S
C3382 C3378 1.477 . S
C3382 H3399 0.932 . S
C3383 U3366 2.882 . S
C3383 C3377 1.428 . S
C3383 O3386 1.301 . S
C3383 O3387 1.282 . S
O3384 U3366 2.441 . S
O3384 C3370 1.249 . S
O3385 U3366 2.420 . S
O3385 C3370 1.202 . S
O3386 U3366 2.455 . S
O3386 C3383 1.301 . S
O3387 U3366 2.449 . S
O3387 C3383 1.282 . S
H3388 C3361 0.931 . S
H3389 C3363 0.929 . S
H3390 C3364 0.930 . S
H3391 C3365 0.931 . S
H3392 C3372 0.932 . S
H3393 C3373 0.930 . S
H3394 C3374 0.929 . S
H3395 C3376 0.930 . S
H3396 C3378 0.932 . S
H3397 C3379 0.929 . S
H3398 C3380 0.928 . S
H3399 C3382 0.932 . S
C3400 C3401 1.264 . S
C3400 C3405 1.479 . S
C3400 C3410 1.465 . S
C3401 C3400 1.264 . S
C3401 C3403 1.339 . S
C3401 H3428 0.931 . S
C3402 C3403 1.395 . S
C3402 C3404 1.320 . S
C3403 C3401 1.339 . S
C3403 C3402 1.395 . S
C3403 H3429 0.929 . S
C3404 C3402 1.320 . S
C3404 C3405 1.405 . S
C3404 H3430 0.930 . S
C3405 C3400 1.479 . S
C3405 C3404 1.405 . S
C3405 H3431 0.931 . S
U3406 O3407 2.454 . S
U3406 O3408 2.458 . S
U3406 C3409 2.984 . S
U3406 C3410 2.847 . S
U3406 C3423 2.882 . S
U3406 O3424 2.441 . S
U3406 O3425 2.420 . S
U3406 O3426 2.455 . S
U3406 O3427 2.449 . S
O3407 U3406 2.454 . S
O3407 C3409 1.353 . S
O3408 U3406 2.458 . S
O3408 C3409 1.286 . S
C3409 U3406 2.984 . S
C3409 O3407 1.353 . S
C3409 O3408 1.286 . S
C3409 C3411 1.363 . S
C3410 C3400 1.465 . S
C3410 U3406 2.847 . S
C3410 O3424 1.249 . S
C3410 O3425 1.202 . S
C3411 C3409 1.363 . S
C3411 C3413 1.408 . S
C3411 C3416 1.342 . S
C3412 C3413 1.310 . S
C3412 C3415 1.461 . S
C3412 H3432 0.932 . S
C3413 C3411 1.408 . S
C3413 C3412 1.310 . S
C3413 H3433 0.930 . S
C3414 C3415 1.474 . S
C3414 C3416 1.285 . S
C3414 H3434 0.929 . S
C3415 C3412 1.461 . S
C3415 C3414 1.474 . S
C3416 C3411 1.342 . S
C3416 C3414 1.285 . S
C3416 H3435 0.930 . S
C3417 C3420 1.424 . S
C3417 C3422 1.245 . S
C3417 C3423 1.428 . S
C3418 C3421 1.260 . S
C3418 C3422 1.477 . S
C3418 H3436 0.932 . S
C3419 C3420 1.384 . S
C3419 C3421 1.479 . S
C3419 H3437 0.929 . S
C3420 C3417 1.424 . S
C3420 C3419 1.384 . S
C3420 H3438 0.928 . S
C3421 C3418 1.260 . S
C3421 C3419 1.479 . S
C3422 C3417 1.245 . S
C3422 C3418 1.477 . S
C3422 H3439 0.932 . S
C3423 U3406 2.882 . S
C3423 C3417 1.428 . S
C3423 O3426 1.301 . S
C3423 O3427 1.282 . S
O3424 U3406 2.441 . S
O3424 C3410 1.249 . S
O3425 U3406 2.420 . S
O3425 C3410 1.202 . S
O3426 U3406 2.455 . S
O3426 C3423 1.301 . S
O3427 U3406 2.449 . S
O3427 C3423 1.282 . S
H3428 C3401 0.931 . S
H3429 C3403 0.929 . S
H3430 C3404 0.930 . S
H3431 C3405 0.931 . S
H3432 C3412 0.932 . S
H3433 C3413 0.930 . S
H3434 C3414 0.929 . S
H3435 C3416 0.930 . S
H3436 C3418 0.932 . S
H3437 C3419 0.929 . S
H3438 C3420 0.928 . S
H3439 C3422 0.932 . S
C3440 C3441 1.264 . S
C3440 C3445 1.479 . S
C3440 C3450 1.465 . S
C3441 C3440 1.264 . S
C3441 C3443 1.339 . S
C3441 H3468 0.931 . S
C3442 C3443 1.395 . S
C3442 C3444 1.320 . S
C3443 C3441 1.339 . S
C3443 C3442 1.395 . S
C3443 H3469 0.929 . S
C3444 C3442 1.320 . S
C3444 C3445 1.405 . S
C3444 H3470 0.930 . S
C3445 C3440 1.479 . S
C3445 C3444 1.405 . S
C3445 H3471 0.931 . S
U3446 O3447 2.454 . S
U3446 O3448 2.458 . S
U3446 C3449 2.984 . S
U3446 C3450 2.847 . S
U3446 C3463 2.882 . S
U3446 O3464 2.441 . S
U3446 O3465 2.420 . S
U3446 O3466 2.455 . S
U3446 O3467 2.449 . S
O3447 U3446 2.454 . S
O3447 C3449 1.353 . S
O3448 U3446 2.458 . S
O3448 C3449 1.286 . S
C3449 U3446 2.984 . S
C3449 O3447 1.353 . S
C3449 O3448 1.286 . S
C3449 C3451 1.363 . S
C3450 C3440 1.465 . S
C3450 U3446 2.847 . S
C3450 O3464 1.249 . S
C3450 O3465 1.202 . S
C3451 C3449 1.363 . S
C3451 C3453 1.408 . S
C3451 C3456 1.342 . S
C3452 C3453 1.310 . S
C3452 C3455 1.461 . S
C3452 H3472 0.932 . S
C3453 C3451 1.408 . S
C3453 C3452 1.310 . S
C3453 H3473 0.930 . S
C3454 C3455 1.474 . S
C3454 C3456 1.285 . S
C3454 H3474 0.929 . S
C3455 C3452 1.461 . S
C3455 C3454 1.474 . S
C3456 C3451 1.342 . S
C3456 C3454 1.285 . S
C3456 H3475 0.930 . S
C3457 C3460 1.424 . S
C3457 C3462 1.245 . S
C3457 C3463 1.428 . S
C3458 C3461 1.260 . S
C3458 C3462 1.477 . S
C3458 H3476 0.932 . S
C3459 C3460 1.384 . S
C3459 C3461 1.479 . S
C3459 H3477 0.929 . S
C3460 C3457 1.424 . S
C3460 C3459 1.384 . S
C3460 H3478 0.928 . S
C3461 C3458 1.260 . S
C3461 C3459 1.479 . S
C3462 C3457 1.245 . S
C3462 C3458 1.477 . S
C3462 H3479 0.932 . S
C3463 U3446 2.882 . S
C3463 C3457 1.428 . S
C3463 O3466 1.301 . S
C3463 O3467 1.282 . S
O3464 U3446 2.441 . S
O3464 C3450 1.249 . S
O3465 U3446 2.420 . S
O3465 C3450 1.202 . S
O3466 U3446 2.455 . S
O3466 C3463 1.301 . S
O3467 U3446 2.449 . S
O3467 C3463 1.282 . S
H3468 C3441 0.931 . S
H3469 C3443 0.929 . S
H3470 C3444 0.930 . S
H3471 C3445 0.931 . S
H3472 C3452 0.932 . S
H3473 C3453 0.930 . S
H3474 C3454 0.929 . S
H3475 C3456 0.930 . S
H3476 C3458 0.932 . S
H3477 C3459 0.929 . S
H3478 C3460 0.928 . S
H3479 C3462 0.932 . S
C3480 C3481 1.264 . S
C3480 C3485 1.479 . S
C3480 C3490 1.465 . S
C3481 C3480 1.264 . S
C3481 C3483 1.339 . S
C3481 H3508 0.931 . S
C3482 C3483 1.395 . S
C3482 C3484 1.320 . S
C3483 C3481 1.339 . S
C3483 C3482 1.395 . S
C3483 H3509 0.929 . S
C3484 C3482 1.320 . S
C3484 C3485 1.405 . S
C3484 H3510 0.930 . S
C3485 C3480 1.479 . S
C3485 C3484 1.405 . S
C3485 H3511 0.931 . S
U3486 O3487 2.454 . S
U3486 O3488 2.458 . S
U3486 C3489 2.984 . S
U3486 C3490 2.847 . S
U3486 C3503 2.882 . S
U3486 O3504 2.441 . S
U3486 O3505 2.420 . S
U3486 O3506 2.455 . S
U3486 O3507 2.449 . S
O3487 U3486 2.454 . S
O3487 C3489 1.353 . S
O3488 U3486 2.458 . S
O3488 C3489 1.286 . S
C3489 U3486 2.984 . S
C3489 O3487 1.353 . S
C3489 O3488 1.286 . S
C3489 C3491 1.363 . S
C3490 C3480 1.465 . S
C3490 U3486 2.847 . S
C3490 O3504 1.249 . S
C3490 O3505 1.202 . S
C3491 C3489 1.363 . S
C3491 C3493 1.408 . S
C3491 C3496 1.342 . S
C3492 C3493 1.310 . S
C3492 C3495 1.461 . S
C3492 H3512 0.932 . S
C3493 C3491 1.408 . S
C3493 C3492 1.310 . S
C3493 H3513 0.930 . S
C3494 C3495 1.474 . S
C3494 C3496 1.285 . S
C3494 H3514 0.929 . S
C3495 C3492 1.461 . S
C3495 C3494 1.474 . S
C3496 C3491 1.342 . S
C3496 C3494 1.285 . S
C3496 H3515 0.930 . S
C3497 C3500 1.424 . S
C3497 C3502 1.245 . S
C3497 C3503 1.428 . S
C3498 C3501 1.260 . S
C3498 C3502 1.477 . S
C3498 H3516 0.932 . S
C3499 C3500 1.384 . S
C3499 C3501 1.479 . S
C3499 H3517 0.929 . S
C3500 C3497 1.424 . S
C3500 C3499 1.384 . S
C3500 H3518 0.928 . S
C3501 C3498 1.260 . S
C3501 C3499 1.479 . S
C3502 C3497 1.245 . S
C3502 C3498 1.477 . S
C3502 H3519 0.932 . S
C3503 U3486 2.882 . S
C3503 C3497 1.428 . S
C3503 O3506 1.301 . S
C3503 O3507 1.282 . S
O3504 U3486 2.441 . S
O3504 C3490 1.249 . S
O3505 U3486 2.420 . S
O3505 C3490 1.202 . S
O3506 U3486 2.455 . S
O3506 C3503 1.301 . S
O3507 U3486 2.449 . S
O3507 C3503 1.282 . S
H3508 C3481 0.931 . S
H3509 C3483 0.929 . S
H3510 C3484 0.930 . S
H3511 C3485 0.931 . S
H3512 C3492 0.932 . S
H3513 C3493 0.930 . S
H3514 C3494 0.929 . S
H3515 C3496 0.930 . S
H3516 C3498 0.932 . S
H3517 C3499 0.929 . S
H3518 C3500 0.928 . S
H3519 C3502 0.932 . S
C3520 C3521 1.264 . S
C3520 C3525 1.479 . S
C3520 C3530 1.465 . S
C3521 C3520 1.264 . S
C3521 C3523 1.339 . S
C3521 H3548 0.931 . S
C3522 C3523 1.395 . S
C3522 C3524 1.320 . S
C3523 C3521 1.339 . S
C3523 C3522 1.395 . S
C3523 H3549 0.929 . S
C3524 C3522 1.320 . S
C3524 C3525 1.405 . S
C3524 H3550 0.930 . S
C3525 C3520 1.479 . S
C3525 C3524 1.405 . S
C3525 H3551 0.931 . S
U3526 O3527 2.454 . S
U3526 O3528 2.458 . S
U3526 C3529 2.984 . S
U3526 C3530 2.847 . S
U3526 C3543 2.882 . S
U3526 O3544 2.441 . S
U3526 O3545 2.420 . S
U3526 O3546 2.455 . S
U3526 O3547 2.449 . S
O3527 U3526 2.454 . S
O3527 C3529 1.353 . S
O3528 U3526 2.458 . S
O3528 C3529 1.286 . S
C3529 U3526 2.984 . S
C3529 O3527 1.353 . S
C3529 O3528 1.286 . S
C3529 C3531 1.363 . S
C3530 C3520 1.465 . S
C3530 U3526 2.847 . S
C3530 O3544 1.249 . S
C3530 O3545 1.202 . S
C3531 C3529 1.363 . S
C3531 C3533 1.408 . S
C3531 C3536 1.342 . S
C3532 C3533 1.310 . S
C3532 C3535 1.461 . S
C3532 H3552 0.932 . S
C3533 C3531 1.408 . S
C3533 C3532 1.310 . S
C3533 H3553 0.930 . S
C3534 C3535 1.474 . S
C3534 C3536 1.285 . S
C3534 H3554 0.929 . S
C3535 C3532 1.461 . S
C3535 C3534 1.474 . S
C3536 C3531 1.342 . S
C3536 C3534 1.285 . S
C3536 H3555 0.930 . S
C3537 C3540 1.424 . S
C3537 C3542 1.245 . S
C3537 C3543 1.428 . S
C3538 C3541 1.260 . S
C3538 C3542 1.477 . S
C3538 H3556 0.932 . S
C3539 C3540 1.384 . S
C3539 C3541 1.479 . S
C3539 H3557 0.929 . S
C3540 C3537 1.424 . S
C3540 C3539 1.384 . S
C3540 H3558 0.928 . S
C3541 C3538 1.260 . S
C3541 C3539 1.479 . S
C3542 C3537 1.245 . S
C3542 C3538 1.477 . S
C3542 H3559 0.932 . S
C3543 U3526 2.882 . S
C3543 C3537 1.428 . S
C3543 O3546 1.301 . S
C3543 O3547 1.282 . S
O3544 U3526 2.441 . S
O3544 C3530 1.249 . S
O3545 U3526 2.420 . S
O3545 C3530 1.202 . S
O3546 U3526 2.455 . S
O3546 C3543 1.301 . S
O3547 U3526 2.449 . S
O3547 C3543 1.282 . S
H3548 C3521 0.931 . S
H3549 C3523 0.929 . S
H3550 C3524 0.930 . S
H3551 C3525 0.931 . S
H3552 C3532 0.932 . S
H3553 C3533 0.930 . S
H3554 C3534 0.929 . S
H3555 C3536 0.930 . S
H3556 C3538 0.932 . S
H3557 C3539 0.929 . S
H3558 C3540 0.928 . S
H3559 C3542 0.932 . S
C3560 C3561 1.264 . S
C3560 C3565 1.479 . S
C3560 C3570 1.465 . S
C3561 C3560 1.264 . S
C3561 C3563 1.339 . S
C3561 H3588 0.931 . S
C3562 C3563 1.395 . S
C3562 C3564 1.320 . S
C3563 C3561 1.339 . S
C3563 C3562 1.395 . S
C3563 H3589 0.929 . S
C3564 C3562 1.320 . S
C3564 C3565 1.405 . S
C3564 H3590 0.930 . S
C3565 C3560 1.479 . S
C3565 C3564 1.405 . S
C3565 H3591 0.931 . S
U3566 O3567 2.454 . S
U3566 O3568 2.458 . S
U3566 C3569 2.984 . S
U3566 C3570 2.847 . S
U3566 C3583 2.882 . S
U3566 O3584 2.441 . S
U3566 O3585 2.420 . S
U3566 O3586 2.455 . S
U3566 O3587 2.449 . S
O3567 U3566 2.454 . S
O3567 C3569 1.353 . S
O3568 U3566 2.458 . S
O3568 C3569 1.286 . S
C3569 U3566 2.984 . S
C3569 O3567 1.353 . S
C3569 O3568 1.286 . S
C3569 C3571 1.363 . S
C3570 C3560 1.465 . S
C3570 U3566 2.847 . S
C3570 O3584 1.249 . S
C3570 O3585 1.202 . S
C3571 C3569 1.363 . S
C3571 C3573 1.408 . S
C3571 C3576 1.342 . S
C3572 C3573 1.310 . S
C3572 C3575 1.461 . S
C3572 H3592 0.932 . S
C3573 C3571 1.408 . S
C3573 C3572 1.310 . S
C3573 H3593 0.930 . S
C3574 C3575 1.474 . S
C3574 C3576 1.285 . S
C3574 H3594 0.929 . S
C3575 C3572 1.461 . S
C3575 C3574 1.474 . S
C3576 C3571 1.342 . S
C3576 C3574 1.285 . S
C3576 H3595 0.930 . S
C3577 C3580 1.424 . S
C3577 C3582 1.245 . S
C3577 C3583 1.428 . S
C3578 C3581 1.260 . S
C3578 C3582 1.477 . S
C3578 H3596 0.932 . S
C3579 C3580 1.384 . S
C3579 C3581 1.479 . S
C3579 H3597 0.929 . S
C3580 C3577 1.424 . S
C3580 C3579 1.384 . S
C3580 H3598 0.928 . S
C3581 C3578 1.260 . S
C3581 C3579 1.479 . S
C3582 C3577 1.245 . S
C3582 C3578 1.477 . S
C3582 H3599 0.932 . S
C3583 U3566 2.882 . S
C3583 C3577 1.428 . S
C3583 O3586 1.301 . S
C3583 O3587 1.282 . S
O3584 U3566 2.441 . S
O3584 C3570 1.249 . S
O3585 U3566 2.420 . S
O3585 C3570 1.202 . S
O3586 U3566 2.455 . S
O3586 C3583 1.301 . S
O3587 U3566 2.449 . S
O3587 C3583 1.282 . S
H3588 C3561 0.931 . S
H3589 C3563 0.929 . S
H3590 C3564 0.930 . S
H3591 C3565 0.931 . S
H3592 C3572 0.932 . S
H3593 C3573 0.930 . S
H3594 C3574 0.929 . S
H3595 C3576 0.930 . S
H3596 C3578 0.932 . S
H3597 C3579 0.929 . S
H3598 C3580 0.928 . S
H3599 C3582 0.932 . S
C3600 C3601 1.264 . S
C3600 C3605 1.479 . S
C3600 C3610 1.465 . S
C3601 C3600 1.264 . S
C3601 C3603 1.339 . S
C3601 H3628 0.931 . S
C3602 C3603 1.395 . S
C3602 C3604 1.320 . S
C3603 C3601 1.339 . S
C3603 C3602 1.395 . S
C3603 H3629 0.929 . S
C3604 C3602 1.320 . S
C3604 C3605 1.405 . S
C3604 H3630 0.930 . S
C3605 C3600 1.479 . S
C3605 C3604 1.405 . S
C3605 H3631 0.931 . S
U3606 O3607 2.454 . S
U3606 O3608 2.458 . S
U3606 C3609 2.984 . S
U3606 C3610 2.847 . S
U3606 C3623 2.882 . S
U3606 O3624 2.441 . S
U3606 O3625 2.420 . S
U3606 O3626 2.455 . S
U3606 O3627 2.449 . S
O3607 U3606 2.454 . S
O3607 C3609 1.353 . S
O3608 U3606 2.458 . S
O3608 C3609 1.286 . S
C3609 U3606 2.984 . S
C3609 O3607 1.353 . S
C3609 O3608 1.286 . S
C3609 C3611 1.363 . S
C3610 C3600 1.465 . S
C3610 U3606 2.847 . S
C3610 O3624 1.249 . S
C3610 O3625 1.202 . S
C3611 C3609 1.363 . S
C3611 C3613 1.408 . S
C3611 C3616 1.342 . S
C3612 C3613 1.310 . S
C3612 C3615 1.461 . S
C3612 H3632 0.932 . S
C3613 C3611 1.408 . S
C3613 C3612 1.310 . S
C3613 H3633 0.930 . S
C3614 C3615 1.474 . S
C3614 C3616 1.285 . S
C3614 H3634 0.929 . S
C3615 C3612 1.461 . S
C3615 C3614 1.474 . S
C3616 C3611 1.342 . S
C3616 C3614 1.285 . S
C3616 H3635 0.930 . S
C3617 C3620 1.424 . S
C3617 C3622 1.245 . S
C3617 C3623 1.428 . S
C3618 C3621 1.260 . S
C3618 C3622 1.477 . S
C3618 H3636 0.932 . S
C3619 C3620 1.384 . S
C3619 C3621 1.479 . S
C3619 H3637 0.929 . S
C3620 C3617 1.424 . S
C3620 C3619 1.384 . S
C3620 H3638 0.928 . S
C3621 C3618 1.260 . S
C3621 C3619 1.479 . S
C3622 C3617 1.245 . S
C3622 C3618 1.477 . S
C3622 H3639 0.932 . S
C3623 U3606 2.882 . S
C3623 C3617 1.428 . S
C3623 O3626 1.301 . S
C3623 O3627 1.282 . S
O3624 U3606 2.441 . S
O3624 C3610 1.249 . S
O3625 U3606 2.420 . S
O3625 C3610 1.202 . S
O3626 U3606 2.455 . S
O3626 C3623 1.301 . S
O3627 U3606 2.449 . S
O3627 C3623 1.282 . S
H3628 C3601 0.931 . S
H3629 C3603 0.929 . S
H3630 C3604 0.930 . S
H3631 C3605 0.931 . S
H3632 C3612 0.932 . S
H3633 C3613 0.930 . S
H3634 C3614 0.929 . S
H3635 C3616 0.930 . S
H3636 C3618 0.932 . S
H3637 C3619 0.929 . S
H3638 C3620 0.928 . S
H3639 C3622 0.932 . S
C3640 C3641 1.264 . S
C3640 C3645 1.479 . S
C3640 C3650 1.465 . S
C3641 C3640 1.264 . S
C3641 C3643 1.339 . S
C3641 H3668 0.931 . S
C3642 C3643 1.395 . S
C3642 C3644 1.320 . S
C3643 C3641 1.339 . S
C3643 C3642 1.395 . S
C3643 H3669 0.929 . S
C3644 C3642 1.320 . S
C3644 C3645 1.405 . S
C3644 H3670 0.930 . S
C3645 C3640 1.479 . S
C3645 C3644 1.405 . S
C3645 H3671 0.931 . S
U3646 O3647 2.454 . S
U3646 O3648 2.458 . S
U3646 C3649 2.984 . S
U3646 C3650 2.847 . S
U3646 C3663 2.882 . S
U3646 O3664 2.441 . S
U3646 O3665 2.420 . S
U3646 O3666 2.455 . S
U3646 O3667 2.449 . S
O3647 U3646 2.454 . S
O3647 C3649 1.353 . S
O3648 U3646 2.458 . S
O3648 C3649 1.286 . S
C3649 U3646 2.984 . S
C3649 O3647 1.353 . S
C3649 O3648 1.286 . S
C3649 C3651 1.363 . S
C3650 C3640 1.465 . S
C3650 U3646 2.847 . S
C3650 O3664 1.249 . S
C3650 O3665 1.202 . S
C3651 C3649 1.363 . S
C3651 C3653 1.408 . S
C3651 C3656 1.342 . S
C3652 C3653 1.310 . S
C3652 C3655 1.461 . S
C3652 H3672 0.932 . S
C3653 C3651 1.408 . S
C3653 C3652 1.310 . S
C3653 H3673 0.930 . S
C3654 C3655 1.474 . S
C3654 C3656 1.285 . S
C3654 H3674 0.929 . S
C3655 C3652 1.461 . S
C3655 C3654 1.474 . S
C3656 C3651 1.342 . S
C3656 C3654 1.285 . S
C3656 H3675 0.930 . S
C3657 C3660 1.424 . S
C3657 C3662 1.245 . S
C3657 C3663 1.428 . S
C3658 C3661 1.260 . S
C3658 C3662 1.477 . S
C3658 H3676 0.932 . S
C3659 C3660 1.384 . S
C3659 C3661 1.479 . S
C3659 H3677 0.929 . S
C3660 C3657 1.424 . S
C3660 C3659 1.384 . S
C3660 H3678 0.928 . S
C3661 C3658 1.260 . S
C3661 C3659 1.479 . S
C3662 C3657 1.245 . S
C3662 C3658 1.477 . S
C3662 H3679 0.932 . S
C3663 U3646 2.882 . S
C3663 C3657 1.428 . S
C3663 O3666 1.301 . S
C3663 O3667 1.282 . S
O3664 U3646 2.441 . S
O3664 C3650 1.249 . S
O3665 U3646 2.420 . S
O3665 C3650 1.202 . S
O3666 U3646 2.455 . S
O3666 C3663 1.301 . S
O3667 U3646 2.449 . S
O3667 C3663 1.282 . S
H3668 C3641 0.931 . S
H3669 C3643 0.929 . S
H3670 C3644 0.930 . S
H3671 C3645 0.931 . S
H3672 C3652 0.932 . S
H3673 C3653 0.930 . S
H3674 C3654 0.929 . S
H3675 C3656 0.930 . S
H3676 C3658 0.932 . S
H3677 C3659 0.929 . S
H3678 C3660 0.928 . S
H3679 C3662 0.932 . S
C3680 C3681 1.264 . S
C3680 C3685 1.479 . S
C3680 C3690 1.465 . S
C3681 C3680 1.264 . S
C3681 C3683 1.339 . S
C3681 H3708 0.931 . S
C3682 C3683 1.395 . S
C3682 C3684 1.320 . S
C3683 C3681 1.339 . S
C3683 C3682 1.395 . S
C3683 H3709 0.929 . S
C3684 C3682 1.320 . S
C3684 C3685 1.405 . S
C3684 H3710 0.930 . S
C3685 C3680 1.479 . S
C3685 C3684 1.405 . S
C3685 H3711 0.931 . S
U3686 O3687 2.454 . S
U3686 O3688 2.458 . S
U3686 C3689 2.984 . S
U3686 C3690 2.847 . S
U3686 C3703 2.882 . S
U3686 O3704 2.441 . S
U3686 O3705 2.420 . S
U3686 O3706 2.455 . S
U3686 O3707 2.449 . S
O3687 U3686 2.454 . S
O3687 C3689 1.353 . S
O3688 U3686 2.458 . S
O3688 C3689 1.286 . S
C3689 U3686 2.984 . S
C3689 O3687 1.353 . S
C3689 O3688 1.286 . S
C3689 C3691 1.363 . S
C3690 C3680 1.465 . S
C3690 U3686 2.847 . S
C3690 O3704 1.249 . S
C3690 O3705 1.202 . S
C3691 C3689 1.363 . S
C3691 C3693 1.408 . S
C3691 C3696 1.342 . S
C3692 C3693 1.310 . S
C3692 C3695 1.461 . S
C3692 H3712 0.932 . S
C3693 C3691 1.408 . S
C3693 C3692 1.310 . S
C3693 H3713 0.930 . S
C3694 C3695 1.474 . S
C3694 C3696 1.285 . S
C3694 H3714 0.929 . S
C3695 C3692 1.461 . S
C3695 C3694 1.474 . S
C3696 C3691 1.342 . S
C3696 C3694 1.285 . S
C3696 H3715 0.930 . S
C3697 C3700 1.424 . S
C3697 C3702 1.245 . S
C3697 C3703 1.428 . S
C3698 C3701 1.260 . S
C3698 C3702 1.477 . S
C3698 H3716 0.932 . S
C3699 C3700 1.384 . S
C3699 C3701 1.479 . S
C3699 H3717 0.929 . S
C3700 C3697 1.424 . S
C3700 C3699 1.384 . S
C3700 H3718 0.928 . S
C3701 C3698 1.260 . S
C3701 C3699 1.479 . S
C3702 C3697 1.245 . S
C3702 C3698 1.477 . S
C3702 H3719 0.932 . S
C3703 U3686 2.882 . S
C3703 C3697 1.428 . S
C3703 O3706 1.301 . S
C3703 O3707 1.282 . S
O3704 U3686 2.441 . S
O3704 C3690 1.249 . S
O3705 U3686 2.420 . S
O3705 C3690 1.202 . S
O3706 U3686 2.455 . S
O3706 C3703 1.301 . S
O3707 U3686 2.449 . S
O3707 C3703 1.282 . S
H3708 C3681 0.931 . S
H3709 C3683 0.929 . S
H3710 C3684 0.930 . S
H3711 C3685 0.931 . S
H3712 C3692 0.932 . S
H3713 C3693 0.930 . S
H3714 C3694 0.929 . S
H3715 C3696 0.930 . S
H3716 C3698 0.932 . S
H3717 C3699 0.929 . S
H3718 C3700 0.928 . S
H3719 C3702 0.932 . S
C3720 C3721 1.264 . S
C3720 C3725 1.479 . S
C3720 C3730 1.465 . S
C3721 C3720 1.264 . S
C3721 C3723 1.339 . S
C3721 H3748 0.931 . S
C3722 C3723 1.395 . S
C3722 C3724 1.320 . S
C3723 C3721 1.339 . S
C3723 C3722 1.395 . S
C3723 H3749 0.929 . S
C3724 C3722 1.320 . S
C3724 C3725 1.405 . S
C3724 H3750 0.930 . S
C3725 C3720 1.479 . S
C3725 C3724 1.405 . S
C3725 H3751 0.931 . S
U3726 O3727 2.454 . S
U3726 O3728 2.458 . S
U3726 C3729 2.984 . S
U3726 C3730 2.847 . S
U3726 C3743 2.882 . S
U3726 O3744 2.441 . S
U3726 O3745 2.420 . S
U3726 O3746 2.455 . S
U3726 O3747 2.449 . S
O3727 U3726 2.454 . S
O3727 C3729 1.353 . S
O3728 U3726 2.458 . S
O3728 C3729 1.286 . S
C3729 U3726 2.984 . S
C3729 O3727 1.353 . S
C3729 O3728 1.286 . S
C3729 C3731 1.363 . S
C3730 C3720 1.465 . S
C3730 U3726 2.847 . S
C3730 O3744 1.249 . S
C3730 O3745 1.202 . S
C3731 C3729 1.363 . S
C3731 C3733 1.408 . S
C3731 C3736 1.342 . S
C3732 C3733 1.310 . S
C3732 C3735 1.461 . S
C3732 H3752 0.932 . S
C3733 C3731 1.408 . S
C3733 C3732 1.310 . S
C3733 H3753 0.930 . S
C3734 C3735 1.474 . S
C3734 C3736 1.285 . S
C3734 H3754 0.929 . S
C3735 C3732 1.461 . S
C3735 C3734 1.474 . S
C3736 C3731 1.342 . S
C3736 C3734 1.285 . S
C3736 H3755 0.930 . S
C3737 C3740 1.424 . S
C3737 C3742 1.245 . S
C3737 C3743 1.428 . S
C3738 C3741 1.260 . S
C3738 C3742 1.477 . S
C3738 H3756 0.932 . S
C3739 C3740 1.384 . S
C3739 C3741 1.479 . S
C3739 H3757 0.929 . S
C3740 C3737 1.424 . S
C3740 C3739 1.384 . S
C3740 H3758 0.928 . S
C3741 C3738 1.260 . S
C3741 C3739 1.479 . S
C3742 C3737 1.245 . S
C3742 C3738 1.477 . S
C3742 H3759 0.932 . S
C3743 U3726 2.882 . S
C3743 C3737 1.428 . S
C3743 O3746 1.301 . S
C3743 O3747 1.282 . S
O3744 U3726 2.441 . S
O3744 C3730 1.249 . S
O3745 U3726 2.420 . S
O3745 C3730 1.202 . S
O3746 U3726 2.455 . S
O3746 C3743 1.301 . S
O3747 U3726 2.449 . S
O3747 C3743 1.282 . S
H3748 C3721 0.931 . S
H3749 C3723 0.929 . S
H3750 C3724 0.930 . S
H3751 C3725 0.931 . S
H3752 C3732 0.932 . S
H3753 C3733 0.930 . S
H3754 C3734 0.929 . S
H3755 C3736 0.930 . S
H3756 C3738 0.932 . S
H3757 C3739 0.929 . S
H3758 C3740 0.928 . S
H3759 C3742 0.932 . S
C3760 C3761 1.264 . S
C3760 C3765 1.479 . S
C3760 C3770 1.465 . S
C3761 C3760 1.264 . S
C3761 C3763 1.339 . S
C3761 H3788 0.931 . S
C3762 C3763 1.395 . S
C3762 C3764 1.320 . S
C3763 C3761 1.339 . S
C3763 C3762 1.395 . S
C3763 H3789 0.929 . S
C3764 C3762 1.320 . S
C3764 C3765 1.405 . S
C3764 H3790 0.930 . S
C3765 C3760 1.479 . S
C3765 C3764 1.405 . S
C3765 H3791 0.931 . S
U3766 O3767 2.454 . S
U3766 O3768 2.458 . S
U3766 C3769 2.984 . S
U3766 C3770 2.847 . S
U3766 C3783 2.882 . S
U3766 O3784 2.441 . S
U3766 O3785 2.420 . S
U3766 O3786 2.455 . S
U3766 O3787 2.449 . S
O3767 U3766 2.454 . S
O3767 C3769 1.353 . S
O3768 U3766 2.458 . S
O3768 C3769 1.286 . S
C3769 U3766 2.984 . S
C3769 O3767 1.353 . S
C3769 O3768 1.286 . S
C3769 C3771 1.363 . S
C3770 C3760 1.465 . S
C3770 U3766 2.847 . S
C3770 O3784 1.249 . S
C3770 O3785 1.202 . S
C3771 C3769 1.363 . S
C3771 C3773 1.408 . S
C3771 C3776 1.342 . S
C3772 C3773 1.310 . S
C3772 C3775 1.461 . S
C3772 H3792 0.932 . S
C3773 C3771 1.408 . S
C3773 C3772 1.310 . S
C3773 H3793 0.930 . S
C3774 C3775 1.474 . S
C3774 C3776 1.285 . S
C3774 H3794 0.929 . S
C3775 C3772 1.461 . S
C3775 C3774 1.474 . S
C3776 C3771 1.342 . S
C3776 C3774 1.285 . S
C3776 H3795 0.930 . S
C3777 C3780 1.424 . S
C3777 C3782 1.245 . S
C3777 C3783 1.428 . S
C3778 C3781 1.260 . S
C3778 C3782 1.477 . S
C3778 H3796 0.932 . S
C3779 C3780 1.384 . S
C3779 C3781 1.479 . S
C3779 H3797 0.929 . S
C3780 C3777 1.424 . S
C3780 C3779 1.384 . S
C3780 H3798 0.928 . S
C3781 C3778 1.260 . S
C3781 C3779 1.479 . S
C3782 C3777 1.245 . S
C3782 C3778 1.477 . S
C3782 H3799 0.932 . S
C3783 U3766 2.882 . S
C3783 C3777 1.428 . S
C3783 O3786 1.301 . S
C3783 O3787 1.282 . S
O3784 U3766 2.441 . S
O3784 C3770 1.249 . S
O3785 U3766 2.420 . S
O3785 C3770 1.202 . S
O3786 U3766 2.455 . S
O3786 C3783 1.301 . S
O3787 U3766 2.449 . S
O3787 C3783 1.282 . S
H3788 C3761 0.931 . S
H3789 C3763 0.929 . S
H3790 C3764 0.930 . S
H3791 C3765 0.931 . S
H3792 C3772 0.932 . S
H3793 C3773 0.930 . S
H3794 C3774 0.929 . S
H3795 C3776 0.930 . S
H3796 C3778 0.932 . S
H3797 C3779 0.929 . S
H3798 C3780 0.928 . S
H3799 C3782 0.932 . S
C3800 C3801 1.264 . S
C3800 C3805 1.479 . S
C3800 C3810 1.465 . S
C3801 C3800 1.264 . S
C3801 C3803 1.339 . S
C3801 H3828 0.931 . S
C3802 C3803 1.395 . S
C3802 C3804 1.320 . S
C3803 C3801 1.339 . S
C3803 C3802 1.395 . S
C3803 H3829 0.929 . S
C3804 C3802 1.320 . S
C3804 C3805 1.405 . S
C3804 H3830 0.930 . S
C3805 C3800 1.479 . S
C3805 C3804 1.405 . S
C3805 H3831 0.931 . S
U3806 O3807 2.454 . S
U3806 O3808 2.458 . S
U3806 C3809 2.984 . S
U3806 C3810 2.847 . S
U3806 C3823 2.882 . S
U3806 O3824 2.441 . S
U3806 O3825 2.420 . S
U3806 O3826 2.455 . S
U3806 O3827 2.449 . S
O3807 U3806 2.454 . S
O3807 C3809 1.353 . S
O3808 U3806 2.458 . S
O3808 C3809 1.286 . S
C3809 U3806 2.984 . S
C3809 O3807 1.353 . S
C3809 O3808 1.286 . S
C3809 C3811 1.363 . S
C3810 C3800 1.465 . S
C3810 U3806 2.847 . S
C3810 O3824 1.249 . S
C3810 O3825 1.202 . S
C3811 C3809 1.363 . S
C3811 C3813 1.408 . S
C3811 C3816 1.342 . S
C3812 C3813 1.310 . S
C3812 C3815 1.461 . S
C3812 H3832 0.932 . S
C3813 C3811 1.408 . S
C3813 C3812 1.310 . S
C3813 H3833 0.930 . S
C3814 C3815 1.474 . S
C3814 C3816 1.285 . S
C3814 H3834 0.929 . S
C3815 C3812 1.461 . S
C3815 C3814 1.474 . S
C3816 C3811 1.342 . S
C3816 C3814 1.285 . S
C3816 H3835 0.930 . S
C3817 C3820 1.424 . S
C3817 C3822 1.245 . S
C3817 C3823 1.428 . S
C3818 C3821 1.260 . S
C3818 C3822 1.477 . S
C3818 H3836 0.932 . S
C3819 C3820 1.384 . S
C3819 C3821 1.479 . S
C3819 H3837 0.929 . S
C3820 C3817 1.424 . S
C3820 C3819 1.384 . S
C3820 H3838 0.928 . S
C3821 C3818 1.260 . S
C3821 C3819 1.479 . S
C3822 C3817 1.245 . S
C3822 C3818 1.477 . S
C3822 H3839 0.932 . S
C3823 U3806 2.882 . S
C3823 C3817 1.428 . S
C3823 O3826 1.301 . S
C3823 O3827 1.282 . S
O3824 U3806 2.441 . S
O3824 C3810 1.249 . S
O3825 U3806 2.420 . S
O3825 C3810 1.202 . S
O3826 U3806 2.455 . S
O3826 C3823 1.301 . S
O3827 U3806 2.449 . S
O3827 C3823 1.282 . S
H3828 C3801 0.931 . S
H3829 C3803 0.929 . S
H3830 C3804 0.930 . S
H3831 C3805 0.931 . S
H3832 C3812 0.932 . S
H3833 C3813 0.930 . S
H3834 C3814 0.929 . S
H3835 C3816 0.930 . S
H3836 C3818 0.932 . S
H3837 C3819 0.929 . S
H3838 C3820 0.928 . S
H3839 C3822 0.932 . S
H3840 C3841 0.949 . S
C3841 H3840 0.949 . S
C3841 C3842 1.395 . S
C3841 C3843 1.391 . S
C3842 C3841 1.395 . S
C3842 C3845 1.390 . S
C3843 C3841 1.391 . S
C3843 C3847 1.387 . S
C3843 C3848 1.491 . S
H3844 C3845 0.950 . S
C3845 C3842 1.390 . S
C3845 H3844 0.950 . S
C3845 C3846 1.378 . S
C3846 C3845 1.378 . S
C3846 C3847 1.409 . S
C3847 C3843 1.387 . S
C3847 C3846 1.409 . S
C3847 H3849 0.951 . S
C3848 C3843 1.491 . S
C3848 C3850 1.382 . S
C3848 C3852 1.404 . S
H3849 C3847 0.951 . S
C3850 C3848 1.382 . S
C3850 C3851 1.390 . S
C3850 H3855 0.949 . S
C3851 C3850 1.390 . S
C3851 C3856 1.399 . S
C3852 C3848 1.404 . S
C3852 H3853 0.950 . S
C3852 C3854 1.375 . S
H3853 C3852 0.950 . S
C3854 C3852 1.375 . S
C3854 C3856 1.382 . S
C3854 H3858 0.950 . S
H3855 C3850 0.949 . S
C3856 C3851 1.399 . S
C3856 C3854 1.382 . S
C3856 H3857 0.952 . S
H3857 C3856 0.952 . S
H3858 C3854 0.950 . S
H3859 C3860 0.949 . S
C3860 H3859 0.949 . S
C3860 C3861 1.395 . S
C3860 C3862 1.391 . S
C3861 C3860 1.395 . S
C3861 C3864 1.390 . S
C3862 C3860 1.391 . S
C3862 C3866 1.387 . S
C3862 C3867 1.491 . S
H3863 C3864 0.950 . S
C3864 C3861 1.390 . S
C3864 H3863 0.950 . S
C3864 C3865 1.378 . S
C3865 C3864 1.378 . S
C3865 C3866 1.409 . S
C3866 C3862 1.387 . S
C3866 C3865 1.409 . S
C3866 H3868 0.951 . S
C3867 C3862 1.491 . S
C3867 C3869 1.382 . S
C3867 C3871 1.404 . S
H3868 C3866 0.951 . S
C3869 C3867 1.382 . S
C3869 C3870 1.390 . S
C3869 H3874 0.949 . S
C3870 C3869 1.390 . S
C3870 C3875 1.399 . S
C3871 C3867 1.404 . S
C3871 H3872 0.950 . S
C3871 C3873 1.375 . S
H3872 C3871 0.950 . S
C3873 C3871 1.375 . S
C3873 C3875 1.382 . S
C3873 H3877 0.950 . S
H3874 C3869 0.949 . S
C3875 C3870 1.399 . S
C3875 C3873 1.382 . S
C3875 H3876 0.952 . S
H3876 C3875 0.952 . S
H3877 C3873 0.950 . S
H3878 C3879 0.949 . S
C3879 H3878 0.949 . S
C3879 C3880 1.395 . S
C3879 C3881 1.391 . S
C3880 C3879 1.395 . S
C3880 C3883 1.390 . S
C3881 C3879 1.391 . S
C3881 C3885 1.387 . S
C3881 C3886 1.491 . S
H3882 C3883 0.950 . S
C3883 C3880 1.390 . S
C3883 H3882 0.950 . S
C3883 C3884 1.378 . S
C3884 C3883 1.378 . S
C3884 C3885 1.409 . S
C3885 C3881 1.387 . S
C3885 C3884 1.409 . S
C3885 H3887 0.951 . S
C3886 C3881 1.491 . S
C3886 C3888 1.382 . S
C3886 C3890 1.404 . S
H3887 C3885 0.951 . S
C3888 C3886 1.382 . S
C3888 C3889 1.390 . S
C3888 H3893 0.949 . S
C3889 C3888 1.390 . S
C3889 C3894 1.399 . S
C3890 C3886 1.404 . S
C3890 H3891 0.950 . S
C3890 C3892 1.375 . S
H3891 C3890 0.950 . S
C3892 C3890 1.375 . S
C3892 C3894 1.382 . S
C3892 H3896 0.950 . S
H3893 C3888 0.949 . S
C3894 C3889 1.399 . S
C3894 C3892 1.382 . S
C3894 H3895 0.952 . S
H3895 C3894 0.952 . S
H3896 C3892 0.950 . S
H3897 C3898 0.949 . S
C3898 H3897 0.949 . S
C3898 C3899 1.395 . S
C3898 C3900 1.391 . S
C3899 C3898 1.395 . S
C3899 C3902 1.390 . S
C3900 C3898 1.391 . S
C3900 C3904 1.387 . S
C3900 C3905 1.491 . S
H3901 C3902 0.950 . S
C3902 C3899 1.390 . S
C3902 H3901 0.950 . S
C3902 C3903 1.378 . S
C3903 C3902 1.378 . S
C3903 C3904 1.409 . S
C3904 C3900 1.387 . S
C3904 C3903 1.409 . S
C3904 H3906 0.951 . S
C3905 C3900 1.491 . S
C3905 C3907 1.382 . S
C3905 C3909 1.404 . S
H3906 C3904 0.951 . S
C3907 C3905 1.382 . S
C3907 C3908 1.390 . S
C3907 H3912 0.949 . S
C3908 C3907 1.390 . S
C3908 C3913 1.399 . S
C3909 C3905 1.404 . S
C3909 H3910 0.950 . S
C3909 C3911 1.375 . S
H3910 C3909 0.950 . S
C3911 C3909 1.375 . S
C3911 C3913 1.382 . S
C3911 H3915 0.950 . S
H3912 C3907 0.949 . S
C3913 C3908 1.399 . S
C3913 C3911 1.382 . S
C3913 H3914 0.952 . S
H3914 C3913 0.952 . S
H3915 C3911 0.950 . S
H3916 C3917 0.949 . S
C3917 H3916 0.949 . S
C3917 C3918 1.395 . S
C3917 C3919 1.391 . S
C3918 C3917 1.395 . S
C3918 C3921 1.390 . S
C3919 C3917 1.391 . S
C3919 C3923 1.387 . S
C3919 C3924 1.491 . S
H3920 C3921 0.950 . S
C3921 C3918 1.390 . S
C3921 H3920 0.950 . S
C3921 C3922 1.378 . S
C3922 C3921 1.378 . S
C3922 C3923 1.409 . S
C3923 C3919 1.387 . S
C3923 C3922 1.409 . S
C3923 H3925 0.951 . S
C3924 C3919 1.491 . S
C3924 C3926 1.382 . S
C3924 C3928 1.404 . S
H3925 C3923 0.951 . S
C3926 C3924 1.382 . S
C3926 C3927 1.390 . S
C3926 H3931 0.949 . S
C3927 C3926 1.390 . S
C3927 C3932 1.399 . S
C3928 C3924 1.404 . S
C3928 H3929 0.950 . S
C3928 C3930 1.375 . S
H3929 C3928 0.950 . S
C3930 C3928 1.375 . S
C3930 C3932 1.382 . S
C3930 H3934 0.950 . S
H3931 C3926 0.949 . S
C3932 C3927 1.399 . S
C3932 C3930 1.382 . S
C3932 H3933 0.952 . S
H3933 C3932 0.952 . S
H3934 C3930 0.950 . S
H3935 C3936 0.949 . S
C3936 H3935 0.949 . S
C3936 C3937 1.395 . S
C3936 C3938 1.391 . S
C3937 C3936 1.395 . S
C3937 C3940 1.390 . S
C3938 C3936 1.391 . S
C3938 C3942 1.387 . S
C3938 C3943 1.491 . S
H3939 C3940 0.950 . S
C3940 C3937 1.390 . S
C3940 H3939 0.950 . S
C3940 C3941 1.378 . S
C3941 C3940 1.378 . S
C3941 C3942 1.409 . S
C3942 C3938 1.387 . S
C3942 C3941 1.409 . S
C3942 H3944 0.951 . S
C3943 C3938 1.491 . S
C3943 C3945 1.382 . S
C3943 C3947 1.404 . S
H3944 C3942 0.951 . S
C3945 C3943 1.382 . S
C3945 C3946 1.390 . S
C3945 H3950 0.949 . S
C3946 C3945 1.390 . S
C3946 C3951 1.399 . S
C3947 C3943 1.404 . S
C3947 H3948 0.950 . S
C3947 C3949 1.375 . S
H3948 C3947 0.950 . S
C3949 C3947 1.375 . S
C3949 C3951 1.382 . S
C3949 H3953 0.950 . S
H3950 C3945 0.949 . S
C3951 C3946 1.399 . S
C3951 C3949 1.382 . S
C3951 H3952 0.952 . S
H3952 C3951 0.952 . S
H3953 C3949 0.950 . S
H3954 C3955 0.949 . S
C3955 H3954 0.949 . S
C3955 C3956 1.395 . S
C3955 C3957 1.391 . S
C3956 C3955 1.395 . S
C3956 C3959 1.390 . S
C3957 C3955 1.391 . S
C3957 C3961 1.387 . S
C3957 C3962 1.491 . S
H3958 C3959 0.950 . S
C3959 C3956 1.390 . S
C3959 H3958 0.950 . S
C3959 C3960 1.378 . S
C3960 C3959 1.378 . S
C3960 C3961 1.409 . S
C3961 C3957 1.387 . S
C3961 C3960 1.409 . S
C3961 H3963 0.951 . S
C3962 C3957 1.491 . S
C3962 C3964 1.382 . S
C3962 C3966 1.404 . S
H3963 C3961 0.951 . S
C3964 C3962 1.382 . S
C3964 C3965 1.390 . S
C3964 H3969 0.949 . S
C3965 C3964 1.390 . S
C3965 C3970 1.399 . S
C3966 C3962 1.404 . S
C3966 H3967 0.950 . S
C3966 C3968 1.375 . S
H3967 C3966 0.950 . S
C3968 C3966 1.375 . S
C3968 C3970 1.382 . S
C3968 H3972 0.950 . S
H3969 C3964 0.949 . S
C3970 C3965 1.399 . S
C3970 C3968 1.382 . S
C3970 H3971 0.952 . S
H3971 C3970 0.952 . S
H3972 C3968 0.950 . S
H3973 C3974 0.949 . S
C3974 H3973 0.949 . S
C3974 C3975 1.395 . S
C3974 C3976 1.391 . S
C3975 C3974 1.395 . S
C3975 C3978 1.390 . S
C3976 C3974 1.391 . S
C3976 C3980 1.387 . S
C3976 C3981 1.491 . S
H3977 C3978 0.950 . S
C3978 C3975 1.390 . S
C3978 H3977 0.950 . S
C3978 C3979 1.378 . S
C3979 C3978 1.378 . S
C3979 C3980 1.409 . S
C3980 C3976 1.387 . S
C3980 C3979 1.409 . S
C3980 H3982 0.951 . S
C3981 C3976 1.491 . S
C3981 C3983 1.382 . S
C3981 C3985 1.404 . S
H3982 C3980 0.951 . S
C3983 C3981 1.382 . S
C3983 C3984 1.390 . S
C3983 H3988 0.949 . S
C3984 C3983 1.390 . S
C3984 C3989 1.399 . S
C3985 C3981 1.404 . S
C3985 H3986 0.950 . S
C3985 C3987 1.375 . S
H3986 C3985 0.950 . S
C3987 C3985 1.375 . S
C3987 C3989 1.382 . S
C3987 H3991 0.950 . S
H3988 C3983 0.949 . S
C3989 C3984 1.399 . S
C3989 C3987 1.382 . S
C3989 H3990 0.952 . S
H3990 C3989 0.952 . S
H3991 C3987 0.950 . S
H3992 C3993 0.949 . S
C3993 H3992 0.949 . S
C3993 C3994 1.395 . S
C3993 C3995 1.391 . S
C3994 C3993 1.395 . S
C3994 C3997 1.390 . S
C3995 C3993 1.391 . S
C3995 C3999 1.387 . S
C3995 C4000 1.491 . S
H3996 C3997 0.950 . S
C3997 C3994 1.390 . S
C3997 H3996 0.950 . S
C3997 C3998 1.378 . S
C3998 C3997 1.378 . S
C3998 C3999 1.409 . S
C3999 C3995 1.387 . S
C3999 C3998 1.409 . S
C3999 H4001 0.951 . S
C4000 C3995 1.491 . S
C4000 C4002 1.382 . S
C4000 C4004 1.404 . S
H4001 C3999 0.951 . S
C4002 C4000 1.382 . S
C4002 C4003 1.390 . S
C4002 H4007 0.949 . S
C4003 C4002 1.390 . S
C4003 C4008 1.399 . S
C4004 C4000 1.404 . S
C4004 H4005 0.950 . S
C4004 C4006 1.375 . S
H4005 C4004 0.950 . S
C4006 C4004 1.375 . S
C4006 C4008 1.382 . S
C4006 H4010 0.950 . S
H4007 C4002 0.949 . S
C4008 C4003 1.399 . S
C4008 C4006 1.382 . S
C4008 H4009 0.952 . S
H4009 C4008 0.952 . S
H4010 C4006 0.950 . S
H4011 C4012 0.949 . S
C4012 H4011 0.949 . S
C4012 C4013 1.395 . S
C4012 C4014 1.391 . S
C4013 C4012 1.395 . S
C4013 C4016 1.390 . S
C4014 C4012 1.391 . S
C4014 C4018 1.387 . S
C4014 C4019 1.491 . S
H4015 C4016 0.950 . S
C4016 C4013 1.390 . S
C4016 H4015 0.950 . S
C4016 C4017 1.378 . S
C4017 C4016 1.378 . S
C4017 C4018 1.409 . S
C4018 C4014 1.387 . S
C4018 C4017 1.409 . S
C4018 H4020 0.951 . S
C4019 C4014 1.491 . S
C4019 C4021 1.382 . S
C4019 C4023 1.404 . S
H4020 C4018 0.951 . S
C4021 C4019 1.382 . S
C4021 C4022 1.390 . S
C4021 H4026 0.949 . S
C4022 C4021 1.390 . S
C4022 C4027 1.399 . S
C4023 C4019 1.404 . S
C4023 H4024 0.950 . S
C4023 C4025 1.375 . S
H4024 C4023 0.950 . S
C4025 C4023 1.375 . S
C4025 C4027 1.382 . S
C4025 H4029 0.950 . S
H4026 C4021 0.949 . S
C4027 C4022 1.399 . S
C4027 C4025 1.382 . S
C4027 H4028 0.952 . S
H4028 C4027 0.952 . S
H4029 C4025 0.950 . S
H4030 C4031 0.949 . S
C4031 H4030 0.949 . S
C4031 C4032 1.395 . S
C4031 C4033 1.391 . S
C4032 C4031 1.395 . S
C4032 C4035 1.390 . S
C4033 C4031 1.391 . S
C4033 C4037 1.387 . S
C4033 C4038 1.491 . S
H4034 C4035 0.950 . S
C4035 C4032 1.390 . S
C4035 H4034 0.950 . S
C4035 C4036 1.378 . S
C4036 C4035 1.378 . S
C4036 C4037 1.409 . S
C4037 C4033 1.387 . S
C4037 C4036 1.409 . S
C4037 H4039 0.951 . S
C4038 C4033 1.491 . S
C4038 C4040 1.382 . S
C4038 C4042 1.404 . S
H4039 C4037 0.951 . S
C4040 C4038 1.382 . S
C4040 C4041 1.390 . S
C4040 H4045 0.949 . S
C4041 C4040 1.390 . S
C4041 C4046 1.399 . S
C4042 C4038 1.404 . S
C4042 H4043 0.950 . S
C4042 C4044 1.375 . S
H4043 C4042 0.950 . S
C4044 C4042 1.375 . S
C4044 C4046 1.382 . S
C4044 H4048 0.950 . S
H4045 C4040 0.949 . S
C4046 C4041 1.399 . S
C4046 C4044 1.382 . S
C4046 H4047 0.952 . S
H4047 C4046 0.952 . S
H4048 C4044 0.950 . S
H4049 C4050 0.949 . S
C4050 H4049 0.949 . S
C4050 C4051 1.395 . S
C4050 C4052 1.391 . S
C4051 C4050 1.395 . S
C4051 C4054 1.390 . S
C4052 C4050 1.391 . S
C4052 C4056 1.387 . S
C4052 C4057 1.491 . S
H4053 C4054 0.950 . S
C4054 C4051 1.390 . S
C4054 H4053 0.950 . S
C4054 C4055 1.378 . S
C4055 C4054 1.378 . S
C4055 C4056 1.409 . S
C4056 C4052 1.387 . S
C4056 C4055 1.409 . S
C4056 H4058 0.951 . S
C4057 C4052 1.491 . S
C4057 C4059 1.382 . S
C4057 C4061 1.404 . S
H4058 C4056 0.951 . S
C4059 C4057 1.382 . S
C4059 C4060 1.390 . S
C4059 H4064 0.949 . S
C4060 C4059 1.390 . S
C4060 C4065 1.399 . S
C4061 C4057 1.404 . S
C4061 H4062 0.950 . S
C4061 C4063 1.375 . S
H4062 C4061 0.950 . S
C4063 C4061 1.375 . S
C4063 C4065 1.382 . S
C4063 H4067 0.950 . S
H4064 C4059 0.949 . S
C4065 C4060 1.399 . S
C4065 C4063 1.382 . S
C4065 H4066 0.952 . S
H4066 C4065 0.952 . S
H4067 C4063 0.950 . S
H4068 C4069 0.949 . S
C4069 H4068 0.949 . S
C4069 C4070 1.395 . S
C4069 C4071 1.391 . S
C4070 C4069 1.395 . S
C4070 C4073 1.390 . S
C4071 C4069 1.391 . S
C4071 C4075 1.387 . S
C4071 C4076 1.491 . S
H4072 C4073 0.950 . S
C4073 C4070 1.390 . S
C4073 H4072 0.950 . S
C4073 C4074 1.378 . S
C4074 C4073 1.378 . S
C4074 C4075 1.409 . S
C4075 C4071 1.387 . S
C4075 C4074 1.409 . S
C4075 H4077 0.951 . S
C4076 C4071 1.491 . S
C4076 C4078 1.382 . S
C4076 C4080 1.404 . S
H4077 C4075 0.951 . S
C4078 C4076 1.382 . S
C4078 C4079 1.390 . S
C4078 H4083 0.949 . S
C4079 C4078 1.390 . S
C4079 C4084 1.399 . S
C4080 C4076 1.404 . S
C4080 H4081 0.950 . S
C4080 C4082 1.375 . S
H4081 C4080 0.950 . S
C4082 C4080 1.375 . S
C4082 C4084 1.382 . S
C4082 H4086 0.950 . S
H4083 C4078 0.949 . S
C4084 C4079 1.399 . S
C4084 C4082 1.382 . S
C4084 H4085 0.952 . S
H4085 C4084 0.952 . S
H4086 C4082 0.950 . S
H4087 C4088 0.949 . S
C4088 H4087 0.949 . S
C4088 C4089 1.395 . S
C4088 C4090 1.391 . S
C4089 C4088 1.395 . S
C4089 C4092 1.390 . S
C4090 C4088 1.391 . S
C4090 C4094 1.387 . S
C4090 C4095 1.491 . S
H4091 C4092 0.950 . S
C4092 C4089 1.390 . S
C4092 H4091 0.950 . S
C4092 C4093 1.378 . S
C4093 C4092 1.378 . S
C4093 C4094 1.409 . S
C4094 C4090 1.387 . S
C4094 C4093 1.409 . S
C4094 H4096 0.951 . S
C4095 C4090 1.491 . S
C4095 C4097 1.382 . S
C4095 C4099 1.404 . S
H4096 C4094 0.951 . S
C4097 C4095 1.382 . S
C4097 C4098 1.390 . S
C4097 H4102 0.949 . S
C4098 C4097 1.390 . S
C4098 C4103 1.399 . S
C4099 C4095 1.404 . S
C4099 H4100 0.950 . S
C4099 C4101 1.375 . S
H4100 C4099 0.950 . S
C4101 C4099 1.375 . S
C4101 C4103 1.382 . S
C4101 H4105 0.950 . S
H4102 C4097 0.949 . S
C4103 C4098 1.399 . S
C4103 C4101 1.382 . S
C4103 H4104 0.952 . S
H4104 C4103 0.952 . S
H4105 C4101 0.950 . S
H4106 C4107 0.949 . S
C4107 H4106 0.949 . S
C4107 C4108 1.395 . S
C4107 C4109 1.391 . S
C4108 C4107 1.395 . S
C4108 C4111 1.390 . S
C4109 C4107 1.391 . S
C4109 C4113 1.387 . S
C4109 C4114 1.491 . S
H4110 C4111 0.950 . S
C4111 C4108 1.390 . S
C4111 H4110 0.950 . S
C4111 C4112 1.378 . S
C4112 C4111 1.378 . S
C4112 C4113 1.409 . S
C4113 C4109 1.387 . S
C4113 C4112 1.409 . S
C4113 H4115 0.951 . S
C4114 C4109 1.491 . S
C4114 C4116 1.382 . S
C4114 C4118 1.404 . S
H4115 C4113 0.951 . S
C4116 C4114 1.382 . S
C4116 C4117 1.390 . S
C4116 H4121 0.949 . S
C4117 C4116 1.390 . S
C4117 C4122 1.399 . S
C4118 C4114 1.404 . S
C4118 H4119 0.950 . S
C4118 C4120 1.375 . S
H4119 C4118 0.950 . S
C4120 C4118 1.375 . S
C4120 C4122 1.382 . S
C4120 H4124 0.950 . S
H4121 C4116 0.949 . S
C4122 C4117 1.399 . S
C4122 C4120 1.382 . S
C4122 H4123 0.952 . S
H4123 C4122 0.952 . S
H4124 C4120 0.950 . S
H4125 C4126 0.949 . S
C4126 H4125 0.949 . S
C4126 C4127 1.395 . S
C4126 C4128 1.391 . S
C4127 C4126 1.395 . S
C4127 C4130 1.390 . S
C4128 C4126 1.391 . S
C4128 C4132 1.387 . S
C4128 C4133 1.491 . S
H4129 C4130 0.950 . S
C4130 C4127 1.390 . S
C4130 H4129 0.950 . S
C4130 C4131 1.378 . S
C4131 C4130 1.378 . S
C4131 C4132 1.409 . S
C4132 C4128 1.387 . S
C4132 C4131 1.409 . S
C4132 H4134 0.951 . S
C4133 C4128 1.491 . S
C4133 C4135 1.382 . S
C4133 C4137 1.404 . S
H4134 C4132 0.951 . S
C4135 C4133 1.382 . S
C4135 C4136 1.390 . S
C4135 H4140 0.949 . S
C4136 C4135 1.390 . S
C4136 C4141 1.399 . S
C4137 C4133 1.404 . S
C4137 H4138 0.950 . S
C4137 C4139 1.375 . S
H4138 C4137 0.950 . S
C4139 C4137 1.375 . S
C4139 C4141 1.382 . S
C4139 H4143 0.950 . S
H4140 C4135 0.949 . S
C4141 C4136 1.399 . S
C4141 C4139 1.382 . S
C4141 H4142 0.952 . S
H4142 C4141 0.952 . S
H4143 C4139 0.950 . S
H4144 C4145 0.949 . S
C4145 H4144 0.949 . S
C4145 C4146 1.395 . S
C4145 C4147 1.391 . S
C4146 C4145 1.395 . S
C4146 C4149 1.390 . S
C4147 C4145 1.391 . S
C4147 C4151 1.387 . S
C4147 C4152 1.491 . S
H4148 C4149 0.950 . S
C4149 C4146 1.390 . S
C4149 H4148 0.950 . S
C4149 C4150 1.378 . S
C4150 C4149 1.378 . S
C4150 C4151 1.409 . S
C4151 C4147 1.387 . S
C4151 C4150 1.409 . S
C4151 H4153 0.951 . S
C4152 C4147 1.491 . S
C4152 C4154 1.382 . S
C4152 C4156 1.404 . S
H4153 C4151 0.951 . S
C4154 C4152 1.382 . S
C4154 C4155 1.390 . S
C4154 H4159 0.949 . S
C4155 C4154 1.390 . S
C4155 C4160 1.399 . S
C4156 C4152 1.404 . S
C4156 H4157 0.950 . S
C4156 C4158 1.375 . S
H4157 C4156 0.950 . S
C4158 C4156 1.375 . S
C4158 C4160 1.382 . S
C4158 H4162 0.950 . S
H4159 C4154 0.949 . S
C4160 C4155 1.399 . S
C4160 C4158 1.382 . S
C4160 H4161 0.952 . S
H4161 C4160 0.952 . S
H4162 C4158 0.950 . S
H4163 C4164 0.949 . S
C4164 H4163 0.949 . S
C4164 C4165 1.395 . S
C4164 C4166 1.391 . S
C4165 C4164 1.395 . S
C4165 C4168 1.390 . S
C4166 C4164 1.391 . S
C4166 C4170 1.387 . S
C4166 C4171 1.491 . S
H4167 C4168 0.950 . S
C4168 C4165 1.390 . S
C4168 H4167 0.950 . S
C4168 C4169 1.378 . S
C4169 C4168 1.378 . S
C4169 C4170 1.409 . S
C4170 C4166 1.387 . S
C4170 C4169 1.409 . S
C4170 H4172 0.951 . S
C4171 C4166 1.491 . S
C4171 C4173 1.382 . S
C4171 C4175 1.404 . S
H4172 C4170 0.951 . S
C4173 C4171 1.382 . S
C4173 C4174 1.390 . S
C4173 H4178 0.949 . S
C4174 C4173 1.390 . S
C4174 C4179 1.399 . S
C4175 C4171 1.404 . S
C4175 H4176 0.950 . S
C4175 C4177 1.375 . S
H4176 C4175 0.950 . S
C4177 C4175 1.375 . S
C4177 C4179 1.382 . S
C4177 H4181 0.950 . S
H4178 C4173 0.949 . S
C4179 C4174 1.399 . S
C4179 C4177 1.382 . S
C4179 H4180 0.952 . S
H4180 C4179 0.952 . S
H4181 C4177 0.950 . S
H4182 C4183 0.949 . S
C4183 H4182 0.949 . S
C4183 C4184 1.395 . S
C4183 C4185 1.391 . S
C4184 C4183 1.395 . S
C4184 C4187 1.390 . S
C4185 C4183 1.391 . S
C4185 C4189 1.387 . S
C4185 C4190 1.491 . S
H4186 C4187 0.950 . S
C4187 C4184 1.390 . S
C4187 H4186 0.950 . S
C4187 C4188 1.378 . S
C4188 C4187 1.378 . S
C4188 C4189 1.409 . S
C4189 C4185 1.387 . S
C4189 C4188 1.409 . S
C4189 H4191 0.951 . S
C4190 C4185 1.491 . S
C4190 C4192 1.382 . S
C4190 C4194 1.404 . S
H4191 C4189 0.951 . S
C4192 C4190 1.382 . S
C4192 C4193 1.390 . S
C4192 H4197 0.949 . S
C4193 C4192 1.390 . S
C4193 C4198 1.399 . S
C4194 C4190 1.404 . S
C4194 H4195 0.950 . S
C4194 C4196 1.375 . S
H4195 C4194 0.950 . S
C4196 C4194 1.375 . S
C4196 C4198 1.382 . S
C4196 H4200 0.950 . S
H4197 C4192 0.949 . S
C4198 C4193 1.399 . S
C4198 C4196 1.382 . S
C4198 H4199 0.952 . S
H4199 C4198 0.952 . S
H4200 C4196 0.950 . S
H4201 C4202 0.949 . S
C4202 H4201 0.949 . S
C4202 C4203 1.395 . S
C4202 C4204 1.391 . S
C4203 C4202 1.395 . S
C4203 C4206 1.390 . S
C4204 C4202 1.391 . S
C4204 C4208 1.387 . S
C4204 C4209 1.491 . S
H4205 C4206 0.950 . S
C4206 C4203 1.390 . S
C4206 H4205 0.950 . S
C4206 C4207 1.378 . S
C4207 C4206 1.378 . S
C4207 C4208 1.409 . S
C4208 C4204 1.387 . S
C4208 C4207 1.409 . S
C4208 H4210 0.951 . S
C4209 C4204 1.491 . S
C4209 C4211 1.382 . S
C4209 C4213 1.404 . S
H4210 C4208 0.951 . S
C4211 C4209 1.382 . S
C4211 C4212 1.390 . S
C4211 H4216 0.949 . S
C4212 C4211 1.390 . S
C4212 C4217 1.399 . S
C4213 C4209 1.404 . S
C4213 H4214 0.950 . S
C4213 C4215 1.375 . S
H4214 C4213 0.950 . S
C4215 C4213 1.375 . S
C4215 C4217 1.382 . S
C4215 H4219 0.950 . S
H4216 C4211 0.949 . S
C4217 C4212 1.399 . S
C4217 C4215 1.382 . S
C4217 H4218 0.952 . S
H4218 C4217 0.952 . S
H4219 C4215 0.950 . S
H4220 C4221 0.949 . S
C4221 H4220 0.949 . S
C4221 C4222 1.395 . S
C4221 C4223 1.391 . S
C4222 C4221 1.395 . S
C4222 C4225 1.390 . S
C4223 C4221 1.391 . S
C4223 C4227 1.387 . S
C4223 C4228 1.491 . S
H4224 C4225 0.950 . S
C4225 C4222 1.390 . S
C4225 H4224 0.950 . S
C4225 C4226 1.378 . S
C4226 C4225 1.378 . S
C4226 C4227 1.409 . S
C4227 C4223 1.387 . S
C4227 C4226 1.409 . S
C4227 H4229 0.951 . S
C4228 C4223 1.491 . S
C4228 C4230 1.382 . S
C4228 C4232 1.404 . S
H4229 C4227 0.951 . S
C4230 C4228 1.382 . S
C4230 C4231 1.390 . S
C4230 H4235 0.949 . S
C4231 C4230 1.390 . S
C4231 C4236 1.399 . S
C4232 C4228 1.404 . S
C4232 H4233 0.950 . S
C4232 C4234 1.375 . S
H4233 C4232 0.950 . S
C4234 C4232 1.375 . S
C4234 C4236 1.382 . S
C4234 H4238 0.950 . S
H4235 C4230 0.949 . S
C4236 C4231 1.399 . S
C4236 C4234 1.382 . S
C4236 H4237 0.952 . S
H4237 C4236 0.952 . S
H4238 C4234 0.950 . S
H4239 C4240 0.949 . S
C4240 H4239 0.949 . S
C4240 C4241 1.395 . S
C4240 C4242 1.391 . S
C4241 C4240 1.395 . S
C4241 C4244 1.390 . S
C4242 C4240 1.391 . S
C4242 C4246 1.387 . S
C4242 C4247 1.491 . S
H4243 C4244 0.950 . S
C4244 C4241 1.390 . S
C4244 H4243 0.950 . S
C4244 C4245 1.378 . S
C4245 C4244 1.378 . S
C4245 C4246 1.409 . S
C4246 C4242 1.387 . S
C4246 C4245 1.409 . S
C4246 H4248 0.951 . S
C4247 C4242 1.491 . S
C4247 C4249 1.382 . S
C4247 C4251 1.404 . S
H4248 C4246 0.951 . S
C4249 C4247 1.382 . S
C4249 C4250 1.390 . S
C4249 H4254 0.949 . S
C4250 C4249 1.390 . S
C4250 C4255 1.399 . S
C4251 C4247 1.404 . S
C4251 H4252 0.950 . S
C4251 C4253 1.375 . S
H4252 C4251 0.950 . S
C4253 C4251 1.375 . S
C4253 C4255 1.382 . S
C4253 H4257 0.950 . S
H4254 C4249 0.949 . S
C4255 C4250 1.399 . S
C4255 C4253 1.382 . S
C4255 H4256 0.952 . S
H4256 C4255 0.952 . S
H4257 C4253 0.950 . S
H4258 C4259 0.949 . S
C4259 H4258 0.949 . S
C4259 C4260 1.395 . S
C4259 C4261 1.391 . S
C4260 C4259 1.395 . S
C4260 C4263 1.390 . S
C4261 C4259 1.391 . S
C4261 C4265 1.387 . S
C4261 C4266 1.491 . S
H4262 C4263 0.950 . S
C4263 C4260 1.390 . S
C4263 H4262 0.950 . S
C4263 C4264 1.378 . S
C4264 C4263 1.378 . S
C4264 C4265 1.409 . S
C4265 C4261 1.387 . S
C4265 C4264 1.409 . S
C4265 H4267 0.951 . S
C4266 C4261 1.491 . S
C4266 C4268 1.382 . S
C4266 C4270 1.404 . S
H4267 C4265 0.951 . S
C4268 C4266 1.382 . S
C4268 C4269 1.390 . S
C4268 H4273 0.949 . S
C4269 C4268 1.390 . S
C4269 C4274 1.399 . S
C4270 C4266 1.404 . S
C4270 H4271 0.950 . S
C4270 C4272 1.375 . S
H4271 C4270 0.950 . S
C4272 C4270 1.375 . S
C4272 C4274 1.382 . S
C4272 H4276 0.950 . S
H4273 C4268 0.949 . S
C4274 C4269 1.399 . S
C4274 C4272 1.382 . S
C4274 H4275 0.952 . S
H4275 C4274 0.952 . S
H4276 C4272 0.950 . S
H4277 C4278 0.949 . S
C4278 H4277 0.949 . S
C4278 C4279 1.395 . S
C4278 C4280 1.391 . S
C4279 C4278 1.395 . S
C4279 C4282 1.390 . S
C4280 C4278 1.391 . S
C4280 C4284 1.387 . S
C4280 C4285 1.491 . S
H4281 C4282 0.950 . S
C4282 C4279 1.390 . S
C4282 H4281 0.950 . S
C4282 C4283 1.378 . S
C4283 C4282 1.378 . S
C4283 C4284 1.409 . S
C4284 C4280 1.387 . S
C4284 C4283 1.409 . S
C4284 H4286 0.951 . S
C4285 C4280 1.491 . S
C4285 C4287 1.382 . S
C4285 C4289 1.404 . S
H4286 C4284 0.951 . S
C4287 C4285 1.382 . S
C4287 C4288 1.390 . S
C4287 H4292 0.949 . S
C4288 C4287 1.390 . S
C4288 C4293 1.399 . S
C4289 C4285 1.404 . S
C4289 H4290 0.950 . S
C4289 C4291 1.375 . S
H4290 C4289 0.950 . S
C4291 C4289 1.375 . S
C4291 C4293 1.382 . S
C4291 H4295 0.950 . S
H4292 C4287 0.949 . S
C4293 C4288 1.399 . S
C4293 C4291 1.382 . S
C4293 H4294 0.952 . S
H4294 C4293 0.952 . S
H4295 C4291 0.950 . S
H4296 C4297 0.949 . S
C4297 H4296 0.949 . S
C4297 C4298 1.395 . S
C4297 C4299 1.391 . S
C4298 C4297 1.395 . S
C4298 C4301 1.390 . S
C4299 C4297 1.391 . S
C4299 C4303 1.387 . S
C4299 C4304 1.491 . S
H4300 C4301 0.950 . S
C4301 C4298 1.390 . S
C4301 H4300 0.950 . S
C4301 C4302 1.378 . S
C4302 C4301 1.378 . S
C4302 C4303 1.409 . S
C4303 C4299 1.387 . S
C4303 C4302 1.409 . S
C4303 H4305 0.951 . S
C4304 C4299 1.491 . S
C4304 C4306 1.382 . S
C4304 C4308 1.404 . S
H4305 C4303 0.951 . S
C4306 C4304 1.382 . S
C4306 C4307 1.390 . S
C4306 H4311 0.949 . S
C4307 C4306 1.390 . S
C4307 C4312 1.399 . S
C4308 C4304 1.404 . S
C4308 H4309 0.950 . S
C4308 C4310 1.375 . S
H4309 C4308 0.950 . S
C4310 C4308 1.375 . S
C4310 C4312 1.382 . S
C4310 H4314 0.950 . S
H4311 C4306 0.949 . S
C4312 C4307 1.399 . S
C4312 C4310 1.382 . S
C4312 H4313 0.952 . S
H4313 C4312 0.952 . S
H4314 C4310 0.950 . S
H4315 C4316 0.949 . S
C4316 H4315 0.949 . S
C4316 C4317 1.395 . S
C4316 C4318 1.391 . S
C4317 C4316 1.395 . S
C4317 C4320 1.390 . S
C4318 C4316 1.391 . S
C4318 C4322 1.387 . S
C4318 C4323 1.491 . S
H4319 C4320 0.950 . S
C4320 C4317 1.390 . S
C4320 H4319 0.950 . S
C4320 C4321 1.378 . S
C4321 C4320 1.378 . S
C4321 C4322 1.409 . S
C4322 C4318 1.387 . S
C4322 C4321 1.409 . S
C4322 H4324 0.951 . S
C4323 C4318 1.491 . S
C4323 C4325 1.382 . S
C4323 C4327 1.404 . S
H4324 C4322 0.951 . S
C4325 C4323 1.382 . S
C4325 C4326 1.390 . S
C4325 H4330 0.949 . S
C4326 C4325 1.390 . S
C4326 C4331 1.362 1_655 S
C4327 C4323 1.404 . S
C4327 H4328 0.950 . S
C4327 C4329 1.375 . S
H4328 C4327 0.950 . S
C4329 C4327 1.375 . S
C4329 C4331 1.361 1_655 S
C4329 H4333 0.950 1_655 S
H4330 C4325 0.949 . S
C4331 C4326 1.362 1_455 S
C4331 C4329 1.361 1_455 S
C4331 H4332 1.011 . S
H4332 C4331 1.011 . S
H4333 C4329 0.950 1_455 S
H4334 C4335 0.949 . S
C4335 H4334 0.949 . S
C4335 C4336 1.395 . S
C4335 C4337 1.391 . S
C4336 C4335 1.395 . S
C4336 C4339 1.390 . S
C4337 C4335 1.391 . S
C4337 C4341 1.387 . S
C4337 C4342 1.491 . S
H4338 C4339 0.950 . S
C4339 C4336 1.390 . S
C4339 H4338 0.950 . S
C4339 C4340 1.378 . S
C4340 C4339 1.378 . S
C4340 C4341 1.409 . S
C4341 C4337 1.387 . S
C4341 C4340 1.409 . S
C4341 H4343 0.951 . S
C4342 C4337 1.491 . S
C4342 C4344 1.382 . S
C4342 C4346 1.404 . S
H4343 C4341 0.951 . S
C4344 C4342 1.382 . S
C4344 C4345 1.390 . S
C4344 H4349 0.949 . S
C4345 C4344 1.390 . S
C4345 C4350 1.399 . S
C4346 C4342 1.404 . S
C4346 H4347 0.950 . S
C4346 C4348 1.375 . S
H4347 C4346 0.950 . S
C4348 C4346 1.375 . S
C4348 C4350 1.382 . S
C4348 H4352 0.950 . S
H4349 C4344 0.949 . S
C4350 C4345 1.399 . S
C4350 C4348 1.382 . S
C4350 H4351 0.952 . S
H4351 C4350 0.952 . S
H4352 C4348 0.950 . S
H4353 C4354 0.949 . S
C4354 H4353 0.949 . S
C4354 C4355 1.395 . S
C4354 C4356 1.391 . S
C4355 C4354 1.395 . S
C4355 C4358 1.390 . S
C4356 C4354 1.391 . S
C4356 C4360 1.387 . S
C4356 C4361 1.491 . S
H4357 C4358 0.950 . S
C4358 C4355 1.390 . S
C4358 H4357 0.950 . S
C4358 C4359 1.378 . S
C4359 C4358 1.378 . S
C4359 C4360 1.409 . S
C4360 C4356 1.387 . S
C4360 C4359 1.409 . S
C4360 H4362 0.951 . S
C4361 C4356 1.491 . S
C4361 C4363 1.382 . S
C4361 C4365 1.404 . S
H4362 C4360 0.951 . S
C4363 C4361 1.382 . S
C4363 C4364 1.390 . S
C4363 H4368 0.949 . S
C4364 C4363 1.390 . S
C4364 C4369 1.399 . S
C4365 C4361 1.404 . S
C4365 H4366 0.950 . S
C4365 C4367 1.375 . S
H4366 C4365 0.950 . S
C4367 C4365 1.375 . S
C4367 C4369 1.382 . S
C4367 H4371 0.950 . S
H4368 C4363 0.949 . S
C4369 C4364 1.399 . S
C4369 C4367 1.382 . S
C4369 H4370 0.952 . S
H4370 C4369 0.952 . S
H4371 C4367 0.950 . S
H4372 C4373 0.949 . S
C4373 H4372 0.949 . S
C4373 C4374 1.395 . S
C4373 C4375 1.391 . S
C4374 C4373 1.395 . S
C4374 C4377 1.390 . S
C4375 C4373 1.391 . S
C4375 C4379 1.387 . S
C4375 C4380 1.491 . S
H4376 C4377 0.950 . S
C4377 C4374 1.390 . S
C4377 H4376 0.950 . S
C4377 C4378 1.378 . S
C4378 C4377 1.378 . S
C4378 C4379 1.409 . S
C4379 C4375 1.387 . S
C4379 C4378 1.409 . S
C4379 H4381 0.951 . S
C4380 C4375 1.491 . S
C4380 C4382 1.382 . S
C4380 C4384 1.404 . S
H4381 C4379 0.951 . S
C4382 C4380 1.382 . S
C4382 C4383 1.390 . S
C4382 H4387 0.949 . S
C4383 C4382 1.390 . S
C4383 C4388 1.399 . S
C4384 C4380 1.404 . S
C4384 H4385 0.950 . S
C4384 C4386 1.375 . S
H4385 C4384 0.950 . S
C4386 C4384 1.375 . S
C4386 C4388 1.382 . S
C4386 H4390 0.950 . S
H4387 C4382 0.949 . S
C4388 C4383 1.399 . S
C4388 C4386 1.382 . S
C4388 H4389 0.952 . S
H4389 C4388 0.952 . S
H4390 C4386 0.950 . S
H4391 C4392 0.949 . S
C4392 H4391 0.949 . S
C4392 C4393 1.395 . S
C4392 C4394 1.391 . S
C4393 C4392 1.395 . S
C4393 C4396 1.390 . S
C4394 C4392 1.391 . S
C4394 C4398 1.387 . S
C4394 C4399 1.491 . S
H4395 C4396 0.950 . S
C4396 C4393 1.390 . S
C4396 H4395 0.950 . S
C4396 C4397 1.378 . S
C4397 C4396 1.378 . S
C4397 C4398 1.409 . S
C4398 C4394 1.387 . S
C4398 C4397 1.409 . S
C4398 H4400 0.951 . S
C4399 C4394 1.491 . S
C4399 C4401 1.382 . S
C4399 C4403 1.404 . S
H4400 C4398 0.951 . S
C4401 C4399 1.382 . S
C4401 C4402 1.390 . S
C4401 H4406 0.949 . S
C4402 C4401 1.390 . S
C4402 C4407 1.399 . S
C4403 C4399 1.404 . S
C4403 H4404 0.950 . S
C4403 C4405 1.375 . S
H4404 C4403 0.950 . S
C4405 C4403 1.375 . S
C4405 C4407 1.382 . S
C4405 H4409 0.950 . S
H4406 C4401 0.949 . S
C4407 C4402 1.399 . S
C4407 C4405 1.382 . S
C4407 H4408 0.952 . S
H4408 C4407 0.952 . S
H4409 C4405 0.950 . S
H4410 C4411 0.949 . S
C4411 H4410 0.949 . S
C4411 C4412 1.395 . S
C4411 C4413 1.391 . S
C4412 C4411 1.395 . S
C4412 C4415 1.390 . S
C4413 C4411 1.391 . S
C4413 C4417 1.387 . S
C4413 C4418 1.491 . S
H4414 C4415 0.950 . S
C4415 C4412 1.390 . S
C4415 H4414 0.950 . S
C4415 C4416 1.378 . S
C4416 C4415 1.378 . S
C4416 C4417 1.409 . S
C4417 C4413 1.387 . S
C4417 C4416 1.409 . S
C4417 H4419 0.951 . S
C4418 C4413 1.491 . S
C4418 C4420 1.382 . S
C4418 C4422 1.404 . S
H4419 C4417 0.951 . S
C4420 C4418 1.382 . S
C4420 C4421 1.390 . S
C4420 H4425 0.949 . S
C4421 C4420 1.390 . S
C4421 C4426 1.399 . S
C4422 C4418 1.404 . S
C4422 H4423 0.950 . S
C4422 C4424 1.375 . S
H4423 C4422 0.950 . S
C4424 C4422 1.375 . S
C4424 C4426 1.382 . S
C4424 H4428 0.950 . S
H4425 C4420 0.949 . S
C4426 C4421 1.399 . S
C4426 C4424 1.382 . S
C4426 H4427 0.952 . S
H4427 C4426 0.952 . S
H4428 C4424 0.950 . S
H4429 C4430 0.949 . S
C4430 H4429 0.949 . S
C4430 C4431 1.395 . S
C4430 C4432 1.391 . S
C4431 C4430 1.395 . S
C4431 C4434 1.390 . S
C4432 C4430 1.391 . S
C4432 C4436 1.387 . S
C4432 C4437 1.491 . S
H4433 C4434 0.950 . S
C4434 C4431 1.390 . S
C4434 H4433 0.950 . S
C4434 C4435 1.378 . S
C4435 C4434 1.378 . S
C4435 C4436 1.409 . S
C4436 C4432 1.387 . S
C4436 C4435 1.409 . S
C4436 H4438 0.951 . S
C4437 C4432 1.491 . S
C4437 C4439 1.382 . S
C4437 C4441 1.404 . S
H4438 C4436 0.951 . S
C4439 C4437 1.382 . S
C4439 C4440 1.390 . S
C4439 H4444 0.949 . S
C4440 C4439 1.390 . S
C4440 C4445 1.362 1_655 S
C4441 C4437 1.404 . S
C4441 H4442 0.950 . S
C4441 C4443 1.375 . S
H4442 C4441 0.950 . S
C4443 C4441 1.375 . S
C4443 C4445 1.361 1_655 S
C4443 H4447 0.950 1_655 S
H4444 C4439 0.949 . S
C4445 C4440 1.362 1_455 S
C4445 C4443 1.361 1_455 S
C4445 H4446 1.012 . S
H4446 C4445 1.012 . S
H4447 C4443 0.950 1_455 S
H4448 C4449 0.949 . S
C4449 H4448 0.949 . S
C4449 C4450 1.395 . S
C4449 C4451 1.391 . S
C4450 C4449 1.395 . S
C4450 C4453 1.390 . S
C4451 C4449 1.391 . S
C4451 C4455 1.387 . S
C4451 C4456 1.491 . S
H4452 C4453 0.950 . S
C4453 C4450 1.390 . S
C4453 H4452 0.950 . S
C4453 C4454 1.378 . S
C4454 C4453 1.378 . S
C4454 C4455 1.409 . S
C4455 C4451 1.387 . S
C4455 C4454 1.409 . S
C4455 H4457 0.951 . S
C4456 C4451 1.491 . S
C4456 C4458 1.382 . S
C4456 C4460 1.404 . S
H4457 C4455 0.951 . S
C4458 C4456 1.382 . S
C4458 C4459 1.390 . S
C4458 H4463 0.949 . S
C4459 C4458 1.390 . S
C4459 C4464 1.399 . S
C4460 C4456 1.404 . S
C4460 H4461 0.950 . S
C4460 C4462 1.375 . S
H4461 C4460 0.950 . S
C4462 C4460 1.375 . S
C4462 C4464 1.382 . S
C4462 H4466 0.950 . S
H4463 C4458 0.949 . S
C4464 C4459 1.399 . S
C4464 C4462 1.382 . S
C4464 H4465 0.952 . S
H4465 C4464 0.952 . S
H4466 C4462 0.950 . S
H4467 C4468 0.949 . S
C4468 H4467 0.949 . S
C4468 C4469 1.395 . S
C4468 C4470 1.391 . S
C4469 C4468 1.395 . S
C4469 C4472 1.390 . S
C4470 C4468 1.391 . S
C4470 C4474 1.387 . S
C4470 C4475 1.491 . S
H4471 C4472 0.950 . S
C4472 C4469 1.390 . S
C4472 H4471 0.950 . S
C4472 C4473 1.378 . S
C4473 C4472 1.378 . S
C4473 C4474 1.409 . S
C4474 C4470 1.387 . S
C4474 C4473 1.409 . S
C4474 H4476 0.951 . S
C4475 C4470 1.491 . S
C4475 C4477 1.382 . S
C4475 C4479 1.404 . S
H4476 C4474 0.951 . S
C4477 C4475 1.382 . S
C4477 C4478 1.390 . S
C4477 H4482 0.949 . S
C4478 C4477 1.390 . S
C4478 C4483 1.399 . S
C4479 C4475 1.404 . S
C4479 H4480 0.950 . S
C4479 C4481 1.375 . S
H4480 C4479 0.950 . S
C4481 C4479 1.375 . S
C4481 C4483 1.382 . S
C4481 H4485 0.950 . S
H4482 C4477 0.949 . S
C4483 C4478 1.399 . S
C4483 C4481 1.382 . S
C4483 H4484 0.952 . S
H4484 C4483 0.952 . S
H4485 C4481 0.950 . S
H4486 C4487 0.949 . S
C4487 H4486 0.949 . S
C4487 C4488 1.395 . S
C4487 C4489 1.391 . S
C4488 C4487 1.395 . S
C4488 C4491 1.390 . S
C4489 C4487 1.391 . S
C4489 C4493 1.387 . S
C4489 C4494 1.491 . S
H4490 C4491 0.950 . S
C4491 C4488 1.390 . S
C4491 H4490 0.950 . S
C4491 C4492 1.378 . S
C4492 C4491 1.378 . S
C4492 C4493 1.409 . S
C4493 C4489 1.387 . S
C4493 C4492 1.409 . S
C4493 H4495 0.951 . S
C4494 C4489 1.491 . S
C4494 C4496 1.382 . S
C4494 C4498 1.404 . S
H4495 C4493 0.951 . S
C4496 C4494 1.382 . S
C4496 C4497 1.390 . S
C4496 H4501 0.949 . S
C4497 C4496 1.390 . S
C4497 C4502 1.399 . S
C4498 C4494 1.404 . S
C4498 H4499 0.950 . S
C4498 C4500 1.375 . S
H4499 C4498 0.950 . S
C4500 C4498 1.375 . S
C4500 C4502 1.382 . S
C4500 H4504 0.950 . S
H4501 C4496 0.949 . S
C4502 C4497 1.399 . S
C4502 C4500 1.382 . S
C4502 H4503 0.952 . S
H4503 C4502 0.952 . S
H4504 C4500 0.950 . S
H4505 C4506 0.949 . S
C4506 H4505 0.949 . S
C4506 C4507 1.395 . S
C4506 C4508 1.391 . S
C4507 C4506 1.395 . S
C4507 C4510 1.390 . S
C4508 C4506 1.391 . S
C4508 C4512 1.387 . S
C4508 C4513 1.491 . S
H4509 C4510 0.950 . S
C4510 C4507 1.390 . S
C4510 H4509 0.950 . S
C4510 C4511 1.378 . S
C4511 C4510 1.378 . S
C4511 C4512 1.409 . S
C4512 C4508 1.387 . S
C4512 C4511 1.409 . S
C4512 H4514 0.951 . S
C4513 C4508 1.491 . S
C4513 C4515 1.382 . S
C4513 C4517 1.404 . S
H4514 C4512 0.951 . S
C4515 C4513 1.382 . S
C4515 C4516 1.390 . S
C4515 H4520 0.949 . S
C4516 C4515 1.390 . S
C4516 C4521 1.362 1_554 S
C4517 C4513 1.404 . S
C4517 H4518 0.950 . S
C4517 C4519 1.375 . S
H4518 C4517 0.950 . S
C4519 C4517 1.375 . S
C4519 C4521 1.361 1_554 S
C4519 H4523 0.950 1_554 S
H4520 C4515 0.949 . S
C4521 C4516 1.362 1_556 S
C4521 C4519 1.361 1_556 S
C4521 H4522 1.011 . S
H4522 C4521 1.011 . S
H4523 C4519 0.950 1_556 S
H4524 C4525 0.949 . S
C4525 H4524 0.949 . S
C4525 C4526 1.395 . S
C4525 C4527 1.391 . S
C4526 C4525 1.395 . S
C4526 C4529 1.390 . S
C4527 C4525 1.391 . S
C4527 C4531 1.387 . S
C4527 C4532 1.491 . S
H4528 C4529 0.950 . S
C4529 C4526 1.390 . S
C4529 H4528 0.950 . S
C4529 C4530 1.378 . S
C4530 C4529 1.378 . S
C4530 C4531 1.409 . S
C4531 C4527 1.387 . S
C4531 C4530 1.409 . S
C4531 H4533 0.951 . S
C4532 C4527 1.491 . S
C4532 C4534 1.382 . S
C4532 C4536 1.404 . S
H4533 C4531 0.951 . S
C4534 C4532 1.382 . S
C4534 C4535 1.390 . S
C4534 H4539 0.949 . S
C4535 C4534 1.390 . S
C4535 C4540 1.399 . S
C4536 C4532 1.404 . S
C4536 H4537 0.950 . S
C4536 C4538 1.375 . S
H4537 C4536 0.950 . S
C4538 C4536 1.375 . S
C4538 C4540 1.382 . S
C4538 H4542 0.950 . S
H4539 C4534 0.949 . S
C4540 C4535 1.399 . S
C4540 C4538 1.382 . S
C4540 H4541 0.952 . S
H4541 C4540 0.952 . S
H4542 C4538 0.950 . S
H4543 C4544 0.949 . S
C4544 H4543 0.949 . S
C4544 C4545 1.395 . S
C4544 C4546 1.391 . S
C4545 C4544 1.395 . S
C4545 C4548 1.390 . S
C4546 C4544 1.391 . S
C4546 C4550 1.387 . S
C4546 C4551 1.491 . S
H4547 C4548 0.950 . S
C4548 C4545 1.390 . S
C4548 H4547 0.950 . S
C4548 C4549 1.378 . S
C4549 C4548 1.378 . S
C4549 C4550 1.409 . S
C4550 C4546 1.387 . S
C4550 C4549 1.409 . S
C4550 H4552 0.951 . S
C4551 C4546 1.491 . S
C4551 C4553 1.382 . S
C4551 C4555 1.404 . S
H4552 C4550 0.951 . S
C4553 C4551 1.382 . S
C4553 C4554 1.390 . S
C4553 H4558 0.949 . S
C4554 C4553 1.390 . S
C4554 C4559 1.399 . S
C4555 C4551 1.404 . S
C4555 H4556 0.950 . S
C4555 C4557 1.375 . S
H4556 C4555 0.950 . S
C4557 C4555 1.375 . S
C4557 C4559 1.382 . S
C4557 H4561 0.950 . S
H4558 C4553 0.949 . S
C4559 C4554 1.399 . S
C4559 C4557 1.382 . S
C4559 H4560 0.952 . S
H4560 C4559 0.952 . S
H4561 C4557 0.950 . S
H4562 C4563 0.949 . S
C4563 H4562 0.949 . S
C4563 C4564 1.395 . S
C4563 C4565 1.391 . S
C4564 C4563 1.395 . S
C4564 C4567 1.390 . S
C4565 C4563 1.391 . S
C4565 C4569 1.387 . S
C4565 C4570 1.491 . S
H4566 C4567 0.950 . S
C4567 C4564 1.390 . S
C4567 H4566 0.950 . S
C4567 C4568 1.378 . S
C4568 C4567 1.378 . S
C4568 C4569 1.409 . S
C4569 C4565 1.387 . S
C4569 C4568 1.409 . S
C4569 H4571 0.951 . S
C4570 C4565 1.491 . S
C4570 C4572 1.382 . S
C4570 C4574 1.404 . S
H4571 C4569 0.951 . S
C4572 C4570 1.382 . S
C4572 C4573 1.390 . S
C4572 H4577 0.949 . S
C4573 C4572 1.390 . S
C4573 C4578 1.399 . S
C4574 C4570 1.404 . S
C4574 H4575 0.950 . S
C4574 C4576 1.375 . S
H4575 C4574 0.950 . S
C4576 C4574 1.375 . S
C4576 C4578 1.382 . S
C4576 H4580 0.950 . S
H4577 C4572 0.949 . S
C4578 C4573 1.399 . S
C4578 C4576 1.382 . S
C4578 H4579 0.952 . S
H4579 C4578 0.952 . S
H4580 C4576 0.950 . S
H4581 C4582 0.949 . S
C4582 H4581 0.949 . S
C4582 C4583 1.395 . S
C4582 C4584 1.391 . S
C4583 C4582 1.395 . S
C4583 C4586 1.390 . S
C4584 C4582 1.391 . S
C4584 C4588 1.387 . S
C4584 C4589 1.491 . S
H4585 C4586 0.950 . S
C4586 C4583 1.390 . S
C4586 H4585 0.950 . S
C4586 C4587 1.378 . S
C4587 C4586 1.378 . S
C4587 C4588 1.409 . S
C4588 C4584 1.387 . S
C4588 C4587 1.409 . S
C4588 H4590 0.951 . S
C4589 C4584 1.491 . S
C4589 C4591 1.382 . S
C4589 C4593 1.404 . S
H4590 C4588 0.951 . S
C4591 C4589 1.382 . S
C4591 C4592 1.390 . S
C4591 H4596 0.949 . S
C4592 C4591 1.390 . S
C4592 C4597 1.362 1_556 S
C4593 C4589 1.404 . S
C4593 H4594 0.950 . S
C4593 C4595 1.375 . S
H4594 C4593 0.950 . S
C4595 C4593 1.375 . S
C4595 C4597 1.361 1_556 S
C4595 H4599 0.950 1_556 S
H4596 C4591 0.949 . S
C4597 C4592 1.362 1_554 S
C4597 C4595 1.361 1_554 S
C4597 H4598 1.012 . S
H4598 C4597 1.012 . S
H4599 C4595 0.950 1_554 S
H4600 C4601 0.949 . S
C4601 H4600 0.949 . S
C4601 C4602 1.395 . S
C4601 C4603 1.391 . S
C4602 C4601 1.395 . S
C4602 C4605 1.390 . S
C4603 C4601 1.391 . S
C4603 C4607 1.387 . S
C4603 C4608 1.491 . S
H4604 C4605 0.950 . S
C4605 C4602 1.390 . S
C4605 H4604 0.950 . S
C4605 C4606 1.378 . S
C4606 C4605 1.378 . S
C4606 C4607 1.409 . S
C4607 C4603 1.387 . S
C4607 C4606 1.409 . S
C4607 H4609 0.951 . S
C4608 C4603 1.491 . S
C4608 C4610 1.382 . S
C4608 C4612 1.404 . S
H4609 C4607 0.951 . S
C4610 C4608 1.382 . S
C4610 C4611 1.390 . S
C4610 H4615 0.949 . S
C4611 C4610 1.390 . S
C4611 C4616 1.399 . S
C4612 C4608 1.404 . S
C4612 H4613 0.950 . S
C4612 C4614 1.375 . S
H4613 C4612 0.950 . S
C4614 C4612 1.375 . S
C4614 C4616 1.382 . S
C4614 H4618 0.950 . S
H4615 C4610 0.949 . S
C4616 C4611 1.399 . S
C4616 C4614 1.382 . S
C4616 H4617 0.952 . S
H4617 C4616 0.952 . S
H4618 C4614 0.950 . S
H4619 C4620 0.949 . S
C4620 H4619 0.949 . S
C4620 C4621 1.395 . S
C4620 C4622 1.391 . S
C4621 C4620 1.395 . S
C4621 C4624 1.390 . S
C4622 C4620 1.391 . S
C4622 C4626 1.387 . S
C4622 C4627 1.491 . S
H4623 C4624 0.950 . S
C4624 C4621 1.390 . S
C4624 H4623 0.950 . S
C4624 C4625 1.378 . S
C4625 C4624 1.378 . S
C4625 C4626 1.409 . S
C4626 C4622 1.387 . S
C4626 C4625 1.409 . S
C4626 H4628 0.951 . S
C4627 C4622 1.491 . S
C4627 C4629 1.382 . S
C4627 C4631 1.404 . S
H4628 C4626 0.951 . S
C4629 C4627 1.382 . S
C4629 C4630 1.390 . S
C4629 H4634 0.949 . S
C4630 C4629 1.390 . S
C4630 C4635 1.399 . S
C4631 C4627 1.404 . S
C4631 H4632 0.950 . S
C4631 C4633 1.375 . S
H4632 C4631 0.950 . S
C4633 C4631 1.375 . S
C4633 C4635 1.382 . S
C4633 H4637 0.950 . S
H4634 C4629 0.949 . S
C4635 C4630 1.399 . S
C4635 C4633 1.382 . S
C4635 H4636 0.952 . S
H4636 C4635 0.952 . S
H4637 C4633 0.950 . S
H4638 C4639 0.949 . S
C4639 H4638 0.949 . S
C4639 C4640 1.395 . S
C4639 C4641 1.391 . S
C4640 C4639 1.395 . S
C4640 C4643 1.390 . S
C4641 C4639 1.391 . S
C4641 C4645 1.387 . S
C4641 C4646 1.491 . S
H4642 C4643 0.950 . S
C4643 C4640 1.390 . S
C4643 H4642 0.950 . S
C4643 C4644 1.378 . S
C4644 C4643 1.378 . S
C4644 C4645 1.409 . S
C4645 C4641 1.387 . S
C4645 C4644 1.409 . S
C4645 H4647 0.951 . S
C4646 C4641 1.491 . S
C4646 C4648 1.382 . S
C4646 C4650 1.404 . S
H4647 C4645 0.951 . S
C4648 C4646 1.382 . S
C4648 C4649 1.390 . S
C4648 H4653 0.949 . S
C4649 C4648 1.390 . S
C4649 C4654 1.399 . S
C4650 C4646 1.404 . S
C4650 H4651 0.950 . S
C4650 C4652 1.375 . S
H4651 C4650 0.950 . S
C4652 C4650 1.375 . S
C4652 C4654 1.382 . S
C4652 H4656 0.950 . S
H4653 C4648 0.949 . S
C4654 C4649 1.399 . S
C4654 C4652 1.382 . S
C4654 H4655 0.952 . S
H4655 C4654 0.952 . S
H4656 C4652 0.950 . S
H4657 C4658 0.949 . S
C4658 H4657 0.949 . S
C4658 C4659 1.395 . S
C4658 C4660 1.391 . S
C4659 C4658 1.395 . S
C4659 C4662 1.390 . S
C4660 C4658 1.391 . S
C4660 C4664 1.387 . S
C4660 C4665 1.491 . S
H4661 C4662 0.950 . S
C4662 C4659 1.390 . S
C4662 H4661 0.950 . S
C4662 C4663 1.378 . S
C4663 C4662 1.378 . S
C4663 C4664 1.409 . S
C4664 C4660 1.387 . S
C4664 C4663 1.409 . S
C4664 H4666 0.951 . S
C4665 C4660 1.491 . S
C4665 C4667 1.382 . S
C4665 C4669 1.404 . S
H4666 C4664 0.951 . S
C4667 C4665 1.382 . S
C4667 C4668 1.390 . S
C4667 H4672 0.949 . S
C4668 C4667 1.390 . S
C4668 C4673 1.399 . S
C4669 C4665 1.404 . S
C4669 H4670 0.950 . S
C4669 C4671 1.375 . S
H4670 C4669 0.950 . S
C4671 C4669 1.375 . S
C4671 C4673 1.382 . S
C4671 H4675 0.950 . S
H4672 C4667 0.949 . S
C4673 C4668 1.399 . S
C4673 C4671 1.382 . S
C4673 H4674 0.952 . S
H4674 C4673 0.952 . S
H4675 C4671 0.950 . S
H4676 C4677 0.949 . S
C4677 H4676 0.949 . S
C4677 C4678 1.395 . S
C4677 C4679 1.391 . S
C4678 C4677 1.395 . S
C4678 C4681 1.390 . S
C4679 C4677 1.391 . S
C4679 C4683 1.387 . S
C4679 C4684 1.491 . S
H4680 C4681 0.950 . S
C4681 C4678 1.390 . S
C4681 H4680 0.950 . S
C4681 C4682 1.378 . S
C4682 C4681 1.378 . S
C4682 C4683 1.409 . S
C4683 C4679 1.387 . S
C4683 C4682 1.409 . S
C4683 H4685 0.951 . S
C4684 C4679 1.491 . S
C4684 C4686 1.382 . S
C4684 C4688 1.404 . S
H4685 C4683 0.951 . S
C4686 C4684 1.382 . S
C4686 C4687 1.390 . S
C4686 H4691 0.949 . S
C4687 C4686 1.390 . S
C4687 C4692 1.362 1_565 S
C4688 C4684 1.404 . S
C4688 H4689 0.950 . S
C4688 C4690 1.375 . S
H4689 C4688 0.950 . S
C4690 C4688 1.375 . S
C4690 C4692 1.361 1_565 S
C4690 H4694 0.950 1_565 S
H4691 C4686 0.949 . S
C4692 C4687 1.362 1_545 S
C4692 C4690 1.361 1_545 S
C4692 H4693 1.011 . S
H4693 C4692 1.011 . S
H4694 C4690 0.950 1_545 S
H4695 C4696 0.949 . S
C4696 H4695 0.949 . S
C4696 C4697 1.395 . S
C4696 C4698 1.391 . S
C4697 C4696 1.395 . S
C4697 C4700 1.390 . S
C4698 C4696 1.391 . S
C4698 C4702 1.387 . S
C4698 C4703 1.491 . S
H4699 C4700 0.950 . S
C4700 C4697 1.390 . S
C4700 H4699 0.950 . S
C4700 C4701 1.378 . S
C4701 C4700 1.378 . S
C4701 C4702 1.409 . S
C4702 C4698 1.387 . S
C4702 C4701 1.409 . S
C4702 H4704 0.951 . S
C4703 C4698 1.491 . S
C4703 C4705 1.382 . S
C4703 C4707 1.404 . S
H4704 C4702 0.951 . S
C4705 C4703 1.382 . S
C4705 C4706 1.390 . S
C4705 H4710 0.949 . S
C4706 C4705 1.390 . S
C4706 C4711 1.399 . S
C4707 C4703 1.404 . S
C4707 H4708 0.950 . S
C4707 C4709 1.375 . S
H4708 C4707 0.950 . S
C4709 C4707 1.375 . S
C4709 C4711 1.382 . S
C4709 H4713 0.950 . S
H4710 C4705 0.949 . S
C4711 C4706 1.399 . S
C4711 C4709 1.382 . S
C4711 H4712 0.952 . S
H4712 C4711 0.952 . S
H4713 C4709 0.950 . S
H4714 C4715 0.949 . S
C4715 H4714 0.949 . S
C4715 C4716 1.395 . S
C4715 C4717 1.391 . S
C4716 C4715 1.395 . S
C4716 C4719 1.390 . S
C4717 C4715 1.391 . S
C4717 C4721 1.387 . S
C4717 C4722 1.491 . S
H4718 C4719 0.950 . S
C4719 C4716 1.390 . S
C4719 H4718 0.950 . S
C4719 C4720 1.378 . S
C4720 C4719 1.378 . S
C4720 C4721 1.409 . S
C4721 C4717 1.387 . S
C4721 C4720 1.409 . S
C4721 H4723 0.951 . S
C4722 C4717 1.491 . S
C4722 C4724 1.382 . S
C4722 C4726 1.404 . S
H4723 C4721 0.951 . S
C4724 C4722 1.382 . S
C4724 C4725 1.390 . S
C4724 H4729 0.949 . S
C4725 C4724 1.390 . S
C4725 C4730 1.399 . S
C4726 C4722 1.404 . S
C4726 H4727 0.950 . S
C4726 C4728 1.375 . S
H4727 C4726 0.950 . S
C4728 C4726 1.375 . S
C4728 C4730 1.382 . S
C4728 H4732 0.950 . S
H4729 C4724 0.949 . S
C4730 C4725 1.399 . S
C4730 C4728 1.382 . S
C4730 H4731 0.952 . S
H4731 C4730 0.952 . S
H4732 C4728 0.950 . S
H4733 C4734 0.949 . S
C4734 H4733 0.949 . S
C4734 C4735 1.395 . S
C4734 C4736 1.391 . S
C4735 C4734 1.395 . S
C4735 C4738 1.390 . S
C4736 C4734 1.391 . S
C4736 C4740 1.387 . S
C4736 C4741 1.491 . S
H4737 C4738 0.950 . S
C4738 C4735 1.390 . S
C4738 H4737 0.950 . S
C4738 C4739 1.378 . S
C4739 C4738 1.378 . S
C4739 C4740 1.409 . S
C4740 C4736 1.387 . S
C4740 C4739 1.409 . S
C4740 H4742 0.951 . S
C4741 C4736 1.491 . S
C4741 C4743 1.382 . S
C4741 C4745 1.404 . S
H4742 C4740 0.951 . S
C4743 C4741 1.382 . S
C4743 C4744 1.390 . S
C4743 H4748 0.949 . S
C4744 C4743 1.390 . S
C4744 C4749 1.399 . S
C4745 C4741 1.404 . S
C4745 H4746 0.950 . S
C4745 C4747 1.375 . S
H4746 C4745 0.950 . S
C4747 C4745 1.375 . S
C4747 C4749 1.382 . S
C4747 H4751 0.950 . S
H4748 C4743 0.949 . S
C4749 C4744 1.399 . S
C4749 C4747 1.382 . S
C4749 H4750 0.952 . S
H4750 C4749 0.952 . S
H4751 C4747 0.950 . S
H4752 C4753 0.949 . S
C4753 H4752 0.949 . S
C4753 C4754 1.395 . S
C4753 C4755 1.391 . S
C4754 C4753 1.395 . S
C4754 C4757 1.390 . S
C4755 C4753 1.391 . S
C4755 C4759 1.387 . S
C4755 C4760 1.491 . S
H4756 C4757 0.950 . S
C4757 C4754 1.390 . S
C4757 H4756 0.950 . S
C4757 C4758 1.378 . S
C4758 C4757 1.378 . S
C4758 C4759 1.409 . S
C4759 C4755 1.387 . S
C4759 C4758 1.409 . S
C4759 H4761 0.951 . S
C4760 C4755 1.491 . S
C4760 C4762 1.382 . S
C4760 C4764 1.404 . S
H4761 C4759 0.951 . S
C4762 C4760 1.382 . S
C4762 C4763 1.390 . S
C4762 H4767 0.949 . S
C4763 C4762 1.390 . S
C4763 C4768 1.399 . S
C4764 C4760 1.404 . S
C4764 H4765 0.950 . S
C4764 C4766 1.375 . S
H4765 C4764 0.950 . S
C4766 C4764 1.375 . S
C4766 C4768 1.382 . S
C4766 H4770 0.950 . S
H4767 C4762 0.949 . S
C4768 C4763 1.399 . S
C4768 C4766 1.382 . S
C4768 H4769 0.952 . S
H4769 C4768 0.952 . S
H4770 C4766 0.950 . S
H4771 C4772 0.949 . S
C4772 H4771 0.949 . S
C4772 C4773 1.395 . S
C4772 C4774 1.391 . S
C4773 C4772 1.395 . S
C4773 C4776 1.390 . S
C4774 C4772 1.391 . S
C4774 C4778 1.387 . S
C4774 C4779 1.491 . S
H4775 C4776 0.950 . S
C4776 C4773 1.390 . S
C4776 H4775 0.950 . S
C4776 C4777 1.378 . S
C4777 C4776 1.378 . S
C4777 C4778 1.409 . S
C4778 C4774 1.387 . S
C4778 C4777 1.409 . S
C4778 H4780 0.951 . S
C4779 C4774 1.491 . S
C4779 C4781 1.382 . S
C4779 C4783 1.404 . S
H4780 C4778 0.951 . S
C4781 C4779 1.382 . S
C4781 C4782 1.390 . S
C4781 H4786 0.949 . S
C4782 C4781 1.390 . S
C4782 C4787 1.399 . S
C4783 C4779 1.404 . S
C4783 H4784 0.950 . S
C4783 C4785 1.375 . S
H4784 C4783 0.950 . S
C4785 C4783 1.375 . S
C4785 C4787 1.382 . S
C4785 H4789 0.950 . S
H4786 C4781 0.949 . S
C4787 C4782 1.399 . S
C4787 C4785 1.382 . S
C4787 H4788 0.952 . S
H4788 C4787 0.952 . S
H4789 C4785 0.950 . S
H4790 C4791 0.949 . S
C4791 H4790 0.949 . S
C4791 C4792 1.395 . S
C4791 C4793 1.391 . S
C4792 C4791 1.395 . S
C4792 C4795 1.390 . S
C4793 C4791 1.391 . S
C4793 C4797 1.387 . S
C4793 C4798 1.491 . S
H4794 C4795 0.950 . S
C4795 C4792 1.390 . S
C4795 H4794 0.950 . S
C4795 C4796 1.378 . S
C4796 C4795 1.378 . S
C4796 C4797 1.409 . S
C4797 C4793 1.387 . S
C4797 C4796 1.409 . S
C4797 H4799 0.951 . S
C4798 C4793 1.491 . S
C4798 C4800 1.382 . S
C4798 C4802 1.404 . S
H4799 C4797 0.951 . S
C4800 C4798 1.382 . S
C4800 C4801 1.390 . S
C4800 H4805 0.949 . S
C4801 C4800 1.390 . S
C4801 C4806 1.399 . S
C4802 C4798 1.404 . S
C4802 H4803 0.950 . S
C4802 C4804 1.375 . S
H4803 C4802 0.950 . S
C4804 C4802 1.375 . S
C4804 C4806 1.382 . S
C4804 H4808 0.950 . S
H4805 C4800 0.949 . S
C4806 C4801 1.399 . S
C4806 C4804 1.382 . S
C4806 H4807 0.952 . S
H4807 C4806 0.952 . S
H4808 C4804 0.950 . S
H4809 C4810 0.949 . S
C4810 H4809 0.949 . S
C4810 C4811 1.395 . S
C4810 C4812 1.391 . S
C4811 C4810 1.395 . S
C4811 C4814 1.390 . S
C4812 C4810 1.391 . S
C4812 C4816 1.387 . S
C4812 C4817 1.491 . S
H4813 C4814 0.950 . S
C4814 C4811 1.390 . S
C4814 H4813 0.950 . S
C4814 C4815 1.378 . S
C4815 C4814 1.378 . S
C4815 C4816 1.409 . S
C4816 C4812 1.387 . S
C4816 C4815 1.409 . S
C4816 H4818 0.951 . S
C4817 C4812 1.491 . S
C4817 C4819 1.382 . S
C4817 C4821 1.404 . S
H4818 C4816 0.951 . S
C4819 C4817 1.382 . S
C4819 C4820 1.390 . S
C4819 H4824 0.949 . S
C4820 C4819 1.390 . S
C4820 C4825 1.399 . S
C4821 C4817 1.404 . S
C4821 H4822 0.950 . S
C4821 C4823 1.375 . S
H4822 C4821 0.950 . S
C4823 C4821 1.375 . S
C4823 C4825 1.382 . S
C4823 H4827 0.950 . S
H4824 C4819 0.949 . S
C4825 C4820 1.399 . S
C4825 C4823 1.382 . S
C4825 H4826 0.952 . S
H4826 C4825 0.952 . S
H4827 C4823 0.950 . S
H4828 C4829 0.949 . S
C4829 H4828 0.949 . S
C4829 C4830 1.395 . S
C4829 C4831 1.391 . S
C4830 C4829 1.395 . S
C4830 C4833 1.390 . S
C4831 C4829 1.391 . S
C4831 C4835 1.387 . S
C4831 C4836 1.491 . S
H4832 C4833 0.950 . S
C4833 C4830 1.390 . S
C4833 H4832 0.950 . S
C4833 C4834 1.378 . S
C4834 C4833 1.378 . S
C4834 C4835 1.409 . S
C4835 C4831 1.387 . S
C4835 C4834 1.409 . S
C4835 H4837 0.951 . S
C4836 C4831 1.491 . S
C4836 C4838 1.382 . S
C4836 C4840 1.404 . S
H4837 C4835 0.951 . S
C4838 C4836 1.382 . S
C4838 C4839 1.390 . S
C4838 H4843 0.949 . S
C4839 C4838 1.390 . S
C4839 C4844 1.399 . S
C4840 C4836 1.404 . S
C4840 H4841 0.950 . S
C4840 C4842 1.375 . S
H4841 C4840 0.950 . S
C4842 C4840 1.375 . S
C4842 C4844 1.382 . S
C4842 H4846 0.950 . S
H4843 C4838 0.949 . S
C4844 C4839 1.399 . S
C4844 C4842 1.382 . S
C4844 H4845 0.952 . S
H4845 C4844 0.952 . S
H4846 C4842 0.950 . S
H4847 C4848 0.949 . S
C4848 H4847 0.949 . S
C4848 C4849 1.395 . S
C4848 C4850 1.391 . S
C4849 C4848 1.395 . S
C4849 C4852 1.390 . S
C4850 C4848 1.391 . S
C4850 C4854 1.387 . S
C4850 C4855 1.491 . S
H4851 C4852 0.950 . S
C4852 C4849 1.390 . S
C4852 H4851 0.950 . S
C4852 C4853 1.378 . S
C4853 C4852 1.378 . S
C4853 C4854 1.409 . S
C4854 C4850 1.387 . S
C4854 C4853 1.409 . S
C4854 H4856 0.951 . S
C4855 C4850 1.491 . S
C4855 C4857 1.382 . S
C4855 C4859 1.404 . S
H4856 C4854 0.951 . S
C4857 C4855 1.382 . S
C4857 C4858 1.390 . S
C4857 H4862 0.949 . S
C4858 C4857 1.390 . S
C4858 C4863 1.399 . S
C4859 C4855 1.404 . S
C4859 H4860 0.950 . S
C4859 C4861 1.375 . S
H4860 C4859 0.950 . S
C4861 C4859 1.375 . S
C4861 C4863 1.382 . S
C4861 H4865 0.950 . S
H4862 C4857 0.949 . S
C4863 C4858 1.399 . S
C4863 C4861 1.382 . S
C4863 H4864 0.952 . S
H4864 C4863 0.952 . S
H4865 C4861 0.950 . S
H4866 C4867 0.949 . S
C4867 H4866 0.949 . S
C4867 C4868 1.395 . S
C4867 C4869 1.391 . S
C4868 C4867 1.395 . S
C4868 C4871 1.390 . S
C4869 C4867 1.391 . S
C4869 C4873 1.387 . S
C4869 C4874 1.491 . S
H4870 C4871 0.950 . S
C4871 C4868 1.390 . S
C4871 H4870 0.950 . S
C4871 C4872 1.378 . S
C4872 C4871 1.378 . S
C4872 C4873 1.409 . S
C4873 C4869 1.387 . S
C4873 C4872 1.409 . S
C4873 H4875 0.951 . S
C4874 C4869 1.491 . S
C4874 C4876 1.382 . S
C4874 C4878 1.404 . S
H4875 C4873 0.951 . S
C4876 C4874 1.382 . S
C4876 C4877 1.390 . S
C4876 H4881 0.949 . S
C4877 C4876 1.390 . S
C4877 C4882 1.399 . S
C4878 C4874 1.404 . S
C4878 H4879 0.950 . S
C4878 C4880 1.375 . S
H4879 C4878 0.950 . S
C4880 C4878 1.375 . S
C4880 C4882 1.382 . S
C4880 H4884 0.950 . S
H4881 C4876 0.949 . S
C4882 C4877 1.399 . S
C4882 C4880 1.382 . S
C4882 H4883 0.952 . S
H4883 C4882 0.952 . S
H4884 C4880 0.950 . S
H4885 C4886 0.949 . S
C4886 H4885 0.949 . S
C4886 C4887 1.395 . S
C4886 C4888 1.391 . S
C4887 C4886 1.395 . S
C4887 C4890 1.390 . S
C4888 C4886 1.391 . S
C4888 C4892 1.387 . S
C4888 C4893 1.491 . S
H4889 C4890 0.950 . S
C4890 C4887 1.390 . S
C4890 H4889 0.950 . S
C4890 C4891 1.378 . S
C4891 C4890 1.378 . S
C4891 C4892 1.409 . S
C4892 C4888 1.387 . S
C4892 C4891 1.409 . S
C4892 H4894 0.951 . S
C4893 C4888 1.491 . S
C4893 C4895 1.382 . S
C4893 C4897 1.404 . S
H4894 C4892 0.951 . S
C4895 C4893 1.382 . S
C4895 C4896 1.390 . S
C4895 H4900 0.949 . S
C4896 C4895 1.390 . S
C4896 C4901 1.399 . S
C4897 C4893 1.404 . S
C4897 H4898 0.950 . S
C4897 C4899 1.375 . S
H4898 C4897 0.950 . S
C4899 C4897 1.375 . S
C4899 C4901 1.382 . S
C4899 H4903 0.950 . S
H4900 C4895 0.949 . S
C4901 C4896 1.399 . S
C4901 C4899 1.382 . S
C4901 H4902 0.952 . S
H4902 C4901 0.952 . S
H4903 C4899 0.950 . S
H4904 C4905 0.949 . S
C4905 H4904 0.949 . S
C4905 C4906 1.395 . S
C4905 C4907 1.391 . S
C4906 C4905 1.395 . S
C4906 C4909 1.390 . S
C4907 C4905 1.391 . S
C4907 C4911 1.387 . S
C4907 C4912 1.491 . S
H4908 C4909 0.950 . S
C4909 C4906 1.390 . S
C4909 H4908 0.950 . S
C4909 C4910 1.378 . S
C4910 C4909 1.378 . S
C4910 C4911 1.409 . S
C4911 C4907 1.387 . S
C4911 C4910 1.409 . S
C4911 H4913 0.951 . S
C4912 C4907 1.491 . S
C4912 C4914 1.382 . S
C4912 C4916 1.404 . S
H4913 C4911 0.951 . S
C4914 C4912 1.382 . S
C4914 C4915 1.390 . S
C4914 H4919 0.949 . S
C4915 C4914 1.390 . S
C4915 C4920 1.399 . S
C4916 C4912 1.404 . S
C4916 H4917 0.950 . S
C4916 C4918 1.375 . S
H4917 C4916 0.950 . S
C4918 C4916 1.375 . S
C4918 C4920 1.382 . S
C4918 H4922 0.950 . S
H4919 C4914 0.949 . S
C4920 C4915 1.399 . S
C4920 C4918 1.382 . S
C4920 H4921 0.952 . S
H4921 C4920 0.952 . S
H4922 C4918 0.950 . S
H4923 C4924 0.949 . S
C4924 H4923 0.949 . S
C4924 C4925 1.395 . S
C4924 C4926 1.391 . S
C4925 C4924 1.395 . S
C4925 C4928 1.390 . S
C4926 C4924 1.391 . S
C4926 C4930 1.387 . S
C4926 C4931 1.491 . S
H4927 C4928 0.950 . S
C4928 C4925 1.390 . S
C4928 H4927 0.950 . S
C4928 C4929 1.378 . S
C4929 C4928 1.378 . S
C4929 C4930 1.409 . S
C4930 C4926 1.387 . S
C4930 C4929 1.409 . S
C4930 H4932 0.951 . S
C4931 C4926 1.491 . S
C4931 C4933 1.382 . S
C4931 C4935 1.404 . S
H4932 C4930 0.951 . S
C4933 C4931 1.382 . S
C4933 C4934 1.390 . S
C4933 H4938 0.949 . S
C4934 C4933 1.390 . S
C4934 C4939 1.399 . S
C4935 C4931 1.404 . S
C4935 H4936 0.950 . S
C4935 C4937 1.375 . S
H4936 C4935 0.950 . S
C4937 C4935 1.375 . S
C4937 C4939 1.382 . S
C4937 H4941 0.950 . S
H4938 C4933 0.949 . S
C4939 C4934 1.399 . S
C4939 C4937 1.382 . S
C4939 H4940 0.952 . S
H4940 C4939 0.952 . S
H4941 C4937 0.950 . S
H4942 C4943 0.949 . S
C4943 H4942 0.949 . S
C4943 C4944 1.395 . S
C4943 C4945 1.391 . S
C4944 C4943 1.395 . S
C4944 C4947 1.390 . S
C4945 C4943 1.391 . S
C4945 C4949 1.387 . S
C4945 C4950 1.491 . S
H4946 C4947 0.950 . S
C4947 C4944 1.390 . S
C4947 H4946 0.950 . S
C4947 C4948 1.378 . S
C4948 C4947 1.378 . S
C4948 C4949 1.409 . S
C4949 C4945 1.387 . S
C4949 C4948 1.409 . S
C4949 H4951 0.951 . S
C4950 C4945 1.491 . S
C4950 C4952 1.382 . S
C4950 C4954 1.404 . S
H4951 C4949 0.951 . S
C4952 C4950 1.382 . S
C4952 C4953 1.390 . S
C4952 H4957 0.949 . S
C4953 C4952 1.390 . S
C4953 C4958 1.399 . S
C4954 C4950 1.404 . S
C4954 H4955 0.950 . S
C4954 C4956 1.375 . S
H4955 C4954 0.950 . S
C4956 C4954 1.375 . S
C4956 C4958 1.382 . S
C4956 H4960 0.950 . S
H4957 C4952 0.949 . S
C4958 C4953 1.399 . S
C4958 C4956 1.382 . S
C4958 H4959 0.952 . S
H4959 C4958 0.952 . S
H4960 C4956 0.950 . S
H4961 C4962 0.949 . S
C4962 H4961 0.949 . S
C4962 C4963 1.395 . S
C4962 C4964 1.391 . S
C4963 C4962 1.395 . S
C4963 C4966 1.390 . S
C4964 C4962 1.391 . S
C4964 C4968 1.387 . S
C4964 C4969 1.491 . S
H4965 C4966 0.950 . S
C4966 C4963 1.390 . S
C4966 H4965 0.950 . S
C4966 C4967 1.378 . S
C4967 C4966 1.378 . S
C4967 C4968 1.409 . S
C4968 C4964 1.387 . S
C4968 C4967 1.409 . S
C4968 H4970 0.951 . S
C4969 C4964 1.491 . S
C4969 C4971 1.382 . S
C4969 C4973 1.404 . S
H4970 C4968 0.951 . S
C4971 C4969 1.382 . S
C4971 C4972 1.390 . S
C4971 H4976 0.949 . S
C4972 C4971 1.390 . S
C4972 C4977 1.399 . S
C4973 C4969 1.404 . S
C4973 H4974 0.950 . S
C4973 C4975 1.375 . S
H4974 C4973 0.950 . S
C4975 C4973 1.375 . S
C4975 C4977 1.382 . S
C4975 H4979 0.950 . S
H4976 C4971 0.949 . S
C4977 C4972 1.399 . S
C4977 C4975 1.382 . S
C4977 H4978 0.952 . S
H4978 C4977 0.952 . S
H4979 C4975 0.950 . S
H4980 C4981 0.949 . S
C4981 H4980 0.949 . S
C4981 C4982 1.395 . S
C4981 C4983 1.391 . S
C4982 C4981 1.395 . S
C4982 C4985 1.390 . S
C4983 C4981 1.391 . S
C4983 C4987 1.387 . S
C4983 C4988 1.491 . S
H4984 C4985 0.950 . S
C4985 C4982 1.390 . S
C4985 H4984 0.950 . S
C4985 C4986 1.378 . S
C4986 C4985 1.378 . S
C4986 C4987 1.409 . S
C4987 C4983 1.387 . S
C4987 C4986 1.409 . S
C4987 H4989 0.951 . S
C4988 C4983 1.491 . S
C4988 C4990 1.382 . S
C4988 C4992 1.404 . S
H4989 C4987 0.951 . S
C4990 C4988 1.382 . S
C4990 C4991 1.390 . S
C4990 H4995 0.949 . S
C4991 C4990 1.390 . S
C4991 C4996 1.399 . S
C4992 C4988 1.404 . S
C4992 H4993 0.950 . S
C4992 C4994 1.375 . S
H4993 C4992 0.950 . S
C4994 C4992 1.375 . S
C4994 C4996 1.382 . S
C4994 H4998 0.950 . S
H4995 C4990 0.949 . S
C4996 C4991 1.399 . S
C4996 C4994 1.382 . S
C4996 H4997 0.952 . S
H4997 C4996 0.952 . S
H4998 C4994 0.950 . S
H4999 C5000 0.949 . S
C5000 H4999 0.949 . S
C5000 C5001 1.395 . S
C5000 C5002 1.391 . S
C5001 C5000 1.395 . S
C5001 C5004 1.390 . S
C5002 C5000 1.391 . S
C5002 C5006 1.387 . S
C5002 C5007 1.491 . S
H5003 C5004 0.950 . S
C5004 C5001 1.390 . S
C5004 H5003 0.950 . S
C5004 C5005 1.378 . S
C5005 C5004 1.378 . S
C5005 C5006 1.409 . S
C5006 C5002 1.387 . S
C5006 C5005 1.409 . S
C5006 H5008 0.951 . S
C5007 C5002 1.491 . S
C5007 C5009 1.382 . S
C5007 C5011 1.404 . S
H5008 C5006 0.951 . S
C5009 C5007 1.382 . S
C5009 C5010 1.390 . S
C5009 H5014 0.949 . S
C5010 C5009 1.390 . S
C5010 C5015 1.399 . S
C5011 C5007 1.404 . S
C5011 H5012 0.950 . S
C5011 C5013 1.375 . S
H5012 C5011 0.950 . S
C5013 C5011 1.375 . S
C5013 C5015 1.382 . S
C5013 H5017 0.950 . S
H5014 C5009 0.949 . S
C5015 C5010 1.399 . S
C5015 C5013 1.382 . S
C5015 H5016 0.952 . S
H5016 C5015 0.952 . S
H5017 C5013 0.950 . S
H5018 C5019 0.949 . S
C5019 H5018 0.949 . S
C5019 C5020 1.395 . S
C5019 C5021 1.391 . S
C5020 C5019 1.395 . S
C5020 C5023 1.390 . S
C5021 C5019 1.391 . S
C5021 C5025 1.387 . S
C5021 C5026 1.491 . S
H5022 C5023 0.950 . S
C5023 C5020 1.390 . S
C5023 H5022 0.950 . S
C5023 C5024 1.378 . S
C5024 C5023 1.378 . S
C5024 C5025 1.409 . S
C5025 C5021 1.387 . S
C5025 C5024 1.409 . S
C5025 H5027 0.951 . S
C5026 C5021 1.491 . S
C5026 C5028 1.382 . S
C5026 C5030 1.404 . S
H5027 C5025 0.951 . S
C5028 C5026 1.382 . S
C5028 C5029 1.390 . S
C5028 H5033 0.949 . S
C5029 C5028 1.390 . S
C5029 C5034 1.399 . S
C5030 C5026 1.404 . S
C5030 H5031 0.950 . S
C5030 C5032 1.375 . S
H5031 C5030 0.950 . S
C5032 C5030 1.375 . S
C5032 C5034 1.382 . S
C5032 H5036 0.950 . S
H5033 C5028 0.949 . S
C5034 C5029 1.399 . S
C5034 C5032 1.382 . S
C5034 H5035 0.952 . S
H5035 C5034 0.952 . S
H5036 C5032 0.950 . S
H5037 C5038 0.949 . S
C5038 H5037 0.949 . S
C5038 C5039 1.395 . S
C5038 C5040 1.391 . S
C5039 C5038 1.395 . S
C5039 C5042 1.390 . S
C5040 C5038 1.391 . S
C5040 C5044 1.387 . S
C5040 C5045 1.491 . S
H5041 C5042 0.950 . S
C5042 C5039 1.390 . S
C5042 H5041 0.950 . S
C5042 C5043 1.378 . S
C5043 C5042 1.378 . S
C5043 C5044 1.409 . S
C5044 C5040 1.387 . S
C5044 C5043 1.409 . S
C5044 H5046 0.951 . S
C5045 C5040 1.491 . S
C5045 C5047 1.382 . S
C5045 C5049 1.404 . S
H5046 C5044 0.951 . S
C5047 C5045 1.382 . S
C5047 C5048 1.390 . S
C5047 H5052 0.949 . S
C5048 C5047 1.390 . S
C5048 C5053 1.399 . S
C5049 C5045 1.404 . S
C5049 H5050 0.950 . S
C5049 C5051 1.375 . S
H5050 C5049 0.950 . S
C5051 C5049 1.375 . S
C5051 C5053 1.382 . S
C5051 H5055 0.950 . S
H5052 C5047 0.949 . S
C5053 C5048 1.399 . S
C5053 C5051 1.382 . S
C5053 H5054 0.952 . S
H5054 C5053 0.952 . S
H5055 C5051 0.950 . S
H5056 C5057 0.949 . S
C5057 H5056 0.949 . S
C5057 C5058 1.395 . S
C5057 C5059 1.391 . S
C5058 C5057 1.395 . S
C5058 C5061 1.390 . S
C5059 C5057 1.391 . S
C5059 C5063 1.387 . S
C5059 C5064 1.491 . S
H5060 C5061 0.950 . S
C5061 C5058 1.390 . S
C5061 H5060 0.950 . S
C5061 C5062 1.378 . S
C5062 C5061 1.378 . S
C5062 C5063 1.409 . S
C5063 C5059 1.387 . S
C5063 C5062 1.409 . S
C5063 H5065 0.951 . S
C5064 C5059 1.491 . S
C5064 C5066 1.382 . S
C5064 C5068 1.404 . S
H5065 C5063 0.951 . S
C5066 C5064 1.382 . S
C5066 C5067 1.390 . S
C5066 H5071 0.949 . S
C5067 C5066 1.390 . S
C5067 C5072 1.399 . S
C5068 C5064 1.404 . S
C5068 H5069 0.950 . S
C5068 C5070 1.375 . S
H5069 C5068 0.950 . S
C5070 C5068 1.375 . S
C5070 C5072 1.382 . S
C5070 H5074 0.950 . S
H5071 C5066 0.949 . S
C5072 C5067 1.399 . S
C5072 C5070 1.382 . S
C5072 H5073 0.952 . S
H5073 C5072 0.952 . S
H5074 C5070 0.950 . S
H5075 C5076 0.949 . S
C5076 H5075 0.949 . S
C5076 C5077 1.395 . S
C5076 C5078 1.391 . S
C5077 C5076 1.395 . S
C5077 C5080 1.390 . S
C5078 C5076 1.391 . S
C5078 C5082 1.387 . S
C5078 C5083 1.491 . S
H5079 C5080 0.950 . S
C5080 C5077 1.390 . S
C5080 H5079 0.950 . S
C5080 C5081 1.378 . S
C5081 C5080 1.378 . S
C5081 C5082 1.409 . S
C5082 C5078 1.387 . S
C5082 C5081 1.409 . S
C5082 H5084 0.951 . S
C5083 C5078 1.491 . S
C5083 C5085 1.382 . S
C5083 C5087 1.404 . S
H5084 C5082 0.951 . S
C5085 C5083 1.382 . S
C5085 C5086 1.390 . S
C5085 H5090 0.949 . S
C5086 C5085 1.390 . S
C5086 C5091 1.399 . S
C5087 C5083 1.404 . S
C5087 H5088 0.950 . S
C5087 C5089 1.375 . S
H5088 C5087 0.950 . S
C5089 C5087 1.375 . S
C5089 C5091 1.382 . S
C5089 H5093 0.950 . S
H5090 C5085 0.949 . S
C5091 C5086 1.399 . S
C5091 C5089 1.382 . S
C5091 H5092 0.952 . S
H5092 C5091 0.952 . S
H5093 C5089 0.950 . S
H5094 C5095 0.949 . S
C5095 H5094 0.949 . S
C5095 C5096 1.395 . S
C5095 C5097 1.391 . S
C5096 C5095 1.395 . S
C5096 C5099 1.390 . S
C5097 C5095 1.391 . S
C5097 C5101 1.387 . S
C5097 C5102 1.491 . S
H5098 C5099 0.950 . S
C5099 C5096 1.390 . S
C5099 H5098 0.950 . S
C5099 C5100 1.378 . S
C5100 C5099 1.378 . S
C5100 C5101 1.409 . S
C5101 C5097 1.387 . S
C5101 C5100 1.409 . S
C5101 H5103 0.951 . S
C5102 C5097 1.491 . S
C5102 C5104 1.382 . S
C5102 C5106 1.404 . S
H5103 C5101 0.951 . S
C5104 C5102 1.382 . S
C5104 C5105 1.390 . S
C5104 H5109 0.949 . S
C5105 C5104 1.390 . S
C5105 C5110 1.399 . S
C5106 C5102 1.404 . S
C5106 H5107 0.950 . S
C5106 C5108 1.375 . S
H5107 C5106 0.950 . S
C5108 C5106 1.375 . S
C5108 C5110 1.382 . S
C5108 H5112 0.950 . S
H5109 C5104 0.949 . S
C5110 C5105 1.399 . S
C5110 C5108 1.382 . S
C5110 H5111 0.952 . S
H5111 C5110 0.952 . S
H5112 C5108 0.950 . S
H5113 C5114 0.949 . S
C5114 H5113 0.949 . S
C5114 C5115 1.395 . S
C5114 C5116 1.391 . S
C5115 C5114 1.395 . S
C5115 C5118 1.390 . S
C5116 C5114 1.391 . S
C5116 C5120 1.387 . S
C5116 C5121 1.491 . S
H5117 C5118 0.950 . S
C5118 C5115 1.390 . S
C5118 H5117 0.950 . S
C5118 C5119 1.378 . S
C5119 C5118 1.378 . S
C5119 C5120 1.409 . S
C5120 C5116 1.387 . S
C5120 C5119 1.409 . S
C5120 H5122 0.951 . S
C5121 C5116 1.491 . S
C5121 C5123 1.382 . S
C5121 C5125 1.404 . S
H5122 C5120 0.951 . S
C5123 C5121 1.382 . S
C5123 C5124 1.390 . S
C5123 H5128 0.949 . S
C5124 C5123 1.390 . S
C5124 C5129 1.399 . S
C5125 C5121 1.404 . S
C5125 H5126 0.950 . S
C5125 C5127 1.375 . S
H5126 C5125 0.950 . S
C5127 C5125 1.375 . S
C5127 C5129 1.382 . S
C5127 H5131 0.950 . S
H5128 C5123 0.949 . S
C5129 C5124 1.399 . S
C5129 C5127 1.382 . S
C5129 H5130 0.952 . S
H5130 C5129 0.952 . S
H5131 C5127 0.950 . S
H5132 C5133 0.949 . S
C5133 H5132 0.949 . S
C5133 C5134 1.395 . S
C5133 C5135 1.391 . S
C5134 C5133 1.395 . S
C5134 C5137 1.390 . S
C5135 C5133 1.391 . S
C5135 C5139 1.387 . S
C5135 C5140 1.491 . S
H5136 C5137 0.950 . S
C5137 C5134 1.390 . S
C5137 H5136 0.950 . S
C5137 C5138 1.378 . S
C5138 C5137 1.378 . S
C5138 C5139 1.409 . S
C5139 C5135 1.387 . S
C5139 C5138 1.409 . S
C5139 H5141 0.951 . S
C5140 C5135 1.491 . S
C5140 C5142 1.382 . S
C5140 C5144 1.404 . S
H5141 C5139 0.951 . S
C5142 C5140 1.382 . S
C5142 C5143 1.390 . S
C5142 H5147 0.949 . S
C5143 C5142 1.390 . S
C5143 C5148 1.399 . S
C5144 C5140 1.404 . S
C5144 H5145 0.950 . S
C5144 C5146 1.375 . S
H5145 C5144 0.950 . S
C5146 C5144 1.375 . S
C5146 C5148 1.382 . S
C5146 H5150 0.950 . S
H5147 C5142 0.949 . S
C5148 C5143 1.399 . S
C5148 C5146 1.382 . S
C5148 H5149 0.952 . S
H5149 C5148 0.952 . S
H5150 C5146 0.950 . S
H5151 C5152 0.949 . S
C5152 H5151 0.949 . S
C5152 C5153 1.395 . S
C5152 C5154 1.391 . S
C5153 C5152 1.395 . S
C5153 C5156 1.390 . S
C5154 C5152 1.391 . S
C5154 C5158 1.387 . S
C5154 C5159 1.491 . S
H5155 C5156 0.950 . S
C5156 C5153 1.390 . S
C5156 H5155 0.950 . S
C5156 C5157 1.378 . S
C5157 C5156 1.378 . S
C5157 C5158 1.409 . S
C5158 C5154 1.387 . S
C5158 C5157 1.409 . S
C5158 H5160 0.951 . S
C5159 C5154 1.491 . S
C5159 C5161 1.382 . S
C5159 C5163 1.404 . S
H5160 C5158 0.951 . S
C5161 C5159 1.382 . S
C5161 C5162 1.390 . S
C5161 H5166 0.949 . S
C5162 C5161 1.390 . S
C5162 C5167 1.399 . S
C5163 C5159 1.404 . S
C5163 H5164 0.950 . S
C5163 C5165 1.375 . S
H5164 C5163 0.950 . S
C5165 C5163 1.375 . S
C5165 C5167 1.382 . S
C5165 H5169 0.950 . S
H5166 C5161 0.949 . S
C5167 C5162 1.399 . S
C5167 C5165 1.382 . S
C5167 H5168 0.952 . S
H5168 C5167 0.952 . S
H5169 C5165 0.950 . S
H5170 C5171 0.949 . S
C5171 H5170 0.949 . S
C5171 C5172 1.395 . S
C5171 C5173 1.391 . S
C5172 C5171 1.395 . S
C5172 C5175 1.390 . S
C5173 C5171 1.391 . S
C5173 C5177 1.387 . S
C5173 C5178 1.491 . S
H5174 C5175 0.950 . S
C5175 C5172 1.390 . S
C5175 H5174 0.950 . S
C5175 C5176 1.378 . S
C5176 C5175 1.378 . S
C5176 C5177 1.409 . S
C5177 C5173 1.387 . S
C5177 C5176 1.409 . S
C5177 H5179 0.951 . S
C5178 C5173 1.491 . S
C5178 C5180 1.382 . S
C5178 C5182 1.404 . S
H5179 C5177 0.951 . S
C5180 C5178 1.382 . S
C5180 C5181 1.390 . S
C5180 H5185 0.949 . S
C5181 C5180 1.390 . S
C5181 C5186 1.399 . S
C5182 C5178 1.404 . S
C5182 H5183 0.950 . S
C5182 C5184 1.375 . S
H5183 C5182 0.950 . S
C5184 C5182 1.375 . S
C5184 C5186 1.382 . S
C5184 H5188 0.950 . S
H5185 C5180 0.949 . S
C5186 C5181 1.399 . S
C5186 C5184 1.382 . S
C5186 H5187 0.952 . S
H5187 C5186 0.952 . S
H5188 C5184 0.950 . S
H5189 C5190 0.949 . S
C5190 H5189 0.949 . S
C5190 C5191 1.395 . S
C5190 C5192 1.391 . S
C5191 C5190 1.395 . S
C5191 C5194 1.390 . S
C5192 C5190 1.391 . S
C5192 C5196 1.387 . S
C5192 C5197 1.491 . S
H5193 C5194 0.950 . S
C5194 C5191 1.390 . S
C5194 H5193 0.950 . S
C5194 C5195 1.378 . S
C5195 C5194 1.378 . S
C5195 C5196 1.409 . S
C5196 C5192 1.387 . S
C5196 C5195 1.409 . S
C5196 H5198 0.951 . S
C5197 C5192 1.491 . S
C5197 C5199 1.382 . S
C5197 C5201 1.404 . S
H5198 C5196 0.951 . S
C5199 C5197 1.382 . S
C5199 C5200 1.390 . S
C5199 H5204 0.949 . S
C5200 C5199 1.390 . S
C5200 C5205 1.399 . S
C5201 C5197 1.404 . S
C5201 H5202 0.950 . S
C5201 C5203 1.375 . S
H5202 C5201 0.950 . S
C5203 C5201 1.375 . S
C5203 C5205 1.382 . S
C5203 H5207 0.950 . S
H5204 C5199 0.949 . S
C5205 C5200 1.399 . S
C5205 C5203 1.382 . S
C5205 H5206 0.952 . S
H5206 C5205 0.952 . S
H5207 C5203 0.950 . S
H5208 C5209 0.949 . S
C5209 H5208 0.949 . S
C5209 C5210 1.395 . S
C5209 C5211 1.391 . S
C5210 C5209 1.395 . S
C5210 C5213 1.390 . S
C5211 C5209 1.391 . S
C5211 C5215 1.387 . S
C5211 C5216 1.491 . S
H5212 C5213 0.950 . S
C5213 C5210 1.390 . S
C5213 H5212 0.950 . S
C5213 C5214 1.378 . S
C5214 C5213 1.378 . S
C5214 C5215 1.409 . S
C5215 C5211 1.387 . S
C5215 C5214 1.409 . S
C5215 H5217 0.951 . S
C5216 C5211 1.491 . S
C5216 C5218 1.382 . S
C5216 C5220 1.404 . S
H5217 C5215 0.951 . S
C5218 C5216 1.382 . S
C5218 C5219 1.390 . S
C5218 H5223 0.949 . S
C5219 C5218 1.390 . S
C5219 C5224 1.399 . S
C5220 C5216 1.404 . S
C5220 H5221 0.950 . S
C5220 C5222 1.375 . S
H5221 C5220 0.950 . S
C5222 C5220 1.375 . S
C5222 C5224 1.382 . S
C5222 H5226 0.950 . S
H5223 C5218 0.949 . S
C5224 C5219 1.399 . S
C5224 C5222 1.382 . S
C5224 H5225 0.952 . S
H5225 C5224 0.952 . S
H5226 C5222 0.950 . S
H5227 C5228 0.949 . S
C5228 H5227 0.949 . S
C5228 C5229 1.395 . S
C5228 C5230 1.391 . S
C5229 C5228 1.395 . S
C5229 C5232 1.390 . S
C5230 C5228 1.391 . S
C5230 C5234 1.387 . S
C5230 C5235 1.491 . S
H5231 C5232 0.950 . S
C5232 C5229 1.390 . S
C5232 H5231 0.950 . S
C5232 C5233 1.378 . S
C5233 C5232 1.378 . S
C5233 C5234 1.409 . S
C5234 C5230 1.387 . S
C5234 C5233 1.409 . S
C5234 H5236 0.951 . S
C5235 C5230 1.491 . S
C5235 C5237 1.382 . S
C5235 C5239 1.404 . S
H5236 C5234 0.951 . S
C5237 C5235 1.382 . S
C5237 C5238 1.390 . S
C5237 H5242 0.949 . S
C5238 C5237 1.390 . S
C5238 C5243 1.399 . S
C5239 C5235 1.404 . S
C5239 H5240 0.950 . S
C5239 C5241 1.375 . S
H5240 C5239 0.950 . S
C5241 C5239 1.375 . S
C5241 C5243 1.382 . S
C5241 H5245 0.950 . S
H5242 C5237 0.949 . S
C5243 C5238 1.399 . S
C5243 C5241 1.382 . S
C5243 H5244 0.952 . S
H5244 C5243 0.952 . S
H5245 C5241 0.950 . S
H5246 C5247 0.949 . S
C5247 H5246 0.949 . S
C5247 C5248 1.395 . S
C5247 C5249 1.391 . S
C5248 C5247 1.395 . S
C5248 C5251 1.390 . S
C5249 C5247 1.391 . S
C5249 C5253 1.387 . S
C5249 C5254 1.491 . S
H5250 C5251 0.950 . S
C5251 C5248 1.390 . S
C5251 H5250 0.950 . S
C5251 C5252 1.378 . S
C5252 C5251 1.378 . S
C5252 C5253 1.409 . S
C5253 C5249 1.387 . S
C5253 C5252 1.409 . S
C5253 H5255 0.951 . S
C5254 C5249 1.491 . S
C5254 C5256 1.382 . S
C5254 C5258 1.404 . S
H5255 C5253 0.951 . S
C5256 C5254 1.382 . S
C5256 C5257 1.390 . S
C5256 H5261 0.949 . S
C5257 C5256 1.390 . S
C5257 C5262 1.399 . S
C5258 C5254 1.404 . S
C5258 H5259 0.950 . S
C5258 C5260 1.375 . S
H5259 C5258 0.950 . S
C5260 C5258 1.375 . S
C5260 C5262 1.382 . S
C5260 H5264 0.950 . S
H5261 C5256 0.949 . S
C5262 C5257 1.399 . S
C5262 C5260 1.382 . S
C5262 H5263 0.952 . S
H5263 C5262 0.952 . S
H5264 C5260 0.950 . S
H5265 C5266 0.949 . S
C5266 H5265 0.949 . S
C5266 C5267 1.395 . S
C5266 C5268 1.391 . S
C5267 C5266 1.395 . S
C5267 C5270 1.390 . S
C5268 C5266 1.391 . S
C5268 C5272 1.387 . S
C5268 C5273 1.491 . S
H5269 C5270 0.950 . S
C5270 C5267 1.390 . S
C5270 H5269 0.950 . S
C5270 C5271 1.378 . S
C5271 C5270 1.378 . S
C5271 C5272 1.409 . S
C5272 C5268 1.387 . S
C5272 C5271 1.409 . S
C5272 H5274 0.951 . S
C5273 C5268 1.491 . S
C5273 C5275 1.382 . S
C5273 C5277 1.404 . S
H5274 C5272 0.951 . S
C5275 C5273 1.382 . S
C5275 C5276 1.390 . S
C5275 H5280 0.949 . S
C5276 C5275 1.390 . S
C5276 C5281 1.362 1_455 S
C5277 C5273 1.404 . S
C5277 H5278 0.950 . S
C5277 C5279 1.375 . S
H5278 C5277 0.950 . S
C5279 C5277 1.375 . S
C5279 C5281 1.361 1_455 S
C5279 H5283 0.950 1_455 S
H5280 C5275 0.949 . S
C5281 C5276 1.362 1_655 S
C5281 C5279 1.361 1_655 S
C5281 H5282 1.011 . S
H5282 C5281 1.011 . S
H5283 C5279 0.950 1_655 S
H5284 C5285 0.949 . S
C5285 H5284 0.949 . S
C5285 C5286 1.395 . S
C5285 C5287 1.391 . S
C5286 C5285 1.395 . S
C5286 C5289 1.390 . S
C5287 C5285 1.391 . S
C5287 C5291 1.387 . S
C5287 C5292 1.491 . S
H5288 C5289 0.950 . S
C5289 C5286 1.390 . S
C5289 H5288 0.950 . S
C5289 C5290 1.378 . S
C5290 C5289 1.378 . S
C5290 C5291 1.409 . S
C5291 C5287 1.387 . S
C5291 C5290 1.409 . S
C5291 H5293 0.951 . S
C5292 C5287 1.491 . S
C5292 C5294 1.382 . S
C5292 C5296 1.404 . S
H5293 C5291 0.951 . S
C5294 C5292 1.382 . S
C5294 C5295 1.390 . S
C5294 H5299 0.949 . S
C5295 C5294 1.390 . S
C5295 C5300 1.399 . S
C5296 C5292 1.404 . S
C5296 H5297 0.950 . S
C5296 C5298 1.375 . S
H5297 C5296 0.950 . S
C5298 C5296 1.375 . S
C5298 C5300 1.382 . S
C5298 H5302 0.950 . S
H5299 C5294 0.949 . S
C5300 C5295 1.399 . S
C5300 C5298 1.382 . S
C5300 H5301 0.952 . S
H5301 C5300 0.952 . S
H5302 C5298 0.950 . S
H5303 C5304 0.949 . S
C5304 H5303 0.949 . S
C5304 C5305 1.395 . S
C5304 C5306 1.391 . S
C5305 C5304 1.395 . S
C5305 C5308 1.390 . S
C5306 C5304 1.391 . S
C5306 C5310 1.387 . S
C5306 C5311 1.491 . S
H5307 C5308 0.950 . S
C5308 C5305 1.390 . S
C5308 H5307 0.950 . S
C5308 C5309 1.378 . S
C5309 C5308 1.378 . S
C5309 C5310 1.409 . S
C5310 C5306 1.387 . S
C5310 C5309 1.409 . S
C5310 H5312 0.951 . S
C5311 C5306 1.491 . S
C5311 C5313 1.382 . S
C5311 C5315 1.404 . S
H5312 C5310 0.951 . S
C5313 C5311 1.382 . S
C5313 C5314 1.390 . S
C5313 H5318 0.949 . S
C5314 C5313 1.390 . S
C5314 C5319 1.362 1_455 S
C5315 C5311 1.404 . S
C5315 H5316 0.950 . S
C5315 C5317 1.375 . S
H5316 C5315 0.950 . S
C5317 C5315 1.375 . S
C5317 C5319 1.361 1_455 S
C5317 H5321 0.950 1_455 S
H5318 C5313 0.949 . S
C5319 C5314 1.362 1_655 S
C5319 C5317 1.361 1_655 S
C5319 H5320 1.012 . S
H5320 C5319 1.012 . S
H5321 C5317 0.950 1_655 S
H5322 C5323 0.949 . S
C5323 H5322 0.949 . S
C5323 C5324 1.395 . S
C5323 C5325 1.391 . S
C5324 C5323 1.395 . S
C5324 C5327 1.390 . S
C5325 C5323 1.391 . S
C5325 C5329 1.387 . S
C5325 C5330 1.491 . S
H5326 C5327 0.950 . S
C5327 C5324 1.390 . S
C5327 H5326 0.950 . S
C5327 C5328 1.378 . S
C5328 C5327 1.378 . S
C5328 C5329 1.409 . S
C5329 C5325 1.387 . S
C5329 C5328 1.409 . S
C5329 H5331 0.951 . S
C5330 C5325 1.491 . S
C5330 C5332 1.382 . S
C5330 C5334 1.404 . S
H5331 C5329 0.951 . S
C5332 C5330 1.382 . S
C5332 C5333 1.390 . S
C5332 H5337 0.949 . S
C5333 C5332 1.390 . S
C5333 C5338 1.399 . S
C5334 C5330 1.404 . S
C5334 H5335 0.950 . S
C5334 C5336 1.375 . S
H5335 C5334 0.950 . S
C5336 C5334 1.375 . S
C5336 C5338 1.382 . S
C5336 H5340 0.950 . S
H5337 C5332 0.949 . S
C5338 C5333 1.399 . S
C5338 C5336 1.382 . S
C5338 H5339 0.952 . S
H5339 C5338 0.952 . S
H5340 C5336 0.950 . S
H5341 C5342 0.949 . S
C5342 H5341 0.949 . S
C5342 C5343 1.395 . S
C5342 C5344 1.391 . S
C5343 C5342 1.395 . S
C5343 C5346 1.390 . S
C5344 C5342 1.391 . S
C5344 C5348 1.387 . S
C5344 C5349 1.491 . S
H5345 C5346 0.950 . S
C5346 C5343 1.390 . S
C5346 H5345 0.950 . S
C5346 C5347 1.378 . S
C5347 C5346 1.378 . S
C5347 C5348 1.409 . S
C5348 C5344 1.387 . S
C5348 C5347 1.409 . S
C5348 H5350 0.951 . S
C5349 C5344 1.491 . S
C5349 C5351 1.382 . S
C5349 C5353 1.404 . S
H5350 C5348 0.951 . S
C5351 C5349 1.382 . S
C5351 C5352 1.390 . S
C5351 H5356 0.949 . S
C5352 C5351 1.390 . S
C5352 C5357 1.399 . S
C5353 C5349 1.404 . S
C5353 H5354 0.950 . S
C5353 C5355 1.375 . S
H5354 C5353 0.950 . S
C5355 C5353 1.375 . S
C5355 C5357 1.382 . S
C5355 H5359 0.950 . S
H5356 C5351 0.949 . S
C5357 C5352 1.399 . S
C5357 C5355 1.382 . S
C5357 H5358 0.952 . S
H5358 C5357 0.952 . S
H5359 C5355 0.950 . S
H5360 C5361 0.949 . S
C5361 H5360 0.949 . S
C5361 C5362 1.395 . S
C5361 C5363 1.391 . S
C5362 C5361 1.395 . S
C5362 C5365 1.390 . S
C5363 C5361 1.391 . S
C5363 C5367 1.387 . S
C5363 C5368 1.491 . S
H5364 C5365 0.950 . S
C5365 C5362 1.390 . S
C5365 H5364 0.950 . S
C5365 C5366 1.378 . S
C5366 C5365 1.378 . S
C5366 C5367 1.409 . S
C5367 C5363 1.387 . S
C5367 C5366 1.409 . S
C5367 H5369 0.951 . S
C5368 C5363 1.491 . S
C5368 C5370 1.382 . S
C5368 C5372 1.404 . S
H5369 C5367 0.951 . S
C5370 C5368 1.382 . S
C5370 C5371 1.390 . S
C5370 H5375 0.949 . S
C5371 C5370 1.390 . S
C5371 C5376 1.399 . S
C5372 C5368 1.404 . S
C5372 H5373 0.950 . S
C5372 C5374 1.375 . S
H5373 C5372 0.950 . S
C5374 C5372 1.375 . S
C5374 C5376 1.382 . S
C5374 H5378 0.950 . S
H5375 C5370 0.949 . S
C5376 C5371 1.399 . S
C5376 C5374 1.382 . S
C5376 H5377 0.952 . S
H5377 C5376 0.952 . S
H5378 C5374 0.950 . S
H5379 C5380 0.949 . S
C5380 H5379 0.949 . S
C5380 C5381 1.395 . S
C5380 C5382 1.391 . S
C5381 C5380 1.395 . S
C5381 C5384 1.390 . S
C5382 C5380 1.391 . S
C5382 C5386 1.387 . S
C5382 C5387 1.491 . S
H5383 C5384 0.950 . S
C5384 C5381 1.390 . S
C5384 H5383 0.950 . S
C5384 C5385 1.378 . S
C5385 C5384 1.378 . S
C5385 C5386 1.409 . S
C5386 C5382 1.387 . S
C5386 C5385 1.409 . S
C5386 H5388 0.951 . S
C5387 C5382 1.491 . S
C5387 C5389 1.382 . S
C5387 C5391 1.404 . S
H5388 C5386 0.951 . S
C5389 C5387 1.382 . S
C5389 C5390 1.390 . S
C5389 H5394 0.949 . S
C5390 C5389 1.390 . S
C5390 C5395 1.362 1_554 S
C5391 C5387 1.404 . S
C5391 H5392 0.950 . S
C5391 C5393 1.375 . S
H5392 C5391 0.950 . S
C5393 C5391 1.375 . S
C5393 C5395 1.361 1_554 S
C5393 H5397 0.950 1_554 S
H5394 C5389 0.949 . S
C5395 C5390 1.362 1_556 S
C5395 C5393 1.361 1_556 S
C5395 H5396 1.011 . S
H5396 C5395 1.011 . S
H5397 C5393 0.950 1_556 S
H5398 C5399 0.949 . S
C5399 H5398 0.949 . S
C5399 C5400 1.395 . S
C5399 C5401 1.391 . S
C5400 C5399 1.395 . S
C5400 C5403 1.390 . S
C5401 C5399 1.391 . S
C5401 C5405 1.387 . S
C5401 C5406 1.491 . S
H5402 C5403 0.950 . S
C5403 C5400 1.390 . S
C5403 H5402 0.950 . S
C5403 C5404 1.378 . S
C5404 C5403 1.378 . S
C5404 C5405 1.409 . S
C5405 C5401 1.387 . S
C5405 C5404 1.409 . S
C5405 H5407 0.951 . S
C5406 C5401 1.491 . S
C5406 C5408 1.382 . S
C5406 C5410 1.404 . S
H5407 C5405 0.951 . S
C5408 C5406 1.382 . S
C5408 C5409 1.390 . S
C5408 H5413 0.949 . S
C5409 C5408 1.390 . S
C5409 C5414 1.399 . S
C5410 C5406 1.404 . S
C5410 H5411 0.950 . S
C5410 C5412 1.375 . S
H5411 C5410 0.950 . S
C5412 C5410 1.375 . S
C5412 C5414 1.382 . S
C5412 H5416 0.950 . S
H5413 C5408 0.949 . S
C5414 C5409 1.399 . S
C5414 C5412 1.382 . S
C5414 H5415 0.952 . S
H5415 C5414 0.952 . S
H5416 C5412 0.950 . S
H5417 C5418 0.949 . S
C5418 H5417 0.949 . S
C5418 C5419 1.395 . S
C5418 C5420 1.391 . S
C5419 C5418 1.395 . S
C5419 C5422 1.390 . S
C5420 C5418 1.391 . S
C5420 C5424 1.387 . S
C5420 C5425 1.491 . S
H5421 C5422 0.950 . S
C5422 C5419 1.390 . S
C5422 H5421 0.950 . S
C5422 C5423 1.378 . S
C5423 C5422 1.378 . S
C5423 C5424 1.409 . S
C5424 C5420 1.387 . S
C5424 C5423 1.409 . S
C5424 H5426 0.951 . S
C5425 C5420 1.491 . S
C5425 C5427 1.382 . S
C5425 C5429 1.404 . S
H5426 C5424 0.951 . S
C5427 C5425 1.382 . S
C5427 C5428 1.390 . S
C5427 H5432 0.949 . S
C5428 C5427 1.390 . S
C5428 C5433 1.399 . S
C5429 C5425 1.404 . S
C5429 H5430 0.950 . S
C5429 C5431 1.375 . S
H5430 C5429 0.950 . S
C5431 C5429 1.375 . S
C5431 C5433 1.382 . S
C5431 H5435 0.950 . S
H5432 C5427 0.949 . S
C5433 C5428 1.399 . S
C5433 C5431 1.382 . S
C5433 H5434 0.952 . S
H5434 C5433 0.952 . S
H5435 C5431 0.950 . S
H5436 C5437 0.949 . S
C5437 H5436 0.949 . S
C5437 C5438 1.395 . S
C5437 C5439 1.391 . S
C5438 C5437 1.395 . S
C5438 C5441 1.390 . S
C5439 C5437 1.391 . S
C5439 C5443 1.387 . S
C5439 C5444 1.491 . S
H5440 C5441 0.950 . S
C5441 C5438 1.390 . S
C5441 H5440 0.950 . S
C5441 C5442 1.378 . S
C5442 C5441 1.378 . S
C5442 C5443 1.409 . S
C5443 C5439 1.387 . S
C5443 C5442 1.409 . S
C5443 H5445 0.951 . S
C5444 C5439 1.491 . S
C5444 C5446 1.382 . S
C5444 C5448 1.404 . S
H5445 C5443 0.951 . S
C5446 C5444 1.382 . S
C5446 C5447 1.390 . S
C5446 H5451 0.949 . S
C5447 C5446 1.390 . S
C5447 C5452 1.399 . S
C5448 C5444 1.404 . S
C5448 H5449 0.950 . S
C5448 C5450 1.375 . S
H5449 C5448 0.950 . S
C5450 C5448 1.375 . S
C5450 C5452 1.382 . S
C5450 H5454 0.950 . S
H5451 C5446 0.949 . S
C5452 C5447 1.399 . S
C5452 C5450 1.382 . S
C5452 H5453 0.952 . S
H5453 C5452 0.952 . S
H5454 C5450 0.950 . S
H5455 C5456 0.949 . S
C5456 H5455 0.949 . S
C5456 C5457 1.395 . S
C5456 C5458 1.391 . S
C5457 C5456 1.395 . S
C5457 C5460 1.390 . S
C5458 C5456 1.391 . S
C5458 C5462 1.387 . S
C5458 C5463 1.491 . S
H5459 C5460 0.950 . S
C5460 C5457 1.390 . S
C5460 H5459 0.950 . S
C5460 C5461 1.378 . S
C5461 C5460 1.378 . S
C5461 C5462 1.409 . S
C5462 C5458 1.387 . S
C5462 C5461 1.409 . S
C5462 H5464 0.951 . S
C5463 C5458 1.491 . S
C5463 C5465 1.382 . S
C5463 C5467 1.404 . S
H5464 C5462 0.951 . S
C5465 C5463 1.382 . S
C5465 C5466 1.390 . S
C5465 H5470 0.949 . S
C5466 C5465 1.390 . S
C5466 C5471 1.362 1_556 S
C5467 C5463 1.404 . S
C5467 H5468 0.950 . S
C5467 C5469 1.375 . S
H5468 C5467 0.950 . S
C5469 C5467 1.375 . S
C5469 C5471 1.361 1_556 S
C5469 H5473 0.950 1_556 S
H5470 C5465 0.949 . S
C5471 C5466 1.362 1_554 S
C5471 C5469 1.361 1_554 S
C5471 H5472 1.011 . S
H5472 C5471 1.011 . S
H5473 C5469 0.950 1_554 S
H5474 C5475 0.949 . S
C5475 H5474 0.949 . S
C5475 C5476 1.395 . S
C5475 C5477 1.391 . S
C5476 C5475 1.395 . S
C5476 C5479 1.390 . S
C5477 C5475 1.391 . S
C5477 C5481 1.387 . S
C5477 C5482 1.491 . S
H5478 C5479 0.950 . S
C5479 C5476 1.390 . S
C5479 H5478 0.950 . S
C5479 C5480 1.378 . S
C5480 C5479 1.378 . S
C5480 C5481 1.409 . S
C5481 C5477 1.387 . S
C5481 C5480 1.409 . S
C5481 H5483 0.951 . S
C5482 C5477 1.491 . S
C5482 C5484 1.382 . S
C5482 C5486 1.404 . S
H5483 C5481 0.951 . S
C5484 C5482 1.382 . S
C5484 C5485 1.390 . S
C5484 H5489 0.949 . S
C5485 C5484 1.390 . S
C5485 C5490 1.399 . S
C5486 C5482 1.404 . S
C5486 H5487 0.950 . S
C5486 C5488 1.375 . S
H5487 C5486 0.950 . S
C5488 C5486 1.375 . S
C5488 C5490 1.382 . S
C5488 H5492 0.950 . S
H5489 C5484 0.949 . S
C5490 C5485 1.399 . S
C5490 C5488 1.382 . S
C5490 H5491 0.952 . S
H5491 C5490 0.952 . S
H5492 C5488 0.950 . S
H5493 C5494 0.949 . S
C5494 H5493 0.949 . S
C5494 C5495 1.395 . S
C5494 C5496 1.391 . S
C5495 C5494 1.395 . S
C5495 C5498 1.390 . S
C5496 C5494 1.391 . S
C5496 C5500 1.387 . S
C5496 C5501 1.491 . S
H5497 C5498 0.950 . S
C5498 C5495 1.390 . S
C5498 H5497 0.950 . S
C5498 C5499 1.378 . S
C5499 C5498 1.378 . S
C5499 C5500 1.409 . S
C5500 C5496 1.387 . S
C5500 C5499 1.409 . S
C5500 H5502 0.951 . S
C5501 C5496 1.491 . S
C5501 C5503 1.382 . S
C5501 C5505 1.404 . S
H5502 C5500 0.951 . S
C5503 C5501 1.382 . S
C5503 C5504 1.390 . S
C5503 H5508 0.949 . S
C5504 C5503 1.390 . S
C5504 C5509 1.399 . S
C5505 C5501 1.404 . S
C5505 H5506 0.950 . S
C5505 C5507 1.375 . S
H5506 C5505 0.950 . S
C5507 C5505 1.375 . S
C5507 C5509 1.382 . S
C5507 H5511 0.950 . S
H5508 C5503 0.949 . S
C5509 C5504 1.399 . S
C5509 C5507 1.382 . S
C5509 H5510 0.952 . S
H5510 C5509 0.952 . S
H5511 C5507 0.950 . S
H5512 C5513 0.949 . S
C5513 H5512 0.949 . S
C5513 C5514 1.395 . S
C5513 C5515 1.391 . S
C5514 C5513 1.395 . S
C5514 C5517 1.390 . S
C5515 C5513 1.391 . S
C5515 C5519 1.387 . S
C5515 C5520 1.491 . S
H5516 C5517 0.950 . S
C5517 C5514 1.390 . S
C5517 H5516 0.950 . S
C5517 C5518 1.378 . S
C5518 C5517 1.378 . S
C5518 C5519 1.409 . S
C5519 C5515 1.387 . S
C5519 C5518 1.409 . S
C5519 H5521 0.951 . S
C5520 C5515 1.491 . S
C5520 C5522 1.382 . S
C5520 C5524 1.404 . S
H5521 C5519 0.951 . S
C5522 C5520 1.382 . S
C5522 C5523 1.390 . S
C5522 H5527 0.949 . S
C5523 C5522 1.390 . S
C5523 C5528 1.399 . S
C5524 C5520 1.404 . S
C5524 H5525 0.950 . S
C5524 C5526 1.375 . S
H5525 C5524 0.950 . S
C5526 C5524 1.375 . S
C5526 C5528 1.382 . S
C5526 H5530 0.950 . S
H5527 C5522 0.949 . S
C5528 C5523 1.399 . S
C5528 C5526 1.382 . S
C5528 H5529 0.952 . S
H5529 C5528 0.952 . S
H5530 C5526 0.950 . S
H5531 C5532 0.949 . S
C5532 H5531 0.949 . S
C5532 C5533 1.395 . S
C5532 C5534 1.391 . S
C5533 C5532 1.395 . S
C5533 C5536 1.390 . S
C5534 C5532 1.391 . S
C5534 C5538 1.387 . S
C5534 C5539 1.491 . S
H5535 C5536 0.950 . S
C5536 C5533 1.390 . S
C5536 H5535 0.950 . S
C5536 C5537 1.378 . S
C5537 C5536 1.378 . S
C5537 C5538 1.409 . S
C5538 C5534 1.387 . S
C5538 C5537 1.409 . S
C5538 H5540 0.951 . S
C5539 C5534 1.491 . S
C5539 C5541 1.382 . S
C5539 C5543 1.404 . S
H5540 C5538 0.951 . S
C5541 C5539 1.382 . S
C5541 C5542 1.390 . S
C5541 H5546 0.949 . S
C5542 C5541 1.390 . S
C5542 C5547 1.399 . S
C5543 C5539 1.404 . S
C5543 H5544 0.950 . S
C5543 C5545 1.375 . S
H5544 C5543 0.950 . S
C5545 C5543 1.375 . S
C5545 C5547 1.382 . S
C5545 H5549 0.950 . S
H5546 C5541 0.949 . S
C5547 C5542 1.399 . S
C5547 C5545 1.382 . S
C5547 H5548 0.952 . S
H5548 C5547 0.952 . S
H5549 C5545 0.950 . S
H5550 C5551 0.949 . S
C5551 H5550 0.949 . S
C5551 C5552 1.395 . S
C5551 C5553 1.391 . S
C5552 C5551 1.395 . S
C5552 C5555 1.390 . S
C5553 C5551 1.391 . S
C5553 C5557 1.387 . S
C5553 C5558 1.491 . S
H5554 C5555 0.950 . S
C5555 C5552 1.390 . S
C5555 H5554 0.950 . S
C5555 C5556 1.378 . S
C5556 C5555 1.378 . S
C5556 C5557 1.409 . S
C5557 C5553 1.387 . S
C5557 C5556 1.409 . S
C5557 H5559 0.951 . S
C5558 C5553 1.491 . S
C5558 C5560 1.382 . S
C5558 C5562 1.404 . S
H5559 C5557 0.951 . S
C5560 C5558 1.382 . S
C5560 C5561 1.390 . S
C5560 H5565 0.949 . S
C5561 C5560 1.390 . S
C5561 C5566 1.362 1_545 S
C5562 C5558 1.404 . S
C5562 H5563 0.950 . S
C5562 C5564 1.375 . S
H5563 C5562 0.950 . S
C5564 C5562 1.375 . S
C5564 C5566 1.361 1_545 S
C5564 H5568 0.950 1_545 S
H5565 C5560 0.949 . S
C5566 C5561 1.362 1_565 S
C5566 C5564 1.361 1_565 S
C5566 H5567 1.011 . S
H5567 C5566 1.011 . S
H5568 C5564 0.950 1_565 S
H5569 C5570 0.949 . S
C5570 H5569 0.949 . S
C5570 C5571 1.395 . S
C5570 C5572 1.391 . S
C5571 C5570 1.395 . S
C5571 C5574 1.390 . S
C5572 C5570 1.391 . S
C5572 C5576 1.387 . S
C5572 C5577 1.491 . S
H5573 C5574 0.950 . S
C5574 C5571 1.390 . S
C5574 H5573 0.950 . S
C5574 C5575 1.378 . S
C5575 C5574 1.378 . S
C5575 C5576 1.409 . S
C5576 C5572 1.387 . S
C5576 C5575 1.409 . S
C5576 H5578 0.951 . S
C5577 C5572 1.491 . S
C5577 C5579 1.382 . S
C5577 C5581 1.404 . S
H5578 C5576 0.951 . S
C5579 C5577 1.382 . S
C5579 C5580 1.390 . S
C5579 H5584 0.949 . S
C5580 C5579 1.390 . S
C5580 C5585 1.399 . S
C5581 C5577 1.404 . S
C5581 H5582 0.950 . S
C5581 C5583 1.375 . S
H5582 C5581 0.950 . S
C5583 C5581 1.375 . S
C5583 C5585 1.382 . S
C5583 H5587 0.950 . S
H5584 C5579 0.949 . S
C5585 C5580 1.399 . S
C5585 C5583 1.382 . S
C5585 H5586 0.952 . S
H5586 C5585 0.952 . S
H5587 C5583 0.950 . S
H5588 C5589 0.949 . S
C5589 H5588 0.949 . S
C5589 C5590 1.395 . S
C5589 C5591 1.391 . S
C5590 C5589 1.395 . S
C5590 C5593 1.390 . S
C5591 C5589 1.391 . S
C5591 C5595 1.387 . S
C5591 C5596 1.491 . S
H5592 C5593 0.950 . S
C5593 C5590 1.390 . S
C5593 H5592 0.950 . S
C5593 C5594 1.378 . S
C5594 C5593 1.378 . S
C5594 C5595 1.409 . S
C5595 C5591 1.387 . S
C5595 C5594 1.409 . S
C5595 H5597 0.951 . S
C5596 C5591 1.491 . S
C5596 C5598 1.382 . S
C5596 C5600 1.404 . S
H5597 C5595 0.951 . S
C5598 C5596 1.382 . S
C5598 C5599 1.390 . S
C5598 H5603 0.949 . S
C5599 C5598 1.390 . S
C5599 C5604 1.399 . S
C5600 C5596 1.404 . S
C5600 H5601 0.950 . S
C5600 C5602 1.375 . S
H5601 C5600 0.950 . S
C5602 C5600 1.375 . S
C5602 C5604 1.382 . S
C5602 H5606 0.950 . S
H5603 C5598 0.949 . S
C5604 C5599 1.399 . S
C5604 C5602 1.382 . S
C5604 H5605 0.952 . S
H5605 C5604 0.952 . S
H5606 C5602 0.950 . S
H5607 C5608 0.949 . S
C5608 H5607 0.949 . S
C5608 C5609 1.395 . S
C5608 C5610 1.391 . S
C5609 C5608 1.395 . S
C5609 C5612 1.390 . S
C5610 C5608 1.391 . S
C5610 C5614 1.387 . S
C5610 C5615 1.491 . S
H5611 C5612 0.950 . S
C5612 C5609 1.390 . S
C5612 H5611 0.950 . S
C5612 C5613 1.378 . S
C5613 C5612 1.378 . S
C5613 C5614 1.409 . S
C5614 C5610 1.387 . S
C5614 C5613 1.409 . S
C5614 H5616 0.951 . S
C5615 C5610 1.491 . S
C5615 C5617 1.382 . S
C5615 C5619 1.404 . S
H5616 C5614 0.951 . S
C5617 C5615 1.382 . S
C5617 C5618 1.390 . S
C5617 H5622 0.949 . S
C5618 C5617 1.390 . S
C5618 C5623 1.399 . S
C5619 C5615 1.404 . S
C5619 H5620 0.950 . S
C5619 C5621 1.375 . S
H5620 C5619 0.950 . S
C5621 C5619 1.375 . S
C5621 C5623 1.382 . S
C5621 H5625 0.950 . S
H5622 C5617 0.949 . S
C5623 C5618 1.399 . S
C5623 C5621 1.382 . S
C5623 H5624 0.952 . S
H5624 C5623 0.952 . S
H5625 C5621 0.950 . S
H5626 C5627 0.949 . S
C5627 H5626 0.949 . S
C5627 C5628 1.395 . S
C5627 C5629 1.391 . S
C5628 C5627 1.395 . S
C5628 C5631 1.390 . S
C5629 C5627 1.391 . S
C5629 C5633 1.387 . S
C5629 C5634 1.491 . S
H5630 C5631 0.950 . S
C5631 C5628 1.390 . S
C5631 H5630 0.950 . S
C5631 C5632 1.378 . S
C5632 C5631 1.378 . S
C5632 C5633 1.409 . S
C5633 C5629 1.387 . S
C5633 C5632 1.409 . S
C5633 H5635 0.951 . S
C5634 C5629 1.491 . S
C5634 C5636 1.382 . S
C5634 C5638 1.404 . S
H5635 C5633 0.951 . S
C5636 C5634 1.382 . S
C5636 C5637 1.390 . S
C5636 H5641 0.949 . S
C5637 C5636 1.390 . S
C5637 C5642 1.362 1_565 S
C5638 C5634 1.404 . S
C5638 H5639 0.950 . S
C5638 C5640 1.375 . S
H5639 C5638 0.950 . S
C5640 C5638 1.375 . S
C5640 C5642 1.361 1_565 S
C5640 H5644 0.950 1_565 S
H5641 C5636 0.949 . S
C5642 C5637 1.362 1_545 S
C5642 C5640 1.361 1_545 S
C5642 H5643 1.011 . S
H5643 C5642 1.011 . S
H5644 C5640 0.950 1_545 S
H5645 C5646 0.949 . S
C5646 H5645 0.949 . S
C5646 C5647 1.395 . S
C5646 C5648 1.391 . S
C5647 C5646 1.395 . S
C5647 C5650 1.390 . S
C5648 C5646 1.391 . S
C5648 C5652 1.387 . S
C5648 C5653 1.491 . S
H5649 C5650 0.950 . S
C5650 C5647 1.390 . S
C5650 H5649 0.950 . S
C5650 C5651 1.378 . S
C5651 C5650 1.378 . S
C5651 C5652 1.409 . S
C5652 C5648 1.387 . S
C5652 C5651 1.409 . S
C5652 H5654 0.951 . S
C5653 C5648 1.491 . S
C5653 C5655 1.382 . S
C5653 C5657 1.404 . S
H5654 C5652 0.951 . S
C5655 C5653 1.382 . S
C5655 C5656 1.390 . S
C5655 H5660 0.949 . S
C5656 C5655 1.390 . S
C5656 C5661 1.362 1_545 S
C5657 C5653 1.404 . S
C5657 H5658 0.950 . S
C5657 C5659 1.375 . S
H5658 C5657 0.950 . S
C5659 C5657 1.375 . S
C5659 C5661 1.361 1_545 S
C5659 H5663 0.950 1_545 S
H5660 C5655 0.949 . S
C5661 C5656 1.362 1_565 S
C5661 C5659 1.361 1_565 S
C5661 H5662 1.012 . S
H5662 C5661 1.012 . S
H5663 C5659 0.950 1_565 S
C5664 C5665 1.363 . S
C5664 C5670 1.379 . S
C5664 N5672 1.356 . S
C5665 C5664 1.363 . S
C5665 C5671 1.363 . S
C5666 C5667 1.363 . S
C5666 C5671 1.379 . S
C5666 N5673 1.356 . S
C5667 C5666 1.363 . S
C5667 C5670 1.363 . S
N5668 C5670 1.356 1_655 S
N5668 H5680 0.984 . S
N5668 H5681 0.985 . S
N5669 C5671 1.356 . S
N5669 H5674 0.984 . S
N5669 H5675 0.985 . S
C5670 C5664 1.379 . S
C5670 C5667 1.363 . S
C5670 N5668 1.356 1_455 S
C5671 C5665 1.363 . S
C5671 C5666 1.379 . S
C5671 N5669 1.356 . S
N5672 C5664 1.356 . S
N5672 H5678 0.984 . S
N5672 H5679 0.984 . S
N5673 C5666 1.356 . S
N5673 H5676 0.984 1_455 S
N5673 H5677 0.985 . S
H5674 N5669 0.984 . S
H5675 N5669 0.985 . S
H5676 N5673 0.984 1_655 S
H5677 N5673 0.985 . S
H5678 N5672 0.984 . S
H5679 N5672 0.984 . S
H5680 N5668 0.984 . S
H5681 N5668 0.985 . S
C5682 C5683 1.363 . S
C5682 C5688 1.379 . S
C5682 N5690 1.356 . S
C5683 C5682 1.363 . S
C5683 C5689 1.363 . S
C5684 C5685 1.363 . S
C5684 C5689 1.379 . S
C5684 N5691 1.356 . S
C5685 C5684 1.363 . S
C5685 C5688 1.363 . S
N5686 C5688 1.356 . S
N5686 H5698 0.984 . S
N5686 H5699 0.985 . S
N5687 C5689 1.356 . S
N5687 H5692 0.984 . S
N5687 H5693 0.985 . S
C5688 C5682 1.379 . S
C5688 C5685 1.363 . S
C5688 N5686 1.356 . S
C5689 C5683 1.363 . S
C5689 C5684 1.379 . S
C5689 N5687 1.356 . S
N5690 C5682 1.356 . S
N5690 H5696 0.984 . S
N5690 H5697 0.984 . S
N5691 C5684 1.356 . S
N5691 H5694 0.984 . S
N5691 H5695 0.985 . S
H5692 N5687 0.984 . S
H5693 N5687 0.985 . S
H5694 N5691 0.984 . S
H5695 N5691 0.985 . S
H5696 N5690 0.984 . S
H5697 N5690 0.984 . S
H5698 N5686 0.984 . S
H5699 N5686 0.985 . S
C5700 C5701 1.363 . S
C5700 C5706 1.379 . S
C5700 N5708 1.356 . S
C5701 C5700 1.363 . S
C5701 C5707 1.363 . S
C5702 C5703 1.363 . S
C5702 C5707 1.379 . S
C5702 N5709 1.356 . S
C5703 C5702 1.363 . S
C5703 C5706 1.363 . S
N5704 C5706 1.356 . S
N5704 H5716 0.984 . S
N5704 H5717 0.985 . S
N5705 C5707 1.356 . S
N5705 H5710 0.984 . S
N5705 H5711 0.985 . S
C5706 C5700 1.379 . S
C5706 C5703 1.363 . S
C5706 N5704 1.356 . S
C5707 C5701 1.363 . S
C5707 C5702 1.379 . S
C5707 N5705 1.356 . S
N5708 C5700 1.356 . S
N5708 H5714 0.984 . S
N5708 H5715 0.984 . S
N5709 C5702 1.356 . S
N5709 H5712 0.984 . S
N5709 H5713 0.985 . S
H5710 N5705 0.984 . S
H5711 N5705 0.985 . S
H5712 N5709 0.984 . S
H5713 N5709 0.985 . S
H5714 N5708 0.984 . S
H5715 N5708 0.984 . S
H5716 N5704 0.984 . S
H5717 N5704 0.985 . S
C5718 C5719 1.363 . S
C5718 C5724 1.379 . S
C5718 N5726 1.356 . S
C5719 C5718 1.363 . S
C5719 C5725 1.363 . S
C5720 C5721 1.363 . S
C5720 C5725 1.379 . S
C5720 N5727 1.356 . S
C5721 C5720 1.363 . S
C5721 C5724 1.363 . S
N5722 C5724 1.356 . S
N5722 H5734 0.984 . S
N5722 H5735 0.985 . S
N5723 C5725 1.356 . S
N5723 H5728 0.984 . S
N5723 H5729 0.985 . S
C5724 C5718 1.379 . S
C5724 C5721 1.363 . S
C5724 N5722 1.356 . S
C5725 C5719 1.363 . S
C5725 C5720 1.379 . S
C5725 N5723 1.356 . S
N5726 C5718 1.356 . S
N5726 H5732 0.984 . S
N5726 H5733 0.984 . S
N5727 C5720 1.356 . S
N5727 H5730 0.984 . S
N5727 H5731 0.985 . S
H5728 N5723 0.984 . S
H5729 N5723 0.985 . S
H5730 N5727 0.984 . S
H5731 N5727 0.985 . S
H5732 N5726 0.984 . S
H5733 N5726 0.984 . S
H5734 N5722 0.984 . S
H5735 N5722 0.985 . S
C5736 C5737 1.363 . S
C5736 C5742 1.379 . S
C5736 N5744 1.356 . S
C5737 C5736 1.363 . S
C5737 C5743 1.363 . S
C5738 C5739 1.363 . S
C5738 C5743 1.379 . S
C5738 N5745 1.293 1_455 S
C5739 C5738 1.363 . S
C5739 C5742 1.363 . S
N5740 C5742 1.380 . S
N5740 H5752 0.994 . S
N5740 H5753 0.952 1_455 S
N5741 C5743 1.356 . S
N5741 H5746 0.984 . S
N5741 H5747 0.985 . S
C5742 C5736 1.379 . S
C5742 C5739 1.363 . S
C5742 N5740 1.380 . S
C5743 C5737 1.363 . S
C5743 C5738 1.379 . S
C5743 N5741 1.356 . S
N5744 C5736 1.356 . S
N5744 H5750 0.984 . S
N5744 H5751 0.984 . S
N5745 C5738 1.293 1_655 S
N5745 H5748 1.065 . S
N5745 H5749 0.972 1_655 S
H5746 N5741 0.984 . S
H5747 N5741 0.985 . S
H5748 N5745 1.065 . S
H5749 N5745 0.972 1_455 S
H5750 N5744 0.984 . S
H5751 N5744 0.984 . S
H5752 N5740 0.994 . S
H5753 N5740 0.952 1_655 S
C5754 C5755 1.363 . S
C5754 C5760 1.379 . S
C5754 N5762 1.356 . S
C5755 C5754 1.363 . S
C5755 C5761 1.363 . S
C5756 C5757 1.363 . S
C5756 C5761 1.379 . S
C5756 N5763 1.356 . S
C5757 C5756 1.363 . S
C5757 C5760 1.363 . S
N5758 C5760 1.356 . S
N5758 H5770 0.984 . S
N5758 H5771 0.985 . S
N5759 C5761 1.356 . S
N5759 H5764 0.984 . S
N5759 H5765 0.985 . S
C5760 C5754 1.379 . S
C5760 C5757 1.363 . S
C5760 N5758 1.356 . S
C5761 C5755 1.363 . S
C5761 C5756 1.379 . S
C5761 N5759 1.356 . S
N5762 C5754 1.356 . S
N5762 H5768 0.984 . S
N5762 H5769 0.984 . S
N5763 C5756 1.356 . S
N5763 H5766 0.984 . S
N5763 H5767 0.985 . S
H5764 N5759 0.984 . S
H5765 N5759 0.985 . S
H5766 N5763 0.984 . S
H5767 N5763 0.985 . S
H5768 N5762 0.984 . S
H5769 N5762 0.984 . S
H5770 N5758 0.984 . S
H5771 N5758 0.985 . S
C5772 C5773 1.363 . S
C5772 C5778 1.379 . S
C5772 N5780 1.356 . S
C5773 C5772 1.363 . S
C5773 C5779 1.363 . S
C5774 C5775 1.363 . S
C5774 C5779 1.379 . S
C5774 N5781 1.356 . S
C5775 C5774 1.363 . S
C5775 C5778 1.363 . S
N5776 C5778 1.356 . S
N5776 H5788 0.984 . S
N5776 H5789 0.985 . S
N5777 C5779 1.356 . S
N5777 H5782 0.984 . S
N5777 H5783 0.985 . S
C5778 C5772 1.379 . S
C5778 C5775 1.363 . S
C5778 N5776 1.356 . S
C5779 C5773 1.363 . S
C5779 C5774 1.379 . S
C5779 N5777 1.356 . S
N5780 C5772 1.356 . S
N5780 H5786 0.984 . S
N5780 H5787 0.984 . S
N5781 C5774 1.356 . S
N5781 H5784 0.984 . S
N5781 H5785 0.985 . S
H5782 N5777 0.984 . S
H5783 N5777 0.985 . S
H5784 N5781 0.984 . S
H5785 N5781 0.985 . S
H5786 N5780 0.984 . S
H5787 N5780 0.984 . S
H5788 N5776 0.984 . S
H5789 N5776 0.985 . S
C5790 C5791 1.363 . S
C5790 C5796 1.379 . S
C5790 N5798 1.356 . S
C5791 C5790 1.363 . S
C5791 C5797 1.363 . S
C5792 C5793 1.363 . S
C5792 C5797 1.379 . S
C5792 N5799 1.356 . S
C5793 C5792 1.363 . S
C5793 C5796 1.363 . S
N5794 C5796 1.356 . S
N5794 H5806 0.984 . S
N5794 H5807 0.985 . S
N5795 C5797 1.356 . S
N5795 H5800 0.984 . S
N5795 H5801 0.985 . S
C5796 C5790 1.379 . S
C5796 C5793 1.363 . S
C5796 N5794 1.356 . S
C5797 C5791 1.363 . S
C5797 C5792 1.379 . S
C5797 N5795 1.356 . S
N5798 C5790 1.356 . S
N5798 H5804 0.984 . S
N5798 H5805 0.984 . S
N5799 C5792 1.356 . S
N5799 H5802 0.984 . S
N5799 H5803 0.985 . S
H5800 N5795 0.984 . S
H5801 N5795 0.985 . S
H5802 N5799 0.984 . S
H5803 N5799 0.985 . S
H5804 N5798 0.984 . S
H5805 N5798 0.984 . S
H5806 N5794 0.984 . S
H5807 N5794 0.985 . S
C5808 C5809 1.363 . S
C5808 C5814 1.379 . S
C5808 N5816 1.356 . S
C5809 C5808 1.363 . S
C5809 C5815 1.363 . S
C5810 C5811 1.363 . S
C5810 C5815 1.379 . S
C5810 N5817 1.356 1_545 S
C5811 C5810 1.363 . S
C5811 C5814 1.363 . S
N5812 C5814 1.356 . S
N5812 H5824 0.984 . S
N5812 H5825 0.985 1_545 S
N5813 C5815 1.356 . S
N5813 H5818 0.984 . S
N5813 H5819 0.985 . S
C5814 C5808 1.379 . S
C5814 C5811 1.363 . S
C5814 N5812 1.356 . S
C5815 C5809 1.363 . S
C5815 C5810 1.379 . S
C5815 N5813 1.356 . S
N5816 C5808 1.356 . S
N5816 H5822 0.984 . S
N5816 H5823 0.984 . S
N5817 C5810 1.356 1_565 S
N5817 H5820 0.984 . S
N5817 H5821 0.985 . S
H5818 N5813 0.984 . S
H5819 N5813 0.985 . S
H5820 N5817 0.984 . S
H5821 N5817 0.985 . S
H5822 N5816 0.984 . S
H5823 N5816 0.984 . S
H5824 N5812 0.984 . S
H5825 N5812 0.985 1_565 S
C5826 C5827 1.363 . S
C5826 C5832 1.379 . S
C5826 N5834 1.356 . S
C5827 C5826 1.363 . S
C5827 C5833 1.363 . S
C5828 C5829 1.363 . S
C5828 C5833 1.379 . S
C5828 N5835 1.356 . S
C5829 C5828 1.363 . S
C5829 C5832 1.363 . S
N5830 C5832 1.356 . S
N5830 H5842 0.984 . S
N5830 H5843 0.985 . S
N5831 C5833 1.356 . S
N5831 H5836 0.984 . S
N5831 H5837 0.985 . S
C5832 C5826 1.379 . S
C5832 C5829 1.363 . S
C5832 N5830 1.356 . S
C5833 C5827 1.363 . S
C5833 C5828 1.379 . S
C5833 N5831 1.356 . S
N5834 C5826 1.356 . S
N5834 H5840 0.984 . S
N5834 H5841 0.984 . S
N5835 C5828 1.356 . S
N5835 H5838 0.984 . S
N5835 H5839 0.985 . S
H5836 N5831 0.984 . S
H5837 N5831 0.985 . S
H5838 N5835 0.984 . S
H5839 N5835 0.985 . S
H5840 N5834 0.984 . S
H5841 N5834 0.984 . S
H5842 N5830 0.984 . S
H5843 N5830 0.985 . S
C5844 C5845 1.363 . S
C5844 C5850 1.379 . S
C5844 N5852 1.356 . S
C5845 C5844 1.363 . S
C5845 C5851 1.363 . S
C5846 C5847 1.363 . S
C5846 C5851 1.379 . S
C5846 N5853 1.356 . S
C5847 C5846 1.363 . S
C5847 C5850 1.363 . S
N5848 C5850 1.356 1_545 S
N5848 H5860 0.984 . S
N5848 H5861 0.985 . S
N5849 C5851 1.356 . S
N5849 H5854 0.984 . S
N5849 H5855 0.985 . S
C5850 C5844 1.379 . S
C5850 C5847 1.363 . S
C5850 N5848 1.356 1_565 S
C5851 C5845 1.363 . S
C5851 C5846 1.379 . S
C5851 N5849 1.356 . S
N5852 C5844 1.356 . S
N5852 H5858 0.984 . S
N5852 H5859 0.984 . S
N5853 C5846 1.356 . S
N5853 H5856 0.984 1_565 S
N5853 H5857 0.985 . S
H5854 N5849 0.984 . S
H5855 N5849 0.985 . S
H5856 N5853 0.984 1_545 S
H5857 N5853 0.985 . S
H5858 N5852 0.984 . S
H5859 N5852 0.984 . S
H5860 N5848 0.984 . S
H5861 N5848 0.985 . S
C5862 C5863 1.363 . S
C5862 C5868 1.379 . S
C5862 N5870 1.356 . S
C5863 C5862 1.363 . S
C5863 C5869 1.363 . S
C5864 C5865 1.363 . S
C5864 C5869 1.379 . S
C5864 N5871 1.356 . S
C5865 C5864 1.363 . S
C5865 C5868 1.363 . S
N5866 C5868 1.356 . S
N5866 H5878 0.984 . S
N5866 H5879 0.985 . S
N5867 C5869 1.356 . S
N5867 H5872 0.984 . S
N5867 H5873 0.985 . S
C5868 C5862 1.379 . S
C5868 C5865 1.363 . S
C5868 N5866 1.356 . S
C5869 C5863 1.363 . S
C5869 C5864 1.379 . S
C5869 N5867 1.356 . S
N5870 C5862 1.356 . S
N5870 H5876 0.984 . S
N5870 H5877 0.984 . S
N5871 C5864 1.356 . S
N5871 H5874 0.984 . S
N5871 H5875 0.985 . S
H5872 N5867 0.984 . S
H5873 N5867 0.985 . S
H5874 N5871 0.984 . S
H5875 N5871 0.985 . S
H5876 N5870 0.984 . S
H5877 N5870 0.984 . S
H5878 N5866 0.984 . S
H5879 N5866 0.985 . S
C5880 C5881 1.363 . S
C5880 C5886 1.379 . S
C5880 N5888 1.356 . S
C5881 C5880 1.363 . S
C5881 C5887 1.363 . S
C5882 C5883 1.363 . S
C5882 C5887 1.379 . S
C5882 N5889 1.356 . S
C5883 C5882 1.363 . S
C5883 C5886 1.363 . S
N5884 C5886 1.356 1_545 S
N5884 H5896 0.984 . S
N5884 H5897 0.985 . S
N5885 C5887 1.356 . S
N5885 H5890 0.984 . S
N5885 H5891 0.985 . S
C5886 C5880 1.379 . S
C5886 C5883 1.363 . S
C5886 N5884 1.356 1_565 S
C5887 C5881 1.363 . S
C5887 C5882 1.379 . S
C5887 N5885 1.356 . S
N5888 C5880 1.356 . S
N5888 H5894 0.984 . S
N5888 H5895 0.984 . S
N5889 C5882 1.356 . S
N5889 H5892 0.984 1_565 S
N5889 H5893 0.985 . S
H5890 N5885 0.984 . S
H5891 N5885 0.985 . S
H5892 N5889 0.984 1_545 S
H5893 N5889 0.985 . S
H5894 N5888 0.984 . S
H5895 N5888 0.984 . S
H5896 N5884 0.984 . S
H5897 N5884 0.985 . S
C5898 C5899 1.363 . S
C5898 C5904 1.379 . S
C5898 N5906 1.356 . S
C5899 C5898 1.363 . S
C5899 C5905 1.363 . S
C5900 C5901 1.363 . S
C5900 C5905 1.379 . S
C5900 N5907 1.356 . S
C5901 C5900 1.363 . S
C5901 C5904 1.363 . S
N5902 C5904 1.356 . S
N5902 H5914 0.984 . S
N5902 H5915 0.985 . S
N5903 C5905 1.356 . S
N5903 H5908 0.984 . S
N5903 H5909 0.985 . S
C5904 C5898 1.379 . S
C5904 C5901 1.363 . S
C5904 N5902 1.356 . S
C5905 C5899 1.363 . S
C5905 C5900 1.379 . S
C5905 N5903 1.356 . S
N5906 C5898 1.356 . S
N5906 H5912 0.984 . S
N5906 H5913 0.984 . S
N5907 C5900 1.356 . S
N5907 H5910 0.984 . S
N5907 H5911 0.985 . S
H5908 N5903 0.984 . S
H5909 N5903 0.985 . S
H5910 N5907 0.984 . S
H5911 N5907 0.985 . S
H5912 N5906 0.984 . S
H5913 N5906 0.984 . S
H5914 N5902 0.984 . S
H5915 N5902 0.985 . S
C5916 C5917 1.363 . S
C5916 C5922 1.379 . S
C5916 N5924 1.356 . S
C5917 C5916 1.363 . S
C5917 C5923 1.363 . S
C5918 C5919 1.363 . S
C5918 C5923 1.379 . S
C5918 N5925 1.356 1_545 S
C5919 C5918 1.363 . S
C5919 C5922 1.363 . S
N5920 C5922 1.356 . S
N5920 H5932 0.984 . S
N5920 H5933 0.985 1_545 S
N5921 C5923 1.356 . S
N5921 H5926 0.984 . S
N5921 H5927 0.985 . S
C5922 C5916 1.379 . S
C5922 C5919 1.363 . S
C5922 N5920 1.356 . S
C5923 C5917 1.363 . S
C5923 C5918 1.379 . S
C5923 N5921 1.356 . S
N5924 C5916 1.356 . S
N5924 H5930 0.984 . S
N5924 H5931 0.984 . S
N5925 C5918 1.356 1_565 S
N5925 H5928 0.984 . S
N5925 H5929 0.985 . S
H5926 N5921 0.984 . S
H5927 N5921 0.985 . S
H5928 N5925 0.984 . S
H5929 N5925 0.985 . S
H5930 N5924 0.984 . S
H5931 N5924 0.984 . S
H5932 N5920 0.984 . S
H5933 N5920 0.985 1_565 S
C5934 C5935 1.363 . S
C5934 C5940 1.379 . S
C5934 N5942 1.356 . S
C5935 C5934 1.363 . S
C5935 C5941 1.363 . S
C5936 C5937 1.363 . S
C5936 C5941 1.379 . S
C5936 N5943 1.356 . S
C5937 C5936 1.363 . S
C5937 C5940 1.363 . S
N5938 C5940 1.356 . S
N5938 H5950 0.984 . S
N5938 H5951 0.985 . S
N5939 C5941 1.356 . S
N5939 H5944 0.984 . S
N5939 H5945 0.985 . S
C5940 C5934 1.379 . S
C5940 C5937 1.363 . S
C5940 N5938 1.356 . S
C5941 C5935 1.363 . S
C5941 C5936 1.379 . S
C5941 N5939 1.356 . S
N5942 C5934 1.356 . S
N5942 H5948 0.984 . S
N5942 H5949 0.984 . S
N5943 C5936 1.356 . S
N5943 H5946 0.984 . S
N5943 H5947 0.985 . S
H5944 N5939 0.984 . S
H5945 N5939 0.985 . S
H5946 N5943 0.984 . S
H5947 N5943 0.985 . S
H5948 N5942 0.984 . S
H5949 N5942 0.984 . S
H5950 N5938 0.984 . S
H5951 N5938 0.985 . S
C5952 C5953 1.363 . S
C5952 C5958 1.379 . S
C5952 N5960 1.356 . S
C5953 C5952 1.363 . S
C5953 C5959 1.363 . S
C5954 C5955 1.363 . S
C5954 C5959 1.379 . S
C5954 N5961 1.356 1_554 S
C5955 C5954 1.363 . S
C5955 C5958 1.363 . S
N5956 C5958 1.356 . S
N5956 H5968 0.984 . S
N5956 H5969 0.985 1_554 S
N5957 C5959 1.356 . S
N5957 H5962 0.984 . S
N5957 H5963 0.985 . S
C5958 C5952 1.379 . S
C5958 C5955 1.363 . S
C5958 N5956 1.356 . S
C5959 C5953 1.363 . S
C5959 C5954 1.379 . S
C5959 N5957 1.356 . S
N5960 C5952 1.356 . S
N5960 H5966 0.984 . S
N5960 H5967 0.984 . S
N5961 C5954 1.356 1_556 S
N5961 H5964 0.984 . S
N5961 H5965 0.985 . S
H5962 N5957 0.984 . S
H5963 N5957 0.985 . S
H5964 N5961 0.984 . S
H5965 N5961 0.985 . S
H5966 N5960 0.984 . S
H5967 N5960 0.984 . S
H5968 N5956 0.984 . S
H5969 N5956 0.985 1_556 S
C5970 C5971 1.363 . S
C5970 C5976 1.379 . S
C5970 N5978 1.356 . S
C5971 C5970 1.363 . S
C5971 C5977 1.363 . S
C5972 C5973 1.363 . S
C5972 C5977 1.379 . S
C5972 N5979 1.356 1_556 S
C5973 C5972 1.363 . S
C5973 C5976 1.363 . S
N5974 C5976 1.356 . S
N5974 H5986 0.984 . S
N5974 H5987 0.985 1_556 S
N5975 C5977 1.356 . S
N5975 H5980 0.984 . S
N5975 H5981 0.985 . S
C5976 C5970 1.379 . S
C5976 C5973 1.363 . S
C5976 N5974 1.356 . S
C5977 C5971 1.363 . S
C5977 C5972 1.379 . S
C5977 N5975 1.356 . S
N5978 C5970 1.356 . S
N5978 H5984 0.984 . S
N5978 H5985 0.984 . S
N5979 C5972 1.356 1_554 S
N5979 H5982 0.984 . S
N5979 H5983 0.985 . S
H5980 N5975 0.984 . S
H5981 N5975 0.985 . S
H5982 N5979 0.984 . S
H5983 N5979 0.985 . S
H5984 N5978 0.984 . S
H5985 N5978 0.984 . S
H5986 N5974 0.984 . S
H5987 N5974 0.985 1_554 S
C5988 C5989 1.363 . S
C5988 C5994 1.379 . S
C5988 N5996 1.356 . S
C5989 C5988 1.363 . S
C5989 C5995 1.363 . S
C5990 C5991 1.363 . S
C5990 C5995 1.379 . S
C5990 N5997 1.356 . S
C5991 C5990 1.363 . S
C5991 C5994 1.363 . S
N5992 C5994 1.356 . S
N5992 H6004 0.984 . S
N5992 H6005 0.985 . S
N5993 C5995 1.356 . S
N5993 H5998 0.984 . S
N5993 H5999 0.985 . S
C5994 C5988 1.379 . S
C5994 C5991 1.363 . S
C5994 N5992 1.356 . S
C5995 C5989 1.363 . S
C5995 C5990 1.379 . S
C5995 N5993 1.356 . S
N5996 C5988 1.356 . S
N5996 H6002 0.984 . S
N5996 H6003 0.984 . S
N5997 C5990 1.356 . S
N5997 H6000 0.984 . S
N5997 H6001 0.985 . S
H5998 N5993 0.984 . S
H5999 N5993 0.985 . S
H6000 N5997 0.984 . S
H6001 N5997 0.985 . S
H6002 N5996 0.984 . S
H6003 N5996 0.984 . S
H6004 N5992 0.984 . S
H6005 N5992 0.985 . S
C6006 C6007 1.363 . S
C6006 C6012 1.379 . S
C6006 N6014 1.356 . S
C6007 C6006 1.363 . S
C6007 C6013 1.363 . S
C6008 C6009 1.363 . S
C6008 C6013 1.379 . S
C6008 N6015 1.356 . S
C6009 C6008 1.363 . S
C6009 C6012 1.363 . S
N6010 C6012 1.356 . S
N6010 H6022 0.984 . S
N6010 H6023 0.985 . S
N6011 C6013 1.356 . S
N6011 H6016 0.984 . S
N6011 H6017 0.985 . S
C6012 C6006 1.379 . S
C6012 C6009 1.363 . S
C6012 N6010 1.356 . S
C6013 C6007 1.363 . S
C6013 C6008 1.379 . S
C6013 N6011 1.356 . S
N6014 C6006 1.356 . S
N6014 H6020 0.984 . S
N6014 H6021 0.984 . S
N6015 C6008 1.356 . S
N6015 H6018 0.984 . S
N6015 H6019 0.985 . S
H6016 N6011 0.984 . S
H6017 N6011 0.985 . S
H6018 N6015 0.984 . S
H6019 N6015 0.985 . S
H6020 N6014 0.984 . S
H6021 N6014 0.984 . S
H6022 N6010 0.984 . S
H6023 N6010 0.985 . S
C6024 C6025 1.363 . S
C6024 C6030 1.379 . S
C6024 N6032 1.356 . S
C6025 C6024 1.363 . S
C6025 C6031 1.363 . S
C6026 C6027 1.363 . S
C6026 C6031 1.379 . S
C6026 N6033 1.356 . S
C6027 C6026 1.363 . S
C6027 C6030 1.363 . S
N6028 C6030 1.356 . S
N6028 H6040 0.984 . S
N6028 H6041 0.985 . S
N6029 C6031 1.356 . S
N6029 H6034 0.984 . S
N6029 H6035 0.985 . S
C6030 C6024 1.379 . S
C6030 C6027 1.363 . S
C6030 N6028 1.356 . S
C6031 C6025 1.363 . S
C6031 C6026 1.379 . S
C6031 N6029 1.356 . S
N6032 C6024 1.356 . S
N6032 H6038 0.984 . S
N6032 H6039 0.984 . S
N6033 C6026 1.356 . S
N6033 H6036 0.984 . S
N6033 H6037 0.985 . S
H6034 N6029 0.984 . S
H6035 N6029 0.985 . S
H6036 N6033 0.984 . S
H6037 N6033 0.985 . S
H6038 N6032 0.984 . S
H6039 N6032 0.984 . S
H6040 N6028 0.984 . S
H6041 N6028 0.985 . S
C6042 C6043 1.363 . S
C6042 C6048 1.379 . S
C6042 N6050 1.356 . S
C6043 C6042 1.363 . S
C6043 C6049 1.363 . S
C6044 C6045 1.363 . S
C6044 C6049 1.379 . S
C6044 N6051 1.356 . S
C6045 C6044 1.363 . S
C6045 C6048 1.363 . S
N6046 C6048 1.356 . S
N6046 H6058 0.984 . S
N6046 H6059 0.985 . S
N6047 C6049 1.356 . S
N6047 H6052 0.984 . S
N6047 H6053 0.985 . S
C6048 C6042 1.379 . S
C6048 C6045 1.363 . S
C6048 N6046 1.356 . S
C6049 C6043 1.363 . S
C6049 C6044 1.379 . S
C6049 N6047 1.356 . S
N6050 C6042 1.356 . S
N6050 H6056 0.984 . S
N6050 H6057 0.984 . S
N6051 C6044 1.356 . S
N6051 H6054 0.984 . S
N6051 H6055 0.985 . S
H6052 N6047 0.984 . S
H6053 N6047 0.985 . S
H6054 N6051 0.984 . S
H6055 N6051 0.985 . S
H6056 N6050 0.984 . S
H6057 N6050 0.984 . S
H6058 N6046 0.984 . S
H6059 N6046 0.985 . S
C6060 C6061 1.363 . S
C6060 C6066 1.379 . S
C6060 N6068 1.356 . S
C6061 C6060 1.363 . S
C6061 C6067 1.363 . S
C6062 C6063 1.363 . S
C6062 C6067 1.379 . S
C6062 N6069 1.356 . S
C6063 C6062 1.363 . S
C6063 C6066 1.363 . S
N6064 C6066 1.356 . S
N6064 H6076 0.984 . S
N6064 H6077 0.985 . S
N6065 C6067 1.356 . S
N6065 H6070 0.984 . S
N6065 H6071 0.985 . S
C6066 C6060 1.379 . S
C6066 C6063 1.363 . S
C6066 N6064 1.356 . S
C6067 C6061 1.363 . S
C6067 C6062 1.379 . S
C6067 N6065 1.356 . S
N6068 C6060 1.356 . S
N6068 H6074 0.984 . S
N6068 H6075 0.984 . S
N6069 C6062 1.356 . S
N6069 H6072 0.984 . S
N6069 H6073 0.985 . S
H6070 N6065 0.984 . S
H6071 N6065 0.985 . S
H6072 N6069 0.984 . S
H6073 N6069 0.985 . S
H6074 N6068 0.984 . S
H6075 N6068 0.984 . S
H6076 N6064 0.984 . S
H6077 N6064 0.985 . S
C6078 C6079 1.363 . S
C6078 C6084 1.379 . S
C6078 N6086 1.356 . S
C6079 C6078 1.363 . S
C6079 C6085 1.363 . S
C6080 C6081 1.363 . S
C6080 C6085 1.379 . S
C6080 N6087 1.356 . S
C6081 C6080 1.363 . S
C6081 C6084 1.363 . S
N6082 C6084 1.356 . S
N6082 H6094 0.984 . S
N6082 H6095 0.985 . S
N6083 C6085 1.356 . S
N6083 H6088 0.984 . S
N6083 H6089 0.985 . S
C6084 C6078 1.379 . S
C6084 C6081 1.363 . S
C6084 N6082 1.356 . S
C6085 C6079 1.363 . S
C6085 C6080 1.379 . S
C6085 N6083 1.356 . S
N6086 C6078 1.356 . S
N6086 H6092 0.984 . S
N6086 H6093 0.984 . S
N6087 C6080 1.356 . S
N6087 H6090 0.984 . S
N6087 H6091 0.985 . S
H6088 N6083 0.984 . S
H6089 N6083 0.985 . S
H6090 N6087 0.984 . S
H6091 N6087 0.985 . S
H6092 N6086 0.984 . S
H6093 N6086 0.984 . S
H6094 N6082 0.984 . S
H6095 N6082 0.985 . S
C6096 C6097 1.363 . S
C6096 C6102 1.379 . S
C6096 N6104 1.356 . S
C6097 C6096 1.363 . S
C6097 C6103 1.363 . S
C6098 C6099 1.363 . S
C6098 C6103 1.379 . S
C6098 N6105 1.356 1_655 S
C6099 C6098 1.363 . S
C6099 C6102 1.363 . S
N6100 C6102 1.356 . S
N6100 H6112 0.984 . S
N6100 H6113 0.985 1_655 S
N6101 C6103 1.356 . S
N6101 H6106 0.984 . S
N6101 H6107 0.985 . S
C6102 C6096 1.379 . S
C6102 C6099 1.363 . S
C6102 N6100 1.356 . S
C6103 C6097 1.363 . S
C6103 C6098 1.379 . S
C6103 N6101 1.356 . S
N6104 C6096 1.356 . S
N6104 H6110 0.984 . S
N6104 H6111 0.984 . S
N6105 C6098 1.356 1_455 S
N6105 H6108 0.984 . S
N6105 H6109 0.985 . S
H6106 N6101 0.984 . S
H6107 N6101 0.985 . S
H6108 N6105 0.984 . S
H6109 N6105 0.985 . S
H6110 N6104 0.984 . S
H6111 N6104 0.984 . S
H6112 N6100 0.984 . S
H6113 N6100 0.985 1_455 S
C6114 C6115 1.363 . S
C6114 C6120 1.379 . S
C6114 N6122 1.356 . S
C6115 C6114 1.363 . S
C6115 C6121 1.363 . S
C6116 C6117 1.363 . S
C6116 C6121 1.379 . S
C6116 N6123 1.356 . S
C6117 C6116 1.363 . S
C6117 C6120 1.363 . S
N6118 C6120 1.356 . S
N6118 H6130 0.984 . S
N6118 H6131 0.985 . S
N6119 C6121 1.356 . S
N6119 H6124 0.984 . S
N6119 H6125 0.985 . S
C6120 C6114 1.379 . S
C6120 C6117 1.363 . S
C6120 N6118 1.356 . S
C6121 C6115 1.363 . S
C6121 C6116 1.379 . S
C6121 N6119 1.356 . S
N6122 C6114 1.356 . S
N6122 H6128 0.984 . S
N6122 H6129 0.984 . S
N6123 C6116 1.356 . S
N6123 H6126 0.984 . S
N6123 H6127 0.985 . S
H6124 N6119 0.984 . S
H6125 N6119 0.985 . S
H6126 N6123 0.984 . S
H6127 N6123 0.985 . S
H6128 N6122 0.984 . S
H6129 N6122 0.984 . S
H6130 N6118 0.984 . S
H6131 N6118 0.985 . S
C6132 C6133 1.363 . S
C6132 C6138 1.379 . S
C6132 N6140 1.356 . S
C6133 C6132 1.363 . S
C6133 C6139 1.363 . S
C6134 C6135 1.363 . S
C6134 C6139 1.379 . S
C6134 N6141 1.356 . S
C6135 C6134 1.363 . S
C6135 C6138 1.363 . S
N6136 C6138 1.356 . S
N6136 H6148 0.984 . S
N6136 H6149 0.985 . S
N6137 C6139 1.356 . S
N6137 H6142 0.984 . S
N6137 H6143 0.985 . S
C6138 C6132 1.379 . S
C6138 C6135 1.363 . S
C6138 N6136 1.356 . S
C6139 C6133 1.363 . S
C6139 C6134 1.379 . S
C6139 N6137 1.356 . S
N6140 C6132 1.356 . S
N6140 H6146 0.984 . S
N6140 H6147 0.984 . S
N6141 C6134 1.356 . S
N6141 H6144 0.984 . S
N6141 H6145 0.985 . S
H6142 N6137 0.984 . S
H6143 N6137 0.985 . S
H6144 N6141 0.984 . S
H6145 N6141 0.985 . S
H6146 N6140 0.984 . S
H6147 N6140 0.984 . S
H6148 N6136 0.984 . S
H6149 N6136 0.985 . S
C6150 C6151 1.363 . S
C6150 C6156 1.379 . S
C6150 N6158 1.356 . S
C6151 C6150 1.363 . S
C6151 C6157 1.363 . S
C6152 C6153 1.363 . S
C6152 C6157 1.379 . S
C6152 N6159 1.356 . S
C6153 C6152 1.363 . S
C6153 C6156 1.363 . S
N6154 C6156 1.356 . S
N6154 H6166 0.984 . S
N6154 H6167 0.985 . S
N6155 C6157 1.356 . S
N6155 H6160 0.984 . S
N6155 H6161 0.985 . S
C6156 C6150 1.379 . S
C6156 C6153 1.363 . S
C6156 N6154 1.356 . S
C6157 C6151 1.363 . S
C6157 C6152 1.379 . S
C6157 N6155 1.356 . S
N6158 C6150 1.356 . S
N6158 H6164 0.984 . S
N6158 H6165 0.984 . S
N6159 C6152 1.356 . S
N6159 H6162 0.984 . S
N6159 H6163 0.985 . S
H6160 N6155 0.984 . S
H6161 N6155 0.985 . S
H6162 N6159 0.984 . S
H6163 N6159 0.985 . S
H6164 N6158 0.984 . S
H6165 N6158 0.984 . S
H6166 N6154 0.984 . S
H6167 N6154 0.985 . S
C6168 C6169 1.363 . S
C6168 C6174 1.379 . S
C6168 N6176 1.356 . S
C6169 C6168 1.363 . S
C6169 C6175 1.363 . S
C6170 C6171 1.363 . S
C6170 C6175 1.379 . S
C6170 N6177 1.364 . S
C6171 C6170 1.363 . S
C6171 C6174 1.363 . S
N6172 C6174 1.310 1_455 S
N6172 H6184 0.970 1_455 S
N6172 H6185 1.044 . S
N6173 C6175 1.356 . S
N6173 H6178 0.984 . S
N6173 H6179 0.985 . S
C6174 C6168 1.379 . S
C6174 C6171 1.363 . S
C6174 N6172 1.310 1_655 S
C6175 C6169 1.363 . S
C6175 C6170 1.379 . S
C6175 N6173 1.356 . S
N6176 C6168 1.356 . S
N6176 H6182 0.984 . S
N6176 H6183 0.984 . S
N6177 C6170 1.364 . S
N6177 H6180 0.974 1_655 S
N6177 H6181 0.987 . S
H6178 N6173 0.984 . S
H6179 N6173 0.985 . S
H6180 N6177 0.974 1_455 S
H6181 N6177 0.987 . S
H6182 N6176 0.984 . S
H6183 N6176 0.984 . S
H6184 N6172 0.970 1_655 S
H6185 N6172 1.044 . S
C6186 C6187 1.363 . S
C6186 C6192 1.379 . S
C6186 N6194 1.356 . S
C6187 C6186 1.363 . S
C6187 C6193 1.363 . S
C6188 C6189 1.363 . S
C6188 C6193 1.379 . S
C6188 N6195 1.356 . S
C6189 C6188 1.363 . S
C6189 C6192 1.363 . S
N6190 C6192 1.356 . S
N6190 H6202 0.984 . S
N6190 H6203 0.985 . S
N6191 C6193 1.356 . S
N6191 H6196 0.984 . S
N6191 H6197 0.985 . S
C6192 C6186 1.379 . S
C6192 C6189 1.363 . S
C6192 N6190 1.356 . S
C6193 C6187 1.363 . S
C6193 C6188 1.379 . S
C6193 N6191 1.356 . S
N6194 C6186 1.356 . S
N6194 H6200 0.984 . S
N6194 H6201 0.984 . S
N6195 C6188 1.356 . S
N6195 H6198 0.984 . S
N6195 H6199 0.985 . S
H6196 N6191 0.984 . S
H6197 N6191 0.985 . S
H6198 N6195 0.984 . S
H6199 N6195 0.985 . S
H6200 N6194 0.984 . S
H6201 N6194 0.984 . S
H6202 N6190 0.984 . S
H6203 N6190 0.985 . S
C6204 C6205 1.363 . S
C6204 C6210 1.379 . S
C6204 N6212 1.356 . S
C6205 C6204 1.363 . S
C6205 C6211 1.363 . S
C6206 C6207 1.363 . S
C6206 C6211 1.379 . S
C6206 N6213 1.356 . S
C6207 C6206 1.363 . S
C6207 C6210 1.363 . S
N6208 C6210 1.356 . S
N6208 H6220 0.984 . S
N6208 H6221 0.985 . S
N6209 C6211 1.356 . S
N6209 H6214 0.984 . S
N6209 H6215 0.985 . S
C6210 C6204 1.379 . S
C6210 C6207 1.363 . S
C6210 N6208 1.356 . S
C6211 C6205 1.363 . S
C6211 C6206 1.379 . S
C6211 N6209 1.356 . S
N6212 C6204 1.356 . S
N6212 H6218 0.984 . S
N6212 H6219 0.984 . S
N6213 C6206 1.356 . S
N6213 H6216 0.984 . S
N6213 H6217 0.985 . S
H6214 N6209 0.984 . S
H6215 N6209 0.985 . S
H6216 N6213 0.984 . S
H6217 N6213 0.985 . S
H6218 N6212 0.984 . S
H6219 N6212 0.984 . S
H6220 N6208 0.984 . S
H6221 N6208 0.985 . S
C6222 C6223 1.363 . S
C6222 C6228 1.379 . S
C6222 N6230 1.356 . S
C6223 C6222 1.363 . S
C6223 C6229 1.363 . S
C6224 C6225 1.363 . S
C6224 C6229 1.379 . S
C6224 N6231 1.356 . S
C6225 C6224 1.363 . S
C6225 C6228 1.363 . S
N6226 C6228 1.356 . S
N6226 H6238 0.984 . S
N6226 H6239 0.985 . S
N6227 C6229 1.356 . S
N6227 H6232 0.984 . S
N6227 H6233 0.985 . S
C6228 C6222 1.379 . S
C6228 C6225 1.363 . S
C6228 N6226 1.356 . S
C6229 C6223 1.363 . S
C6229 C6224 1.379 . S
C6229 N6227 1.356 . S
N6230 C6222 1.356 . S
N6230 H6236 0.984 . S
N6230 H6237 0.984 . S
N6231 C6224 1.356 . S
N6231 H6234 0.984 . S
N6231 H6235 0.985 . S
H6232 N6227 0.984 . S
H6233 N6227 0.985 . S
H6234 N6231 0.984 . S
H6235 N6231 0.985 . S
H6236 N6230 0.984 . S
H6237 N6230 0.984 . S
H6238 N6226 0.984 . S
H6239 N6226 0.985 . S
C6240 C6241 1.363 . S
C6240 C6246 1.379 . S
C6240 N6248 1.356 . S
C6241 C6240 1.363 . S
C6241 C6247 1.363 . S
C6242 C6243 1.363 . S
C6242 C6247 1.379 . S
C6242 N6249 1.356 1_565 S
C6243 C6242 1.363 . S
C6243 C6246 1.363 . S
N6244 C6246 1.356 . S
N6244 H6256 0.984 . S
N6244 H6257 0.985 1_565 S
N6245 C6247 1.356 . S
N6245 H6250 0.984 . S
N6245 H6251 0.985 . S
C6246 C6240 1.379 . S
C6246 C6243 1.363 . S
C6246 N6244 1.356 . S
C6247 C6241 1.363 . S
C6247 C6242 1.379 . S
C6247 N6245 1.356 . S
N6248 C6240 1.356 . S
N6248 H6254 0.984 . S
N6248 H6255 0.984 . S
N6249 C6242 1.356 1_545 S
N6249 H6252 0.984 . S
N6249 H6253 0.985 . S
H6250 N6245 0.984 . S
H6251 N6245 0.985 . S
H6252 N6249 0.984 . S
H6253 N6249 0.985 . S
H6254 N6248 0.984 . S
H6255 N6248 0.984 . S
H6256 N6244 0.984 . S
H6257 N6244 0.985 1_545 S
C6258 C6259 1.363 . S
C6258 C6264 1.379 . S
C6258 N6266 1.356 . S
C6259 C6258 1.363 . S
C6259 C6265 1.363 . S
C6260 C6261 1.363 . S
C6260 C6265 1.379 . S
C6260 N6267 1.356 . S
C6261 C6260 1.363 . S
C6261 C6264 1.363 . S
N6262 C6264 1.356 . S
N6262 H6274 0.984 . S
N6262 H6275 0.985 . S
N6263 C6265 1.356 . S
N6263 H6268 0.984 . S
N6263 H6269 0.985 . S
C6264 C6258 1.379 . S
C6264 C6261 1.363 . S
C6264 N6262 1.356 . S
C6265 C6259 1.363 . S
C6265 C6260 1.379 . S
C6265 N6263 1.356 . S
N6266 C6258 1.356 . S
N6266 H6272 0.984 . S
N6266 H6273 0.984 . S
N6267 C6260 1.356 . S
N6267 H6270 0.984 . S
N6267 H6271 0.985 . S
H6268 N6263 0.984 . S
H6269 N6263 0.985 . S
H6270 N6267 0.984 . S
H6271 N6267 0.985 . S
H6272 N6266 0.984 . S
H6273 N6266 0.984 . S
H6274 N6262 0.984 . S
H6275 N6262 0.985 . S
C6276 C6277 1.363 . S
C6276 C6282 1.379 . S
C6276 N6284 1.356 . S
C6277 C6276 1.363 . S
C6277 C6283 1.363 . S
C6278 C6279 1.363 . S
C6278 C6283 1.379 . S
C6278 N6285 1.356 1_545 S
C6279 C6278 1.363 . S
C6279 C6282 1.363 . S
N6280 C6282 1.356 . S
N6280 H6292 0.984 . S
N6280 H6293 0.985 1_545 S
N6281 C6283 1.356 . S
N6281 H6286 0.984 . S
N6281 H6287 0.985 . S
C6282 C6276 1.379 . S
C6282 C6279 1.363 . S
C6282 N6280 1.356 . S
C6283 C6277 1.363 . S
C6283 C6278 1.379 . S
C6283 N6281 1.356 . S
N6284 C6276 1.356 . S
N6284 H6290 0.984 . S
N6284 H6291 0.984 . S
N6285 C6278 1.356 1_565 S
N6285 H6288 0.984 . S
N6285 H6289 0.985 . S
H6286 N6281 0.984 . S
H6287 N6281 0.985 . S
H6288 N6285 0.984 . S
H6289 N6285 0.985 . S
H6290 N6284 0.984 . S
H6291 N6284 0.984 . S
H6292 N6280 0.984 . S
H6293 N6280 0.985 1_565 S
C6294 C6295 1.363 . S
C6294 C6300 1.379 . S
C6294 N6302 1.356 . S
C6295 C6294 1.363 . S
C6295 C6301 1.363 . S
C6296 C6297 1.363 . S
C6296 C6301 1.379 . S
C6296 N6303 1.356 . S
C6297 C6296 1.363 . S
C6297 C6300 1.363 . S
N6298 C6300 1.356 . S
N6298 H6310 0.984 . S
N6298 H6311 0.985 . S
N6299 C6301 1.356 . S
N6299 H6304 0.984 . S
N6299 H6305 0.985 . S
C6300 C6294 1.379 . S
C6300 C6297 1.363 . S
C6300 N6298 1.356 . S
C6301 C6295 1.363 . S
C6301 C6296 1.379 . S
C6301 N6299 1.356 . S
N6302 C6294 1.356 . S
N6302 H6308 0.984 . S
N6302 H6309 0.984 . S
N6303 C6296 1.356 . S
N6303 H6306 0.984 . S
N6303 H6307 0.985 . S
H6304 N6299 0.984 . S
H6305 N6299 0.985 . S
H6306 N6303 0.984 . S
H6307 N6303 0.985 . S
H6308 N6302 0.984 . S
H6309 N6302 0.984 . S
H6310 N6298 0.984 . S
H6311 N6298 0.985 . S
C6312 C6313 1.363 . S
C6312 C6318 1.379 . S
C6312 N6320 1.356 . S
C6313 C6312 1.363 . S
C6313 C6319 1.363 . S
C6314 C6315 1.363 . S
C6314 C6319 1.379 . S
C6314 N6321 1.356 . S
C6315 C6314 1.363 . S
C6315 C6318 1.363 . S
N6316 C6318 1.356 1_565 S
N6316 H6328 0.984 . S
N6316 H6329 0.985 . S
N6317 C6319 1.356 . S
N6317 H6322 0.984 . S
N6317 H6323 0.985 . S
C6318 C6312 1.379 . S
C6318 C6315 1.363 . S
C6318 N6316 1.356 1_545 S
C6319 C6313 1.363 . S
C6319 C6314 1.379 . S
C6319 N6317 1.356 . S
N6320 C6312 1.356 . S
N6320 H6326 0.984 . S
N6320 H6327 0.984 . S
N6321 C6314 1.356 . S
N6321 H6324 0.984 1_545 S
N6321 H6325 0.985 . S
H6322 N6317 0.984 . S
H6323 N6317 0.985 . S
H6324 N6321 0.984 1_565 S
H6325 N6321 0.985 . S
H6326 N6320 0.984 . S
H6327 N6320 0.984 . S
H6328 N6316 0.984 . S
H6329 N6316 0.985 . S
C6330 C6331 1.363 . S
C6330 C6336 1.379 . S
C6330 N6338 1.356 . S
C6331 C6330 1.363 . S
C6331 C6337 1.363 . S
C6332 C6333 1.363 . S
C6332 C6337 1.379 . S
C6332 N6339 1.356 . S
C6333 C6332 1.363 . S
C6333 C6336 1.363 . S
N6334 C6336 1.356 . S
N6334 H6346 0.984 . S
N6334 H6347 0.985 . S
N6335 C6337 1.356 . S
N6335 H6340 0.984 . S
N6335 H6341 0.985 . S
C6336 C6330 1.379 . S
C6336 C6333 1.363 . S
C6336 N6334 1.356 . S
C6337 C6331 1.363 . S
C6337 C6332 1.379 . S
C6337 N6335 1.356 . S
N6338 C6330 1.356 . S
N6338 H6344 0.984 . S
N6338 H6345 0.984 . S
N6339 C6332 1.356 . S
N6339 H6342 0.984 . S
N6339 H6343 0.985 . S
H6340 N6335 0.984 . S
H6341 N6335 0.985 . S
H6342 N6339 0.984 . S
H6343 N6339 0.985 . S
H6344 N6338 0.984 . S
H6345 N6338 0.984 . S
H6346 N6334 0.984 . S
H6347 N6334 0.985 . S
C6348 C6349 1.363 . S
C6348 C6354 1.379 . S
C6348 N6356 1.356 . S
C6349 C6348 1.363 . S
C6349 C6355 1.363 . S
C6350 C6351 1.363 . S
C6350 C6355 1.379 . S
C6350 N6357 1.444 . S
C6351 C6350 1.363 . S
C6351 C6354 1.363 . S
N6352 C6354 1.356 1_545 S
N6352 H6364 0.997 . S
N6352 H6365 0.985 . S
N6353 C6355 1.356 . S
N6353 H6358 0.984 . S
N6353 H6359 0.985 . S
C6354 C6348 1.379 . S
C6354 C6351 1.363 . S
C6354 N6352 1.356 1_565 S
C6355 C6349 1.363 . S
C6355 C6350 1.379 . S
C6355 N6353 1.356 . S
N6356 C6348 1.356 . S
N6356 H6362 0.984 . S
N6356 H6363 0.984 . S
N6357 C6350 1.444 . S
N6357 H6360 0.864 1_565 S
N6357 H6361 1.031 . S
H6358 N6353 0.984 . S
H6359 N6353 0.985 . S
H6360 N6357 0.864 1_545 S
H6361 N6357 1.031 . S
H6362 N6356 0.984 . S
H6363 N6356 0.984 . S
H6364 N6352 0.997 . S
H6365 N6352 0.985 . S
C6366 C6367 1.363 . S
C6366 C6372 1.379 . S
C6366 N6374 1.356 . S
C6367 C6366 1.363 . S
C6367 C6373 1.363 . S
C6368 C6369 1.363 . S
C6368 C6373 1.379 . S
C6368 N6375 1.356 . S
C6369 C6368 1.363 . S
C6369 C6372 1.363 . S
N6370 C6372 1.356 . S
N6370 H6382 0.984 . S
N6370 H6383 0.985 . S
N6371 C6373 1.356 . S
N6371 H6376 0.984 . S
N6371 H6377 0.985 . S
C6372 C6366 1.379 . S
C6372 C6369 1.363 . S
C6372 N6370 1.356 . S
C6373 C6367 1.363 . S
C6373 C6368 1.379 . S
C6373 N6371 1.356 . S
N6374 C6366 1.356 . S
N6374 H6380 0.984 . S
N6374 H6381 0.984 . S
N6375 C6368 1.356 . S
N6375 H6378 0.984 . S
N6375 H6379 0.985 . S
H6376 N6371 0.984 . S
H6377 N6371 0.985 . S
H6378 N6375 0.984 . S
H6379 N6375 0.985 . S
H6380 N6374 0.984 . S
H6381 N6374 0.984 . S
H6382 N6370 0.984 . S
H6383 N6370 0.985 . S
C6384 C6385 1.363 . S
C6384 C6390 1.379 . S
C6384 N6392 1.356 . S
C6385 C6384 1.363 . S
C6385 C6391 1.363 . S
C6386 C6387 1.363 . S
C6386 C6391 1.379 . S
C6386 N6393 1.356 . S
C6387 C6386 1.363 . S
C6387 C6390 1.363 . S
N6388 C6390 1.356 1_554 S
N6388 H6400 0.984 . S
N6388 H6401 0.985 . S
N6389 C6391 1.356 . S
N6389 H6394 0.984 . S
N6389 H6395 0.985 . S
C6390 C6384 1.379 . S
C6390 C6387 1.363 . S
C6390 N6388 1.356 1_556 S
C6391 C6385 1.363 . S
C6391 C6386 1.379 . S
C6391 N6389 1.356 . S
N6392 C6384 1.356 . S
N6392 H6398 0.984 . S
N6392 H6399 0.984 . S
N6393 C6386 1.356 . S
N6393 H6396 0.984 1_556 S
N6393 H6397 0.985 . S
H6394 N6389 0.984 . S
H6395 N6389 0.985 . S
H6396 N6393 0.984 1_554 S
H6397 N6393 0.985 . S
H6398 N6392 0.984 . S
H6399 N6392 0.984 . S
H6400 N6388 0.984 . S
H6401 N6388 0.985 . S
C6402 C6403 1.363 . S
C6402 C6408 1.379 . S
C6402 N6410 1.356 . S
C6403 C6402 1.363 . S
C6403 C6409 1.363 . S
C6404 C6405 1.363 . S
C6404 C6409 1.379 . S
C6404 N6411 1.356 1_554 S
C6405 C6404 1.363 . S
C6405 C6408 1.363 . S
N6406 C6408 1.356 . S
N6406 H6418 0.984 . S
N6406 H6419 0.985 1_554 S
N6407 C6409 1.356 . S
N6407 H6412 0.984 . S
N6407 H6413 0.985 . S
C6408 C6402 1.379 . S
C6408 C6405 1.363 . S
C6408 N6406 1.356 . S
C6409 C6403 1.363 . S
C6409 C6404 1.379 . S
C6409 N6407 1.356 . S
N6410 C6402 1.356 . S
N6410 H6416 0.984 . S
N6410 H6417 0.984 . S
N6411 C6404 1.356 1_556 S
N6411 H6414 0.984 . S
N6411 H6415 0.985 . S
H6412 N6407 0.984 . S
H6413 N6407 0.985 . S
H6414 N6411 0.984 . S
H6415 N6411 0.985 . S
H6416 N6410 0.984 . S
H6417 N6410 0.984 . S
H6418 N6406 0.984 . S
H6419 N6406 0.985 1_556 S
C6420 C6421 1.363 . S
C6420 C6426 1.379 . S
C6420 N6428 1.356 . S
C6421 C6420 1.363 . S
C6421 C6427 1.363 . S
C6422 C6423 1.363 . S
C6422 C6427 1.379 . S
C6422 N6429 1.356 . S
C6423 C6422 1.363 . S
C6423 C6426 1.363 . S
N6424 C6426 1.356 . S
N6424 H6436 0.984 . S
N6424 H6437 0.985 . S
N6425 C6427 1.356 . S
N6425 H6430 0.984 . S
N6425 H6431 0.985 . S
C6426 C6420 1.379 . S
C6426 C6423 1.363 . S
C6426 N6424 1.356 . S
C6427 C6421 1.363 . S
C6427 C6422 1.379 . S
C6427 N6425 1.356 . S
N6428 C6420 1.356 . S
N6428 H6434 0.984 . S
N6428 H6435 0.984 . S
N6429 C6422 1.356 . S
N6429 H6432 0.984 . S
N6429 H6433 0.985 . S
H6430 N6425 0.984 . S
H6431 N6425 0.985 . S
H6432 N6429 0.984 . S
H6433 N6429 0.985 . S
H6434 N6428 0.984 . S
H6435 N6428 0.984 . S
H6436 N6424 0.984 . S
H6437 N6424 0.985 . S
C6438 C6439 1.363 . S
C6438 C6444 1.379 . S
C6438 N6446 1.356 . S
C6439 C6438 1.363 . S
C6439 C6445 1.363 . S
C6440 C6441 1.363 . S
C6440 C6445 1.379 . S
C6440 N6447 1.356 . S
C6441 C6440 1.363 . S
C6441 C6444 1.363 . S
N6442 C6444 1.356 . S
N6442 H6454 0.984 . S
N6442 H6455 0.985 . S
N6443 C6445 1.356 . S
N6443 H6448 0.984 . S
N6443 H6449 0.985 . S
C6444 C6438 1.379 . S
C6444 C6441 1.363 . S
C6444 N6442 1.356 . S
C6445 C6439 1.363 . S
C6445 C6440 1.379 . S
C6445 N6443 1.356 . S
N6446 C6438 1.356 . S
N6446 H6452 0.984 . S
N6446 H6453 0.984 . S
N6447 C6440 1.356 . S
N6447 H6450 0.984 . S
N6447 H6451 0.985 . S
H6448 N6443 0.984 . S
H6449 N6443 0.985 . S
H6450 N6447 0.984 . S
H6451 N6447 0.985 . S
H6452 N6446 0.984 . S
H6453 N6446 0.984 . S
H6454 N6442 0.984 . S
H6455 N6442 0.985 . S
C6456 C6457 1.363 . S
C6456 C6462 1.379 . S
C6456 N6464 1.356 . S
C6457 C6456 1.363 . S
C6457 C6463 1.363 . S
C6458 C6459 1.363 . S
C6458 C6463 1.379 . S
C6458 N6465 1.356 . S
C6459 C6458 1.363 . S
C6459 C6462 1.363 . S
N6460 C6462 1.356 . S
N6460 H6472 0.984 . S
N6460 H6473 0.985 . S
N6461 C6463 1.356 . S
N6461 H6466 0.984 . S
N6461 H6467 0.985 . S
C6462 C6456 1.379 . S
C6462 C6459 1.363 . S
C6462 N6460 1.356 . S
C6463 C6457 1.363 . S
C6463 C6458 1.379 . S
C6463 N6461 1.356 . S
N6464 C6456 1.356 . S
N6464 H6470 0.984 . S
N6464 H6471 0.984 . S
N6465 C6458 1.356 . S
N6465 H6468 0.984 . S
N6465 H6469 0.985 . S
H6466 N6461 0.984 . S
H6467 N6461 0.985 . S
H6468 N6465 0.984 . S
H6469 N6465 0.985 . S
H6470 N6464 0.984 . S
H6471 N6464 0.984 . S
H6472 N6460 0.984 . S
H6473 N6460 0.985 . S
C6474 C6475 1.363 . S
C6474 C6480 1.379 . S
C6474 N6482 1.356 . S
C6475 C6474 1.363 . S
C6475 C6481 1.363 . S
C6476 C6477 1.363 . S
C6476 C6481 1.379 . S
C6476 N6483 1.356 . S
C6477 C6476 1.363 . S
C6477 C6480 1.363 . S
N6478 C6480 1.356 . S
N6478 H6490 0.984 . S
N6478 H6491 0.985 . S
N6479 C6481 1.356 . S
N6479 H6484 0.984 . S
N6479 H6485 0.985 . S
C6480 C6474 1.379 . S
C6480 C6477 1.363 . S
C6480 N6478 1.356 . S
C6481 C6475 1.363 . S
C6481 C6476 1.379 . S
C6481 N6479 1.356 . S
N6482 C6474 1.356 . S
N6482 H6488 0.984 . S
N6482 H6489 0.984 . S
N6483 C6476 1.356 . S
N6483 H6486 0.984 . S
N6483 H6487 0.985 . S
H6484 N6479 0.984 . S
H6485 N6479 0.985 . S
H6486 N6483 0.984 . S
H6487 N6483 0.985 . S
H6488 N6482 0.984 . S
H6489 N6482 0.984 . S
H6490 N6478 0.984 . S
H6491 N6478 0.985 . S
C6492 C6493 1.363 . S
C6492 C6498 1.379 . S
C6492 N6500 1.356 . S
C6493 C6492 1.363 . S
C6493 C6499 1.363 . S
C6494 C6495 1.363 . S
C6494 C6499 1.379 . S
C6494 N6501 1.356 . S
C6495 C6494 1.363 . S
C6495 C6498 1.363 . S
N6496 C6498 1.356 . S
N6496 H6508 0.984 . S
N6496 H6509 0.985 . S
N6497 C6499 1.356 . S
N6497 H6502 0.984 . S
N6497 H6503 0.985 . S
C6498 C6492 1.379 . S
C6498 C6495 1.363 . S
C6498 N6496 1.356 . S
C6499 C6493 1.363 . S
C6499 C6494 1.379 . S
C6499 N6497 1.356 . S
N6500 C6492 1.356 . S
N6500 H6506 0.984 . S
N6500 H6507 0.984 . S
N6501 C6494 1.356 . S
N6501 H6504 0.984 . S
N6501 H6505 0.985 . S
H6502 N6497 0.984 . S
H6503 N6497 0.985 . S
H6504 N6501 0.984 . S
H6505 N6501 0.985 . S
H6506 N6500 0.984 . S
H6507 N6500 0.984 . S
H6508 N6496 0.984 . S
H6509 N6496 0.985 . S
C6510 C6511 1.363 . S
C6510 C6516 1.379 . S
C6510 N6518 1.356 . S
C6511 C6510 1.363 . S
C6511 C6517 1.363 . S
C6512 C6513 1.363 . S
C6512 C6517 1.379 . S
C6512 N6519 1.356 . S
C6513 C6512 1.363 . S
C6513 C6516 1.363 . S
N6514 C6516 1.356 . S
N6514 H6526 0.984 . S
N6514 H6527 0.985 . S
N6515 C6517 1.356 . S
N6515 H6520 0.984 . S
N6515 H6521 0.985 . S
C6516 C6510 1.379 . S
C6516 C6513 1.363 . S
C6516 N6514 1.356 . S
C6517 C6511 1.363 . S
C6517 C6512 1.379 . S
C6517 N6515 1.356 . S
N6518 C6510 1.356 . S
N6518 H6524 0.984 . S
N6518 H6525 0.984 . S
N6519 C6512 1.356 . S
N6519 H6522 0.984 . S
N6519 H6523 0.985 . S
H6520 N6515 0.984 . S
H6521 N6515 0.985 . S
H6522 N6519 0.984 . S
H6523 N6519 0.985 . S
H6524 N6518 0.984 . S
H6525 N6518 0.984 . S
H6526 N6514 0.984 . S
H6527 N6514 0.985 . S
C6528 C6529 1.363 . S
C6528 C6534 1.379 . S
C6528 N6536 1.356 . S
C6529 C6528 1.363 . S
C6529 C6535 1.363 . S
C6530 C6531 1.363 . S
C6530 C6535 1.379 . S
C6530 N6537 1.356 . S
C6531 C6530 1.363 . S
C6531 C6534 1.363 . S
N6532 C6534 1.356 . S
N6532 H6544 0.984 . S
N6532 H6545 0.985 . S
N6533 C6535 1.356 . S
N6533 H6538 0.984 . S
N6533 H6539 0.985 . S
C6534 C6528 1.379 . S
C6534 C6531 1.363 . S
C6534 N6532 1.356 . S
C6535 C6529 1.363 . S
C6535 C6530 1.379 . S
C6535 N6533 1.356 . S
N6536 C6528 1.356 . S
N6536 H6542 0.984 . S
N6536 H6543 0.984 . S
N6537 C6530 1.356 . S
N6537 H6540 0.984 . S
N6537 H6541 0.985 . S
H6538 N6533 0.984 . S
H6539 N6533 0.985 . S
H6540 N6537 0.984 . S
H6541 N6537 0.985 . S
H6542 N6536 0.984 . S
H6543 N6536 0.984 . S
H6544 N6532 0.984 . S
H6545 N6532 0.985 . S
C6546 C6547 1.363 . S
C6546 C6552 1.379 . S
C6546 N6554 1.356 . S
C6547 C6546 1.363 . S
C6547 C6553 1.363 . S
C6548 C6549 1.363 . S
C6548 C6553 1.379 . S
C6548 N6555 1.356 . S
C6549 C6548 1.363 . S
C6549 C6552 1.363 . S
N6550 C6552 1.356 . S
N6550 H6562 0.984 . S
N6550 H6563 0.985 . S
N6551 C6553 1.356 . S
N6551 H6556 0.984 . S
N6551 H6557 0.985 . S
C6552 C6546 1.379 . S
C6552 C6549 1.363 . S
C6552 N6550 1.356 . S
C6553 C6547 1.363 . S
C6553 C6548 1.379 . S
C6553 N6551 1.356 . S
N6554 C6546 1.356 . S
N6554 H6560 0.984 . S
N6554 H6561 0.984 . S
N6555 C6548 1.356 . S
N6555 H6558 0.984 . S
N6555 H6559 0.985 . S
H6556 N6551 0.984 . S
H6557 N6551 0.985 . S
H6558 N6555 0.984 . S
H6559 N6555 0.985 . S
H6560 N6554 0.984 . S
H6561 N6554 0.984 . S
H6562 N6550 0.984 . S
H6563 N6550 0.985 . S
C6564 C6565 1.363 . S
C6564 C6570 1.379 . S
C6564 N6572 1.356 . S
C6565 C6564 1.363 . S
C6565 C6571 1.363 . S
C6566 C6567 1.363 . S
C6566 C6571 1.379 . S
C6566 N6573 1.356 1_655 S
C6567 C6566 1.363 . S
C6567 C6570 1.363 . S
N6568 C6570 1.356 . S
N6568 H6580 0.984 . S
N6568 H6581 0.985 1_655 S
N6569 C6571 1.356 . S
N6569 H6574 0.984 . S
N6569 H6575 0.985 . S
C6570 C6564 1.379 . S
C6570 C6567 1.363 . S
C6570 N6568 1.356 . S
C6571 C6565 1.363 . S
C6571 C6566 1.379 . S
C6571 N6569 1.356 . S
N6572 C6564 1.356 . S
N6572 H6578 0.984 . S
N6572 H6579 0.984 . S
N6573 C6566 1.356 1_455 S
N6573 H6576 0.984 . S
N6573 H6577 0.985 . S
H6574 N6569 0.984 . S
H6575 N6569 0.985 . S
H6576 N6573 0.984 . S
H6577 N6573 0.985 . S
H6578 N6572 0.984 . S
H6579 N6572 0.984 . S
H6580 N6568 0.984 . S
H6581 N6568 0.985 1_455 S
C6582 C6583 1.363 . S
C6582 C6588 1.379 . S
C6582 N6590 1.356 . S
C6583 C6582 1.363 . S
C6583 C6589 1.363 . S
C6584 C6585 1.363 . S
C6584 C6589 1.379 . S
C6584 N6591 1.356 . S
C6585 C6584 1.363 . S
C6585 C6588 1.363 . S
N6586 C6588 1.356 . S
N6586 H6598 0.984 . S
N6586 H6599 0.985 . S
N6587 C6589 1.356 . S
N6587 H6592 0.984 . S
N6587 H6593 0.985 . S
C6588 C6582 1.379 . S
C6588 C6585 1.363 . S
C6588 N6586 1.356 . S
C6589 C6583 1.363 . S
C6589 C6584 1.379 . S
C6589 N6587 1.356 . S
N6590 C6582 1.356 . S
N6590 H6596 0.984 . S
N6590 H6597 0.984 . S
N6591 C6584 1.356 . S
N6591 H6594 0.984 . S
N6591 H6595 0.985 . S
H6592 N6587 0.984 . S
H6593 N6587 0.985 . S
H6594 N6591 0.984 . S
H6595 N6591 0.985 . S
H6596 N6590 0.984 . S
H6597 N6590 0.984 . S
H6598 N6586 0.984 . S
H6599 N6586 0.985 . S
C6600 C6601 1.363 . S
C6600 C6606 1.379 . S
C6600 N6608 1.356 . S
C6601 C6600 1.363 . S
C6601 C6607 1.363 . S
C6602 C6603 1.363 . S
C6602 C6607 1.379 . S
C6602 N6609 1.356 . S
C6603 C6602 1.363 . S
C6603 C6606 1.363 . S
N6604 C6606 1.356 . S
N6604 H6616 0.984 . S
N6604 H6617 0.985 . S
N6605 C6607 1.356 . S
N6605 H6610 0.984 . S
N6605 H6611 0.985 . S
C6606 C6600 1.379 . S
C6606 C6603 1.363 . S
C6606 N6604 1.356 . S
C6607 C6601 1.363 . S
C6607 C6602 1.379 . S
C6607 N6605 1.356 . S
N6608 C6600 1.356 . S
N6608 H6614 0.984 . S
N6608 H6615 0.984 . S
N6609 C6602 1.356 . S
N6609 H6612 0.984 . S
N6609 H6613 0.985 . S
H6610 N6605 0.984 . S
H6611 N6605 0.985 . S
H6612 N6609 0.984 . S
H6613 N6609 0.985 . S
H6614 N6608 0.984 . S
H6615 N6608 0.984 . S
H6616 N6604 0.984 . S
H6617 N6604 0.985 . S
C6618 C6619 1.363 . S
C6618 C6624 1.379 . S
C6618 N6626 1.356 . S
C6619 C6618 1.363 . S
C6619 C6625 1.363 . S
C6620 C6621 1.363 . S
C6620 C6625 1.379 . S
C6620 N6627 1.356 . S
C6621 C6620 1.363 . S
C6621 C6624 1.363 . S
N6622 C6624 1.356 . S
N6622 H6634 0.984 . S
N6622 H6635 0.985 . S
N6623 C6625 1.356 . S
N6623 H6628 0.984 . S
N6623 H6629 0.985 . S
C6624 C6618 1.379 . S
C6624 C6621 1.363 . S
C6624 N6622 1.356 . S
C6625 C6619 1.363 . S
C6625 C6620 1.379 . S
C6625 N6623 1.356 . S
N6626 C6618 1.356 . S
N6626 H6632 0.984 . S
N6626 H6633 0.984 . S
N6627 C6620 1.356 . S
N6627 H6630 0.984 . S
N6627 H6631 0.985 . S
H6628 N6623 0.984 . S
H6629 N6623 0.985 . S
H6630 N6627 0.984 . S
H6631 N6627 0.985 . S
H6632 N6626 0.984 . S
H6633 N6626 0.984 . S
H6634 N6622 0.984 . S
H6635 N6622 0.985 . S
C6636 C6637 1.363 . S
C6636 C6642 1.379 . S
C6636 N6644 1.356 . S
C6637 C6636 1.363 . S
C6637 C6643 1.363 . S
C6638 C6639 1.363 . S
C6638 C6643 1.379 . S
C6638 N6645 1.356 . S
C6639 C6638 1.363 . S
C6639 C6642 1.363 . S
N6640 C6642 1.356 1_455 S
N6640 H6652 0.984 . S
N6640 H6653 0.985 . S
N6641 C6643 1.356 . S
N6641 H6646 0.984 . S
N6641 H6647 0.985 . S
C6642 C6636 1.379 . S
C6642 C6639 1.363 . S
C6642 N6640 1.356 1_655 S
C6643 C6637 1.363 . S
C6643 C6638 1.379 . S
C6643 N6641 1.356 . S
N6644 C6636 1.356 . S
N6644 H6650 0.984 . S
N6644 H6651 0.984 . S
N6645 C6638 1.356 . S
N6645 H6648 0.984 1_655 S
N6645 H6649 0.985 . S
H6646 N6641 0.984 . S
H6647 N6641 0.985 . S
H6648 N6645 0.984 1_455 S
H6649 N6645 0.985 . S
H6650 N6644 0.984 . S
H6651 N6644 0.984 . S
H6652 N6640 0.984 . S
H6653 N6640 0.985 . S
C6654 C6655 1.363 . S
C6654 C6660 1.379 . S
C6654 N6662 1.356 . S
C6655 C6654 1.363 . S
C6655 C6661 1.363 . S
C6656 C6657 1.363 . S
C6656 C6661 1.379 . S
C6656 N6663 1.356 . S
C6657 C6656 1.363 . S
C6657 C6660 1.363 . S
N6658 C6660 1.356 . S
N6658 H6670 0.984 . S
N6658 H6671 0.985 . S
N6659 C6661 1.356 . S
N6659 H6664 0.984 . S
N6659 H6665 0.985 . S
C6660 C6654 1.379 . S
C6660 C6657 1.363 . S
C6660 N6658 1.356 . S
C6661 C6655 1.363 . S
C6661 C6656 1.379 . S
C6661 N6659 1.356 . S
N6662 C6654 1.356 . S
N6662 H6668 0.984 . S
N6662 H6669 0.984 . S
N6663 C6656 1.356 . S
N6663 H6666 0.984 . S
N6663 H6667 0.985 . S
H6664 N6659 0.984 . S
H6665 N6659 0.985 . S
H6666 N6663 0.984 . S
H6667 N6663 0.985 . S
H6668 N6662 0.984 . S
H6669 N6662 0.984 . S
H6670 N6658 0.984 . S
H6671 N6658 0.985 . S
C6672 C6673 1.363 . S
C6672 C6678 1.379 . S
C6672 N6680 1.356 . S
C6673 C6672 1.363 . S
C6673 C6679 1.363 . S
C6674 C6675 1.363 . S
C6674 C6679 1.379 . S
C6674 N6681 1.356 . S
C6675 C6674 1.363 . S
C6675 C6678 1.363 . S
N6676 C6678 1.356 . S
N6676 H6688 0.984 . S
N6676 H6689 0.985 . S
N6677 C6679 1.356 . S
N6677 H6682 0.984 . S
N6677 H6683 0.985 . S
C6678 C6672 1.379 . S
C6678 C6675 1.363 . S
C6678 N6676 1.356 . S
C6679 C6673 1.363 . S
C6679 C6674 1.379 . S
C6679 N6677 1.356 . S
N6680 C6672 1.356 . S
N6680 H6686 0.984 . S
N6680 H6687 0.984 . S
N6681 C6674 1.356 . S
N6681 H6684 0.984 . S
N6681 H6685 0.985 . S
H6682 N6677 0.984 . S
H6683 N6677 0.985 . S
H6684 N6681 0.984 . S
H6685 N6681 0.985 . S
H6686 N6680 0.984 . S
H6687 N6680 0.984 . S
H6688 N6676 0.984 . S
H6689 N6676 0.985 . S
C6690 C6691 1.363 . S
C6690 C6696 1.379 . S
C6690 N6698 1.356 . S
C6691 C6690 1.363 . S
C6691 C6697 1.363 . S
C6692 C6693 1.363 . S
C6692 C6697 1.379 . S
C6692 N6699 1.356 . S
C6693 C6692 1.363 . S
C6693 C6696 1.363 . S
N6694 C6696 1.356 . S
N6694 H6706 0.984 . S
N6694 H6707 0.985 . S
N6695 C6697 1.356 . S
N6695 H6700 0.984 . S
N6695 H6701 0.985 . S
C6696 C6690 1.379 . S
C6696 C6693 1.363 . S
C6696 N6694 1.356 . S
C6697 C6691 1.363 . S
C6697 C6692 1.379 . S
C6697 N6695 1.356 . S
N6698 C6690 1.356 . S
N6698 H6704 0.984 . S
N6698 H6705 0.984 . S
N6699 C6692 1.356 . S
N6699 H6702 0.984 . S
N6699 H6703 0.985 . S
H6700 N6695 0.984 . S
H6701 N6695 0.985 . S
H6702 N6699 0.984 . S
H6703 N6699 0.985 . S
H6704 N6698 0.984 . S
H6705 N6698 0.984 . S
H6706 N6694 0.984 . S
H6707 N6694 0.985 . S
C6708 C6709 1.363 . S
C6708 C6714 1.379 . S
C6708 N6716 1.356 . S
C6709 C6708 1.363 . S
C6709 C6715 1.363 . S
C6710 C6711 1.363 . S
C6710 C6715 1.379 . S
C6710 N6717 1.356 . S
C6711 C6710 1.363 . S
C6711 C6714 1.363 . S
N6712 C6714 1.356 . S
N6712 H6724 0.984 . S
N6712 H6725 0.985 . S
N6713 C6715 1.356 . S
N6713 H6718 0.984 . S
N6713 H6719 0.985 . S
C6714 C6708 1.379 . S
C6714 C6711 1.363 . S
C6714 N6712 1.356 . S
C6715 C6709 1.363 . S
C6715 C6710 1.379 . S
C6715 N6713 1.356 . S
N6716 C6708 1.356 . S
N6716 H6722 0.984 . S
N6716 H6723 0.984 . S
N6717 C6710 1.356 . S
N6717 H6720 0.984 . S
N6717 H6721 0.985 . S
H6718 N6713 0.984 . S
H6719 N6713 0.985 . S
H6720 N6717 0.984 . S
H6721 N6717 0.985 . S
H6722 N6716 0.984 . S
H6723 N6716 0.984 . S
H6724 N6712 0.984 . S
H6725 N6712 0.985 . S
C6726 C6727 1.363 . S
C6726 C6732 1.379 . S
C6726 N6734 1.356 . S
C6727 C6726 1.363 . S
C6727 C6733 1.363 . S
C6728 C6729 1.363 . S
C6728 C6733 1.379 . S
C6728 N6735 1.356 . S
C6729 C6728 1.363 . S
C6729 C6732 1.363 . S
N6730 C6732 1.356 . S
N6730 H6742 0.984 . S
N6730 H6743 0.985 . S
N6731 C6733 1.356 . S
N6731 H6736 0.984 . S
N6731 H6737 0.985 . S
C6732 C6726 1.379 . S
C6732 C6729 1.363 . S
C6732 N6730 1.356 . S
C6733 C6727 1.363 . S
C6733 C6728 1.379 . S
C6733 N6731 1.356 . S
N6734 C6726 1.356 . S
N6734 H6740 0.984 . S
N6734 H6741 0.984 . S
N6735 C6728 1.356 . S
N6735 H6738 0.984 . S
N6735 H6739 0.985 . S
H6736 N6731 0.984 . S
H6737 N6731 0.985 . S
H6738 N6735 0.984 . S
H6739 N6735 0.985 . S
H6740 N6734 0.984 . S
H6741 N6734 0.984 . S
H6742 N6730 0.984 . S
H6743 N6730 0.985 . S
C6744 C6745 1.363 . S
C6744 C6750 1.379 . S
C6744 N6752 1.356 . S
C6745 C6744 1.363 . S
C6745 C6751 1.363 . S
C6746 C6747 1.363 . S
C6746 C6751 1.379 . S
C6746 N6753 1.356 . S
C6747 C6746 1.363 . S
C6747 C6750 1.363 . S
N6748 C6750 1.356 . S
N6748 H6760 0.984 . S
N6748 H6761 0.985 . S
N6749 C6751 1.356 . S
N6749 H6754 0.984 . S
N6749 H6755 0.985 . S
C6750 C6744 1.379 . S
C6750 C6747 1.363 . S
C6750 N6748 1.356 . S
C6751 C6745 1.363 . S
C6751 C6746 1.379 . S
C6751 N6749 1.356 . S
N6752 C6744 1.356 . S
N6752 H6758 0.984 . S
N6752 H6759 0.984 . S
N6753 C6746 1.356 . S
N6753 H6756 0.984 . S
N6753 H6757 0.985 . S
H6754 N6749 0.984 . S
H6755 N6749 0.985 . S
H6756 N6753 0.984 . S
H6757 N6753 0.985 . S
H6758 N6752 0.984 . S
H6759 N6752 0.984 . S
H6760 N6748 0.984 . S
H6761 N6748 0.985 . S
C6762 C6763 1.363 . S
C6762 C6768 1.379 . S
C6762 N6770 1.356 . S
C6763 C6762 1.363 . S
C6763 C6769 1.363 . S
C6764 C6765 1.363 . S
C6764 C6769 1.379 . S
C6764 N6771 1.356 . S
C6765 C6764 1.363 . S
C6765 C6768 1.363 . S
N6766 C6768 1.356 . S
N6766 H6778 0.984 . S
N6766 H6779 0.985 . S
N6767 C6769 1.356 . S
N6767 H6772 0.984 . S
N6767 H6773 0.985 . S
C6768 C6762 1.379 . S
C6768 C6765 1.363 . S
C6768 N6766 1.356 . S
C6769 C6763 1.363 . S
C6769 C6764 1.379 . S
C6769 N6767 1.356 . S
N6770 C6762 1.356 . S
N6770 H6776 0.984 . S
N6770 H6777 0.984 . S
N6771 C6764 1.356 . S
N6771 H6774 0.984 . S
N6771 H6775 0.985 . S
H6772 N6767 0.984 . S
H6773 N6767 0.985 . S
H6774 N6771 0.984 . S
H6775 N6771 0.985 . S
H6776 N6770 0.984 . S
H6777 N6770 0.984 . S
H6778 N6766 0.984 . S
H6779 N6766 0.985 . S
C6780 C6781 1.363 . S
C6780 C6786 1.379 . S
C6780 N6788 1.356 . S
C6781 C6780 1.363 . S
C6781 C6787 1.363 . S
C6782 C6783 1.363 . S
C6782 C6787 1.379 . S
C6782 N6789 1.356 . S
C6783 C6782 1.363 . S
C6783 C6786 1.363 . S
N6784 C6786 1.356 . S
N6784 H6796 0.984 . S
N6784 H6797 0.985 . S
N6785 C6787 1.356 . S
N6785 H6790 0.984 . S
N6785 H6791 0.985 . S
C6786 C6780 1.379 . S
C6786 C6783 1.363 . S
C6786 N6784 1.356 . S
C6787 C6781 1.363 . S
C6787 C6782 1.379 . S
C6787 N6785 1.356 . S
N6788 C6780 1.356 . S
N6788 H6794 0.984 . S
N6788 H6795 0.984 . S
N6789 C6782 1.356 . S
N6789 H6792 0.984 . S
N6789 H6793 0.985 . S
H6790 N6785 0.984 . S
H6791 N6785 0.985 . S
H6792 N6789 0.984 . S
H6793 N6789 0.985 . S
H6794 N6788 0.984 . S
H6795 N6788 0.984 . S
H6796 N6784 0.984 . S
H6797 N6784 0.985 . S
C6798 C6799 1.363 . S
C6798 C6804 1.379 . S
C6798 N6806 1.356 . S
C6799 C6798 1.363 . S
C6799 C6805 1.363 . S
C6800 C6801 1.363 . S
C6800 C6805 1.379 . S
C6800 N6807 1.356 . S
C6801 C6800 1.363 . S
C6801 C6804 1.363 . S
N6802 C6804 1.356 . S
N6802 H6814 0.984 . S
N6802 H6815 0.985 . S
N6803 C6805 1.356 . S
N6803 H6808 0.984 . S
N6803 H6809 0.985 . S
C6804 C6798 1.379 . S
C6804 C6801 1.363 . S
C6804 N6802 1.356 . S
C6805 C6799 1.363 . S
C6805 C6800 1.379 . S
C6805 N6803 1.356 . S
N6806 C6798 1.356 . S
N6806 H6812 0.984 . S
N6806 H6813 0.984 . S
N6807 C6800 1.356 . S
N6807 H6810 0.984 . S
N6807 H6811 0.985 . S
H6808 N6803 0.984 . S
H6809 N6803 0.985 . S
H6810 N6807 0.984 . S
H6811 N6807 0.985 . S
H6812 N6806 0.984 . S
H6813 N6806 0.984 . S
H6814 N6802 0.984 . S
H6815 N6802 0.985 . S
C6816 C6817 1.363 . S
C6816 C6822 1.379 . S
C6816 N6824 1.356 . S
C6817 C6816 1.363 . S
C6817 C6823 1.363 . S
C6818 C6819 1.363 . S
C6818 C6823 1.379 . S
C6818 N6825 1.356 . S
C6819 C6818 1.363 . S
C6819 C6822 1.363 . S
N6820 C6822 1.356 . S
N6820 H6832 0.984 . S
N6820 H6833 0.985 . S
N6821 C6823 1.356 . S
N6821 H6826 0.984 . S
N6821 H6827 0.985 . S
C6822 C6816 1.379 . S
C6822 C6819 1.363 . S
C6822 N6820 1.356 . S
C6823 C6817 1.363 . S
C6823 C6818 1.379 . S
C6823 N6821 1.356 . S
N6824 C6816 1.356 . S
N6824 H6830 0.984 . S
N6824 H6831 0.984 . S
N6825 C6818 1.356 . S
N6825 H6828 0.984 . S
N6825 H6829 0.985 . S
H6826 N6821 0.984 . S
H6827 N6821 0.985 . S
H6828 N6825 0.984 . S
H6829 N6825 0.985 . S
H6830 N6824 0.984 . S
H6831 N6824 0.984 . S
H6832 N6820 0.984 . S
H6833 N6820 0.985 . S
C6834 C6835 1.363 . S
C6834 C6840 1.379 . S
C6834 N6842 1.356 . S
C6835 C6834 1.363 . S
C6835 C6841 1.363 . S
C6836 C6837 1.363 . S
C6836 C6841 1.379 . S
C6836 N6843 1.356 . S
C6837 C6836 1.363 . S
C6837 C6840 1.363 . S
N6838 C6840 1.356 . S
N6838 H6850 0.984 . S
N6838 H6851 0.985 . S
N6839 C6841 1.356 . S
N6839 H6844 0.984 . S
N6839 H6845 0.985 . S
C6840 C6834 1.379 . S
C6840 C6837 1.363 . S
C6840 N6838 1.356 . S
C6841 C6835 1.363 . S
C6841 C6836 1.379 . S
C6841 N6839 1.356 . S
N6842 C6834 1.356 . S
N6842 H6848 0.984 . S
N6842 H6849 0.984 . S
N6843 C6836 1.356 . S
N6843 H6846 0.984 . S
N6843 H6847 0.985 . S
H6844 N6839 0.984 . S
H6845 N6839 0.985 . S
H6846 N6843 0.984 . S
H6847 N6843 0.985 . S
H6848 N6842 0.984 . S
H6849 N6842 0.984 . S
H6850 N6838 0.984 . S
H6851 N6838 0.985 . S
C6852 C6853 1.363 . S
C6852 C6858 1.379 . S
C6852 N6860 1.356 . S
C6853 C6852 1.363 . S
C6853 C6859 1.363 . S
C6854 C6855 1.363 . S
C6854 C6859 1.379 . S
C6854 N6861 1.356 . S
C6855 C6854 1.363 . S
C6855 C6858 1.363 . S
N6856 C6858 1.356 . S
N6856 H6868 0.984 . S
N6856 H6869 0.985 . S
N6857 C6859 1.356 . S
N6857 H6862 0.984 . S
N6857 H6863 0.985 . S
C6858 C6852 1.379 . S
C6858 C6855 1.363 . S
C6858 N6856 1.356 . S
C6859 C6853 1.363 . S
C6859 C6854 1.379 . S
C6859 N6857 1.356 . S
N6860 C6852 1.356 . S
N6860 H6866 0.984 . S
N6860 H6867 0.984 . S
N6861 C6854 1.356 . S
N6861 H6864 0.984 . S
N6861 H6865 0.985 . S
H6862 N6857 0.984 . S
H6863 N6857 0.985 . S
H6864 N6861 0.984 . S
H6865 N6861 0.985 . S
H6866 N6860 0.984 . S
H6867 N6860 0.984 . S
H6868 N6856 0.984 . S
H6869 N6856 0.985 . S
C6870 C6871 1.363 . S
C6870 C6876 1.379 . S
C6870 N6878 1.356 . S
C6871 C6870 1.363 . S
C6871 C6877 1.363 . S
C6872 C6873 1.363 . S
C6872 C6877 1.379 . S
C6872 N6879 1.391 . S
C6873 C6872 1.363 . S
C6873 C6876 1.363 . S
N6874 C6876 1.282 1_554 S
N6874 H6886 0.974 1_554 S
N6874 H6887 1.078 . S
N6875 C6877 1.356 . S
N6875 H6880 0.984 . S
N6875 H6881 0.985 . S
C6876 C6870 1.379 . S
C6876 C6873 1.363 . S
C6876 N6874 1.282 1_556 S
C6877 C6871 1.363 . S
C6877 C6872 1.379 . S
C6877 N6875 1.356 . S
N6878 C6870 1.356 . S
N6878 H6884 0.984 . S
N6878 H6885 0.984 . S
N6879 C6872 1.391 . S
N6879 H6882 0.937 1_556 S
N6879 H6883 0.999 . S
H6880 N6875 0.984 . S
H6881 N6875 0.985 . S
H6882 N6879 0.937 1_554 S
H6883 N6879 0.999 . S
H6884 N6878 0.984 . S
H6885 N6878 0.984 . S
H6886 N6874 0.974 1_556 S
H6887 N6874 1.078 . S
C6888 C6889 1.363 . S
C6888 C6894 1.379 . S
C6888 N6896 1.356 . S
C6889 C6888 1.363 . S
C6889 C6895 1.363 . S
C6890 C6891 1.363 . S
C6890 C6895 1.379 . S
C6890 N6897 1.356 . S
C6891 C6890 1.363 . S
C6891 C6894 1.363 . S
N6892 C6894 1.356 . S
N6892 H6904 0.984 . S
N6892 H6905 0.985 . S
N6893 C6895 1.356 . S
N6893 H6898 0.984 . S
N6893 H6899 0.985 . S
C6894 C6888 1.379 . S
C6894 C6891 1.363 . S
C6894 N6892 1.356 . S
C6895 C6889 1.363 . S
C6895 C6890 1.379 . S
C6895 N6893 1.356 . S
N6896 C6888 1.356 . S
N6896 H6902 0.984 . S
N6896 H6903 0.984 . S
N6897 C6890 1.356 . S
N6897 H6900 0.984 . S
N6897 H6901 0.985 . S
H6898 N6893 0.984 . S
H6899 N6893 0.985 . S
H6900 N6897 0.984 . S
H6901 N6897 0.985 . S
H6902 N6896 0.984 . S
H6903 N6896 0.984 . S
H6904 N6892 0.984 . S
H6905 N6892 0.985 . S
C6906 C6907 1.363 . S
C6906 C6912 1.379 . S
C6906 N6914 1.356 . S
C6907 C6906 1.363 . S
C6907 C6913 1.363 . S
C6908 C6909 1.363 . S
C6908 C6913 1.379 . S
C6908 N6915 1.436 . S
C6909 C6908 1.363 . S
C6909 C6912 1.363 . S
N6910 C6912 1.356 1_556 S
N6910 H6922 0.994 . S
N6910 H6923 0.985 . S
N6911 C6913 1.356 . S
N6911 H6916 0.984 . S
N6911 H6917 0.985 . S
C6912 C6906 1.379 . S
C6912 C6909 1.363 . S
C6912 N6910 1.356 1_554 S
C6913 C6907 1.363 . S
C6913 C6908 1.379 . S
C6913 N6911 1.356 . S
N6914 C6906 1.356 . S
N6914 H6920 0.984 . S
N6914 H6921 0.984 . S
N6915 C6908 1.436 . S
N6915 H6918 0.876 1_554 S
N6915 H6919 1.025 . S
H6916 N6911 0.984 . S
H6917 N6911 0.985 . S
H6918 N6915 0.876 1_556 S
H6919 N6915 1.025 . S
H6920 N6914 0.984 . S
H6921 N6914 0.984 . S
H6922 N6910 0.994 . S
H6923 N6910 0.985 . S
C6924 C6925 1.363 . S
C6924 C6930 1.379 . S
C6924 N6932 1.356 . S
C6925 C6924 1.363 . S
C6925 C6931 1.363 . S
C6926 C6927 1.363 . S
C6926 C6931 1.379 . S
C6926 N6933 1.356 . S
C6927 C6926 1.363 . S
C6927 C6930 1.363 . S
N6928 C6930 1.356 . S
N6928 H6940 0.984 . S
N6928 H6941 0.985 . S
N6929 C6931 1.356 . S
N6929 H6934 0.984 . S
N6929 H6935 0.985 . S
C6930 C6924 1.379 . S
C6930 C6927 1.363 . S
C6930 N6928 1.356 . S
C6931 C6925 1.363 . S
C6931 C6926 1.379 . S
C6931 N6929 1.356 . S
N6932 C6924 1.356 . S
N6932 H6938 0.984 . S
N6932 H6939 0.984 . S
N6933 C6926 1.356 . S
N6933 H6936 0.984 . S
N6933 H6937 0.985 . S
H6934 N6929 0.984 . S
H6935 N6929 0.985 . S
H6936 N6933 0.984 . S
H6937 N6933 0.985 . S
H6938 N6932 0.984 . S
H6939 N6932 0.984 . S
H6940 N6928 0.984 . S
H6941 N6928 0.985 . S
C6942 C6943 1.363 . S
C6942 C6948 1.379 . S
C6942 N6950 1.356 . S
C6943 C6942 1.363 . S
C6943 C6949 1.363 . S
C6944 C6945 1.363 . S
C6944 C6949 1.379 . S
C6944 N6951 1.356 . S
C6945 C6944 1.363 . S
C6945 C6948 1.363 . S
N6946 C6948 1.356 . S
N6946 H6958 0.984 . S
N6946 H6959 0.985 . S
N6947 C6949 1.356 . S
N6947 H6952 0.984 . S
N6947 H6953 0.985 . S
C6948 C6942 1.379 . S
C6948 C6945 1.363 . S
C6948 N6946 1.356 . S
C6949 C6943 1.363 . S
C6949 C6944 1.379 . S
C6949 N6947 1.356 . S
N6950 C6942 1.356 . S
N6950 H6956 0.984 . S
N6950 H6957 0.984 . S
N6951 C6944 1.356 . S
N6951 H6954 0.984 . S
N6951 H6955 0.985 . S
H6952 N6947 0.984 . S
H6953 N6947 0.985 . S
H6954 N6951 0.984 . S
H6955 N6951 0.985 . S
H6956 N6950 0.984 . S
H6957 N6950 0.984 . S
H6958 N6946 0.984 . S
H6959 N6946 0.985 . S
C6960 C6961 1.363 . S
C6960 C6966 1.379 . S
C6960 N6968 1.356 . S
C6961 C6960 1.363 . S
C6961 C6967 1.363 . S
C6962 C6963 1.363 . S
C6962 C6967 1.379 . S
C6962 N6969 1.356 . S
C6963 C6962 1.363 . S
C6963 C6966 1.363 . S
N6964 C6966 1.356 . S
N6964 H6976 0.984 . S
N6964 H6977 0.985 . S
N6965 C6967 1.356 . S
N6965 H6970 0.984 . S
N6965 H6971 0.985 . S
C6966 C6960 1.379 . S
C6966 C6963 1.363 . S
C6966 N6964 1.356 . S
C6967 C6961 1.363 . S
C6967 C6962 1.379 . S
C6967 N6965 1.356 . S
N6968 C6960 1.356 . S
N6968 H6974 0.984 . S
N6968 H6975 0.984 . S
N6969 C6962 1.356 . S
N6969 H6972 0.984 . S
N6969 H6973 0.985 . S
H6970 N6965 0.984 . S
H6971 N6965 0.985 . S
H6972 N6969 0.984 . S
H6973 N6969 0.985 . S
H6974 N6968 0.984 . S
H6975 N6968 0.984 . S
H6976 N6964 0.984 . S
H6977 N6964 0.985 . S
C6978 C6979 1.363 . S
C6978 C6984 1.379 . S
C6978 N6986 1.356 . S
C6979 C6978 1.363 . S
C6979 C6985 1.363 . S
C6980 C6981 1.363 . S
C6980 C6985 1.379 . S
C6980 N6987 1.356 . S
C6981 C6980 1.363 . S
C6981 C6984 1.363 . S
N6982 C6984 1.356 . S
N6982 H6994 0.984 . S
N6982 H6995 0.985 . S
N6983 C6985 1.356 . S
N6983 H6988 0.984 . S
N6983 H6989 0.985 . S
C6984 C6978 1.379 . S
C6984 C6981 1.363 . S
C6984 N6982 1.356 . S
C6985 C6979 1.363 . S
C6985 C6980 1.379 . S
C6985 N6983 1.356 . S
N6986 C6978 1.356 . S
N6986 H6992 0.984 . S
N6986 H6993 0.984 . S
N6987 C6980 1.356 . S
N6987 H6990 0.984 . S
N6987 H6991 0.985 . S
H6988 N6983 0.984 . S
H6989 N6983 0.985 . S
H6990 N6987 0.984 . S
H6991 N6987 0.985 . S
H6992 N6986 0.984 . S
H6993 N6986 0.984 . S
H6994 N6982 0.984 . S
H6995 N6982 0.985 . S
C6996 C6997 1.363 . S
C6996 C7002 1.379 . S
C6996 N7004 1.356 . S
C6997 C6996 1.363 . S
C6997 C7003 1.363 . S
C6998 C6999 1.363 . S
C6998 C7003 1.379 . S
C6998 N7005 1.356 . S
C6999 C6998 1.363 . S
C6999 C7002 1.363 . S
N7000 C7002 1.356 1_655 S
N7000 H7012 0.984 . S
N7000 H7013 0.985 . S
N7001 C7003 1.356 . S
N7001 H7006 0.984 . S
N7001 H7007 0.985 . S
C7002 C6996 1.379 . S
C7002 C6999 1.363 . S
C7002 N7000 1.356 1_455 S
C7003 C6997 1.363 . S
C7003 C6998 1.379 . S
C7003 N7001 1.356 . S
N7004 C6996 1.356 . S
N7004 H7010 0.984 . S
N7004 H7011 0.984 . S
N7005 C6998 1.356 . S
N7005 H7008 0.984 1_455 S
N7005 H7009 0.985 . S
H7006 N7001 0.984 . S
H7007 N7001 0.985 . S
H7008 N7005 0.984 1_655 S
H7009 N7005 0.985 . S
H7010 N7004 0.984 . S
H7011 N7004 0.984 . S
H7012 N7000 0.984 . S
H7013 N7000 0.985 . S
C7014 C7015 1.363 . S
C7014 C7020 1.379 . S
C7014 N7022 1.356 . S
C7015 C7014 1.363 . S
C7015 C7021 1.363 . S
C7016 C7017 1.363 . S
C7016 C7021 1.379 . S
C7016 N7023 1.356 . S
C7017 C7016 1.363 . S
C7017 C7020 1.363 . S
N7018 C7020 1.356 . S
N7018 H7030 0.984 . S
N7018 H7031 0.985 . S
N7019 C7021 1.356 . S
N7019 H7024 0.984 . S
N7019 H7025 0.985 . S
C7020 C7014 1.379 . S
C7020 C7017 1.363 . S
C7020 N7018 1.356 . S
C7021 C7015 1.363 . S
C7021 C7016 1.379 . S
C7021 N7019 1.356 . S
N7022 C7014 1.356 . S
N7022 H7028 0.984 . S
N7022 H7029 0.984 . S
N7023 C7016 1.356 . S
N7023 H7026 0.984 . S
N7023 H7027 0.985 . S
H7024 N7019 0.984 . S
H7025 N7019 0.985 . S
H7026 N7023 0.984 . S
H7027 N7023 0.985 . S
H7028 N7022 0.984 . S
H7029 N7022 0.984 . S
H7030 N7018 0.984 . S
H7031 N7018 0.985 . S
C7032 C7033 1.363 . S
C7032 C7038 1.379 . S
C7032 N7040 1.356 . S
C7033 C7032 1.363 . S
C7033 C7039 1.363 . S
C7034 C7035 1.363 . S
C7034 C7039 1.379 . S
C7034 N7041 1.356 . S
C7035 C7034 1.363 . S
C7035 C7038 1.363 . S
N7036 C7038 1.356 . S
N7036 H7048 0.984 . S
N7036 H7049 0.985 . S
N7037 C7039 1.356 . S
N7037 H7042 0.984 . S
N7037 H7043 0.985 . S
C7038 C7032 1.379 . S
C7038 C7035 1.363 . S
C7038 N7036 1.356 . S
C7039 C7033 1.363 . S
C7039 C7034 1.379 . S
C7039 N7037 1.356 . S
N7040 C7032 1.356 . S
N7040 H7046 0.984 . S
N7040 H7047 0.984 . S
N7041 C7034 1.356 . S
N7041 H7044 0.984 . S
N7041 H7045 0.985 . S
H7042 N7037 0.984 . S
H7043 N7037 0.985 . S
H7044 N7041 0.984 . S
H7045 N7041 0.985 . S
H7046 N7040 0.984 . S
H7047 N7040 0.984 . S
H7048 N7036 0.984 . S
H7049 N7036 0.985 . S
C7050 C7051 1.363 . S
C7050 C7056 1.379 . S
C7050 N7058 1.356 . S
C7051 C7050 1.363 . S
C7051 C7057 1.363 . S
C7052 C7053 1.363 . S
C7052 C7057 1.379 . S
C7052 N7059 1.356 . S
C7053 C7052 1.363 . S
C7053 C7056 1.363 . S
N7054 C7056 1.356 . S
N7054 H7066 0.984 . S
N7054 H7067 0.985 . S
N7055 C7057 1.356 . S
N7055 H7060 0.984 . S
N7055 H7061 0.985 . S
C7056 C7050 1.379 . S
C7056 C7053 1.363 . S
C7056 N7054 1.356 . S
C7057 C7051 1.363 . S
C7057 C7052 1.379 . S
C7057 N7055 1.356 . S
N7058 C7050 1.356 . S
N7058 H7064 0.984 . S
N7058 H7065 0.984 . S
N7059 C7052 1.356 . S
N7059 H7062 0.984 . S
N7059 H7063 0.985 . S
H7060 N7055 0.984 . S
H7061 N7055 0.985 . S
H7062 N7059 0.984 . S
H7063 N7059 0.985 . S
H7064 N7058 0.984 . S
H7065 N7058 0.984 . S
H7066 N7054 0.984 . S
H7067 N7054 0.985 . S
C7068 C7069 1.363 . S
C7068 C7074 1.379 . S
C7068 N7076 1.356 . S
C7069 C7068 1.363 . S
C7069 C7075 1.363 . S
C7070 C7071 1.363 . S
C7070 C7075 1.379 . S
C7070 N7077 1.356 . S
C7071 C7070 1.363 . S
C7071 C7074 1.363 . S
N7072 C7074 1.356 1_655 S
N7072 H7084 0.984 . S
N7072 H7085 0.985 . S
N7073 C7075 1.356 . S
N7073 H7078 0.984 . S
N7073 H7079 0.985 . S
C7074 C7068 1.379 . S
C7074 C7071 1.363 . S
C7074 N7072 1.356 1_455 S
C7075 C7069 1.363 . S
C7075 C7070 1.379 . S
C7075 N7073 1.356 . S
N7076 C7068 1.356 . S
N7076 H7082 0.984 . S
N7076 H7083 0.984 . S
N7077 C7070 1.356 . S
N7077 H7080 0.984 1_455 S
N7077 H7081 0.985 . S
H7078 N7073 0.984 . S
H7079 N7073 0.985 . S
H7080 N7077 0.984 1_655 S
H7081 N7077 0.985 . S
H7082 N7076 0.984 . S
H7083 N7076 0.984 . S
H7084 N7072 0.984 . S
H7085 N7072 0.985 . S
C7086 C7087 1.363 . S
C7086 C7092 1.379 . S
C7086 N7094 1.356 . S
C7087 C7086 1.363 . S
C7087 C7093 1.363 . S
C7088 C7089 1.363 . S
C7088 C7093 1.379 . S
C7088 N7095 1.356 . S
C7089 C7088 1.363 . S
C7089 C7092 1.363 . S
N7090 C7092 1.356 . S
N7090 H7102 0.984 . S
N7090 H7103 0.985 . S
N7091 C7093 1.356 . S
N7091 H7096 0.984 . S
N7091 H7097 0.985 . S
C7092 C7086 1.379 . S
C7092 C7089 1.363 . S
C7092 N7090 1.356 . S
C7093 C7087 1.363 . S
C7093 C7088 1.379 . S
C7093 N7091 1.356 . S
N7094 C7086 1.356 . S
N7094 H7100 0.984 . S
N7094 H7101 0.984 . S
N7095 C7088 1.356 . S
N7095 H7098 0.984 . S
N7095 H7099 0.985 . S
H7096 N7091 0.984 . S
H7097 N7091 0.985 . S
H7098 N7095 0.984 . S
H7099 N7095 0.985 . S
H7100 N7094 0.984 . S
H7101 N7094 0.984 . S
H7102 N7090 0.984 . S
H7103 N7090 0.985 . S
C7104 C7105 1.363 . S
C7104 C7110 1.379 . S
C7104 N7112 1.356 . S
C7105 C7104 1.363 . S
C7105 C7111 1.363 . S
C7106 C7107 1.363 . S
C7106 C7111 1.379 . S
C7106 N7113 1.356 . S
C7107 C7106 1.363 . S
C7107 C7110 1.363 . S
N7108 C7110 1.356 . S
N7108 H7120 0.984 . S
N7108 H7121 0.985 . S
N7109 C7111 1.356 . S
N7109 H7114 0.984 . S
N7109 H7115 0.985 . S
C7110 C7104 1.379 . S
C7110 C7107 1.363 . S
C7110 N7108 1.356 . S
C7111 C7105 1.363 . S
C7111 C7106 1.379 . S
C7111 N7109 1.356 . S
N7112 C7104 1.356 . S
N7112 H7118 0.984 . S
N7112 H7119 0.984 . S
N7113 C7106 1.356 . S
N7113 H7116 0.984 . S
N7113 H7117 0.985 . S
H7114 N7109 0.984 . S
H7115 N7109 0.985 . S
H7116 N7113 0.984 . S
H7117 N7113 0.985 . S
H7118 N7112 0.984 . S
H7119 N7112 0.984 . S
H7120 N7108 0.984 . S
H7121 N7108 0.985 . S
C7122 C7123 1.363 . S
C7122 C7128 1.379 . S
C7122 N7130 1.356 . S
C7123 C7122 1.363 . S
C7123 C7129 1.363 . S
C7124 C7125 1.363 . S
C7124 C7129 1.379 . S
C7124 N7131 1.356 . S
C7125 C7124 1.363 . S
C7125 C7128 1.363 . S
N7126 C7128 1.356 . S
N7126 H7138 0.984 . S
N7126 H7139 0.985 . S
N7127 C7129 1.356 . S
N7127 H7132 0.984 . S
N7127 H7133 0.985 . S
C7128 C7122 1.379 . S
C7128 C7125 1.363 . S
C7128 N7126 1.356 . S
C7129 C7123 1.363 . S
C7129 C7124 1.379 . S
C7129 N7127 1.356 . S
N7130 C7122 1.356 . S
N7130 H7136 0.984 . S
N7130 H7137 0.984 . S
N7131 C7124 1.356 . S
N7131 H7134 0.984 . S
N7131 H7135 0.985 . S
H7132 N7127 0.984 . S
H7133 N7127 0.985 . S
H7134 N7131 0.984 . S
H7135 N7131 0.985 . S
H7136 N7130 0.984 . S
H7137 N7130 0.984 . S
H7138 N7126 0.984 . S
H7139 N7126 0.985 . S
C7140 C7141 1.363 . S
C7140 C7146 1.379 . S
C7140 N7148 1.356 . S
C7141 C7140 1.363 . S
C7141 C7147 1.363 . S
C7142 C7143 1.363 . S
C7142 C7147 1.379 . S
C7142 N7149 1.356 . S
C7143 C7142 1.363 . S
C7143 C7146 1.363 . S
N7144 C7146 1.356 . S
N7144 H7156 0.984 . S
N7144 H7157 0.985 . S
N7145 C7147 1.356 . S
N7145 H7150 0.984 . S
N7145 H7151 0.985 . S
C7146 C7140 1.379 . S
C7146 C7143 1.363 . S
C7146 N7144 1.356 . S
C7147 C7141 1.363 . S
C7147 C7142 1.379 . S
C7147 N7145 1.356 . S
N7148 C7140 1.356 . S
N7148 H7154 0.984 . S
N7148 H7155 0.984 . S
N7149 C7142 1.356 . S
N7149 H7152 0.984 . S
N7149 H7153 0.985 . S
H7150 N7145 0.984 . S
H7151 N7145 0.985 . S
H7152 N7149 0.984 . S
H7153 N7149 0.985 . S
H7154 N7148 0.984 . S
H7155 N7148 0.984 . S
H7156 N7144 0.984 . S
H7157 N7144 0.985 . S
C7158 C7159 1.363 . S
C7158 C7164 1.379 . S
C7158 N7166 1.356 . S
C7159 C7158 1.363 . S
C7159 C7165 1.363 . S
C7160 C7161 1.363 . S
C7160 C7165 1.379 . S
C7160 N7167 1.356 . S
C7161 C7160 1.363 . S
C7161 C7164 1.363 . S
N7162 C7164 1.356 . S
N7162 H7174 0.984 . S
N7162 H7175 0.985 . S
N7163 C7165 1.356 . S
N7163 H7168 0.984 . S
N7163 H7169 0.985 . S
C7164 C7158 1.379 . S
C7164 C7161 1.363 . S
C7164 N7162 1.356 . S
C7165 C7159 1.363 . S
C7165 C7160 1.379 . S
C7165 N7163 1.356 . S
N7166 C7158 1.356 . S
N7166 H7172 0.984 . S
N7166 H7173 0.984 . S
N7167 C7160 1.356 . S
N7167 H7170 0.984 . S
N7167 H7171 0.985 . S
H7168 N7163 0.984 . S
H7169 N7163 0.985 . S
H7170 N7167 0.984 . S
H7171 N7167 0.985 . S
H7172 N7166 0.984 . S
H7173 N7166 0.984 . S
H7174 N7162 0.984 . S
H7175 N7162 0.985 . S
C7176 C7177 1.363 . S
C7176 C7182 1.379 . S
C7176 N7184 1.356 . S
C7177 C7176 1.363 . S
C7177 C7183 1.363 . S
C7178 C7179 1.363 . S
C7178 C7183 1.379 . S
C7178 N7185 1.356 . S
C7179 C7178 1.363 . S
C7179 C7182 1.363 . S
N7180 C7182 1.356 . S
N7180 H7192 0.984 . S
N7180 H7193 0.985 . S
N7181 C7183 1.356 . S
N7181 H7186 0.984 . S
N7181 H7187 0.985 . S
C7182 C7176 1.379 . S
C7182 C7179 1.363 . S
C7182 N7180 1.356 . S
C7183 C7177 1.363 . S
C7183 C7178 1.379 . S
C7183 N7181 1.356 . S
N7184 C7176 1.356 . S
N7184 H7190 0.984 . S
N7184 H7191 0.984 . S
N7185 C7178 1.356 . S
N7185 H7188 0.984 . S
N7185 H7189 0.985 . S
H7186 N7181 0.984 . S
H7187 N7181 0.985 . S
H7188 N7185 0.984 . S
H7189 N7185 0.985 . S
H7190 N7184 0.984 . S
H7191 N7184 0.984 . S
H7192 N7180 0.984 . S
H7193 N7180 0.985 . S
C7194 C7195 1.363 . S
C7194 C7200 1.379 . S
C7194 N7202 1.356 . S
C7195 C7194 1.363 . S
C7195 C7201 1.363 . S
C7196 C7197 1.363 . S
C7196 C7201 1.379 . S
C7196 N7203 1.356 . S
C7197 C7196 1.363 . S
C7197 C7200 1.363 . S
N7198 C7200 1.356 . S
N7198 H7210 0.984 . S
N7198 H7211 0.985 . S
N7199 C7201 1.356 . S
N7199 H7204 0.984 . S
N7199 H7205 0.985 . S
C7200 C7194 1.379 . S
C7200 C7197 1.363 . S
C7200 N7198 1.356 . S
C7201 C7195 1.363 . S
C7201 C7196 1.379 . S
C7201 N7199 1.356 . S
N7202 C7194 1.356 . S
N7202 H7208 0.984 . S
N7202 H7209 0.984 . S
N7203 C7196 1.356 . S
N7203 H7206 0.984 . S
N7203 H7207 0.985 . S
H7204 N7199 0.984 . S
H7205 N7199 0.985 . S
H7206 N7203 0.984 . S
H7207 N7203 0.985 . S
H7208 N7202 0.984 . S
H7209 N7202 0.984 . S
H7210 N7198 0.984 . S
H7211 N7198 0.985 . S
C7212 C7213 1.363 . S
C7212 C7218 1.379 . S
C7212 N7220 1.356 . S
C7213 C7212 1.363 . S
C7213 C7219 1.363 . S
C7214 C7215 1.363 . S
C7214 C7219 1.379 . S
C7214 N7221 1.356 . S
C7215 C7214 1.363 . S
C7215 C7218 1.363 . S
N7216 C7218 1.356 . S
N7216 H7228 0.984 . S
N7216 H7229 0.985 . S
N7217 C7219 1.356 . S
N7217 H7222 0.984 . S
N7217 H7223 0.985 . S
C7218 C7212 1.379 . S
C7218 C7215 1.363 . S
C7218 N7216 1.356 . S
C7219 C7213 1.363 . S
C7219 C7214 1.379 . S
C7219 N7217 1.356 . S
N7220 C7212 1.356 . S
N7220 H7226 0.984 . S
N7220 H7227 0.984 . S
N7221 C7214 1.356 . S
N7221 H7224 0.984 . S
N7221 H7225 0.985 . S
H7222 N7217 0.984 . S
H7223 N7217 0.985 . S
H7224 N7221 0.984 . S
H7225 N7221 0.985 . S
H7226 N7220 0.984 . S
H7227 N7220 0.984 . S
H7228 N7216 0.984 . S
H7229 N7216 0.985 . S
C7230 C7231 1.363 . S
C7230 C7236 1.379 . S
C7230 N7238 1.356 . S
C7231 C7230 1.363 . S
C7231 C7237 1.363 . S
C7232 C7233 1.363 . S
C7232 C7237 1.379 . S
C7232 N7239 1.356 . S
C7233 C7232 1.363 . S
C7233 C7236 1.363 . S
N7234 C7236 1.356 . S
N7234 H7246 0.984 . S
N7234 H7247 0.985 . S
N7235 C7237 1.356 . S
N7235 H7240 0.984 . S
N7235 H7241 0.985 . S
C7236 C7230 1.379 . S
C7236 C7233 1.363 . S
C7236 N7234 1.356 . S
C7237 C7231 1.363 . S
C7237 C7232 1.379 . S
C7237 N7235 1.356 . S
N7238 C7230 1.356 . S
N7238 H7244 0.984 . S
N7238 H7245 0.984 . S
N7239 C7232 1.356 . S
N7239 H7242 0.984 . S
N7239 H7243 0.985 . S
H7240 N7235 0.984 . S
H7241 N7235 0.985 . S
H7242 N7239 0.984 . S
H7243 N7239 0.985 . S
H7244 N7238 0.984 . S
H7245 N7238 0.984 . S
H7246 N7234 0.984 . S
H7247 N7234 0.985 . S
C7248 C7249 1.363 . S
C7248 C7254 1.379 . S
C7248 N7256 1.356 . S
C7249 C7248 1.363 . S
C7249 C7255 1.363 . S
C7250 C7251 1.363 . S
C7250 C7255 1.379 . S
C7250 N7257 1.356 . S
C7251 C7250 1.363 . S
C7251 C7254 1.363 . S
N7252 C7254 1.356 . S
N7252 H7264 0.984 . S
N7252 H7265 0.985 . S
N7253 C7255 1.356 . S
N7253 H7258 0.984 . S
N7253 H7259 0.985 . S
C7254 C7248 1.379 . S
C7254 C7251 1.363 . S
C7254 N7252 1.356 . S
C7255 C7249 1.363 . S
C7255 C7250 1.379 . S
C7255 N7253 1.356 . S
N7256 C7248 1.356 . S
N7256 H7262 0.984 . S
N7256 H7263 0.984 . S
N7257 C7250 1.356 . S
N7257 H7260 0.984 . S
N7257 H7261 0.985 . S
H7258 N7253 0.984 . S
H7259 N7253 0.985 . S
H7260 N7257 0.984 . S
H7261 N7257 0.985 . S
H7262 N7256 0.984 . S
H7263 N7256 0.984 . S
H7264 N7252 0.984 . S
H7265 N7252 0.985 . S
C7266 C7267 1.363 . S
C7266 C7272 1.379 . S
C7266 N7274 1.356 . S
C7267 C7266 1.363 . S
C7267 C7273 1.363 . S
C7268 C7269 1.363 . S
C7268 C7273 1.379 . S
C7268 N7275 1.356 . S
C7269 C7268 1.363 . S
C7269 C7272 1.363 . S
N7270 C7272 1.356 . S
N7270 H7282 0.984 . S
N7270 H7283 0.985 . S
N7271 C7273 1.356 . S
N7271 H7276 0.984 . S
N7271 H7277 0.985 . S
C7272 C7266 1.379 . S
C7272 C7269 1.363 . S
C7272 N7270 1.356 . S
C7273 C7267 1.363 . S
C7273 C7268 1.379 . S
C7273 N7271 1.356 . S
N7274 C7266 1.356 . S
N7274 H7280 0.984 . S
N7274 H7281 0.984 . S
N7275 C7268 1.356 . S
N7275 H7278 0.984 . S
N7275 H7279 0.985 . S
H7276 N7271 0.984 . S
H7277 N7271 0.985 . S
H7278 N7275 0.984 . S
H7279 N7275 0.985 . S
H7280 N7274 0.984 . S
H7281 N7274 0.984 . S
H7282 N7270 0.984 . S
H7283 N7270 0.985 . S
C7284 C7285 1.363 . S
C7284 C7290 1.379 . S
C7284 N7292 1.356 . S
C7285 C7284 1.363 . S
C7285 C7291 1.363 . S
C7286 C7287 1.363 . S
C7286 C7291 1.379 . S
C7286 N7293 1.356 . S
C7287 C7286 1.363 . S
C7287 C7290 1.363 . S
N7288 C7290 1.356 . S
N7288 H7300 0.984 . S
N7288 H7301 0.985 . S
N7289 C7291 1.356 . S
N7289 H7294 0.984 . S
N7289 H7295 0.985 . S
C7290 C7284 1.379 . S
C7290 C7287 1.363 . S
C7290 N7288 1.356 . S
C7291 C7285 1.363 . S
C7291 C7286 1.379 . S
C7291 N7289 1.356 . S
N7292 C7284 1.356 . S
N7292 H7298 0.984 . S
N7292 H7299 0.984 . S
N7293 C7286 1.356 . S
N7293 H7296 0.984 . S
N7293 H7297 0.985 . S
H7294 N7289 0.984 . S
H7295 N7289 0.985 . S
H7296 N7293 0.984 . S
H7297 N7293 0.985 . S
H7298 N7292 0.984 . S
H7299 N7292 0.984 . S
H7300 N7288 0.984 . S
H7301 N7288 0.985 . S
C7302 C7303 1.363 . S
C7302 C7308 1.379 . S
C7302 N7310 1.356 . S
C7303 C7302 1.363 . S
C7303 C7309 1.363 . S
C7304 C7305 1.363 . S
C7304 C7309 1.379 . S
C7304 N7311 1.356 . S
C7305 C7304 1.363 . S
C7305 C7308 1.363 . S
N7306 C7308 1.356 1_556 S
N7306 H7318 0.984 . S
N7306 H7319 0.985 . S
N7307 C7309 1.356 . S
N7307 H7312 0.984 . S
N7307 H7313 0.985 . S
C7308 C7302 1.379 . S
C7308 C7305 1.363 . S
C7308 N7306 1.356 1_554 S
C7309 C7303 1.363 . S
C7309 C7304 1.379 . S
C7309 N7307 1.356 . S
N7310 C7302 1.356 . S
N7310 H7316 0.984 . S
N7310 H7317 0.984 . S
N7311 C7304 1.356 . S
N7311 H7314 0.984 1_554 S
N7311 H7315 0.985 . S
H7312 N7307 0.984 . S
H7313 N7307 0.985 . S
H7314 N7311 0.984 1_556 S
H7315 N7311 0.985 . S
H7316 N7310 0.984 . S
H7317 N7310 0.984 . S
H7318 N7306 0.984 . S
H7319 N7306 0.985 . S
C7320 C7321 1.363 . S
C7320 C7326 1.379 . S
C7320 N7328 1.356 . S
C7321 C7320 1.363 . S
C7321 C7327 1.363 . S
C7322 C7323 1.363 . S
C7322 C7327 1.379 . S
C7322 N7329 1.356 . S
C7323 C7322 1.363 . S
C7323 C7326 1.363 . S
N7324 C7326 1.356 . S
N7324 H7336 0.984 . S
N7324 H7337 0.985 . S
N7325 C7327 1.356 . S
N7325 H7330 0.984 . S
N7325 H7331 0.985 . S
C7326 C7320 1.379 . S
C7326 C7323 1.363 . S
C7326 N7324 1.356 . S
C7327 C7321 1.363 . S
C7327 C7322 1.379 . S
C7327 N7325 1.356 . S
N7328 C7320 1.356 . S
N7328 H7334 0.984 . S
N7328 H7335 0.984 . S
N7329 C7322 1.356 . S
N7329 H7332 0.984 . S
N7329 H7333 0.985 . S
H7330 N7325 0.984 . S
H7331 N7325 0.985 . S
H7332 N7329 0.984 . S
H7333 N7329 0.985 . S
H7334 N7328 0.984 . S
H7335 N7328 0.984 . S
H7336 N7324 0.984 . S
H7337 N7324 0.985 . S
C7338 C7339 1.363 . S
C7338 C7344 1.379 . S
C7338 N7346 1.356 . S
C7339 C7338 1.363 . S
C7339 C7345 1.363 . S
C7340 C7341 1.363 . S
C7340 C7345 1.379 . S
C7340 N7347 1.356 1_556 S
C7341 C7340 1.363 . S
C7341 C7344 1.363 . S
N7342 C7344 1.356 . S
N7342 H7354 0.984 . S
N7342 H7355 0.985 1_556 S
N7343 C7345 1.356 . S
N7343 H7348 0.984 . S
N7343 H7349 0.985 . S
C7344 C7338 1.379 . S
C7344 C7341 1.363 . S
C7344 N7342 1.356 . S
C7345 C7339 1.363 . S
C7345 C7340 1.379 . S
C7345 N7343 1.356 . S
N7346 C7338 1.356 . S
N7346 H7352 0.984 . S
N7346 H7353 0.984 . S
N7347 C7340 1.356 1_554 S
N7347 H7350 0.984 . S
N7347 H7351 0.985 . S
H7348 N7343 0.984 . S
H7349 N7343 0.985 . S
H7350 N7347 0.984 . S
H7351 N7347 0.985 . S
H7352 N7346 0.984 . S
H7353 N7346 0.984 . S
H7354 N7342 0.984 . S
H7355 N7342 0.985 1_554 S
C7356 C7357 1.363 . S
C7356 C7362 1.379 . S
C7356 N7364 1.356 . S
C7357 C7356 1.363 . S
C7357 C7363 1.363 . S
C7358 C7359 1.363 . S
C7358 C7363 1.379 . S
C7358 N7365 1.356 . S
C7359 C7358 1.363 . S
C7359 C7362 1.363 . S
N7360 C7362 1.356 . S
N7360 H7372 0.984 . S
N7360 H7373 0.985 . S
N7361 C7363 1.356 . S
N7361 H7366 0.984 . S
N7361 H7367 0.985 . S
C7362 C7356 1.379 . S
C7362 C7359 1.363 . S
C7362 N7360 1.356 . S
C7363 C7357 1.363 . S
C7363 C7358 1.379 . S
C7363 N7361 1.356 . S
N7364 C7356 1.356 . S
N7364 H7370 0.984 . S
N7364 H7371 0.984 . S
N7365 C7358 1.356 . S
N7365 H7368 0.984 . S
N7365 H7369 0.985 . S
H7366 N7361 0.984 . S
H7367 N7361 0.985 . S
H7368 N7365 0.984 . S
H7369 N7365 0.985 . S
H7370 N7364 0.984 . S
H7371 N7364 0.984 . S
H7372 N7360 0.984 . S
H7373 N7360 0.985 . S
C7374 C7375 1.363 . S
C7374 C7380 1.379 . S
C7374 N7382 1.356 . S
C7375 C7374 1.363 . S
C7375 C7381 1.363 . S
C7376 C7377 1.363 . S
C7376 C7381 1.379 . S
C7376 N7383 1.356 . S
C7377 C7376 1.363 . S
C7377 C7380 1.363 . S
N7378 C7380 1.356 . S
N7378 H7390 0.984 . S
N7378 H7391 0.985 . S
N7379 C7381 1.356 . S
N7379 H7384 0.984 . S
N7379 H7385 0.985 . S
C7380 C7374 1.379 . S
C7380 C7377 1.363 . S
C7380 N7378 1.356 . S
C7381 C7375 1.363 . S
C7381 C7376 1.379 . S
C7381 N7379 1.356 . S
N7382 C7374 1.356 . S
N7382 H7388 0.984 . S
N7382 H7389 0.984 . S
N7383 C7376 1.356 . S
N7383 H7386 0.984 . S
N7383 H7387 0.985 . S
H7384 N7379 0.984 . S
H7385 N7379 0.985 . S
H7386 N7383 0.984 . S
H7387 N7383 0.985 . S
H7388 N7382 0.984 . S
H7389 N7382 0.984 . S
H7390 N7378 0.984 . S
H7391 N7378 0.985 . S
C7392 C7393 1.363 . S
C7392 C7398 1.379 . S
C7392 N7400 1.356 . S
C7393 C7392 1.363 . S
C7393 C7399 1.363 . S
C7394 C7395 1.363 . S
C7394 C7399 1.379 . S
C7394 N7401 1.356 . S
C7395 C7394 1.363 . S
C7395 C7398 1.363 . S
N7396 C7398 1.356 . S
N7396 H7408 0.984 . S
N7396 H7409 0.985 . S
N7397 C7399 1.356 . S
N7397 H7402 0.984 . S
N7397 H7403 0.985 . S
C7398 C7392 1.379 . S
C7398 C7395 1.363 . S
C7398 N7396 1.356 . S
C7399 C7393 1.363 . S
C7399 C7394 1.379 . S
C7399 N7397 1.356 . S
N7400 C7392 1.356 . S
N7400 H7406 0.984 . S
N7400 H7407 0.984 . S
N7401 C7394 1.356 . S
N7401 H7404 0.984 . S
N7401 H7405 0.985 . S
H7402 N7397 0.984 . S
H7403 N7397 0.985 . S
H7404 N7401 0.984 . S
H7405 N7401 0.985 . S
H7406 N7400 0.984 . S
H7407 N7400 0.984 . S
H7408 N7396 0.984 . S
H7409 N7396 0.985 . S
C7410 C7411 1.363 . S
C7410 C7416 1.379 . S
C7410 N7418 1.356 . S
C7411 C7410 1.363 . S
C7411 C7417 1.363 . S
C7412 C7413 1.363 . S
C7412 C7417 1.379 . S
C7412 N7419 1.356 . S
C7413 C7412 1.363 . S
C7413 C7416 1.363 . S
N7414 C7416 1.356 . S
N7414 H7426 0.984 . S
N7414 H7427 0.985 . S
N7415 C7417 1.356 . S
N7415 H7420 0.984 . S
N7415 H7421 0.985 . S
C7416 C7410 1.379 . S
C7416 C7413 1.363 . S
C7416 N7414 1.356 . S
C7417 C7411 1.363 . S
C7417 C7412 1.379 . S
C7417 N7415 1.356 . S
N7418 C7410 1.356 . S
N7418 H7424 0.984 . S
N7418 H7425 0.984 . S
N7419 C7412 1.356 . S
N7419 H7422 0.984 . S
N7419 H7423 0.985 . S
H7420 N7415 0.984 . S
H7421 N7415 0.985 . S
H7422 N7419 0.984 . S
H7423 N7419 0.985 . S
H7424 N7418 0.984 . S
H7425 N7418 0.984 . S
H7426 N7414 0.984 . S
H7427 N7414 0.985 . S
C7428 C7429 1.363 . S
C7428 C7434 1.379 . S
C7428 N7436 1.356 . S
C7429 C7428 1.363 . S
C7429 C7435 1.363 . S
C7430 C7431 1.363 . S
C7430 C7435 1.379 . S
C7430 N7437 1.356 . S
C7431 C7430 1.363 . S
C7431 C7434 1.363 . S
N7432 C7434 1.356 . S
N7432 H7444 0.984 . S
N7432 H7445 0.985 . S
N7433 C7435 1.356 . S
N7433 H7438 0.984 . S
N7433 H7439 0.985 . S
C7434 C7428 1.379 . S
C7434 C7431 1.363 . S
C7434 N7432 1.356 . S
C7435 C7429 1.363 . S
C7435 C7430 1.379 . S
C7435 N7433 1.356 . S
N7436 C7428 1.356 . S
N7436 H7442 0.984 . S
N7436 H7443 0.984 . S
N7437 C7430 1.356 . S
N7437 H7440 0.984 . S
N7437 H7441 0.985 . S
H7438 N7433 0.984 . S
H7439 N7433 0.985 . S
H7440 N7437 0.984 . S
H7441 N7437 0.985 . S
H7442 N7436 0.984 . S
H7443 N7436 0.984 . S
H7444 N7432 0.984 . S
H7445 N7432 0.985 . S
C7446 C7447 1.363 . S
C7446 C7452 1.379 . S
C7446 N7454 1.356 . S
C7447 C7446 1.363 . S
C7447 C7453 1.363 . S
C7448 C7449 1.363 . S
C7448 C7453 1.379 . S
C7448 N7455 1.356 . S
C7449 C7448 1.363 . S
C7449 C7452 1.363 . S
N7450 C7452 1.356 . S
N7450 H7462 0.984 . S
N7450 H7463 0.985 . S
N7451 C7453 1.356 . S
N7451 H7456 0.984 . S
N7451 H7457 0.985 . S
C7452 C7446 1.379 . S
C7452 C7449 1.363 . S
C7452 N7450 1.356 . S
C7453 C7447 1.363 . S
C7453 C7448 1.379 . S
C7453 N7451 1.356 . S
N7454 C7446 1.356 . S
N7454 H7460 0.984 . S
N7454 H7461 0.984 . S
N7455 C7448 1.356 . S
N7455 H7458 0.984 . S
N7455 H7459 0.985 . S
H7456 N7451 0.984 . S
H7457 N7451 0.985 . S
H7458 N7455 0.984 . S
H7459 N7455 0.985 . S
H7460 N7454 0.984 . S
H7461 N7454 0.984 . S
H7462 N7450 0.984 . S
H7463 N7450 0.985 . S
C7464 C7465 1.363 . S
C7464 C7470 1.379 . S
C7464 N7472 1.356 . S
C7465 C7464 1.363 . S
C7465 C7471 1.363 . S
C7466 C7467 1.363 . S
C7466 C7471 1.379 . S
C7466 N7473 1.356 . S
C7467 C7466 1.363 . S
C7467 C7470 1.363 . S
N7468 C7470 1.356 . S
N7468 H7480 0.984 . S
N7468 H7481 0.985 . S
N7469 C7471 1.356 . S
N7469 H7474 0.984 . S
N7469 H7475 0.985 . S
C7470 C7464 1.379 . S
C7470 C7467 1.363 . S
C7470 N7468 1.356 . S
C7471 C7465 1.363 . S
C7471 C7466 1.379 . S
C7471 N7469 1.356 . S
N7472 C7464 1.356 . S
N7472 H7478 0.984 . S
N7472 H7479 0.984 . S
N7473 C7466 1.356 . S
N7473 H7476 0.984 . S
N7473 H7477 0.985 . S
H7474 N7469 0.984 . S
H7475 N7469 0.985 . S
H7476 N7473 0.984 . S
H7477 N7473 0.985 . S
H7478 N7472 0.984 . S
H7479 N7472 0.984 . S
H7480 N7468 0.984 . S
H7481 N7468 0.985 . S
C7482 C7483 1.363 . S
C7482 C7488 1.379 . S
C7482 N7490 1.356 . S
C7483 C7482 1.363 . S
C7483 C7489 1.363 . S
C7484 C7485 1.363 . S
C7484 C7489 1.379 . S
C7484 N7491 1.356 . S
C7485 C7484 1.363 . S
C7485 C7488 1.363 . S
N7486 C7488 1.356 . S
N7486 H7498 0.984 . S
N7486 H7499 0.985 . S
N7487 C7489 1.356 . S
N7487 H7492 0.984 . S
N7487 H7493 0.985 . S
C7488 C7482 1.379 . S
C7488 C7485 1.363 . S
C7488 N7486 1.356 . S
C7489 C7483 1.363 . S
C7489 C7484 1.379 . S
C7489 N7487 1.356 . S
N7490 C7482 1.356 . S
N7490 H7496 0.984 . S
N7490 H7497 0.984 . S
N7491 C7484 1.356 . S
N7491 H7494 0.984 . S
N7491 H7495 0.985 . S
H7492 N7487 0.984 . S
H7493 N7487 0.985 . S
H7494 N7491 0.984 . S
H7495 N7491 0.985 . S
H7496 N7490 0.984 . S
H7497 N7490 0.984 . S
H7498 N7486 0.984 . S
H7499 N7486 0.985 . S
C7500 C7501 1.363 . S
C7500 C7506 1.379 . S
C7500 N7508 1.356 . S
C7501 C7500 1.363 . S
C7501 C7507 1.363 . S
C7502 C7503 1.363 . S
C7502 C7507 1.379 . S
C7502 N7509 1.356 . S
C7503 C7502 1.363 . S
C7503 C7506 1.363 . S
N7504 C7506 1.356 . S
N7504 H7516 0.984 . S
N7504 H7517 0.985 . S
N7505 C7507 1.356 . S
N7505 H7510 0.984 . S
N7505 H7511 0.985 . S
C7506 C7500 1.379 . S
C7506 C7503 1.363 . S
C7506 N7504 1.356 . S
C7507 C7501 1.363 . S
C7507 C7502 1.379 . S
C7507 N7505 1.356 . S
N7508 C7500 1.356 . S
N7508 H7514 0.984 . S
N7508 H7515 0.984 . S
N7509 C7502 1.356 . S
N7509 H7512 0.984 . S
N7509 H7513 0.985 . S
H7510 N7505 0.984 . S
H7511 N7505 0.985 . S
H7512 N7509 0.984 . S
H7513 N7509 0.985 . S
H7514 N7508 0.984 . S
H7515 N7508 0.984 . S
H7516 N7504 0.984 . S
H7517 N7504 0.985 . S
C7518 C7519 1.363 . S
C7518 C7524 1.379 . S
C7518 N7526 1.356 . S
C7519 C7518 1.363 . S
C7519 C7525 1.363 . S
C7520 C7521 1.363 . S
C7520 C7525 1.379 . S
C7520 N7527 1.356 . S
C7521 C7520 1.363 . S
C7521 C7524 1.363 . S
N7522 C7524 1.356 . S
N7522 H7534 0.984 . S
N7522 H7535 0.985 . S
N7523 C7525 1.356 . S
N7523 H7528 0.984 . S
N7523 H7529 0.985 . S
C7524 C7518 1.379 . S
C7524 C7521 1.363 . S
C7524 N7522 1.356 . S
C7525 C7519 1.363 . S
C7525 C7520 1.379 . S
C7525 N7523 1.356 . S
N7526 C7518 1.356 . S
N7526 H7532 0.984 . S
N7526 H7533 0.984 . S
N7527 C7520 1.356 . S
N7527 H7530 0.984 . S
N7527 H7531 0.985 . S
H7528 N7523 0.984 . S
H7529 N7523 0.985 . S
H7530 N7527 0.984 . S
H7531 N7527 0.985 . S
H7532 N7526 0.984 . S
H7533 N7526 0.984 . S
H7534 N7522 0.984 . S
H7535 N7522 0.985 . S
C7536 C7537 1.363 . S
C7536 C7542 1.379 . S
C7536 N7544 1.356 . S
C7537 C7536 1.363 . S
C7537 C7543 1.363 . S
C7538 C7539 1.363 . S
C7538 C7543 1.379 . S
C7538 N7545 1.356 . S
C7539 C7538 1.363 . S
C7539 C7542 1.363 . S
N7540 C7542 1.356 . S
N7540 H7552 0.984 . S
N7540 H7553 0.985 . S
N7541 C7543 1.356 . S
N7541 H7546 0.984 . S
N7541 H7547 0.985 . S
C7542 C7536 1.379 . S
C7542 C7539 1.363 . S
C7542 N7540 1.356 . S
C7543 C7537 1.363 . S
C7543 C7538 1.379 . S
C7543 N7541 1.356 . S
N7544 C7536 1.356 . S
N7544 H7550 0.984 . S
N7544 H7551 0.984 . S
N7545 C7538 1.356 . S
N7545 H7548 0.984 . S
N7545 H7549 0.985 . S
H7546 N7541 0.984 . S
H7547 N7541 0.985 . S
H7548 N7545 0.984 . S
H7549 N7545 0.985 . S
H7550 N7544 0.984 . S
H7551 N7544 0.984 . S
H7552 N7540 0.984 . S
H7553 N7540 0.985 . S
C7554 C7555 1.363 . S
C7554 C7560 1.379 . S
C7554 N7562 1.356 . S
C7555 C7554 1.363 . S
C7555 C7561 1.363 . S
C7556 C7557 1.363 . S
C7556 C7561 1.379 . S
C7556 N7563 1.356 . S
C7557 C7556 1.363 . S
C7557 C7560 1.363 . S
N7558 C7560 1.356 . S
N7558 H7570 0.984 . S
N7558 H7571 0.985 . S
N7559 C7561 1.356 . S
N7559 H7564 0.984 . S
N7559 H7565 0.985 . S
C7560 C7554 1.379 . S
C7560 C7557 1.363 . S
C7560 N7558 1.356 . S
C7561 C7555 1.363 . S
C7561 C7556 1.379 . S
C7561 N7559 1.356 . S
N7562 C7554 1.356 . S
N7562 H7568 0.984 . S
N7562 H7569 0.984 . S
N7563 C7556 1.356 . S
N7563 H7566 0.984 . S
N7563 H7567 0.985 . S
H7564 N7559 0.984 . S
H7565 N7559 0.985 . S
H7566 N7563 0.984 . S
H7567 N7563 0.985 . S
H7568 N7562 0.984 . S
H7569 N7562 0.984 . S
H7570 N7558 0.984 . S
H7571 N7558 0.985 . S
C7572 C7573 1.363 . S
C7572 C7578 1.379 . S
C7572 N7580 1.356 . S
C7573 C7572 1.363 . S
C7573 C7579 1.363 . S
C7574 C7575 1.363 . S
C7574 C7579 1.379 . S
C7574 N7581 1.356 . S
C7575 C7574 1.363 . S
C7575 C7578 1.363 . S
N7576 C7578 1.356 . S
N7576 H7588 0.984 . S
N7576 H7589 0.985 . S
N7577 C7579 1.356 . S
N7577 H7582 0.984 . S
N7577 H7583 0.985 . S
C7578 C7572 1.379 . S
C7578 C7575 1.363 . S
C7578 N7576 1.356 . S
C7579 C7573 1.363 . S
C7579 C7574 1.379 . S
C7579 N7577 1.356 . S
N7580 C7572 1.356 . S
N7580 H7586 0.984 . S
N7580 H7587 0.984 . S
N7581 C7574 1.356 . S
N7581 H7584 0.984 . S
N7581 H7585 0.985 . S
H7582 N7577 0.984 . S
H7583 N7577 0.985 . S
H7584 N7581 0.984 . S
H7585 N7581 0.985 . S
H7586 N7580 0.984 . S
H7587 N7580 0.984 . S
H7588 N7576 0.984 . S
H7589 N7576 0.985 . S
C7590 C7591 1.363 . S
C7590 C7596 1.379 . S
C7590 N7598 1.356 . S
C7591 C7590 1.363 . S
C7591 C7597 1.363 . S
C7592 C7593 1.363 . S
C7592 C7597 1.379 . S
C7592 N7599 1.356 . S
C7593 C7592 1.363 . S
C7593 C7596 1.363 . S
N7594 C7596 1.356 . S
N7594 H7606 0.984 . S
N7594 H7607 0.985 . S
N7595 C7597 1.356 . S
N7595 H7600 0.984 . S
N7595 H7601 0.985 . S
C7596 C7590 1.379 . S
C7596 C7593 1.363 . S
C7596 N7594 1.356 . S
C7597 C7591 1.363 . S
C7597 C7592 1.379 . S
C7597 N7595 1.356 . S
N7598 C7590 1.356 . S
N7598 H7604 0.984 . S
N7598 H7605 0.984 . S
N7599 C7592 1.356 . S
N7599 H7602 0.984 . S
N7599 H7603 0.985 . S
H7600 N7595 0.984 . S
H7601 N7595 0.985 . S
H7602 N7599 0.984 . S
H7603 N7599 0.985 . S
H7604 N7598 0.984 . S
H7605 N7598 0.984 . S
H7606 N7594 0.984 . S
H7607 N7594 0.985 . S
C7608 C7609 1.363 . S
C7608 C7614 1.379 . S
C7608 N7616 1.356 . S
C7609 C7608 1.363 . S
C7609 C7615 1.363 . S
C7610 C7611 1.363 . S
C7610 C7615 1.379 . S
C7610 N7617 1.356 . S
C7611 C7610 1.363 . S
C7611 C7614 1.363 . S
N7612 C7614 1.356 . S
N7612 H7624 0.984 . S
N7612 H7625 0.985 . S
N7613 C7615 1.356 . S
N7613 H7618 0.984 . S
N7613 H7619 0.985 . S
C7614 C7608 1.379 . S
C7614 C7611 1.363 . S
C7614 N7612 1.356 . S
C7615 C7609 1.363 . S
C7615 C7610 1.379 . S
C7615 N7613 1.356 . S
N7616 C7608 1.356 . S
N7616 H7622 0.984 . S
N7616 H7623 0.984 . S
N7617 C7610 1.356 . S
N7617 H7620 0.984 . S
N7617 H7621 0.985 . S
H7618 N7613 0.984 . S
H7619 N7613 0.985 . S
H7620 N7617 0.984 . S
H7621 N7617 0.985 . S
H7622 N7616 0.984 . S
H7623 N7616 0.984 . S
H7624 N7612 0.984 . S
H7625 N7612 0.985 . S
C7626 C7627 1.363 . S
C7626 C7632 1.379 . S
C7626 N7634 1.356 . S
C7627 C7626 1.363 . S
C7627 C7633 1.363 . S
C7628 C7629 1.363 . S
C7628 C7633 1.379 . S
C7628 N7635 1.356 . S
C7629 C7628 1.363 . S
C7629 C7632 1.363 . S
N7630 C7632 1.356 . S
N7630 H7642 0.984 . S
N7630 H7643 0.985 . S
N7631 C7633 1.356 . S
N7631 H7636 0.984 . S
N7631 H7637 0.985 . S
C7632 C7626 1.379 . S
C7632 C7629 1.363 . S
C7632 N7630 1.356 . S
C7633 C7627 1.363 . S
C7633 C7628 1.379 . S
C7633 N7631 1.356 . S
N7634 C7626 1.356 . S
N7634 H7640 0.984 . S
N7634 H7641 0.984 . S
N7635 C7628 1.356 . S
N7635 H7638 0.984 . S
N7635 H7639 0.985 . S
H7636 N7631 0.984 . S
H7637 N7631 0.985 . S
H7638 N7635 0.984 . S
H7639 N7635 0.985 . S
H7640 N7634 0.984 . S
H7641 N7634 0.984 . S
H7642 N7630 0.984 . S
H7643 N7630 0.985 . S
C7644 C7645 1.363 . S
C7644 C7650 1.379 . S
C7644 N7652 1.356 . S
C7645 C7644 1.363 . S
C7645 C7651 1.363 . S
C7646 C7647 1.363 . S
C7646 C7651 1.379 . S
C7646 N7653 1.356 . S
C7647 C7646 1.363 . S
C7647 C7650 1.363 . S
N7648 C7650 1.356 . S
N7648 H7660 0.984 . S
N7648 H7661 0.985 . S
N7649 C7651 1.356 . S
N7649 H7654 0.984 . S
N7649 H7655 0.985 . S
C7650 C7644 1.379 . S
C7650 C7647 1.363 . S
C7650 N7648 1.356 . S
C7651 C7645 1.363 . S
C7651 C7646 1.379 . S
C7651 N7649 1.356 . S
N7652 C7644 1.356 . S
N7652 H7658 0.984 . S
N7652 H7659 0.984 . S
N7653 C7646 1.356 . S
N7653 H7656 0.984 . S
N7653 H7657 0.985 . S
H7654 N7649 0.984 . S
H7655 N7649 0.985 . S
H7656 N7653 0.984 . S
H7657 N7653 0.985 . S
H7658 N7652 0.984 . S
H7659 N7652 0.984 . S
H7660 N7648 0.984 . S
H7661 N7648 0.985 . S
C7662 C7663 1.363 . S
C7662 C7668 1.379 . S
C7662 N7670 1.356 . S
C7663 C7662 1.363 . S
C7663 C7669 1.363 . S
C7664 C7665 1.363 . S
C7664 C7669 1.379 . S
C7664 N7671 1.356 . S
C7665 C7664 1.363 . S
C7665 C7668 1.363 . S
N7666 C7668 1.356 . S
N7666 H7678 0.984 . S
N7666 H7679 0.985 . S
N7667 C7669 1.356 . S
N7667 H7672 0.984 . S
N7667 H7673 0.985 . S
C7668 C7662 1.379 . S
C7668 C7665 1.363 . S
C7668 N7666 1.356 . S
C7669 C7663 1.363 . S
C7669 C7664 1.379 . S
C7669 N7667 1.356 . S
N7670 C7662 1.356 . S
N7670 H7676 0.984 . S
N7670 H7677 0.984 . S
N7671 C7664 1.356 . S
N7671 H7674 0.984 . S
N7671 H7675 0.985 . S
H7672 N7667 0.984 . S
H7673 N7667 0.985 . S
H7674 N7671 0.984 . S
H7675 N7671 0.985 . S
H7676 N7670 0.984 . S
H7677 N7670 0.984 . S
H7678 N7666 0.984 . S
H7679 N7666 0.985 . S
C7680 C7681 1.363 . S
C7680 C7686 1.379 . S
C7680 N7688 1.356 . S
C7681 C7680 1.363 . S
C7681 C7687 1.363 . S
C7682 C7683 1.363 . S
C7682 C7687 1.379 . S
C7682 N7689 1.356 . S
C7683 C7682 1.363 . S
C7683 C7686 1.363 . S
N7684 C7686 1.356 . S
N7684 H7696 0.984 . S
N7684 H7697 0.985 . S
N7685 C7687 1.356 . S
N7685 H7690 0.984 . S
N7685 H7691 0.985 . S
C7686 C7680 1.379 . S
C7686 C7683 1.363 . S
C7686 N7684 1.356 . S
C7687 C7681 1.363 . S
C7687 C7682 1.379 . S
C7687 N7685 1.356 . S
N7688 C7680 1.356 . S
N7688 H7694 0.984 . S
N7688 H7695 0.984 . S
N7689 C7682 1.356 . S
N7689 H7692 0.984 . S
N7689 H7693 0.985 . S
H7690 N7685 0.984 . S
H7691 N7685 0.985 . S
H7692 N7689 0.984 . S
H7693 N7689 0.985 . S
H7694 N7688 0.984 . S
H7695 N7688 0.984 . S
H7696 N7684 0.984 . S
H7697 N7684 0.985 . S
C7698 C7699 1.363 . S
C7698 C7704 1.379 . S
C7698 N7706 1.356 . S
C7699 C7698 1.363 . S
C7699 C7705 1.363 . S
C7700 C7701 1.363 . S
C7700 C7705 1.379 . S
C7700 N7707 1.356 . S
C7701 C7700 1.363 . S
C7701 C7704 1.363 . S
N7702 C7704 1.356 . S
N7702 H7714 0.984 . S
N7702 H7715 0.985 . S
N7703 C7705 1.356 . S
N7703 H7708 0.984 . S
N7703 H7709 0.985 . S
C7704 C7698 1.379 . S
C7704 C7701 1.363 . S
C7704 N7702 1.356 . S
C7705 C7699 1.363 . S
C7705 C7700 1.379 . S
C7705 N7703 1.356 . S
N7706 C7698 1.356 . S
N7706 H7712 0.984 . S
N7706 H7713 0.984 . S
N7707 C7700 1.356 . S
N7707 H7710 0.984 . S
N7707 H7711 0.985 . S
H7708 N7703 0.984 . S
H7709 N7703 0.985 . S
H7710 N7707 0.984 . S
H7711 N7707 0.985 . S
H7712 N7706 0.984 . S
H7713 N7706 0.984 . S
H7714 N7702 0.984 . S
H7715 N7702 0.985 . S
C7716 C7717 1.363 . S
C7716 C7722 1.379 . S
C7716 N7724 1.356 . S
C7717 C7716 1.363 . S
C7717 C7723 1.363 . S
C7718 C7719 1.363 . S
C7718 C7723 1.379 . S
C7718 N7725 1.356 . S
C7719 C7718 1.363 . S
C7719 C7722 1.363 . S
N7720 C7722 1.356 . S
N7720 H7732 0.984 . S
N7720 H7733 0.985 . S
N7721 C7723 1.356 . S
N7721 H7726 0.984 . S
N7721 H7727 0.985 . S
C7722 C7716 1.379 . S
C7722 C7719 1.363 . S
C7722 N7720 1.356 . S
C7723 C7717 1.363 . S
C7723 C7718 1.379 . S
C7723 N7721 1.356 . S
N7724 C7716 1.356 . S
N7724 H7730 0.984 . S
N7724 H7731 0.984 . S
N7725 C7718 1.356 . S
N7725 H7728 0.984 . S
N7725 H7729 0.985 . S
H7726 N7721 0.984 . S
H7727 N7721 0.985 . S
H7728 N7725 0.984 . S
H7729 N7725 0.985 . S
H7730 N7724 0.984 . S
H7731 N7724 0.984 . S
H7732 N7720 0.984 . S
H7733 N7720 0.985 . S
C7734 C7735 1.363 . S
C7734 C7740 1.379 . S
C7734 N7742 1.356 . S
C7735 C7734 1.363 . S
C7735 C7741 1.363 . S
C7736 C7737 1.363 . S
C7736 C7741 1.379 . S
C7736 N7743 1.356 . S
C7737 C7736 1.363 . S
C7737 C7740 1.363 . S
N7738 C7740 1.356 . S
N7738 H7750 0.984 . S
N7738 H7751 0.985 . S
N7739 C7741 1.356 . S
N7739 H7744 0.984 . S
N7739 H7745 0.985 . S
C7740 C7734 1.379 . S
C7740 C7737 1.363 . S
C7740 N7738 1.356 . S
C7741 C7735 1.363 . S
C7741 C7736 1.379 . S
C7741 N7739 1.356 . S
N7742 C7734 1.356 . S
N7742 H7748 0.984 . S
N7742 H7749 0.984 . S
N7743 C7736 1.356 . S
N7743 H7746 0.984 . S
N7743 H7747 0.985 . S
H7744 N7739 0.984 . S
H7745 N7739 0.985 . S
H7746 N7743 0.984 . S
H7747 N7743 0.985 . S
H7748 N7742 0.984 . S
H7749 N7742 0.984 . S
H7750 N7738 0.984 . S
H7751 N7738 0.985 . S
C7752 C7753 1.363 . S
C7752 C7758 1.379 . S
C7752 N7760 1.356 . S
C7753 C7752 1.363 . S
C7753 C7759 1.363 . S
C7754 C7755 1.363 . S
C7754 C7759 1.379 . S
C7754 N7761 1.356 . S
C7755 C7754 1.363 . S
C7755 C7758 1.363 . S
N7756 C7758 1.356 . S
N7756 H7768 0.984 . S
N7756 H7769 0.985 . S
N7757 C7759 1.356 . S
N7757 H7762 0.984 . S
N7757 H7763 0.985 . S
C7758 C7752 1.379 . S
C7758 C7755 1.363 . S
C7758 N7756 1.356 . S
C7759 C7753 1.363 . S
C7759 C7754 1.379 . S
C7759 N7757 1.356 . S
N7760 C7752 1.356 . S
N7760 H7766 0.984 . S
N7760 H7767 0.984 . S
N7761 C7754 1.356 . S
N7761 H7764 0.984 . S
N7761 H7765 0.985 . S
H7762 N7757 0.984 . S
H7763 N7757 0.985 . S
H7764 N7761 0.984 . S
H7765 N7761 0.985 . S
H7766 N7760 0.984 . S
H7767 N7760 0.984 . S
H7768 N7756 0.984 . S
H7769 N7756 0.985 . S
C7770 C7771 1.363 . S
C7770 C7776 1.379 . S
C7770 N7778 1.356 . S
C7771 C7770 1.363 . S
C7771 C7777 1.363 . S
C7772 C7773 1.363 . S
C7772 C7777 1.379 . S
C7772 N7779 1.356 . S
C7773 C7772 1.363 . S
C7773 C7776 1.363 . S
N7774 C7776 1.356 . S
N7774 H7786 0.984 . S
N7774 H7787 0.985 . S
N7775 C7777 1.356 . S
N7775 H7780 0.984 . S
N7775 H7781 0.985 . S
C7776 C7770 1.379 . S
C7776 C7773 1.363 . S
C7776 N7774 1.356 . S
C7777 C7771 1.363 . S
C7777 C7772 1.379 . S
C7777 N7775 1.356 . S
N7778 C7770 1.356 . S
N7778 H7784 0.984 . S
N7778 H7785 0.984 . S
N7779 C7772 1.356 . S
N7779 H7782 0.984 . S
N7779 H7783 0.985 . S
H7780 N7775 0.984 . S
H7781 N7775 0.985 . S
H7782 N7779 0.984 . S
H7783 N7779 0.985 . S
H7784 N7778 0.984 . S
H7785 N7778 0.984 . S
H7786 N7774 0.984 . S
H7787 N7774 0.985 . S
C7788 C7789 1.363 . S
C7788 C7794 1.379 . S
C7788 N7796 1.356 . S
C7789 C7788 1.363 . S
C7789 C7795 1.363 . S
C7790 C7791 1.363 . S
C7790 C7795 1.379 . S
C7790 N7797 1.356 . S
C7791 C7790 1.363 . S
C7791 C7794 1.363 . S
N7792 C7794 1.356 . S
N7792 H7804 0.984 . S
N7792 H7805 0.985 . S
N7793 C7795 1.356 . S
N7793 H7798 0.984 . S
N7793 H7799 0.985 . S
C7794 C7788 1.379 . S
C7794 C7791 1.363 . S
C7794 N7792 1.356 . S
C7795 C7789 1.363 . S
C7795 C7790 1.379 . S
C7795 N7793 1.356 . S
N7796 C7788 1.356 . S
N7796 H7802 0.984 . S
N7796 H7803 0.984 . S
N7797 C7790 1.356 . S
N7797 H7800 0.984 . S
N7797 H7801 0.985 . S
H7798 N7793 0.984 . S
H7799 N7793 0.985 . S
H7800 N7797 0.984 . S
H7801 N7797 0.985 . S
H7802 N7796 0.984 . S
H7803 N7796 0.984 . S
H7804 N7792 0.984 . S
H7805 N7792 0.985 . S
C7806 C7807 1.363 . S
C7806 C7812 1.379 . S
C7806 N7814 1.356 . S
C7807 C7806 1.363 . S
C7807 C7813 1.363 . S
C7808 C7809 1.363 . S
C7808 C7813 1.379 . S
C7808 N7815 1.356 . S
C7809 C7808 1.363 . S
C7809 C7812 1.363 . S
N7810 C7812 1.356 . S
N7810 H7822 0.984 . S
N7810 H7823 0.985 . S
N7811 C7813 1.356 . S
N7811 H7816 0.984 . S
N7811 H7817 0.985 . S
C7812 C7806 1.379 . S
C7812 C7809 1.363 . S
C7812 N7810 1.356 . S
C7813 C7807 1.363 . S
C7813 C7808 1.379 . S
C7813 N7811 1.356 . S
N7814 C7806 1.356 . S
N7814 H7820 0.984 . S
N7814 H7821 0.984 . S
N7815 C7808 1.356 . S
N7815 H7818 0.984 . S
N7815 H7819 0.985 . S
H7816 N7811 0.984 . S
H7817 N7811 0.985 . S
H7818 N7815 0.984 . S
H7819 N7815 0.985 . S
H7820 N7814 0.984 . S
H7821 N7814 0.984 . S
H7822 N7810 0.984 . S
H7823 N7810 0.985 . S
C7824 C7825 1.363 . S
C7824 C7830 1.379 . S
C7824 N7832 1.356 . S
C7825 C7824 1.363 . S
C7825 C7831 1.363 . S
C7826 C7827 1.363 . S
C7826 C7831 1.379 . S
C7826 N7833 1.356 . S
C7827 C7826 1.363 . S
C7827 C7830 1.363 . S
N7828 C7830 1.356 . S
N7828 H7840 0.984 . S
N7828 H7841 0.985 . S
N7829 C7831 1.356 . S
N7829 H7834 0.984 . S
N7829 H7835 0.985 . S
C7830 C7824 1.379 . S
C7830 C7827 1.363 . S
C7830 N7828 1.356 . S
C7831 C7825 1.363 . S
C7831 C7826 1.379 . S
C7831 N7829 1.356 . S
N7832 C7824 1.356 . S
N7832 H7838 0.984 . S
N7832 H7839 0.984 . S
N7833 C7826 1.356 . S
N7833 H7836 0.984 . S
N7833 H7837 0.985 . S
H7834 N7829 0.984 . S
H7835 N7829 0.985 . S
H7836 N7833 0.984 . S
H7837 N7833 0.985 . S
H7838 N7832 0.984 . S
H7839 N7832 0.984 . S
H7840 N7828 0.984 . S
H7841 N7828 0.985 . S
C7842 C7843 1.363 . S
C7842 C7848 1.379 . S
C7842 N7850 1.356 . S
C7843 C7842 1.363 . S
C7843 C7849 1.363 . S
C7844 C7845 1.363 . S
C7844 C7849 1.379 . S
C7844 N7851 1.356 . S
C7845 C7844 1.363 . S
C7845 C7848 1.363 . S
N7846 C7848 1.356 . S
N7846 H7858 0.984 . S
N7846 H7859 0.985 . S
N7847 C7849 1.356 . S
N7847 H7852 0.984 . S
N7847 H7853 0.985 . S
C7848 C7842 1.379 . S
C7848 C7845 1.363 . S
C7848 N7846 1.356 . S
C7849 C7843 1.363 . S
C7849 C7844 1.379 . S
C7849 N7847 1.356 . S
N7850 C7842 1.356 . S
N7850 H7856 0.984 . S
N7850 H7857 0.984 . S
N7851 C7844 1.356 . S
N7851 H7854 0.984 . S
N7851 H7855 0.985 . S
H7852 N7847 0.984 . S
H7853 N7847 0.985 . S
H7854 N7851 0.984 . S
H7855 N7851 0.985 . S
H7856 N7850 0.984 . S
H7857 N7850 0.984 . S
H7858 N7846 0.984 . S
H7859 N7846 0.985 . S
C7860 C7861 1.363 . S
C7860 C7866 1.379 . S
C7860 N7868 1.356 . S
C7861 C7860 1.363 . S
C7861 C7867 1.363 . S
C7862 C7863 1.363 . S
C7862 C7867 1.379 . S
C7862 N7869 1.356 . S
C7863 C7862 1.363 . S
C7863 C7866 1.363 . S
N7864 C7866 1.356 . S
N7864 H7876 0.984 . S
N7864 H7877 0.985 . S
N7865 C7867 1.356 . S
N7865 H7870 0.984 . S
N7865 H7871 0.985 . S
C7866 C7860 1.379 . S
C7866 C7863 1.363 . S
C7866 N7864 1.356 . S
C7867 C7861 1.363 . S
C7867 C7862 1.379 . S
C7867 N7865 1.356 . S
N7868 C7860 1.356 . S
N7868 H7874 0.984 . S
N7868 H7875 0.984 . S
N7869 C7862 1.356 . S
N7869 H7872 0.984 . S
N7869 H7873 0.985 . S
H7870 N7865 0.984 . S
H7871 N7865 0.985 . S
H7872 N7869 0.984 . S
H7873 N7869 0.985 . S
H7874 N7868 0.984 . S
H7875 N7868 0.984 . S
H7876 N7864 0.984 . S
H7877 N7864 0.985 . S
C7878 C7879 1.363 . S
C7878 C7884 1.379 . S
C7878 N7886 1.356 . S
C7879 C7878 1.363 . S
C7879 C7885 1.363 . S
C7880 C7881 1.363 . S
C7880 C7885 1.379 . S
C7880 N7887 1.356 . S
C7881 C7880 1.363 . S
C7881 C7884 1.363 . S
N7882 C7884 1.356 . S
N7882 H7894 0.984 . S
N7882 H7895 0.985 . S
N7883 C7885 1.356 . S
N7883 H7888 0.984 . S
N7883 H7889 0.985 . S
C7884 C7878 1.379 . S
C7884 C7881 1.363 . S
C7884 N7882 1.356 . S
C7885 C7879 1.363 . S
C7885 C7880 1.379 . S
C7885 N7883 1.356 . S
N7886 C7878 1.356 . S
N7886 H7892 0.984 . S
N7886 H7893 0.984 . S
N7887 C7880 1.356 . S
N7887 H7890 0.984 . S
N7887 H7891 0.985 . S
H7888 N7883 0.984 . S
H7889 N7883 0.985 . S
H7890 N7887 0.984 . S
H7891 N7887 0.985 . S
H7892 N7886 0.984 . S
H7893 N7886 0.984 . S
H7894 N7882 0.984 . S
H7895 N7882 0.985 . S
C7896 C7897 1.363 . S
C7896 C7902 1.379 . S
C7896 N7904 1.356 . S
C7897 C7896 1.363 . S
C7897 C7903 1.363 . S
C7898 C7899 1.363 . S
C7898 C7903 1.379 . S
C7898 N7905 1.356 . S
C7899 C7898 1.363 . S
C7899 C7902 1.363 . S
N7900 C7902 1.356 . S
N7900 H7912 0.984 . S
N7900 H7913 0.985 . S
N7901 C7903 1.356 . S
N7901 H7906 0.984 . S
N7901 H7907 0.985 . S
C7902 C7896 1.379 . S
C7902 C7899 1.363 . S
C7902 N7900 1.356 . S
C7903 C7897 1.363 . S
C7903 C7898 1.379 . S
C7903 N7901 1.356 . S
N7904 C7896 1.356 . S
N7904 H7910 0.984 . S
N7904 H7911 0.984 . S
N7905 C7898 1.356 . S
N7905 H7908 0.984 . S
N7905 H7909 0.985 . S
H7906 N7901 0.984 . S
H7907 N7901 0.985 . S
H7908 N7905 0.984 . S
H7909 N7905 0.985 . S
H7910 N7904 0.984 . S
H7911 N7904 0.984 . S
H7912 N7900 0.984 . S
H7913 N7900 0.985 . S
C7914 C7915 1.363 . S
C7914 C7920 1.379 . S
C7914 N7922 1.356 . S
C7915 C7914 1.363 . S
C7915 C7921 1.363 . S
C7916 C7917 1.363 . S
C7916 C7921 1.379 . S
C7916 N7923 1.356 . S
C7917 C7916 1.363 . S
C7917 C7920 1.363 . S
N7918 C7920 1.356 . S
N7918 H7930 0.984 . S
N7918 H7931 0.985 . S
N7919 C7921 1.356 . S
N7919 H7924 0.984 . S
N7919 H7925 0.985 . S
C7920 C7914 1.379 . S
C7920 C7917 1.363 . S
C7920 N7918 1.356 . S
C7921 C7915 1.363 . S
C7921 C7916 1.379 . S
C7921 N7919 1.356 . S
N7922 C7914 1.356 . S
N7922 H7928 0.984 . S
N7922 H7929 0.984 . S
N7923 C7916 1.356 . S
N7923 H7926 0.984 . S
N7923 H7927 0.985 . S
H7924 N7919 0.984 . S
H7925 N7919 0.985 . S
H7926 N7923 0.984 . S
H7927 N7923 0.985 . S
H7928 N7922 0.984 . S
H7929 N7922 0.984 . S
H7930 N7918 0.984 . S
H7931 N7918 0.985 . S
C7932 C7933 1.363 . S
C7932 C7938 1.379 . S
C7932 N7940 1.356 . S
C7933 C7932 1.363 . S
C7933 C7939 1.363 . S
C7934 C7935 1.363 . S
C7934 C7939 1.379 . S
C7934 N7941 1.356 . S
C7935 C7934 1.363 . S
C7935 C7938 1.363 . S
N7936 C7938 1.356 . S
N7936 H7948 0.984 . S
N7936 H7949 0.985 . S
N7937 C7939 1.356 . S
N7937 H7942 0.984 . S
N7937 H7943 0.985 . S
C7938 C7932 1.379 . S
C7938 C7935 1.363 . S
C7938 N7936 1.356 . S
C7939 C7933 1.363 . S
C7939 C7934 1.379 . S
C7939 N7937 1.356 . S
N7940 C7932 1.356 . S
N7940 H7946 0.984 . S
N7940 H7947 0.984 . S
N7941 C7934 1.356 . S
N7941 H7944 0.984 . S
N7941 H7945 0.985 . S
H7942 N7937 0.984 . S
H7943 N7937 0.985 . S
H7944 N7941 0.984 . S
H7945 N7941 0.985 . S
H7946 N7940 0.984 . S
H7947 N7940 0.984 . S
H7948 N7936 0.984 . S
H7949 N7936 0.985 . S
C7950 C7951 1.363 . S
C7950 C7956 1.379 . S
C7950 N7958 1.356 . S
C7951 C7950 1.363 . S
C7951 C7957 1.363 . S
C7952 C7953 1.363 . S
C7952 C7957 1.379 . S
C7952 N7959 1.356 . S
C7953 C7952 1.363 . S
C7953 C7956 1.363 . S
N7954 C7956 1.356 . S
N7954 H7966 0.984 . S
N7954 H7967 0.985 . S
N7955 C7957 1.356 . S
N7955 H7960 0.984 . S
N7955 H7961 0.985 . S
C7956 C7950 1.379 . S
C7956 C7953 1.363 . S
C7956 N7954 1.356 . S
C7957 C7951 1.363 . S
C7957 C7952 1.379 . S
C7957 N7955 1.356 . S
N7958 C7950 1.356 . S
N7958 H7964 0.984 . S
N7958 H7965 0.984 . S
N7959 C7952 1.356 . S
N7959 H7962 0.984 . S
N7959 H7963 0.985 . S
H7960 N7955 0.984 . S
H7961 N7955 0.985 . S
H7962 N7959 0.984 . S
H7963 N7959 0.985 . S
H7964 N7958 0.984 . S
H7965 N7958 0.984 . S
H7966 N7954 0.984 . S
H7967 N7954 0.985 . S
C7968 C7969 1.363 . S
C7968 C7974 1.379 . S
C7968 N7976 1.356 . S
C7969 C7968 1.363 . S
C7969 C7975 1.363 . S
C7970 C7971 1.363 . S
C7970 C7975 1.379 . S
C7970 N7977 1.356 . S
C7971 C7970 1.363 . S
C7971 C7974 1.363 . S
N7972 C7974 1.356 . S
N7972 H7984 0.984 . S
N7972 H7985 0.985 . S
N7973 C7975 1.356 . S
N7973 H7978 0.984 . S
N7973 H7979 0.985 . S
C7974 C7968 1.379 . S
C7974 C7971 1.363 . S
C7974 N7972 1.356 . S
C7975 C7969 1.363 . S
C7975 C7970 1.379 . S
C7975 N7973 1.356 . S
N7976 C7968 1.356 . S
N7976 H7982 0.984 . S
N7976 H7983 0.984 . S
N7977 C7970 1.356 . S
N7977 H7980 0.984 . S
N7977 H7981 0.985 . S
H7978 N7973 0.984 . S
H7979 N7973 0.985 . S
H7980 N7977 0.984 . S
H7981 N7977 0.985 . S
H7982 N7976 0.984 . S
H7983 N7976 0.984 . S
H7984 N7972 0.984 . S
H7985 N7972 0.985 . S
C7986 C7987 1.363 . S
C7986 C7992 1.379 . S
C7986 N7994 1.356 . S
C7987 C7986 1.363 . S
C7987 C7993 1.363 . S
C7988 C7989 1.363 . S
C7988 C7993 1.379 . S
C7988 N7995 1.356 . S
C7989 C7988 1.363 . S
C7989 C7992 1.363 . S
N7990 C7992 1.356 . S
N7990 H8002 0.984 . S
N7990 H8003 0.985 . S
N7991 C7993 1.356 . S
N7991 H7996 0.984 . S
N7991 H7997 0.985 . S
C7992 C7986 1.379 . S
C7992 C7989 1.363 . S
C7992 N7990 1.356 . S
C7993 C7987 1.363 . S
C7993 C7988 1.379 . S
C7993 N7991 1.356 . S
N7994 C7986 1.356 . S
N7994 H8000 0.984 . S
N7994 H8001 0.984 . S
N7995 C7988 1.356 . S
N7995 H7998 0.984 . S
N7995 H7999 0.985 . S
H7996 N7991 0.984 . S
H7997 N7991 0.985 . S
H7998 N7995 0.984 . S
H7999 N7995 0.985 . S
H8000 N7994 0.984 . S
H8001 N7994 0.984 . S
H8002 N7990 0.984 . S
H8003 N7990 0.985 . S
C8004 C8005 1.363 . S
C8004 C8010 1.379 . S
C8004 N8012 1.356 . S
C8005 C8004 1.363 . S
C8005 C8011 1.363 . S
C8006 C8007 1.363 . S
C8006 C8011 1.379 . S
C8006 N8013 1.356 . S
C8007 C8006 1.363 . S
C8007 C8010 1.363 . S
N8008 C8010 1.356 . S
N8008 H8020 0.984 . S
N8008 H8021 0.985 . S
N8009 C8011 1.356 . S
N8009 H8014 0.984 . S
N8009 H8015 0.985 . S
C8010 C8004 1.379 . S
C8010 C8007 1.363 . S
C8010 N8008 1.356 . S
C8011 C8005 1.363 . S
C8011 C8006 1.379 . S
C8011 N8009 1.356 . S
N8012 C8004 1.356 . S
N8012 H8018 0.984 . S
N8012 H8019 0.984 . S
N8013 C8006 1.356 . S
N8013 H8016 0.984 . S
N8013 H8017 0.985 . S
H8014 N8009 0.984 . S
H8015 N8009 0.985 . S
H8016 N8013 0.984 . S
H8017 N8013 0.985 . S
H8018 N8012 0.984 . S
H8019 N8012 0.984 . S
H8020 N8008 0.984 . S
H8021 N8008 0.985 . S
C8022 C8023 1.363 . S
C8022 C8028 1.379 . S
C8022 N8030 1.356 . S
C8023 C8022 1.363 . S
C8023 C8029 1.363 . S
C8024 C8025 1.363 . S
C8024 C8029 1.379 . S
C8024 N8031 1.356 . S
C8025 C8024 1.363 . S
C8025 C8028 1.363 . S
N8026 C8028 1.356 . S
N8026 H8038 0.984 . S
N8026 H8039 0.985 . S
N8027 C8029 1.356 . S
N8027 H8032 0.984 . S
N8027 H8033 0.985 . S
C8028 C8022 1.379 . S
C8028 C8025 1.363 . S
C8028 N8026 1.356 . S
C8029 C8023 1.363 . S
C8029 C8024 1.379 . S
C8029 N8027 1.356 . S
N8030 C8022 1.356 . S
N8030 H8036 0.984 . S
N8030 H8037 0.984 . S
N8031 C8024 1.356 . S
N8031 H8034 0.984 . S
N8031 H8035 0.985 . S
H8032 N8027 0.984 . S
H8033 N8027 0.985 . S
H8034 N8031 0.984 . S
H8035 N8031 0.985 . S
H8036 N8030 0.984 . S
H8037 N8030 0.984 . S
H8038 N8026 0.984 . S
H8039 N8026 0.985 . S
C8040 C8041 1.363 . S
C8040 C8046 1.379 . S
C8040 N8048 1.356 . S
C8041 C8040 1.363 . S
C8041 C8047 1.363 . S
C8042 C8043 1.363 . S
C8042 C8047 1.379 . S
C8042 N8049 1.356 . S
C8043 C8042 1.363 . S
C8043 C8046 1.363 . S
N8044 C8046 1.356 . S
N8044 H8056 0.984 . S
N8044 H8057 0.985 . S
N8045 C8047 1.356 . S
N8045 H8050 0.984 . S
N8045 H8051 0.985 . S
C8046 C8040 1.379 . S
C8046 C8043 1.363 . S
C8046 N8044 1.356 . S
C8047 C8041 1.363 . S
C8047 C8042 1.379 . S
C8047 N8045 1.356 . S
N8048 C8040 1.356 . S
N8048 H8054 0.984 . S
N8048 H8055 0.984 . S
N8049 C8042 1.356 . S
N8049 H8052 0.984 . S
N8049 H8053 0.985 . S
H8050 N8045 0.984 . S
H8051 N8045 0.985 . S
H8052 N8049 0.984 . S
H8053 N8049 0.985 . S
H8054 N8048 0.984 . S
H8055 N8048 0.984 . S
H8056 N8044 0.984 . S
H8057 N8044 0.985 . S
C8058 C8059 1.363 . S
C8058 C8064 1.379 . S
C8058 N8066 1.356 . S
C8059 C8058 1.363 . S
C8059 C8065 1.363 . S
C8060 C8061 1.363 . S
C8060 C8065 1.379 . S
C8060 N8067 1.356 . S
C8061 C8060 1.363 . S
C8061 C8064 1.363 . S
N8062 C8064 1.356 . S
N8062 H8074 0.984 . S
N8062 H8075 0.985 . S
N8063 C8065 1.356 . S
N8063 H8068 0.984 . S
N8063 H8069 0.985 . S
C8064 C8058 1.379 . S
C8064 C8061 1.363 . S
C8064 N8062 1.356 . S
C8065 C8059 1.363 . S
C8065 C8060 1.379 . S
C8065 N8063 1.356 . S
N8066 C8058 1.356 . S
N8066 H8072 0.984 . S
N8066 H8073 0.984 . S
N8067 C8060 1.356 . S
N8067 H8070 0.984 . S
N8067 H8071 0.985 . S
H8068 N8063 0.984 . S
H8069 N8063 0.985 . S
H8070 N8067 0.984 . S
H8071 N8067 0.985 . S
H8072 N8066 0.984 . S
H8073 N8066 0.984 . S
H8074 N8062 0.984 . S
H8075 N8062 0.985 . S
C8076 C8077 1.363 . S
C8076 C8082 1.379 . S
C8076 N8084 1.356 . S
C8077 C8076 1.363 . S
C8077 C8083 1.363 . S
C8078 C8079 1.363 . S
C8078 C8083 1.379 . S
C8078 N8085 1.356 . S
C8079 C8078 1.363 . S
C8079 C8082 1.363 . S
N8080 C8082 1.356 . S
N8080 H8092 0.984 . S
N8080 H8093 0.985 . S
N8081 C8083 1.356 . S
N8081 H8086 0.984 . S
N8081 H8087 0.985 . S
C8082 C8076 1.379 . S
C8082 C8079 1.363 . S
C8082 N8080 1.356 . S
C8083 C8077 1.363 . S
C8083 C8078 1.379 . S
C8083 N8081 1.356 . S
N8084 C8076 1.356 . S
N8084 H8090 0.984 . S
N8084 H8091 0.984 . S
N8085 C8078 1.356 . S
N8085 H8088 0.984 . S
N8085 H8089 0.985 . S
H8086 N8081 0.984 . S
H8087 N8081 0.985 . S
H8088 N8085 0.984 . S
H8089 N8085 0.985 . S
H8090 N8084 0.984 . S
H8091 N8084 0.984 . S
H8092 N8080 0.984 . S
H8093 N8080 0.985 . S
C8094 C8095 1.363 . S
C8094 C8100 1.379 . S
C8094 N8102 1.356 . S
C8095 C8094 1.363 . S
C8095 C8101 1.363 . S
C8096 C8097 1.363 . S
C8096 C8101 1.379 . S
C8096 N8103 1.356 . S
C8097 C8096 1.363 . S
C8097 C8100 1.363 . S
N8098 C8100 1.356 . S
N8098 H8110 0.984 . S
N8098 H8111 0.985 . S
N8099 C8101 1.356 . S
N8099 H8104 0.984 . S
N8099 H8105 0.985 . S
C8100 C8094 1.379 . S
C8100 C8097 1.363 . S
C8100 N8098 1.356 . S
C8101 C8095 1.363 . S
C8101 C8096 1.379 . S
C8101 N8099 1.356 . S
N8102 C8094 1.356 . S
N8102 H8108 0.984 . S
N8102 H8109 0.984 . S
N8103 C8096 1.356 . S
N8103 H8106 0.984 . S
N8103 H8107 0.985 . S
H8104 N8099 0.984 . S
H8105 N8099 0.985 . S
H8106 N8103 0.984 . S
H8107 N8103 0.985 . S
H8108 N8102 0.984 . S
H8109 N8102 0.984 . S
H8110 N8098 0.984 . S
H8111 N8098 0.985 . S
C8112 C8113 1.363 . S
C8112 C8118 1.379 . S
C8112 N8120 1.356 . S
C8113 C8112 1.363 . S
C8113 C8119 1.363 . S
C8114 C8115 1.363 . S
C8114 C8119 1.379 . S
C8114 N8121 1.356 . S
C8115 C8114 1.363 . S
C8115 C8118 1.363 . S
N8116 C8118 1.356 . S
N8116 H8128 0.984 . S
N8116 H8129 0.985 . S
N8117 C8119 1.356 . S
N8117 H8122 0.984 . S
N8117 H8123 0.985 . S
C8118 C8112 1.379 . S
C8118 C8115 1.363 . S
C8118 N8116 1.356 . S
C8119 C8113 1.363 . S
C8119 C8114 1.379 . S
C8119 N8117 1.356 . S
N8120 C8112 1.356 . S
N8120 H8126 0.984 . S
N8120 H8127 0.984 . S
N8121 C8114 1.356 . S
N8121 H8124 0.984 . S
N8121 H8125 0.985 . S
H8122 N8117 0.984 . S
H8123 N8117 0.985 . S
H8124 N8121 0.984 . S
H8125 N8121 0.985 . S
H8126 N8120 0.984 . S
H8127 N8120 0.984 . S
H8128 N8116 0.984 . S
H8129 N8116 0.985 . S
C8130 C8131 1.363 . S
C8130 C8136 1.379 . S
C8130 N8138 1.356 . S
C8131 C8130 1.363 . S
C8131 C8137 1.363 . S
C8132 C8133 1.363 . S
C8132 C8137 1.379 . S
C8132 N8139 1.356 . S
C8133 C8132 1.363 . S
C8133 C8136 1.363 . S
N8134 C8136 1.356 . S
N8134 H8146 0.984 . S
N8134 H8147 0.985 . S
N8135 C8137 1.356 . S
N8135 H8140 0.984 . S
N8135 H8141 0.985 . S
C8136 C8130 1.379 . S
C8136 C8133 1.363 . S
C8136 N8134 1.356 . S
C8137 C8131 1.363 . S
C8137 C8132 1.379 . S
C8137 N8135 1.356 . S
N8138 C8130 1.356 . S
N8138 H8144 0.984 . S
N8138 H8145 0.984 . S
N8139 C8132 1.356 . S
N8139 H8142 0.984 . S
N8139 H8143 0.985 . S
H8140 N8135 0.984 . S
H8141 N8135 0.985 . S
H8142 N8139 0.984 . S
H8143 N8139 0.985 . S
H8144 N8138 0.984 . S
H8145 N8138 0.984 . S
H8146 N8134 0.984 . S
H8147 N8134 0.985 . S
C8148 C8149 1.363 . S
C8148 C8154 1.379 . S
C8148 N8156 1.356 . S
C8149 C8148 1.363 . S
C8149 C8155 1.363 . S
C8150 C8151 1.363 . S
C8150 C8155 1.379 . S
C8150 N8157 1.356 . S
C8151 C8150 1.363 . S
C8151 C8154 1.363 . S
N8152 C8154 1.356 . S
N8152 H8164 0.984 . S
N8152 H8165 0.985 . S
N8153 C8155 1.356 . S
N8153 H8158 0.984 . S
N8153 H8159 0.985 . S
C8154 C8148 1.379 . S
C8154 C8151 1.363 . S
C8154 N8152 1.356 . S
C8155 C8149 1.363 . S
C8155 C8150 1.379 . S
C8155 N8153 1.356 . S
N8156 C8148 1.356 . S
N8156 H8162 0.984 . S
N8156 H8163 0.984 . S
N8157 C8150 1.356 . S
N8157 H8160 0.984 . S
N8157 H8161 0.985 . S
H8158 N8153 0.984 . S
H8159 N8153 0.985 . S
H8160 N8157 0.984 . S
H8161 N8157 0.985 . S
H8162 N8156 0.984 . S
H8163 N8156 0.984 . S
H8164 N8152 0.984 . S
H8165 N8152 0.985 . S
C8166 C8167 1.363 . S
C8166 C8172 1.379 . S
C8166 N8174 1.356 . S
C8167 C8166 1.363 . S
C8167 C8173 1.363 . S
C8168 C8169 1.363 . S
C8168 C8173 1.379 . S
C8168 N8175 1.356 . S
C8169 C8168 1.363 . S
C8169 C8172 1.363 . S
N8170 C8172 1.356 . S
N8170 H8182 0.984 . S
N8170 H8183 0.985 . S
N8171 C8173 1.356 . S
N8171 H8176 0.984 . S
N8171 H8177 0.985 . S
C8172 C8166 1.379 . S
C8172 C8169 1.363 . S
C8172 N8170 1.356 . S
C8173 C8167 1.363 . S
C8173 C8168 1.379 . S
C8173 N8171 1.356 . S
N8174 C8166 1.356 . S
N8174 H8180 0.984 . S
N8174 H8181 0.984 . S
N8175 C8168 1.356 . S
N8175 H8178 0.984 . S
N8175 H8179 0.985 . S
H8176 N8171 0.984 . S
H8177 N8171 0.985 . S
H8178 N8175 0.984 . S
H8179 N8175 0.985 . S
H8180 N8174 0.984 . S
H8181 N8174 0.984 . S
H8182 N8170 0.984 . S
H8183 N8170 0.985 . S
C8184 C8185 1.363 . S
C8184 C8190 1.379 . S
C8184 N8192 1.356 . S
C8185 C8184 1.363 . S
C8185 C8191 1.363 . S
C8186 C8187 1.363 . S
C8186 C8191 1.379 . S
C8186 N8193 1.356 . S
C8187 C8186 1.363 . S
C8187 C8190 1.363 . S
N8188 C8190 1.356 . S
N8188 H8200 0.984 . S
N8188 H8201 0.985 . S
N8189 C8191 1.356 . S
N8189 H8194 0.984 . S
N8189 H8195 0.985 . S
C8190 C8184 1.379 . S
C8190 C8187 1.363 . S
C8190 N8188 1.356 . S
C8191 C8185 1.363 . S
C8191 C8186 1.379 . S
C8191 N8189 1.356 . S
N8192 C8184 1.356 . S
N8192 H8198 0.984 . S
N8192 H8199 0.984 . S
N8193 C8186 1.356 . S
N8193 H8196 0.984 . S
N8193 H8197 0.985 . S
H8194 N8189 0.984 . S
H8195 N8189 0.985 . S
H8196 N8193 0.984 . S
H8197 N8193 0.985 . S
H8198 N8192 0.984 . S
H8199 N8192 0.984 . S
H8200 N8188 0.984 . S
H8201 N8188 0.985 . S
C8202 C8203 1.363 . S
C8202 C8208 1.379 . S
C8202 N8210 1.356 . S
C8203 C8202 1.363 . S
C8203 C8209 1.363 . S
C8204 C8205 1.363 . S
C8204 C8209 1.379 . S
C8204 N8211 1.356 . S
C8205 C8204 1.363 . S
C8205 C8208 1.363 . S
N8206 C8208 1.356 . S
N8206 H8218 0.984 . S
N8206 H8219 0.985 . S
N8207 C8209 1.356 . S
N8207 H8212 0.984 . S
N8207 H8213 0.985 . S
C8208 C8202 1.379 . S
C8208 C8205 1.363 . S
C8208 N8206 1.356 . S
C8209 C8203 1.363 . S
C8209 C8204 1.379 . S
C8209 N8207 1.356 . S
N8210 C8202 1.356 . S
N8210 H8216 0.984 . S
N8210 H8217 0.984 . S
N8211 C8204 1.356 . S
N8211 H8214 0.984 . S
N8211 H8215 0.985 . S
H8212 N8207 0.984 . S
H8213 N8207 0.985 . S
H8214 N8211 0.984 . S
H8215 N8211 0.985 . S
H8216 N8210 0.984 . S
H8217 N8210 0.984 . S
H8218 N8206 0.984 . S
H8219 N8206 0.985 . S
C8220 C8221 1.363 . S
C8220 C8226 1.379 . S
C8220 N8228 1.356 . S
C8221 C8220 1.363 . S
C8221 C8227 1.363 . S
C8222 C8223 1.363 . S
C8222 C8227 1.379 . S
C8222 N8229 1.356 . S
C8223 C8222 1.363 . S
C8223 C8226 1.363 . S
N8224 C8226 1.356 . S
N8224 H8236 0.984 . S
N8224 H8237 0.985 . S
N8225 C8227 1.356 . S
N8225 H8230 0.984 . S
N8225 H8231 0.985 . S
C8226 C8220 1.379 . S
C8226 C8223 1.363 . S
C8226 N8224 1.356 . S
C8227 C8221 1.363 . S
C8227 C8222 1.379 . S
C8227 N8225 1.356 . S
N8228 C8220 1.356 . S
N8228 H8234 0.984 . S
N8228 H8235 0.984 . S
N8229 C8222 1.356 . S
N8229 H8232 0.984 . S
N8229 H8233 0.985 . S
H8230 N8225 0.984 . S
H8231 N8225 0.985 . S
H8232 N8229 0.984 . S
H8233 N8229 0.985 . S
H8234 N8228 0.984 . S
H8235 N8228 0.984 . S
H8236 N8224 0.984 . S
H8237 N8224 0.985 . S
C8238 C8239 1.363 . S
C8238 C8244 1.379 . S
C8238 N8246 1.356 . S
C8239 C8238 1.363 . S
C8239 C8245 1.363 . S
C8240 C8241 1.363 . S
C8240 C8245 1.379 . S
C8240 N8247 1.356 . S
C8241 C8240 1.363 . S
C8241 C8244 1.363 . S
N8242 C8244 1.356 . S
N8242 H8254 0.984 . S
N8242 H8255 0.985 . S
N8243 C8245 1.356 . S
N8243 H8248 0.984 . S
N8243 H8249 0.985 . S
C8244 C8238 1.379 . S
C8244 C8241 1.363 . S
C8244 N8242 1.356 . S
C8245 C8239 1.363 . S
C8245 C8240 1.379 . S
C8245 N8243 1.356 . S
N8246 C8238 1.356 . S
N8246 H8252 0.984 . S
N8246 H8253 0.984 . S
N8247 C8240 1.356 . S
N8247 H8250 0.984 . S
N8247 H8251 0.985 . S
H8248 N8243 0.984 . S
H8249 N8243 0.985 . S
H8250 N8247 0.984 . S
H8251 N8247 0.985 . S
H8252 N8246 0.984 . S
H8253 N8246 0.984 . S
H8254 N8242 0.984 . S
H8255 N8242 0.985 . S
C8256 C8257 1.363 . S
C8256 C8262 1.379 . S
C8256 N8264 1.356 . S
C8257 C8256 1.363 . S
C8257 C8263 1.363 . S
C8258 C8259 1.363 . S
C8258 C8263 1.379 . S
C8258 N8265 1.356 . S
C8259 C8258 1.363 . S
C8259 C8262 1.363 . S
N8260 C8262 1.356 . S
N8260 H8272 0.984 . S
N8260 H8273 0.985 . S
N8261 C8263 1.356 . S
N8261 H8266 0.984 . S
N8261 H8267 0.985 . S
C8262 C8256 1.379 . S
C8262 C8259 1.363 . S
C8262 N8260 1.356 . S
C8263 C8257 1.363 . S
C8263 C8258 1.379 . S
C8263 N8261 1.356 . S
N8264 C8256 1.356 . S
N8264 H8270 0.984 . S
N8264 H8271 0.984 . S
N8265 C8258 1.356 . S
N8265 H8268 0.984 . S
N8265 H8269 0.985 . S
H8266 N8261 0.984 . S
H8267 N8261 0.985 . S
H8268 N8265 0.984 . S
H8269 N8265 0.985 . S
H8270 N8264 0.984 . S
H8271 N8264 0.984 . S
H8272 N8260 0.984 . S
H8273 N8260 0.985 . S
C8274 C8275 1.363 . S
C8274 C8280 1.379 . S
C8274 N8282 1.356 . S
C8275 C8274 1.363 . S
C8275 C8281 1.363 . S
C8276 C8277 1.363 . S
C8276 C8281 1.379 . S
C8276 N8283 1.356 . S
C8277 C8276 1.363 . S
C8277 C8280 1.363 . S
N8278 C8280 1.356 . S
N8278 H8290 0.984 . S
N8278 H8291 0.985 . S
N8279 C8281 1.356 . S
N8279 H8284 0.984 . S
N8279 H8285 0.985 . S
C8280 C8274 1.379 . S
C8280 C8277 1.363 . S
C8280 N8278 1.356 . S
C8281 C8275 1.363 . S
C8281 C8276 1.379 . S
C8281 N8279 1.356 . S
N8282 C8274 1.356 . S
N8282 H8288 0.984 . S
N8282 H8289 0.984 . S
N8283 C8276 1.356 . S
N8283 H8286 0.984 . S
N8283 H8287 0.985 . S
H8284 N8279 0.984 . S
H8285 N8279 0.985 . S
H8286 N8283 0.984 . S
H8287 N8283 0.985 . S
H8288 N8282 0.984 . S
H8289 N8282 0.984 . S
H8290 N8278 0.984 . S
H8291 N8278 0.985 . S
C8292 C8293 1.363 . S
C8292 C8298 1.379 . S
C8292 N8300 1.356 . S
C8293 C8292 1.363 . S
C8293 C8299 1.363 . S
C8294 C8295 1.363 . S
C8294 C8299 1.379 . S
C8294 N8301 1.356 . S
C8295 C8294 1.363 . S
C8295 C8298 1.363 . S
N8296 C8298 1.356 . S
N8296 H8308 0.984 . S
N8296 H8309 0.985 . S
N8297 C8299 1.356 . S
N8297 H8302 0.984 . S
N8297 H8303 0.985 . S
C8298 C8292 1.379 . S
C8298 C8295 1.363 . S
C8298 N8296 1.356 . S
C8299 C8293 1.363 . S
C8299 C8294 1.379 . S
C8299 N8297 1.356 . S
N8300 C8292 1.356 . S
N8300 H8306 0.984 . S
N8300 H8307 0.984 . S
N8301 C8294 1.356 . S
N8301 H8304 0.984 . S
N8301 H8305 0.985 . S
H8302 N8297 0.984 . S
H8303 N8297 0.985 . S
H8304 N8301 0.984 . S
H8305 N8301 0.985 . S
H8306 N8300 0.984 . S
H8307 N8300 0.984 . S
H8308 N8296 0.984 . S
H8309 N8296 0.985 . S
C8310 C8311 1.363 . S
C8310 C8316 1.379 . S
C8310 N8318 1.356 . S
C8311 C8310 1.363 . S
C8311 C8317 1.363 . S
C8312 C8313 1.363 . S
C8312 C8317 1.379 . S
C8312 N8319 1.356 . S
C8313 C8312 1.363 . S
C8313 C8316 1.363 . S
N8314 C8316 1.356 . S
N8314 H8326 0.984 . S
N8314 H8327 0.985 . S
N8315 C8317 1.356 . S
N8315 H8320 0.984 . S
N8315 H8321 0.985 . S
C8316 C8310 1.379 . S
C8316 C8313 1.363 . S
C8316 N8314 1.356 . S
C8317 C8311 1.363 . S
C8317 C8312 1.379 . S
C8317 N8315 1.356 . S
N8318 C8310 1.356 . S
N8318 H8324 0.984 . S
N8318 H8325 0.984 . S
N8319 C8312 1.356 . S
N8319 H8322 0.984 . S
N8319 H8323 0.985 . S
H8320 N8315 0.984 . S
H8321 N8315 0.985 . S
H8322 N8319 0.984 . S
H8323 N8319 0.985 . S
H8324 N8318 0.984 . S
H8325 N8318 0.984 . S
H8326 N8314 0.984 . S
H8327 N8314 0.985 . S
C8328 C8329 1.363 . S
C8328 C8334 1.379 . S
C8328 N8336 1.356 . S
C8329 C8328 1.363 . S
C8329 C8335 1.363 . S
C8330 C8331 1.363 . S
C8330 C8335 1.379 . S
C8330 N8337 1.356 . S
C8331 C8330 1.363 . S
C8331 C8334 1.363 . S
N8332 C8334 1.356 . S
N8332 H8344 0.984 . S
N8332 H8345 0.985 . S
N8333 C8335 1.356 . S
N8333 H8338 0.984 . S
N8333 H8339 0.985 . S
C8334 C8328 1.379 . S
C8334 C8331 1.363 . S
C8334 N8332 1.356 . S
C8335 C8329 1.363 . S
C8335 C8330 1.379 . S
C8335 N8333 1.356 . S
N8336 C8328 1.356 . S
N8336 H8342 0.984 . S
N8336 H8343 0.984 . S
N8337 C8330 1.356 . S
N8337 H8340 0.984 . S
N8337 H8341 0.985 . S
H8338 N8333 0.984 . S
H8339 N8333 0.985 . S
H8340 N8337 0.984 . S
H8341 N8337 0.985 . S
H8342 N8336 0.984 . S
H8343 N8336 0.984 . S
H8344 N8332 0.984 . S
H8345 N8332 0.985 . S
C8346 C8347 1.363 . S
C8346 C8352 1.379 . S
C8346 N8354 1.356 . S
C8347 C8346 1.363 . S
C8347 C8353 1.363 . S
C8348 C8349 1.363 . S
C8348 C8353 1.379 . S
C8348 N8355 1.356 . S
C8349 C8348 1.363 . S
C8349 C8352 1.363 . S
N8350 C8352 1.356 . S
N8350 H8362 0.984 . S
N8350 H8363 0.985 . S
N8351 C8353 1.356 . S
N8351 H8356 0.984 . S
N8351 H8357 0.985 . S
C8352 C8346 1.379 . S
C8352 C8349 1.363 . S
C8352 N8350 1.356 . S
C8353 C8347 1.363 . S
C8353 C8348 1.379 . S
C8353 N8351 1.356 . S
N8354 C8346 1.356 . S
N8354 H8360 0.984 . S
N8354 H8361 0.984 . S
N8355 C8348 1.356 . S
N8355 H8358 0.984 . S
N8355 H8359 0.985 . S
H8356 N8351 0.984 . S
H8357 N8351 0.985 . S
H8358 N8355 0.984 . S
H8359 N8355 0.985 . S
H8360 N8354 0.984 . S
H8361 N8354 0.984 . S
H8362 N8350 0.984 . S
H8363 N8350 0.985 . S
C8364 C8365 1.363 . S
C8364 C8370 1.379 . S
C8364 N8372 1.356 . S
C8365 C8364 1.363 . S
C8365 C8371 1.363 . S
C8366 C8367 1.363 . S
C8366 C8371 1.379 . S
C8366 N8373 1.356 . S
C8367 C8366 1.363 . S
C8367 C8370 1.363 . S
N8368 C8370 1.356 . S
N8368 H8380 0.984 . S
N8368 H8381 0.985 . S
N8369 C8371 1.356 . S
N8369 H8374 0.984 . S
N8369 H8375 0.985 . S
C8370 C8364 1.379 . S
C8370 C8367 1.363 . S
C8370 N8368 1.356 . S
C8371 C8365 1.363 . S
C8371 C8366 1.379 . S
C8371 N8369 1.356 . S
N8372 C8364 1.356 . S
N8372 H8378 0.984 . S
N8372 H8379 0.984 . S
N8373 C8366 1.356 . S
N8373 H8376 0.984 . S
N8373 H8377 0.985 . S
H8374 N8369 0.984 . S
H8375 N8369 0.985 . S
H8376 N8373 0.984 . S
H8377 N8373 0.985 . S
H8378 N8372 0.984 . S
H8379 N8372 0.984 . S
H8380 N8368 0.984 . S
H8381 N8368 0.985 . S
C8382 C8383 1.363 . S
C8382 C8388 1.379 . S
C8382 N8390 1.356 . S
C8383 C8382 1.363 . S
C8383 C8389 1.363 . S
C8384 C8385 1.363 . S
C8384 C8389 1.379 . S
C8384 N8391 1.356 . S
C8385 C8384 1.363 . S
C8385 C8388 1.363 . S
N8386 C8388 1.356 . S
N8386 H8398 0.984 . S
N8386 H8399 0.985 . S
N8387 C8389 1.356 . S
N8387 H8392 0.984 . S
N8387 H8393 0.985 . S
C8388 C8382 1.379 . S
C8388 C8385 1.363 . S
C8388 N8386 1.356 . S
C8389 C8383 1.363 . S
C8389 C8384 1.379 . S
C8389 N8387 1.356 . S
N8390 C8382 1.356 . S
N8390 H8396 0.984 . S
N8390 H8397 0.984 . S
N8391 C8384 1.356 . S
N8391 H8394 0.984 . S
N8391 H8395 0.985 . S
H8392 N8387 0.984 . S
H8393 N8387 0.985 . S
H8394 N8391 0.984 . S
H8395 N8391 0.985 . S
H8396 N8390 0.984 . S
H8397 N8390 0.984 . S
H8398 N8386 0.984 . S
H8399 N8386 0.985 . S
C8400 C8401 1.363 . S
C8400 C8406 1.379 . S
C8400 N8408 1.356 . S
C8401 C8400 1.363 . S
C8401 C8407 1.363 . S
C8402 C8403 1.363 . S
C8402 C8407 1.379 . S
C8402 N8409 1.356 . S
C8403 C8402 1.363 . S
C8403 C8406 1.363 . S
N8404 C8406 1.356 . S
N8404 H8416 0.984 . S
N8404 H8417 0.985 . S
N8405 C8407 1.356 . S
N8405 H8410 0.984 . S
N8405 H8411 0.985 . S
C8406 C8400 1.379 . S
C8406 C8403 1.363 . S
C8406 N8404 1.356 . S
C8407 C8401 1.363 . S
C8407 C8402 1.379 . S
C8407 N8405 1.356 . S
N8408 C8400 1.356 . S
N8408 H8414 0.984 . S
N8408 H8415 0.984 . S
N8409 C8402 1.356 . S
N8409 H8412 0.984 . S
N8409 H8413 0.985 . S
H8410 N8405 0.984 . S
H8411 N8405 0.985 . S
H8412 N8409 0.984 . S
H8413 N8409 0.985 . S
H8414 N8408 0.984 . S
H8415 N8408 0.984 . S
H8416 N8404 0.984 . S
H8417 N8404 0.985 . S
C8418 C8419 1.363 . S
C8418 C8424 1.379 . S
C8418 N8426 1.356 . S
C8419 C8418 1.363 . S
C8419 C8425 1.363 . S
C8420 C8421 1.363 . S
C8420 C8425 1.379 . S
C8420 N8427 1.356 . S
C8421 C8420 1.363 . S
C8421 C8424 1.363 . S
N8422 C8424 1.356 . S
N8422 H8434 0.984 . S
N8422 H8435 0.985 . S
N8423 C8425 1.356 . S
N8423 H8428 0.984 . S
N8423 H8429 0.985 . S
C8424 C8418 1.379 . S
C8424 C8421 1.363 . S
C8424 N8422 1.356 . S
C8425 C8419 1.363 . S
C8425 C8420 1.379 . S
C8425 N8423 1.356 . S
N8426 C8418 1.356 . S
N8426 H8432 0.984 . S
N8426 H8433 0.984 . S
N8427 C8420 1.356 . S
N8427 H8430 0.984 . S
N8427 H8431 0.985 . S
H8428 N8423 0.984 . S
H8429 N8423 0.985 . S
H8430 N8427 0.984 . S
H8431 N8427 0.985 . S
H8432 N8426 0.984 . S
H8433 N8426 0.984 . S
H8434 N8422 0.984 . S
H8435 N8422 0.985 . S
C8436 C8437 1.363 . S
C8436 C8442 1.379 . S
C8436 N8444 1.356 . S
C8437 C8436 1.363 . S
C8437 C8443 1.363 . S
C8438 C8439 1.363 . S
C8438 C8443 1.379 . S
C8438 N8445 1.356 . S
C8439 C8438 1.363 . S
C8439 C8442 1.363 . S
N8440 C8442 1.356 . S
N8440 H8452 0.984 . S
N8440 H8453 0.985 . S
N8441 C8443 1.356 . S
N8441 H8446 0.984 . S
N8441 H8447 0.985 . S
C8442 C8436 1.379 . S
C8442 C8439 1.363 . S
C8442 N8440 1.356 . S
C8443 C8437 1.363 . S
C8443 C8438 1.379 . S
C8443 N8441 1.356 . S
N8444 C8436 1.356 . S
N8444 H8450 0.984 . S
N8444 H8451 0.984 . S
N8445 C8438 1.356 . S
N8445 H8448 0.984 . S
N8445 H8449 0.985 . S
H8446 N8441 0.984 . S
H8447 N8441 0.985 . S
H8448 N8445 0.984 . S
H8449 N8445 0.985 . S
H8450 N8444 0.984 . S
H8451 N8444 0.984 . S
H8452 N8440 0.984 . S
H8453 N8440 0.985 . S
C8454 C8455 1.363 . S
C8454 C8460 1.379 . S
C8454 N8462 1.356 . S
C8455 C8454 1.363 . S
C8455 C8461 1.363 . S
C8456 C8457 1.363 . S
C8456 C8461 1.379 . S
C8456 N8463 1.356 . S
C8457 C8456 1.363 . S
C8457 C8460 1.363 . S
N8458 C8460 1.356 . S
N8458 H8470 0.984 . S
N8458 H8471 0.985 . S
N8459 C8461 1.356 . S
N8459 H8464 0.984 . S
N8459 H8465 0.985 . S
C8460 C8454 1.379 . S
C8460 C8457 1.363 . S
C8460 N8458 1.356 . S
C8461 C8455 1.363 . S
C8461 C8456 1.379 . S
C8461 N8459 1.356 . S
N8462 C8454 1.356 . S
N8462 H8468 0.984 . S
N8462 H8469 0.984 . S
N8463 C8456 1.356 . S
N8463 H8466 0.984 . S
N8463 H8467 0.985 . S
H8464 N8459 0.984 . S
H8465 N8459 0.985 . S
H8466 N8463 0.984 . S
H8467 N8463 0.985 . S
H8468 N8462 0.984 . S
H8469 N8462 0.984 . S
H8470 N8458 0.984 . S
H8471 N8458 0.985 . S
C8472 C8473 1.363 . S
C8472 C8478 1.379 . S
C8472 N8480 1.356 . S
C8473 C8472 1.363 . S
C8473 C8479 1.363 . S
C8474 C8475 1.363 . S
C8474 C8479 1.379 . S
C8474 N8481 1.356 . S
C8475 C8474 1.363 . S
C8475 C8478 1.363 . S
N8476 C8478 1.356 . S
N8476 H8488 0.984 . S
N8476 H8489 0.985 . S
N8477 C8479 1.356 . S
N8477 H8482 0.984 . S
N8477 H8483 0.985 . S
C8478 C8472 1.379 . S
C8478 C8475 1.363 . S
C8478 N8476 1.356 . S
C8479 C8473 1.363 . S
C8479 C8474 1.379 . S
C8479 N8477 1.356 . S
N8480 C8472 1.356 . S
N8480 H8486 0.984 . S
N8480 H8487 0.984 . S
N8481 C8474 1.356 . S
N8481 H8484 0.984 . S
N8481 H8485 0.985 . S
H8482 N8477 0.984 . S
H8483 N8477 0.985 . S
H8484 N8481 0.984 . S
H8485 N8481 0.985 . S
H8486 N8480 0.984 . S
H8487 N8480 0.984 . S
H8488 N8476 0.984 . S
H8489 N8476 0.985 . S
C8490 C8491 1.363 . S
C8490 C8496 1.379 . S
C8490 N8498 1.356 . S
C8491 C8490 1.363 . S
C8491 C8497 1.363 . S
C8492 C8493 1.363 . S
C8492 C8497 1.379 . S
C8492 N8499 1.356 . S
C8493 C8492 1.363 . S
C8493 C8496 1.363 . S
N8494 C8496 1.356 . S
N8494 H8506 0.984 . S
N8494 H8507 0.985 . S
N8495 C8497 1.356 . S
N8495 H8500 0.984 . S
N8495 H8501 0.985 . S
C8496 C8490 1.379 . S
C8496 C8493 1.363 . S
C8496 N8494 1.356 . S
C8497 C8491 1.363 . S
C8497 C8492 1.379 . S
C8497 N8495 1.356 . S
N8498 C8490 1.356 . S
N8498 H8504 0.984 . S
N8498 H8505 0.984 . S
N8499 C8492 1.356 . S
N8499 H8502 0.984 . S
N8499 H8503 0.985 . S
H8500 N8495 0.984 . S
H8501 N8495 0.985 . S
H8502 N8499 0.984 . S
H8503 N8499 0.985 . S
H8504 N8498 0.984 . S
H8505 N8498 0.984 . S
H8506 N8494 0.984 . S
H8507 N8494 0.985 . S
C8508 C8509 1.363 . S
C8508 C8514 1.379 . S
C8508 N8516 1.356 . S
C8509 C8508 1.363 . S
C8509 C8515 1.363 . S
C8510 C8511 1.363 . S
C8510 C8515 1.379 . S
C8510 N8517 1.356 . S
C8511 C8510 1.363 . S
C8511 C8514 1.363 . S
N8512 C8514 1.356 . S
N8512 H8524 0.984 . S
N8512 H8525 0.985 . S
N8513 C8515 1.356 . S
N8513 H8518 0.984 . S
N8513 H8519 0.985 . S
C8514 C8508 1.379 . S
C8514 C8511 1.363 . S
C8514 N8512 1.356 . S
C8515 C8509 1.363 . S
C8515 C8510 1.379 . S
C8515 N8513 1.356 . S
N8516 C8508 1.356 . S
N8516 H8522 0.984 . S
N8516 H8523 0.984 . S
N8517 C8510 1.356 . S
N8517 H8520 0.984 . S
N8517 H8521 0.985 . S
H8518 N8513 0.984 . S
H8519 N8513 0.985 . S
H8520 N8517 0.984 . S
H8521 N8517 0.985 . S
H8522 N8516 0.984 . S
H8523 N8516 0.984 . S
H8524 N8512 0.984 . S
H8525 N8512 0.985 . S
C8526 C8527 1.363 . S
C8526 C8532 1.379 . S
C8526 N8534 1.356 . S
C8527 C8526 1.363 . S
C8527 C8533 1.363 . S
C8528 C8529 1.363 . S
C8528 C8533 1.379 . S
C8528 N8535 1.356 . S
C8529 C8528 1.363 . S
C8529 C8532 1.363 . S
N8530 C8532 1.356 . S
N8530 H8542 0.984 . S
N8530 H8543 0.985 . S
N8531 C8533 1.356 . S
N8531 H8536 0.984 . S
N8531 H8537 0.985 . S
C8532 C8526 1.379 . S
C8532 C8529 1.363 . S
C8532 N8530 1.356 . S
C8533 C8527 1.363 . S
C8533 C8528 1.379 . S
C8533 N8531 1.356 . S
N8534 C8526 1.356 . S
N8534 H8540 0.984 . S
N8534 H8541 0.984 . S
N8535 C8528 1.356 . S
N8535 H8538 0.984 . S
N8535 H8539 0.985 . S
H8536 N8531 0.984 . S
H8537 N8531 0.985 . S
H8538 N8535 0.984 . S
H8539 N8535 0.985 . S
H8540 N8534 0.984 . S
H8541 N8534 0.984 . S
H8542 N8530 0.984 . S
H8543 N8530 0.985 . S
C8544 C8545 1.363 . S
C8544 C8550 1.379 . S
C8544 N8552 1.356 . S
C8545 C8544 1.363 . S
C8545 C8551 1.363 . S
C8546 C8547 1.363 . S
C8546 C8551 1.379 . S
C8546 N8553 1.356 . S
C8547 C8546 1.363 . S
C8547 C8550 1.363 . S
N8548 C8550 1.356 . S
N8548 H8560 0.984 . S
N8548 H8561 0.985 . S
N8549 C8551 1.356 . S
N8549 H8554 0.984 . S
N8549 H8555 0.985 . S
C8550 C8544 1.379 . S
C8550 C8547 1.363 . S
C8550 N8548 1.356 . S
C8551 C8545 1.363 . S
C8551 C8546 1.379 . S
C8551 N8549 1.356 . S
N8552 C8544 1.356 . S
N8552 H8558 0.984 . S
N8552 H8559 0.984 . S
N8553 C8546 1.356 . S
N8553 H8556 0.984 . S
N8553 H8557 0.985 . S
H8554 N8549 0.984 . S
H8555 N8549 0.985 . S
H8556 N8553 0.984 . S
H8557 N8553 0.985 . S
H8558 N8552 0.984 . S
H8559 N8552 0.984 . S
H8560 N8548 0.984 . S
H8561 N8548 0.985 . S
C8562 C8563 1.363 . S
C8562 C8568 1.379 . S
C8562 N8570 1.356 . S
C8563 C8562 1.363 . S
C8563 C8569 1.363 . S
C8564 C8565 1.363 . S
C8564 C8569 1.379 . S
C8564 N8571 1.356 . S
C8565 C8564 1.363 . S
C8565 C8568 1.363 . S
N8566 C8568 1.356 . S
N8566 H8578 0.984 . S
N8566 H8579 0.985 . S
N8567 C8569 1.356 . S
N8567 H8572 0.984 . S
N8567 H8573 0.985 . S
C8568 C8562 1.379 . S
C8568 C8565 1.363 . S
C8568 N8566 1.356 . S
C8569 C8563 1.363 . S
C8569 C8564 1.379 . S
C8569 N8567 1.356 . S
N8570 C8562 1.356 . S
N8570 H8576 0.984 . S
N8570 H8577 0.984 . S
N8571 C8564 1.356 . S
N8571 H8574 0.984 . S
N8571 H8575 0.985 . S
H8572 N8567 0.984 . S
H8573 N8567 0.985 . S
H8574 N8571 0.984 . S
H8575 N8571 0.985 . S
H8576 N8570 0.984 . S
H8577 N8570 0.984 . S
H8578 N8566 0.984 . S
H8579 N8566 0.985 . S
C8580 C8581 1.363 . S
C8580 C8586 1.379 . S
C8580 N8588 1.356 . S
C8581 C8580 1.363 . S
C8581 C8587 1.363 . S
C8582 C8583 1.363 . S
C8582 C8587 1.379 . S
C8582 N8589 1.356 . S
C8583 C8582 1.363 . S
C8583 C8586 1.363 . S
N8584 C8586 1.356 . S
N8584 H8596 0.984 . S
N8584 H8597 0.985 . S
N8585 C8587 1.356 . S
N8585 H8590 0.984 . S
N8585 H8591 0.985 . S
C8586 C8580 1.379 . S
C8586 C8583 1.363 . S
C8586 N8584 1.356 . S
C8587 C8581 1.363 . S
C8587 C8582 1.379 . S
C8587 N8585 1.356 . S
N8588 C8580 1.356 . S
N8588 H8594 0.984 . S
N8588 H8595 0.984 . S
N8589 C8582 1.356 . S
N8589 H8592 0.984 . S
N8589 H8593 0.985 . S
H8590 N8585 0.984 . S
H8591 N8585 0.985 . S
H8592 N8589 0.984 . S
H8593 N8589 0.985 . S
H8594 N8588 0.984 . S
H8595 N8588 0.984 . S
H8596 N8584 0.984 . S
H8597 N8584 0.985 . S
C8598 C8599 1.363 . S
C8598 C8604 1.379 . S
C8598 N8606 1.356 . S
C8599 C8598 1.363 . S
C8599 C8605 1.363 . S
C8600 C8601 1.363 . S
C8600 C8605 1.379 . S
C8600 N8607 1.356 . S
C8601 C8600 1.363 . S
C8601 C8604 1.363 . S
N8602 C8604 1.356 . S
N8602 H8614 0.984 . S
N8602 H8615 0.985 . S
N8603 C8605 1.356 . S
N8603 H8608 0.984 . S
N8603 H8609 0.985 . S
C8604 C8598 1.379 . S
C8604 C8601 1.363 . S
C8604 N8602 1.356 . S
C8605 C8599 1.363 . S
C8605 C8600 1.379 . S
C8605 N8603 1.356 . S
N8606 C8598 1.356 . S
N8606 H8612 0.984 . S
N8606 H8613 0.984 . S
N8607 C8600 1.356 . S
N8607 H8610 0.984 . S
N8607 H8611 0.985 . S
H8608 N8603 0.984 . S
H8609 N8603 0.985 . S
H8610 N8607 0.984 . S
H8611 N8607 0.985 . S
H8612 N8606 0.984 . S
H8613 N8606 0.984 . S
H8614 N8602 0.984 . S
H8615 N8602 0.985 . S
C8616 C8617 1.363 . S
C8616 C8622 1.379 . S
C8616 N8624 1.356 . S
C8617 C8616 1.363 . S
C8617 C8623 1.363 . S
C8618 C8619 1.363 . S
C8618 C8623 1.379 . S
C8618 N8625 1.356 . S
C8619 C8618 1.363 . S
C8619 C8622 1.363 . S
N8620 C8622 1.356 . S
N8620 H8632 0.984 . S
N8620 H8633 0.985 . S
N8621 C8623 1.356 . S
N8621 H8626 0.984 . S
N8621 H8627 0.985 . S
C8622 C8616 1.379 . S
C8622 C8619 1.363 . S
C8622 N8620 1.356 . S
C8623 C8617 1.363 . S
C8623 C8618 1.379 . S
C8623 N8621 1.356 . S
N8624 C8616 1.356 . S
N8624 H8630 0.984 . S
N8624 H8631 0.984 . S
N8625 C8618 1.356 . S
N8625 H8628 0.984 . S
N8625 H8629 0.985 . S
H8626 N8621 0.984 . S
H8627 N8621 0.985 . S
H8628 N8625 0.984 . S
H8629 N8625 0.985 . S
H8630 N8624 0.984 . S
H8631 N8624 0.984 . S
H8632 N8620 0.984 . S
H8633 N8620 0.985 . S
C8634 C8635 1.363 . S
C8634 C8640 1.379 . S
C8634 N8642 1.356 . S
C8635 C8634 1.363 . S
C8635 C8641 1.363 . S
C8636 C8637 1.363 . S
C8636 C8641 1.379 . S
C8636 N8643 1.356 . S
C8637 C8636 1.363 . S
C8637 C8640 1.363 . S
N8638 C8640 1.356 . S
N8638 H8650 0.984 . S
N8638 H8651 0.985 . S
N8639 C8641 1.356 . S
N8639 H8644 0.984 . S
N8639 H8645 0.985 . S
C8640 C8634 1.379 . S
C8640 C8637 1.363 . S
C8640 N8638 1.356 . S
C8641 C8635 1.363 . S
C8641 C8636 1.379 . S
C8641 N8639 1.356 . S
N8642 C8634 1.356 . S
N8642 H8648 0.984 . S
N8642 H8649 0.984 . S
N8643 C8636 1.356 . S
N8643 H8646 0.984 . S
N8643 H8647 0.985 . S
H8644 N8639 0.984 . S
H8645 N8639 0.985 . S
H8646 N8643 0.984 . S
H8647 N8643 0.985 . S
H8648 N8642 0.984 . S
H8649 N8642 0.984 . S
H8650 N8638 0.984 . S
H8651 N8638 0.985 . S
C8652 C8653 1.363 . S
C8652 C8658 1.379 . S
C8652 N8660 1.356 . S
C8653 C8652 1.363 . S
C8653 C8659 1.363 . S
C8654 C8655 1.363 . S
C8654 C8659 1.379 . S
C8654 N8661 1.356 . S
C8655 C8654 1.363 . S
C8655 C8658 1.363 . S
N8656 C8658 1.356 . S
N8656 H8668 0.984 . S
N8656 H8669 0.985 . S
N8657 C8659 1.356 . S
N8657 H8662 0.984 . S
N8657 H8663 0.985 . S
C8658 C8652 1.379 . S
C8658 C8655 1.363 . S
C8658 N8656 1.356 . S
C8659 C8653 1.363 . S
C8659 C8654 1.379 . S
C8659 N8657 1.356 . S
N8660 C8652 1.356 . S
N8660 H8666 0.984 . S
N8660 H8667 0.984 . S
N8661 C8654 1.356 . S
N8661 H8664 0.984 . S
N8661 H8665 0.985 . S
H8662 N8657 0.984 . S
H8663 N8657 0.985 . S
H8664 N8661 0.984 . S
H8665 N8661 0.985 . S
H8666 N8660 0.984 . S
H8667 N8660 0.984 . S
H8668 N8656 0.984 . S
H8669 N8656 0.985 . S
C8670 C8671 1.363 . S
C8670 C8676 1.379 . S
C8670 N8678 1.356 . S
C8671 C8670 1.363 . S
C8671 C8677 1.363 . S
C8672 C8673 1.363 . S
C8672 C8677 1.379 . S
C8672 N8679 1.356 . S
C8673 C8672 1.363 . S
C8673 C8676 1.363 . S
N8674 C8676 1.356 . S
N8674 H8686 0.984 . S
N8674 H8687 0.985 . S
N8675 C8677 1.356 . S
N8675 H8680 0.984 . S
N8675 H8681 0.985 . S
C8676 C8670 1.379 . S
C8676 C8673 1.363 . S
C8676 N8674 1.356 . S
C8677 C8671 1.363 . S
C8677 C8672 1.379 . S
C8677 N8675 1.356 . S
N8678 C8670 1.356 . S
N8678 H8684 0.984 . S
N8678 H8685 0.984 . S
N8679 C8672 1.356 . S
N8679 H8682 0.984 . S
N8679 H8683 0.985 . S
H8680 N8675 0.984 . S
H8681 N8675 0.985 . S
H8682 N8679 0.984 . S
H8683 N8679 0.985 . S
H8684 N8678 0.984 . S
H8685 N8678 0.984 . S
H8686 N8674 0.984 . S
H8687 N8674 0.985 . S
C8688 C8689 1.363 . S
C8688 C8694 1.379 . S
C8688 N8696 1.356 . S
C8689 C8688 1.363 . S
C8689 C8695 1.363 . S
C8690 C8691 1.363 . S
C8690 C8695 1.379 . S
C8690 N8697 1.356 . S
C8691 C8690 1.363 . S
C8691 C8694 1.363 . S
N8692 C8694 1.356 . S
N8692 H8704 0.984 . S
N8692 H8705 0.985 . S
N8693 C8695 1.356 . S
N8693 H8698 0.984 . S
N8693 H8699 0.985 . S
C8694 C8688 1.379 . S
C8694 C8691 1.363 . S
C8694 N8692 1.356 . S
C8695 C8689 1.363 . S
C8695 C8690 1.379 . S
C8695 N8693 1.356 . S
N8696 C8688 1.356 . S
N8696 H8702 0.984 . S
N8696 H8703 0.984 . S
N8697 C8690 1.356 . S
N8697 H8700 0.984 . S
N8697 H8701 0.985 . S
H8698 N8693 0.984 . S
H8699 N8693 0.985 . S
H8700 N8697 0.984 . S
H8701 N8697 0.985 . S
H8702 N8696 0.984 . S
H8703 N8696 0.984 . S
H8704 N8692 0.984 . S
H8705 N8692 0.985 . S
C8706 C8707 1.363 . S
C8706 C8712 1.379 . S
C8706 N8714 1.356 . S
C8707 C8706 1.363 . S
C8707 C8713 1.363 . S
C8708 C8709 1.363 . S
C8708 C8713 1.379 . S
C8708 N8715 1.356 . S
C8709 C8708 1.363 . S
C8709 C8712 1.363 . S
N8710 C8712 1.356 . S
N8710 H8722 0.984 . S
N8710 H8723 0.985 . S
N8711 C8713 1.356 . S
N8711 H8716 0.984 . S
N8711 H8717 0.985 . S
C8712 C8706 1.379 . S
C8712 C8709 1.363 . S
C8712 N8710 1.356 . S
C8713 C8707 1.363 . S
C8713 C8708 1.379 . S
C8713 N8711 1.356 . S
N8714 C8706 1.356 . S
N8714 H8720 0.984 . S
N8714 H8721 0.984 . S
N8715 C8708 1.356 . S
N8715 H8718 0.984 . S
N8715 H8719 0.985 . S
H8716 N8711 0.984 . S
H8717 N8711 0.985 . S
H8718 N8715 0.984 . S
H8719 N8715 0.985 . S
H8720 N8714 0.984 . S
H8721 N8714 0.984 . S
H8722 N8710 0.984 . S
H8723 N8710 0.985 . S
C8724 C8725 1.363 . S
C8724 C8730 1.379 . S
C8724 N8732 1.356 . S
C8725 C8724 1.363 . S
C8725 C8731 1.363 . S
C8726 C8727 1.363 . S
C8726 C8731 1.379 . S
C8726 N8733 1.356 . S
C8727 C8726 1.363 . S
C8727 C8730 1.363 . S
N8728 C8730 1.356 . S
N8728 H8740 0.984 . S
N8728 H8741 0.985 . S
N8729 C8731 1.356 . S
N8729 H8734 0.984 . S
N8729 H8735 0.985 . S
C8730 C8724 1.379 . S
C8730 C8727 1.363 . S
C8730 N8728 1.356 . S
C8731 C8725 1.363 . S
C8731 C8726 1.379 . S
C8731 N8729 1.356 . S
N8732 C8724 1.356 . S
N8732 H8738 0.984 . S
N8732 H8739 0.984 . S
N8733 C8726 1.356 . S
N8733 H8736 0.984 . S
N8733 H8737 0.985 . S
H8734 N8729 0.984 . S
H8735 N8729 0.985 . S
H8736 N8733 0.984 . S
H8737 N8733 0.985 . S
H8738 N8732 0.984 . S
H8739 N8732 0.984 . S
H8740 N8728 0.984 . S
H8741 N8728 0.985 . S
C8742 C8743 1.363 . S
C8742 C8748 1.379 . S
C8742 N8750 1.356 . S
C8743 C8742 1.363 . S
C8743 C8749 1.363 . S
C8744 C8745 1.363 . S
C8744 C8749 1.379 . S
C8744 N8751 1.356 . S
C8745 C8744 1.363 . S
C8745 C8748 1.363 . S
N8746 C8748 1.356 . S
N8746 H8758 0.984 . S
N8746 H8759 0.985 . S
N8747 C8749 1.356 . S
N8747 H8752 0.984 . S
N8747 H8753 0.985 . S
C8748 C8742 1.379 . S
C8748 C8745 1.363 . S
C8748 N8746 1.356 . S
C8749 C8743 1.363 . S
C8749 C8744 1.379 . S
C8749 N8747 1.356 . S
N8750 C8742 1.356 . S
N8750 H8756 0.984 . S
N8750 H8757 0.984 . S
N8751 C8744 1.356 . S
N8751 H8754 0.984 . S
N8751 H8755 0.985 . S
H8752 N8747 0.984 . S
H8753 N8747 0.985 . S
H8754 N8751 0.984 . S
H8755 N8751 0.985 . S
H8756 N8750 0.984 . S
H8757 N8750 0.984 . S
H8758 N8746 0.984 . S
H8759 N8746 0.985 . S
C8760 C8761 1.363 . S
C8760 C8766 1.379 . S
C8760 N8768 1.356 . S
C8761 C8760 1.363 . S
C8761 C8767 1.363 . S
C8762 C8763 1.363 . S
C8762 C8767 1.379 . S
C8762 N8769 1.356 . S
C8763 C8762 1.363 . S
C8763 C8766 1.363 . S
N8764 C8766 1.356 . S
N8764 H8776 0.984 . S
N8764 H8777 0.985 . S
N8765 C8767 1.356 . S
N8765 H8770 0.984 . S
N8765 H8771 0.985 . S
C8766 C8760 1.379 . S
C8766 C8763 1.363 . S
C8766 N8764 1.356 . S
C8767 C8761 1.363 . S
C8767 C8762 1.379 . S
C8767 N8765 1.356 . S
N8768 C8760 1.356 . S
N8768 H8774 0.984 . S
N8768 H8775 0.984 . S
N8769 C8762 1.356 . S
N8769 H8772 0.984 . S
N8769 H8773 0.985 . S
H8770 N8765 0.984 . S
H8771 N8765 0.985 . S
H8772 N8769 0.984 . S
H8773 N8769 0.985 . S
H8774 N8768 0.984 . S
H8775 N8768 0.984 . S
H8776 N8764 0.984 . S
H8777 N8764 0.985 . S
C8778 C8779 1.363 . S
C8778 C8784 1.379 . S
C8778 N8786 1.356 . S
C8779 C8778 1.363 . S
C8779 C8785 1.363 . S
C8780 C8781 1.363 . S
C8780 C8785 1.379 . S
C8780 N8787 1.356 . S
C8781 C8780 1.363 . S
C8781 C8784 1.363 . S
N8782 C8784 1.356 . S
N8782 H8794 0.984 . S
N8782 H8795 0.985 . S
N8783 C8785 1.356 . S
N8783 H8788 0.984 . S
N8783 H8789 0.985 . S
C8784 C8778 1.379 . S
C8784 C8781 1.363 . S
C8784 N8782 1.356 . S
C8785 C8779 1.363 . S
C8785 C8780 1.379 . S
C8785 N8783 1.356 . S
N8786 C8778 1.356 . S
N8786 H8792 0.984 . S
N8786 H8793 0.984 . S
N8787 C8780 1.356 . S
N8787 H8790 0.984 . S
N8787 H8791 0.985 . S
H8788 N8783 0.984 . S
H8789 N8783 0.985 . S
H8790 N8787 0.984 . S
H8791 N8787 0.985 . S
H8792 N8786 0.984 . S
H8793 N8786 0.984 . S
H8794 N8782 0.984 . S
H8795 N8782 0.985 . S
C8796 C8797 1.363 . S
C8796 C8802 1.379 . S
C8796 N8804 1.356 . S
C8797 C8796 1.363 . S
C8797 C8803 1.363 . S
C8798 C8799 1.363 . S
C8798 C8803 1.379 . S
C8798 N8805 1.356 . S
C8799 C8798 1.363 . S
C8799 C8802 1.363 . S
N8800 C8802 1.356 . S
N8800 H8812 0.984 . S
N8800 H8813 0.985 . S
N8801 C8803 1.356 . S
N8801 H8806 0.984 . S
N8801 H8807 0.985 . S
C8802 C8796 1.379 . S
C8802 C8799 1.363 . S
C8802 N8800 1.356 . S
C8803 C8797 1.363 . S
C8803 C8798 1.379 . S
C8803 N8801 1.356 . S
N8804 C8796 1.356 . S
N8804 H8810 0.984 . S
N8804 H8811 0.984 . S
N8805 C8798 1.356 . S
N8805 H8808 0.984 . S
N8805 H8809 0.985 . S
H8806 N8801 0.984 . S
H8807 N8801 0.985 . S
H8808 N8805 0.984 . S
H8809 N8805 0.985 . S
H8810 N8804 0.984 . S
H8811 N8804 0.984 . S
H8812 N8800 0.984 . S
H8813 N8800 0.985 . S
C8814 C8815 1.363 . S
C8814 C8820 1.379 . S
C8814 N8822 1.356 . S
C8815 C8814 1.363 . S
C8815 C8821 1.363 . S
C8816 C8817 1.363 . S
C8816 C8821 1.379 . S
C8816 N8823 1.356 . S
C8817 C8816 1.363 . S
C8817 C8820 1.363 . S
N8818 C8820 1.356 . S
N8818 H8830 0.984 . S
N8818 H8831 0.985 . S
N8819 C8821 1.356 . S
N8819 H8824 0.984 . S
N8819 H8825 0.985 . S
C8820 C8814 1.379 . S
C8820 C8817 1.363 . S
C8820 N8818 1.356 . S
C8821 C8815 1.363 . S
C8821 C8816 1.379 . S
C8821 N8819 1.356 . S
N8822 C8814 1.356 . S
N8822 H8828 0.984 . S
N8822 H8829 0.984 . S
N8823 C8816 1.356 . S
N8823 H8826 0.984 . S
N8823 H8827 0.985 . S
H8824 N8819 0.984 . S
H8825 N8819 0.985 . S
H8826 N8823 0.984 . S
H8827 N8823 0.985 . S
H8828 N8822 0.984 . S
H8829 N8822 0.984 . S
H8830 N8818 0.984 . S
H8831 N8818 0.985 . S
C8832 C8833 1.363 . S
C8832 C8838 1.379 . S
C8832 N8840 1.356 . S
C8833 C8832 1.363 . S
C8833 C8839 1.363 . S
C8834 C8835 1.363 . S
C8834 C8839 1.379 . S
C8834 N8841 1.356 . S
C8835 C8834 1.363 . S
C8835 C8838 1.363 . S
N8836 C8838 1.356 . S
N8836 H8848 0.984 . S
N8836 H8849 0.985 . S
N8837 C8839 1.356 . S
N8837 H8842 0.984 . S
N8837 H8843 0.985 . S
C8838 C8832 1.379 . S
C8838 C8835 1.363 . S
C8838 N8836 1.356 . S
C8839 C8833 1.363 . S
C8839 C8834 1.379 . S
C8839 N8837 1.356 . S
N8840 C8832 1.356 . S
N8840 H8846 0.984 . S
N8840 H8847 0.984 . S
N8841 C8834 1.356 . S
N8841 H8844 0.984 . S
N8841 H8845 0.985 . S
H8842 N8837 0.984 . S
H8843 N8837 0.985 . S
H8844 N8841 0.984 . S
H8845 N8841 0.985 . S
H8846 N8840 0.984 . S
H8847 N8840 0.984 . S
H8848 N8836 0.984 . S
H8849 N8836 0.985 . S
C8850 C8851 1.363 . S
C8850 C8856 1.379 . S
C8850 N8858 1.356 . S
C8851 C8850 1.363 . S
C8851 C8857 1.363 . S
C8852 C8853 1.363 . S
C8852 C8857 1.379 . S
C8852 N8859 1.356 . S
C8853 C8852 1.363 . S
C8853 C8856 1.363 . S
N8854 C8856 1.356 . S
N8854 H8866 0.984 . S
N8854 H8867 0.985 . S
N8855 C8857 1.356 . S
N8855 H8860 0.984 . S
N8855 H8861 0.985 . S
C8856 C8850 1.379 . S
C8856 C8853 1.363 . S
C8856 N8854 1.356 . S
C8857 C8851 1.363 . S
C8857 C8852 1.379 . S
C8857 N8855 1.356 . S
N8858 C8850 1.356 . S
N8858 H8864 0.984 . S
N8858 H8865 0.984 . S
N8859 C8852 1.356 . S
N8859 H8862 0.984 . S
N8859 H8863 0.985 . S
H8860 N8855 0.984 . S
H8861 N8855 0.985 . S
H8862 N8859 0.984 . S
H8863 N8859 0.985 . S
H8864 N8858 0.984 . S
H8865 N8858 0.984 . S
H8866 N8854 0.984 . S
H8867 N8854 0.985 . S
C8868 C8869 1.363 . S
C8868 C8874 1.379 . S
C8868 N8876 1.356 . S
C8869 C8868 1.363 . S
C8869 C8875 1.363 . S
C8870 C8871 1.363 . S
C8870 C8875 1.379 . S
C8870 N8877 1.356 . S
C8871 C8870 1.363 . S
C8871 C8874 1.363 . S
N8872 C8874 1.356 . S
N8872 H8884 0.984 . S
N8872 H8885 0.985 . S
N8873 C8875 1.356 . S
N8873 H8878 0.984 . S
N8873 H8879 0.985 . S
C8874 C8868 1.379 . S
C8874 C8871 1.363 . S
C8874 N8872 1.356 . S
C8875 C8869 1.363 . S
C8875 C8870 1.379 . S
C8875 N8873 1.356 . S
N8876 C8868 1.356 . S
N8876 H8882 0.984 . S
N8876 H8883 0.984 . S
N8877 C8870 1.356 . S
N8877 H8880 0.984 . S
N8877 H8881 0.985 . S
H8878 N8873 0.984 . S
H8879 N8873 0.985 . S
H8880 N8877 0.984 . S
H8881 N8877 0.985 . S
H8882 N8876 0.984 . S
H8883 N8876 0.984 . S
H8884 N8872 0.984 . S
H8885 N8872 0.985 . S
C8886 C8887 1.363 . S
C8886 C8892 1.379 . S
C8886 N8894 1.356 . S
C8887 C8886 1.363 . S
C8887 C8893 1.363 . S
C8888 C8889 1.363 . S
C8888 C8893 1.379 . S
C8888 N8895 1.356 . S
C8889 C8888 1.363 . S
C8889 C8892 1.363 . S
N8890 C8892 1.356 . S
N8890 H8902 0.984 . S
N8890 H8903 0.985 . S
N8891 C8893 1.356 . S
N8891 H8896 0.984 . S
N8891 H8897 0.985 . S
C8892 C8886 1.379 . S
C8892 C8889 1.363 . S
C8892 N8890 1.356 . S
C8893 C8887 1.363 . S
C8893 C8888 1.379 . S
C8893 N8891 1.356 . S
N8894 C8886 1.356 . S
N8894 H8900 0.984 . S
N8894 H8901 0.984 . S
N8895 C8888 1.356 . S
N8895 H8898 0.984 . S
N8895 H8899 0.985 . S
H8896 N8891 0.984 . S
H8897 N8891 0.985 . S
H8898 N8895 0.984 . S
H8899 N8895 0.985 . S
H8900 N8894 0.984 . S
H8901 N8894 0.984 . S
H8902 N8890 0.984 . S
H8903 N8890 0.985 . S
C8904 C8905 1.363 . S
C8904 C8910 1.379 . S
C8904 N8912 1.356 . S
C8905 C8904 1.363 . S
C8905 C8911 1.363 . S
C8906 C8907 1.363 . S
C8906 C8911 1.379 . S
C8906 N8913 1.356 . S
C8907 C8906 1.363 . S
C8907 C8910 1.363 . S
N8908 C8910 1.356 . S
N8908 H8920 0.984 . S
N8908 H8921 0.985 . S
N8909 C8911 1.356 . S
N8909 H8914 0.984 . S
N8909 H8915 0.985 . S
C8910 C8904 1.379 . S
C8910 C8907 1.363 . S
C8910 N8908 1.356 . S
C8911 C8905 1.363 . S
C8911 C8906 1.379 . S
C8911 N8909 1.356 . S
N8912 C8904 1.356 . S
N8912 H8918 0.984 . S
N8912 H8919 0.984 . S
N8913 C8906 1.356 . S
N8913 H8916 0.984 . S
N8913 H8917 0.985 . S
H8914 N8909 0.984 . S
H8915 N8909 0.985 . S
H8916 N8913 0.984 . S
H8917 N8913 0.985 . S
H8918 N8912 0.984 . S
H8919 N8912 0.984 . S
H8920 N8908 0.984 . S
H8921 N8908 0.985 . S
C8922 C8923 1.363 . S
C8922 C8928 1.379 . S
C8922 N8930 1.356 . S
C8923 C8922 1.363 . S
C8923 C8929 1.363 . S
C8924 C8925 1.363 . S
C8924 C8929 1.379 . S
C8924 N8931 1.356 . S
C8925 C8924 1.363 . S
C8925 C8928 1.363 . S
N8926 C8928 1.356 . S
N8926 H8938 0.984 . S
N8926 H8939 0.985 . S
N8927 C8929 1.356 . S
N8927 H8932 0.984 . S
N8927 H8933 0.985 . S
C8928 C8922 1.379 . S
C8928 C8925 1.363 . S
C8928 N8926 1.356 . S
C8929 C8923 1.363 . S
C8929 C8924 1.379 . S
C8929 N8927 1.356 . S
N8930 C8922 1.356 . S
N8930 H8936 0.984 . S
N8930 H8937 0.984 . S
N8931 C8924 1.356 . S
N8931 H8934 0.984 . S
N8931 H8935 0.985 . S
H8932 N8927 0.984 . S
H8933 N8927 0.985 . S
H8934 N8931 0.984 . S
H8935 N8931 0.985 . S
H8936 N8930 0.984 . S
H8937 N8930 0.984 . S
H8938 N8926 0.984 . S
H8939 N8926 0.985 . S
C8940 C8941 1.363 . S
C8940 C8946 1.379 . S
C8940 N8948 1.356 . S
C8941 C8940 1.363 . S
C8941 C8947 1.363 . S
C8942 C8943 1.363 . S
C8942 C8947 1.379 . S
C8942 N8949 1.356 . S
C8943 C8942 1.363 . S
C8943 C8946 1.363 . S
N8944 C8946 1.356 . S
N8944 H8956 0.984 . S
N8944 H8957 0.985 . S
N8945 C8947 1.356 . S
N8945 H8950 0.984 . S
N8945 H8951 0.985 . S
C8946 C8940 1.379 . S
C8946 C8943 1.363 . S
C8946 N8944 1.356 . S
C8947 C8941 1.363 . S
C8947 C8942 1.379 . S
C8947 N8945 1.356 . S
N8948 C8940 1.356 . S
N8948 H8954 0.984 . S
N8948 H8955 0.984 . S
N8949 C8942 1.356 . S
N8949 H8952 0.984 . S
N8949 H8953 0.985 . S
H8950 N8945 0.984 . S
H8951 N8945 0.985 . S
H8952 N8949 0.984 . S
H8953 N8949 0.985 . S
H8954 N8948 0.984 . S
H8955 N8948 0.984 . S
H8956 N8944 0.984 . S
H8957 N8944 0.985 . S
C8958 C8959 1.363 . S
C8958 C8964 1.379 . S
C8958 N8966 1.356 . S
C8959 C8958 1.363 . S
C8959 C8965 1.363 . S
C8960 C8961 1.363 . S
C8960 C8965 1.379 . S
C8960 N8967 1.356 . S
C8961 C8960 1.363 . S
C8961 C8964 1.363 . S
N8962 C8964 1.356 . S
N8962 H8974 0.984 . S
N8962 H8975 0.985 . S
N8963 C8965 1.356 . S
N8963 H8968 0.984 . S
N8963 H8969 0.985 . S
C8964 C8958 1.379 . S
C8964 C8961 1.363 . S
C8964 N8962 1.356 . S
C8965 C8959 1.363 . S
C8965 C8960 1.379 . S
C8965 N8963 1.356 . S
N8966 C8958 1.356 . S
N8966 H8972 0.984 . S
N8966 H8973 0.984 . S
N8967 C8960 1.356 . S
N8967 H8970 0.984 . S
N8967 H8971 0.985 . S
H8968 N8963 0.984 . S
H8969 N8963 0.985 . S
H8970 N8967 0.984 . S
H8971 N8967 0.985 . S
H8972 N8966 0.984 . S
H8973 N8966 0.984 . S
H8974 N8962 0.984 . S
H8975 N8962 0.985 . S
C8976 C8977 1.363 . S
C8976 C8982 1.379 . S
C8976 N8984 1.356 . S
C8977 C8976 1.363 . S
C8977 C8983 1.363 . S
C8978 C8979 1.363 . S
C8978 C8983 1.379 . S
C8978 N8985 1.356 . S
C8979 C8978 1.363 . S
C8979 C8982 1.363 . S
N8980 C8982 1.356 . S
N8980 H8992 0.984 . S
N8980 H8993 0.985 . S
N8981 C8983 1.356 . S
N8981 H8986 0.984 . S
N8981 H8987 0.985 . S
C8982 C8976 1.379 . S
C8982 C8979 1.363 . S
C8982 N8980 1.356 . S
C8983 C8977 1.363 . S
C8983 C8978 1.379 . S
C8983 N8981 1.356 . S
N8984 C8976 1.356 . S
N8984 H8990 0.984 . S
N8984 H8991 0.984 . S
N8985 C8978 1.356 . S
N8985 H8988 0.984 . S
N8985 H8989 0.985 . S
H8986 N8981 0.984 . S
H8987 N8981 0.985 . S
H8988 N8985 0.984 . S
H8989 N8985 0.985 . S
H8990 N8984 0.984 . S
H8991 N8984 0.984 . S
H8992 N8980 0.984 . S
H8993 N8980 0.985 . S
C8994 C8995 1.363 . S
C8994 C9000 1.379 . S
C8994 N9002 1.356 . S
C8995 C8994 1.363 . S
C8995 C9001 1.363 . S
C8996 C8997 1.363 . S
C8996 C9001 1.379 . S
C8996 N9003 1.356 . S
C8997 C8996 1.363 . S
C8997 C9000 1.363 . S
N8998 C9000 1.356 . S
N8998 H9010 0.984 . S
N8998 H9011 0.985 . S
N8999 C9001 1.356 . S
N8999 H9004 0.984 . S
N8999 H9005 0.985 . S
C9000 C8994 1.379 . S
C9000 C8997 1.363 . S
C9000 N8998 1.356 . S
C9001 C8995 1.363 . S
C9001 C8996 1.379 . S
C9001 N8999 1.356 . S
N9002 C8994 1.356 . S
N9002 H9008 0.984 . S
N9002 H9009 0.984 . S
N9003 C8996 1.356 . S
N9003 H9006 0.984 . S
N9003 H9007 0.985 . S
H9004 N8999 0.984 . S
H9005 N8999 0.985 . S
H9006 N9003 0.984 . S
H9007 N9003 0.985 . S
H9008 N9002 0.984 . S
H9009 N9002 0.984 . S
H9010 N8998 0.984 . S
H9011 N8998 0.985 . S
C9012 C9013 1.363 . S
C9012 C9018 1.379 . S
C9012 N9020 1.356 . S
C9013 C9012 1.363 . S
C9013 C9019 1.363 . S
C9014 C9015 1.363 . S
C9014 C9019 1.379 . S
C9014 N9021 1.356 . S
C9015 C9014 1.363 . S
C9015 C9018 1.363 . S
N9016 C9018 1.356 . S
N9016 H9028 0.984 . S
N9016 H9029 0.985 . S
N9017 C9019 1.356 . S
N9017 H9022 0.984 . S
N9017 H9023 0.985 . S
C9018 C9012 1.379 . S
C9018 C9015 1.363 . S
C9018 N9016 1.356 . S
C9019 C9013 1.363 . S
C9019 C9014 1.379 . S
C9019 N9017 1.356 . S
N9020 C9012 1.356 . S
N9020 H9026 0.984 . S
N9020 H9027 0.984 . S
N9021 C9014 1.356 . S
N9021 H9024 0.984 . S
N9021 H9025 0.985 . S
H9022 N9017 0.984 . S
H9023 N9017 0.985 . S
H9024 N9021 0.984 . S
H9025 N9021 0.985 . S
H9026 N9020 0.984 . S
H9027 N9020 0.984 . S
H9028 N9016 0.984 . S
H9029 N9016 0.985 . S
C9030 C9031 1.363 . S
C9030 C9036 1.379 . S
C9030 N9038 1.356 . S
C9031 C9030 1.363 . S
C9031 C9037 1.363 . S
C9032 C9033 1.363 . S
C9032 C9037 1.379 . S
C9032 N9039 1.356 . S
C9033 C9032 1.363 . S
C9033 C9036 1.363 . S
N9034 C9036 1.356 . S
N9034 H9046 0.984 . S
N9034 H9047 0.985 . S
N9035 C9037 1.356 . S
N9035 H9040 0.984 . S
N9035 H9041 0.985 . S
C9036 C9030 1.379 . S
C9036 C9033 1.363 . S
C9036 N9034 1.356 . S
C9037 C9031 1.363 . S
C9037 C9032 1.379 . S
C9037 N9035 1.356 . S
N9038 C9030 1.356 . S
N9038 H9044 0.984 . S
N9038 H9045 0.984 . S
N9039 C9032 1.356 . S
N9039 H9042 0.984 . S
N9039 H9043 0.985 . S
H9040 N9035 0.984 . S
H9041 N9035 0.985 . S
H9042 N9039 0.984 . S
H9043 N9039 0.985 . S
H9044 N9038 0.984 . S
H9045 N9038 0.984 . S
H9046 N9034 0.984 . S
H9047 N9034 0.985 . S
C9048 C9049 1.363 . S
C9048 C9054 1.379 . S
C9048 N9056 1.356 . S
C9049 C9048 1.363 . S
C9049 C9055 1.363 . S
C9050 C9051 1.363 . S
C9050 C9055 1.379 . S
C9050 N9057 1.356 . S
C9051 C9050 1.363 . S
C9051 C9054 1.363 . S
N9052 C9054 1.356 . S
N9052 H9064 0.984 . S
N9052 H9065 0.985 . S
N9053 C9055 1.356 . S
N9053 H9058 0.984 . S
N9053 H9059 0.985 . S
C9054 C9048 1.379 . S
C9054 C9051 1.363 . S
C9054 N9052 1.356 . S
C9055 C9049 1.363 . S
C9055 C9050 1.379 . S
C9055 N9053 1.356 . S
N9056 C9048 1.356 . S
N9056 H9062 0.984 . S
N9056 H9063 0.984 . S
N9057 C9050 1.356 . S
N9057 H9060 0.984 . S
N9057 H9061 0.985 . S
H9058 N9053 0.984 . S
H9059 N9053 0.985 . S
H9060 N9057 0.984 . S
H9061 N9057 0.985 . S
H9062 N9056 0.984 . S
H9063 N9056 0.984 . S
H9064 N9052 0.984 . S
H9065 N9052 0.985 . S
C9066 C9067 1.363 . S
C9066 C9072 1.379 . S
C9066 N9074 1.356 . S
C9067 C9066 1.363 . S
C9067 C9073 1.363 . S
C9068 C9069 1.363 . S
C9068 C9073 1.379 . S
C9068 N9075 1.356 . S
C9069 C9068 1.363 . S
C9069 C9072 1.363 . S
N9070 C9072 1.356 . S
N9070 H9082 0.984 . S
N9070 H9083 0.985 . S
N9071 C9073 1.356 . S
N9071 H9076 0.984 . S
N9071 H9077 0.985 . S
C9072 C9066 1.379 . S
C9072 C9069 1.363 . S
C9072 N9070 1.356 . S
C9073 C9067 1.363 . S
C9073 C9068 1.379 . S
C9073 N9071 1.356 . S
N9074 C9066 1.356 . S
N9074 H9080 0.984 . S
N9074 H9081 0.984 . S
N9075 C9068 1.356 . S
N9075 H9078 0.984 . S
N9075 H9079 0.985 . S
H9076 N9071 0.984 . S
H9077 N9071 0.985 . S
H9078 N9075 0.984 . S
H9079 N9075 0.985 . S
H9080 N9074 0.984 . S
H9081 N9074 0.984 . S
H9082 N9070 0.984 . S
H9083 N9070 0.985 . S
C9084 C9085 1.363 . S
C9084 C9090 1.379 . S
C9084 N9092 1.356 . S
C9085 C9084 1.363 . S
C9085 C9091 1.363 . S
C9086 C9087 1.363 . S
C9086 C9091 1.379 . S
C9086 N9093 1.356 . S
C9087 C9086 1.363 . S
C9087 C9090 1.363 . S
N9088 C9090 1.356 . S
N9088 H9100 0.984 . S
N9088 H9101 0.985 . S
N9089 C9091 1.356 . S
N9089 H9094 0.984 . S
N9089 H9095 0.985 . S
C9090 C9084 1.379 . S
C9090 C9087 1.363 . S
C9090 N9088 1.356 . S
C9091 C9085 1.363 . S
C9091 C9086 1.379 . S
C9091 N9089 1.356 . S
N9092 C9084 1.356 . S
N9092 H9098 0.984 . S
N9092 H9099 0.984 . S
N9093 C9086 1.356 . S
N9093 H9096 0.984 . S
N9093 H9097 0.985 . S
H9094 N9089 0.984 . S
H9095 N9089 0.985 . S
H9096 N9093 0.984 . S
H9097 N9093 0.985 . S
H9098 N9092 0.984 . S
H9099 N9092 0.984 . S
H9100 N9088 0.984 . S
H9101 N9088 0.985 . S
C9102 C9103 1.363 . S
C9102 C9108 1.379 . S
C9102 N9110 1.356 . S
C9103 C9102 1.363 . S
C9103 C9109 1.363 . S
C9104 C9105 1.363 . S
C9104 C9109 1.379 . S
C9104 N9111 1.356 . S
C9105 C9104 1.363 . S
C9105 C9108 1.363 . S
N9106 C9108 1.356 . S
N9106 H9118 0.984 . S
N9106 H9119 0.985 . S
N9107 C9109 1.356 . S
N9107 H9112 0.984 . S
N9107 H9113 0.985 . S
C9108 C9102 1.379 . S
C9108 C9105 1.363 . S
C9108 N9106 1.356 . S
C9109 C9103 1.363 . S
C9109 C9104 1.379 . S
C9109 N9107 1.356 . S
N9110 C9102 1.356 . S
N9110 H9116 0.984 . S
N9110 H9117 0.984 . S
N9111 C9104 1.356 . S
N9111 H9114 0.984 . S
N9111 H9115 0.985 . S
H9112 N9107 0.984 . S
H9113 N9107 0.985 . S
H9114 N9111 0.984 . S
H9115 N9111 0.985 . S
H9116 N9110 0.984 . S
H9117 N9110 0.984 . S
H9118 N9106 0.984 . S
H9119 N9106 0.985 . S
C9120 C9121 1.363 . S
C9120 C9126 1.379 . S
C9120 N9128 1.356 . S
C9121 C9120 1.363 . S
C9121 C9127 1.363 . S
C9122 C9123 1.363 . S
C9122 C9127 1.379 . S
C9122 N9129 1.356 . S
C9123 C9122 1.363 . S
C9123 C9126 1.363 . S
N9124 C9126 1.356 . S
N9124 H9136 0.984 . S
N9124 H9137 0.985 . S
N9125 C9127 1.356 . S
N9125 H9130 0.984 . S
N9125 H9131 0.985 . S
C9126 C9120 1.379 . S
C9126 C9123 1.363 . S
C9126 N9124 1.356 . S
C9127 C9121 1.363 . S
C9127 C9122 1.379 . S
C9127 N9125 1.356 . S
N9128 C9120 1.356 . S
N9128 H9134 0.984 . S
N9128 H9135 0.984 . S
N9129 C9122 1.356 . S
N9129 H9132 0.984 . S
N9129 H9133 0.985 . S
H9130 N9125 0.984 . S
H9131 N9125 0.985 . S
H9132 N9129 0.984 . S
H9133 N9129 0.985 . S
H9134 N9128 0.984 . S
H9135 N9128 0.984 . S
H9136 N9124 0.984 . S
H9137 N9124 0.985 . S
C9138 C9139 1.363 . S
C9138 C9144 1.379 . S
C9138 N9146 1.356 . S
C9139 C9138 1.363 . S
C9139 C9145 1.363 . S
C9140 C9141 1.363 . S
C9140 C9145 1.379 . S
C9140 N9147 1.356 . S
C9141 C9140 1.363 . S
C9141 C9144 1.363 . S
N9142 C9144 1.356 . S
N9142 H9154 0.984 . S
N9142 H9155 0.985 . S
N9143 C9145 1.356 . S
N9143 H9148 0.984 . S
N9143 H9149 0.985 . S
C9144 C9138 1.379 . S
C9144 C9141 1.363 . S
C9144 N9142 1.356 . S
C9145 C9139 1.363 . S
C9145 C9140 1.379 . S
C9145 N9143 1.356 . S
N9146 C9138 1.356 . S
N9146 H9152 0.984 . S
N9146 H9153 0.984 . S
N9147 C9140 1.356 . S
N9147 H9150 0.984 . S
N9147 H9151 0.985 . S
H9148 N9143 0.984 . S
H9149 N9143 0.985 . S
H9150 N9147 0.984 . S
H9151 N9147 0.985 . S
H9152 N9146 0.984 . S
H9153 N9146 0.984 . S
H9154 N9142 0.984 . S
H9155 N9142 0.985 . S
C9156 C9157 1.363 . S
C9156 C9162 1.379 . S
C9156 N9164 1.356 . S
C9157 C9156 1.363 . S
C9157 C9163 1.363 . S
C9158 C9159 1.363 . S
C9158 C9163 1.379 . S
C9158 N9165 1.356 . S
C9159 C9158 1.363 . S
C9159 C9162 1.363 . S
N9160 C9162 1.356 . S
N9160 H9172 0.984 . S
N9160 H9173 0.985 . S
N9161 C9163 1.356 . S
N9161 H9166 0.984 . S
N9161 H9167 0.985 . S
C9162 C9156 1.379 . S
C9162 C9159 1.363 . S
C9162 N9160 1.356 . S
C9163 C9157 1.363 . S
C9163 C9158 1.379 . S
C9163 N9161 1.356 . S
N9164 C9156 1.356 . S
N9164 H9170 0.984 . S
N9164 H9171 0.984 . S
N9165 C9158 1.356 . S
N9165 H9168 0.984 . S
N9165 H9169 0.985 . S
H9166 N9161 0.984 . S
H9167 N9161 0.985 . S
H9168 N9165 0.984 . S
H9169 N9165 0.985 . S
H9170 N9164 0.984 . S
H9171 N9164 0.984 . S
H9172 N9160 0.984 . S
H9173 N9160 0.985 . S
C9174 C9175 1.363 . S
C9174 C9180 1.379 . S
C9174 N9182 1.356 . S
C9175 C9174 1.363 . S
C9175 C9181 1.363 . S
C9176 C9177 1.363 . S
C9176 C9181 1.379 . S
C9176 N9183 1.356 . S
C9177 C9176 1.363 . S
C9177 C9180 1.363 . S
N9178 C9180 1.356 . S
N9178 H9190 0.984 . S
N9178 H9191 0.985 . S
N9179 C9181 1.356 . S
N9179 H9184 0.984 . S
N9179 H9185 0.985 . S
C9180 C9174 1.379 . S
C9180 C9177 1.363 . S
C9180 N9178 1.356 . S
C9181 C9175 1.363 . S
C9181 C9176 1.379 . S
C9181 N9179 1.356 . S
N9182 C9174 1.356 . S
N9182 H9188 0.984 . S
N9182 H9189 0.984 . S
N9183 C9176 1.356 . S
N9183 H9186 0.984 . S
N9183 H9187 0.985 . S
H9184 N9179 0.984 . S
H9185 N9179 0.985 . S
H9186 N9183 0.984 . S
H9187 N9183 0.985 . S
H9188 N9182 0.984 . S
H9189 N9182 0.984 . S
H9190 N9178 0.984 . S
H9191 N9178 0.985 . S
C9192 C9193 1.363 . S
C9192 C9198 1.379 . S
C9192 N9200 1.356 . S
C9193 C9192 1.363 . S
C9193 C9199 1.363 . S
C9194 C9195 1.363 . S
C9194 C9199 1.379 . S
C9194 N9201 1.356 . S
C9195 C9194 1.363 . S
C9195 C9198 1.363 . S
N9196 C9198 1.356 . S
N9196 H9208 0.984 . S
N9196 H9209 0.985 . S
N9197 C9199 1.356 . S
N9197 H9202 0.984 . S
N9197 H9203 0.985 . S
C9198 C9192 1.379 . S
C9198 C9195 1.363 . S
C9198 N9196 1.356 . S
C9199 C9193 1.363 . S
C9199 C9194 1.379 . S
C9199 N9197 1.356 . S
N9200 C9192 1.356 . S
N9200 H9206 0.984 . S
N9200 H9207 0.984 . S
N9201 C9194 1.356 . S
N9201 H9204 0.984 . S
N9201 H9205 0.985 . S
H9202 N9197 0.984 . S
H9203 N9197 0.985 . S
H9204 N9201 0.984 . S
H9205 N9201 0.985 . S
H9206 N9200 0.984 . S
H9207 N9200 0.984 . S
H9208 N9196 0.984 . S
H9209 N9196 0.985 . S
C9210 C9211 1.363 . S
C9210 C9216 1.379 . S
C9210 N9218 1.356 . S
C9211 C9210 1.363 . S
C9211 C9217 1.363 . S
C9212 C9213 1.363 . S
C9212 C9217 1.379 . S
C9212 N9219 1.356 . S
C9213 C9212 1.363 . S
C9213 C9216 1.363 . S
N9214 C9216 1.356 . S
N9214 H9226 0.984 . S
N9214 H9227 0.985 . S
N9215 C9217 1.356 . S
N9215 H9220 0.984 . S
N9215 H9221 0.985 . S
C9216 C9210 1.379 . S
C9216 C9213 1.363 . S
C9216 N9214 1.356 . S
C9217 C9211 1.363 . S
C9217 C9212 1.379 . S
C9217 N9215 1.356 . S
N9218 C9210 1.356 . S
N9218 H9224 0.984 . S
N9218 H9225 0.984 . S
N9219 C9212 1.356 . S
N9219 H9222 0.984 . S
N9219 H9223 0.985 . S
H9220 N9215 0.984 . S
H9221 N9215 0.985 . S
H9222 N9219 0.984 . S
H9223 N9219 0.985 . S
H9224 N9218 0.984 . S
H9225 N9218 0.984 . S
H9226 N9214 0.984 . S
H9227 N9214 0.985 . S
C9228 C9229 1.363 . S
C9228 C9234 1.379 . S
C9228 N9236 1.356 . S
C9229 C9228 1.363 . S
C9229 C9235 1.363 . S
C9230 C9231 1.363 . S
C9230 C9235 1.379 . S
C9230 N9237 1.356 . S
C9231 C9230 1.363 . S
C9231 C9234 1.363 . S
N9232 C9234 1.356 . S
N9232 H9244 0.984 . S
N9232 H9245 0.985 . S
N9233 C9235 1.356 . S
N9233 H9238 0.984 . S
N9233 H9239 0.985 . S
C9234 C9228 1.379 . S
C9234 C9231 1.363 . S
C9234 N9232 1.356 . S
C9235 C9229 1.363 . S
C9235 C9230 1.379 . S
C9235 N9233 1.356 . S
N9236 C9228 1.356 . S
N9236 H9242 0.984 . S
N9236 H9243 0.984 . S
N9237 C9230 1.356 . S
N9237 H9240 0.984 . S
N9237 H9241 0.985 . S
H9238 N9233 0.984 . S
H9239 N9233 0.985 . S
H9240 N9237 0.984 . S
H9241 N9237 0.985 . S
H9242 N9236 0.984 . S
H9243 N9236 0.984 . S
H9244 N9232 0.984 . S
H9245 N9232 0.985 . S
C9246 C9247 1.363 . S
C9246 C9252 1.379 . S
C9246 N9254 1.356 . S
C9247 C9246 1.363 . S
C9247 C9253 1.363 . S
C9248 C9249 1.363 . S
C9248 C9253 1.379 . S
C9248 N9255 1.356 . S
C9249 C9248 1.363 . S
C9249 C9252 1.363 . S
N9250 C9252 1.356 . S
N9250 H9262 0.984 . S
N9250 H9263 0.985 . S
N9251 C9253 1.356 . S
N9251 H9256 0.984 . S
N9251 H9257 0.985 . S
C9252 C9246 1.379 . S
C9252 C9249 1.363 . S
C9252 N9250 1.356 . S
C9253 C9247 1.363 . S
C9253 C9248 1.379 . S
C9253 N9251 1.356 . S
N9254 C9246 1.356 . S
N9254 H9260 0.984 . S
N9254 H9261 0.984 . S
N9255 C9248 1.356 . S
N9255 H9258 0.984 . S
N9255 H9259 0.985 . S
H9256 N9251 0.984 . S
H9257 N9251 0.985 . S
H9258 N9255 0.984 . S
H9259 N9255 0.985 . S
H9260 N9254 0.984 . S
H9261 N9254 0.984 . S
H9262 N9250 0.984 . S
H9263 N9250 0.985 . S
C9264 C9265 1.363 . S
C9264 C9270 1.379 . S
C9264 N9272 1.356 . S
C9265 C9264 1.363 . S
C9265 C9271 1.363 . S
C9266 C9267 1.363 . S
C9266 C9271 1.379 . S
C9266 N9273 1.356 . S
C9267 C9266 1.363 . S
C9267 C9270 1.363 . S
N9268 C9270 1.356 . S
N9268 H9280 0.984 . S
N9268 H9281 0.985 . S
N9269 C9271 1.356 . S
N9269 H9274 0.984 . S
N9269 H9275 0.985 . S
C9270 C9264 1.379 . S
C9270 C9267 1.363 . S
C9270 N9268 1.356 . S
C9271 C9265 1.363 . S
C9271 C9266 1.379 . S
C9271 N9269 1.356 . S
N9272 C9264 1.356 . S
N9272 H9278 0.984 . S
N9272 H9279 0.984 . S
N9273 C9266 1.356 . S
N9273 H9276 0.984 . S
N9273 H9277 0.985 . S
H9274 N9269 0.984 . S
H9275 N9269 0.985 . S
H9276 N9273 0.984 . S
H9277 N9273 0.985 . S
H9278 N9272 0.984 . S
H9279 N9272 0.984 . S
H9280 N9268 0.984 . S
H9281 N9268 0.985 . S
C9282 C9283 1.363 . S
C9282 C9288 1.379 . S
C9282 N9290 1.356 . S
C9283 C9282 1.363 . S
C9283 C9289 1.363 . S
C9284 C9285 1.363 . S
C9284 C9289 1.379 . S
C9284 N9291 1.356 . S
C9285 C9284 1.363 . S
C9285 C9288 1.363 . S
N9286 C9288 1.356 . S
N9286 H9298 0.984 . S
N9286 H9299 0.985 . S
N9287 C9289 1.356 . S
N9287 H9292 0.984 . S
N9287 H9293 0.985 . S
C9288 C9282 1.379 . S
C9288 C9285 1.363 . S
C9288 N9286 1.356 . S
C9289 C9283 1.363 . S
C9289 C9284 1.379 . S
C9289 N9287 1.356 . S
N9290 C9282 1.356 . S
N9290 H9296 0.984 . S
N9290 H9297 0.984 . S
N9291 C9284 1.356 . S
N9291 H9294 0.984 . S
N9291 H9295 0.985 . S
H9292 N9287 0.984 . S
H9293 N9287 0.985 . S
H9294 N9291 0.984 . S
H9295 N9291 0.985 . S
H9296 N9290 0.984 . S
H9297 N9290 0.984 . S
H9298 N9286 0.984 . S
H9299 N9286 0.985 . S
C9300 C9301 1.363 . S
C9300 C9306 1.379 . S
C9300 N9308 1.356 . S
C9301 C9300 1.363 . S
C9301 C9307 1.363 . S
C9302 C9303 1.363 . S
C9302 C9307 1.379 . S
C9302 N9309 1.356 . S
C9303 C9302 1.363 . S
C9303 C9306 1.363 . S
N9304 C9306 1.356 . S
N9304 H9316 0.984 . S
N9304 H9317 0.985 . S
N9305 C9307 1.356 . S
N9305 H9310 0.984 . S
N9305 H9311 0.985 . S
C9306 C9300 1.379 . S
C9306 C9303 1.363 . S
C9306 N9304 1.356 . S
C9307 C9301 1.363 . S
C9307 C9302 1.379 . S
C9307 N9305 1.356 . S
N9308 C9300 1.356 . S
N9308 H9314 0.984 . S
N9308 H9315 0.984 . S
N9309 C9302 1.356 . S
N9309 H9312 0.984 . S
N9309 H9313 0.985 . S
H9310 N9305 0.984 . S
H9311 N9305 0.985 . S
H9312 N9309 0.984 . S
H9313 N9309 0.985 . S
H9314 N9308 0.984 . S
H9315 N9308 0.984 . S
H9316 N9304 0.984 . S
H9317 N9304 0.985 . S
C9318 C9319 1.363 . S
C9318 C9324 1.379 . S
C9318 N9326 1.356 . S
C9319 C9318 1.363 . S
C9319 C9325 1.363 . S
C9320 C9321 1.363 . S
C9320 C9325 1.379 . S
C9320 N9327 1.356 . S
C9321 C9320 1.363 . S
C9321 C9324 1.363 . S
N9322 C9324 1.356 . S
N9322 H9334 0.984 . S
N9322 H9335 0.985 . S
N9323 C9325 1.356 . S
N9323 H9328 0.984 . S
N9323 H9329 0.985 . S
C9324 C9318 1.379 . S
C9324 C9321 1.363 . S
C9324 N9322 1.356 . S
C9325 C9319 1.363 . S
C9325 C9320 1.379 . S
C9325 N9323 1.356 . S
N9326 C9318 1.356 . S
N9326 H9332 0.984 . S
N9326 H9333 0.984 . S
N9327 C9320 1.356 . S
N9327 H9330 0.984 . S
N9327 H9331 0.985 . S
H9328 N9323 0.984 . S
H9329 N9323 0.985 . S
H9330 N9327 0.984 . S
H9331 N9327 0.985 . S
H9332 N9326 0.984 . S
H9333 N9326 0.984 . S
H9334 N9322 0.984 . S
H9335 N9322 0.985 . S
C9336 C9337 1.363 . S
C9336 C9342 1.379 . S
C9336 N9344 1.356 . S
C9337 C9336 1.363 . S
C9337 C9343 1.363 . S
C9338 C9339 1.363 . S
C9338 C9343 1.379 . S
C9338 N9345 1.356 . S
C9339 C9338 1.363 . S
C9339 C9342 1.363 . S
N9340 C9342 1.356 . S
N9340 H9352 0.984 . S
N9340 H9353 0.985 . S
N9341 C9343 1.356 . S
N9341 H9346 0.984 . S
N9341 H9347 0.985 . S
C9342 C9336 1.379 . S
C9342 C9339 1.363 . S
C9342 N9340 1.356 . S
C9343 C9337 1.363 . S
C9343 C9338 1.379 . S
C9343 N9341 1.356 . S
N9344 C9336 1.356 . S
N9344 H9350 0.984 . S
N9344 H9351 0.984 . S
N9345 C9338 1.356 . S
N9345 H9348 0.984 . S
N9345 H9349 0.985 . S
H9346 N9341 0.984 . S
H9347 N9341 0.985 . S
H9348 N9345 0.984 . S
H9349 N9345 0.985 . S
H9350 N9344 0.984 . S
H9351 N9344 0.984 . S
H9352 N9340 0.984 . S
H9353 N9340 0.985 . S
C9354 C9355 1.363 . S
C9354 C9360 1.379 . S
C9354 N9362 1.356 . S
C9355 C9354 1.363 . S
C9355 C9361 1.363 . S
C9356 C9357 1.363 . S
C9356 C9361 1.379 . S
C9356 N9363 1.356 . S
C9357 C9356 1.363 . S
C9357 C9360 1.363 . S
N9358 C9360 1.356 . S
N9358 H9370 0.984 . S
N9358 H9371 0.985 . S
N9359 C9361 1.356 . S
N9359 H9364 0.984 . S
N9359 H9365 0.985 . S
C9360 C9354 1.379 . S
C9360 C9357 1.363 . S
C9360 N9358 1.356 . S
C9361 C9355 1.363 . S
C9361 C9356 1.379 . S
C9361 N9359 1.356 . S
N9362 C9354 1.356 . S
N9362 H9368 0.984 . S
N9362 H9369 0.984 . S
N9363 C9356 1.356 . S
N9363 H9366 0.984 . S
N9363 H9367 0.985 . S
H9364 N9359 0.984 . S
H9365 N9359 0.985 . S
H9366 N9363 0.984 . S
H9367 N9363 0.985 . S
H9368 N9362 0.984 . S
H9369 N9362 0.984 . S
H9370 N9358 0.984 . S
H9371 N9358 0.985 . S
C9372 C9373 1.363 . S
C9372 C9378 1.379 . S
C9372 N9380 1.356 . S
C9373 C9372 1.363 . S
C9373 C9379 1.363 . S
C9374 C9375 1.363 . S
C9374 C9379 1.379 . S
C9374 N9381 1.356 . S
C9375 C9374 1.363 . S
C9375 C9378 1.363 . S
N9376 C9378 1.356 . S
N9376 H9388 0.984 . S
N9376 H9389 0.985 . S
N9377 C9379 1.356 . S
N9377 H9382 0.984 . S
N9377 H9383 0.985 . S
C9378 C9372 1.379 . S
C9378 C9375 1.363 . S
C9378 N9376 1.356 . S
C9379 C9373 1.363 . S
C9379 C9374 1.379 . S
C9379 N9377 1.356 . S
N9380 C9372 1.356 . S
N9380 H9386 0.984 . S
N9380 H9387 0.984 . S
N9381 C9374 1.356 . S
N9381 H9384 0.984 . S
N9381 H9385 0.985 . S
H9382 N9377 0.984 . S
H9383 N9377 0.985 . S
H9384 N9381 0.984 . S
H9385 N9381 0.985 . S
H9386 N9380 0.984 . S
H9387 N9380 0.984 . S
H9388 N9376 0.984 . S
H9389 N9376 0.985 . S
C9390 C9391 1.363 . S
C9390 C9396 1.379 . S
C9390 N9398 1.356 . S
C9391 C9390 1.363 . S
C9391 C9397 1.363 . S
C9392 C9393 1.363 . S
C9392 C9397 1.379 . S
C9392 N9399 1.356 . S
C9393 C9392 1.363 . S
C9393 C9396 1.363 . S
N9394 C9396 1.356 . S
N9394 H9406 0.984 . S
N9394 H9407 0.985 . S
N9395 C9397 1.356 . S
N9395 H9400 0.984 . S
N9395 H9401 0.985 . S
C9396 C9390 1.379 . S
C9396 C9393 1.363 . S
C9396 N9394 1.356 . S
C9397 C9391 1.363 . S
C9397 C9392 1.379 . S
C9397 N9395 1.356 . S
N9398 C9390 1.356 . S
N9398 H9404 0.984 . S
N9398 H9405 0.984 . S
N9399 C9392 1.356 . S
N9399 H9402 0.984 . S
N9399 H9403 0.985 . S
H9400 N9395 0.984 . S
H9401 N9395 0.985 . S
H9402 N9399 0.984 . S
H9403 N9399 0.985 . S
H9404 N9398 0.984 . S
H9405 N9398 0.984 . S
H9406 N9394 0.984 . S
H9407 N9394 0.985 . S
C9408 C9409 1.363 . S
C9408 C9414 1.379 . S
C9408 N9416 1.356 . S
C9409 C9408 1.363 . S
C9409 C9415 1.363 . S
C9410 C9411 1.363 . S
C9410 C9415 1.379 . S
C9410 N9417 1.356 . S
C9411 C9410 1.363 . S
C9411 C9414 1.363 . S
N9412 C9414 1.356 . S
N9412 H9424 0.984 . S
N9412 H9425 0.985 . S
N9413 C9415 1.356 . S
N9413 H9418 0.984 . S
N9413 H9419 0.985 . S
C9414 C9408 1.379 . S
C9414 C9411 1.363 . S
C9414 N9412 1.356 . S
C9415 C9409 1.363 . S
C9415 C9410 1.379 . S
C9415 N9413 1.356 . S
N9416 C9408 1.356 . S
N9416 H9422 0.984 . S
N9416 H9423 0.984 . S
N9417 C9410 1.356 . S
N9417 H9420 0.984 . S
N9417 H9421 0.985 . S
H9418 N9413 0.984 . S
H9419 N9413 0.985 . S
H9420 N9417 0.984 . S
H9421 N9417 0.985 . S
H9422 N9416 0.984 . S
H9423 N9416 0.984 . S
H9424 N9412 0.984 . S
H9425 N9412 0.985 . S
C9426 C9427 1.363 . S
C9426 C9432 1.379 . S
C9426 N9434 1.356 . S
C9427 C9426 1.363 . S
C9427 C9433 1.363 . S
C9428 C9429 1.363 . S
C9428 C9433 1.379 . S
C9428 N9435 1.356 . S
C9429 C9428 1.363 . S
C9429 C9432 1.363 . S
N9430 C9432 1.356 . S
N9430 H9442 0.984 . S
N9430 H9443 0.985 . S
N9431 C9433 1.356 . S
N9431 H9436 0.984 . S
N9431 H9437 0.985 . S
C9432 C9426 1.379 . S
C9432 C9429 1.363 . S
C9432 N9430 1.356 . S
C9433 C9427 1.363 . S
C9433 C9428 1.379 . S
C9433 N9431 1.356 . S
N9434 C9426 1.356 . S
N9434 H9440 0.984 . S
N9434 H9441 0.984 . S
N9435 C9428 1.356 . S
N9435 H9438 0.984 . S
N9435 H9439 0.985 . S
H9436 N9431 0.984 . S
H9437 N9431 0.985 . S
H9438 N9435 0.984 . S
H9439 N9435 0.985 . S
H9440 N9434 0.984 . S
H9441 N9434 0.984 . S
H9442 N9430 0.984 . S
H9443 N9430 0.985 . S
C9444 C9445 1.363 . S
C9444 C9450 1.379 . S
C9444 N9452 1.356 . S
C9445 C9444 1.363 . S
C9445 C9451 1.363 . S
C9446 C9447 1.363 . S
C9446 C9451 1.379 . S
C9446 N9453 1.356 . S
C9447 C9446 1.363 . S
C9447 C9450 1.363 . S
N9448 C9450 1.356 . S
N9448 H9460 0.984 . S
N9448 H9461 0.985 . S
N9449 C9451 1.356 . S
N9449 H9454 0.984 . S
N9449 H9455 0.985 . S
C9450 C9444 1.379 . S
C9450 C9447 1.363 . S
C9450 N9448 1.356 . S
C9451 C9445 1.363 . S
C9451 C9446 1.379 . S
C9451 N9449 1.356 . S
N9452 C9444 1.356 . S
N9452 H9458 0.984 . S
N9452 H9459 0.984 . S
N9453 C9446 1.356 . S
N9453 H9456 0.984 . S
N9453 H9457 0.985 . S
H9454 N9449 0.984 . S
H9455 N9449 0.985 . S
H9456 N9453 0.984 . S
H9457 N9453 0.985 . S
H9458 N9452 0.984 . S
H9459 N9452 0.984 . S
H9460 N9448 0.984 . S
H9461 N9448 0.985 . S
C9462 C9463 1.363 . S
C9462 C9468 1.379 . S
C9462 N9470 1.356 . S
C9463 C9462 1.363 . S
C9463 C9469 1.363 . S
C9464 C9465 1.363 . S
C9464 C9469 1.379 . S
C9464 N9471 1.356 . S
C9465 C9464 1.363 . S
C9465 C9468 1.363 . S
N9466 C9468 1.356 . S
N9466 H9478 0.984 . S
N9466 H9479 0.985 . S
N9467 C9469 1.356 . S
N9467 H9472 0.984 . S
N9467 H9473 0.985 . S
C9468 C9462 1.379 . S
C9468 C9465 1.363 . S
C9468 N9466 1.356 . S
C9469 C9463 1.363 . S
C9469 C9464 1.379 . S
C9469 N9467 1.356 . S
N9470 C9462 1.356 . S
N9470 H9476 0.984 . S
N9470 H9477 0.984 . S
N9471 C9464 1.356 . S
N9471 H9474 0.984 . S
N9471 H9475 0.985 . S
H9472 N9467 0.984 . S
H9473 N9467 0.985 . S
H9474 N9471 0.984 . S
H9475 N9471 0.985 . S
H9476 N9470 0.984 . S
H9477 N9470 0.984 . S
H9478 N9466 0.984 . S
H9479 N9466 0.985 . S
C9480 C9481 1.363 . S
C9480 C9486 1.379 . S
C9480 N9488 1.356 . S
C9481 C9480 1.363 . S
C9481 C9487 1.363 . S
C9482 C9483 1.363 . S
C9482 C9487 1.379 . S
C9482 N9489 1.356 . S
C9483 C9482 1.363 . S
C9483 C9486 1.363 . S
N9484 C9486 1.356 . S
N9484 H9496 0.984 . S
N9484 H9497 0.985 . S
N9485 C9487 1.356 . S
N9485 H9490 0.984 . S
N9485 H9491 0.985 . S
C9486 C9480 1.379 . S
C9486 C9483 1.363 . S
C9486 N9484 1.356 . S
C9487 C9481 1.363 . S
C9487 C9482 1.379 . S
C9487 N9485 1.356 . S
N9488 C9480 1.356 . S
N9488 H9494 0.984 . S
N9488 H9495 0.984 . S
N9489 C9482 1.356 . S
N9489 H9492 0.984 . S
N9489 H9493 0.985 . S
H9490 N9485 0.984 . S
H9491 N9485 0.985 . S
H9492 N9489 0.984 . S
H9493 N9489 0.985 . S
H9494 N9488 0.984 . S
H9495 N9488 0.984 . S
H9496 N9484 0.984 . S
H9497 N9484 0.985 . S
C9498 C9499 1.363 . S
C9498 C9504 1.379 . S
C9498 N9506 1.356 . S
C9499 C9498 1.363 . S
C9499 C9505 1.363 . S
C9500 C9501 1.363 . S
C9500 C9505 1.379 . S
C9500 N9507 1.356 . S
C9501 C9500 1.363 . S
C9501 C9504 1.363 . S
N9502 C9504 1.356 . S
N9502 H9514 0.984 . S
N9502 H9515 0.985 . S
N9503 C9505 1.356 . S
N9503 H9508 0.984 . S
N9503 H9509 0.985 . S
C9504 C9498 1.379 . S
C9504 C9501 1.363 . S
C9504 N9502 1.356 . S
C9505 C9499 1.363 . S
C9505 C9500 1.379 . S
C9505 N9503 1.356 . S
N9506 C9498 1.356 . S
N9506 H9512 0.984 . S
N9506 H9513 0.984 . S
N9507 C9500 1.356 . S
N9507 H9510 0.984 . S
N9507 H9511 0.985 . S
H9508 N9503 0.984 . S
H9509 N9503 0.985 . S
H9510 N9507 0.984 . S
H9511 N9507 0.985 . S
H9512 N9506 0.984 . S
H9513 N9506 0.984 . S
H9514 N9502 0.984 . S
H9515 N9502 0.985 . S
C9516 C9517 1.363 . S
C9516 C9522 1.379 . S
C9516 N9524 1.356 . S
C9517 C9516 1.363 . S
C9517 C9523 1.363 . S
C9518 C9519 1.363 . S
C9518 C9523 1.379 . S
C9518 N9525 1.356 . S
C9519 C9518 1.363 . S
C9519 C9522 1.363 . S
N9520 C9522 1.356 . S
N9520 H9532 0.984 . S
N9520 H9533 0.985 . S
N9521 C9523 1.356 . S
N9521 H9526 0.984 . S
N9521 H9527 0.985 . S
C9522 C9516 1.379 . S
C9522 C9519 1.363 . S
C9522 N9520 1.356 . S
C9523 C9517 1.363 . S
C9523 C9518 1.379 . S
C9523 N9521 1.356 . S
N9524 C9516 1.356 . S
N9524 H9530 0.984 . S
N9524 H9531 0.984 . S
N9525 C9518 1.356 . S
N9525 H9528 0.984 . S
N9525 H9529 0.985 . S
H9526 N9521 0.984 . S
H9527 N9521 0.985 . S
H9528 N9525 0.984 . S
H9529 N9525 0.985 . S
H9530 N9524 0.984 . S
H9531 N9524 0.984 . S
H9532 N9520 0.984 . S
H9533 N9520 0.985 . S
C9534 C9535 1.363 . S
C9534 C9540 1.379 . S
C9534 N9542 1.356 . S
C9535 C9534 1.363 . S
C9535 C9541 1.363 . S
C9536 C9537 1.363 . S
C9536 C9541 1.379 . S
C9536 N9543 1.356 . S
C9537 C9536 1.363 . S
C9537 C9540 1.363 . S
N9538 C9540 1.356 . S
N9538 H9550 0.984 . S
N9538 H9551 0.985 . S
N9539 C9541 1.356 . S
N9539 H9544 0.984 . S
N9539 H9545 0.985 . S
C9540 C9534 1.379 . S
C9540 C9537 1.363 . S
C9540 N9538 1.356 . S
C9541 C9535 1.363 . S
C9541 C9536 1.379 . S
C9541 N9539 1.356 . S
N9542 C9534 1.356 . S
N9542 H9548 0.984 . S
N9542 H9549 0.984 . S
N9543 C9536 1.356 . S
N9543 H9546 0.984 . S
N9543 H9547 0.985 . S
H9544 N9539 0.984 . S
H9545 N9539 0.985 . S
H9546 N9543 0.984 . S
H9547 N9543 0.985 . S
H9548 N9542 0.984 . S
H9549 N9542 0.984 . S
H9550 N9538 0.984 . S
H9551 N9538 0.985 . S
C9552 C9553 1.363 . S
C9552 C9558 1.379 . S
C9552 N9560 1.356 . S
C9553 C9552 1.363 . S
C9553 C9559 1.363 . S
C9554 C9555 1.363 . S
C9554 C9559 1.379 . S
C9554 N9561 1.356 . S
C9555 C9554 1.363 . S
C9555 C9558 1.363 . S
N9556 C9558 1.356 . S
N9556 H9568 0.984 . S
N9556 H9569 0.985 . S
N9557 C9559 1.356 . S
N9557 H9562 0.984 . S
N9557 H9563 0.985 . S
C9558 C9552 1.379 . S
C9558 C9555 1.363 . S
C9558 N9556 1.356 . S
C9559 C9553 1.363 . S
C9559 C9554 1.379 . S
C9559 N9557 1.356 . S
N9560 C9552 1.356 . S
N9560 H9566 0.984 . S
N9560 H9567 0.984 . S
N9561 C9554 1.356 . S
N9561 H9564 0.984 . S
N9561 H9565 0.985 . S
H9562 N9557 0.984 . S
H9563 N9557 0.985 . S
H9564 N9561 0.984 . S
H9565 N9561 0.985 . S
H9566 N9560 0.984 . S
H9567 N9560 0.984 . S
H9568 N9556 0.984 . S
H9569 N9556 0.985 . S
C9570 C9571 1.363 . S
C9570 C9576 1.379 . S
C9570 N9578 1.356 . S
C9571 C9570 1.363 . S
C9571 C9577 1.363 . S
C9572 C9573 1.363 . S
C9572 C9577 1.379 . S
C9572 N9579 1.356 . S
C9573 C9572 1.363 . S
C9573 C9576 1.363 . S
N9574 C9576 1.356 . S
N9574 H9586 0.984 . S
N9574 H9587 0.985 . S
N9575 C9577 1.356 . S
N9575 H9580 0.984 . S
N9575 H9581 0.985 . S
C9576 C9570 1.379 . S
C9576 C9573 1.363 . S
C9576 N9574 1.356 . S
C9577 C9571 1.363 . S
C9577 C9572 1.379 . S
C9577 N9575 1.356 . S
N9578 C9570 1.356 . S
N9578 H9584 0.984 . S
N9578 H9585 0.984 . S
N9579 C9572 1.356 . S
N9579 H9582 0.984 . S
N9579 H9583 0.985 . S
H9580 N9575 0.984 . S
H9581 N9575 0.985 . S
H9582 N9579 0.984 . S
H9583 N9579 0.985 . S
H9584 N9578 0.984 . S
H9585 N9578 0.984 . S
H9586 N9574 0.984 . S
H9587 N9574 0.985 . S
C9588 C9589 1.363 . S
C9588 C9594 1.379 . S
C9588 N9596 1.356 . S
C9589 C9588 1.363 . S
C9589 C9595 1.363 . S
C9590 C9591 1.363 . S
C9590 C9595 1.379 . S
C9590 N9597 1.356 . S
C9591 C9590 1.363 . S
C9591 C9594 1.363 . S
N9592 C9594 1.356 . S
N9592 H9604 0.984 . S
N9592 H9605 0.985 . S
N9593 C9595 1.356 . S
N9593 H9598 0.984 . S
N9593 H9599 0.985 . S
C9594 C9588 1.379 . S
C9594 C9591 1.363 . S
C9594 N9592 1.356 . S
C9595 C9589 1.363 . S
C9595 C9590 1.379 . S
C9595 N9593 1.356 . S
N9596 C9588 1.356 . S
N9596 H9602 0.984 . S
N9596 H9603 0.984 . S
N9597 C9590 1.356 . S
N9597 H9600 0.984 . S
N9597 H9601 0.985 . S
H9598 N9593 0.984 . S
H9599 N9593 0.985 . S
H9600 N9597 0.984 . S
H9601 N9597 0.985 . S
H9602 N9596 0.984 . S
H9603 N9596 0.984 . S
H9604 N9592 0.984 . S
H9605 N9592 0.985 . S
C9606 C9607 1.363 . S
C9606 C9612 1.379 . S
C9606 N9614 1.356 . S
C9607 C9606 1.363 . S
C9607 C9613 1.363 . S
C9608 C9609 1.363 . S
C9608 C9613 1.379 . S
C9608 N9615 1.356 . S
C9609 C9608 1.363 . S
C9609 C9612 1.363 . S
N9610 C9612 1.356 . S
N9610 H9622 0.984 . S
N9610 H9623 0.985 . S
N9611 C9613 1.356 . S
N9611 H9616 0.984 . S
N9611 H9617 0.985 . S
C9612 C9606 1.379 . S
C9612 C9609 1.363 . S
C9612 N9610 1.356 . S
C9613 C9607 1.363 . S
C9613 C9608 1.379 . S
C9613 N9611 1.356 . S
N9614 C9606 1.356 . S
N9614 H9620 0.984 . S
N9614 H9621 0.984 . S
N9615 C9608 1.356 . S
N9615 H9618 0.984 . S
N9615 H9619 0.985 . S
H9616 N9611 0.984 . S
H9617 N9611 0.985 . S
H9618 N9615 0.984 . S
H9619 N9615 0.985 . S
H9620 N9614 0.984 . S
H9621 N9614 0.984 . S
H9622 N9610 0.984 . S
H9623 N9610 0.985 . S
C9624 C9625 1.363 . S
C9624 C9630 1.379 . S
C9624 N9632 1.356 . S
C9625 C9624 1.363 . S
C9625 C9631 1.363 . S
C9626 C9627 1.363 . S
C9626 C9631 1.379 . S
C9626 N9633 1.356 . S
C9627 C9626 1.363 . S
C9627 C9630 1.363 . S
N9628 C9630 1.356 . S
N9628 H9640 0.984 . S
N9628 H9641 0.985 . S
N9629 C9631 1.356 . S
N9629 H9634 0.984 . S
N9629 H9635 0.985 . S
C9630 C9624 1.379 . S
C9630 C9627 1.363 . S
C9630 N9628 1.356 . S
C9631 C9625 1.363 . S
C9631 C9626 1.379 . S
C9631 N9629 1.356 . S
N9632 C9624 1.356 . S
N9632 H9638 0.984 . S
N9632 H9639 0.984 . S
N9633 C9626 1.356 . S
N9633 H9636 0.984 . S
N9633 H9637 0.985 . S
H9634 N9629 0.984 . S
H9635 N9629 0.985 . S
H9636 N9633 0.984 . S
H9637 N9633 0.985 . S
H9638 N9632 0.984 . S
H9639 N9632 0.984 . S
H9640 N9628 0.984 . S
H9641 N9628 0.985 . S
C9642 C9643 1.363 . S
C9642 C9648 1.379 . S
C9642 N9650 1.356 . S
C9643 C9642 1.363 . S
C9643 C9649 1.363 . S
C9644 C9645 1.363 . S
C9644 C9649 1.379 . S
C9644 N9651 1.356 . S
C9645 C9644 1.363 . S
C9645 C9648 1.363 . S
N9646 C9648 1.356 . S
N9646 H9658 0.984 . S
N9646 H9659 0.985 . S
N9647 C9649 1.356 . S
N9647 H9652 0.984 . S
N9647 H9653 0.985 . S
C9648 C9642 1.379 . S
C9648 C9645 1.363 . S
C9648 N9646 1.356 . S
C9649 C9643 1.363 . S
C9649 C9644 1.379 . S
C9649 N9647 1.356 . S
N9650 C9642 1.356 . S
N9650 H9656 0.984 . S
N9650 H9657 0.984 . S
N9651 C9644 1.356 . S
N9651 H9654 0.984 . S
N9651 H9655 0.985 . S
H9652 N9647 0.984 . S
H9653 N9647 0.985 . S
H9654 N9651 0.984 . S
H9655 N9651 0.985 . S
H9656 N9650 0.984 . S
H9657 N9650 0.984 . S
H9658 N9646 0.984 . S
H9659 N9646 0.985 . S
C9660 C9661 1.363 . S
C9660 C9666 1.379 . S
C9660 N9668 1.356 . S
C9661 C9660 1.363 . S
C9661 C9667 1.363 . S
C9662 C9663 1.363 . S
C9662 C9667 1.379 . S
C9662 N9669 1.356 . S
C9663 C9662 1.363 . S
C9663 C9666 1.363 . S
N9664 C9666 1.356 . S
N9664 H9676 0.984 . S
N9664 H9677 0.985 . S
N9665 C9667 1.356 . S
N9665 H9670 0.984 . S
N9665 H9671 0.985 . S
C9666 C9660 1.379 . S
C9666 C9663 1.363 . S
C9666 N9664 1.356 . S
C9667 C9661 1.363 . S
C9667 C9662 1.379 . S
C9667 N9665 1.356 . S
N9668 C9660 1.356 . S
N9668 H9674 0.984 . S
N9668 H9675 0.984 . S
N9669 C9662 1.356 . S
N9669 H9672 0.984 . S
N9669 H9673 0.985 . S
H9670 N9665 0.984 . S
H9671 N9665 0.985 . S
H9672 N9669 0.984 . S
H9673 N9669 0.985 . S
H9674 N9668 0.984 . S
H9675 N9668 0.984 . S
H9676 N9664 0.984 . S
H9677 N9664 0.985 . S
C9678 C9679 1.363 . S
C9678 C9684 1.379 . S
C9678 N9686 1.356 . S
C9679 C9678 1.363 . S
C9679 C9685 1.363 . S
C9680 C9681 1.363 . S
C9680 C9685 1.379 . S
C9680 N9687 1.356 . S
C9681 C9680 1.363 . S
C9681 C9684 1.363 . S
N9682 C9684 1.356 . S
N9682 H9694 0.984 . S
N9682 H9695 0.985 . S
N9683 C9685 1.356 . S
N9683 H9688 0.984 . S
N9683 H9689 0.985 . S
C9684 C9678 1.379 . S
C9684 C9681 1.363 . S
C9684 N9682 1.356 . S
C9685 C9679 1.363 . S
C9685 C9680 1.379 . S
C9685 N9683 1.356 . S
N9686 C9678 1.356 . S
N9686 H9692 0.984 . S
N9686 H9693 0.984 . S
N9687 C9680 1.356 . S
N9687 H9690 0.984 . S
N9687 H9691 0.985 . S
H9688 N9683 0.984 . S
H9689 N9683 0.985 . S
H9690 N9687 0.984 . S
H9691 N9687 0.985 . S
H9692 N9686 0.984 . S
H9693 N9686 0.984 . S
H9694 N9682 0.984 . S
H9695 N9682 0.985 . S
C9696 C9697 1.363 . S
C9696 C9702 1.379 . S
C9696 N9704 1.356 . S
C9697 C9696 1.363 . S
C9697 C9703 1.363 . S
C9698 C9699 1.363 . S
C9698 C9703 1.379 . S
C9698 N9705 1.356 . S
C9699 C9698 1.363 . S
C9699 C9702 1.363 . S
N9700 C9702 1.356 . S
N9700 H9712 0.984 . S
N9700 H9713 0.985 . S
N9701 C9703 1.356 . S
N9701 H9706 0.984 . S
N9701 H9707 0.985 . S
C9702 C9696 1.379 . S
C9702 C9699 1.363 . S
C9702 N9700 1.356 . S
C9703 C9697 1.363 . S
C9703 C9698 1.379 . S
C9703 N9701 1.356 . S
N9704 C9696 1.356 . S
N9704 H9710 0.984 . S
N9704 H9711 0.984 . S
N9705 C9698 1.356 . S
N9705 H9708 0.984 . S
N9705 H9709 0.985 . S
H9706 N9701 0.984 . S
H9707 N9701 0.985 . S
H9708 N9705 0.984 . S
H9709 N9705 0.985 . S
H9710 N9704 0.984 . S
H9711 N9704 0.984 . S
H9712 N9700 0.984 . S
H9713 N9700 0.985 . S
C9714 C9715 1.363 . S
C9714 C9720 1.379 . S
C9714 N9722 1.356 . S
C9715 C9714 1.363 . S
C9715 C9721 1.363 . S
C9716 C9717 1.363 . S
C9716 C9721 1.379 . S
C9716 N9723 1.356 . S
C9717 C9716 1.363 . S
C9717 C9720 1.363 . S
N9718 C9720 1.356 . S
N9718 H9730 0.984 . S
N9718 H9731 0.985 . S
N9719 C9721 1.356 . S
N9719 H9724 0.984 . S
N9719 H9725 0.985 . S
C9720 C9714 1.379 . S
C9720 C9717 1.363 . S
C9720 N9718 1.356 . S
C9721 C9715 1.363 . S
C9721 C9716 1.379 . S
C9721 N9719 1.356 . S
N9722 C9714 1.356 . S
N9722 H9728 0.984 . S
N9722 H9729 0.984 . S
N9723 C9716 1.356 . S
N9723 H9726 0.984 . S
N9723 H9727 0.985 . S
H9724 N9719 0.984 . S
H9725 N9719 0.985 . S
H9726 N9723 0.984 . S
H9727 N9723 0.985 . S
H9728 N9722 0.984 . S
H9729 N9722 0.984 . S
H9730 N9718 0.984 . S
H9731 N9718 0.985 . S
C9732 C9733 1.363 . S
C9732 C9738 1.379 . S
C9732 N9740 1.356 . S
C9733 C9732 1.363 . S
C9733 C9739 1.363 . S
C9734 C9735 1.363 . S
C9734 C9739 1.379 . S
C9734 N9741 1.356 . S
C9735 C9734 1.363 . S
C9735 C9738 1.363 . S
N9736 C9738 1.356 . S
N9736 H9748 0.984 . S
N9736 H9749 0.985 . S
N9737 C9739 1.356 . S
N9737 H9742 0.984 . S
N9737 H9743 0.985 . S
C9738 C9732 1.379 . S
C9738 C9735 1.363 . S
C9738 N9736 1.356 . S
C9739 C9733 1.363 . S
C9739 C9734 1.379 . S
C9739 N9737 1.356 . S
N9740 C9732 1.356 . S
N9740 H9746 0.984 . S
N9740 H9747 0.984 . S
N9741 C9734 1.356 . S
N9741 H9744 0.984 . S
N9741 H9745 0.985 . S
H9742 N9737 0.984 . S
H9743 N9737 0.985 . S
H9744 N9741 0.984 . S
H9745 N9741 0.985 . S
H9746 N9740 0.984 . S
H9747 N9740 0.984 . S
H9748 N9736 0.984 . S
H9749 N9736 0.985 . S
C9750 C9751 1.363 . S
C9750 C9756 1.379 . S
C9750 N9758 1.356 . S
C9751 C9750 1.363 . S
C9751 C9757 1.363 . S
C9752 C9753 1.363 . S
C9752 C9757 1.379 . S
C9752 N9759 1.356 . S
C9753 C9752 1.363 . S
C9753 C9756 1.363 . S
N9754 C9756 1.356 . S
N9754 H9766 0.984 . S
N9754 H9767 0.985 . S
N9755 C9757 1.356 . S
N9755 H9760 0.984 . S
N9755 H9761 0.985 . S
C9756 C9750 1.379 . S
C9756 C9753 1.363 . S
C9756 N9754 1.356 . S
C9757 C9751 1.363 . S
C9757 C9752 1.379 . S
C9757 N9755 1.356 . S
N9758 C9750 1.356 . S
N9758 H9764 0.984 . S
N9758 H9765 0.984 . S
N9759 C9752 1.356 . S
N9759 H9762 0.984 . S
N9759 H9763 0.985 . S
H9760 N9755 0.984 . S
H9761 N9755 0.985 . S
H9762 N9759 0.984 . S
H9763 N9759 0.985 . S
H9764 N9758 0.984 . S
H9765 N9758 0.984 . S
H9766 N9754 0.984 . S
H9767 N9754 0.985 . S
C9768 C9769 1.363 . S
C9768 C9774 1.379 . S
C9768 N9776 1.356 . S
C9769 C9768 1.363 . S
C9769 C9775 1.363 . S
C9770 C9771 1.363 . S
C9770 C9775 1.379 . S
C9770 N9777 1.356 . S
C9771 C9770 1.363 . S
C9771 C9774 1.363 . S
N9772 C9774 1.356 . S
N9772 H9784 0.984 . S
N9772 H9785 0.985 . S
N9773 C9775 1.356 . S
N9773 H9778 0.984 . S
N9773 H9779 0.985 . S
C9774 C9768 1.379 . S
C9774 C9771 1.363 . S
C9774 N9772 1.356 . S
C9775 C9769 1.363 . S
C9775 C9770 1.379 . S
C9775 N9773 1.356 . S
N9776 C9768 1.356 . S
N9776 H9782 0.984 . S
N9776 H9783 0.984 . S
N9777 C9770 1.356 . S
N9777 H9780 0.984 . S
N9777 H9781 0.985 . S
H9778 N9773 0.984 . S
H9779 N9773 0.985 . S
H9780 N9777 0.984 . S
H9781 N9777 0.985 . S
H9782 N9776 0.984 . S
H9783 N9776 0.984 . S
H9784 N9772 0.984 . S
H9785 N9772 0.985 . S
C9786 C9787 1.363 . S
C9786 C9792 1.379 . S
C9786 N9794 1.356 . S
C9787 C9786 1.363 . S
C9787 C9793 1.363 . S
C9788 C9789 1.363 . S
C9788 C9793 1.379 . S
C9788 N9795 1.356 . S
C9789 C9788 1.363 . S
C9789 C9792 1.363 . S
N9790 C9792 1.356 . S
N9790 H9802 0.984 . S
N9790 H9803 0.985 . S
N9791 C9793 1.356 . S
N9791 H9796 0.984 . S
N9791 H9797 0.985 . S
C9792 C9786 1.379 . S
C9792 C9789 1.363 . S
C9792 N9790 1.356 . S
C9793 C9787 1.363 . S
C9793 C9788 1.379 . S
C9793 N9791 1.356 . S
N9794 C9786 1.356 . S
N9794 H9800 0.984 . S
N9794 H9801 0.984 . S
N9795 C9788 1.356 . S
N9795 H9798 0.984 . S
N9795 H9799 0.985 . S
H9796 N9791 0.984 . S
H9797 N9791 0.985 . S
H9798 N9795 0.984 . S
H9799 N9795 0.985 . S
H9800 N9794 0.984 . S
H9801 N9794 0.984 . S
H9802 N9790 0.984 . S
H9803 N9790 0.985 . S
C9804 C9805 1.363 . S
C9804 C9810 1.379 . S
C9804 N9812 1.356 . S
C9805 C9804 1.363 . S
C9805 C9811 1.363 . S
C9806 C9807 1.363 . S
C9806 C9811 1.379 . S
C9806 N9813 1.356 . S
C9807 C9806 1.363 . S
C9807 C9810 1.363 . S
N9808 C9810 1.356 . S
N9808 H9820 0.984 . S
N9808 H9821 0.985 . S
N9809 C9811 1.356 . S
N9809 H9814 0.984 . S
N9809 H9815 0.985 . S
C9810 C9804 1.379 . S
C9810 C9807 1.363 . S
C9810 N9808 1.356 . S
C9811 C9805 1.363 . S
C9811 C9806 1.379 . S
C9811 N9809 1.356 . S
N9812 C9804 1.356 . S
N9812 H9818 0.984 . S
N9812 H9819 0.984 . S
N9813 C9806 1.356 . S
N9813 H9816 0.984 . S
N9813 H9817 0.985 . S
H9814 N9809 0.984 . S
H9815 N9809 0.985 . S
H9816 N9813 0.984 . S
H9817 N9813 0.985 . S
H9818 N9812 0.984 . S
H9819 N9812 0.984 . S
H9820 N9808 0.984 . S
H9821 N9808 0.985 . S
C9822 C9823 1.363 . S
C9822 C9828 1.379 . S
C9822 N9830 1.356 . S
C9823 C9822 1.363 . S
C9823 C9829 1.363 . S
C9824 C9825 1.363 . S
C9824 C9829 1.379 . S
C9824 N9831 1.356 . S
C9825 C9824 1.363 . S
C9825 C9828 1.363 . S
N9826 C9828 1.356 . S
N9826 H9838 0.984 . S
N9826 H9839 0.985 . S
N9827 C9829 1.356 . S
N9827 H9832 0.984 . S
N9827 H9833 0.985 . S
C9828 C9822 1.379 . S
C9828 C9825 1.363 . S
C9828 N9826 1.356 . S
C9829 C9823 1.363 . S
C9829 C9824 1.379 . S
C9829 N9827 1.356 . S
N9830 C9822 1.356 . S
N9830 H9836 0.984 . S
N9830 H9837 0.984 . S
N9831 C9824 1.356 . S
N9831 H9834 0.984 . S
N9831 H9835 0.985 . S
H9832 N9827 0.984 . S
H9833 N9827 0.985 . S
H9834 N9831 0.984 . S
H9835 N9831 0.985 . S
H9836 N9830 0.984 . S
H9837 N9830 0.984 . S
H9838 N9826 0.984 . S
H9839 N9826 0.985 . S
C9840 C9841 1.363 . S
C9840 C9846 1.379 . S
C9840 N9848 1.356 . S
C9841 C9840 1.363 . S
C9841 C9847 1.363 . S
C9842 C9843 1.363 . S
C9842 C9847 1.379 . S
C9842 N9849 1.356 . S
C9843 C9842 1.363 . S
C9843 C9846 1.363 . S
N9844 C9846 1.356 . S
N9844 H9856 0.984 . S
N9844 H9857 0.985 . S
N9845 C9847 1.356 . S
N9845 H9850 0.984 . S
N9845 H9851 0.985 . S
C9846 C9840 1.379 . S
C9846 C9843 1.363 . S
C9846 N9844 1.356 . S
C9847 C9841 1.363 . S
C9847 C9842 1.379 . S
C9847 N9845 1.356 . S
N9848 C9840 1.356 . S
N9848 H9854 0.984 . S
N9848 H9855 0.984 . S
N9849 C9842 1.356 . S
N9849 H9852 0.984 . S
N9849 H9853 0.985 . S
H9850 N9845 0.984 . S
H9851 N9845 0.985 . S
H9852 N9849 0.984 . S
H9853 N9849 0.985 . S
H9854 N9848 0.984 . S
H9855 N9848 0.984 . S
H9856 N9844 0.984 . S
H9857 N9844 0.985 . S
C9858 C9859 1.363 . S
C9858 C9864 1.379 . S
C9858 N9866 1.356 . S
C9859 C9858 1.363 . S
C9859 C9865 1.363 . S
C9860 C9861 1.363 . S
C9860 C9865 1.379 . S
C9860 N9867 1.356 . S
C9861 C9860 1.363 . S
C9861 C9864 1.363 . S
N9862 C9864 1.356 . S
N9862 H9874 0.984 . S
N9862 H9875 0.985 . S
N9863 C9865 1.356 . S
N9863 H9868 0.984 . S
N9863 H9869 0.985 . S
C9864 C9858 1.379 . S
C9864 C9861 1.363 . S
C9864 N9862 1.356 . S
C9865 C9859 1.363 . S
C9865 C9860 1.379 . S
C9865 N9863 1.356 . S
N9866 C9858 1.356 . S
N9866 H9872 0.984 . S
N9866 H9873 0.984 . S
N9867 C9860 1.356 . S
N9867 H9870 0.984 . S
N9867 H9871 0.985 . S
H9868 N9863 0.984 . S
H9869 N9863 0.985 . S
H9870 N9867 0.984 . S
H9871 N9867 0.985 . S
H9872 N9866 0.984 . S
H9873 N9866 0.984 . S
H9874 N9862 0.984 . S
H9875 N9862 0.985 . S
C9876 C9877 1.363 . S
C9876 C9882 1.379 . S
C9876 N9884 1.356 . S
C9877 C9876 1.363 . S
C9877 C9883 1.363 . S
C9878 C9879 1.363 . S
C9878 C9883 1.379 . S
C9878 N9885 1.356 . S
C9879 C9878 1.363 . S
C9879 C9882 1.363 . S
N9880 C9882 1.356 . S
N9880 H9892 0.984 . S
N9880 H9893 0.985 . S
N9881 C9883 1.356 . S
N9881 H9886 0.984 . S
N9881 H9887 0.985 . S
C9882 C9876 1.379 . S
C9882 C9879 1.363 . S
C9882 N9880 1.356 . S
C9883 C9877 1.363 . S
C9883 C9878 1.379 . S
C9883 N9881 1.356 . S
N9884 C9876 1.356 . S
N9884 H9890 0.984 . S
N9884 H9891 0.984 . S
N9885 C9878 1.356 . S
N9885 H9888 0.984 . S
N9885 H9889 0.985 . S
H9886 N9881 0.984 . S
H9887 N9881 0.985 . S
H9888 N9885 0.984 . S
H9889 N9885 0.985 . S
H9890 N9884 0.984 . S
H9891 N9884 0.984 . S
H9892 N9880 0.984 . S
H9893 N9880 0.985 . S
C9894 C9895 1.363 . S
C9894 C9900 1.379 . S
C9894 N9902 1.356 . S
C9895 C9894 1.363 . S
C9895 C9901 1.363 . S
C9896 C9897 1.363 . S
C9896 C9901 1.379 . S
C9896 N9903 1.356 . S
C9897 C9896 1.363 . S
C9897 C9900 1.363 . S
N9898 C9900 1.356 . S
N9898 H9910 0.984 . S
N9898 H9911 0.985 . S
N9899 C9901 1.356 . S
N9899 H9904 0.984 . S
N9899 H9905 0.985 . S
C9900 C9894 1.379 . S
C9900 C9897 1.363 . S
C9900 N9898 1.356 . S
C9901 C9895 1.363 . S
C9901 C9896 1.379 . S
C9901 N9899 1.356 . S
N9902 C9894 1.356 . S
N9902 H9908 0.984 . S
N9902 H9909 0.984 . S
N9903 C9896 1.356 . S
N9903 H9906 0.984 . S
N9903 H9907 0.985 . S
H9904 N9899 0.984 . S
H9905 N9899 0.985 . S
H9906 N9903 0.984 . S
H9907 N9903 0.985 . S
H9908 N9902 0.984 . S
H9909 N9902 0.984 . S
H9910 N9898 0.984 . S
H9911 N9898 0.985 . S
C9912 C9913 1.363 . S
C9912 C9918 1.379 . S
C9912 N9920 1.356 . S
C9913 C9912 1.363 . S
C9913 C9919 1.363 . S
C9914 C9915 1.363 . S
C9914 C9919 1.379 . S
C9914 N9921 1.356 . S
C9915 C9914 1.363 . S
C9915 C9918 1.363 . S
N9916 C9918 1.356 . S
N9916 H9928 0.984 . S
N9916 H9929 0.985 . S
N9917 C9919 1.356 . S
N9917 H9922 0.984 . S
N9917 H9923 0.985 . S
C9918 C9912 1.379 . S
C9918 C9915 1.363 . S
C9918 N9916 1.356 . S
C9919 C9913 1.363 . S
C9919 C9914 1.379 . S
C9919 N9917 1.356 . S
N9920 C9912 1.356 . S
N9920 H9926 0.984 . S
N9920 H9927 0.984 . S
N9921 C9914 1.356 . S
N9921 H9924 0.984 . S
N9921 H9925 0.985 . S
H9922 N9917 0.984 . S
H9923 N9917 0.985 . S
H9924 N9921 0.984 . S
H9925 N9921 0.985 . S
H9926 N9920 0.984 . S
H9927 N9920 0.984 . S
H9928 N9916 0.984 . S
H9929 N9916 0.985 . S
C9930 C9931 1.363 . S
C9930 C9936 1.379 . S
C9930 N9938 1.356 . S
C9931 C9930 1.363 . S
C9931 C9937 1.363 . S
C9932 C9933 1.363 . S
C9932 C9937 1.379 . S
C9932 N9939 1.356 . S
C9933 C9932 1.363 . S
C9933 C9936 1.363 . S
N9934 C9936 1.356 . S
N9934 H9946 0.984 . S
N9934 H9947 0.985 . S
N9935 C9937 1.356 . S
N9935 H9940 0.984 . S
N9935 H9941 0.985 . S
C9936 C9930 1.379 . S
C9936 C9933 1.363 . S
C9936 N9934 1.356 . S
C9937 C9931 1.363 . S
C9937 C9932 1.379 . S
C9937 N9935 1.356 . S
N9938 C9930 1.356 . S
N9938 H9944 0.984 . S
N9938 H9945 0.984 . S
N9939 C9932 1.356 . S
N9939 H9942 0.984 . S
N9939 H9943 0.985 . S
H9940 N9935 0.984 . S
H9941 N9935 0.985 . S
H9942 N9939 0.984 . S
H9943 N9939 0.985 . S
H9944 N9938 0.984 . S
H9945 N9938 0.984 . S
H9946 N9934 0.984 . S
H9947 N9934 0.985 . S
C9948 C9949 1.363 . S
C9948 C9954 1.379 . S
C9948 N9956 1.356 . S
C9949 C9948 1.363 . S
C9949 C9955 1.363 . S
C9950 C9951 1.363 . S
C9950 C9955 1.379 . S
C9950 N9957 1.356 . S
C9951 C9950 1.363 . S
C9951 C9954 1.363 . S
N9952 C9954 1.356 . S
N9952 H9964 0.984 . S
N9952 H9965 0.985 . S
N9953 C9955 1.356 . S
N9953 H9958 0.984 . S
N9953 H9959 0.985 . S
C9954 C9948 1.379 . S
C9954 C9951 1.363 . S
C9954 N9952 1.356 . S
C9955 C9949 1.363 . S
C9955 C9950 1.379 . S
C9955 N9953 1.356 . S
N9956 C9948 1.356 . S
N9956 H9962 0.984 . S
N9956 H9963 0.984 . S
N9957 C9950 1.356 . S
N9957 H9960 0.984 . S
N9957 H9961 0.985 . S
H9958 N9953 0.984 . S
H9959 N9953 0.985 . S
H9960 N9957 0.984 . S
H9961 N9957 0.985 . S
H9962 N9956 0.984 . S
H9963 N9956 0.984 . S
H9964 N9952 0.984 . S
H9965 N9952 0.985 . S
C9966 C9967 1.363 . S
C9966 C9972 1.379 . S
C9966 N9974 1.356 . S
C9967 C9966 1.363 . S
C9967 C9973 1.363 . S
C9968 C9969 1.363 . S
C9968 C9973 1.379 . S
C9968 N9975 1.356 . S
C9969 C9968 1.363 . S
C9969 C9972 1.363 . S
N9970 C9972 1.356 . S
N9970 H9982 0.984 . S
N9970 H9983 0.985 . S
N9971 C9973 1.356 . S
N9971 H9976 0.984 . S
N9971 H9977 0.985 . S
C9972 C9966 1.379 . S
C9972 C9969 1.363 . S
C9972 N9970 1.356 . S
C9973 C9967 1.363 . S
C9973 C9968 1.379 . S
C9973 N9971 1.356 . S
N9974 C9966 1.356 . S
N9974 H9980 0.984 . S
N9974 H9981 0.984 . S
N9975 C9968 1.356 . S
N9975 H9978 0.984 . S
N9975 H9979 0.985 . S
H9976 N9971 0.984 . S
H9977 N9971 0.985 . S
H9978 N9975 0.984 . S
H9979 N9975 0.985 . S
H9980 N9974 0.984 . S
H9981 N9974 0.984 . S
H9982 N9970 0.984 . S
H9983 N9970 0.985 . S
C9984 C9985 1.363 . S
C9984 C9990 1.379 . S
C9984 N9992 1.356 . S
C9985 C9984 1.363 . S
C9985 C9991 1.363 . S
C9986 C9987 1.363 . S
C9986 C9991 1.379 . S
C9986 N9993 1.356 . S
C9987 C9986 1.363 . S
C9987 C9990 1.363 . S
N9988 C9990 1.356 . S
N9988 H10000 0.984 . S
N9988 H10001 0.985 . S
N9989 C9991 1.356 . S
N9989 H9994 0.984 . S
N9989 H9995 0.985 . S
C9990 C9984 1.379 . S
C9990 C9987 1.363 . S
C9990 N9988 1.356 . S
C9991 C9985 1.363 . S
C9991 C9986 1.379 . S
C9991 N9989 1.356 . S
N9992 C9984 1.356 . S
N9992 H9998 0.984 . S
N9992 H9999 0.984 . S
N9993 C9986 1.356 . S
N9993 H9996 0.984 . S
N9993 H9997 0.985 . S
H9994 N9989 0.984 . S
H9995 N9989 0.985 . S
H9996 N9993 0.984 . S
H9997 N9993 0.985 . S
H9998 N9992 0.984 . S
H9999 N9992 0.984 . S
H10000 N9988 0.984 . S
H10001 N9988 0.985 . S
C10002 C10003 1.363 . S
C10002 C10008 1.379 . S
C10002 N10010 1.356 . S
C10003 C10002 1.363 . S
C10003 C10009 1.363 . S
C10004 C10005 1.363 . S
C10004 C10009 1.379 . S
C10004 N10011 1.356 . S
C10005 C10004 1.363 . S
C10005 C10008 1.363 . S
N10006 C10008 1.356 . S
N10006 H10018 0.984 . S
N10006 H10019 0.985 . S
N10007 C10009 1.356 . S
N10007 H10012 0.984 . S
N10007 H10013 0.985 . S
C10008 C10002 1.379 . S
C10008 C10005 1.363 . S
C10008 N10006 1.356 . S
C10009 C10003 1.363 . S
C10009 C10004 1.379 . S
C10009 N10007 1.356 . S
N10010 C10002 1.356 . S
N10010 H10016 0.984 . S
N10010 H10017 0.984 . S
N10011 C10004 1.356 . S
N10011 H10014 0.984 . S
N10011 H10015 0.985 . S
H10012 N10007 0.984 . S
H10013 N10007 0.985 . S
H10014 N10011 0.984 . S
H10015 N10011 0.985 . S
H10016 N10010 0.984 . S
H10017 N10010 0.984 . S
H10018 N10006 0.984 . S
H10019 N10006 0.985 . S
C10020 C10021 1.363 . S
C10020 C10026 1.379 . S
C10020 N10028 1.356 . S
C10021 C10020 1.363 . S
C10021 C10027 1.363 . S
C10022 C10023 1.363 . S
C10022 C10027 1.379 . S
C10022 N10029 1.356 . S
C10023 C10022 1.363 . S
C10023 C10026 1.363 . S
N10024 C10026 1.356 . S
N10024 H10036 0.984 . S
N10024 H10037 0.985 . S
N10025 C10027 1.356 . S
N10025 H10030 0.984 . S
N10025 H10031 0.985 . S
C10026 C10020 1.379 . S
C10026 C10023 1.363 . S
C10026 N10024 1.356 . S
C10027 C10021 1.363 . S
C10027 C10022 1.379 . S
C10027 N10025 1.356 . S
N10028 C10020 1.356 . S
N10028 H10034 0.984 . S
N10028 H10035 0.984 . S
N10029 C10022 1.356 . S
N10029 H10032 0.984 . S
N10029 H10033 0.985 . S
H10030 N10025 0.984 . S
H10031 N10025 0.985 . S
H10032 N10029 0.984 . S
H10033 N10029 0.985 . S
H10034 N10028 0.984 . S
H10035 N10028 0.984 . S
H10036 N10024 0.984 . S
H10037 N10024 0.985 . S
C10038 C10039 1.363 . S
C10038 C10044 1.379 . S
C10038 N10046 1.356 . S
C10039 C10038 1.363 . S
C10039 C10045 1.363 . S
C10040 C10041 1.363 . S
C10040 C10045 1.379 . S
C10040 N10047 1.356 . S
C10041 C10040 1.363 . S
C10041 C10044 1.363 . S
N10042 C10044 1.356 . S
N10042 H10054 0.984 . S
N10042 H10055 0.985 . S
N10043 C10045 1.356 . S
N10043 H10048 0.984 . S
N10043 H10049 0.985 . S
C10044 C10038 1.379 . S
C10044 C10041 1.363 . S
C10044 N10042 1.356 . S
C10045 C10039 1.363 . S
C10045 C10040 1.379 . S
C10045 N10043 1.356 . S
N10046 C10038 1.356 . S
N10046 H10052 0.984 . S
N10046 H10053 0.984 . S
N10047 C10040 1.356 . S
N10047 H10050 0.984 . S
N10047 H10051 0.985 . S
H10048 N10043 0.984 . S
H10049 N10043 0.985 . S
H10050 N10047 0.984 . S
H10051 N10047 0.985 . S
H10052 N10046 0.984 . S
H10053 N10046 0.984 . S
H10054 N10042 0.984 . S
H10055 N10042 0.985 . S
C10056 C10057 1.363 . S
C10056 C10062 1.379 . S
C10056 N10064 1.356 . S
C10057 C10056 1.363 . S
C10057 C10063 1.363 . S
C10058 C10059 1.363 . S
C10058 C10063 1.379 . S
C10058 N10065 1.356 . S
C10059 C10058 1.363 . S
C10059 C10062 1.363 . S
N10060 C10062 1.356 . S
N10060 H10072 0.984 . S
N10060 H10073 0.985 . S
N10061 C10063 1.356 . S
N10061 H10066 0.984 . S
N10061 H10067 0.985 . S
C10062 C10056 1.379 . S
C10062 C10059 1.363 . S
C10062 N10060 1.356 . S
C10063 C10057 1.363 . S
C10063 C10058 1.379 . S
C10063 N10061 1.356 . S
N10064 C10056 1.356 . S
N10064 H10070 0.984 . S
N10064 H10071 0.984 . S
N10065 C10058 1.356 . S
N10065 H10068 0.984 . S
N10065 H10069 0.985 . S
H10066 N10061 0.984 . S
H10067 N10061 0.985 . S
H10068 N10065 0.984 . S
H10069 N10065 0.985 . S
H10070 N10064 0.984 . S
H10071 N10064 0.984 . S
H10072 N10060 0.984 . S
H10073 N10060 0.985 . S
C10074 C10075 1.363 . S
C10074 C10080 1.379 . S
C10074 N10082 1.356 . S
C10075 C10074 1.363 . S
C10075 C10081 1.363 . S
C10076 C10077 1.363 . S
C10076 C10081 1.379 . S
C10076 N10083 1.356 . S
C10077 C10076 1.363 . S
C10077 C10080 1.363 . S
N10078 C10080 1.356 . S
N10078 H10090 0.984 . S
N10078 H10091 0.985 . S
N10079 C10081 1.356 . S
N10079 H10084 0.984 . S
N10079 H10085 0.985 . S
C10080 C10074 1.379 . S
C10080 C10077 1.363 . S
C10080 N10078 1.356 . S
C10081 C10075 1.363 . S
C10081 C10076 1.379 . S
C10081 N10079 1.356 . S
N10082 C10074 1.356 . S
N10082 H10088 0.984 . S
N10082 H10089 0.984 . S
N10083 C10076 1.356 . S
N10083 H10086 0.984 . S
N10083 H10087 0.985 . S
H10084 N10079 0.984 . S
H10085 N10079 0.985 . S
H10086 N10083 0.984 . S
H10087 N10083 0.985 . S
H10088 N10082 0.984 . S
H10089 N10082 0.984 . S
H10090 N10078 0.984 . S
H10091 N10078 0.985 . S
C10092 C10093 1.363 . S
C10092 C10098 1.379 . S
C10092 N10100 1.356 . S
C10093 C10092 1.363 . S
C10093 C10099 1.363 . S
C10094 C10095 1.363 . S
C10094 C10099 1.379 . S
C10094 N10101 1.356 . S
C10095 C10094 1.363 . S
C10095 C10098 1.363 . S
N10096 C10098 1.356 . S
N10096 H10108 0.984 . S
N10096 H10109 0.985 . S
N10097 C10099 1.356 . S
N10097 H10102 0.984 . S
N10097 H10103 0.985 . S
C10098 C10092 1.379 . S
C10098 C10095 1.363 . S
C10098 N10096 1.356 . S
C10099 C10093 1.363 . S
C10099 C10094 1.379 . S
C10099 N10097 1.356 . S
N10100 C10092 1.356 . S
N10100 H10106 0.984 . S
N10100 H10107 0.984 . S
N10101 C10094 1.356 . S
N10101 H10104 0.984 . S
N10101 H10105 0.985 . S
H10102 N10097 0.984 . S
H10103 N10097 0.985 . S
H10104 N10101 0.984 . S
H10105 N10101 0.985 . S
H10106 N10100 0.984 . S
H10107 N10100 0.984 . S
H10108 N10096 0.984 . S
H10109 N10096 0.985 . S
C10110 C10111 1.363 . S
C10110 C10116 1.379 . S
C10110 N10118 1.356 . S
C10111 C10110 1.363 . S
C10111 C10117 1.363 . S
C10112 C10113 1.363 . S
C10112 C10117 1.379 . S
C10112 N10119 1.356 . S
C10113 C10112 1.363 . S
C10113 C10116 1.363 . S
N10114 C10116 1.356 . S
N10114 H10126 0.984 . S
N10114 H10127 0.985 . S
N10115 C10117 1.356 . S
N10115 H10120 0.984 . S
N10115 H10121 0.985 . S
C10116 C10110 1.379 . S
C10116 C10113 1.363 . S
C10116 N10114 1.356 . S
C10117 C10111 1.363 . S
C10117 C10112 1.379 . S
C10117 N10115 1.356 . S
N10118 C10110 1.356 . S
N10118 H10124 0.984 . S
N10118 H10125 0.984 . S
N10119 C10112 1.356 . S
N10119 H10122 0.984 . S
N10119 H10123 0.985 . S
H10120 N10115 0.984 . S
H10121 N10115 0.985 . S
H10122 N10119 0.984 . S
H10123 N10119 0.985 . S
H10124 N10118 0.984 . S
H10125 N10118 0.984 . S
H10126 N10114 0.984 . S
H10127 N10114 0.985 . S
C10128 C10129 1.363 . S
C10128 C10134 1.379 . S
C10128 N10136 1.356 . S
C10129 C10128 1.363 . S
C10129 C10135 1.363 . S
C10130 C10131 1.363 . S
C10130 C10135 1.379 . S
C10130 N10137 1.356 . S
C10131 C10130 1.363 . S
C10131 C10134 1.363 . S
N10132 C10134 1.356 . S
N10132 H10144 0.984 . S
N10132 H10145 0.985 . S
N10133 C10135 1.356 . S
N10133 H10138 0.984 . S
N10133 H10139 0.985 . S
C10134 C10128 1.379 . S
C10134 C10131 1.363 . S
C10134 N10132 1.356 . S
C10135 C10129 1.363 . S
C10135 C10130 1.379 . S
C10135 N10133 1.356 . S
N10136 C10128 1.356 . S
N10136 H10142 0.984 . S
N10136 H10143 0.984 . S
N10137 C10130 1.356 . S
N10137 H10140 0.984 . S
N10137 H10141 0.985 . S
H10138 N10133 0.984 . S
H10139 N10133 0.985 . S
H10140 N10137 0.984 . S
H10141 N10137 0.985 . S
H10142 N10136 0.984 . S
H10143 N10136 0.984 . S
H10144 N10132 0.984 . S
H10145 N10132 0.985 . S
C10146 C10147 1.363 . S
C10146 C10152 1.379 . S
C10146 N10154 1.356 . S
C10147 C10146 1.363 . S
C10147 C10153 1.363 . S
C10148 C10149 1.363 . S
C10148 C10153 1.379 . S
C10148 N10155 1.356 . S
C10149 C10148 1.363 . S
C10149 C10152 1.363 . S
N10150 C10152 1.356 . S
N10150 H10162 0.984 . S
N10150 H10163 0.985 . S
N10151 C10153 1.356 . S
N10151 H10156 0.984 . S
N10151 H10157 0.985 . S
C10152 C10146 1.379 . S
C10152 C10149 1.363 . S
C10152 N10150 1.356 . S
C10153 C10147 1.363 . S
C10153 C10148 1.379 . S
C10153 N10151 1.356 . S
N10154 C10146 1.356 . S
N10154 H10160 0.984 . S
N10154 H10161 0.984 . S
N10155 C10148 1.356 . S
N10155 H10158 0.984 . S
N10155 H10159 0.985 . S
H10156 N10151 0.984 . S
H10157 N10151 0.985 . S
H10158 N10155 0.984 . S
H10159 N10155 0.985 . S
H10160 N10154 0.984 . S
H10161 N10154 0.984 . S
H10162 N10150 0.984 . S
H10163 N10150 0.985 . S
C10164 C10165 1.363 . S
C10164 C10170 1.379 . S
C10164 N10172 1.356 . S
C10165 C10164 1.363 . S
C10165 C10171 1.363 . S
C10166 C10167 1.363 . S
C10166 C10171 1.379 . S
C10166 N10173 1.356 . S
C10167 C10166 1.363 . S
C10167 C10170 1.363 . S
N10168 C10170 1.356 . S
N10168 H10180 0.984 . S
N10168 H10181 0.985 . S
N10169 C10171 1.356 . S
N10169 H10174 0.984 . S
N10169 H10175 0.985 . S
C10170 C10164 1.379 . S
C10170 C10167 1.363 . S
C10170 N10168 1.356 . S
C10171 C10165 1.363 . S
C10171 C10166 1.379 . S
C10171 N10169 1.356 . S
N10172 C10164 1.356 . S
N10172 H10178 0.984 . S
N10172 H10179 0.984 . S
N10173 C10166 1.356 . S
N10173 H10176 0.984 . S
N10173 H10177 0.985 . S
H10174 N10169 0.984 . S
H10175 N10169 0.985 . S
H10176 N10173 0.984 . S
H10177 N10173 0.985 . S
H10178 N10172 0.984 . S
H10179 N10172 0.984 . S
H10180 N10168 0.984 . S
H10181 N10168 0.985 . S
C10182 C10183 1.363 . S
C10182 C10188 1.379 . S
C10182 N10190 1.356 . S
C10183 C10182 1.363 . S
C10183 C10189 1.363 . S
C10184 C10185 1.363 . S
C10184 C10189 1.379 . S
C10184 N10191 1.356 . S
C10185 C10184 1.363 . S
C10185 C10188 1.363 . S
N10186 C10188 1.356 . S
N10186 H10198 0.984 . S
N10186 H10199 0.985 . S
N10187 C10189 1.356 . S
N10187 H10192 0.984 . S
N10187 H10193 0.985 . S
C10188 C10182 1.379 . S
C10188 C10185 1.363 . S
C10188 N10186 1.356 . S
C10189 C10183 1.363 . S
C10189 C10184 1.379 . S
C10189 N10187 1.356 . S
N10190 C10182 1.356 . S
N10190 H10196 0.984 . S
N10190 H10197 0.984 . S
N10191 C10184 1.356 . S
N10191 H10194 0.984 . S
N10191 H10195 0.985 . S
H10192 N10187 0.984 . S
H10193 N10187 0.985 . S
H10194 N10191 0.984 . S
H10195 N10191 0.985 . S
H10196 N10190 0.984 . S
H10197 N10190 0.984 . S
H10198 N10186 0.984 . S
H10199 N10186 0.985 . S
C10200 C10201 1.363 . S
C10200 C10206 1.379 . S
C10200 N10208 1.356 . S
C10201 C10200 1.363 . S
C10201 C10207 1.363 . S
C10202 C10203 1.363 . S
C10202 C10207 1.379 . S
C10202 N10209 1.356 . S
C10203 C10202 1.363 . S
C10203 C10206 1.363 . S
N10204 C10206 1.356 . S
N10204 H10216 0.984 . S
N10204 H10217 0.985 . S
N10205 C10207 1.356 . S
N10205 H10210 0.984 . S
N10205 H10211 0.985 . S
C10206 C10200 1.379 . S
C10206 C10203 1.363 . S
C10206 N10204 1.356 . S
C10207 C10201 1.363 . S
C10207 C10202 1.379 . S
C10207 N10205 1.356 . S
N10208 C10200 1.356 . S
N10208 H10214 0.984 . S
N10208 H10215 0.984 . S
N10209 C10202 1.356 . S
N10209 H10212 0.984 . S
N10209 H10213 0.985 . S
H10210 N10205 0.984 . S
H10211 N10205 0.985 . S
H10212 N10209 0.984 . S
H10213 N10209 0.985 . S
H10214 N10208 0.984 . S
H10215 N10208 0.984 . S
H10216 N10204 0.984 . S
H10217 N10204 0.985 . S
C10218 C10219 1.363 . S
C10218 C10224 1.379 . S
C10218 N10226 1.356 . S
C10219 C10218 1.363 . S
C10219 C10225 1.363 . S
C10220 C10221 1.363 . S
C10220 C10225 1.379 . S
C10220 N10227 1.356 . S
C10221 C10220 1.363 . S
C10221 C10224 1.363 . S
N10222 C10224 1.356 . S
N10222 H10234 0.984 . S
N10222 H10235 0.985 . S
N10223 C10225 1.356 . S
N10223 H10228 0.984 . S
N10223 H10229 0.985 . S
C10224 C10218 1.379 . S
C10224 C10221 1.363 . S
C10224 N10222 1.356 . S
C10225 C10219 1.363 . S
C10225 C10220 1.379 . S
C10225 N10223 1.356 . S
N10226 C10218 1.356 . S
N10226 H10232 0.984 . S
N10226 H10233 0.984 . S
N10227 C10220 1.356 . S
N10227 H10230 0.984 . S
N10227 H10231 0.985 . S
H10228 N10223 0.984 . S
H10229 N10223 0.985 . S
H10230 N10227 0.984 . S
H10231 N10227 0.985 . S
H10232 N10226 0.984 . S
H10233 N10226 0.984 . S
H10234 N10222 0.984 . S
H10235 N10222 0.985 . S
C10236 C10237 1.363 . S
C10236 C10242 1.379 . S
C10236 N10244 1.356 . S
C10237 C10236 1.363 . S
C10237 C10243 1.363 . S
C10238 C10239 1.363 . S
C10238 C10243 1.379 . S
C10238 N10245 1.356 . S
C10239 C10238 1.363 . S
C10239 C10242 1.363 . S
N10240 C10242 1.356 . S
N10240 H10252 0.984 . S
N10240 H10253 0.985 . S
N10241 C10243 1.356 . S
N10241 H10246 0.984 . S
N10241 H10247 0.985 . S
C10242 C10236 1.379 . S
C10242 C10239 1.363 . S
C10242 N10240 1.356 . S
C10243 C10237 1.363 . S
C10243 C10238 1.379 . S
C10243 N10241 1.356 . S
N10244 C10236 1.356 . S
N10244 H10250 0.984 . S
N10244 H10251 0.984 . S
N10245 C10238 1.356 . S
N10245 H10248 0.984 . S
N10245 H10249 0.985 . S
H10246 N10241 0.984 . S
H10247 N10241 0.985 . S
H10248 N10245 0.984 . S
H10249 N10245 0.985 . S
H10250 N10244 0.984 . S
H10251 N10244 0.984 . S
H10252 N10240 0.984 . S
H10253 N10240 0.985 . S
C10254 C10255 1.363 . S
C10254 C10260 1.379 . S
C10254 N10262 1.356 . S
C10255 C10254 1.363 . S
C10255 C10261 1.363 . S
C10256 C10257 1.363 . S
C10256 C10261 1.379 . S
C10256 N10263 1.356 . S
C10257 C10256 1.363 . S
C10257 C10260 1.363 . S
N10258 C10260 1.356 . S
N10258 H10270 0.984 . S
N10258 H10271 0.985 . S
N10259 C10261 1.356 . S
N10259 H10264 0.984 . S
N10259 H10265 0.985 . S
C10260 C10254 1.379 . S
C10260 C10257 1.363 . S
C10260 N10258 1.356 . S
C10261 C10255 1.363 . S
C10261 C10256 1.379 . S
C10261 N10259 1.356 . S
N10262 C10254 1.356 . S
N10262 H10268 0.984 . S
N10262 H10269 0.984 . S
N10263 C10256 1.356 . S
N10263 H10266 0.984 . S
N10263 H10267 0.985 . S
H10264 N10259 0.984 . S
H10265 N10259 0.985 . S
H10266 N10263 0.984 . S
H10267 N10263 0.985 . S
H10268 N10262 0.984 . S
H10269 N10262 0.984 . S
H10270 N10258 0.984 . S
H10271 N10258 0.985 . S
C10272 C10273 1.363 . S
C10272 C10278 1.379 . S
C10272 N10280 1.356 . S
C10273 C10272 1.363 . S
C10273 C10279 1.363 . S
C10274 C10275 1.363 . S
C10274 C10279 1.379 . S
C10274 N10281 1.356 . S
C10275 C10274 1.363 . S
C10275 C10278 1.363 . S
N10276 C10278 1.356 . S
N10276 H10288 0.984 . S
N10276 H10289 0.985 . S
N10277 C10279 1.356 . S
N10277 H10282 0.984 . S
N10277 H10283 0.985 . S
C10278 C10272 1.379 . S
C10278 C10275 1.363 . S
C10278 N10276 1.356 . S
C10279 C10273 1.363 . S
C10279 C10274 1.379 . S
C10279 N10277 1.356 . S
N10280 C10272 1.356 . S
N10280 H10286 0.984 . S
N10280 H10287 0.984 . S
N10281 C10274 1.356 . S
N10281 H10284 0.984 . S
N10281 H10285 0.985 . S
H10282 N10277 0.984 . S
H10283 N10277 0.985 . S
H10284 N10281 0.984 . S
H10285 N10281 0.985 . S
H10286 N10280 0.984 . S
H10287 N10280 0.984 . S
H10288 N10276 0.984 . S
H10289 N10276 0.985 . S
C10290 C10291 1.363 . S
C10290 C10296 1.379 . S
C10290 N10298 1.356 . S
C10291 C10290 1.363 . S
C10291 C10297 1.363 . S
C10292 C10293 1.363 . S
C10292 C10297 1.379 . S
C10292 N10299 1.356 . S
C10293 C10292 1.363 . S
C10293 C10296 1.363 . S
N10294 C10296 1.356 . S
N10294 H10306 0.984 . S
N10294 H10307 0.985 . S
N10295 C10297 1.356 . S
N10295 H10300 0.984 . S
N10295 H10301 0.985 . S
C10296 C10290 1.379 . S
C10296 C10293 1.363 . S
C10296 N10294 1.356 . S
C10297 C10291 1.363 . S
C10297 C10292 1.379 . S
C10297 N10295 1.356 . S
N10298 C10290 1.356 . S
N10298 H10304 0.984 . S
N10298 H10305 0.984 . S
N10299 C10292 1.356 . S
N10299 H10302 0.984 . S
N10299 H10303 0.985 . S
H10300 N10295 0.984 . S
H10301 N10295 0.985 . S
H10302 N10299 0.984 . S
H10303 N10299 0.985 . S
H10304 N10298 0.984 . S
H10305 N10298 0.984 . S
H10306 N10294 0.984 . S
H10307 N10294 0.985 . S
C10308 C10309 1.363 . S
C10308 C10314 1.379 . S
C10308 N10316 1.356 . S
C10309 C10308 1.363 . S
C10309 C10315 1.363 . S
C10310 C10311 1.363 . S
C10310 C10315 1.379 . S
C10310 N10317 1.356 . S
C10311 C10310 1.363 . S
C10311 C10314 1.363 . S
N10312 C10314 1.356 . S
N10312 H10324 0.984 . S
N10312 H10325 0.985 . S
N10313 C10315 1.356 . S
N10313 H10318 0.984 . S
N10313 H10319 0.985 . S
C10314 C10308 1.379 . S
C10314 C10311 1.363 . S
C10314 N10312 1.356 . S
C10315 C10309 1.363 . S
C10315 C10310 1.379 . S
C10315 N10313 1.356 . S
N10316 C10308 1.356 . S
N10316 H10322 0.984 . S
N10316 H10323 0.984 . S
N10317 C10310 1.356 . S
N10317 H10320 0.984 . S
N10317 H10321 0.985 . S
H10318 N10313 0.984 . S
H10319 N10313 0.985 . S
H10320 N10317 0.984 . S
H10321 N10317 0.985 . S
H10322 N10316 0.984 . S
H10323 N10316 0.984 . S
H10324 N10312 0.984 . S
H10325 N10312 0.985 . S
C10326 C10327 1.363 . S
C10326 C10332 1.379 . S
C10326 N10334 1.356 . S
C10327 C10326 1.363 . S
C10327 C10333 1.363 . S
C10328 C10329 1.363 . S
C10328 C10333 1.379 . S
C10328 N10335 1.356 . S
C10329 C10328 1.363 . S
C10329 C10332 1.363 . S
N10330 C10332 1.356 . S
N10330 H10342 0.984 . S
N10330 H10343 0.985 . S
N10331 C10333 1.356 . S
N10331 H10336 0.984 . S
N10331 H10337 0.985 . S
C10332 C10326 1.379 . S
C10332 C10329 1.363 . S
C10332 N10330 1.356 . S
C10333 C10327 1.363 . S
C10333 C10328 1.379 . S
C10333 N10331 1.356 . S
N10334 C10326 1.356 . S
N10334 H10340 0.984 . S
N10334 H10341 0.984 . S
N10335 C10328 1.356 . S
N10335 H10338 0.984 . S
N10335 H10339 0.985 . S
H10336 N10331 0.984 . S
H10337 N10331 0.985 . S
H10338 N10335 0.984 . S
H10339 N10335 0.985 . S
H10340 N10334 0.984 . S
H10341 N10334 0.984 . S
H10342 N10330 0.984 . S
H10343 N10330 0.985 . S
C10344 C10345 1.363 . S
C10344 C10350 1.379 . S
C10344 N10352 1.356 . S
C10345 C10344 1.363 . S
C10345 C10351 1.363 . S
C10346 C10347 1.363 . S
C10346 C10351 1.379 . S
C10346 N10353 1.356 . S
C10347 C10346 1.363 . S
C10347 C10350 1.363 . S
N10348 C10350 1.356 . S
N10348 H10360 0.984 . S
N10348 H10361 0.985 . S
N10349 C10351 1.356 . S
N10349 H10354 0.984 . S
N10349 H10355 0.985 . S
C10350 C10344 1.379 . S
C10350 C10347 1.363 . S
C10350 N10348 1.356 . S
C10351 C10345 1.363 . S
C10351 C10346 1.379 . S
C10351 N10349 1.356 . S
N10352 C10344 1.356 . S
N10352 H10358 0.984 . S
N10352 H10359 0.984 . S
N10353 C10346 1.356 . S
N10353 H10356 0.984 . S
N10353 H10357 0.985 . S
H10354 N10349 0.984 . S
H10355 N10349 0.985 . S
H10356 N10353 0.984 . S
H10357 N10353 0.985 . S
H10358 N10352 0.984 . S
H10359 N10352 0.984 . S
H10360 N10348 0.984 . S
H10361 N10348 0.985 . S
C10362 C10363 1.363 . S
C10362 C10368 1.379 . S
C10362 N10370 1.356 . S
C10363 C10362 1.363 . S
C10363 C10369 1.363 . S
C10364 C10365 1.363 . S
C10364 C10369 1.379 . S
C10364 N10371 1.356 . S
C10365 C10364 1.363 . S
C10365 C10368 1.363 . S
N10366 C10368 1.356 . S
N10366 H10378 0.984 . S
N10366 H10379 0.985 . S
N10367 C10369 1.356 . S
N10367 H10372 0.984 . S
N10367 H10373 0.985 . S
C10368 C10362 1.379 . S
C10368 C10365 1.363 . S
C10368 N10366 1.356 . S
C10369 C10363 1.363 . S
C10369 C10364 1.379 . S
C10369 N10367 1.356 . S
N10370 C10362 1.356 . S
N10370 H10376 0.984 . S
N10370 H10377 0.984 . S
N10371 C10364 1.356 . S
N10371 H10374 0.984 . S
N10371 H10375 0.985 . S
H10372 N10367 0.984 . S
H10373 N10367 0.985 . S
H10374 N10371 0.984 . S
H10375 N10371 0.985 . S
H10376 N10370 0.984 . S
H10377 N10370 0.984 . S
H10378 N10366 0.984 . S
H10379 N10366 0.985 . S
C10380 C10381 1.363 . S
C10380 C10386 1.379 . S
C10380 N10388 1.356 . S
C10381 C10380 1.363 . S
C10381 C10387 1.363 . S
C10382 C10383 1.363 . S
C10382 C10387 1.379 . S
C10382 N10389 1.356 . S
C10383 C10382 1.363 . S
C10383 C10386 1.363 . S
N10384 C10386 1.356 . S
N10384 H10396 0.984 . S
N10384 H10397 0.985 . S
N10385 C10387 1.356 . S
N10385 H10390 0.984 . S
N10385 H10391 0.985 . S
C10386 C10380 1.379 . S
C10386 C10383 1.363 . S
C10386 N10384 1.356 . S
C10387 C10381 1.363 . S
C10387 C10382 1.379 . S
C10387 N10385 1.356 . S
N10388 C10380 1.356 . S
N10388 H10394 0.984 . S
N10388 H10395 0.984 . S
N10389 C10382 1.356 . S
N10389 H10392 0.984 . S
N10389 H10393 0.985 . S
H10390 N10385 0.984 . S
H10391 N10385 0.985 . S
H10392 N10389 0.984 . S
H10393 N10389 0.985 . S
H10394 N10388 0.984 . S
H10395 N10388 0.984 . S
H10396 N10384 0.984 . S
H10397 N10384 0.985 . S
C10398 C10399 1.363 . S
C10398 C10404 1.379 . S
C10398 N10406 1.356 . S
C10399 C10398 1.363 . S
C10399 C10405 1.363 . S
C10400 C10401 1.363 . S
C10400 C10405 1.379 . S
C10400 N10407 1.356 . S
C10401 C10400 1.363 . S
C10401 C10404 1.363 . S
N10402 C10404 1.356 . S
N10402 H10414 0.984 . S
N10402 H10415 0.985 . S
N10403 C10405 1.356 . S
N10403 H10408 0.984 . S
N10403 H10409 0.985 . S
C10404 C10398 1.379 . S
C10404 C10401 1.363 . S
C10404 N10402 1.356 . S
C10405 C10399 1.363 . S
C10405 C10400 1.379 . S
C10405 N10403 1.356 . S
N10406 C10398 1.356 . S
N10406 H10412 0.984 . S
N10406 H10413 0.984 . S
N10407 C10400 1.356 . S
N10407 H10410 0.984 . S
N10407 H10411 0.985 . S
H10408 N10403 0.984 . S
H10409 N10403 0.985 . S
H10410 N10407 0.984 . S
H10411 N10407 0.985 . S
H10412 N10406 0.984 . S
H10413 N10406 0.984 . S
H10414 N10402 0.984 . S
H10415 N10402 0.985 . S
C10416 C10417 1.363 . S
C10416 C10422 1.379 . S
C10416 N10424 1.356 . S
C10417 C10416 1.363 . S
C10417 C10423 1.363 . S
C10418 C10419 1.363 . S
C10418 C10423 1.379 . S
C10418 N10425 1.356 . S
C10419 C10418 1.363 . S
C10419 C10422 1.363 . S
N10420 C10422 1.356 . S
N10420 H10432 0.984 . S
N10420 H10433 0.985 . S
N10421 C10423 1.356 . S
N10421 H10426 0.984 . S
N10421 H10427 0.985 . S
C10422 C10416 1.379 . S
C10422 C10419 1.363 . S
C10422 N10420 1.356 . S
C10423 C10417 1.363 . S
C10423 C10418 1.379 . S
C10423 N10421 1.356 . S
N10424 C10416 1.356 . S
N10424 H10430 0.984 . S
N10424 H10431 0.984 . S
N10425 C10418 1.356 . S
N10425 H10428 0.984 . S
N10425 H10429 0.985 . S
H10426 N10421 0.984 . S
H10427 N10421 0.985 . S
H10428 N10425 0.984 . S
H10429 N10425 0.985 . S
H10430 N10424 0.984 . S
H10431 N10424 0.984 . S
H10432 N10420 0.984 . S
H10433 N10420 0.985 . S
C10434 C10435 1.363 . S
C10434 C10440 1.379 . S
C10434 N10442 1.356 . S
C10435 C10434 1.363 . S
C10435 C10441 1.363 . S
C10436 C10437 1.363 . S
C10436 C10441 1.379 . S
C10436 N10443 1.356 . S
C10437 C10436 1.363 . S
C10437 C10440 1.363 . S
N10438 C10440 1.356 . S
N10438 H10450 0.984 . S
N10438 H10451 0.985 . S
N10439 C10441 1.356 . S
N10439 H10444 0.984 . S
N10439 H10445 0.985 . S
C10440 C10434 1.379 . S
C10440 C10437 1.363 . S
C10440 N10438 1.356 . S
C10441 C10435 1.363 . S
C10441 C10436 1.379 . S
C10441 N10439 1.356 . S
N10442 C10434 1.356 . S
N10442 H10448 0.984 . S
N10442 H10449 0.984 . S
N10443 C10436 1.356 . S
N10443 H10446 0.984 . S
N10443 H10447 0.985 . S
H10444 N10439 0.984 . S
H10445 N10439 0.985 . S
H10446 N10443 0.984 . S
H10447 N10443 0.985 . S
H10448 N10442 0.984 . S
H10449 N10442 0.984 . S
H10450 N10438 0.984 . S
H10451 N10438 0.985 . S
C10452 C10453 1.363 . S
C10452 C10458 1.379 . S
C10452 N10460 1.356 . S
C10453 C10452 1.363 . S
C10453 C10459 1.363 . S
C10454 C10455 1.363 . S
C10454 C10459 1.379 . S
C10454 N10461 1.356 . S
C10455 C10454 1.363 . S
C10455 C10458 1.363 . S
N10456 C10458 1.356 . S
N10456 H10468 0.984 . S
N10456 H10469 0.985 . S
N10457 C10459 1.356 . S
N10457 H10462 0.984 . S
N10457 H10463 0.985 . S
C10458 C10452 1.379 . S
C10458 C10455 1.363 . S
C10458 N10456 1.356 . S
C10459 C10453 1.363 . S
C10459 C10454 1.379 . S
C10459 N10457 1.356 . S
N10460 C10452 1.356 . S
N10460 H10466 0.984 . S
N10460 H10467 0.984 . S
N10461 C10454 1.356 . S
N10461 H10464 0.984 . S
N10461 H10465 0.985 . S
H10462 N10457 0.984 . S
H10463 N10457 0.985 . S
H10464 N10461 0.984 . S
H10465 N10461 0.985 . S
H10466 N10460 0.984 . S
H10467 N10460 0.984 . S
H10468 N10456 0.984 . S
H10469 N10456 0.985 . S
C10470 C10471 1.363 . S
C10470 C10476 1.379 . S
C10470 N10478 1.356 . S
C10471 C10470 1.363 . S
C10471 C10477 1.363 . S
C10472 C10473 1.363 . S
C10472 C10477 1.379 . S
C10472 N10479 1.356 . S
C10473 C10472 1.363 . S
C10473 C10476 1.363 . S
N10474 C10476 1.356 . S
N10474 H10486 0.984 . S
N10474 H10487 0.985 . S
N10475 C10477 1.356 . S
N10475 H10480 0.984 . S
N10475 H10481 0.985 . S
C10476 C10470 1.379 . S
C10476 C10473 1.363 . S
C10476 N10474 1.356 . S
C10477 C10471 1.363 . S
C10477 C10472 1.379 . S
C10477 N10475 1.356 . S
N10478 C10470 1.356 . S
N10478 H10484 0.984 . S
N10478 H10485 0.984 . S
N10479 C10472 1.356 . S
N10479 H10482 0.984 . S
N10479 H10483 0.985 . S
H10480 N10475 0.984 . S
H10481 N10475 0.985 . S
H10482 N10479 0.984 . S
H10483 N10479 0.985 . S
H10484 N10478 0.984 . S
H10485 N10478 0.984 . S
H10486 N10474 0.984 . S
H10487 N10474 0.985 . S
C10488 C10489 1.363 . S
C10488 C10494 1.379 . S
C10488 N10496 1.356 . S
C10489 C10488 1.363 . S
C10489 C10495 1.363 . S
C10490 C10491 1.363 . S
C10490 C10495 1.379 . S
C10490 N10497 1.356 . S
C10491 C10490 1.363 . S
C10491 C10494 1.363 . S
N10492 C10494 1.356 . S
N10492 H10504 0.984 . S
N10492 H10505 0.985 . S
N10493 C10495 1.356 . S
N10493 H10498 0.984 . S
N10493 H10499 0.985 . S
C10494 C10488 1.379 . S
C10494 C10491 1.363 . S
C10494 N10492 1.356 . S
C10495 C10489 1.363 . S
C10495 C10490 1.379 . S
C10495 N10493 1.356 . S
N10496 C10488 1.356 . S
N10496 H10502 0.984 . S
N10496 H10503 0.984 . S
N10497 C10490 1.356 . S
N10497 H10500 0.984 . S
N10497 H10501 0.985 . S
H10498 N10493 0.984 . S
H10499 N10493 0.985 . S
H10500 N10497 0.984 . S
H10501 N10497 0.985 . S
H10502 N10496 0.984 . S
H10503 N10496 0.984 . S
H10504 N10492 0.984 . S
H10505 N10492 0.985 . S
C10506 C10507 1.363 . S
C10506 C10512 1.379 . S
C10506 N10514 1.356 . S
C10507 C10506 1.363 . S
C10507 C10513 1.363 . S
C10508 C10509 1.363 . S
C10508 C10513 1.379 . S
C10508 N10515 1.356 . S
C10509 C10508 1.363 . S
C10509 C10512 1.363 . S
N10510 C10512 1.356 . S
N10510 H10522 0.984 . S
N10510 H10523 0.985 . S
N10511 C10513 1.356 . S
N10511 H10516 0.984 . S
N10511 H10517 0.985 . S
C10512 C10506 1.379 . S
C10512 C10509 1.363 . S
C10512 N10510 1.356 . S
C10513 C10507 1.363 . S
C10513 C10508 1.379 . S
C10513 N10511 1.356 . S
N10514 C10506 1.356 . S
N10514 H10520 0.984 . S
N10514 H10521 0.984 . S
N10515 C10508 1.356 . S
N10515 H10518 0.984 . S
N10515 H10519 0.985 . S
H10516 N10511 0.984 . S
H10517 N10511 0.985 . S
H10518 N10515 0.984 . S
H10519 N10515 0.985 . S
H10520 N10514 0.984 . S
H10521 N10514 0.984 . S
H10522 N10510 0.984 . S
H10523 N10510 0.985 . S
C10524 C10525 1.363 . S
C10524 C10530 1.379 . S
C10524 N10532 1.356 . S
C10525 C10524 1.363 . S
C10525 C10531 1.363 . S
C10526 C10527 1.363 . S
C10526 C10531 1.379 . S
C10526 N10533 1.356 . S
C10527 C10526 1.363 . S
C10527 C10530 1.363 . S
N10528 C10530 1.356 . S
N10528 H10540 0.984 . S
N10528 H10541 0.985 . S
N10529 C10531 1.356 . S
N10529 H10534 0.984 . S
N10529 H10535 0.985 . S
C10530 C10524 1.379 . S
C10530 C10527 1.363 . S
C10530 N10528 1.356 . S
C10531 C10525 1.363 . S
C10531 C10526 1.379 . S
C10531 N10529 1.356 . S
N10532 C10524 1.356 . S
N10532 H10538 0.984 . S
N10532 H10539 0.984 . S
N10533 C10526 1.356 . S
N10533 H10536 0.984 . S
N10533 H10537 0.985 . S
H10534 N10529 0.984 . S
H10535 N10529 0.985 . S
H10536 N10533 0.984 . S
H10537 N10533 0.985 . S
H10538 N10532 0.984 . S
H10539 N10532 0.984 . S
H10540 N10528 0.984 . S
H10541 N10528 0.985 . S
C10542 C10543 1.363 . S
C10542 C10548 1.379 . S
C10542 N10550 1.356 . S
C10543 C10542 1.363 . S
C10543 C10549 1.363 . S
C10544 C10545 1.363 . S
C10544 C10549 1.379 . S
C10544 N10551 1.356 . S
C10545 C10544 1.363 . S
C10545 C10548 1.363 . S
N10546 C10548 1.356 . S
N10546 H10558 0.984 . S
N10546 H10559 0.985 . S
N10547 C10549 1.356 . S
N10547 H10552 0.984 . S
N10547 H10553 0.985 . S
C10548 C10542 1.379 . S
C10548 C10545 1.363 . S
C10548 N10546 1.356 . S
C10549 C10543 1.363 . S
C10549 C10544 1.379 . S
C10549 N10547 1.356 . S
N10550 C10542 1.356 . S
N10550 H10556 0.984 . S
N10550 H10557 0.984 . S
N10551 C10544 1.356 . S
N10551 H10554 0.984 . S
N10551 H10555 0.985 . S
H10552 N10547 0.984 . S
H10553 N10547 0.985 . S
H10554 N10551 0.984 . S
H10555 N10551 0.985 . S
H10556 N10550 0.984 . S
H10557 N10550 0.984 . S
H10558 N10546 0.984 . S
H10559 N10546 0.985 . S
C10560 C10561 1.363 . S
C10560 C10566 1.379 . S
C10560 N10568 1.356 . S
C10561 C10560 1.363 . S
C10561 C10567 1.363 . S
C10562 C10563 1.363 . S
C10562 C10567 1.379 . S
C10562 N10569 1.356 . S
C10563 C10562 1.363 . S
C10563 C10566 1.363 . S
N10564 C10566 1.356 . S
N10564 H10576 0.984 . S
N10564 H10577 0.985 . S
N10565 C10567 1.356 . S
N10565 H10570 0.984 . S
N10565 H10571 0.985 . S
C10566 C10560 1.379 . S
C10566 C10563 1.363 . S
C10566 N10564 1.356 . S
C10567 C10561 1.363 . S
C10567 C10562 1.379 . S
C10567 N10565 1.356 . S
N10568 C10560 1.356 . S
N10568 H10574 0.984 . S
N10568 H10575 0.984 . S
N10569 C10562 1.356 . S
N10569 H10572 0.984 . S
N10569 H10573 0.985 . S
H10570 N10565 0.984 . S
H10571 N10565 0.985 . S
H10572 N10569 0.984 . S
H10573 N10569 0.985 . S
H10574 N10568 0.984 . S
H10575 N10568 0.984 . S
H10576 N10564 0.984 . S
H10577 N10564 0.985 . S
C10578 C10579 1.363 . S
C10578 C10584 1.379 . S
C10578 N10586 1.356 . S
C10579 C10578 1.363 . S
C10579 C10585 1.363 . S
C10580 C10581 1.363 . S
C10580 C10585 1.379 . S
C10580 N10587 1.356 . S
C10581 C10580 1.363 . S
C10581 C10584 1.363 . S
N10582 C10584 1.356 . S
N10582 H10594 0.984 . S
N10582 H10595 0.985 . S
N10583 C10585 1.356 . S
N10583 H10588 0.984 . S
N10583 H10589 0.985 . S
C10584 C10578 1.379 . S
C10584 C10581 1.363 . S
C10584 N10582 1.356 . S
C10585 C10579 1.363 . S
C10585 C10580 1.379 . S
C10585 N10583 1.356 . S
N10586 C10578 1.356 . S
N10586 H10592 0.984 . S
N10586 H10593 0.984 . S
N10587 C10580 1.356 . S
N10587 H10590 0.984 . S
N10587 H10591 0.985 . S
H10588 N10583 0.984 . S
H10589 N10583 0.985 . S
H10590 N10587 0.984 . S
H10591 N10587 0.985 . S
H10592 N10586 0.984 . S
H10593 N10586 0.984 . S
H10594 N10582 0.984 . S
H10595 N10582 0.985 . S
C10596 C10597 1.363 . S
C10596 C10602 1.379 . S
C10596 N10604 1.356 . S
C10597 C10596 1.363 . S
C10597 C10603 1.363 . S
C10598 C10599 1.363 . S
C10598 C10603 1.379 . S
C10598 N10605 1.356 . S
C10599 C10598 1.363 . S
C10599 C10602 1.363 . S
N10600 C10602 1.356 . S
N10600 H10612 0.984 . S
N10600 H10613 0.985 . S
N10601 C10603 1.356 . S
N10601 H10606 0.984 . S
N10601 H10607 0.985 . S
C10602 C10596 1.379 . S
C10602 C10599 1.363 . S
C10602 N10600 1.356 . S
C10603 C10597 1.363 . S
C10603 C10598 1.379 . S
C10603 N10601 1.356 . S
N10604 C10596 1.356 . S
N10604 H10610 0.984 . S
N10604 H10611 0.984 . S
N10605 C10598 1.356 . S
N10605 H10608 0.984 . S
N10605 H10609 0.985 . S
H10606 N10601 0.984 . S
H10607 N10601 0.985 . S
H10608 N10605 0.984 . S
H10609 N10605 0.985 . S
H10610 N10604 0.984 . S
H10611 N10604 0.984 . S
H10612 N10600 0.984 . S
H10613 N10600 0.985 . S
C10614 C10615 1.363 . S
C10614 C10620 1.379 . S
C10614 N10622 1.356 . S
C10615 C10614 1.363 . S
C10615 C10621 1.363 . S
C10616 C10617 1.363 . S
C10616 C10621 1.379 . S
C10616 N10623 1.356 . S
C10617 C10616 1.363 . S
C10617 C10620 1.363 . S
N10618 C10620 1.356 . S
N10618 H10630 0.984 . S
N10618 H10631 0.985 . S
N10619 C10621 1.356 . S
N10619 H10624 0.984 . S
N10619 H10625 0.985 . S
C10620 C10614 1.379 . S
C10620 C10617 1.363 . S
C10620 N10618 1.356 . S
C10621 C10615 1.363 . S
C10621 C10616 1.379 . S
C10621 N10619 1.356 . S
N10622 C10614 1.356 . S
N10622 H10628 0.984 . S
N10622 H10629 0.984 . S
N10623 C10616 1.356 . S
N10623 H10626 0.984 . S
N10623 H10627 0.985 . S
H10624 N10619 0.984 . S
H10625 N10619 0.985 . S
H10626 N10623 0.984 . S
H10627 N10623 0.985 . S
H10628 N10622 0.984 . S
H10629 N10622 0.984 . S
H10630 N10618 0.984 . S
H10631 N10618 0.985 . S
C10632 C10633 1.363 . S
C10632 C10638 1.379 . S
C10632 N10640 1.356 . S
C10633 C10632 1.363 . S
C10633 C10639 1.363 . S
C10634 C10635 1.363 . S
C10634 C10639 1.379 . S
C10634 N10641 1.356 . S
C10635 C10634 1.363 . S
C10635 C10638 1.363 . S
N10636 C10638 1.356 . S
N10636 H10648 0.984 . S
N10636 H10649 0.985 . S
N10637 C10639 1.356 . S
N10637 H10642 0.984 . S
N10637 H10643 0.985 . S
C10638 C10632 1.379 . S
C10638 C10635 1.363 . S
C10638 N10636 1.356 . S
C10639 C10633 1.363 . S
C10639 C10634 1.379 . S
C10639 N10637 1.356 . S
N10640 C10632 1.356 . S
N10640 H10646 0.984 . S
N10640 H10647 0.984 . S
N10641 C10634 1.356 . S
N10641 H10644 0.984 . S
N10641 H10645 0.985 . S
H10642 N10637 0.984 . S
H10643 N10637 0.985 . S
H10644 N10641 0.984 . S
H10645 N10641 0.985 . S
H10646 N10640 0.984 . S
H10647 N10640 0.984 . S
H10648 N10636 0.984 . S
H10649 N10636 0.985 . S
C10650 C10651 1.363 . S
C10650 C10656 1.379 . S
C10650 N10658 1.356 . S
C10651 C10650 1.363 . S
C10651 C10657 1.363 . S
C10652 C10653 1.363 . S
C10652 C10657 1.379 . S
C10652 N10659 1.356 . S
C10653 C10652 1.363 . S
C10653 C10656 1.363 . S
N10654 C10656 1.356 . S
N10654 H10666 0.984 . S
N10654 H10667 0.985 . S
N10655 C10657 1.356 . S
N10655 H10660 0.984 . S
N10655 H10661 0.985 . S
C10656 C10650 1.379 . S
C10656 C10653 1.363 . S
C10656 N10654 1.356 . S
C10657 C10651 1.363 . S
C10657 C10652 1.379 . S
C10657 N10655 1.356 . S
N10658 C10650 1.356 . S
N10658 H10664 0.984 . S
N10658 H10665 0.984 . S
N10659 C10652 1.356 . S
N10659 H10662 0.984 . S
N10659 H10663 0.985 . S
H10660 N10655 0.984 . S
H10661 N10655 0.985 . S
H10662 N10659 0.984 . S
H10663 N10659 0.985 . S
H10664 N10658 0.984 . S
H10665 N10658 0.984 . S
H10666 N10654 0.984 . S
H10667 N10654 0.985 . S
C10668 C10669 1.363 . S
C10668 C10674 1.379 . S
C10668 N10676 1.356 . S
C10669 C10668 1.363 . S
C10669 C10675 1.363 . S
C10670 C10671 1.363 . S
C10670 C10675 1.379 . S
C10670 N10677 1.356 . S
C10671 C10670 1.363 . S
C10671 C10674 1.363 . S
N10672 C10674 1.356 . S
N10672 H10684 0.984 . S
N10672 H10685 0.985 . S
N10673 C10675 1.356 . S
N10673 H10678 0.984 . S
N10673 H10679 0.985 . S
C10674 C10668 1.379 . S
C10674 C10671 1.363 . S
C10674 N10672 1.356 . S
C10675 C10669 1.363 . S
C10675 C10670 1.379 . S
C10675 N10673 1.356 . S
N10676 C10668 1.356 . S
N10676 H10682 0.984 . S
N10676 H10683 0.984 . S
N10677 C10670 1.356 . S
N10677 H10680 0.984 . S
N10677 H10681 0.985 . S
H10678 N10673 0.984 . S
H10679 N10673 0.985 . S
H10680 N10677 0.984 . S
H10681 N10677 0.985 . S
H10682 N10676 0.984 . S
H10683 N10676 0.984 . S
H10684 N10672 0.984 . S
H10685 N10672 0.985 . S
C10686 C10687 1.363 . S
C10686 C10692 1.379 . S
C10686 N10694 1.356 . S
C10687 C10686 1.363 . S
C10687 C10693 1.363 . S
C10688 C10689 1.363 . S
C10688 C10693 1.379 . S
C10688 N10695 1.356 . S
C10689 C10688 1.363 . S
C10689 C10692 1.363 . S
N10690 C10692 1.356 . S
N10690 H10702 0.984 . S
N10690 H10703 0.985 . S
N10691 C10693 1.356 . S
N10691 H10696 0.984 . S
N10691 H10697 0.985 . S
C10692 C10686 1.379 . S
C10692 C10689 1.363 . S
C10692 N10690 1.356 . S
C10693 C10687 1.363 . S
C10693 C10688 1.379 . S
C10693 N10691 1.356 . S
N10694 C10686 1.356 . S
N10694 H10700 0.984 . S
N10694 H10701 0.984 . S
N10695 C10688 1.356 . S
N10695 H10698 0.984 . S
N10695 H10699 0.985 . S
H10696 N10691 0.984 . S
H10697 N10691 0.985 . S
H10698 N10695 0.984 . S
H10699 N10695 0.985 . S
H10700 N10694 0.984 . S
H10701 N10694 0.984 . S
H10702 N10690 0.984 . S
H10703 N10690 0.985 . S
C10704 C10705 1.363 . S
C10704 C10710 1.379 . S
C10704 N10712 1.356 . S
C10705 C10704 1.363 . S
C10705 C10711 1.363 . S
C10706 C10707 1.363 . S
C10706 C10711 1.379 . S
C10706 N10713 1.356 . S
C10707 C10706 1.363 . S
C10707 C10710 1.363 . S
N10708 C10710 1.356 . S
N10708 H10720 0.984 . S
N10708 H10721 0.985 . S
N10709 C10711 1.356 . S
N10709 H10714 0.984 . S
N10709 H10715 0.985 . S
C10710 C10704 1.379 . S
C10710 C10707 1.363 . S
C10710 N10708 1.356 . S
C10711 C10705 1.363 . S
C10711 C10706 1.379 . S
C10711 N10709 1.356 . S
N10712 C10704 1.356 . S
N10712 H10718 0.984 . S
N10712 H10719 0.984 . S
N10713 C10706 1.356 . S
N10713 H10716 0.984 . S
N10713 H10717 0.985 . S
H10714 N10709 0.984 . S
H10715 N10709 0.985 . S
H10716 N10713 0.984 . S
H10717 N10713 0.985 . S
H10718 N10712 0.984 . S
H10719 N10712 0.984 . S
H10720 N10708 0.984 . S
H10721 N10708 0.985 . S
C10722 C10723 1.363 . S
C10722 C10728 1.379 . S
C10722 N10730 1.356 . S
C10723 C10722 1.363 . S
C10723 C10729 1.363 . S
C10724 C10725 1.363 . S
C10724 C10729 1.379 . S
C10724 N10731 1.356 . S
C10725 C10724 1.363 . S
C10725 C10728 1.363 . S
N10726 C10728 1.356 . S
N10726 H10738 0.984 . S
N10726 H10739 0.985 . S
N10727 C10729 1.356 . S
N10727 H10732 0.984 . S
N10727 H10733 0.985 . S
C10728 C10722 1.379 . S
C10728 C10725 1.363 . S
C10728 N10726 1.356 . S
C10729 C10723 1.363 . S
C10729 C10724 1.379 . S
C10729 N10727 1.356 . S
N10730 C10722 1.356 . S
N10730 H10736 0.984 . S
N10730 H10737 0.984 . S
N10731 C10724 1.356 . S
N10731 H10734 0.984 . S
N10731 H10735 0.985 . S
H10732 N10727 0.984 . S
H10733 N10727 0.985 . S
H10734 N10731 0.984 . S
H10735 N10731 0.985 . S
H10736 N10730 0.984 . S
H10737 N10730 0.984 . S
H10738 N10726 0.984 . S
H10739 N10726 0.985 . S
C10740 C10741 1.363 . S
C10740 C10746 1.379 . S
C10740 N10748 1.356 . S
C10741 C10740 1.363 . S
C10741 C10747 1.363 . S
C10742 C10743 1.363 . S
C10742 C10747 1.379 . S
C10742 N10749 1.356 . S
C10743 C10742 1.363 . S
C10743 C10746 1.363 . S
N10744 C10746 1.356 . S
N10744 H10756 0.984 . S
N10744 H10757 0.985 . S
N10745 C10747 1.356 . S
N10745 H10750 0.984 . S
N10745 H10751 0.985 . S
C10746 C10740 1.379 . S
C10746 C10743 1.363 . S
C10746 N10744 1.356 . S
C10747 C10741 1.363 . S
C10747 C10742 1.379 . S
C10747 N10745 1.356 . S
N10748 C10740 1.356 . S
N10748 H10754 0.984 . S
N10748 H10755 0.984 . S
N10749 C10742 1.356 . S
N10749 H10752 0.984 . S
N10749 H10753 0.985 . S
H10750 N10745 0.984 . S
H10751 N10745 0.985 . S
H10752 N10749 0.984 . S
H10753 N10749 0.985 . S
H10754 N10748 0.984 . S
H10755 N10748 0.984 . S
H10756 N10744 0.984 . S
H10757 N10744 0.985 . S
C10758 C10759 1.363 . S
C10758 C10764 1.379 . S
C10758 N10766 1.356 . S
C10759 C10758 1.363 . S
C10759 C10765 1.363 . S
C10760 C10761 1.363 . S
C10760 C10765 1.379 . S
C10760 N10767 1.356 . S
C10761 C10760 1.363 . S
C10761 C10764 1.363 . S
N10762 C10764 1.356 . S
N10762 H10774 0.984 . S
N10762 H10775 0.985 . S
N10763 C10765 1.356 . S
N10763 H10768 0.984 . S
N10763 H10769 0.985 . S
C10764 C10758 1.379 . S
C10764 C10761 1.363 . S
C10764 N10762 1.356 . S
C10765 C10759 1.363 . S
C10765 C10760 1.379 . S
C10765 N10763 1.356 . S
N10766 C10758 1.356 . S
N10766 H10772 0.984 . S
N10766 H10773 0.984 . S
N10767 C10760 1.356 . S
N10767 H10770 0.984 . S
N10767 H10771 0.985 . S
H10768 N10763 0.984 . S
H10769 N10763 0.985 . S
H10770 N10767 0.984 . S
H10771 N10767 0.985 . S
H10772 N10766 0.984 . S
H10773 N10766 0.984 . S
H10774 N10762 0.984 . S
H10775 N10762 0.985 . S
C10776 C10777 1.363 . S
C10776 C10782 1.379 . S
C10776 N10784 1.356 . S
C10777 C10776 1.363 . S
C10777 C10783 1.363 . S
C10778 C10779 1.363 . S
C10778 C10783 1.379 . S
C10778 N10785 1.356 . S
C10779 C10778 1.363 . S
C10779 C10782 1.363 . S
N10780 C10782 1.356 . S
N10780 H10792 0.984 . S
N10780 H10793 0.985 . S
N10781 C10783 1.356 . S
N10781 H10786 0.984 . S
N10781 H10787 0.985 . S
C10782 C10776 1.379 . S
C10782 C10779 1.363 . S
C10782 N10780 1.356 . S
C10783 C10777 1.363 . S
C10783 C10778 1.379 . S
C10783 N10781 1.356 . S
N10784 C10776 1.356 . S
N10784 H10790 0.984 . S
N10784 H10791 0.984 . S
N10785 C10778 1.356 . S
N10785 H10788 0.984 . S
N10785 H10789 0.985 . S
H10786 N10781 0.984 . S
H10787 N10781 0.985 . S
H10788 N10785 0.984 . S
H10789 N10785 0.985 . S
H10790 N10784 0.984 . S
H10791 N10784 0.984 . S
H10792 N10780 0.984 . S
H10793 N10780 0.985 . S
C10794 C10795 1.363 . S
C10794 C10800 1.379 . S
C10794 N10802 1.356 . S
C10795 C10794 1.363 . S
C10795 C10801 1.363 . S
C10796 C10797 1.363 . S
C10796 C10801 1.379 . S
C10796 N10803 1.356 . S
C10797 C10796 1.363 . S
C10797 C10800 1.363 . S
N10798 C10800 1.356 . S
N10798 H10810 0.984 . S
N10798 H10811 0.985 . S
N10799 C10801 1.356 . S
N10799 H10804 0.984 . S
N10799 H10805 0.985 . S
C10800 C10794 1.379 . S
C10800 C10797 1.363 . S
C10800 N10798 1.356 . S
C10801 C10795 1.363 . S
C10801 C10796 1.379 . S
C10801 N10799 1.356 . S
N10802 C10794 1.356 . S
N10802 H10808 0.984 . S
N10802 H10809 0.984 . S
N10803 C10796 1.356 . S
N10803 H10806 0.984 . S
N10803 H10807 0.985 . S
H10804 N10799 0.984 . S
H10805 N10799 0.985 . S
H10806 N10803 0.984 . S
H10807 N10803 0.985 . S
H10808 N10802 0.984 . S
H10809 N10802 0.984 . S
H10810 N10798 0.984 . S
H10811 N10798 0.985 . S
C10812 C10813 1.363 . S
C10812 C10818 1.379 . S
C10812 N10820 1.356 . S
C10813 C10812 1.363 . S
C10813 C10819 1.363 . S
C10814 C10815 1.363 . S
C10814 C10819 1.379 . S
C10814 N10821 1.356 . S
C10815 C10814 1.363 . S
C10815 C10818 1.363 . S
N10816 C10818 1.356 . S
N10816 H10828 0.984 . S
N10816 H10829 0.985 . S
N10817 C10819 1.356 . S
N10817 H10822 0.984 . S
N10817 H10823 0.985 . S
C10818 C10812 1.379 . S
C10818 C10815 1.363 . S
C10818 N10816 1.356 . S
C10819 C10813 1.363 . S
C10819 C10814 1.379 . S
C10819 N10817 1.356 . S
N10820 C10812 1.356 . S
N10820 H10826 0.984 . S
N10820 H10827 0.984 . S
N10821 C10814 1.356 . S
N10821 H10824 0.984 . S
N10821 H10825 0.985 . S
H10822 N10817 0.984 . S
H10823 N10817 0.985 . S
H10824 N10821 0.984 . S
H10825 N10821 0.985 . S
H10826 N10820 0.984 . S
H10827 N10820 0.984 . S
H10828 N10816 0.984 . S
H10829 N10816 0.985 . S
C10830 C10831 1.363 . S
C10830 C10836 1.379 . S
C10830 N10838 1.356 . S
C10831 C10830 1.363 . S
C10831 C10837 1.363 . S
C10832 C10833 1.363 . S
C10832 C10837 1.379 . S
C10832 N10839 1.356 . S
C10833 C10832 1.363 . S
C10833 C10836 1.363 . S
N10834 C10836 1.356 . S
N10834 H10846 0.984 . S
N10834 H10847 0.985 . S
N10835 C10837 1.356 . S
N10835 H10840 0.984 . S
N10835 H10841 0.985 . S
C10836 C10830 1.379 . S
C10836 C10833 1.363 . S
C10836 N10834 1.356 . S
C10837 C10831 1.363 . S
C10837 C10832 1.379 . S
C10837 N10835 1.356 . S
N10838 C10830 1.356 . S
N10838 H10844 0.984 . S
N10838 H10845 0.984 . S
N10839 C10832 1.356 . S
N10839 H10842 0.984 . S
N10839 H10843 0.985 . S
H10840 N10835 0.984 . S
H10841 N10835 0.985 . S
H10842 N10839 0.984 . S
H10843 N10839 0.985 . S
H10844 N10838 0.984 . S
H10845 N10838 0.984 . S
H10846 N10834 0.984 . S
H10847 N10834 0.985 . S
C5667 C4326 1.453 1_455 S
C5665 C15 1.585 . S
C5685 C5257 1.453 . S
C5683 C55 1.585 . S
C5703 C4364 1.453 . S
C5701 C95 1.585 . S
C5721 C5219 1.454 . S
C5719 C135 1.585 . S
C5739 C4440 1.454 1_455 S
C5737 C175 1.585 . S
C5755 C215 1.585 . S
C5757 C5295 1.453 . S
C5775 C4402 1.453 . S
C5773 C255 1.585 . S
C5793 C5333 1.453 . S
C5791 C295 1.585 . S
C5811 C5637 1.453 1_545 S
C5809 C335 1.585 . S
C5827 C375 1.585 . S
C5829 C5523 1.454 . S
C5847 C5656 1.453 1_565 S
C5845 C415 1.585 . S
C5863 C455 1.585 . S
C5865 C5618 1.453 . S
C5883 C5561 1.453 1_565 S
C5881 C495 1.585 . S
C5901 C4668 1.453 . S
C5899 C535 1.585 . S
C5919 C4687 1.454 1_545 S
C5917 C575 1.585 . S
C5935 C615 1.585 . S
C5937 C4630 1.453 . S
C5953 C655 1.585 . S
C5955 C5466 1.453 1_554 S
C5973 C4516 1.453 1_556 S
C5971 C695 1.585 . S
C5991 C5371 1.454 . S
C5989 C735 1.585 . S
C6009 C4478 1.453 . S
C6007 C775 1.585 . S
C6025 C815 1.585 . S
C6027 C4497 1.453 . S
C6045 C5504 1.454 . S
C6043 C855 1.585 . S
C6063 C5447 1.453 . S
C6061 C895 1.585 . S
C6079 C935 1.585 . S
C6081 C5485 1.453 . S
C6097 C975 1.587 . S
C6099 C3870 1.543 1_655 S
C6115 C1015 1.587 . S
C6117 C4801 1.543 . S
C6135 C3908 1.542 . S
C6133 C1055 1.587 . S
C6151 C1095 1.587 . S
C6153 C4763 1.543 . S
C6171 C3984 1.543 1_655 S
C6169 C1135 1.587 . S
C6187 C1175 1.587 . S
C6189 C4839 1.542 . S
C6207 C3946 1.543 . S
C6205 C1215 1.587 . S
C6225 C4877 1.543 . S
C6223 C1255 1.587 . S
C6241 C1295 1.587 . S
C6243 C5181 1.543 1_565 S
C6261 C5067 1.543 . S
C6259 C1335 1.587 . S
C6277 C1375 1.587 . S
C6279 C5200 1.543 1_545 S
C6297 C5162 1.542 . S
C6295 C1415 1.587 . S
C6315 C5105 1.542 1_545 S
C6313 C1455 1.587 . S
C6331 C1495 1.587 . S
C6333 C4212 1.543 . S
C6349 C1535 1.587 . S
C6351 C4231 1.543 1_565 S
C6369 C4174 1.543 . S
C6367 C1575 1.587 . S
C6385 C1615 1.587 . S
C6387 C5010 1.543 1_556 S
C6405 C4060 1.543 1_554 S
C6403 C1655 1.587 . S
C6421 C1695 1.587 . S
C6423 C4915 1.543 . S
C6441 C4022 1.542 . S
C6439 C1735 1.587 . S
C6457 C1775 1.587 . S
C6459 C4041 1.543 . S
C6477 C5048 1.543 . S
C6475 C1815 1.587 . S
C6495 C4991 1.543 . S
C6493 C1855 1.587 . S
C6513 C5029 1.542 . S
C6511 C1895 1.587 . S
C6529 C1935 1.585 . S
C6531 C5238 1.453 . S
C6549 C4345 1.453 . S
C6547 C1975 1.585 . S
C6567 C5276 1.453 1_655 S
C6565 C2015 1.585 . S
C6585 C4307 1.454 . S
C6583 C2055 1.585 . S
C6601 C2095 1.585 . S
C6603 C5352 1.454 . S
C6621 C4383 1.453 . S
C6619 C2135 1.585 . S
C6639 C5314 1.453 1_655 S
C6637 C2175 1.585 . S
C6657 C4421 1.453 . S
C6655 C2215 1.585 . S
C6673 C2255 1.585 . S
C6675 C4725 1.453 . S
C6693 C4611 1.454 . S
C6691 C2295 1.585 . S
C6711 C4744 1.453 . S
C6709 C2335 1.585 . S
C6727 C2375 1.585 . S
C6729 C4706 1.453 . S
C6745 C2415 1.585 . S
C6747 C4649 1.453 . S
C6763 C2455 1.585 . S
C6765 C5580 1.453 . S
C6781 C2495 1.585 . S
C6783 C5599 1.454 . S
C6801 C5542 1.453 . S
C6799 C2535 1.585 . S
C6817 C2575 1.585 . S
C6819 C4554 1.453 . S
C6837 C5428 1.453 . S
C6835 C2615 1.585 . S
C6855 C4459 1.454 . S
C6853 C2655 1.585 . S
C6873 C5390 1.453 1_556 S
C6871 C2695 1.585 . S
C6889 C2735 1.585 . S
C6891 C5409 1.453 . S
C6907 C2775 1.585 . S
C6909 C4592 1.454 1_554 S
C6927 C4535 1.453 . S
C6925 C2815 1.585 . S
C6943 C2855 1.585 . S
C6945 C4573 1.453 . S
C6961 C2895 1.587 . S
C6963 C4782 1.543 . S
C6981 C3889 1.543 . S
C6979 C2935 1.587 . S
C6999 C4820 1.542 1_455 S
C6997 C2975 1.587 . S
C7015 C3015 1.587 . S
C7017 C3851 1.543 . S
C7035 C4896 1.543 . S
C7033 C3055 1.587 . S
C7053 C3927 1.542 . S
C7051 C3095 1.587 . S
C7069 C3135 1.587 . S
C7071 C4858 1.543 1_455 S
C7087 C3175 1.587 . S
C7089 C3965 1.543 . S
C7107 C4269 1.543 . S
C7105 C3215 1.587 . S
C7123 C3255 1.587 . S
C7125 C4155 1.543 . S
C7143 C4288 1.543 . S
C7141 C3295 1.587 . S
C7161 C4250 1.542 . S
C7159 C3335 1.587 . S
C7177 C3375 1.587 . S
C7179 C4193 1.542 . S
C7195 C3415 1.587 . S
C7197 C5124 1.543 . S
C7215 C5143 1.543 . S
C7213 C3455 1.587 . S
C7231 C3495 1.587 . S
C7233 C5086 1.543 . S
C7251 C4098 1.543 . S
C7249 C3535 1.587 . S
C7269 C4972 1.543 . S
C7267 C3575 1.587 . S
C7285 C3615 1.587 . S
C7287 C4003 1.543 . S
C7303 C3655 1.587 . S
C7305 C4934 1.542 1_554 S
C7321 C3695 1.587 . S
C7323 C4953 1.543 . S
C7339 C3735 1.587 . S
C7341 C4136 1.543 1_556 S
C7357 C3775 1.587 . S
C7359 C4079 1.543 . S
C7377 C4117 1.542 . S
C7375 C3815 1.587 . S
C7395 C4017 1.548 . S
C7393 C2 1.526 . S
C7413 C4036 1.548 . S
C7411 C42 1.526 . S
C7429 C82 1.526 . S
C7431 C4055 1.548 . S
C7447 C122 1.527 . S
C7449 C3998 1.549 . S
C7465 C162 1.527 . S
C7467 C4131 1.549 . S
C7485 C4074 1.548 . S
C7483 C202 1.526 . S
C7503 C4093 1.548 . S
C7501 C242 1.526 . S
C7519 C282 1.526 . S
C7521 C4112 1.548 . S
C7537 C322 1.526 . S
C7539 C3903 1.548 . S
C7555 C362 1.527 . S
C7557 C3846 1.549 . S
C7573 C402 1.526 . S
C7575 C3865 1.548 . S
C7593 C3884 1.549 . S
C7591 C442 1.527 . S
C7609 C482 1.527 . S
C7611 C3941 1.549 . S
C7627 C522 1.526 . S
C7629 C3960 1.548 . S
C7645 C562 1.527 . S
C7647 C3979 1.549 . S
C7663 C602 1.526 . S
C7665 C3922 1.548 . S
C7683 C4188 1.548 . S
C7681 C642 1.526 . S
C7699 C682 1.526 . S
C7701 C5176 1.548 . S
C7719 C4150 1.549 . S
C7717 C722 1.527 . S
C7737 C5195 1.548 . S
C7735 C762 1.526 . S
C7753 C802 1.526 . S
C7755 C5157 1.548 . S
C7771 C842 1.527 . S
C7773 C5138 1.549 . S
C7791 C5081 1.548 . S
C7789 C882 1.526 . S
C7809 C5119 1.548 . S
C7807 C922 1.526 . S
C7827 C4473 1.538 . S
C7825 C962 1.593 . S
C7845 C4492 1.539 . S
C7843 C1002 1.594 . S
C7863 C4511 1.539 . S
C7861 C1042 1.594 . S
C7879 C1082 1.594 . S
C7881 C4454 1.540 . S
C7897 C1122 1.594 . S
C7899 C4587 1.540 . S
C7917 C4530 1.539 . S
C7915 C1162 1.594 . S
C7933 C1202 1.594 . S
C7935 C4549 1.539 . S
C7953 C4568 1.538 . S
C7951 C1242 1.593 . S
C7969 C1282 1.593 . S
C7971 C4359 1.538 . S
C7989 C4302 1.540 . S
C7987 C1322 1.594 . S
C8005 C1362 1.593 . S
C8007 C4321 1.539 . S
C8025 C4340 1.539 . S
C8023 C1402 1.594 . S
C8043 C4397 1.539 . S
C8041 C1442 1.594 . S
C8059 C1482 1.593 . S
C8061 C4416 1.539 . S
C8079 C4435 1.540 . S
C8077 C1522 1.594 . S
C8097 C4378 1.538 . S
C8095 C1562 1.593 . S
C8115 C4644 1.539 . S
C8113 C1602 1.593 . S
C8133 C5632 1.539 . S
C8131 C1642 1.593 . S
C8151 C4606 1.540 . S
C8149 C1682 1.594 . S
C8167 C1722 1.593 . S
C8169 C5651 1.539 . S
C8185 C1762 1.593 . S
C8187 C5613 1.539 . S
C8205 C5594 1.540 . S
C8203 C1802 1.594 . S
C8223 C5537 1.539 . S
C8221 C1842 1.593 . S
C8241 C5575 1.539 . S
C8239 C1882 1.593 . S
C8257 C1922 1.526 . S
C8259 C4929 1.548 . S
C8277 C4948 1.548 . S
C8275 C1962 1.526 . S
C8293 C2002 1.526 . S
C8295 C4967 1.548 . S
C8313 C4910 1.549 . S
C8311 C2042 1.527 . S
C8329 C2082 1.527 . S
C8331 C5043 1.549 . S
C8347 C2122 1.526 . S
C8349 C4986 1.548 . S
C8365 C2162 1.526 . S
C8367 C5005 1.548 . S
C8383 C2202 1.526 . S
C8385 C5024 1.548 . S
C8401 C2242 1.526 . S
C8403 C4815 1.548 . S
C8421 C4758 1.549 . S
C8419 C2282 1.527 . S
C8439 C4777 1.548 . S
C8437 C2322 1.526 . S
C8455 C2362 1.527 . S
C8457 C4796 1.549 . S
C8473 C2402 1.527 . S
C8475 C4853 1.549 . S
C8491 C2442 1.526 . S
C8493 C4872 1.548 . S
C8509 C2482 1.527 . S
C8511 C4891 1.549 . S
C8527 C2522 1.526 . S
C8529 C4834 1.548 . S
C8547 C5100 1.548 . S
C8545 C2562 1.526 . S
C8565 C4264 1.548 . S
C8563 C2602 1.526 . S
C8583 C5062 1.549 . S
C8581 C2642 1.527 . S
C8601 C4283 1.548 . S
C8599 C2682 1.526 . S
C8619 C4245 1.548 . S
C8617 C2722 1.526 . S
C8637 C4226 1.549 . S
C8635 C2762 1.527 . S
C8653 C2802 1.526 . S
C8655 C4169 1.548 . S
C8673 C4207 1.548 . S
C8671 C2842 1.526 . S
C8689 C2882 1.593 . S
C8691 C5385 1.538 . S
C8707 C2922 1.594 . S
C8709 C5404 1.539 . S
C8727 C5423 1.539 . S
C8725 C2962 1.594 . S
C8743 C3002 1.594 . S
C8745 C5366 1.540 . S
C8763 C5499 1.540 . S
C8761 C3042 1.594 . S
C8779 C3082 1.594 . S
C8781 C5442 1.539 . S
C8797 C3122 1.594 . S
C8799 C5461 1.539 . S
C8817 C5480 1.538 . S
C8815 C3162 1.593 . S
C8835 C5271 1.538 . S
C8833 C3202 1.593 . S
C8853 C5214 1.540 . S
C8851 C3242 1.594 . S
C8871 C5233 1.539 . S
C8869 C3282 1.593 . S
C8889 C5252 1.539 . S
C8887 C3322 1.594 . S
C8905 C3362 1.594 . S
C8907 C5309 1.539 . S
C8925 C5328 1.539 . S
C8923 C3402 1.593 . S
C8941 C3442 1.594 . S
C8943 C5347 1.540 . S
C8959 C3482 1.593 . S
C8961 C5290 1.538 . S
C8977 C3522 1.593 . S
C8979 C5556 1.539 . S
C8995 C3562 1.593 . S
C8997 C4720 1.539 . S
C9013 C3602 1.594 . S
C9015 C5518 1.540 . S
C9033 C4739 1.539 . S
C9031 C3642 1.593 . S
C9049 C3682 1.593 . S
C9051 C4701 1.539 . S
C9067 C3722 1.594 . S
C9069 C4682 1.540 . S
C9085 C3762 1.593 . S
C9087 C4625 1.539 . S
C9105 C4663 1.539 . S
C9103 C3802 1.593 . S
C9121 C21 1.602 . S
C9123 C3842 1.605 . S
C9139 C61 1.602 . S
C9141 C3861 1.606 . S
C9157 C101 1.602 . S
C9159 C3880 1.606 . S
C9177 C3899 1.607 . S
C9175 C141 1.603 . S
C9195 C3918 1.607 . S
C9193 C181 1.603 . S
C9211 C221 1.602 . S
C9213 C3937 1.606 . S
C9229 C261 1.602 . S
C9231 C3956 1.606 . S
C9247 C301 1.602 . S
C9249 C3975 1.605 . S
C9267 C3994 1.605 . S
C9265 C341 1.602 . S
C9285 C4013 1.607 . S
C9283 C381 1.603 . S
C9301 C421 1.602 . S
C9303 C4032 1.605 . S
C9321 C4051 1.606 . S
C9319 C461 1.603 . S
C9337 C501 1.603 . S
C9339 C4070 1.606 . S
C9355 C541 1.602 . S
C9357 C4089 1.605 . S
C9373 C581 1.603 . S
C9375 C4108 1.607 . S
C9391 C621 1.602 . S
C9393 C4127 1.605 . S
C9409 C661 1.602 . S
C9411 C4146 1.605 . S
C9427 C701 1.602 . S
C9429 C4165 1.605 . S
C9447 C4184 1.607 . S
C9445 C741 1.603 . S
C9465 C4203 1.606 . S
C9463 C781 1.602 . S
C9483 C4222 1.605 . S
C9481 C821 1.602 . S
C9501 C4241 1.607 . S
C9499 C861 1.603 . S
C9517 C901 1.602 . S
C9519 C4260 1.605 . S
C9537 C4279 1.606 . S
C9535 C941 1.602 . S
C9553 C981 1.678 . S
C9555 C4298 1.602 . S
C9571 C1021 1.679 . S
C9573 C4317 1.602 . S
C9589 C1061 1.679 . S
C9591 C4336 1.603 . S
C9609 C4355 1.603 . S
C9607 C1101 1.679 . S
C9625 C1141 1.679 . S
C9627 C4374 1.603 . S
C9645 C4393 1.603 . S
C9643 C1181 1.679 . S
C9661 C1221 1.679 . S
C9663 C4412 1.602 . S
C9679 C1261 1.678 . S
C9681 C4431 1.602 . S
C9699 C4450 1.602 . S
C9697 C1301 1.678 . S
C9715 C1341 1.679 . S
C9717 C4469 1.603 . S
C9735 C4488 1.602 . S
C9733 C1381 1.678 . S
C9751 C1421 1.679 . S
C9753 C4507 1.603 . S
C9771 C4526 1.603 . S
C9769 C1461 1.679 . S
C9789 C4545 1.602 . S
C9787 C1501 1.678 . S
C9807 C4564 1.603 . S
C9805 C1541 1.679 . S
C9823 C1581 1.678 . S
C9825 C4583 1.602 . S
C9841 C1621 1.678 . S
C9843 C4602 1.602 . S
C9859 C1661 1.678 . S
C9861 C4621 1.602 . S
C9877 C1701 1.679 . S
C9879 C4640 1.603 . S
C9895 C1741 1.679 . S
C9897 C4659 1.603 . S
C9913 C1781 1.678 . S
C9915 C4678 1.602 . S
C9933 C4697 1.603 . S
C9931 C1821 1.679 . S
C9949 C1861 1.678 . S
C9951 C4716 1.602 . S
C9969 C4735 1.603 . S
C9967 C1901 1.679 . S
C9985 C1941 1.602 . S
C9987 C4754 1.605 . S
C10005 C4773 1.606 . S
C10003 C1981 1.602 . S
C10023 C4792 1.606 . S
C10021 C2021 1.602 . S
C10041 C4811 1.607 . S
C10039 C2061 1.603 . S
C10057 C2101 1.603 . S
C10059 C4830 1.607 . S
C10075 C2141 1.602 . S
C10077 C4849 1.606 . S
C10095 C4868 1.606 . S
C10093 C2181 1.602 . S
C10113 C4887 1.605 . S
C10111 C2221 1.602 . S
C10129 C2261 1.602 . S
C10131 C4906 1.605 . S
C10147 C2301 1.603 . S
C10149 C4925 1.607 . S
C10165 C2341 1.602 . S
C10167 C4944 1.605 . S
C10183 C2381 1.603 . S
C10185 C4963 1.606 . S
C10201 C2421 1.603 . S
C10203 C4982 1.606 . S
C10221 C5001 1.605 . S
C10219 C2461 1.602 . S
C10239 C5020 1.607 . S
C10237 C2501 1.603 . S
C10257 C5039 1.605 . S
C10255 C2541 1.602 . S
C10275 C5058 1.605 . S
C10273 C2581 1.602 . S
C10291 C2621 1.602 . S
C10293 C5077 1.605 . S
C10309 C2661 1.603 . S
C10311 C5096 1.607 . S
C10329 C5115 1.606 . S
C10327 C2701 1.602 . S
C10345 C2741 1.602 . S
C10347 C5134 1.605 . S
C10365 C5153 1.607 . S
C10363 C2781 1.603 . S
C10383 C5172 1.605 . S
C10381 C2821 1.602 . S
C10401 C5191 1.606 . S
C10399 C2861 1.602 . S
C10417 C2901 1.678 . S
C10419 C5210 1.602 . S
C10435 C2941 1.679 . S
C10437 C5229 1.602 . S
C10453 C2981 1.679 . S
C10455 C5248 1.603 . S
C10471 C3021 1.679 . S
C10473 C5267 1.603 . S
C10491 C5286 1.603 . S
C10489 C3061 1.679 . S
C10509 C5305 1.603 . S
C10507 C3101 1.679 . S
C10527 C5324 1.602 . S
C10525 C3141 1.679 . S
C10543 C3181 1.678 . S
C10545 C5343 1.602 . S
C10561 C3221 1.678 . S
C10563 C5362 1.602 . S
C10581 C5381 1.603 . S
C10579 C3261 1.679 . S
C10599 C5400 1.602 . S
C10597 C3301 1.678 . S
C10617 C5419 1.603 . S
C10615 C3341 1.679 . S
C10635 C5438 1.603 . S
C10633 C3381 1.679 . S
C10653 C5457 1.602 . S
C10651 C3421 1.678 . S
C10671 C5476 1.603 . S
C10669 C3461 1.679 . S
C10689 C5495 1.602 . S
C10687 C3501 1.678 . S
C10707 C5514 1.602 . S
C10705 C3541 1.678 . S
C10725 C5533 1.602 . S
C10723 C3581 1.678 . S
C10743 C5552 1.603 . S
C10741 C3621 1.679 . S
C10759 C3661 1.679 . S
C10761 C5571 1.603 . S
C10779 C5590 1.602 . S
C10777 C3701 1.678 . S
C10795 C3741 1.679 . S
C10797 C5609 1.603 . S
C10815 C5628 1.602 . S
C10813 C3781 1.678 . S
C10833 C5647 1.603 . S
C10831 C3821 1.679 . S
