# Generated by pormake.
# Topology pyr, (3,6)-cn, num edge types: 1
# Building blocks:
#     Node 0, Type 0, BuildingBlock: KAKCAD_clean_linker_0, # of connection points: 3
#     Node 1, Type 0, BuildingBlock: KAKCAD_clean_linker_0, # of connection points: 3
#     Node 2, Type 0, BuildingBlock: KAKCAD_clean_linker_0, # of connection points: 3
#     Node 3, Type 0, BuildingBlock: KAKCAD_clean_linker_0, # of connection points: 3
#     Node 4, Type 0, BuildingBlock: KAKCAD_clean_linker_0, # of connection points: 3
#     Node 5, Type 0, BuildingBlock: KAKCAD_clean_linker_0, # of connection points: 3
#     Node 6, Type 0, BuildingBlock: KAKCAD_clean_linker_0, # of connection points: 3
#     Node 7, Type 0, BuildingBlock: KAKCAD_clean_linker_0, # of connection points: 3
#     Node 8, Type 1, BuildingBlock: BETDIP_clean_sbu_0, # of connection points: 6
#     Node 9, Type 1, BuildingBlock: BETDIP_clean_sbu_0, # of connection points: 6
#     Node 10, Type 1, BuildingBlock: BETDIP_clean_sbu_0, # of connection points: 6
#     Node 11, Type 1, BuildingBlock: BETDIP_clean_sbu_0, # of connection points: 6
#     Edge 12, Type (0, 1), BuildingBlock: XUDNAN_clean_linker_2, # of connection points: 2
#     Edge 13, Type (0, 1), BuildingBlock: XUDNAN_clean_linker_2, # of connection points: 2
#     Edge 14, Type (0, 1), BuildingBlock: XUDNAN_clean_linker_2, # of connection points: 2
#     Edge 15, Type (0, 1), BuildingBlock: XUDNAN_clean_linker_2, # of connection points: 2
#     Edge 16, Type (0, 1), BuildingBlock: XUDNAN_clean_linker_2, # of connection points: 2
#     Edge 17, Type (0, 1), BuildingBlock: XUDNAN_clean_linker_2, # of connection points: 2
#     Edge 18, Type (0, 1), BuildingBlock: XUDNAN_clean_linker_2, # of connection points: 2
#     Edge 19, Type (0, 1), BuildingBlock: XUDNAN_clean_linker_2, # of connection points: 2
#     Edge 20, Type (0, 1), BuildingBlock: XUDNAN_clean_linker_2, # of connection points: 2
#     Edge 21, Type (0, 1), BuildingBlock: XUDNAN_clean_linker_2, # of connection points: 2
#     Edge 22, Type (0, 1), BuildingBlock: XUDNAN_clean_linker_2, # of connection points: 2
#     Edge 23, Type (0, 1), BuildingBlock: XUDNAN_clean_linker_2, # of connection points: 2
#     Edge 24, Type (0, 1), BuildingBlock: XUDNAN_clean_linker_2, # of connection points: 2
#     Edge 25, Type (0, 1), BuildingBlock: XUDNAN_clean_linker_2, # of connection points: 2
#     Edge 26, Type (0, 1), BuildingBlock: XUDNAN_clean_linker_2, # of connection points: 2
#     Edge 27, Type (0, 1), BuildingBlock: XUDNAN_clean_linker_2, # of connection points: 2
#     Edge 28, Type (0, 1), BuildingBlock: XUDNAN_clean_linker_2, # of connection points: 2
#     Edge 29, Type (0, 1), BuildingBlock: XUDNAN_clean_linker_2, # of connection points: 2
#     Edge 30, Type (0, 1), BuildingBlock: XUDNAN_clean_linker_2, # of connection points: 2
#     Edge 31, Type (0, 1), BuildingBlock: XUDNAN_clean_linker_2, # of connection points: 2
#     Edge 32, Type (0, 1), BuildingBlock: XUDNAN_clean_linker_2, # of connection points: 2
#     Edge 33, Type (0, 1), BuildingBlock: XUDNAN_clean_linker_2, # of connection points: 2
#     Edge 34, Type (0, 1), BuildingBlock: XUDNAN_clean_linker_2, # of connection points: 2
#     Edge 35, Type (0, 1), BuildingBlock: XUDNAN_clean_linker_2, # of connection points: 2
# Relax obj value: 0.118
# Max RMSD: 0.192
# Mean RMSD: 0.087
data_MOF--net-pyr--node1-BETDIP_clean_sbu_0--node2-KAKCAD_clean_linker_0--edge1-XUDNAN_clean_linker_2
_symmetry_space_group_name_H-M    P1
_symmetry_Int_Tables_number       1
_symmetry_cell_setting            triclinic
loop_
_symmetry_equiv_pos_as_xyz
'x, y, z'
_cell_length_a     43.25536
_cell_length_b     48.511001
_cell_length_c     48.664166
_cell_angle_alpha  88.610966
_cell_angle_beta   93.026207
_cell_angle_gamma 102.33165
loop_
_atom_site_label
_atom_site_type_symbol
_atom_site_fract_x
_atom_site_fract_y
_atom_site_fract_z
_atom_type_partial_charge
C0 C 0.27303 0.2413 0.29286 0.0
C1 C 0.29104 0.23388 0.31557 0.0
C2 C 0.28724 0.25059 0.26836 0.0
C3 C 0.32 0.25309 0.26595 0.0
C4 C 0.33835 0.24682 0.28906 0.0
C5 C 0.32399 0.23735 0.31371 0.0
C6 C 0.33386 0.26004 0.23865 0.0
C7 C 0.32194 0.27881 0.2207 0.0
C8 C 0.32865 0.28064 0.19275 0.0
C9 C 0.34952 0.26506 0.18309 0.0
C10 C 0.36284 0.24716 0.20102 0.0
C11 C 0.35514 0.24482 0.22878 0.0
C12 C 0.38075 0.22771 0.18978 0.0
C13 C 0.3658 0.20785 0.17026 0.0
C14 C 0.41226 0.22843 0.19865 0.0
C15 C 0.42889 0.20985 0.18758 0.0
C16 C 0.414 0.18988 0.16786 0.0
C17 C 0.3102 0.29558 0.1733 0.0
C18 C 0.27724 0.29102 0.17525 0.0
C19 C 0.32476 0.31379 0.15262 0.0
C20 C 0.30664 0.328 0.13485 0.0
C21 C 0.27375 0.32404 0.13751 0.0
C22 C 0.25925 0.30501 0.15757 0.0
C23 C 0.38209 0.18895 0.15965 0.0
H24 H 0.24766 0.23918 0.29377 0.0
H25 H 0.27213 0.25465 0.25095 0.0
H26 H 0.36365 0.24868 0.28792 0.0
H27 H 0.33843 0.23166 0.33089 0.0
H28 H 0.30586 0.29097 0.22815 0.0
H29 H 0.36371 0.22945 0.24197 0.0
H30 H 0.35405 0.2656 0.16136 0.0
H31 H 0.34128 0.20668 0.16353 0.0
H32 H 0.42412 0.24363 0.21377 0.0
H33 H 0.45349 0.21147 0.19419 0.0
H34 H 0.26523 0.27643 0.19042 0.0
H35 H 0.35013 0.31748 0.15059 0.0
H36 H 0.36943 0.17341 0.1452 0.0
H37 H 0.23386 0.30087 0.15963 0.0
H38 H 0.31842 0.34256 0.11956 0.0
C39 C 0.19828 0.78451 0.82429 0.0
C40 C 0.23104 0.78784 0.83017 0.0
C41 C 0.18467 0.77358 0.79901 0.0
C42 C 0.20358 0.76591 0.77905 0.0
C43 C 0.23607 0.76801 0.78565 0.0
C44 C 0.2495 0.77854 0.81092 0.0
C45 C 0.19061 0.75816 0.75061 0.0
C46 C 0.16888 0.77248 0.73725 0.0
C47 C 0.16088 0.76899 0.70893 0.0
C48 C 0.17477 0.75057 0.69412 0.0
C49 C 0.1961 0.73575 0.7072 0.0
C50 C 0.20303 0.73903 0.73556 0.0
C51 C 0.21393 0.71945 0.69079 0.0
C52 C 0.19892 0.70226 0.66905 0.0
C53 C 0.24675 0.72228 0.69597 0.0
C54 C 0.26424 0.70869 0.67956 0.0
C55 C 0.2494 0.69192 0.65749 0.0
C56 C 0.14088 0.78672 0.69407 0.0
C57 C 0.14346 0.81516 0.70117 0.0
C58 C 0.12102 0.77609 0.67117 0.0
C59 C 0.10612 0.79388 0.65468 0.0
C60 C 0.11011 0.8225 0.6611 0.0
C61 C 0.12801 0.83279 0.68496 0.0
C62 C 0.21646 0.68861 0.65259 0.0
H63 H 0.18338 0.79153 0.83865 0.0
H64 H 0.1595 0.77186 0.79484 0.0
H65 H 0.25166 0.76279 0.77083 0.0
H66 H 0.27471 0.78029 0.81499 0.0
H67 H 0.15928 0.78735 0.74863 0.0
H68 H 0.21915 0.72732 0.74575 0.0
H69 H 0.17061 0.74911 0.67201 0.0
H70 H 0.17363 0.69948 0.66468 0.0
H71 H 0.25922 0.73584 0.71216 0.0
H72 H 0.28963 0.7122 0.68359 0.0
H73 H 0.15885 0.82437 0.71831 0.0
H74 H 0.11784 0.75421 0.66539 0.0
H75 H 0.20425 0.67557 0.63593 0.0
H76 H 0.13178 0.85492 0.69004 0.0
H77 H 0.09238 0.78554 0.63632 0.0
C78 C 0.74207 0.42874 0.87709 0.0
C79 C 0.76355 0.41331 0.88913 0.0
C80 C 0.71544 0.41538 0.86053 0.0
C81 C 0.70924 0.38604 0.85566 0.0
C82 C 0.73152 0.37095 0.86715 0.0
C83 C 0.75801 0.38429 0.88367 0.0
C84 C 0.67908 0.37086 0.84018 0.0
C85 C 0.66542 0.38331 0.8172 0.0
C86 C 0.63698 0.36935 0.80283 0.0
C87 C 0.62224 0.34172 0.81252 0.0
C88 C 0.63551 0.32859 0.83561 0.0
C89 C 0.66367 0.34364 0.84886 0.0
C90 C 0.62166 0.299 0.84661 0.0
C91 C 0.59173 0.29173 0.85834 0.0
C92 C 0.64083 0.27885 0.84922 0.0
C93 C 0.63118 0.25303 0.86355 0.0
C94 C 0.60199 0.24607 0.87662 0.0
C95 C 0.62329 0.38441 0.77822 0.0
C96 C 0.62583 0.41396 0.77825 0.0
C97 C 0.60864 0.3703 0.75416 0.0
C98 C 0.59732 0.38516 0.73135 0.0
C99 C 0.59969 0.41474 0.73174 0.0
C100 C 0.61443 0.42862 0.75577 0.0
C101 C 0.58209 0.26579 0.87306 0.0
H102 H 0.74528 0.45103 0.88124 0.0
H103 H 0.69901 0.42791 0.85247 0.0
H104 H 0.72833 0.34853 0.8637 0.0
H105 H 0.77382 0.37169 0.89282 0.0
H106 H 0.67759 0.40385 0.81002 0.0
H107 H 0.67333 0.33405 0.86675 0.0
H108 H 0.60058 0.33048 0.80222 0.0
H109 H 0.57635 0.30668 0.85728 0.0
H110 H 0.664 0.28342 0.84062 0.0
H111 H 0.64715 0.23861 0.86457 0.0
H112 H 0.63638 0.42608 0.79604 0.0
H113 H 0.60622 0.3477 0.75276 0.0
H114 H 0.55949 0.26179 0.88259 0.0
H115 H 0.61728 0.45125 0.75736 0.0
H116 H 0.58605 0.37332 0.71362 0.0
C117 C 0.88267 0.63466 0.23155 0.0
C118 C 0.91463 0.63611 0.22523 0.0
C119 C 0.87414 0.64671 0.25569 0.0
C120 C 0.89697 0.66154 0.27503 0.0
C121 C 0.92907 0.66318 0.26878 0.0
C122 C 0.93766 0.65053 0.24473 0.0
C123 C 0.88682 0.67421 0.30144 0.0
C124 C 0.85987 0.65931 0.31557 0.0
C125 C 0.84961 0.66981 0.33983 0.0
C126 C 0.86631 0.6964 0.34944 0.0
C127 C 0.89263 0.71291 0.33634 0.0
C128 C 0.90308 0.70103 0.31253 0.0
C129 C 0.90811 0.7422 0.34853 0.0
C130 C 0.88995 0.75831 0.3624 0.0
C131 C 0.94096 0.75398 0.34818 0.0
C132 C 0.95479 0.77995 0.36143 0.0
C133 C 0.9366 0.79554 0.3759 0.0
C134 C 0.82164 0.65372 0.356 0.0
C135 C 0.79276 0.63915 0.34324 0.0
C136 C 0.82293 0.65469 0.38506 0.0
C137 C 0.79635 0.64343 0.40049 0.0
C138 C 0.767 0.63021 0.38783 0.0
C139 C 0.76594 0.62756 0.35888 0.0
C140 C 0.90379 0.78396 0.3759 0.0
H141 H 0.86377 0.62391 0.21768 0.0
H142 H 0.84918 0.64473 0.25889 0.0
H143 H 0.9478 0.67401 0.28275 0.0
H144 H 0.96254 0.65268 0.24109 0.0
H145 H 0.84734 0.63889 0.30817 0.0
H146 H 0.92318 0.71306 0.30207 0.0
H147 H 0.85848 0.70442 0.36779 0.0
H148 H 0.8645 0.75129 0.36278 0.0
H149 H 0.95631 0.74281 0.33819 0.0
H150 H 0.98015 0.78756 0.36072 0.0
H151 H 0.79038 0.63773 0.32103 0.0
H152 H 0.84462 0.66474 0.39614 0.0
H153 H 0.8884 0.79507 0.38594 0.0
H154 H 0.74396 0.61765 0.34816 0.0
H155 H 0.7987 0.64558 0.42265 0.0
C156 C 0.75425 0.78954 0.7522 0.0
C157 C 0.76815 0.81827 0.7486 0.0
C158 C 0.73422 0.78067 0.7738 0.0
C159 C 0.72776 0.80033 0.79227 0.0
C160 C 0.74163 0.82905 0.78858 0.0
C161 C 0.76155 0.8379 0.767 0.0
C162 C 0.70777 0.791 0.81606 0.0
C163 C 0.71156 0.76718 0.83172 0.0
C164 C 0.69503 0.7597 0.85579 0.0
C165 C 0.67416 0.77612 0.86403 0.0
C166 C 0.66983 0.79989 0.84845 0.0
C167 C 0.68649 0.80698 0.82438 0.0
C168 C 0.64942 0.81833 0.8581 0.0
C169 C 0.61966 0.80674 0.86848 0.0
C170 C 0.66 0.84781 0.85743 0.0
C171 C 0.64136 0.86532 0.8671 0.0
C172 C 0.61169 0.85378 0.87765 0.0
C173 C 0.70222 0.73637 0.87346 0.0
C174 C 0.70409 0.71062 0.86178 0.0
C175 C 0.71056 0.74078 0.90155 0.0
C176 C 0.72256 0.72055 0.91721 0.0
C177 C 0.72611 0.69547 0.90512 0.0
C178 C 0.7158 0.6903 0.87749 0.0
C179 C 0.60091 0.8243 0.87808 0.0
H180 H 0.75862 0.77397 0.73816 0.0
H181 H 0.72368 0.75842 0.77597 0.0
H182 H 0.73773 0.84467 0.80278 0.0
H183 H 0.77234 0.86012 0.76509 0.0
H184 H 0.72882 0.75534 0.82607 0.0
H185 H 0.68302 0.82515 0.81215 0.0
H186 H 0.66199 0.77082 0.88298 0.0
H187 H 0.61082 0.7841 0.86909 0.0
H188 H 0.68299 0.85737 0.84986 0.0
H189 H 0.65017 0.88796 0.86627 0.0
H190 H 0.69762 0.70667 0.8402 0.0
H191 H 0.70954 0.76052 0.91102 0.0
H192 H 0.57826 0.81479 0.88632 0.0
H193 H 0.71853 0.67128 0.86755 0.0
H194 H 0.73019 0.72497 0.93851 0.0
C195 C 0.76433 0.1896 0.29444 0.0
C196 C 0.75509 0.2008 0.26924 0.0
C197 C 0.78479 0.20672 0.31317 0.0
C198 C 0.79614 0.23546 0.30721 0.0
C199 C 0.78664 0.24684 0.28216 0.0
C200 C 0.76649 0.22954 0.26315 0.0
C201 C 0.8177 0.25323 0.32745 0.0
C202 C 0.84419 0.24409 0.33881 0.0
C203 C 0.86282 0.25855 0.36059 0.0
C204 C 0.85442 0.2825 0.37127 0.0
C205 C 0.8283 0.29239 0.35944 0.0
C206 C 0.81032 0.27777 0.33733 0.0
C207 C 0.81748 0.31635 0.37131 0.0
C208 C 0.81189 0.31647 0.39947 0.0
C209 C 0.80883 0.33729 0.35394 0.0
C210 C 0.79334 0.35705 0.36421 0.0
C211 C 0.78593 0.35611 0.39202 0.0
C212 C 0.88891 0.24629 0.37318 0.0
C213 C 0.90923 0.23639 0.35603 0.0
C214 C 0.88967 0.23933 0.40138 0.0
C215 C 0.90786 0.22029 0.41157 0.0
C216 C 0.92533 0.20804 0.39362 0.0
C217 C 0.92708 0.21725 0.36612 0.0
C218 C 0.79609 0.33609 0.40971 0.0
H219 H 0.75605 0.16747 0.2995 0.0
H220 H 0.79156 0.19753 0.33248 0.0
H221 H 0.79513 0.26896 0.27718 0.0
H222 H 0.75954 0.23865 0.24386 0.0
H223 H 0.84958 0.22487 0.33127 0.0
H224 H 0.78932 0.28444 0.32895 0.0
H225 H 0.86808 0.29333 0.38862 0.0
H226 H 0.8181 0.30043 0.41326 0.0
H227 H 0.81297 0.33768 0.33215 0.0
H228 H 0.78565 0.37208 0.35003 0.0
H229 H 0.90934 0.2417 0.33427 0.0
H230 H 0.87411 0.24654 0.415 0.0
H231 H 0.79095 0.33507 0.4313 0.0
H232 H 0.94048 0.20808 0.35198 0.0
H233 H 0.90605 0.21327 0.43284 0.0
C234 C 0.25935 0.64048 0.16243 0.0
C235 C 0.2638 0.6329 0.13525 0.0
C236 C 0.28539 0.65309 0.18015 0.0
C237 C 0.31665 0.65874 0.17118 0.0
C238 C 0.32117 0.65021 0.14457 0.0
C239 C 0.29545 0.63725 0.12716 0.0
C240 C 0.34442 0.67559 0.18799 0.0
C241 C 0.35538 0.6657 0.21346 0.0
C242 C 0.38292 0.68079 0.22823 0.0
C243 C 0.39923 0.70702 0.21642 0.0
C244 C 0.38839 0.71768 0.1907 0.0
C245 C 0.36098 0.70139 0.17725 0.0
C246 C 0.40453 0.74532 0.17657 0.0
C247 C 0.41521 0.7711 0.1906 0.0
C248 C 0.40614 0.74664 0.14758 0.0
C249 C 0.41576 0.77238 0.13317 0.0
C250 C 0.42486 0.79836 0.14688 0.0
C251 C 0.39369 0.66827 0.25565 0.0
C252 C 0.37105 0.65435 0.27404 0.0
C253 C 0.42578 0.66804 0.26322 0.0
C254 C 0.43442 0.65335 0.28731 0.0
C255 C 0.41135 0.63828 0.30492 0.0
C256 C 0.3796 0.63994 0.29792 0.0
C257 C 0.42531 0.79712 0.17603 0.0
H258 H 0.23566 0.63768 0.16974 0.0
H259 H 0.28094 0.65949 0.20048 0.0
H260 H 0.34483 0.65393 0.13698 0.0
H261 H 0.30061 0.63096 0.10702 0.0
H262 H 0.34287 0.64553 0.2213 0.0
H263 H 0.35189 0.70901 0.158 0.0
H264 H 0.4202 0.719 0.22712 0.0
H265 H 0.41444 0.77142 0.21279 0.0
H266 H 0.39911 0.72756 0.13566 0.0
H267 H 0.41565 0.7719 0.11093 0.0
H268 H 0.3462 0.65431 0.26989 0.0
H269 H 0.44423 0.67831 0.24994 0.0
H270 H 0.43213 0.81645 0.18759 0.0
H271 H 0.36081 0.62974 0.31089 0.0
H272 H 0.45914 0.65293 0.29152 0.0
C273 C 0.13527 0.25106 0.66006 0.0
C274 C 0.10304 0.23775 0.6614 0.0
C275 C 0.14811 0.27709 0.67324 0.0
C276 C 0.12939 0.29196 0.68802 0.0
C277 C 0.09711 0.27844 0.68964 0.0
C278 C 0.08434 0.25201 0.6768 0.0
C279 C 0.14368 0.32163 0.70001 0.0
C280 C 0.16938 0.3389 0.68668 0.0
C281 C 0.18528 0.36568 0.69632 0.0
C282 C 0.17358 0.37624 0.71987 0.0
C283 C 0.14729 0.36067 0.73445 0.0
C284 C 0.13267 0.33311 0.72385 0.0
C285 C 0.136 0.37369 0.76042 0.0
C286 C 0.15639 0.39563 0.77562 0.0
C287 C 0.10489 0.36546 0.77035 0.0
C288 C 0.09478 0.37897 0.79323 0.0
C289 C 0.11506 0.40171 0.80732 0.0
C290 C 0.2139 0.38236 0.68113 0.0
C291 C 0.23423 0.36856 0.66721 0.0
C292 C 0.22105 0.41214 0.67962 0.0
C293 C 0.24652 0.42721 0.66446 0.0
C294 C 0.2661 0.41339 0.64967 0.0
C295 C 0.25954 0.38364 0.65182 0.0
C296 C 0.14616 0.40933 0.7979 0.0
H297 H 0.15103 0.24099 0.64925 0.0
H298 H 0.17327 0.28536 0.67189 0.0
H299 H 0.08134 0.28852 0.7004 0.0
H300 H 0.05939 0.24295 0.6786 0.0
H301 H 0.17668 0.33174 0.6677 0.0
H302 H 0.11322 0.32029 0.73448 0.0
H303 H 0.1852 0.39704 0.7267 0.0
H304 H 0.18085 0.40263 0.77055 0.0
H305 H 0.08777 0.34896 0.76001 0.0
H306 H 0.07055 0.37221 0.79922 0.0
H307 H 0.2307 0.3458 0.66809 0.0
H308 H 0.20653 0.42407 0.68967 0.0
H309 H 0.16303 0.42632 0.8079 0.0
H310 H 0.2735 0.37172 0.64107 0.0
H311 H 0.25069 0.45 0.66445 0.0
Tb312 Tb 0.99441 1.00963 0.5318 0.0
Tb313 Tb 0.05275 0.02073 0.5088 0.0
C314 C 0.94206 0.98986 0.55291 0.0
C315 C 0.92746 0.9652 0.56936 0.0
C316 C 0.89449 0.95597 0.56748 0.0
C317 C 0.87959 0.9343 0.58468 0.0
C318 C 0.89744 0.92153 0.60417 0.0
C319 C 0.93067 0.93005 0.60522 0.0
C320 C 0.94559 0.95176 0.58795 0.0
C321 C 0.02971 0.06029 0.54892 0.0
C322 C 0.04696 0.97851 0.55629 0.0
C323 C 0.10512 0.04015 0.48773 0.0
C324 C 0.12279 0.06543 0.47379 0.0
C325 C 0.12674 0.09264 0.48463 0.0
C326 C 0.14537 0.11581 0.47133 0.0
C327 C 0.15998 0.11205 0.44695 0.0
C328 C 0.15561 0.08481 0.43616 0.0
C329 C 0.13726 0.06178 0.44947 0.0
C330 C 0.01696 0.97038 0.49097 0.0
C331 C 1.00054 0.05023 0.48297 0.0
O332 O 0.948 0.98516 0.52767 0.0
O333 O 0.96524 1.00773 0.56507 0.0
O334 O 0.03906 0.03718 0.54643 0.0
O335 O 0.99987 0.05448 0.54167 0.0
O336 O 0.01635 0.97714 0.55217 0.0
O337 O 0.06739 0.99791 0.54376 0.0
O338 O 0.10029 0.0419 0.51383 0.0
O339 O 0.08036 0.02577 0.47413 0.0
O340 O 1.0079 0.99351 0.49398 0.0
O341 O 0.04686 0.97612 0.49782 0.0
O342 O 0.03102 0.05359 0.48932 0.0
O343 O 0.98019 0.03011 0.49479 0.0
H344 H 0.88017 0.966 0.55313 0.0
H345 H 0.85399 0.92786 0.58304 0.0
H346 H 0.94506 0.92075 0.62013 0.0
H347 H 0.97113 0.95857 0.5897 0.0
H348 H 0.11574 0.09598 0.5034 0.0
H349 H 0.14823 0.13661 0.47998 0.0
H350 H 0.16698 0.08116 0.41767 0.0
H351 H 0.13472 0.04094 0.44093 0.0
Tb352 Tb 0.54463 0.02956 0.02737 0.0
Tb353 Tb 0.47346 0.02029 1.00258 0.0
C354 C 0.60105 0.05337 0.03849 0.0
C355 C 0.61927 0.06344 0.064 0.0
C356 C 0.63739 0.09107 0.06464 0.0
C357 C 0.65111 0.10282 0.08944 0.0
C358 C 0.64718 0.08703 0.11413 0.0
C359 C 0.63013 0.05885 0.11317 0.0
C360 C 0.61607 0.04723 0.08837 0.0
C361 C 0.50784 0.98326 0.04995 0.0
C362 C 0.49431 0.05707 0.05619 0.0
C363 C 0.41576 1.00018 0.99184 0.0
C364 C 0.39511 0.97395 0.98111 0.0
C365 C 0.38667 0.94945 0.99748 0.0
C366 C 0.36713 0.92503 0.98635 0.0
C367 C 0.35564 0.92483 0.95876 0.0
C368 C 0.36339 0.94963 0.9428 0.0
C369 C 0.3828 0.97385 0.95384 0.0
C370 C 0.51113 0.0668 0.98041 0.0
C371 C 0.52294 0.99076 0.97604 0.0
O372 O 0.57873 0.06699 0.03135 0.0
O373 O 0.59177 0.02595 0.03545 0.0
O374 O 0.50066 1.00046 0.03178 0.0
O375 O 0.5376 0.99305 0.05665 0.0
O376 O 0.52363 0.05294 0.05621 0.0
O377 O 0.47142 0.04637 0.03781 0.0
O378 O 0.42914 0.99972 1.01668 0.0
O379 O 0.43498 1.01466 0.97421 0.0
O380 O 0.51778 0.04853 0.99755 0.0
O381 O 0.48088 0.05858 0.97533 0.0
O382 O 0.49279 0.98966 0.9808 0.0
O383 O 0.54677 1.00831 0.9889 0.0
H384 H 0.63981 0.10401 0.04608 0.0
H385 H 0.66361 0.12468 0.08936 0.0
H386 H 0.62711 0.0459 0.13167 0.0
H387 H 0.60196 0.0259 0.08845 0.0
H388 H 0.3951 0.94908 1.0188 0.0
H389 H 0.36141 0.90624 0.99916 0.0
H390 H 0.35421 0.95043 0.92171 0.0
H391 H 0.38819 0.9926 0.94093 0.0
Tb392 Tb 0.5103 0.55506 0.52575 0.0
Tb393 Tb 0.51266 0.49934 0.50341 0.0
C394 C 0.49273 0.60103 0.52792 0.0
C395 C 0.46949 0.61198 0.54294 0.0
C396 C 0.46073 0.63679 0.53336 0.0
C397 C 0.43484 0.64514 0.54394 0.0
C398 C 0.41724 0.62877 0.56432 0.0
C399 C 0.42694 0.60452 0.57479 0.0
C400 C 0.4528 0.59606 0.56403 0.0
C401 C 0.53021 0.52442 0.5679 0.0
C402 C 0.45407 0.50224 0.53878 0.0
C403 C 0.53029 0.45491 0.492 0.0
C404 C 0.55798 0.44824 0.47925 0.0
C405 C 0.57451 0.42967 0.49299 0.0
C406 C 0.60158 0.42375 0.4821 0.0
C407 C 0.61263 0.43607 0.45699 0.0
C408 C 0.59586 0.45464 0.44318 0.0
C409 C 0.56892 0.46078 0.45427 0.0
C410 C 0.48141 0.53027 0.47018 0.0
C411 C 0.57142 0.55244 0.49328 0.0
O412 O 0.48012 0.58082 0.51085 0.0
O413 O 0.5177 0.5959 0.54195 0.0
O414 O 0.52328 0.51732 0.54294 0.0
O415 O 0.52643 0.55017 0.56908 0.0
O416 O 0.4632 0.52996 0.5354 0.0
O417 O 0.47164 0.48521 0.52984 0.0
O418 O 0.53623 0.46725 0.51585 0.0
O419 O 0.51057 0.46595 0.4762 0.0
O420 O 0.50707 0.53897 0.48445 0.0
O421 O 0.47271 0.50326 0.47486 0.0
O422 O 0.55877 0.52513 0.48946 0.0
O423 O 0.5565 0.56822 0.50743 0.0
H424 H 0.47314 0.64913 0.51688 0.0
H425 H 0.42814 0.66411 0.53575 0.0
H426 H 0.41369 0.59143 0.59036 0.0
H427 H 0.45897 0.57657 0.57135 0.0
H428 H 0.56669 0.42 0.51244 0.0
H429 H 0.61414 0.40987 0.49368 0.0
H430 H 0.60334 0.4643 0.42367 0.0
H431 H 0.55679 0.4754 0.44333 0.0
Tb432 Tb 1.00959 0.54522 0.99594 0.0
Tb433 Tb 0.01468 0.49912 0.0302 0.0
C434 C 0.98847 0.58257 0.96874 0.0
C435 C 0.95837 0.59183 0.96907 0.0
C436 C 0.93243 0.57504 0.98193 0.0
C437 C 0.90304 0.58268 0.98034 0.0
C438 C 0.89912 0.60724 0.96591 0.0
C439 C 0.92544 0.62436 0.95369 0.0
C440 C 0.95484 0.61667 0.95525 0.0
C441 C 0.0681 0.55111 1.01907 0.0
C442 C 0.98588 0.54528 0.05815 0.0
C443 C 0.03334 0.46094 0.05823 0.0
C444 C 0.05722 0.44383 0.05615 0.0
C445 C 0.08406 0.45322 0.04065 0.0
C446 C 0.10877 0.43869 0.04217 0.0
C447 C 0.10694 0.41468 0.05925 0.0
C448 C 0.07913 0.40446 0.07335 0.0
C449 C 0.05452 0.41898 0.07186 0.0
C450 C 0.9562 0.49452 1.0073 0.0
C451 C 0.03817 0.49918 0.96729 0.0
O452 O 0.98598 0.55682 0.96036 0.0
O453 O 1.00728 0.58794 0.99072 0.0
O454 O 0.04231 0.54155 0.03054 0.0
O455 O 0.06105 0.55835 0.99413 0.0
O456 O 0.9826 0.55338 0.03201 0.0
O457 O 1.0008 0.52439 0.0634 0.0
O458 O 0.0445 0.48789 0.06169 0.0
O459 O 1.0092 0.456 0.04048 0.0
O460 O 0.98207 0.50301 0.99571 0.0
O461 O 0.96292 0.48809 0.03261 0.0
O462 O 0.03841 0.48798 0.99265 0.0
O463 O 0.02637 0.52209 0.96335 0.0
H464 H 0.93473 0.5557 0.99266 0.0
H465 H 0.88331 0.56921 0.99017 0.0
H466 H 0.92308 0.64321 0.9421 0.0
H467 H 0.97459 0.62975 0.94512 0.0
H468 H 0.0865 0.47242 0.02836 0.0
H469 H 0.12995 0.44711 0.03118 0.0
H470 H 0.07686 0.38572 0.0863 0.0
H471 H 0.03389 0.41139 0.08381 0.0
H472 H 0.23753 0.19264 0.31596 0.0
H473 H 0.30815 0.24424 0.37037 0.0
H474 H 0.28013 0.22097 0.41074 0.0
H475 H 0.16954 0.19228 0.35659 0.0
H476 H 0.15153 0.15621 0.34835 0.0
H477 H 0.1765 0.17794 0.32421 0.0
H478 H 0.21177 0.14095 0.3235 0.0
H479 H 0.1869 0.11909 0.34754 0.0
H480 H 0.22887 0.13 0.35543 0.0
H481 H 0.24434 0.19056 0.44505 0.0
H482 H 0.20649 0.15399 0.46984 0.0
H483 H 0.15979 0.12376 0.39192 0.0
C484 C 0.24686 0.19946 0.33635 0.0
C485 C 0.27477 0.22048 0.34009 0.0
C486 C 0.28677 0.22815 0.36711 0.0
C487 C 0.2709 0.21519 0.39009 0.0
C488 C 0.24321 0.19465 0.38558 0.0
C489 C 0.23145 0.18681 0.35931 0.0
C490 C 0.20225 0.16333 0.3597 0.0
C491 C 0.17324 0.17303 0.34643 0.0
C492 C 0.2078 0.13678 0.34573 0.0
C493 C 0.19947 0.15885 0.39034 0.0
C494 C 0.22306 0.17721 0.40504 0.0
C495 C 0.22567 0.17622 0.43372 0.0
C496 C 0.204 0.15553 0.44763 0.0
C497 C 0.18031 0.13606 0.43276 0.0
C498 C 0.17778 0.13825 0.40382 0.0
H499 H 0.28678 0.82672 0.83297 0.0
H500 H 0.21014 0.78466 0.88311 0.0
H501 H 0.23572 0.81272 0.92323 0.0
H502 H 0.35053 0.83111 0.88618 0.0
H503 H 0.37082 0.86526 0.87406 0.0
H504 H 0.34732 0.84047 0.85022 0.0
H505 H 0.3148 0.87775 0.83475 0.0
H506 H 0.33808 0.9026 0.85854 0.0
H507 H 0.29557 0.89372 0.86016 0.0
H508 H 0.26897 0.84797 0.95717 0.0
H509 H 0.30543 0.88773 0.98084 0.0
H510 H 0.36033 0.90426 0.90792 0.0
C511 C 0.27567 0.82276 0.85252 0.0
C512 C 0.24662 0.80322 0.85496 0.0
C513 C 0.23239 0.79956 0.88074 0.0
C514 C 0.24685 0.81525 0.90366 0.0
C515 C 0.27554 0.83438 0.90042 0.0
C516 C 0.28975 0.83806 0.87544 0.0
C517 C 0.3196 0.86086 0.87664 0.0
C518 C 0.34879 0.84869 0.87148 0.0
C519 C 0.31682 0.88516 0.85633 0.0
C520 C 0.3198 0.86992 0.9061 0.0
C521 C 0.29441 0.85436 0.91967 0.0
C522 C 0.28911 0.86006 0.9468 0.0
C523 C 0.30998 0.88256 0.96012 0.0
C524 C 0.33561 0.89912 0.94617 0.0
C525 C 0.34079 0.89216 0.91905 0.0
H526 H 0.59892 0.41151 0.67272 0.0
H527 H 0.56695 0.45636 0.7381 0.0
H528 H 0.54578 0.48617 0.70375 0.0
H529 H 0.62213 0.47268 0.62753 0.0
H530 H 0.6083 0.45456 0.59586 0.0
H531 H 0.62063 0.43538 0.62516 0.0
H532 H 0.56635 0.40054 0.62284 0.0
H533 H 0.55389 0.41964 0.59351 0.0
H534 H 0.53059 0.41392 0.62358 0.0
H535 H 0.52925 0.513 0.66342 0.0
H536 H 0.51778 0.5352 0.61944 0.0
H537 H 0.55787 0.47498 0.57604 0.0
C538 C 0.58721 0.42743 0.67983 0.0
C539 C 0.58529 0.43138 0.70885 0.0
C540 C 0.56969 0.4528 0.71658 0.0
C541 C 0.55724 0.46993 0.69699 0.0
C542 C 0.56002 0.46591 0.66899 0.0
C543 C 0.57447 0.44517 0.66017 0.0
C544 C 0.57434 0.44621 0.62841 0.0
C545 C 0.60838 0.45258 0.61866 0.0
C546 C 0.55516 0.41841 0.61637 0.0
C547 C 0.55783 0.47081 0.62101 0.0
C548 C 0.54988 0.48159 0.64508 0.0
C549 C 0.53528 0.50458 0.64451 0.0
C550 C 0.52883 0.51717 0.61909 0.0
C551 C 0.5365 0.5072 0.59364 0.0
C552 C 0.55112 0.48322 0.59477 0.0
H553 H 0.96136 0.60422 0.21292 0.0
H554 H 0.88674 0.64061 0.17365 0.0
H555 H 0.89671 0.62195 0.12911 0.0
H556 H 0.01449 0.61577 0.15498 0.0
H557 H 0.02676 0.58263 0.1594 0.0
H558 H 0.01481 0.59932 0.18858 0.0
H559 H 0.97309 0.55409 0.19871 0.0
H560 H 0.9849 0.53728 0.16954 0.0
H561 H 0.94407 0.53949 0.17207 0.0
H562 H 0.91532 0.60001 0.08699 0.0
H563 H 0.93881 0.57534 0.05251 0.0
H564 H 1.00051 0.54929 0.11657 0.0
C565 C 0.94718 0.60845 0.19496 0.0
C566 C 0.92288 0.6243 0.19768 0.0
C567 C 0.90512 0.62862 0.17306 0.0
C568 C 0.91078 0.61806 0.14727 0.0
C569 C 0.93436 0.60249 0.1454 0.0
C570 C 0.95224 0.59747 0.16865 0.0
C571 C 0.97556 0.57927 0.16061 0.0
C572 C 1.00995 0.59519 0.16624 0.0
C573 C 0.96902 0.55085 0.17617 0.0
C574 C 0.96809 0.57501 0.12941 0.0
C575 C 0.94434 0.58893 0.1212 0.0
C576 C 0.93376 0.58896 0.09348 0.0
C577 C 0.94744 0.5747 0.07377 0.0
C578 C 0.97164 0.5597 0.08107 0.0
C579 C 0.98188 0.55999 0.10975 0.0
H580 H 0.4075 0.16991 0.11503 0.0
H581 H 0.4599 0.16471 0.193 0.0
H582 H 0.48751 0.13113 0.17265 0.0
H583 H 0.39395 0.09642 0.10071 0.0
H584 H 0.39727 0.10186 0.06411 0.0
H585 H 0.38356 0.12711 0.08425 0.0
H586 H 0.42794 0.1671 0.06619 0.0
H587 H 0.44177 0.14198 0.04597 0.0
H588 H 0.46863 0.16369 0.07025 0.0
H589 H 0.50947 0.09786 0.14327 0.0
H590 H 0.52169 0.0661 0.10819 0.0
H591 H 0.4509 0.09032 0.05164 0.0
C592 C 0.4245 0.1616 0.12808 0.0
C593 C 0.43142 0.17011 0.15571 0.0
C594 C 0.45448 0.15901 0.17165 0.0
C595 C 0.47016 0.13974 0.16033 0.0
C596 C 0.46231 0.13157 0.13315 0.0
C597 C 0.43986 0.14204 0.11734 0.0
C598 C 0.43468 0.12916 0.08905 0.0
C599 C 0.40033 0.11266 0.08427 0.0
C600 C 0.44381 0.15184 0.06654 0.0
C601 C 0.45762 0.10963 0.09141 0.0
C602 C 0.4737 0.11154 0.11684 0.0
C603 C 0.49684 0.09605 0.12337 0.0
C604 C 0.50364 0.07812 0.10336 0.0
C605 C 0.48693 0.07555 0.0774 0.0
C606 C 0.46363 0.09149 0.07149 0.0
H607 H 0.07009 0.85898 0.66794 0.0
H608 H 0.12854 0.83131 0.60903 0.0
H609 H 0.11753 0.86774 0.57593 0.0
H610 H 1.00983 0.8742 0.61556 0.0
H611 H 1.00362 0.9044 0.63365 0.0
H612 H 0.01489 0.87538 0.65256 0.0
H613 H 0.063 0.9099 0.67522 0.0
H614 H 0.05205 0.93896 0.65621 0.0
H615 H 0.09112 0.93203 0.6537 0.0
H616 H 0.10597 0.90975 0.55182 0.0
H617 H 0.08772 0.95178 0.53414 0.0
H618 H 0.03165 0.95055 0.60569 0.0
C619 C 0.08005 0.86044 0.64787 0.0
C620 C 0.10006 0.8424 0.64083 0.0
C621 C 0.1129 0.8448 0.61455 0.0
C622 C 0.10691 0.86547 0.59572 0.0
C623 C 0.08752 0.8832 0.60332 0.0
C624 C 0.0736 0.88059 0.62843 0.0
C625 C 0.05351 0.90249 0.63103 0.0
C626 C 0.01837 0.88826 0.63333 0.0
C627 C 0.06566 0.92199 0.6555 0.0
C628 C 0.05914 0.91824 0.60379 0.0
C629 C 0.07914 0.9068 0.58838 0.0
C630 C 0.08984 0.91861 0.56341 0.0
C631 C 0.07955 0.9426 0.55366 0.0
C632 C 0.05829 0.95424 0.56856 0.0
C633 C 0.04771 0.94182 0.59387 0.0
H634 H 0.82598 0.44257 0.88164 0.0
H635 H 0.75896 0.4128 0.94443 0.0
H636 H 0.79989 0.43181 0.98053 0.0
H637 H 0.89449 0.42675 0.91899 0.0
H638 H 0.92194 0.4577 0.90744 0.0
H639 H 0.88722 0.44295 0.88623 0.0
H640 H 0.87061 0.49117 0.88492 0.0
H641 H 0.90532 0.50605 0.90614 0.0
H642 H 0.86657 0.50799 0.91678 0.0
H643 H 0.84828 0.45288 1.01023 0.0
H644 H 0.90078 0.47363 0.03161 0.0
H645 H 0.9387 0.49057 0.95071 0.0
C646 C 0.81996 0.44033 0.903 0.0
C647 C 0.78899 0.42628 0.9102 0.0
C648 C 0.78227 0.42355 0.9384 0.0
C649 C 0.80545 0.43432 0.95907 0.0
C650 C 0.83566 0.44795 0.95145 0.0
C651 C 0.84308 0.45106 0.9241 0.0
C652 C 0.87778 0.46612 0.92185 0.0
C653 C 0.89646 0.44725 0.90779 0.0
C654 C 0.8802 0.49452 0.90651 0.0
C655 C 0.88874 0.47059 0.95212 0.0
C656 C 0.86385 0.46004 0.96873 0.0
C657 C 0.86786 0.46122 0.99735 0.0
C658 C 0.89793 0.47312 1.00937 0.0
C659 C 0.92418 0.48383 0.99307 0.0
C660 C 0.91925 0.48273 0.96389 0.0
H661 H 0.71896 0.57978 0.38895 0.0
H662 H 0.74809 0.66217 0.4263 0.0
H663 H 0.70302 0.65077 0.45636 0.0
H664 H 0.6331 0.57435 0.39094 0.0
H665 H 0.62422 0.53734 0.40005 0.0
H666 H 0.65843 0.55177 0.38059 0.0
H667 H 0.69307 0.53177 0.41711 0.0
H668 H 0.65967 0.51879 0.43806 0.0
H669 H 0.69413 0.54257 0.45242 0.0
H670 H 0.65487 0.63121 0.48304 0.0
H671 H 0.60695 0.605 0.50435 0.0
H672 H 0.6063 0.5335 0.45216 0.0
C673 C 0.7157 0.5955 0.40331 0.0
C674 C 0.73774 0.62209 0.40502 0.0
C675 C 0.73227 0.64167 0.42448 0.0
C676 C 0.70646 0.63538 0.44173 0.0
C677 C 0.68565 0.60913 0.43986 0.0
C678 C 0.68984 0.58937 0.4212 0.0
C679 C 0.66394 0.56249 0.42429 0.0
C680 C 0.64372 0.55611 0.39736 0.0
C681 C 0.67863 0.53741 0.43347 0.0
C682 C 0.64442 0.57049 0.44712 0.0
C683 C 0.65767 0.59756 0.45572 0.0
C684 C 0.64438 0.60999 0.47641 0.0
C685 C 0.61688 0.59473 0.4885 0.0
C686 C 0.6022 0.56687 0.48033 0.0
C687 C 0.61663 0.5546 0.45926 0.0
H688 H 0.22774 0.34916 0.15447 0.0
H689 H 0.27543 0.33481 0.08162 0.0
H690 H 0.23911 0.35825 0.05298 0.0
H691 H 0.15045 0.33328 0.12455 0.0
H692 H 0.13683 0.35959 0.14335 0.0
H693 H 0.16832 0.34408 0.15795 0.0
H694 H 0.20469 0.3938 0.16348 0.0
H695 H 0.17319 0.4095 0.14911 0.0
H696 H 0.21128 0.4171 0.13396 0.0
H697 H 0.19473 0.38124 0.03233 0.0
H698 H 0.1476 0.40197 0.02199 0.0
H699 H 0.12984 0.39939 0.10901 0.0
C700 C 0.23066 0.35096 0.13248 0.0
C701 C 0.25423 0.34003 0.12021 0.0
C702 C 0.25761 0.34325 0.09144 0.0
C703 C 0.23702 0.35639 0.07504 0.0
C704 C 0.21342 0.36625 0.08783 0.0
C705 C 0.21038 0.36378 0.11596 0.0
C706 C 0.18256 0.37497 0.12486 0.0
C707 C 0.1581 0.35158 0.13847 0.0
C708 C 0.1936 0.40035 0.14397 0.0
C709 C 0.17 0.38384 0.09731 0.0
C710 C 0.18809 0.37889 0.07612 0.0
C711 C 0.18051 0.38528 0.0488 0.0
C712 C 0.15378 0.39703 0.04313 0.0
C713 C 0.13492 0.40196 0.06468 0.0
C714 C 0.14341 0.39536 0.09203 0.0
H715 H 0.54216 0.21122 0.88796 0.0
H716 H 0.64276 0.21914 0.90758 0.0
H717 H 0.63127 0.17553 0.9353 0.0
H718 H 0.51665 0.1846 0.95596 0.0
H719 H 0.48154 0.1607 0.94268 0.0
H720 H 0.49744 0.19259 0.92387 0.0
H721 H 0.50061 0.16322 0.88085 0.0
H722 H 0.48473 0.13126 0.89955 0.0
H723 H 0.52203 0.13512 0.88346 0.0
H724 H 0.60871 0.12867 0.96114 0.0
H725 H 0.57704 0.08547 0.98241 0.0
H726 H 0.49109 0.10829 0.94882 0.0
C727 C 0.5619 0.20403 0.89814 0.0
C728 C 0.59369 0.21917 0.89458 0.0
C729 C 0.61829 0.20821 0.9087 0.0
C730 C 0.61196 0.18326 0.92496 0.0
C731 C 0.58067 0.16883 0.92766 0.0
C732 C 0.55598 0.17895 0.91474 0.0
C733 C 0.52441 0.15939 0.9212 0.0
C734 C 0.50379 0.17527 0.93686 0.0
C735 C 0.50692 0.14649 0.89468 0.0
C736 C 0.53519 0.13679 0.93958 0.0
C737 C 0.56778 0.14257 0.94306 0.0
C738 C 0.58312 0.1243 0.95874 0.0
C739 C 0.56487 0.09975 0.9711 0.0
C740 C 0.53134 0.09338 0.96818 0.0
C741 C 0.51662 0.11242 0.95196 0.0
H742 H 0.92149 0.81954 0.42512 0.0
H743 H 0.98577 0.83754 0.35836 0.0
H744 H 1.01009 0.88343 0.37901 0.0
H745 H 0.91052 0.89173 0.43317 0.0
H746 H 0.91028 0.8898 0.47019 0.0
H747 H 0.89708 0.85824 0.45025 0.0
H748 H 0.93768 0.83459 0.47728 0.0
H749 H 0.95086 0.86601 0.49739 0.0
H750 H 0.97896 0.85197 0.47892 0.0
H751 H 0.02842 0.92862 0.40703 0.0
H752 H 0.04092 0.96696 0.44095 0.0
H753 H 0.96646 0.92181 0.49141 0.0
C754 C 0.94058 0.83312 0.41466 0.0
C755 C 0.95143 0.82404 0.38968 0.0
C756 C 0.97688 0.843 0.37741 0.0
C757 C 0.99085 0.86954 0.38902 0.0
C758 C 0.97969 0.87767 0.4134 0.0
C759 C 0.95523 0.85991 0.42627 0.0
C760 C 0.94855 0.8737 0.45288 0.0
C761 C 0.91458 0.87865 0.45154 0.0
C762 C 0.95435 0.85548 0.47811 0.0
C763 C 0.9729 0.90191 0.45291 0.0
C764 C 0.99044 0.90368 0.42972 0.0
C765 C 0.01462 0.92731 0.4251 0.0
C766 C 0.02149 0.94927 0.44457 0.0
C767 C 1.00447 0.94828 0.46887 0.0
C768 C 0.97957 0.92398 0.47287 0.0
H769 H 0.29981 0.66715 0.67148 0.0
H770 H 0.24327 0.68911 0.60124 0.0
H771 H 0.27812 0.67231 0.56996 0.0
H772 H 0.37384 0.69068 0.64277 0.0
H773 H 0.39136 0.66284 0.65758 0.0
H774 H 0.36015 0.67381 0.67462 0.0
H775 H 0.32729 0.62245 0.674 0.0
H776 H 0.3585 0.61128 0.65704 0.0
H777 H 0.31876 0.60411 0.64179 0.0
H778 H 0.32161 0.65726 0.54628 0.0
H779 H 0.36979 0.64321 0.53175 0.0
H780 H 0.39859 0.63138 0.61722 0.0
C781 C 0.29458 0.66822 0.64952 0.0
C782 C 0.26867 0.67937 0.63884 0.0
C783 C 0.26259 0.68023 0.60996 0.0
C784 C 0.28238 0.67088 0.59201 0.0
C785 C 0.30805 0.66057 0.60322 0.0
C786 C 0.31408 0.65896 0.63131 0.0
C787 C 0.34407 0.64821 0.638 0.0
C788 C 0.36881 0.6702 0.65419 0.0
C789 C 0.3367 0.61982 0.65363 0.0
C790 C 0.35438 0.64463 0.60927 0.0
C791 C 0.33316 0.65177 0.58953 0.0
C792 C 0.33824 0.6514 0.56154 0.0
C793 C 0.36577 0.6436 0.5535 0.0
C794 C 0.38791 0.63629 0.57337 0.0
C795 C 0.38189 0.63656 0.6016 0.0
H796 H 0.7697 0.86455 0.71509 0.0
H797 H 0.81536 0.79398 0.73108 0.0
H798 H 0.85266 0.81159 0.6946 0.0
H799 H 0.77675 0.86801 0.64137 0.0
H800 H 0.7844 0.90601 0.64005 0.0
H801 H 0.7606 0.88699 0.66649 0.0
H802 H 0.79815 0.91552 0.70395 0.0
H803 H 0.82203 0.93464 0.67764 0.0
H804 H 0.83997 0.91602 0.70439 0.0
H805 H 0.88667 0.83863 0.65765 0.0
H806 H 0.91334 0.87201 0.6226 0.0
H807 H 0.84531 0.92474 0.63212 0.0
C808 C 0.78755 0.85278 0.71096 0.0
C809 C 0.78966 0.82791 0.72592 0.0
C810 C 0.8131 0.81292 0.71963 0.0
C811 C 0.83447 0.82284 0.69906 0.0
C812 C 0.83193 0.84766 0.68493 0.0
C813 C 0.80894 0.86233 0.69057 0.0
C814 C 0.8115 0.88871 0.67294 0.0
C815 C 0.78153 0.88733 0.65409 0.0
C816 C 0.81833 0.91529 0.6908 0.0
C817 C 0.8397 0.88678 0.65662 0.0
C818 C 0.85121 0.86299 0.66374 0.0
C819 C 0.87772 0.85725 0.6518 0.0
C820 C 0.89279 0.87636 0.63204 0.0
C821 C 0.88122 0.90082 0.62445 0.0
C822 C 0.85433 0.90593 0.63701 0.0
H823 H 0.76345 0.19482 0.21454 0.0
H824 H 0.69922 0.16469 0.27947 0.0
H825 H 0.66477 0.13187 0.24696 0.0
H826 H 0.70396 0.19156 0.15885 0.0
H827 H 0.72765 0.17961 0.13415 0.0
H828 H 0.74659 0.20129 0.16234 0.0
H829 H 0.77843 0.16327 0.1769 0.0
H830 H 0.75946 0.1414 0.14884 0.0
H831 H 0.75755 0.12761 0.18358 0.0
H832 H 0.63735 0.10277 0.20744 0.0
H833 H 0.61868 0.07899 0.16364 0.0
H834 H 0.70259 0.12617 0.12511 0.0
C835 C 0.74192 0.18153 0.22175 0.0
C836 C 0.7338 0.18227 0.24939 0.0
C837 C 0.70579 0.16428 0.25833 0.0
C838 C 0.68612 0.14566 0.24005 0.0
C839 C 0.69497 0.14519 0.21299 0.0
C840 C 0.72221 0.1626 0.20385 0.0
C841 C 0.7267 0.1574 0.17392 0.0
C842 C 0.72618 0.18405 0.15628 0.0
C843 C 0.75735 0.14678 0.17063 0.0
C844 C 0.69765 0.13445 0.16764 0.0
C845 C 0.67962 0.12779 0.19041 0.0
C846 C 0.65139 0.10761 0.18951 0.0
C847 C 0.64115 0.09401 0.16455 0.0
C848 C 0.65923 0.10047 0.14085 0.0
C849 C 0.688 0.12085 0.14267 0.0
H850 H 0.46458 0.6448 0.34414 0.0
H851 H 0.37587 0.58726 0.32139 0.0
H852 H 0.38415 0.55642 0.36044 0.0
H853 H 0.50742 0.58943 0.36658 0.0
H854 H 0.52886 0.6089 0.39523 0.0
H855 H 0.51664 0.62747 0.36544 0.0
H856 H 0.48748 0.65497 0.39651 0.0
H857 H 0.49953 0.63639 0.42636 0.0
H858 H 0.45814 0.63579 0.41885 0.0
H859 H 0.40068 0.53071 0.40211 0.0
H860 H 0.42528 0.51126 0.44266 0.0
H861 H 0.50496 0.58281 0.44172 0.0
C862 C 0.4469 0.62568 0.34727 0.0
C863 C 0.41896 0.6193 0.32922 0.0
C864 C 0.39692 0.5937 0.33468 0.0
C865 C 0.40155 0.57565 0.35698 0.0
C866 C 0.42864 0.58274 0.37442 0.0
C867 C 0.45117 0.60705 0.36991 0.0
C868 C 0.47823 0.60906 0.39222 0.0
C869 C 0.50966 0.6087 0.37908 0.0
C870 C 0.48102 0.63564 0.40951 0.0
C871 C 0.4673 0.58217 0.40974 0.0
C872 C 0.4385 0.5675 0.39881 0.0
C873 C 0.42324 0.5421 0.41072 0.0
C874 C 0.43756 0.53113 0.43402 0.0
C875 C 0.46724 0.54512 0.446 0.0
C876 C 0.48221 0.57138 0.43353 0.0
H877 H 0.08241 0.3856 0.85759 0.0
H878 H 0.12306 0.45914 0.80885 0.0
H879 H 0.10858 0.48994 0.84332 0.0
H880 H 0.01646 0.41332 0.88345 0.0
H881 H 0.0191 0.39866 0.91767 0.0
H882 H 0.03148 0.3816 0.88893 0.0
H883 H 0.08646 0.38454 0.91346 0.0
H884 H 0.07426 0.40168 0.94223 0.0
H885 H 0.10925 0.41829 0.92472 0.0
H886 H 0.08845 0.5141 0.88278 0.0
H887 H 0.06711 0.52941 0.92434 0.0
H888 H 0.04133 0.44236 0.95237 0.0
C889 C 0.0881 0.40818 0.85403 0.0
C890 C 0.10412 0.41949 0.82966 0.0
C891 C 0.11113 0.4494 0.82677 0.0
C892 C 0.10283 0.4673 0.84647 0.0
C893 C 0.08754 0.45568 0.87004 0.0
C894 C 0.08039 0.42676 0.87415 0.0
C895 C 0.06464 0.42026 0.90208 0.0
C896 C 0.03092 0.40239 0.89777 0.0
C897 C 0.08485 0.40529 0.92179 0.0
C898 C 0.0639 0.44985 0.91279 0.0
C899 C 0.07708 0.46983 0.8936 0.0
C900 C 0.07836 0.49848 0.89789 0.0
C901 C 0.066 0.50708 0.92189 0.0
C902 C 0.0525 0.48761 0.94255 0.0
C903 C 0.05178 0.45828 0.93766 0.0
H904 H 0.63234 0.89944 0.9108 0.0
H905 H 0.54765 0.85021 0.86977 0.0
H906 H 0.51582 0.88134 0.88877 0.0
H907 H 0.59653 0.91133 0.97216 0.0
H908 H 0.61959 0.94669 0.97657 0.0
H909 H 0.63559 0.92108 0.95896 0.0
H910 H 0.64485 0.95469 0.91656 0.0
H911 H 0.62878 0.9804 0.93403 0.0
H912 H 0.61212 0.96786 0.90075 0.0
H913 H 0.49323 0.91724 0.9133 0.0
H914 H 0.48128 0.95421 0.94241 0.0
H915 H 0.58124 0.9801 0.96666 0.0
C916 C 0.60716 0.89542 0.90548 0.0
C917 C 0.59246 0.87249 0.88871 0.0
C918 C 0.55934 0.86755 0.88275 0.0
C919 C 0.54113 0.88521 0.89329 0.0
C920 C 0.55643 0.90767 0.90972 0.0
C921 C 0.58869 0.91277 0.91582 0.0
C922 C 0.59928 0.93769 0.9347 0.0
C923 C 0.61358 0.92864 0.96222 0.0
C924 C 0.62264 0.96157 0.92066 0.0
C925 C 0.5679 0.94579 0.93839 0.0
C926 C 0.54348 0.9283 0.92376 0.0
C927 C 0.51219 0.93117 0.92471 0.0
C928 C 0.50566 0.95226 0.94132 0.0
C929 C 0.53033 0.97019 0.95678 0.0
C930 C 0.56186 0.967 0.95493 0.0
H931 H 0.97039 0.20087 0.43399 0.0
H932 H 0.90365 0.15663 0.37197 0.0
H933 H 0.91769 0.11161 0.3866 0.0
H934 H 0.03065 0.15809 0.42627 0.0
H935 H 0.04191 0.15876 0.46249 0.0
H936 H 0.02749 0.18785 0.44662 0.0
H937 H 0.98404 0.18196 0.48227 0.0
H938 H 0.99834 0.15288 0.49818 0.0
H939 H 0.95741 0.14817 0.48622 0.0
H940 H 0.93426 0.07119 0.41085 0.0
H941 H 0.95676 0.03767 0.44079 0.0
H942 H 0.01679 0.10773 0.48435 0.0
C943 C 0.95914 0.18167 0.4234 0.0
C944 C 0.93608 0.18201 0.40182 0.0
C945 C 0.9216 0.15665 0.38837 0.0
C946 C 0.92935 0.13104 0.39656 0.0
C947 C 0.95204 0.13125 0.41794 0.0
C948 C 0.96716 0.15589 0.43093 0.0
C949 C 0.99067 0.14997 0.45338 0.0
C950 C 0.0247 0.16453 0.44678 0.0
C951 C 0.98209 0.15876 0.48169 0.0
C952 C 0.98568 0.11815 0.45139 0.0
C953 C 0.96311 0.10783 0.43091 0.0
C954 C 0.95247 0.07899 0.42655 0.0
C955 C 0.96525 0.06015 0.44362 0.0
C956 C 0.98879 0.0703 0.4643 0.0
C957 C 0.99939 0.09962 0.46808 0.0
H958 H 0.2024 0.59933 0.14343 0.0
H959 H 0.2614 0.64301 0.07945 0.0
H960 H 0.21945 0.62522 0.0447 0.0
H961 H 0.16461 0.53769 0.10339 0.0
H962 H 0.12589 0.53488 0.11659 0.0
H963 H 0.16079 0.55011 0.13741 0.0
H964 H 0.13933 0.5954 0.1429 0.0
H965 H 0.1043 0.58025 0.12221 0.0
H966 H 0.12824 0.61392 0.11265 0.0
H967 H 0.17226 0.60261 1.01583 0.0
H968 H 0.12072 0.57927 0.99485 0.0
H969 H 0.08782 0.55113 0.07564 0.0
C970 C 0.20655 0.60527 0.12215 0.0
C971 C 0.23629 0.62221 0.1146 0.0
C972 C 0.23993 0.62934 0.08626 0.0
C973 C 0.21588 0.6195 0.06612 0.0
C974 C 0.18747 0.6026 0.07413 0.0
C975 C 0.18234 0.5957 0.10145 0.0
C976 C 0.14882 0.57768 0.10403 0.0
C977 C 0.15011 0.54835 0.11608 0.0
C978 C 0.129 0.59271 0.12149 0.0
C979 C 0.13617 0.57567 0.07396 0.0
C980 C 0.15923 0.59013 0.05723 0.0
C981 C 0.15398 0.59137 0.02877 0.0
C982 C 0.12442 0.57792 1.01699 0.0
C983 C 0.09976 0.56333 0.03334 0.0
C984 C 0.10597 0.56206 0.0624 0.0
H985 H 0.32401 0.40035 0.63413 0.0
H986 H 0.26772 0.46438 0.62235 0.0
H987 H 0.3085 0.49219 0.59393 0.0
H988 H 0.40127 0.44813 0.63654 0.0
H989 H 0.42034 0.42574 0.61732 0.0
H990 H 0.38709 0.41039 0.63755 0.0
H991 H 0.3578 0.38511 0.59449 0.0
H992 H 0.39096 0.40041 0.57413 0.0
H993 H 0.35188 0.40552 0.56396 0.0
H994 H 0.35586 0.5146 0.56706 0.0
H995 H 0.40524 0.52903 0.54276 0.0
H996 H 0.4323 0.45068 0.56798 0.0
C997 C 0.31998 0.42012 0.62553 0.0
C998 C 0.29205 0.42994 0.63153 0.0
C999 C 0.28868 0.45621 0.61942 0.0
C1000 C 0.31184 0.47228 0.60275 0.0
C1001 C 0.33882 0.46215 0.59759 0.0
C1002 C 0.34304 0.43659 0.60844 0.0
C1003 C 0.37442 0.43075 0.59917 0.0
C1004 C 0.39712 0.42862 0.62414 0.0
C1005 C 0.3684 0.40384 0.58191 0.0
C1006 C 0.38706 0.45699 0.5815 0.0
C1007 C 0.36598 0.47479 0.58113 0.0
C1008 C 0.37234 0.50066 0.56711 0.0
C1009 C 0.40074 0.50872 0.55325 0.0
C1010 C 0.42312 0.49113 0.55288 0.0
C1011 C 0.4158 0.46463 0.56726 0.0
H1012 H 0.78254 0.71061 0.93397 0.0
H1013 H 0.71118 0.63757 0.90816 0.0
H1014 H 0.7457 0.60623 0.92682 0.0
H1015 H 0.846 0.68658 0.91377 0.0
H1016 H 0.87308 0.70106 0.94178 0.0
H1017 H 0.84072 0.71743 0.93133 0.0
H1018 H 0.82098 0.71222 0.98094 0.0
H1019 H 0.85359 0.69607 0.99169 0.0
H1020 H 0.81349 0.67798 0.99756 0.0
H1021 H 0.79063 0.58349 0.94261 0.0
H1022 H 0.84243 0.57114 0.95356 0.0
H1023 H 0.88437 0.65927 0.96895 0.0
C1024 C 0.77365 0.688 0.93323 0.0
C1025 C 0.74405 0.67644 0.92 0.0
C1026 C 0.73375 0.64678 0.91839 0.0
C1027 C 0.75312 0.62886 0.92903 0.0
C1028 C 0.78263 0.64099 0.94124 0.0
C1029 C 0.79276 0.6699 0.94354 0.0
C1030 C 0.82677 0.67782 0.95469 0.0
C1031 C 0.84786 0.69683 0.93416 0.0
C1032 C 0.82881 0.69185 0.9829 0.0
C1033 C 0.83463 0.64894 0.95729 0.0
C1034 C 0.80872 0.62792 0.94994 0.0
C1035 C 0.8109 0.59972 0.94894 0.0
C1036 C 0.8404 0.5929 0.95527 0.0
C1037 C 0.8674 0.61424 0.96223 0.0
C1038 C 0.86418 0.64251 0.96369 0.0
H1039 H 0.47418 0.84703 0.15373 0.0
H1040 H 0.39107 0.81313 0.10156 0.0
H1041 H 0.40145 0.85621 0.07254 0.0
H1042 H 0.46707 0.92111 0.14949 0.0
H1043 H 0.50912 0.93483 0.14816 0.0
H1044 H 0.49455 0.90182 0.16569 0.0
H1045 H 0.52759 0.8771 0.13543 0.0
H1046 H 0.54226 0.91004 0.11786 0.0
H1047 H 0.52276 0.87948 0.09848 0.0
H1048 H 0.4216 0.90431 0.04773 0.0
H1049 H 0.45087 0.95043 0.02971 0.0
H1050 H 0.52156 0.9534 0.09651 0.0
C1051 C 0.45796 0.84874 0.13638 0.0
C1052 C 0.43162 0.82608 0.13025 0.0
C1053 C 0.41151 0.8296 0.10691 0.0
C1054 C 0.41717 0.85428 0.0902 0.0
C1055 C 0.44336 0.87593 0.09656 0.0
C1056 C 0.46355 0.87334 0.11908 0.0
C1057 C 0.4907 0.89937 0.12071 0.0
C1058 C 0.49034 0.91522 0.14762 0.0
C1059 C 0.52272 0.89099 0.11796 0.0
C1060 C 0.48269 0.91686 0.09576 0.0
C1061 C 0.45509 0.90309 0.08216 0.0
C1062 C 0.44314 0.91518 0.05846 0.0
C1063 C 0.45977 0.94164 0.04837 0.0
C1064 C 0.48833 0.95612 0.06168 0.0
C1065 C 0.49968 0.94323 0.08578 0.0
H1066 H 0.11593 0.2156 0.61052 0.0
H1067 H 0.05914 0.19291 0.68173 0.0
H1068 H 0.03747 0.14593 0.6621 0.0
H1069 H 0.05578 0.17889 0.56046 0.0
H1070 H 0.08379 0.1677 0.53944 0.0
H1071 H 0.09565 0.19952 0.55915 0.0
H1072 H 0.1419 0.18017 0.58244 0.0
H1073 H 0.13001 0.14821 0.5629 0.0
H1074 H 0.13372 0.1464 0.59994 0.0
H1075 H 0.02151 0.0999 0.63475 0.0
H1076 H 1.00999 0.06129 0.60101 0.0
H1077 H 0.07489 0.11207 0.54556 0.0
C1078 C 0.09903 0.20077 0.62213 0.0
C1079 C 0.08952 0.20876 0.64812 0.0
C1080 C 0.06691 0.1882 0.66192 0.0
C1081 C 0.0545 0.16108 0.6509 0.0
C1082 C 0.06432 0.15401 0.62551 0.0
C1083 C 0.08587 0.1734 0.61109 0.0
C1084 C 0.09144 0.16052 0.58365 0.0
C1085 C 0.08105 0.17768 0.55922 0.0
C1086 C 0.12635 0.15873 0.58214 0.0
C1087 C 0.06997 0.13089 0.585 0.0
C1088 C 0.05474 0.12765 0.60953 0.0
C1089 C 0.03351 0.1024 0.6156 0.0
C1090 C 0.02723 0.0803 0.59626 0.0
C1091 C 0.04191 0.08281 0.57064 0.0
C1092 C 0.06375 0.10878 0.56513 0.0
H1093 H 0.73461 0.34019 0.42369 0.0
H1094 H 0.78973 0.4126 0.38154 0.0
H1095 H 0.75201 0.4414 0.39435 0.0
H1096 H 0.65954 0.35283 0.40305 0.0
H1097 H 0.6416 0.34121 0.43509 0.0
H1098 H 0.67408 0.32693 0.42432 0.0
H1099 H 0.70555 0.34236 0.47019 0.0
H1100 H 0.67303 0.3565 0.48121 0.0
H1101 H 0.71214 0.37869 0.48045 0.0
H1102 H 0.70686 0.46159 0.41022 0.0
H1103 H 0.6586 0.4719 0.42853 0.0
H1104 H 0.63252 0.38567 0.45914 0.0
C1105 C 0.73917 0.36228 0.41769 0.0
C1106 C 0.76525 0.37425 0.40183 0.0
C1107 C 0.76988 0.40303 0.3937 0.0
C1108 C 0.74864 0.41954 0.40093 0.0
C1109 C 0.72288 0.40692 0.41622 0.0
C1110 C 0.71815 0.37897 0.42458 0.0
C1111 C 0.68792 0.37011 0.43983 0.0
C1112 C 0.6644 0.34637 0.42466 0.0
C1113 C 0.6951 0.36141 0.46969 0.0
C1114 C 0.67625 0.3974 0.43862 0.0
C1115 C 0.69677 0.41841 0.42502 0.0
C1116 C 0.69069 0.44531 0.42101 0.0
C1117 C 0.66303 0.45092 0.43136 0.0
C1118 C 0.64166 0.42976 0.44555 0.0
C1119 C 0.64851 0.40259 0.44896 0.0
loop_
_geom_bond_atom_site_label_1
_geom_bond_atom_site_label_2
_geom_bond_distance
_geom_bond_site_symmetry_2
_ccdc_geom_bond_type
C0 C1 1.386 . S
C0 C2 1.397 . S
C0 H24 0.931 . S
C1 C0 1.386 . S
C1 C5 1.397 . S
C2 C0 1.397 . S
C2 C3 1.384 . S
C2 H25 0.930 . S
C3 C2 1.384 . S
C3 C4 1.377 . S
C3 C6 1.481 . S
C4 C3 1.377 . S
C4 C5 1.389 . S
C4 H26 0.929 . S
C5 C1 1.397 . S
C5 C4 1.389 . S
C5 H27 0.931 . S
C6 C3 1.481 . S
C6 C7 1.387 . S
C6 C11 1.390 . S
C7 C6 1.387 . S
C7 C8 1.401 . S
C7 H28 0.930 . S
C8 C7 1.401 . S
C8 C9 1.376 . S
C8 C17 1.511 . S
C9 C8 1.376 . S
C9 C10 1.392 . S
C9 H30 0.931 . S
C10 C9 1.392 . S
C10 C11 1.361 . S
C10 C12 1.500 . S
C11 C6 1.390 . S
C11 C10 1.361 . S
C11 H29 0.931 . S
C12 C10 1.500 . S
C12 C13 1.371 . S
C12 C14 1.365 . S
C13 C12 1.371 . S
C13 C23 1.386 . S
C13 H31 0.931 . S
C14 C12 1.365 . S
C14 C15 1.409 . S
C14 H32 0.929 . S
C15 C14 1.409 . S
C15 C16 1.380 . S
C15 H33 0.930 . S
C16 C15 1.380 . S
C16 C23 1.357 . S
C17 C8 1.511 . S
C17 C18 1.341 . S
C17 C19 1.371 . S
C18 C17 1.341 . S
C18 C22 1.394 . S
C18 H34 0.930 . S
C19 C17 1.371 . S
C19 C20 1.392 . S
C19 H35 0.931 . S
C20 C19 1.392 . S
C20 C21 1.331 . S
C20 H38 0.932 . S
C21 C20 1.331 . S
C21 C22 1.336 . S
C22 C18 1.394 . S
C22 C21 1.336 . S
C22 H37 0.929 . S
C23 C13 1.386 . S
C23 C16 1.357 . S
C23 H36 0.928 . S
H24 C0 0.931 . S
H25 C2 0.930 . S
H26 C4 0.929 . S
H27 C5 0.931 . S
H28 C7 0.930 . S
H29 C11 0.931 . S
H30 C9 0.931 . S
H31 C13 0.931 . S
H32 C14 0.929 . S
H33 C15 0.930 . S
H34 C18 0.930 . S
H35 C19 0.931 . S
H36 C23 0.928 . S
H37 C22 0.929 . S
H38 C20 0.932 . S
C39 C40 1.386 . S
C39 C41 1.397 . S
C39 H63 0.931 . S
C40 C39 1.386 . S
C40 C44 1.397 . S
C41 C39 1.397 . S
C41 C42 1.384 . S
C41 H64 0.930 . S
C42 C41 1.384 . S
C42 C43 1.377 . S
C42 C45 1.481 . S
C43 C42 1.377 . S
C43 C44 1.389 . S
C43 H65 0.929 . S
C44 C40 1.397 . S
C44 C43 1.389 . S
C44 H66 0.931 . S
C45 C42 1.481 . S
C45 C46 1.387 . S
C45 C50 1.390 . S
C46 C45 1.387 . S
C46 C47 1.401 . S
C46 H67 0.930 . S
C47 C46 1.401 . S
C47 C48 1.376 . S
C47 C56 1.511 . S
C48 C47 1.376 . S
C48 C49 1.392 . S
C48 H69 0.931 . S
C49 C48 1.392 . S
C49 C50 1.361 . S
C49 C51 1.500 . S
C50 C45 1.390 . S
C50 C49 1.361 . S
C50 H68 0.931 . S
C51 C49 1.500 . S
C51 C52 1.371 . S
C51 C53 1.365 . S
C52 C51 1.371 . S
C52 C62 1.386 . S
C52 H70 0.931 . S
C53 C51 1.365 . S
C53 C54 1.409 . S
C53 H71 0.929 . S
C54 C53 1.409 . S
C54 C55 1.380 . S
C54 H72 0.930 . S
C55 C54 1.380 . S
C55 C62 1.357 . S
C56 C47 1.511 . S
C56 C57 1.341 . S
C56 C58 1.371 . S
C57 C56 1.341 . S
C57 C61 1.394 . S
C57 H73 0.930 . S
C58 C56 1.371 . S
C58 C59 1.392 . S
C58 H74 0.931 . S
C59 C58 1.392 . S
C59 C60 1.331 . S
C59 H77 0.932 . S
C60 C59 1.331 . S
C60 C61 1.336 . S
C61 C57 1.394 . S
C61 C60 1.336 . S
C61 H76 0.929 . S
C62 C52 1.386 . S
C62 C55 1.357 . S
C62 H75 0.928 . S
H63 C39 0.931 . S
H64 C41 0.930 . S
H65 C43 0.929 . S
H66 C44 0.931 . S
H67 C46 0.930 . S
H68 C50 0.931 . S
H69 C48 0.931 . S
H70 C52 0.931 . S
H71 C53 0.929 . S
H72 C54 0.930 . S
H73 C57 0.930 . S
H74 C58 0.931 . S
H75 C62 0.928 . S
H76 C61 0.929 . S
H77 C59 0.932 . S
C78 C79 1.386 . S
C78 C80 1.397 . S
C78 H102 0.931 . S
C79 C78 1.386 . S
C79 C83 1.397 . S
C80 C78 1.397 . S
C80 C81 1.384 . S
C80 H103 0.930 . S
C81 C80 1.384 . S
C81 C82 1.377 . S
C81 C84 1.481 . S
C82 C81 1.377 . S
C82 C83 1.389 . S
C82 H104 0.929 . S
C83 C79 1.397 . S
C83 C82 1.389 . S
C83 H105 0.931 . S
C84 C81 1.481 . S
C84 C85 1.387 . S
C84 C89 1.390 . S
C85 C84 1.387 . S
C85 C86 1.401 . S
C85 H106 0.930 . S
C86 C85 1.401 . S
C86 C87 1.376 . S
C86 C95 1.511 . S
C87 C86 1.376 . S
C87 C88 1.392 . S
C87 H108 0.931 . S
C88 C87 1.392 . S
C88 C89 1.361 . S
C88 C90 1.500 . S
C89 C84 1.390 . S
C89 C88 1.361 . S
C89 H107 0.931 . S
C90 C88 1.500 . S
C90 C91 1.371 . S
C90 C92 1.365 . S
C91 C90 1.371 . S
C91 C101 1.386 . S
C91 H109 0.931 . S
C92 C90 1.365 . S
C92 C93 1.409 . S
C92 H110 0.929 . S
C93 C92 1.409 . S
C93 C94 1.380 . S
C93 H111 0.930 . S
C94 C93 1.380 . S
C94 C101 1.357 . S
C95 C86 1.511 . S
C95 C96 1.341 . S
C95 C97 1.371 . S
C96 C95 1.341 . S
C96 C100 1.394 . S
C96 H112 0.930 . S
C97 C95 1.371 . S
C97 C98 1.392 . S
C97 H113 0.931 . S
C98 C97 1.392 . S
C98 C99 1.331 . S
C98 H116 0.932 . S
C99 C98 1.331 . S
C99 C100 1.336 . S
C100 C96 1.394 . S
C100 C99 1.336 . S
C100 H115 0.929 . S
C101 C91 1.386 . S
C101 C94 1.357 . S
C101 H114 0.928 . S
H102 C78 0.931 . S
H103 C80 0.930 . S
H104 C82 0.929 . S
H105 C83 0.931 . S
H106 C85 0.930 . S
H107 C89 0.931 . S
H108 C87 0.931 . S
H109 C91 0.931 . S
H110 C92 0.929 . S
H111 C93 0.930 . S
H112 C96 0.930 . S
H113 C97 0.931 . S
H114 C101 0.928 . S
H115 C100 0.929 . S
H116 C98 0.932 . S
C117 C118 1.386 . S
C117 C119 1.397 . S
C117 H141 0.931 . S
C118 C117 1.386 . S
C118 C122 1.397 . S
C119 C117 1.397 . S
C119 C120 1.384 . S
C119 H142 0.930 . S
C120 C119 1.384 . S
C120 C121 1.377 . S
C120 C123 1.481 . S
C121 C120 1.377 . S
C121 C122 1.389 . S
C121 H143 0.929 . S
C122 C118 1.397 . S
C122 C121 1.389 . S
C122 H144 0.931 . S
C123 C120 1.481 . S
C123 C124 1.387 . S
C123 C128 1.390 . S
C124 C123 1.387 . S
C124 C125 1.401 . S
C124 H145 0.930 . S
C125 C124 1.401 . S
C125 C126 1.376 . S
C125 C134 1.511 . S
C126 C125 1.376 . S
C126 C127 1.392 . S
C126 H147 0.931 . S
C127 C126 1.392 . S
C127 C128 1.361 . S
C127 C129 1.500 . S
C128 C123 1.390 . S
C128 C127 1.361 . S
C128 H146 0.931 . S
C129 C127 1.500 . S
C129 C130 1.371 . S
C129 C131 1.365 . S
C130 C129 1.371 . S
C130 C140 1.386 . S
C130 H148 0.931 . S
C131 C129 1.365 . S
C131 C132 1.409 . S
C131 H149 0.929 . S
C132 C131 1.409 . S
C132 C133 1.380 . S
C132 H150 0.930 . S
C133 C132 1.380 . S
C133 C140 1.357 . S
C134 C125 1.511 . S
C134 C135 1.341 . S
C134 C136 1.371 . S
C135 C134 1.341 . S
C135 C139 1.394 . S
C135 H151 0.930 . S
C136 C134 1.371 . S
C136 C137 1.392 . S
C136 H152 0.931 . S
C137 C136 1.392 . S
C137 C138 1.331 . S
C137 H155 0.932 . S
C138 C137 1.331 . S
C138 C139 1.336 . S
C139 C135 1.394 . S
C139 C138 1.336 . S
C139 H154 0.929 . S
C140 C130 1.386 . S
C140 C133 1.357 . S
C140 H153 0.928 . S
H141 C117 0.931 . S
H142 C119 0.930 . S
H143 C121 0.929 . S
H144 C122 0.931 . S
H145 C124 0.930 . S
H146 C128 0.931 . S
H147 C126 0.931 . S
H148 C130 0.931 . S
H149 C131 0.929 . S
H150 C132 0.930 . S
H151 C135 0.930 . S
H152 C136 0.931 . S
H153 C140 0.928 . S
H154 C139 0.929 . S
H155 C137 0.932 . S
C156 C157 1.386 . S
C156 C158 1.397 . S
C156 H180 0.931 . S
C157 C156 1.386 . S
C157 C161 1.397 . S
C158 C156 1.397 . S
C158 C159 1.384 . S
C158 H181 0.930 . S
C159 C158 1.384 . S
C159 C160 1.377 . S
C159 C162 1.481 . S
C160 C159 1.377 . S
C160 C161 1.389 . S
C160 H182 0.929 . S
C161 C157 1.397 . S
C161 C160 1.389 . S
C161 H183 0.931 . S
C162 C159 1.481 . S
C162 C163 1.387 . S
C162 C167 1.390 . S
C163 C162 1.387 . S
C163 C164 1.401 . S
C163 H184 0.930 . S
C164 C163 1.401 . S
C164 C165 1.376 . S
C164 C173 1.511 . S
C165 C164 1.376 . S
C165 C166 1.392 . S
C165 H186 0.931 . S
C166 C165 1.392 . S
C166 C167 1.361 . S
C166 C168 1.500 . S
C167 C162 1.390 . S
C167 C166 1.361 . S
C167 H185 0.931 . S
C168 C166 1.500 . S
C168 C169 1.371 . S
C168 C170 1.365 . S
C169 C168 1.371 . S
C169 C179 1.386 . S
C169 H187 0.931 . S
C170 C168 1.365 . S
C170 C171 1.409 . S
C170 H188 0.929 . S
C171 C170 1.409 . S
C171 C172 1.380 . S
C171 H189 0.930 . S
C172 C171 1.380 . S
C172 C179 1.357 . S
C173 C164 1.511 . S
C173 C174 1.341 . S
C173 C175 1.371 . S
C174 C173 1.341 . S
C174 C178 1.394 . S
C174 H190 0.930 . S
C175 C173 1.371 . S
C175 C176 1.392 . S
C175 H191 0.931 . S
C176 C175 1.392 . S
C176 C177 1.331 . S
C176 H194 0.932 . S
C177 C176 1.331 . S
C177 C178 1.336 . S
C178 C174 1.394 . S
C178 C177 1.336 . S
C178 H193 0.929 . S
C179 C169 1.386 . S
C179 C172 1.357 . S
C179 H192 0.928 . S
H180 C156 0.931 . S
H181 C158 0.930 . S
H182 C160 0.929 . S
H183 C161 0.931 . S
H184 C163 0.930 . S
H185 C167 0.931 . S
H186 C165 0.931 . S
H187 C169 0.931 . S
H188 C170 0.929 . S
H189 C171 0.930 . S
H190 C174 0.930 . S
H191 C175 0.931 . S
H192 C179 0.928 . S
H193 C178 0.929 . S
H194 C176 0.932 . S
C195 C196 1.386 . S
C195 C197 1.397 . S
C195 H219 0.931 . S
C196 C195 1.386 . S
C196 C200 1.397 . S
C197 C195 1.397 . S
C197 C198 1.384 . S
C197 H220 0.930 . S
C198 C197 1.384 . S
C198 C199 1.377 . S
C198 C201 1.481 . S
C199 C198 1.377 . S
C199 C200 1.389 . S
C199 H221 0.929 . S
C200 C196 1.397 . S
C200 C199 1.389 . S
C200 H222 0.931 . S
C201 C198 1.481 . S
C201 C202 1.387 . S
C201 C206 1.390 . S
C202 C201 1.387 . S
C202 C203 1.401 . S
C202 H223 0.930 . S
C203 C202 1.401 . S
C203 C204 1.376 . S
C203 C212 1.511 . S
C204 C203 1.376 . S
C204 C205 1.392 . S
C204 H225 0.931 . S
C205 C204 1.392 . S
C205 C206 1.361 . S
C205 C207 1.500 . S
C206 C201 1.390 . S
C206 C205 1.361 . S
C206 H224 0.931 . S
C207 C205 1.500 . S
C207 C208 1.371 . S
C207 C209 1.365 . S
C208 C207 1.371 . S
C208 C218 1.386 . S
C208 H226 0.931 . S
C209 C207 1.365 . S
C209 C210 1.409 . S
C209 H227 0.929 . S
C210 C209 1.409 . S
C210 C211 1.380 . S
C210 H228 0.930 . S
C211 C210 1.380 . S
C211 C218 1.357 . S
C212 C203 1.511 . S
C212 C213 1.341 . S
C212 C214 1.371 . S
C213 C212 1.341 . S
C213 C217 1.394 . S
C213 H229 0.930 . S
C214 C212 1.371 . S
C214 C215 1.392 . S
C214 H230 0.931 . S
C215 C214 1.392 . S
C215 C216 1.331 . S
C215 H233 0.932 . S
C216 C215 1.331 . S
C216 C217 1.336 . S
C217 C213 1.394 . S
C217 C216 1.336 . S
C217 H232 0.929 . S
C218 C208 1.386 . S
C218 C211 1.357 . S
C218 H231 0.928 . S
H219 C195 0.931 . S
H220 C197 0.930 . S
H221 C199 0.929 . S
H222 C200 0.931 . S
H223 C202 0.930 . S
H224 C206 0.931 . S
H225 C204 0.931 . S
H226 C208 0.931 . S
H227 C209 0.929 . S
H228 C210 0.930 . S
H229 C213 0.930 . S
H230 C214 0.931 . S
H231 C218 0.928 . S
H232 C217 0.929 . S
H233 C215 0.932 . S
C234 C235 1.386 . S
C234 C236 1.397 . S
C234 H258 0.931 . S
C235 C234 1.386 . S
C235 C239 1.397 . S
C236 C234 1.397 . S
C236 C237 1.384 . S
C236 H259 0.930 . S
C237 C236 1.384 . S
C237 C238 1.377 . S
C237 C240 1.481 . S
C238 C237 1.377 . S
C238 C239 1.389 . S
C238 H260 0.929 . S
C239 C235 1.397 . S
C239 C238 1.389 . S
C239 H261 0.931 . S
C240 C237 1.481 . S
C240 C241 1.387 . S
C240 C245 1.390 . S
C241 C240 1.387 . S
C241 C242 1.401 . S
C241 H262 0.930 . S
C242 C241 1.401 . S
C242 C243 1.376 . S
C242 C251 1.511 . S
C243 C242 1.376 . S
C243 C244 1.392 . S
C243 H264 0.931 . S
C244 C243 1.392 . S
C244 C245 1.361 . S
C244 C246 1.500 . S
C245 C240 1.390 . S
C245 C244 1.361 . S
C245 H263 0.931 . S
C246 C244 1.500 . S
C246 C247 1.371 . S
C246 C248 1.365 . S
C247 C246 1.371 . S
C247 C257 1.386 . S
C247 H265 0.931 . S
C248 C246 1.365 . S
C248 C249 1.409 . S
C248 H266 0.929 . S
C249 C248 1.409 . S
C249 C250 1.380 . S
C249 H267 0.930 . S
C250 C249 1.380 . S
C250 C257 1.357 . S
C251 C242 1.511 . S
C251 C252 1.341 . S
C251 C253 1.371 . S
C252 C251 1.341 . S
C252 C256 1.394 . S
C252 H268 0.930 . S
C253 C251 1.371 . S
C253 C254 1.392 . S
C253 H269 0.931 . S
C254 C253 1.392 . S
C254 C255 1.331 . S
C254 H272 0.932 . S
C255 C254 1.331 . S
C255 C256 1.336 . S
C256 C252 1.394 . S
C256 C255 1.336 . S
C256 H271 0.929 . S
C257 C247 1.386 . S
C257 C250 1.357 . S
C257 H270 0.928 . S
H258 C234 0.931 . S
H259 C236 0.930 . S
H260 C238 0.929 . S
H261 C239 0.931 . S
H262 C241 0.930 . S
H263 C245 0.931 . S
H264 C243 0.931 . S
H265 C247 0.931 . S
H266 C248 0.929 . S
H267 C249 0.930 . S
H268 C252 0.930 . S
H269 C253 0.931 . S
H270 C257 0.928 . S
H271 C256 0.929 . S
H272 C254 0.932 . S
C273 C274 1.386 . S
C273 C275 1.397 . S
C273 H297 0.931 . S
C274 C273 1.386 . S
C274 C278 1.397 . S
C275 C273 1.397 . S
C275 C276 1.384 . S
C275 H298 0.930 . S
C276 C275 1.384 . S
C276 C277 1.377 . S
C276 C279 1.481 . S
C277 C276 1.377 . S
C277 C278 1.389 . S
C277 H299 0.929 . S
C278 C274 1.397 . S
C278 C277 1.389 . S
C278 H300 0.931 . S
C279 C276 1.481 . S
C279 C280 1.387 . S
C279 C284 1.390 . S
C280 C279 1.387 . S
C280 C281 1.401 . S
C280 H301 0.930 . S
C281 C280 1.401 . S
C281 C282 1.376 . S
C281 C290 1.511 . S
C282 C281 1.376 . S
C282 C283 1.392 . S
C282 H303 0.931 . S
C283 C282 1.392 . S
C283 C284 1.361 . S
C283 C285 1.500 . S
C284 C279 1.390 . S
C284 C283 1.361 . S
C284 H302 0.931 . S
C285 C283 1.500 . S
C285 C286 1.371 . S
C285 C287 1.365 . S
C286 C285 1.371 . S
C286 C296 1.386 . S
C286 H304 0.931 . S
C287 C285 1.365 . S
C287 C288 1.409 . S
C287 H305 0.929 . S
C288 C287 1.409 . S
C288 C289 1.380 . S
C288 H306 0.930 . S
C289 C288 1.380 . S
C289 C296 1.357 . S
C290 C281 1.511 . S
C290 C291 1.341 . S
C290 C292 1.371 . S
C291 C290 1.341 . S
C291 C295 1.394 . S
C291 H307 0.930 . S
C292 C290 1.371 . S
C292 C293 1.392 . S
C292 H308 0.931 . S
C293 C292 1.392 . S
C293 C294 1.331 . S
C293 H311 0.932 . S
C294 C293 1.331 . S
C294 C295 1.336 . S
C295 C291 1.394 . S
C295 C294 1.336 . S
C295 H310 0.929 . S
C296 C286 1.386 . S
C296 C289 1.357 . S
C296 H309 0.928 . S
H297 C273 0.931 . S
H298 C275 0.930 . S
H299 C277 0.929 . S
H300 C278 0.931 . S
H301 C280 0.930 . S
H302 C284 0.931 . S
H303 C282 0.931 . S
H304 C286 0.931 . S
H305 C287 0.929 . S
H306 C288 0.930 . S
H307 C291 0.930 . S
H308 C292 0.931 . S
H309 C296 0.928 . S
H310 C295 0.929 . S
H311 C293 0.932 . S
Tb312 C314 2.833 . S
Tb312 O332 2.521 . S
Tb312 O333 2.447 . S
Tb312 O334 2.644 1_665 S
Tb312 O335 2.381 1_565 S
Tb312 O336 2.401 1_655 S
Tb312 O340 2.352 . S
Tb312 O343 2.317 1_565 S
Tb313 C323 2.809 . S
Tb313 O334 2.325 . S
Tb313 O337 2.341 1_545 S
Tb313 O338 2.484 . S
Tb313 O339 2.440 . S
Tb313 O340 2.658 1_445 S
Tb313 O341 2.409 1_545 S
Tb313 O342 2.378 1_455 S
C314 Tb312 2.833 . S
C314 C315 1.514 . S
C314 O332 1.248 . S
C314 O333 1.266 . S
C315 C314 1.514 . S
C315 C316 1.359 . S
C315 C320 1.348 . S
C316 C315 1.359 . S
C316 C317 1.380 . S
C316 H344 0.929 . S
C317 C316 1.380 . S
C317 C318 1.347 . S
C317 H345 0.931 . S
C318 C317 1.347 . S
C318 C319 1.369 . S
C319 C318 1.369 . S
C319 C320 1.408 . S
C319 H346 0.930 . S
C320 C315 1.348 . S
C320 C319 1.408 . S
C320 H347 0.930 . S
C321 O334 1.281 . S
C321 O335 1.254 1_455 S
C322 O336 1.236 . S
C322 O337 1.266 . S
C323 Tb313 2.809 . S
C323 C324 1.514 . S
C323 O338 1.248 . S
C323 O339 1.266 . S
C324 C323 1.514 . S
C324 C325 1.359 . S
C324 C329 1.348 . S
C325 C324 1.359 . S
C325 C326 1.380 . S
C325 H348 0.929 . S
C326 C325 1.380 . S
C326 C327 1.347 . S
C326 H349 0.931 . S
C327 C326 1.347 . S
C327 C328 1.369 . S
C328 C327 1.369 . S
C328 C329 1.408 . S
C328 H350 0.930 . S
C329 C324 1.348 . S
C329 C328 1.408 . S
C329 H351 0.930 . S
C330 O340 1.281 . S
C330 O341 1.254 1_655 S
C331 O342 1.236 . S
C331 O343 1.266 . S
O332 Tb312 2.521 . S
O332 C314 1.248 . S
O333 Tb312 2.447 . S
O333 C314 1.266 . S
O334 Tb312 2.644 1_445 S
O334 Tb313 2.325 . S
O334 C321 1.281 . S
O335 Tb312 2.381 1_545 S
O335 C321 1.254 1_655 S
O336 Tb312 2.401 1_455 S
O336 C322 1.236 . S
O337 Tb313 2.341 1_565 S
O337 C322 1.266 . S
O338 Tb313 2.484 . S
O338 C323 1.248 . S
O339 Tb313 2.440 . S
O339 C323 1.266 . S
O340 Tb312 2.352 . S
O340 Tb313 2.658 1_665 S
O340 C330 1.281 . S
O341 Tb313 2.409 1_565 S
O341 C330 1.254 1_455 S
O342 Tb313 2.378 1_655 S
O342 C331 1.236 . S
O343 Tb312 2.317 1_545 S
O343 C331 1.266 . S
H344 C316 0.929 . S
H345 C317 0.931 . S
H346 C319 0.930 . S
H347 C320 0.930 . S
H348 C325 0.929 . S
H349 C326 0.931 . S
H350 C328 0.930 . S
H351 C329 0.930 . S
Tb352 C354 2.809 . S
Tb352 O372 2.484 . S
Tb352 O373 2.440 . S
Tb352 O374 2.658 1_545 S
Tb352 O375 2.409 1_545 S
Tb352 O376 2.378 . S
Tb352 O380 2.325 1_554 S
Tb352 O383 2.341 1_544 S
Tb353 C363 2.809 . S
Tb353 O374 2.325 1_556 S
Tb353 O377 2.341 1_566 S
Tb353 O378 2.484 . S
Tb353 O379 2.440 . S
Tb353 O380 2.658 1_565 S
Tb353 O381 2.409 1_565 S
Tb353 O382 2.378 . S
C354 Tb352 2.809 . S
C354 C355 1.514 . S
C354 O372 1.248 . S
C354 O373 1.266 . S
C355 C354 1.514 . S
C355 C356 1.359 . S
C355 C360 1.348 . S
C356 C355 1.359 . S
C356 C357 1.380 . S
C356 H384 0.929 . S
C357 C356 1.380 . S
C357 C358 1.347 . S
C357 H385 0.931 . S
C358 C357 1.347 . S
C358 C359 1.369 . S
C359 C358 1.369 . S
C359 C360 1.408 . S
C359 H386 0.930 . S
C360 C355 1.348 . S
C360 C359 1.408 . S
C360 H387 0.930 . S
C361 O374 1.281 . S
C361 O375 1.254 . S
C362 O376 1.236 . S
C362 O377 1.266 . S
C363 Tb353 2.809 . S
C363 C364 1.514 . S
C363 O378 1.248 . S
C363 O379 1.266 . S
C364 C363 1.514 . S
C364 C365 1.359 . S
C364 C369 1.348 . S
C365 C364 1.359 . S
C365 C366 1.380 . S
C365 H388 0.929 . S
C366 C365 1.380 . S
C366 C367 1.347 . S
C366 H389 0.931 . S
C367 C366 1.347 . S
C367 C368 1.369 . S
C368 C367 1.369 . S
C368 C369 1.408 . S
C368 H390 0.930 . S
C369 C364 1.348 . S
C369 C368 1.408 . S
C369 H391 0.930 . S
C370 O380 1.281 . S
C370 O381 1.254 . S
C371 O382 1.236 . S
C371 O383 1.266 . S
O372 Tb352 2.484 . S
O372 C354 1.248 . S
O373 Tb352 2.440 . S
O373 C354 1.266 . S
O374 Tb352 2.658 1_565 S
O374 Tb353 2.325 1_554 S
O374 C361 1.281 . S
O375 Tb352 2.409 1_565 S
O375 C361 1.254 . S
O376 Tb352 2.378 . S
O376 C362 1.236 . S
O377 Tb353 2.341 1_544 S
O377 C362 1.266 . S
O378 Tb353 2.484 . S
O378 C363 1.248 . S
O379 Tb353 2.440 . S
O379 C363 1.266 . S
O380 Tb352 2.325 1_556 S
O380 Tb353 2.658 1_545 S
O380 C370 1.281 . S
O381 Tb353 2.409 1_545 S
O381 C370 1.254 . S
O382 Tb353 2.378 . S
O382 C371 1.236 . S
O383 Tb352 2.341 1_566 S
O383 C371 1.266 . S
H384 C356 0.929 . S
H385 C357 0.931 . S
H386 C359 0.930 . S
H387 C360 0.930 . S
H388 C365 0.929 . S
H389 C366 0.931 . S
H390 C368 0.930 . S
H391 C369 0.930 . S
Tb392 C394 2.809 . S
Tb392 O412 2.484 . S
Tb392 O413 2.440 . S
Tb392 O414 2.658 . S
Tb392 O415 2.409 . S
Tb392 O416 2.378 . S
Tb392 O420 2.325 . S
Tb392 O423 2.341 . S
Tb393 C403 2.809 . S
Tb393 O414 2.325 . S
Tb393 O417 2.341 . S
Tb393 O418 2.484 . S
Tb393 O419 2.440 . S
Tb393 O420 2.658 . S
Tb393 O421 2.409 . S
Tb393 O422 2.378 . S
C394 Tb392 2.809 . S
C394 C395 1.514 . S
C394 O412 1.248 . S
C394 O413 1.266 . S
C395 C394 1.514 . S
C395 C396 1.359 . S
C395 C400 1.348 . S
C396 C395 1.359 . S
C396 C397 1.380 . S
C396 H424 0.929 . S
C397 C396 1.380 . S
C397 C398 1.347 . S
C397 H425 0.931 . S
C398 C397 1.347 . S
C398 C399 1.369 . S
C399 C398 1.369 . S
C399 C400 1.408 . S
C399 H426 0.930 . S
C400 C395 1.348 . S
C400 C399 1.408 . S
C400 H427 0.930 . S
C401 O414 1.281 . S
C401 O415 1.254 . S
C402 O416 1.236 . S
C402 O417 1.266 . S
C403 Tb393 2.809 . S
C403 C404 1.514 . S
C403 O418 1.248 . S
C403 O419 1.266 . S
C404 C403 1.514 . S
C404 C405 1.359 . S
C404 C409 1.348 . S
C405 C404 1.359 . S
C405 C406 1.380 . S
C405 H428 0.929 . S
C406 C405 1.380 . S
C406 C407 1.347 . S
C406 H429 0.931 . S
C407 C406 1.347 . S
C407 C408 1.369 . S
C408 C407 1.369 . S
C408 C409 1.408 . S
C408 H430 0.930 . S
C409 C404 1.348 . S
C409 C408 1.408 . S
C409 H431 0.930 . S
C410 O420 1.281 . S
C410 O421 1.254 . S
C411 O422 1.236 . S
C411 O423 1.266 . S
O412 Tb392 2.484 . S
O412 C394 1.248 . S
O413 Tb392 2.440 . S
O413 C394 1.266 . S
O414 Tb392 2.658 . S
O414 Tb393 2.325 . S
O414 C401 1.281 . S
O415 Tb392 2.409 . S
O415 C401 1.254 . S
O416 Tb392 2.378 . S
O416 C402 1.236 . S
O417 Tb393 2.341 . S
O417 C402 1.266 . S
O418 Tb393 2.484 . S
O418 C403 1.248 . S
O419 Tb393 2.440 . S
O419 C403 1.266 . S
O420 Tb392 2.325 . S
O420 Tb393 2.658 . S
O420 C410 1.281 . S
O421 Tb393 2.409 . S
O421 C410 1.254 . S
O422 Tb393 2.378 . S
O422 C411 1.236 . S
O423 Tb392 2.341 . S
O423 C411 1.266 . S
H424 C396 0.929 . S
H425 C397 0.931 . S
H426 C399 0.930 . S
H427 C400 0.930 . S
H428 C405 0.929 . S
H429 C406 0.931 . S
H430 C408 0.930 . S
H431 C409 0.930 . S
Tb432 C434 2.829 . S
Tb432 O452 2.510 . S
Tb432 O453 2.450 . S
Tb432 O454 2.643 1_656 S
Tb432 O455 2.390 1_656 S
Tb432 O456 2.390 1_556 S
Tb432 O460 2.336 . S
Tb432 O463 2.323 1_655 S
Tb433 C443 2.809 . S
Tb433 O454 2.325 . S
Tb433 O457 2.341 1_455 S
Tb433 O458 2.484 . S
Tb433 O459 2.440 . S
Tb433 O460 2.658 1_454 S
Tb433 O461 2.428 1_455 S
Tb433 O462 2.378 1_554 S
C434 Tb432 2.829 . S
C434 C435 1.514 . S
C434 O452 1.248 . S
C434 O453 1.266 . S
C435 C434 1.514 . S
C435 C436 1.359 . S
C435 C440 1.348 . S
C436 C435 1.359 . S
C436 C437 1.380 . S
C436 H464 0.929 . S
C437 C436 1.380 . S
C437 C438 1.347 . S
C437 H465 0.931 . S
C438 C437 1.347 . S
C438 C439 1.369 . S
C439 C438 1.369 . S
C439 C440 1.408 . S
C439 H466 0.930 . S
C440 C435 1.348 . S
C440 C439 1.408 . S
C440 H467 0.930 . S
C441 O454 1.281 . S
C441 O455 1.254 . S
C442 O456 1.236 . S
C442 O457 1.266 . S
C443 Tb433 2.809 . S
C443 C444 1.514 . S
C443 O458 1.248 . S
C443 O459 1.266 . S
C444 C443 1.514 . S
C444 C445 1.359 . S
C444 C449 1.348 . S
C445 C444 1.359 . S
C445 C446 1.380 . S
C445 H468 0.929 . S
C446 C445 1.380 . S
C446 C447 1.347 . S
C446 H469 0.931 . S
C447 C446 1.347 . S
C447 C448 1.369 . S
C448 C447 1.369 . S
C448 C449 1.408 . S
C448 H470 0.930 . S
C449 C444 1.348 . S
C449 C448 1.408 . S
C449 H471 0.930 . S
C450 O460 1.281 . S
C450 O461 1.232 1_556 S
C451 O462 1.236 . S
C451 O463 1.266 . S
O452 Tb432 2.510 . S
O452 C434 1.248 . S
O453 Tb432 2.450 . S
O453 C434 1.266 . S
O454 Tb432 2.643 1_454 S
O454 Tb433 2.325 . S
O454 C441 1.281 . S
O455 Tb432 2.390 1_454 S
O455 C441 1.254 . S
O456 Tb432 2.390 1_554 S
O456 C442 1.236 . S
O457 Tb433 2.341 1_655 S
O457 C442 1.266 . S
O458 Tb433 2.484 . S
O458 C443 1.248 . S
O459 Tb433 2.440 . S
O459 C443 1.266 . S
O460 Tb432 2.336 . S
O460 Tb433 2.658 1_656 S
O460 C450 1.281 . S
O461 Tb433 2.428 1_655 S
O461 C450 1.232 1_554 S
O462 Tb433 2.378 1_556 S
O462 C451 1.236 . S
O463 Tb432 2.323 1_455 S
O463 C451 1.266 . S
H464 C436 0.929 . S
H465 C437 0.931 . S
H466 C439 0.930 . S
H467 C440 0.930 . S
H468 C445 0.929 . S
H469 C446 0.931 . S
H470 C448 0.930 . S
H471 C449 0.930 . S
H472 C484 0.930 . S
H473 C486 0.930 . S
H474 C487 0.930 . S
H475 C491 0.959 . S
H476 C491 0.959 . S
H477 C491 0.961 . S
H478 C492 0.960 . S
H479 C492 0.961 . S
H480 C492 0.959 . S
H481 C495 0.929 . S
H482 C496 0.931 . S
H483 C498 0.930 . S
C484 H472 0.930 . S
C484 C485 1.399 . S
C484 C489 1.399 . S
C485 C484 1.399 . S
C485 C486 1.376 . S
C486 H473 0.930 . S
C486 C485 1.376 . S
C486 C487 1.388 . S
C487 H474 0.930 . S
C487 C486 1.388 . S
C487 C488 1.390 . S
C488 C487 1.390 . S
C488 C489 1.394 . S
C488 C494 1.465 . S
C489 C484 1.399 . S
C489 C488 1.394 . S
C489 C490 1.516 . S
C490 C489 1.516 . S
C490 C491 1.502 . S
C490 C492 1.561 . S
C490 C493 1.526 . S
C491 H475 0.959 . S
C491 H476 0.959 . S
C491 H477 0.961 . S
C491 C490 1.502 . S
C492 H478 0.960 . S
C492 H479 0.961 . S
C492 H480 0.959 . S
C492 C490 1.561 . S
C493 C490 1.526 . S
C493 C494 1.396 . S
C493 C498 1.390 . S
C494 C488 1.465 . S
C494 C493 1.396 . S
C494 C495 1.399 . S
C495 H481 0.929 . S
C495 C494 1.399 . S
C495 C496 1.385 . S
C496 H482 0.931 . S
C496 C495 1.385 . S
C496 C497 1.389 . S
C497 C496 1.389 . S
C497 C498 1.387 . S
C498 H483 0.930 . S
C498 C493 1.390 . S
C498 C497 1.387 . S
H499 C511 0.930 . S
H500 C513 0.930 . S
H501 C514 0.930 . S
H502 C518 0.959 . S
H503 C518 0.959 . S
H504 C518 0.961 . S
H505 C519 0.960 . S
H506 C519 0.961 . S
H507 C519 0.959 . S
H508 C522 0.929 . S
H509 C523 0.931 . S
H510 C525 0.930 . S
C511 H499 0.930 . S
C511 C512 1.399 . S
C511 C516 1.399 . S
C512 C511 1.399 . S
C512 C513 1.376 . S
C513 H500 0.930 . S
C513 C512 1.376 . S
C513 C514 1.388 . S
C514 H501 0.930 . S
C514 C513 1.388 . S
C514 C515 1.390 . S
C515 C514 1.390 . S
C515 C516 1.394 . S
C515 C521 1.465 . S
C516 C511 1.399 . S
C516 C515 1.394 . S
C516 C517 1.516 . S
C517 C516 1.516 . S
C517 C518 1.502 . S
C517 C519 1.561 . S
C517 C520 1.526 . S
C518 H502 0.959 . S
C518 H503 0.959 . S
C518 H504 0.961 . S
C518 C517 1.502 . S
C519 H505 0.960 . S
C519 H506 0.961 . S
C519 H507 0.959 . S
C519 C517 1.561 . S
C520 C517 1.526 . S
C520 C521 1.396 . S
C520 C525 1.390 . S
C521 C515 1.465 . S
C521 C520 1.396 . S
C521 C522 1.399 . S
C522 H508 0.929 . S
C522 C521 1.399 . S
C522 C523 1.385 . S
C523 H509 0.931 . S
C523 C522 1.385 . S
C523 C524 1.389 . S
C524 C523 1.389 . S
C524 C525 1.387 . S
C525 H510 0.930 . S
C525 C520 1.390 . S
C525 C524 1.387 . S
H526 C538 0.930 . S
H527 C540 0.930 . S
H528 C541 0.930 . S
H529 C545 0.959 . S
H530 C545 0.959 . S
H531 C545 0.961 . S
H532 C546 0.960 . S
H533 C546 0.961 . S
H534 C546 0.959 . S
H535 C549 0.929 . S
H536 C550 0.931 . S
H537 C552 0.930 . S
C538 H526 0.930 . S
C538 C539 1.399 . S
C538 C543 1.399 . S
C539 C538 1.399 . S
C539 C540 1.376 . S
C540 H527 0.930 . S
C540 C539 1.376 . S
C540 C541 1.388 . S
C541 H528 0.930 . S
C541 C540 1.388 . S
C541 C542 1.390 . S
C542 C541 1.390 . S
C542 C543 1.394 . S
C542 C548 1.465 . S
C543 C538 1.399 . S
C543 C542 1.394 . S
C543 C544 1.516 . S
C544 C543 1.516 . S
C544 C545 1.502 . S
C544 C546 1.561 . S
C544 C547 1.526 . S
C545 H529 0.959 . S
C545 H530 0.959 . S
C545 H531 0.961 . S
C545 C544 1.502 . S
C546 H532 0.960 . S
C546 H533 0.961 . S
C546 H534 0.959 . S
C546 C544 1.561 . S
C547 C544 1.526 . S
C547 C548 1.396 . S
C547 C552 1.390 . S
C548 C542 1.465 . S
C548 C547 1.396 . S
C548 C549 1.399 . S
C549 H535 0.929 . S
C549 C548 1.399 . S
C549 C550 1.385 . S
C550 H536 0.931 . S
C550 C549 1.385 . S
C550 C551 1.389 . S
C551 C550 1.389 . S
C551 C552 1.387 . S
C552 H537 0.930 . S
C552 C547 1.390 . S
C552 C551 1.387 . S
H553 C565 0.930 . S
H554 C567 0.930 . S
H555 C568 0.930 . S
H556 C572 0.959 . S
H557 C572 0.959 . S
H558 C572 0.961 . S
H559 C573 0.960 . S
H560 C573 0.961 . S
H561 C573 0.959 . S
H562 C576 0.929 . S
H563 C577 0.931 . S
H564 C579 0.930 . S
C565 H553 0.930 . S
C565 C566 1.399 . S
C565 C570 1.399 . S
C566 C565 1.399 . S
C566 C567 1.376 . S
C567 H554 0.930 . S
C567 C566 1.376 . S
C567 C568 1.388 . S
C568 H555 0.930 . S
C568 C567 1.388 . S
C568 C569 1.390 . S
C569 C568 1.390 . S
C569 C570 1.394 . S
C569 C575 1.465 . S
C570 C565 1.399 . S
C570 C569 1.394 . S
C570 C571 1.516 . S
C571 C570 1.516 . S
C571 C572 1.502 . S
C571 C573 1.561 . S
C571 C574 1.526 . S
C572 H556 0.959 . S
C572 H557 0.959 . S
C572 H558 0.961 . S
C572 C571 1.502 . S
C573 H559 0.960 . S
C573 H560 0.961 . S
C573 H561 0.959 . S
C573 C571 1.561 . S
C574 C571 1.526 . S
C574 C575 1.396 . S
C574 C579 1.390 . S
C575 C569 1.465 . S
C575 C574 1.396 . S
C575 C576 1.399 . S
C576 H562 0.929 . S
C576 C575 1.399 . S
C576 C577 1.385 . S
C577 H563 0.931 . S
C577 C576 1.385 . S
C577 C578 1.389 . S
C578 C577 1.389 . S
C578 C579 1.387 . S
C579 H564 0.930 . S
C579 C574 1.390 . S
C579 C578 1.387 . S
H580 C592 0.930 . S
H581 C594 0.930 . S
H582 C595 0.930 . S
H583 C599 0.959 . S
H584 C599 0.959 . S
H585 C599 0.961 . S
H586 C600 0.960 . S
H587 C600 0.961 . S
H588 C600 0.959 . S
H589 C603 0.929 . S
H590 C604 0.931 . S
H591 C606 0.930 . S
C592 H580 0.930 . S
C592 C593 1.399 . S
C592 C597 1.399 . S
C593 C592 1.399 . S
C593 C594 1.376 . S
C594 H581 0.930 . S
C594 C593 1.376 . S
C594 C595 1.388 . S
C595 H582 0.930 . S
C595 C594 1.388 . S
C595 C596 1.390 . S
C596 C595 1.390 . S
C596 C597 1.394 . S
C596 C602 1.465 . S
C597 C592 1.399 . S
C597 C596 1.394 . S
C597 C598 1.516 . S
C598 C597 1.516 . S
C598 C599 1.502 . S
C598 C600 1.561 . S
C598 C601 1.526 . S
C599 H583 0.959 . S
C599 H584 0.959 . S
C599 H585 0.961 . S
C599 C598 1.502 . S
C600 H586 0.960 . S
C600 H587 0.961 . S
C600 H588 0.959 . S
C600 C598 1.561 . S
C601 C598 1.526 . S
C601 C602 1.396 . S
C601 C606 1.390 . S
C602 C596 1.465 . S
C602 C601 1.396 . S
C602 C603 1.399 . S
C603 H589 0.929 . S
C603 C602 1.399 . S
C603 C604 1.385 . S
C604 H590 0.931 . S
C604 C603 1.385 . S
C604 C605 1.389 . S
C605 C604 1.389 . S
C605 C606 1.387 . S
C606 H591 0.930 . S
C606 C601 1.390 . S
C606 C605 1.387 . S
H607 C619 0.930 . S
H608 C621 0.930 . S
H609 C622 0.930 . S
H610 C626 0.959 . S
H611 C626 0.959 . S
H612 C626 0.961 . S
H613 C627 0.960 . S
H614 C627 0.961 . S
H615 C627 0.959 . S
H616 C630 0.929 . S
H617 C631 0.931 . S
H618 C633 0.930 . S
C619 H607 0.930 . S
C619 C620 1.399 . S
C619 C624 1.399 . S
C620 C619 1.399 . S
C620 C621 1.376 . S
C621 H608 0.930 . S
C621 C620 1.376 . S
C621 C622 1.388 . S
C622 H609 0.930 . S
C622 C621 1.388 . S
C622 C623 1.390 . S
C623 C622 1.390 . S
C623 C624 1.394 . S
C623 C629 1.465 . S
C624 C619 1.399 . S
C624 C623 1.394 . S
C624 C625 1.516 . S
C625 C624 1.516 . S
C625 C626 1.502 1_455 S
C625 C627 1.561 . S
C625 C628 1.526 . S
C626 H610 0.959 . S
C626 H611 0.959 . S
C626 H612 0.961 . S
C626 C625 1.502 1_655 S
C627 H613 0.960 . S
C627 H614 0.961 . S
C627 H615 0.959 . S
C627 C625 1.561 . S
C628 C625 1.526 . S
C628 C629 1.396 . S
C628 C633 1.390 . S
C629 C623 1.465 . S
C629 C628 1.396 . S
C629 C630 1.399 . S
C630 H616 0.929 . S
C630 C629 1.399 . S
C630 C631 1.385 . S
C631 H617 0.931 . S
C631 C630 1.385 . S
C631 C632 1.389 . S
C632 C631 1.389 . S
C632 C633 1.387 . S
C633 H618 0.930 . S
C633 C628 1.390 . S
C633 C632 1.387 . S
H634 C646 0.930 . S
H635 C648 0.930 . S
H636 C649 0.930 . S
H637 C653 0.959 . S
H638 C653 0.959 . S
H639 C653 0.961 . S
H640 C654 0.960 . S
H641 C654 0.961 . S
H642 C654 0.959 . S
H643 C657 0.929 . S
H644 C658 0.931 . S
H645 C660 0.930 . S
C646 H634 0.930 . S
C646 C647 1.399 . S
C646 C651 1.399 . S
C647 C646 1.399 . S
C647 C648 1.376 . S
C648 H635 0.930 . S
C648 C647 1.376 . S
C648 C649 1.388 . S
C649 H636 0.930 . S
C649 C648 1.388 . S
C649 C650 1.390 . S
C650 C649 1.390 . S
C650 C651 1.394 . S
C650 C656 1.465 . S
C651 C646 1.399 . S
C651 C650 1.394 . S
C651 C652 1.516 . S
C652 C651 1.516 . S
C652 C653 1.502 . S
C652 C654 1.561 . S
C652 C655 1.526 . S
C653 H637 0.959 . S
C653 H638 0.959 . S
C653 H639 0.961 . S
C653 C652 1.502 . S
C654 H640 0.960 . S
C654 H641 0.961 . S
C654 H642 0.959 . S
C654 C652 1.561 . S
C655 C652 1.526 . S
C655 C656 1.396 . S
C655 C660 1.390 . S
C656 C650 1.465 . S
C656 C655 1.396 . S
C656 C657 1.399 . S
C657 H643 0.929 . S
C657 C656 1.399 . S
C657 C658 1.385 . S
C658 H644 0.931 . S
C658 C657 1.385 . S
C658 C659 1.389 . S
C659 C658 1.389 . S
C659 C660 1.387 . S
C660 H645 0.930 . S
C660 C655 1.390 . S
C660 C659 1.387 . S
H661 C673 0.930 . S
H662 C675 0.930 . S
H663 C676 0.930 . S
H664 C680 0.959 . S
H665 C680 0.959 . S
H666 C680 0.961 . S
H667 C681 0.960 . S
H668 C681 0.961 . S
H669 C681 0.959 . S
H670 C684 0.929 . S
H671 C685 0.931 . S
H672 C687 0.930 . S
C673 H661 0.930 . S
C673 C674 1.399 . S
C673 C678 1.399 . S
C674 C673 1.399 . S
C674 C675 1.376 . S
C675 H662 0.930 . S
C675 C674 1.376 . S
C675 C676 1.388 . S
C676 H663 0.930 . S
C676 C675 1.388 . S
C676 C677 1.390 . S
C677 C676 1.390 . S
C677 C678 1.394 . S
C677 C683 1.465 . S
C678 C673 1.399 . S
C678 C677 1.394 . S
C678 C679 1.516 . S
C679 C678 1.516 . S
C679 C680 1.502 . S
C679 C681 1.561 . S
C679 C682 1.526 . S
C680 H664 0.959 . S
C680 H665 0.959 . S
C680 H666 0.961 . S
C680 C679 1.502 . S
C681 H667 0.960 . S
C681 H668 0.961 . S
C681 H669 0.959 . S
C681 C679 1.561 . S
C682 C679 1.526 . S
C682 C683 1.396 . S
C682 C687 1.390 . S
C683 C677 1.465 . S
C683 C682 1.396 . S
C683 C684 1.399 . S
C684 H670 0.929 . S
C684 C683 1.399 . S
C684 C685 1.385 . S
C685 H671 0.931 . S
C685 C684 1.385 . S
C685 C686 1.389 . S
C686 C685 1.389 . S
C686 C687 1.387 . S
C687 H672 0.930 . S
C687 C682 1.390 . S
C687 C686 1.387 . S
H688 C700 0.930 . S
H689 C702 0.930 . S
H690 C703 0.930 . S
H691 C707 0.959 . S
H692 C707 0.959 . S
H693 C707 0.961 . S
H694 C708 0.960 . S
H695 C708 0.961 . S
H696 C708 0.959 . S
H697 C711 0.929 . S
H698 C712 0.931 . S
H699 C714 0.930 . S
C700 H688 0.930 . S
C700 C701 1.399 . S
C700 C705 1.399 . S
C701 C700 1.399 . S
C701 C702 1.376 . S
C702 H689 0.930 . S
C702 C701 1.376 . S
C702 C703 1.388 . S
C703 H690 0.930 . S
C703 C702 1.388 . S
C703 C704 1.390 . S
C704 C703 1.390 . S
C704 C705 1.394 . S
C704 C710 1.465 . S
C705 C700 1.399 . S
C705 C704 1.394 . S
C705 C706 1.516 . S
C706 C705 1.516 . S
C706 C707 1.502 . S
C706 C708 1.561 . S
C706 C709 1.526 . S
C707 H691 0.959 . S
C707 H692 0.959 . S
C707 H693 0.961 . S
C707 C706 1.502 . S
C708 H694 0.960 . S
C708 H695 0.961 . S
C708 H696 0.959 . S
C708 C706 1.561 . S
C709 C706 1.526 . S
C709 C710 1.396 . S
C709 C714 1.390 . S
C710 C704 1.465 . S
C710 C709 1.396 . S
C710 C711 1.399 . S
C711 H697 0.929 . S
C711 C710 1.399 . S
C711 C712 1.385 . S
C712 H698 0.931 . S
C712 C711 1.385 . S
C712 C713 1.389 . S
C713 C712 1.389 . S
C713 C714 1.387 . S
C714 H699 0.930 . S
C714 C709 1.390 . S
C714 C713 1.387 . S
H715 C727 0.930 . S
H716 C729 0.930 . S
H717 C730 0.930 . S
H718 C734 0.959 . S
H719 C734 0.959 . S
H720 C734 0.961 . S
H721 C735 0.960 . S
H722 C735 0.961 . S
H723 C735 0.959 . S
H724 C738 0.929 . S
H725 C739 0.931 . S
H726 C741 0.930 . S
C727 H715 0.930 . S
C727 C728 1.399 . S
C727 C732 1.399 . S
C728 C727 1.399 . S
C728 C729 1.376 . S
C729 H716 0.930 . S
C729 C728 1.376 . S
C729 C730 1.388 . S
C730 H717 0.930 . S
C730 C729 1.388 . S
C730 C731 1.390 . S
C731 C730 1.390 . S
C731 C732 1.394 . S
C731 C737 1.465 . S
C732 C727 1.399 . S
C732 C731 1.394 . S
C732 C733 1.516 . S
C733 C732 1.516 . S
C733 C734 1.502 . S
C733 C735 1.561 . S
C733 C736 1.526 . S
C734 H718 0.959 . S
C734 H719 0.959 . S
C734 H720 0.961 . S
C734 C733 1.502 . S
C735 H721 0.960 . S
C735 H722 0.961 . S
C735 H723 0.959 . S
C735 C733 1.561 . S
C736 C733 1.526 . S
C736 C737 1.396 . S
C736 C741 1.390 . S
C737 C731 1.465 . S
C737 C736 1.396 . S
C737 C738 1.399 . S
C738 H724 0.929 . S
C738 C737 1.399 . S
C738 C739 1.385 . S
C739 H725 0.931 . S
C739 C738 1.385 . S
C739 C740 1.389 . S
C740 C739 1.389 . S
C740 C741 1.387 . S
C741 H726 0.930 . S
C741 C736 1.390 . S
C741 C740 1.387 . S
H742 C754 0.930 . S
H743 C756 0.930 . S
H744 C757 0.930 . S
H745 C761 0.959 . S
H746 C761 0.959 . S
H747 C761 0.961 . S
H748 C762 0.960 . S
H749 C762 0.961 . S
H750 C762 0.959 . S
H751 C765 0.929 . S
H752 C766 0.931 . S
H753 C768 0.930 . S
C754 H742 0.930 . S
C754 C755 1.399 . S
C754 C759 1.399 . S
C755 C754 1.399 . S
C755 C756 1.376 . S
C756 H743 0.930 . S
C756 C755 1.376 . S
C756 C757 1.388 . S
C757 H744 0.930 . S
C757 C756 1.388 . S
C757 C758 1.390 . S
C758 C757 1.390 . S
C758 C759 1.394 . S
C758 C764 1.465 . S
C759 C754 1.399 . S
C759 C758 1.394 . S
C759 C760 1.516 . S
C760 C759 1.516 . S
C760 C761 1.502 . S
C760 C762 1.561 . S
C760 C763 1.526 . S
C761 H745 0.959 . S
C761 H746 0.959 . S
C761 H747 0.961 . S
C761 C760 1.502 . S
C762 H748 0.960 . S
C762 H749 0.961 . S
C762 H750 0.959 . S
C762 C760 1.561 . S
C763 C760 1.526 . S
C763 C764 1.396 . S
C763 C768 1.390 . S
C764 C758 1.465 . S
C764 C763 1.396 . S
C764 C765 1.399 . S
C765 H751 0.929 . S
C765 C764 1.399 . S
C765 C766 1.385 . S
C766 H752 0.931 . S
C766 C765 1.385 . S
C766 C767 1.389 . S
C767 C766 1.389 . S
C767 C768 1.387 . S
C768 H753 0.930 . S
C768 C763 1.390 . S
C768 C767 1.387 . S
H769 C781 0.930 . S
H770 C783 0.930 . S
H771 C784 0.930 . S
H772 C788 0.959 . S
H773 C788 0.959 . S
H774 C788 0.961 . S
H775 C789 0.960 . S
H776 C789 0.961 . S
H777 C789 0.959 . S
H778 C792 0.929 . S
H779 C793 0.931 . S
H780 C795 0.930 . S
C781 H769 0.930 . S
C781 C782 1.399 . S
C781 C786 1.399 . S
C782 C781 1.399 . S
C782 C783 1.376 . S
C783 H770 0.930 . S
C783 C782 1.376 . S
C783 C784 1.388 . S
C784 H771 0.930 . S
C784 C783 1.388 . S
C784 C785 1.390 . S
C785 C784 1.390 . S
C785 C786 1.394 . S
C785 C791 1.465 . S
C786 C781 1.399 . S
C786 C785 1.394 . S
C786 C787 1.516 . S
C787 C786 1.516 . S
C787 C788 1.502 . S
C787 C789 1.561 . S
C787 C790 1.526 . S
C788 H772 0.959 . S
C788 H773 0.959 . S
C788 H774 0.961 . S
C788 C787 1.502 . S
C789 H775 0.960 . S
C789 H776 0.961 . S
C789 H777 0.959 . S
C789 C787 1.561 . S
C790 C787 1.526 . S
C790 C791 1.396 . S
C790 C795 1.390 . S
C791 C785 1.465 . S
C791 C790 1.396 . S
C791 C792 1.399 . S
C792 H778 0.929 . S
C792 C791 1.399 . S
C792 C793 1.385 . S
C793 H779 0.931 . S
C793 C792 1.385 . S
C793 C794 1.389 . S
C794 C793 1.389 . S
C794 C795 1.387 . S
C795 H780 0.930 . S
C795 C790 1.390 . S
C795 C794 1.387 . S
H796 C808 0.930 . S
H797 C810 0.930 . S
H798 C811 0.930 . S
H799 C815 0.959 . S
H800 C815 0.959 . S
H801 C815 0.961 . S
H802 C816 0.960 . S
H803 C816 0.961 . S
H804 C816 0.959 . S
H805 C819 0.929 . S
H806 C820 0.931 . S
H807 C822 0.930 . S
C808 H796 0.930 . S
C808 C809 1.399 . S
C808 C813 1.399 . S
C809 C808 1.399 . S
C809 C810 1.376 . S
C810 H797 0.930 . S
C810 C809 1.376 . S
C810 C811 1.388 . S
C811 H798 0.930 . S
C811 C810 1.388 . S
C811 C812 1.390 . S
C812 C811 1.390 . S
C812 C813 1.394 . S
C812 C818 1.465 . S
C813 C808 1.399 . S
C813 C812 1.394 . S
C813 C814 1.516 . S
C814 C813 1.516 . S
C814 C815 1.502 . S
C814 C816 1.561 . S
C814 C817 1.526 . S
C815 H799 0.959 . S
C815 H800 0.959 . S
C815 H801 0.961 . S
C815 C814 1.502 . S
C816 H802 0.960 . S
C816 H803 0.961 . S
C816 H804 0.959 . S
C816 C814 1.561 . S
C817 C814 1.526 . S
C817 C818 1.396 . S
C817 C822 1.390 . S
C818 C812 1.465 . S
C818 C817 1.396 . S
C818 C819 1.399 . S
C819 H805 0.929 . S
C819 C818 1.399 . S
C819 C820 1.385 . S
C820 H806 0.931 . S
C820 C819 1.385 . S
C820 C821 1.389 . S
C821 C820 1.389 . S
C821 C822 1.387 . S
C822 H807 0.930 . S
C822 C817 1.390 . S
C822 C821 1.387 . S
H823 C835 0.930 . S
H824 C837 0.930 . S
H825 C838 0.930 . S
H826 C842 0.959 . S
H827 C842 0.959 . S
H828 C842 0.961 . S
H829 C843 0.960 . S
H830 C843 0.961 . S
H831 C843 0.959 . S
H832 C846 0.929 . S
H833 C847 0.931 . S
H834 C849 0.930 . S
C835 H823 0.930 . S
C835 C836 1.399 . S
C835 C840 1.399 . S
C836 C835 1.399 . S
C836 C837 1.376 . S
C837 H824 0.930 . S
C837 C836 1.376 . S
C837 C838 1.388 . S
C838 H825 0.930 . S
C838 C837 1.388 . S
C838 C839 1.390 . S
C839 C838 1.390 . S
C839 C840 1.394 . S
C839 C845 1.465 . S
C840 C835 1.399 . S
C840 C839 1.394 . S
C840 C841 1.516 . S
C841 C840 1.516 . S
C841 C842 1.502 . S
C841 C843 1.561 . S
C841 C844 1.526 . S
C842 H826 0.959 . S
C842 H827 0.959 . S
C842 H828 0.961 . S
C842 C841 1.502 . S
C843 H829 0.960 . S
C843 H830 0.961 . S
C843 H831 0.959 . S
C843 C841 1.561 . S
C844 C841 1.526 . S
C844 C845 1.396 . S
C844 C849 1.390 . S
C845 C839 1.465 . S
C845 C844 1.396 . S
C845 C846 1.399 . S
C846 H832 0.929 . S
C846 C845 1.399 . S
C846 C847 1.385 . S
C847 H833 0.931 . S
C847 C846 1.385 . S
C847 C848 1.389 . S
C848 C847 1.389 . S
C848 C849 1.387 . S
C849 H834 0.930 . S
C849 C844 1.390 . S
C849 C848 1.387 . S
H850 C862 0.930 . S
H851 C864 0.930 . S
H852 C865 0.930 . S
H853 C869 0.959 . S
H854 C869 0.959 . S
H855 C869 0.961 . S
H856 C870 0.960 . S
H857 C870 0.961 . S
H858 C870 0.959 . S
H859 C873 0.929 . S
H860 C874 0.931 . S
H861 C876 0.930 . S
C862 H850 0.930 . S
C862 C863 1.399 . S
C862 C867 1.399 . S
C863 C862 1.399 . S
C863 C864 1.376 . S
C864 H851 0.930 . S
C864 C863 1.376 . S
C864 C865 1.388 . S
C865 H852 0.930 . S
C865 C864 1.388 . S
C865 C866 1.390 . S
C866 C865 1.390 . S
C866 C867 1.394 . S
C866 C872 1.465 . S
C867 C862 1.399 . S
C867 C866 1.394 . S
C867 C868 1.516 . S
C868 C867 1.516 . S
C868 C869 1.502 . S
C868 C870 1.561 . S
C868 C871 1.526 . S
C869 H853 0.959 . S
C869 H854 0.959 . S
C869 H855 0.961 . S
C869 C868 1.502 . S
C870 H856 0.960 . S
C870 H857 0.961 . S
C870 H858 0.959 . S
C870 C868 1.561 . S
C871 C868 1.526 . S
C871 C872 1.396 . S
C871 C876 1.390 . S
C872 C866 1.465 . S
C872 C871 1.396 . S
C872 C873 1.399 . S
C873 H859 0.929 . S
C873 C872 1.399 . S
C873 C874 1.385 . S
C874 H860 0.931 . S
C874 C873 1.385 . S
C874 C875 1.389 . S
C875 C874 1.389 . S
C875 C876 1.387 . S
C876 H861 0.930 . S
C876 C871 1.390 . S
C876 C875 1.387 . S
H877 C889 0.930 . S
H878 C891 0.930 . S
H879 C892 0.930 . S
H880 C896 0.959 . S
H881 C896 0.959 . S
H882 C896 0.961 . S
H883 C897 0.960 . S
H884 C897 0.961 . S
H885 C897 0.959 . S
H886 C900 0.929 . S
H887 C901 0.931 . S
H888 C903 0.930 . S
C889 H877 0.930 . S
C889 C890 1.399 . S
C889 C894 1.399 . S
C890 C889 1.399 . S
C890 C891 1.376 . S
C891 H878 0.930 . S
C891 C890 1.376 . S
C891 C892 1.388 . S
C892 H879 0.930 . S
C892 C891 1.388 . S
C892 C893 1.390 . S
C893 C892 1.390 . S
C893 C894 1.394 . S
C893 C899 1.465 . S
C894 C889 1.399 . S
C894 C893 1.394 . S
C894 C895 1.516 . S
C895 C894 1.516 . S
C895 C896 1.502 . S
C895 C897 1.561 . S
C895 C898 1.526 . S
C896 H880 0.959 . S
C896 H881 0.959 . S
C896 H882 0.961 . S
C896 C895 1.502 . S
C897 H883 0.960 . S
C897 H884 0.961 . S
C897 H885 0.959 . S
C897 C895 1.561 . S
C898 C895 1.526 . S
C898 C899 1.396 . S
C898 C903 1.390 . S
C899 C893 1.465 . S
C899 C898 1.396 . S
C899 C900 1.399 . S
C900 H886 0.929 . S
C900 C899 1.399 . S
C900 C901 1.385 . S
C901 H887 0.931 . S
C901 C900 1.385 . S
C901 C902 1.389 . S
C902 C901 1.389 . S
C902 C903 1.387 . S
C903 H888 0.930 . S
C903 C898 1.390 . S
C903 C902 1.387 . S
H904 C916 0.930 . S
H905 C918 0.930 . S
H906 C919 0.930 . S
H907 C923 0.959 . S
H908 C923 0.959 . S
H909 C923 0.961 . S
H910 C924 0.960 . S
H911 C924 0.961 . S
H912 C924 0.959 . S
H913 C927 0.929 . S
H914 C928 0.931 . S
H915 C930 0.930 . S
C916 H904 0.930 . S
C916 C917 1.399 . S
C916 C921 1.399 . S
C917 C916 1.399 . S
C917 C918 1.376 . S
C918 H905 0.930 . S
C918 C917 1.376 . S
C918 C919 1.388 . S
C919 H906 0.930 . S
C919 C918 1.388 . S
C919 C920 1.390 . S
C920 C919 1.390 . S
C920 C921 1.394 . S
C920 C926 1.465 . S
C921 C916 1.399 . S
C921 C920 1.394 . S
C921 C922 1.516 . S
C922 C921 1.516 . S
C922 C923 1.502 . S
C922 C924 1.561 . S
C922 C925 1.526 . S
C923 H907 0.959 . S
C923 H908 0.959 . S
C923 H909 0.961 . S
C923 C922 1.502 . S
C924 H910 0.960 . S
C924 H911 0.961 . S
C924 H912 0.959 . S
C924 C922 1.561 . S
C925 C922 1.526 . S
C925 C926 1.396 . S
C925 C930 1.390 . S
C926 C920 1.465 . S
C926 C925 1.396 . S
C926 C927 1.399 . S
C927 H913 0.929 . S
C927 C926 1.399 . S
C927 C928 1.385 . S
C928 H914 0.931 . S
C928 C927 1.385 . S
C928 C929 1.389 . S
C929 C928 1.389 . S
C929 C930 1.387 . S
C930 H915 0.930 . S
C930 C925 1.390 . S
C930 C929 1.387 . S
H931 C943 0.930 . S
H932 C945 0.930 . S
H933 C946 0.930 . S
H934 C950 0.959 . S
H935 C950 0.959 . S
H936 C950 0.961 . S
H937 C951 0.960 . S
H938 C951 0.961 . S
H939 C951 0.959 . S
H940 C954 0.929 . S
H941 C955 0.931 . S
H942 C957 0.930 . S
C943 H931 0.930 . S
C943 C944 1.399 . S
C943 C948 1.399 . S
C944 C943 1.399 . S
C944 C945 1.376 . S
C945 H932 0.930 . S
C945 C944 1.376 . S
C945 C946 1.388 . S
C946 H933 0.930 . S
C946 C945 1.388 . S
C946 C947 1.390 . S
C947 C946 1.390 . S
C947 C948 1.394 . S
C947 C953 1.465 . S
C948 C943 1.399 . S
C948 C947 1.394 . S
C948 C949 1.516 . S
C949 C948 1.516 . S
C949 C950 1.502 1_655 S
C949 C951 1.561 . S
C949 C952 1.526 . S
C950 H934 0.959 . S
C950 H935 0.959 . S
C950 H936 0.961 . S
C950 C949 1.502 1_455 S
C951 H937 0.960 . S
C951 H938 0.961 . S
C951 H939 0.959 . S
C951 C949 1.561 . S
C952 C949 1.526 . S
C952 C953 1.396 . S
C952 C957 1.390 . S
C953 C947 1.465 . S
C953 C952 1.396 . S
C953 C954 1.399 . S
C954 H940 0.929 . S
C954 C953 1.399 . S
C954 C955 1.385 . S
C955 H941 0.931 . S
C955 C954 1.385 . S
C955 C956 1.389 . S
C956 C955 1.389 . S
C956 C957 1.387 . S
C957 H942 0.930 . S
C957 C952 1.390 . S
C957 C956 1.387 . S
H958 C970 0.930 . S
H959 C972 0.930 . S
H960 C973 0.930 . S
H961 C977 0.959 . S
H962 C977 0.959 . S
H963 C977 0.961 . S
H964 C978 0.960 . S
H965 C978 0.961 . S
H966 C978 0.959 . S
H967 C981 0.929 . S
H968 C982 0.931 . S
H969 C984 0.930 . S
C970 H958 0.930 . S
C970 C971 1.399 . S
C970 C975 1.399 . S
C971 C970 1.399 . S
C971 C972 1.376 . S
C972 H959 0.930 . S
C972 C971 1.376 . S
C972 C973 1.388 . S
C973 H960 0.930 . S
C973 C972 1.388 . S
C973 C974 1.390 . S
C974 C973 1.390 . S
C974 C975 1.394 . S
C974 C980 1.465 . S
C975 C970 1.399 . S
C975 C974 1.394 . S
C975 C976 1.516 . S
C976 C975 1.516 . S
C976 C977 1.502 . S
C976 C978 1.561 . S
C976 C979 1.526 . S
C977 H961 0.959 . S
C977 H962 0.959 . S
C977 H963 0.961 . S
C977 C976 1.502 . S
C978 H964 0.960 . S
C978 H965 0.961 . S
C978 H966 0.959 . S
C978 C976 1.561 . S
C979 C976 1.526 . S
C979 C980 1.396 . S
C979 C984 1.390 . S
C980 C974 1.465 . S
C980 C979 1.396 . S
C980 C981 1.399 . S
C981 H967 0.929 . S
C981 C980 1.399 . S
C981 C982 1.385 . S
C982 H968 0.931 . S
C982 C981 1.385 . S
C982 C983 1.389 . S
C983 C982 1.389 . S
C983 C984 1.387 . S
C984 H969 0.930 . S
C984 C979 1.390 . S
C984 C983 1.387 . S
H985 C997 0.930 . S
H986 C999 0.930 . S
H987 C1000 0.930 . S
H988 C1004 0.959 . S
H989 C1004 0.959 . S
H990 C1004 0.961 . S
H991 C1005 0.960 . S
H992 C1005 0.961 . S
H993 C1005 0.959 . S
H994 C1008 0.929 . S
H995 C1009 0.931 . S
H996 C1011 0.930 . S
C997 H985 0.930 . S
C997 C998 1.399 . S
C997 C1002 1.399 . S
C998 C997 1.399 . S
C998 C999 1.376 . S
C999 H986 0.930 . S
C999 C998 1.376 . S
C999 C1000 1.388 . S
C1000 H987 0.930 . S
C1000 C999 1.388 . S
C1000 C1001 1.390 . S
C1001 C1000 1.390 . S
C1001 C1002 1.394 . S
C1001 C1007 1.465 . S
C1002 C997 1.399 . S
C1002 C1001 1.394 . S
C1002 C1003 1.516 . S
C1003 C1002 1.516 . S
C1003 C1004 1.502 . S
C1003 C1005 1.561 . S
C1003 C1006 1.526 . S
C1004 H988 0.959 . S
C1004 H989 0.959 . S
C1004 H990 0.961 . S
C1004 C1003 1.502 . S
C1005 H991 0.960 . S
C1005 H992 0.961 . S
C1005 H993 0.959 . S
C1005 C1003 1.561 . S
C1006 C1003 1.526 . S
C1006 C1007 1.396 . S
C1006 C1011 1.390 . S
C1007 C1001 1.465 . S
C1007 C1006 1.396 . S
C1007 C1008 1.399 . S
C1008 H994 0.929 . S
C1008 C1007 1.399 . S
C1008 C1009 1.385 . S
C1009 H995 0.931 . S
C1009 C1008 1.385 . S
C1009 C1010 1.389 . S
C1010 C1009 1.389 . S
C1010 C1011 1.387 . S
C1011 H996 0.930 . S
C1011 C1006 1.390 . S
C1011 C1010 1.387 . S
H1012 C1024 0.930 . S
H1013 C1026 0.930 . S
H1014 C1027 0.930 . S
H1015 C1031 0.959 . S
H1016 C1031 0.959 . S
H1017 C1031 0.961 . S
H1018 C1032 0.960 . S
H1019 C1032 0.961 . S
H1020 C1032 0.959 . S
H1021 C1035 0.929 . S
H1022 C1036 0.931 . S
H1023 C1038 0.930 . S
C1024 H1012 0.930 . S
C1024 C1025 1.399 . S
C1024 C1029 1.399 . S
C1025 C1024 1.399 . S
C1025 C1026 1.376 . S
C1026 H1013 0.930 . S
C1026 C1025 1.376 . S
C1026 C1027 1.388 . S
C1027 H1014 0.930 . S
C1027 C1026 1.388 . S
C1027 C1028 1.390 . S
C1028 C1027 1.390 . S
C1028 C1029 1.394 . S
C1028 C1034 1.465 . S
C1029 C1024 1.399 . S
C1029 C1028 1.394 . S
C1029 C1030 1.516 . S
C1030 C1029 1.516 . S
C1030 C1031 1.502 . S
C1030 C1032 1.561 . S
C1030 C1033 1.526 . S
C1031 H1015 0.959 . S
C1031 H1016 0.959 . S
C1031 H1017 0.961 . S
C1031 C1030 1.502 . S
C1032 H1018 0.960 . S
C1032 H1019 0.961 . S
C1032 H1020 0.959 . S
C1032 C1030 1.561 . S
C1033 C1030 1.526 . S
C1033 C1034 1.396 . S
C1033 C1038 1.390 . S
C1034 C1028 1.465 . S
C1034 C1033 1.396 . S
C1034 C1035 1.399 . S
C1035 H1021 0.929 . S
C1035 C1034 1.399 . S
C1035 C1036 1.385 . S
C1036 H1022 0.931 . S
C1036 C1035 1.385 . S
C1036 C1037 1.389 . S
C1037 C1036 1.389 . S
C1037 C1038 1.387 . S
C1038 H1023 0.930 . S
C1038 C1033 1.390 . S
C1038 C1037 1.387 . S
H1039 C1051 0.930 . S
H1040 C1053 0.930 . S
H1041 C1054 0.930 . S
H1042 C1058 0.959 . S
H1043 C1058 0.959 . S
H1044 C1058 0.961 . S
H1045 C1059 0.960 . S
H1046 C1059 0.961 . S
H1047 C1059 0.959 . S
H1048 C1062 0.929 . S
H1049 C1063 0.931 . S
H1050 C1065 0.930 . S
C1051 H1039 0.930 . S
C1051 C1052 1.399 . S
C1051 C1056 1.399 . S
C1052 C1051 1.399 . S
C1052 C1053 1.376 . S
C1053 H1040 0.930 . S
C1053 C1052 1.376 . S
C1053 C1054 1.388 . S
C1054 H1041 0.930 . S
C1054 C1053 1.388 . S
C1054 C1055 1.390 . S
C1055 C1054 1.390 . S
C1055 C1056 1.394 . S
C1055 C1061 1.465 . S
C1056 C1051 1.399 . S
C1056 C1055 1.394 . S
C1056 C1057 1.516 . S
C1057 C1056 1.516 . S
C1057 C1058 1.502 . S
C1057 C1059 1.561 . S
C1057 C1060 1.526 . S
C1058 H1042 0.959 . S
C1058 H1043 0.959 . S
C1058 H1044 0.961 . S
C1058 C1057 1.502 . S
C1059 H1045 0.960 . S
C1059 H1046 0.961 . S
C1059 H1047 0.959 . S
C1059 C1057 1.561 . S
C1060 C1057 1.526 . S
C1060 C1061 1.396 . S
C1060 C1065 1.390 . S
C1061 C1055 1.465 . S
C1061 C1060 1.396 . S
C1061 C1062 1.399 . S
C1062 H1048 0.929 . S
C1062 C1061 1.399 . S
C1062 C1063 1.385 . S
C1063 H1049 0.931 . S
C1063 C1062 1.385 . S
C1063 C1064 1.389 . S
C1064 C1063 1.389 . S
C1064 C1065 1.387 . S
C1065 H1050 0.930 . S
C1065 C1060 1.390 . S
C1065 C1064 1.387 . S
H1066 C1078 0.930 . S
H1067 C1080 0.930 . S
H1068 C1081 0.930 . S
H1069 C1085 0.959 . S
H1070 C1085 0.959 . S
H1071 C1085 0.961 . S
H1072 C1086 0.960 . S
H1073 C1086 0.961 . S
H1074 C1086 0.959 . S
H1075 C1089 0.929 . S
H1076 C1090 0.931 . S
H1077 C1092 0.930 . S
C1078 H1066 0.930 . S
C1078 C1079 1.399 . S
C1078 C1083 1.399 . S
C1079 C1078 1.399 . S
C1079 C1080 1.376 . S
C1080 H1067 0.930 . S
C1080 C1079 1.376 . S
C1080 C1081 1.388 . S
C1081 H1068 0.930 . S
C1081 C1080 1.388 . S
C1081 C1082 1.390 . S
C1082 C1081 1.390 . S
C1082 C1083 1.394 . S
C1082 C1088 1.465 . S
C1083 C1078 1.399 . S
C1083 C1082 1.394 . S
C1083 C1084 1.516 . S
C1084 C1083 1.516 . S
C1084 C1085 1.502 . S
C1084 C1086 1.561 . S
C1084 C1087 1.526 . S
C1085 H1069 0.959 . S
C1085 H1070 0.959 . S
C1085 H1071 0.961 . S
C1085 C1084 1.502 . S
C1086 H1072 0.960 . S
C1086 H1073 0.961 . S
C1086 H1074 0.959 . S
C1086 C1084 1.561 . S
C1087 C1084 1.526 . S
C1087 C1088 1.396 . S
C1087 C1092 1.390 . S
C1088 C1082 1.465 . S
C1088 C1087 1.396 . S
C1088 C1089 1.399 . S
C1089 H1075 0.929 . S
C1089 C1088 1.399 . S
C1089 C1090 1.385 . S
C1090 H1076 0.931 . S
C1090 C1089 1.385 . S
C1090 C1091 1.389 . S
C1091 C1090 1.389 . S
C1091 C1092 1.387 . S
C1092 H1077 0.930 . S
C1092 C1087 1.390 . S
C1092 C1091 1.387 . S
H1093 C1105 0.930 . S
H1094 C1107 0.930 . S
H1095 C1108 0.930 . S
H1096 C1112 0.959 . S
H1097 C1112 0.959 . S
H1098 C1112 0.961 . S
H1099 C1113 0.960 . S
H1100 C1113 0.961 . S
H1101 C1113 0.959 . S
H1102 C1116 0.929 . S
H1103 C1117 0.931 . S
H1104 C1119 0.930 . S
C1105 H1093 0.930 . S
C1105 C1106 1.399 . S
C1105 C1110 1.399 . S
C1106 C1105 1.399 . S
C1106 C1107 1.376 . S
C1107 H1094 0.930 . S
C1107 C1106 1.376 . S
C1107 C1108 1.388 . S
C1108 H1095 0.930 . S
C1108 C1107 1.388 . S
C1108 C1109 1.390 . S
C1109 C1108 1.390 . S
C1109 C1110 1.394 . S
C1109 C1115 1.465 . S
C1110 C1105 1.399 . S
C1110 C1109 1.394 . S
C1110 C1111 1.516 . S
C1111 C1110 1.516 . S
C1111 C1112 1.502 . S
C1111 C1113 1.561 . S
C1111 C1114 1.526 . S
C1112 H1096 0.959 . S
C1112 H1097 0.959 . S
C1112 H1098 0.961 . S
C1112 C1111 1.502 . S
C1113 H1099 0.960 . S
C1113 H1100 0.961 . S
C1113 H1101 0.959 . S
C1113 C1111 1.561 . S
C1114 C1111 1.526 . S
C1114 C1115 1.396 . S
C1114 C1119 1.390 . S
C1115 C1109 1.465 . S
C1115 C1114 1.396 . S
C1115 C1116 1.399 . S
C1116 H1102 0.929 . S
C1116 C1115 1.399 . S
C1116 C1117 1.385 . S
C1117 H1103 0.931 . S
C1117 C1116 1.385 . S
C1117 C1118 1.389 . S
C1118 C1117 1.389 . S
C1118 C1119 1.387 . S
C1119 H1104 0.930 . S
C1119 C1114 1.390 . S
C1119 C1118 1.387 . S
C485 C1 1.354 . S
C497 C327 1.331 . S
C512 C40 1.356 . S
C524 C367 1.298 . S
C551 C401 2.241 . S
C539 C99 2.265 . S
C566 C118 2.639 . S
C578 C442 2.601 . S
C605 C362 1.457 . S
C593 C16 1.437 . S
C632 C322 2.206 . S
C620 C60 2.079 . S
C659 C450 1.567 . S
C647 C79 1.558 . S
C686 C411 1.788 . S
C674 C138 1.851 . S
C701 C21 1.408 . S
C713 C447 1.392 . S
C740 C370 2.018 . S
C728 C94 2.037 . S
C755 C133 2.460 . S
C767 C330 2.351 . S
C782 C55 1.612 . S
C794 C398 1.615 . S
C821 C318 1.371 . S
C809 C157 1.288 . S
C836 C196 1.277 . S
C848 C358 1.357 . S
C863 C255 2.274 . S
C875 C410 2.258 . S
C890 C289 2.631 . S
C902 C451 2.599 . S
C917 C172 1.372 . S
C929 C371 1.449 . S
C956 C331 2.210 . S
C944 C216 2.044 . S
C983 C441 1.552 . S
C971 C235 1.579 . S
C1010 C402 1.834 . S
C998 C294 1.845 . S
C1025 C177 1.424 . S
C1037 C438 1.354 . S
C1064 C361 1.989 . S
C1052 C250 2.039 . S
C1091 C321 2.354 . S
C1079 C274 2.468 . S
C1106 C211 1.611 . S
C1118 C407 1.636 . S
