# Generated by pormake.
# Topology apo, (3,6)-cn, num edge types: 1
# Building blocks:
#     Node 0, Type 0, BuildingBlock: ESEHIV_clean_linker_0, # of connection points: 3
#     Node 1, Type 0, BuildingBlock: ESEHIV_clean_linker_0, # of connection points: 3
#     Node 2, Type 0, BuildingBlock: ESEHIV_clean_linker_0, # of connection points: 3
#     Node 3, Type 0, BuildingBlock: ESEHIV_clean_linker_0, # of connection points: 3
#     Node 4, Type 0, BuildingBlock: ESEHIV_clean_linker_0, # of connection points: 3
#     Node 5, Type 0, BuildingBlock: ESEHIV_clean_linker_0, # of connection points: 3
#     Node 6, Type 0, BuildingBlock: ESEHIV_clean_linker_0, # of connection points: 3
#     Node 7, Type 0, BuildingBlock: ESEHIV_clean_linker_0, # of connection points: 3
#     Node 8, Type 1, BuildingBlock: KUMBUR_clean_sbu_1, # of connection points: 6
#     Node 9, Type 1, BuildingBlock: KUMBUR_clean_sbu_1, # of connection points: 6
#     Node 10, Type 1, BuildingBlock: KUMBUR_clean_sbu_1, # of connection points: 6
#     Node 11, Type 1, BuildingBlock: KUMBUR_clean_sbu_1, # of connection points: 6
#     Edge 12, Type (0, 1), BuildingBlock: KIFKEQ_clean_linker_1, # of connection points: 2
#     Edge 13, Type (0, 1), BuildingBlock: KIFKEQ_clean_linker_1, # of connection points: 2
#     Edge 14, Type (0, 1), BuildingBlock: KIFKEQ_clean_linker_1, # of connection points: 2
#     Edge 15, Type (0, 1), BuildingBlock: KIFKEQ_clean_linker_1, # of connection points: 2
#     Edge 16, Type (0, 1), BuildingBlock: KIFKEQ_clean_linker_1, # of connection points: 2
#     Edge 17, Type (0, 1), BuildingBlock: KIFKEQ_clean_linker_1, # of connection points: 2
#     Edge 18, Type (0, 1), BuildingBlock: KIFKEQ_clean_linker_1, # of connection points: 2
#     Edge 19, Type (0, 1), BuildingBlock: KIFKEQ_clean_linker_1, # of connection points: 2
#     Edge 20, Type (0, 1), BuildingBlock: KIFKEQ_clean_linker_1, # of connection points: 2
#     Edge 21, Type (0, 1), BuildingBlock: KIFKEQ_clean_linker_1, # of connection points: 2
#     Edge 22, Type (0, 1), BuildingBlock: KIFKEQ_clean_linker_1, # of connection points: 2
#     Edge 23, Type (0, 1), BuildingBlock: KIFKEQ_clean_linker_1, # of connection points: 2
#     Edge 24, Type (0, 1), BuildingBlock: KIFKEQ_clean_linker_1, # of connection points: 2
#     Edge 25, Type (0, 1), BuildingBlock: KIFKEQ_clean_linker_1, # of connection points: 2
#     Edge 26, Type (0, 1), BuildingBlock: KIFKEQ_clean_linker_1, # of connection points: 2
#     Edge 27, Type (0, 1), BuildingBlock: KIFKEQ_clean_linker_1, # of connection points: 2
#     Edge 28, Type (0, 1), BuildingBlock: KIFKEQ_clean_linker_1, # of connection points: 2
#     Edge 29, Type (0, 1), BuildingBlock: KIFKEQ_clean_linker_1, # of connection points: 2
#     Edge 30, Type (0, 1), BuildingBlock: KIFKEQ_clean_linker_1, # of connection points: 2
#     Edge 31, Type (0, 1), BuildingBlock: KIFKEQ_clean_linker_1, # of connection points: 2
#     Edge 32, Type (0, 1), BuildingBlock: KIFKEQ_clean_linker_1, # of connection points: 2
#     Edge 33, Type (0, 1), BuildingBlock: KIFKEQ_clean_linker_1, # of connection points: 2
#     Edge 34, Type (0, 1), BuildingBlock: KIFKEQ_clean_linker_1, # of connection points: 2
#     Edge 35, Type (0, 1), BuildingBlock: KIFKEQ_clean_linker_1, # of connection points: 2
# Relax obj value: 0.008
# Max RMSD: 0.113
# Mean RMSD: 0.086
data_MOF--net-apo--node1-KUMBUR_clean_sbu_1--node2-ESEHIV_clean_linker_0--edge1-KIFKEQ_clean_linker_1
_symmetry_space_group_name_H-M    P1
_symmetry_Int_Tables_number       1
_symmetry_cell_setting            triclinic
loop_
_symmetry_equiv_pos_as_xyz
'x, y, z'
_cell_length_a     23.142905
_cell_length_b     40.687025
_cell_length_c     51.428341
_cell_angle_alpha  89.88838
_cell_angle_beta   90.014713
_cell_angle_gamma 90.17281
loop_
_atom_site_label
_atom_site_type_symbol
_atom_site_fract_x
_atom_site_fract_y
_atom_site_fract_z
_atom_type_partial_charge
H0 H 0.33906 0.42231 0.43145 0.0
H1 H 0.26405 0.3821 0.36218 0.0
H2 H 0.24798 0.32978 0.43461 0.0
C3 C 0.31492 0.40289 0.42194 0.0
C4 C 0.2956 0.37553 0.43639 0.0
C5 C 0.30378 0.40525 0.39518 0.0
C6 C 0.27217 0.38031 0.38289 0.0
C7 C 0.25114 0.35317 0.39692 0.0
C8 C 0.26342 0.35083 0.42369 0.0
H9 H 0.16558 0.07788 0.93161 0.0
H10 H 0.23732 0.11768 0.86122 0.0
H11 H 0.26092 0.16884 0.93359 0.0
C12 C 0.19066 0.09667 0.92175 0.0
C13 C 0.21169 0.1238 0.93581 0.0
C14 C 0.19954 0.09447 0.89478 0.0
C15 C 0.23082 0.11933 0.88204 0.0
C16 C 0.25341 0.14627 0.89577 0.0
C17 C 0.24324 0.14839 0.92268 0.0
H18 H 0.8349 0.07923 0.59411 0.0
H19 H 0.76332 0.12046 0.66366 0.0
H20 H 0.75229 0.17407 0.59171 0.0
C21 C 0.81233 0.09908 0.60373 0.0
C22 C 0.79536 0.12703 0.58951 0.0
C23 C 0.80123 0.09679 0.63048 0.0
C24 C 0.77171 0.12226 0.64296 0.0
C25 C 0.75309 0.14999 0.62908 0.0
C26 C 0.76554 0.15238 0.60239 0.0
H27 H 0.6669 0.42147 0.09236 0.0
H28 H 0.73653 0.3833 0.16368 0.0
H29 H 0.75031 0.32708 0.0933 0.0
C30 C 0.68867 0.40206 0.10293 0.0
C31 C 0.70619 0.37357 0.08965 0.0
C32 C 0.69991 0.40598 0.12959 0.0
C33 C 0.72959 0.38104 0.14293 0.0
C34 C 0.7486 0.35265 0.13001 0.0
C35 C 0.73651 0.34907 0.10335 0.0
H36 H 0.66495 0.58031 0.59334 0.0
H37 H 0.74236 0.67674 0.59071 0.0
H38 H 0.73579 0.62265 0.66267 0.0
C39 C 0.68667 0.60057 0.60294 0.0
C40 C 0.69768 0.59861 0.62972 0.0
C41 C 0.70276 0.62867 0.58863 0.0
C42 C 0.73101 0.65472 0.60146 0.0
C43 C 0.74257 0.65298 0.62829 0.0
C44 C 0.72602 0.62468 0.64212 0.0
H45 H 0.83495 0.92403 0.09452 0.0
H46 H 0.75399 0.88184 0.16183 0.0
H47 H 0.74062 0.83309 0.08773 0.0
C48 C 0.80915 0.90468 0.1033 0.0
C49 C 0.78972 0.8783 0.08801 0.0
C50 C 0.79617 0.90611 0.12988 0.0
C51 C 0.76328 0.88092 0.14119 0.0
C52 C 0.74264 0.85452 0.12621 0.0
C53 C 0.756 0.85338 0.0995 0.0
H54 H 0.17126 0.92199 0.43559 0.0
H55 H 0.25196 0.82676 0.43517 0.0
H56 H 0.23635 0.88174 0.36417 0.0
C57 C 0.19263 0.90236 0.42519 0.0
C58 C 0.20205 0.90544 0.39826 0.0
C59 C 0.21026 0.87401 0.43874 0.0
C60 C 0.23795 0.84864 0.42495 0.0
C61 C 0.24738 0.85117 0.39802 0.0
C62 C 0.22931 0.87967 0.38494 0.0
H63 H 0.34195 0.58134 0.93283 0.0
H64 H 0.27296 0.62 0.8617 0.0
H65 H 0.25179 0.67384 0.93284 0.0
C66 C 0.31851 0.6004 0.92259 0.0
C67 C 0.29898 0.62822 0.93615 0.0
C68 C 0.30817 0.59699 0.89584 0.0
C69 C 0.27875 0.62194 0.88255 0.0
C70 C 0.2582 0.64975 0.89564 0.0
C71 C 0.26855 0.65276 0.92249 0.0
Tb72 Tb 0.06845 0.13635 0.23886 0.0
C73 C 0.80762 0.11567 0.27013 0.0
N74 N 0.8396 0.14355 0.27271 0.0
C75 C 0.75898 0.17598 0.25866 0.0
C76 C 0.75002 0.11684 0.26129 0.0
C77 C 0.81597 0.17357 0.26749 0.0
C78 C 0.7259 0.1475 0.25545 0.0
C79 C 0.80174 0.05623 0.27334 0.0
C80 C 0.83312 0.08575 0.2761 0.0
C81 C 0.74432 0.05726 0.26452 0.0
C82 C 0.71853 0.08748 0.25852 0.0
Tb83 Tb 0.93165 0.13626 0.28742 0.0
N84 N 0.88947 0.08561 0.28373 0.0
C85 C 0.82914 0.02659 0.27944 0.0
C86 C 0.91545 0.05692 0.29087 0.0
C87 C 0.88607 0.02699 0.28846 0.0
H88 H 0.84045 0.19575 0.27086 0.0
H89 H 0.90721 0.00425 0.29377 0.0
H90 H 0.16521 0.08142 0.25781 0.0
H91 H 0.08319 0.26783 0.22358 0.0
H92 H 0.95844 0.05686 0.29865 0.0
H93 H 0.80656 0.00335 0.27755 0.0
H94 H 0.03802 0.2134 0.22039 0.0
H95 H 0.74045 0.19983 0.25457 0.0
H96 H 0.71951 0.03482 0.26223 0.0
H97 H 0.67421 0.08787 0.25173 0.0
H98 H 0.26501 0.08155 0.27472 0.0
H99 H 0.68173 0.14946 0.24864 0.0
H100 H 0.18122 0.27354 0.24224 0.0
N101 N 0.16099 0.13336 0.25396 0.0
C102 C 0.1898 0.16238 0.25602 0.0
C103 C 0.24421 0.1045 0.2697 0.0
C104 C 0.24705 0.16364 0.26527 0.0
C105 C 0.18741 0.10452 0.26041 0.0
C106 C 0.27413 0.1342 0.27224 0.0
N107 N 0.10633 0.18845 0.23968 0.0
C108 C 0.07913 0.21546 0.22986 0.0
C109 C 0.19016 0.22147 0.24994 0.0
C110 C 0.16168 0.19088 0.24848 0.0
C111 C 0.16089 0.24954 0.24146 0.0
C112 C 0.10541 0.24643 0.23106 0.0
H113 H 0.31818 0.13409 0.27938 0.0
H114 H 0.31939 0.19564 0.27422 0.0
H115 H 0.26956 0.24629 0.26081 0.0
O116 O 0.0618 0.14522 0.19854 0.0
O117 O 0.07846 0.15937 0.27729 0.0
O118 O 0.98874 0.17939 0.28878 0.0
O119 O 0.12363 0.11084 0.21347 0.0
O120 O 0.9868 0.15966 0.2267 0.0
O121 O 0.94334 0.18028 0.26371 0.0
O122 O 0.93488 0.12215 0.32679 0.0
O123 O 0.92279 0.11213 0.24919 0.0
O124 O 0.01363 0.0929 0.2398 0.0
O125 O 0.87455 0.15862 0.31376 0.0
O126 O 0.01232 0.11293 0.30037 0.0
O127 O 0.05984 0.093 0.26399 0.0
C128 C 0.04555 0.17991 0.29021 0.0
C129 C 0.14883 0.13936 0.175 0.0
C130 C 0.18345 0.14898 0.13063 0.0
C131 C 0.23315 0.16413 0.14098 0.0
C132 C 0.19883 0.15457 0.18468 0.0
C133 C 0.24055 0.16694 0.16777 0.0
C134 C 0.14127 0.13656 0.14792 0.0
C135 C 0.95122 0.18015 0.23837 0.0
C136 C 0.1048 0.12597 0.1929 0.0
C137 C 0.2754 0.19413 0.2671 0.0
C138 C 0.247 0.22298 0.25947 0.0
C139 C 0.95751 0.09216 0.23665 0.0
C140 C 0.91026 0.16367 0.35643 0.0
C141 C 0.90963 0.17202 0.40342 0.0
C142 C 0.93953 0.20186 0.39978 0.0
C143 C 0.93949 0.1936 0.35325 0.0
C144 C 0.89522 0.15296 0.38151 0.0
C145 C 0.95429 0.21251 0.37484 0.0
C146 C 0.04911 0.09271 0.28922 0.0
C147 C 0.8958 0.14331 0.33376 0.0
H148 H 0.26701 0.17333 0.12837 0.0
H149 H 0.20616 0.15657 0.20528 0.0
H150 H 0.27912 0.17847 0.17547 0.0
H151 H 0.10255 0.12495 0.14037 0.0
H152 H 0.95062 0.21729 0.41619 0.0
H153 H 0.95034 0.20233 0.33406 0.0
H154 H 0.87287 0.12969 0.38394 0.0
H155 H 0.9769 0.23562 0.37222 0.0
Tb156 Tb 0.4353 0.36363 0.73952 0.0
C157 C 0.7002 0.38153 0.7706 0.0
N158 N 0.66627 0.35436 0.77292 0.0
C159 C 0.74512 0.32023 0.75954 0.0
C160 C 0.75808 0.37912 0.76235 0.0
C161 C 0.68798 0.32387 0.76788 0.0
C162 C 0.7803 0.34798 0.75669 0.0
C163 C 0.71014 0.44075 0.77416 0.0
C164 C 0.67658 0.41195 0.77642 0.0
C165 C 0.76789 0.4385 0.76595 0.0
C166 C 0.79179 0.40777 0.76007 0.0
Tb167 Tb 0.57448 0.36356 0.78715 0.0
N168 N 0.61997 0.41327 0.78353 0.0
C169 C 0.68456 0.47093 0.78016 0.0
C170 C 0.5956 0.44246 0.79049 0.0
C171 C 0.62718 0.47173 0.78855 0.0
H172 H 0.6618 0.30226 0.77108 0.0
H173 H 0.60737 0.49487 0.79373 0.0
H174 H 0.33611 0.40596 0.77132 0.0
H175 H 0.44063 0.23711 0.70644 0.0
H176 H 0.55214 0.4434 0.7977 0.0
H177 H 0.70887 0.49365 0.77867 0.0
H178 H 0.47273 0.29447 0.70782 0.0
H179 H 0.76216 0.29601 0.75559 0.0
H180 H 0.79441 0.46037 0.76409 0.0
H181 H 0.8364 0.40642 0.75377 0.0
H182 H 0.24119 0.39528 0.79157 0.0
H183 H 0.82462 0.34506 0.75032 0.0
H184 H 0.35137 0.22034 0.72939 0.0
N185 N 0.34786 0.35651 0.75915 0.0
C186 C 0.32493 0.32579 0.75786 0.0
C187 C 0.26444 0.37548 0.78228 0.0
C188 C 0.27097 0.31854 0.76923 0.0
C189 C 0.31842 0.3814 0.77096 0.0
C190 C 0.24064 0.3439 0.78148 0.0
N191 N 0.40886 0.3095 0.7351 0.0
C192 C 0.43687 0.28725 0.7198 0.0
C193 C 0.33493 0.26907 0.74444 0.0
C194 C 0.35692 0.30138 0.74585 0.0
C195 C 0.36672 0.24544 0.73094 0.0
C196 C 0.41736 0.25475 0.71815 0.0
H197 H 0.19895 0.33935 0.79038 0.0
H198 H 0.20819 0.28014 0.777 0.0
H199 H 0.26402 0.23685 0.75516 0.0
O200 O 0.42618 0.36039 0.69817 0.0
O201 O 0.42802 0.34326 0.77904 0.0
O202 O 0.51686 0.32059 0.78772 0.0
O203 O 0.37109 0.39167 0.72165 0.0
O204 O 0.51775 0.34299 0.72569 0.0
O205 O 0.55994 0.32088 0.76245 0.0
O206 O 0.5686 0.37655 0.82665 0.0
O207 O 0.58324 0.39 0.74979 0.0
O208 O 0.49127 0.40668 0.7384 0.0
O209 O 0.63088 0.34109 0.81384 0.0
O210 O 0.49585 0.38856 0.80019 0.0
O211 O 0.44497 0.40714 0.7641 0.0
C212 C 0.46031 0.32102 0.79042 0.0
C213 C 0.35136 0.39297 0.67551 0.0
C214 C 0.33412 0.39518 0.62865 0.0
C215 C 0.29099 0.41876 0.63274 0.0
C216 C 0.30761 0.4165 0.679 0.0
C217 C 0.27771 0.42921 0.65777 0.0
C218 C 0.36427 0.38205 0.65011 0.0
C219 C 0.55402 0.32252 0.73705 0.0
C220 C 0.3837 0.38127 0.69857 0.0
C221 C 0.24948 0.28626 0.76829 0.0
C222 C 0.28142 0.26158 0.75596 0.0
C223 C 0.54765 0.40867 0.73637 0.0
C224 C 0.59408 0.33494 0.85628 0.0
C225 C 0.59523 0.32568 0.90324 0.0
C226 C 0.56585 0.29574 0.89933 0.0
C227 C 0.56531 0.30493 0.85286 0.0
C228 C 0.60916 0.34523 0.88147 0.0
C229 C 0.55106 0.28551 0.8743 0.0
C230 C 0.45887 0.40862 0.78896 0.0
C231 C 0.60828 0.35579 0.83378 0.0
H232 H 0.26738 0.42904 0.61645 0.0
H233 H 0.29663 0.4254 0.69821 0.0
H234 H 0.24429 0.44739 0.66072 0.0
H235 H 0.3979 0.364 0.64699 0.0
H236 H 0.55514 0.27992 0.91561 0.0
H237 H 0.55436 0.29651 0.83359 0.0
H238 H 0.63112 0.36857 0.88408 0.0
H239 H 0.52881 0.26234 0.8715 0.0
Tb240 Tb 0.06798 0.86601 0.73697 0.0
C241 C 0.81629 0.83418 0.76426 0.0
N242 N 0.84479 0.86318 0.76733 0.0
C243 C 0.76415 0.8919 0.7487 0.0
C244 C 0.76161 0.83275 0.75221 0.0
C245 C 0.81782 0.89205 0.76121 0.0
C246 C 0.73637 0.86206 0.74372 0.0
C247 C 0.81037 0.77596 0.77417 0.0
C248 C 0.84014 0.80618 0.77502 0.0
C249 C 0.75721 0.77402 0.76107 0.0
C250 C 0.73293 0.80236 0.75005 0.0
Tb251 Tb 0.93343 0.85969 0.78714 0.0
N252 N 0.8921 0.80886 0.78706 0.0
C253 C 0.83449 0.74884 0.78696 0.0
C254 C 0.91436 0.78308 0.80082 0.0
C255 C 0.88632 0.75255 0.80066 0.0
H256 H 0.83667 0.91537 0.76647 0.0
H257 H 0.90463 0.73195 0.81111 0.0
H258 H 0.17071 0.82383 0.76628 0.0
H259 H 0.06162 0.99206 0.7024 0.0
H260 H 0.9541 0.78605 0.8116 0.0
H261 H 0.81291 0.72517 0.78682 0.0
H262 H 0.03089 0.93433 0.70391 0.0
H263 H 0.74369 0.91485 0.74341 0.0
H264 H 0.73394 0.75093 0.75987 0.0
H265 H 0.69114 0.80071 0.74063 0.0
H266 H 0.26439 0.83515 0.78736 0.0
H267 H 0.69439 0.86205 0.73439 0.0
H268 H 0.14918 0.0098 0.72621 0.0
N269 N 0.1551 0.87384 0.7566 0.0
C270 C 0.17709 0.90479 0.75563 0.0
C271 C 0.23994 0.85505 0.77879 0.0
C272 C 0.23053 0.91244 0.76729 0.0
C273 C 0.18644 0.84877 0.76712 0.0
C274 C 0.26182 0.8871 0.77914 0.0
N275 N 0.09481 0.91994 0.73137 0.0
C276 C 0.06649 0.94194 0.71588 0.0
C277 C 0.16631 0.96131 0.74173 0.0
C278 C 0.14532 0.92878 0.74303 0.0
C279 C 0.13461 0.98453 0.72767 0.0
C280 C 0.085 0.97465 0.71432 0.0
H281 H 0.30321 0.89192 0.78825 0.0
H282 H 0.29172 0.95144 0.77565 0.0
H283 H 0.23543 0.99429 0.7533 0.0
O284 O 0.10572 0.87346 0.69995 0.0
O285 O 0.07431 0.88583 0.77674 0.0
O286 O 0.9835 0.90523 0.78569 0.0
O287 O 0.10839 0.82551 0.71909 0.0
O288 O 0.98573 0.88781 0.72428 0.0
O289 O 0.93669 0.90344 0.76175 0.0
O290 O 0.94974 0.8561 0.8273 0.0
O291 O 0.95194 0.82019 0.75934 0.0
O292 O 0.98542 0.84658 0.72303 0.0
O293 O 0.86813 0.87351 0.81334 0.0
O294 O 0.01657 0.83943 0.79933 0.0
O295 O 0.06338 0.822 0.76182 0.0
C296 C 0.03999 0.90764 0.78739 0.0
C297 C 0.15353 0.82928 0.6763 0.0
C298 C 0.17783 0.82946 0.63011 0.0
C299 C 0.21153 0.80126 0.63389 0.0
C300 C 0.18729 0.80096 0.67963 0.0
C301 C 0.21628 0.78717 0.65854 0.0
C302 C 0.14904 0.84363 0.65139 0.0
C303 C 0.94723 0.90597 0.73657 0.0
C304 C 0.12184 0.84293 0.69869 0.0
C305 C 0.25093 0.94497 0.76663 0.0
C306 C 0.2188 0.96938 0.75395 0.0
C307 C 0.95484 0.82321 0.734 0.0
C308 C 0.90098 0.89431 0.85336 0.0
C309 C 0.88976 0.91086 0.89872 0.0
C310 C 0.90187 0.94354 0.89132 0.0
C311 C 0.91311 0.92692 0.84643 0.0
C312 C 0.88969 0.88632 0.87943 0.0
C313 C 0.91372 0.95139 0.8654 0.0
C314 C 0.05326 0.82017 0.78708 0.0
C315 C 0.89995 0.86825 0.8337 0.0
H316 H 0.23385 0.79004 0.61767 0.0
H317 H 0.19133 0.78948 0.69857 0.0
H318 H 0.24223 0.76534 0.66127 0.0
H319 H 0.12255 0.86525 0.64844 0.0
H320 H 0.90137 0.9632 0.90547 0.0
H321 H 0.92167 0.93343 0.82638 0.0
H322 H 0.88142 0.86091 0.88463 0.0
H323 H 0.92294 0.97658 0.85996 0.0
Tb324 Tb 0.43089 0.64109 0.23932 0.0
C325 C 0.68505 0.67377 0.26905 0.0
N326 N 0.66014 0.64357 0.26735 0.0
C327 C 0.74294 0.62317 0.24454 0.0
C328 C 0.73984 0.68 0.25812 0.0
C329 C 0.68823 0.61827 0.25543 0.0
C330 C 0.76886 0.65418 0.24584 0.0
C331 C 0.67819 0.73055 0.28272 0.0
C332 C 0.65414 0.69874 0.28091 0.0
C333 C 0.73265 0.737 0.27172 0.0
C334 C 0.76341 0.71178 0.25947 0.0
Tb335 Tb 0.57152 0.63802 0.28624 0.0
N336 N 0.60118 0.69164 0.29112 0.0
C337 C 0.64744 0.75473 0.29607 0.0
C338 C 0.57412 0.71437 0.30635 0.0
C339 C 0.59572 0.74641 0.30837 0.0
H340 H 0.66887 0.59415 0.25471 0.0
H341 H 0.57321 0.76443 0.32002 0.0
H342 H 0.33988 0.69397 0.26603 0.0
H343 H 0.40874 0.51189 0.21528 0.0
H344 H 0.5375 0.70791 0.31809 0.0
H345 H 0.66439 0.77947 0.29792 0.0
H346 H 0.45575 0.56577 0.21474 0.0
H347 H 0.76512 0.60302 0.23518 0.0
H348 H 0.75163 0.76134 0.27283 0.0
H349 H 0.8054 0.71711 0.25112 0.0
H350 H 0.24288 0.69266 0.28585 0.0
H351 H 0.81112 0.65794 0.23726 0.0
H352 H 0.31271 0.50519 0.2357 0.0
N353 N 0.34101 0.64293 0.25758 0.0
C354 C 0.31064 0.6143 0.2575 0.0
C355 C 0.26164 0.67035 0.27818 0.0
C356 C 0.25479 0.61242 0.26834 0.0
C357 C 0.31705 0.67093 0.26737 0.0
C358 C 0.23044 0.64093 0.2788 0.0
N359 N 0.39101 0.58941 0.23727 0.0
C360 C 0.4158 0.56325 0.22503 0.0
C361 C 0.30692 0.55626 0.2471 0.0
C362 C 0.33651 0.5866 0.24707 0.0
C363 C 0.33395 0.52895 0.23607 0.0
C364 C 0.38831 0.53259 0.2247 0.0
H365 H 0.18754 0.64054 0.28723 0.0
H366 H 0.18238 0.58023 0.27681 0.0
H367 H 0.22802 0.53105 0.25821 0.0
O368 O 0.42687 0.63708 0.19784 0.0
O369 O 0.42211 0.6154 0.27692 0.0
O370 O 0.5134 0.59571 0.28551 0.0
O371 O 0.37289 0.67113 0.21948 0.0
O372 O 0.50823 0.61573 0.22437 0.0
O373 O 0.55863 0.59598 0.26031 0.0
O374 O 0.58004 0.64004 0.32757 0.0
O375 O 0.58151 0.65988 0.24736 0.0
O376 O 0.49224 0.68203 0.24043 0.0
O377 O 0.63343 0.60803 0.3039 0.0
O378 O 0.49091 0.65975 0.30132 0.0
O379 O 0.4486 0.68261 0.26499 0.0
C380 C 0.45713 0.59468 0.28854 0.0
C381 C 0.35979 0.67253 0.17302 0.0
C382 C 0.34255 0.67129 0.12625 0.0
C383 C 0.30786 0.69934 0.12847 0.0
C384 C 0.32462 0.70061 0.17473 0.0
C385 C 0.29892 0.71386 0.1526 0.0
C386 C 0.36865 0.65777 0.14856 0.0
C387 C 0.54632 0.59578 0.23522 0.0
C388 C 0.38717 0.65971 0.19692 0.0
C389 C 0.22531 0.5822 0.26853 0.0
C390 C 0.25133 0.55418 0.25796 0.0
C391 C 0.5474 0.6802 0.23492 0.0
C392 C 0.65185 0.60552 0.35013 0.0
C393 C 0.66791 0.60293 0.39702 0.0
C394 C 0.70849 0.57785 0.39316 0.0
C395 C 0.69304 0.58051 0.34682 0.0
C396 C 0.63976 0.61701 0.37543 0.0
C397 C 0.72114 0.56687 0.3682 0.0
C398 C 0.45467 0.68057 0.29036 0.0
C399 C 0.62112 0.61829 0.32704 0.0
H400 H 0.28753 0.70996 0.11143 0.0
H401 H 0.31713 0.71258 0.19322 0.0
H402 H 0.27205 0.7355 0.15415 0.0
H403 H 0.39558 0.63614 0.14684 0.0
H404 H 0.73064 0.56684 0.40956 0.0
H405 H 0.70333 0.57118 0.32767 0.0
H406 H 0.60809 0.63622 0.37837 0.0
H407 H 0.75261 0.54757 0.36542 0.0
H408 H 0.10093 0.93972 0.40416 0.0
H409 H 0.25888 0.9384 0.35936 0.0
H410 H 0.06678 0.98631 0.37851 0.0
H411 H 0.22406 0.98449 0.33342 0.0
H412 H 0.10581 0.03706 0.27353 0.0
H413 H 0.14545 0.99358 0.30084 0.0
H414 H 0.0892 0.04533 0.36949 0.0
H415 H 0.05033 0.08913 0.3423 0.0
C416 C 0.1287 0.94959 0.38909 0.0
C417 C 0.18253 0.93512 0.38374 0.0
C418 C 0.10904 0.97623 0.37435 0.0
C419 C 0.14259 0.98889 0.35383 0.0
C420 C 0.19684 0.9749 0.34882 0.0
C421 C 0.21669 0.94846 0.36367 0.0
C422 C 0.10287 0.03955 0.29444 0.0
C423 C 0.07548 0.06683 0.30569 0.0
C424 C 0.12544 0.01455 0.31009 0.0
C425 C 0.12049 0.01606 0.33731 0.0
C426 C 0.09323 0.04334 0.34857 0.0
C427 C 0.07115 0.06849 0.33295 0.0
H428 H 0.41221 0.56552 0.90012 0.0
H429 H 0.2494 0.5621 0.85902 0.0
H430 H 0.44648 0.51882 0.87478 0.0
H431 H 0.28391 0.51569 0.83354 0.0
H432 H 0.4654 0.41528 0.84172 0.0
H433 H 0.42724 0.4596 0.86827 0.0
H434 H 0.35749 0.50603 0.79954 0.0
H435 H 0.39541 0.4616 0.77284 0.0
C436 C 0.38352 0.55456 0.88591 0.0
C437 C 0.32825 0.5676 0.88147 0.0
C438 C 0.40315 0.52787 0.87138 0.0
C439 C 0.36794 0.51376 0.85209 0.0
C440 C 0.31233 0.52643 0.84797 0.0
C441 C 0.29264 0.55299 0.86256 0.0
C442 C 0.44184 0.43488 0.83221 0.0
C443 C 0.43345 0.43488 0.80512 0.0
C444 C 0.4202 0.46033 0.84746 0.0
C445 C 0.38954 0.48629 0.83598 0.0
C446 C 0.38042 0.48612 0.80896 0.0
C447 C 0.40225 0.4607 0.79366 0.0
H448 H 0.7136 0.53312 0.61961 0.0
H449 H 0.63659 0.59985 0.67473 0.0
H450 H 0.67985 0.48626 0.64576 0.0
H451 H 0.60309 0.5533 0.70071 0.0
H452 H 0.65857 0.41608 0.71824 0.0
H453 H 0.69713 0.46171 0.69225 0.0
H454 H 0.52943 0.50787 0.69283 0.0
H455 H 0.491 0.46283 0.71874 0.0
C456 C 0.68943 0.5377 0.63727 0.0
C457 C 0.67764 0.57002 0.64519 0.0
C458 C 0.67063 0.51099 0.6523 0.0
C459 C 0.63892 0.51625 0.67522 0.0
C460 C 0.62719 0.54858 0.68305 0.0
C461 C 0.64657 0.57517 0.66827 0.0
C462 C 0.63007 0.43605 0.71289 0.0
C463 C 0.5718 0.43587 0.72062 0.0
C464 C 0.65203 0.46197 0.69787 0.0
C465 C 0.6162 0.48827 0.6906 0.0
C466 C 0.55809 0.48804 0.69836 0.0
C467 C 0.53607 0.4621 0.71309 0.0
H468 H 0.85228 0.9022 0.17632 0.0
H469 H 0.78891 0.97185 0.11972 0.0
H470 H 0.88888 0.94744 0.20291 0.0
H471 H 0.82584 0.01719 0.1463 0.0
H472 H 0.84847 0.08815 0.21628 0.0
H473 H 0.80708 0.04289 0.19105 0.0
H474 H 0.96795 0.98998 0.19735 0.0
H475 H 0.00918 0.03484 0.22263 0.0
C476 C 0.84594 0.92722 0.16968 0.0
C477 C 0.81786 0.9336 0.146 0.0
C478 C 0.86714 0.95304 0.18479 0.0
C479 C 0.86013 0.98576 0.17663 0.0
C480 C 0.83137 0.99219 0.15312 0.0
C481 C 0.81075 0.96631 0.13784 0.0
C482 C 0.87487 0.0668 0.21233 0.0
C483 C 0.93208 0.06507 0.22137 0.0
C484 C 0.8513 0.04103 0.19779 0.0
C485 C 0.88439 0.013 0.19227 0.0
C486 C 0.94136 0.01119 0.20151 0.0
C487 C 0.96506 0.03701 0.21581 0.0
H488 H 0.86255 0.09719 0.67556 0.0
H489 H 0.78425 0.03187 0.61965 0.0
H490 H 0.89379 0.05022 0.70132 0.0
H491 H 0.81328 0.98463 0.64587 0.0
H492 H 0.9299 0.90802 0.68428 0.0
H493 H 0.89389 0.95373 0.65857 0.0
H494 H 0.86072 0.00823 0.72911 0.0
H495 H 0.90051 0.96319 0.75468 0.0
C496 C 0.85159 0.07268 0.66897 0.0
C497 C 0.821 0.06806 0.64569 0.0
C498 C 0.86906 0.04573 0.6838 0.0
C499 C 0.85564 0.01353 0.67586 0.0
C500 C 0.82506 0.009 0.65246 0.0
C501 C 0.80828 0.036 0.63743 0.0
C502 C 0.91469 0.92975 0.69428 0.0
C503 C 0.91836 0.93212 0.72148 0.0
C504 C 0.89356 0.9559 0.67954 0.0
C505 C 0.87468 0.98487 0.69169 0.0
C506 C 0.87602 0.9866 0.71903 0.0
C507 C 0.89798 0.96059 0.73376 0.0
H508 H 0.59721 0.43883 0.12392 0.0
H509 H 0.75707 0.44062 0.16739 0.0
H510 H 0.56301 0.48624 0.14841 0.0
H511 H 0.72227 0.48759 0.19215 0.0
H512 H 0.60654 0.54171 0.25145 0.0
H513 H 0.64564 0.49756 0.22497 0.0
H514 H 0.58364 0.54588 0.15559 0.0
H515 H 0.54463 0.59038 0.18207 0.0
C516 C 0.62538 0.44954 0.13846 0.0
C517 C 0.67984 0.43576 0.14374 0.0
C518 C 0.6057 0.47669 0.15252 0.0
C519 C 0.63985 0.49055 0.17228 0.0
C520 C 0.69461 0.47714 0.1773 0.0
C521 C 0.71445 0.45016 0.16314 0.0
C522 C 0.60177 0.54322 0.23053 0.0
C523 C 0.57249 0.5697 0.21891 0.0
C524 C 0.62429 0.51789 0.21535 0.0
C525 C 0.61772 0.51823 0.18819 0.0
C526 C 0.58888 0.54478 0.1765 0.0
C527 C 0.56676 0.57032 0.19168 0.0
H528 H 0.29419 0.47087 0.40599 0.0
H529 H 0.36236 0.40306 0.34938 0.0
H530 H 0.32892 0.51718 0.37961 0.0
H531 H 0.39653 0.44912 0.32302 0.0
H532 H 0.51081 0.53784 0.30229 0.0
H533 H 0.47235 0.49267 0.32806 0.0
H534 H 0.30944 0.54333 0.33502 0.0
H535 H 0.34823 0.58911 0.30932 0.0
C536 C 0.31676 0.46593 0.38798 0.0
C537 C 0.32569 0.43344 0.37972 0.0
C538 C 0.33605 0.49236 0.37278 0.0
C539 C 0.36531 0.48671 0.34926 0.0
C540 C 0.37441 0.4542 0.34113 0.0
C541 C 0.35462 0.42787 0.35613 0.0
C542 C 0.46677 0.53948 0.3093 0.0
C543 C 0.43253 0.56711 0.30374 0.0
C544 C 0.44467 0.51346 0.32393 0.0
C545 C 0.38794 0.51448 0.33353 0.0
C546 C 0.3535 0.54205 0.32802 0.0
C547 C 0.37553 0.56808 0.31314 0.0
H548 H 0.2039 0.0287 0.90614 0.0
H549 H 0.14064 0.09766 0.84898 0.0
H550 H 0.16613 0.9831 0.88006 0.0
H551 H 0.1042 0.05231 0.82275 0.0
H552 H 0.98975 0.96628 0.79825 0.0
H553 H 0.02773 0.01068 0.82499 0.0
H554 H 0.18465 0.9556 0.83751 0.0
H555 H 0.14542 0.91043 0.81152 0.0
C556 C 0.18175 0.03407 0.88807 0.0
C557 C 0.1753 0.0667 0.87956 0.0
C558 C 0.1607 0.00801 0.87302 0.0
C559 C 0.13231 0.01412 0.84932 0.0
C560 C 0.12545 0.04679 0.841 0.0
C561 C 0.14673 0.07275 0.85593 0.0
C562 C 0.03221 0.96354 0.80684 0.0
C563 C 0.06462 0.93488 0.80281 0.0
C564 C 0.0542 0.98911 0.82196 0.0
C565 C 0.10922 0.98668 0.83335 0.0
C566 C 0.14186 0.95805 0.82921 0.0
C567 C 0.11974 0.93239 0.81406 0.0
H568 H 0.17383 0.17782 0.96203 0.0
H569 H 0.22275 0.07656 0.9735 0.0
H570 H 0.15744 0.18367 1.00855 0.0
H571 H 0.20818 0.08253 0.02026 0.0
H572 H 0.14315 0.09615 0.10252 0.0
H573 H 0.14191 0.08981 0.05527 0.0
H574 H 0.21177 0.18792 0.04681 0.0
H575 H 0.20976 0.19479 0.09359 0.0
C576 C 0.18144 0.15685 0.97457 0.0
C577 C 0.20009 0.12683 0.96414 0.0
C578 C 0.17214 0.16018 1.00129 0.0
C579 C 0.18195 0.13368 0.01835 0.0
C580 C 0.19939 0.10338 1.00778 0.0
C581 C 0.20809 0.09996 0.98097 0.0
C582 C 0.15703 0.11658 0.0905 0.0
C583 C 0.17714 0.14586 0.1019 0.0
C584 C 0.15708 0.1128 0.0634 0.0
C585 C 0.17725 0.13822 0.04708 0.0
C586 C 0.19535 0.16786 0.05857 0.0
C587 C 0.19497 0.17168 0.08553 0.0
H588 H 0.39727 0.39046 0.46111 0.0
H589 H 0.22424 0.35496 0.47584 0.0
H590 H 0.41734 0.38969 0.50766 0.0
H591 H 0.24436 0.3541 0.52235 0.0
H592 H 0.30201 0.3385 0.60455 0.0
H593 H 0.29979 0.3288 0.55748 0.0
H594 H 0.38673 0.42164 0.54491 0.0
H595 H 0.3892 0.43083 0.59178 0.0
C596 C 0.36347 0.38249 0.47427 0.0
C597 C 0.30894 0.37304 0.4647 0.0
C598 C 0.37508 0.38194 0.50097 0.0
C599 C 0.33251 0.37186 0.5188 0.0
C600 C 0.27853 0.36147 0.50917 0.0
C601 C 0.2669 0.36206 0.48247 0.0
C602 C 0.32238 0.35613 0.59165 0.0
C603 C 0.34629 0.38521 0.60161 0.0
C604 C 0.32045 0.35087 0.56473 0.0
C605 C 0.34248 0.37462 0.54737 0.0
C606 C 0.36981 0.40268 0.55763 0.0
C607 C 0.37138 0.40799 0.58447 0.0
H608 H 0.77408 0.3485 0.05062 0.0
H609 H 0.6046 0.38865 0.0653 0.0
H610 H 0.74762 0.33929 1.00524 0.0
H611 H 0.57914 0.38077 0.01983 0.0
H612 H 0.52951 0.32202 0.94725 0.0
H613 H 0.5577 0.33521 0.99161 0.0
H614 H 0.72527 0.36711 0.96427 0.0
H615 H 0.69757 0.35277 0.91981 0.0
C616 C 0.73127 0.35546 0.04417 0.0
C617 C 0.6914 0.36918 0.06167 0.0
C618 C 0.71636 0.35057 0.01807 0.0
C619 C 0.66117 0.35921 1.00888 0.0
C620 C 0.62174 0.37345 0.0263 0.0
C621 C 0.63661 0.37831 0.05234 0.0
C622 C 0.57246 0.33174 0.95069 0.0
C623 C 0.61142 0.33609 0.93001 0.0
C624 C 0.58843 0.33967 0.97611 0.0
C625 C 0.64381 0.35219 0.98155 0.0
C626 C 0.68251 0.35716 0.9608 0.0
C627 C 0.66642 0.34929 0.93529 0.0
H628 H 0.89658 0.10982 0.56577 0.0
H629 H 0.72859 0.15133 0.54979 0.0
H630 H 0.92281 0.11619 0.52024 0.0
H631 H 0.756 0.15923 0.5044 0.0
H632 H 0.80657 0.1456 0.4196 0.0
H633 H 0.77805 0.13108 0.46393 0.0
H634 H 0.94641 0.16099 0.4917 0.0
H635 H 0.97541 0.17425 0.44744 0.0
C636 C 0.86503 0.1201 0.55252 0.0
C637 C 0.81047 0.13013 0.56149 0.0
C638 C 0.88037 0.12411 0.52644 0.0
C639 C 0.8417 0.13844 0.50868 0.0
C640 C 0.78667 0.14785 0.5175 0.0
C641 C 0.77123 0.14374 0.54361 0.0
C642 C 0.83772 0.14854 0.43515 0.0
C643 C 0.89314 0.16126 0.43004 0.0
C644 C 0.82119 0.14057 0.46057 0.0
C645 C 0.85982 0.14502 0.4814 0.0
C646 C 0.9157 0.15694 0.47613 0.0
C647 C 0.93215 0.16492 0.45078 0.0
H648 H 0.71812 0.87019 0.04618 0.0
H649 H 0.897 0.88409 0.06709 0.0
H650 H 0.74343 0.87517 1.00019 0.0
H651 H 0.92306 0.88771 0.02131 0.0
H652 H 0.9392 0.93691 0.94253 0.0
H653 H 0.9149 0.92594 0.98755 0.0
H654 H 0.78991 0.8531 0.96311 0.0
H655 H 0.81136 0.86586 0.91783 0.0
C656 C 0.76301 0.87363 0.04084 0.0
C657 C 0.80553 0.87715 0.06011 0.0
C658 C 0.77767 0.87639 0.0145 0.0
C659 C 0.8353 0.88234 1.00692 0.0
C660 C 0.87806 0.88409 0.02634 0.0
C661 C 0.86327 0.88179 0.05259 0.0
C662 C 0.90601 0.91883 0.94666 0.0
C663 C 0.87697 0.90254 0.9264 0.0
C664 C 0.8927 0.91207 0.97261 0.0
C665 C 0.8505 0.88848 0.97913 0.0
C666 C 0.82216 0.8717 0.95889 0.0
C667 C 0.83508 0.87872 0.93287 0.0
H668 H 0.60254 0.61116 0.56399 0.0
H669 H 0.77259 0.65108 0.54937 0.0
H670 H 0.58291 0.61084 0.5174 0.0
H671 H 0.75313 0.65063 0.50275 0.0
H672 H 0.69574 0.66132 0.41984 0.0
H673 H 0.69637 0.67299 0.46666 0.0
H674 H 0.61743 0.57833 0.48137 0.0
H675 H 0.61654 0.56717 0.43483 0.0
C676 C 0.63574 0.61988 0.55081 0.0
C677 C 0.6894 0.63078 0.56037 0.0
C678 C 0.62441 0.6198 0.52412 0.0
C679 C 0.66649 0.63058 0.5063 0.0
C680 C 0.71939 0.64262 0.51592 0.0
C681 C 0.73068 0.64275 0.54266 0.0
C682 C 0.67691 0.64362 0.43316 0.0
C683 C 0.65589 0.61345 0.42393 0.0
C684 C 0.67787 0.65005 0.45992 0.0
C685 C 0.65751 0.62645 0.47781 0.0
C686 C 0.63298 0.5972 0.46822 0.0
C687 C 0.63247 0.59073 0.44158 0.0
H688 H 0.29501 0.58026 0.97376 0.0
H689 H 0.3295 0.68381 0.96282 0.0
H690 H 0.31634 0.58566 0.01995 0.0
H691 H 0.34756 0.68957 1.00916 0.0
H692 H 0.41854 0.69034 0.08917 0.0
H693 H 0.41462 0.67657 0.04293 0.0
H694 H 0.27448 0.60874 0.05835 0.0
H695 H 0.2802 0.62198 0.10462 0.0
C696 C 0.30734 0.60417 0.98117 0.0
C697 C 0.31064 0.6316 0.9645 0.0
C698 C 0.31901 0.60731 1.00773 0.0
C699 C 0.33403 0.638 0.01833 0.0
C700 C 0.33727 0.66541 1.00165 0.0
C701 C 0.3259 0.66223 0.97509 0.0
C702 C 0.38844 0.67165 0.08264 0.0
C703 C 0.35011 0.65688 0.10025 0.0
C704 C 0.38548 0.6641 0.05617 0.0
C705 C 0.34351 0.64198 0.0468 0.0
C706 C 0.30759 0.6257 0.06483 0.0
C707 C 0.31085 0.63315 0.09133 0.0
H708 H 0.22113 0.92109 0.47672 0.0
H709 H 0.17424 0.81928 0.46527 0.0
H710 H 0.2045 0.91498 0.52337 0.0
H711 H 0.16034 0.81279 0.51183 0.0
H712 H 0.09793 0.81306 0.59385 0.0
H713 H 0.09902 0.82733 0.54759 0.0
H714 H 0.2495 0.88846 0.56027 0.0
H715 H 0.24708 0.87455 0.60659 0.0
C716 C 0.20699 0.89745 0.4841 0.0
C717 C 0.19929 0.87064 0.46719 0.0
C718 C 0.19799 0.89388 0.5109 0.0
C719 C 0.18101 0.86341 0.52144 0.0
C720 C 0.17254 0.83676 0.50444 0.0
C721 C 0.18143 0.84035 0.47771 0.0
C722 C 0.13017 0.83021 0.58671 0.0
C723 C 0.1722 0.84294 0.60358 0.0
C724 C 0.13131 0.83811 0.56023 0.0
C725 C 0.17485 0.8587 0.55008 0.0
C726 C 0.21511 0.87274 0.56738 0.0
C727 C 0.21388 0.86482 0.59388 0.0
H728 H 0.25743 0.2861 0.4027 0.0
H729 H 0.16774 0.36185 0.35991 0.0
H730 H 0.20548 0.24417 0.37811 0.0
H731 H 0.1188 0.32024 0.33427 0.0
H732 H 0.00161 0.23878 0.30641 0.0
H733 H 0.04755 0.2793 0.33443 0.0
H734 H 0.20292 0.22055 0.33606 0.0
H735 H 0.15506 0.17883 0.30992 0.0
C736 C 0.22643 0.29382 0.38816 0.0
C737 C 0.2171 0.32737 0.38319 0.0
C738 C 0.19723 0.26978 0.37376 0.0
C739 C 0.15818 0.27871 0.35397 0.0
C740 C 0.148 0.31229 0.34947 0.0
C741 C 0.17676 0.33625 0.36398 0.0
C742 C 0.04514 0.23421 0.31323 0.0
C743 C 0.07421 0.20528 0.30635 0.0
C744 C 0.07192 0.25772 0.32897 0.0
C745 C 0.12904 0.25326 0.33771 0.0
C746 C 0.15851 0.22457 0.33028 0.0
C747 C 0.13132 0.20081 0.31493 0.0
H748 H 0.25127 0.21314 0.90326 0.0
H749 H 0.33183 0.13808 0.85641 0.0
H750 H 0.30392 0.25526 0.87926 0.0
H751 H 0.38098 0.18013 0.83121 0.0
H752 H 0.50153 0.26042 0.80389 0.0
H753 H 0.45504 0.21918 0.83122 0.0
H754 H 0.30555 0.28199 0.83879 0.0
H755 H 0.35446 0.32424 0.81353 0.0
C756 C 0.2803 0.20558 0.8879 0.0
C757 C 0.28696 0.17214 0.88174 0.0
C758 C 0.30989 0.22981 0.87382 0.0
C759 C 0.34654 0.22126 0.85306 0.0
C760 C 0.35376 0.18778 0.84719 0.0
C761 C 0.32474 0.16359 0.86144 0.0
C762 C 0.45913 0.26559 0.81178 0.0
C763 C 0.43179 0.29564 0.80662 0.0
C764 C 0.43202 0.24173 0.82716 0.0
C765 C 0.37629 0.24707 0.83729 0.0
C766 C 0.34881 0.27711 0.83183 0.0
C767 C 0.37647 0.30119 0.81692 0.0
H768 H 0.76901 0.21669 0.62547 0.0
H769 H 0.66539 0.14273 0.66394 0.0
H770 H 0.72146 0.2594 0.65107 0.0
H771 H 0.61792 0.18518 0.68935 0.0
H772 H 0.59477 0.26242 0.75152 0.0
H773 H 0.64332 0.22201 0.72447 0.0
H774 H 0.62852 0.28687 0.65818 0.0
H775 H 0.58176 0.32796 0.68562 0.0
C776 C 0.73554 0.20962 0.63912 0.0
C777 C 0.7213 0.17634 0.64288 0.0
C778 C 0.70838 0.23405 0.6538 0.0
C779 C 0.66645 0.22563 0.67248 0.0
C780 C 0.65102 0.19243 0.67558 0.0
C781 C 0.6781 0.1681 0.66097 0.0
C782 C 0.60275 0.2683 0.73128 0.0
C783 C 0.58503 0.29847 0.72074 0.0
C784 C 0.62986 0.24495 0.71569 0.0
C785 C 0.63945 0.25113 0.68912 0.0
C786 C 0.62222 0.28148 0.67862 0.0
C787 C 0.59514 0.3049 0.69427 0.0
H788 H 0.83229 0.36101 0.16698 0.0
H789 H 0.73654 0.28556 0.12641 0.0
H790 H 0.88051 0.31907 0.19283 0.0
H791 H 0.78537 0.2435 0.15219 0.0
H792 H 0.9288 0.17744 0.1863 0.0
H793 H 0.88094 0.21872 0.1594 0.0
H794 H 0.85666 0.27974 0.22715 0.0
H795 H 0.90595 0.23894 0.25386 0.0
C796 C 0.82129 0.33547 0.16365 0.0
C797 C 0.78018 0.32671 0.14471 0.0
C798 C 0.84895 0.31142 0.17849 0.0
C799 C 0.83646 0.27795 0.17474 0.0
C800 C 0.79632 0.26907 0.15542 0.0
C801 C 0.76843 0.29318 0.1406 0.0
C802 C 0.91324 0.19969 0.19543 0.0
C803 C 0.92073 0.20482 0.22224 0.0
C804 C 0.88546 0.22323 0.18005 0.0
C805 C 0.86496 0.25253 0.19111 0.0
C806 C 0.87246 0.25759 0.21795 0.0
C807 C 0.90012 0.23404 0.23333 0.0
H808 H 0.8331 0.69155 0.61166 0.0
H809 H 0.7171 0.67696 0.67657 0.0
H810 H 0.88433 0.73406 0.63626 0.0
H811 H 0.76922 0.71862 0.70119 0.0
H812 H 0.9247 0.76042 0.74647 0.0
H813 H 0.87055 0.72128 0.72014 0.0
H814 H 0.8676 0.79091 0.65668 0.0
H815 H 0.92002 0.83074 0.68357 0.0
C816 C 0.8181 0.69763 0.63101 0.0
C817 C 0.77142 0.68053 0.64224 0.0
C818 C 0.84753 0.72188 0.64509 0.0
C819 C 0.8311 0.72929 0.67071 0.0
C820 C 0.78347 0.71293 0.68165 0.0
C821 C 0.75377 0.68901 0.66754 0.0
C822 C 0.91148 0.76763 0.72712 0.0
C823 C 0.92516 0.79892 0.71736 0.0
C824 C 0.88085 0.74515 0.71197 0.0
C825 C 0.86441 0.75321 0.68646 0.0
C826 C 0.87983 0.78409 0.67629 0.0
C827 C 0.90979 0.80681 0.69166 0.0
H828 H 0.7531 0.7879 0.12 0.0
H829 H 0.6557 0.86132 0.1616 0.0
H830 H 0.70277 0.74462 0.14408 0.0
H831 H 0.60746 0.81838 0.18643 0.0
H832 H 0.49561 0.73381 0.21292 0.0
H833 H 0.53894 0.77451 0.18409 0.0
H834 H 0.70133 0.72247 0.18746 0.0
H835 H 0.65704 0.68083 0.21505 0.0
C836 C 0.72053 0.79477 0.13408 0.0
C837 C 0.7086 0.82803 0.13899 0.0
C838 C 0.69223 0.77001 0.14813 0.0
C839 C 0.65132 0.77799 0.16736 0.0
C840 C 0.63824 0.81126 0.17164 0.0
C841 C 0.66638 0.83593 0.15759 0.0
C842 C 0.54046 0.73091 0.20737 0.0
C843 C 0.57319 0.70437 0.21673 0.0
C844 C 0.56544 0.7544 0.19097 0.0
C845 C 0.62379 0.75196 0.18357 0.0
C846 C 0.65615 0.72501 0.19253 0.0
C847 C 0.631 0.70139 0.20874 0.0
H848 H 0.34169 0.81461 0.41244 0.0
H849 H 0.2176 0.82655 0.35038 0.0
H850 H 0.39113 0.77234 0.38718 0.0
H851 H 0.26731 0.78468 0.32513 0.0
H852 H 0.41209 0.74029 0.27587 0.0
H853 H 0.36087 0.78 0.30261 0.0
H854 H 0.37841 0.71597 0.36921 0.0
H855 H 0.42969 0.67596 0.34228 0.0
C856 C 0.32456 0.80797 0.39356 0.0
C857 C 0.27595 0.82419 0.38336 0.0
C858 C 0.35293 0.78378 0.37909 0.0
C859 C 0.33343 0.77537 0.35407 0.0
C860 C 0.28408 0.79105 0.34414 0.0
C861 C 0.25564 0.81508 0.35861 0.0
C862 C 0.40465 0.73452 0.29618 0.0
C863 C 0.42424 0.70478 0.3069 0.0
C864 C 0.37519 0.75727 0.31149 0.0
C865 C 0.36514 0.75102 0.33799 0.0
C866 C 0.38573 0.72155 0.34888 0.0
C867 C 0.41493 0.69863 0.33347 0.0
H868 H 0.26675 0.71681 0.90035 0.0
H869 H 0.17758 0.64078 0.85742 0.0
H870 H 0.21846 0.75861 0.87401 0.0
H871 H 0.13058 0.68246 0.83087 0.0
H872 H 0.10928 0.76483 0.77048 0.0
H873 H 0.15946 0.72418 0.79727 0.0
H874 H 0.11856 0.77997 0.86617 0.0
H875 H 0.06899 0.82061 0.83955 0.0
C876 C 0.2365 0.70901 0.88551 0.0
C877 C 0.2264 0.67544 0.88088 0.0
C878 C 0.20909 0.73293 0.87035 0.0
C879 C 0.17131 0.72373 0.8502 0.0
C880 C 0.16041 0.69024 0.8459 0.0
C881 C 0.18736 0.6664 0.86115 0.0
C882 C 0.11128 0.76846 0.79132 0.0
C883 C 0.08501 0.79583 0.8029 0.0
C884 C 0.13968 0.74513 0.80666 0.0
C885 C 0.14275 0.74891 0.83381 0.0
C886 C 0.11728 0.77655 0.84529 0.0
C887 C 0.08851 0.79968 0.83002 0.0
loop_
_geom_bond_atom_site_label_1
_geom_bond_atom_site_label_2
_geom_bond_distance
_geom_bond_site_symmetry_2
_ccdc_geom_bond_type
H0 C3 0.931 . S
H1 C6 0.928 . S
H2 C8 0.930 . S
C3 H0 0.931 . S
C3 C4 1.413 . S
C3 C5 1.360 . S
C4 C3 1.413 . S
C4 C8 1.429 . S
C5 C3 1.360 . S
C5 C6 1.372 . S
C6 H1 0.928 . S
C6 C5 1.372 . S
C6 C7 1.404 . S
C7 C6 1.404 . S
C7 C8 1.391 . S
C8 H2 0.930 . S
C8 C4 1.429 . S
C8 C7 1.391 . S
H9 C12 0.931 . S
H10 C15 0.928 . S
H11 C17 0.930 . S
C12 H9 0.931 . S
C12 C13 1.413 . S
C12 C14 1.360 . S
C13 C12 1.413 . S
C13 C17 1.429 . S
C14 C12 1.360 . S
C14 C15 1.372 . S
C15 H10 0.928 . S
C15 C14 1.372 . S
C15 C16 1.404 . S
C16 C15 1.404 . S
C16 C17 1.391 . S
C17 H11 0.930 . S
C17 C13 1.429 . S
C17 C16 1.391 . S
H18 C21 0.931 . S
H19 C24 0.928 . S
H20 C26 0.930 . S
C21 H18 0.931 . S
C21 C22 1.413 . S
C21 C23 1.360 . S
C22 C21 1.413 . S
C22 C26 1.429 . S
C23 C21 1.360 . S
C23 C24 1.372 . S
C24 H19 0.928 . S
C24 C23 1.372 . S
C24 C25 1.404 . S
C25 C24 1.404 . S
C25 C26 1.391 . S
C26 H20 0.930 . S
C26 C22 1.429 . S
C26 C25 1.391 . S
H27 C30 0.931 . S
H28 C33 0.928 . S
H29 C35 0.930 . S
C30 H27 0.931 . S
C30 C31 1.413 . S
C30 C32 1.360 . S
C31 C30 1.413 . S
C31 C35 1.429 . S
C32 C30 1.360 . S
C32 C33 1.372 . S
C33 H28 0.928 . S
C33 C32 1.372 . S
C33 C34 1.404 . S
C34 C33 1.404 . S
C34 C35 1.391 . S
C35 H29 0.930 . S
C35 C31 1.429 . S
C35 C34 1.391 . S
H36 C39 0.931 . S
H37 C42 0.928 . S
H38 C44 0.930 . S
C39 H36 0.931 . S
C39 C40 1.413 . S
C39 C41 1.360 . S
C40 C39 1.413 . S
C40 C44 1.429 . S
C41 C39 1.360 . S
C41 C42 1.372 . S
C42 H37 0.928 . S
C42 C41 1.372 . S
C42 C43 1.404 . S
C43 C42 1.404 . S
C43 C44 1.391 . S
C44 H38 0.930 . S
C44 C40 1.429 . S
C44 C43 1.391 . S
H45 C48 0.931 . S
H46 C51 0.928 . S
H47 C53 0.930 . S
C48 H45 0.931 . S
C48 C49 1.413 . S
C48 C50 1.360 . S
C49 C48 1.413 . S
C49 C53 1.429 . S
C50 C48 1.360 . S
C50 C51 1.372 . S
C51 H46 0.928 . S
C51 C50 1.372 . S
C51 C52 1.404 . S
C52 C51 1.404 . S
C52 C53 1.391 . S
C53 H47 0.930 . S
C53 C49 1.429 . S
C53 C52 1.391 . S
H54 C57 0.931 . S
H55 C60 0.928 . S
H56 C62 0.930 . S
C57 H54 0.931 . S
C57 C58 1.413 . S
C57 C59 1.360 . S
C58 C57 1.413 . S
C58 C62 1.429 . S
C59 C57 1.360 . S
C59 C60 1.372 . S
C60 H55 0.928 . S
C60 C59 1.372 . S
C60 C61 1.404 . S
C61 C60 1.404 . S
C61 C62 1.391 . S
C62 H56 0.930 . S
C62 C58 1.429 . S
C62 C61 1.391 . S
H63 C66 0.931 . S
H64 C69 0.928 . S
H65 C71 0.930 . S
C66 H63 0.931 . S
C66 C67 1.413 . S
C66 C68 1.360 . S
C67 C66 1.413 . S
C67 C71 1.429 . S
C68 C66 1.360 . S
C68 C69 1.372 . S
C69 H64 0.928 . S
C69 C68 1.372 . S
C69 C70 1.404 . S
C70 C69 1.404 . S
C70 C71 1.391 . S
C71 H65 0.930 . S
C71 C67 1.429 . S
C71 C70 1.391 . S
Tb72 N101 2.617 . S
Tb72 N107 2.572 . S
Tb72 O116 2.465 . S
Tb72 O117 2.387 . S
Tb72 O119 2.428 . S
Tb72 O120 2.306 . S
Tb72 O124 2.349 . S
Tb72 O127 2.393 . S
Tb72 C136 2.802 . S
C73 N74 1.379 . S
C73 C76 1.416 . S
C73 C80 1.424 . S
N74 C73 1.379 . S
N74 C77 1.334 . S
N74 Tb83 2.617 . S
C75 C77 1.390 . S
C75 C78 1.339 . S
C75 H95 0.930 . S
C76 C73 1.416 . S
C76 C78 1.416 . S
C76 C82 1.448 . S
C77 N74 1.334 . S
C77 C75 1.390 . S
C77 H88 0.930 . S
C78 C75 1.339 . S
C78 C76 1.416 . S
C78 H99 0.930 . S
C79 C80 1.413 . S
C79 C81 1.427 . S
C79 C85 1.416 . S
C80 C73 1.424 . S
C80 C79 1.413 . S
C80 N84 1.361 . S
C81 C79 1.427 . S
C81 C82 1.328 . S
C81 H96 0.929 . S
C82 C76 1.448 . S
C82 C81 1.328 . S
C82 H97 0.930 . S
Tb83 N74 2.617 . S
Tb83 N84 2.572 . S
Tb83 O118 2.349 1_655 S
Tb83 O121 2.393 . S
Tb83 O122 2.465 . S
Tb83 O123 2.387 . S
Tb83 O125 2.428 . S
Tb83 O126 2.308 1_655 S
Tb83 C147 2.802 . S
N84 C80 1.361 . S
N84 Tb83 2.572 . S
N84 C86 1.340 . S
C85 C79 1.416 . S
C85 C87 1.332 . S
C85 H93 0.931 . S
C86 N84 1.340 . S
C86 C87 1.407 . S
C86 H92 0.930 . S
C87 C85 1.332 . S
C87 C86 1.407 . S
C87 H89 0.929 . S
H88 C77 0.930 . S
H89 C87 0.929 . S
H90 C105 0.930 . S
H91 C112 0.929 . S
H92 C86 0.930 . S
H93 C85 0.931 . S
H94 C108 0.930 . S
H95 C75 0.930 . S
H96 C81 0.929 . S
H97 C82 0.930 . S
H98 C103 0.930 . S
H99 C78 0.930 . S
H100 C111 0.931 . S
N101 Tb72 2.617 . S
N101 C102 1.379 . S
N101 C105 1.334 . S
C102 N101 1.379 . S
C102 C104 1.416 . S
C102 C110 1.424 . S
C103 H98 0.930 . S
C103 C105 1.390 . S
C103 C106 1.339 . S
C104 C102 1.416 . S
C104 C106 1.416 . S
C104 C137 1.448 . S
C105 H90 0.930 . S
C105 N101 1.334 . S
C105 C103 1.390 . S
C106 C103 1.339 . S
C106 C104 1.416 . S
C106 H113 0.930 . S
N107 Tb72 2.572 . S
N107 C108 1.340 . S
N107 C110 1.361 . S
C108 H94 0.930 . S
C108 N107 1.340 . S
C108 C112 1.407 . S
C109 C110 1.413 . S
C109 C111 1.416 . S
C109 C138 1.427 . S
C110 C102 1.424 . S
C110 N107 1.361 . S
C110 C109 1.413 . S
C111 H100 0.931 . S
C111 C109 1.416 . S
C111 C112 1.332 . S
C112 H91 0.929 . S
C112 C108 1.407 . S
C112 C111 1.332 . S
H113 C106 0.930 . S
H114 C137 0.930 . S
H115 C138 0.929 . S
O116 Tb72 2.465 . S
O116 C136 1.264 . S
O117 Tb72 2.387 . S
O117 C128 1.264 . S
O118 Tb83 2.349 1_455 S
O118 C128 1.243 . S
O119 Tb72 2.428 . S
O119 C136 1.256 . S
O120 Tb72 2.306 . S
O120 C135 1.268 1_455 S
O121 Tb83 2.393 . S
O121 C135 1.248 . S
O122 Tb83 2.465 . S
O122 C147 1.264 . S
O123 Tb83 2.387 . S
O123 C139 1.264 . S
O124 Tb72 2.349 . S
O124 C139 1.243 1_455 S
O125 Tb83 2.428 . S
O125 C147 1.256 . S
O126 Tb83 2.308 1_455 S
O126 C146 1.266 . S
O127 Tb72 2.393 . S
O127 C146 1.248 . S
C128 O117 1.264 . S
C128 O118 1.243 . S
C129 C132 1.399 . S
C129 C134 1.383 . S
C129 C136 1.496 . S
C130 C131 1.399 . S
C130 C134 1.389 . S
C131 C130 1.399 . S
C131 C133 1.380 . S
C131 H148 0.929 . S
C132 C129 1.399 . S
C132 C133 1.392 . S
C132 H149 0.929 . S
C133 C131 1.380 . S
C133 C132 1.392 . S
C133 H150 0.929 . S
C134 C129 1.383 . S
C134 C130 1.389 . S
C134 H151 0.931 . S
C135 O120 1.268 1_655 S
C135 O121 1.248 . S
C136 Tb72 2.802 . S
C136 O116 1.264 . S
C136 O119 1.256 . S
C136 C129 1.496 . S
C137 C104 1.448 . S
C137 H114 0.930 . S
C137 C138 1.328 . S
C138 C109 1.427 . S
C138 H115 0.929 . S
C138 C137 1.328 . S
C139 O123 1.264 . S
C139 O124 1.243 1_655 S
C140 C143 1.399 . S
C140 C144 1.383 . S
C140 C147 1.496 . S
C141 C142 1.399 . S
C141 C144 1.389 . S
C142 C141 1.399 . S
C142 C145 1.380 . S
C142 H152 0.929 . S
C143 C140 1.399 . S
C143 C145 1.392 . S
C143 H153 0.929 . S
C144 C140 1.383 . S
C144 C141 1.389 . S
C144 H154 0.931 . S
C145 C142 1.380 . S
C145 C143 1.392 . S
C145 H155 0.929 . S
C146 O126 1.266 . S
C146 O127 1.248 . S
C147 Tb83 2.802 . S
C147 O122 1.264 . S
C147 O125 1.256 . S
C147 C140 1.496 . S
H148 C131 0.929 . S
H149 C132 0.929 . S
H150 C133 0.929 . S
H151 C134 0.931 . S
H152 C142 0.929 . S
H153 C143 0.929 . S
H154 C144 0.931 . S
H155 C145 0.929 . S
Tb156 N185 2.617 . S
Tb156 N191 2.572 . S
Tb156 O200 2.465 . S
Tb156 O201 2.387 . S
Tb156 O203 2.428 . S
Tb156 O204 2.308 . S
Tb156 O208 2.349 . S
Tb156 O211 2.393 . S
Tb156 C220 2.802 . S
C157 N158 1.379 . S
C157 C160 1.416 . S
C157 C164 1.424 . S
N158 C157 1.379 . S
N158 C161 1.334 . S
N158 Tb167 2.617 . S
C159 C161 1.390 . S
C159 C162 1.339 . S
C159 H179 0.930 . S
C160 C157 1.416 . S
C160 C162 1.416 . S
C160 C166 1.448 . S
C161 N158 1.334 . S
C161 C159 1.390 . S
C161 H172 0.930 . S
C162 C159 1.339 . S
C162 C160 1.416 . S
C162 H183 0.930 . S
C163 C164 1.413 . S
C163 C165 1.427 . S
C163 C169 1.416 . S
C164 C157 1.424 . S
C164 C163 1.413 . S
C164 N168 1.361 . S
C165 C163 1.427 . S
C165 C166 1.328 . S
C165 H180 0.929 . S
C166 C160 1.448 . S
C166 C165 1.328 . S
C166 H181 0.930 . S
Tb167 N158 2.617 . S
Tb167 N168 2.572 . S
Tb167 O202 2.349 . S
Tb167 O205 2.393 . S
Tb167 O206 2.465 . S
Tb167 O207 2.387 . S
Tb167 O209 2.428 . S
Tb167 O210 2.308 . S
Tb167 C231 2.802 . S
N168 C164 1.361 . S
N168 Tb167 2.572 . S
N168 C170 1.340 . S
C169 C163 1.416 . S
C169 C171 1.332 . S
C169 H177 0.931 . S
C170 N168 1.340 . S
C170 C171 1.407 . S
C170 H176 0.930 . S
C171 C169 1.332 . S
C171 C170 1.407 . S
C171 H173 0.929 . S
H172 C161 0.930 . S
H173 C171 0.929 . S
H174 C189 0.930 . S
H175 C196 0.929 . S
H176 C170 0.930 . S
H177 C169 0.931 . S
H178 C192 0.930 . S
H179 C159 0.930 . S
H180 C165 0.929 . S
H181 C166 0.930 . S
H182 C187 0.930 . S
H183 C162 0.930 . S
H184 C195 0.931 . S
N185 Tb156 2.617 . S
N185 C186 1.379 . S
N185 C189 1.334 . S
C186 N185 1.379 . S
C186 C188 1.416 . S
C186 C194 1.424 . S
C187 H182 0.930 . S
C187 C189 1.390 . S
C187 C190 1.339 . S
C188 C186 1.416 . S
C188 C190 1.416 . S
C188 C221 1.448 . S
C189 H174 0.930 . S
C189 N185 1.334 . S
C189 C187 1.390 . S
C190 C187 1.339 . S
C190 C188 1.416 . S
C190 H197 0.930 . S
N191 Tb156 2.572 . S
N191 C192 1.340 . S
N191 C194 1.361 . S
C192 H178 0.930 . S
C192 N191 1.340 . S
C192 C196 1.407 . S
C193 C194 1.413 . S
C193 C195 1.416 . S
C193 C222 1.427 . S
C194 C186 1.424 . S
C194 N191 1.361 . S
C194 C193 1.413 . S
C195 H184 0.931 . S
C195 C193 1.416 . S
C195 C196 1.332 . S
C196 H175 0.929 . S
C196 C192 1.407 . S
C196 C195 1.332 . S
H197 C190 0.930 . S
H198 C221 0.930 . S
H199 C222 0.929 . S
O200 Tb156 2.465 . S
O200 C220 1.264 . S
O201 Tb156 2.387 . S
O201 C212 1.264 . S
O202 Tb167 2.349 . S
O202 C212 1.243 . S
O203 Tb156 2.428 . S
O203 C220 1.256 . S
O204 Tb156 2.308 . S
O204 C219 1.266 . S
O205 Tb167 2.393 . S
O205 C219 1.248 . S
O206 Tb167 2.465 . S
O206 C231 1.264 . S
O207 Tb167 2.387 . S
O207 C223 1.264 . S
O208 Tb156 2.349 . S
O208 C223 1.243 . S
O209 Tb167 2.428 . S
O209 C231 1.256 . S
O210 Tb167 2.308 . S
O210 C230 1.266 . S
O211 Tb156 2.393 . S
O211 C230 1.248 . S
C212 O201 1.264 . S
C212 O202 1.243 . S
C213 C216 1.399 . S
C213 C218 1.383 . S
C213 C220 1.496 . S
C214 C215 1.399 . S
C214 C218 1.389 . S
C215 C214 1.399 . S
C215 C217 1.380 . S
C215 H232 0.929 . S
C216 C213 1.399 . S
C216 C217 1.392 . S
C216 H233 0.929 . S
C217 C215 1.380 . S
C217 C216 1.392 . S
C217 H234 0.929 . S
C218 C213 1.383 . S
C218 C214 1.389 . S
C218 H235 0.931 . S
C219 O204 1.266 . S
C219 O205 1.248 . S
C220 Tb156 2.802 . S
C220 O200 1.264 . S
C220 O203 1.256 . S
C220 C213 1.496 . S
C221 C188 1.448 . S
C221 H198 0.930 . S
C221 C222 1.328 . S
C222 C193 1.427 . S
C222 H199 0.929 . S
C222 C221 1.328 . S
C223 O207 1.264 . S
C223 O208 1.243 . S
C224 C227 1.399 . S
C224 C228 1.383 . S
C224 C231 1.496 . S
C225 C226 1.399 . S
C225 C228 1.389 . S
C226 C225 1.399 . S
C226 C229 1.380 . S
C226 H236 0.929 . S
C227 C224 1.399 . S
C227 C229 1.392 . S
C227 H237 0.929 . S
C228 C224 1.383 . S
C228 C225 1.389 . S
C228 H238 0.931 . S
C229 C226 1.380 . S
C229 C227 1.392 . S
C229 H239 0.929 . S
C230 O210 1.266 . S
C230 O211 1.248 . S
C231 Tb167 2.802 . S
C231 O206 1.264 . S
C231 O209 1.256 . S
C231 C224 1.496 . S
H232 C215 0.929 . S
H233 C216 0.929 . S
H234 C217 0.929 . S
H235 C218 0.931 . S
H236 C226 0.929 . S
H237 C227 0.929 . S
H238 C228 0.931 . S
H239 C229 0.929 . S
Tb240 N269 2.617 . S
Tb240 N275 2.572 . S
Tb240 O284 2.465 . S
Tb240 O285 2.387 . S
Tb240 O287 2.428 . S
Tb240 O288 2.308 . S
Tb240 O292 2.349 . S
Tb240 O295 2.393 . S
Tb240 C304 2.802 . S
C241 N242 1.379 . S
C241 C244 1.416 . S
C241 C248 1.424 . S
N242 C241 1.379 . S
N242 C245 1.334 . S
N242 Tb251 2.617 . S
C243 C245 1.390 . S
C243 C246 1.339 . S
C243 H263 0.930 . S
C244 C241 1.416 . S
C244 C246 1.416 . S
C244 C250 1.448 . S
C245 N242 1.334 . S
C245 C243 1.390 . S
C245 H256 0.930 . S
C246 C243 1.339 . S
C246 C244 1.416 . S
C246 H267 0.930 . S
C247 C248 1.413 . S
C247 C249 1.427 . S
C247 C253 1.416 . S
C248 C241 1.424 . S
C248 C247 1.413 . S
C248 N252 1.361 . S
C249 C247 1.427 . S
C249 C250 1.328 . S
C249 H264 0.929 . S
C250 C244 1.448 . S
C250 C249 1.328 . S
C250 H265 0.930 . S
Tb251 N242 2.617 . S
Tb251 N252 2.572 . S
Tb251 O286 2.349 1_655 S
Tb251 O289 2.393 . S
Tb251 O290 2.465 . S
Tb251 O291 2.387 . S
Tb251 O293 2.428 . S
Tb251 O294 2.308 1_655 S
Tb251 C315 2.802 . S
N252 C248 1.361 . S
N252 Tb251 2.572 . S
N252 C254 1.340 . S
C253 C247 1.416 . S
C253 C255 1.332 . S
C253 H261 0.931 . S
C254 N252 1.340 . S
C254 C255 1.407 . S
C254 H260 0.930 . S
C255 C253 1.332 . S
C255 C254 1.407 . S
C255 H257 0.929 . S
H256 C245 0.930 . S
H257 C255 0.929 . S
H258 C273 0.930 . S
H259 C280 0.929 . S
H260 C254 0.930 . S
H261 C253 0.931 . S
H262 C276 0.930 . S
H263 C243 0.930 . S
H264 C249 0.929 . S
H265 C250 0.930 . S
H266 C271 0.930 . S
H267 C246 0.930 . S
H268 C279 0.931 . S
N269 Tb240 2.617 . S
N269 C270 1.379 . S
N269 C273 1.334 . S
C270 N269 1.379 . S
C270 C272 1.416 . S
C270 C278 1.424 . S
C271 H266 0.930 . S
C271 C273 1.390 . S
C271 C274 1.339 . S
C272 C270 1.416 . S
C272 C274 1.416 . S
C272 C305 1.448 . S
C273 H258 0.930 . S
C273 N269 1.334 . S
C273 C271 1.390 . S
C274 C271 1.339 . S
C274 C272 1.416 . S
C274 H281 0.930 . S
N275 Tb240 2.572 . S
N275 C276 1.340 . S
N275 C278 1.361 . S
C276 H262 0.930 . S
C276 N275 1.340 . S
C276 C280 1.407 . S
C277 C278 1.413 . S
C277 C279 1.416 . S
C277 C306 1.427 . S
C278 C270 1.424 . S
C278 N275 1.361 . S
C278 C277 1.413 . S
C279 H268 0.931 . S
C279 C277 1.416 . S
C279 C280 1.332 . S
C280 H259 0.929 . S
C280 C276 1.407 . S
C280 C279 1.332 . S
H281 C274 0.930 . S
H282 C305 0.930 . S
H283 C306 0.929 . S
O284 Tb240 2.465 . S
O284 C304 1.264 . S
O285 Tb240 2.387 . S
O285 C296 1.264 . S
O286 Tb251 2.349 1_455 S
O286 C296 1.243 . S
O287 Tb240 2.428 . S
O287 C304 1.256 . S
O288 Tb240 2.308 . S
O288 C303 1.266 1_455 S
O289 Tb251 2.393 . S
O289 C303 1.248 . S
O290 Tb251 2.465 . S
O290 C315 1.264 . S
O291 Tb251 2.387 . S
O291 C307 1.264 . S
O292 Tb240 2.349 . S
O292 C307 1.243 1_455 S
O293 Tb251 2.428 . S
O293 C315 1.256 . S
O294 Tb251 2.308 1_455 S
O294 C314 1.266 . S
O295 Tb240 2.393 . S
O295 C314 1.248 . S
C296 O285 1.264 . S
C296 O286 1.243 . S
C297 C300 1.399 . S
C297 C302 1.383 . S
C297 C304 1.496 . S
C298 C299 1.399 . S
C298 C302 1.389 . S
C299 C298 1.399 . S
C299 C301 1.380 . S
C299 H316 0.929 . S
C300 C297 1.399 . S
C300 C301 1.392 . S
C300 H317 0.929 . S
C301 C299 1.380 . S
C301 C300 1.392 . S
C301 H318 0.929 . S
C302 C297 1.383 . S
C302 C298 1.389 . S
C302 H319 0.931 . S
C303 O288 1.266 1_655 S
C303 O289 1.248 . S
C304 Tb240 2.802 . S
C304 O284 1.264 . S
C304 O287 1.256 . S
C304 C297 1.496 . S
C305 C272 1.448 . S
C305 H282 0.930 . S
C305 C306 1.328 . S
C306 C277 1.427 . S
C306 H283 0.929 . S
C306 C305 1.328 . S
C307 O291 1.264 . S
C307 O292 1.243 1_655 S
C308 C311 1.399 . S
C308 C312 1.383 . S
C308 C315 1.496 . S
C309 C310 1.399 . S
C309 C312 1.389 . S
C310 C309 1.399 . S
C310 C313 1.380 . S
C310 H320 0.929 . S
C311 C308 1.399 . S
C311 C313 1.392 . S
C311 H321 0.929 . S
C312 C308 1.383 . S
C312 C309 1.389 . S
C312 H322 0.931 . S
C313 C310 1.380 . S
C313 C311 1.392 . S
C313 H323 0.929 . S
C314 O294 1.266 . S
C314 O295 1.248 . S
C315 Tb251 2.802 . S
C315 O290 1.264 . S
C315 O293 1.256 . S
C315 C308 1.496 . S
H316 C299 0.929 . S
H317 C300 0.929 . S
H318 C301 0.929 . S
H319 C302 0.931 . S
H320 C310 0.929 . S
H321 C311 0.929 . S
H322 C312 0.931 . S
H323 C313 0.929 . S
Tb324 N353 2.617 . S
Tb324 N359 2.572 . S
Tb324 O368 2.465 . S
Tb324 O369 2.387 . S
Tb324 O371 2.428 . S
Tb324 O372 2.308 . S
Tb324 O376 2.349 . S
Tb324 O379 2.393 . S
Tb324 C388 2.802 . S
C325 N326 1.379 . S
C325 C328 1.416 . S
C325 C332 1.424 . S
N326 C325 1.379 . S
N326 C329 1.334 . S
N326 Tb335 2.617 . S
C327 C329 1.390 . S
C327 C330 1.339 . S
C327 H347 0.930 . S
C328 C325 1.416 . S
C328 C330 1.416 . S
C328 C334 1.448 . S
C329 N326 1.334 . S
C329 C327 1.390 . S
C329 H340 0.930 . S
C330 C327 1.339 . S
C330 C328 1.416 . S
C330 H351 0.930 . S
C331 C332 1.413 . S
C331 C333 1.427 . S
C331 C337 1.416 . S
C332 C325 1.424 . S
C332 C331 1.413 . S
C332 N336 1.361 . S
C333 C331 1.427 . S
C333 C334 1.328 . S
C333 H348 0.929 . S
C334 C328 1.448 . S
C334 C333 1.328 . S
C334 H349 0.930 . S
Tb335 N326 2.617 . S
Tb335 N336 2.572 . S
Tb335 O370 2.349 . S
Tb335 O373 2.393 . S
Tb335 O374 2.465 . S
Tb335 O375 2.387 . S
Tb335 O377 2.428 . S
Tb335 O378 2.308 . S
Tb335 C399 2.802 . S
N336 C332 1.361 . S
N336 Tb335 2.572 . S
N336 C338 1.340 . S
C337 C331 1.416 . S
C337 C339 1.332 . S
C337 H345 0.931 . S
C338 N336 1.340 . S
C338 C339 1.407 . S
C338 H344 0.930 . S
C339 C337 1.332 . S
C339 C338 1.407 . S
C339 H341 0.929 . S
H340 C329 0.930 . S
H341 C339 0.929 . S
H342 C357 0.930 . S
H343 C364 0.929 . S
H344 C338 0.930 . S
H345 C337 0.931 . S
H346 C360 0.930 . S
H347 C327 0.930 . S
H348 C333 0.929 . S
H349 C334 0.930 . S
H350 C355 0.930 . S
H351 C330 0.930 . S
H352 C363 0.931 . S
N353 Tb324 2.617 . S
N353 C354 1.379 . S
N353 C357 1.334 . S
C354 N353 1.379 . S
C354 C356 1.416 . S
C354 C362 1.424 . S
C355 H350 0.930 . S
C355 C357 1.390 . S
C355 C358 1.339 . S
C356 C354 1.416 . S
C356 C358 1.416 . S
C356 C389 1.448 . S
C357 H342 0.930 . S
C357 N353 1.334 . S
C357 C355 1.390 . S
C358 C355 1.339 . S
C358 C356 1.416 . S
C358 H365 0.930 . S
N359 Tb324 2.572 . S
N359 C360 1.340 . S
N359 C362 1.361 . S
C360 H346 0.930 . S
C360 N359 1.340 . S
C360 C364 1.407 . S
C361 C362 1.413 . S
C361 C363 1.416 . S
C361 C390 1.427 . S
C362 C354 1.424 . S
C362 N359 1.361 . S
C362 C361 1.413 . S
C363 H352 0.931 . S
C363 C361 1.416 . S
C363 C364 1.332 . S
C364 H343 0.929 . S
C364 C360 1.407 . S
C364 C363 1.332 . S
H365 C358 0.930 . S
H366 C389 0.930 . S
H367 C390 0.929 . S
O368 Tb324 2.465 . S
O368 C388 1.264 . S
O369 Tb324 2.387 . S
O369 C380 1.264 . S
O370 Tb335 2.349 . S
O370 C380 1.243 . S
O371 Tb324 2.428 . S
O371 C388 1.256 . S
O372 Tb324 2.308 . S
O372 C387 1.266 . S
O373 Tb335 2.393 . S
O373 C387 1.248 . S
O374 Tb335 2.465 . S
O374 C399 1.264 . S
O375 Tb335 2.387 . S
O375 C391 1.264 . S
O376 Tb324 2.349 . S
O376 C391 1.243 . S
O377 Tb335 2.428 . S
O377 C399 1.256 . S
O378 Tb335 2.308 . S
O378 C398 1.266 . S
O379 Tb324 2.393 . S
O379 C398 1.248 . S
C380 O369 1.264 . S
C380 O370 1.243 . S
C381 C384 1.399 . S
C381 C386 1.383 . S
C381 C388 1.496 . S
C382 C383 1.399 . S
C382 C386 1.389 . S
C383 C382 1.399 . S
C383 C385 1.380 . S
C383 H400 0.929 . S
C384 C381 1.399 . S
C384 C385 1.392 . S
C384 H401 0.929 . S
C385 C383 1.380 . S
C385 C384 1.392 . S
C385 H402 0.929 . S
C386 C381 1.383 . S
C386 C382 1.389 . S
C386 H403 0.931 . S
C387 O372 1.266 . S
C387 O373 1.248 . S
C388 Tb324 2.802 . S
C388 O368 1.264 . S
C388 O371 1.256 . S
C388 C381 1.496 . S
C389 C356 1.448 . S
C389 H366 0.930 . S
C389 C390 1.328 . S
C390 C361 1.427 . S
C390 H367 0.929 . S
C390 C389 1.328 . S
C391 O375 1.264 . S
C391 O376 1.243 . S
C392 C395 1.399 . S
C392 C396 1.383 . S
C392 C399 1.496 . S
C393 C394 1.399 . S
C393 C396 1.389 . S
C394 C393 1.399 . S
C394 C397 1.380 . S
C394 H404 0.929 . S
C395 C392 1.399 . S
C395 C397 1.392 . S
C395 H405 0.929 . S
C396 C392 1.383 . S
C396 C393 1.389 . S
C396 H406 0.931 . S
C397 C394 1.380 . S
C397 C395 1.392 . S
C397 H407 0.929 . S
C398 O378 1.266 . S
C398 O379 1.248 . S
C399 Tb335 2.802 . S
C399 O374 1.264 . S
C399 O377 1.256 . S
C399 C392 1.496 . S
H400 C383 0.929 . S
H401 C384 0.929 . S
H402 C385 0.929 . S
H403 C386 0.931 . S
H404 C394 0.929 . S
H405 C395 0.929 . S
H406 C396 0.931 . S
H407 C397 0.929 . S
H408 C416 0.950 . S
H409 C421 0.950 . S
H410 C418 0.950 1_545 S
H411 C420 0.950 . S
H412 C422 0.950 . S
H413 C424 0.950 . S
H414 C426 0.950 . S
H415 C427 0.950 . S
C416 H408 0.950 . S
C416 C417 1.386 . S
C416 C418 1.391 . S
C417 C416 1.386 . S
C417 C421 1.393 . S
C418 H410 0.950 1_565 S
C418 C416 1.391 . S
C418 C419 1.400 . S
C419 C418 1.400 . S
C419 C420 1.398 . S
C419 C425 1.491 1_565 S
C420 H411 0.950 . S
C420 C419 1.398 . S
C420 C421 1.391 . S
C421 H409 0.950 . S
C421 C417 1.393 . S
C421 C420 1.391 . S
C422 H412 0.950 . S
C422 C423 1.386 . S
C422 C424 1.391 . S
C423 C422 1.386 . S
C423 C427 1.393 . S
C424 H413 0.950 . S
C424 C422 1.391 . S
C424 C425 1.400 . S
C425 C419 1.491 1_545 S
C425 C424 1.400 . S
C425 C426 1.398 . S
C426 H414 0.950 . S
C426 C425 1.398 . S
C426 C427 1.391 . S
C427 H415 0.950 . S
C427 C423 1.393 . S
C427 C426 1.391 . S
H428 C436 0.950 . S
H429 C441 0.950 . S
H430 C438 0.950 . S
H431 C440 0.950 . S
H432 C442 0.950 . S
H433 C444 0.950 . S
H434 C446 0.950 . S
H435 C447 0.950 . S
C436 H428 0.950 . S
C436 C437 1.386 . S
C436 C438 1.391 . S
C437 C436 1.386 . S
C437 C441 1.393 . S
C438 H430 0.950 . S
C438 C436 1.391 . S
C438 C439 1.400 . S
C439 C438 1.400 . S
C439 C440 1.398 . S
C439 C445 1.491 . S
C440 H431 0.950 . S
C440 C439 1.398 . S
C440 C441 1.391 . S
C441 H429 0.950 . S
C441 C437 1.393 . S
C441 C440 1.391 . S
C442 H432 0.950 . S
C442 C443 1.386 . S
C442 C444 1.391 . S
C443 C442 1.386 . S
C443 C447 1.393 . S
C444 H433 0.950 . S
C444 C442 1.391 . S
C444 C445 1.400 . S
C445 C439 1.491 . S
C445 C444 1.400 . S
C445 C446 1.398 . S
C446 H434 0.950 . S
C446 C445 1.398 . S
C446 C447 1.391 . S
C447 H435 0.950 . S
C447 C443 1.393 . S
C447 C446 1.391 . S
H448 C456 0.950 . S
H449 C461 0.950 . S
H450 C458 0.950 . S
H451 C460 0.950 . S
H452 C462 0.950 . S
H453 C464 0.950 . S
H454 C466 0.950 . S
H455 C467 0.950 . S
C456 H448 0.950 . S
C456 C457 1.386 . S
C456 C458 1.391 . S
C457 C456 1.386 . S
C457 C461 1.393 . S
C458 H450 0.950 . S
C458 C456 1.391 . S
C458 C459 1.400 . S
C459 C458 1.400 . S
C459 C460 1.398 . S
C459 C465 1.491 . S
C460 H451 0.950 . S
C460 C459 1.398 . S
C460 C461 1.391 . S
C461 H449 0.950 . S
C461 C457 1.393 . S
C461 C460 1.391 . S
C462 H452 0.950 . S
C462 C463 1.386 . S
C462 C464 1.391 . S
C463 C462 1.386 . S
C463 C467 1.393 . S
C464 H453 0.950 . S
C464 C462 1.391 . S
C464 C465 1.400 . S
C465 C459 1.491 . S
C465 C464 1.400 . S
C465 C466 1.398 . S
C466 H454 0.950 . S
C466 C465 1.398 . S
C466 C467 1.391 . S
C467 H455 0.950 . S
C467 C463 1.393 . S
C467 C466 1.391 . S
H468 C476 0.950 . S
H469 C481 0.950 . S
H470 C478 0.950 . S
H471 C480 0.950 1_545 S
H472 C482 0.950 . S
H473 C484 0.950 . S
H474 C486 0.950 1_565 S
H475 C487 0.950 . S
C476 H468 0.950 . S
C476 C477 1.386 . S
C476 C478 1.391 . S
C477 C476 1.386 . S
C477 C481 1.393 . S
C478 H470 0.950 . S
C478 C476 1.391 . S
C478 C479 1.400 . S
C479 C478 1.400 . S
C479 C480 1.398 . S
C479 C485 1.491 1_565 S
C480 H471 0.950 1_565 S
C480 C479 1.398 . S
C480 C481 1.391 . S
C481 H469 0.950 . S
C481 C477 1.393 . S
C481 C480 1.391 . S
C482 H472 0.950 . S
C482 C483 1.386 . S
C482 C484 1.391 . S
C483 C482 1.386 . S
C483 C487 1.393 . S
C484 H473 0.950 . S
C484 C482 1.391 . S
C484 C485 1.400 . S
C485 C479 1.491 1_545 S
C485 C484 1.400 . S
C485 C486 1.398 . S
C486 H474 0.950 1_545 S
C486 C485 1.398 . S
C486 C487 1.391 . S
C487 H475 0.950 . S
C487 C483 1.393 . S
C487 C486 1.391 . S
H488 C496 0.950 . S
H489 C501 0.950 . S
H490 C498 0.950 . S
H491 C500 0.950 1_565 S
H492 C502 0.950 . S
H493 C504 0.950 . S
H494 C506 0.950 1_545 S
H495 C507 0.967 . S
C496 H488 0.950 . S
C496 C497 1.386 . S
C496 C498 1.391 . S
C497 C496 1.386 . S
C497 C501 1.393 . S
C498 H490 0.950 . S
C498 C496 1.391 . S
C498 C499 1.400 . S
C499 C498 1.400 . S
C499 C500 1.398 . S
C499 C505 1.491 1_545 S
C500 H491 0.950 1_545 S
C500 C499 1.398 . S
C500 C501 1.391 . S
C501 H489 0.950 . S
C501 C497 1.393 . S
C501 C500 1.391 . S
C502 H492 0.950 . S
C502 C503 1.386 . S
C502 C504 1.391 . S
C503 C502 1.386 . S
C503 C507 1.393 . S
C504 H493 0.950 . S
C504 C502 1.391 . S
C504 C505 1.400 . S
C505 C499 1.491 1_565 S
C505 C504 1.400 . S
C505 C506 1.398 . S
C506 H494 0.950 1_565 S
C506 C505 1.398 . S
C506 C507 1.391 . S
C507 H495 0.967 . S
C507 C503 1.393 . S
C507 C506 1.391 . S
H508 C516 0.950 . S
H509 C521 0.950 . S
H510 C518 0.950 . S
H511 C520 0.950 . S
H512 C522 0.950 . S
H513 C524 0.950 . S
H514 C526 0.950 . S
H515 C527 0.950 . S
C516 H508 0.950 . S
C516 C517 1.386 . S
C516 C518 1.391 . S
C517 C516 1.386 . S
C517 C521 1.393 . S
C518 H510 0.950 . S
C518 C516 1.391 . S
C518 C519 1.400 . S
C519 C518 1.400 . S
C519 C520 1.398 . S
C519 C525 1.491 . S
C520 H511 0.950 . S
C520 C519 1.398 . S
C520 C521 1.391 . S
C521 H509 0.950 . S
C521 C517 1.393 . S
C521 C520 1.391 . S
C522 H512 0.950 . S
C522 C523 1.386 . S
C522 C524 1.391 . S
C523 C522 1.386 . S
C523 C527 1.393 . S
C524 H513 0.950 . S
C524 C522 1.391 . S
C524 C525 1.400 . S
C525 C519 1.491 . S
C525 C524 1.400 . S
C525 C526 1.398 . S
C526 H514 0.950 . S
C526 C525 1.398 . S
C526 C527 1.391 . S
C527 H515 0.950 . S
C527 C523 1.393 . S
C527 C526 1.391 . S
H528 C536 0.950 . S
H529 C541 0.950 . S
H530 C538 0.950 . S
H531 C540 0.950 . S
H532 C542 0.950 . S
H533 C544 0.950 . S
H534 C546 0.950 . S
H535 C547 0.950 . S
C536 H528 0.950 . S
C536 C537 1.386 . S
C536 C538 1.391 . S
C537 C536 1.386 . S
C537 C541 1.393 . S
C538 H530 0.950 . S
C538 C536 1.391 . S
C538 C539 1.400 . S
C539 C538 1.400 . S
C539 C540 1.398 . S
C539 C545 1.491 . S
C540 H531 0.950 . S
C540 C539 1.398 . S
C540 C541 1.391 . S
C541 H529 0.950 . S
C541 C537 1.393 . S
C541 C540 1.391 . S
C542 H532 0.950 . S
C542 C543 1.386 . S
C542 C544 1.391 . S
C543 C542 1.386 . S
C543 C547 1.393 . S
C544 H533 0.950 . S
C544 C542 1.391 . S
C544 C545 1.400 . S
C545 C539 1.491 . S
C545 C544 1.400 . S
C545 C546 1.398 . S
C546 H534 0.950 . S
C546 C545 1.398 . S
C546 C547 1.391 . S
C547 H535 0.950 . S
C547 C543 1.393 . S
C547 C546 1.391 . S
H548 C556 0.950 . S
H549 C561 0.950 . S
H550 C558 0.950 1_565 S
H551 C560 0.950 . S
H552 C562 0.950 . S
H553 C564 0.950 1_545 S
H554 C566 0.950 . S
H555 C567 0.950 . S
C556 H548 0.950 . S
C556 C557 1.386 . S
C556 C558 1.391 . S
C557 C556 1.386 . S
C557 C561 1.393 . S
C558 H550 0.950 1_545 S
C558 C556 1.391 . S
C558 C559 1.400 . S
C559 C558 1.400 . S
C559 C560 1.398 . S
C559 C565 1.491 1_545 S
C560 H551 0.950 . S
C560 C559 1.398 . S
C560 C561 1.391 . S
C561 H549 0.950 . S
C561 C557 1.393 . S
C561 C560 1.391 . S
C562 H552 0.950 . S
C562 C563 1.386 . S
C562 C564 1.391 . S
C563 C562 1.386 . S
C563 C567 1.393 . S
C564 H553 0.950 1_565 S
C564 C562 1.391 . S
C564 C565 1.400 . S
C565 C559 1.491 1_565 S
C565 C564 1.400 . S
C565 C566 1.398 . S
C566 H554 0.950 . S
C566 C565 1.398 . S
C566 C567 1.391 . S
C567 H555 0.950 . S
C567 C563 1.393 . S
C567 C566 1.391 . S
H568 C576 0.950 . S
H569 C581 0.950 . S
H570 C578 0.950 . S
H571 C580 0.950 1_554 S
H572 C582 0.950 . S
H573 C584 0.950 . S
H574 C586 0.950 . S
H575 C587 0.950 . S
C576 H568 0.950 . S
C576 C577 1.386 . S
C576 C578 1.391 . S
C577 C576 1.386 . S
C577 C581 1.393 . S
C578 H570 0.950 . S
C578 C576 1.391 . S
C578 C579 1.400 1_556 S
C579 C578 1.400 1_554 S
C579 C580 1.398 1_554 S
C579 C585 1.491 . S
C580 H571 0.950 1_556 S
C580 C579 1.398 1_556 S
C580 C581 1.391 . S
C581 H569 0.950 . S
C581 C577 1.393 . S
C581 C580 1.391 . S
C582 H572 0.950 . S
C582 C583 1.386 . S
C582 C584 1.391 . S
C583 C582 1.386 . S
C583 C587 1.393 . S
C584 H573 0.950 . S
C584 C582 1.391 . S
C584 C585 1.400 . S
C585 C579 1.491 . S
C585 C584 1.400 . S
C585 C586 1.398 . S
C586 H574 0.950 . S
C586 C585 1.398 . S
C586 C587 1.391 . S
C587 H575 0.950 . S
C587 C583 1.393 . S
C587 C586 1.391 . S
H588 C596 0.950 . S
H589 C601 0.950 . S
H590 C598 0.950 . S
H591 C600 0.950 . S
H592 C602 0.950 . S
H593 C604 0.950 . S
H594 C606 0.950 . S
H595 C607 0.950 . S
C596 H588 0.950 . S
C596 C597 1.386 . S
C596 C598 1.391 . S
C597 C596 1.386 . S
C597 C601 1.393 . S
C598 H590 0.950 . S
C598 C596 1.391 . S
C598 C599 1.400 . S
C599 C598 1.400 . S
C599 C600 1.398 . S
C599 C605 1.491 . S
C600 H591 0.950 . S
C600 C599 1.398 . S
C600 C601 1.391 . S
C601 H589 0.950 . S
C601 C597 1.393 . S
C601 C600 1.391 . S
C602 H592 0.950 . S
C602 C603 1.386 . S
C602 C604 1.391 . S
C603 C602 1.386 . S
C603 C607 1.393 . S
C604 H593 0.950 . S
C604 C602 1.391 . S
C604 C605 1.400 . S
C605 C599 1.491 . S
C605 C604 1.400 . S
C605 C606 1.398 . S
C606 H594 0.950 . S
C606 C605 1.398 . S
C606 C607 1.391 . S
C607 H595 0.950 . S
C607 C603 1.393 . S
C607 C606 1.391 . S
H608 C616 0.950 . S
H609 C621 0.950 . S
H610 C618 0.950 1_556 S
H611 C620 0.950 . S
H612 C622 0.950 . S
H613 C624 0.950 . S
H614 C626 0.950 . S
H615 C627 0.950 . S
C616 H608 0.950 . S
C616 C617 1.386 . S
C616 C618 1.391 . S
C617 C616 1.386 . S
C617 C621 1.393 . S
C618 H610 0.950 1_554 S
C618 C616 1.391 . S
C618 C619 1.400 1_554 S
C619 C618 1.400 1_556 S
C619 C620 1.398 1_556 S
C619 C625 1.491 . S
C620 H611 0.950 . S
C620 C619 1.398 1_554 S
C620 C621 1.391 . S
C621 H609 0.950 . S
C621 C617 1.393 . S
C621 C620 1.391 . S
C622 H612 0.950 . S
C622 C623 1.386 . S
C622 C624 1.391 . S
C623 C622 1.386 . S
C623 C627 1.393 . S
C624 H613 0.950 . S
C624 C622 1.391 . S
C624 C625 1.400 . S
C625 C619 1.491 . S
C625 C624 1.400 . S
C625 C626 1.398 . S
C626 H614 0.950 . S
C626 C625 1.398 . S
C626 C627 1.391 . S
C627 H615 0.950 . S
C627 C623 1.393 . S
C627 C626 1.391 . S
H628 C636 0.950 . S
H629 C641 0.950 . S
H630 C638 0.950 . S
H631 C640 0.950 . S
H632 C642 0.950 . S
H633 C644 0.950 . S
H634 C646 0.950 . S
H635 C647 0.950 . S
C636 H628 0.950 . S
C636 C637 1.386 . S
C636 C638 1.391 . S
C637 C636 1.386 . S
C637 C641 1.393 . S
C638 H630 0.950 . S
C638 C636 1.391 . S
C638 C639 1.400 . S
C639 C638 1.400 . S
C639 C640 1.398 . S
C639 C645 1.491 . S
C640 H631 0.950 . S
C640 C639 1.398 . S
C640 C641 1.391 . S
C641 H629 0.950 . S
C641 C637 1.393 . S
C641 C640 1.391 . S
C642 H632 0.950 . S
C642 C643 1.386 . S
C642 C644 1.391 . S
C643 C642 1.386 . S
C643 C647 1.393 . S
C644 H633 0.950 . S
C644 C642 1.391 . S
C644 C645 1.400 . S
C645 C639 1.491 . S
C645 C644 1.400 . S
C645 C646 1.398 . S
C646 H634 0.950 . S
C646 C645 1.398 . S
C646 C647 1.391 . S
C647 H635 0.950 . S
C647 C643 1.393 . S
C647 C646 1.391 . S
H648 C656 0.950 . S
H649 C661 0.950 . S
H650 C658 0.950 1_556 S
H651 C660 0.950 . S
H652 C662 0.950 . S
H653 C664 0.950 . S
H654 C666 0.950 . S
H655 C667 0.950 . S
C656 H648 0.950 . S
C656 C657 1.386 . S
C656 C658 1.391 . S
C657 C656 1.386 . S
C657 C661 1.393 . S
C658 H650 0.950 1_554 S
C658 C656 1.391 . S
C658 C659 1.400 1_554 S
C659 C658 1.400 1_556 S
C659 C660 1.398 1_556 S
C659 C665 1.491 . S
C660 H651 0.950 . S
C660 C659 1.398 1_554 S
C660 C661 1.391 . S
C661 H649 0.950 . S
C661 C657 1.393 . S
C661 C660 1.391 . S
C662 H652 0.950 . S
C662 C663 1.386 . S
C662 C664 1.391 . S
C663 C662 1.386 . S
C663 C667 1.393 . S
C664 H653 0.950 . S
C664 C662 1.391 . S
C664 C665 1.400 . S
C665 C659 1.491 . S
C665 C664 1.400 . S
C665 C666 1.398 . S
C666 H654 0.950 . S
C666 C665 1.398 . S
C666 C667 1.391 . S
C667 H655 0.950 . S
C667 C663 1.393 . S
C667 C666 1.391 . S
H668 C676 0.950 . S
H669 C681 0.950 . S
H670 C678 0.950 . S
H671 C680 0.950 . S
H672 C682 0.950 . S
H673 C684 0.950 . S
H674 C686 0.950 . S
H675 C687 0.950 . S
C676 H668 0.950 . S
C676 C677 1.386 . S
C676 C678 1.391 . S
C677 C676 1.386 . S
C677 C681 1.393 . S
C678 H670 0.950 . S
C678 C676 1.391 . S
C678 C679 1.400 . S
C679 C678 1.400 . S
C679 C680 1.398 . S
C679 C685 1.491 . S
C680 H671 0.950 . S
C680 C679 1.398 . S
C680 C681 1.391 . S
C681 H669 0.950 . S
C681 C677 1.393 . S
C681 C680 1.391 . S
C682 H672 0.950 . S
C682 C683 1.386 . S
C682 C684 1.391 . S
C683 C682 1.386 . S
C683 C687 1.393 . S
C684 H673 0.950 . S
C684 C682 1.391 . S
C684 C685 1.400 . S
C685 C679 1.491 . S
C685 C684 1.400 . S
C685 C686 1.398 . S
C686 H674 0.950 . S
C686 C685 1.398 . S
C686 C687 1.391 . S
C687 H675 0.950 . S
C687 C683 1.393 . S
C687 C686 1.391 . S
H688 C696 0.950 . S
H689 C701 0.950 . S
H690 C698 0.967 . S
H691 C700 0.950 . S
H692 C702 0.950 . S
H693 C704 0.950 . S
H694 C706 0.950 . S
H695 C707 0.950 . S
C696 H688 0.950 . S
C696 C697 1.386 . S
C696 C698 1.391 . S
C697 C696 1.386 . S
C697 C701 1.393 . S
C698 H690 0.967 . S
C698 C696 1.391 . S
C698 C699 1.400 1_556 S
C699 C698 1.400 1_554 S
C699 C700 1.398 1_554 S
C699 C705 1.491 . S
C700 H691 0.950 . S
C700 C699 1.398 1_556 S
C700 C701 1.391 . S
C701 H689 0.950 . S
C701 C697 1.393 . S
C701 C700 1.391 . S
C702 H692 0.950 . S
C702 C703 1.386 . S
C702 C704 1.391 . S
C703 C702 1.386 . S
C703 C707 1.393 . S
C704 H693 0.950 . S
C704 C702 1.391 . S
C704 C705 1.400 . S
C705 C699 1.491 . S
C705 C704 1.400 . S
C705 C706 1.398 . S
C706 H694 0.950 . S
C706 C705 1.398 . S
C706 C707 1.391 . S
C707 H695 0.950 . S
C707 C703 1.393 . S
C707 C706 1.391 . S
H708 C716 0.950 . S
H709 C721 0.950 . S
H710 C718 0.950 . S
H711 C720 0.950 . S
H712 C722 0.950 . S
H713 C724 0.950 . S
H714 C726 0.950 . S
H715 C727 0.950 . S
C716 H708 0.950 . S
C716 C717 1.386 . S
C716 C718 1.391 . S
C717 C716 1.386 . S
C717 C721 1.393 . S
C718 H710 0.950 . S
C718 C716 1.391 . S
C718 C719 1.400 . S
C719 C718 1.400 . S
C719 C720 1.398 . S
C719 C725 1.491 . S
C720 H711 0.950 . S
C720 C719 1.398 . S
C720 C721 1.391 . S
C721 H709 0.950 . S
C721 C717 1.393 . S
C721 C720 1.391 . S
C722 H712 0.950 . S
C722 C723 1.386 . S
C722 C724 1.391 . S
C723 C722 1.386 . S
C723 C727 1.393 . S
C724 H713 0.950 . S
C724 C722 1.391 . S
C724 C725 1.400 . S
C725 C719 1.491 . S
C725 C724 1.400 . S
C725 C726 1.398 . S
C726 H714 0.950 . S
C726 C725 1.398 . S
C726 C727 1.391 . S
C727 H715 0.950 . S
C727 C723 1.393 . S
C727 C726 1.391 . S
H728 C736 0.950 . S
H729 C741 0.950 . S
H730 C738 0.950 . S
H731 C740 0.950 . S
H732 C742 0.950 . S
H733 C744 0.950 . S
H734 C746 0.950 . S
H735 C747 0.950 . S
C736 H728 0.950 . S
C736 C737 1.386 . S
C736 C738 1.391 . S
C737 C736 1.386 . S
C737 C741 1.393 . S
C738 H730 0.950 . S
C738 C736 1.391 . S
C738 C739 1.400 . S
C739 C738 1.400 . S
C739 C740 1.398 . S
C739 C745 1.491 . S
C740 H731 0.950 . S
C740 C739 1.398 . S
C740 C741 1.391 . S
C741 H729 0.950 . S
C741 C737 1.393 . S
C741 C740 1.391 . S
C742 H732 0.950 . S
C742 C743 1.386 . S
C742 C744 1.391 . S
C743 C742 1.386 . S
C743 C747 1.393 . S
C744 H733 0.950 . S
C744 C742 1.391 . S
C744 C745 1.400 . S
C745 C739 1.491 . S
C745 C744 1.400 . S
C745 C746 1.398 . S
C746 H734 0.950 . S
C746 C745 1.398 . S
C746 C747 1.391 . S
C747 H735 0.950 . S
C747 C743 1.393 . S
C747 C746 1.391 . S
H748 C756 0.950 . S
H749 C761 0.950 . S
H750 C758 0.950 . S
H751 C760 0.950 . S
H752 C762 0.950 . S
H753 C764 0.950 . S
H754 C766 0.950 . S
H755 C767 0.950 . S
C756 H748 0.950 . S
C756 C757 1.386 . S
C756 C758 1.391 . S
C757 C756 1.386 . S
C757 C761 1.393 . S
C758 H750 0.950 . S
C758 C756 1.391 . S
C758 C759 1.400 . S
C759 C758 1.400 . S
C759 C760 1.398 . S
C759 C765 1.491 . S
C760 H751 0.950 . S
C760 C759 1.398 . S
C760 C761 1.391 . S
C761 H749 0.950 . S
C761 C757 1.393 . S
C761 C760 1.391 . S
C762 H752 0.950 . S
C762 C763 1.386 . S
C762 C764 1.391 . S
C763 C762 1.386 . S
C763 C767 1.393 . S
C764 H753 0.950 . S
C764 C762 1.391 . S
C764 C765 1.400 . S
C765 C759 1.491 . S
C765 C764 1.400 . S
C765 C766 1.398 . S
C766 H754 0.950 . S
C766 C765 1.398 . S
C766 C767 1.391 . S
C767 H755 0.950 . S
C767 C763 1.393 . S
C767 C766 1.391 . S
H768 C776 0.950 . S
H769 C781 0.950 . S
H770 C778 0.950 . S
H771 C780 0.950 . S
H772 C782 0.950 . S
H773 C784 0.950 . S
H774 C786 0.950 . S
H775 C787 0.950 . S
C776 H768 0.950 . S
C776 C777 1.386 . S
C776 C778 1.391 . S
C777 C776 1.386 . S
C777 C781 1.393 . S
C778 H770 0.950 . S
C778 C776 1.391 . S
C778 C779 1.400 . S
C779 C778 1.400 . S
C779 C780 1.398 . S
C779 C785 1.491 . S
C780 H771 0.950 . S
C780 C779 1.398 . S
C780 C781 1.391 . S
C781 H769 0.950 . S
C781 C777 1.393 . S
C781 C780 1.391 . S
C782 H772 0.950 . S
C782 C783 1.386 . S
C782 C784 1.391 . S
C783 C782 1.386 . S
C783 C787 1.393 . S
C784 H773 0.950 . S
C784 C782 1.391 . S
C784 C785 1.400 . S
C785 C779 1.491 . S
C785 C784 1.400 . S
C785 C786 1.398 . S
C786 H774 0.950 . S
C786 C785 1.398 . S
C786 C787 1.391 . S
C787 H775 0.950 . S
C787 C783 1.393 . S
C787 C786 1.391 . S
H788 C796 0.950 . S
H789 C801 0.950 . S
H790 C798 0.950 . S
H791 C800 0.950 . S
H792 C802 0.950 . S
H793 C804 0.950 . S
H794 C806 0.950 . S
H795 C807 0.950 . S
C796 H788 0.950 . S
C796 C797 1.386 . S
C796 C798 1.391 . S
C797 C796 1.386 . S
C797 C801 1.393 . S
C798 H790 0.950 . S
C798 C796 1.391 . S
C798 C799 1.400 . S
C799 C798 1.400 . S
C799 C800 1.398 . S
C799 C805 1.491 . S
C800 H791 0.950 . S
C800 C799 1.398 . S
C800 C801 1.391 . S
C801 H789 0.950 . S
C801 C797 1.393 . S
C801 C800 1.391 . S
C802 H792 0.950 . S
C802 C803 1.386 . S
C802 C804 1.391 . S
C803 C802 1.386 . S
C803 C807 1.393 . S
C804 H793 0.950 . S
C804 C802 1.391 . S
C804 C805 1.400 . S
C805 C799 1.491 . S
C805 C804 1.400 . S
C805 C806 1.398 . S
C806 H794 0.950 . S
C806 C805 1.398 . S
C806 C807 1.391 . S
C807 H795 0.950 . S
C807 C803 1.393 . S
C807 C806 1.391 . S
H808 C816 0.950 . S
H809 C821 0.950 . S
H810 C818 0.950 . S
H811 C820 0.950 . S
H812 C822 0.950 . S
H813 C824 0.950 . S
H814 C826 0.950 . S
H815 C827 0.950 . S
C816 H808 0.950 . S
C816 C817 1.386 . S
C816 C818 1.391 . S
C817 C816 1.386 . S
C817 C821 1.393 . S
C818 H810 0.950 . S
C818 C816 1.391 . S
C818 C819 1.400 . S
C819 C818 1.400 . S
C819 C820 1.398 . S
C819 C825 1.491 . S
C820 H811 0.950 . S
C820 C819 1.398 . S
C820 C821 1.391 . S
C821 H809 0.950 . S
C821 C817 1.393 . S
C821 C820 1.391 . S
C822 H812 0.950 . S
C822 C823 1.386 . S
C822 C824 1.391 . S
C823 C822 1.386 . S
C823 C827 1.393 . S
C824 H813 0.950 . S
C824 C822 1.391 . S
C824 C825 1.400 . S
C825 C819 1.491 . S
C825 C824 1.400 . S
C825 C826 1.398 . S
C826 H814 0.950 . S
C826 C825 1.398 . S
C826 C827 1.391 . S
C827 H815 0.950 . S
C827 C823 1.393 . S
C827 C826 1.391 . S
H828 C836 0.950 . S
H829 C841 0.950 . S
H830 C838 0.950 . S
H831 C840 0.950 . S
H832 C842 0.950 . S
H833 C844 0.950 . S
H834 C846 0.950 . S
H835 C847 0.950 . S
C836 H828 0.950 . S
C836 C837 1.386 . S
C836 C838 1.391 . S
C837 C836 1.386 . S
C837 C841 1.393 . S
C838 H830 0.950 . S
C838 C836 1.391 . S
C838 C839 1.400 . S
C839 C838 1.400 . S
C839 C840 1.398 . S
C839 C845 1.491 . S
C840 H831 0.950 . S
C840 C839 1.398 . S
C840 C841 1.391 . S
C841 H829 0.950 . S
C841 C837 1.393 . S
C841 C840 1.391 . S
C842 H832 0.950 . S
C842 C843 1.386 . S
C842 C844 1.391 . S
C843 C842 1.386 . S
C843 C847 1.393 . S
C844 H833 0.950 . S
C844 C842 1.391 . S
C844 C845 1.400 . S
C845 C839 1.491 . S
C845 C844 1.400 . S
C845 C846 1.398 . S
C846 H834 0.950 . S
C846 C845 1.398 . S
C846 C847 1.391 . S
C847 H835 0.950 . S
C847 C843 1.393 . S
C847 C846 1.391 . S
H848 C856 0.950 . S
H849 C861 0.950 . S
H850 C858 0.950 . S
H851 C860 0.950 . S
H852 C862 0.950 . S
H853 C864 0.950 . S
H854 C866 0.950 . S
H855 C867 0.950 . S
C856 H848 0.950 . S
C856 C857 1.386 . S
C856 C858 1.391 . S
C857 C856 1.386 . S
C857 C861 1.393 . S
C858 H850 0.950 . S
C858 C856 1.391 . S
C858 C859 1.400 . S
C859 C858 1.400 . S
C859 C860 1.398 . S
C859 C865 1.491 . S
C860 H851 0.950 . S
C860 C859 1.398 . S
C860 C861 1.391 . S
C861 H849 0.950 . S
C861 C857 1.393 . S
C861 C860 1.391 . S
C862 H852 0.950 . S
C862 C863 1.386 . S
C862 C864 1.391 . S
C863 C862 1.386 . S
C863 C867 1.393 . S
C864 H853 0.950 . S
C864 C862 1.391 . S
C864 C865 1.400 . S
C865 C859 1.491 . S
C865 C864 1.400 . S
C865 C866 1.398 . S
C866 H854 0.950 . S
C866 C865 1.398 . S
C866 C867 1.391 . S
C867 H855 0.950 . S
C867 C863 1.393 . S
C867 C866 1.391 . S
H868 C876 0.950 . S
H869 C881 0.950 . S
H870 C878 0.950 . S
H871 C880 0.950 . S
H872 C882 0.950 . S
H873 C884 0.950 . S
H874 C886 0.950 . S
H875 C887 0.950 . S
C876 H868 0.950 . S
C876 C877 1.386 . S
C876 C878 1.391 . S
C877 C876 1.386 . S
C877 C881 1.393 . S
C878 H870 0.950 . S
C878 C876 1.391 . S
C878 C879 1.400 . S
C879 C878 1.400 . S
C879 C880 1.398 . S
C879 C885 1.491 . S
C880 H871 0.950 . S
C880 C879 1.398 . S
C880 C881 1.391 . S
C881 H869 0.950 . S
C881 C877 1.393 . S
C881 C880 1.391 . S
C882 H872 0.950 . S
C882 C883 1.386 . S
C882 C884 1.391 . S
C883 C882 1.386 . S
C883 C887 1.393 . S
C884 H873 0.950 . S
C884 C882 1.391 . S
C884 C885 1.400 . S
C885 C879 1.491 . S
C885 C884 1.400 . S
C885 C886 1.398 . S
C886 H874 0.950 . S
C886 C885 1.398 . S
C886 C887 1.391 . S
C887 H875 0.950 . S
C887 C883 1.393 . S
C887 C886 1.391 . S
C417 C58 1.473 . S
C423 C146 1.447 . S
C443 C230 1.442 . S
C437 C68 1.473 . S
C463 C223 1.461 . S
C457 C40 1.462 . S
C477 C50 1.461 . S
C483 C139 1.463 . S
C503 C303 1.459 . S
C497 C23 1.473 . S
C523 C387 1.459 . S
C517 C32 1.471 . S
C537 C5 1.463 . S
C543 C380 1.463 . S
C557 C14 1.462 . S
C563 C296 1.462 . S
C583 C130 1.329 . S
C577 C13 1.498 . S
C603 C214 1.354 . S
C597 C4 1.501 . S
C623 C225 1.404 . S
C617 C31 1.520 . S
C643 C141 1.401 . S
C637 C22 1.523 . S
C663 C309 1.341 . S
C657 C49 1.500 . S
C677 C41 1.499 . S
C683 C393 1.311 . S
C703 C382 1.386 . S
C697 C67 1.519 . S
C717 C59 1.522 . S
C723 C298 1.386 . S
C743 C128 1.534 . S
C737 C7 1.533 . S
C763 C212 1.530 . S
C757 C16 1.531 . S
C777 C25 1.528 . S
C783 C219 1.505 . S
C803 C135 1.509 . S
C797 C34 1.521 . S
C823 C307 1.534 . S
C817 C43 1.529 . S
C837 C52 1.525 . S
C843 C391 1.532 . S
C857 C61 1.527 . S
C863 C398 1.503 . S
C877 C70 1.521 . S
C883 C314 1.517 . S
