# Generated by pormake.
# Topology rtl, (3,6)-cn, num edge types: 1
# Building blocks:
#     Node 0, Type 0, BuildingBlock: BETDIP_clean_linker_0, # of connection points: 3
#     Node 1, Type 0, BuildingBlock: BETDIP_clean_linker_0, # of connection points: 3
#     Node 2, Type 0, BuildingBlock: BETDIP_clean_linker_0, # of connection points: 3
#     Node 3, Type 0, BuildingBlock: BETDIP_clean_linker_0, # of connection points: 3
#     Node 4, Type 1, BuildingBlock: FUNLAD_clean_sbu_0, # of connection points: 6
#     Node 5, Type 1, BuildingBlock: FUNLAD_clean_sbu_0, # of connection points: 6
#     Edge 6, Type (0, 1), BuildingBlock: ZUJKAS_clean_linker_0, # of connection points: 2
#     Edge 7, Type (0, 1), BuildingBlock: ZUJKAS_clean_linker_0, # of connection points: 2
#     Edge 8, Type (0, 1), BuildingBlock: ZUJKAS_clean_linker_0, # of connection points: 2
#     Edge 9, Type (0, 1), BuildingBlock: ZUJKAS_clean_linker_0, # of connection points: 2
#     Edge 10, Type (0, 1), BuildingBlock: ZUJKAS_clean_linker_0, # of connection points: 2
#     Edge 11, Type (0, 1), BuildingBlock: ZUJKAS_clean_linker_0, # of connection points: 2
#     Edge 12, Type (0, 1), BuildingBlock: ZUJKAS_clean_linker_0, # of connection points: 2
#     Edge 13, Type (0, 1), BuildingBlock: ZUJKAS_clean_linker_0, # of connection points: 2
#     Edge 14, Type (0, 1), BuildingBlock: ZUJKAS_clean_linker_0, # of connection points: 2
#     Edge 15, Type (0, 1), BuildingBlock: ZUJKAS_clean_linker_0, # of connection points: 2
#     Edge 16, Type (0, 1), BuildingBlock: ZUJKAS_clean_linker_0, # of connection points: 2
#     Edge 17, Type (0, 1), BuildingBlock: ZUJKAS_clean_linker_0, # of connection points: 2
# Relax obj value: 0.002
# Max RMSD: 0.051
# Mean RMSD: 0.036
data_MOF--net-rtl--node1-FUNLAD_clean_sbu_0--node2-BETDIP_clean_linker_0--edge1-ZUJKAS_clean_linker_0
_symmetry_space_group_name_H-M    P1
_symmetry_Int_Tables_number       1
_symmetry_cell_setting            triclinic
loop_
_symmetry_equiv_pos_as_xyz
'x, y, z'
_cell_length_a     51.179261
_cell_length_b     51.191759
_cell_length_c     27.501145
_cell_angle_alpha  90.883802
_cell_angle_beta   91.935463
_cell_angle_gamma 89.920535
loop_
_atom_site_label
_atom_site_type_symbol
_atom_site_fract_x
_atom_site_fract_y
_atom_site_fract_z
_atom_type_partial_charge
H0 H 0.19064 0.81988 0.93877 0.0
H1 H 0.19031 0.81639 0.0948 0.0
H2 H 0.14652 0.87596 0.02026 0.0
H3 H 0.203 0.77498 0.08034 0.0
C4 C 0.21598 0.77635 0.05006 0.0
C5 C 0.1843 0.8279 0.9731 0.0
C6 C 0.16665 0.84894 0.9739 0.0
C7 C 0.19312 0.81619 0.01639 0.0
C8 C 0.18401 0.82553 0.06124 0.0
C9 C 0.16645 0.84665 0.06276 0.0
C10 C 0.15887 0.85878 0.01908 0.0
N11 N 0.21119 0.79515 0.01332 0.0
H12 H 0.6855 0.69549 0.61455 0.0
H13 H 0.68817 0.68975 0.45833 0.0
H14 H 0.63641 0.64044 0.53505 0.0
H15 H 0.69939 0.73274 0.46764 0.0
C16 C 0.71271 0.73245 0.49923 0.0
C17 C 0.67872 0.68662 0.58039 0.0
C18 C 0.65954 0.66701 0.58001 0.0
C19 C 0.6886 0.69552 0.53665 0.0
C20 C 0.67993 0.68388 0.4922 0.0
C21 C 0.66127 0.6638 0.49149 0.0
C22 C 0.65105 0.65574 0.53547 0.0
N23 N 0.70765 0.71573 0.53861 0.0
H24 H 0.81064 0.18521 0.9233 0.0
H25 H 0.81145 0.18171 0.07971 0.0
H26 H 0.85768 0.1278 -0.0022 0.0
H27 H 0.80051 0.22456 0.07286 0.0
C28 C 0.78734 0.22487 0.04108 0.0
C29 C 0.81765 0.17634 0.95682 0.0
C30 C 0.83487 0.15501 0.95524 0.0
C31 C 0.8094 0.1864 0.00145 0.0
C32 C 0.81828 0.17472 0.04506 0.0
C33 C 0.83549 0.15331 0.04397 0.0
C34 C 0.84367 0.14369 -0.0011 0.0
N35 N 0.79157 0.20773 0.00095 0.0
H36 H 0.31344 0.32064 0.424 0.0
H37 H 0.31631 0.3168 0.58039 0.0
H38 H 0.36117 0.37467 0.50915 0.0
H39 H 0.30786 0.27305 0.56156 0.0
C40 C 0.2928 0.27517 0.53309 0.0
C41 C 0.32091 0.32797 0.45894 0.0
C42 C 0.33824 0.34925 0.46123 0.0
C43 C 0.31321 0.31587 0.50155 0.0
C44 C 0.32263 0.32546 0.54711 0.0
C45 C 0.33954 0.34702 0.54988 0.0
C46 C 0.34731 0.35867 0.50691 0.0
N47 N 0.29527 0.29473 0.49744 0.0
C48 C 0.03134 0.97461 0.44269 0.0
N49 N 0.046 0.04723 0.51088 0.0
C50 C 0.07148 0.03999 0.51674 0.0
C51 C 0.09127 0.05873 0.5178 0.0
C52 C 0.08493 0.08526 0.51214 0.0
C53 C 0.05842 0.09215 0.50594 0.0
C54 C 0.0392 0.07276 0.50565 0.0
Zn55 Zn 0.0179 0.01878 0.50975 0.0
C56 C 0.97594 0.02789 0.43509 0.0
N57 N 0.96036 0.95821 0.50746 0.0
C58 C 0.96743 0.93263 0.51057 0.0
C59 C 0.93475 0.96536 0.50388 0.0
C60 C 0.9151 0.94647 0.50314 0.0
C61 C 0.9218 0.91994 0.50645 0.0
C62 C 0.94837 0.91309 0.51033 0.0
Zn63 Zn 0.98839 0.98672 0.50851 0.0
O64 O 0.03926 0.99683 0.45824 0.0
C65 C 0.0304 0.9774 0.58255 0.0
O66 O 0.00994 0.96547 0.45717 0.0
H67 H 0.92953 0.9858 0.50175 0.0
H68 H 0.07652 0.0196 0.52072 0.0
H69 H 0.98789 0.92734 0.51323 0.0
O70 O 0.03816 0.99936 0.56768 0.0
O71 O 0.00957 0.96736 0.56422 0.0
H72 H 0.01883 0.07812 0.50102 0.0
O73 O 0.96745 0.00836 0.56083 0.0
O74 O 0.99607 0.04026 0.56075 0.0
O75 O 0.9677 0.00652 0.45186 0.0
O76 O 0.99721 0.03758 0.45231 0.0
C77 C 0.97503 0.03074 0.57619 0.0
H78 H 0.11132 0.05242 0.52359 0.0
H79 H 0.05253 0.11226 0.50075 0.0
H80 H 0.89484 0.95261 0.50072 0.0
H81 H 0.95437 0.89284 0.5125 0.0
C82 C 0.47717 0.47581 0.94521 0.0
N83 N 0.54746 0.45966 0.02218 0.0
C84 C 0.54071 0.43397 0.0191 0.0
C85 C 0.55998 0.41461 0.02004 0.0
C86 C 0.58645 0.42175 0.02457 0.0
C87 C 0.59284 0.4484 0.02785 0.0
C88 C 0.57297 0.46711 0.02639 0.0
Zn89 Zn 0.51884 0.48765 0.02043 0.0
C90 C 0.53105 0.5305 0.95236 0.0
N91 N 0.45933 0.54636 0.01657 0.0
C92 C 0.43383 0.53883 0.01596 0.0
C93 C 0.46604 0.57208 0.01741 0.0
C94 C 0.44674 0.5914 0.01804 0.0
C95 C 0.42028 0.58417 0.0182 0.0
C96 C 0.41392 0.55749 0.01692 0.0
Zn97 Zn 0.48797 0.5184 0.01797 0.0
O98 O 0.49838 0.46692 0.96383 0.0
C99 C 0.47583 0.47566 0.08631 0.0
O100 O 0.46832 0.49753 0.96055 0.0
H101 H 0.48643 0.57766 0.01812 0.0
H102 H 0.52033 0.42845 0.01599 0.0
H103 H 0.4289 0.51829 0.01507 0.0
O104 O 0.4977 0.46699 0.0725 0.0
O105 O 0.46709 0.49701 0.06929 0.0
H106 H 0.57793 0.48764 0.02854 0.0
O107 O 0.50807 0.53886 0.07532 0.0
O108 O 0.53871 0.50885 0.07707 0.0
O109 O 0.50937 0.53928 0.96686 0.0
O110 O 0.53959 0.50882 0.96838 0.0
C111 C 0.52957 0.53026 0.0932 0.0
H112 H 0.55421 0.39427 0.01793 0.0
H113 H 0.61302 0.45474 0.03083 0.0
H114 H 0.45248 0.61176 0.01949 0.0
H115 H 0.39375 0.55109 0.0164 0.0
H116 H 0.28916 0.22997 0.58221 0.0
H117 H 0.25388 0.19764 0.57654 0.0
H118 H 0.21207 0.24555 0.47215 0.0
H119 H 0.24772 0.27735 0.47634 0.0
H120 H 0.20413 0.20132 0.59807 0.0
H121 H 0.20993 0.17647 0.40201 0.0
H122 H 0.23468 0.19556 0.43436 0.0
H123 H 0.20481 0.2107 0.41271 0.0
C124 C 0.27251 0.23343 0.55776 0.0
C125 C 0.27129 0.25594 0.52933 0.0
C126 C 0.25237 0.21501 0.55461 0.0
C127 C 0.23053 0.2189 0.52321 0.0
C128 C 0.22905 0.24171 0.49551 0.0
H129 H 0.08344 0.1352 0.55038 0.0
H130 H 0.118 0.16802 0.55184 0.0
C131 C 0.24937 0.25996 0.49817 0.0
C132 C 0.20903 0.1994 0.52061 0.0
H133 H 0.17267 0.16073 0.44201 0.0
C134 C 0.19733 0.19235 0.56396 0.0
C135 C 0.2004 0.18742 0.4762 0.0
C136 C 0.21329 0.1927 0.42877 0.0
C137 C 0.17713 0.17384 0.56413 0.0
C138 C 0.16777 0.16266 0.51947 0.0
C139 C 0.17962 0.16954 0.47617 0.0
C140 C 0.14628 0.14316 0.51693 0.0
C141 C 0.16656 0.16597 0.61235 0.0
C142 C 0.15023 0.11864 0.4949 0.0
C143 C 0.13025 0.10005 0.49276 0.0
C144 C 0.10587 0.10549 0.51291 0.0
C145 C 0.10184 0.1303 0.5342 0.0
C146 C 0.12176 0.149 0.53578 0.0
H147 H 0.18075 0.17021 0.64291 0.0
H148 H 0.14848 0.17724 0.61917 0.0
H149 H 0.16173 0.14483 0.61247 0.0
H150 H 0.16889 0.11376 0.47965 0.0
H151 H 0.13394 0.08144 0.47504 0.0
H152 H 0.25445 0.77428 0.98271 0.0
H153 H 0.2892 0.74157 0.97628 0.0
H154 H 0.26018 0.70188 0.10062 0.0
H155 H 0.22536 0.7346 0.10739 0.0
H156 H 0.32803 0.72746 0.05361 0.0
H157 H 0.26474 0.64473 0.98975 0.0
H158 H 0.25462 0.67844 0.98486 0.0
H159 H 0.2542 0.66251 0.04251 0.0
C160 C 0.25539 0.75854 0.00858 0.0
C161 C 0.23711 0.75683 0.04544 0.0
C162 C 0.27528 0.73993 0.00489 0.0
C163 C 0.27702 0.71921 0.03763 0.0
C164 C 0.25891 0.71756 0.07462 0.0
H165 H 0.37728 0.58428 0.07446 0.0
H166 H 0.34312 0.61762 0.07884 0.0
C167 C 0.23913 0.73625 0.07854 0.0
C168 C 0.29805 0.69951 0.03361 0.0
H169 H 0.30908 0.63503 0.00853 0.0
C170 C 0.32398 0.70726 0.04355 0.0
C171 C 0.29257 0.67322 0.02068 0.0
C172 C 0.26507 0.66412 0.00844 0.0
C173 C 0.34463 0.68921 0.04191 0.0
C174 C 0.3392 0.66287 0.02876 0.0
C175 C 0.31322 0.65521 0.01858 0.0
C176 C 0.36009 0.64284 0.02593 0.0
C177 C 0.37194 0.69838 0.05567 0.0
C178 C 0.38081 0.64577 0.99427 0.0
C179 C 0.40041 0.62679 0.99184 0.0
C180 C 0.39944 0.60432 0.0205 0.0
C181 C 0.37845 0.60125 0.0516 0.0
C182 C 0.35897 0.62032 0.05427 0.0
H183 H 0.37174 0.71678 0.07761 0.0
H184 H 0.38288 0.68333 0.07673 0.0
H185 H 0.38264 0.70221 0.02209 0.0
H186 H 0.38171 0.66264 0.97111 0.0
H187 H 0.41611 0.62949 0.96697 0.0
H188 H 0.75227 0.7367 0.5692 0.0
H189 H 0.78835 0.76823 0.57211 0.0
H190 H 0.7588 0.80189 0.4384 0.0
H191 H 0.72272 0.77039 0.43515 0.0
H192 H 0.8265 0.77678 0.49464 0.0
H193 H 0.76697 0.86437 0.53903 0.0
H194 H 0.75596 0.83148 0.54958 0.0
H195 H 0.75473 0.84426 0.48913 0.0
C196 C 0.75341 0.75087 0.54052 0.0
C197 C 0.73462 0.75127 0.50202 0.0
C198 C 0.77404 0.7688 0.5422 0.0
C199 C 0.77602 0.7875 0.50576 0.0
C200 C 0.75739 0.7878 0.46718 0.0
H201 H 0.87801 0.91667 0.44705 0.0
H202 H 0.84349 0.88367 0.44735 0.0
C203 C 0.73688 0.7698 0.4653 0.0
C204 C 0.79774 0.80656 0.50754 0.0
H205 H 0.81105 0.87165 0.51991 0.0
C206 C 0.82323 0.79752 0.50045 0.0
C207 C 0.79328 0.83355 0.51492 0.0
C208 C 0.76631 0.8441 0.52398 0.0
C209 C 0.8444 0.81491 0.49931 0.0
C210 C 0.83995 0.84198 0.50665 0.0
C211 C 0.81443 0.85092 0.51422 0.0
C212 C 0.86137 0.86146 0.50599 0.0
C213 C 0.87114 0.80423 0.48872 0.0
C214 C 0.88281 0.86004 0.53907 0.0
C215 C 0.90262 0.87882 0.53883 0.0
C216 C 0.90115 0.89959 0.50597 0.0
C217 C 0.87957 0.90104 0.4731 0.0
C218 C 0.85989 0.88216 0.47313 0.0
H219 H 0.86995 0.78463 0.47084 0.0
H220 H 0.88189 0.81755 0.46498 0.0
H221 H 0.88261 0.80222 0.52343 0.0
H222 H 0.88404 0.84463 0.56559 0.0
H223 H 0.91879 0.87742 0.5651 0.0
H224 H 0.77908 0.26411 0.10601 0.0
H225 H 0.74467 0.29756 0.10278 0.0
H226 H 0.71421 0.26409 0.96768 0.0
H227 H 0.74852 0.2307 0.97054 0.0
H228 H 0.73382 0.33397 0.0213 0.0
H229 H 0.65059 0.26867 0.06086 0.0
H230 H 0.68415 0.26025 0.076 0.0
H231 H 0.67201 0.25774 0.01413 0.0
C232 C 0.76501 0.26391 0.07568 0.0
C233 C 0.76647 0.24487 0.03858 0.0
C234 C 0.74543 0.28299 0.07387 0.0
C235 C 0.72683 0.28309 0.03523 0.0
C236 C 0.72825 0.26412 -0.00194 0.0
H237 H 0.59015 0.378 0.96681 0.0
H238 H 0.62468 0.34485 0.96876 0.0
C239 C 0.74793 0.24514 -0.00033 0.0
C240 C 0.70617 0.30333 0.0334 0.0
H241 H 0.64035 0.31232 0.04117 0.0
C242 C 0.71337 0.32932 0.02576 0.0
C243 C 0.67957 0.29706 0.03895 0.0
C244 C 0.67098 0.26946 0.04829 0.0
C245 C 0.69456 0.34927 0.0228 0.0
C246 C 0.66792 0.3431 0.02896 0.0
C247 C 0.66076 0.31703 0.03651 0.0
C248 C 0.64715 0.36336 0.02778 0.0
C249 C 0.70335 0.37664 0.0119 0.0
C250 C 0.64813 0.38458 0.06074 0.0
C251 C 0.6285 0.40359 0.05955 0.0
C252 C 0.60729 0.40153 0.02585 0.0
C253 C 0.60613 0.38002 0.99342 0.0
C254 C 0.62588 0.36112 0.99439 0.0
H255 H 0.72258 0.37664 0.99431 0.0
H256 H 0.68886 0.38672 0.98777 0.0
H257 H 0.70549 0.38802 0.04646 0.0
H258 H 0.66396 0.38633 0.08772 0.0
H259 H 0.62969 0.41968 0.08556 0.0
H260 H 0.18966 0.8502 0.15491 0.0
H261 H 0.16964 0.86562 0.22983 0.0
H262 H 0.09754 0.88051 0.14909 0.0
H263 H 0.11639 0.86313 0.07584 0.0
H264 H 0.15226 0.9109 0.25509 0.0
H265 H 0.06871 0.84385 0.25974 0.0
H266 H 0.09507 0.83851 0.21884 0.0
H267 H 0.0679 0.85942 0.20192 0.0
C268 C 0.16935 0.85615 0.15341 0.0
C269 C 0.15474 0.85551 0.1091 0.0
C270 C 0.15799 0.86517 0.1962 0.0
C271 C 0.13187 0.87375 0.19542 0.0
C272 C 0.11742 0.87324 0.15119 0.0
H273 H 0.06203 0.99221 0.37121 0.0
H274 H 0.08825 0.96605 0.3159 0.0
C275 C 0.12851 0.8638 0.10888 0.0
C276 C 0.11989 0.88482 0.23969 0.0
H277 H 0.06253 0.88629 0.29913 0.0
C278 C 0.13284 0.90516 0.2654 0.0
C279 C 0.09489 0.87691 0.25434 0.0
C280 C 0.08106 0.85325 0.23253 0.0
C281 C 0.1208 0.91886 0.30321 0.0
C282 C 0.09461 0.91287 0.31401 0.0
C283 C 0.08235 0.89145 0.29031 0.0
C284 C 0.07918 0.92893 0.34834 0.0
C285 C 0.13645 0.93945 0.33111 0.0
C286 C 0.06421 0.91682 0.38352 0.0
C287 C 0.04829 0.93169 0.41359 0.0
C288 C 0.04748 0.95899 0.4098 0.0
C289 C 0.06255 0.97119 0.37507 0.0
C290 C 0.07783 0.95624 0.34393 0.0
H291 H 0.15761 0.93452 0.33223 0.0
H292 H 0.13421 0.95842 0.31243 0.0
H293 H 0.12996 0.94177 0.36904 0.0
H294 H 0.06475 0.89582 0.38766 0.0
H295 H 0.03696 0.92187 0.44042 0.0
H296 H 0.68533 0.65365 0.66511 0.0
H297 H 0.66656 0.63232 0.73544 0.0
H298 H 0.5897 0.63779 0.66725 0.0
H299 H 0.60814 0.65926 0.59746 0.0
H300 H 0.62093 0.64803 0.79873 0.0
H301 H 0.60658 0.55723 0.68761 0.0
H302 H 0.62904 0.58264 0.6716 0.0
H303 H 0.59455 0.5867 0.65998 0.0
C304 C 0.66438 0.65079 0.6657 0.0
C305 C 0.64822 0.65775 0.62558 0.0
C306 C 0.65373 0.63855 0.7057 0.0
C307 C 0.62686 0.63317 0.70595 0.0
C308 C 0.61055 0.64148 0.66728 0.0
H309 H 0.51958 0.57849 0.91486 0.0
H310 H 0.54514 0.60353 0.85835 0.0
C311 C 0.62111 0.65367 0.62747 0.0
C312 C 0.61582 0.6174 0.74481 0.0
H313 H 0.58639 0.55887 0.76397 0.0
C314 C 0.61356 0.62846 0.79143 0.0
C315 C 0.60657 0.59178 0.7351 0.0
C316 C 0.60944 0.5787 0.686 0.0
C317 C 0.60135 0.61479 0.82831 0.0
C318 C 0.59101 0.58961 0.81788 0.0
C319 C 0.59417 0.57825 0.77173 0.0
C320 C 0.57616 0.57492 0.85376 0.0
C321 C 0.59959 0.62737 0.87804 0.0
C322 C 0.58486 0.55028 0.86903 0.0
C323 C 0.57022 0.53582 0.90108 0.0
C324 C 0.54648 0.54567 0.91809 0.0
C325 C 0.53778 0.57034 0.90251 0.0
C326 C 0.55248 0.5848 0.87056 0.0
H327 H 0.61433 0.64313 0.88385 0.0
H328 H 0.57991 0.63618 0.88157 0.0
H329 H 0.60242 0.61271 0.9071 0.0
H330 H 0.60299 0.54224 0.85609 0.0
H331 H 0.57747 0.51689 0.91238 0.0
H332 H 0.85352 0.17796 0.12771 0.0
H333 H 0.87552 0.15787 0.19846 0.0
H334 H 0.86332 0.08156 0.13323 0.0
H335 H 0.84103 0.10135 0.06289 0.0
H336 H 0.85862 0.11548 0.26382 0.0
H337 H 0.94475 0.09066 0.15406 0.0
H338 H 0.9207 0.11465 0.13522 0.0
H339 H 0.91361 0.08043 0.12824 0.0
C340 C 0.85505 0.15688 0.12892 0.0
C341 C 0.84583 0.14125 0.08948 0.0
C342 C 0.86771 0.14546 0.1692 0.0
C343 C 0.87137 0.11832 0.17051 0.0
C344 C 0.86103 0.1026 0.13242 0.0
H345 H 0.92748 0.01515 0.397 0.0
H346 H 0.90187 0.03838 0.33459 0.0
C347 C 0.84837 0.11394 0.09227 0.0
C348 C 0.88715 0.10641 0.21037 0.0
H349 H 0.94421 0.0736 0.23357 0.0
C350 C 0.87737 0.10639 0.25739 0.0
C351 C 0.91172 0.09488 0.20176 0.0
C352 C 0.92352 0.09526 0.15221 0.0
C353 C 0.89133 0.09451 0.29597 0.0
C354 C 0.91552 0.08226 0.28697 0.0
C355 C 0.92556 0.08285 0.24018 0.0
C356 C 0.93075 0.06857 0.32552 0.0
C357 C 0.88024 0.09527 0.34609 0.0
C358 C 0.95568 0.0776 0.3403 0.0
C359 C 0.97041 0.06436 0.37586 0.0
C360 C 0.96055 0.04168 0.39686 0.0
C361 C 0.93565 0.03255 0.38156 0.0
C362 C 0.92089 0.0459 0.34619 0.0
H363 H 0.86474 0.11036 0.34928 0.0
H364 H 0.87152 0.07599 0.35372 0.0
H365 H 0.89585 0.09927 0.37424 0.0
H366 H 0.96368 0.09498 0.32445 0.0
H367 H 0.98952 0.07189 0.38679 0.0
H368 H 0.3636 0.32016 0.62392 0.0
H369 H 0.38515 0.33869 0.69796 0.0
H370 H 0.3602 0.41581 0.65583 0.0
H371 H 0.3389 0.39751 0.58183 0.0
H372 H 0.42572 0.38336 0.68895 0.0
H373 H 0.34174 0.40542 0.80624 0.0
H374 H 0.34073 0.37967 0.76045 0.0
H375 H 0.33801 0.41315 0.7427 0.0
C376 C 0.36232 0.34098 0.63107 0.0
C377 C 0.34969 0.35746 0.5973 0.0
C378 C 0.37467 0.35151 0.67311 0.0
C379 C 0.37408 0.37854 0.68224 0.0
C380 C 0.36064 0.39487 0.64948 0.0
H381 H 0.43597 0.49221 0.88766 0.0
H382 H 0.41168 0.46705 0.82487 0.0
C383 C 0.3486 0.38444 0.60727 0.0
C384 C 0.38926 0.39018 0.72368 0.0
H385 H 0.38281 0.42323 0.83121 0.0
C386 C 0.41648 0.39182 0.72045 0.0
C387 C 0.37695 0.4014 0.76412 0.0
C388 C 0.34775 0.39978 0.76907 0.0
C389 C 0.43175 0.40524 0.75603 0.0
C390 C 0.41945 0.41665 0.79657 0.0
C391 C 0.39221 0.41448 0.80016 0.0
C392 C 0.43433 0.43167 0.83479 0.0
C393 C 0.4607 0.40803 0.74867 0.0
C394 C 0.455 0.42009 0.86151 0.0
C395 C 0.46916 0.43453 0.89695 0.0
C396 C 0.46259 0.46071 0.90693 0.0
C397 C 0.44157 0.47212 0.88073 0.0
C398 C 0.42763 0.45775 0.84494 0.0
H399 H 0.46565 0.40462 0.71006 0.0
H400 H 0.46773 0.42776 0.76013 0.0
H401 H 0.47144 0.39336 0.77092 0.0
H402 H 0.4601 0.39981 0.8552 0.0
H403 H 0.48503 0.42507 0.91695 0.0
H404 H 0.65473 0.61172 0.47317 0.0
H405 H 0.63447 0.5909 0.40084 0.0
H406 H 0.62649 0.66599 0.33296 0.0
H407 H 0.64662 0.6871 0.40571 0.0
H408 H 0.58282 0.60383 0.36598 0.0
H409 H 0.65768 0.61719 0.22634 0.0
H410 H 0.66545 0.61932 0.29086 0.0
H411 H 0.64888 0.64581 0.26095 0.0
C412 C 0.64883 0.6238 0.44273 0.0
C413 C 0.65202 0.65107 0.44524 0.0
C414 C 0.63736 0.61187 0.40141 0.0
C415 C 0.62907 0.62691 0.36163 0.0
C416 C 0.63309 0.65403 0.36312 0.0
H417 H 0.51477 0.57573 0.1381 0.0
H418 H 0.53887 0.60036 0.202 0.0
C419 C 0.64459 0.66604 0.40461 0.0
C420 C 0.61446 0.61424 0.32042 0.0
H421 H 0.61745 0.59819 0.19979 0.0
C422 C 0.59033 0.60265 0.32958 0.0
C423 C 0.62445 0.61266 0.2732 0.0
C424 C 0.65062 0.62422 0.26201 0.0
C425 C 0.57589 0.58938 0.29272 0.0
C426 C 0.58577 0.58793 0.24539 0.0
C427 C 0.60991 0.59953 0.23614 0.0
C428 C 0.57164 0.57365 0.2055 0.0
C429 C 0.55049 0.57647 0.30492 0.0
C430 C 0.58234 0.55074 0.18589 0.0
C431 C 0.56863 0.53658 0.14948 0.0
C432 C 0.54404 0.54522 0.13185 0.0
C433 C 0.53358 0.56845 0.1511 0.0
C434 C 0.54728 0.58254 0.18762 0.0
H435 H 0.54829 0.5749 0.34483 0.0
H436 H 0.53392 0.58822 0.29002 0.0
H437 H 0.54911 0.5566 0.28825 0.0
H438 H 0.60114 0.54361 0.19927 0.0
H439 H 0.57731 0.51886 0.13524 0.0
H440 H 0.83725 0.10426 0.92448 0.0
H441 H 0.85871 0.08694 0.85249 0.0
H442 H 0.87662 0.1653 0.80917 0.0
H443 H 0.85513 0.18284 0.88131 0.0
H444 H 0.85056 0.10605 0.74053 0.0
H445 H 0.94812 0.11774 0.83501 0.0
H446 H 0.91882 0.11326 0.86872 0.0
H447 H 0.92422 0.14355 0.83893 0.0
C448 C 0.84548 0.1178 0.89927 0.0
C449 C 0.84468 0.14487 0.90852 0.0
C450 C 0.85761 0.1079 0.85819 0.0
C451 C 0.86927 0.12489 0.82591 0.0
C452 C 0.86765 0.15196 0.83384 0.0
H453 H 0.98177 0.08143 0.6071 0.0
H454 H 0.9551 0.10617 0.66392 0.0
C455 C 0.85531 0.16192 0.87482 0.0
C456 C 0.88472 0.11403 0.78601 0.0
H457 H 0.94699 0.09721 0.7581 0.0
C458 C 0.87167 0.10428 0.74398 0.0
C459 C 0.91218 0.11194 0.79086 0.0
C460 C 0.92686 0.12207 0.83576 0.0
C461 C 0.88548 0.09213 0.70658 0.0
C462 C 0.91293 0.08908 0.71222 0.0
C463 C 0.92597 0.09949 0.75387 0.0
C464 C 0.92844 0.07436 0.67635 0.0
C465 C 0.87054 0.08287 0.66133 0.0
C466 C 0.92252 0.04816 0.66497 0.0
C467 C 0.93762 0.03402 0.63235 0.0
C468 C 0.95919 0.0457 0.61102 0.0
C469 C 0.9653 0.07185 0.62295 0.0
C470 C 0.95005 0.08604 0.65532 0.0
H471 H 0.85199 0.0939 0.65585 0.0
H472 H 0.88235 0.08492 0.62847 0.0
H473 H 0.86548 0.06194 0.66511 0.0
H474 H 0.90642 0.0385 0.68184 0.0
H475 H 0.9325 0.01386 0.62421 0.0
H476 H 0.35454 0.32429 0.37875 0.0
H477 H 0.37595 0.34393 0.30972 0.0
H478 H 0.36602 0.42047 0.37406 0.0
H479 H 0.34426 0.40114 0.44265 0.0
H480 H 0.35898 0.38706 0.24304 0.0
H481 H 0.44722 0.40899 0.36 0.0
H482 H 0.42286 0.3855 0.37644 0.0
H483 H 0.41665 0.41985 0.38363 0.0
C484 C 0.3564 0.34535 0.37765 0.0
C485 C 0.34799 0.36116 0.4164 0.0
C486 C 0.36873 0.3565 0.33835 0.0
C487 C 0.37288 0.38355 0.33737 0.0
C488 C 0.36332 0.39949 0.37466 0.0
H489 H 0.42717 0.48724 0.11858 0.0
H490 H 0.40201 0.46311 0.17705 0.0
C491 C 0.35096 0.38841 0.41381 0.0
C492 C 0.38845 0.39512 0.29889 0.0
H493 H 0.44596 0.42661 0.28082 0.0
C494 C 0.37804 0.39561 0.25109 0.0
C495 C 0.41344 0.4059 0.30962 0.0
C496 C 0.4259 0.40492 0.36009 0.0
C497 C 0.39176 0.40736 0.21382 0.0
C498 C 0.41634 0.41899 0.22497 0.0
C499 C 0.42703 0.41781 0.27251 0.0
C500 C 0.43117 0.43296 0.18812 0.0
C501 C 0.37994 0.40713 0.16283 0.0
C502 C 0.45611 0.42423 0.17571 0.0
C503 C 0.47061 0.43802 0.14245 0.0
C504 C 0.46051 0.46094 0.12139 0.0
C505 C 0.43552 0.46965 0.13408 0.0
C506 C 0.42101 0.45579 0.1672 0.0
H507 H 0.36451 0.39199 0.1579 0.0
H508 H 0.37091 0.42645 0.15539 0.0
H509 H 0.39515 0.40356 0.13563 0.0
H510 H 0.46434 0.40674 0.19181 0.0
H511 H 0.48979 0.4308 0.13348 0.0
H512 H 0.11676 0.86693 0.95843 0.0
H513 H 0.0976 0.88628 0.88591 0.0
H514 H 0.16906 0.87281 0.81054 0.0
H515 H 0.18951 0.85548 0.88516 0.0
H516 H 0.15097 0.91846 0.78824 0.0
H517 H 0.06828 0.85016 0.76913 0.0
H518 H 0.0679 0.86533 0.82814 0.0
H519 H 0.0951 0.84482 0.812 0.0
C520 C 0.12875 0.86844 0.92692 0.0
C521 C 0.1549 0.85981 0.92813 0.0
C522 C 0.11746 0.87902 0.8849 0.0
C523 C 0.13157 0.88034 0.84221 0.0
C524 C 0.15766 0.87172 0.84292 0.0
H525 H 0.03727 0.92496 0.58587 0.0
H526 H 0.06498 0.90048 0.64314 0.0
C527 C 0.16926 0.8616 0.88553 0.0
C528 C 0.11911 0.89174 0.79782 0.0
H529 H 0.06178 0.8922 0.73109 0.0
C530 C 0.13165 0.91242 0.77512 0.0
C531 C 0.09422 0.88345 0.77963 0.0
C532 C 0.08081 0.85951 0.79822 0.0
C533 C 0.11941 0.92589 0.73649 0.0
C534 C 0.0934 0.9193 0.72172 0.0
C535 C 0.08146 0.89776 0.74286 0.0
C536 C 0.07795 0.93453 0.68513 0.0
C537 C 0.13469 0.94678 0.7118 0.0
C538 C 0.07583 0.96187 0.68946 0.0
C539 C 0.0606 0.97594 0.65578 0.0
C540 C 0.04634 0.96282 0.61845 0.0
C541 C 0.04792 0.9355 0.6147 0.0
C542 C 0.0638 0.92152 0.64735 0.0
H543 H 0.156 0.94254 0.71398 0.0
H544 H 0.12855 0.9486 0.6729 0.0
H545 H 0.13162 0.96581 0.73062 0.0
H546 H 0.08563 0.97235 0.71926 0.0
H547 H 0.05949 0.99701 0.65954 0.0
loop_
_geom_bond_atom_site_label_1
_geom_bond_atom_site_label_2
_geom_bond_distance
_geom_bond_site_symmetry_2
_ccdc_geom_bond_type
H0 C5 0.930 . S
H1 C8 0.930 . S
H2 C10 0.930 . S
H3 C4 1.016 . S
C4 H3 1.016 . S
C4 N11 1.286 . S
C5 H0 0.930 . S
C5 C6 1.397 . S
C5 C7 1.361 1_556 S
C6 C5 1.397 . S
C6 C10 1.390 1_556 S
C7 C5 1.361 1_554 S
C7 C8 1.393 . S
C7 N11 1.413 . S
C8 H1 0.930 . S
C8 C7 1.393 . S
C8 C9 1.399 . S
C9 C8 1.399 . S
C9 C10 1.381 . S
C10 H2 0.930 . S
C10 C6 1.390 1_554 S
C10 C9 1.381 . S
N11 C4 1.286 . S
N11 C7 1.413 . S
H12 C17 0.930 . S
H13 C20 0.930 . S
H14 C22 0.930 . S
H15 C16 1.016 . S
C16 H15 1.016 . S
C16 N23 1.286 . S
C17 H12 0.930 . S
C17 C18 1.397 . S
C17 C19 1.361 . S
C18 C17 1.397 . S
C18 C22 1.390 . S
C19 C17 1.361 . S
C19 C20 1.393 . S
C19 N23 1.413 . S
C20 H13 0.930 . S
C20 C19 1.393 . S
C20 C21 1.399 . S
C21 C20 1.399 . S
C21 C22 1.381 . S
C22 H14 0.930 . S
C22 C18 1.390 . S
C22 C21 1.381 . S
N23 C16 1.286 . S
N23 C19 1.413 . S
H24 C29 0.930 . S
H25 C32 0.930 . S
H26 C34 0.930 . S
H27 C28 1.016 . S
C28 H27 1.016 . S
C28 N35 1.286 1_554 S
C29 H24 0.930 . S
C29 C30 1.397 . S
C29 C31 1.361 . S
C30 C29 1.397 . S
C30 C34 1.390 1_556 S
C31 C29 1.361 . S
C31 C32 1.393 1_556 S
C31 N35 1.413 . S
C32 H25 0.930 . S
C32 C31 1.393 1_554 S
C32 C33 1.399 . S
C33 C32 1.399 . S
C33 C34 1.381 . S
C34 H26 0.930 . S
C34 C30 1.390 1_554 S
C34 C33 1.381 . S
N35 C28 1.286 1_556 S
N35 C31 1.413 . S
H36 C41 0.930 . S
H37 C44 0.930 . S
H38 C46 0.930 . S
H39 C40 1.016 . S
C40 H39 1.016 . S
C40 N47 1.286 . S
C41 H36 0.930 . S
C41 C42 1.397 . S
C41 C43 1.361 . S
C42 C41 1.397 . S
C42 C46 1.390 . S
C43 C41 1.361 . S
C43 C44 1.393 . S
C43 N47 1.413 . S
C44 H37 0.930 . S
C44 C43 1.393 . S
C44 C45 1.399 . S
C45 C44 1.399 . S
C45 C46 1.381 . S
C46 H38 0.930 . S
C46 C42 1.390 . S
C46 C45 1.381 . S
N47 C40 1.286 . S
N47 C43 1.413 . S
C48 O64 1.265 . S
C48 O66 1.254 . S
N49 C50 1.333 . S
N49 C54 1.307 . S
N49 Zn55 2.020 . S
C50 N49 1.333 . S
C50 C51 1.379 . S
C50 H68 0.952 . S
C51 C50 1.379 . S
C51 C52 1.390 . S
C51 H78 0.949 . S
C52 C51 1.390 . S
C52 C53 1.357 . S
C53 C52 1.357 . S
C53 C54 1.370 . S
C53 H79 0.950 . S
C54 N49 1.307 . S
C54 C53 1.370 . S
C54 H72 0.948 . S
Zn55 N49 2.020 . S
Zn55 O64 2.030 1_545 S
Zn55 O70 2.034 1_545 S
Zn55 O74 2.025 1_455 S
Zn55 O76 2.024 1_455 S
C56 O75 1.246 . S
C56 O76 1.249 . S
N57 C58 1.307 . S
N57 C59 1.333 . S
N57 Zn63 2.020 . S
C58 N57 1.307 . S
C58 C62 1.370 . S
C58 H69 0.948 . S
C59 N57 1.333 . S
C59 C60 1.379 . S
C59 H67 0.952 . S
C60 C59 1.379 . S
C60 C61 1.390 . S
C60 H80 0.949 . S
C61 C60 1.390 . S
C61 C62 1.357 . S
C62 C58 1.370 . S
C62 C61 1.357 . S
C62 H81 0.950 . S
Zn63 N57 2.020 . S
Zn63 O66 2.025 1_655 S
Zn63 O71 2.024 1_655 S
Zn63 O73 2.039 1_565 S
Zn63 O75 2.034 1_565 S
O64 C48 1.265 . S
O64 Zn55 2.030 1_565 S
C65 O70 1.246 . S
C65 O71 1.249 . S
O66 C48 1.254 . S
O66 Zn63 2.025 1_455 S
H67 C59 0.952 . S
H68 C50 0.952 . S
H69 C58 0.948 . S
O70 Zn55 2.034 1_565 S
O70 C65 1.246 . S
O71 Zn63 2.024 1_455 S
O71 C65 1.249 . S
H72 C54 0.948 . S
O73 Zn63 2.039 1_545 S
O73 C77 1.251 . S
O74 Zn55 2.025 1_655 S
O74 C77 1.254 . S
O75 C56 1.246 . S
O75 Zn63 2.034 1_545 S
O76 Zn55 2.024 1_655 S
O76 C56 1.249 . S
C77 O73 1.251 . S
C77 O74 1.254 . S
H78 C51 0.949 . S
H79 C53 0.950 . S
H80 C60 0.949 . S
H81 C62 0.950 . S
C82 O98 1.251 . S
C82 O100 1.254 . S
N83 C84 1.333 . S
N83 C88 1.307 . S
N83 Zn89 2.020 . S
C84 N83 1.333 . S
C84 C85 1.379 . S
C84 H102 0.952 1_554 S
C85 C84 1.379 . S
C85 C86 1.390 . S
C85 H112 0.949 1_554 S
C86 C85 1.390 . S
C86 C87 1.357 . S
C87 C86 1.357 . S
C87 C88 1.370 . S
C87 H113 0.950 . S
C88 N83 1.307 . S
C88 C87 1.370 . S
C88 H106 0.948 . S
Zn89 N83 2.020 . S
Zn89 O98 2.039 1_554 S
Zn89 O104 2.034 . S
Zn89 O108 2.025 . S
Zn89 O110 2.024 1_554 S
C90 O109 1.246 . S
C90 O110 1.249 . S
N91 C92 1.307 . S
N91 C93 1.333 . S
N91 Zn97 2.020 . S
C92 N91 1.307 . S
C92 C96 1.370 . S
C92 H103 0.948 . S
C93 N91 1.333 . S
C93 C94 1.379 . S
C93 H101 0.952 . S
C94 C93 1.379 . S
C94 C95 1.390 . S
C94 H114 0.949 . S
C95 C94 1.390 . S
C95 C96 1.357 . S
C96 C92 1.370 . S
C96 C95 1.357 . S
C96 H115 0.950 . S
Zn97 N91 2.020 . S
Zn97 O100 2.025 1_554 S
Zn97 O105 2.024 . S
Zn97 O107 2.039 . S
Zn97 O109 2.034 1_554 S
O98 C82 1.251 . S
O98 Zn89 2.039 1_556 S
C99 O104 1.246 . S
C99 O105 1.249 . S
O100 C82 1.254 . S
O100 Zn97 2.025 1_556 S
H101 C93 0.952 . S
H102 C84 0.952 1_556 S
H103 C92 0.948 . S
O104 Zn89 2.034 . S
O104 C99 1.246 . S
O105 Zn97 2.024 . S
O105 C99 1.249 . S
H106 C88 0.948 . S
O107 Zn97 2.039 . S
O107 C111 1.251 . S
O108 Zn89 2.025 . S
O108 C111 1.254 . S
O109 C90 1.246 . S
O109 Zn97 2.034 1_556 S
O110 Zn89 2.024 1_556 S
O110 C90 1.249 . S
C111 O107 1.251 . S
C111 O108 1.254 . S
H112 C85 0.949 1_556 S
H113 C87 0.950 . S
H114 C94 0.949 . S
H115 C96 0.950 . S
H116 C124 0.929 . S
H117 C126 0.930 . S
H118 C128 0.930 . S
H119 C131 0.929 . S
H120 C134 0.930 . S
H121 C136 0.960 . S
H122 C136 0.960 . S
H123 C136 0.960 . S
C124 H116 0.929 . S
C124 C125 1.377 . S
C124 C126 1.384 . S
C125 C124 1.377 . S
C125 C131 1.390 . S
C126 H117 0.930 . S
C126 C124 1.384 . S
C126 C127 1.372 . S
C127 C126 1.372 . S
C127 C128 1.400 . S
C127 C132 1.490 . S
C128 H118 0.930 . S
C128 C127 1.400 . S
C128 C131 1.386 . S
H129 C145 0.930 . S
H130 C146 0.931 . S
C131 H119 0.929 . S
C131 C125 1.390 . S
C131 C128 1.386 . S
C132 C127 1.490 . S
C132 C134 1.395 . S
C132 C135 1.403 . S
H133 C139 0.930 . S
C134 H120 0.930 . S
C134 C132 1.395 . S
C134 C137 1.403 . S
C135 C132 1.403 . S
C135 C136 1.524 . S
C135 C139 1.400 . S
C136 H121 0.960 . S
C136 H122 0.960 . S
C136 H123 0.960 . S
C136 C135 1.524 . S
C137 C134 1.403 . S
C137 C138 1.392 . S
C137 C141 1.495 . S
C138 C137 1.392 . S
C138 C139 1.385 . S
C138 C140 1.478 . S
C139 H133 0.930 . S
C139 C135 1.400 . S
C139 C138 1.385 . S
C140 C138 1.478 . S
C140 C142 1.381 . S
C140 C146 1.383 . S
C141 C137 1.495 . S
C141 H147 0.959 . S
C141 H148 0.961 . S
C141 H149 0.960 . S
C142 C140 1.381 . S
C142 C143 1.394 . S
C142 H150 0.930 . S
C143 C142 1.394 . S
C143 C144 1.383 . S
C143 H151 0.929 . S
C144 C143 1.383 . S
C144 C145 1.377 . S
C145 H129 0.930 . S
C145 C144 1.377 . S
C145 C146 1.379 . S
C146 H130 0.931 . S
C146 C140 1.383 . S
C146 C145 1.379 . S
H147 C141 0.959 . S
H148 C141 0.961 . S
H149 C141 0.960 . S
H150 C142 0.930 . S
H151 C143 0.929 . S
H152 C160 0.929 . S
H153 C162 0.930 . S
H154 C164 0.930 . S
H155 C167 0.929 . S
H156 C170 0.930 . S
H157 C172 0.960 . S
H158 C172 0.960 . S
H159 C172 0.960 1_554 S
C160 H152 0.929 . S
C160 C161 1.377 1_556 S
C160 C162 1.384 . S
C161 C160 1.377 1_554 S
C161 C167 1.390 . S
C162 H153 0.930 . S
C162 C160 1.384 . S
C162 C163 1.372 1_556 S
C163 C162 1.372 1_554 S
C163 C164 1.400 . S
C163 C168 1.490 . S
C164 H154 0.930 . S
C164 C163 1.400 . S
C164 C167 1.386 . S
H165 C181 0.930 . S
H166 C182 0.931 . S
C167 H155 0.929 . S
C167 C161 1.390 . S
C167 C164 1.386 . S
C168 C163 1.490 . S
C168 C170 1.395 . S
C168 C171 1.403 . S
H169 C175 0.930 . S
C170 H156 0.930 . S
C170 C168 1.395 . S
C170 C173 1.403 . S
C171 C168 1.403 . S
C171 C172 1.524 1_554 S
C171 C175 1.400 . S
C172 H157 0.960 . S
C172 H158 0.960 . S
C172 H159 0.960 1_556 S
C172 C171 1.524 1_556 S
C173 C170 1.403 . S
C173 C174 1.392 . S
C173 C177 1.495 . S
C174 C173 1.392 . S
C174 C175 1.385 . S
C174 C176 1.478 . S
C175 H169 0.930 . S
C175 C171 1.400 . S
C175 C174 1.385 . S
C176 C174 1.478 . S
C176 C178 1.381 1_554 S
C176 C182 1.383 . S
C177 C173 1.495 . S
C177 H183 0.959 . S
C177 H184 0.961 . S
C177 H185 0.960 . S
C178 C176 1.381 1_556 S
C178 C179 1.394 . S
C178 H186 0.930 . S
C179 C178 1.394 . S
C179 C180 1.383 1_556 S
C179 H187 0.929 . S
C180 C179 1.383 1_554 S
C180 C181 1.377 . S
C181 H165 0.930 . S
C181 C180 1.377 . S
C181 C182 1.379 . S
C182 H166 0.931 . S
C182 C176 1.383 . S
C182 C181 1.379 . S
H183 C177 0.959 . S
H184 C177 0.961 . S
H185 C177 0.960 . S
H186 C178 0.930 . S
H187 C179 0.929 . S
H188 C196 0.929 . S
H189 C198 0.930 . S
H190 C200 0.930 . S
H191 C203 0.929 . S
H192 C206 0.930 . S
H193 C208 0.960 . S
H194 C208 0.960 . S
H195 C208 0.960 . S
C196 H188 0.929 . S
C196 C197 1.377 . S
C196 C198 1.384 . S
C197 C196 1.377 . S
C197 C203 1.390 . S
C198 H189 0.930 . S
C198 C196 1.384 . S
C198 C199 1.372 . S
C199 C198 1.372 . S
C199 C200 1.400 . S
C199 C204 1.490 . S
C200 H190 0.930 . S
C200 C199 1.400 . S
C200 C203 1.386 . S
H201 C217 0.930 . S
H202 C218 0.931 . S
C203 H191 0.929 . S
C203 C197 1.390 . S
C203 C200 1.386 . S
C204 C199 1.490 . S
C204 C206 1.395 . S
C204 C207 1.403 . S
H205 C211 0.930 . S
C206 H192 0.930 . S
C206 C204 1.395 . S
C206 C209 1.403 . S
C207 C204 1.403 . S
C207 C208 1.524 . S
C207 C211 1.400 . S
C208 H193 0.960 . S
C208 H194 0.960 . S
C208 H195 0.960 . S
C208 C207 1.524 . S
C209 C206 1.403 . S
C209 C210 1.392 . S
C209 C213 1.495 . S
C210 C209 1.392 . S
C210 C211 1.385 . S
C210 C212 1.478 . S
C211 H205 0.930 . S
C211 C207 1.400 . S
C211 C210 1.385 . S
C212 C210 1.478 . S
C212 C214 1.381 . S
C212 C218 1.383 . S
C213 C209 1.495 . S
C213 H219 0.959 . S
C213 H220 0.961 . S
C213 H221 0.960 . S
C214 C212 1.381 . S
C214 C215 1.394 . S
C214 H222 0.930 . S
C215 C214 1.394 . S
C215 C216 1.383 . S
C215 H223 0.929 . S
C216 C215 1.383 . S
C216 C217 1.377 . S
C217 H201 0.930 . S
C217 C216 1.377 . S
C217 C218 1.379 . S
C218 H202 0.931 . S
C218 C212 1.383 . S
C218 C217 1.379 . S
H219 C213 0.959 . S
H220 C213 0.961 . S
H221 C213 0.960 . S
H222 C214 0.930 . S
H223 C215 0.929 . S
H224 C232 0.929 . S
H225 C234 0.930 . S
H226 C236 0.930 . S
H227 C239 0.929 . S
H228 C242 0.930 . S
H229 C244 0.960 1_556 S
H230 C244 0.960 . S
H231 C244 0.960 1_556 S
C232 H224 0.929 . S
C232 C233 1.377 . S
C232 C234 1.384 . S
C233 C232 1.377 . S
C233 C239 1.390 1_554 S
C234 H225 0.930 . S
C234 C232 1.384 . S
C234 C235 1.372 . S
C235 C234 1.372 . S
C235 C236 1.400 1_554 S
C235 C240 1.490 . S
C236 H226 0.930 . S
C236 C235 1.400 1_556 S
C236 C239 1.386 . S
H237 C253 0.930 . S
H238 C254 0.931 . S
C239 H227 0.929 . S
C239 C233 1.390 1_556 S
C239 C236 1.386 . S
C240 C235 1.490 . S
C240 C242 1.395 . S
C240 C243 1.403 . S
H241 C247 0.930 . S
C242 H228 0.930 . S
C242 C240 1.395 . S
C242 C245 1.403 . S
C243 C240 1.403 . S
C243 C244 1.524 . S
C243 C247 1.400 . S
C244 H229 0.960 1_554 S
C244 H230 0.960 . S
C244 H231 0.960 1_554 S
C244 C243 1.524 . S
C245 C242 1.403 . S
C245 C246 1.392 . S
C245 C249 1.495 . S
C246 C245 1.392 . S
C246 C247 1.385 . S
C246 C248 1.478 . S
C247 H241 0.930 . S
C247 C243 1.400 . S
C247 C246 1.385 . S
C248 C246 1.478 . S
C248 C250 1.381 . S
C248 C254 1.383 1_554 S
C249 C245 1.495 . S
C249 H255 0.959 . S
C249 H256 0.961 . S
C249 H257 0.960 . S
C250 C248 1.381 . S
C250 C251 1.394 . S
C250 H258 0.930 . S
C251 C250 1.394 . S
C251 C252 1.383 . S
C251 H259 0.929 . S
C252 C251 1.383 . S
C252 C253 1.377 1_554 S
C253 H237 0.930 . S
C253 C252 1.377 1_556 S
C253 C254 1.379 . S
C254 H238 0.931 . S
C254 C248 1.383 1_556 S
C254 C253 1.379 . S
H255 C249 0.959 . S
H256 C249 0.961 . S
H257 C249 0.960 . S
H258 C250 0.930 . S
H259 C251 0.929 . S
H260 C268 0.929 . S
H261 C270 0.930 . S
H262 C272 0.930 . S
H263 C275 0.929 . S
H264 C278 0.930 . S
H265 C280 0.960 . S
H266 C280 0.960 . S
H267 C280 0.960 . S
C268 H260 0.929 . S
C268 C269 1.377 . S
C268 C270 1.384 . S
C269 C268 1.377 . S
C269 C275 1.390 . S
C270 H261 0.930 . S
C270 C268 1.384 . S
C270 C271 1.372 . S
C271 C270 1.372 . S
C271 C272 1.400 . S
C271 C276 1.490 . S
C272 H262 0.930 . S
C272 C271 1.400 . S
C272 C275 1.386 . S
H273 C289 0.930 . S
H274 C290 0.931 . S
C275 H263 0.929 . S
C275 C269 1.390 . S
C275 C272 1.386 . S
C276 C271 1.490 . S
C276 C278 1.395 . S
C276 C279 1.403 . S
H277 C283 0.930 . S
C278 H264 0.930 . S
C278 C276 1.395 . S
C278 C281 1.403 . S
C279 C276 1.403 . S
C279 C280 1.524 . S
C279 C283 1.400 . S
C280 H265 0.960 . S
C280 H266 0.960 . S
C280 H267 0.960 . S
C280 C279 1.524 . S
C281 C278 1.403 . S
C281 C282 1.392 . S
C281 C285 1.495 . S
C282 C281 1.392 . S
C282 C283 1.385 . S
C282 C284 1.478 . S
C283 H277 0.930 . S
C283 C279 1.400 . S
C283 C282 1.385 . S
C284 C282 1.478 . S
C284 C286 1.381 . S
C284 C290 1.383 . S
C285 C281 1.495 . S
C285 H291 0.959 . S
C285 H292 0.961 . S
C285 H293 0.960 . S
C286 C284 1.381 . S
C286 C287 1.394 . S
C286 H294 0.930 . S
C287 C286 1.394 . S
C287 C288 1.383 . S
C287 H295 0.929 . S
C288 C287 1.383 . S
C288 C289 1.377 . S
C289 H273 0.930 . S
C289 C288 1.377 . S
C289 C290 1.379 . S
C290 H274 0.931 . S
C290 C284 1.383 . S
C290 C289 1.379 . S
H291 C285 0.959 . S
H292 C285 0.961 . S
H293 C285 0.960 . S
H294 C286 0.930 . S
H295 C287 0.929 . S
H296 C304 0.929 . S
H297 C306 0.930 . S
H298 C308 0.930 . S
H299 C311 0.929 . S
H300 C314 0.930 . S
H301 C316 0.960 . S
H302 C316 0.960 . S
H303 C316 0.960 . S
C304 H296 0.929 . S
C304 C305 1.377 . S
C304 C306 1.384 . S
C305 C304 1.377 . S
C305 C311 1.390 . S
C306 H297 0.930 . S
C306 C304 1.384 . S
C306 C307 1.372 . S
C307 C306 1.372 . S
C307 C308 1.400 . S
C307 C312 1.490 . S
C308 H298 0.930 . S
C308 C307 1.400 . S
C308 C311 1.386 . S
H309 C325 0.930 . S
H310 C326 0.931 . S
C311 H299 0.929 . S
C311 C305 1.390 . S
C311 C308 1.386 . S
C312 C307 1.490 . S
C312 C314 1.395 . S
C312 C315 1.403 . S
H313 C319 0.930 . S
C314 H300 0.930 . S
C314 C312 1.395 . S
C314 C317 1.403 . S
C315 C312 1.403 . S
C315 C316 1.524 . S
C315 C319 1.400 . S
C316 H301 0.960 . S
C316 H302 0.960 . S
C316 H303 0.960 . S
C316 C315 1.524 . S
C317 C314 1.403 . S
C317 C318 1.392 . S
C317 C321 1.495 . S
C318 C317 1.392 . S
C318 C319 1.385 . S
C318 C320 1.478 . S
C319 H313 0.930 . S
C319 C315 1.400 . S
C319 C318 1.385 . S
C320 C318 1.478 . S
C320 C322 1.381 . S
C320 C326 1.383 . S
C321 C317 1.495 . S
C321 H327 0.959 . S
C321 H328 0.961 . S
C321 H329 0.960 . S
C322 C320 1.381 . S
C322 C323 1.394 . S
C322 H330 0.930 . S
C323 C322 1.394 . S
C323 C324 1.383 . S
C323 H331 0.929 . S
C324 C323 1.383 . S
C324 C325 1.377 . S
C325 H309 0.930 . S
C325 C324 1.377 . S
C325 C326 1.379 . S
C326 H310 0.931 . S
C326 C320 1.383 . S
C326 C325 1.379 . S
H327 C321 0.959 . S
H328 C321 0.961 . S
H329 C321 0.960 . S
H330 C322 0.930 . S
H331 C323 0.929 . S
H332 C340 0.929 . S
H333 C342 0.930 . S
H334 C344 0.930 . S
H335 C347 0.929 . S
H336 C350 0.930 . S
H337 C352 0.960 . S
H338 C352 0.960 . S
H339 C352 0.960 . S
C340 H332 0.929 . S
C340 C341 1.377 . S
C340 C342 1.384 . S
C341 C340 1.377 . S
C341 C347 1.390 . S
C342 H333 0.930 . S
C342 C340 1.384 . S
C342 C343 1.372 . S
C343 C342 1.372 . S
C343 C344 1.400 . S
C343 C348 1.490 . S
C344 H334 0.930 . S
C344 C343 1.400 . S
C344 C347 1.386 . S
H345 C361 0.930 . S
H346 C362 0.931 . S
C347 H335 0.929 . S
C347 C341 1.390 . S
C347 C344 1.386 . S
C348 C343 1.490 . S
C348 C350 1.395 . S
C348 C351 1.403 . S
H349 C355 0.930 . S
C350 H336 0.930 . S
C350 C348 1.395 . S
C350 C353 1.403 . S
C351 C348 1.403 . S
C351 C352 1.524 . S
C351 C355 1.400 . S
C352 H337 0.960 . S
C352 H338 0.960 . S
C352 H339 0.960 . S
C352 C351 1.524 . S
C353 C350 1.403 . S
C353 C354 1.392 . S
C353 C357 1.495 . S
C354 C353 1.392 . S
C354 C355 1.385 . S
C354 C356 1.478 . S
C355 H349 0.930 . S
C355 C351 1.400 . S
C355 C354 1.385 . S
C356 C354 1.478 . S
C356 C358 1.381 . S
C356 C362 1.383 . S
C357 C353 1.495 . S
C357 H363 0.959 . S
C357 H364 0.961 . S
C357 H365 0.960 . S
C358 C356 1.381 . S
C358 C359 1.394 . S
C358 H366 0.930 . S
C359 C358 1.394 . S
C359 C360 1.383 . S
C359 H367 0.929 . S
C360 C359 1.383 . S
C360 C361 1.377 . S
C361 H345 0.930 . S
C361 C360 1.377 . S
C361 C362 1.379 . S
C362 H346 0.931 . S
C362 C356 1.383 . S
C362 C361 1.379 . S
H363 C357 0.959 . S
H364 C357 0.961 . S
H365 C357 0.960 . S
H366 C358 0.930 . S
H367 C359 0.929 . S
H368 C376 0.929 . S
H369 C378 0.930 . S
H370 C380 0.930 . S
H371 C383 0.929 . S
H372 C386 0.930 . S
H373 C388 0.960 . S
H374 C388 0.960 . S
H375 C388 0.960 . S
C376 H368 0.929 . S
C376 C377 1.377 . S
C376 C378 1.384 . S
C377 C376 1.377 . S
C377 C383 1.390 . S
C378 H369 0.930 . S
C378 C376 1.384 . S
C378 C379 1.372 . S
C379 C378 1.372 . S
C379 C380 1.400 . S
C379 C384 1.490 . S
C380 H370 0.930 . S
C380 C379 1.400 . S
C380 C383 1.386 . S
H381 C397 0.930 . S
H382 C398 0.931 . S
C383 H371 0.929 . S
C383 C377 1.390 . S
C383 C380 1.386 . S
C384 C379 1.490 . S
C384 C386 1.395 . S
C384 C387 1.403 . S
H385 C391 0.930 . S
C386 H372 0.930 . S
C386 C384 1.395 . S
C386 C389 1.403 . S
C387 C384 1.403 . S
C387 C388 1.524 . S
C387 C391 1.400 . S
C388 H373 0.960 . S
C388 H374 0.960 . S
C388 H375 0.960 . S
C388 C387 1.524 . S
C389 C386 1.403 . S
C389 C390 1.392 . S
C389 C393 1.495 . S
C390 C389 1.392 . S
C390 C391 1.385 . S
C390 C392 1.478 . S
C391 H385 0.930 . S
C391 C387 1.400 . S
C391 C390 1.385 . S
C392 C390 1.478 . S
C392 C394 1.381 . S
C392 C398 1.383 . S
C393 C389 1.495 . S
C393 H399 0.959 . S
C393 H400 0.961 . S
C393 H401 0.960 . S
C394 C392 1.381 . S
C394 C395 1.394 . S
C394 H402 0.930 . S
C395 C394 1.394 . S
C395 C396 1.383 . S
C395 H403 0.929 . S
C396 C395 1.383 . S
C396 C397 1.377 . S
C397 H381 0.930 . S
C397 C396 1.377 . S
C397 C398 1.379 . S
C398 H382 0.931 . S
C398 C392 1.383 . S
C398 C397 1.379 . S
H399 C393 0.959 . S
H400 C393 0.961 . S
H401 C393 0.960 . S
H402 C394 0.930 . S
H403 C395 0.929 . S
H404 C412 0.929 . S
H405 C414 0.930 . S
H406 C416 0.930 . S
H407 C419 0.929 . S
H408 C422 0.930 . S
H409 C424 0.960 . S
H410 C424 0.960 . S
H411 C424 0.960 . S
C412 H404 0.929 . S
C412 C413 1.377 . S
C412 C414 1.384 . S
C413 C412 1.377 . S
C413 C419 1.390 . S
C414 H405 0.930 . S
C414 C412 1.384 . S
C414 C415 1.372 . S
C415 C414 1.372 . S
C415 C416 1.400 . S
C415 C420 1.490 . S
C416 H406 0.930 . S
C416 C415 1.400 . S
C416 C419 1.386 . S
H417 C433 0.930 . S
H418 C434 0.931 . S
C419 H407 0.929 . S
C419 C413 1.390 . S
C419 C416 1.386 . S
C420 C415 1.490 . S
C420 C422 1.395 . S
C420 C423 1.403 . S
H421 C427 0.930 . S
C422 H408 0.930 . S
C422 C420 1.395 . S
C422 C425 1.403 . S
C423 C420 1.403 . S
C423 C424 1.524 . S
C423 C427 1.400 . S
C424 H409 0.960 . S
C424 H410 0.960 . S
C424 H411 0.960 . S
C424 C423 1.524 . S
C425 C422 1.403 . S
C425 C426 1.392 . S
C425 C429 1.495 . S
C426 C425 1.392 . S
C426 C427 1.385 . S
C426 C428 1.478 . S
C427 H421 0.930 . S
C427 C423 1.400 . S
C427 C426 1.385 . S
C428 C426 1.478 . S
C428 C430 1.381 . S
C428 C434 1.383 . S
C429 C425 1.495 . S
C429 H435 0.959 . S
C429 H436 0.961 . S
C429 H437 0.960 . S
C430 C428 1.381 . S
C430 C431 1.394 . S
C430 H438 0.930 . S
C431 C430 1.394 . S
C431 C432 1.383 . S
C431 H439 0.929 . S
C432 C431 1.383 . S
C432 C433 1.377 . S
C433 H417 0.930 . S
C433 C432 1.377 . S
C433 C434 1.379 . S
C434 H418 0.931 . S
C434 C428 1.383 . S
C434 C433 1.379 . S
H435 C429 0.959 . S
H436 C429 0.961 . S
H437 C429 0.960 . S
H438 C430 0.930 . S
H439 C431 0.929 . S
H440 C448 0.929 . S
H441 C450 0.930 . S
H442 C452 0.930 . S
H443 C455 0.929 . S
H444 C458 0.930 . S
H445 C460 0.960 . S
H446 C460 0.960 . S
H447 C460 0.960 . S
C448 H440 0.929 . S
C448 C449 1.377 . S
C448 C450 1.384 . S
C449 C448 1.377 . S
C449 C455 1.390 . S
C450 H441 0.930 . S
C450 C448 1.384 . S
C450 C451 1.372 . S
C451 C450 1.372 . S
C451 C452 1.400 . S
C451 C456 1.490 . S
C452 H442 0.930 . S
C452 C451 1.400 . S
C452 C455 1.386 . S
H453 C469 0.930 . S
H454 C470 0.931 . S
C455 H443 0.929 . S
C455 C449 1.390 . S
C455 C452 1.386 . S
C456 C451 1.490 . S
C456 C458 1.395 . S
C456 C459 1.403 . S
H457 C463 0.930 . S
C458 H444 0.930 . S
C458 C456 1.395 . S
C458 C461 1.403 . S
C459 C456 1.403 . S
C459 C460 1.524 . S
C459 C463 1.400 . S
C460 H445 0.960 . S
C460 H446 0.960 . S
C460 H447 0.960 . S
C460 C459 1.524 . S
C461 C458 1.403 . S
C461 C462 1.392 . S
C461 C465 1.495 . S
C462 C461 1.392 . S
C462 C463 1.385 . S
C462 C464 1.478 . S
C463 H457 0.930 . S
C463 C459 1.400 . S
C463 C462 1.385 . S
C464 C462 1.478 . S
C464 C466 1.381 . S
C464 C470 1.383 . S
C465 C461 1.495 . S
C465 H471 0.959 . S
C465 H472 0.961 . S
C465 H473 0.960 . S
C466 C464 1.381 . S
C466 C467 1.394 . S
C466 H474 0.930 . S
C467 C466 1.394 . S
C467 C468 1.383 . S
C467 H475 0.929 . S
C468 C467 1.383 . S
C468 C469 1.377 . S
C469 H453 0.930 . S
C469 C468 1.377 . S
C469 C470 1.379 . S
C470 H454 0.931 . S
C470 C464 1.383 . S
C470 C469 1.379 . S
H471 C465 0.959 . S
H472 C465 0.961 . S
H473 C465 0.960 . S
H474 C466 0.930 . S
H475 C467 0.929 . S
H476 C484 0.929 . S
H477 C486 0.930 . S
H478 C488 0.930 . S
H479 C491 0.929 . S
H480 C494 0.930 . S
H481 C496 0.960 . S
H482 C496 0.960 . S
H483 C496 0.960 . S
C484 H476 0.929 . S
C484 C485 1.377 . S
C484 C486 1.384 . S
C485 C484 1.377 . S
C485 C491 1.390 . S
C486 H477 0.930 . S
C486 C484 1.384 . S
C486 C487 1.372 . S
C487 C486 1.372 . S
C487 C488 1.400 . S
C487 C492 1.490 . S
C488 H478 0.930 . S
C488 C487 1.400 . S
C488 C491 1.386 . S
H489 C505 0.930 . S
H490 C506 0.931 . S
C491 H479 0.929 . S
C491 C485 1.390 . S
C491 C488 1.386 . S
C492 C487 1.490 . S
C492 C494 1.395 . S
C492 C495 1.403 . S
H493 C499 0.930 . S
C494 H480 0.930 . S
C494 C492 1.395 . S
C494 C497 1.403 . S
C495 C492 1.403 . S
C495 C496 1.524 . S
C495 C499 1.400 . S
C496 H481 0.960 . S
C496 H482 0.960 . S
C496 H483 0.960 . S
C496 C495 1.524 . S
C497 C494 1.403 . S
C497 C498 1.392 . S
C497 C501 1.495 . S
C498 C497 1.392 . S
C498 C499 1.385 . S
C498 C500 1.478 . S
C499 H493 0.930 . S
C499 C495 1.400 . S
C499 C498 1.385 . S
C500 C498 1.478 . S
C500 C502 1.381 . S
C500 C506 1.383 . S
C501 C497 1.495 . S
C501 H507 0.959 . S
C501 H508 0.961 . S
C501 H509 0.960 . S
C502 C500 1.381 . S
C502 C503 1.394 . S
C502 H510 0.930 . S
C503 C502 1.394 . S
C503 C504 1.383 . S
C503 H511 0.929 . S
C504 C503 1.383 . S
C504 C505 1.377 . S
C505 H489 0.930 . S
C505 C504 1.377 . S
C505 C506 1.379 . S
C506 H490 0.931 . S
C506 C500 1.383 . S
C506 C505 1.379 . S
H507 C501 0.959 . S
H508 C501 0.961 . S
H509 C501 0.960 . S
H510 C502 0.930 . S
H511 C503 0.929 . S
H512 C520 0.929 . S
H513 C522 0.930 . S
H514 C524 0.930 . S
H515 C527 0.929 . S
H516 C530 0.930 . S
H517 C532 0.960 . S
H518 C532 0.960 . S
H519 C532 0.960 . S
C520 H512 0.929 . S
C520 C521 1.377 . S
C520 C522 1.384 . S
C521 C520 1.377 . S
C521 C527 1.390 . S
C522 H513 0.930 . S
C522 C520 1.384 . S
C522 C523 1.372 . S
C523 C522 1.372 . S
C523 C524 1.400 . S
C523 C528 1.490 . S
C524 H514 0.930 . S
C524 C523 1.400 . S
C524 C527 1.386 . S
H525 C541 0.930 . S
H526 C542 0.931 . S
C527 H515 0.929 . S
C527 C521 1.390 . S
C527 C524 1.386 . S
C528 C523 1.490 . S
C528 C530 1.395 . S
C528 C531 1.403 . S
H529 C535 0.930 . S
C530 H516 0.930 . S
C530 C528 1.395 . S
C530 C533 1.403 . S
C531 C528 1.403 . S
C531 C532 1.524 . S
C531 C535 1.400 . S
C532 H517 0.960 . S
C532 H518 0.960 . S
C532 H519 0.960 . S
C532 C531 1.524 . S
C533 C530 1.403 . S
C533 C534 1.392 . S
C533 C537 1.495 . S
C534 C533 1.392 . S
C534 C535 1.385 . S
C534 C536 1.478 . S
C535 H529 0.930 . S
C535 C531 1.400 . S
C535 C534 1.385 . S
C536 C534 1.478 . S
C536 C538 1.381 . S
C536 C542 1.383 . S
C537 C533 1.495 . S
C537 H543 0.959 . S
C537 H544 0.961 . S
C537 H545 0.960 . S
C538 C536 1.381 . S
C538 C539 1.394 . S
C538 H546 0.930 . S
C539 C538 1.394 . S
C539 C540 1.383 . S
C539 H547 0.929 . S
C540 C539 1.383 . S
C540 C541 1.377 . S
C541 H525 0.930 . S
C541 C540 1.377 . S
C541 C542 1.379 . S
C542 H526 0.931 . S
C542 C536 1.383 . S
C542 C541 1.379 . S
H543 C537 0.959 . S
H544 C537 0.961 . S
H545 C537 0.960 . S
H546 C538 0.930 . S
H547 C539 0.929 . S
C144 C52 1.507 . S
C125 C40 1.510 . S
C161 C4 1.513 . S
C180 C95 1.515 . S
C197 C16 1.508 . S
C216 C61 1.508 . S
C233 C28 1.507 . S
C252 C86 1.506 . S
C288 C48 1.557 . S
C269 C9 1.542 . S
C324 C90 1.535 . S
C305 C18 1.543 . S
C341 C33 1.540 . S
C360 C56 1.547 . S
C377 C45 1.531 . S
C396 C82 1.544 . S
C432 C111 1.479 . S
C413 C21 1.464 . S
C468 C77 1.465 . S
C449 C30 1.461 . S
C504 C99 1.470 . S
C485 C42 1.477 . S
C521 C6 1.461 . S
C540 C65 1.465 . S
