# Generated by pormake.
# Topology the, (3,8)-cn, num edge types: 1
# Building blocks:
#     Node 0, Type 0, BuildingBlock: MIDCAF_clean_linker_0, # of connection points: 3
#     Node 1, Type 0, BuildingBlock: MIDCAF_clean_linker_0, # of connection points: 3
#     Node 2, Type 0, BuildingBlock: MIDCAF_clean_linker_0, # of connection points: 3
#     Node 3, Type 0, BuildingBlock: MIDCAF_clean_linker_0, # of connection points: 3
#     Node 4, Type 0, BuildingBlock: MIDCAF_clean_linker_0, # of connection points: 3
#     Node 5, Type 0, BuildingBlock: MIDCAF_clean_linker_0, # of connection points: 3
#     Node 6, Type 0, BuildingBlock: MIDCAF_clean_linker_0, # of connection points: 3
#     Node 7, Type 0, BuildingBlock: MIDCAF_clean_linker_0, # of connection points: 3
#     Node 8, Type 1, BuildingBlock: GIZVER_clean_sbu_0, # of connection points: 8
#     Node 9, Type 1, BuildingBlock: GIZVER_clean_sbu_0, # of connection points: 8
#     Node 10, Type 1, BuildingBlock: GIZVER_clean_sbu_0, # of connection points: 8
#     Edge 11, Type (0, 1), BuildingBlock: UVAHIK_clean_linker_0, # of connection points: 2
#     Edge 12, Type (0, 1), BuildingBlock: UVAHIK_clean_linker_0, # of connection points: 2
#     Edge 13, Type (0, 1), BuildingBlock: UVAHIK_clean_linker_0, # of connection points: 2
#     Edge 14, Type (0, 1), BuildingBlock: UVAHIK_clean_linker_0, # of connection points: 2
#     Edge 15, Type (0, 1), BuildingBlock: UVAHIK_clean_linker_0, # of connection points: 2
#     Edge 16, Type (0, 1), BuildingBlock: UVAHIK_clean_linker_0, # of connection points: 2
#     Edge 17, Type (0, 1), BuildingBlock: UVAHIK_clean_linker_0, # of connection points: 2
#     Edge 18, Type (0, 1), BuildingBlock: UVAHIK_clean_linker_0, # of connection points: 2
#     Edge 19, Type (0, 1), BuildingBlock: UVAHIK_clean_linker_0, # of connection points: 2
#     Edge 20, Type (0, 1), BuildingBlock: UVAHIK_clean_linker_0, # of connection points: 2
#     Edge 21, Type (0, 1), BuildingBlock: UVAHIK_clean_linker_0, # of connection points: 2
#     Edge 22, Type (0, 1), BuildingBlock: UVAHIK_clean_linker_0, # of connection points: 2
#     Edge 23, Type (0, 1), BuildingBlock: UVAHIK_clean_linker_0, # of connection points: 2
#     Edge 24, Type (0, 1), BuildingBlock: UVAHIK_clean_linker_0, # of connection points: 2
#     Edge 25, Type (0, 1), BuildingBlock: UVAHIK_clean_linker_0, # of connection points: 2
#     Edge 26, Type (0, 1), BuildingBlock: UVAHIK_clean_linker_0, # of connection points: 2
#     Edge 27, Type (0, 1), BuildingBlock: UVAHIK_clean_linker_0, # of connection points: 2
#     Edge 28, Type (0, 1), BuildingBlock: UVAHIK_clean_linker_0, # of connection points: 2
#     Edge 29, Type (0, 1), BuildingBlock: UVAHIK_clean_linker_0, # of connection points: 2
#     Edge 30, Type (0, 1), BuildingBlock: UVAHIK_clean_linker_0, # of connection points: 2
#     Edge 31, Type (0, 1), BuildingBlock: UVAHIK_clean_linker_0, # of connection points: 2
#     Edge 32, Type (0, 1), BuildingBlock: UVAHIK_clean_linker_0, # of connection points: 2
#     Edge 33, Type (0, 1), BuildingBlock: UVAHIK_clean_linker_0, # of connection points: 2
#     Edge 34, Type (0, 1), BuildingBlock: UVAHIK_clean_linker_0, # of connection points: 2
# Relax obj value: 0.044
# Max RMSD: 0.139
# Mean RMSD: 0.063
data_MOF--net-the--node1-GIZVER_clean_sbu_0--node2-MIDCAF_clean_linker_0--edge1-UVAHIK_clean_linker_0
_symmetry_space_group_name_H-M    P1
_symmetry_Int_Tables_number       1
_symmetry_cell_setting            triclinic
loop_
_symmetry_equiv_pos_as_xyz
'x, y, z'
_cell_length_a     61.467941
_cell_length_b     58.034499
_cell_length_c     53.87489
_cell_angle_alpha  86.630502
_cell_angle_beta   93.296493
_cell_angle_gamma 99.835875
loop_
_atom_site_label
_atom_site_type_symbol
_atom_site_fract_x
_atom_site_fract_y
_atom_site_fract_z
_atom_type_partial_charge
C0 C 0.23758 0.35726 0.39998 0.0
C1 C 0.23565 0.35235 0.42565 0.0
C2 C 0.25304 0.34461 0.43987 0.0
C3 C 0.27187 0.34101 0.42838 0.0
H4 H 0.30531 0.28513 0.42654 0.0
H5 H 0.32035 0.25093 0.44248 0.0
H6 H 0.37145 0.26589 0.38917 0.0
H7 H 0.35599 0.29995 0.37259 0.0
H8 H 0.3401 0.33104 0.32109 0.0
H9 H 0.35309 0.35271 0.28303 0.0
H10 H 0.32462 0.41168 0.30298 0.0
H11 H 0.31134 0.39001 0.34096 0.0
H12 H 0.2576 0.35772 0.36866 0.0
H13 H 0.2243 0.36339 0.38878 0.0
H14 H 0.25179 0.34077 0.45971 0.0
H15 H 0.2849 0.33447 0.43963 0.0
N16 N 0.3027 0.32205 0.39966 0.0
N17 N 0.32659 0.32757 0.36671 0.0
N18 N 0.29992 0.35184 0.36897 0.0
C19 C 0.31954 0.31564 0.38802 0.0
C20 C 0.31692 0.34579 0.35717 0.0
C21 C 0.29281 0.34002 0.39028 0.0
C22 C 0.32941 0.29532 0.3982 0.0
C23 C 0.31982 0.28127 0.4182 0.0
C24 C 0.32853 0.26168 0.4275 0.0
C25 C 0.34712 0.2557 0.41715 0.0
C26 C 0.35692 0.26987 0.39734 0.0
C27 C 0.34812 0.28946 0.38792 0.0
C28 C 0.3247 0.35881 0.33405 0.0
C29 C 0.33658 0.34861 0.31738 0.0
C30 C 0.3439 0.36093 0.29553 0.0
C31 C 0.3398 0.38381 0.29015 0.0
C32 C 0.32804 0.39408 0.30681 0.0
C33 C 0.32038 0.38162 0.32846 0.0
C34 C 0.27375 0.34563 0.40261 0.0
C35 C 0.25662 0.35419 0.38857 0.0
C36 C 0.66735 0.23917 0.35424 0.0
C37 C 0.64937 0.22644 0.34079 0.0
C38 C 0.6436 0.23507 0.31681 0.0
C39 C 0.65498 0.25615 0.30685 0.0
H40 H 0.63985 0.31534 0.26667 0.0
H41 H 0.62076 0.33353 0.23227 0.0
H42 H 0.6824 0.37664 0.2122 0.0
H43 H 0.70139 0.35903 0.24758 0.0
H44 H 0.73349 0.3696 0.3032 0.0
H45 H 0.76796 0.38914 0.32271 0.0
H46 H 0.77682 0.32447 0.36264 0.0
H47 H 0.74229 0.30477 0.3432 0.0
H48 H 0.69241 0.2698 0.35516 0.0
H49 H 0.67215 0.2332 0.37284 0.0
H50 H 0.63023 0.22552 0.30562 0.0
H51 H 0.64985 0.26226 0.2884 0.0
N52 N 0.67401 0.30298 0.29062 0.0
N53 N 0.70345 0.33449 0.29086 0.0
N54 N 0.70364 0.30267 0.31994 0.0
C55 C 0.68362 0.32412 0.28089 0.0
C56 C 0.71358 0.32388 0.31042 0.0
C57 C 0.68385 0.29208 0.31005 0.0
C58 C 0.6722 0.33564 0.25986 0.0
C59 C 0.64939 0.3287 0.25494 0.0
C60 C 0.63843 0.33905 0.23501 0.0
C61 C 0.64999 0.35643 0.21911 0.0
C62 C 0.67284 0.36352 0.22413 0.0
C63 C 0.68379 0.35335 0.24438 0.0
C64 C 0.735 0.33559 0.32166 0.0
C65 C 0.74278 0.35945 0.31604 0.0
C66 C 0.7625 0.37072 0.32731 0.0
C67 C 0.77507 0.35836 0.34426 0.0
C68 C 0.76757 0.33441 0.34952 0.0
C69 C 0.7477 0.32318 0.33848 0.0
C70 C 0.67265 0.26913 0.32044 0.0
C71 C 0.67892 0.26023 0.34413 0.0
C72 C 0.67474 0.6577 0.24512 0.0
C73 C 0.6573 0.66619 0.23154 0.0
C74 C 0.6514 0.68729 0.2382 0.0
C75 C 0.66241 0.69936 0.25832 0.0
H76 H 0.657 0.75121 0.30684 0.0
H77 H 0.64189 0.78229 0.32483 0.0
H78 H 0.69303 0.78657 0.38361 0.0
H79 H 0.70796 0.75527 0.36596 0.0
H80 H 0.73621 0.71214 0.37346 0.0
H81 H 0.76844 0.69792 0.39352 0.0
H82 H 0.7809 0.66907 0.32474 0.0
H83 H 0.74851 0.68292 0.30467 0.0
H84 H 0.69912 0.66261 0.27509 0.0
H85 H 0.67986 0.64165 0.24028 0.0
H86 H 0.63794 0.69421 0.2282 0.0
H87 H 0.65725 0.7154 0.26313 0.0
N88 N 0.68288 0.7207 0.30364 0.0
N89 N 0.71122 0.72407 0.33501 0.0
N90 N 0.7096 0.69614 0.30494 0.0
C91 C 0.69286 0.73136 0.32418 0.0
C92 C 0.71976 0.70657 0.32544 0.0
C93 C 0.69111 0.70301 0.29394 0.0
C94 C 0.68372 0.75058 0.33491 0.0
C95 C 0.66507 0.75874 0.3236 0.0
C96 C 0.65646 0.77671 0.33384 0.0
C97 C 0.66623 0.78698 0.35569 0.0
C98 C 0.6849 0.77889 0.36695 0.0
C99 C 0.69355 0.76097 0.3567 0.0
C100 C 0.73972 0.69862 0.33746 0.0
C101 C 0.74585 0.70285 0.36256 0.0
C102 C 0.76424 0.69464 0.37409 0.0
C103 C 0.77716 0.68242 0.36067 0.0
C104 C 0.77132 0.67858 0.33547 0.0
C105 C 0.75269 0.6864 0.32405 0.0
C106 C 0.67974 0.69073 0.27208 0.0
C107 C 0.68587 0.66984 0.26503 0.0
C108 C 0.22856 0.66952 0.35638 0.0
C109 C 0.21506 0.65245 0.34229 0.0
C110 C 0.22245 0.64714 0.31939 0.0
C111 C 0.24297 0.6581 0.31113 0.0
H112 H 0.28995 0.64696 0.26501 0.0
H113 H 0.30648 0.62813 0.23344 0.0
H114 H 0.3666 0.67844 0.24164 0.0
H115 H 0.34998 0.69765 0.2729 0.0
H116 H 0.3546 0.73346 0.31589 0.0
H117 H 0.37546 0.7676 0.33567 0.0
H118 H 0.31698 0.77764 0.37149 0.0
H119 H 0.29593 0.74346 0.35166 0.0
H120 H 0.25914 0.69345 0.35952 0.0
H121 H 0.22359 0.67389 0.37424 0.0
H122 H 0.21234 0.63449 0.30773 0.0
H123 H 0.24812 0.65337 0.2935 0.0
N124 N 0.28806 0.67594 0.29876 0.0
N125 N 0.31991 0.70441 0.30215 0.0
N126 N 0.29036 0.70501 0.32771 0.0
C127 C 0.30858 0.68512 0.29122 0.0
C128 C 0.31091 0.71454 0.32033 0.0
C129 C 0.27882 0.6857 0.31698 0.0
C130 C 0.3186 0.67388 0.27162 0.0
C131 C 0.30669 0.65411 0.26009 0.0
C132 C 0.31621 0.64319 0.24204 0.0
C133 C 0.3379 0.65171 0.23501 0.0
C134 C 0.34976 0.67158 0.24636 0.0
C135 C 0.34024 0.68252 0.26443 0.0
C136 C 0.32354 0.73558 0.33219 0.0
C137 C 0.34609 0.74291 0.32792 0.0
C138 C 0.35812 0.76244 0.33936 0.0
C139 C 0.34789 0.77528 0.3552 0.0
C140 C 0.32529 0.76821 0.35924 0.0
C141 C 0.31327 0.74851 0.34797 0.0
C142 C 0.25661 0.67489 0.32539 0.0
C143 C 0.24904 0.68069 0.34799 0.0
C144 C 0.23895 0.63942 0.68525 0.0
C145 C 0.23322 0.64736 0.66099 0.0
C146 C 0.24682 0.66676 0.64997 0.0
C147 C 0.26564 0.67804 0.66294 0.0
H148 H 0.31491 0.73643 0.65873 0.0
H149 H 0.3361 0.77282 0.64204 0.0
H150 H 0.37103 0.78345 0.71346 0.0
H151 H 0.35042 0.74677 0.72989 0.0
H152 H 0.3331 0.70438 0.77806 0.0
H153 H 0.35126 0.68728 0.81411 0.0
H154 H 0.34335 0.6215 0.77782 0.0
H155 H 0.32346 0.63836 0.74285 0.0
H156 H 0.26184 0.64394 0.71679 0.0
H157 H 0.2289 0.62439 0.69415 0.0
H158 H 0.24276 0.67341 0.63138 0.0
H159 H 0.27565 0.69299 0.65385 0.0
N160 N 0.30157 0.70378 0.69259 0.0
N161 N 0.3271 0.70534 0.72672 0.0
N162 N 0.29957 0.67222 0.72222 0.0
C163 C 0.31942 0.71544 0.70535 0.0
C164 C 0.31738 0.68374 0.73518 0.0
C165 C 0.29139 0.68228 0.70101 0.0
C166 C 0.33106 0.7385 0.69562 0.0
C167 C 0.32701 0.7466 0.67094 0.0
C168 C 0.33911 0.76757 0.66138 0.0
C169 C 0.35545 0.78108 0.67631 0.0
C170 C 0.35896 0.77331 0.70122 0.0
C171 C 0.34701 0.75227 0.71071 0.0
C172 C 0.32691 0.67268 0.75772 0.0
C173 C 0.33501 0.68615 0.77807 0.0
C174 C 0.34569 0.67633 0.79865 0.0
C175 C 0.34932 0.65295 0.79905 0.0
C176 C 0.34071 0.63939 0.77869 0.0
C177 C 0.32938 0.64907 0.75846 0.0
C178 C 0.27149 0.67006 0.68718 0.0
C179 C 0.25793 0.65055 0.69814 0.0
C180 C 0.24299 0.34025 0.67011 0.0
C181 C 0.23076 0.3284 0.65045 0.0
C182 C 0.23684 0.30762 0.64317 0.0
C183 C 0.25506 0.29919 0.65488 0.0
H184 H 0.29426 0.2496 0.64982 0.0
H185 H 0.30882 0.219 0.6305 0.0
H186 H 0.3674 0.2308 0.67943 0.0
H187 H 0.35262 0.26112 0.69925 0.0
H188 H 0.35093 0.29402 0.74698 0.0
H189 H 0.37089 0.31529 0.78153 0.0
H190 H 0.33055 0.36923 0.76862 0.0
H191 H 0.31068 0.34822 0.73421 0.0
H192 H 0.27021 0.34156 0.69681 0.0
H193 H 0.23855 0.35615 0.6764 0.0
H194 H 0.22787 0.29818 0.62796 0.0
H195 H 0.25946 0.28331 0.64851 0.0
N196 N 0.29514 0.28472 0.67688 0.0
N197 N 0.3246 0.28855 0.70691 0.0
N198 N 0.29859 0.3139 0.70577 0.0
C199 C 0.31369 0.2774 0.68712 0.0
C200 C 0.31711 0.30682 0.71638 0.0
C201 C 0.28745 0.30293 0.68608 0.0
C202 C 0.32228 0.258 0.67609 0.0
C203 C 0.31022 0.24567 0.6566 0.0
C204 C 0.31864 0.22815 0.64537 0.0
C205 C 0.33937 0.22249 0.65325 0.0
C206 C 0.35127 0.2345 0.67304 0.0
C207 C 0.34282 0.25201 0.68434 0.0
C208 C 0.32919 0.31938 0.73769 0.0
C209 C 0.3463 0.31041 0.7515 0.0
C210 C 0.35766 0.32251 0.7714 0.0
C211 C 0.35235 0.34399 0.77776 0.0
C212 C 0.33522 0.35288 0.76402 0.0
C213 C 0.32373 0.34071 0.74434 0.0
C214 C 0.26755 0.31128 0.67427 0.0
C215 C 0.2611 0.33178 0.68191 0.0
C216 C 0.68015 0.24872 0.64263 0.0
C217 C 0.66176 0.23501 0.65363 0.0
C218 C 0.65547 0.24124 0.67666 0.0
C219 C 0.6671 0.26095 0.68825 0.0
H220 H 0.65889 0.31091 0.73824 0.0
H221 H 0.6421 0.32964 0.76978 0.0
H222 H 0.70201 0.38019 0.77847 0.0
H223 H 0.71866 0.36186 0.74664 0.0
H224 H 0.76029 0.3572 0.71618 0.0
H225 H 0.79563 0.37689 0.70141 0.0
H226 H 0.78254 0.3407 0.63287 0.0
H227 H 0.74752 0.32027 0.64813 0.0
H228 H 0.70597 0.27841 0.64523 0.0
H229 H 0.68552 0.24425 0.62499 0.0
H230 H 0.64126 0.23114 0.6855 0.0
H231 H 0.66167 0.26534 0.70588 0.0
N232 N 0.689 0.30494 0.70845 0.0
N233 N 0.72017 0.33441 0.71132 0.0
N234 N 0.71779 0.30635 0.68128 0.0
C235 C 0.70008 0.32431 0.7195 0.0
C236 C 0.72916 0.32559 0.69226 0.0
C237 C 0.69775 0.29581 0.68935 0.0
C238 C 0.69014 0.33488 0.7397 0.0
C239 C 0.66855 0.32595 0.74692 0.0
C240 C 0.65894 0.33664 0.76514 0.0
C241 C 0.67065 0.35651 0.77665 0.0
C242 C 0.69235 0.36517 0.76974 0.0
C243 C 0.70196 0.35452 0.75152 0.0
C244 C 0.75096 0.33718 0.68333 0.0
C245 C 0.76494 0.35337 0.69797 0.0
C246 C 0.78522 0.3648 0.68941 0.0
C247 C 0.792 0.3606 0.66581 0.0
C248 C 0.7781 0.34419 0.65127 0.0
C249 C 0.7579 0.33254 0.65998 0.0
C250 C 0.68547 0.27474 0.67721 0.0
C251 C 0.69193 0.26826 0.65433 0.0
C252 C 0.66763 0.66233 0.7223 0.0
C253 C 0.67886 0.64667 0.73667 0.0
C254 C 0.70102 0.64606 0.73222 0.0
C255 C 0.71159 0.66039 0.71329 0.0
H256 H 0.75346 0.6536 0.6569 0.0
H257 H 0.78158 0.63916 0.63489 0.0
H258 H 0.79356 0.70435 0.591 0.0
H259 H 0.76551 0.71896 0.61296 0.0
H260 H 0.71498 0.73367 0.5968 0.0
H261 H 0.69835 0.76438 0.57413 0.0
H262 H 0.66846 0.77832 0.64102 0.0
H263 H 0.68486 0.74721 0.66388 0.0
H264 H 0.66906 0.68851 0.69252 0.0
H265 H 0.65059 0.6633 0.72557 0.0
H266 H 0.71002 0.63406 0.74298 0.0
H267 H 0.72858 0.65919 0.71004 0.0
N268 N 0.72916 0.68348 0.66812 0.0
N269 N 0.72944 0.71299 0.63661 0.0
N270 N 0.7021 0.70769 0.66597 0.0
C271 C 0.7385 0.69515 0.64779 0.0
C272 C 0.71133 0.71941 0.64556 0.0
C273 C 0.71102 0.68969 0.67738 0.0
C274 C 0.75712 0.68734 0.63653 0.0
C275 C 0.76225 0.66499 0.64278 0.0
C276 C 0.7782 0.65664 0.63008 0.0
C277 C 0.78946 0.67059 0.61111 0.0
C278 C 0.78508 0.6933 0.60558 0.0
C279 C 0.76897 0.70158 0.6181 0.0
C280 C 0.70124 0.7381 0.63215 0.0
C281 C 0.70491 0.74329 0.60675 0.0
C282 C 0.69533 0.76074 0.59371 0.0
C283 C 0.68224 0.77359 0.60592 0.0
C284 C 0.67865 0.76863 0.63133 0.0
C285 C 0.68792 0.75082 0.64432 0.0
C286 C 0.70027 0.67581 0.69858 0.0
C287 C 0.67827 0.67688 0.70353 0.0
Co288 Co 0.04651 0.47475 0.51873 0.0
Co289 Co 0.02464 0.46559 0.47591 0.0
Co290 Co 0.00393 0.50346 0.502 0.0
O291 O 0.01637 0.47384 0.50658 0.0
H292 H 0.00629 0.46114 0.51423 0.0
O293 O 0.99157 0.53312 0.49741 0.0
Co294 Co 0.96114 0.53278 0.48686 0.0
Co295 Co 0.98509 0.5416 0.52887 0.0
H296 H 1.00148 0.54569 0.48932 0.0
O297 O 0.02885 0.43526 0.47099 0.0
O298 O 0.05372 0.46469 0.48624 0.0
O299 O 0.02622 0.48872 0.44866 0.0
O300 O 0.02318 0.51705 0.4736 0.0
O301 O 0.98069 0.48744 0.47816 0.0
O302 O 0.93369 0.53519 0.4765 0.0
O303 O 0.96385 0.56332 0.47575 0.0
O304 O 0.95429 0.50067 0.49595 0.0
O305 O 0.98455 0.49007 0.53036 0.0
O306 O 0.98547 0.5186 0.55625 0.0
O307 O 0.95539 0.54084 0.52057 0.0
O308 O 0.97934 0.57147 0.5346 0.0
C309 C 0.06471 0.45192 0.53716 0.0
C310 C 0.04763 0.52088 0.52191 0.0
C311 C 0.02889 0.51025 0.45314 0.0
C312 C 0.04885 0.44334 0.47903 0.0
C313 C 0.94267 0.5567 0.471 0.0
C314 C 0.96017 0.48667 0.48139 0.0
C315 C 0.9807 0.49713 0.55147 0.0
C316 C 0.95927 0.56196 0.52831 0.0
O317 O 0.07348 0.4733 0.53087 0.0
O318 O 0.04376 0.44466 0.53156 0.0
O319 O 0.02719 0.51954 0.52585 0.0
O320 O 0.05355 0.50647 0.50788 0.0
Co321 Co 0.5299 0.96055 0.491 0.0
Co322 Co 0.54021 0.97693 0.53499 0.0
Co323 Co 0.50362 0.00366 0.50767 0.0
O324 O 0.53124 0.99035 0.50495 0.0
H325 H 0.54319 1.00186 0.4987 0.0
O326 O 0.47626 0.01732 0.51009 0.0
Co327 Co 0.47794 0.04843 0.52119 0.0
Co328 Co 0.46714 0.02836 0.47847 0.0
H329 H 0.46443 0.00633 0.51735 0.0
O330 O 0.56924 0.97276 0.5413 0.0
O331 O 0.54156 0.94801 0.52297 0.0
O332 O 0.51939 0.97152 0.56072 0.0
O333 O 0.4917 0.98146 0.53621 0.0
O334 O 0.52044 0.02643 0.53147 0.0
O335 O 0.47701 0.07638 0.53224 0.0
O336 O 0.45003 0.04482 0.53202 0.0
O337 O 0.50765 0.05631 0.51231 0.0
O338 O 0.51549 0.02567 0.47919 0.0
O339 O 0.48785 0.03149 0.45242 0.0
O340 O 0.46767 0.05863 0.48766 0.0
O341 O 0.43844 0.03442 0.47168 0.0
C342 C 0.55027 0.94455 0.47126 0.0
C343 C 0.48602 0.95894 0.48729 0.0
C344 C 0.49893 0.97168 0.55622 0.0
C345 C 0.56194 0.95274 0.53166 0.0
C346 C 0.457 0.06663 0.53734 0.0
C347 C 0.52205 0.04845 0.52676 0.0
C348 C 0.50837 0.03329 0.45805 0.0
C349 C 0.44719 0.0549 0.47931 0.0
O350 O 0.53067 0.93398 0.4769 0.0
O351 O 0.55742 0.96567 0.47872 0.0
O352 O 0.48667 0.98098 0.48383 0.0
O353 O 0.50087 0.95137 0.50121 0.0
Co354 Co 0.47798 0.51711 0.05528 0.0
Co355 Co 0.46853 0.47478 0.0399 0.0
Co356 Co 0.50406 0.5052 0.00501 0.0
O357 O 0.47664 0.50375 0.02351 0.0
H358 H 0.46447 0.50758 0.01283 0.0
O359 O 0.53152 0.50622 0.98666 0.0
Co360 Co 0.53018 0.49277 0.95491 0.0
Co361 Co 0.54032 0.53487 0.97049 0.0
H362 H 0.54358 0.50218 0.99739 0.0
O363 O 0.43977 0.46439 0.04886 0.0
O364 O 0.46718 0.48588 0.07127 0.0
O365 O 0.48989 0.45391 0.04273 0.0
O366 O 0.5166 0.48102 0.02762 0.0
O367 O 0.48744 0.48029 0.98345 0.0
O368 O 0.53123 0.47949 0.9263 0.0
O369 O 0.55777 0.48533 0.95694 0.0
O370 O 0.50079 0.49787 0.94887 0.0
O371 O 0.49162 0.5297 0.98239 0.0
O372 O 0.51927 0.55573 0.96726 0.0
O373 O 0.54138 0.52382 0.93915 0.0
O374 O 0.56927 0.54444 0.96165 0.0
C375 C 0.45725 0.53255 0.07493 0.0
C376 C 0.5222 0.52694 0.05019 0.0
C377 C 0.51016 0.46147 0.03937 0.0
C378 C 0.44714 0.47415 0.06947 0.0
C379 C 0.55084 0.47705 0.9353 0.0
C380 C 0.48606 0.48343 0.9598 0.0
C381 C 0.49884 0.549 0.97046 0.0
C382 C 0.56163 0.53493 0.941 0.0
O383 O 0.47696 0.53038 0.08381 0.0
O384 O 0.45026 0.52412 0.05339 0.0
O385 O 0.52068 0.53012 0.02656 0.0
O386 O 0.50756 0.51245 0.06121 0.0
C387 C 0.19503 0.34184 0.42957 0.0
C388 C 0.21528 0.35496 0.43742 0.0
C389 C 0.17547 0.34537 0.43948 0.0
C390 C 0.15294 0.37697 0.48828 0.0
H391 H 0.10545 0.37917 0.43804 0.0
C392 C 0.08805 0.43752 0.48702 0.0
C393 C 0.06605 0.42838 0.47995 0.0
C394 C 0.10445 0.42362 0.48717 0.0
C395 C 0.11836 0.37818 0.45243 0.0
H396 H 0.23144 0.3814 0.46209 0.0
H397 H 0.19719 0.38863 0.47854 0.0
H398 H 0.13791 0.36372 0.42807 0.0
H399 H 0.0439 0.3973 0.46807 0.0
H400 H 0.07285 0.37332 0.46733 0.0
H401 H 0.13365 0.39316 0.51192 0.0
C402 C 0.19627 0.37504 0.46541 0.0
C403 C 0.13701 0.36923 0.44678 0.0
C404 C 0.21589 0.37112 0.45586 0.0
C405 C 0.06072 0.40491 0.47345 0.0
C406 C 0.07721 0.39114 0.47316 0.0
C407 C 0.13436 0.38628 0.49378 0.0
C408 C 0.17576 0.36254 0.45696 0.0
C409 C 0.15478 0.369 0.46441 0.0
C410 C 0.09924 0.40051 0.47968 0.0
C411 C 0.11718 0.3874 0.47568 0.0
H412 H 0.19435 0.32903 0.41558 0.0
H413 H 0.16007 0.335 0.43299 0.0
H414 H 0.16609 0.37662 0.50248 0.0
H415 H 0.09274 0.45555 0.49203 0.0
H416 H 0.12139 0.43133 0.49196 0.0
C417 C 0.6466 0.18842 0.36669 0.0
C418 C 0.63629 0.20455 0.35175 0.0
C419 C 0.63414 0.16787 0.37676 0.0
C420 C 0.5809 0.12803 0.36818 0.0
H421 H 0.58992 0.11021 0.43798 0.0
C422 C 0.51695 0.06213 0.42189 0.0
C423 C 0.52438 0.04809 0.44168 0.0
C424 C 0.5319 0.07894 0.40913 0.0
C425 C 0.58743 0.11461 0.41833 0.0
H426 H 0.60459 0.21184 0.33637 0.0
H427 H 0.58309 0.17595 0.35352 0.0
H428 H 0.61372 0.14405 0.41956 0.0
H429 H 0.55358 0.03979 0.46248 0.0
H430 H 0.57964 0.06864 0.43981 0.0
H431 H 0.5546 0.09869 0.36687 0.0
C432 C 0.60084 0.17903 0.35713 0.0
C433 C 0.60106 0.13409 0.40781 0.0
C434 C 0.61322 0.19962 0.34726 0.0
C435 C 0.54724 0.05039 0.44746 0.0
C436 C 0.56219 0.06711 0.43459 0.0
C437 C 0.56738 0.10845 0.37864 0.0
C438 C 0.61114 0.1629 0.37197 0.0
C439 C 0.59772 0.14123 0.38271 0.0
C440 C 0.55467 0.08204 0.4157 0.0
C441 C 0.57024 0.10167 0.40396 0.0
H442 H 0.66434 0.19146 0.37031 0.0
H443 H 0.64257 0.15568 0.38799 0.0
H444 H 0.57815 0.13289 0.34867 0.0
H445 H 0.49947 0.06096 0.41699 0.0
H446 H 0.52542 0.09024 0.39488 0.0
C447 C 0.79394 0.65986 0.39566 0.0
C448 C 0.79632 0.67315 0.37307 0.0
C449 C 0.81168 0.65031 0.40695 0.0
C450 C 0.86645 0.63549 0.39321 0.0
H451 H 0.87056 0.62444 0.46489 0.0
C452 C 0.93687 0.59427 0.44759 0.0
C453 C 0.92832 0.57349 0.46098 0.0
C454 C 0.92269 0.60935 0.43748 0.0
C455 C 0.86967 0.62758 0.44486 0.0
H456 H 0.81927 0.68745 0.34488 0.0
H457 H 0.85056 0.67166 0.36498 0.0
H458 H 0.84242 0.64585 0.44608 0.0
H459 H 0.89836 0.55262 0.47493 0.0
H460 H 0.87399 0.5793 0.45823 0.0
H461 H 0.89406 0.61738 0.39232 0.0
C462 C 0.83483 0.66788 0.3737 0.0
C463 C 0.8534 0.63963 0.43399 0.0
C464 C 0.81694 0.67707 0.3622 0.0
C465 C 0.9055 0.56844 0.46463 0.0
C466 C 0.89151 0.58376 0.4552 0.0
C467 C 0.88301 0.62383 0.40417 0.0
C468 C 0.83243 0.65415 0.39616 0.0
C469 C 0.85116 0.64327 0.40793 0.0
C470 C 0.89989 0.60419 0.44128 0.0
C471 C 0.88444 0.61933 0.43003 0.0
H472 H 0.77814 0.65631 0.40429 0.0
H473 H 0.80886 0.63943 0.42385 0.0
H474 H 0.86519 0.63756 0.37311 0.0
H475 H 0.95438 0.59859 0.44446 0.0
H476 H 0.9295 0.62505 0.42678 0.0
C477 C 0.38194 0.79425 0.37886 0.0
C478 C 0.36094 0.7957 0.36778 0.0
C479 C 0.39442 0.81338 0.39052 0.0
C480 C 0.39037 0.87002 0.41744 0.0
H481 H 0.45408 0.87972 0.41323 0.0
C482 C 0.45217 0.94885 0.45853 0.0
C483 C 0.46988 0.94193 0.47316 0.0
C484 C 0.43774 0.93249 0.44456 0.0
C485 C 0.4363 0.87722 0.41457 0.0
H486 H 0.33658 0.81846 0.36021 0.0
H487 H 0.35857 0.85212 0.38018 0.0
H488 H 0.43122 0.84861 0.39055 0.0
H489 H 0.48598 0.91225 0.48485 0.0
H490 H 0.46125 0.8842 0.46032 0.0
H491 H 0.39575 0.899 0.44141 0.0
C492 C 0.36524 0.83602 0.38027 0.0
C493 C 0.42317 0.85929 0.40171 0.0
C494 C 0.35264 0.81675 0.36877 0.0
C495 C 0.47264 0.91833 0.47373 0.0
C496 C 0.45851 0.90219 0.45958 0.0
C497 C 0.40357 0.88821 0.43012 0.0
C498 C 0.38637 0.83462 0.39121 0.0
C499 C 0.40006 0.85505 0.4034 0.0
C500 C 0.44104 0.90908 0.44468 0.0
C501 C 0.42669 0.89163 0.42923 0.0
H502 H 0.38863 0.77815 0.37882 0.0
H503 H 0.41033 0.81136 0.39927 0.0
H504 H 0.37267 0.86723 0.41935 0.0
H505 H 0.44955 0.96687 0.45775 0.0
H506 H 0.42435 0.93823 0.43322 0.0
C507 C 0.19301 0.62889 0.65857 0.0
C508 C 0.21328 0.63533 0.64705 0.0
C509 C 0.1743 0.61759 0.64533 0.0
C510 C 0.15821 0.58079 0.59195 0.0
H511 H 0.10111 0.60039 0.59374 0.0
C512 C 0.08629 0.54244 0.52619 0.0
C513 C 0.06497 0.53713 0.53534 0.0
C514 C 0.10354 0.55563 0.53979 0.0
C515 C 0.11685 0.59448 0.59327 0.0
H516 H 0.22982 0.63474 0.61269 0.0
H517 H 0.19727 0.61491 0.58968 0.0
H518 H 0.13281 0.62056 0.61803 0.0
H519 H 0.04486 0.54217 0.56565 0.0
H520 H 0.07522 0.56481 0.58988 0.0
H521 H 0.14246 0.55445 0.56777 0.0
C522 C 0.19582 0.61865 0.60892 0.0
C523 C 0.13502 0.60609 0.60716 0.0
C524 C 0.21442 0.63017 0.62204 0.0
C525 C 0.06111 0.54605 0.55808 0.0
C526 C 0.07852 0.55907 0.57193 0.0
C527 C 0.14007 0.56907 0.57831 0.0
C528 C 0.17555 0.61219 0.6204 0.0
C529 C 0.15596 0.59952 0.60642 0.0
C530 C 0.1001 0.56362 0.56317 0.0
C531 C 0.11917 0.57591 0.57848 0.0
H532 H 0.19157 0.6328 0.67776 0.0
H533 H 0.15895 0.61271 0.65472 0.0
H534 H 0.17402 0.57501 0.59136 0.0
H535 H 0.08975 0.5361 0.50855 0.0
H536 H 0.1197 0.55934 0.53202 0.0
C537 C 0.3462 0.20325 0.61439 0.0
C538 C 0.34875 0.20456 0.64042 0.0
C539 C 0.35544 0.18689 0.6022 0.0
C540 C 0.37898 0.13195 0.6126 0.0
H541 H 0.40795 0.15306 0.5513 0.0
C542 C 0.42115 0.07103 0.55571 0.0
C543 C 0.44224 0.08097 0.54773 0.0
C544 C 0.40765 0.08502 0.5657 0.0
C545 C 0.39995 0.14688 0.56842 0.0
H546 H 0.36271 0.18919 0.67404 0.0
H547 H 0.37929 0.16105 0.65273 0.0
H548 H 0.38879 0.17941 0.5719 0.0
H549 H 0.46538 0.11354 0.54342 0.0
H550 H 0.44206 0.13764 0.56073 0.0
H551 H 0.39089 0.09965 0.60946 0.0
C552 C 0.36988 0.17251 0.64175 0.0
C553 C 0.38874 0.16192 0.58011 0.0
C554 C 0.36061 0.18888 0.65396 0.0
C555 C 0.44931 0.1052 0.54953 0.0
C556 C 0.43583 0.11913 0.55926 0.0
C557 C 0.39019 0.11687 0.60086 0.0
C558 C 0.36755 0.17141 0.61568 0.0
C559 C 0.37835 0.15479 0.60254 0.0
C560 C 0.41488 0.10925 0.56761 0.0
C561 C 0.40113 0.12431 0.57884 0.0
H562 H 0.3374 0.21519 0.6033 0.0
H563 H 0.35309 0.1864 0.58215 0.0
H564 H 0.3709 0.12575 0.62965 0.0
H565 H 0.41516 0.05245 0.55442 0.0
H566 H 0.39151 0.07691 0.57178 0.0
C567 C 0.82631 0.36287 0.64144 0.0
C568 C 0.81322 0.37367 0.65626 0.0
C569 C 0.84592 0.37539 0.63209 0.0
C570 C 0.8746 0.43644 0.61926 0.0
H571 H 0.92555 0.40653 0.61213 0.0
C572 C 0.957 0.48968 0.58849 0.0
C573 C 0.96622 0.48098 0.5684 0.0
C574 C 0.94013 0.47568 0.60149 0.0
C575 C 0.91142 0.41508 0.61396 0.0
H576 H 0.81075 0.40635 0.6727 0.0
H577 H 0.84519 0.42771 0.6574 0.0
H578 H 0.89235 0.38405 0.63015 0.0
H579 H 0.96587 0.45008 0.54743 0.0
H580 H 0.93659 0.42561 0.57037 0.0
H581 H 0.8937 0.46747 0.60325 0.0
C582 C 0.84012 0.40968 0.65253 0.0
C583 C 0.89233 0.40219 0.62417 0.0
C584 C 0.82045 0.39726 0.66167 0.0
C585 C 0.95915 0.45741 0.56276 0.0
C586 C 0.94238 0.44334 0.57593 0.0
C587 C 0.89371 0.44933 0.60931 0.0
C588 C 0.85306 0.39902 0.63741 0.0
C589 C 0.87361 0.41268 0.62689 0.0
C590 C 0.9322 0.45257 0.5949 0.0
C591 C 0.91232 0.43882 0.60649 0.0
H592 H 0.82149 0.34467 0.63711 0.0
H593 H 0.85526 0.36661 0.62031 0.0
H594 H 0.86042 0.44505 0.62047 0.0
H595 H 0.96202 0.5077 0.59345 0.0
H596 H 0.93286 0.48316 0.6163 0.0
C597 C 0.67548 0.81476 0.60077 0.0
C598 C 0.67224 0.79208 0.59204 0.0
C599 C 0.66576 0.83219 0.5878 0.0
C600 C 0.61716 0.83987 0.55121 0.0
H601 H 0.64845 0.9024 0.53528 0.0
C602 C 0.56896 0.91346 0.52065 0.0
C603 C 0.57647 0.93498 0.53151 0.0
C604 C 0.58237 0.8963 0.52148 0.0
C605 C 0.63945 0.88506 0.53973 0.0
H606 H 0.65664 0.76965 0.56305 0.0
H607 H 0.63895 0.80012 0.54069 0.0
H608 H 0.66923 0.87148 0.54986 0.0
H609 H 0.60411 0.95555 0.55139 0.0
H610 H 0.62689 0.92518 0.5543 0.0
H611 H 0.58735 0.85347 0.54305 0.0
C612 C 0.64929 0.80441 0.55731 0.0
C613 C 0.65137 0.8674 0.54789 0.0
C614 C 0.65935 0.78709 0.57003 0.0
C615 C 0.59782 0.93915 0.54283 0.0
C616 C 0.61103 0.92178 0.5442 0.0
C617 C 0.60522 0.85759 0.54352 0.0
C618 C 0.65237 0.82705 0.56617 0.0
C619 C 0.64025 0.84484 0.5542 0.0
C620 C 0.60332 0.89999 0.53389 0.0
C621 C 0.61618 0.88056 0.53829 0.0
H622 H 0.68551 0.81897 0.61762 0.0
H623 H 0.66811 0.84949 0.59509 0.0
H624 H 0.60827 0.8226 0.55621 0.0
H625 H 0.55257 0.90963 0.51184 0.0
H626 H 0.57605 0.87993 0.51289 0.0
C627 C 0.35663 0.22821 0.45228 0.0
C628 C 0.35584 0.23438 0.42664 0.0
C629 C 0.36409 0.20768 0.46108 0.0
C630 C 0.39302 0.17091 0.47525 0.0
H631 H 0.37936 0.11602 0.43585 0.0
C632 C 0.44457 0.09706 0.48246 0.0
C633 C 0.43412 0.07404 0.47829 0.0
C634 C 0.43253 0.11542 0.48026 0.0
C635 C 0.38302 0.13102 0.44736 0.0
H636 H 0.36224 0.2238 0.39017 0.0
H637 H 0.37599 0.18851 0.40556 0.0
H638 H 0.36272 0.15032 0.42371 0.0
H639 H 0.40267 0.052 0.46983 0.0
H640 H 0.38157 0.08414 0.46605 0.0
H641 H 0.41322 0.15145 0.49902 0.0
C642 C 0.37042 0.19927 0.41885 0.0
C643 C 0.37376 0.15082 0.44015 0.0
C644 C 0.36288 0.21971 0.41004 0.0
C645 C 0.41123 0.06962 0.47279 0.0
C646 C 0.39916 0.08801 0.47063 0.0
C647 C 0.4022 0.15102 0.48255 0.0
C648 C 0.37098 0.19294 0.44445 0.0
C649 C 0.3791 0.1712 0.45363 0.0
C650 C 0.40977 0.11117 0.47383 0.0
C651 C 0.39773 0.13106 0.46831 0.0
H652 H 0.35156 0.23929 0.46558 0.0
H653 H 0.3642 0.20324 0.48089 0.0
H654 H 0.3975 0.18634 0.48603 0.0
H655 H 0.46219 0.10103 0.48681 0.0
H656 H 0.44128 0.13307 0.48257 0.0
C657 C 0.81502 0.36078 0.35896 0.0
C658 C 0.79559 0.37064 0.3569 0.0
C659 C 0.83429 0.37255 0.37082 0.0
C660 C 0.85963 0.43165 0.39231 0.0
H661 H 0.89814 0.39718 0.43363 0.0
C662 C 0.9207 0.47467 0.46701 0.0
C663 C 0.94285 0.47145 0.46668 0.0
C664 C 0.90426 0.46161 0.45227 0.0
C665 C 0.88766 0.40697 0.42191 0.0
H666 H 0.78095 0.40021 0.36628 0.0
H667 H 0.81414 0.42037 0.38747 0.0
H668 H 0.86621 0.37588 0.41059 0.0
H669 H 0.96491 0.45127 0.45111 0.0
H670 H 0.93576 0.4278 0.42562 0.0
H671 H 0.88056 0.46271 0.40454 0.0
C672 C 0.8149 0.40397 0.37925 0.0
C673 C 0.86938 0.39482 0.40863 0.0
C674 C 0.79577 0.39235 0.36718 0.0
C675 C 0.94803 0.45424 0.45171 0.0
C676 C 0.93139 0.4408 0.43719 0.0
C677 C 0.87766 0.44373 0.40581 0.0
C678 C 0.8345 0.39434 0.38112 0.0
C679 C 0.85489 0.40702 0.39396 0.0
C680 C 0.90941 0.44468 0.43707 0.0
C681 C 0.89166 0.43155 0.42103 0.0
H682 H 0.81541 0.34414 0.35105 0.0
H683 H 0.84908 0.36468 0.37158 0.0
H684 H 0.84931 0.44171 0.3807 0.0
H685 H 0.91598 0.48761 0.47839 0.0
H686 H 0.88741 0.46473 0.45279 0.0
C687 C 0.65538 0.80627 0.39276 0.0
C688 C 0.65685 0.80588 0.36682 0.0
C689 C 0.64602 0.82362 0.40317 0.0
C690 C 0.6075 0.86519 0.38707 0.0
H691 H 0.62945 0.89105 0.45028 0.0
C692 C 0.55449 0.9114 0.44553 0.0
C693 C 0.56432 0.93169 0.4576 0.0
C694 C 0.5673 0.8982 0.43358 0.0
C695 C 0.62327 0.88422 0.43247 0.0
H696 H 0.65024 0.82405 0.33159 0.0
H697 H 0.63394 0.85428 0.34969 0.0
H698 H 0.6495 0.86432 0.43108 0.0
H699 H 0.59546 0.95391 0.46677 0.0
H700 H 0.61806 0.93066 0.44571 0.0
H701 H 0.58129 0.885 0.38841 0.0
C702 C 0.63969 0.84091 0.362 0.0
C703 C 0.63461 0.86867 0.4216 0.0
C704 C 0.64902 0.82354 0.3516 0.0
C705 C 0.58739 0.93851 0.45739 0.0
C706 C 0.60032 0.92509 0.44553 0.0
C707 C 0.59617 0.88064 0.39794 0.0
C708 C 0.63788 0.84107 0.38791 0.0
C709 C 0.62671 0.85873 0.39889 0.0
C710 C 0.59037 0.90479 0.43343 0.0
C711 C 0.60371 0.89008 0.42095 0.0
H712 H 0.66097 0.79278 0.40504 0.0
H713 H 0.6446 0.82294 0.42315 0.0
H714 H 0.60077 0.85777 0.36972 0.0
H715 H 0.53678 0.90555 0.4454 0.0
H716 H 0.55911 0.88248 0.42485 0.0
C717 C 0.17994 0.6514 0.36478 0.0
C718 C 0.19362 0.63981 0.35158 0.0
C719 C 0.16 0.63932 0.37374 0.0
C720 C 0.11797 0.58649 0.36477 0.0
H721 H 0.10506 0.59304 0.43333 0.0
C722 C 0.05403 0.51985 0.41753 0.0
C723 C 0.04265 0.52748 0.43656 0.0
C724 C 0.07008 0.53544 0.4049 0.0
C725 C 0.1081 0.59131 0.41398 0.0
H726 H 0.19699 0.60619 0.33792 0.0
H727 H 0.16214 0.58539 0.3531 0.0
H728 H 0.13777 0.61675 0.41593 0.0
H729 H 0.03824 0.55795 0.45599 0.0
H730 H 0.06576 0.58523 0.43348 0.0
H731 H 0.08839 0.56102 0.36276 0.0
C732 C 0.16674 0.60389 0.35625 0.0
C733 C 0.12694 0.60488 0.40405 0.0
C734 C 0.18673 0.61587 0.3475 0.0
C735 C 0.04677 0.5514 0.44156 0.0
C736 C 0.06273 0.56703 0.4288 0.0
C737 C 0.09903 0.57306 0.37462 0.0
C738 C 0.15317 0.61544 0.36953 0.0
C739 C 0.13228 0.60234 0.37947 0.0
C740 C 0.07506 0.55913 0.41081 0.0
C741 C 0.09402 0.575 0.3995 0.0
H742 H 0.18449 0.66988 0.36798 0.0
H743 H 0.14979 0.64874 0.38374 0.0
H744 H 0.12146 0.58441 0.34563 0.0
H745 H 0.05139 0.50156 0.4132 0.0
H746 H 0.07934 0.5286 0.39136 0.0
C747 C 0.39197 0.808 0.67277 0.0
C748 C 0.36934 0.80269 0.66577 0.0
C749 C 0.40524 0.82785 0.66253 0.0
C750 C 0.4033 0.88492 0.62784 0.0
H751 H 0.46268 0.87886 0.61181 0.0
C752 C 0.46015 0.95283 0.56594 0.0
C753 C 0.48292 0.95687 0.57264 0.0
C754 C 0.44561 0.93584 0.5791 0.0
C755 C 0.44625 0.88098 0.61648 0.0
H756 H 0.34292 0.81458 0.6427 0.0
H757 H 0.36624 0.84882 0.62424 0.0
H758 H 0.43874 0.84548 0.63051 0.0
H759 H 0.50789 0.94717 0.59953 0.0
H760 H 0.48255 0.91781 0.62244 0.0
H761 H 0.41086 0.92042 0.61317 0.0
C762 C 0.37365 0.83777 0.63798 0.0
C763 C 0.43249 0.8618 0.62724 0.0
C764 C 0.36032 0.81793 0.64834 0.0
C765 C 0.49053 0.94446 0.59367 0.0
C766 C 0.47602 0.92747 0.60673 0.0
C767 C 0.41708 0.90412 0.61689 0.0
C768 C 0.39634 0.8429 0.64482 0.0
C769 C 0.41085 0.86349 0.63319 0.0
C770 C 0.45351 0.92248 0.59918 0.0
C771 C 0.43876 0.90239 0.61119 0.0
H772 H 0.39963 0.79657 0.68586 0.0
H773 H 0.42255 0.83137 0.66856 0.0
H774 H 0.38683 0.88697 0.63241 0.0
H775 H 0.45367 0.96202 0.54985 0.0
H776 H 0.42837 0.93238 0.57276 0.0
C777 C 0.21463 0.3623 0.6307 0.0
C778 C 0.21225 0.33821 0.63709 0.0
C779 C 0.19747 0.3717 0.61798 0.0
C780 C 0.13731 0.36162 0.60514 0.0
H781 H 0.15215 0.41012 0.55335 0.0
C782 C 0.07256 0.41159 0.55085 0.0
C783 C 0.07935 0.436 0.54865 0.0
C784 C 0.08755 0.39694 0.5599 0.0
C785 C 0.14771 0.39661 0.56779 0.0
H786 H 0.18984 0.3051 0.63527 0.0
H787 H 0.15973 0.32162 0.61292 0.0
H788 H 0.18076 0.38953 0.57224 0.0
H789 H 0.10705 0.46411 0.55474 0.0
H790 H 0.13274 0.43887 0.5705 0.0
H791 H 0.10425 0.36919 0.60093 0.0
C792 C 0.17494 0.33319 0.61784 0.0
C793 C 0.16413 0.38485 0.57865 0.0
C794 C 0.19223 0.32372 0.63046 0.0
C795 C 0.10121 0.44541 0.55604 0.0
C796 C 0.11607 0.4309 0.56491 0.0
C797 C 0.1208 0.37344 0.59421 0.0
C798 C 0.17743 0.35729 0.61134 0.0
C799 C 0.15929 0.36768 0.59794 0.0
C800 C 0.10957 0.4065 0.56671 0.0
C801 C 0.126 0.39153 0.57591 0.0
H802 H 0.2299 0.37391 0.63529 0.0
H803 H 0.19984 0.39039 0.61357 0.0
H804 H 0.13306 0.34851 0.62 0.0
H805 H 0.0559 0.40379 0.54506 0.0
H806 H 0.08209 0.37817 0.56104 0.0
C807 C 0.64299 0.21665 0.61527 0.0
C808 C 0.64889 0.21463 0.6408 0.0
C809 C 0.63038 0.19779 0.60323 0.0
C810 C 0.61415 0.13371 0.60661 0.0
H811 H 0.56405 0.14641 0.5642 0.0
C812 C 0.54946 0.0601 0.56228 0.0
C813 C 0.53962 0.06541 0.53892 0.0
C814 C 0.56395 0.07747 0.57485 0.0
C815 C 0.57818 0.14252 0.57559 0.0
H816 H 0.64658 0.19101 0.67359 0.0
H817 H 0.62462 0.1579 0.65244 0.0
H818 H 0.58705 0.17815 0.58566 0.0
H819 H 0.53839 0.09253 0.50969 0.0
H820 H 0.56414 0.12231 0.53093 0.0
H821 H 0.60551 0.09809 0.59618 0.0
C822 C 0.62975 0.17415 0.64181 0.0
C823 C 0.59131 0.16077 0.58801 0.0
C824 C 0.64215 0.19315 0.65394 0.0
C825 C 0.54544 0.08799 0.52785 0.0
C826 C 0.56009 0.10515 0.54018 0.0
C827 C 0.60112 0.11541 0.59392 0.0
C828 C 0.62354 0.17635 0.61636 0.0
C829 C 0.60951 0.15664 0.60357 0.0
C830 C 0.56909 0.10039 0.56416 0.0
C831 C 0.58301 0.1196 0.57809 0.0
H832 H 0.64778 0.233 0.60466 0.0
H833 H 0.62601 0.19996 0.58357 0.0
H834 H 0.62816 0.13002 0.61838 0.0
H835 H 0.54521 0.04287 0.5713 0.0
H836 H 0.57043 0.07312 0.59332 0.0
C837 C 0.82624 0.67402 0.59238 0.0
C838 C 0.8052 0.66108 0.5966 0.0
C839 C 0.84144 0.66434 0.57977 0.0
C840 C 0.85395 0.60684 0.56761 0.0
H841 H 0.89669 0.64205 0.52345 0.0
C842 C 0.91891 0.56293 0.52707 0.0
C843 C 0.94075 0.57474 0.53018 0.0
C844 C 0.90123 0.57442 0.5301 0.0
C845 C 0.88483 0.63207 0.53577 0.0
H846 H 0.78293 0.62867 0.58968 0.0
H847 H 0.80935 0.61183 0.56738 0.0
H848 H 0.86721 0.66065 0.53807 0.0
H849 H 0.96122 0.60808 0.53791 0.0
H850 H 0.93015 0.62808 0.5439 0.0
H851 H 0.87167 0.5785 0.56588 0.0
C852 C 0.81434 0.62918 0.57434 0.0
C853 C 0.86803 0.64268 0.54414 0.0
C854 C 0.79925 0.63876 0.58711 0.0
C855 C 0.94455 0.59851 0.53558 0.0
C856 C 0.92679 0.61001 0.53872 0.0
C857 C 0.87063 0.59628 0.55923 0.0
C858 C 0.83576 0.64164 0.57103 0.0
C859 C 0.85258 0.63021 0.56038 0.0
C860 C 0.90499 0.59789 0.53656 0.0
C861 C 0.88637 0.60884 0.54347 0.0
H862 H 0.83117 0.69128 0.59958 0.0
H863 H 0.8579 0.67426 0.57774 0.0
H864 H 0.84261 0.59691 0.58052 0.0
H865 H 0.91542 0.54463 0.52275 0.0
H866 H 0.88457 0.56477 0.52796 0.0
C867 C 0.34423 0.38683 0.24417 0.0
C868 C 0.34813 0.39702 0.26735 0.0
C869 C 0.35284 0.39893 0.22278 0.0
C870 C 0.39922 0.44148 0.20276 0.0
H871 H 0.36457 0.44548 0.14069 0.0
C872 C 0.44038 0.48175 0.11348 0.0
C873 C 0.4335 0.47006 0.09155 0.0
C874 C 0.42823 0.47661 0.13483 0.0
C875 C 0.37454 0.44435 0.1578 0.0
H876 H 0.36386 0.42778 0.28646 0.0
H877 H 0.37939 0.4488 0.24899 0.0
H878 H 0.34642 0.42879 0.17835 0.0
H879 H 0.40819 0.44414 0.07469 0.0
H880 H 0.38763 0.43442 0.11205 0.0
H881 H 0.42753 0.45573 0.18227 0.0
C882 C 0.36949 0.43157 0.24741 0.0
C883 C 0.3641 0.4349 0.17936 0.0
C884 C 0.36055 0.41963 0.26875 0.0
C885 C 0.41393 0.45353 0.09125 0.0
C886 C 0.402 0.44809 0.1127 0.0
C887 C 0.40974 0.45058 0.18116 0.0
C888 C 0.36579 0.42126 0.22427 0.0
C889 C 0.3764 0.43311 0.20194 0.0
C890 C 0.40915 0.45931 0.13489 0.0
C891 C 0.39759 0.45181 0.15829 0.0
H892 H 0.33458 0.36947 0.24263 0.0
H893 H 0.34993 0.39053 0.20517 0.0
H894 H 0.40911 0.44005 0.21992 0.0
H895 H 0.45535 0.49462 0.11436 0.0
H896 H 0.43401 0.48596 0.1514 0.0
C897 C 0.37974 0.6579 0.83294 0.0
C898 C 0.3628 0.64319 0.81995 0.0
C899 C 0.39292 0.64884 0.85181 0.0
C900 C 0.39853 0.59407 0.89112 0.0
H901 H 0.45902 0.62596 0.89918 0.0
C902 C 0.46069 0.55937 0.96327 0.0
C903 C 0.48286 0.56223 0.95681 0.0
C904 C 0.44543 0.57051 0.94881 0.0
C905 C 0.44229 0.61653 0.89705 0.0
H906 H 0.3464 0.60704 0.81768 0.0
H907 H 0.37043 0.59113 0.84887 0.0
H908 H 0.43406 0.64161 0.86923 0.0
H909 H 0.50626 0.57884 0.92987 0.0
H910 H 0.47983 0.59713 0.90428 0.0
H911 H 0.40743 0.56795 0.91761 0.0
C912 C 0.37309 0.60989 0.84512 0.0
C913 C 0.42767 0.62588 0.88009 0.0
C914 C 0.35947 0.61905 0.82669 0.0
C915 C 0.48942 0.57656 0.93571 0.0
C916 C 0.47415 0.58723 0.92101 0.0
C917 C 0.41335 0.58438 0.90768 0.0
C918 C 0.39017 0.62462 0.85789 0.0
C919 C 0.40554 0.61481 0.87673 0.0
C920 C 0.45187 0.58439 0.92723 0.0
C921 C 0.43555 0.59535 0.91076 0.0
H922 H 0.38332 0.6765 0.82829 0.0
H923 H 0.4054 0.66101 0.86147 0.0
H924 H 0.38159 0.58515 0.8896 0.0
H925 H 0.45512 0.54842 0.97943 0.0
H926 H 0.42858 0.56815 0.95457 0.0
C927 C 0.36956 0.3461 0.82135 0.0
C928 C 0.36475 0.35735 0.79836 0.0
C929 C 0.38073 0.35895 0.84085 0.0
C930 C 0.39586 0.42017 0.8616 0.0
H931 H 0.43968 0.39452 0.90437 0.0
C932 C 0.46365 0.47694 0.91994 0.0
C933 C 0.46867 0.46909 0.94444 0.0
C934 C 0.44876 0.46284 0.90435 0.0
C935 C 0.42726 0.40178 0.89281 0.0
H936 H 0.36854 0.39079 0.77757 0.0
H937 H 0.38837 0.41306 0.81115 0.0
H938 H 0.41857 0.37065 0.87247 0.0
H939 H 0.46166 0.44038 0.97196 0.0
H940 H 0.43576 0.41543 0.9444 0.0
H941 H 0.40519 0.45159 0.88138 0.0
C942 C 0.38296 0.39445 0.81455 0.0
C943 C 0.41512 0.3881 0.8745 0.0
C944 C 0.37165 0.38166 0.7952 0.0
C945 C 0.45806 0.44695 0.95321 0.0
C946 C 0.44337 0.43262 0.9374 0.0
C947 C 0.40814 0.43389 0.87969 0.0
C948 C 0.38752 0.38334 0.83775 0.0
C949 C 0.39949 0.39725 0.85837 0.0
C950 C 0.43871 0.44038 0.91274 0.0
C951 C 0.42419 0.42498 0.89526 0.0
H952 H 0.36429 0.32742 0.82444 0.0
H953 H 0.38371 0.34979 0.85849 0.0
H954 H 0.38359 0.42765 0.85002 0.0
H955 H 0.47151 0.49394 0.91263 0.0
H956 H 0.44567 0.46925 0.8854 0.0
C957 C 0.66348 0.39309 0.79541 0.0
C958 C 0.66012 0.36849 0.79534 0.0
C959 C 0.65314 0.4044 0.81245 0.0
C960 C 0.60487 0.395 0.85163 0.0
H961 H 0.6344 0.4518 0.8818 0.0
C962 C 0.5565 0.45576 0.89782 0.0
C963 C 0.56493 0.46514 0.92059 0.0
C964 C 0.56911 0.44382 0.884 0.0
C965 C 0.62599 0.43584 0.87371 0.0
H966 H 0.64368 0.33654 0.81377 0.0
H967 H 0.62557 0.35625 0.8434 0.0
H968 H 0.65489 0.43084 0.85562 0.0
H969 H 0.59356 0.46971 0.94638 0.0
H970 H 0.61573 0.44872 0.92208 0.0
H971 H 0.57601 0.39991 0.86968 0.0
C972 C 0.63599 0.36681 0.83002 0.0
C973 C 0.63766 0.42396 0.8585 0.0
C974 C 0.64636 0.3555 0.81299 0.0
C975 C 0.58654 0.46263 0.92897 0.0
C976 C 0.59926 0.4507 0.91501 0.0
C977 C 0.59321 0.4069 0.86672 0.0
C978 C 0.63912 0.39141 0.82986 0.0
C979 C 0.62717 0.40349 0.84709 0.0
C980 C 0.59056 0.44092 0.89248 0.0
C981 C 0.60354 0.42762 0.87772 0.0
H982 H 0.67368 0.40369 0.78185 0.0
H983 H 0.65565 0.42335 0.81151 0.0
H984 H 0.59619 0.37944 0.843 0.0
H985 H 0.54 0.45747 0.89064 0.0
H986 H 0.56205 0.43694 0.86651 0.0
C987 C 0.67747 0.62815 0.77979 0.0
C988 C 0.66739 0.6307 0.75598 0.0
C989 C 0.66649 0.61333 0.79812 0.0
C990 C 0.61032 0.58563 0.81476 0.0
H991 H 0.64218 0.55186 0.86488 0.0
C992 C 0.56576 0.53228 0.89538 0.0
C993 C 0.57515 0.53878 0.91888 0.0
C994 C 0.57764 0.53869 0.87402 0.0
C995 C 0.63309 0.56114 0.85093 0.0
H996 H 0.63833 0.61923 0.7323 0.0
H997 H 0.61924 0.59301 0.76414 0.0
H998 H 0.66168 0.57259 0.82974 0.0
H999 H 0.60491 0.55547 0.93864 0.0
H1000 H 0.6256 0.56664 0.90135 0.0
H1001 H 0.58182 0.57443 0.83611 0.0
C1002 C 0.6354 0.60285 0.7689 0.0
C1003 C 0.64425 0.57311 0.8309 0.0
C1004 C 0.64631 0.61785 0.75066 0.0
C1005 C 0.59714 0.55042 0.92077 0.0
C1006 C 0.60906 0.55667 0.89944 0.0
C1007 C 0.59915 0.5735 0.83464 0.0
C1008 C 0.64527 0.60059 0.79293 0.0
C1009 C 0.63309 0.58592 0.81287 0.0
C1010 C 0.59919 0.55149 0.87582 0.0
C1011 C 0.61052 0.56155 0.85318 0.0
H1012 H 0.69366 0.63802 0.78441 0.0
H1013 H 0.67442 0.61237 0.81654 0.0
H1014 H 0.60125 0.59558 0.80146 0.0
H1015 H 0.54893 0.52306 0.89333 0.0
H1016 H 0.56977 0.53423 0.85603 0.0
C1017 C 0.63867 0.62832 0.21392 0.0
C1018 C 0.64507 0.65271 0.2109 0.0
C1019 C 0.62726 0.61548 0.19464 0.0
C1020 C 0.5939 0.62177 0.13544 0.0
H1021 H 0.60409 0.5585 0.12773 0.0
C1022 C 0.5502 0.56341 0.0568 0.0
C1023 C 0.5398 0.54114 0.06544 0.0
C1024 C 0.56504 0.57764 0.07254 0.0
C1025 C 0.60106 0.57614 0.12966 0.0
H1026 H 0.64463 0.68272 0.1851 0.0
H1027 H 0.62509 0.66028 0.15118 0.0
H1028 H 0.62605 0.58241 0.15888 0.0
H1029 H 0.53757 0.51592 0.09691 0.0
H1030 H 0.56369 0.54045 0.12406 0.0
H1031 H 0.56893 0.61534 0.106 0.0
C1032 C 0.62849 0.65108 0.16866 0.0
C1033 C 0.61355 0.58984 0.14764 0.0
C1034 C 0.63974 0.66397 0.18809 0.0
C1035 C 0.54523 0.53304 0.08973 0.0
C1036 C 0.56029 0.54704 0.10526 0.0
C1037 C 0.58156 0.60811 0.11725 0.0
C1038 C 0.6221 0.62662 0.17165 0.0
C1039 C 0.60986 0.6127 0.15116 0.0
C1040 C 0.57009 0.56965 0.09702 0.0
C1041 C 0.58473 0.585 0.11447 0.0
H1042 H 0.64218 0.61916 0.23141 0.0
H1043 H 0.62219 0.59681 0.19798 0.0
H1044 H 0.59036 0.63914 0.13771 0.0
H1045 H 0.54628 0.57016 0.0382 0.0
H1046 H 0.57246 0.59494 0.06565 0.0
C1047 C 0.34494 0.61512 0.21618 0.0
C1048 C 0.34822 0.63972 0.21619 0.0
C1049 C 0.35513 0.60385 0.19899 0.0
C1050 C 0.40302 0.61353 0.15933 0.0
H1051 H 0.37358 0.55664 0.12924 0.0
C1052 C 0.45146 0.55333 0.11267 0.0
C1053 C 0.44307 0.54418 0.08979 0.0
C1054 C 0.43878 0.56501 0.12667 0.0
C1055 C 0.38195 0.57262 0.13732 0.0
H1056 H 0.36428 0.6717 0.19748 0.0
H1057 H 0.38213 0.65205 0.16758 0.0
H1058 H 0.35313 0.57739 0.15572 0.0
H1059 H 0.41444 0.53965 0.064 0.0
H1060 H 0.39214 0.56022 0.08863 0.0
H1061 H 0.4318 0.60885 0.141 0.0
C1062 C 0.37191 0.64147 0.18113 0.0
C1063 C 0.37032 0.58439 0.15268 0.0
C1064 C 0.3617 0.65274 0.19831 0.0
C1065 C 0.42142 0.54659 0.08149 0.0
C1066 C 0.40863 0.55827 0.09564 0.0
C1067 C 0.41464 0.60175 0.1441 0.0
C1068 C 0.3689 0.61688 0.18138 0.0
C1069 C 0.38078 0.60488 0.16404 0.0
C1070 C 0.41731 0.56786 0.11825 0.0
C1071 C 0.40434 0.58101 0.13314 0.0
H1072 H 0.33492 0.60453 0.2299 0.0
H1073 H 0.35272 0.58489 0.19996 0.0
H1074 H 0.41168 0.62911 0.16794 0.0
H1075 H 0.46798 0.55165 0.11981 0.0
H1076 H 0.44581 0.57175 0.14423 0.0
C1077 C 0.64385 0.39085 0.19017 0.0
C1078 C 0.63812 0.36701 0.19753 0.0
C1079 C 0.63205 0.40083 0.17057 0.0
C1080 C 0.59078 0.38542 0.11761 0.0
H1081 H 0.58004 0.44869 0.12381 0.0
C1082 C 0.5213 0.42607 0.0625 0.0
C1083 C 0.52701 0.44915 0.05262 0.0
C1084 C 0.53655 0.41562 0.07764 0.0
C1085 C 0.5831 0.43109 0.12169 0.0
H1086 H 0.61581 0.33488 0.18911 0.0
H1087 H 0.59462 0.35244 0.15614 0.0
H1088 H 0.60331 0.43155 0.15531 0.0
H1089 H 0.55349 0.47912 0.05046 0.0
H1090 H 0.57988 0.46095 0.07714 0.0
H1091 H 0.56963 0.38481 0.08445 0.0
C1092 C 0.60852 0.36343 0.16508 0.0
C1093 C 0.59655 0.42125 0.1397 0.0
C1094 C 0.6205 0.35339 0.18442 0.0
C1095 C 0.54854 0.46127 0.05761 0.0
C1096 C 0.56364 0.45095 0.07305 0.0
C1097 C 0.57704 0.39516 0.0998 0.0
C1098 C 0.61401 0.38734 0.15795 0.0
C1099 C 0.6005 0.39821 0.13803 0.0
C1100 C 0.55769 0.42817 0.08354 0.0
C1101 C 0.573 0.41806 0.10172 0.0
H1102 H 0.65718 0.40199 0.19986 0.0
H1103 H 0.63707 0.4192 0.1654 0.0
H1104 H 0.59375 0.36783 0.11531 0.0
H1105 H 0.50486 0.41627 0.05903 0.0
H1106 H 0.5315 0.39806 0.08558 0.0
loop_
_geom_bond_atom_site_label_1
_geom_bond_atom_site_label_2
_geom_bond_distance
_geom_bond_site_symmetry_2
_ccdc_geom_bond_type
C0 C1 1.384 . S
C0 H13 0.947 . S
C0 C35 1.382 . S
C1 C0 1.384 . S
C1 C2 1.378 . S
C2 C1 1.378 . S
C2 C3 1.378 . S
C2 H14 0.952 . S
C3 C2 1.378 . S
C3 H15 0.950 . S
C3 C34 1.383 . S
H4 C23 0.947 . S
H5 C24 0.946 . S
H6 C26 0.953 . S
H7 C27 0.945 . S
H8 C29 0.952 . S
H9 C30 0.949 . S
H10 C32 0.950 . S
H11 C33 0.948 . S
H12 C35 0.951 . S
H13 C0 0.947 . S
H14 C2 0.952 . S
H15 C3 0.950 . S
N16 C19 1.382 . S
N16 C21 1.363 . S
N17 C19 1.371 . S
N17 C20 1.372 . S
N18 C20 1.361 . S
N18 C21 1.377 . S
C19 N16 1.382 . S
C19 N17 1.371 . S
C19 C22 1.480 . S
C20 N17 1.372 . S
C20 N18 1.361 . S
C20 C28 1.457 . S
C21 N16 1.363 . S
C21 N18 1.377 . S
C21 C34 1.479 . S
C22 C19 1.480 . S
C22 C23 1.383 . S
C22 C27 1.385 . S
C23 H4 0.947 . S
C23 C22 1.383 . S
C23 C24 1.388 . S
C24 H5 0.946 . S
C24 C23 1.388 . S
C24 C25 1.384 . S
C25 C24 1.384 . S
C25 C26 1.377 . S
C26 H6 0.953 . S
C26 C25 1.377 . S
C26 C27 1.369 . S
C27 H7 0.945 . S
C27 C22 1.385 . S
C27 C26 1.369 . S
C28 C20 1.457 . S
C28 C29 1.372 . S
C28 C33 1.364 . S
C29 H8 0.952 . S
C29 C28 1.372 . S
C29 C30 1.389 . S
C30 H9 0.949 . S
C30 C29 1.389 . S
C30 C31 1.387 . S
C31 C30 1.387 . S
C31 C32 1.372 . S
C32 H10 0.950 . S
C32 C31 1.372 . S
C32 C33 1.379 . S
C33 H11 0.948 . S
C33 C28 1.364 . S
C33 C32 1.379 . S
C34 C3 1.383 . S
C34 C21 1.479 . S
C34 C35 1.398 . S
C35 C0 1.382 . S
C35 H12 0.951 . S
C35 C34 1.398 . S
C36 C37 1.384 . S
C36 H49 0.947 . S
C36 C71 1.382 . S
C37 C36 1.384 . S
C37 C38 1.378 . S
C38 C37 1.378 . S
C38 C39 1.378 . S
C38 H50 0.952 . S
C39 C38 1.378 . S
C39 H51 0.950 . S
C39 C70 1.383 . S
H40 C59 0.947 . S
H41 C60 0.946 . S
H42 C62 0.953 . S
H43 C63 0.945 . S
H44 C65 0.952 . S
H45 C66 0.949 . S
H46 C68 0.950 . S
H47 C69 0.948 . S
H48 C71 0.951 . S
H49 C36 0.947 . S
H50 C38 0.952 . S
H51 C39 0.950 . S
N52 C55 1.382 . S
N52 C57 1.363 . S
N53 C55 1.371 . S
N53 C56 1.372 . S
N54 C56 1.361 . S
N54 C57 1.377 . S
C55 N52 1.382 . S
C55 N53 1.371 . S
C55 C58 1.480 . S
C56 N53 1.372 . S
C56 N54 1.361 . S
C56 C64 1.457 . S
C57 N52 1.363 . S
C57 N54 1.377 . S
C57 C70 1.479 . S
C58 C55 1.480 . S
C58 C59 1.383 . S
C58 C63 1.385 . S
C59 H40 0.947 . S
C59 C58 1.383 . S
C59 C60 1.388 . S
C60 H41 0.946 . S
C60 C59 1.388 . S
C60 C61 1.384 . S
C61 C60 1.384 . S
C61 C62 1.377 . S
C62 H42 0.953 . S
C62 C61 1.377 . S
C62 C63 1.369 . S
C63 H43 0.945 . S
C63 C58 1.385 . S
C63 C62 1.369 . S
C64 C56 1.457 . S
C64 C65 1.372 . S
C64 C69 1.364 . S
C65 H44 0.952 . S
C65 C64 1.372 . S
C65 C66 1.389 . S
C66 H45 0.949 . S
C66 C65 1.389 . S
C66 C67 1.387 . S
C67 C66 1.387 . S
C67 C68 1.372 . S
C68 H46 0.950 . S
C68 C67 1.372 . S
C68 C69 1.379 . S
C69 H47 0.948 . S
C69 C64 1.364 . S
C69 C68 1.379 . S
C70 C39 1.383 . S
C70 C57 1.479 . S
C70 C71 1.398 . S
C71 C36 1.382 . S
C71 H48 0.951 . S
C71 C70 1.398 . S
C72 C73 1.384 . S
C72 H85 0.947 . S
C72 C107 1.382 . S
C73 C72 1.384 . S
C73 C74 1.378 . S
C74 C73 1.378 . S
C74 C75 1.378 . S
C74 H86 0.952 . S
C75 C74 1.378 . S
C75 H87 0.950 . S
C75 C106 1.383 . S
H76 C95 0.947 . S
H77 C96 0.946 . S
H78 C98 0.953 . S
H79 C99 0.945 . S
H80 C101 0.952 . S
H81 C102 0.949 . S
H82 C104 0.950 . S
H83 C105 0.948 . S
H84 C107 0.951 . S
H85 C72 0.947 . S
H86 C74 0.952 . S
H87 C75 0.950 . S
N88 C91 1.382 . S
N88 C93 1.363 . S
N89 C91 1.371 . S
N89 C92 1.372 . S
N90 C92 1.361 . S
N90 C93 1.377 . S
C91 N88 1.382 . S
C91 N89 1.371 . S
C91 C94 1.480 . S
C92 N89 1.372 . S
C92 N90 1.361 . S
C92 C100 1.457 . S
C93 N88 1.363 . S
C93 N90 1.377 . S
C93 C106 1.479 . S
C94 C91 1.480 . S
C94 C95 1.383 . S
C94 C99 1.385 . S
C95 H76 0.947 . S
C95 C94 1.383 . S
C95 C96 1.388 . S
C96 H77 0.946 . S
C96 C95 1.388 . S
C96 C97 1.384 . S
C97 C96 1.384 . S
C97 C98 1.377 . S
C98 H78 0.953 . S
C98 C97 1.377 . S
C98 C99 1.369 . S
C99 H79 0.945 . S
C99 C94 1.385 . S
C99 C98 1.369 . S
C100 C92 1.457 . S
C100 C101 1.372 . S
C100 C105 1.364 . S
C101 H80 0.952 . S
C101 C100 1.372 . S
C101 C102 1.389 . S
C102 H81 0.949 . S
C102 C101 1.389 . S
C102 C103 1.387 . S
C103 C102 1.387 . S
C103 C104 1.372 . S
C104 H82 0.950 . S
C104 C103 1.372 . S
C104 C105 1.379 . S
C105 H83 0.948 . S
C105 C100 1.364 . S
C105 C104 1.379 . S
C106 C75 1.383 . S
C106 C93 1.479 . S
C106 C107 1.398 . S
C107 C72 1.382 . S
C107 H84 0.951 . S
C107 C106 1.398 . S
C108 C109 1.384 . S
C108 H121 0.947 . S
C108 C143 1.382 . S
C109 C108 1.384 . S
C109 C110 1.378 . S
C110 C109 1.378 . S
C110 C111 1.378 . S
C110 H122 0.952 . S
C111 C110 1.378 . S
C111 H123 0.950 . S
C111 C142 1.383 . S
H112 C131 0.947 . S
H113 C132 0.946 . S
H114 C134 0.953 . S
H115 C135 0.945 . S
H116 C137 0.952 . S
H117 C138 0.949 . S
H118 C140 0.950 . S
H119 C141 0.948 . S
H120 C143 0.951 . S
H121 C108 0.947 . S
H122 C110 0.952 . S
H123 C111 0.950 . S
N124 C127 1.382 . S
N124 C129 1.363 . S
N125 C127 1.371 . S
N125 C128 1.372 . S
N126 C128 1.361 . S
N126 C129 1.377 . S
C127 N124 1.382 . S
C127 N125 1.371 . S
C127 C130 1.480 . S
C128 N125 1.372 . S
C128 N126 1.361 . S
C128 C136 1.457 . S
C129 N124 1.363 . S
C129 N126 1.377 . S
C129 C142 1.479 . S
C130 C127 1.480 . S
C130 C131 1.383 . S
C130 C135 1.385 . S
C131 H112 0.947 . S
C131 C130 1.383 . S
C131 C132 1.388 . S
C132 H113 0.946 . S
C132 C131 1.388 . S
C132 C133 1.384 . S
C133 C132 1.384 . S
C133 C134 1.377 . S
C134 H114 0.953 . S
C134 C133 1.377 . S
C134 C135 1.369 . S
C135 H115 0.945 . S
C135 C130 1.385 . S
C135 C134 1.369 . S
C136 C128 1.457 . S
C136 C137 1.372 . S
C136 C141 1.364 . S
C137 H116 0.952 . S
C137 C136 1.372 . S
C137 C138 1.389 . S
C138 H117 0.949 . S
C138 C137 1.389 . S
C138 C139 1.387 . S
C139 C138 1.387 . S
C139 C140 1.372 . S
C140 H118 0.950 . S
C140 C139 1.372 . S
C140 C141 1.379 . S
C141 H119 0.948 . S
C141 C136 1.364 . S
C141 C140 1.379 . S
C142 C111 1.383 . S
C142 C129 1.479 . S
C142 C143 1.398 . S
C143 C108 1.382 . S
C143 H120 0.951 . S
C143 C142 1.398 . S
C144 C145 1.384 . S
C144 H157 0.947 . S
C144 C179 1.382 . S
C145 C144 1.384 . S
C145 C146 1.378 . S
C146 C145 1.378 . S
C146 C147 1.378 . S
C146 H158 0.952 . S
C147 C146 1.378 . S
C147 H159 0.950 . S
C147 C178 1.383 . S
H148 C167 0.947 . S
H149 C168 0.946 . S
H150 C170 0.953 . S
H151 C171 0.945 . S
H152 C173 0.952 . S
H153 C174 0.949 . S
H154 C176 0.950 . S
H155 C177 0.948 . S
H156 C179 0.951 . S
H157 C144 0.947 . S
H158 C146 0.952 . S
H159 C147 0.950 . S
N160 C163 1.382 . S
N160 C165 1.363 . S
N161 C163 1.371 . S
N161 C164 1.372 . S
N162 C164 1.361 . S
N162 C165 1.377 . S
C163 N160 1.382 . S
C163 N161 1.371 . S
C163 C166 1.480 . S
C164 N161 1.372 . S
C164 N162 1.361 . S
C164 C172 1.457 . S
C165 N160 1.363 . S
C165 N162 1.377 . S
C165 C178 1.479 . S
C166 C163 1.480 . S
C166 C167 1.383 . S
C166 C171 1.385 . S
C167 H148 0.947 . S
C167 C166 1.383 . S
C167 C168 1.388 . S
C168 H149 0.946 . S
C168 C167 1.388 . S
C168 C169 1.384 . S
C169 C168 1.384 . S
C169 C170 1.377 . S
C170 H150 0.953 . S
C170 C169 1.377 . S
C170 C171 1.369 . S
C171 H151 0.945 . S
C171 C166 1.385 . S
C171 C170 1.369 . S
C172 C164 1.457 . S
C172 C173 1.372 . S
C172 C177 1.364 . S
C173 H152 0.952 . S
C173 C172 1.372 . S
C173 C174 1.389 . S
C174 H153 0.949 . S
C174 C173 1.389 . S
C174 C175 1.387 . S
C175 C174 1.387 . S
C175 C176 1.372 . S
C176 H154 0.950 . S
C176 C175 1.372 . S
C176 C177 1.379 . S
C177 H155 0.948 . S
C177 C172 1.364 . S
C177 C176 1.379 . S
C178 C147 1.383 . S
C178 C165 1.479 . S
C178 C179 1.398 . S
C179 C144 1.382 . S
C179 H156 0.951 . S
C179 C178 1.398 . S
C180 C181 1.384 . S
C180 H193 0.947 . S
C180 C215 1.382 . S
C181 C180 1.384 . S
C181 C182 1.378 . S
C182 C181 1.378 . S
C182 C183 1.378 . S
C182 H194 0.952 . S
C183 C182 1.378 . S
C183 H195 0.950 . S
C183 C214 1.383 . S
H184 C203 0.947 . S
H185 C204 0.946 . S
H186 C206 0.953 . S
H187 C207 0.945 . S
H188 C209 0.952 . S
H189 C210 0.949 . S
H190 C212 0.950 . S
H191 C213 0.948 . S
H192 C215 0.951 . S
H193 C180 0.947 . S
H194 C182 0.952 . S
H195 C183 0.950 . S
N196 C199 1.382 . S
N196 C201 1.363 . S
N197 C199 1.371 . S
N197 C200 1.372 . S
N198 C200 1.361 . S
N198 C201 1.377 . S
C199 N196 1.382 . S
C199 N197 1.371 . S
C199 C202 1.480 . S
C200 N197 1.372 . S
C200 N198 1.361 . S
C200 C208 1.457 . S
C201 N196 1.363 . S
C201 N198 1.377 . S
C201 C214 1.479 . S
C202 C199 1.480 . S
C202 C203 1.383 . S
C202 C207 1.385 . S
C203 H184 0.947 . S
C203 C202 1.383 . S
C203 C204 1.388 . S
C204 H185 0.946 . S
C204 C203 1.388 . S
C204 C205 1.384 . S
C205 C204 1.384 . S
C205 C206 1.377 . S
C206 H186 0.953 . S
C206 C205 1.377 . S
C206 C207 1.369 . S
C207 H187 0.945 . S
C207 C202 1.385 . S
C207 C206 1.369 . S
C208 C200 1.457 . S
C208 C209 1.372 . S
C208 C213 1.364 . S
C209 H188 0.952 . S
C209 C208 1.372 . S
C209 C210 1.389 . S
C210 H189 0.949 . S
C210 C209 1.389 . S
C210 C211 1.387 . S
C211 C210 1.387 . S
C211 C212 1.372 . S
C212 H190 0.950 . S
C212 C211 1.372 . S
C212 C213 1.379 . S
C213 H191 0.948 . S
C213 C208 1.364 . S
C213 C212 1.379 . S
C214 C183 1.383 . S
C214 C201 1.479 . S
C214 C215 1.398 . S
C215 C180 1.382 . S
C215 H192 0.951 . S
C215 C214 1.398 . S
C216 C217 1.384 . S
C216 H229 0.947 . S
C216 C251 1.382 . S
C217 C216 1.384 . S
C217 C218 1.378 . S
C218 C217 1.378 . S
C218 C219 1.378 . S
C218 H230 0.952 . S
C219 C218 1.378 . S
C219 H231 0.950 . S
C219 C250 1.383 . S
H220 C239 0.947 . S
H221 C240 0.946 . S
H222 C242 0.953 . S
H223 C243 0.945 . S
H224 C245 0.952 . S
H225 C246 0.949 . S
H226 C248 0.950 . S
H227 C249 0.948 . S
H228 C251 0.951 . S
H229 C216 0.947 . S
H230 C218 0.952 . S
H231 C219 0.950 . S
N232 C235 1.382 . S
N232 C237 1.363 . S
N233 C235 1.371 . S
N233 C236 1.372 . S
N234 C236 1.361 . S
N234 C237 1.377 . S
C235 N232 1.382 . S
C235 N233 1.371 . S
C235 C238 1.480 . S
C236 N233 1.372 . S
C236 N234 1.361 . S
C236 C244 1.457 . S
C237 N232 1.363 . S
C237 N234 1.377 . S
C237 C250 1.479 . S
C238 C235 1.480 . S
C238 C239 1.383 . S
C238 C243 1.385 . S
C239 H220 0.947 . S
C239 C238 1.383 . S
C239 C240 1.388 . S
C240 H221 0.946 . S
C240 C239 1.388 . S
C240 C241 1.384 . S
C241 C240 1.384 . S
C241 C242 1.377 . S
C242 H222 0.953 . S
C242 C241 1.377 . S
C242 C243 1.369 . S
C243 H223 0.945 . S
C243 C238 1.385 . S
C243 C242 1.369 . S
C244 C236 1.457 . S
C244 C245 1.372 . S
C244 C249 1.364 . S
C245 H224 0.952 . S
C245 C244 1.372 . S
C245 C246 1.389 . S
C246 H225 0.949 . S
C246 C245 1.389 . S
C246 C247 1.387 . S
C247 C246 1.387 . S
C247 C248 1.372 . S
C248 H226 0.950 . S
C248 C247 1.372 . S
C248 C249 1.379 . S
C249 H227 0.948 . S
C249 C244 1.364 . S
C249 C248 1.379 . S
C250 C219 1.383 . S
C250 C237 1.479 . S
C250 C251 1.398 . S
C251 C216 1.382 . S
C251 H228 0.951 . S
C251 C250 1.398 . S
C252 C253 1.384 . S
C252 H265 0.947 . S
C252 C287 1.382 . S
C253 C252 1.384 . S
C253 C254 1.378 . S
C254 C253 1.378 . S
C254 C255 1.378 . S
C254 H266 0.952 . S
C255 C254 1.378 . S
C255 H267 0.950 . S
C255 C286 1.383 . S
H256 C275 0.947 . S
H257 C276 0.946 . S
H258 C278 0.953 . S
H259 C279 0.945 . S
H260 C281 0.952 . S
H261 C282 0.949 . S
H262 C284 0.950 . S
H263 C285 0.948 . S
H264 C287 0.951 . S
H265 C252 0.947 . S
H266 C254 0.952 . S
H267 C255 0.950 . S
N268 C271 1.382 . S
N268 C273 1.363 . S
N269 C271 1.371 . S
N269 C272 1.372 . S
N270 C272 1.361 . S
N270 C273 1.377 . S
C271 N268 1.382 . S
C271 N269 1.371 . S
C271 C274 1.480 . S
C272 N269 1.372 . S
C272 N270 1.361 . S
C272 C280 1.457 . S
C273 N268 1.363 . S
C273 N270 1.377 . S
C273 C286 1.479 . S
C274 C271 1.480 . S
C274 C275 1.383 . S
C274 C279 1.385 . S
C275 H256 0.947 . S
C275 C274 1.383 . S
C275 C276 1.388 . S
C276 H257 0.946 . S
C276 C275 1.388 . S
C276 C277 1.384 . S
C277 C276 1.384 . S
C277 C278 1.377 . S
C278 H258 0.953 . S
C278 C277 1.377 . S
C278 C279 1.369 . S
C279 H259 0.945 . S
C279 C274 1.385 . S
C279 C278 1.369 . S
C280 C272 1.457 . S
C280 C281 1.372 . S
C280 C285 1.364 . S
C281 H260 0.952 . S
C281 C280 1.372 . S
C281 C282 1.389 . S
C282 H261 0.949 . S
C282 C281 1.389 . S
C282 C283 1.387 . S
C283 C282 1.387 . S
C283 C284 1.372 . S
C284 H262 0.950 . S
C284 C283 1.372 . S
C284 C285 1.379 . S
C285 H263 0.948 . S
C285 C280 1.364 . S
C285 C284 1.379 . S
C286 C255 1.383 . S
C286 C273 1.479 . S
C286 C287 1.398 . S
C287 C252 1.382 . S
C287 H264 0.951 . S
C287 C286 1.398 . S
Co288 O291 2.042 . S
Co288 O298 2.264 . S
Co288 O317 2.286 . S
Co288 O318 2.069 . S
Co288 O320 2.015 . S
Co289 O291 2.122 . S
Co289 O297 2.073 . S
Co289 O298 2.327 . S
Co289 O299 1.976 . S
Co290 O291 2.087 . S
Co290 O293 2.087 1_455 S
Co290 O300 2.111 . S
Co290 O301 2.143 1_455 S
Co290 O305 2.111 1_455 S
Co290 O319 2.143 . S
O291 Co288 2.042 . S
O291 Co289 2.122 . S
O291 Co290 2.087 . S
O291 H292 0.980 . S
H292 O291 0.980 . S
O293 Co290 2.087 1_655 S
O293 Co294 2.042 . S
O293 Co295 2.122 . S
O293 H296 0.980 . S
Co294 O293 2.042 . S
Co294 O302 2.286 . S
Co294 O303 2.069 . S
Co294 O304 2.015 . S
Co294 O307 2.264 . S
Co295 O293 2.122 . S
Co295 O306 1.976 . S
Co295 O307 2.327 . S
Co295 O308 2.073 . S
H296 O293 0.980 . S
O297 Co289 2.073 . S
O297 C312 1.245 . S
O298 Co288 2.264 . S
O298 Co289 2.327 . S
O298 C312 1.257 . S
O299 Co289 1.976 . S
O299 C311 1.251 . S
O300 Co290 2.111 . S
O300 C311 1.274 . S
O301 Co290 2.143 1_655 S
O301 C314 1.246 . S
O302 Co294 2.286 . S
O302 C313 1.259 . S
O303 Co294 2.069 . S
O303 C313 1.289 . S
O304 Co294 2.015 . S
O304 C314 1.257 . S
O305 Co290 2.111 1_655 S
O305 C315 1.274 . S
O306 Co295 1.976 . S
O306 C315 1.251 . S
O307 Co294 2.264 . S
O307 Co295 2.327 . S
O307 C316 1.257 . S
O308 Co295 2.073 . S
O308 C316 1.245 . S
C309 O317 1.259 . S
C309 O318 1.289 . S
C310 O319 1.246 . S
C310 O320 1.257 . S
C311 O299 1.251 . S
C311 O300 1.274 . S
C312 O297 1.245 . S
C312 O298 1.257 . S
C313 O302 1.259 . S
C313 O303 1.289 . S
C314 O301 1.246 . S
C314 O304 1.257 . S
C315 O305 1.274 . S
C315 O306 1.251 . S
C316 O307 1.257 . S
C316 O308 1.245 . S
O317 Co288 2.286 . S
O317 C309 1.259 . S
O318 Co288 2.069 . S
O318 C309 1.289 . S
O319 Co290 2.143 . S
O319 C310 1.246 . S
O320 Co288 2.015 . S
O320 C310 1.257 . S
Co321 O324 2.042 . S
Co321 O331 2.264 . S
Co321 O350 2.286 . S
Co321 O351 2.069 . S
Co321 O353 2.015 . S
Co322 O324 2.122 . S
Co322 O330 2.073 . S
Co322 O331 2.327 . S
Co322 O332 1.976 . S
Co323 O324 2.087 1_545 S
Co323 O326 2.087 . S
Co323 O333 2.111 1_545 S
Co323 O334 2.143 . S
Co323 O338 2.111 . S
Co323 O352 2.143 1_545 S
O324 Co321 2.042 . S
O324 Co322 2.122 . S
O324 Co323 2.087 1_565 S
O324 H325 0.980 . S
H325 O324 0.980 . S
O326 Co323 2.087 . S
O326 Co327 2.042 . S
O326 Co328 2.122 . S
O326 H329 0.980 . S
Co327 O326 2.042 . S
Co327 O335 2.286 . S
Co327 O336 2.069 . S
Co327 O337 2.015 . S
Co327 O340 2.264 . S
Co328 O326 2.122 . S
Co328 O339 1.976 . S
Co328 O340 2.327 . S
Co328 O341 2.073 . S
H329 O326 0.980 . S
O330 Co322 2.073 . S
O330 C345 1.245 . S
O331 Co321 2.264 . S
O331 Co322 2.327 . S
O331 C345 1.257 . S
O332 Co322 1.976 . S
O332 C344 1.251 . S
O333 Co323 2.111 1_565 S
O333 C344 1.274 . S
O334 Co323 2.143 . S
O334 C347 1.246 . S
O335 Co327 2.286 . S
O335 C346 1.259 . S
O336 Co327 2.069 . S
O336 C346 1.289 . S
O337 Co327 2.015 . S
O337 C347 1.257 . S
O338 Co323 2.111 . S
O338 C348 1.274 . S
O339 Co328 1.976 . S
O339 C348 1.251 . S
O340 Co327 2.264 . S
O340 Co328 2.327 . S
O340 C349 1.257 . S
O341 Co328 2.073 . S
O341 C349 1.245 . S
C342 O350 1.259 . S
C342 O351 1.289 . S
C343 O352 1.246 . S
C343 O353 1.257 . S
C344 O332 1.251 . S
C344 O333 1.274 . S
C345 O330 1.245 . S
C345 O331 1.257 . S
C346 O335 1.259 . S
C346 O336 1.289 . S
C347 O334 1.246 . S
C347 O337 1.257 . S
C348 O338 1.274 . S
C348 O339 1.251 . S
C349 O340 1.257 . S
C349 O341 1.245 . S
O350 Co321 2.286 . S
O350 C342 1.259 . S
O351 Co321 2.069 . S
O351 C342 1.289 . S
O352 Co323 2.143 1_565 S
O352 C343 1.246 . S
O353 Co321 2.015 . S
O353 C343 1.257 . S
Co354 O357 2.042 . S
Co354 O364 2.264 . S
Co354 O383 2.286 . S
Co354 O384 2.069 . S
Co354 O386 2.015 . S
Co355 O357 2.122 . S
Co355 O363 2.073 . S
Co355 O364 2.327 . S
Co355 O365 1.976 . S
Co356 O357 2.087 . S
Co356 O359 2.087 1_554 S
Co356 O366 2.111 . S
Co356 O367 2.143 1_554 S
Co356 O371 2.111 1_554 S
Co356 O385 2.143 . S
O357 Co354 2.042 . S
O357 Co355 2.122 . S
O357 Co356 2.087 . S
O357 H358 0.980 . S
H358 O357 0.980 . S
O359 Co356 2.087 1_556 S
O359 Co360 2.042 . S
O359 Co361 2.122 . S
O359 H362 0.980 . S
Co360 O359 2.042 . S
Co360 O368 2.286 . S
Co360 O369 2.069 . S
Co360 O370 2.015 . S
Co360 O373 2.264 . S
Co361 O359 2.122 . S
Co361 O372 1.976 . S
Co361 O373 2.327 . S
Co361 O374 2.073 . S
H362 O359 0.980 . S
O363 Co355 2.073 . S
O363 C378 1.245 . S
O364 Co354 2.264 . S
O364 Co355 2.327 . S
O364 C378 1.257 . S
O365 Co355 1.976 . S
O365 C377 1.251 . S
O366 Co356 2.111 . S
O366 C377 1.274 . S
O367 Co356 2.143 1_556 S
O367 C380 1.246 . S
O368 Co360 2.286 . S
O368 C379 1.259 . S
O369 Co360 2.069 . S
O369 C379 1.289 . S
O370 Co360 2.015 . S
O370 C380 1.257 . S
O371 Co356 2.111 1_556 S
O371 C381 1.274 . S
O372 Co361 1.976 . S
O372 C381 1.251 . S
O373 Co360 2.264 . S
O373 Co361 2.327 . S
O373 C382 1.257 . S
O374 Co361 2.073 . S
O374 C382 1.245 . S
C375 O383 1.259 . S
C375 O384 1.289 . S
C376 O385 1.246 . S
C376 O386 1.257 . S
C377 O365 1.251 . S
C377 O366 1.274 . S
C378 O363 1.245 . S
C378 O364 1.257 . S
C379 O368 1.259 . S
C379 O369 1.289 . S
C380 O367 1.246 . S
C380 O370 1.257 . S
C381 O371 1.274 . S
C381 O372 1.251 . S
C382 O373 1.257 . S
C382 O374 1.245 . S
O383 Co354 2.286 . S
O383 C375 1.259 . S
O384 Co354 2.069 . S
O384 C375 1.289 . S
O385 Co356 2.143 . S
O385 C376 1.246 . S
O386 Co354 2.015 . S
O386 C376 1.257 . S
C387 C388 1.349 . S
C387 C389 1.327 . S
C387 H412 0.950 . S
C388 C387 1.349 . S
C388 C404 1.349 . S
C389 C387 1.327 . S
C389 C408 1.429 . S
C389 H413 0.950 . S
C390 C407 1.574 . S
C390 C409 1.368 . S
C390 H414 0.949 . S
H391 C395 0.949 . S
C392 C393 1.349 . S
C392 C394 1.327 . S
C392 H415 0.950 . S
C393 C392 1.349 . S
C393 C405 1.349 . S
C394 C392 1.327 . S
C394 C410 1.429 . S
C394 H416 0.950 . S
C395 H391 0.949 . S
C395 C403 1.574 . S
C395 C411 1.368 . S
H396 C404 0.950 . S
H397 C402 0.950 . S
H398 C403 0.949 . S
H399 C405 0.950 . S
H400 C406 0.950 . S
H401 C407 0.949 . S
C402 H397 0.950 . S
C402 C404 1.327 . S
C402 C408 1.429 . S
C403 C395 1.574 . S
C403 H398 0.949 . S
C403 C409 1.368 . S
C404 C388 1.349 . S
C404 H396 0.950 . S
C404 C402 1.327 . S
C405 C393 1.349 . S
C405 H399 0.950 . S
C405 C406 1.327 . S
C406 H400 0.950 . S
C406 C405 1.327 . S
C406 C410 1.429 . S
C407 C390 1.574 . S
C407 H401 0.949 . S
C407 C411 1.368 . S
C408 C389 1.429 . S
C408 C402 1.429 . S
C408 C409 1.523 . S
C409 C390 1.368 . S
C409 C403 1.368 . S
C409 C408 1.523 . S
C410 C394 1.429 . S
C410 C406 1.429 . S
C410 C411 1.523 . S
C411 C395 1.368 . S
C411 C407 1.368 . S
C411 C410 1.523 . S
H412 C387 0.950 . S
H413 C389 0.950 . S
H414 C390 0.949 . S
H415 C392 0.950 . S
H416 C394 0.950 . S
C417 C418 1.349 . S
C417 C419 1.327 . S
C417 H442 0.950 . S
C418 C417 1.349 . S
C418 C434 1.349 . S
C419 C417 1.327 . S
C419 C438 1.429 . S
C419 H443 0.950 . S
C420 C437 1.574 . S
C420 C439 1.368 . S
C420 H444 0.949 . S
H421 C425 0.949 . S
C422 C423 1.349 . S
C422 C424 1.327 . S
C422 H445 0.950 . S
C423 C422 1.349 . S
C423 C435 1.349 . S
C424 C422 1.327 . S
C424 C440 1.429 . S
C424 H446 0.950 . S
C425 H421 0.949 . S
C425 C433 1.574 . S
C425 C441 1.368 . S
H426 C434 0.950 . S
H427 C432 0.950 . S
H428 C433 0.949 . S
H429 C435 0.950 . S
H430 C436 0.950 . S
H431 C437 0.949 . S
C432 H427 0.950 . S
C432 C434 1.327 . S
C432 C438 1.429 . S
C433 C425 1.574 . S
C433 H428 0.949 . S
C433 C439 1.368 . S
C434 C418 1.349 . S
C434 H426 0.950 . S
C434 C432 1.327 . S
C435 C423 1.349 . S
C435 H429 0.950 . S
C435 C436 1.327 . S
C436 H430 0.950 . S
C436 C435 1.327 . S
C436 C440 1.429 . S
C437 C420 1.574 . S
C437 H431 0.949 . S
C437 C441 1.368 . S
C438 C419 1.429 . S
C438 C432 1.429 . S
C438 C439 1.523 . S
C439 C420 1.368 . S
C439 C433 1.368 . S
C439 C438 1.523 . S
C440 C424 1.429 . S
C440 C436 1.429 . S
C440 C441 1.523 . S
C441 C425 1.368 . S
C441 C437 1.368 . S
C441 C440 1.523 . S
H442 C417 0.950 . S
H443 C419 0.950 . S
H444 C420 0.949 . S
H445 C422 0.950 . S
H446 C424 0.950 . S
C447 C448 1.349 . S
C447 C449 1.327 . S
C447 H472 0.950 . S
C448 C447 1.349 . S
C448 C464 1.349 . S
C449 C447 1.327 . S
C449 C468 1.429 . S
C449 H473 0.950 . S
C450 C467 1.574 . S
C450 C469 1.368 . S
C450 H474 0.949 . S
H451 C455 0.949 . S
C452 C453 1.349 . S
C452 C454 1.327 . S
C452 H475 0.950 . S
C453 C452 1.349 . S
C453 C465 1.349 . S
C454 C452 1.327 . S
C454 C470 1.429 . S
C454 H476 0.950 . S
C455 H451 0.949 . S
C455 C463 1.574 . S
C455 C471 1.368 . S
H456 C464 0.950 . S
H457 C462 0.950 . S
H458 C463 0.949 . S
H459 C465 0.950 . S
H460 C466 0.950 . S
H461 C467 0.949 . S
C462 H457 0.950 . S
C462 C464 1.327 . S
C462 C468 1.429 . S
C463 C455 1.574 . S
C463 H458 0.949 . S
C463 C469 1.368 . S
C464 C448 1.349 . S
C464 H456 0.950 . S
C464 C462 1.327 . S
C465 C453 1.349 . S
C465 H459 0.950 . S
C465 C466 1.327 . S
C466 H460 0.950 . S
C466 C465 1.327 . S
C466 C470 1.429 . S
C467 C450 1.574 . S
C467 H461 0.949 . S
C467 C471 1.368 . S
C468 C449 1.429 . S
C468 C462 1.429 . S
C468 C469 1.523 . S
C469 C450 1.368 . S
C469 C463 1.368 . S
C469 C468 1.523 . S
C470 C454 1.429 . S
C470 C466 1.429 . S
C470 C471 1.523 . S
C471 C455 1.368 . S
C471 C467 1.368 . S
C471 C470 1.523 . S
H472 C447 0.950 . S
H473 C449 0.950 . S
H474 C450 0.949 . S
H475 C452 0.950 . S
H476 C454 0.950 . S
C477 C478 1.349 . S
C477 C479 1.327 . S
C477 H502 0.950 . S
C478 C477 1.349 . S
C478 C494 1.349 . S
C479 C477 1.327 . S
C479 C498 1.429 . S
C479 H503 0.950 . S
C480 C497 1.574 . S
C480 C499 1.368 . S
C480 H504 0.949 . S
H481 C485 0.949 . S
C482 C483 1.349 . S
C482 C484 1.327 . S
C482 H505 0.950 . S
C483 C482 1.349 . S
C483 C495 1.349 . S
C484 C482 1.327 . S
C484 C500 1.429 . S
C484 H506 0.950 . S
C485 H481 0.949 . S
C485 C493 1.574 . S
C485 C501 1.368 . S
H486 C494 0.950 . S
H487 C492 0.950 . S
H488 C493 0.949 . S
H489 C495 0.950 . S
H490 C496 0.950 . S
H491 C497 0.949 . S
C492 H487 0.950 . S
C492 C494 1.327 . S
C492 C498 1.429 . S
C493 C485 1.574 . S
C493 H488 0.949 . S
C493 C499 1.368 . S
C494 C478 1.349 . S
C494 H486 0.950 . S
C494 C492 1.327 . S
C495 C483 1.349 . S
C495 H489 0.950 . S
C495 C496 1.327 . S
C496 H490 0.950 . S
C496 C495 1.327 . S
C496 C500 1.429 . S
C497 C480 1.574 . S
C497 H491 0.949 . S
C497 C501 1.368 . S
C498 C479 1.429 . S
C498 C492 1.429 . S
C498 C499 1.523 . S
C499 C480 1.368 . S
C499 C493 1.368 . S
C499 C498 1.523 . S
C500 C484 1.429 . S
C500 C496 1.429 . S
C500 C501 1.523 . S
C501 C485 1.368 . S
C501 C497 1.368 . S
C501 C500 1.523 . S
H502 C477 0.950 . S
H503 C479 0.950 . S
H504 C480 0.949 . S
H505 C482 0.950 . S
H506 C484 0.950 . S
C507 C508 1.349 . S
C507 C509 1.327 . S
C507 H532 0.950 . S
C508 C507 1.349 . S
C508 C524 1.349 . S
C509 C507 1.327 . S
C509 C528 1.429 . S
C509 H533 0.950 . S
C510 C527 1.574 . S
C510 C529 1.368 . S
C510 H534 0.949 . S
H511 C515 0.949 . S
C512 C513 1.349 . S
C512 C514 1.327 . S
C512 H535 0.950 . S
C513 C512 1.349 . S
C513 C525 1.349 . S
C514 C512 1.327 . S
C514 C530 1.429 . S
C514 H536 0.950 . S
C515 H511 0.949 . S
C515 C523 1.574 . S
C515 C531 1.368 . S
H516 C524 0.950 . S
H517 C522 0.950 . S
H518 C523 0.949 . S
H519 C525 0.950 . S
H520 C526 0.950 . S
H521 C527 0.949 . S
C522 H517 0.950 . S
C522 C524 1.327 . S
C522 C528 1.429 . S
C523 C515 1.574 . S
C523 H518 0.949 . S
C523 C529 1.368 . S
C524 C508 1.349 . S
C524 H516 0.950 . S
C524 C522 1.327 . S
C525 C513 1.349 . S
C525 H519 0.950 . S
C525 C526 1.327 . S
C526 H520 0.950 . S
C526 C525 1.327 . S
C526 C530 1.429 . S
C527 C510 1.574 . S
C527 H521 0.949 . S
C527 C531 1.368 . S
C528 C509 1.429 . S
C528 C522 1.429 . S
C528 C529 1.523 . S
C529 C510 1.368 . S
C529 C523 1.368 . S
C529 C528 1.523 . S
C530 C514 1.429 . S
C530 C526 1.429 . S
C530 C531 1.523 . S
C531 C515 1.368 . S
C531 C527 1.368 . S
C531 C530 1.523 . S
H532 C507 0.950 . S
H533 C509 0.950 . S
H534 C510 0.949 . S
H535 C512 0.950 . S
H536 C514 0.950 . S
C537 C538 1.349 . S
C537 C539 1.327 . S
C537 H562 0.950 . S
C538 C537 1.349 . S
C538 C554 1.349 . S
C539 C537 1.327 . S
C539 C558 1.429 . S
C539 H563 0.950 . S
C540 C557 1.574 . S
C540 C559 1.368 . S
C540 H564 0.949 . S
H541 C545 0.949 . S
C542 C543 1.349 . S
C542 C544 1.327 . S
C542 H565 0.950 . S
C543 C542 1.349 . S
C543 C555 1.349 . S
C544 C542 1.327 . S
C544 C560 1.429 . S
C544 H566 0.950 . S
C545 H541 0.949 . S
C545 C553 1.574 . S
C545 C561 1.368 . S
H546 C554 0.950 . S
H547 C552 0.950 . S
H548 C553 0.949 . S
H549 C555 0.950 . S
H550 C556 0.950 . S
H551 C557 0.949 . S
C552 H547 0.950 . S
C552 C554 1.327 . S
C552 C558 1.429 . S
C553 C545 1.574 . S
C553 H548 0.949 . S
C553 C559 1.368 . S
C554 C538 1.349 . S
C554 H546 0.950 . S
C554 C552 1.327 . S
C555 C543 1.349 . S
C555 H549 0.950 . S
C555 C556 1.327 . S
C556 H550 0.950 . S
C556 C555 1.327 . S
C556 C560 1.429 . S
C557 C540 1.574 . S
C557 H551 0.949 . S
C557 C561 1.368 . S
C558 C539 1.429 . S
C558 C552 1.429 . S
C558 C559 1.523 . S
C559 C540 1.368 . S
C559 C553 1.368 . S
C559 C558 1.523 . S
C560 C544 1.429 . S
C560 C556 1.429 . S
C560 C561 1.523 . S
C561 C545 1.368 . S
C561 C557 1.368 . S
C561 C560 1.523 . S
H562 C537 0.950 . S
H563 C539 0.950 . S
H564 C540 0.949 . S
H565 C542 0.950 . S
H566 C544 0.950 . S
C567 C568 1.349 . S
C567 C569 1.327 . S
C567 H592 0.950 . S
C568 C567 1.349 . S
C568 C584 1.349 . S
C569 C567 1.327 . S
C569 C588 1.429 . S
C569 H593 0.950 . S
C570 C587 1.574 . S
C570 C589 1.368 . S
C570 H594 0.949 . S
H571 C575 0.949 . S
C572 C573 1.349 . S
C572 C574 1.327 . S
C572 H595 0.950 . S
C573 C572 1.349 . S
C573 C585 1.349 . S
C574 C572 1.327 . S
C574 C590 1.429 . S
C574 H596 0.950 . S
C575 H571 0.949 . S
C575 C583 1.574 . S
C575 C591 1.368 . S
H576 C584 0.950 . S
H577 C582 0.950 . S
H578 C583 0.949 . S
H579 C585 0.950 . S
H580 C586 0.950 . S
H581 C587 0.949 . S
C582 H577 0.950 . S
C582 C584 1.327 . S
C582 C588 1.429 . S
C583 C575 1.574 . S
C583 H578 0.949 . S
C583 C589 1.368 . S
C584 C568 1.349 . S
C584 H576 0.950 . S
C584 C582 1.327 . S
C585 C573 1.349 . S
C585 H579 0.950 . S
C585 C586 1.327 . S
C586 H580 0.950 . S
C586 C585 1.327 . S
C586 C590 1.429 . S
C587 C570 1.574 . S
C587 H581 0.949 . S
C587 C591 1.368 . S
C588 C569 1.429 . S
C588 C582 1.429 . S
C588 C589 1.523 . S
C589 C570 1.368 . S
C589 C583 1.368 . S
C589 C588 1.523 . S
C590 C574 1.429 . S
C590 C586 1.429 . S
C590 C591 1.523 . S
C591 C575 1.368 . S
C591 C587 1.368 . S
C591 C590 1.523 . S
H592 C567 0.950 . S
H593 C569 0.950 . S
H594 C570 0.949 . S
H595 C572 0.950 . S
H596 C574 0.950 . S
C597 C598 1.349 . S
C597 C599 1.327 . S
C597 H622 0.950 . S
C598 C597 1.349 . S
C598 C614 1.349 . S
C599 C597 1.327 . S
C599 C618 1.429 . S
C599 H623 0.950 . S
C600 C617 1.574 . S
C600 C619 1.368 . S
C600 H624 0.949 . S
H601 C605 0.949 . S
C602 C603 1.349 . S
C602 C604 1.327 . S
C602 H625 0.950 . S
C603 C602 1.349 . S
C603 C615 1.349 . S
C604 C602 1.327 . S
C604 C620 1.429 . S
C604 H626 0.950 . S
C605 H601 0.949 . S
C605 C613 1.574 . S
C605 C621 1.368 . S
H606 C614 0.950 . S
H607 C612 0.950 . S
H608 C613 0.949 . S
H609 C615 0.950 . S
H610 C616 0.950 . S
H611 C617 0.949 . S
C612 H607 0.950 . S
C612 C614 1.327 . S
C612 C618 1.429 . S
C613 C605 1.574 . S
C613 H608 0.949 . S
C613 C619 1.368 . S
C614 C598 1.349 . S
C614 H606 0.950 . S
C614 C612 1.327 . S
C615 C603 1.349 . S
C615 H609 0.950 . S
C615 C616 1.327 . S
C616 H610 0.950 . S
C616 C615 1.327 . S
C616 C620 1.429 . S
C617 C600 1.574 . S
C617 H611 0.949 . S
C617 C621 1.368 . S
C618 C599 1.429 . S
C618 C612 1.429 . S
C618 C619 1.523 . S
C619 C600 1.368 . S
C619 C613 1.368 . S
C619 C618 1.523 . S
C620 C604 1.429 . S
C620 C616 1.429 . S
C620 C621 1.523 . S
C621 C605 1.368 . S
C621 C617 1.368 . S
C621 C620 1.523 . S
H622 C597 0.950 . S
H623 C599 0.950 . S
H624 C600 0.949 . S
H625 C602 0.950 . S
H626 C604 0.950 . S
C627 C628 1.349 . S
C627 C629 1.327 . S
C627 H652 0.950 . S
C628 C627 1.349 . S
C628 C644 1.349 . S
C629 C627 1.327 . S
C629 C648 1.429 . S
C629 H653 0.950 . S
C630 C647 1.574 . S
C630 C649 1.368 . S
C630 H654 0.949 . S
H631 C635 0.949 . S
C632 C633 1.349 . S
C632 C634 1.327 . S
C632 H655 0.950 . S
C633 C632 1.349 . S
C633 C645 1.349 . S
C634 C632 1.327 . S
C634 C650 1.429 . S
C634 H656 0.950 . S
C635 H631 0.949 . S
C635 C643 1.574 . S
C635 C651 1.368 . S
H636 C644 0.950 . S
H637 C642 0.950 . S
H638 C643 0.949 . S
H639 C645 0.950 . S
H640 C646 0.950 . S
H641 C647 0.949 . S
C642 H637 0.950 . S
C642 C644 1.327 . S
C642 C648 1.429 . S
C643 C635 1.574 . S
C643 H638 0.949 . S
C643 C649 1.368 . S
C644 C628 1.349 . S
C644 H636 0.950 . S
C644 C642 1.327 . S
C645 C633 1.349 . S
C645 H639 0.950 . S
C645 C646 1.327 . S
C646 H640 0.950 . S
C646 C645 1.327 . S
C646 C650 1.429 . S
C647 C630 1.574 . S
C647 H641 0.949 . S
C647 C651 1.368 . S
C648 C629 1.429 . S
C648 C642 1.429 . S
C648 C649 1.523 . S
C649 C630 1.368 . S
C649 C643 1.368 . S
C649 C648 1.523 . S
C650 C634 1.429 . S
C650 C646 1.429 . S
C650 C651 1.523 . S
C651 C635 1.368 . S
C651 C647 1.368 . S
C651 C650 1.523 . S
H652 C627 0.950 . S
H653 C629 0.950 . S
H654 C630 0.949 . S
H655 C632 0.950 . S
H656 C634 0.950 . S
C657 C658 1.349 . S
C657 C659 1.327 . S
C657 H682 0.950 . S
C658 C657 1.349 . S
C658 C674 1.349 . S
C659 C657 1.327 . S
C659 C678 1.429 . S
C659 H683 0.950 . S
C660 C677 1.574 . S
C660 C679 1.368 . S
C660 H684 0.949 . S
H661 C665 0.949 . S
C662 C663 1.349 . S
C662 C664 1.327 . S
C662 H685 0.950 . S
C663 C662 1.349 . S
C663 C675 1.349 . S
C664 C662 1.327 . S
C664 C680 1.429 . S
C664 H686 0.950 . S
C665 H661 0.949 . S
C665 C673 1.574 . S
C665 C681 1.368 . S
H666 C674 0.950 . S
H667 C672 0.950 . S
H668 C673 0.949 . S
H669 C675 0.950 . S
H670 C676 0.950 . S
H671 C677 0.949 . S
C672 H667 0.950 . S
C672 C674 1.327 . S
C672 C678 1.429 . S
C673 C665 1.574 . S
C673 H668 0.949 . S
C673 C679 1.368 . S
C674 C658 1.349 . S
C674 H666 0.950 . S
C674 C672 1.327 . S
C675 C663 1.349 . S
C675 H669 0.950 . S
C675 C676 1.327 . S
C676 H670 0.950 . S
C676 C675 1.327 . S
C676 C680 1.429 . S
C677 C660 1.574 . S
C677 H671 0.949 . S
C677 C681 1.368 . S
C678 C659 1.429 . S
C678 C672 1.429 . S
C678 C679 1.523 . S
C679 C660 1.368 . S
C679 C673 1.368 . S
C679 C678 1.523 . S
C680 C664 1.429 . S
C680 C676 1.429 . S
C680 C681 1.523 . S
C681 C665 1.368 . S
C681 C677 1.368 . S
C681 C680 1.523 . S
H682 C657 0.950 . S
H683 C659 0.950 . S
H684 C660 0.949 . S
H685 C662 0.950 . S
H686 C664 0.950 . S
C687 C688 1.349 . S
C687 C689 1.327 . S
C687 H712 0.950 . S
C688 C687 1.349 . S
C688 C704 1.349 . S
C689 C687 1.327 . S
C689 C708 1.429 . S
C689 H713 0.950 . S
C690 C707 1.574 . S
C690 C709 1.368 . S
C690 H714 0.949 . S
H691 C695 0.949 . S
C692 C693 1.349 . S
C692 C694 1.327 . S
C692 H715 0.950 . S
C693 C692 1.349 . S
C693 C705 1.349 . S
C694 C692 1.327 . S
C694 C710 1.429 . S
C694 H716 0.950 . S
C695 H691 0.949 . S
C695 C703 1.574 . S
C695 C711 1.368 . S
H696 C704 0.950 . S
H697 C702 0.950 . S
H698 C703 0.949 . S
H699 C705 0.950 . S
H700 C706 0.950 . S
H701 C707 0.949 . S
C702 H697 0.950 . S
C702 C704 1.327 . S
C702 C708 1.429 . S
C703 C695 1.574 . S
C703 H698 0.949 . S
C703 C709 1.368 . S
C704 C688 1.349 . S
C704 H696 0.950 . S
C704 C702 1.327 . S
C705 C693 1.349 . S
C705 H699 0.950 . S
C705 C706 1.327 . S
C706 H700 0.950 . S
C706 C705 1.327 . S
C706 C710 1.429 . S
C707 C690 1.574 . S
C707 H701 0.949 . S
C707 C711 1.368 . S
C708 C689 1.429 . S
C708 C702 1.429 . S
C708 C709 1.523 . S
C709 C690 1.368 . S
C709 C703 1.368 . S
C709 C708 1.523 . S
C710 C694 1.429 . S
C710 C706 1.429 . S
C710 C711 1.523 . S
C711 C695 1.368 . S
C711 C707 1.368 . S
C711 C710 1.523 . S
H712 C687 0.950 . S
H713 C689 0.950 . S
H714 C690 0.949 . S
H715 C692 0.950 . S
H716 C694 0.950 . S
C717 C718 1.349 . S
C717 C719 1.327 . S
C717 H742 0.950 . S
C718 C717 1.349 . S
C718 C734 1.349 . S
C719 C717 1.327 . S
C719 C738 1.429 . S
C719 H743 0.950 . S
C720 C737 1.574 . S
C720 C739 1.368 . S
C720 H744 0.949 . S
H721 C725 0.949 . S
C722 C723 1.349 . S
C722 C724 1.327 . S
C722 H745 0.950 . S
C723 C722 1.349 . S
C723 C735 1.349 . S
C724 C722 1.327 . S
C724 C740 1.429 . S
C724 H746 0.950 . S
C725 H721 0.949 . S
C725 C733 1.574 . S
C725 C741 1.368 . S
H726 C734 0.950 . S
H727 C732 0.950 . S
H728 C733 0.949 . S
H729 C735 0.950 . S
H730 C736 0.950 . S
H731 C737 0.949 . S
C732 H727 0.950 . S
C732 C734 1.327 . S
C732 C738 1.429 . S
C733 C725 1.574 . S
C733 H728 0.949 . S
C733 C739 1.368 . S
C734 C718 1.349 . S
C734 H726 0.950 . S
C734 C732 1.327 . S
C735 C723 1.349 . S
C735 H729 0.950 . S
C735 C736 1.327 . S
C736 H730 0.950 . S
C736 C735 1.327 . S
C736 C740 1.429 . S
C737 C720 1.574 . S
C737 H731 0.949 . S
C737 C741 1.368 . S
C738 C719 1.429 . S
C738 C732 1.429 . S
C738 C739 1.523 . S
C739 C720 1.368 . S
C739 C733 1.368 . S
C739 C738 1.523 . S
C740 C724 1.429 . S
C740 C736 1.429 . S
C740 C741 1.523 . S
C741 C725 1.368 . S
C741 C737 1.368 . S
C741 C740 1.523 . S
H742 C717 0.950 . S
H743 C719 0.950 . S
H744 C720 0.949 . S
H745 C722 0.950 . S
H746 C724 0.950 . S
C747 C748 1.349 . S
C747 C749 1.327 . S
C747 H772 0.950 . S
C748 C747 1.349 . S
C748 C764 1.349 . S
C749 C747 1.327 . S
C749 C768 1.429 . S
C749 H773 0.950 . S
C750 C767 1.574 . S
C750 C769 1.368 . S
C750 H774 0.949 . S
H751 C755 0.949 . S
C752 C753 1.349 . S
C752 C754 1.327 . S
C752 H775 0.950 . S
C753 C752 1.349 . S
C753 C765 1.349 . S
C754 C752 1.327 . S
C754 C770 1.429 . S
C754 H776 0.950 . S
C755 H751 0.949 . S
C755 C763 1.574 . S
C755 C771 1.368 . S
H756 C764 0.950 . S
H757 C762 0.950 . S
H758 C763 0.949 . S
H759 C765 0.950 . S
H760 C766 0.950 . S
H761 C767 0.949 . S
C762 H757 0.950 . S
C762 C764 1.327 . S
C762 C768 1.429 . S
C763 C755 1.574 . S
C763 H758 0.949 . S
C763 C769 1.368 . S
C764 C748 1.349 . S
C764 H756 0.950 . S
C764 C762 1.327 . S
C765 C753 1.349 . S
C765 H759 0.950 . S
C765 C766 1.327 . S
C766 H760 0.950 . S
C766 C765 1.327 . S
C766 C770 1.429 . S
C767 C750 1.574 . S
C767 H761 0.949 . S
C767 C771 1.368 . S
C768 C749 1.429 . S
C768 C762 1.429 . S
C768 C769 1.523 . S
C769 C750 1.368 . S
C769 C763 1.368 . S
C769 C768 1.523 . S
C770 C754 1.429 . S
C770 C766 1.429 . S
C770 C771 1.523 . S
C771 C755 1.368 . S
C771 C767 1.368 . S
C771 C770 1.523 . S
H772 C747 0.950 . S
H773 C749 0.950 . S
H774 C750 0.949 . S
H775 C752 0.950 . S
H776 C754 0.950 . S
C777 C778 1.349 . S
C777 C779 1.327 . S
C777 H802 0.950 . S
C778 C777 1.349 . S
C778 C794 1.349 . S
C779 C777 1.327 . S
C779 C798 1.429 . S
C779 H803 0.950 . S
C780 C797 1.574 . S
C780 C799 1.368 . S
C780 H804 0.949 . S
H781 C785 0.949 . S
C782 C783 1.349 . S
C782 C784 1.327 . S
C782 H805 0.950 . S
C783 C782 1.349 . S
C783 C795 1.349 . S
C784 C782 1.327 . S
C784 C800 1.429 . S
C784 H806 0.950 . S
C785 H781 0.949 . S
C785 C793 1.574 . S
C785 C801 1.368 . S
H786 C794 0.950 . S
H787 C792 0.950 . S
H788 C793 0.949 . S
H789 C795 0.950 . S
H790 C796 0.950 . S
H791 C797 0.949 . S
C792 H787 0.950 . S
C792 C794 1.327 . S
C792 C798 1.429 . S
C793 C785 1.574 . S
C793 H788 0.949 . S
C793 C799 1.368 . S
C794 C778 1.349 . S
C794 H786 0.950 . S
C794 C792 1.327 . S
C795 C783 1.349 . S
C795 H789 0.950 . S
C795 C796 1.327 . S
C796 H790 0.950 . S
C796 C795 1.327 . S
C796 C800 1.429 . S
C797 C780 1.574 . S
C797 H791 0.949 . S
C797 C801 1.368 . S
C798 C779 1.429 . S
C798 C792 1.429 . S
C798 C799 1.523 . S
C799 C780 1.368 . S
C799 C793 1.368 . S
C799 C798 1.523 . S
C800 C784 1.429 . S
C800 C796 1.429 . S
C800 C801 1.523 . S
C801 C785 1.368 . S
C801 C797 1.368 . S
C801 C800 1.523 . S
H802 C777 0.950 . S
H803 C779 0.950 . S
H804 C780 0.949 . S
H805 C782 0.950 . S
H806 C784 0.950 . S
C807 C808 1.349 . S
C807 C809 1.327 . S
C807 H832 0.950 . S
C808 C807 1.349 . S
C808 C824 1.349 . S
C809 C807 1.327 . S
C809 C828 1.429 . S
C809 H833 0.950 . S
C810 C827 1.574 . S
C810 C829 1.368 . S
C810 H834 0.949 . S
H811 C815 0.949 . S
C812 C813 1.349 . S
C812 C814 1.327 . S
C812 H835 0.950 . S
C813 C812 1.349 . S
C813 C825 1.349 . S
C814 C812 1.327 . S
C814 C830 1.429 . S
C814 H836 0.950 . S
C815 H811 0.949 . S
C815 C823 1.574 . S
C815 C831 1.368 . S
H816 C824 0.950 . S
H817 C822 0.950 . S
H818 C823 0.949 . S
H819 C825 0.950 . S
H820 C826 0.950 . S
H821 C827 0.949 . S
C822 H817 0.950 . S
C822 C824 1.327 . S
C822 C828 1.429 . S
C823 C815 1.574 . S
C823 H818 0.949 . S
C823 C829 1.368 . S
C824 C808 1.349 . S
C824 H816 0.950 . S
C824 C822 1.327 . S
C825 C813 1.349 . S
C825 H819 0.950 . S
C825 C826 1.327 . S
C826 H820 0.950 . S
C826 C825 1.327 . S
C826 C830 1.429 . S
C827 C810 1.574 . S
C827 H821 0.949 . S
C827 C831 1.368 . S
C828 C809 1.429 . S
C828 C822 1.429 . S
C828 C829 1.523 . S
C829 C810 1.368 . S
C829 C823 1.368 . S
C829 C828 1.523 . S
C830 C814 1.429 . S
C830 C826 1.429 . S
C830 C831 1.523 . S
C831 C815 1.368 . S
C831 C827 1.368 . S
C831 C830 1.523 . S
H832 C807 0.950 . S
H833 C809 0.950 . S
H834 C810 0.949 . S
H835 C812 0.950 . S
H836 C814 0.950 . S
C837 C838 1.349 . S
C837 C839 1.327 . S
C837 H862 0.950 . S
C838 C837 1.349 . S
C838 C854 1.349 . S
C839 C837 1.327 . S
C839 C858 1.429 . S
C839 H863 0.950 . S
C840 C857 1.574 . S
C840 C859 1.368 . S
C840 H864 0.949 . S
H841 C845 0.949 . S
C842 C843 1.349 . S
C842 C844 1.327 . S
C842 H865 0.950 . S
C843 C842 1.349 . S
C843 C855 1.349 . S
C844 C842 1.327 . S
C844 C860 1.429 . S
C844 H866 0.950 . S
C845 H841 0.949 . S
C845 C853 1.574 . S
C845 C861 1.368 . S
H846 C854 0.950 . S
H847 C852 0.950 . S
H848 C853 0.949 . S
H849 C855 0.950 . S
H850 C856 0.950 . S
H851 C857 0.949 . S
C852 H847 0.950 . S
C852 C854 1.327 . S
C852 C858 1.429 . S
C853 C845 1.574 . S
C853 H848 0.949 . S
C853 C859 1.368 . S
C854 C838 1.349 . S
C854 H846 0.950 . S
C854 C852 1.327 . S
C855 C843 1.349 . S
C855 H849 0.950 . S
C855 C856 1.327 . S
C856 H850 0.950 . S
C856 C855 1.327 . S
C856 C860 1.429 . S
C857 C840 1.574 . S
C857 H851 0.949 . S
C857 C861 1.368 . S
C858 C839 1.429 . S
C858 C852 1.429 . S
C858 C859 1.523 . S
C859 C840 1.368 . S
C859 C853 1.368 . S
C859 C858 1.523 . S
C860 C844 1.429 . S
C860 C856 1.429 . S
C860 C861 1.523 . S
C861 C845 1.368 . S
C861 C857 1.368 . S
C861 C860 1.523 . S
H862 C837 0.950 . S
H863 C839 0.950 . S
H864 C840 0.949 . S
H865 C842 0.950 . S
H866 C844 0.950 . S
C867 C868 1.349 . S
C867 C869 1.327 . S
C867 H892 0.950 . S
C868 C867 1.349 . S
C868 C884 1.349 . S
C869 C867 1.327 . S
C869 C888 1.429 . S
C869 H893 0.950 . S
C870 C887 1.574 . S
C870 C889 1.368 . S
C870 H894 0.949 . S
H871 C875 0.949 . S
C872 C873 1.349 . S
C872 C874 1.327 . S
C872 H895 0.950 . S
C873 C872 1.349 . S
C873 C885 1.349 . S
C874 C872 1.327 . S
C874 C890 1.429 . S
C874 H896 0.950 . S
C875 H871 0.949 . S
C875 C883 1.574 . S
C875 C891 1.368 . S
H876 C884 0.950 . S
H877 C882 0.950 . S
H878 C883 0.949 . S
H879 C885 0.950 . S
H880 C886 0.950 . S
H881 C887 0.949 . S
C882 H877 0.950 . S
C882 C884 1.327 . S
C882 C888 1.429 . S
C883 C875 1.574 . S
C883 H878 0.949 . S
C883 C889 1.368 . S
C884 C868 1.349 . S
C884 H876 0.950 . S
C884 C882 1.327 . S
C885 C873 1.349 . S
C885 H879 0.950 . S
C885 C886 1.327 . S
C886 H880 0.950 . S
C886 C885 1.327 . S
C886 C890 1.429 . S
C887 C870 1.574 . S
C887 H881 0.949 . S
C887 C891 1.368 . S
C888 C869 1.429 . S
C888 C882 1.429 . S
C888 C889 1.523 . S
C889 C870 1.368 . S
C889 C883 1.368 . S
C889 C888 1.523 . S
C890 C874 1.429 . S
C890 C886 1.429 . S
C890 C891 1.523 . S
C891 C875 1.368 . S
C891 C887 1.368 . S
C891 C890 1.523 . S
H892 C867 0.950 . S
H893 C869 0.950 . S
H894 C870 0.949 . S
H895 C872 0.950 . S
H896 C874 0.950 . S
C897 C898 1.349 . S
C897 C899 1.327 . S
C897 H922 0.950 . S
C898 C897 1.349 . S
C898 C914 1.349 . S
C899 C897 1.327 . S
C899 C918 1.429 . S
C899 H923 0.950 . S
C900 C917 1.574 . S
C900 C919 1.368 . S
C900 H924 0.949 . S
H901 C905 0.949 . S
C902 C903 1.349 . S
C902 C904 1.327 . S
C902 H925 0.950 . S
C903 C902 1.349 . S
C903 C915 1.349 . S
C904 C902 1.327 . S
C904 C920 1.429 . S
C904 H926 0.950 . S
C905 H901 0.949 . S
C905 C913 1.574 . S
C905 C921 1.368 . S
H906 C914 0.950 . S
H907 C912 0.950 . S
H908 C913 0.949 . S
H909 C915 0.950 . S
H910 C916 0.950 . S
H911 C917 0.949 . S
C912 H907 0.950 . S
C912 C914 1.327 . S
C912 C918 1.429 . S
C913 C905 1.574 . S
C913 H908 0.949 . S
C913 C919 1.368 . S
C914 C898 1.349 . S
C914 H906 0.950 . S
C914 C912 1.327 . S
C915 C903 1.349 . S
C915 H909 0.950 . S
C915 C916 1.327 . S
C916 H910 0.950 . S
C916 C915 1.327 . S
C916 C920 1.429 . S
C917 C900 1.574 . S
C917 H911 0.949 . S
C917 C921 1.368 . S
C918 C899 1.429 . S
C918 C912 1.429 . S
C918 C919 1.523 . S
C919 C900 1.368 . S
C919 C913 1.368 . S
C919 C918 1.523 . S
C920 C904 1.429 . S
C920 C916 1.429 . S
C920 C921 1.523 . S
C921 C905 1.368 . S
C921 C917 1.368 . S
C921 C920 1.523 . S
H922 C897 0.950 . S
H923 C899 0.950 . S
H924 C900 0.949 . S
H925 C902 0.950 . S
H926 C904 0.950 . S
C927 C928 1.349 . S
C927 C929 1.327 . S
C927 H952 0.950 . S
C928 C927 1.349 . S
C928 C944 1.349 . S
C929 C927 1.327 . S
C929 C948 1.429 . S
C929 H953 0.950 . S
C930 C947 1.574 . S
C930 C949 1.368 . S
C930 H954 0.949 . S
H931 C935 0.949 . S
C932 C933 1.349 . S
C932 C934 1.327 . S
C932 H955 0.950 . S
C933 C932 1.349 . S
C933 C945 1.349 . S
C934 C932 1.327 . S
C934 C950 1.429 . S
C934 H956 0.950 . S
C935 H931 0.949 . S
C935 C943 1.574 . S
C935 C951 1.368 . S
H936 C944 0.950 . S
H937 C942 0.950 . S
H938 C943 0.949 . S
H939 C945 0.950 . S
H940 C946 0.950 . S
H941 C947 0.949 . S
C942 H937 0.950 . S
C942 C944 1.327 . S
C942 C948 1.429 . S
C943 C935 1.574 . S
C943 H938 0.949 . S
C943 C949 1.368 . S
C944 C928 1.349 . S
C944 H936 0.950 . S
C944 C942 1.327 . S
C945 C933 1.349 . S
C945 H939 0.950 . S
C945 C946 1.327 . S
C946 H940 0.950 . S
C946 C945 1.327 . S
C946 C950 1.429 . S
C947 C930 1.574 . S
C947 H941 0.949 . S
C947 C951 1.368 . S
C948 C929 1.429 . S
C948 C942 1.429 . S
C948 C949 1.523 . S
C949 C930 1.368 . S
C949 C943 1.368 . S
C949 C948 1.523 . S
C950 C934 1.429 . S
C950 C946 1.429 . S
C950 C951 1.523 . S
C951 C935 1.368 . S
C951 C947 1.368 . S
C951 C950 1.523 . S
H952 C927 0.950 . S
H953 C929 0.950 . S
H954 C930 0.949 . S
H955 C932 0.950 . S
H956 C934 0.950 . S
C957 C958 1.349 . S
C957 C959 1.327 . S
C957 H982 0.950 . S
C958 C957 1.349 . S
C958 C974 1.349 . S
C959 C957 1.327 . S
C959 C978 1.429 . S
C959 H983 0.950 . S
C960 C977 1.574 . S
C960 C979 1.368 . S
C960 H984 0.949 . S
H961 C965 0.949 . S
C962 C963 1.349 . S
C962 C964 1.327 . S
C962 H985 0.950 . S
C963 C962 1.349 . S
C963 C975 1.349 . S
C964 C962 1.327 . S
C964 C980 1.429 . S
C964 H986 0.950 . S
C965 H961 0.949 . S
C965 C973 1.574 . S
C965 C981 1.368 . S
H966 C974 0.950 . S
H967 C972 0.950 . S
H968 C973 0.949 . S
H969 C975 0.950 . S
H970 C976 0.950 . S
H971 C977 0.949 . S
C972 H967 0.950 . S
C972 C974 1.327 . S
C972 C978 1.429 . S
C973 C965 1.574 . S
C973 H968 0.949 . S
C973 C979 1.368 . S
C974 C958 1.349 . S
C974 H966 0.950 . S
C974 C972 1.327 . S
C975 C963 1.349 . S
C975 H969 0.950 . S
C975 C976 1.327 . S
C976 H970 0.950 . S
C976 C975 1.327 . S
C976 C980 1.429 . S
C977 C960 1.574 . S
C977 H971 0.949 . S
C977 C981 1.368 . S
C978 C959 1.429 . S
C978 C972 1.429 . S
C978 C979 1.523 . S
C979 C960 1.368 . S
C979 C973 1.368 . S
C979 C978 1.523 . S
C980 C964 1.429 . S
C980 C976 1.429 . S
C980 C981 1.523 . S
C981 C965 1.368 . S
C981 C977 1.368 . S
C981 C980 1.523 . S
H982 C957 0.950 . S
H983 C959 0.950 . S
H984 C960 0.949 . S
H985 C962 0.950 . S
H986 C964 0.950 . S
C987 C988 1.349 . S
C987 C989 1.327 . S
C987 H1012 0.950 . S
C988 C987 1.349 . S
C988 C1004 1.349 . S
C989 C987 1.327 . S
C989 C1008 1.429 . S
C989 H1013 0.950 . S
C990 C1007 1.574 . S
C990 C1009 1.368 . S
C990 H1014 0.949 . S
H991 C995 0.949 . S
C992 C993 1.349 . S
C992 C994 1.327 . S
C992 H1015 0.950 . S
C993 C992 1.349 . S
C993 C1005 1.349 . S
C994 C992 1.327 . S
C994 C1010 1.429 . S
C994 H1016 0.950 . S
C995 H991 0.949 . S
C995 C1003 1.574 . S
C995 C1011 1.368 . S
H996 C1004 0.950 . S
H997 C1002 0.950 . S
H998 C1003 0.949 . S
H999 C1005 0.950 . S
H1000 C1006 0.950 . S
H1001 C1007 0.949 . S
C1002 H997 0.950 . S
C1002 C1004 1.327 . S
C1002 C1008 1.429 . S
C1003 C995 1.574 . S
C1003 H998 0.949 . S
C1003 C1009 1.368 . S
C1004 C988 1.349 . S
C1004 H996 0.950 . S
C1004 C1002 1.327 . S
C1005 C993 1.349 . S
C1005 H999 0.950 . S
C1005 C1006 1.327 . S
C1006 H1000 0.950 . S
C1006 C1005 1.327 . S
C1006 C1010 1.429 . S
C1007 C990 1.574 . S
C1007 H1001 0.949 . S
C1007 C1011 1.368 . S
C1008 C989 1.429 . S
C1008 C1002 1.429 . S
C1008 C1009 1.523 . S
C1009 C990 1.368 . S
C1009 C1003 1.368 . S
C1009 C1008 1.523 . S
C1010 C994 1.429 . S
C1010 C1006 1.429 . S
C1010 C1011 1.523 . S
C1011 C995 1.368 . S
C1011 C1007 1.368 . S
C1011 C1010 1.523 . S
H1012 C987 0.950 . S
H1013 C989 0.950 . S
H1014 C990 0.949 . S
H1015 C992 0.950 . S
H1016 C994 0.950 . S
C1017 C1018 1.349 . S
C1017 C1019 1.327 . S
C1017 H1042 0.950 . S
C1018 C1017 1.349 . S
C1018 C1034 1.349 . S
C1019 C1017 1.327 . S
C1019 C1038 1.429 . S
C1019 H1043 0.950 . S
C1020 C1037 1.574 . S
C1020 C1039 1.368 . S
C1020 H1044 0.949 . S
H1021 C1025 0.949 . S
C1022 C1023 1.349 . S
C1022 C1024 1.327 . S
C1022 H1045 0.950 . S
C1023 C1022 1.349 . S
C1023 C1035 1.349 . S
C1024 C1022 1.327 . S
C1024 C1040 1.429 . S
C1024 H1046 0.950 . S
C1025 H1021 0.949 . S
C1025 C1033 1.574 . S
C1025 C1041 1.368 . S
H1026 C1034 0.950 . S
H1027 C1032 0.950 . S
H1028 C1033 0.949 . S
H1029 C1035 0.950 . S
H1030 C1036 0.950 . S
H1031 C1037 0.949 . S
C1032 H1027 0.950 . S
C1032 C1034 1.327 . S
C1032 C1038 1.429 . S
C1033 C1025 1.574 . S
C1033 H1028 0.949 . S
C1033 C1039 1.368 . S
C1034 C1018 1.349 . S
C1034 H1026 0.950 . S
C1034 C1032 1.327 . S
C1035 C1023 1.349 . S
C1035 H1029 0.950 . S
C1035 C1036 1.327 . S
C1036 H1030 0.950 . S
C1036 C1035 1.327 . S
C1036 C1040 1.429 . S
C1037 C1020 1.574 . S
C1037 H1031 0.949 . S
C1037 C1041 1.368 . S
C1038 C1019 1.429 . S
C1038 C1032 1.429 . S
C1038 C1039 1.523 . S
C1039 C1020 1.368 . S
C1039 C1033 1.368 . S
C1039 C1038 1.523 . S
C1040 C1024 1.429 . S
C1040 C1036 1.429 . S
C1040 C1041 1.523 . S
C1041 C1025 1.368 . S
C1041 C1037 1.368 . S
C1041 C1040 1.523 . S
H1042 C1017 0.950 . S
H1043 C1019 0.950 . S
H1044 C1020 0.949 . S
H1045 C1022 0.950 . S
H1046 C1024 0.950 . S
C1047 C1048 1.349 . S
C1047 C1049 1.327 . S
C1047 H1072 0.950 . S
C1048 C1047 1.349 . S
C1048 C1064 1.349 . S
C1049 C1047 1.327 . S
C1049 C1068 1.429 . S
C1049 H1073 0.950 . S
C1050 C1067 1.574 . S
C1050 C1069 1.368 . S
C1050 H1074 0.949 . S
H1051 C1055 0.949 . S
C1052 C1053 1.349 . S
C1052 C1054 1.327 . S
C1052 H1075 0.950 . S
C1053 C1052 1.349 . S
C1053 C1065 1.349 . S
C1054 C1052 1.327 . S
C1054 C1070 1.429 . S
C1054 H1076 0.950 . S
C1055 H1051 0.949 . S
C1055 C1063 1.574 . S
C1055 C1071 1.368 . S
H1056 C1064 0.950 . S
H1057 C1062 0.950 . S
H1058 C1063 0.949 . S
H1059 C1065 0.950 . S
H1060 C1066 0.950 . S
H1061 C1067 0.949 . S
C1062 H1057 0.950 . S
C1062 C1064 1.327 . S
C1062 C1068 1.429 . S
C1063 C1055 1.574 . S
C1063 H1058 0.949 . S
C1063 C1069 1.368 . S
C1064 C1048 1.349 . S
C1064 H1056 0.950 . S
C1064 C1062 1.327 . S
C1065 C1053 1.349 . S
C1065 H1059 0.950 . S
C1065 C1066 1.327 . S
C1066 H1060 0.950 . S
C1066 C1065 1.327 . S
C1066 C1070 1.429 . S
C1067 C1050 1.574 . S
C1067 H1061 0.949 . S
C1067 C1071 1.368 . S
C1068 C1049 1.429 . S
C1068 C1062 1.429 . S
C1068 C1069 1.523 . S
C1069 C1050 1.368 . S
C1069 C1063 1.368 . S
C1069 C1068 1.523 . S
C1070 C1054 1.429 . S
C1070 C1066 1.429 . S
C1070 C1071 1.523 . S
C1071 C1055 1.368 . S
C1071 C1067 1.368 . S
C1071 C1070 1.523 . S
H1072 C1047 0.950 . S
H1073 C1049 0.950 . S
H1074 C1050 0.949 . S
H1075 C1052 0.950 . S
H1076 C1054 0.950 . S
C1077 C1078 1.349 . S
C1077 C1079 1.327 . S
C1077 H1102 0.950 . S
C1078 C1077 1.349 . S
C1078 C1094 1.349 . S
C1079 C1077 1.327 . S
C1079 C1098 1.429 . S
C1079 H1103 0.950 . S
C1080 C1097 1.574 . S
C1080 C1099 1.368 . S
C1080 H1104 0.949 . S
H1081 C1085 0.949 . S
C1082 C1083 1.349 . S
C1082 C1084 1.327 . S
C1082 H1105 0.950 . S
C1083 C1082 1.349 . S
C1083 C1095 1.349 . S
C1084 C1082 1.327 . S
C1084 C1100 1.429 . S
C1084 H1106 0.950 . S
C1085 H1081 0.949 . S
C1085 C1093 1.574 . S
C1085 C1101 1.368 . S
H1086 C1094 0.950 . S
H1087 C1092 0.950 . S
H1088 C1093 0.949 . S
H1089 C1095 0.950 . S
H1090 C1096 0.950 . S
H1091 C1097 0.949 . S
C1092 H1087 0.950 . S
C1092 C1094 1.327 . S
C1092 C1098 1.429 . S
C1093 C1085 1.574 . S
C1093 H1088 0.949 . S
C1093 C1099 1.368 . S
C1094 C1078 1.349 . S
C1094 H1086 0.950 . S
C1094 C1092 1.327 . S
C1095 C1083 1.349 . S
C1095 H1089 0.950 . S
C1095 C1096 1.327 . S
C1096 H1090 0.950 . S
C1096 C1095 1.327 . S
C1096 C1100 1.429 . S
C1097 C1080 1.574 . S
C1097 H1091 0.949 . S
C1097 C1101 1.368 . S
C1098 C1079 1.429 . S
C1098 C1092 1.429 . S
C1098 C1099 1.523 . S
C1099 C1080 1.368 . S
C1099 C1093 1.368 . S
C1099 C1098 1.523 . S
C1100 C1084 1.429 . S
C1100 C1096 1.429 . S
C1100 C1101 1.523 . S
C1101 C1085 1.368 . S
C1101 C1097 1.368 . S
C1101 C1100 1.523 . S
H1102 C1077 0.950 . S
H1103 C1079 0.950 . S
H1104 C1080 0.949 . S
H1105 C1082 0.950 . S
H1106 C1084 0.950 . S
C393 C312 0.977 . S
C388 C1 1.012 . S
C423 C348 1.648 . S
C418 C37 1.755 . S
C453 C313 1.394 . S
C448 C103 1.407 . S
C483 C343 1.549 . S
C478 C139 1.580 . S
C513 C310 1.441 . S
C508 C145 1.480 . S
C538 C205 1.721 . S
C543 C346 1.717 . S
C568 C247 1.122 . S
C573 C315 1.048 . S
C603 C345 1.403 . S
C598 C283 1.429 . S
C633 C349 1.407 . S
C628 C25 1.420 . S
C663 C314 1.451 . S
C658 C67 1.516 . S
C693 C342 1.706 . S
C688 C97 1.714 . S
C723 C311 1.042 . S
C718 C109 1.116 . S
C753 C344 1.637 . S
C748 C169 1.713 . S
C778 C181 1.403 . S
C783 C309 1.389 . S
C808 C217 1.549 . S
C813 C347 1.520 . S
C843 C316 0.960 . S
C838 C277 0.996 . S
C873 C378 1.752 . S
C868 C31 1.845 . S
C898 C175 2.002 . S
C903 C381 1.905 . S
C933 C380 1.706 . S
C928 C211 1.778 . S
C958 C241 2.139 . S
C963 C379 2.153 . S
C993 C382 1.726 . S
C988 C253 1.831 . S
C1018 C73 1.760 . S
C1023 C376 1.691 . S
C1053 C375 2.148 . S
C1048 C133 2.134 . S
C1078 C61 2.031 . S
C1083 C377 1.898 . S
