# Generated by pormake.
# Topology pto, (3,4)-cn, num edge types: 1
# Building blocks:
#     Node 0, Type 0, BuildingBlock: BETDAH_clean_linker_0, # of connection points: 3
#     Node 1, Type 0, BuildingBlock: BETDAH_clean_linker_0, # of connection points: 3
#     Node 2, Type 0, BuildingBlock: BETDAH_clean_linker_0, # of connection points: 3
#     Node 3, Type 0, BuildingBlock: BETDAH_clean_linker_0, # of connection points: 3
#     Node 4, Type 0, BuildingBlock: BETDAH_clean_linker_0, # of connection points: 3
#     Node 5, Type 0, BuildingBlock: BETDAH_clean_linker_0, # of connection points: 3
#     Node 6, Type 0, BuildingBlock: BETDAH_clean_linker_0, # of connection points: 3
#     Node 7, Type 0, BuildingBlock: BETDAH_clean_linker_0, # of connection points: 3
#     Node 8, Type 1, BuildingBlock: NAWXER_clean_sbu_0, # of connection points: 4
#     Node 9, Type 1, BuildingBlock: NAWXER_clean_sbu_0, # of connection points: 4
#     Node 10, Type 1, BuildingBlock: NAWXER_clean_sbu_0, # of connection points: 4
#     Node 11, Type 1, BuildingBlock: NAWXER_clean_sbu_0, # of connection points: 4
#     Node 12, Type 1, BuildingBlock: NAWXER_clean_sbu_0, # of connection points: 4
#     Node 13, Type 1, BuildingBlock: NAWXER_clean_sbu_0, # of connection points: 4
#     Edge 14, Type (0, 1), BuildingBlock: AJUNOK_clean_linker_0, # of connection points: 2
#     Edge 15, Type (0, 1), BuildingBlock: AJUNOK_clean_linker_0, # of connection points: 2
#     Edge 16, Type (0, 1), BuildingBlock: AJUNOK_clean_linker_0, # of connection points: 2
#     Edge 17, Type (0, 1), BuildingBlock: AJUNOK_clean_linker_0, # of connection points: 2
#     Edge 18, Type (0, 1), BuildingBlock: AJUNOK_clean_linker_0, # of connection points: 2
#     Edge 19, Type (0, 1), BuildingBlock: AJUNOK_clean_linker_0, # of connection points: 2
#     Edge 20, Type (0, 1), BuildingBlock: AJUNOK_clean_linker_0, # of connection points: 2
#     Edge 21, Type (0, 1), BuildingBlock: AJUNOK_clean_linker_0, # of connection points: 2
#     Edge 22, Type (0, 1), BuildingBlock: AJUNOK_clean_linker_0, # of connection points: 2
#     Edge 23, Type (0, 1), BuildingBlock: AJUNOK_clean_linker_0, # of connection points: 2
#     Edge 24, Type (0, 1), BuildingBlock: AJUNOK_clean_linker_0, # of connection points: 2
#     Edge 25, Type (0, 1), BuildingBlock: AJUNOK_clean_linker_0, # of connection points: 2
#     Edge 26, Type (0, 1), BuildingBlock: AJUNOK_clean_linker_0, # of connection points: 2
#     Edge 27, Type (0, 1), BuildingBlock: AJUNOK_clean_linker_0, # of connection points: 2
#     Edge 28, Type (0, 1), BuildingBlock: AJUNOK_clean_linker_0, # of connection points: 2
#     Edge 29, Type (0, 1), BuildingBlock: AJUNOK_clean_linker_0, # of connection points: 2
#     Edge 30, Type (0, 1), BuildingBlock: AJUNOK_clean_linker_0, # of connection points: 2
#     Edge 31, Type (0, 1), BuildingBlock: AJUNOK_clean_linker_0, # of connection points: 2
#     Edge 32, Type (0, 1), BuildingBlock: AJUNOK_clean_linker_0, # of connection points: 2
#     Edge 33, Type (0, 1), BuildingBlock: AJUNOK_clean_linker_0, # of connection points: 2
#     Edge 34, Type (0, 1), BuildingBlock: AJUNOK_clean_linker_0, # of connection points: 2
#     Edge 35, Type (0, 1), BuildingBlock: AJUNOK_clean_linker_0, # of connection points: 2
#     Edge 36, Type (0, 1), BuildingBlock: AJUNOK_clean_linker_0, # of connection points: 2
#     Edge 37, Type (0, 1), BuildingBlock: AJUNOK_clean_linker_0, # of connection points: 2
# Relax obj value: 0.012
# Max RMSD: 0.135
# Mean RMSD: 0.056
data_MOF--net-pto--node1-NAWXER_clean_sbu_0--node2-BETDAH_clean_linker_0--edge1-AJUNOK_clean_linker_0
_symmetry_space_group_name_H-M    P1
_symmetry_Int_Tables_number       1
_symmetry_cell_setting            triclinic
loop_
_symmetry_equiv_pos_as_xyz
'x, y, z'
_cell_length_a     30.590212
_cell_length_b     28.37156
_cell_length_c     27.422592
_cell_angle_alpha  109.76032
_cell_angle_beta   95.66005
_cell_angle_gamma 98.864856
loop_
_atom_site_label
_atom_site_type_symbol
_atom_site_fract_x
_atom_site_fract_y
_atom_site_fract_z
_atom_type_partial_charge
H0 H 0.40634 0.1967 0.42495 0.0
H1 H 0.3331 0.31441 0.42178 0.0
H2 H 0.33163 0.25732 0.54826 0.0
C3 C 0.38454 0.22241 0.44196 0.0
C4 C 0.36991 0.22253 0.48883 0.0
C5 C 0.37223 0.25606 0.41778 0.0
C6 C 0.34362 0.28909 0.44052 0.0
C7 C 0.3293 0.2898 0.488 0.0
C8 C 0.34315 0.25704 0.51203 0.0
N9 N 0.30163 0.32316 0.51363 0.0
C10 C 0.27633 0.34958 0.49119 0.0
H11 H 0.32338 0.69944 0.95108 0.0
H12 H 0.3816 0.78688 0.86325 0.0
H13 H 0.23848 0.74372 0.84716 0.0
C14 C 0.31958 0.71988 0.92439 0.0
C15 C 0.27652 0.7203 0.90217 0.0
C16 C 0.35774 0.74325 0.91004 0.0
C17 C 0.35244 0.76951 0.87508 0.0
C18 C 0.30917 0.76973 0.8525 0.0
C19 C 0.27172 0.74489 0.86601 0.0
N20 N 0.30141 0.78978 0.81225 0.0
C21 C 0.3295 0.82912 0.80441 0.0
H22 H 0.90258 0.72952 0.45949 0.0
H23 H 0.7743 0.70692 0.3652 0.0
H24 H 0.84973 0.58727 0.33154 0.0
C25 C 0.8763 0.70565 0.42724 0.0
C26 C 0.88124 0.6565 0.39642 0.0
C27 C 0.83768 0.72418 0.41633 0.0
C28 C 0.80399 0.69291 0.37399 0.0
C29 C 0.80853 0.6435 0.34336 0.0
C30 C 0.84669 0.62554 0.35527 0.0
N31 N 0.77539 0.6106 0.30045 0.0
C32 C 0.7459 0.62769 0.27161 0.0
H33 H 0.84805 0.27845 0.8661 0.0
H34 H 0.74725 0.20898 0.9336 0.0
H35 H 0.82884 0.35661 0.02433 0.0
C36 C 0.83022 0.27992 0.89868 0.0
C37 C 0.84221 0.32301 0.94535 0.0
C38 C 0.79643 0.2382 0.89413 0.0
C39 C 0.7738 0.24043 0.93683 0.0
C40 C 0.78603 0.28287 0.98404 0.0
C41 C 0.82034 0.32362 0.98814 0.0
N42 N 0.76513 0.28553 0.02855 0.0
C43 C 0.72224 0.25928 0.02644 0.0
H44 H 0.82896 0.71989 0.93027 0.0
H45 H 0.93229 0.81262 0.88764 0.0
H46 H 0.82615 0.87823 0.95774 0.0
C47 C 0.84236 0.7558 0.92623 0.0
C48 C 0.82137 0.79791 0.94506 0.0
C49 C 0.88235 0.76072 0.90539 0.0
C50 C 0.90101 0.80803 0.90257 0.0
C51 C 0.88061 0.85019 0.92135 0.0
C52 C 0.84128 0.84514 0.94289 0.0
N53 N 0.90139 0.89899 0.92298 0.0
C54 C 0.90554 0.90964 0.87761 0.0
H55 H 0.80377 0.34057 0.34247 0.0
H56 H 0.8578 0.27045 0.44582 0.0
H57 H 0.71685 0.26843 0.42212 0.0
C58 C 0.79899 0.32026 0.36925 0.0
C59 C 0.75549 0.30517 0.37836 0.0
C60 C 0.83638 0.309 0.39442 0.0
C61 C 0.82956 0.28058 0.42738 0.0
C62 C 0.7864 0.2664 0.43761 0.0
C63 C 0.75 0.2795 0.41377 0.0
N64 N 0.77806 0.24013 0.4726 0.0
C65 C 0.80576 0.21123 0.4877 0.0
H66 H 0.34123 0.2423 0.91942 0.0
H67 H 0.32462 0.39745 0.99061 0.0
H68 H 0.25606 0.30522 0.83443 0.0
C69 C 0.32556 0.27373 0.9181 0.0
C70 C 0.29709 0.26824 0.87234 0.0
C71 C 0.33554 0.32004 0.96126 0.0
C72 C 0.31703 0.36137 0.95778 0.0
C73 C 0.28746 0.35592 0.91272 0.0
C74 C 0.27776 0.3093 0.86992 0.0
N75 N 0.26886 0.39833 0.91115 0.0
C76 C 0.22808 0.39411 0.88098 0.0
H77 H 0.24192 0.72385 0.37755 0.0
H78 H 0.3522 0.79164 0.32141 0.0
H79 H 0.28083 0.63792 0.23241 0.0
C80 C 0.26317 0.72129 0.34772 0.0
C81 C 0.25715 0.67569 0.30436 0.0
C82 C 0.29675 0.76343 0.3538 0.0
C83 C 0.32603 0.75929 0.31673 0.0
C84 C 0.32024 0.71372 0.2728 0.0
C85 C 0.28558 0.67251 0.26673 0.0
N86 N 0.34762 0.70784 0.23309 0.0
C87 C 0.38765 0.74032 0.23612 0.0
C88 C 1.00991 0.40679 0.36904 0.0
C89 C 0.1248 0.5203 0.32684 0.0
O90 O 0.03234 0.44398 0.40923 0.0
Zn91 Zn 0.08676 0.50725 0.42766 0.0
O92 O 0.0208 0.40088 0.32406 0.0
Zn93 Zn 0.06974 0.46029 0.34631 0.0
O94 O 0.12173 0.43985 0.38861 0.0
O95 O 0.13323 0.49264 0.47071 0.0
O96 O 0.1005 0.47877 0.29468 0.0
O97 O 0.12242 0.53434 0.37591 0.0
O98 O 0.05645 0.56318 0.45823 0.0
O99 O 0.03363 0.52139 0.37324 0.0
C100 C 0.1432 0.45522 0.43552 0.0
C101 C 0.03112 0.5572 0.41596 0.0
C102 C 0.97889 0.48842 0.94037 0.0
C103 C 0.11098 0.60424 0.92598 0.0
O104 O 1.00787 0.51966 0.9788 0.0
Zn105 Zn 0.04414 0.55161 0.93873 0.0
O106 O 0.9816 0.48807 0.89396 0.0
Zn107 Zn 0.02242 0.52481 0.85403 0.0
O108 O 0.04645 0.46818 0.80829 0.0
O109 O 0.07008 0.48875 0.89312 0.0
O110 O 0.08355 0.57896 0.88343 0.0
O111 O 0.10113 0.60171 0.96929 0.0
O112 O 1.00256 0.59545 0.91375 0.0
O113 O 0.98234 0.56151 0.82765 0.0
C114 C 0.06964 0.46083 0.84536 0.0
C115 C 0.98105 0.59583 0.87141 0.0
C116 C 0.36266 0.97126 0.70002 0.0
C117 C 0.37906 0.079 0.59317 0.0
O118 O 0.32543 0.97479 0.67712 0.0
Zn119 Zn 0.30192 0.00918 0.6245 0.0
O120 O 0.39937 0.99291 0.69191 0.0
Zn121 Zn 0.37326 0.02463 0.64558 0.0
O122 O 0.33888 0.07807 0.69534 0.0
O123 O 0.26597 0.0529 0.66562 0.0
O124 O 0.41101 0.0708 0.62067 0.0
O125 O 0.33844 0.05844 0.59186 0.0
O126 O 0.27319 0.95234 0.56217 0.0
O127 O 0.34671 0.961 0.57365 0.0
C128 C 0.29855 0.08451 0.69864 0.0
C129 C 0.30815 0.93779 0.54604 0.0
C130 C 0.63401 0.68827 0.13023 0.0
C131 C 0.52755 0.72286 0.00786 0.0
O132 O 0.60756 0.65611 0.0901 0.0
Zn133 Zn 0.5837 0.70445 0.06542 0.0
O134 O 0.63652 0.73623 0.1399 0.0
Zn135 Zn 0.60632 0.7844 0.10621 0.0
O136 O 0.57711 0.82194 0.16327 0.0
O137 O 0.54838 0.73903 0.12764 0.0
O138 O 0.55195 0.76379 0.04211 0.0
O139 O 0.53581 0.67981 0.00612 0.0
O140 O 0.63914 0.73706 0.03765 0.0
O141 O 0.65681 0.81925 0.08482 0.0
C142 C 0.54864 0.78325 0.1613 0.0
C143 C 0.66413 0.781 0.04825 0.0
C144 C 0.88421 0.98457 0.70815 0.0
C145 C 0.85548 0.07493 0.58724 0.0
O146 O 0.84335 0.9748 0.68593 0.0
Zn147 Zn 0.80264 0.99482 0.63137 0.0
O148 O 0.91339 0.01495 0.69714 0.0
Zn149 Zn 0.87266 0.0294 0.64674 0.0
O150 O 0.83242 0.07104 0.69797 0.0
O151 O 0.76216 0.02841 0.67594 0.0
O152 O 0.89332 0.07726 0.61277 0.0
O153 O 0.82063 0.04563 0.59097 0.0
O154 O 0.78115 0.92909 0.57534 0.0
O155 O 0.85394 0.95656 0.58378 0.0
C156 C 0.7916 0.06703 0.70543 0.0
C157 C 0.81857 0.92218 0.56061 0.0
C158 C 0.59447 0.31959 0.25458 0.0
C159 C 0.46628 0.32223 0.13135 0.0
O160 O 0.56868 0.27636 0.22837 0.0
Zn161 Zn 0.51038 0.24297 0.17067 0.0
O162 O 0.58509 0.35976 0.24859 0.0
Zn163 Zn 0.53048 0.32539 0.19561 0.0
O164 O 0.48552 0.29903 0.24013 0.0
O165 O 0.4693 0.21484 0.2083 0.0
O166 O 0.49511 0.36121 0.16157 0.0
O167 O 0.46941 0.27793 0.13196 0.0
O168 O 0.53664 0.19959 0.114 0.0
O169 O 0.55989 0.28236 0.13247 0.0
C170 C 0.46469 0.25689 0.24172 0.0
C171 C 0.56061 0.23594 0.10538 0.0
C172 C 0.23002 0.415 0.51453 0.0
C173 C 0.24563 0.37788 0.47568 0.0
C174 C 0.19744 0.44035 0.50118 0.0
C175 C 0.17905 0.42918 0.4484 0.0
H176 H 0.24253 0.42394 0.55567 0.0
H177 H 0.18606 0.46823 0.53262 0.0
S178 S 0.21103 0.33591 0.33201 0.0
N179 N 0.24203 0.33188 0.38273 0.0
N180 N 0.18091 0.3792 0.35689 0.0
C181 C 0.19535 0.39253 0.40912 0.0
C182 C 0.22862 0.3669 0.42295 0.0
C183 C 0.22053 0.70257 0.95868 0.0
C184 C 0.23643 0.68905 0.91032 0.0
C185 C 0.18032 0.67455 0.96447 0.0
C186 C 0.15494 0.63235 0.92198 0.0
H187 H 0.23865 0.73564 0.99167 0.0
H188 H 0.16849 0.68677 1.00184 0.0
S189 S 0.18639 0.5781 0.78945 0.0
N190 N 0.22644 0.62867 0.82118 0.0
N191 N 0.15176 0.57581 0.83144 0.0
C192 C 0.17204 0.61746 0.87422 0.0
C193 C 0.21254 0.64588 0.86855 0.0
C194 C 0.94371 0.6153 0.36165 0.0
C195 C 0.92284 0.63726 0.40493 0.0
C196 C 0.97992 0.59163 0.36647 0.0
C197 C 0.99705 0.58901 0.41484 0.0
H198 H 0.93129 0.61543 0.32331 0.0
H199 H 0.99395 0.57419 0.3315 0.0
S200 S 0.95575 0.6429 0.54094 0.0
N201 N 0.92289 0.65673 0.49832 0.0
N202 N 0.99154 0.61256 0.50763 0.0
C203 C 0.97787 0.61288 0.4591 0.0
C204 C 0.94065 0.63693 0.45409 0.0
C205 C 0.87315 0.38679 0.9069 0.0
C206 C 0.87629 0.36784 0.94802 0.0
C207 C 0.90561 0.42703 0.90626 0.0
C208 C 0.9428 0.45035 0.94674 0.0
H209 H 0.84543 0.37005 0.87454 0.0
H210 H 0.90175 0.4394 0.87305 0.0
S211 S 0.96648 0.4156 0.06411 0.0
N212 N 0.91926 0.37589 0.03092 0.0
N213 N 0.98032 0.45206 0.02989 0.0
C214 C 0.94578 0.43289 0.98903 0.0
C215 C 0.91257 0.39155 0.98962 0.0
C216 C 0.40038 0.20106 0.56536 0.0
C217 C 0.38016 0.18477 0.51243 0.0
C218 C 0.40401 0.1658 0.59053 0.0
C219 C 0.38682 0.11338 0.56367 0.0
H220 H 0.41185 0.24147 0.58793 0.0
H221 H 0.41744 0.17993 0.63204 0.0
S222 S 0.33312 0.05103 0.42433 0.0
N223 N 0.34525 0.11249 0.43343 0.0
N224 N 0.35105 0.04654 0.48111 0.0
C225 C 0.36841 0.09649 0.51029 0.0
C226 C 0.36538 0.13213 0.4845 0.0
C227 C 0.43651 0.78016 0.95748 0.0
C228 C 0.40278 0.73713 0.92931 0.0
C229 C 0.47766 0.77495 0.98055 0.0
C230 C 0.48678 0.72646 0.97595 0.0
H231 H 0.43038 0.81818 0.96348 0.0
H232 H 0.50188 0.80945 1.00367 0.0
S233 S 0.41086 0.60153 0.90018 0.0
N234 N 0.38221 0.64444 0.89376 0.0
N235 N 0.45938 0.63435 0.9368 0.0
C236 C 0.45401 0.683 0.94525 0.0
C237 C 0.41206 0.68843 0.92211 0.0
C238 C 0.79244 0.78217 0.47086 0.0
C239 C 0.83217 0.77584 0.44972 0.0
C240 C 0.78763 0.82995 0.50523 0.0
C241 C 0.82241 0.8733 0.51982 0.0
H242 H 0.76533 0.74958 0.46202 0.0
H243 H 0.75695 0.83248 0.5217 0.0
S244 S 0.93104 0.87811 0.46989 0.0
N245 N 0.90519 0.81771 0.44187 0.0
N246 N 0.89658 0.90733 0.50658 0.0
C247 C 0.86161 0.8678 0.49712 0.0
C248 C 0.86641 0.81917 0.46214 0.0
C249 C 0.64347 0.2667 0.02333 0.0
C250 C 0.67718 0.24105 0.03263 0.0
C251 C 0.60284 0.2601 0.04206 0.0
C252 C 0.5946 0.2274 0.07041 0.0
H253 H 0.64978 0.29494 1.00501 0.0
H254 H 0.57912 0.28374 0.03788 0.0
S255 S 0.67085 0.14747 0.0998 0.0
N256 N 0.6988 0.17857 0.0676 0.0
N257 N 0.62206 0.16564 0.10255 0.0
C258 C 0.62661 0.19814 0.07581 0.0
C259 C 0.66821 0.20527 0.05709 0.0
C260 C 0.3793 0.86889 0.75655 0.0
C261 C 0.34558 0.87125 0.78815 0.0
C262 C 0.38748 0.90413 0.7309 0.0
C263 C 0.36138 0.94172 0.73536 0.0
H264 H 0.39777 0.83821 0.74945 0.0
H265 H 0.41213 0.89975 0.70476 0.0
S266 S 0.27197 0.96595 0.81736 0.0
N267 N 0.28868 0.91623 0.82585 0.0
N268 N 0.30319 0.98152 0.77719 0.0
C269 C 0.32932 0.94579 0.76915 0.0
C270 C 0.3216 0.91068 0.79566 0.0
C271 C 0.71912 0.69372 0.244 0.0
C272 C 0.71638 0.64213 0.23724 0.0
C273 C 0.6922 0.70812 0.20923 0.0
C274 C 0.66172 0.67134 0.16636 0.0
H275 H 0.74248 0.7231 0.27604 0.0
H276 H 0.69563 0.74849 0.21596 0.0
S277 S 0.64243 0.53066 0.133 0.0
N278 N 0.68139 0.55405 0.18588 0.0
N279 N 0.63056 0.58056 0.1202 0.0
C280 C 0.65873 0.61939 0.15972 0.0
C281 C 0.68617 0.60493 0.19529 0.0
C282 C 0.78302 0.19734 0.7958 0.0
C283 C 0.78645 0.19192 0.8452 0.0
C284 C 0.7808 0.1554 0.74952 0.0
C285 C 0.78101 0.10644 0.75087 0.0
H286 H 0.78397 0.2347 0.7931 0.0
H287 H 0.78118 0.16177 0.71274 0.0
S288 S 0.7884 0.07088 0.86898 0.0
N289 N 0.78911 0.1329 0.89197 0.0
N290 N 0.78381 0.05413 0.80458 0.0
C291 C 0.78217 0.09981 0.79932 0.0
C292 C 0.78498 0.14252 0.84661 0.0
C293 C 0.39267 0.21176 0.3294 0.0
C294 C 0.39127 0.25756 0.37021 0.0
C295 C 0.41527 0.21187 0.28726 0.0
C296 C 0.43746 0.25784 0.28415 0.0
H297 H 0.37684 0.17533 0.33054 0.0
H298 H 0.41613 0.17551 0.25757 0.0
S299 S 0.44242 0.38852 0.38021 0.0
N300 N 0.41323 0.35015 0.4043 0.0
N301 N 0.45478 0.35083 0.32499 0.0
C302 C 0.43491 0.30409 0.32386 0.0
C303 C 0.41203 0.30385 0.36681 0.0
C304 C 0.95081 0.72653 0.9202 0.0
C305 C 0.90751 0.71846 0.89251 0.0
C306 C 0.97447 0.68672 0.91204 0.0
C307 C 0.95622 0.6375 0.87502 0.0
H308 H 0.96601 0.7636 0.9496 0.0
H309 H 1.0073 0.69448 0.9353 0.0
S310 S 0.84463 0.59705 0.79088 0.0
N311 N 0.84746 0.65795 0.82597 0.0
N312 N 0.89262 0.58323 0.80943 0.0
C313 C 0.9135 0.62923 0.84584 0.0
C314 C 0.88892 0.66965 0.855 0.0
C315 C 0.89277 0.3247 0.33779 0.0
C316 C 0.88258 0.32889 0.3879 0.0
C317 C 0.935 0.34741 0.33153 0.0
C318 C 0.96857 0.37548 0.37519 0.0
H319 H 0.8676 0.30452 0.3032 0.0
H320 H 0.94063 0.3447 0.29238 0.0
S321 S 0.95966 0.39524 0.51468 0.0
N322 N 0.91013 0.36172 0.48174 0.0
N323 N 0.98952 0.40316 0.4701 0.0
C324 C 0.95938 0.37798 0.4253 0.0
C325 C 0.91644 0.35503 0.43163 0.0
C326 C 0.18004 0.4238 0.82414 0.0
C327 C 0.1842 0.39657 0.85812 0.0
C328 C 0.13938 0.4384 0.81298 0.0
C329 C 0.10218 0.42674 0.83622 0.0
H330 H 0.20917 0.43726 0.80938 0.0
H331 H 0.13861 0.46345 0.79073 0.0
S332 S 0.09483 0.35022 0.92215 0.0
N333 N 0.14674 0.35334 0.9097 0.0
N334 N 0.07077 0.38158 0.88975 0.0
C335 C 0.10505 0.39556 0.8663 0.0
C336 C 0.14611 0.38038 0.87719 0.0
C337 C 0.17841 0.6409 0.31019 0.0
C338 C 0.22116 0.63194 0.29974 0.0
C339 C 0.14607 0.60297 0.31532 0.0
C340 C 0.15492 0.55438 0.30908 0.0
H341 H 0.17054 0.67829 0.31671 0.0
H342 H 0.11457 0.61237 0.32646 0.0
S343 S 0.26005 0.50996 0.2788 0.0
N344 N 0.26977 0.56979 0.28147 0.0
N345 N 0.20807 0.49807 0.28979 0.0
C346 C 0.19629 0.54369 0.29568 0.0
C347 C 0.22962 0.58256 0.2911 0.0
C348 C 0.87012 0.90072 0.78992 0.0
C349 C 0.90535 0.92444 0.83213 0.0
C350 C 0.86513 0.91908 0.7487 0.0
C351 C 0.89521 0.96193 0.74824 0.0
H352 H 0.84528 0.86891 0.78967 0.0
H353 H 0.83654 0.90039 0.71771 0.0
S354 S 0.99473 0.03547 0.84927 0.0
N355 N 0.97202 0.99104 0.87075 0.0
N356 N 0.96296 0.02579 0.79306 0.0
C357 C 0.93188 0.98448 0.78936 0.0
C358 C 0.93678 0.96574 0.83151 0.0
C359 C 0.67899 0.27026 0.32539 0.0
C360 C 0.71502 0.31205 0.34839 0.0
C361 C 0.64027 0.2741 0.29667 0.0
C362 C 0.63547 0.31991 0.28909 0.0
H363 H 0.68092 0.23369 0.32887 0.0
H364 H 0.61401 0.24017 0.27971 0.0
S365 S 0.71963 0.44152 0.34252 0.0
N366 N 0.7432 0.40156 0.36315 0.0
N367 N 0.67026 0.40864 0.30808 0.0
C368 C 0.67105 0.36244 0.31231 0.0
C369 C 0.71085 0.35847 0.34193 0.0
C370 C 0.30573 0.22323 0.77959 0.0
C371 C 0.29086 0.22084 0.82575 0.0
C372 C 0.30637 0.17852 0.73749 0.0
C373 C 0.29114 0.13014 0.73979 0.0
H374 H 0.31898 0.25986 0.77704 0.0
H375 H 0.32003 0.18175 0.70349 0.0
S376 S 0.24637 0.10323 0.85027 0.0
N377 N 0.25907 0.16629 0.87053 0.0
N378 N 0.25908 0.08214 0.79047 0.0
C379 C 0.27435 0.12715 0.78461 0.0
C380 C 0.27451 0.17262 0.82792 0.0
C381 C 0.46982 0.75195 0.24748 0.0
C382 C 0.43045 0.76452 0.22893 0.0
C383 C 0.51011 0.76318 0.2294 0.0
C384 C 0.51227 0.78796 0.19287 0.0
H385 H 0.46874 0.72998 0.27304 0.0
H386 H 0.5389 0.74923 0.24119 0.0
S387 S 0.41871 0.83044 0.13406 0.0
N388 N 0.39623 0.80455 0.1738 0.0
N389 N 0.47213 0.8263 0.14035 0.0
C390 C 0.47376 0.80354 0.17667 0.0
C391 C 0.43268 0.79164 0.19464 0.0
C392 C 0.80079 0.12535 0.49052 0.0
C393 C 0.82488 0.17567 0.50629 0.0
C394 C 0.81285 0.09209 0.51495 0.0
C395 C 0.8496 0.10788 0.55599 0.0
H396 H 0.77102 0.11231 0.46082 0.0
H397 H 0.79206 0.05426 0.50294 0.0
S398 S 0.92536 0.23544 0.60888 0.0
N399 N 0.88835 0.23944 0.56301 0.0
N400 N 0.91168 0.17676 0.6089 0.0
C401 C 0.87557 0.15742 0.56998 0.0
C402 C 0.86293 0.19148 0.54522 0.0
C403 C 0.40406 0.36403 0.03055 0.0
C404 C 0.36575 0.32458 0.00935 0.0
C405 C 0.43566 0.36481 0.07199 0.0
C406 C 0.42997 0.32608 0.09348 0.0
H407 H 0.41065 0.39322 0.0135 0.0
H408 H 0.46565 0.39453 0.08556 0.0
S409 S 0.33155 0.21919 0.05743 0.0
N410 N 0.32131 0.24958 0.01711 0.0
N411 N 0.38028 0.25066 0.09433 0.0
C412 C 0.39036 0.28829 0.0746 0.0
C413 C 0.35839 0.28762 0.03273 0.0
C414 C 0.34071 0.83247 0.43541 0.0
C415 C 0.30052 0.81117 0.39964 0.0
C416 C 0.34292 0.87367 0.48241 0.0
C417 C 0.30499 0.89505 0.49535 0.0
H418 H 0.37019 0.81605 0.42789 0.0
H419 H 0.37442 0.88811 0.50925 0.0
S420 S 0.19314 0.85627 0.41133 0.0
N421 N 0.22307 0.81679 0.3778 0.0
N422 N 0.22694 0.89392 0.46594 0.0
C423 C 0.26506 0.87516 0.45871 0.0
C424 C 0.26292 0.83336 0.41093 0.0
C425 C 0.7767 0.83161 0.01716 0.0
C426 C 0.7801 0.79359 0.96954 0.0
C427 C 0.7387 0.82798 0.04161 0.0
C428 C 0.70256 0.78599 0.01968 0.0
H429 H 0.80408 0.86403 0.0364 0.0
H430 H 0.7382 0.85775 0.07867 0.0
S431 S 0.69293 0.67835 0.89308 0.0
N432 N 0.7425 0.71444 0.89955 0.0
N433 N 0.67162 0.70694 0.94575 0.0
C434 C 0.7051 0.74824 0.97147 0.0
C435 C 0.74368 0.75215 0.94643 0.0
loop_
_geom_bond_atom_site_label_1
_geom_bond_atom_site_label_2
_geom_bond_distance
_geom_bond_site_symmetry_2
_ccdc_geom_bond_type
H0 C3 0.929 . S
H1 C6 0.929 . S
H2 C8 0.930 . S
C3 H0 0.929 . S
C3 C4 1.398 . S
C3 C5 1.396 . S
C4 C3 1.398 . S
C4 C8 1.407 . S
C5 C3 1.396 . S
C5 C6 1.394 . S
C6 H1 0.929 . S
C6 C5 1.394 . S
C6 C7 1.382 . S
C7 C6 1.382 . S
C7 C8 1.392 . S
C7 N9 1.420 . S
C8 H2 0.930 . S
C8 C4 1.407 . S
C8 C7 1.392 . S
N9 C7 1.420 . S
N9 C10 1.244 . S
C10 N9 1.244 . S
H11 C14 0.929 . S
H12 C17 0.929 . S
H13 C19 0.930 . S
C14 H11 0.929 . S
C14 C15 1.398 . S
C14 C16 1.396 . S
C15 C14 1.398 . S
C15 C19 1.407 . S
C16 C14 1.396 . S
C16 C17 1.394 . S
C17 H12 0.929 . S
C17 C16 1.394 . S
C17 C18 1.382 . S
C18 C17 1.382 . S
C18 C19 1.392 . S
C18 N20 1.420 . S
C19 H13 0.930 . S
C19 C15 1.407 . S
C19 C18 1.392 . S
N20 C18 1.420 . S
N20 C21 1.244 . S
C21 N20 1.244 . S
H22 C25 0.929 . S
H23 C28 0.929 . S
H24 C30 0.930 . S
C25 H22 0.929 . S
C25 C26 1.398 . S
C25 C27 1.396 . S
C26 C25 1.398 . S
C26 C30 1.407 . S
C27 C25 1.396 . S
C27 C28 1.394 . S
C28 H23 0.929 . S
C28 C27 1.394 . S
C28 C29 1.382 . S
C29 C28 1.382 . S
C29 C30 1.392 . S
C29 N31 1.420 . S
C30 H24 0.930 . S
C30 C26 1.407 . S
C30 C29 1.392 . S
N31 C29 1.420 . S
N31 C32 1.244 . S
C32 N31 1.244 . S
H33 C36 0.929 . S
H34 C39 0.929 . S
H35 C41 0.930 . S
C36 H33 0.929 . S
C36 C37 1.398 . S
C36 C38 1.396 . S
C37 C36 1.398 . S
C37 C41 1.407 1_556 S
C38 C36 1.396 . S
C38 C39 1.394 . S
C39 H34 0.929 . S
C39 C38 1.394 . S
C39 C40 1.382 1_556 S
C40 C39 1.382 1_554 S
C40 C41 1.392 . S
C40 N42 1.420 . S
C41 H35 0.930 . S
C41 C37 1.407 1_554 S
C41 C40 1.392 . S
N42 C40 1.420 . S
N42 C43 1.244 . S
C43 N42 1.244 . S
H44 C47 0.929 . S
H45 C50 0.929 . S
H46 C52 0.930 . S
C47 H44 0.929 . S
C47 C48 1.398 . S
C47 C49 1.396 . S
C48 C47 1.398 . S
C48 C52 1.407 . S
C49 C47 1.396 . S
C49 C50 1.394 . S
C50 H45 0.929 . S
C50 C49 1.394 . S
C50 C51 1.382 . S
C51 C50 1.382 . S
C51 C52 1.392 . S
C51 N53 1.420 . S
C52 H46 0.930 . S
C52 C48 1.407 . S
C52 C51 1.392 . S
N53 C51 1.420 . S
N53 C54 1.244 . S
C54 N53 1.244 . S
H55 C58 0.929 . S
H56 C61 0.929 . S
H57 C63 0.930 . S
C58 H55 0.929 . S
C58 C59 1.398 . S
C58 C60 1.396 . S
C59 C58 1.398 . S
C59 C63 1.407 . S
C60 C58 1.396 . S
C60 C61 1.394 . S
C61 H56 0.929 . S
C61 C60 1.394 . S
C61 C62 1.382 . S
C62 C61 1.382 . S
C62 C63 1.392 . S
C62 N64 1.420 . S
C63 H57 0.930 . S
C63 C59 1.407 . S
C63 C62 1.392 . S
N64 C62 1.420 . S
N64 C65 1.244 . S
C65 N64 1.244 . S
H66 C69 0.929 . S
H67 C72 0.929 1_554 S
H68 C74 0.930 . S
C69 H66 0.929 . S
C69 C70 1.398 . S
C69 C71 1.396 . S
C70 C69 1.398 . S
C70 C74 1.407 . S
C71 C69 1.396 . S
C71 C72 1.394 . S
C72 H67 0.929 1_556 S
C72 C71 1.394 . S
C72 C73 1.382 . S
C73 C72 1.382 . S
C73 C74 1.392 . S
C73 N75 1.420 . S
C74 H68 0.930 . S
C74 C70 1.407 . S
C74 C73 1.392 . S
N75 C73 1.420 . S
N75 C76 1.244 . S
C76 N75 1.244 . S
H77 C80 0.929 . S
H78 C83 0.929 . S
H79 C85 0.930 . S
C80 H77 0.929 . S
C80 C81 1.398 . S
C80 C82 1.396 . S
C81 C80 1.398 . S
C81 C85 1.407 . S
C82 C80 1.396 . S
C82 C83 1.394 . S
C83 H78 0.929 . S
C83 C82 1.394 . S
C83 C84 1.382 . S
C84 C83 1.382 . S
C84 C85 1.392 . S
C84 N86 1.420 . S
C85 H79 0.930 . S
C85 C81 1.407 . S
C85 C84 1.392 . S
N86 C84 1.420 . S
N86 C87 1.244 . S
C87 N86 1.244 . S
C88 O90 1.247 1_655 S
C88 O92 1.258 . S
C89 O96 1.247 . S
C89 O97 1.258 . S
O90 C88 1.247 1_455 S
O90 Zn91 2.028 . S
Zn91 O90 2.028 . S
Zn91 O95 2.035 . S
Zn91 O97 2.035 . S
Zn91 O98 2.028 . S
O92 C88 1.258 . S
O92 Zn93 2.035 1_655 S
Zn93 O92 2.035 1_455 S
Zn93 O94 2.028 . S
Zn93 O96 2.028 . S
Zn93 O99 2.035 1_455 S
O94 Zn93 2.028 . S
O94 C100 1.247 . S
O95 Zn91 2.035 . S
O95 C100 1.258 . S
O96 C89 1.247 . S
O96 Zn93 2.028 . S
O97 C89 1.258 . S
O97 Zn91 2.035 . S
O98 Zn91 2.028 . S
O98 C101 1.247 1_455 S
O99 Zn93 2.035 1_655 S
O99 C101 1.258 . S
C100 O94 1.247 . S
C100 O95 1.258 . S
C101 O98 1.247 1_655 S
C101 O99 1.258 . S
C102 O104 1.247 1_656 S
C102 O106 1.258 . S
C103 O110 1.247 . S
C103 O111 1.258 . S
O104 C102 1.247 1_454 S
O104 Zn105 2.028 . S
Zn105 O104 2.028 . S
Zn105 O109 2.035 . S
Zn105 O111 2.035 1_554 S
Zn105 O112 2.028 1_554 S
O106 C102 1.258 . S
O106 Zn107 2.035 1_655 S
Zn107 O106 2.035 1_455 S
Zn107 O108 2.028 . S
Zn107 O110 2.028 . S
Zn107 O113 2.035 1_455 S
O108 Zn107 2.028 . S
O108 C114 1.247 . S
O109 Zn105 2.035 . S
O109 C114 1.258 1_554 S
O110 C103 1.247 . S
O110 Zn107 2.028 . S
O111 C103 1.258 . S
O111 Zn105 2.035 1_556 S
O112 Zn105 2.028 1_556 S
O112 C115 1.247 1_455 S
O113 Zn107 2.035 1_655 S
O113 C115 1.258 . S
C114 O108 1.247 . S
C114 O109 1.258 1_556 S
C115 O112 1.247 1_655 S
C115 O113 1.258 . S
C116 O118 1.247 . S
C116 O120 1.258 . S
C117 O124 1.247 . S
C117 O125 1.258 . S
O118 C116 1.247 . S
O118 Zn119 2.028 1_565 S
Zn119 O118 2.028 1_545 S
Zn119 O123 2.035 . S
Zn119 O125 2.035 . S
Zn119 O126 2.028 1_545 S
O120 C116 1.258 . S
O120 Zn121 2.035 1_565 S
Zn121 O120 2.035 1_545 S
Zn121 O122 2.028 . S
Zn121 O124 2.028 . S
Zn121 O127 2.035 1_545 S
O122 Zn121 2.028 . S
O122 C128 1.247 . S
O123 Zn119 2.035 . S
O123 C128 1.258 . S
O124 C117 1.247 . S
O124 Zn121 2.028 . S
O125 C117 1.258 . S
O125 Zn119 2.035 . S
O126 Zn119 2.028 1_565 S
O126 C129 1.247 . S
O127 Zn121 2.035 1_565 S
O127 C129 1.258 . S
C128 O122 1.247 . S
C128 O123 1.258 . S
C129 O126 1.247 . S
C129 O127 1.258 . S
C130 O132 1.247 . S
C130 O134 1.258 . S
C131 O138 1.247 . S
C131 O139 1.258 . S
O132 C130 1.247 . S
O132 Zn133 2.028 1_554 S
Zn133 O132 2.028 1_556 S
Zn133 O137 2.035 1_556 S
Zn133 O139 2.035 . S
Zn133 O140 2.028 . S
O134 C130 1.258 . S
O134 Zn135 2.035 . S
Zn135 O134 2.035 . S
Zn135 O136 2.028 . S
Zn135 O138 2.028 1_554 S
Zn135 O141 2.035 1_554 S
O136 Zn135 2.028 . S
O136 C142 1.247 . S
O137 Zn133 2.035 1_554 S
O137 C142 1.258 . S
O138 C131 1.247 . S
O138 Zn135 2.028 1_556 S
O139 C131 1.258 . S
O139 Zn133 2.035 . S
O140 Zn133 2.028 . S
O140 C143 1.247 . S
O141 Zn135 2.035 1_556 S
O141 C143 1.258 . S
C142 O136 1.247 . S
C142 O137 1.258 . S
C143 O140 1.247 . S
C143 O141 1.258 . S
C144 O146 1.247 . S
C144 O148 1.258 . S
C145 O152 1.247 . S
C145 O153 1.258 . S
O146 C144 1.247 . S
O146 Zn147 2.028 1_565 S
Zn147 O146 2.028 1_545 S
Zn147 O151 2.035 . S
Zn147 O153 2.035 . S
Zn147 O154 2.028 1_545 S
O148 C144 1.258 . S
O148 Zn149 2.035 1_565 S
Zn149 O148 2.035 1_545 S
Zn149 O150 2.028 . S
Zn149 O152 2.028 . S
Zn149 O155 2.035 1_545 S
O150 Zn149 2.028 . S
O150 C156 1.247 . S
O151 Zn147 2.035 . S
O151 C156 1.258 . S
O152 C145 1.247 . S
O152 Zn149 2.028 . S
O153 C145 1.258 . S
O153 Zn147 2.035 . S
O154 Zn147 2.028 1_565 S
O154 C157 1.247 . S
O155 Zn149 2.035 1_565 S
O155 C157 1.258 . S
C156 O150 1.247 . S
C156 O151 1.258 . S
C157 O154 1.247 . S
C157 O155 1.258 . S
C158 O160 1.247 . S
C158 O162 1.258 . S
C159 O166 1.247 . S
C159 O167 1.258 . S
O160 C158 1.247 . S
O160 Zn161 2.028 . S
Zn161 O160 2.028 . S
Zn161 O165 2.035 . S
Zn161 O167 2.035 . S
Zn161 O168 2.028 . S
O162 C158 1.258 . S
O162 Zn163 2.035 . S
Zn163 O162 2.035 . S
Zn163 O164 2.028 . S
Zn163 O166 2.028 . S
Zn163 O169 2.035 . S
O164 Zn163 2.028 . S
O164 C170 1.247 . S
O165 Zn161 2.035 . S
O165 C170 1.258 . S
O166 C159 1.247 . S
O166 Zn163 2.028 . S
O167 C159 1.258 . S
O167 Zn161 2.035 . S
O168 Zn161 2.028 . S
O168 C171 1.247 . S
O169 Zn163 2.035 . S
O169 C171 1.258 . S
C170 O164 1.247 . S
C170 O165 1.258 . S
C171 O168 1.247 . S
C171 O169 1.258 . S
C172 C173 1.369 . S
C172 C174 1.419 . S
C172 H176 0.930 . S
C173 C172 1.369 . S
C173 C182 1.429 . S
C174 C172 1.419 . S
C174 C175 1.363 . S
C174 H177 0.929 . S
C175 C174 1.363 . S
C175 C181 1.428 . S
H176 C172 0.930 . S
H177 C174 0.929 . S
S178 N179 1.613 . S
S178 N180 1.610 . S
N179 S178 1.613 . S
N179 C182 1.350 . S
N180 S178 1.610 . S
N180 C181 1.351 . S
C181 C175 1.428 . S
C181 N180 1.351 . S
C181 C182 1.434 . S
C182 C173 1.429 . S
C182 N179 1.350 . S
C182 C181 1.434 . S
C183 C184 1.369 . S
C183 C185 1.419 . S
C183 H187 0.930 . S
C184 C183 1.369 . S
C184 C193 1.429 . S
C185 C183 1.419 . S
C185 C186 1.363 . S
C185 H188 0.929 . S
C186 C185 1.363 . S
C186 C192 1.428 . S
H187 C183 0.930 . S
H188 C185 0.929 . S
S189 N190 1.613 . S
S189 N191 1.610 . S
N190 S189 1.613 . S
N190 C193 1.350 . S
N191 S189 1.610 . S
N191 C192 1.351 . S
C192 C186 1.428 . S
C192 N191 1.351 . S
C192 C193 1.434 . S
C193 C184 1.429 . S
C193 N190 1.350 . S
C193 C192 1.434 . S
C194 C195 1.369 . S
C194 C196 1.419 . S
C194 H198 0.930 . S
C195 C194 1.369 . S
C195 C204 1.429 . S
C196 C194 1.419 . S
C196 C197 1.363 . S
C196 H199 0.929 . S
C197 C196 1.363 . S
C197 C203 1.428 . S
H198 C194 0.930 . S
H199 C196 0.929 . S
S200 N201 1.613 . S
S200 N202 1.610 . S
N201 S200 1.613 . S
N201 C204 1.350 . S
N202 S200 1.610 . S
N202 C203 1.351 . S
C203 C197 1.428 . S
C203 N202 1.351 . S
C203 C204 1.434 . S
C204 C195 1.429 . S
C204 N201 1.350 . S
C204 C203 1.434 . S
C205 C206 1.369 . S
C205 C207 1.419 . S
C205 H209 0.930 . S
C206 C205 1.369 . S
C206 C215 1.429 1_556 S
C207 C205 1.419 . S
C207 C208 1.363 . S
C207 H210 0.929 . S
C208 C207 1.363 . S
C208 C214 1.428 1_556 S
H209 C205 0.930 . S
H210 C207 0.929 . S
S211 N212 1.613 . S
S211 N213 1.610 . S
N212 S211 1.613 . S
N212 C215 1.350 . S
N213 S211 1.610 . S
N213 C214 1.351 . S
C214 C208 1.428 1_554 S
C214 N213 1.351 . S
C214 C215 1.434 . S
C215 C206 1.429 1_554 S
C215 N212 1.350 . S
C215 C214 1.434 . S
C216 C217 1.369 . S
C216 C218 1.419 . S
C216 H220 0.930 . S
C217 C216 1.369 . S
C217 C226 1.429 . S
C218 C216 1.419 . S
C218 C219 1.363 . S
C218 H221 0.929 . S
C219 C218 1.363 . S
C219 C225 1.428 . S
H220 C216 0.930 . S
H221 C218 0.929 . S
S222 N223 1.613 . S
S222 N224 1.610 . S
N223 S222 1.613 . S
N223 C226 1.350 . S
N224 S222 1.610 . S
N224 C225 1.351 . S
C225 C219 1.428 . S
C225 N224 1.351 . S
C225 C226 1.434 . S
C226 C217 1.429 . S
C226 N223 1.350 . S
C226 C225 1.434 . S
C227 C228 1.369 . S
C227 C229 1.419 . S
C227 H231 0.930 . S
C228 C227 1.369 . S
C228 C237 1.429 . S
C229 C227 1.419 . S
C229 C230 1.363 . S
C229 H232 0.929 . S
C230 C229 1.363 . S
C230 C236 1.428 . S
H231 C227 0.930 . S
H232 C229 0.929 . S
S233 N234 1.613 . S
S233 N235 1.610 . S
N234 S233 1.613 . S
N234 C237 1.350 . S
N235 S233 1.610 . S
N235 C236 1.351 . S
C236 C230 1.428 . S
C236 N235 1.351 . S
C236 C237 1.434 . S
C237 C228 1.429 . S
C237 N234 1.350 . S
C237 C236 1.434 . S
C238 C239 1.369 . S
C238 C240 1.419 . S
C238 H242 0.930 . S
C239 C238 1.369 . S
C239 C248 1.429 . S
C240 C238 1.419 . S
C240 C241 1.363 . S
C240 H243 0.929 . S
C241 C240 1.363 . S
C241 C247 1.428 . S
H242 C238 0.930 . S
H243 C240 0.929 . S
S244 N245 1.613 . S
S244 N246 1.610 . S
N245 S244 1.613 . S
N245 C248 1.350 . S
N246 S244 1.610 . S
N246 C247 1.351 . S
C247 C241 1.428 . S
C247 N246 1.351 . S
C247 C248 1.434 . S
C248 C239 1.429 . S
C248 N245 1.350 . S
C248 C247 1.434 . S
C249 C250 1.369 . S
C249 C251 1.419 . S
C249 H253 0.930 . S
C250 C249 1.369 . S
C250 C259 1.429 . S
C251 C249 1.419 . S
C251 C252 1.363 . S
C251 H254 0.929 . S
C252 C251 1.363 . S
C252 C258 1.428 . S
H253 C249 0.930 . S
H254 C251 0.929 . S
S255 N256 1.613 . S
S255 N257 1.610 . S
N256 S255 1.613 . S
N256 C259 1.350 . S
N257 S255 1.610 . S
N257 C258 1.351 . S
C258 C252 1.428 . S
C258 N257 1.351 . S
C258 C259 1.434 . S
C259 C250 1.429 . S
C259 N256 1.350 . S
C259 C258 1.434 . S
C260 C261 1.369 . S
C260 C262 1.419 . S
C260 H264 0.930 . S
C261 C260 1.369 . S
C261 C270 1.429 . S
C262 C260 1.419 . S
C262 C263 1.363 . S
C262 H265 0.929 . S
C263 C262 1.363 . S
C263 C269 1.428 . S
H264 C260 0.930 . S
H265 C262 0.929 . S
S266 N267 1.613 . S
S266 N268 1.610 . S
N267 S266 1.613 . S
N267 C270 1.350 . S
N268 S266 1.610 . S
N268 C269 1.351 . S
C269 C263 1.428 . S
C269 N268 1.351 . S
C269 C270 1.434 . S
C270 C261 1.429 . S
C270 N267 1.350 . S
C270 C269 1.434 . S
C271 C272 1.369 . S
C271 C273 1.419 . S
C271 H275 0.930 . S
C272 C271 1.369 . S
C272 C281 1.429 . S
C273 C271 1.419 . S
C273 C274 1.363 . S
C273 H276 0.929 . S
C274 C273 1.363 . S
C274 C280 1.428 . S
H275 C271 0.930 . S
H276 C273 0.929 . S
S277 N278 1.613 . S
S277 N279 1.610 . S
N278 S277 1.613 . S
N278 C281 1.350 . S
N279 S277 1.610 . S
N279 C280 1.351 . S
C280 C274 1.428 . S
C280 N279 1.351 . S
C280 C281 1.434 . S
C281 C272 1.429 . S
C281 N278 1.350 . S
C281 C280 1.434 . S
C282 C283 1.369 . S
C282 C284 1.419 . S
C282 H286 0.930 . S
C283 C282 1.369 . S
C283 C292 1.429 . S
C284 C282 1.419 . S
C284 C285 1.363 . S
C284 H287 0.929 . S
C285 C284 1.363 . S
C285 C291 1.428 . S
H286 C282 0.930 . S
H287 C284 0.929 . S
S288 N289 1.613 . S
S288 N290 1.610 . S
N289 S288 1.613 . S
N289 C292 1.350 . S
N290 S288 1.610 . S
N290 C291 1.351 . S
C291 C285 1.428 . S
C291 N290 1.351 . S
C291 C292 1.434 . S
C292 C283 1.429 . S
C292 N289 1.350 . S
C292 C291 1.434 . S
C293 C294 1.369 . S
C293 C295 1.419 . S
C293 H297 0.930 . S
C294 C293 1.369 . S
C294 C303 1.429 . S
C295 C293 1.419 . S
C295 C296 1.363 . S
C295 H298 0.929 . S
C296 C295 1.363 . S
C296 C302 1.428 . S
H297 C293 0.930 . S
H298 C295 0.929 . S
S299 N300 1.613 . S
S299 N301 1.610 . S
N300 S299 1.613 . S
N300 C303 1.350 . S
N301 S299 1.610 . S
N301 C302 1.351 . S
C302 C296 1.428 . S
C302 N301 1.351 . S
C302 C303 1.434 . S
C303 C294 1.429 . S
C303 N300 1.350 . S
C303 C302 1.434 . S
C304 C305 1.369 . S
C304 C306 1.419 . S
C304 H308 0.930 . S
C305 C304 1.369 . S
C305 C314 1.429 . S
C306 C304 1.419 . S
C306 C307 1.363 . S
C306 H309 0.929 . S
C307 C306 1.363 . S
C307 C313 1.428 . S
H308 C304 0.930 . S
H309 C306 0.929 . S
S310 N311 1.613 . S
S310 N312 1.610 . S
N311 S310 1.613 . S
N311 C314 1.350 . S
N312 S310 1.610 . S
N312 C313 1.351 . S
C313 C307 1.428 . S
C313 N312 1.351 . S
C313 C314 1.434 . S
C314 C305 1.429 . S
C314 N311 1.350 . S
C314 C313 1.434 . S
C315 C316 1.369 . S
C315 C317 1.419 . S
C315 H319 0.930 . S
C316 C315 1.369 . S
C316 C325 1.429 . S
C317 C315 1.419 . S
C317 C318 1.363 . S
C317 H320 0.929 . S
C318 C317 1.363 . S
C318 C324 1.428 . S
H319 C315 0.930 . S
H320 C317 0.929 . S
S321 N322 1.613 . S
S321 N323 1.610 . S
N322 S321 1.613 . S
N322 C325 1.350 . S
N323 S321 1.610 . S
N323 C324 1.351 . S
C324 C318 1.428 . S
C324 N323 1.351 . S
C324 C325 1.434 . S
C325 C316 1.429 . S
C325 N322 1.350 . S
C325 C324 1.434 . S
C326 C327 1.369 . S
C326 C328 1.419 . S
C326 H330 0.930 . S
C327 C326 1.369 . S
C327 C336 1.429 . S
C328 C326 1.419 . S
C328 C329 1.363 . S
C328 H331 0.929 . S
C329 C328 1.363 . S
C329 C335 1.428 . S
H330 C326 0.930 . S
H331 C328 0.929 . S
S332 N333 1.613 . S
S332 N334 1.610 . S
N333 S332 1.613 . S
N333 C336 1.350 . S
N334 S332 1.610 . S
N334 C335 1.351 . S
C335 C329 1.428 . S
C335 N334 1.351 . S
C335 C336 1.434 . S
C336 C327 1.429 . S
C336 N333 1.350 . S
C336 C335 1.434 . S
C337 C338 1.369 . S
C337 C339 1.419 . S
C337 H341 0.930 . S
C338 C337 1.369 . S
C338 C347 1.429 . S
C339 C337 1.419 . S
C339 C340 1.363 . S
C339 H342 0.929 . S
C340 C339 1.363 . S
C340 C346 1.428 . S
H341 C337 0.930 . S
H342 C339 0.929 . S
S343 N344 1.613 . S
S343 N345 1.610 . S
N344 S343 1.613 . S
N344 C347 1.350 . S
N345 S343 1.610 . S
N345 C346 1.351 . S
C346 C340 1.428 . S
C346 N345 1.351 . S
C346 C347 1.434 . S
C347 C338 1.429 . S
C347 N344 1.350 . S
C347 C346 1.434 . S
C348 C349 1.369 . S
C348 C350 1.419 . S
C348 H352 0.930 . S
C349 C348 1.369 . S
C349 C358 1.429 . S
C350 C348 1.419 . S
C350 C351 1.363 . S
C350 H353 0.929 . S
C351 C350 1.363 . S
C351 C357 1.428 . S
H352 C348 0.930 . S
H353 C350 0.929 . S
S354 N355 1.613 . S
S354 N356 1.610 . S
N355 S354 1.613 . S
N355 C358 1.350 . S
N356 S354 1.610 . S
N356 C357 1.351 . S
C357 C351 1.428 . S
C357 N356 1.351 . S
C357 C358 1.434 . S
C358 C349 1.429 . S
C358 N355 1.350 . S
C358 C357 1.434 . S
C359 C360 1.369 . S
C359 C361 1.419 . S
C359 H363 0.930 . S
C360 C359 1.369 . S
C360 C369 1.429 . S
C361 C359 1.419 . S
C361 C362 1.363 . S
C361 H364 0.929 . S
C362 C361 1.363 . S
C362 C368 1.428 . S
H363 C359 0.930 . S
H364 C361 0.929 . S
S365 N366 1.613 . S
S365 N367 1.610 . S
N366 S365 1.613 . S
N366 C369 1.350 . S
N367 S365 1.610 . S
N367 C368 1.351 . S
C368 C362 1.428 . S
C368 N367 1.351 . S
C368 C369 1.434 . S
C369 C360 1.429 . S
C369 N366 1.350 . S
C369 C368 1.434 . S
C370 C371 1.369 . S
C370 C372 1.419 . S
C370 H374 0.930 . S
C371 C370 1.369 . S
C371 C380 1.429 . S
C372 C370 1.419 . S
C372 C373 1.363 . S
C372 H375 0.929 . S
C373 C372 1.363 . S
C373 C379 1.428 . S
H374 C370 0.930 . S
H375 C372 0.929 . S
S376 N377 1.613 . S
S376 N378 1.610 . S
N377 S376 1.613 . S
N377 C380 1.350 . S
N378 S376 1.610 . S
N378 C379 1.351 . S
C379 C373 1.428 . S
C379 N378 1.351 . S
C379 C380 1.434 . S
C380 C371 1.429 . S
C380 N377 1.350 . S
C380 C379 1.434 . S
C381 C382 1.369 . S
C381 C383 1.419 . S
C381 H385 0.930 . S
C382 C381 1.369 . S
C382 C391 1.429 . S
C383 C381 1.419 . S
C383 C384 1.363 . S
C383 H386 0.929 . S
C384 C383 1.363 . S
C384 C390 1.428 . S
H385 C381 0.930 . S
H386 C383 0.929 . S
S387 N388 1.613 . S
S387 N389 1.610 . S
N388 S387 1.613 . S
N388 C391 1.350 . S
N389 S387 1.610 . S
N389 C390 1.351 . S
C390 C384 1.428 . S
C390 N389 1.351 . S
C390 C391 1.434 . S
C391 C382 1.429 . S
C391 N388 1.350 . S
C391 C390 1.434 . S
C392 C393 1.369 . S
C392 C394 1.419 . S
C392 H396 0.930 . S
C393 C392 1.369 . S
C393 C402 1.429 . S
C394 C392 1.419 . S
C394 C395 1.363 . S
C394 H397 0.929 . S
C395 C394 1.363 . S
C395 C401 1.428 . S
H396 C392 0.930 . S
H397 C394 0.929 . S
S398 N399 1.613 . S
S398 N400 1.610 . S
N399 S398 1.613 . S
N399 C402 1.350 . S
N400 S398 1.610 . S
N400 C401 1.351 . S
C401 C395 1.428 . S
C401 N400 1.351 . S
C401 C402 1.434 . S
C402 C393 1.429 . S
C402 N399 1.350 . S
C402 C401 1.434 . S
C403 C404 1.369 . S
C403 C405 1.419 . S
C403 H407 0.930 . S
C404 C403 1.369 . S
C404 C413 1.429 . S
C405 C403 1.419 . S
C405 C406 1.363 . S
C405 H408 0.929 . S
C406 C405 1.363 . S
C406 C412 1.428 . S
H407 C403 0.930 . S
H408 C405 0.929 . S
S409 N410 1.613 . S
S409 N411 1.610 1_556 S
N410 S409 1.613 . S
N410 C413 1.350 1_556 S
N411 S409 1.610 1_554 S
N411 C412 1.351 . S
C412 C406 1.428 . S
C412 N411 1.351 . S
C412 C413 1.434 . S
C413 C404 1.429 . S
C413 N410 1.350 1_554 S
C413 C412 1.434 . S
C414 C415 1.369 . S
C414 C416 1.419 . S
C414 H418 0.930 . S
C415 C414 1.369 . S
C415 C424 1.429 . S
C416 C414 1.419 . S
C416 C417 1.363 . S
C416 H419 0.929 . S
C417 C416 1.363 . S
C417 C423 1.428 . S
H418 C414 0.930 . S
H419 C416 0.929 . S
S420 N421 1.613 . S
S420 N422 1.610 . S
N421 S420 1.613 . S
N421 C424 1.350 . S
N422 S420 1.610 . S
N422 C423 1.351 . S
C423 C417 1.428 . S
C423 N422 1.351 . S
C423 C424 1.434 . S
C424 C415 1.429 . S
C424 N421 1.350 . S
C424 C423 1.434 . S
C425 C426 1.369 . S
C425 C427 1.419 . S
C425 H429 0.930 . S
C426 C425 1.369 . S
C426 C435 1.429 . S
C427 C425 1.419 . S
C427 C428 1.363 . S
C427 H430 0.929 . S
C428 C427 1.363 . S
C428 C434 1.428 . S
H429 C425 0.930 . S
H430 C427 0.929 . S
S431 N432 1.613 . S
S431 N433 1.610 . S
N432 S431 1.613 . S
N432 C435 1.350 . S
N433 S431 1.610 . S
N433 C434 1.351 . S
C434 C428 1.428 . S
C434 N433 1.351 . S
C434 C435 1.434 . S
C435 C426 1.429 . S
C435 N432 1.350 . S
C435 C434 1.434 . S
C175 C100 1.516 . S
C173 C10 1.513 . S
C186 C103 1.677 . S
C184 C15 1.685 . S
C197 C101 1.437 . S
C195 C26 1.437 . S
C208 C102 1.504 . S
C206 C37 1.532 . S
C219 C117 1.705 . S
C217 C4 1.710 . S
C230 C131 1.658 . S
C228 C16 1.651 . S
C239 C27 1.582 . S
C241 C157 1.590 . S
C252 C171 1.422 . S
C250 C43 1.417 . S
C263 C116 1.638 . S
C261 C21 1.629 . S
C272 C32 1.480 . S
C274 C130 1.454 . S
C285 C156 1.584 . S
C283 C38 1.566 . S
C296 C170 1.572 . S
C294 C5 1.571 . S
C305 C49 1.724 . S
C307 C115 1.717 . S
C318 C88 1.585 . S
C316 C60 1.584 . S
C327 C76 1.553 . S
C329 C114 1.540 . S
C338 C81 1.523 . S
C340 C89 1.544 . S
C351 C144 1.505 . S
C349 C54 1.497 . S
C362 C158 1.588 . S
C360 C59 1.595 . S
C373 C128 1.585 . S
C371 C70 1.596 . S
C382 C87 1.616 . S
C384 C142 1.599 . S
C395 C145 1.556 . S
C393 C65 1.540 . S
C406 C159 1.600 . S
C404 C71 1.576 1_554 S
C417 C129 1.596 . S
C415 C82 1.603 . S
C426 C48 1.694 . S
C428 C143 1.677 . S
