# Generated by pormake.
# Topology zzz, (3,6)-cn, num edge types: 1
# Building blocks:
#     Node 0, Type 0, BuildingBlock: BETDIP_clean_linker_0, # of connection points: 3
#     Node 1, Type 0, BuildingBlock: BETDIP_clean_linker_0, # of connection points: 3
#     Node 2, Type 0, BuildingBlock: BETDIP_clean_linker_0, # of connection points: 3
#     Node 3, Type 0, BuildingBlock: BETDIP_clean_linker_0, # of connection points: 3
#     Node 4, Type 0, BuildingBlock: BETDIP_clean_linker_0, # of connection points: 3
#     Node 5, Type 0, BuildingBlock: BETDIP_clean_linker_0, # of connection points: 3
#     Node 6, Type 0, BuildingBlock: BETDIP_clean_linker_0, # of connection points: 3
#     Node 7, Type 0, BuildingBlock: BETDIP_clean_linker_0, # of connection points: 3
#     Node 8, Type 1, BuildingBlock: BETDEL_clean_sbu_0, # of connection points: 6
#     Node 9, Type 1, BuildingBlock: BETDEL_clean_sbu_0, # of connection points: 6
#     Node 10, Type 1, BuildingBlock: BETDEL_clean_sbu_0, # of connection points: 6
#     Node 11, Type 1, BuildingBlock: BETDEL_clean_sbu_0, # of connection points: 6
#     Edge 12, Type (0, 1), BuildingBlock: ZUJKAS_clean_linker_0, # of connection points: 2
#     Edge 13, Type (0, 1), BuildingBlock: ZUJKAS_clean_linker_0, # of connection points: 2
#     Edge 14, Type (0, 1), BuildingBlock: ZUJKAS_clean_linker_0, # of connection points: 2
#     Edge 15, Type (0, 1), BuildingBlock: ZUJKAS_clean_linker_0, # of connection points: 2
#     Edge 16, Type (0, 1), BuildingBlock: ZUJKAS_clean_linker_0, # of connection points: 2
#     Edge 17, Type (0, 1), BuildingBlock: ZUJKAS_clean_linker_0, # of connection points: 2
#     Edge 18, Type (0, 1), BuildingBlock: ZUJKAS_clean_linker_0, # of connection points: 2
#     Edge 19, Type (0, 1), BuildingBlock: ZUJKAS_clean_linker_0, # of connection points: 2
#     Edge 20, Type (0, 1), BuildingBlock: ZUJKAS_clean_linker_0, # of connection points: 2
#     Edge 21, Type (0, 1), BuildingBlock: ZUJKAS_clean_linker_0, # of connection points: 2
#     Edge 22, Type (0, 1), BuildingBlock: ZUJKAS_clean_linker_0, # of connection points: 2
#     Edge 23, Type (0, 1), BuildingBlock: ZUJKAS_clean_linker_0, # of connection points: 2
#     Edge 24, Type (0, 1), BuildingBlock: ZUJKAS_clean_linker_0, # of connection points: 2
#     Edge 25, Type (0, 1), BuildingBlock: ZUJKAS_clean_linker_0, # of connection points: 2
#     Edge 26, Type (0, 1), BuildingBlock: ZUJKAS_clean_linker_0, # of connection points: 2
#     Edge 27, Type (0, 1), BuildingBlock: ZUJKAS_clean_linker_0, # of connection points: 2
#     Edge 28, Type (0, 1), BuildingBlock: ZUJKAS_clean_linker_0, # of connection points: 2
#     Edge 29, Type (0, 1), BuildingBlock: ZUJKAS_clean_linker_0, # of connection points: 2
#     Edge 30, Type (0, 1), BuildingBlock: ZUJKAS_clean_linker_0, # of connection points: 2
#     Edge 31, Type (0, 1), BuildingBlock: ZUJKAS_clean_linker_0, # of connection points: 2
#     Edge 32, Type (0, 1), BuildingBlock: ZUJKAS_clean_linker_0, # of connection points: 2
#     Edge 33, Type (0, 1), BuildingBlock: ZUJKAS_clean_linker_0, # of connection points: 2
#     Edge 34, Type (0, 1), BuildingBlock: ZUJKAS_clean_linker_0, # of connection points: 2
#     Edge 35, Type (0, 1), BuildingBlock: ZUJKAS_clean_linker_0, # of connection points: 2
# Relax obj value: 0.149
# Max RMSD: 0.174
# Mean RMSD: 0.112
data_MOF--net-zzz--node1-BETDEL_clean_sbu_0--node2-BETDIP_clean_linker_0--edge1-ZUJKAS_clean_linker_0
_symmetry_space_group_name_H-M    P1
_symmetry_Int_Tables_number       1
_symmetry_cell_setting            triclinic
loop_
_symmetry_equiv_pos_as_xyz
'x, y, z'
_cell_length_a     64.701865
_cell_length_b     66.073001
_cell_length_c     19.208643
_cell_angle_alpha  91.487464
_cell_angle_beta   88.311206
_cell_angle_gamma 94.897318
loop_
_atom_site_label
_atom_site_type_symbol
_atom_site_fract_x
_atom_site_fract_y
_atom_site_fract_z
_atom_type_partial_charge
H0 H 0.75174 0.52711 0.20141 0.0
H1 H 0.75773 0.49635 0.00119 0.0
H2 H 0.80422 0.49302 0.15372 0.0
H3 H 0.74261 0.52757 0.97433 0.0
C4 C 0.7293 0.52435 0.00941 0.0
C5 C 0.75992 0.51732 0.16611 0.0
C6 C 0.7788 0.51023 0.18567 0.0
C7 C 0.75203 0.51222 0.09947 0.0
C8 C 0.76334 0.50016 0.05286 0.0
C9 C 0.78195 0.4929 0.07293 0.0
C10 C 0.78929 0.4978 0.13939 0.0
N11 N 0.73289 0.51931 0.0795 0.0
H12 H 0.99764 0.75078 0.20452 0.0
H13 H 0.01484 0.76188 0.98891 0.0
H14 H 0.02381 0.80974 0.14262 0.0
H15 H 0.98323 0.73821 0.98435 0.0
C16 C 0.99048 0.72699 0.01364 0.0
C17 C 1.0045 0.76075 0.16464 0.0
C18 C 0.01101 0.78106 0.18168 0.0
C19 C 1.00609 0.75359 0.09509 0.0
C20 C 0.01397 0.76702 0.04285 0.0
C21 C 0.02077 0.78716 0.06026 0.0
C22 C 0.01958 0.79385 0.12967 0.0
N23 N 0.99966 0.73297 0.07818 0.0
H24 H 0.75295 0.9897 0.21416 0.0
H25 H 0.76137 0.0063 -0.00101 0.0
H26 H 0.70496 0.01757 0.11061 0.0
H27 H 0.77409 0.96873 0.01546 0.0
C28 C 0.78589 0.97765 0.04499 0.0
C29 C 0.74729 0.99643 0.16836 0.0
C30 C 0.72753 1.00401 0.17035 0.0
C31 C 0.7595 0.99713 0.10626 0.0
C32 C 0.75195 0.0056 0.0466 0.0
C33 C 0.73249 0.01341 0.04833 0.0
C34 C 0.72047 0.01251 0.11021 0.0
N35 N 0.7794 0.98945 0.10346 0.0
H36 H 0.51999 0.76174 0.21653 0.0
H37 H 0.48796 0.75176 0.02277 0.0
H38 H 0.49039 0.70297 0.16446 0.0
H39 H 0.51848 0.7727 0.98913 0.0
C40 C 0.51558 0.78479 0.02675 0.0
C41 C 0.51077 0.75187 0.18131 0.0
C42 C 0.50498 0.73155 0.19897 0.0
C43 C 0.50494 0.75922 0.11688 0.0
C44 C 0.49293 0.74616 0.07148 0.0
C45 C 0.48731 0.72589 0.08861 0.0
C46 C 0.49359 0.71887 0.1521 0.0
N47 N 0.51123 0.77961 0.09764 0.0
H48 H 0.27102 0.50159 0.92284 0.0
H49 H 0.26306 0.50338 0.14737 0.0
H50 H 0.21006 0.49341 0.01866 0.0
H51 H 0.29184 0.53019 0.11968 0.0
C52 C 0.30084 0.51843 0.09662 0.0
C53 C 0.2611 0.50029 0.96921 0.0
C54 C 0.23938 0.49708 0.96317 0.0
C55 C 0.26987 0.50249 0.03595 0.0
C56 C 0.25668 0.50151 0.09586 0.0
C57 C 0.23522 0.49782 0.08933 0.0
C58 C 0.22682 0.49547 0.02334 0.0
N59 N 0.29181 0.50559 0.04286 0.0
H60 H 0.02686 0.26692 0.94451 0.0
H61 H 0.01178 0.25847 0.16304 0.0
H62 H 0.02989 0.20851 0.03552 0.0
H63 H 0.98702 0.28238 0.12379 0.0
C64 C 1.0 0.29306 0.10863 0.0
C65 C 0.02554 0.25734 0.98964 0.0
C66 C 0.02951 0.23677 0.98275 0.0
C67 C 0.01922 0.26536 0.05482 0.0
C68 C 0.01675 0.25257 0.1127 0.0
C69 C 0.02101 0.23219 0.10599 0.0
C70 C 0.02754 0.22455 0.04132 0.0
N71 N 0.01559 0.28625 0.06205 0.0
H72 H 0.25738 0.01756 0.93851 0.0
H73 H 0.25085 0.99984 0.15353 0.0
H74 H 0.31108 0.00609 0.0539 0.0
H75 H 0.22141 0.97942 0.08389 0.0
C76 C 0.21586 0.99429 0.07659 0.0
C77 C 0.26423 0.01356 0.98651 0.0
C78 C 0.28583 0.0121 0.98896 0.0
C79 C 0.25141 0.00875 0.04566 0.0
C80 C 0.26046 1.00327 0.10747 0.0
C81 C 0.28194 1.00271 0.11061 0.0
C82 C 0.29444 0.00702 0.05149 0.0
N83 N 0.22949 0.0094 0.04347 0.0
H84 H 0.49878 0.24727 0.91383 0.0
H85 H 0.50169 0.25465 0.13776 0.0
H86 H 0.49014 0.30512 0.01321 0.0
H87 H 0.53022 0.23238 0.10023 0.0
C88 C 0.51814 0.22122 0.08183 0.0
C89 C 0.49744 0.25656 0.96076 0.0
C90 C 0.49386 0.27725 0.95613 0.0
C91 C 0.5002 0.2482 0.02662 0.0
C92 C 0.49932 0.26072 0.08702 0.0
C93 C 0.49528 0.28109 0.08225 0.0
C94 C 0.49235 0.28907 0.01706 0.0
N95 N 0.50407 0.22738 0.03233 0.0
Dy96 Dy 0.01456 1.00037 0.65184 0.0
C97 C 0.98833 0.04151 0.40826 0.0
C98 C 0.01394 0.97794 0.76852 0.0
Dy99 Dy 0.99613 0.01701 0.51471 0.0
O100 O 0.02922 0.99094 0.74938 0.0
O101 O 0.99884 0.97801 0.72546 0.0
O102 O 0.04797 0.99963 0.61256 0.0
O103 O 0.02535 0.00863 0.54927 0.0
C104 C 0.04429 0.00574 0.5506 0.0
C105 C 0.96875 1.00356 0.61415 0.0
O106 O 0.99941 0.98509 0.47768 0.0
O107 O 1.00405 0.97248 0.58819 0.0
O108 O 0.97598 0.03744 0.46141 0.0
O109 O 1.00462 0.03137 0.41169 0.0
O110 O 0.96512 1.00195 0.54783 0.0
O111 O 0.98614 0.0133 0.62359 0.0
O112 O 0.01543 0.03325 0.68312 0.0
O113 O 0.0095 0.04504 0.57235 0.0
C114 C 1.00088 0.96979 0.52037 0.0
C115 C 0.01447 0.04824 0.63869 0.0
Dy116 Dy 0.4895 0.99581 0.54064 0.0
C117 C 0.56303 0.03499 0.65809 0.0
C118 C 0.45105 0.97921 0.50684 0.0
Dy119 Dy 0.52439 0.01852 0.62584 0.0
O120 O 0.46796 0.97666 0.47045 0.0
O121 O 0.45527 0.99063 0.56129 0.0
O122 O 0.51252 0.99057 0.45292 0.0
O123 O 0.52201 0.99209 0.5568 0.0
C124 C 0.52821 0.99104 0.49412 0.0
C125 C 0.48567 0.02371 0.67192 0.0
O126 O 0.52166 0.04005 0.53739 0.0
O127 O 0.49141 0.02568 0.48673 0.0
O128 O 0.54698 0.03425 0.70075 0.0
O129 O 0.55778 0.02711 0.59803 0.0
O130 O 0.50137 0.02451 0.71312 0.0
O131 O 0.49196 0.02235 0.60947 0.0
O132 O 0.49204 0.97441 0.62959 0.0
O133 O 0.52307 0.98815 0.67623 0.0
C134 C 0.50684 0.04025 0.49081 0.0
C135 C 0.50739 0.97381 0.67392 0.0
Dy136 Dy 0.49814 0.51575 0.64853 0.0
C137 C 0.52721 0.4736 0.4002 0.0
C138 C 0.49135 0.53738 0.76819 0.0
Dy139 Dy 0.51864 0.49831 0.511 0.0
O140 O 0.47831 0.52349 0.74134 0.0
O141 O 0.50856 0.53863 0.73123 0.0
O142 O 0.46526 0.51582 0.60914 0.0
O143 O 0.48883 0.50659 0.54544 0.0
C144 C 0.46989 0.50937 0.54675 0.0
C145 C 0.54496 0.51291 0.60944 0.0
O146 O 0.51559 0.53008 0.4775 0.0
O147 O 0.51103 0.54348 0.59006 0.0
O148 O 0.53893 0.47733 0.45346 0.0
O149 O 0.51122 0.48423 0.40599 0.0
O150 O 0.54905 0.51398 0.54275 0.0
O151 O 0.52754 0.50307 0.62003 0.0
O152 O 0.49866 0.48326 0.67917 0.0
O153 O 0.5053 0.47033 0.56727 0.0
C154 C 0.51462 0.54574 0.52201 0.0
C155 C 0.50028 0.46776 0.63429 0.0
Dy156 Dy 0.9965 0.50002 0.64646 0.0
C157 C 0.03931 0.51967 0.3895 0.0
C158 C 0.9762 0.49198 0.77056 0.0
Dy159 Dy 0.01893 0.51523 0.51529 0.0
O160 O 0.98418 0.47861 0.72962 0.0
O161 O 0.98029 0.50995 0.74512 0.0
O162 O 0.98294 0.47296 0.58563 0.0
O163 O 0.01301 0.48544 0.56022 0.0
C164 C 0.99877 0.4722 0.543 0.0
C165 C 0.01643 0.54325 0.61815 0.0
O166 O 0.98576 0.51488 0.4813 0.0
O167 O 0.96981 0.51085 0.5905 0.0
O168 O 0.03711 0.53414 0.43546 0.0
O169 O 0.02928 0.50305 0.41101 0.0
O170 O 0.03215 0.54281 0.57472 0.0
O171 O 1.00238 0.5298 0.60122 0.0
O172 O 0.02976 0.50319 0.68152 0.0
O173 O 0.04503 0.50333 0.57098 0.0
C174 C 0.96891 0.51406 0.52285 0.0
C175 C 0.04636 0.50234 0.6394 0.0
H176 H 0.18936 0.96766 0.14493 0.0
H177 H 0.15759 0.97401 0.21029 0.0
H178 H 0.16488 0.03682 0.15139 0.0
H179 H 0.19716 0.03054 0.08646 0.0
H180 H 0.15641 0.03329 0.28927 0.0
H181 H 0.1 0.98138 0.14793 0.0
H182 H 0.12146 0.96818 0.17405 0.0
H183 H 0.12573 0.98847 0.11296 0.0
C184 C 0.18404 0.98277 0.14499 0.0
C185 C 0.19568 0.99855 0.11026 0.0
C186 C 0.16576 0.98636 0.18203 0.0
C187 C 0.15851 0.0058 0.18475 0.0
C188 C 0.17003 0.02164 0.1495 0.0
H189 H 0.03869 0.01426 0.41321 0.0
H190 H 0.0654 0.01777 0.31953 0.0
C191 C 0.18844 0.01803 0.11228 0.0
C192 C 0.13981 0.00961 0.22884 0.0
H193 H 0.09026 0.99007 0.2671 0.0
C194 C 0.14182 0.02409 0.2836 0.0
C195 C 0.12057 0.99794 0.22099 0.0
C196 C 0.11673 0.98329 0.16028 0.0
C197 C 0.12565 0.02626 0.33308 0.0
C198 C 0.10709 0.0133 0.32872 0.0
C199 C 0.10457 0.99978 0.27138 0.0
C200 C 0.09085 0.01246 0.38558 0.0
C201 C 0.12874 0.04229 0.39004 0.0
C202 C 0.09613 0.0081 0.45365 0.0
C203 C 0.08096 0.00628 0.50692 0.0
C204 C 0.06007 0.00858 0.49344 0.0
C205 C 0.05468 0.0128 0.42534 0.0
C206 C 0.06994 0.01468 0.37178 0.0
H207 H 0.13975 0.05514 0.37277 0.0
H208 H 0.11385 0.04834 0.4068 0.0
H209 H 0.13545 0.03555 0.43568 0.0
H210 H 0.11199 0.00568 0.46543 0.0
H211 H 0.08559 1.00279 0.55871 0.0
H212 H 0.48763 0.18942 0.06497 0.0
H213 H 0.48369 0.15757 0.12986 0.0
H214 H 0.53976 0.17599 0.23887 0.0
H215 H 0.54361 0.20768 0.17518 0.0
H216 H 0.51099 0.12591 0.14314 0.0
H217 H 0.49673 0.16461 0.39717 0.0
H218 H 0.49518 0.17706 0.31515 0.0
H219 H 0.51999 0.17467 0.35264 0.0
C220 C 0.49915 0.18658 0.10247 0.0
C221 C 0.51589 0.20109 0.11533 0.0
C222 C 0.49688 0.1684 0.13956 0.0
C223 C 0.51122 0.16455 0.19028 0.0
C224 C 0.52826 0.17877 0.2012 0.0
H225 H 0.53501 0.07372 0.48526 0.0
H226 H 0.53503 0.10291 0.40968 0.0
C227 C 0.53051 0.19683 0.1644 0.0
C228 C 0.50852 0.14587 0.23271 0.0
H229 H 0.50447 0.13004 0.40103 0.0
C230 C 0.50932 0.12676 0.19945 0.0
C231 C 0.50632 0.14697 0.30627 0.0
C232 C 0.50429 0.16691 0.34497 0.0
C233 C 0.50882 0.10883 0.23795 0.0
C234 C 0.50718 0.11002 0.31165 0.0
C235 C 0.50589 0.1291 0.34465 0.0
C236 C 0.50727 0.09179 0.35587 0.0
C237 C 0.51084 0.08886 0.19957 0.0
C238 C 0.49157 0.0758 0.35131 0.0
C239 C 0.49149 0.05902 0.39464 0.0
C240 C 0.50707 0.0579 0.44381 0.0
C241 C 0.52276 0.07397 0.44815 0.0
C242 C 0.5228 0.09073 0.4049 0.0
H243 H 0.51683 0.09106 0.14525 0.0
H244 H 0.52135 0.07947 0.22693 0.0
H245 H 0.49535 0.08029 0.19741 0.0
H246 H 0.47918 0.07641 0.31494 0.0
H247 H 0.4791 0.04701 0.38987 0.0
H248 H 0.32127 0.54336 0.18939 0.0
H249 H 0.35356 0.53869 0.24735 0.0
H250 H 0.35908 0.48268 0.13068 0.0
H251 H 0.3265 0.48732 0.0722 0.0
H252 H 0.36419 0.47914 0.27423 0.0
H253 H 0.41385 0.54511 0.1759 0.0
H254 H 0.38932 0.55215 0.21029 0.0
H255 H 0.39013 0.53557 0.13458 0.0
C256 C 0.32953 0.53019 0.17523 0.0
C257 C 0.32142 0.5158 0.12595 0.0
C258 C 0.34806 0.52759 0.20817 0.0
C259 C 0.359 0.51051 0.19268 0.0
C260 C 0.35103 0.49609 0.14301 0.0
H261 H 0.4781 0.50508 0.40571 0.0
H262 H 0.45273 0.50247 0.31203 0.0
C263 C 0.33245 0.49878 0.10949 0.0
C264 C 0.37786 0.50726 0.23237 0.0
H265 H 0.4243 0.53098 0.2826 0.0
C266 C 0.3775 0.49029 0.27508 0.0
C267 C 0.39542 0.52162 0.23301 0.0
C268 C 0.39735 0.53953 0.18542 0.0
C269 C 0.39355 0.48799 0.32138 0.0
C270 C 0.41034 0.50316 0.32577 0.0
C271 C 0.41135 0.51945 0.27992 0.0
C272 C 0.42588 0.50336 0.38165 0.0
C273 C 0.39218 0.46951 0.36628 0.0
C274 C 0.4193 0.50485 0.45172 0.0
C275 C 0.43369 0.50635 0.50483 0.0
C276 C 0.45505 0.50636 0.4893 0.0
C277 C 0.46173 0.50471 0.41924 0.0
C278 C 0.44725 0.50335 0.36576 0.0
H279 H 0.38251 0.45665 0.34212 0.0
H280 H 0.40781 0.46453 0.3756 0.0
H281 H 0.38483 0.47326 0.4174 0.0
H282 H 0.40298 0.50537 0.46538 0.0
H283 H 0.42807 0.50778 0.55827 0.0
H284 H 0.97172 0.30875 0.19525 0.0
H285 H 0.97469 0.34113 0.26018 0.0
H286 H 0.03532 0.35563 0.16604 0.0
H287 H 0.03225 0.32324 0.09985 0.0
H288 H 1.00494 0.35255 0.35615 0.0
H289 H 1.0068 0.40824 0.14322 0.0
H290 H 0.99808 0.38175 0.13017 0.0
H291 H 0.0253 0.38944 0.13496 0.0
C292 C 0.98556 0.31898 0.18762 0.0
C293 C 1.0017 0.31352 0.14243 0.0
C294 C 0.98726 0.33745 0.22484 0.0
C295 C 1.00515 0.3509 0.21764 0.0
C296 C 0.02122 0.34566 0.17152 0.0
H297 H 0.03303 0.46458 0.4617 0.0
H298 H 0.03655 0.43576 0.37975 0.0
C299 C 0.01949 0.32712 0.13394 0.0
C300 C 1.00721 0.36969 0.262 0.0
H301 H 0.01006 0.42159 0.2581 0.0
C302 C 1.00617 0.36763 0.33462 0.0
C303 C 0.00899 0.38938 0.23389 0.0
C304 C 0.00971 0.39247 0.15632 0.0
C305 C 1.00637 0.38466 0.37983 0.0
C306 C 1.00741 0.4043 0.35179 0.0
C307 C 0.00922 0.40648 0.27931 0.0
C308 C 1.00515 0.4225 0.39725 0.0
C309 C 1.00525 0.38151 0.45742 0.0
C310 C 0.98622 0.42479 0.43284 0.0
C311 C 0.98414 0.4412 0.47906 0.0
C312 C 1.00096 0.45566 0.49065 0.0
C313 C 0.01979 0.45368 0.45362 0.0
C314 C 0.02183 0.43725 0.40693 0.0
H315 H 0.00967 0.36622 0.47075 0.0
H316 H 0.01554 0.39321 0.48498 0.0
H317 H 0.9891 0.38288 0.47695 0.0
H318 H 0.97309 0.4137 0.42545 0.0
H319 H 0.96941 0.44238 0.5065 0.0
H320 H 0.80115 0.95474 0.94076 0.0
H321 H 0.83556 0.95837 0.88425 0.0
H322 H 0.85393 0.00758 0.02721 0.0
H323 H 0.8193 1.004 0.08415 0.0
H324 H 0.86226 0.01674 0.88699 0.0
H325 H 0.89201 0.94317 0.94618 0.0
H326 H 0.86658 0.94026 0.91041 0.0
H327 H 0.87034 0.95292 0.99373 0.0
C328 C 0.81265 0.96611 0.96096 0.0
C329 C 0.80758 0.97899 0.01706 0.0
C330 C 0.83235 0.9681 0.92882 0.0
C331 C 0.84748 0.98304 0.95206 0.0
C332 C 0.84257 0.99582 0.00881 0.0
H333 H 0.9711 0.01255 0.75406 0.0
H334 H 0.94311 0.00767 0.8431 0.0
C335 C 0.82281 0.99372 0.04142 0.0
C336 C 0.86771 0.98619 0.91319 0.0
H337 H 0.90885 0.9613 0.85015 0.0
C338 C 0.87265 1.00476 0.88006 0.0
C339 C 0.88129 0.97054 0.904 0.0
C340 C 0.87742 0.95067 0.94103 0.0
C341 C 0.89022 0.00771 0.83548 0.0
C342 C 0.90321 0.99175 0.82392 0.0
C343 C 0.89877 0.97347 0.85894 0.0
C344 C 0.92066 0.99347 0.77197 0.0
C345 C 0.89447 0.02758 0.79867 0.0
C346 C 0.91733 0.98681 0.70299 0.0
C347 C 0.93321 0.98959 0.65222 0.0
C348 C 0.95272 0.99907 0.66955 0.0
C349 C 0.95622 1.0052 0.73921 0.0
C350 C 0.94028 1.00244 0.79004 0.0
H351 H 0.88319 0.03872 0.81454 0.0
H352 H 0.91037 0.03429 0.80996 0.0
H353 H 0.89373 0.02482 0.74149 0.0
H354 H 0.90229 0.97985 0.68812 0.0
H355 H 0.93005 0.98469 0.59906 0.0
H356 H 0.50852 0.82058 0.09928 0.0
H357 H 0.50761 0.85453 0.05017 0.0
H358 H 0.52098 0.8298 0.84533 0.0
H359 H 0.5223 0.79621 0.8941 0.0
H360 H 0.54417 0.86503 0.86975 0.0
H361 H 0.46145 0.87454 0.93762 0.0
H362 H 0.4772 0.86996 0.01013 0.0
H363 H 0.47252 0.85052 0.94396 0.0
C364 C 0.51131 0.82246 0.04387 0.0
C365 C 0.51545 0.80574 0.00043 0.0
C366 C 0.51064 0.84183 0.01572 0.0
C367 C 0.51393 0.84474 0.94371 0.0
C368 C 0.51835 0.82803 0.90089 0.0
H369 H 0.48138 0.93869 0.67237 0.0
H370 H 0.48338 0.90848 0.74199 0.0
C371 C 0.51908 0.80881 0.92886 0.0
C372 C 0.51298 0.86502 0.91193 0.0
H373 H 0.48048 0.90188 0.88172 0.0
C374 C 0.53028 0.87315 0.87276 0.0
C375 C 0.49476 0.87551 0.91496 0.0
C376 C 0.47534 0.86716 0.95336 0.0
C377 C 0.52981 0.89123 0.83596 0.0
C378 C 0.51167 0.90185 0.83954 0.0
C379 C 0.49443 0.89385 0.87931 0.0
C380 C 0.50999 0.92075 0.79983 0.0
C381 C 0.5485 0.89831 0.79137 0.0
C382 C 0.52399 0.93795 0.80992 0.0
C383 C 0.523 0.95523 0.76971 0.0
C384 C 0.5078 0.95582 0.71899 0.0
C385 C 0.49334 0.93882 0.71067 0.0
C386 C 0.49444 0.9215 0.75061 0.0
H387 H 0.55871 0.88588 0.77979 0.0
H388 H 0.54376 0.9043 0.74131 0.0
H389 H 0.55775 0.91068 0.81951 0.0
H390 H 0.53581 0.938 0.84869 0.0
H391 H 0.53426 0.96809 0.77823 0.0
H392 H 0.72023 0.53538 0.8807 0.0
H393 H 0.68641 0.53402 0.8268 0.0
H394 H 0.65688 0.51195 0.01759 0.0
H395 H 0.69091 0.51357 0.07239 0.0
H396 H 0.66001 0.49931 0.8071 0.0
H397 H 0.62048 0.55708 0.9653 0.0
H398 H 0.64824 0.55567 0.96547 0.0
H399 H 0.63133 0.53762 0.01288 0.0
C400 C 0.70651 0.53048 0.91154 0.0
C401 C 0.70824 0.52464 0.98076 0.0
C402 C 0.68717 0.52968 0.88061 0.0
C403 C 0.66901 0.52305 0.91813 0.0
C404 C 0.6706 0.51747 0.98788 0.0
H405 H 0.54309 0.50279 0.7478 0.0
H406 H 0.57202 0.50502 0.82893 0.0
C407 C 0.69007 0.51831 0.01908 0.0
C408 C 0.64884 0.52092 0.88189 0.0
H409 H 0.60121 0.53971 0.87613 0.0
C410 C 0.64714 0.50808 0.82254 0.0
C411 C 0.63192 0.53223 0.90221 0.0
C412 C 0.633 0.54656 0.96463 0.0
C413 C 0.62929 0.50656 0.78224 0.0
C414 C 0.61269 0.51841 0.80094 0.0
C415 C 0.61398 0.53071 0.86169 0.0
C416 C 0.59453 0.51893 0.75533 0.0
C417 C 0.6284 0.49233 0.71944 0.0
C418 C 0.5974 0.52662 0.68799 0.0
C419 C 0.58099 0.52538 0.64187 0.0
C420 C 0.5613 0.51647 0.66206 0.0
C421 C 0.55811 0.50968 0.73071 0.0
C422 C 0.57461 0.51094 0.77705 0.0
H423 H 0.63965 0.48061 0.72251 0.0
H424 H 0.61258 0.48459 0.71393 0.0
H425 H 0.63231 0.50118 0.67183 0.0
H426 H 0.61253 0.53314 0.67044 0.0
H427 H 0.58392 0.5309 0.58959 0.0
H428 H 0.97072 0.71157 0.89994 0.0
H429 H 0.97357 0.67849 0.84203 0.0
H430 H 0.01572 0.66292 0.99821 0.0
H431 H 0.01242 0.69586 0.05747 0.0
H432 H 0.00782 0.66503 0.78389 0.0
H433 H 0.97718 0.6115 0.98706 0.0
H434 H 0.97369 0.63831 0.99258 0.0
H435 H 0.9979 0.62922 0.01611 0.0
C436 C 0.98031 0.70094 0.92253 0.0
C437 C 0.99126 0.70623 0.98325 0.0
C438 C 0.98197 0.68206 0.88936 0.0
C439 C 0.99468 0.66808 0.91606 0.0
C440 C 1.00543 0.67323 0.97745 0.0
H441 H 0.04549 0.57298 0.65896 0.0
H442 H 0.04042 0.60253 0.73506 0.0
C443 C 1.00363 0.69211 0.01108 0.0
C444 C 0.99776 0.64886 0.87645 0.0
H445 H 0.99405 0.59711 0.88786 0.0
C446 C 1.00473 0.65019 0.80667 0.0
C447 C 0.99353 0.62946 0.90584 0.0
C448 C 0.98497 0.62695 0.97929 0.0
C449 C 0.00774 0.63275 0.76565 0.0
C450 C 1.00422 0.61338 0.79566 0.0
C451 C 0.99699 0.61198 0.86519 0.0
C452 C 0.00769 0.59447 0.75499 0.0
C453 C 0.01426 0.63527 0.69003 0.0
C454 C 0.9912 0.57962 0.74348 0.0
C455 C 0.99413 0.56258 0.70053 0.0
C456 C 0.01359 0.56016 0.66843 0.0
C457 C 0.03026 0.5746 0.68235 0.0
C458 C 0.02736 0.59153 0.72556 0.0
H459 H 0.01072 0.65026 0.67065 0.0
H460 H 0.03126 0.63431 0.68422 0.0
H461 H 1.00641 0.62315 0.65669 0.0
H462 H 0.97593 0.58151 0.76603 0.0
H463 H 0.98103 0.55163 0.69088 0.0
H464 H 0.98472 0.2238 0.179 0.0
H465 H 0.97542 0.19333 0.24749 0.0
H466 H 0.03846 0.17694 0.22476 0.0
H467 H 0.04776 0.20737 0.15766 0.0
H468 H 0.97814 0.15594 0.18579 0.0
H469 H 0.02446 0.16146 0.42361 0.0
H470 H 0.02019 0.18343 0.37359 0.0
H471 H 0.04037 0.16739 0.34765 0.0
C472 C 0.99673 0.21414 0.19152 0.0
C473 C 0.01693 0.21784 0.16337 0.0
C474 C 0.99139 0.19669 0.23004 0.0
C475 C 1.00627 0.18292 0.24145 0.0
C476 C 0.02682 0.18751 0.21787 0.0
H477 H 0.0184 0.05876 0.32127 0.0
H478 H 0.02019 0.0933 0.27692 0.0
C479 C 0.03212 0.20486 0.17935 0.0
C480 C 0.99994 0.16241 0.26784 0.0
H481 H 0.01361 0.12743 0.3817 0.0
C482 C 0.98555 0.14981 0.22959 0.0
C483 C 0.0097 0.15443 0.32472 0.0
C484 C 0.02438 0.16747 0.37014 0.0
C485 C 0.98148 0.12915 0.24454 0.0
C486 C 0.99206 0.12101 0.29904 0.0
C487 C 1.00578 0.13374 0.33914 0.0
C488 C 0.98944 0.09921 0.31504 0.0
C489 C 0.96662 0.11593 0.20033 0.0
C490 C 0.97126 0.09099 0.34872 0.0
C491 C 0.97018 0.07128 0.37398 0.0
C492 C 0.98731 0.05961 0.36592 0.0
C493 C 1.00493 0.06738 0.32778 0.0
C494 C 1.00604 0.08712 0.3029 0.0
H495 H 0.96155 0.12407 0.15477 0.0
H496 H 0.97397 0.10215 0.18143 0.0
H497 H 0.95268 0.11084 0.23239 0.0
H498 H 0.95836 0.10018 0.35884 0.0
H499 H 0.95646 0.06567 0.40354 0.0
H500 H 0.30718 0.02731 0.1913 0.0
H501 H 0.33079 0.01662 0.27793 0.0
H502 H 0.30388 0.95485 0.25618 0.0
H503 H 0.27986 0.96567 0.17012 0.0
H504 H 0.31851 0.96978 0.40142 0.0
H505 H 0.37556 0.98084 0.18125 0.0
H506 H 0.36099 1.00235 0.20064 0.0
H507 H 0.34788 0.97894 0.16942 0.0
C508 C 0.30582 0.01162 0.20714 0.0
C509 C 0.29187 0.99725 0.17455 0.0
C510 C 0.31927 0.00553 0.25632 0.0
C511 C 0.31916 0.98494 0.27257 0.0
C512 C 0.30408 0.97081 0.2443 0.0
H513 H 0.43914 0.95278 0.40126 0.0
H514 H 0.40463 0.9478 0.35126 0.0
C515 C 0.29042 0.97696 0.19542 0.0
C516 C 0.33683 0.97804 0.30956 0.0
H517 H 0.38921 0.977 0.29289 0.0
C518 C 0.33397 0.97105 0.37774 0.0
C519 C 0.35682 0.97922 0.27759 0.0
C520 C 0.36055 0.98555 0.20295 0.0
C521 C 0.35097 0.96626 0.41634 0.0
C522 C 0.37123 0.96895 0.386 0.0
C523 C 0.37376 0.97491 0.31644 0.0
C524 C 0.3903 0.96774 0.42617 0.0
C525 C 0.34702 0.95854 0.48913 0.0
C526 C 0.39354 0.97994 0.48644 0.0
C527 C 0.4131 0.98245 0.51567 0.0
C528 C 0.42987 0.97323 0.48406 0.0
C529 C 0.42644 0.96011 0.42627 0.0
C530 C 0.40675 0.95726 0.39784 0.0
H531 H 0.33158 0.94986 0.49384 0.0
H532 H 0.35909 0.94865 0.50431 0.0
H533 H 0.347 0.97166 0.52639 0.0
H534 H 0.38138 0.98865 0.50828 0.0
H535 H 0.41538 0.99271 0.56024 0.0
H536 H 0.46594 0.30519 0.13104 0.0
H537 H 0.47281 0.33685 0.19861 0.0
H538 H 0.53519 0.32168 0.23216 0.0
H539 H 0.52835 0.2899 0.16467 0.0
H540 H 0.5093 0.34627 0.34952 0.0
H541 H 0.51889 0.3758 0.0803 0.0
H542 H 0.49615 0.35903 0.09944 0.0
H543 H 0.52127 0.34948 0.09922 0.0
C544 C 0.48077 0.30818 0.15573 0.0
C545 C 0.49667 0.29529 0.14264 0.0
C546 C 0.4847 0.32625 0.19394 0.0
C547 C 0.50456 0.33158 0.21923 0.0
C548 C 0.51977 0.3177 0.21293 0.0
H549 H 0.55685 0.44679 0.39686 0.0
H550 H 0.5533 0.41207 0.3485 0.0
C551 C 0.51581 0.29954 0.17485 0.0
C552 C 0.51037 0.35283 0.24039 0.0
H553 H 0.52094 0.39996 0.1729 0.0
C554 C 0.51201 0.35804 0.3112 0.0
C555 C 0.51387 0.36799 0.18975 0.0
C556 C 0.51261 0.3629 0.11279 0.0
C557 C 0.51654 0.37834 0.33299 0.0
C558 C 0.51988 0.39355 0.28224 0.0
C559 C 0.51848 0.38822 0.21141 0.0
C560 C 0.52374 0.41525 0.30197 0.0
C561 C 0.51703 0.38345 0.41003 0.0
C562 C 0.50898 0.42882 0.28751 0.0
C563 C 0.51107 0.4487 0.31433 0.0
C564 C 0.52798 0.45521 0.35582 0.0
C565 C 0.54363 0.44212 0.36515 0.0
C566 C 0.54152 0.42224 0.33831 0.0
H567 H 0.50987 0.37074 0.44179 0.0
H568 H 0.53338 0.38665 0.42565 0.0
H569 H 0.50877 0.39721 0.42244 0.0
H570 H 0.49526 0.4237 0.2588 0.0
H571 H 0.49878 0.4585 0.30651 0.0
H572 H 0.20916 0.46686 0.13782 0.0
H573 H 0.17584 0.47113 0.19777 0.0
H574 H 0.19364 0.53507 0.22819 0.0
H575 H 0.22711 0.53077 0.16873 0.0
H576 H 0.16639 0.51412 0.34 0.0
H577 H 0.13863 0.50334 0.06891 0.0
H578 H 0.15316 0.48357 0.10008 0.0
H579 H 0.16573 0.50858 0.08824 0.0
C580 C 0.20637 0.48157 0.1608 0.0
C581 C 0.22056 0.4985 0.14909 0.0
C582 C 0.18729 0.48404 0.19417 0.0
C583 C 0.18223 0.50348 0.21569 0.0
C584 C 0.19734 0.51997 0.21152 0.0
H585 H 0.06718 0.55157 0.35837 0.0
H586 H 0.10202 0.54895 0.30756 0.0
C587 C 0.21649 0.51748 0.1783 0.0
C588 C 0.16043 0.50708 0.23218 0.0
H589 H 0.11311 0.50714 0.15794 0.0
C590 C 0.15472 0.51269 0.30037 0.0
C591 C 0.14538 0.5053 0.17981 0.0
C592 C 0.15096 0.50003 0.10498 0.0
C593 C 0.13409 0.51605 0.31818 0.0
C594 C 0.11901 0.51416 0.26587 0.0
C595 C 0.12478 0.50869 0.19758 0.0
C596 C 0.09698 0.51685 0.28236 0.0
C597 C 0.12845 0.52103 0.39315 0.0
C598 C 0.08226 0.50001 0.27984 0.0
C599 C 0.06231 0.5015 0.30812 0.0
C600 C 0.05691 0.51986 0.33925 0.0
C601 C 0.07098 0.53722 0.33493 0.0
C602 C 0.09093 0.53571 0.30664 0.0
H603 H 0.14088 0.51785 0.42902 0.0
H604 H 0.12597 0.53742 0.39851 0.0
H605 H 0.11384 0.51219 0.40969 0.0
H606 H 0.08664 0.48538 0.26051 0.0
H607 H 0.05175 0.48788 0.31076 0.0
H608 H 0.99653 0.79753 0.95659 0.0
H609 H 0.99929 0.83057 0.9005 0.0
H610 H 0.05876 0.84555 0.99277 0.0
H611 H 0.056 0.81257 0.04927 0.0
H612 H 1.00569 0.86586 0.00996 0.0
H613 H 0.06164 0.8689 0.78339 0.0
H614 H 0.04639 0.84569 0.80635 0.0
H615 H 0.06747 0.85527 0.85958 0.0
C616 C 0.01066 0.80743 0.96184 0.0
C617 C 0.02607 0.80259 0.00703 0.0
C618 C 0.01214 0.82634 0.93036 0.0
C619 C 0.02918 0.84042 0.9429 0.0
C620 C 0.04559 0.83477 0.98211 0.0
H621 H 0.04855 0.96823 0.83399 0.0
H622 H 0.05312 0.93575 0.88823 0.0
C623 C 0.04404 0.81594 0.01404 0.0
C624 C 0.02803 0.86196 0.92641 0.0
H625 H 0.04691 0.89925 0.81674 0.0
C626 C 0.01468 0.87322 0.96771 0.0
C627 C 0.04015 0.87146 0.87245 0.0
C628 C 0.05474 0.85981 0.82745 0.0
C629 C 0.01285 0.8938 0.95567 0.0
C630 C 0.02435 0.90319 0.89984 0.0
C631 C 0.03814 0.89202 0.85964 0.0
C632 C 0.02105 0.92401 0.87845 0.0
C633 C 0.99872 0.90529 0.00312 0.0
C634 C 1.00138 0.92838 0.85721 0.0
C635 C 0.99872 0.94689 0.82693 0.0
C636 C 0.01573 0.96127 0.81668 0.0
C637 C 0.03515 0.95745 0.84185 0.0
C638 C 0.03782 0.93887 0.87224 0.0
H639 H 0.99679 0.89833 0.05522 0.0
H640 H 1.00473 0.92145 0.00997 0.0
H641 H 0.98315 0.90479 0.98007 0.0
H642 H 0.98831 0.91702 0.8603 0.0
H643 H 0.98361 0.9494 0.80752 0.0
H644 H 0.71184 0.04741 0.03706 0.0
H645 H 0.68981 0.05515 0.94195 0.0
H646 H 0.71136 1.00498 0.82015 0.0
H647 H 0.73285 0.99661 0.91648 0.0
H648 H 0.69242 0.06254 0.79801 0.0
H649 H 0.6499 0.98789 0.85954 0.0
H650 H 0.67015 0.99945 0.91355 0.0
H651 H 0.67661 0.98716 0.8322 0.0
C652 C 0.71215 0.03824 0.98952 0.0
C653 C 0.72362 0.02109 0.98483 0.0
C654 C 0.69971 0.04279 0.935 0.0
C655 C 0.69862 0.03035 0.87479 0.0
C656 C 0.71175 0.01454 0.86684 0.0
H657 H 0.59794 0.03043 0.57889 0.0
H658 H 0.63359 0.03196 0.61971 0.0
C659 C 0.72412 0.00987 0.9217 0.0
C660 C 0.68148 0.03209 0.82662 0.0
H661 H 0.63473 0.00826 0.78135 0.0
C662 C 0.67997 0.05056 0.7932 0.0
C663 C 0.66512 0.01649 0.82143 0.0
C664 C 0.66533 0.99668 0.85889 0.0
C665 C 0.66221 0.054 0.75634 0.0
C666 C 0.64574 0.03864 0.75324 0.0
C667 C 0.64757 0.01993 0.78401 0.0
C668 C 0.62556 0.04204 0.72423 0.0
C669 C 0.66064 0.07421 0.72323 0.0
C670 C 0.60947 0.04763 0.76938 0.0
C671 C 0.58912 0.04662 0.74654 0.0
C672 C 0.58465 0.03998 0.67826 0.0
C673 C 0.60101 0.03566 0.63181 0.0
C674 C 0.62135 0.03656 0.65485 0.0
H675 H 0.67531 0.08419 0.72649 0.0
H676 H 0.65661 0.07184 0.66764 0.0
H677 H 0.64796 0.08206 0.74962 0.0
H678 H 0.61251 0.05167 0.82338 0.0
H679 H 0.57678 0.04999 0.78328 0.0
H680 H 0.49298 0.72309 0.94619 0.0
H681 H 0.48376 0.69327 0.87259 0.0
H682 H 0.45153 0.6641 0.04813 0.0
H683 H 0.45807 0.6947 0.11802 0.0
H684 H 0.49975 0.66226 0.88489 0.0
H685 H 0.41754 0.63646 0.91007 0.0
H686 H 0.4268 0.66183 0.9375 0.0
H687 H 0.4259 0.641 0.99728 0.0
C688 C 0.4829 0.71078 0.96788 0.0
C689 C 0.47686 0.71103 0.03876 0.0
C690 C 0.47784 0.69354 0.92592 0.0
C691 C 0.46717 0.67609 0.95456 0.0
C692 C 0.45939 0.67724 0.02343 0.0
H693 H 0.51347 0.56 0.86556 0.0
H694 H 0.50546 0.59331 0.91317 0.0
C695 C 0.46362 0.69473 0.06426 0.0
C696 C 0.46773 0.65588 0.91851 0.0
H697 H 0.4415 0.60891 0.90779 0.0
C698 C 0.48673 0.65083 0.88828 0.0
C699 C 0.45082 0.64077 0.92086 0.0
C700 C 0.42911 0.64548 0.94248 0.0
C701 C 0.48961 0.63105 0.86433 0.0
C702 C 0.47358 0.6154 0.87569 0.0
C703 C 0.45417 0.62063 0.90174 0.0
C704 C 0.47655 0.59371 0.85894 0.0
C705 C 0.50977 0.62742 0.82625 0.0
C706 C 0.46191 0.58188 0.81939 0.0
C707 C 0.46588 0.56237 0.79615 0.0
C708 C 0.48479 0.55461 0.81048 0.0
C709 C 0.49881 0.56576 0.85391 0.0
C710 C 0.49441 0.58494 0.87974 0.0
H711 H 0.51641 0.64134 0.79966 0.0
H712 H 0.52128 0.62345 0.86424 0.0
H713 H 0.50767 0.61496 0.78652 0.0
H714 H 0.44791 0.58809 0.80313 0.0
H715 H 0.45492 0.55411 0.76198 0.0
H716 H 0.79726 0.50668 0.94822 0.0
H717 H 0.82976 0.49757 0.89252 0.0
H718 H 0.83163 0.44819 0.03405 0.0
H719 H 0.7991 0.45726 0.08978 0.0
H720 H 0.86439 0.47893 0.04595 0.0
H721 H 0.85493 0.45277 0.77107 0.0
H722 H 0.84161 0.47484 0.79454 0.0
H723 H 0.83377 0.45105 0.83484 0.0
C724 C 0.80399 0.4932 0.96478 0.0
C725 C 0.79581 0.48272 0.0234 0.0
C726 C 0.82263 0.48805 0.93316 0.0
C727 C 0.83313 0.47228 0.95951 0.0
C728 C 0.82374 0.4604 0.01302 0.0
H729 H 0.95846 0.45438 0.80164 0.0
H730 H 0.92442 0.44673 0.85842 0.0
C731 C 0.80513 0.46551 0.0445 0.0
C732 C 0.85531 0.47088 0.941 0.0
H733 H 0.88917 0.46576 0.8036 0.0
C734 C 0.86983 0.47566 0.9932 0.0
C735 C 0.86231 0.46665 0.87231 0.0
C736 C 0.84735 0.46086 0.815 0.0
C737 C 0.8912 0.47724 0.97775 0.0
C738 C 0.89816 0.474 0.90841 0.0
C739 C 0.88371 0.46828 0.85681 0.0
C740 C 0.9202 0.47801 0.88687 0.0
C741 C 0.90618 0.48283 0.03522 0.0
C742 C 0.92934 0.49805 0.88658 0.0
C743 C 0.94873 0.50248 0.85402 0.0
C744 C 0.95919 0.48691 0.82138 0.0
C745 C 0.95076 0.46667 0.82668 0.0
C746 C 0.93128 0.46227 0.85868 0.0
H747 H 0.89885 0.48006 0.08753 0.0
H748 H 0.92006 0.47407 0.02931 0.0
H749 H 0.91146 0.49922 0.03237 0.0
H750 H 0.9209 0.51041 0.90754 0.0
H751 H 0.95483 0.51822 0.85029 0.0
H752 H 0.06308 0.21712 0.94167 0.0
H753 H 0.06245 0.18865 0.85807 0.0
H754 H 1.00243 0.20288 0.79099 0.0
H755 H 1.00297 0.23128 0.87578 0.0
H756 H 1.00147 0.16538 0.8445 0.0
H757 H 0.06673 0.17436 0.65239 0.0
H758 H 0.07503 0.17948 0.73985 0.0
H759 H 0.05754 0.1956 0.70185 0.0
C760 C 0.05031 0.21485 0.90628 0.0
C761 C 0.03313 0.22643 0.91479 0.0
C762 C 0.04991 0.19851 0.85855 0.0
C763 C 0.03238 0.19356 0.81816 0.0
C764 C 0.01615 0.20645 0.82149 0.0
H765 H 0.01586 0.08257 0.56136 0.0
H766 H 0.02019 0.11788 0.60227 0.0
C767 C 0.01656 0.22284 0.8693 0.0
C768 C 0.0294 0.17316 0.78359 0.0
H769 H 0.05259 0.13997 0.67329 0.0
C770 C 0.0125 0.15996 0.80622 0.0
C771 C 0.04376 0.16601 0.73375 0.0
C772 C 0.06167 0.17968 0.70502 0.0
C773 C 0.00992 0.13969 0.78219 0.0
C774 C 0.02485 0.13225 0.73511 0.0
C775 C 0.04135 0.1456 0.71037 0.0
C776 C 0.02335 0.1107 0.71038 0.0
C777 C 0.9912 0.12641 0.80746 0.0
C778 C 0.02411 0.09486 0.75746 0.0
C779 C 0.02161 0.07454 0.73433 0.0
C780 C 0.01836 0.06968 0.66355 0.0
C781 C 0.0182 0.08565 0.61635 0.0
C782 C 0.02073 0.10591 0.63953 0.0
H783 H 0.97872 0.13558 0.82855 0.0
H784 H 0.98483 0.11628 0.76481 0.0
H785 H 0.99582 0.11675 0.8498 0.0
H786 H 0.02647 0.09823 0.81228 0.0
H787 H 0.02192 0.06268 0.77207 0.0
H788 H 0.29901 0.0473 0.92274 0.0
H789 H 0.33005 0.05252 0.84605 0.0
H790 H 0.33746 0.98826 0.84823 0.0
H791 H 0.30637 0.9831 0.92267 0.0
H792 H 0.36746 0.04639 0.88509 0.0
H793 H 0.3529 0.99858 0.64943 0.0
H794 H 0.33218 1.00494 0.70891 0.0
H795 H 0.34715 0.98387 0.72567 0.0
C796 C 0.30674 0.03424 0.90387 0.0
C797 C 0.30013 0.01476 0.92748 0.0
C798 C 0.32461 0.03722 0.86073 0.0
C799 C 0.33611 0.02076 0.84046 0.0
C800 C 0.3287 1.00116 0.8611 0.0
H801 H 0.46853 0.01818 0.80212 0.0
H802 H 0.43204 0.01916 0.83866 0.0
C803 C 0.31089 0.9982 0.90383 0.0
C804 C 0.35717 0.02417 0.80664 0.0
H805 H 0.38904 0.00535 0.67998 0.0
C806 C 0.37203 0.03766 0.83944 0.0
C807 C 0.36329 0.01304 0.74651 0.0
C808 C 0.34794 0.99948 0.70524 0.0
C809 C 0.3929 0.03957 0.81611 0.0
C810 C 0.39934 0.02722 0.75949 0.0
C811 C 0.38429 0.01454 0.7243 0.0
C812 C 0.42162 0.02684 0.73724 0.0
C813 C 0.40782 0.05483 0.85264 0.0
C814 C 0.42796 0.03021 0.66759 0.0
C815 C 0.4488 0.02941 0.64651 0.0
C816 C 0.46372 0.02509 0.69454 0.0
C817 C 0.45741 0.02172 0.76413 0.0
C818 C 0.43655 0.0224 0.78511 0.0
H819 H 0.39962 0.06742 0.87713 0.0
H820 H 0.41537 0.04721 0.89469 0.0
H821 H 0.42006 0.06141 0.81612 0.0
H822 H 0.41678 0.03354 0.6295 0.0
H823 H 0.45324 0.03216 0.59254 0.0
H824 H 0.52716 0.29542 0.88772 0.0
H825 H 0.52651 0.32553 0.8166 0.0
H826 H 0.45984 0.31583 0.80903 0.0
H827 H 0.4605 0.28616 0.88293 0.0
H828 H 0.51368 0.3382 0.69555 0.0
H829 H 0.46641 0.36961 0.91142 0.0
H830 H 0.47774 0.34577 0.91721 0.0
H831 H 0.45407 0.34713 0.87115 0.0
C832 C 0.51247 0.29914 0.86792 0.0
C833 C 0.49391 0.28829 0.89 0.0
C834 C 0.51206 0.31654 0.82798 0.0
C835 C 0.49307 0.32342 0.80926 0.0
C836 C 0.47466 0.31123 0.82453 0.0
H837 H 0.49036 0.4329 0.55818 0.0
H838 H 0.48753 0.39792 0.5977 0.0
C839 C 0.47505 0.29397 0.86538 0.0
C840 C 0.49254 0.34421 0.78066 0.0
H841 H 0.47334 0.39027 0.81392 0.0
C842 C 0.50478 0.34957 0.72124 0.0
C843 C 0.4814 0.35931 0.81519 0.0
C844 C 0.46934 0.35529 0.88264 0.0
C845 C 0.50618 0.36943 0.69544 0.0
C846 C 0.49446 0.38434 0.7286 0.0
C847 C 0.48219 0.37893 0.7879 0.0
C848 C 0.49522 0.40579 0.70456 0.0
C849 C 0.5209 0.37435 0.63461 0.0
C850 C 0.49934 0.42218 0.7519 0.0
C851 C 0.50034 0.44232 0.72976 0.0
C852 C 0.49746 0.44656 0.65954 0.0
C853 C 0.4929 0.43019 0.61253 0.0
C854 C 0.4915 0.4101 0.63496 0.0
H855 H 0.53319 0.3636 0.62995 0.0
H856 H 0.51214 0.37305 0.58567 0.0
H857 H 0.52848 0.39002 0.63953 0.0
H858 H 0.50215 0.4194 0.806 0.0
H859 H 0.50397 0.45453 0.76729 0.0
H860 H 0.22879 0.52996 0.8959 0.0
H861 H 0.19756 0.53039 0.8271 0.0
H862 H 0.19172 0.46489 0.81839 0.0
H863 H 0.22266 0.46451 0.8888 0.0
H864 H 0.18058 0.51554 0.70404 0.0
H865 H 0.14002 0.47824 0.93093 0.0
H866 H 0.16683 0.48815 0.93246 0.0
H867 H 0.15977 0.46381 0.89179 0.0
C868 C 0.2215 0.51569 0.87594 0.0
C869 C 0.22833 0.4972 0.89682 0.0
C870 C 0.20344 0.51593 0.83751 0.0
C871 C 0.19189 0.49766 0.8194 0.0
C872 C 0.20007 0.47918 0.8332 0.0
H873 H 0.08032 0.48884 0.57136 0.0
H874 H 0.11522 0.48761 0.61465 0.0
C875 C 0.21804 0.47895 0.87208 0.0
C876 C 0.17041 0.49799 0.79334 0.0
H877 H 0.11967 0.48269 0.83298 0.0
C878 C 0.16726 0.50831 0.73208 0.0
C879 C 0.1529 0.48916 0.83116 0.0
C880 C 0.15495 0.47941 0.9006 0.0
C881 C 0.1472 0.50966 0.70682 0.0
C882 C 0.12976 0.49991 0.74274 0.0
C883 C 0.13294 0.48994 0.80475 0.0
C884 C 0.10812 0.49994 0.71726 0.0
C885 C 0.14495 0.52207 0.64301 0.0
C886 C 0.09199 0.50623 0.76143 0.0
C887 C 0.07174 0.50646 0.73719 0.0
C888 C 0.06723 0.50054 0.66809 0.0
C889 C 0.08327 0.49377 0.62464 0.0
C890 C 0.10337 0.49325 0.64915 0.0
H891 H 0.15826 0.53369 0.63609 0.0
H892 H 0.14461 0.51189 0.5961 0.0
H893 H 0.13042 0.52989 0.64593 0.0
H894 H 0.09514 0.5113 0.81443 0.0
H895 H 0.05978 0.5118 0.77194 0.0
H896 H 0.97365 0.79133 0.23046 0.0
H897 H 0.96902 0.82117 0.30578 0.0
H898 H 0.03373 0.82453 0.35616 0.0
H899 H 0.03845 0.79498 0.27958 0.0
H900 H 0.97766 0.83758 0.44309 0.0
H901 H 0.02774 0.87461 0.23515 0.0
H902 H 0.01669 0.84868 0.22745 0.0
H903 H 0.03934 0.85481 0.27839 0.0
C904 C 0.98657 0.79772 0.26089 0.0
C905 C 1.00638 0.79086 0.2496 0.0
C906 C 0.98398 0.81493 0.30325 0.0
C907 C 1.00117 0.82537 0.33489 0.0
C908 C 0.02035 0.81688 0.33116 0.0
H909 H 0.00767 0.93543 0.58924 0.0
H910 H 1.00606 0.90064 0.54421 0.0
C911 C 0.02298 0.79979 0.2884 0.0
C912 C 0.99986 0.84651 0.3617 0.0
H913 H 0.0185 0.89549 0.33086 0.0
C914 C 0.98659 0.85026 0.41875 0.0
C915 C 0.01101 0.86311 0.32831 0.0
C916 C 0.02434 0.86021 0.26351 0.0
C917 C 0.98467 0.87015 0.4447 0.0
C918 C 0.99663 0.88665 0.41343 0.0
C919 C 0.00946 0.88288 0.35521 0.0
C920 C 0.99665 0.90788 0.44125 0.0
C921 C 0.96956 0.87329 0.50455 0.0
C922 C 0.99251 0.92378 0.39781 0.0
C923 C 0.99374 0.94393 0.42317 0.0
C924 C 0.99915 0.94854 0.49251 0.0
C925 C 1.00325 0.93253 0.53572 0.0
C926 C 1.00216 0.91249 0.51025 0.0
H927 H 0.95709 0.86066 0.50709 0.0
H928 H 0.97794 0.87371 0.5542 0.0
H929 H 0.96229 0.88782 0.50023 0.0
H930 H 0.98841 0.92061 0.34411 0.0
H931 H 0.9905 0.95585 0.38843 0.0
H932 H 0.70613 0.03352 0.23278 0.0
H933 H 0.67533 0.02866 0.30846 0.0
H934 H 0.68435 0.96494 0.32118 0.0
H935 H 0.715 0.96971 0.2429 0.0
H936 H 0.6466 0.96953 0.28156 0.0
H937 H 0.66073 0.02077 0.50918 0.0
H938 H 0.66578 0.03451 0.43048 0.0
H939 H 0.68145 0.01419 0.45005 0.0
C940 C 0.70194 0.01859 0.25351 0.0
C941 C 0.71298 1.00198 0.23177 0.0
C942 C 0.68433 0.01583 0.29726 0.0
C943 C 0.67747 0.99645 0.32132 0.0
C944 C 0.68933 0.98007 0.30361 0.0
H945 H 0.56124 0.9847 0.57386 0.0
H946 H 0.59773 0.98417 0.53628 0.0
C947 C 0.70698 0.98282 0.25943 0.0
C948 C 0.65657 0.99301 0.3562 0.0
H949 H 0.62457 0.01261 0.48084 0.0
C950 C 0.64194 0.97872 0.32595 0.0
C951 C 0.65035 1.00475 0.41473 0.0
C952 C 0.66551 0.01924 0.45338 0.0
C953 C 0.62117 0.97658 0.35018 0.0
C954 C 0.61459 0.98947 0.40504 0.0
C955 C 0.62943 1.003 0.43781 0.0
C956 C 0.59234 0.98952 0.42786 0.0
C957 C 0.6065 0.9605 0.31647 0.0
C958 C 0.57711 0.99297 0.37979 0.0
C959 C 0.55624 0.99318 0.40113 0.0
C960 C 0.5502 0.99027 0.4712 0.0
C961 C 0.56544 0.98701 0.51946 0.0
C962 C 0.58631 0.9867 0.49805 0.0
H963 H 0.61498 0.9479 0.2934 0.0
H964 H 0.59461 0.95407 0.35446 0.0
H965 H 0.59849 0.96733 0.27371 0.0
H966 H 0.58138 0.99576 0.32575 0.0
H967 H 0.54487 0.99593 0.36294 0.0
H968 H 0.47971 0.71596 0.30197 0.0
H969 H 0.48689 0.68788 0.3742 0.0
H970 H 0.55153 0.69561 0.31026 0.0
H971 H 0.54392 0.7232 0.2343 0.0
H972 H 0.53878 0.6589 0.28703 0.0
H973 H 0.50993 0.67546 0.55225 0.0
H974 H 0.48963 0.67866 0.49331 0.0
H975 H 0.5135 0.69493 0.48787 0.0
C976 C 0.49566 0.71237 0.30619 0.0
C977 C 0.5113 0.72194 0.26312 0.0
C978 C 0.49979 0.6962 0.34761 0.0
C979 C 0.51982 0.68949 0.34855 0.0
C980 C 0.53592 0.7004 0.31067 0.0
H981 H 0.5295 0.58001 0.59276 0.0
H982 H 0.53377 0.61485 0.55161 0.0
C983 C 0.53168 0.71645 0.26815 0.0
C984 C 0.52302 0.66948 0.37977 0.0
H985 H 0.50843 0.63949 0.51809 0.0
C986 C 0.53251 0.65485 0.33826 0.0
C987 C 0.51521 0.66399 0.44701 0.0
C988 C 0.50674 0.67922 0.49777 0.0
C989 C 0.53352 0.63484 0.36048 0.0
C990 C 0.52394 0.62885 0.42491 0.0
C991 C 0.51538 0.64374 0.46794 0.0
C992 C 0.52236 0.60731 0.44844 0.0
C993 C 0.54507 0.62046 0.31454 0.0
C994 C 0.5145 0.59121 0.4046 0.0
C995 C 0.51254 0.57114 0.42758 0.0
C996 C 0.51775 0.56677 0.49575 0.0
C997 C 0.52532 0.58286 0.53992 0.0
C998 C 0.52774 0.60284 0.51641 0.0
H999 H 0.55753 0.62884 0.28303 0.0
H1000 H 0.55219 0.60906 0.34552 0.0
H1001 H 0.53414 0.6124 0.27768 0.0
H1002 H 0.50946 0.59417 0.35289 0.0
H1003 H 0.50634 0.55913 0.39269 0.0
H1004 H 0.80044 0.54656 0.20981 0.0
H1005 H 0.83134 0.55107 0.28139 0.0
H1006 H 0.81519 0.49252 0.37101 0.0
H1007 H 0.78443 0.48794 0.29909 0.0
H1008 H 0.8431 0.54708 0.42894 0.0
H1009 H 0.8692 0.48705 0.24701 0.0
H1010 H 0.84678 0.50061 0.23152 0.0
H1011 H 0.84507 0.4805 0.29309 0.0
C1012 C 0.80281 0.53523 0.24791 0.0
C1013 C 0.78992 0.51701 0.24953 0.0
C1014 C 0.82065 0.53768 0.2881 0.0
C1015 C 0.8258 0.52193 0.33034 0.0
C1016 C 0.81162 0.50477 0.33817 0.0
H1017 H 0.93133 0.51274 0.59254 0.0
H1018 H 0.89727 0.51611 0.54555 0.0
C1019 C 0.79385 0.50231 0.29796 0.0
C1020 C 0.84711 0.52201 0.35758 0.0
H1021 H 0.89159 0.49772 0.33835 0.0
C1022 C 0.85372 0.5363 0.40928 0.0
C1023 C 0.86115 0.50828 0.33052 0.0
C1024 C 0.85535 0.49334 0.27203 0.0
C1025 C 0.87382 0.53683 0.43605 0.0
C1026 C 0.88757 0.52252 0.411 0.0
C1027 C 0.88107 0.5086 0.35799 0.0
C1028 C 0.90858 0.52135 0.4399 0.0
C1029 C 0.88022 0.55293 0.49013 0.0
C1030 C 0.92641 0.52264 0.39599 0.0
C1031 C 0.94606 0.52051 0.42267 0.0
C1032 C 0.94827 0.51692 0.49385 0.0
C1033 C 0.93035 0.51564 0.53755 0.0
C1034 C 0.91077 0.51773 0.51085 0.0
H1035 H 0.87074 0.56614 0.48801 0.0
H1036 H 0.87788 0.54641 0.54272 0.0
H1037 H 0.89685 0.5584 0.4832 0.0
H1038 H 0.92512 0.52525 0.3409 0.0
H1039 H 0.95945 0.52153 0.3874 0.0
loop_
_geom_bond_atom_site_label_1
_geom_bond_atom_site_label_2
_geom_bond_distance
_geom_bond_site_symmetry_2
_ccdc_geom_bond_type
H0 C5 0.930 . S
H1 C8 0.930 1_556 S
H2 C10 0.930 . S
H3 C4 1.016 1_556 S
C4 H3 1.016 1_554 S
C4 N11 1.286 . S
C5 H0 0.930 . S
C5 C6 1.397 . S
C5 C7 1.361 . S
C6 C5 1.397 . S
C6 C10 1.390 . S
C7 C5 1.361 . S
C7 C8 1.393 . S
C7 N11 1.413 . S
C8 H1 0.930 1_554 S
C8 C7 1.393 . S
C8 C9 1.399 . S
C9 C8 1.399 . S
C9 C10 1.381 . S
C10 H2 0.930 . S
C10 C6 1.390 . S
C10 C9 1.381 . S
N11 C4 1.286 . S
N11 C7 1.413 . S
H12 C17 0.930 . S
H13 C20 0.930 . S
H14 C22 0.930 . S
H15 C16 1.032 . S
C16 H15 1.032 . S
C16 N23 1.269 1_656 S
C17 H12 0.930 . S
C17 C18 1.411 . S
C17 C19 1.361 . S
C18 C17 1.411 . S
C18 C22 1.381 1_455 S
C19 C17 1.361 . S
C19 C20 1.393 1_554 S
C19 N23 1.413 . S
C20 H13 0.930 . S
C20 C19 1.393 1_556 S
C20 C21 1.403 . S
C21 C20 1.403 . S
C21 C22 1.379 1_456 S
C22 H14 0.930 . S
C22 C18 1.381 1_655 S
C22 C21 1.379 1_654 S
N23 C16 1.269 1_454 S
N23 C19 1.413 . S
H24 C29 0.930 . S
H25 C32 0.930 . S
H26 C34 0.930 . S
H27 C28 1.016 . S
C28 H27 1.016 . S
C28 N35 1.286 1_556 S
C29 H24 0.930 . S
C29 C30 1.397 . S
C29 C31 1.361 . S
C30 C29 1.397 . S
C30 C34 1.390 . S
C31 C29 1.361 . S
C31 C32 1.393 1_554 S
C31 N35 1.413 . S
C32 H25 0.930 . S
C32 C31 1.393 1_556 S
C32 C33 1.399 . S
C33 C32 1.399 . S
C33 C34 1.381 1_556 S
C34 H26 0.930 . S
C34 C30 1.390 . S
C34 C33 1.381 1_554 S
N35 C28 1.286 1_554 S
N35 C31 1.413 . S
H36 C41 0.930 . S
H37 C44 0.930 . S
H38 C46 0.930 . S
H39 C40 1.016 . S
C40 H39 1.016 . S
C40 N47 1.286 . S
C41 H36 0.930 . S
C41 C42 1.397 . S
C41 C43 1.361 . S
C42 C41 1.397 . S
C42 C46 1.390 . S
C43 C41 1.361 . S
C43 C44 1.393 . S
C43 N47 1.413 . S
C44 H37 0.930 . S
C44 C43 1.393 . S
C44 C45 1.399 . S
C45 C44 1.399 . S
C45 C46 1.381 . S
C46 H38 0.930 . S
C46 C42 1.390 . S
C46 C45 1.381 . S
N47 C40 1.286 . S
N47 C43 1.413 . S
H48 C53 0.930 1_556 S
H49 C56 0.930 . S
H50 C58 0.930 . S
H51 C52 1.016 . S
C52 H51 1.016 . S
C52 N59 1.286 . S
C53 H48 0.930 1_554 S
C53 C54 1.397 . S
C53 C55 1.361 . S
C54 C53 1.397 . S
C54 C58 1.390 . S
C55 C53 1.361 . S
C55 C56 1.393 . S
C55 N59 1.413 . S
C56 H49 0.930 . S
C56 C55 1.393 . S
C56 C57 1.399 . S
C57 C56 1.399 . S
C57 C58 1.381 . S
C58 H50 0.930 . S
C58 C54 1.390 . S
C58 C57 1.381 . S
N59 C52 1.286 . S
N59 C55 1.413 . S
H60 C65 0.930 . S
H61 C68 0.930 . S
H62 C70 0.930 . S
H63 C64 1.023 . S
C64 H63 1.023 . S
C64 N71 1.273 1_655 S
C65 H60 0.930 . S
C65 C66 1.397 . S
C65 C67 1.361 . S
C66 C65 1.397 . S
C66 C70 1.390 1_455 S
C67 C65 1.361 . S
C67 C68 1.393 . S
C67 N71 1.413 . S
C68 H61 0.930 . S
C68 C67 1.393 . S
C68 C69 1.401 . S
C69 C68 1.401 . S
C69 C70 1.378 1_455 S
C70 H62 0.930 . S
C70 C66 1.390 1_655 S
C70 C69 1.378 1_655 S
N71 C64 1.273 1_455 S
N71 C67 1.413 . S
H72 C77 0.930 . S
H73 C80 0.930 . S
H74 C82 0.930 . S
H75 C76 1.016 . S
C76 H75 1.016 . S
C76 N83 1.286 . S
C77 H72 0.930 . S
C77 C78 1.397 . S
C77 C79 1.361 . S
C78 C77 1.397 . S
C78 C82 1.390 . S
C79 C77 1.361 . S
C79 C80 1.393 . S
C79 N83 1.413 . S
C80 H73 0.930 . S
C80 C79 1.393 . S
C80 C81 1.399 . S
C81 C80 1.399 . S
C81 C82 1.381 . S
C82 H74 0.930 . S
C82 C78 1.390 . S
C82 C81 1.381 . S
N83 C76 1.286 . S
N83 C79 1.413 . S
H84 C89 0.930 . S
H85 C92 0.930 . S
H86 C94 0.930 . S
H87 C88 1.016 . S
C88 H87 1.016 . S
C88 N95 1.286 . S
C89 H84 0.930 . S
C89 C90 1.397 . S
C89 C91 1.361 1_556 S
C90 C89 1.397 . S
C90 C94 1.390 1_556 S
C91 C89 1.361 1_554 S
C91 C92 1.393 . S
C91 N95 1.413 . S
C92 H85 0.930 . S
C92 C91 1.393 . S
C92 C93 1.399 . S
C93 C92 1.399 . S
C93 C94 1.381 . S
C94 H86 0.930 . S
C94 C90 1.390 1_554 S
C94 C93 1.381 . S
N95 C88 1.286 . S
N95 C91 1.413 . S
Dy96 O100 2.398 . S
Dy96 O101 2.491 1_455 S
Dy96 O102 2.403 . S
Dy96 O103 2.664 1_565 S
Dy96 O107 2.326 . S
Dy96 O111 2.310 1_455 S
Dy96 O112 2.351 1_565 S
C97 O108 1.185 . S
C97 O109 1.355 1_655 S
C98 O100 1.185 . S
C98 O101 1.355 1_455 S
Dy99 O103 2.310 1_655 S
Dy99 O106 2.351 1_545 S
Dy99 O108 2.398 . S
Dy99 O109 2.491 1_655 S
Dy99 O110 2.403 . S
Dy99 O111 2.664 1_545 S
Dy99 O113 2.326 . S
O100 Dy96 2.398 . S
O100 C98 1.185 . S
O101 Dy96 2.491 1_655 S
O101 C98 1.355 1_655 S
O102 Dy96 2.403 . S
O102 C104 1.254 1_565 S
O103 Dy96 2.664 1_545 S
O103 Dy99 2.310 1_455 S
O103 C104 1.268 . S
C104 O102 1.254 1_545 S
C104 O103 1.268 . S
C105 O110 1.254 1_565 S
C105 O111 1.268 . S
O106 Dy99 2.351 1_565 S
O106 C114 1.249 . S
O107 Dy96 2.326 . S
O107 C114 1.267 1_455 S
O108 C97 1.185 . S
O108 Dy99 2.398 . S
O109 C97 1.355 1_455 S
O109 Dy99 2.491 1_455 S
O110 Dy99 2.403 . S
O110 C105 1.254 1_545 S
O111 Dy96 2.310 1_655 S
O111 Dy99 2.664 1_565 S
O111 C105 1.268 . S
O112 Dy96 2.351 1_545 S
O112 C115 1.249 . S
O113 Dy99 2.326 . S
O113 C115 1.267 1_655 S
C114 O106 1.249 . S
C114 O107 1.267 1_655 S
C115 O112 1.249 . S
C115 O113 1.267 1_455 S
Dy116 O120 2.398 . S
Dy116 O121 2.491 1_565 S
Dy116 O122 2.403 . S
Dy116 O123 2.664 . S
Dy116 O127 2.326 1_565 S
Dy116 O131 2.310 1_565 S
Dy116 O132 2.351 . S
C117 O128 1.186 1_565 S
C117 O129 1.355 . S
C118 O120 1.185 1_545 S
C118 O121 1.355 . S
Dy119 O123 2.310 1_545 S
Dy119 O126 2.351 . S
Dy119 O128 2.398 . S
Dy119 O129 2.491 1_545 S
Dy119 O130 2.403 . S
Dy119 O131 2.664 . S
Dy119 O133 2.326 1_545 S
O120 Dy116 2.398 . S
O120 C118 1.185 1_565 S
O121 Dy116 2.491 1_545 S
O121 C118 1.355 . S
O122 Dy116 2.403 . S
O122 C124 1.254 . S
O123 Dy116 2.664 . S
O123 Dy119 2.310 1_565 S
O123 C124 1.268 . S
C124 O122 1.254 . S
C124 O123 1.268 . S
C125 O130 1.254 . S
C125 O131 1.268 . S
O126 Dy119 2.351 . S
O126 C134 1.249 . S
O127 Dy116 2.326 1_545 S
O127 C134 1.267 . S
O128 C117 1.186 1_545 S
O128 Dy119 2.398 . S
O129 C117 1.355 . S
O129 Dy119 2.491 1_565 S
O130 Dy119 2.403 . S
O130 C125 1.254 . S
O131 Dy116 2.310 1_545 S
O131 Dy119 2.664 . S
O131 C125 1.268 . S
O132 Dy116 2.351 . S
O132 C135 1.249 . S
O133 Dy119 2.326 1_565 S
O133 C135 1.267 . S
C134 O126 1.249 . S
C134 O127 1.267 . S
C135 O132 1.249 . S
C135 O133 1.267 . S
Dy136 O140 2.398 . S
Dy136 O141 2.491 . S
Dy136 O142 2.403 . S
Dy136 O143 2.664 . S
Dy136 O147 2.326 . S
Dy136 O151 2.310 . S
Dy136 O152 2.351 . S
C137 O148 1.185 . S
C137 O149 1.355 . S
C138 O140 1.185 . S
C138 O141 1.355 . S
Dy139 O143 2.310 . S
Dy139 O146 2.351 . S
Dy139 O148 2.398 . S
Dy139 O149 2.491 . S
Dy139 O150 2.403 . S
Dy139 O151 2.664 . S
Dy139 O153 2.326 . S
O140 Dy136 2.398 . S
O140 C138 1.185 . S
O141 Dy136 2.491 . S
O141 C138 1.355 . S
O142 Dy136 2.403 . S
O142 C144 1.254 . S
O143 Dy136 2.664 . S
O143 Dy139 2.310 . S
O143 C144 1.268 . S
C144 O142 1.254 . S
C144 O143 1.268 . S
C145 O150 1.254 . S
C145 O151 1.268 . S
O146 Dy139 2.351 . S
O146 C154 1.249 . S
O147 Dy136 2.326 . S
O147 C154 1.267 . S
O148 C137 1.185 . S
O148 Dy139 2.398 . S
O149 C137 1.355 . S
O149 Dy139 2.491 . S
O150 Dy139 2.403 . S
O150 C145 1.254 . S
O151 Dy136 2.310 . S
O151 Dy139 2.664 . S
O151 C145 1.268 . S
O152 Dy136 2.351 . S
O152 C155 1.249 . S
O153 Dy139 2.326 . S
O153 C155 1.267 . S
C154 O146 1.249 . S
C154 O147 1.267 . S
C155 O152 1.249 . S
C155 O153 1.267 . S
Dy156 O160 2.398 . S
Dy156 O161 2.491 . S
Dy156 O162 2.403 . S
Dy156 O163 2.664 1_655 S
Dy156 O167 2.326 . S
Dy156 O171 2.310 . S
Dy156 O172 2.351 1_655 S
C157 O168 1.185 . S
C157 O169 1.355 . S
C158 O160 1.185 . S
C158 O161 1.355 . S
Dy159 O163 2.310 . S
Dy159 O166 2.351 1_455 S
Dy159 O168 2.398 . S
Dy159 O169 2.491 . S
Dy159 O170 2.403 . S
Dy159 O171 2.664 1_455 S
Dy159 O173 2.326 . S
O160 Dy156 2.398 . S
O160 C158 1.185 . S
O161 Dy156 2.491 . S
O161 C158 1.355 . S
O162 Dy156 2.403 . S
O162 C164 1.254 . S
O163 Dy156 2.664 1_455 S
O163 Dy159 2.310 . S
O163 C164 1.268 1_455 S
C164 O162 1.254 . S
C164 O163 1.268 1_655 S
C165 O170 1.254 . S
C165 O171 1.268 1_455 S
O166 Dy159 2.351 1_655 S
O166 C174 1.249 . S
O167 Dy156 2.326 . S
O167 C174 1.267 . S
O168 C157 1.185 . S
O168 Dy159 2.398 . S
O169 C157 1.355 . S
O169 Dy159 2.491 . S
O170 Dy159 2.403 . S
O170 C165 1.254 . S
O171 Dy156 2.310 . S
O171 Dy159 2.664 1_655 S
O171 C165 1.268 1_655 S
O172 Dy156 2.351 1_455 S
O172 C175 1.249 . S
O173 Dy159 2.326 . S
O173 C175 1.267 . S
C174 O166 1.249 . S
C174 O167 1.267 . S
C175 O172 1.249 . S
C175 O173 1.267 . S
H176 C184 0.929 . S
H177 C186 0.930 . S
H178 C188 0.930 . S
H179 C191 0.929 . S
H180 C194 0.930 . S
H181 C196 0.960 1_565 S
H182 C196 0.960 1_565 S
H183 C196 0.960 . S
C184 H176 0.929 . S
C184 C185 1.377 . S
C184 C186 1.384 . S
C185 C184 1.377 . S
C185 C191 1.390 . S
C186 H177 0.930 . S
C186 C184 1.384 . S
C186 C187 1.372 . S
C187 C186 1.372 . S
C187 C188 1.400 . S
C187 C192 1.490 . S
C188 H178 0.930 . S
C188 C187 1.400 . S
C188 C191 1.386 . S
H189 C205 0.930 . S
H190 C206 0.931 . S
C191 H179 0.929 . S
C191 C185 1.390 . S
C191 C188 1.386 . S
C192 C187 1.490 . S
C192 C194 1.395 . S
C192 C195 1.403 . S
H193 C199 0.930 . S
C194 H180 0.930 . S
C194 C192 1.395 . S
C194 C197 1.403 . S
C195 C192 1.403 . S
C195 C196 1.524 . S
C195 C199 1.400 . S
C196 H181 0.960 1_545 S
C196 H182 0.960 1_545 S
C196 H183 0.960 . S
C196 C195 1.524 . S
C197 C194 1.403 . S
C197 C198 1.392 . S
C197 C201 1.495 . S
C198 C197 1.392 . S
C198 C199 1.385 . S
C198 C200 1.478 . S
C199 H193 0.930 . S
C199 C195 1.400 . S
C199 C198 1.385 . S
C200 C198 1.478 . S
C200 C202 1.381 . S
C200 C206 1.383 . S
C201 C197 1.495 . S
C201 H207 0.959 . S
C201 H208 0.961 . S
C201 H209 0.960 . S
C202 C200 1.381 . S
C202 C203 1.394 . S
C202 H210 0.930 . S
C203 C202 1.394 . S
C203 C204 1.383 . S
C203 H211 0.928 . S
C204 C203 1.383 . S
C204 C205 1.377 . S
C205 H189 0.930 . S
C205 C204 1.377 . S
C205 C206 1.379 . S
C206 H190 0.931 . S
C206 C200 1.383 . S
C206 C205 1.379 . S
H207 C201 0.959 . S
H208 C201 0.961 . S
H209 C201 0.960 . S
H210 C202 0.930 . S
H211 C203 0.928 . S
H212 C220 0.929 . S
H213 C222 0.930 . S
H214 C224 0.930 . S
H215 C227 0.929 . S
H216 C230 0.930 . S
H217 C232 0.960 . S
H218 C232 0.960 . S
H219 C232 0.960 . S
C220 H212 0.929 . S
C220 C221 1.377 . S
C220 C222 1.384 . S
C221 C220 1.377 . S
C221 C227 1.390 . S
C222 H213 0.930 . S
C222 C220 1.384 . S
C222 C223 1.372 . S
C223 C222 1.372 . S
C223 C224 1.400 . S
C223 C228 1.490 . S
C224 H214 0.930 . S
C224 C223 1.400 . S
C224 C227 1.386 . S
H225 C241 0.930 . S
H226 C242 0.931 . S
C227 H215 0.929 . S
C227 C221 1.390 . S
C227 C224 1.386 . S
C228 C223 1.490 . S
C228 C230 1.395 . S
C228 C231 1.403 . S
H229 C235 0.930 . S
C230 H216 0.930 . S
C230 C228 1.395 . S
C230 C233 1.403 . S
C231 C228 1.403 . S
C231 C232 1.524 . S
C231 C235 1.400 . S
C232 H217 0.960 . S
C232 H218 0.960 . S
C232 H219 0.960 . S
C232 C231 1.524 . S
C233 C230 1.403 . S
C233 C234 1.392 . S
C233 C237 1.495 . S
C234 C233 1.392 . S
C234 C235 1.385 . S
C234 C236 1.478 . S
C235 H229 0.930 . S
C235 C231 1.400 . S
C235 C234 1.385 . S
C236 C234 1.478 . S
C236 C238 1.381 . S
C236 C242 1.383 . S
C237 C233 1.495 . S
C237 H243 0.959 . S
C237 H244 0.961 . S
C237 H245 0.960 . S
C238 C236 1.381 . S
C238 C239 1.394 . S
C238 H246 0.930 . S
C239 C238 1.394 . S
C239 C240 1.383 . S
C239 H247 0.929 . S
C240 C239 1.383 . S
C240 C241 1.377 . S
C241 H225 0.930 . S
C241 C240 1.377 . S
C241 C242 1.379 . S
C242 H226 0.931 . S
C242 C236 1.383 . S
C242 C241 1.379 . S
H243 C237 0.959 . S
H244 C237 0.961 . S
H245 C237 0.960 . S
H246 C238 0.930 . S
H247 C239 0.929 . S
H248 C256 0.929 . S
H249 C258 0.930 . S
H250 C260 0.930 . S
H251 C263 0.929 . S
H252 C266 0.930 . S
H253 C268 0.960 . S
H254 C268 0.960 . S
H255 C268 0.960 . S
C256 H248 0.929 . S
C256 C257 1.377 . S
C256 C258 1.384 . S
C257 C256 1.377 . S
C257 C263 1.390 . S
C258 H249 0.930 . S
C258 C256 1.384 . S
C258 C259 1.372 . S
C259 C258 1.372 . S
C259 C260 1.400 . S
C259 C264 1.490 . S
C260 H250 0.930 . S
C260 C259 1.400 . S
C260 C263 1.386 . S
H261 C277 0.930 . S
H262 C278 0.931 . S
C263 H251 0.929 . S
C263 C257 1.390 . S
C263 C260 1.386 . S
C264 C259 1.490 . S
C264 C266 1.395 . S
C264 C267 1.403 . S
H265 C271 0.930 . S
C266 H252 0.930 . S
C266 C264 1.395 . S
C266 C269 1.403 . S
C267 C264 1.403 . S
C267 C268 1.524 . S
C267 C271 1.400 . S
C268 H253 0.960 . S
C268 H254 0.960 . S
C268 H255 0.960 . S
C268 C267 1.524 . S
C269 C266 1.403 . S
C269 C270 1.392 . S
C269 C273 1.495 . S
C270 C269 1.392 . S
C270 C271 1.385 . S
C270 C272 1.478 . S
C271 H265 0.930 . S
C271 C267 1.400 . S
C271 C270 1.385 . S
C272 C270 1.478 . S
C272 C274 1.381 . S
C272 C278 1.383 . S
C273 C269 1.495 . S
C273 H279 0.959 . S
C273 H280 0.961 . S
C273 H281 0.960 . S
C274 C272 1.381 . S
C274 C275 1.394 . S
C274 H282 0.930 . S
C275 C274 1.394 . S
C275 C276 1.383 . S
C275 H283 0.929 . S
C276 C275 1.383 . S
C276 C277 1.377 . S
C277 H261 0.930 . S
C277 C276 1.377 . S
C277 C278 1.379 . S
C278 H262 0.931 . S
C278 C272 1.383 . S
C278 C277 1.379 . S
H279 C273 0.959 . S
H280 C273 0.961 . S
H281 C273 0.960 . S
H282 C274 0.930 . S
H283 C275 0.929 . S
H284 C292 0.929 . S
H285 C294 0.930 . S
H286 C296 0.930 . S
H287 C299 0.929 . S
H288 C302 0.930 . S
H289 C304 0.960 . S
H290 C304 0.923 1_655 S
H291 C304 0.998 . S
C292 H284 0.929 . S
C292 C293 1.384 . S
C292 C294 1.384 . S
C293 C292 1.384 . S
C293 C299 1.383 1_655 S
C294 H285 0.930 . S
C294 C292 1.384 . S
C294 C295 1.372 . S
C295 C294 1.372 . S
C295 C296 1.400 1_655 S
C295 C300 1.490 . S
C296 H286 0.930 . S
C296 C295 1.400 1_455 S
C296 C299 1.386 . S
H297 C313 0.930 . S
H298 C314 0.931 . S
C299 H287 0.929 . S
C299 C293 1.383 1_455 S
C299 C296 1.386 . S
C300 C295 1.490 . S
C300 C302 1.395 . S
C300 C303 1.403 . S
H301 C307 0.930 . S
C302 H288 0.930 . S
C302 C300 1.395 . S
C302 C305 1.403 . S
C303 C300 1.403 . S
C303 C304 1.525 1_655 S
C303 C307 1.400 1_655 S
C304 H289 0.960 . S
C304 H290 0.923 1_455 S
C304 H291 0.998 . S
C304 C303 1.525 1_455 S
C305 C302 1.403 . S
C305 C306 1.392 . S
C305 C309 1.495 . S
C306 C305 1.392 . S
C306 C307 1.385 1_655 S
C306 C308 1.478 . S
C307 H301 0.930 . S
C307 C303 1.400 1_455 S
C307 C306 1.385 1_455 S
C308 C306 1.478 . S
C308 C310 1.381 . S
C308 C314 1.383 1_655 S
C309 C305 1.495 . S
C309 H315 0.959 . S
C309 H316 0.961 1_655 S
C309 H317 0.960 . S
C310 C308 1.381 . S
C310 C311 1.394 . S
C310 H318 0.930 . S
C311 C310 1.394 . S
C311 C312 1.429 . S
C311 H319 0.929 . S
C312 C311 1.429 . S
C312 C313 1.329 1_655 S
C313 H297 0.930 . S
C313 C312 1.329 1_455 S
C313 C314 1.379 . S
C314 H298 0.931 . S
C314 C308 1.383 1_455 S
C314 C313 1.379 . S
H315 C309 0.959 . S
H316 C309 0.961 1_455 S
H317 C309 0.960 . S
H318 C310 0.930 . S
H319 C311 0.929 . S
H320 C328 0.929 . S
H321 C330 0.930 . S
H322 C332 0.930 . S
H323 C335 0.929 1_554 S
H324 C338 0.930 . S
H325 C340 0.960 . S
H326 C340 0.960 . S
H327 C340 0.960 . S
C328 H320 0.929 . S
C328 C329 1.377 . S
C328 C330 1.384 . S
C329 C328 1.377 . S
C329 C335 1.390 . S
C330 H321 0.930 . S
C330 C328 1.384 . S
C330 C331 1.372 . S
C331 C330 1.372 . S
C331 C332 1.400 . S
C331 C336 1.490 . S
C332 H322 0.930 . S
C332 C331 1.400 . S
C332 C335 1.386 . S
H333 C349 0.954 . S
H334 C350 0.931 1_545 S
C335 H323 0.929 1_556 S
C335 C329 1.390 . S
C335 C332 1.386 . S
C336 C331 1.490 . S
C336 C338 1.395 . S
C336 C339 1.403 . S
H337 C343 0.930 . S
C338 H324 0.930 . S
C338 C336 1.395 . S
C338 C341 1.403 . S
C339 C336 1.403 . S
C339 C340 1.524 . S
C339 C343 1.400 . S
C340 H325 0.960 . S
C340 H326 0.960 . S
C340 H327 0.960 . S
C340 C339 1.524 . S
C341 C338 1.403 . S
C341 C342 1.392 . S
C341 C345 1.495 . S
C342 C341 1.392 . S
C342 C343 1.385 . S
C342 C344 1.478 . S
C343 H337 0.930 . S
C343 C339 1.400 . S
C343 C342 1.385 . S
C344 C342 1.478 . S
C344 C346 1.381 . S
C344 C350 1.383 . S
C345 C341 1.495 . S
C345 H351 0.959 . S
C345 H352 0.961 1_565 S
C345 H353 0.960 . S
C346 C344 1.381 . S
C346 C347 1.394 . S
C346 H354 0.930 . S
C347 C346 1.394 . S
C347 C348 1.383 . S
C347 H355 0.929 . S
C348 C347 1.383 . S
C348 C349 1.358 1_565 S
C349 H333 0.954 . S
C349 C348 1.358 1_545 S
C349 C350 1.376 1_545 S
C350 H334 0.931 1_565 S
C350 C344 1.383 . S
C350 C349 1.376 1_565 S
H351 C345 0.959 . S
H352 C345 0.961 1_545 S
H353 C345 0.960 . S
H354 C346 0.930 . S
H355 C347 0.929 . S
H356 C364 0.929 . S
H357 C366 0.930 . S
H358 C368 0.930 . S
H359 C371 0.929 . S
H360 C374 0.930 . S
H361 C376 0.960 . S
H362 C376 0.960 . S
H363 C376 0.960 . S
C364 H356 0.929 . S
C364 C365 1.377 . S
C364 C366 1.384 . S
C365 C364 1.377 . S
C365 C371 1.390 1_554 S
C366 H357 0.930 . S
C366 C364 1.384 . S
C366 C367 1.372 1_554 S
C367 C366 1.372 1_556 S
C367 C368 1.400 . S
C367 C372 1.490 . S
C368 H358 0.930 . S
C368 C367 1.400 . S
C368 C371 1.386 . S
H369 C385 0.930 . S
H370 C386 0.931 . S
C371 H359 0.929 . S
C371 C365 1.390 1_556 S
C371 C368 1.386 . S
C372 C367 1.490 . S
C372 C374 1.395 . S
C372 C375 1.403 . S
H373 C379 0.930 . S
C374 H360 0.930 . S
C374 C372 1.395 . S
C374 C377 1.403 . S
C375 C372 1.403 . S
C375 C376 1.524 . S
C375 C379 1.400 . S
C376 H361 0.960 . S
C376 H362 0.960 . S
C376 H363 0.960 . S
C376 C375 1.524 . S
C377 C374 1.403 . S
C377 C378 1.392 . S
C377 C381 1.495 . S
C378 C377 1.392 . S
C378 C379 1.385 . S
C378 C380 1.478 . S
C379 H373 0.930 . S
C379 C375 1.400 . S
C379 C378 1.385 . S
C380 C378 1.478 . S
C380 C382 1.381 . S
C380 C386 1.383 . S
C381 C377 1.495 . S
C381 H387 0.959 . S
C381 H388 0.961 . S
C381 H389 0.960 . S
C382 C380 1.381 . S
C382 C383 1.394 . S
C382 H390 0.930 . S
C383 C382 1.394 . S
C383 C384 1.383 . S
C383 H391 0.929 . S
C384 C383 1.383 . S
C384 C385 1.377 . S
C385 H369 0.930 . S
C385 C384 1.377 . S
C385 C386 1.379 . S
C386 H370 0.931 . S
C386 C380 1.383 . S
C386 C385 1.379 . S
H387 C381 0.959 . S
H388 C381 0.961 . S
H389 C381 0.960 . S
H390 C382 0.930 . S
H391 C383 0.929 . S
H392 C400 0.929 . S
H393 C402 0.930 . S
H394 C404 0.930 . S
H395 C407 0.929 1_554 S
H396 C410 0.930 . S
H397 C412 0.960 . S
H398 C412 0.960 . S
H399 C412 0.960 . S
C400 H392 0.929 . S
C400 C401 1.377 . S
C400 C402 1.384 . S
C401 C400 1.377 . S
C401 C407 1.390 . S
C402 H393 0.930 . S
C402 C400 1.384 . S
C402 C403 1.372 . S
C403 C402 1.372 . S
C403 C404 1.400 . S
C403 C408 1.490 . S
C404 H394 0.930 . S
C404 C403 1.400 . S
C404 C407 1.386 . S
H405 C421 0.930 . S
H406 C422 0.931 . S
C407 H395 0.929 1_556 S
C407 C401 1.390 . S
C407 C404 1.386 . S
C408 C403 1.490 . S
C408 C410 1.395 . S
C408 C411 1.403 . S
H409 C415 0.930 . S
C410 H396 0.930 . S
C410 C408 1.395 . S
C410 C413 1.403 . S
C411 C408 1.403 . S
C411 C412 1.524 . S
C411 C415 1.400 . S
C412 H397 0.960 . S
C412 H398 0.960 . S
C412 H399 0.960 . S
C412 C411 1.524 . S
C413 C410 1.403 . S
C413 C414 1.392 . S
C413 C417 1.495 . S
C414 C413 1.392 . S
C414 C415 1.385 . S
C414 C416 1.478 . S
C415 H409 0.930 . S
C415 C411 1.400 . S
C415 C414 1.385 . S
C416 C414 1.478 . S
C416 C418 1.381 . S
C416 C422 1.383 . S
C417 C413 1.495 . S
C417 H423 0.959 . S
C417 H424 0.961 . S
C417 H425 0.960 . S
C418 C416 1.381 . S
C418 C419 1.394 . S
C418 H426 0.930 . S
C419 C418 1.394 . S
C419 C420 1.383 . S
C419 H427 0.929 . S
C420 C419 1.383 . S
C420 C421 1.377 . S
C421 H405 0.930 . S
C421 C420 1.377 . S
C421 C422 1.379 . S
C422 H406 0.931 . S
C422 C416 1.383 . S
C422 C421 1.379 . S
H423 C417 0.959 . S
H424 C417 0.961 . S
H425 C417 0.960 . S
H426 C418 0.930 . S
H427 C419 0.929 . S
H428 C436 0.929 . S
H429 C438 0.930 . S
H430 C440 0.930 . S
H431 C443 0.929 . S
H432 C446 0.930 . S
H433 C448 0.960 . S
H434 C448 0.960 . S
H435 C448 0.960 . S
C436 H428 0.929 . S
C436 C437 1.385 . S
C436 C438 1.384 . S
C437 C436 1.385 . S
C437 C443 1.381 1_655 S
C438 H429 0.930 . S
C438 C436 1.384 . S
C438 C439 1.419 . S
C439 C438 1.419 . S
C439 C440 1.355 1_655 S
C439 C444 1.488 . S
C440 H430 0.930 . S
C440 C439 1.355 1_455 S
C440 C443 1.386 . S
H441 C457 0.930 . S
H442 C458 0.931 . S
C443 H431 0.929 . S
C443 C437 1.381 1_455 S
C443 C440 1.386 . S
C444 C439 1.488 . S
C444 C446 1.395 . S
C444 C447 1.403 1_655 S
H445 C451 0.930 . S
C446 H432 0.930 . S
C446 C444 1.395 . S
C446 C449 1.403 . S
C447 C444 1.403 1_455 S
C447 C448 1.524 . S
C447 C451 1.400 . S
C448 H433 0.960 . S
C448 H434 0.960 . S
C448 H435 0.960 . S
C448 C447 1.524 . S
C449 C446 1.403 . S
C449 C450 1.392 . S
C449 C453 1.495 . S
C450 C449 1.392 . S
C450 C451 1.385 1_655 S
C450 C452 1.478 . S
C451 H445 0.930 . S
C451 C447 1.400 . S
C451 C450 1.385 1_455 S
C452 C450 1.478 . S
C452 C454 1.381 . S
C452 C458 1.383 1_655 S
C453 C449 1.495 . S
C453 H459 0.959 . S
C453 H460 0.961 . S
C453 H461 0.960 . S
C454 C452 1.381 . S
C454 C455 1.394 . S
C454 H462 0.930 . S
C455 C454 1.394 . S
C455 C456 1.367 1_655 S
C455 H463 0.929 . S
C456 C455 1.367 1_455 S
C456 C457 1.391 . S
C457 H441 0.930 . S
C457 C456 1.391 . S
C457 C458 1.379 . S
C458 H442 0.931 . S
C458 C452 1.383 1_455 S
C458 C457 1.379 . S
H459 C453 0.959 . S
H460 C453 0.961 . S
H461 C453 0.960 . S
H462 C454 0.930 . S
H463 C455 0.929 . S
H464 C472 0.929 . S
H465 C474 0.930 . S
H466 C476 0.930 . S
H467 C479 0.929 . S
H468 C482 0.930 . S
H469 C484 0.960 . S
H470 C484 0.960 . S
H471 C484 0.960 . S
C472 H464 0.929 . S
C472 C473 1.373 1_655 S
C472 C474 1.384 . S
C473 C472 1.373 1_455 S
C473 C479 1.394 . S
C474 H465 0.930 . S
C474 C472 1.384 . S
C474 C475 1.372 . S
C475 C474 1.372 . S
C475 C476 1.400 1_655 S
C475 C480 1.490 . S
C476 H466 0.930 . S
C476 C475 1.400 1_455 S
C476 C479 1.386 . S
H477 C493 0.960 . S
H478 C494 0.954 . S
C479 H467 0.929 . S
C479 C473 1.394 . S
C479 C476 1.386 . S
C480 C475 1.490 . S
C480 C482 1.395 . S
C480 C483 1.403 1_655 S
H481 C487 0.930 . S
C482 H468 0.930 . S
C482 C480 1.395 . S
C482 C485 1.403 . S
C483 C480 1.403 1_455 S
C483 C484 1.524 . S
C483 C487 1.400 . S
C484 H469 0.960 . S
C484 H470 0.960 . S
C484 H471 0.960 . S
C484 C483 1.524 . S
C485 C482 1.403 . S
C485 C486 1.392 . S
C485 C489 1.495 . S
C486 C485 1.392 . S
C486 C487 1.385 1_655 S
C486 C488 1.478 . S
C487 H481 0.930 . S
C487 C483 1.400 . S
C487 C486 1.385 1_455 S
C488 C486 1.478 . S
C488 C490 1.381 . S
C488 C494 1.356 1_655 S
C489 C485 1.495 . S
C489 H495 0.959 . S
C489 H496 0.961 . S
C489 H497 0.960 . S
C490 C488 1.381 . S
C490 C491 1.394 . S
C490 H498 0.930 . S
C491 C490 1.394 . S
C491 C492 1.383 . S
C491 H499 0.929 . S
C492 C491 1.383 . S
C492 C493 1.352 1_655 S
C493 H477 0.960 . S
C493 C492 1.352 1_455 S
C493 C494 1.379 . S
C494 H478 0.954 . S
C494 C488 1.356 1_455 S
C494 C493 1.379 . S
H495 C489 0.959 . S
H496 C489 0.961 . S
H497 C489 0.960 . S
H498 C490 0.930 . S
H499 C491 0.929 . S
H500 C508 0.929 . S
H501 C510 0.930 . S
H502 C512 0.930 . S
H503 C515 0.929 . S
H504 C518 0.930 . S
H505 C520 0.960 . S
H506 C520 0.960 . S
H507 C520 0.960 . S
C508 H500 0.929 . S
C508 C509 1.377 . S
C508 C510 1.384 . S
C509 C508 1.377 . S
C509 C515 1.390 . S
C510 H501 0.930 . S
C510 C508 1.384 . S
C510 C511 1.372 . S
C511 C510 1.372 . S
C511 C512 1.400 . S
C511 C516 1.490 . S
C512 H502 0.930 . S
C512 C511 1.400 . S
C512 C515 1.386 . S
H513 C529 0.930 . S
H514 C530 0.931 . S
C515 H503 0.929 . S
C515 C509 1.390 . S
C515 C512 1.386 . S
C516 C511 1.490 . S
C516 C518 1.395 . S
C516 C519 1.403 . S
H517 C523 0.930 . S
C518 H504 0.930 . S
C518 C516 1.395 . S
C518 C521 1.403 . S
C519 C516 1.403 . S
C519 C520 1.524 . S
C519 C523 1.400 . S
C520 H505 0.960 . S
C520 H506 0.960 . S
C520 H507 0.960 . S
C520 C519 1.524 . S
C521 C518 1.403 . S
C521 C522 1.392 . S
C521 C525 1.495 . S
C522 C521 1.392 . S
C522 C523 1.385 . S
C522 C524 1.478 . S
C523 H517 0.930 . S
C523 C519 1.400 . S
C523 C522 1.385 . S
C524 C522 1.478 . S
C524 C526 1.381 . S
C524 C530 1.383 1_545 S
C525 C521 1.495 . S
C525 H531 0.959 . S
C525 H532 0.961 . S
C525 H533 0.960 . S
C526 C524 1.381 . S
C526 C527 1.394 . S
C526 H534 0.930 . S
C527 C526 1.394 . S
C527 C528 1.383 . S
C527 H535 0.929 . S
C528 C527 1.383 . S
C528 C529 1.377 1_545 S
C529 H513 0.930 . S
C529 C528 1.377 1_565 S
C529 C530 1.379 . S
C530 H514 0.931 . S
C530 C524 1.383 1_565 S
C530 C529 1.379 . S
H531 C525 0.959 . S
H532 C525 0.961 . S
H533 C525 0.960 . S
H534 C526 0.930 . S
H535 C527 0.929 . S
H536 C544 0.929 . S
H537 C546 0.930 . S
H538 C548 0.930 . S
H539 C551 0.929 . S
H540 C554 0.930 . S
H541 C556 0.960 . S
H542 C556 0.960 . S
H543 C556 0.960 . S
C544 H536 0.929 . S
C544 C545 1.377 . S
C544 C546 1.384 . S
C545 C544 1.377 . S
C545 C551 1.390 . S
C546 H537 0.930 . S
C546 C544 1.384 . S
C546 C547 1.372 . S
C547 C546 1.372 . S
C547 C548 1.400 . S
C547 C552 1.490 . S
C548 H538 0.930 . S
C548 C547 1.400 . S
C548 C551 1.386 . S
H549 C565 0.930 . S
H550 C566 0.931 . S
C551 H539 0.929 . S
C551 C545 1.390 . S
C551 C548 1.386 . S
C552 C547 1.490 . S
C552 C554 1.395 . S
C552 C555 1.403 . S
H553 C559 0.930 . S
C554 H540 0.930 . S
C554 C552 1.395 . S
C554 C557 1.403 . S
C555 C552 1.403 . S
C555 C556 1.524 . S
C555 C559 1.400 . S
C556 H541 0.960 . S
C556 H542 0.960 . S
C556 H543 0.960 . S
C556 C555 1.524 . S
C557 C554 1.403 . S
C557 C558 1.392 . S
C557 C561 1.495 . S
C558 C557 1.392 . S
C558 C559 1.385 . S
C558 C560 1.478 . S
C559 H553 0.930 . S
C559 C555 1.400 . S
C559 C558 1.385 . S
C560 C558 1.478 . S
C560 C562 1.381 . S
C560 C566 1.383 . S
C561 C557 1.495 . S
C561 H567 0.959 . S
C561 H568 0.961 . S
C561 H569 0.960 . S
C562 C560 1.381 . S
C562 C563 1.394 . S
C562 H570 0.930 . S
C563 C562 1.394 . S
C563 C564 1.383 . S
C563 H571 0.929 . S
C564 C563 1.383 . S
C564 C565 1.377 . S
C565 H549 0.930 . S
C565 C564 1.377 . S
C565 C566 1.379 . S
C566 H550 0.931 . S
C566 C560 1.383 . S
C566 C565 1.379 . S
H567 C561 0.959 . S
H568 C561 0.961 . S
H569 C561 0.960 . S
H570 C562 0.930 . S
H571 C563 0.929 . S
H572 C580 0.929 . S
H573 C582 0.930 . S
H574 C584 0.930 . S
H575 C587 0.929 . S
H576 C590 0.930 . S
H577 C592 0.960 . S
H578 C592 0.960 . S
H579 C592 0.960 . S
C580 H572 0.929 . S
C580 C581 1.377 . S
C580 C582 1.384 . S
C581 C580 1.377 . S
C581 C587 1.390 . S
C582 H573 0.930 . S
C582 C580 1.384 . S
C582 C583 1.372 . S
C583 C582 1.372 . S
C583 C584 1.400 . S
C583 C588 1.490 . S
C584 H574 0.930 . S
C584 C583 1.400 . S
C584 C587 1.386 . S
H585 C601 0.930 . S
H586 C602 0.931 . S
C587 H575 0.929 . S
C587 C581 1.390 . S
C587 C584 1.386 . S
C588 C583 1.490 . S
C588 C590 1.395 . S
C588 C591 1.403 . S
H589 C595 0.930 . S
C590 H576 0.930 . S
C590 C588 1.395 . S
C590 C593 1.403 . S
C591 C588 1.403 . S
C591 C592 1.524 . S
C591 C595 1.400 . S
C592 H577 0.960 . S
C592 H578 0.960 . S
C592 H579 0.960 . S
C592 C591 1.524 . S
C593 C590 1.403 . S
C593 C594 1.392 . S
C593 C597 1.495 . S
C594 C593 1.392 . S
C594 C595 1.385 . S
C594 C596 1.478 . S
C595 H589 0.930 . S
C595 C591 1.400 . S
C595 C594 1.385 . S
C596 C594 1.478 . S
C596 C598 1.381 . S
C596 C602 1.383 . S
C597 C593 1.495 . S
C597 H603 0.959 . S
C597 H604 0.961 . S
C597 H605 0.960 . S
C598 C596 1.381 . S
C598 C599 1.394 . S
C598 H606 0.930 . S
C599 C598 1.394 . S
C599 C600 1.383 . S
C599 H607 0.929 . S
C600 C599 1.383 . S
C600 C601 1.377 . S
C601 H585 0.930 . S
C601 C600 1.377 . S
C601 C602 1.379 . S
C602 H586 0.931 . S
C602 C596 1.383 . S
C602 C601 1.379 . S
H603 C597 0.959 . S
H604 C597 0.961 . S
H605 C597 0.960 . S
H606 C598 0.930 . S
H607 C599 0.929 . S
H608 C616 0.929 . S
H609 C618 0.930 . S
H610 C620 0.928 1_655 S
H611 C623 0.929 . S
H612 C626 0.930 . S
H613 C628 0.960 . S
H614 C628 0.960 . S
H615 C628 0.960 . S
C616 H608 0.929 . S
C616 C617 1.377 . S
C616 C618 1.384 . S
C617 C616 1.377 . S
C617 C623 1.390 1_456 S
C618 H609 0.930 . S
C618 C616 1.384 . S
C618 C619 1.372 . S
C619 C618 1.372 . S
C619 C620 1.401 . S
C619 C624 1.490 . S
C620 H610 0.928 1_455 S
C620 C619 1.401 . S
C620 C623 1.386 1_456 S
H621 C637 0.930 . S
H622 C638 0.931 1_655 S
C623 H611 0.929 . S
C623 C617 1.390 1_654 S
C623 C620 1.386 1_654 S
C624 C619 1.490 . S
C624 C626 1.395 1_455 S
C624 C627 1.403 . S
H625 C631 0.930 . S
C626 H612 0.930 . S
C626 C624 1.395 1_655 S
C626 C629 1.403 . S
C627 C624 1.403 . S
C627 C628 1.524 . S
C627 C631 1.400 . S
C628 H613 0.960 . S
C628 H614 0.960 . S
C628 H615 0.960 . S
C628 C627 1.524 . S
C629 C626 1.403 . S
C629 C630 1.392 1_655 S
C629 C633 1.495 . S
C630 C629 1.392 1_455 S
C630 C631 1.385 . S
C630 C632 1.478 . S
C631 H625 0.930 . S
C631 C627 1.400 . S
C631 C630 1.385 . S
C632 C630 1.478 . S
C632 C634 1.381 . S
C632 C638 1.383 . S
C633 C629 1.495 . S
C633 H639 0.959 . S
C633 H640 0.961 . S
C633 H641 0.960 . S
C634 C632 1.381 . S
C634 C635 1.394 . S
C634 H642 0.930 . S
C635 C634 1.394 . S
C635 C636 1.383 . S
C635 H643 0.929 . S
C636 C635 1.383 . S
C636 C637 1.377 . S
C637 H621 0.930 . S
C637 C636 1.377 . S
C637 C638 1.379 . S
C638 H622 0.931 1_455 S
C638 C632 1.383 . S
C638 C637 1.379 . S
H639 C633 0.959 . S
H640 C633 0.961 . S
H641 C633 0.960 . S
H642 C634 0.930 . S
H643 C635 0.929 . S
H644 C652 0.929 1_554 S
H645 C654 0.930 . S
H646 C656 0.930 . S
H647 C659 0.929 . S
H648 C662 0.930 . S
H649 C664 0.960 . S
H650 C664 0.960 . S
H651 C664 0.960 . S
C652 H644 0.929 1_556 S
C652 C653 1.377 . S
C652 C654 1.384 . S
C653 C652 1.377 . S
C653 C659 1.390 . S
C654 H645 0.930 . S
C654 C652 1.384 . S
C654 C655 1.372 . S
C655 C654 1.372 . S
C655 C656 1.400 . S
C655 C660 1.490 . S
C656 H646 0.930 . S
C656 C655 1.400 . S
C656 C659 1.386 . S
H657 C673 0.930 . S
H658 C674 0.931 . S
C659 H647 0.929 . S
C659 C653 1.390 . S
C659 C656 1.386 . S
C660 C655 1.490 . S
C660 C662 1.395 . S
C660 C663 1.403 . S
H661 C667 0.930 . S
C662 H648 0.930 . S
C662 C660 1.395 . S
C662 C665 1.403 . S
C663 C660 1.403 . S
C663 C664 1.524 . S
C663 C667 1.400 . S
C664 H649 0.960 . S
C664 H650 0.960 . S
C664 H651 0.960 . S
C664 C663 1.524 . S
C665 C662 1.403 . S
C665 C666 1.392 . S
C665 C669 1.495 1_565 S
C666 C665 1.392 . S
C666 C667 1.385 . S
C666 C668 1.478 . S
C667 H661 0.930 . S
C667 C663 1.400 . S
C667 C666 1.385 . S
C668 C666 1.478 . S
C668 C670 1.381 1_565 S
C668 C674 1.383 . S
C669 C665 1.495 1_545 S
C669 H675 0.959 . S
C669 H676 0.961 . S
C669 H677 0.960 . S
C670 C668 1.381 1_545 S
C670 C671 1.394 . S
C670 H678 0.930 . S
C671 C670 1.394 . S
C671 C672 1.361 1_545 S
C671 H679 0.929 . S
C672 C671 1.361 1_565 S
C672 C673 1.414 . S
C673 H657 0.930 . S
C673 C672 1.414 . S
C673 C674 1.379 . S
C674 H658 0.931 . S
C674 C668 1.383 . S
C674 C673 1.379 . S
H675 C669 0.959 . S
H676 C669 0.961 . S
H677 C669 0.960 . S
H678 C670 0.930 . S
H679 C671 0.929 . S
H680 C688 0.929 . S
H681 C690 0.930 . S
H682 C692 0.930 . S
H683 C695 0.929 . S
H684 C698 0.930 . S
H685 C700 0.960 . S
H686 C700 0.960 . S
H687 C700 0.960 1_554 S
C688 H680 0.929 . S
C688 C689 1.377 1_556 S
C688 C690 1.384 . S
C689 C688 1.377 1_554 S
C689 C695 1.390 . S
C690 H681 0.930 . S
C690 C688 1.384 . S
C690 C691 1.372 . S
C691 C690 1.372 . S
C691 C692 1.400 1_556 S
C691 C696 1.490 . S
C692 H682 0.930 . S
C692 C691 1.400 1_554 S
C692 C695 1.386 . S
H693 C709 0.930 . S
H694 C710 0.931 . S
C695 H683 0.929 . S
C695 C689 1.390 . S
C695 C692 1.386 . S
C696 C691 1.490 . S
C696 C698 1.395 . S
C696 C699 1.403 . S
H697 C703 0.930 . S
C698 H684 0.930 . S
C698 C696 1.395 . S
C698 C701 1.403 . S
C699 C696 1.403 . S
C699 C700 1.524 . S
C699 C703 1.400 . S
C700 H685 0.960 . S
C700 H686 0.960 . S
C700 H687 0.960 1_556 S
C700 C699 1.524 . S
C701 C698 1.403 . S
C701 C702 1.392 . S
C701 C705 1.495 . S
C702 C701 1.392 . S
C702 C703 1.385 . S
C702 C704 1.478 . S
C703 H697 0.930 . S
C703 C699 1.400 . S
C703 C702 1.385 . S
C704 C702 1.478 . S
C704 C706 1.381 . S
C704 C710 1.383 . S
C705 C701 1.495 . S
C705 H711 0.959 . S
C705 H712 0.961 . S
C705 H713 0.960 . S
C706 C704 1.381 . S
C706 C707 1.394 . S
C706 H714 0.930 . S
C707 C706 1.394 . S
C707 C708 1.383 . S
C707 H715 0.929 . S
C708 C707 1.383 . S
C708 C709 1.377 . S
C709 H693 0.930 . S
C709 C708 1.377 . S
C709 C710 1.379 . S
C710 H694 0.931 . S
C710 C704 1.383 . S
C710 C709 1.379 . S
H711 C705 0.959 . S
H712 C705 0.961 . S
H713 C705 0.960 . S
H714 C706 0.930 . S
H715 C707 0.929 . S
H716 C724 0.929 . S
H717 C726 0.930 . S
H718 C728 0.930 1_554 S
H719 C731 0.929 . S
H720 C734 0.930 . S
H721 C736 0.960 . S
H722 C736 0.960 . S
H723 C736 0.960 . S
C724 H716 0.929 . S
C724 C725 1.377 . S
C724 C726 1.384 . S
C725 C724 1.377 . S
C725 C731 1.390 1_556 S
C726 H717 0.930 . S
C726 C724 1.384 . S
C726 C727 1.372 . S
C727 C726 1.372 . S
C727 C728 1.400 . S
C727 C732 1.490 . S
C728 H718 0.930 1_556 S
C728 C727 1.400 . S
C728 C731 1.386 1_556 S
H729 C745 0.930 . S
H730 C746 0.931 . S
C731 H719 0.929 . S
C731 C725 1.390 1_554 S
C731 C728 1.386 1_554 S
C732 C727 1.490 . S
C732 C734 1.395 . S
C732 C735 1.403 . S
H733 C739 0.930 . S
C734 H720 0.930 . S
C734 C732 1.395 . S
C734 C737 1.403 . S
C735 C732 1.403 . S
C735 C736 1.524 . S
C735 C739 1.400 . S
C736 H721 0.960 . S
C736 H722 0.960 . S
C736 H723 0.960 . S
C736 C735 1.524 . S
C737 C734 1.403 . S
C737 C738 1.392 . S
C737 C741 1.495 . S
C738 C737 1.392 . S
C738 C739 1.385 . S
C738 C740 1.478 . S
C739 H733 0.930 . S
C739 C735 1.400 . S
C739 C738 1.385 . S
C740 C738 1.478 . S
C740 C742 1.381 . S
C740 C746 1.383 . S
C741 C737 1.495 . S
C741 H747 0.959 . S
C741 H748 0.961 . S
C741 H749 0.960 . S
C742 C740 1.381 . S
C742 C743 1.394 . S
C742 H750 0.930 . S
C743 C742 1.394 . S
C743 C744 1.383 . S
C743 H751 0.929 . S
C744 C743 1.383 . S
C744 C745 1.377 . S
C745 H729 0.930 . S
C745 C744 1.377 . S
C745 C746 1.379 . S
C746 H730 0.931 . S
C746 C740 1.383 . S
C746 C745 1.379 . S
H747 C741 0.959 . S
H748 C741 0.961 . S
H749 C741 0.960 . S
H750 C742 0.930 . S
H751 C743 0.929 . S
H752 C760 0.929 . S
H753 C762 0.930 . S
H754 C764 0.930 . S
H755 C767 0.929 . S
H756 C770 0.930 . S
H757 C772 0.960 . S
H758 C772 0.960 . S
H759 C772 0.960 . S
C760 H752 0.929 . S
C760 C761 1.410 1_554 S
C760 C762 1.384 1_554 S
C761 C760 1.410 1_556 S
C761 C767 1.364 1_455 S
C762 H753 0.930 . S
C762 C760 1.384 1_556 S
C762 C763 1.372 . S
C763 C762 1.372 . S
C763 C764 1.400 1_455 S
C763 C768 1.490 . S
C764 H754 0.930 . S
C764 C763 1.400 1_655 S
C764 C767 1.386 . S
H765 C781 0.930 . S
H766 C782 0.931 . S
C767 H755 0.929 . S
C767 C761 1.364 1_655 S
C767 C764 1.386 . S
C768 C763 1.490 . S
C768 C770 1.395 1_455 S
C768 C771 1.403 . S
H769 C775 0.930 . S
C770 H756 0.930 . S
C770 C768 1.395 1_655 S
C770 C773 1.403 . S
C771 C768 1.403 . S
C771 C772 1.524 . S
C771 C775 1.400 . S
C772 H757 0.960 . S
C772 H758 0.960 . S
C772 H759 0.960 . S
C772 C771 1.524 . S
C773 C770 1.403 . S
C773 C774 1.392 1_655 S
C773 C777 1.495 . S
C774 C773 1.392 1_455 S
C774 C775 1.385 . S
C774 C776 1.478 . S
C775 H769 0.930 . S
C775 C771 1.400 . S
C775 C774 1.385 . S
C776 C774 1.478 . S
C776 C778 1.381 . S
C776 C782 1.383 1_455 S
C777 C773 1.495 . S
C777 H783 0.959 . S
C777 H784 0.961 . S
C777 H785 0.928 1_655 S
C778 C776 1.381 . S
C778 C779 1.394 . S
C778 H786 0.930 . S
C779 C778 1.394 . S
C779 C780 1.383 . S
C779 H787 0.929 . S
C780 C779 1.383 . S
C780 C781 1.377 1_455 S
C781 H765 0.930 . S
C781 C780 1.377 1_655 S
C781 C782 1.379 . S
C782 H766 0.931 . S
C782 C776 1.383 1_655 S
C782 C781 1.379 . S
H783 C777 0.959 . S
H784 C777 0.961 . S
H785 C777 0.928 1_455 S
H786 C778 0.930 . S
H787 C779 0.929 . S
H788 C796 0.929 . S
H789 C798 0.930 . S
H790 C800 0.930 1_554 S
H791 C803 0.929 . S
H792 C806 0.930 . S
H793 C808 1.005 . S
H794 C808 0.943 1_545 S
H795 C808 0.975 . S
C796 H788 0.929 . S
C796 C797 1.377 1_556 S
C796 C798 1.384 . S
C797 C796 1.377 1_554 S
C797 C803 1.390 . S
C798 H789 0.930 . S
C798 C796 1.384 . S
C798 C799 1.372 . S
C799 C798 1.372 . S
C799 C800 1.400 . S
C799 C804 1.490 . S
C800 H790 0.930 1_556 S
C800 C799 1.400 . S
C800 C803 1.386 1_556 S
H801 C817 0.930 1_565 S
H802 C818 0.931 . S
C803 H791 0.929 . S
C803 C797 1.390 . S
C803 C800 1.386 1_554 S
C804 C799 1.490 . S
C804 C806 1.395 . S
C804 C807 1.403 . S
H805 C811 0.930 . S
C806 H792 0.930 . S
C806 C804 1.395 . S
C806 C809 1.403 . S
C807 C804 1.403 . S
C807 C808 1.485 1_545 S
C807 C811 1.400 . S
C808 H793 1.005 . S
C808 H794 0.943 1_565 S
C808 H795 0.975 . S
C808 C807 1.485 1_565 S
C809 C806 1.403 . S
C809 C810 1.392 . S
C809 C813 1.495 . S
C810 C809 1.392 . S
C810 C811 1.385 . S
C810 C812 1.478 . S
C811 H805 0.930 . S
C811 C807 1.400 . S
C811 C810 1.385 . S
C812 C810 1.478 . S
C812 C814 1.381 . S
C812 C818 1.383 . S
C813 C809 1.495 . S
C813 H819 0.959 . S
C813 H820 0.961 . S
C813 H821 0.960 . S
C814 C812 1.381 . S
C814 C815 1.394 . S
C814 H822 0.930 . S
C815 C814 1.394 . S
C815 C816 1.383 . S
C815 H823 0.929 . S
C816 C815 1.383 . S
C816 C817 1.377 . S
C817 H801 0.930 1_545 S
C817 C816 1.377 . S
C817 C818 1.379 . S
C818 H802 0.931 . S
C818 C812 1.383 . S
C818 C817 1.379 . S
H819 C813 0.959 . S
H820 C813 0.961 . S
H821 C813 0.960 . S
H822 C814 0.930 . S
H823 C815 0.929 . S
H824 C832 0.929 . S
H825 C834 0.930 . S
H826 C836 0.930 . S
H827 C839 0.929 . S
H828 C842 0.930 . S
H829 C844 0.960 . S
H830 C844 0.960 . S
H831 C844 0.960 . S
C832 H824 0.929 . S
C832 C833 1.377 . S
C832 C834 1.384 . S
C833 C832 1.377 . S
C833 C839 1.390 . S
C834 H825 0.930 . S
C834 C832 1.384 . S
C834 C835 1.372 . S
C835 C834 1.372 . S
C835 C836 1.400 . S
C835 C840 1.490 . S
C836 H826 0.930 . S
C836 C835 1.400 . S
C836 C839 1.386 . S
H837 C853 0.930 . S
H838 C854 0.931 . S
C839 H827 0.929 . S
C839 C833 1.390 . S
C839 C836 1.386 . S
C840 C835 1.490 . S
C840 C842 1.395 . S
C840 C843 1.403 . S
H841 C847 0.930 . S
C842 H828 0.930 . S
C842 C840 1.395 . S
C842 C845 1.403 . S
C843 C840 1.403 . S
C843 C844 1.524 . S
C843 C847 1.400 . S
C844 H829 0.960 . S
C844 H830 0.960 . S
C844 H831 0.960 . S
C844 C843 1.524 . S
C845 C842 1.403 . S
C845 C846 1.392 . S
C845 C849 1.495 . S
C846 C845 1.392 . S
C846 C847 1.385 . S
C846 C848 1.478 . S
C847 H841 0.930 . S
C847 C843 1.400 . S
C847 C846 1.385 . S
C848 C846 1.478 . S
C848 C850 1.381 . S
C848 C854 1.383 . S
C849 C845 1.495 . S
C849 H855 0.959 . S
C849 H856 0.961 . S
C849 H857 0.960 . S
C850 C848 1.381 . S
C850 C851 1.394 . S
C850 H858 0.930 . S
C851 C850 1.394 . S
C851 C852 1.383 . S
C851 H859 0.929 . S
C852 C851 1.383 . S
C852 C853 1.377 . S
C853 H837 0.930 . S
C853 C852 1.377 . S
C853 C854 1.379 . S
C854 H838 0.931 . S
C854 C848 1.383 . S
C854 C853 1.379 . S
H855 C849 0.959 . S
H856 C849 0.961 . S
H857 C849 0.960 . S
H858 C850 0.930 . S
H859 C851 0.929 . S
H860 C868 0.929 . S
H861 C870 0.930 . S
H862 C872 0.930 . S
H863 C875 0.929 . S
H864 C878 0.930 . S
H865 C880 0.960 . S
H866 C880 0.960 . S
H867 C880 0.960 . S
C868 H860 0.929 . S
C868 C869 1.377 . S
C868 C870 1.384 . S
C869 C868 1.377 . S
C869 C875 1.390 . S
C870 H861 0.930 . S
C870 C868 1.384 . S
C870 C871 1.372 . S
C871 C870 1.372 . S
C871 C872 1.400 . S
C871 C876 1.490 . S
C872 H862 0.930 . S
C872 C871 1.400 . S
C872 C875 1.386 . S
H873 C889 0.930 . S
H874 C890 0.931 . S
C875 H863 0.929 . S
C875 C869 1.390 . S
C875 C872 1.386 . S
C876 C871 1.490 . S
C876 C878 1.395 . S
C876 C879 1.403 . S
H877 C883 0.930 . S
C878 H864 0.930 . S
C878 C876 1.395 . S
C878 C881 1.403 . S
C879 C876 1.403 . S
C879 C880 1.524 . S
C879 C883 1.400 . S
C880 H865 0.960 . S
C880 H866 0.960 . S
C880 H867 0.960 . S
C880 C879 1.524 . S
C881 C878 1.403 . S
C881 C882 1.392 . S
C881 C885 1.495 . S
C882 C881 1.392 . S
C882 C883 1.385 . S
C882 C884 1.478 . S
C883 H877 0.930 . S
C883 C879 1.400 . S
C883 C882 1.385 . S
C884 C882 1.478 . S
C884 C886 1.381 . S
C884 C890 1.383 . S
C885 C881 1.495 . S
C885 H891 0.959 . S
C885 H892 0.961 . S
C885 H893 0.960 . S
C886 C884 1.381 . S
C886 C887 1.394 . S
C886 H894 0.930 . S
C887 C886 1.394 . S
C887 C888 1.383 . S
C887 H895 0.929 . S
C888 C887 1.383 . S
C888 C889 1.377 . S
C889 H873 0.930 . S
C889 C888 1.377 . S
C889 C890 1.379 . S
C890 H874 0.931 . S
C890 C884 1.383 . S
C890 C889 1.379 . S
H891 C885 0.959 . S
H892 C885 0.961 . S
H893 C885 0.960 . S
H894 C886 0.930 . S
H895 C887 0.929 . S
H896 C904 0.929 . S
H897 C906 0.930 . S
H898 C908 0.930 . S
H899 C911 0.929 . S
H900 C914 0.930 . S
H901 C916 0.960 . S
H902 C916 0.960 . S
H903 C916 0.960 . S
C904 H896 0.929 . S
C904 C905 1.399 . S
C904 C906 1.384 . S
C905 C904 1.399 . S
C905 C911 1.371 1_655 S
C906 H897 0.930 . S
C906 C904 1.384 . S
C906 C907 1.372 . S
C907 C906 1.372 . S
C907 C908 1.400 1_655 S
C907 C912 1.490 . S
C908 H898 0.930 . S
C908 C907 1.400 1_455 S
C908 C911 1.386 . S
H909 C925 0.930 . S
H910 C926 0.931 . S
C911 H899 0.929 . S
C911 C905 1.371 1_455 S
C911 C908 1.386 . S
C912 C907 1.490 . S
C912 C914 1.395 . S
C912 C915 1.403 1_655 S
H913 C919 0.930 . S
C914 H900 0.930 . S
C914 C912 1.395 . S
C914 C917 1.403 . S
C915 C912 1.403 1_455 S
C915 C916 1.524 . S
C915 C919 1.400 . S
C916 H901 0.960 . S
C916 H902 0.960 . S
C916 H903 0.960 . S
C916 C915 1.524 . S
C917 C914 1.403 . S
C917 C918 1.392 . S
C917 C921 1.495 . S
C918 C917 1.392 . S
C918 C919 1.385 1_655 S
C918 C920 1.478 . S
C919 H913 0.930 . S
C919 C915 1.400 . S
C919 C918 1.385 1_455 S
C920 C918 1.478 . S
C920 C922 1.381 . S
C920 C926 1.383 1_655 S
C921 C917 1.495 . S
C921 H927 0.959 . S
C921 H928 0.961 . S
C921 H929 0.960 . S
C922 C920 1.381 . S
C922 C923 1.394 . S
C922 H930 0.930 . S
C923 C922 1.394 . S
C923 C924 1.383 . S
C923 H931 0.929 . S
C924 C923 1.383 . S
C924 C925 1.377 1_655 S
C925 H909 0.930 . S
C925 C924 1.377 1_455 S
C925 C926 1.379 . S
C926 H910 0.931 . S
C926 C920 1.383 1_455 S
C926 C925 1.379 . S
H927 C921 0.959 . S
H928 C921 0.961 . S
H929 C921 0.960 . S
H930 C922 0.930 . S
H931 C923 0.929 . S
H932 C940 0.929 . S
H933 C942 0.930 . S
H934 C944 0.930 . S
H935 C947 0.929 . S
H936 C950 0.930 . S
H937 C952 0.960 . S
H938 C952 0.960 . S
H939 C952 0.966 . S
C940 H932 0.929 . S
C940 C941 1.377 . S
C940 C942 1.384 . S
C941 C940 1.377 . S
C941 C947 1.390 . S
C942 H933 0.930 . S
C942 C940 1.384 . S
C942 C943 1.372 . S
C943 C942 1.372 . S
C943 C944 1.400 . S
C943 C948 1.490 . S
C944 H934 0.930 . S
C944 C943 1.400 . S
C944 C947 1.386 . S
H945 C961 0.930 . S
H946 C962 0.931 . S
C947 H935 0.929 . S
C947 C941 1.390 . S
C947 C944 1.386 . S
C948 C943 1.490 . S
C948 C950 1.395 . S
C948 C951 1.403 . S
H949 C955 0.949 . S
C950 H936 0.930 . S
C950 C948 1.395 . S
C950 C953 1.403 . S
C951 C948 1.403 . S
C951 C952 1.524 1_565 S
C951 C955 1.400 . S
C952 H937 0.960 . S
C952 H938 0.960 . S
C952 H939 0.966 . S
C952 C951 1.524 1_545 S
C953 C950 1.403 . S
C953 C954 1.392 . S
C953 C957 1.495 . S
C954 C953 1.392 . S
C954 C955 1.385 . S
C954 C956 1.478 . S
C955 H949 0.949 . S
C955 C951 1.400 . S
C955 C954 1.385 . S
C956 C954 1.478 . S
C956 C958 1.381 . S
C956 C962 1.383 . S
C957 C953 1.495 . S
C957 H963 0.959 . S
C957 H964 0.961 . S
C957 H965 0.960 . S
C958 C956 1.381 . S
C958 C959 1.394 . S
C958 H966 0.930 . S
C959 C958 1.394 . S
C959 C960 1.383 . S
C959 H967 0.929 . S
C960 C959 1.383 . S
C960 C961 1.377 . S
C961 H945 0.930 . S
C961 C960 1.377 . S
C961 C962 1.379 . S
C962 H946 0.931 . S
C962 C956 1.383 . S
C962 C961 1.379 . S
H963 C957 0.959 . S
H964 C957 0.961 . S
H965 C957 0.960 . S
H966 C958 0.930 . S
H967 C959 0.929 . S
H968 C976 0.929 . S
H969 C978 0.930 . S
H970 C980 0.930 . S
H971 C983 0.929 . S
H972 C986 0.930 . S
H973 C988 0.960 . S
H974 C988 0.960 . S
H975 C988 0.960 . S
C976 H968 0.929 . S
C976 C977 1.377 . S
C976 C978 1.384 . S
C977 C976 1.377 . S
C977 C983 1.390 . S
C978 H969 0.930 . S
C978 C976 1.384 . S
C978 C979 1.372 . S
C979 C978 1.372 . S
C979 C980 1.400 . S
C979 C984 1.490 . S
C980 H970 0.930 . S
C980 C979 1.400 . S
C980 C983 1.386 . S
H981 C997 0.930 . S
H982 C998 0.931 . S
C983 H971 0.929 . S
C983 C977 1.390 . S
C983 C980 1.386 . S
C984 C979 1.490 . S
C984 C986 1.395 . S
C984 C987 1.403 . S
H985 C991 0.930 . S
C986 H972 0.930 . S
C986 C984 1.395 . S
C986 C989 1.403 . S
C987 C984 1.403 . S
C987 C988 1.524 . S
C987 C991 1.400 . S
C988 H973 0.960 . S
C988 H974 0.960 . S
C988 H975 0.960 . S
C988 C987 1.524 . S
C989 C986 1.403 . S
C989 C990 1.392 . S
C989 C993 1.495 . S
C990 C989 1.392 . S
C990 C991 1.385 . S
C990 C992 1.478 . S
C991 H985 0.930 . S
C991 C987 1.400 . S
C991 C990 1.385 . S
C992 C990 1.478 . S
C992 C994 1.381 . S
C992 C998 1.383 . S
C993 C989 1.495 . S
C993 H999 0.959 . S
C993 H1000 0.961 . S
C993 H1001 0.960 . S
C994 C992 1.381 . S
C994 C995 1.394 . S
C994 H1002 0.930 . S
C995 C994 1.394 . S
C995 C996 1.383 . S
C995 H1003 0.929 . S
C996 C995 1.383 . S
C996 C997 1.377 . S
C997 H981 0.930 . S
C997 C996 1.377 . S
C997 C998 1.379 . S
C998 H982 0.931 . S
C998 C992 1.383 . S
C998 C997 1.379 . S
H999 C993 0.959 . S
H1000 C993 0.961 . S
H1001 C993 0.960 . S
H1002 C994 0.930 . S
H1003 C995 0.929 . S
H1004 C1012 0.929 . S
H1005 C1014 0.930 . S
H1006 C1016 0.930 . S
H1007 C1019 0.929 . S
H1008 C1022 0.930 . S
H1009 C1024 0.960 . S
H1010 C1024 0.960 . S
H1011 C1024 0.960 . S
C1012 H1004 0.929 . S
C1012 C1013 1.377 . S
C1012 C1014 1.384 . S
C1013 C1012 1.377 . S
C1013 C1019 1.390 . S
C1014 H1005 0.930 . S
C1014 C1012 1.384 . S
C1014 C1015 1.372 . S
C1015 C1014 1.372 . S
C1015 C1016 1.400 . S
C1015 C1020 1.490 . S
C1016 H1006 0.930 . S
C1016 C1015 1.400 . S
C1016 C1019 1.386 . S
H1017 C1033 0.930 . S
H1018 C1034 0.931 . S
C1019 H1007 0.929 . S
C1019 C1013 1.390 . S
C1019 C1016 1.386 . S
C1020 C1015 1.490 . S
C1020 C1022 1.395 . S
C1020 C1023 1.403 . S
H1021 C1027 0.930 . S
C1022 H1008 0.930 . S
C1022 C1020 1.395 . S
C1022 C1025 1.403 . S
C1023 C1020 1.403 . S
C1023 C1024 1.524 . S
C1023 C1027 1.400 . S
C1024 H1009 0.960 . S
C1024 H1010 0.960 . S
C1024 H1011 0.960 . S
C1024 C1023 1.524 . S
C1025 C1022 1.403 . S
C1025 C1026 1.392 . S
C1025 C1029 1.495 . S
C1026 C1025 1.392 . S
C1026 C1027 1.385 . S
C1026 C1028 1.478 . S
C1027 H1021 0.930 . S
C1027 C1023 1.400 . S
C1027 C1026 1.385 . S
C1028 C1026 1.478 . S
C1028 C1030 1.381 . S
C1028 C1034 1.383 . S
C1029 C1025 1.495 . S
C1029 H1035 0.959 . S
C1029 H1036 0.961 . S
C1029 H1037 0.960 . S
C1030 C1028 1.381 . S
C1030 C1031 1.394 . S
C1030 H1038 0.930 . S
C1031 C1030 1.394 . S
C1031 C1032 1.383 . S
C1031 H1039 0.929 . S
C1032 C1031 1.383 . S
C1032 C1033 1.377 . S
C1033 H1017 0.930 . S
C1033 C1032 1.377 . S
C1033 C1034 1.379 . S
C1034 H1018 0.931 . S
C1034 C1028 1.383 . S
C1034 C1033 1.379 . S
H1035 C1029 0.959 . S
H1036 C1029 0.961 . S
H1037 C1029 0.960 . S
H1038 C1030 0.930 . S
H1039 C1031 0.929 . S
C185 C76 1.667 . S
C204 C104 1.704 . S
C240 C134 1.822 . S
C221 C88 1.765 . S
C276 C144 1.437 . S
C257 C52 1.396 . S
C312 C164 1.293 . S
C293 C64 1.265 . S
C348 C105 1.700 . S
C329 C28 1.687 . S
C365 C40 1.780 . S
C384 C135 1.833 . S
C401 C4 1.398 1_556 S
C420 C145 1.435 . S
C437 C16 1.263 . S
C456 C165 1.294 . S
C492 C97 0.662 . S
C473 C69 0.686 . S
C528 C118 0.212 . S
C509 C81 0.417 . S
C564 C137 0.883 . S
C545 C93 0.863 . S
C581 C57 0.557 . S
C600 C157 0.566 . S
C617 C21 0.677 . S
C636 C98 0.683 . S
C672 C117 0.217 . S
C653 C33 0.416 . S
C708 C138 0.866 . S
C689 C45 0.856 . S
C725 C9 0.560 1_556 S
C744 C158 0.549 . S
C761 C66 1.486 1_556 S
C780 C115 1.538 . S
C797 C78 1.328 . S
C816 C125 1.368 . S
C852 C155 1.772 . S
C833 C90 1.693 . S
C888 C175 1.784 . S
C869 C54 1.705 1_556 S
C905 C18 1.477 1_655 S
C924 C114 1.565 . S
C960 C124 1.369 . S
C941 C30 1.302 . S
C996 C154 1.776 . S
C977 C42 1.692 . S
C1013 C6 1.709 . S
C1032 C174 1.808 . S
