# Generated by pormake.
# Topology nom, (4,4)-cn, num edge types: 1
# Building blocks:
#     Node 0, Type 0, BuildingBlock: NAHDIM_clean_linker_0, # of connection points: 4
#     Node 1, Type 0, BuildingBlock: NAHDIM_clean_linker_0, # of connection points: 4
#     Node 2, Type 0, BuildingBlock: NAHDIM_clean_linker_0, # of connection points: 4
#     Node 3, Type 0, BuildingBlock: NAHDIM_clean_linker_0, # of connection points: 4
#     Node 4, Type 0, BuildingBlock: NAHDIM_clean_linker_0, # of connection points: 4
#     Node 5, Type 0, BuildingBlock: NAHDIM_clean_linker_0, # of connection points: 4
#     Node 6, Type 1, BuildingBlock: TATPOV_clean_sbu_0, # of connection points: 4
#     Node 7, Type 1, BuildingBlock: TATPOV_clean_sbu_0, # of connection points: 4
#     Node 8, Type 1, BuildingBlock: TATPOV_clean_sbu_0, # of connection points: 4
#     Node 9, Type 1, BuildingBlock: TATPOV_clean_sbu_0, # of connection points: 4
#     Node 10, Type 1, BuildingBlock: TATPOV_clean_sbu_0, # of connection points: 4
#     Node 11, Type 1, BuildingBlock: TATPOV_clean_sbu_0, # of connection points: 4
#     Edge 12, Type (0, 1), BuildingBlock: XUDNAN_clean_linker_2, # of connection points: 2
#     Edge 13, Type (0, 1), BuildingBlock: XUDNAN_clean_linker_2, # of connection points: 2
#     Edge 14, Type (0, 1), BuildingBlock: XUDNAN_clean_linker_2, # of connection points: 2
#     Edge 15, Type (0, 1), BuildingBlock: XUDNAN_clean_linker_2, # of connection points: 2
#     Edge 16, Type (0, 1), BuildingBlock: XUDNAN_clean_linker_2, # of connection points: 2
#     Edge 17, Type (0, 1), BuildingBlock: XUDNAN_clean_linker_2, # of connection points: 2
#     Edge 18, Type (0, 1), BuildingBlock: XUDNAN_clean_linker_2, # of connection points: 2
#     Edge 19, Type (0, 1), BuildingBlock: XUDNAN_clean_linker_2, # of connection points: 2
#     Edge 20, Type (0, 1), BuildingBlock: XUDNAN_clean_linker_2, # of connection points: 2
#     Edge 21, Type (0, 1), BuildingBlock: XUDNAN_clean_linker_2, # of connection points: 2
#     Edge 22, Type (0, 1), BuildingBlock: XUDNAN_clean_linker_2, # of connection points: 2
#     Edge 23, Type (0, 1), BuildingBlock: XUDNAN_clean_linker_2, # of connection points: 2
#     Edge 24, Type (0, 1), BuildingBlock: XUDNAN_clean_linker_2, # of connection points: 2
#     Edge 25, Type (0, 1), BuildingBlock: XUDNAN_clean_linker_2, # of connection points: 2
#     Edge 26, Type (0, 1), BuildingBlock: XUDNAN_clean_linker_2, # of connection points: 2
#     Edge 27, Type (0, 1), BuildingBlock: XUDNAN_clean_linker_2, # of connection points: 2
#     Edge 28, Type (0, 1), BuildingBlock: XUDNAN_clean_linker_2, # of connection points: 2
#     Edge 29, Type (0, 1), BuildingBlock: XUDNAN_clean_linker_2, # of connection points: 2
#     Edge 30, Type (0, 1), BuildingBlock: XUDNAN_clean_linker_2, # of connection points: 2
#     Edge 31, Type (0, 1), BuildingBlock: XUDNAN_clean_linker_2, # of connection points: 2
#     Edge 32, Type (0, 1), BuildingBlock: XUDNAN_clean_linker_2, # of connection points: 2
#     Edge 33, Type (0, 1), BuildingBlock: XUDNAN_clean_linker_2, # of connection points: 2
#     Edge 34, Type (0, 1), BuildingBlock: XUDNAN_clean_linker_2, # of connection points: 2
#     Edge 35, Type (0, 1), BuildingBlock: XUDNAN_clean_linker_2, # of connection points: 2
# Relax obj value: 0.066
# Max RMSD: 0.134
# Mean RMSD: 0.125
data_MOF--net-nom--node1-TATPOV_clean_sbu_0--node2-NAHDIM_clean_linker_0--edge1-XUDNAN_clean_linker_2
_symmetry_space_group_name_H-M    P1
_symmetry_Int_Tables_number       1
_symmetry_cell_setting            triclinic
loop_
_symmetry_equiv_pos_as_xyz
'x, y, z'
_cell_length_a     57.176296
_cell_length_b     58.060226
_cell_length_c     69.516203
_cell_angle_alpha  90.6722
_cell_angle_beta   90.626385
_cell_angle_gamma 120.04257
loop_
_atom_site_label
_atom_site_type_symbol
_atom_site_fract_x
_atom_site_fract_y
_atom_site_fract_z
_atom_type_partial_charge
C0 C 0.14316 0.56851 0.21751 0.0
C1 C 0.15392 0.57532 0.23827 0.0
C2 C 0.11398 0.56608 0.25718 0.0
C3 C 0.10639 0.54017 0.26303 0.0
C4 C 0.08169 0.52433 0.27213 0.0
C5 C 0.06397 0.53435 0.27516 0.0
C6 C 0.07136 0.56025 0.26904 0.0
C7 C 0.09648 0.57591 0.26045 0.0
C8 C 0.07468 0.49695 0.2787 0.0
C9 C 0.05278 0.57147 0.27162 0.0
C10 C 0.94294 0.38741 0.21935 0.0
C11 C 0.91459 0.38365 0.2223 0.0
C12 C 0.931 0.41466 0.25001 0.0
C13 C 0.93154 0.43899 0.24977 0.0
C14 C 0.95134 0.46111 0.2603 0.0
C15 C 0.9704 0.45841 0.27177 0.0
C16 C 0.96921 0.43349 0.2726 0.0
C17 C 0.94933 0.41181 0.2618 0.0
C18 C 0.95187 0.48729 0.25929 0.0
C19 C 0.98888 0.42976 0.28496 0.0
C20 C 0.89912 0.46575 0.3879 0.0
C21 C 0.90884 0.48964 0.37816 0.0
C22 C 0.9338 0.5013 0.36899 0.0
C23 C 0.94955 0.48875 0.36968 0.0
C24 C 0.93974 0.46436 0.37928 0.0
C25 C 0.91451 0.45296 0.3882 0.0
C26 C 0.94347 0.52718 0.35869 0.0
C27 C 0.95604 0.45047 0.3802 0.0
C28 C 0.16301 0.64268 0.40123 0.0
C29 C 0.1414 0.61403 0.40538 0.0
C30 C 0.09346 0.59266 0.39654 0.0
C31 C 0.07431 0.59893 0.38969 0.0
C32 C 0.05129 0.58009 0.3793 0.0
C33 C 0.04711 0.55416 0.37615 0.0
C34 C 0.0656 0.54722 0.3841 0.0
C35 C 0.08867 0.56659 0.39416 0.0
C36 C 0.03182 0.58809 0.37127 0.0
C37 C 0.06127 0.51949 0.38161 0.0
C38 C 0.038 0.51798 0.28511 0.0
C39 C 0.01642 0.49752 0.27463 0.0
C40 C 0.99146 0.48144 0.28314 0.0
C41 C 0.98742 0.48646 0.30242 0.0
C42 C 0.96215 0.47164 0.3111 0.0
C43 C 0.9584 0.47677 0.33009 0.0
C44 C 0.97999 0.49637 0.3413 0.0
C45 C 0.9765 0.5016 0.36067 0.0
C46 C 0.99869 0.52036 0.37167 0.0
C47 C 0.02429 0.53476 0.36367 0.0
C48 C 0.02789 0.53073 0.34407 0.0
C49 C 0.0531 0.54572 0.33532 0.0
C50 C 0.05646 0.5416 0.31605 0.0
C51 C 0.03479 0.52227 0.30475 0.0
C52 C 0.00929 0.50671 0.31333 0.0
C53 C 0.00573 0.51125 0.33292 0.0
C54 C 0.87544 0.43878 0.42797 0.0
C55 C 0.86184 0.43371 0.40802 0.0
O56 O 0.13804 0.58252 0.24884 0.0
O57 O 0.1163 0.61226 0.40523 0.0
O58 O 0.87508 0.45619 0.39688 0.0
O59 O 0.91155 0.39345 0.2399 0.0
H60 H 0.1536 0.55766 0.24443 0.0
H61 H 0.12217 0.55138 0.21727 0.0
H62 H 0.14307 0.58575 0.21081 0.0
H63 H 0.15587 0.56293 0.20887 0.0
H64 H 0.11971 0.53221 0.26108 0.0
H65 H 0.10248 0.59591 0.25598 0.0
H66 H 0.05747 0.48172 0.26986 0.0
H67 H 0.09189 0.49327 0.27738 0.0
H68 H 0.0683 0.49429 0.29393 0.0
H69 H 0.05977 0.59025 0.2637 0.0
H70 H 0.03198 0.55678 0.26656 0.0
H71 H 0.05183 0.5756 0.28713 0.0
H72 H 0.90065 0.36175 0.22233 0.0
H73 H 0.94376 0.37905 0.20507 0.0
H74 H 0.95884 0.40875 0.22002 0.0
H75 H 0.94743 0.37655 0.23048 0.0
H76 H 0.91658 0.44066 0.24114 0.0
H77 H 0.94795 0.39255 0.26256 0.0
H78 H 0.97186 0.50294 0.25422 0.0
H79 H 0.93587 0.48623 0.24948 0.0
H80 H 0.94909 0.49343 0.27388 0.0
H81 H 0.98529 0.40912 0.28399 0.0
H82 H 0.00986 0.4437 0.28051 0.0
H83 H 0.98719 0.43453 0.30022 0.0
H84 H 0.86216 0.41669 0.40076 0.0
H85 H 0.89678 0.49927 0.37791 0.0
H86 H 0.90717 0.43427 0.39544 0.0
H87 H 0.94811 0.52497 0.34354 0.0
H88 H 0.92831 0.53382 0.35877 0.0
H89 H 0.96242 0.54292 0.36568 0.0
H90 H 0.94575 0.4317 0.38835 0.0
H91 H 0.95977 0.44581 0.3654 0.0
H92 H 0.97603 0.46387 0.38714 0.0
H93 H 0.14246 0.60146 0.39355 0.0
H94 H 0.18336 0.64462 0.4012 0.0
H95 H 0.15906 0.64833 0.38686 0.0
H96 H 0.16288 0.6567 0.4122 0.0
H97 H 0.07798 0.61899 0.39191 0.0
H98 H 0.10293 0.56134 0.4001 0.0
H99 H 0.0292 0.58417 0.35549 0.0
H100 H 0.01175 0.57589 0.37783 0.0
H101 H 0.03873 0.60944 0.3741 0.0
H102 H 0.07555 0.51635 0.39064 0.0
H103 H 0.04026 0.5045 0.38536 0.0
H104 H 0.06414 0.51598 0.36631 0.0
H105 H 0.01922 0.49379 0.25974 0.0
H106 H 0.94488 0.45611 0.30323 0.0
H107 H 0.93844 0.46493 0.33596 0.0
H108 H 0.99594 0.52402 0.38659 0.0
H109 H 0.07052 0.56092 0.34325 0.0
H110 H 0.07635 0.55371 0.31014 0.0
H111 H 0.87573 0.45603 0.43532 0.0
H112 H 0.86437 0.42092 0.43698 0.0
H113 H 0.89657 0.44308 0.42681 0.0
C114 C 0.43266 0.86976 0.5899 0.0
C115 C 0.42847 0.85678 0.5699 0.0
C116 C 0.43638 0.89316 0.54873 0.0
C117 C 0.46205 0.90017 0.54182 0.0
C118 C 0.47871 0.92533 0.53404 0.0
C119 C 0.46953 0.94386 0.53324 0.0
C120 C 0.44332 0.93652 0.53963 0.0
C121 C 0.42692 0.91106 0.54703 0.0
C122 C 0.50622 0.93223 0.52683 0.0
C123 C 0.4329 0.9558 0.53908 0.0
C124 C 0.61938 0.05161 0.62004 0.0
C125 C 0.60007 0.06045 0.61219 0.0
C126 C 0.58641 0.05692 0.57853 0.0
C127 C 0.56057 0.05361 0.58091 0.0
C128 C 0.54071 0.04167 0.5663 0.0
C129 C 0.54675 0.0325 0.54913 0.0
C130 C 0.57318 0.0368 0.54646 0.0
C131 C 0.59284 0.04952 0.56109 0.0
C132 C 0.51304 0.03812 0.56948 0.0
C133 C 0.5804 0.02685 0.52859 0.0
C134 C 0.56089 0.13446 0.44923 0.0
C135 C 0.53522 0.12324 0.45736 0.0
C136 C 0.52011 0.09583 0.46071 0.0
C137 C 0.53094 0.07936 0.45578 0.0
C138 C 0.55625 0.09046 0.44672 0.0
C139 C 0.57081 0.11792 0.44337 0.0
C140 C 0.49279 0.08453 0.46983 0.0
C141 C 0.56822 0.07341 0.4411 0.0
C142 C 0.38409 0.87888 0.40786 0.0
C143 C 0.41287 0.89702 0.40095 0.0
C144 C 0.43441 0.94391 0.40986 0.0
C145 C 0.42563 0.96068 0.41729 0.0
C146 C 0.44192 0.98146 0.43031 0.0
C147 C 0.46784 0.98581 0.43555 0.0
C148 C 0.47757 0.9701 0.42689 0.0
C149 C 0.46067 0.94919 0.4142 0.0
C150 C 0.43105 0.99801 0.43908 0.0
C151 C 0.50551 0.97484 0.43153 0.0
C152 C 0.48785 0.97136 0.5267 0.0
C153 C 0.50722 0.98933 0.53985 0.0
C154 C 0.52484 0.01575 0.53501 0.0
C155 C 0.52242 0.0249 0.51674 0.0
C156 C 0.5384 0.05175 0.51182 0.0
C157 C 0.53622 0.06038 0.49363 0.0
C158 C 0.51829 0.04237 0.47955 0.0
C159 C 0.51621 0.05081 0.4609 0.0
C160 C 0.49945 0.03209 0.4469 0.0
C161 C 0.48388 0.00512 0.45123 0.0
C162 C 0.48433 0.99661 0.47016 0.0
C163 C 0.46763 0.96991 0.47533 0.0
C164 C 0.46853 0.96164 0.49388 0.0
C165 C 0.48644 0.97964 0.5079 0.0
C166 C 0.50355 0.00661 0.50299 0.0
C167 C 0.50202 0.01522 0.48423 0.0
C168 C 0.60921 0.19235 0.46933 0.0
C169 C 0.58052 0.18018 0.46087 0.0
O170 O 0.42014 0.86932 0.55692 0.0
O171 O 0.41707 0.92255 0.39882 0.0
O172 O 0.57651 0.16113 0.44698 0.0
O173 O 0.60533 0.06657 0.59293 0.0
H174 H 0.44796 0.85867 0.5655 0.0
H175 H 0.44887 0.89096 0.58949 0.0
H176 H 0.41379 0.86887 0.59479 0.0
H177 H 0.43886 0.85951 0.60047 0.0
H178 H 0.46909 0.88602 0.54221 0.0
H179 H 0.40692 0.90529 0.55213 0.0
H180 H 0.52207 0.94767 0.53646 0.0
H181 H 0.50912 0.91468 0.52634 0.0
H182 H 0.50916 0.94062 0.5122 0.0
H183 H 0.41262 0.9475 0.54554 0.0
H184 H 0.44719 0.9745 0.54695 0.0
H185 H 0.43157 0.96099 0.52395 0.0
H186 H 0.5793 0.04312 0.61383 0.0
H187 H 0.64077 0.06739 0.6183 0.0
H188 H 0.61565 0.04684 0.63554 0.0
H189 H 0.61601 0.03345 0.6121 0.0
H190 H 0.55585 0.06012 0.59424 0.0
H191 H 0.61297 0.05248 0.55938 0.0
H192 H 0.49869 0.01697 0.57268 0.0
H193 H 0.51307 0.05065 0.5817 0.0
H194 H 0.50554 0.04318 0.5563 0.0
H195 H 0.60091 0.02925 0.5297 0.0
H196 H 0.5655 0.00548 0.52585 0.0
H197 H 0.57976 0.03806 0.51597 0.0
H198 H 0.56676 0.17102 0.47318 0.0
H199 H 0.52701 0.1359 0.46115 0.0
H200 H 0.59046 0.12676 0.43679 0.0
H201 H 0.49362 0.07726 0.48438 0.0
H202 H 0.48619 0.0995 0.47123 0.0
H203 H 0.47741 0.06727 0.46115 0.0
H204 H 0.58828 0.08512 0.43438 0.0
H205 H 0.57045 0.06354 0.45401 0.0
H206 H 0.55435 0.05751 0.43079 0.0
H207 H 0.42665 0.89671 0.41228 0.0
H208 H 0.38022 0.85826 0.40958 0.0
H209 H 0.38143 0.88625 0.42202 0.0
H210 H 0.36899 0.87857 0.39749 0.0
H211 H 0.40547 0.95667 0.41353 0.0
H212 H 0.46781 0.93678 0.40781 0.0
H213 H 0.43067 0.99628 0.45498 0.0
H214 H 0.44459 0.01929 0.43574 0.0
H215 H 0.41033 0.99186 0.43369 0.0
H216 H 0.51155 0.96383 0.42146 0.0
H217 H 0.5206 0.99641 0.43098 0.0
H218 H 0.50599 0.96819 0.44636 0.0
H219 H 0.50889 0.98252 0.554 0.0
H220 H 0.55269 0.06638 0.52205 0.0
H221 H 0.54906 0.08128 0.49065 0.0
H222 H 0.49854 0.03857 0.43248 0.0
H223 H 0.45353 0.95511 0.46512 0.0
H224 H 0.45523 0.94086 0.49704 0.0
H225 H 0.62452 0.20088 0.4579 0.0
H226 H 0.61309 0.20823 0.4801 0.0
H227 H 0.6116 0.17672 0.47664 0.0
C228 C 0.56511 0.42166 0.74565 0.0
C229 C 0.55649 0.41106 0.72496 0.0
C230 C 0.52969 0.43149 0.71434 0.0
C231 C 0.55155 0.45686 0.71044 0.0
C232 C 0.5471 0.47718 0.70393 0.0
C233 C 0.52033 0.47222 0.70169 0.0
C234 C 0.49834 0.44695 0.70612 0.0
C235 C 0.50336 0.42683 0.71213 0.0
C236 C 0.57103 0.50393 0.69935 0.0
C237 C 0.46953 0.44114 0.70449 0.0
C238 C 0.57054 0.63019 0.7875 0.0
C239 C 0.54593 0.60468 0.77973 0.0
C240 C 0.53129 0.59225 0.7469 0.0
C241 C 0.50645 0.56854 0.74632 0.0
C242 C 0.5001 0.54977 0.73136 0.0
C243 C 0.51929 0.55481 0.71692 0.0
C244 C 0.54428 0.57907 0.71738 0.0
C245 C 0.5498 0.5977 0.7323 0.0
C246 C 0.47319 0.5243 0.73125 0.0
C247 C 0.56551 0.58491 0.70252 0.0
C248 C 0.46792 0.59918 0.60723 0.0
C249 C 0.44718 0.57539 0.61469 0.0
C250 C 0.45211 0.55496 0.62011 0.0
C251 C 0.47831 0.55848 0.61807 0.0
C252 C 0.49896 0.58205 0.60995 0.0
C253 C 0.49337 0.60201 0.60446 0.0
C254 C 0.42944 0.52973 0.6282 0.0
C255 C 0.52705 0.58636 0.60746 0.0
C256 C 0.47699 0.38123 0.56137 0.0
C257 C 0.49707 0.41124 0.56083 0.0
C258 C 0.48409 0.44225 0.57442 0.0
C259 C 0.46056 0.44208 0.5798 0.0
C260 C 0.46131 0.46011 0.59377 0.0
C261 C 0.48649 0.47962 0.60186 0.0
C262 C 0.51059 0.48077 0.59565 0.0
C263 C 0.50905 0.46162 0.58239 0.0
C264 C 0.43512 0.45806 0.59997 0.0
C265 C 0.53807 0.50217 0.60293 0.0
C266 C 0.51532 0.49346 0.69469 0.0
C267 C 0.51845 0.51325 0.70781 0.0
C268 C 0.51416 0.53392 0.70224 0.0
C269 C 0.50614 0.53477 0.68306 0.0
C270 C 0.50097 0.55486 0.67706 0.0
C271 C 0.49369 0.55584 0.65804 0.0
C272 C 0.49127 0.53674 0.64429 0.0
C273 C 0.48425 0.53776 0.62486 0.0
C274 C 0.48286 0.51895 0.61146 0.0
C275 C 0.48762 0.49854 0.61697 0.0
C276 C 0.49381 0.4967 0.63647 0.0
C277 C 0.49782 0.47595 0.6427 0.0
C278 C 0.50501 0.47492 0.6617 0.0
C279 C 0.50789 0.49428 0.67536 0.0
C280 C 0.50329 0.51502 0.66953 0.0
C281 C 0.49608 0.51614 0.65009 0.0
C282 C 0.45944 0.65571 0.61431 0.0
C283 C 0.44571 0.62567 0.61065 0.0
O284 O 0.53279 0.41092 0.72024 0.0
O285 O 0.48209 0.42408 0.56103 0.0
O286 O 0.46419 0.61978 0.60255 0.0
O287 O 0.53809 0.60946 0.76201 0.0
H288 H 0.57277 0.42377 0.71493 0.0
H289 H 0.56783 0.44193 0.74712 0.0
H290 H 0.54947 0.40844 0.75589 0.0
H291 H 0.58463 0.42299 0.74959 0.0
H292 H 0.57211 0.46105 0.71233 0.0
H293 H 0.48664 0.40727 0.71529 0.0
H294 H 0.57226 0.51915 0.70977 0.0
H295 H 0.59041 0.50384 0.70003 0.0
H296 H 0.56845 0.51 0.68475 0.0
H297 H 0.45503 0.42169 0.71076 0.0
H298 H 0.46746 0.45707 0.71189 0.0
H299 H 0.46395 0.44079 0.68911 0.0
H300 H 0.5528 0.58984 0.77807 0.0
H301 H 0.57641 0.62695 0.80208 0.0
H302 H 0.58787 0.63593 0.77783 0.0
H303 H 0.56638 0.64692 0.78823 0.0
H304 H 0.49222 0.56466 0.75771 0.0
H305 H 0.56899 0.61615 0.73303 0.0
H306 H 0.47637 0.50745 0.73477 0.0
H307 H 0.45918 0.52498 0.74188 0.0
H308 H 0.46356 0.52025 0.7167 0.0
H309 H 0.58463 0.60374 0.70579 0.0
H310 H 0.56993 0.56836 0.70168 0.0
H311 H 0.55783 0.58649 0.68815 0.0
H312 H 0.43947 0.61627 0.62498 0.0
H313 H 0.42713 0.57267 0.61623 0.0
H314 H 0.50912 0.6203 0.59844 0.0
H315 H 0.43428 0.52788 0.64341 0.0
H316 H 0.4098 0.52928 0.62762 0.0
H317 H 0.42735 0.51218 0.62008 0.0
H318 H 0.54104 0.60609 0.60133 0.0
H319 H 0.53538 0.5848 0.62158 0.0
H320 H 0.52619 0.5706 0.59778 0.0
H321 H 0.51004 0.41634 0.57403 0.0
H322 H 0.48753 0.37005 0.56477 0.0
H323 H 0.46214 0.37701 0.5729 0.0
H324 H 0.46577 0.37394 0.54742 0.0
H325 H 0.44143 0.42725 0.57337 0.0
H326 H 0.52745 0.46225 0.57796 0.0
H327 H 0.43439 0.45884 0.61592 0.0
H328 H 0.43379 0.47518 0.59434 0.0
H329 H 0.4172 0.43942 0.59455 0.0
H330 H 0.55436 0.50458 0.59316 0.0
H331 H 0.53889 0.52162 0.6045 0.0
H332 H 0.54226 0.49668 0.61726 0.0
H333 H 0.52454 0.51268 0.72256 0.0
H334 H 0.50258 0.5701 0.68701 0.0
H335 H 0.49016 0.57189 0.65422 0.0
H336 H 0.47805 0.52027 0.59651 0.0
H337 H 0.49564 0.46032 0.63292 0.0
H338 H 0.50829 0.45873 0.66554 0.0
H339 H 0.4667 0.66662 0.60065 0.0
H340 H 0.44513 0.66097 0.62102 0.0
H341 H 0.47705 0.66221 0.62428 0.0
C342 C 0.15548 0.57728 0.90819 0.0
C343 C 0.15827 0.56314 0.89036 0.0
C344 C 0.11121 0.53345 0.87884 0.0
C345 C 0.10619 0.5533 0.87199 0.0
C346 C 0.08098 0.5465 0.86364 0.0
C347 C 0.06061 0.51941 0.86196 0.0
C348 C 0.06574 0.49946 0.86873 0.0
C349 C 0.09096 0.5068 0.87713 0.0
C350 C 0.07604 0.56822 0.85662 0.0
C351 C 0.04453 0.47036 0.86715 0.0
C352 C 0.88859 0.45919 0.94583 0.0
C353 C 0.89614 0.45394 0.92657 0.0
C354 C 0.92626 0.48077 0.90097 0.0
C355 C 0.93025 0.46049 0.89336 0.0
C356 C 0.94969 0.46603 0.87929 0.0
C357 C 0.96524 0.49231 0.87257 0.0
C358 C 0.96074 0.51259 0.8798 0.0
C359 C 0.94122 0.50651 0.89392 0.0
C360 C 0.95389 0.44388 0.87181 0.0
C361 C 0.97679 0.54072 0.87279 0.0
C362 C 0.88312 0.44772 0.75766 0.0
C363 C 0.88996 0.43029 0.76655 0.0
C364 C 0.91661 0.43915 0.77278 0.0
C365 C 0.93665 0.46612 0.77032 0.0
C366 C 0.92993 0.48343 0.76068 0.0
C367 C 0.90324 0.47384 0.7542 0.0
C368 C 0.92324 0.41982 0.78228 0.0
C369 C 0.95078 0.51221 0.75764 0.0
C370 C 0.14437 0.52343 0.74104 0.0
C371 C 0.12388 0.52633 0.72846 0.0
C372 C 0.07684 0.49957 0.73823 0.0
C373 C 0.06023 0.47509 0.7467 0.0
C374 C 0.038 0.47093 0.75762 0.0
C375 C 0.0322 0.4918 0.75991 0.0
C376 C 0.04792 0.51606 0.75036 0.0
C377 C 0.06999 0.51964 0.73946 0.0
C378 C 0.0213 0.44461 0.7673 0.0
C379 C 0.04183 0.53845 0.75212 0.0
C380 C 0.03383 0.51176 0.85321 0.0
C381 C 0.01297 0.5076 0.86552 0.0
C382 C 0.98678 0.49861 0.85842 0.0
C383 C 0.98121 0.4941 0.83844 0.0
C384 C 0.95524 0.48562 0.83079 0.0
C385 C 0.94973 0.4803 0.81119 0.0
C386 C 0.9699 0.48293 0.7985 0.0
C387 C 0.96424 0.4765 0.77865 0.0
C388 C 0.98486 0.4796 0.76643 0.0
C389 C 0.01115 0.48902 0.7735 0.0
C390 C 0.01715 0.49537 0.79332 0.0
C391 C 0.04336 0.5047 0.80092 0.0
C392 C 0.04893 0.51028 0.82049 0.0
C393 C 0.02855 0.50685 0.83322 0.0
C394 C 0.00211 0.4979 0.82583 0.0
C395 C 0.9964 0.49215 0.80585 0.0
C396 C 0.8261 0.44608 0.77038 0.0
C397 C 0.83498 0.42651 0.76365 0.0
O398 O 0.13494 0.53878 0.88736 0.0
O399 O 0.0991 0.503 0.72893 0.0
O400 O 0.85734 0.43975 0.75208 0.0
O401 O 0.90877 0.4765 0.91541 0.0
H402 H 0.16214 0.57578 0.87754 0.0
H403 H 0.1384 0.58104 0.90624 0.0
H404 H 0.1517 0.56491 0.92113 0.0
H405 H 0.17422 0.59676 0.91067 0.0
H406 H 0.12165 0.57404 0.87321 0.0
H407 H 0.09503 0.49167 0.88248 0.0
H408 H 0.05811 0.5668 0.86379 0.0
H409 H 0.09365 0.5884 0.85943 0.0
H410 H 0.07156 0.56556 0.84091 0.0
H411 H 0.05226 0.45722 0.87207 0.0
H412 H 0.02697 0.46657 0.87602 0.0
H413 H 0.0372 0.46494 0.85201 0.0
H414 H 0.88029 0.43606 0.91856 0.0
H415 H 0.91369 0.45263 0.96545 0.0
H416 H 0.88909 0.47883 0.94503 0.0
H417 H 0.86584 0.44701 0.94585 0.0
H418 H 0.91842 0.44037 0.89845 0.0
H419 H 0.9379 0.52198 0.89981 0.0
H420 H 0.94951 0.44103 0.85609 0.0
H421 H 0.97531 0.4493 0.87408 0.0
H422 H 0.94076 0.42471 0.87896 0.0
H423 H 0.96975 0.55387 0.879 0.0
H424 H 0.99845 0.54905 0.87675 0.0
H425 H 0.97527 0.54081 0.85685 0.0
H426 H 0.84009 0.41891 0.77675 0.0
H427 H 0.87447 0.40976 0.76853 0.0
H428 H 0.89774 0.48695 0.747 0.0
H429 H 0.92686 0.42458 0.79792 0.0
H430 H 0.90661 0.39889 0.78042 0.0
H431 H 0.942 0.42163 0.77627 0.0
H432 H 0.94191 0.52348 0.75096 0.0
H433 H 0.96052 0.52197 0.77161 0.0
H434 H 0.96681 0.51334 0.74817 0.0
H435 H 0.12278 0.54345 0.73473 0.0
H436 H 0.1646 0.54163 0.74035 0.0
H437 H 0.13785 0.52067 0.75624 0.0
H438 H 0.146 0.50592 0.7364 0.0
H439 H 0.06532 0.45951 0.74528 0.0
H440 H 0.08179 0.53811 0.73199 0.0
H441 H 0.024 0.44761 0.78314 0.0
H442 H 0.99953 0.43655 0.76385 0.0
H443 H 0.02705 0.4297 0.76285 0.0
H444 H 0.05541 0.55579 0.7433 0.0
H445 H 0.02058 0.53128 0.74755 0.0
H446 H 0.04405 0.54512 0.76741 0.0
H447 H 0.01701 0.51073 0.8809 0.0
H448 H 0.93884 0.48293 0.8399 0.0
H449 H 0.92935 0.47383 0.80615 0.0
H450 H 0.98039 0.47456 0.75125 0.0
H451 H 0.05987 0.50763 0.79185 0.0
H452 H 0.06941 0.51719 0.82552 0.0
H453 H 0.80842 0.43606 0.77993 0.0
H454 H 0.84286 0.46283 0.77862 0.0
H455 H 0.8206 0.45427 0.75787 0.0
C456 C 0.44055 0.85658 0.89559 0.0
C457 C 0.44733 0.84751 0.91444 0.0
C458 C 0.4826 0.8902 0.92874 0.0
C459 C 0.46545 0.90012 0.93369 0.0
C460 C 0.47605 0.92612 0.94112 0.0
C461 C 0.50433 0.9425 0.94374 0.0
C462 C 0.52157 0.93233 0.93933 0.0
C463 C 0.51043 0.90627 0.93193 0.0
C464 C 0.45709 0.9363 0.94585 0.0
C465 C 0.55179 0.9492 0.94212 0.0
C466 C 0.56919 0.12145 0.8571 0.0
C467 C 0.57296 0.10433 0.87095 0.0
C468 C 0.54604 0.06988 0.89416 0.0
C469 C 0.56764 0.06773 0.90196 0.0
C470 C 0.56344 0.05026 0.91704 0.0
C471 C 0.53727 0.03506 0.92465 0.0
C472 C 0.51559 0.03742 0.91693 0.0
C473 C 0.52028 0.0547 0.90168 0.0
C474 C 0.5869 0.04793 0.92481 0.0
C475 C 0.48745 0.02165 0.92474 0.0
C476 C 0.58403 0.13251 0.03415 0.0
C477 C 0.60137 0.12323 0.02845 0.0
C478 C 0.59114 0.09618 0.0239 0.0
C479 C 0.56299 0.07819 0.0249 0.0
C480 C 0.54563 0.08744 0.03118 0.0
C481 C 0.5565 0.11448 0.03599 0.0
C482 C 0.61037 0.08685 0.01791 0.0
C483 C 0.51555 0.06888 0.03254 0.0
C484 C 0.46887 0.88195 0.06976 0.0
C485 C 0.47121 0.90184 0.08541 0.0
C486 C 0.50506 0.94443 0.0721 0.0
C487 C 0.53238 0.95802 0.06736 0.0
C488 C 0.54217 0.97782 0.05337 0.0
C489 C 0.5242 0.98448 0.04423 0.0
C490 C 0.49681 0.97177 0.04965 0.0
C491 C 0.4875 0.95184 0.06347 0.0
C492 C 0.57152 0.99116 0.048 0.0
C493 C 0.47727 0.97902 0.04062 0.0
C494 C 0.51594 0.97072 0.95004 0.0
C495 C 0.52198 0.98957 0.9358 0.0
C496 C 0.53239 0.01644 0.94055 0.0
C497 C 0.53722 0.02497 0.96005 0.0
C498 C 0.54743 0.05183 0.96533 0.0
C499 C 0.5522 0.06004 0.98456 0.0
C500 C 0.54683 0.0417 0.99927 0.0
C501 C 0.55161 0.04987 0.01887 0.0
C502 C 0.54484 0.0309 0.03317 0.0
C503 C 0.53353 0.00388 0.02842 0.0
C504 C 0.52956 0.99548 0.00888 0.0
C505 C 0.51893 0.96853 0.00359 0.0
C506 C 0.5146 0.96038 0.98434 0.0
C507 C 0.5206 0.97882 0.96964 0.0
C508 C 0.53139 0.00609 0.97464 0.0
C509 C 0.53607 0.01445 0.99427 0.0
C510 C 0.59823 0.1929 0.01799 0.0
C511 C 0.61243 0.18015 0.02847 0.0
O512 O 0.47344 0.8656 0.92067 0.0
O513 O 0.49656 0.92452 0.08505 0.0
O514 O 0.59327 0.15853 0.03852 0.0
O515 O 0.54899 0.0861 0.87936 0.0
H516 H 0.43276 0.8457 0.92562 0.0
H517 H 0.44115 0.87583 0.89777 0.0
H518 H 0.45527 0.85917 0.88433 0.0
H519 H 0.41989 0.84166 0.89039 0.0
H520 H 0.44382 0.88793 0.9316 0.0
H521 H 0.52352 0.89843 0.92824 0.0
H522 H 0.46125 0.95318 0.93641 0.0
H523 H 0.43553 0.92071 0.94393 0.0
H524 H 0.4606 0.94389 0.96096 0.0
H525 H 0.56238 0.93807 0.93862 0.0
H526 H 0.55961 0.96685 0.9328 0.0
H527 H 0.5567 0.95657 0.95726 0.0
H528 H 0.58533 0.09564 0.86575 0.0
H529 H 0.57482 0.1165 0.84278 0.0
H530 H 0.54693 0.11122 0.85334 0.0
H531 H 0.59055 0.1603 0.8701 0.0
H532 H 0.58772 0.07944 0.89627 0.0
H533 H 0.50379 0.05654 0.89556 0.0
H534 H 0.59108 0.05499 0.94004 0.0
H535 H 0.58171 0.02676 0.9245 0.0
H536 H 0.60558 0.05974 0.9165 0.0
H537 H 0.47337 0.02751 0.91831 0.0
H538 H 0.47939 1.00015 0.92165 0.0
H539 H 0.48799 0.0244 0.94061 0.0
H540 H 0.62202 0.17381 0.01734 0.0
H541 H 0.6229 0.13699 0.02783 0.0
H542 H 0.5434 0.12183 0.04076 0.0
H543 H 0.60689 0.08088 0.00245 0.0
H544 H 0.63185 0.10258 0.02006 0.0
H545 H 0.60658 0.06912 0.02621 0.0
H546 H 0.50458 0.07963 0.03604 0.0
H547 H 0.50732 0.05768 0.01875 0.0
H548 H 0.51155 0.05416 0.04392 0.0
H549 H 0.45514 0.9068 0.08259 0.0
H550 H 0.44891 0.86341 0.07036 0.0
H551 H 0.47068 0.89068 0.05534 0.0
H552 H 0.48513 0.87692 0.07154 0.0
H553 H 0.54589 0.95249 0.07427 0.0
H554 H 0.46657 0.9425 0.0675 0.0
H555 H 0.57309 0.98762 0.03246 0.0
H556 H 0.5811 0.01299 0.05041 0.0
H557 H 0.58294 0.98375 0.05645 0.0
H558 H 0.4572 0.96887 0.04749 0.0
H559 H 0.48561 0.00086 0.04174 0.0
H560 H 0.47446 0.97341 0.0251 0.0
H561 H 0.51822 0.98319 0.9208 0.0
H562 H 0.55188 0.06683 0.95465 0.0
H563 H 0.56006 0.08097 0.98773 0.0
H564 H 0.54789 0.03718 0.04819 0.0
H565 H 0.51388 0.95343 0.01429 0.0
H566 H 0.50637 0.9394 0.98113 0.0
H567 H 0.61281 0.20987 0.00928 0.0
H568 H 0.58225 0.17801 0.00812 0.0
H569 H 0.58868 0.20015 0.02846 0.0
C570 C 0.57619 0.42288 0.06276 0.0
C571 C 0.58521 0.42506 0.08386 0.0
C572 C 0.57813 0.46048 0.0976 0.0
C573 C 0.54975 0.44556 0.09803 0.0
C574 C 0.5348 0.45705 0.10481 0.0
C575 C 0.54846 0.48395 0.11119 0.0
C576 C 0.57698 0.49903 0.11069 0.0
C577 C 0.59141 0.48701 0.10394 0.0
C578 C 0.50437 0.4405 0.10517 0.0
C579 C 0.59216 0.52781 0.11729 0.0
C580 C 0.4863 0.60531 0.03108 0.0
C581 C 0.49757 0.59954 0.04846 0.0
C582 C 0.49267 0.56098 0.06597 0.0
C583 C 0.51282 0.57563 0.07998 0.0
C584 C 0.51841 0.56268 0.09474 0.0
C585 C 0.50287 0.53461 0.09589 0.0
C586 C 0.48203 0.51992 0.08212 0.0
C587 C 0.47745 0.53333 0.06721 0.0
C588 C 0.54133 0.57904 0.10882 0.0
C589 C 0.46484 0.49003 0.08298 0.0
C590 C 0.44568 0.56352 0.20888 0.0
C591 C 0.47298 0.57834 0.20403 0.0
C592 C 0.48714 0.56558 0.19819 0.0
C593 C 0.47351 0.53742 0.19695 0.0
C594 C 0.44616 0.52245 0.20239 0.0
C595 C 0.43269 0.53577 0.20856 0.0
C596 C 0.51659 0.5822 0.19325 0.0
C597 C 0.43107 0.49244 0.20139 0.0
C598 C 0.56122 0.42571 0.24756 0.0
C599 C 0.55497 0.44356 0.26041 0.0
C600 C 0.55024 0.47479 0.23897 0.0
C601 C 0.56291 0.5014 0.23362 0.0
C602 C 0.55065 0.51038 0.22047 0.0
C603 C 0.52494 0.49218 0.21248 0.0
C604 C 0.51171 0.46525 0.21805 0.0
C605 C 0.52457 0.45673 0.23114 0.0
C606 C 0.56541 0.53923 0.21483 0.0
C607 C 0.48425 0.44539 0.20979 0.0
C608 C 0.53292 0.49634 0.11836 0.0
C609 C 0.52426 0.50842 0.10503 0.0
C610 C 0.50956 0.52055 0.11075 0.0
C611 C 0.50285 0.52026 0.13031 0.0
C612 C 0.4871 0.53124 0.13648 0.0
C613 C 0.48169 0.53194 0.15588 0.0
C614 C 0.49197 0.52185 0.16988 0.0
C615 C 0.48779 0.52368 0.18974 0.0
C616 C 0.49818 0.51328 0.20322 0.0
C617 C 0.51281 0.5011 0.19743 0.0
C618 C 0.51722 0.49911 0.17766 0.0
C619 C 0.53195 0.48707 0.17137 0.0
C620 C 0.53673 0.48574 0.15194 0.0
C621 C 0.52736 0.49678 0.13807 0.0
C622 C 0.51227 0.5088 0.14406 0.0
C623 C 0.50699 0.50976 0.16387 0.0
C624 C 0.40494 0.58215 0.19096 0.0
C625 C 0.43021 0.59512 0.20399 0.0
O626 O 0.59359 0.4504 0.09114 0.0
O627 O 0.56391 0.46763 0.25136 0.0
O628 O 0.4316 0.57552 0.21429 0.0
O629 O 0.48757 0.57255 0.05088 0.0
H630 H 0.5682 0.41002 0.09243 0.0
H631 H 0.559 0.42658 0.06144 0.0
H632 H 0.59306 0.43771 0.054 0.0
H633 H 0.5695 0.4026 0.05686 0.0
H634 H 0.53906 0.42503 0.09309 0.0
H635 H 0.61329 0.49836 0.10353 0.0
H636 H 0.49538 0.44966 0.09595 0.0
H637 H 0.49674 0.4197 0.10005 0.0
H638 H 0.49734 0.44013 0.12006 0.0
H639 H 0.61434 0.53696 0.11558 0.0
H640 H 0.58502 0.53938 0.10895 0.0
H641 H 0.58802 0.52934 0.13268 0.0
H642 H 0.51992 0.61205 0.05032 0.0
H643 H 0.50424 0.61716 0.02168 0.0
H644 H 0.47766 0.58695 0.02153 0.0
H645 H 0.46246 0.62111 0.04226 0.0
H646 H 0.52468 0.59708 0.07929 0.0
H647 H 0.46188 0.52222 0.05637 0.0
H648 H 0.53303 0.57898 0.12318 0.0
H649 H 0.55463 0.57029 0.11035 0.0
H650 H 0.5538 0.60003 0.10434 0.0
H651 H 0.44691 0.48207 0.07315 0.0
H652 H 0.4771 0.48088 0.07879 0.0
H653 H 0.45789 0.48388 0.09788 0.0
H654 H 0.44806 0.6057 0.19461 0.0
H655 H 0.48329 0.59986 0.20503 0.0
H656 H 0.41171 0.52457 0.21266 0.0
H657 H 0.51891 0.58088 0.17752 0.0
H658 H 0.52508 0.60348 0.19741 0.0
H659 H 0.5286 0.57451 0.20057 0.0
H660 H 0.40938 0.48379 0.20486 0.0
H661 H 0.43259 0.48547 0.18676 0.0
H662 H 0.4404 0.48479 0.2117 0.0
H663 H 0.53287 0.43362 0.26285 0.0
H664 H 0.55173 0.40518 0.2531 0.0
H665 H 0.553 0.42438 0.23279 0.0
H666 H 0.58341 0.43402 0.24669 0.0
H667 H 0.58272 0.51514 0.23971 0.0
H668 H 0.51465 0.43595 0.23487 0.0
H669 H 0.5684 0.54064 0.19903 0.0
H670 H 0.55305 0.5485 0.21842 0.0
H671 H 0.58543 0.55079 0.22221 0.0
H672 H 0.47561 0.42574 0.21675 0.0
H673 H 0.47008 0.45309 0.21152 0.0
H674 H 0.48589 0.44259 0.19414 0.0
H675 H 0.52933 0.50868 0.09001 0.0
H676 H 0.47894 0.53956 0.12636 0.0
H677 H 0.46961 0.54079 0.1598 0.0
H678 H 0.49529 0.51514 0.21844 0.0
H679 H 0.54002 0.47856 0.1814 0.0
H680 H 0.54821 0.47626 0.14796 0.0
H681 H 0.40353 0.59745 0.18237 0.0
H682 H 0.40592 0.56772 0.18085 0.0
H683 H 0.38644 0.57138 0.19966 0.0
Zn684 Zn 0.66024 0.45698 0.425 0.0
Zn685 Zn 0.62573 0.40409 0.42121 0.0
O686 O 0.66368 0.40843 0.42243 0.0
O687 O 0.69235 0.45122 0.42633 0.0
O688 O 0.60193 0.36411 0.42156 0.0
O689 O 0.64114 0.45878 0.44873 0.0
O690 O 0.61309 0.4157 0.44524 0.0
C691 C 0.68785 0.42762 0.42439 0.0
C692 C 0.62762 0.44035 0.38942 0.0
O693 O 0.61744 0.4168 0.39582 0.0
O694 O 0.64574 0.45995 0.3991 0.0
C695 C 0.60831 0.34865 0.41295 0.0
O696 O 0.62954 0.35891 0.4019 0.0
C697 C 0.62075 0.43764 0.45428 0.0
Zn698 Zn 0.2115 0.64296 0.57468 0.0
Zn699 Zn 0.23857 0.6155 0.56959 0.0
O700 O 0.26727 0.65461 0.57284 0.0
O701 O 0.24715 0.67814 0.57663 0.0
O702 O 0.26262 0.59948 0.56865 0.0
O703 O 0.19498 0.62114 0.59876 0.0
O704 O 0.21511 0.59798 0.59279 0.0
C705 C 0.26863 0.677 0.57528 0.0
C706 C 0.20109 0.61352 0.53768 0.0
O707 O 0.21776 0.60678 0.54402 0.0
O708 O 0.19513 0.62802 0.54794 0.0
C709 C 0.27989 0.60567 0.55548 0.0
O710 O 0.2794 0.61983 0.54104 0.0
C711 C 0.1994 0.60246 0.60298 0.0
Zn712 Zn 0.55693 0.19426 0.73047 0.0
Zn713 Zn 0.61002 0.23092 0.73425 0.0
O714 O 0.59151 0.25272 0.72844 0.0
O715 O 0.54866 0.22302 0.72321 0.0
O716 O 0.64921 0.25939 0.73671 0.0
O717 O 0.55742 0.18634 0.7587 0.0
O718 O 0.60147 0.21366 0.76081 0.0
C719 C 0.56747 0.24707 0.72412 0.0
C720 C 0.59062 0.18515 0.7045 0.0
O721 O 0.60926 0.20668 0.71221 0.0
O722 O 0.5665 0.17524 0.71009 0.0
C723 C 0.6613 0.27299 0.72213 0.0
O724 O 0.64806 0.2676 0.7056 0.0
C725 C 0.57933 0.19688 0.76842 0.0
Zn726 Zn 0.3754 0.55625 0.91025 0.0
Zn727 Zn 0.39337 0.60789 0.90166 0.0
O728 O 0.35198 0.59072 0.89966 0.0
O729 O 0.33711 0.54875 0.90649 0.0
O730 O 0.40722 0.64669 0.89667 0.0
O731 O 0.39297 0.56792 0.93674 0.0
O732 O 0.4084 0.60965 0.92887 0.0
C733 C 0.33243 0.5672 0.90211 0.0
C734 C 0.41048 0.57462 0.8773 0.0
O735 O 0.41077 0.59635 0.88082 0.0
O736 O 0.39694 0.5546 0.88773 0.0
C737 C 0.39651 0.65851 0.90519 0.0
O738 O 0.37593 0.64482 0.91645 0.0
C739 C 0.40641 0.59252 0.941 0.0
Zn740 Zn 0.81404 0.45169 0.08575 0.0
Zn741 Zn 0.79327 0.39871 0.07877 0.0
O742 O 0.76086 0.4041 0.08221 0.0
O743 O 0.7764 0.44675 0.0876 0.0
O744 O 0.77366 0.35909 0.07366 0.0
O745 O 0.83213 0.45822 0.05998 0.0
O746 O 0.81557 0.41529 0.05457 0.0
C747 C 0.75664 0.4233 0.08548 0.0
C748 C 0.83126 0.4257 0.11339 0.0
O749 O 0.81641 0.40489 0.10317 0.0
O750 O 0.83332 0.44779 0.10907 0.0
C751 C 0.75819 0.34451 0.08678 0.0
O752 O 0.75799 0.35572 0.10326 0.0
C753 C 0.82992 0.43934 0.04933 0.0
Zn754 Zn 0.36093 0.79867 0.23777 0.0
Zn755 Zn 0.3926 0.77605 0.24245 0.0
O756 O 0.35365 0.74548 0.24004 0.0
O757 O 0.32679 0.76209 0.23659 0.0
O758 O 0.41198 0.75522 0.24412 0.0
O759 O 0.3817 0.81527 0.21331 0.0
O760 O 0.40807 0.79832 0.21846 0.0
C761 C 0.32999 0.7421 0.23798 0.0
C762 C 0.39313 0.81333 0.27375 0.0
O763 O 0.40133 0.79795 0.26744 0.0
O764 O 0.37642 0.81688 0.26388 0.0
C765 C 0.4049 0.73737 0.25673 0.0
O766 O 0.38736 0.73518 0.26968 0.0
C767 C 0.40146 0.81247 0.20844 0.0
H768 H 0.17349 0.62967 0.2359 0.0
H769 H 0.19975 0.57157 0.24062 0.0
H770 H 0.24738 0.60775 0.24057 0.0
H771 H 0.22596 0.67385 0.20426 0.0
H772 H 0.22967 0.70374 0.21537 0.0
H773 H 0.19757 0.67332 0.21574 0.0
H774 H 0.19727 0.67684 0.25293 0.0
H775 H 0.22932 0.70732 0.25266 0.0
H776 H 0.2255 0.6799 0.26686 0.0
H777 H 0.29185 0.64988 0.24035 0.0
H778 H 0.33072 0.69549 0.24 0.0
H779 H 0.27589 0.72667 0.2354 0.0
C780 C 0.1893 0.62463 0.23708 0.0
C781 C 0.18297 0.59785 0.23866 0.0
C782 C 0.20419 0.59198 0.23973 0.0
C783 C 0.23126 0.61236 0.23965 0.0
C784 C 0.2368 0.63853 0.23833 0.0
C785 C 0.21648 0.64476 0.23705 0.0
C786 C 0.22804 0.67457 0.23581 0.0
C787 C 0.21982 0.68179 0.21665 0.0
C788 C 0.21952 0.68528 0.25309 0.0
C789 C 0.25803 0.68409 0.23665 0.0
C790 C 0.26258 0.66294 0.23807 0.0
C791 C 0.28856 0.66662 0.23922 0.0
C792 C 0.31052 0.69265 0.239 0.0
C793 C 0.30641 0.71473 0.23765 0.0
C794 C 0.27974 0.71026 0.23639 0.0
H795 H 0.60667 0.21327 0.43055 0.0
H796 H 0.54421 0.19531 0.47223 0.0
H797 H 0.53989 0.23319 0.46089 0.0
H798 H 0.63985 0.28133 0.43767 0.0
H799 H 0.64895 0.28984 0.41296 0.0
H800 H 0.64375 0.25871 0.42184 0.0
H801 H 0.6079 0.23336 0.39486 0.0
H802 H 0.61301 0.26451 0.38586 0.0
H803 H 0.57961 0.23874 0.39215 0.0
H804 H 0.54638 0.276 0.44809 0.0
H805 H 0.56403 0.32116 0.4355 0.0
H806 H 0.62307 0.31204 0.40256 0.0
C807 C 0.59171 0.21701 0.43699 0.0
C808 C 0.57577 0.20138 0.45227 0.0
C809 C 0.55656 0.207 0.46047 0.0
C810 C 0.5539 0.22841 0.45408 0.0
C811 C 0.57052 0.24395 0.4394 0.0
C812 C 0.589 0.23848 0.4309 0.0
C813 C 0.60638 0.25985 0.41686 0.0
C814 C 0.63651 0.27322 0.42269 0.0
C815 C 0.60142 0.24843 0.3962 0.0
C816 C 0.59554 0.27874 0.41937 0.0
C817 C 0.5745 0.26894 0.43215 0.0
C818 C 0.56254 0.28369 0.43783 0.0
C819 C 0.57275 0.30937 0.43061 0.0
C820 C 0.59488 0.32015 0.41798 0.0
C821 C 0.6059 0.30428 0.41196 0.0
H822 H 0.39284 0.60432 0.62095 0.0
H823 H 0.444 0.62871 0.57108 0.0
H824 H 0.40472 0.61965 0.55038 0.0
H825 H 0.32974 0.55162 0.596 0.0
H826 H 0.30875 0.56012 0.61007 0.0
H827 H 0.33978 0.56429 0.62029 0.0
H828 H 0.3559 0.61387 0.62803 0.0
H829 H 0.32504 0.60987 0.61783 0.0
H830 H 0.35709 0.63515 0.60892 0.0
H831 H 0.36164 0.61409 0.53609 0.0
H832 H 0.31851 0.61289 0.52942 0.0
H833 H 0.29524 0.59139 0.5886 0.0
C834 C 0.39551 0.60687 0.60557 0.0
C835 C 0.42125 0.61658 0.59752 0.0
C836 C 0.42428 0.62067 0.57744 0.0
C837 C 0.4021 0.61559 0.5656 0.0
C838 C 0.37703 0.60636 0.57405 0.0
C839 C 0.37359 0.60187 0.59358 0.0
C840 C 0.3453 0.5945 0.59944 0.0
C841 C 0.32999 0.56593 0.60689 0.0
C842 C 0.34589 0.61455 0.61443 0.0
C843 C 0.33366 0.59659 0.58031 0.0
C844 C 0.35213 0.60309 0.56578 0.0
C845 C 0.34681 0.60846 0.54725 0.0
C846 C 0.32227 0.60777 0.5436 0.0
C847 C 0.30338 0.60181 0.55843 0.0
C848 C 0.30897 0.59546 0.57685 0.0
H849 H 0.79485 0.38022 0.77847 0.0
H850 H 0.8222 0.42167 0.72465 0.0
H851 H 0.7823 0.38521 0.70779 0.0
H852 H 0.76541 0.31213 0.7588 0.0
H853 H 0.73727 0.29923 0.77487 0.0
H854 H 0.7693 0.32732 0.78227 0.0
H855 H 0.74581 0.35476 0.78926 0.0
H856 H 0.71377 0.32683 0.78183 0.0
H857 H 0.72601 0.3585 0.7705 0.0
H858 H 0.73813 0.34549 0.6972 0.0
H859 H 0.69244 0.30619 0.69377 0.0
H860 H 0.69347 0.29119 0.75474 0.0
C861 C 0.79272 0.38127 0.76305 0.0
C862 C 0.81203 0.40335 0.75277 0.0
C863 C 0.80807 0.40459 0.73272 0.0
C864 C 0.78544 0.38401 0.72304 0.0
C865 C 0.76681 0.36251 0.73364 0.0
C866 C 0.77019 0.36102 0.75321 0.0
C867 C 0.74634 0.3367 0.7615 0.0
C868 C 0.75511 0.31772 0.76985 0.0
C869 C 0.73215 0.34469 0.77666 0.0
C870 C 0.72884 0.32488 0.74357 0.0
C871 C 0.74109 0.33994 0.72763 0.0
C872 C 0.72842 0.33344 0.70955 0.0
C873 C 0.70244 0.31108 0.70776 0.0
C874 C 0.68935 0.29557 0.72397 0.0
C875 C 0.70295 0.30252 0.74204 0.0
H876 H 0.40546 0.79848 0.92453 0.0
H877 H 0.48297 0.83572 0.89648 0.0
H878 H 0.47794 0.7914 0.89022 0.0
H879 H 0.41217 0.74718 0.94782 0.0
H880 H 0.37708 0.7223 0.94433 0.0
H881 H 0.38681 0.75692 0.94634 0.0
H882 H 0.36304 0.75329 0.91355 0.0
H883 H 0.35338 0.71868 0.91139 0.0
H884 H 0.37231 0.74128 0.8926 0.0
H885 H 0.46428 0.74293 0.88704 0.0
H886 H 0.44384 0.69408 0.88815 0.0
H887 H 0.37544 0.68876 0.9186 0.0
C888 C 0.42145 0.79728 0.9172 0.0
C889 C 0.44482 0.82051 0.91127 0.0
C890 C 0.46511 0.81815 0.90139 0.0
C891 C 0.46236 0.7931 0.89771 0.0
C892 C 0.43913 0.7706 0.90387 0.0
C893 C 0.41906 0.77247 0.91344 0.0
C894 C 0.39617 0.74527 0.91865 0.0
C895 C 0.39288 0.74278 0.94059 0.0
C896 C 0.36966 0.73928 0.90844 0.0
C897 C 0.40665 0.72782 0.91072 0.0
C898 C 0.43134 0.74277 0.9021 0.0
C899 C 0.44495 0.73101 0.89375 0.0
C900 C 0.43314 0.70325 0.89442 0.0
C901 C 0.40807 0.68759 0.90349 0.0
C902 C 0.39466 0.70015 0.9116 0.0
H903 H 0.64023 0.46057 0.08189 0.0
H904 H 0.58212 0.37672 0.08827 0.0
H905 H 0.61957 0.36693 0.08979 0.0
H906 H 0.68624 0.45269 0.0524 0.0
H907 H 0.71597 0.48006 0.0635 0.0
H908 H 0.68461 0.4803 0.06304 0.0
H909 H 0.68719 0.48624 0.10016 0.0
H910 H 0.71861 0.48607 0.10075 0.0
H911 H 0.69069 0.46275 0.11489 0.0
H912 H 0.66343 0.36641 0.08978 0.0
H913 H 0.71036 0.37516 0.08893 0.0
H914 H 0.73952 0.45971 0.08389 0.0
C915 C 0.63536 0.44018 0.08387 0.0
C916 C 0.60828 0.41941 0.0854 0.0
C917 C 0.60277 0.39292 0.08743 0.0
C918 C 0.62387 0.3872 0.08826 0.0
C919 C 0.65033 0.40822 0.08704 0.0
C920 C 0.65612 0.43418 0.08496 0.0
C921 C 0.68624 0.45316 0.08396 0.0
C922 C 0.69369 0.46738 0.06457 0.0
C923 C 0.69627 0.47324 0.10095 0.0
C924 C 0.69654 0.43381 0.08566 0.0
C925 C 0.67552 0.40797 0.08735 0.0
C926 C 0.68005 0.38658 0.08858 0.0
C927 C 0.70677 0.39176 0.08805 0.0
C928 C 0.72861 0.41814 0.08644 0.0
C929 C 0.7233 0.43937 0.08532 0.0
H930 H 0.37281 0.83346 0.57128 0.0
H931 H 0.43713 0.81441 0.57101 0.0
H932 H 0.40336 0.76661 0.57321 0.0
H933 H 0.33064 0.7837 0.6051 0.0
H934 H 0.29943 0.77618 0.59311 0.0
H935 H 0.32862 0.80894 0.59153 0.0
H936 H 0.32538 0.8051 0.5543 0.0
H937 H 0.29611 0.7724 0.55577 0.0
H938 H 0.32501 0.77714 0.54243 0.0
H939 H 0.36287 0.72113 0.57494 0.0
H940 H 0.31814 0.68058 0.57591 0.0
H941 H 0.27982 0.72901 0.57535 0.0
C942 C 0.37971 0.81916 0.57155 0.0
C943 C 0.40754 0.82753 0.57064 0.0
C944 C 0.41588 0.80834 0.5714 0.0
C945 C 0.39688 0.7812 0.57271 0.0
C946 C 0.36962 0.77361 0.57342 0.0
C947 C 0.36101 0.79198 0.57287 0.0
C948 C 0.33049 0.77848 0.57379 0.0
C949 C 0.32179 0.78735 0.59197 0.0
C950 C 0.31855 0.78358 0.55548 0.0
C951 C 0.32331 0.74962 0.57484 0.0
C952 C 0.34621 0.7473 0.57465 0.0
C953 C 0.34478 0.72268 0.57516 0.0
C954 C 0.31924 0.69975 0.5757 0.0
C955 C 0.29542 0.70157 0.57575 0.0
C956 C 0.29761 0.72693 0.57546 0.0
H957 H 0.59502 0.3962 0.72738 0.0
H958 H 0.5086 0.3627 0.71813 0.0
H959 H 0.50308 0.31807 0.71479 0.0
H960 H 0.60421 0.35204 0.69532 0.0
H961 H 0.62774 0.34925 0.71123 0.0
H962 H 0.62543 0.37908 0.71168 0.0
H963 H 0.61608 0.37385 0.74823 0.0
H964 H 0.61853 0.34411 0.7479 0.0
H965 H 0.58859 0.34314 0.75686 0.0
H966 H 0.50649 0.27691 0.71299 0.0
H967 H 0.5182 0.24155 0.71512 0.0
H968 H 0.60203 0.30118 0.72707 0.0
C969 C 0.57495 0.37947 0.7246 0.0
C970 C 0.55239 0.38319 0.72288 0.0
C971 C 0.52637 0.36069 0.71937 0.0
C972 C 0.52296 0.33514 0.71742 0.0
C973 C 0.54563 0.33227 0.71924 0.0
C974 C 0.57108 0.35376 0.72295 0.0
C975 C 0.59182 0.34499 0.72542 0.0
C976 C 0.61358 0.35706 0.70999 0.0
C977 C 0.60449 0.35193 0.74581 0.0
C978 C 0.57402 0.31521 0.72244 0.0
C979 C 0.5475 0.30835 0.71875 0.0
C980 C 0.52719 0.28201 0.71586 0.0
C981 C 0.53408 0.26207 0.71708 0.0
C982 C 0.56104 0.26854 0.72128 0.0
C983 C 0.58127 0.29555 0.72375 0.0
H984 H 0.21173 0.59661 0.88159 0.0
H985 H 0.15843 0.52012 0.90686 0.0
H986 H 0.19686 0.51264 0.91148 0.0
H987 H 0.25499 0.57788 0.85675 0.0
H988 H 0.28557 0.60887 0.86203 0.0
H989 H 0.25373 0.60809 0.86007 0.0
H990 H 0.26138 0.62942 0.89418 0.0
H991 H 0.29327 0.63034 0.89622 0.0
H992 H 0.26796 0.61386 0.91418 0.0
H993 H 0.24033 0.51274 0.91273 0.0
H994 H 0.2873 0.52197 0.9131 0.0
H995 H 0.31352 0.59948 0.88859 0.0
C996 C 0.20819 0.57821 0.88792 0.0
C997 C 0.18193 0.55856 0.89324 0.0
C998 C 0.17818 0.5351 0.90211 0.0
C999 C 0.1999 0.5307 0.90486 0.0
C1000 C 0.22537 0.55017 0.89906 0.0
C1001 C 0.22976 0.57361 0.89101 0.0
C1002 C 0.25943 0.59169 0.88679 0.0
C1003 C 0.26367 0.59693 0.86512 0.0
C1004 C 0.2712 0.61787 0.89854 0.0
C1005 C 0.27093 0.57463 0.89363 0.0
C1006 C 0.25085 0.55069 0.90052 0.0
C1007 C 0.25629 0.53144 0.90745 0.0
C1008 C 0.28306 0.53687 0.90753 0.0
C1009 C 0.30415 0.56147 0.90089 0.0
C1010 C 0.29789 0.58052 0.89379 0.0
H1011 H 0.66249 0.22039 0.0189 0.0
H1012 H 0.6109 0.18688 0.06813 0.0
H1013 H 0.64551 0.22262 0.08896 0.0
H1014 H 0.72832 0.24575 0.04429 0.0
H1015 H 0.74418 0.27571 0.03047 0.0
H1016 H 0.71709 0.24541 0.0199 0.0
H1017 H 0.69056 0.26966 0.01207 0.0
H1018 H 0.71752 0.29996 0.02258 0.0
H1019 H 0.68358 0.28652 0.03116 0.0
H1020 H 0.68389 0.26378 0.10397 0.0
H1021 H 0.7218 0.30874 0.11167 0.0
H1022 H 0.74784 0.31667 0.05247 0.0
C1023 C 0.65884 0.22024 0.03417 0.0
C1024 C 0.63432 0.2004 0.04193 0.0
C1025 C 0.62977 0.20139 0.06186 0.0
C1026 C 0.64932 0.22166 0.07384 0.0
C1027 C 0.6732 0.24096 0.06567 0.0
C1028 C 0.67797 0.24052 0.04627 0.0
C1029 C 0.70401 0.26506 0.04072 0.0
C1030 C 0.72462 0.25752 0.03342 0.0
C1031 C 0.69858 0.28125 0.02576 0.0
C1032 C 0.71286 0.27965 0.05997 0.0
C1033 C 0.69501 0.26521 0.07422 0.0
C1034 C 0.69815 0.27516 0.09298 0.0
C1035 C 0.71977 0.30075 0.09721 0.0
C1036 C 0.73787 0.31625 0.0827 0.0
C1037 C 0.73458 0.30525 0.06394 0.0
H1038 H 0.44744 0.64742 0.19703 0.0
H1039 H 0.4086 0.58759 0.24049 0.0
H1040 H 0.40337 0.61991 0.26073 0.0
H1041 H 0.4823 0.70622 0.22995 0.0
H1042 H 0.47584 0.72682 0.21407 0.0
H1043 H 0.48002 0.70022 0.20431 0.0
H1044 H 0.43351 0.68036 0.18673 0.0
H1045 H 0.42921 0.70684 0.1964 0.0
H1046 H 0.40395 0.67269 0.20041 0.0
H1047 H 0.39855 0.65731 0.27479 0.0
H1048 H 0.39223 0.69582 0.28074 0.0
H1049 H 0.4335 0.73101 0.22776 0.0
C1050 C 0.43857 0.64142 0.21106 0.0
C1051 C 0.42926 0.6153 0.21746 0.0
C1052 C 0.41664 0.60773 0.23555 0.0
C1053 C 0.41356 0.62596 0.24713 0.0
C1054 C 0.42297 0.65157 0.24036 0.0
C1055 C 0.43516 0.65928 0.22272 0.0
C1056 C 0.44105 0.68702 0.21788 0.0
C1057 C 0.47162 0.7062 0.21648 0.0
C1058 C 0.42603 0.68669 0.19926 0.0
C1059 C 0.42965 0.69348 0.23534 0.0
C1060 C 0.41966 0.67295 0.24827 0.0
C1061 C 0.40661 0.67366 0.26489 0.0
C1062 C 0.40311 0.69564 0.26815 0.0
C1063 C 0.41245 0.71651 0.25477 0.0
C1064 C 0.42645 0.71559 0.23841 0.0
H1065 H 0.84243 0.46796 0.4147 0.0
H1066 H 0.81598 0.38414 0.40707 0.0
H1067 H 0.76853 0.37303 0.41148 0.0
H1068 H 0.79527 0.46062 0.45112 0.0
H1069 H 0.79018 0.48679 0.44208 0.0
H1070 H 0.82189 0.48793 0.43847 0.0
H1071 H 0.81693 0.49138 0.40165 0.0
H1072 H 0.78531 0.49042 0.40516 0.0
H1073 H 0.7868 0.46654 0.38918 0.0
H1074 H 0.72386 0.37144 0.41627 0.0
H1075 H 0.68563 0.37942 0.42053 0.0
H1076 H 0.74195 0.46445 0.42504 0.0
C1077 C 0.82662 0.44728 0.41383 0.0
C1078 C 0.83276 0.4269 0.4102 0.0
C1079 C 0.8116 0.40004 0.40954 0.0
C1080 C 0.78466 0.39357 0.4121 0.0
C1081 C 0.77931 0.4142 0.41545 0.0
C1082 C 0.79972 0.44051 0.41629 0.0
C1083 C 0.78868 0.459 0.41986 0.0
C1084 C 0.79966 0.47449 0.43902 0.0
C1085 C 0.79479 0.47794 0.40296 0.0
C1086 C 0.75882 0.43902 0.42086 0.0
C1087 C 0.75378 0.41327 0.41833 0.0
C1088 C 0.7276 0.39152 0.41834 0.0
C1089 C 0.70601 0.39626 0.42079 0.0
C1090 C 0.71075 0.42256 0.42319 0.0
C1091 C 0.73759 0.4441 0.42338 0.0
H1092 H 0.13367 0.62852 0.44164 0.0
H1093 H 0.16363 0.58248 0.41226 0.0
H1094 H 0.17812 0.5733 0.44351 0.0
H1095 H 0.18674 0.65997 0.47453 0.0
H1096 H 0.16666 0.65964 0.49445 0.0
H1097 H 0.15533 0.65944 0.47019 0.0
H1098 H 0.11009 0.6164 0.47667 0.0
H1099 H 0.12124 0.61653 0.50105 0.0
H1100 H 0.11055 0.58763 0.48566 0.0
H1101 H 0.19355 0.57319 0.47751 0.0
H1102 H 0.2088 0.58217 0.51155 0.0
H1103 H 0.16862 0.62834 0.51863 0.0
C1104 C 0.14261 0.6159 0.44188 0.0
C1105 C 0.14714 0.60579 0.42462 0.0
C1106 C 0.15962 0.59003 0.42538 0.0
C1107 C 0.16789 0.58472 0.44305 0.0
C1108 C 0.16348 0.59531 0.4598 0.0
C1109 C 0.15099 0.61045 0.45937 0.0
C1110 C 0.15054 0.62125 0.4792 0.0
C1111 C 0.16573 0.65189 0.47961 0.0
C1112 C 0.12137 0.60976 0.48605 0.0
C1113 C 0.1655 0.61056 0.49075 0.0
C1114 C 0.17252 0.59537 0.47937 0.0
C1115 C 0.18783 0.58472 0.48663 0.0
C1116 C 0.19644 0.58998 0.50598 0.0
C1117 C 0.18985 0.60588 0.51782 0.0
C1118 C 0.1738 0.61588 0.51007 0.0
H1119 H 0.56359 0.06253 0.63651 0.0
H1120 H 0.64357 0.11164 0.61358 0.0
H1121 H 0.64975 0.14949 0.63415 0.0
H1122 H 0.54621 0.11501 0.63963 0.0
H1123 H 0.5279 0.10256 0.66158 0.0
H1124 H 0.52967 0.07993 0.64449 0.0
H1125 H 0.54911 0.06312 0.6712 0.0
H1126 H 0.54757 0.08579 0.68833 0.0
H1127 H 0.57913 0.08668 0.68445 0.0
H1128 H 0.64804 0.18094 0.65887 0.0
H1129 H 0.63762 0.20435 0.68436 0.0
H1130 H 0.5581 0.13468 0.69005 0.0
C1131 C 0.58227 0.08135 0.63567 0.0
C1132 C 0.60314 0.08423 0.62351 0.0
C1133 C 0.62737 0.10911 0.62283 0.0
C1134 C 0.63103 0.13065 0.63444 0.0
C1135 C 0.61016 0.12701 0.64648 0.0
C1136 C 0.58615 0.10306 0.647 0.0
C1137 C 0.56698 0.10416 0.66132 0.0
C1138 C 0.54117 0.10019 0.65114 0.0
C1139 C 0.56032 0.08373 0.67727 0.0
C1140 C 0.58411 0.13234 0.66902 0.0
C1141 C 0.60896 0.14523 0.66033 0.0
C1142 C 0.62853 0.17114 0.66564 0.0
C1143 C 0.62247 0.18424 0.68017 0.0
C1144 C 0.597 0.17142 0.68913 0.0
C1145 C 0.57765 0.14516 0.68337 0.0
H1146 H 0.5202 0.63057 0.79462 0.0
H1147 H 0.51867 0.55511 0.79548 0.0
H1148 H 0.48156 0.53813 0.81873 0.0
H1149 H 0.51085 0.63394 0.84469 0.0
H1150 H 0.49013 0.64908 0.84219 0.0
H1151 H 0.51477 0.65439 0.8243 0.0
H1152 H 0.47733 0.63678 0.79772 0.0
H1153 H 0.45253 0.63136 0.81556 0.0
H1154 H 0.44784 0.60431 0.79994 0.0
H1155 H 0.44644 0.5302 0.84305 0.0
H1156 H 0.41658 0.53213 0.86752 0.0
H1157 H 0.44213 0.61346 0.85179 0.0
C1158 C 0.51206 0.61048 0.79971 0.0
C1159 C 0.52258 0.59427 0.79348 0.0
C1160 C 0.51109 0.56794 0.80024 0.0
C1161 C 0.48996 0.5581 0.81337 0.0
C1162 C 0.48052 0.57483 0.81958 0.0
C1163 C 0.49121 0.60047 0.81301 0.0
C1164 C 0.47848 0.61485 0.8228 0.0
C1165 C 0.49983 0.63952 0.83417 0.0
C1166 C 0.46313 0.62225 0.80813 0.0
C1167 C 0.45923 0.59341 0.83611 0.0
C1168 C 0.46051 0.57039 0.83385 0.0
C1169 C 0.44515 0.54806 0.84488 0.0
C1170 C 0.42824 0.54938 0.85876 0.0
C1171 C 0.42696 0.57295 0.86162 0.0
C1172 C 0.44253 0.59512 0.84994 0.0
H1173 H 0.87862 0.4003 0.94511 0.0
H1174 H 0.95126 0.50002 0.94268 0.0
H1175 H 0.92866 0.50792 0.97769 0.0
H1176 H 0.8224 0.41249 0.96946 0.0
H1177 H 0.81069 0.38528 0.98587 0.0
H1178 H 0.82639 0.38428 0.96378 0.0
H1179 H 0.86144 0.37747 0.98319 0.0
H1180 H 0.8455 0.3783 0.00518 0.0
H1181 H 0.88106 0.40095 0.00218 0.0
H1182 H 0.89501 0.49934 0.00805 0.0
H1183 H 0.86789 0.48836 0.03723 0.0
H1184 H 0.82642 0.40472 0.02065 0.0
C1185 C 0.88876 0.42016 0.95139 0.0
C1186 C 0.914 0.44994 0.93804 0.0
C1187 C 0.93488 0.48349 0.94988 0.0
C1188 C 0.91976 0.48844 0.97087 0.0
C1189 C 0.89046 0.46109 0.98078 0.0
C1190 C 0.87612 0.42842 0.9722 0.0
C1191 C 0.85462 0.41127 0.98596 0.0
C1192 C 0.82689 0.39752 0.97565 0.0
C1193 C 0.86104 0.39079 0.99464 0.0
C1194 C 0.85662 0.43172 0.00126 0.0
C1195 C 0.87593 0.45853 0.99805 0.0
C1196 C 0.87998 0.47887 0.01077 0.0
C1197 C 0.86443 0.4724 0.0273 0.0
C1198 C 0.84509 0.44566 0.03118 0.0
C1199 C 0.84114 0.4253 0.01796 0.0
H1200 H 0.42755 0.88685 0.10867 0.0
H1201 H 0.50409 0.88843 0.10611 0.0
H1202 H 0.49497 0.86599 0.13752 0.0
H1203 H 0.4299 0.89989 0.15989 0.0
H1204 H 0.39405 0.87819 0.1625 0.0
H1205 H 0.40704 0.89464 0.14007 0.0
H1206 H 0.38311 0.849 0.12201 0.0
H1207 H 0.37014 0.8324 0.14438 0.0
H1208 H 0.38977 0.82314 0.12941 0.0
H1209 H 0.47624 0.8417 0.16867 0.0
H1210 H 0.45058 0.8194 0.19766 0.0
H1211 H 0.38708 0.83529 0.17984 0.0
C1212 C 0.44251 0.88269 0.11479 0.0
C1213 C 0.46658 0.88944 0.10503 0.0
C1214 C 0.48557 0.88347 0.11344 0.0
C1215 C 0.48054 0.87074 0.13122 0.0
C1216 C 0.4565 0.86425 0.1404 0.0
C1217 C 0.43791 0.87021 0.13252 0.0
C1218 C 0.41359 0.86109 0.14517 0.0
C1219 C 0.41101 0.88487 0.15233 0.0
C1220 C 0.38763 0.84017 0.13461 0.0
C1221 C 0.42128 0.84892 0.1614 0.0
C1222 C 0.44603 0.85081 0.15838 0.0
C1223 C 0.45692 0.84028 0.17123 0.0
C1224 C 0.44216 0.82759 0.18763 0.0
C1225 C 0.41688 0.82571 0.19107 0.0
C1226 C 0.40644 0.8366 0.17773 0.0
H1227 H 0.55277 0.4064 0.28625 0.0
H1228 H 0.58684 0.49179 0.28017 0.0
H1229 H 0.60781 0.49927 0.3122 0.0
H1230 H 0.5387 0.40356 0.33636 0.0
H1231 H 0.54852 0.37919 0.34158 0.0
H1232 H 0.53566 0.38 0.31797 0.0
H1233 H 0.5789 0.38465 0.30267 0.0
H1234 H 0.59182 0.38368 0.32622 0.0
H1235 H 0.61152 0.41123 0.31073 0.0
H1236 H 0.62558 0.49821 0.34449 0.0
H1237 H 0.63949 0.48855 0.37549 0.0
H1238 H 0.59511 0.40398 0.36116 0.0
C1239 C 0.56498 0.42672 0.29145 0.0
C1240 C 0.56863 0.44842 0.28017 0.0
C1241 C 0.58404 0.47465 0.28805 0.0
C1242 C 0.59606 0.47921 0.30637 0.0
C1243 C 0.5925 0.45744 0.3168 0.0
C1244 C 0.57745 0.43172 0.30968 0.0
C1245 C 0.57719 0.41195 0.32389 0.0
C1246 C 0.54829 0.39253 0.33033 0.0
C1247 C 0.59066 0.397 0.31537 0.0
C1248 C 0.59422 0.43067 0.34019 0.0
C1249 C 0.60282 0.4568 0.33569 0.0
C1250 C 0.61902 0.47784 0.3482 0.0
C1251 C 0.62685 0.47209 0.36579 0.0
C1252 C 0.61845 0.44548 0.37079 0.0
C1253 C 0.60177 0.42449 0.3578 0.0
H1254 H 0.39221 0.89727 0.36495 0.0
H1255 H 0.44217 0.87195 0.39487 0.0
H1256 H 0.44552 0.85057 0.36487 0.0
H1257 H 0.35407 0.83865 0.33801 0.0
H1258 H 0.35165 0.85455 0.31657 0.0
H1259 H 0.35582 0.87049 0.33971 0.0
H1260 H 0.39854 0.91255 0.32793 0.0
H1261 H 0.39442 0.89678 0.30468 0.0
H1262 H 0.42584 0.90944 0.31798 0.0
H1263 H 0.44036 0.82894 0.3323 0.0
H1264 H 0.42702 0.80865 0.2997 0.0
H1265 H 0.37992 0.84775 0.29128 0.0
C1266 C 0.40434 0.88772 0.36503 0.0
C1267 C 0.41726 0.88655 0.38212 0.0
C1268 C 0.43243 0.87335 0.38184 0.0
C1269 C 0.43443 0.86116 0.36489 0.0
C1270 C 0.42112 0.86234 0.34835 0.0
C1271 C 0.40646 0.87538 0.34826 0.0
C1272 C 0.3926 0.87228 0.32894 0.0
C1273 C 0.36171 0.85815 0.33094 0.0
C1274 C 0.40351 0.89938 0.31931 0.0
C1275 C 0.4012 0.8549 0.31833 0.0
C1276 C 0.41787 0.84961 0.32968 0.0
C1277 C 0.42753 0.83316 0.3232 0.0
C1278 C 0.4198 0.82169 0.30468 0.0
C1279 C 0.40244 0.8266 0.29289 0.0
C1280 C 0.39331 0.84365 0.29985 0.0
H1281 H 0.51483 0.38175 0.5391 0.0
H1282 H 0.52283 0.46024 0.54347 0.0
H1283 H 0.55611 0.4756 0.51779 0.0
H1284 H 0.58304 0.40232 0.52954 0.0
H1285 H 0.5753 0.37595 0.51226 0.0
H1286 H 0.55215 0.37086 0.53128 0.0
H1287 H 0.51353 0.35817 0.50621 0.0
H1288 H 0.53647 0.36292 0.48711 0.0
H1289 H 0.51818 0.38076 0.48712 0.0
H1290 H 0.59013 0.48321 0.49262 0.0
H1291 H 0.61898 0.4812 0.46728 0.0
H1292 H 0.58611 0.39699 0.47745 0.0
C1293 C 0.52301 0.40207 0.53463 0.0
C1294 C 0.51554 0.41956 0.54347 0.0
C1295 C 0.52777 0.44619 0.53708 0.0
C1296 C 0.54682 0.4552 0.52243 0.0
C1297 C 0.55347 0.43738 0.51411 0.0
C1298 C 0.54163 0.41127 0.51975 0.0
C1299 C 0.55182 0.39596 0.50809 0.0
C1300 C 0.56644 0.38568 0.52107 0.0
C1301 C 0.52862 0.37311 0.49644 0.0
C1302 C 0.5714 0.41766 0.49509 0.0
C1303 C 0.57228 0.44148 0.499 0.0
C1304 C 0.58945 0.46463 0.48931 0.0
C1305 C 0.60586 0.4633 0.47502 0.0
C1306 C 0.6047 0.43892 0.47036 0.0
C1307 C 0.58728 0.41585 0.48061 0.0
H1308 H 0.13674 0.57127 0.70785 0.0
H1309 H 0.13168 0.49437 0.70277 0.0
H1310 H 0.14932 0.50496 0.66977 0.0
H1311 H 0.11599 0.5728 0.65825 0.0
H1312 H 0.13853 0.60813 0.65633 0.0
H1313 H 0.12492 0.59413 0.67933 0.0
H1314 H 0.17345 0.61538 0.69381 0.0
H1315 H 0.18721 0.62936 0.67087 0.0
H1316 H 0.19765 0.60842 0.6827 0.0
H1317 H 0.17045 0.52525 0.63836 0.0
H1318 H 0.19077 0.55256 0.60974 0.0
H1319 H 0.17967 0.61527 0.63464 0.0
C1320 C 0.13918 0.55661 0.69973 0.0
C1321 C 0.13318 0.53214 0.7079 0.0
C1322 C 0.13647 0.51335 0.69681 0.0
C1323 C 0.14639 0.51917 0.67808 0.0
C1324 C 0.15252 0.54367 0.67056 0.0
C1325 C 0.14875 0.56196 0.68095 0.0
C1326 C 0.15701 0.58688 0.66956 0.0
C1327 C 0.13266 0.5907 0.66563 0.0
C1328 C 0.18021 0.61146 0.67985 0.0
C1329 C 0.16641 0.57992 0.65126 0.0
C1330 C 0.16375 0.55495 0.65216 0.0
C1331 C 0.17233 0.5447 0.63738 0.0
C1332 C 0.18392 0.56039 0.62122 0.0
C1333 C 0.18659 0.58592 0.61991 0.0
C1334 C 0.17752 0.59566 0.63511 0.0
H1335 H 0.63141 0.14325 0.86237 0.0
H1336 H 0.54442 0.12738 0.89594 0.0
H1337 H 0.5356 0.15422 0.86417 0.0
H1338 H 0.64384 0.21376 0.83722 0.0
H1339 H 0.65571 0.20705 0.81513 0.0
H1340 H 0.66051 0.19437 0.83746 0.0
H1341 H 0.63555 0.14627 0.82294 0.0
H1342 H 0.63165 0.15946 0.8006 0.0
H1343 H 0.6024 0.13357 0.81216 0.0
H1344 H 0.5369 0.17182 0.82734 0.0
H1345 H 0.5395 0.18584 0.79371 0.0
H1346 H 0.61751 0.19132 0.78846 0.0
C1347 C 0.61489 0.14717 0.86382 0.0
C1348 C 0.58685 0.12863 0.88105 0.0
C1349 C 0.55933 0.13667 0.8849 0.0
C1350 C 0.55348 0.15236 0.86475 0.0
C1351 C 0.57644 0.16366 0.84524 0.0
C1352 C 0.6062 0.16233 0.84488 0.0
C1353 C 0.61905 0.17299 0.82593 0.0
C1354 C 0.64639 0.19855 0.82913 0.0
C1355 C 0.62234 0.15182 0.81476 0.0
C1356 C 0.59835 0.17885 0.81595 0.0
C1357 C 0.57557 0.17381 0.82671 0.0
C1358 C 0.5545 0.17637 0.81896 0.0
C1359 C 0.55608 0.18419 0.79986 0.0
C1360 C 0.5788 0.18978 0.78875 0.0
C1361 C 0.6002 0.18749 0.79696 0.0
H1362 H 0.43615 0.56405 0.05435 0.0
H1363 H 0.51966 0.65876 0.05497 0.0
H1364 H 0.50098 0.66635 0.01788 0.0
H1365 H 0.43879 0.55319 0.00092 0.0
H1366 H 0.40293 0.53514 0.99608 0.0
H1367 H 0.41566 0.53666 0.02014 0.0
H1368 H 0.38525 0.55536 0.03204 0.0
H1369 H 0.37349 0.5544 0.00773 0.0
H1370 H 0.38877 0.58515 0.02149 0.0
H1371 H 0.47362 0.65505 0.98241 0.0
H1372 H 0.44927 0.64123 0.95109 0.0
H1373 H 0.39425 0.56354 0.97362 0.0
C1374 C 0.44719 0.58385 0.04857 0.0
C1375 C 0.48202 0.60887 0.0574 0.0
C1376 C 0.50035 0.64394 0.04885 0.0
C1377 C 0.48928 0.64796 0.02543 0.0
C1378 C 0.4597 0.6211 0.01425 0.0
C1379 C 0.43899 0.59092 0.02531 0.0
C1380 C 0.41746 0.57351 0.01099 0.0
C1381 C 0.41881 0.54815 0.00679 0.0
C1382 C 0.3896 0.56671 0.01851 0.0
C1383 C 0.425 0.59145 0.99327 0.0
C1384 C 0.4475 0.61729 0.99543 0.0
C1385 C 0.45624 0.63531 0.98049 0.0
C1386 C 0.4423 0.62731 0.96278 0.0
C1387 C 0.4201 0.60129 0.96002 0.0
C1388 C 0.4114 0.58346 0.97544 0.0
H1389 H 0.87142 0.35763 0.19688 0.0
H1390 H 0.93963 0.43591 0.21051 0.0
H1391 H 0.92511 0.45503 0.18469 0.0
H1392 H 0.87477 0.36567 0.14529 0.0
H1393 H 0.83862 0.34708 0.14167 0.0
H1394 H 0.854 0.33965 0.1616 0.0
H1395 H 0.82341 0.34691 0.18522 0.0
H1396 H 0.80801 0.35445 0.16537 0.0
H1397 H 0.82339 0.37795 0.18513 0.0
H1398 H 0.90247 0.46585 0.15819 0.0
H1399 H 0.87516 0.46733 0.13106 0.0
H1400 H 0.82311 0.38158 0.13319 0.0
C1401 C 0.8833 0.37879 0.19442 0.0
C1402 C 0.9064 0.39536 0.20596 0.0
C1403 C 0.92158 0.42291 0.20214 0.0
C1404 C 0.91356 0.43394 0.18745 0.0
C1405 C 0.89054 0.41709 0.1765 0.0
C1406 C 0.8758 0.39007 0.17963 0.0
C1407 C 0.85226 0.37627 0.16546 0.0
C1408 C 0.8551 0.35597 0.15275 0.0
C1409 C 0.82517 0.36313 0.17592 0.0
C1410 C 0.85599 0.39982 0.15394 0.0
C1411 C 0.87807 0.42319 0.16067 0.0
C1412 C 0.88524 0.44768 0.1527 0.0
C1413 C 0.86952 0.44831 0.13734 0.0
C1414 C 0.84705 0.42456 0.12997 0.0
C1415 C 0.84027 0.40002 0.13842 0.0
loop_
_geom_bond_atom_site_label_1
_geom_bond_atom_site_label_2
_geom_bond_distance
_geom_bond_site_symmetry_2
_ccdc_geom_bond_type
C0 C1 1.560 . S
C0 H61 0.959 . S
C0 H62 0.959 . S
C0 H63 0.960 . S
C1 C0 1.560 . S
C1 O56 1.426 . S
C1 H60 0.980 . S
C2 C3 1.407 . S
C2 C7 1.418 . S
C2 O56 1.334 . S
C3 C2 1.407 . S
C3 C4 1.360 . S
C3 H64 0.929 . S
C4 C3 1.360 . S
C4 C5 1.401 . S
C4 C8 1.527 . S
C5 C4 1.401 . S
C5 C6 1.405 . S
C5 C38 1.587 . S
C6 C5 1.405 . S
C6 C7 1.332 . S
C6 C9 1.496 . S
C7 C2 1.418 . S
C7 C6 1.332 . S
C7 H65 0.929 . S
C8 C4 1.527 . S
C8 H66 0.959 . S
C8 H67 0.961 . S
C8 H68 0.961 . S
C9 C6 1.496 . S
C9 H69 0.960 . S
C9 H70 0.960 . S
C9 H71 0.961 . S
C10 C11 1.517 . S
C10 H73 0.961 . S
C10 H74 0.960 . S
C10 H75 0.959 . S
C11 C10 1.517 . S
C11 O59 1.468 . S
C11 H72 0.980 . S
C12 C13 1.349 . S
C12 C17 1.367 . S
C12 O59 1.408 . S
C13 C12 1.349 . S
C13 C14 1.407 . S
C13 H76 0.930 . S
C14 C13 1.407 . S
C14 C15 1.449 . S
C14 C18 1.535 . S
C15 C14 1.449 . S
C15 C16 1.384 . S
C15 C40 1.553 1_655 S
C16 C15 1.384 . S
C16 C17 1.364 . S
C16 C19 1.450 . S
C17 C12 1.367 . S
C17 C16 1.364 . S
C17 H77 0.931 . S
C18 C14 1.535 . S
C18 H78 0.959 1_655 S
C18 H79 0.960 1_655 S
C18 H80 0.959 . S
C19 C16 1.450 . S
C19 H81 0.960 . S
C19 H82 0.960 1_655 S
C19 H83 0.960 . S
C20 C21 1.309 . S
C20 C25 1.304 . S
C20 O58 1.435 . S
C21 C20 1.309 . S
C21 C22 1.476 . S
C21 H85 0.930 . S
C22 C21 1.476 . S
C22 C23 1.400 . S
C22 C26 1.567 . S
C23 C22 1.400 . S
C23 C24 1.373 . S
C23 C45 1.432 . S
C24 C23 1.373 . S
C24 C25 1.339 . S
C24 C27 1.530 . S
C25 C20 1.304 . S
C25 C24 1.339 . S
C25 H86 0.930 . S
C26 C22 1.567 . S
C26 H87 0.961 . S
C26 H88 0.960 . S
C26 H89 0.958 . S
C27 C24 1.530 . S
C27 H90 0.961 . S
C27 H91 0.960 . S
C27 H92 0.960 . S
C28 C29 1.530 . S
C28 H94 0.961 . S
C28 H95 0.961 . S
C28 H96 0.959 . S
C29 C28 1.530 . S
C29 O57 1.412 . S
C29 H93 0.980 . S
C30 C31 1.288 . S
C30 C35 1.377 . S
C30 O57 1.393 . S
C31 C30 1.288 . S
C31 C32 1.369 . S
C31 H97 0.932 . S
C32 C31 1.369 . S
C32 C33 1.398 . S
C32 C36 1.527 . S
C33 C32 1.398 . S
C33 C34 1.380 . S
C33 C47 1.497 . S
C34 C33 1.380 . S
C34 C35 1.383 . S
C34 C37 1.603 . S
C35 C30 1.377 . S
C35 C34 1.383 . S
C35 H98 0.929 . S
C36 C32 1.527 . S
C36 H99 0.961 . S
C36 H100 0.929 1_455 S
C36 H101 0.959 . S
C37 C34 1.603 . S
C37 H102 0.960 . S
C37 H103 0.962 . S
C37 H104 0.961 . S
C38 C5 1.587 . S
C38 C39 1.360 . S
C38 C51 1.412 . S
C39 C38 1.360 . S
C39 C40 1.365 . S
C39 H105 0.929 . S
C40 C15 1.553 1_455 S
C40 C39 1.365 . S
C40 C41 1.420 . S
C41 C40 1.420 . S
C41 C42 1.364 1_455 S
C41 C52 1.468 . S
C42 C41 1.364 1_655 S
C42 C43 1.322 . S
C42 H106 0.930 . S
C43 C42 1.322 . S
C43 C44 1.459 . S
C43 H107 0.929 . S
C44 C43 1.459 . S
C44 C45 1.445 . S
C44 C53 1.395 1_655 S
C45 C23 1.432 . S
C45 C44 1.445 . S
C45 C46 1.370 . S
C46 C45 1.370 . S
C46 C47 1.438 1_655 S
C46 H108 0.930 . S
C47 C33 1.497 . S
C47 C46 1.438 1_455 S
C47 C48 1.360 . S
C48 C47 1.360 . S
C48 C49 1.401 . S
C48 C53 1.446 . S
C49 C48 1.401 . S
C49 C50 1.347 . S
C49 H109 0.929 . S
C50 C49 1.347 . S
C50 C51 1.455 . S
C50 H110 0.930 . S
C51 C38 1.412 . S
C51 C50 1.455 . S
C51 C52 1.331 . S
C52 C41 1.468 . S
C52 C51 1.331 . S
C52 C53 1.497 . S
C53 C44 1.395 1_455 S
C53 C48 1.446 . S
C53 C52 1.497 . S
C54 C55 1.582 . S
C54 H111 0.962 . S
C54 H112 0.959 . S
C54 H113 0.958 . S
C55 C54 1.582 . S
C55 O58 1.458 . S
C55 H84 0.980 . S
O56 C1 1.426 . S
O56 C2 1.334 . S
O57 C29 1.412 . S
O57 C30 1.393 . S
O58 C20 1.435 . S
O58 C55 1.458 . S
O59 C11 1.468 . S
O59 C12 1.408 . S
H60 C1 0.980 . S
H61 C0 0.959 . S
H62 C0 0.959 . S
H63 C0 0.960 . S
H64 C3 0.929 . S
H65 C7 0.929 . S
H66 C8 0.959 . S
H67 C8 0.961 . S
H68 C8 0.961 . S
H69 C9 0.960 . S
H70 C9 0.960 . S
H71 C9 0.961 . S
H72 C11 0.980 . S
H73 C10 0.961 . S
H74 C10 0.960 . S
H75 C10 0.959 . S
H76 C13 0.930 . S
H77 C17 0.931 . S
H78 C18 0.959 1_455 S
H79 C18 0.960 1_455 S
H80 C18 0.959 . S
H81 C19 0.960 . S
H82 C19 0.960 1_455 S
H83 C19 0.960 . S
H84 C55 0.980 . S
H85 C21 0.930 . S
H86 C25 0.930 . S
H87 C26 0.961 . S
H88 C26 0.960 . S
H89 C26 0.958 . S
H90 C27 0.961 . S
H91 C27 0.960 . S
H92 C27 0.960 . S
H93 C29 0.980 . S
H94 C28 0.961 . S
H95 C28 0.961 . S
H96 C28 0.959 . S
H97 C31 0.932 . S
H98 C35 0.929 . S
H99 C36 0.961 . S
H100 C36 0.929 1_655 S
H101 C36 0.959 . S
H102 C37 0.960 . S
H103 C37 0.962 . S
H104 C37 0.961 . S
H105 C39 0.929 . S
H106 C42 0.930 . S
H107 C43 0.929 . S
H108 C46 0.930 . S
H109 C49 0.929 . S
H110 C50 0.930 . S
H111 C54 0.962 . S
H112 C54 0.959 . S
H113 C54 0.958 . S
C114 C115 1.560 . S
C114 H175 0.959 . S
C114 H176 0.959 . S
C114 H177 0.960 . S
C115 C114 1.560 . S
C115 O170 1.426 . S
C115 H174 0.980 . S
C116 C117 1.407 . S
C116 C121 1.418 . S
C116 O170 1.334 . S
C117 C116 1.407 . S
C117 C118 1.360 . S
C117 H178 0.929 . S
C118 C117 1.360 . S
C118 C119 1.401 . S
C118 C122 1.527 . S
C119 C118 1.401 . S
C119 C120 1.405 . S
C119 C152 1.587 . S
C120 C119 1.405 . S
C120 C121 1.332 . S
C120 C123 1.496 . S
C121 C116 1.418 . S
C121 C120 1.332 . S
C121 H179 0.929 . S
C122 C118 1.527 . S
C122 H180 0.959 . S
C122 H181 0.961 . S
C122 H182 0.961 . S
C123 C120 1.496 . S
C123 H183 0.960 . S
C123 H184 0.960 . S
C123 H185 0.961 . S
C124 C125 1.517 . S
C124 H187 0.961 . S
C124 H188 0.960 . S
C124 H189 0.959 . S
C125 C124 1.517 . S
C125 O173 1.468 . S
C125 H186 0.980 . S
C126 C127 1.349 . S
C126 C131 1.367 . S
C126 O173 1.408 . S
C127 C126 1.349 . S
C127 C128 1.407 . S
C127 H190 0.930 . S
C128 C127 1.407 . S
C128 C129 1.449 . S
C128 C132 1.535 . S
C129 C128 1.449 . S
C129 C130 1.384 . S
C129 C154 1.553 . S
C130 C129 1.384 . S
C130 C131 1.364 . S
C130 C133 1.450 . S
C131 C126 1.367 . S
C131 C130 1.364 . S
C131 H191 0.931 . S
C132 C128 1.535 . S
C132 H192 0.959 . S
C132 H193 0.961 . S
C132 H194 0.959 . S
C133 C130 1.450 . S
C133 H195 0.960 . S
C133 H196 0.960 . S
C133 H197 0.960 . S
C134 C135 1.309 . S
C134 C139 1.304 . S
C134 O172 1.435 . S
C135 C134 1.309 . S
C135 C136 1.476 . S
C135 H199 0.930 . S
C136 C135 1.476 . S
C136 C137 1.400 . S
C136 C140 1.567 . S
C137 C136 1.400 . S
C137 C138 1.373 . S
C137 C159 1.432 . S
C138 C137 1.373 . S
C138 C139 1.339 . S
C138 C141 1.530 . S
C139 C134 1.304 . S
C139 C138 1.339 . S
C139 H200 0.930 . S
C140 C136 1.567 . S
C140 H201 0.961 . S
C140 H202 0.960 . S
C140 H203 0.958 . S
C141 C138 1.530 . S
C141 H204 0.961 . S
C141 H205 0.960 . S
C141 H206 0.960 . S
C142 C143 1.530 . S
C142 H208 0.961 . S
C142 H209 0.961 . S
C142 H210 0.959 . S
C143 C142 1.530 . S
C143 O171 1.412 . S
C143 H207 0.980 . S
C144 C145 1.288 . S
C144 C149 1.377 . S
C144 O171 1.393 . S
C145 C144 1.288 . S
C145 C146 1.369 . S
C145 H211 0.932 . S
C146 C145 1.369 . S
C146 C147 1.398 . S
C146 C150 1.527 . S
C147 C146 1.398 . S
C147 C148 1.380 . S
C147 C161 1.515 . S
C148 C147 1.380 . S
C148 C149 1.383 . S
C148 C151 1.603 . S
C149 C144 1.377 . S
C149 C148 1.383 . S
C149 H212 0.929 . S
C150 C146 1.527 . S
C150 H213 0.961 . S
C150 H214 0.959 1_565 S
C150 H215 0.959 . S
C151 C148 1.603 . S
C151 H216 0.960 . S
C151 H217 0.962 . S
C151 H218 0.961 . S
C152 C119 1.587 . S
C152 C153 1.360 . S
C152 C165 1.412 . S
C153 C152 1.360 . S
C153 C154 1.365 1_565 S
C153 H219 0.929 . S
C154 C129 1.553 . S
C154 C153 1.365 1_545 S
C154 C155 1.404 . S
C155 C154 1.404 . S
C155 C156 1.395 . S
C155 C166 1.451 1_545 S
C156 C155 1.395 . S
C156 C157 1.322 . S
C156 H220 0.930 . S
C157 C156 1.322 . S
C157 C158 1.459 . S
C157 H221 0.929 . S
C158 C157 1.459 . S
C158 C159 1.445 . S
C158 C167 1.395 . S
C159 C137 1.432 . S
C159 C158 1.445 . S
C159 C160 1.370 . S
C160 C159 1.370 . S
C160 C161 1.400 1_545 S
C160 H222 0.930 . S
C161 C147 1.515 . S
C161 C160 1.400 1_565 S
C161 C162 1.379 . S
C162 C161 1.379 . S
C162 C163 1.401 . S
C162 C167 1.446 1_565 S
C163 C162 1.401 . S
C163 C164 1.347 . S
C163 H223 0.929 . S
C164 C163 1.347 . S
C164 C165 1.455 . S
C164 H224 0.930 . S
C165 C152 1.412 . S
C165 C164 1.455 . S
C165 C166 1.331 . S
C166 C155 1.451 1_565 S
C166 C165 1.331 . S
C166 C167 1.497 1_565 S
C167 C158 1.395 . S
C167 C162 1.446 1_545 S
C167 C166 1.497 1_545 S
C168 C169 1.582 . S
C168 H225 0.962 . S
C168 H226 0.959 . S
C168 H227 0.958 . S
C169 C168 1.582 . S
C169 O172 1.458 . S
C169 H198 0.980 . S
O170 C115 1.426 . S
O170 C116 1.334 . S
O171 C143 1.412 . S
O171 C144 1.393 . S
O172 C134 1.435 . S
O172 C169 1.458 . S
O173 C125 1.468 . S
O173 C126 1.408 . S
H174 C115 0.980 . S
H175 C114 0.959 . S
H176 C114 0.959 . S
H177 C114 0.960 . S
H178 C117 0.929 . S
H179 C121 0.929 . S
H180 C122 0.959 . S
H181 C122 0.961 . S
H182 C122 0.961 . S
H183 C123 0.960 . S
H184 C123 0.960 . S
H185 C123 0.961 . S
H186 C125 0.980 . S
H187 C124 0.961 . S
H188 C124 0.960 . S
H189 C124 0.959 . S
H190 C127 0.930 . S
H191 C131 0.931 . S
H192 C132 0.959 . S
H193 C132 0.961 . S
H194 C132 0.959 . S
H195 C133 0.960 . S
H196 C133 0.960 . S
H197 C133 0.960 . S
H198 C169 0.980 . S
H199 C135 0.930 . S
H200 C139 0.930 . S
H201 C140 0.961 . S
H202 C140 0.960 . S
H203 C140 0.958 . S
H204 C141 0.961 . S
H205 C141 0.960 . S
H206 C141 0.960 . S
H207 C143 0.980 . S
H208 C142 0.961 . S
H209 C142 0.961 . S
H210 C142 0.959 . S
H211 C145 0.932 . S
H212 C149 0.929 . S
H213 C150 0.961 . S
H214 C150 0.959 1_545 S
H215 C150 0.959 . S
H216 C151 0.960 . S
H217 C151 0.962 . S
H218 C151 0.961 . S
H219 C153 0.929 . S
H220 C156 0.930 . S
H221 C157 0.929 . S
H222 C160 0.930 . S
H223 C163 0.929 . S
H224 C164 0.930 . S
H225 C168 0.962 . S
H226 C168 0.959 . S
H227 C168 0.958 . S
C228 C229 1.560 . S
C228 H289 0.959 . S
C228 H290 0.959 . S
C228 H291 0.960 . S
C229 C228 1.560 . S
C229 O284 1.426 . S
C229 H288 0.980 . S
C230 C231 1.407 . S
C230 C235 1.418 . S
C230 O284 1.334 . S
C231 C230 1.407 . S
C231 C232 1.360 . S
C231 H292 0.929 . S
C232 C231 1.360 . S
C232 C233 1.401 . S
C232 C236 1.527 . S
C233 C232 1.401 . S
C233 C234 1.405 . S
C233 C266 1.587 . S
C234 C233 1.405 . S
C234 C235 1.332 . S
C234 C237 1.496 . S
C235 C230 1.418 . S
C235 C234 1.332 . S
C235 H293 0.929 . S
C236 C232 1.527 . S
C236 H294 0.959 . S
C236 H295 0.961 . S
C236 H296 0.961 . S
C237 C234 1.496 . S
C237 H297 0.960 . S
C237 H298 0.960 . S
C237 H299 0.961 . S
C238 C239 1.517 . S
C238 H301 0.961 . S
C238 H302 0.960 . S
C238 H303 0.959 . S
C239 C238 1.517 . S
C239 O287 1.468 . S
C239 H300 0.980 . S
C240 C241 1.349 . S
C240 C245 1.367 . S
C240 O287 1.408 . S
C241 C240 1.349 . S
C241 C242 1.407 . S
C241 H304 0.930 . S
C242 C241 1.407 . S
C242 C243 1.449 . S
C242 C246 1.535 . S
C243 C242 1.449 . S
C243 C244 1.384 . S
C243 C268 1.553 . S
C244 C243 1.384 . S
C244 C245 1.364 . S
C244 C247 1.450 . S
C245 C240 1.367 . S
C245 C244 1.364 . S
C245 H305 0.931 . S
C246 C242 1.535 . S
C246 H306 0.959 . S
C246 H307 0.961 . S
C246 H308 0.959 . S
C247 C244 1.450 . S
C247 H309 0.960 . S
C247 H310 0.960 . S
C247 H311 0.960 . S
C248 C249 1.309 . S
C248 C253 1.304 . S
C248 O286 1.435 . S
C249 C248 1.309 . S
C249 C250 1.476 . S
C249 H313 0.930 . S
C250 C249 1.476 . S
C250 C251 1.400 . S
C250 C254 1.567 . S
C251 C250 1.400 . S
C251 C252 1.373 . S
C251 C273 1.432 . S
C252 C251 1.373 . S
C252 C253 1.339 . S
C252 C255 1.530 . S
C253 C248 1.304 . S
C253 C252 1.339 . S
C253 H314 0.930 . S
C254 C250 1.567 . S
C254 H315 0.961 . S
C254 H316 0.960 . S
C254 H317 0.958 . S
C255 C252 1.530 . S
C255 H318 0.961 . S
C255 H319 0.960 . S
C255 H320 0.960 . S
C256 C257 1.530 . S
C256 H322 0.961 . S
C256 H323 0.961 . S
C256 H324 0.959 . S
C257 C256 1.530 . S
C257 O285 1.412 . S
C257 H321 0.980 . S
C258 C259 1.288 . S
C258 C263 1.377 . S
C258 O285 1.393 . S
C259 C258 1.288 . S
C259 C260 1.369 . S
C259 H325 0.932 . S
C260 C259 1.369 . S
C260 C261 1.398 . S
C260 C264 1.527 . S
C261 C260 1.398 . S
C261 C262 1.380 . S
C261 C275 1.497 . S
C262 C261 1.380 . S
C262 C263 1.383 . S
C262 C265 1.603 . S
C263 C258 1.377 . S
C263 C262 1.383 . S
C263 H326 0.929 . S
C264 C260 1.527 . S
C264 H327 0.961 . S
C264 H328 0.959 . S
C264 H329 0.959 . S
C265 C262 1.603 . S
C265 H330 0.960 . S
C265 H331 0.962 . S
C265 H332 0.961 . S
C266 C233 1.587 . S
C266 C267 1.360 . S
C266 C279 1.412 . S
C267 C266 1.360 . S
C267 C268 1.365 . S
C267 H333 0.929 . S
C268 C243 1.553 . S
C268 C267 1.365 . S
C268 C269 1.404 . S
C269 C268 1.404 . S
C269 C270 1.395 . S
C269 C280 1.451 . S
C270 C269 1.395 . S
C270 C271 1.322 . S
C270 H334 0.930 . S
C271 C270 1.322 . S
C271 C272 1.459 . S
C271 H335 0.929 . S
C272 C271 1.459 . S
C272 C273 1.445 . S
C272 C281 1.395 . S
C273 C251 1.432 . S
C273 C272 1.445 . S
C273 C274 1.370 . S
C274 C273 1.370 . S
C274 C275 1.438 . S
C274 H336 0.930 . S
C275 C261 1.497 . S
C275 C274 1.438 . S
C275 C276 1.360 . S
C276 C275 1.360 . S
C276 C277 1.401 . S
C276 C281 1.446 . S
C277 C276 1.401 . S
C277 C278 1.347 . S
C277 H337 0.929 . S
C278 C277 1.347 . S
C278 C279 1.455 . S
C278 H338 0.930 . S
C279 C266 1.412 . S
C279 C278 1.455 . S
C279 C280 1.331 . S
C280 C269 1.451 . S
C280 C279 1.331 . S
C280 C281 1.497 . S
C281 C272 1.395 . S
C281 C276 1.446 . S
C281 C280 1.497 . S
C282 C283 1.582 . S
C282 H339 0.962 . S
C282 H340 0.959 . S
C282 H341 0.958 . S
C283 C282 1.582 . S
C283 O286 1.458 . S
C283 H312 0.980 . S
O284 C229 1.426 . S
O284 C230 1.334 . S
O285 C257 1.412 . S
O285 C258 1.393 . S
O286 C248 1.435 . S
O286 C283 1.458 . S
O287 C239 1.468 . S
O287 C240 1.408 . S
H288 C229 0.980 . S
H289 C228 0.959 . S
H290 C228 0.959 . S
H291 C228 0.960 . S
H292 C231 0.929 . S
H293 C235 0.929 . S
H294 C236 0.959 . S
H295 C236 0.961 . S
H296 C236 0.961 . S
H297 C237 0.960 . S
H298 C237 0.960 . S
H299 C237 0.961 . S
H300 C239 0.980 . S
H301 C238 0.961 . S
H302 C238 0.960 . S
H303 C238 0.959 . S
H304 C241 0.930 . S
H305 C245 0.931 . S
H306 C246 0.959 . S
H307 C246 0.961 . S
H308 C246 0.959 . S
H309 C247 0.960 . S
H310 C247 0.960 . S
H311 C247 0.960 . S
H312 C283 0.980 . S
H313 C249 0.930 . S
H314 C253 0.930 . S
H315 C254 0.961 . S
H316 C254 0.960 . S
H317 C254 0.958 . S
H318 C255 0.961 . S
H319 C255 0.960 . S
H320 C255 0.960 . S
H321 C257 0.980 . S
H322 C256 0.961 . S
H323 C256 0.961 . S
H324 C256 0.959 . S
H325 C259 0.932 . S
H326 C263 0.929 . S
H327 C264 0.961 . S
H328 C264 0.959 . S
H329 C264 0.959 . S
H330 C265 0.960 . S
H331 C265 0.962 . S
H332 C265 0.961 . S
H333 C267 0.929 . S
H334 C270 0.930 . S
H335 C271 0.929 . S
H336 C274 0.930 . S
H337 C277 0.929 . S
H338 C278 0.930 . S
H339 C282 0.962 . S
H340 C282 0.959 . S
H341 C282 0.958 . S
C342 C343 1.560 . S
C342 H403 0.959 . S
C342 H404 0.959 . S
C342 H405 0.960 . S
C343 C342 1.560 . S
C343 O398 1.426 . S
C343 H402 0.980 . S
C344 C345 1.407 . S
C344 C349 1.418 . S
C344 O398 1.334 . S
C345 C344 1.407 . S
C345 C346 1.360 . S
C345 H406 0.929 . S
C346 C345 1.360 . S
C346 C347 1.401 . S
C346 C350 1.527 . S
C347 C346 1.401 . S
C347 C348 1.405 . S
C347 C380 1.587 . S
C348 C347 1.405 . S
C348 C349 1.332 . S
C348 C351 1.496 . S
C349 C344 1.418 . S
C349 C348 1.332 . S
C349 H407 0.929 . S
C350 C346 1.527 . S
C350 H408 0.959 . S
C350 H409 0.961 . S
C350 H410 0.961 . S
C351 C348 1.496 . S
C351 H411 0.960 . S
C351 H412 0.960 . S
C351 H413 0.961 . S
C352 C353 1.517 . S
C352 H415 0.961 . S
C352 H416 0.960 . S
C352 H417 0.959 . S
C353 C352 1.517 . S
C353 O401 1.468 . S
C353 H414 0.980 . S
C354 C355 1.349 . S
C354 C359 1.367 . S
C354 O401 1.408 . S
C355 C354 1.349 . S
C355 C356 1.407 . S
C355 H418 0.930 . S
C356 C355 1.407 . S
C356 C357 1.441 . S
C356 C360 1.514 1_655 S
C357 C356 1.441 . S
C357 C358 1.421 . S
C357 C382 1.526 1_655 S
C358 C357 1.421 . S
C358 C359 1.364 . S
C358 C361 1.450 . S
C359 C354 1.367 . S
C359 C358 1.364 . S
C359 H419 0.931 . S
C360 C356 1.514 1_455 S
C360 H420 0.977 . S
C360 H421 0.977 . S
C360 H422 0.947 1_455 S
C361 C358 1.450 . S
C361 H423 0.960 . S
C361 H424 0.960 1_655 S
C361 H425 0.960 . S
C362 C363 1.309 . S
C362 C367 1.304 . S
C362 O400 1.435 . S
C363 C362 1.309 . S
C363 C364 1.476 . S
C363 H427 0.930 . S
C364 C363 1.476 . S
C364 C365 1.400 . S
C364 C368 1.567 . S
C365 C364 1.400 . S
C365 C366 1.373 . S
C365 C387 1.432 . S
C366 C365 1.373 . S
C366 C367 1.339 . S
C366 C369 1.530 . S
C367 C362 1.304 . S
C367 C366 1.339 . S
C367 H428 0.930 . S
C368 C364 1.567 . S
C368 H429 0.961 . S
C368 H430 0.960 . S
C368 H431 0.958 . S
C369 C366 1.530 . S
C369 H432 0.961 . S
C369 H433 0.960 . S
C369 H434 0.960 . S
C370 C371 1.530 . S
C370 H436 0.961 . S
C370 H437 0.961 . S
C370 H438 0.959 . S
C371 C370 1.530 . S
C371 O399 1.412 . S
C371 H435 0.980 . S
C372 C373 1.288 . S
C372 C377 1.377 . S
C372 O399 1.393 . S
C373 C372 1.288 . S
C373 C374 1.369 . S
C373 H439 0.932 . S
C374 C373 1.369 . S
C374 C375 1.398 . S
C374 C378 1.527 . S
C375 C374 1.398 . S
C375 C376 1.380 . S
C375 C389 1.497 . S
C376 C375 1.380 . S
C376 C377 1.383 . S
C376 C379 1.603 . S
C377 C372 1.377 . S
C377 C376 1.383 . S
C377 H440 0.929 . S
C378 C374 1.527 . S
C378 H441 0.961 . S
C378 H442 0.959 . S
C378 H443 0.959 . S
C379 C376 1.603 . S
C379 H444 0.960 . S
C379 H445 0.962 . S
C379 H446 0.961 . S
C380 C347 1.587 . S
C380 C381 1.360 . S
C380 C393 1.412 . S
C381 C380 1.360 . S
C381 C382 1.365 . S
C381 H447 0.929 . S
C382 C357 1.526 1_455 S
C382 C381 1.365 . S
C382 C383 1.404 . S
C383 C382 1.404 . S
C383 C384 1.395 1_455 S
C383 C394 1.451 . S
C384 C383 1.395 1_655 S
C384 C385 1.322 . S
C384 H448 0.930 . S
C385 C384 1.322 . S
C385 C386 1.459 . S
C385 H449 0.929 . S
C386 C385 1.459 . S
C386 C387 1.445 . S
C386 C395 1.395 1_655 S
C387 C365 1.432 . S
C387 C386 1.445 . S
C387 C388 1.370 . S
C388 C387 1.370 . S
C388 C389 1.438 1_655 S
C388 H450 0.930 . S
C389 C375 1.497 . S
C389 C388 1.438 1_455 S
C389 C390 1.360 . S
C390 C389 1.360 . S
C390 C391 1.401 . S
C390 C395 1.446 . S
C391 C390 1.401 . S
C391 C392 1.347 . S
C391 H451 0.929 . S
C392 C391 1.347 . S
C392 C393 1.455 . S
C392 H452 0.930 . S
C393 C380 1.412 . S
C393 C392 1.455 . S
C393 C394 1.331 . S
C394 C383 1.451 . S
C394 C393 1.331 . S
C394 C395 1.497 . S
C395 C386 1.395 1_455 S
C395 C390 1.446 . S
C395 C394 1.497 . S
C396 C397 1.582 . S
C396 H453 0.962 . S
C396 H454 0.959 . S
C396 H455 0.958 . S
C397 C396 1.582 . S
C397 O400 1.458 . S
C397 H426 0.980 . S
O398 C343 1.426 . S
O398 C344 1.334 . S
O399 C371 1.412 . S
O399 C372 1.393 . S
O400 C362 1.435 . S
O400 C397 1.458 . S
O401 C353 1.468 . S
O401 C354 1.408 . S
H402 C343 0.980 . S
H403 C342 0.959 . S
H404 C342 0.959 . S
H405 C342 0.960 . S
H406 C345 0.929 . S
H407 C349 0.929 . S
H408 C350 0.959 . S
H409 C350 0.961 . S
H410 C350 0.961 . S
H411 C351 0.960 . S
H412 C351 0.960 . S
H413 C351 0.961 . S
H414 C353 0.980 . S
H415 C352 0.961 . S
H416 C352 0.960 . S
H417 C352 0.959 . S
H418 C355 0.930 . S
H419 C359 0.931 . S
H420 C360 0.977 . S
H421 C360 0.977 . S
H422 C360 0.947 1_655 S
H423 C361 0.960 . S
H424 C361 0.960 1_455 S
H425 C361 0.960 . S
H426 C397 0.980 . S
H427 C363 0.930 . S
H428 C367 0.930 . S
H429 C368 0.961 . S
H430 C368 0.960 . S
H431 C368 0.958 . S
H432 C369 0.961 . S
H433 C369 0.960 . S
H434 C369 0.960 . S
H435 C371 0.980 . S
H436 C370 0.961 . S
H437 C370 0.961 . S
H438 C370 0.959 . S
H439 C373 0.932 . S
H440 C377 0.929 . S
H441 C378 0.961 . S
H442 C378 0.959 . S
H443 C378 0.959 . S
H444 C379 0.960 . S
H445 C379 0.962 . S
H446 C379 0.961 . S
H447 C381 0.929 . S
H448 C384 0.930 . S
H449 C385 0.929 . S
H450 C388 0.930 . S
H451 C391 0.929 . S
H452 C392 0.930 . S
H453 C396 0.962 . S
H454 C396 0.959 . S
H455 C396 0.958 . S
C456 C457 1.560 . S
C456 H517 0.959 . S
C456 H518 0.959 . S
C456 H519 0.960 . S
C457 C456 1.560 . S
C457 O512 1.426 . S
C457 H516 0.980 . S
C458 C459 1.407 . S
C458 C463 1.418 . S
C458 O512 1.334 . S
C459 C458 1.407 . S
C459 C460 1.360 . S
C459 H520 0.929 . S
C460 C459 1.360 . S
C460 C461 1.401 . S
C460 C464 1.527 . S
C461 C460 1.401 . S
C461 C462 1.405 . S
C461 C494 1.587 . S
C462 C461 1.405 . S
C462 C463 1.332 . S
C462 C465 1.496 . S
C463 C458 1.418 . S
C463 C462 1.332 . S
C463 H521 0.929 . S
C464 C460 1.527 . S
C464 H522 0.959 . S
C464 H523 0.961 . S
C464 H524 0.961 . S
C465 C462 1.496 . S
C465 H525 0.960 . S
C465 H526 0.960 . S
C465 H527 0.961 . S
C466 C467 1.517 . S
C466 H529 0.961 . S
C466 H530 0.960 . S
C466 H531 0.959 . S
C467 C466 1.517 . S
C467 O515 1.468 . S
C467 H528 0.980 . S
C468 C469 1.349 . S
C468 C473 1.367 . S
C468 O515 1.408 . S
C469 C468 1.349 . S
C469 C470 1.407 . S
C469 H532 0.930 . S
C470 C469 1.407 . S
C470 C471 1.449 . S
C470 C474 1.535 . S
C471 C470 1.449 . S
C471 C472 1.384 . S
C471 C496 1.553 . S
C472 C471 1.384 . S
C472 C473 1.364 . S
C472 C475 1.450 . S
C473 C468 1.367 . S
C473 C472 1.364 . S
C473 H533 0.931 . S
C474 C470 1.535 . S
C474 H534 0.959 . S
C474 H535 0.961 . S
C474 H536 0.959 . S
C475 C472 1.450 . S
C475 H537 0.960 . S
C475 H538 0.960 . S
C475 H539 0.960 . S
C476 C477 1.309 . S
C476 C481 1.304 . S
C476 O514 1.435 . S
C477 C476 1.309 . S
C477 C478 1.476 . S
C477 H541 0.930 . S
C478 C477 1.476 . S
C478 C479 1.400 . S
C478 C482 1.567 . S
C479 C478 1.400 . S
C479 C480 1.373 . S
C479 C501 1.432 . S
C480 C479 1.373 . S
C480 C481 1.339 . S
C480 C483 1.530 . S
C481 C476 1.304 . S
C481 C480 1.339 . S
C481 H542 0.930 . S
C482 C478 1.567 . S
C482 H543 0.961 . S
C482 H544 0.960 . S
C482 H545 0.958 . S
C483 C480 1.530 . S
C483 H546 0.961 . S
C483 H547 0.960 . S
C483 H548 0.960 . S
C484 C485 1.530 . S
C484 H550 0.961 . S
C484 H551 0.961 . S
C484 H552 0.959 . S
C485 C484 1.530 . S
C485 O513 1.412 . S
C485 H549 0.980 . S
C486 C487 1.288 . S
C486 C491 1.377 . S
C486 O513 1.393 . S
C487 C486 1.288 . S
C487 C488 1.369 . S
C487 H553 0.932 . S
C488 C487 1.369 . S
C488 C489 1.398 . S
C488 C492 1.525 1_565 S
C489 C488 1.398 . S
C489 C490 1.380 . S
C489 C503 1.497 1_565 S
C490 C489 1.380 . S
C490 C491 1.383 . S
C490 C493 1.603 . S
C491 C486 1.377 . S
C491 C490 1.383 . S
C491 H554 0.929 . S
C492 C488 1.525 1_545 S
C492 H555 0.961 1_545 S
C492 H556 0.997 . S
C492 H557 0.926 1_545 S
C493 C490 1.603 . S
C493 H558 0.960 . S
C493 H559 0.962 . S
C493 H560 0.961 . S
C494 C461 1.587 . S
C494 C495 1.360 . S
C494 C507 1.412 . S
C495 C494 1.360 . S
C495 C496 1.365 1_565 S
C495 H561 0.929 . S
C496 C471 1.553 . S
C496 C495 1.365 1_545 S
C496 C497 1.404 . S
C497 C496 1.404 . S
C497 C498 1.395 . S
C497 C508 1.451 1_545 S
C498 C497 1.395 . S
C498 C499 1.322 . S
C498 H562 0.930 . S
C499 C498 1.322 . S
C499 C500 1.459 . S
C499 H563 0.929 . S
C500 C499 1.459 . S
C500 C501 1.445 1_556 S
C500 C509 1.395 . S
C501 C479 1.432 . S
C501 C500 1.445 1_554 S
C501 C502 1.370 . S
C502 C501 1.370 . S
C502 C503 1.438 . S
C502 H564 0.930 . S
C503 C489 1.497 1_545 S
C503 C502 1.438 . S
C503 C504 1.360 1_545 S
C504 C503 1.360 1_565 S
C504 C505 1.401 . S
C504 C509 1.446 1_564 S
C505 C504 1.401 . S
C505 C506 1.347 1_554 S
C505 H565 0.929 . S
C506 C505 1.347 1_556 S
C506 C507 1.455 . S
C506 H566 0.930 . S
C507 C494 1.412 . S
C507 C506 1.455 . S
C507 C508 1.331 . S
C508 C497 1.451 1_565 S
C508 C507 1.331 . S
C508 C509 1.497 1_565 S
C509 C500 1.395 . S
C509 C504 1.446 1_546 S
C509 C508 1.497 1_545 S
C510 C511 1.582 . S
C510 H567 0.962 . S
C510 H568 0.959 . S
C510 H569 0.958 . S
C511 C510 1.582 . S
C511 O514 1.458 . S
C511 H540 0.980 . S
O512 C457 1.426 . S
O512 C458 1.334 . S
O513 C485 1.412 . S
O513 C486 1.393 . S
O514 C476 1.435 . S
O514 C511 1.458 . S
O515 C467 1.468 . S
O515 C468 1.408 . S
H516 C457 0.980 . S
H517 C456 0.959 . S
H518 C456 0.959 . S
H519 C456 0.960 . S
H520 C459 0.929 . S
H521 C463 0.929 . S
H522 C464 0.959 . S
H523 C464 0.961 . S
H524 C464 0.961 . S
H525 C465 0.960 . S
H526 C465 0.960 . S
H527 C465 0.961 . S
H528 C467 0.980 . S
H529 C466 0.961 . S
H530 C466 0.960 . S
H531 C466 0.959 . S
H532 C469 0.930 . S
H533 C473 0.931 . S
H534 C474 0.959 . S
H535 C474 0.961 . S
H536 C474 0.959 . S
H537 C475 0.960 . S
H538 C475 0.960 . S
H539 C475 0.960 . S
H540 C511 0.980 . S
H541 C477 0.930 . S
H542 C481 0.930 . S
H543 C482 0.961 . S
H544 C482 0.960 . S
H545 C482 0.958 . S
H546 C483 0.961 . S
H547 C483 0.960 . S
H548 C483 0.960 . S
H549 C485 0.980 . S
H550 C484 0.961 . S
H551 C484 0.961 . S
H552 C484 0.959 . S
H553 C487 0.932 . S
H554 C491 0.929 . S
H555 C492 0.961 1_565 S
H556 C492 0.997 . S
H557 C492 0.926 1_565 S
H558 C493 0.960 . S
H559 C493 0.962 . S
H560 C493 0.961 . S
H561 C495 0.929 . S
H562 C498 0.930 . S
H563 C499 0.929 . S
H564 C502 0.930 . S
H565 C505 0.929 . S
H566 C506 0.930 . S
H567 C510 0.962 . S
H568 C510 0.959 . S
H569 C510 0.958 . S
C570 C571 1.560 . S
C570 H631 0.959 . S
C570 H632 0.959 . S
C570 H633 0.960 . S
C571 C570 1.560 . S
C571 O626 1.426 . S
C571 H630 0.980 . S
C572 C573 1.407 . S
C572 C577 1.418 . S
C572 O626 1.334 . S
C573 C572 1.407 . S
C573 C574 1.360 . S
C573 H634 0.929 . S
C574 C573 1.360 . S
C574 C575 1.401 . S
C574 C578 1.527 . S
C575 C574 1.401 . S
C575 C576 1.405 . S
C575 C608 1.587 . S
C576 C575 1.405 . S
C576 C577 1.332 . S
C576 C579 1.496 . S
C577 C572 1.418 . S
C577 C576 1.332 . S
C577 H635 0.929 . S
C578 C574 1.527 . S
C578 H636 0.959 . S
C578 H637 0.961 . S
C578 H638 0.961 . S
C579 C576 1.496 . S
C579 H639 0.960 . S
C579 H640 0.960 . S
C579 H641 0.961 . S
C580 C581 1.517 . S
C580 H643 0.961 . S
C580 H644 0.960 . S
C580 H645 0.959 . S
C581 C580 1.517 . S
C581 O629 1.468 . S
C581 H642 0.980 . S
C582 C583 1.349 . S
C582 C587 1.367 . S
C582 O629 1.408 . S
C583 C582 1.349 . S
C583 C584 1.407 . S
C583 H646 0.930 . S
C584 C583 1.407 . S
C584 C585 1.449 . S
C584 C588 1.535 . S
C585 C584 1.449 . S
C585 C586 1.384 . S
C585 C610 1.553 . S
C586 C585 1.384 . S
C586 C587 1.364 . S
C586 C589 1.450 . S
C587 C582 1.367 . S
C587 C586 1.364 . S
C587 H647 0.931 . S
C588 C584 1.535 . S
C588 H648 0.959 . S
C588 H649 0.961 . S
C588 H650 0.959 . S
C589 C586 1.450 . S
C589 H651 0.960 . S
C589 H652 0.960 . S
C589 H653 0.960 . S
C590 C591 1.309 . S
C590 C595 1.304 . S
C590 O628 1.435 . S
C591 C590 1.309 . S
C591 C592 1.476 . S
C591 H655 0.930 . S
C592 C591 1.476 . S
C592 C593 1.400 . S
C592 C596 1.567 . S
C593 C592 1.400 . S
C593 C594 1.373 . S
C593 C615 1.432 . S
C594 C593 1.373 . S
C594 C595 1.339 . S
C594 C597 1.530 . S
C595 C590 1.304 . S
C595 C594 1.339 . S
C595 H656 0.930 . S
C596 C592 1.567 . S
C596 H657 0.961 . S
C596 H658 0.960 . S
C596 H659 0.958 . S
C597 C594 1.530 . S
C597 H660 0.961 . S
C597 H661 0.960 . S
C597 H662 0.960 . S
C598 C599 1.530 . S
C598 H664 0.961 . S
C598 H665 0.961 . S
C598 H666 0.959 . S
C599 C598 1.530 . S
C599 O627 1.412 . S
C599 H663 0.980 . S
C600 C601 1.288 . S
C600 C605 1.377 . S
C600 O627 1.393 . S
C601 C600 1.288 . S
C601 C602 1.369 . S
C601 H667 0.932 . S
C602 C601 1.369 . S
C602 C603 1.398 . S
C602 C606 1.527 . S
C603 C602 1.398 . S
C603 C604 1.380 . S
C603 C617 1.497 . S
C604 C603 1.380 . S
C604 C605 1.383 . S
C604 C607 1.603 . S
C605 C600 1.377 . S
C605 C604 1.383 . S
C605 H668 0.929 . S
C606 C602 1.527 . S
C606 H669 0.961 . S
C606 H670 0.959 . S
C606 H671 0.959 . S
C607 C604 1.603 . S
C607 H672 0.960 . S
C607 H673 0.962 . S
C607 H674 0.961 . S
C608 C575 1.587 . S
C608 C609 1.360 . S
C608 C621 1.412 . S
C609 C608 1.360 . S
C609 C610 1.365 . S
C609 H675 0.929 . S
C610 C585 1.553 . S
C610 C609 1.365 . S
C610 C611 1.404 . S
C611 C610 1.404 . S
C611 C612 1.395 . S
C611 C622 1.451 . S
C612 C611 1.395 . S
C612 C613 1.322 . S
C612 H676 0.930 . S
C613 C612 1.322 . S
C613 C614 1.459 . S
C613 H677 0.929 . S
C614 C613 1.459 . S
C614 C615 1.445 . S
C614 C623 1.395 . S
C615 C593 1.432 . S
C615 C614 1.445 . S
C615 C616 1.370 . S
C616 C615 1.370 . S
C616 C617 1.438 . S
C616 H678 0.930 . S
C617 C603 1.497 . S
C617 C616 1.438 . S
C617 C618 1.360 . S
C618 C617 1.360 . S
C618 C619 1.401 . S
C618 C623 1.446 . S
C619 C618 1.401 . S
C619 C620 1.347 . S
C619 H679 0.929 . S
C620 C619 1.347 . S
C620 C621 1.455 . S
C620 H680 0.930 . S
C621 C608 1.412 . S
C621 C620 1.455 . S
C621 C622 1.331 . S
C622 C611 1.451 . S
C622 C621 1.331 . S
C622 C623 1.497 . S
C623 C614 1.395 . S
C623 C618 1.446 . S
C623 C622 1.497 . S
C624 C625 1.582 . S
C624 H681 0.962 . S
C624 H682 0.959 . S
C624 H683 0.958 . S
C625 C624 1.582 . S
C625 O628 1.458 . S
C625 H654 0.980 . S
O626 C571 1.426 . S
O626 C572 1.334 . S
O627 C599 1.412 . S
O627 C600 1.393 . S
O628 C590 1.435 . S
O628 C625 1.458 . S
O629 C581 1.468 . S
O629 C582 1.408 . S
H630 C571 0.980 . S
H631 C570 0.959 . S
H632 C570 0.959 . S
H633 C570 0.960 . S
H634 C573 0.929 . S
H635 C577 0.929 . S
H636 C578 0.959 . S
H637 C578 0.961 . S
H638 C578 0.961 . S
H639 C579 0.960 . S
H640 C579 0.960 . S
H641 C579 0.961 . S
H642 C581 0.980 . S
H643 C580 0.961 . S
H644 C580 0.960 . S
H645 C580 0.959 . S
H646 C583 0.930 . S
H647 C587 0.931 . S
H648 C588 0.959 . S
H649 C588 0.961 . S
H650 C588 0.959 . S
H651 C589 0.960 . S
H652 C589 0.960 . S
H653 C589 0.960 . S
H654 C625 0.980 . S
H655 C591 0.930 . S
H656 C595 0.930 . S
H657 C596 0.961 . S
H658 C596 0.960 . S
H659 C596 0.958 . S
H660 C597 0.961 . S
H661 C597 0.960 . S
H662 C597 0.960 . S
H663 C599 0.980 . S
H664 C598 0.961 . S
H665 C598 0.961 . S
H666 C598 0.959 . S
H667 C601 0.932 . S
H668 C605 0.929 . S
H669 C606 0.961 . S
H670 C606 0.959 . S
H671 C606 0.959 . S
H672 C607 0.960 . S
H673 C607 0.962 . S
H674 C607 0.961 . S
H675 C609 0.929 . S
H676 C612 0.930 . S
H677 C613 0.929 . S
H678 C616 0.930 . S
H679 C619 0.929 . S
H680 C620 0.930 . S
H681 C624 0.962 . S
H682 C624 0.959 . S
H683 C624 0.958 . S
Zn684 O687 2.031 . S
Zn684 O689 2.049 . S
Zn684 O694 2.067 . S
Zn685 O686 1.962 . S
Zn685 O688 1.986 . S
Zn685 O690 1.996 . S
Zn685 O693 1.943 . S
O686 Zn685 1.962 . S
O686 C691 1.254 . S
O687 Zn684 2.031 . S
O687 C691 1.269 . S
O688 Zn685 1.986 . S
O688 C695 1.262 . S
O689 Zn684 2.049 . S
O689 C697 1.260 . S
O690 Zn685 1.996 . S
O690 C697 1.257 . S
C691 O686 1.254 . S
C691 O687 1.269 . S
C692 O693 1.249 . S
C692 O694 1.270 . S
O693 Zn685 1.943 . S
O693 C692 1.249 . S
O694 Zn684 2.067 . S
O694 C692 1.270 . S
C695 O688 1.262 . S
C695 O696 1.232 . S
O696 C695 1.232 . S
C697 O689 1.260 . S
C697 O690 1.257 . S
Zn698 O701 2.031 . S
Zn698 O703 2.049 . S
Zn698 O708 2.067 . S
Zn699 O700 1.962 . S
Zn699 O702 1.986 . S
Zn699 O704 1.996 . S
Zn699 O707 1.943 . S
O700 Zn699 1.962 . S
O700 C705 1.254 . S
O701 Zn698 2.031 . S
O701 C705 1.269 . S
O702 Zn699 1.986 . S
O702 C709 1.262 . S
O703 Zn698 2.049 . S
O703 C711 1.260 . S
O704 Zn699 1.996 . S
O704 C711 1.257 . S
C705 O700 1.254 . S
C705 O701 1.269 . S
C706 O707 1.249 . S
C706 O708 1.270 . S
O707 Zn699 1.943 . S
O707 C706 1.249 . S
O708 Zn698 2.067 . S
O708 C706 1.270 . S
C709 O702 1.262 . S
C709 O710 1.232 . S
O710 C709 1.232 . S
C711 O703 1.260 . S
C711 O704 1.257 . S
Zn712 O715 2.031 . S
Zn712 O717 2.049 . S
Zn712 O722 2.067 . S
Zn713 O714 1.962 . S
Zn713 O716 1.986 . S
Zn713 O718 1.996 . S
Zn713 O721 1.943 . S
O714 Zn713 1.962 . S
O714 C719 1.254 . S
O715 Zn712 2.031 . S
O715 C719 1.269 . S
O716 Zn713 1.986 . S
O716 C723 1.262 . S
O717 Zn712 2.049 . S
O717 C725 1.260 . S
O718 Zn713 1.996 . S
O718 C725 1.257 . S
C719 O714 1.254 . S
C719 O715 1.269 . S
C720 O721 1.249 . S
C720 O722 1.270 . S
O721 Zn713 1.943 . S
O721 C720 1.249 . S
O722 Zn712 2.067 . S
O722 C720 1.270 . S
C723 O716 1.262 . S
C723 O724 1.232 . S
O724 C723 1.232 . S
C725 O717 1.260 . S
C725 O718 1.257 . S
Zn726 O729 2.031 . S
Zn726 O731 2.049 . S
Zn726 O736 2.067 . S
Zn727 O728 1.962 . S
Zn727 O730 1.986 . S
Zn727 O732 1.996 . S
Zn727 O735 1.943 . S
O728 Zn727 1.962 . S
O728 C733 1.254 . S
O729 Zn726 2.031 . S
O729 C733 1.269 . S
O730 Zn727 1.986 . S
O730 C737 1.262 . S
O731 Zn726 2.049 . S
O731 C739 1.260 . S
O732 Zn727 1.996 . S
O732 C739 1.257 . S
C733 O728 1.254 . S
C733 O729 1.269 . S
C734 O735 1.249 . S
C734 O736 1.270 . S
O735 Zn727 1.943 . S
O735 C734 1.249 . S
O736 Zn726 2.067 . S
O736 C734 1.270 . S
C737 O730 1.262 . S
C737 O738 1.232 . S
O738 C737 1.232 . S
C739 O731 1.260 . S
C739 O732 1.257 . S
Zn740 O743 2.031 . S
Zn740 O745 2.049 . S
Zn740 O750 2.067 . S
Zn741 O742 1.962 . S
Zn741 O744 1.986 . S
Zn741 O746 1.996 . S
Zn741 O749 1.943 . S
O742 Zn741 1.962 . S
O742 C747 1.254 . S
O743 Zn740 2.031 . S
O743 C747 1.269 . S
O744 Zn741 1.986 . S
O744 C751 1.262 . S
O745 Zn740 2.049 . S
O745 C753 1.260 . S
O746 Zn741 1.996 . S
O746 C753 1.257 . S
C747 O742 1.254 . S
C747 O743 1.269 . S
C748 O749 1.249 . S
C748 O750 1.270 . S
O749 Zn741 1.943 . S
O749 C748 1.249 . S
O750 Zn740 2.067 . S
O750 C748 1.270 . S
C751 O744 1.262 . S
C751 O752 1.232 . S
O752 C751 1.232 . S
C753 O745 1.260 . S
C753 O746 1.257 . S
Zn754 O757 2.031 . S
Zn754 O759 2.049 . S
Zn754 O764 2.067 . S
Zn755 O756 1.962 . S
Zn755 O758 1.986 . S
Zn755 O760 1.996 . S
Zn755 O763 1.943 . S
O756 Zn755 1.962 . S
O756 C761 1.254 . S
O757 Zn754 2.031 . S
O757 C761 1.269 . S
O758 Zn755 1.986 . S
O758 C765 1.262 . S
O759 Zn754 2.049 . S
O759 C767 1.260 . S
O760 Zn755 1.996 . S
O760 C767 1.257 . S
C761 O756 1.254 . S
C761 O757 1.269 . S
C762 O763 1.249 . S
C762 O764 1.270 . S
O763 Zn755 1.943 . S
O763 C762 1.249 . S
O764 Zn754 2.067 . S
O764 C762 1.270 . S
C765 O758 1.262 . S
C765 O766 1.232 . S
O766 C765 1.232 . S
C767 O759 1.260 . S
C767 O760 1.257 . S
H768 C780 0.930 . S
H769 C782 0.930 . S
H770 C783 0.930 . S
H771 C787 0.959 . S
H772 C787 0.959 . S
H773 C787 0.961 . S
H774 C788 0.960 . S
H775 C788 0.961 . S
H776 C788 0.959 . S
H777 C791 0.929 . S
H778 C792 0.931 . S
H779 C794 0.930 . S
C780 H768 0.930 . S
C780 C781 1.399 . S
C780 C785 1.399 . S
C781 C780 1.399 . S
C781 C782 1.376 . S
C782 H769 0.930 . S
C782 C781 1.376 . S
C782 C783 1.388 . S
C783 H770 0.930 . S
C783 C782 1.388 . S
C783 C784 1.390 . S
C784 C783 1.390 . S
C784 C785 1.394 . S
C784 C790 1.465 . S
C785 C780 1.399 . S
C785 C784 1.394 . S
C785 C786 1.516 . S
C786 C785 1.516 . S
C786 C787 1.502 . S
C786 C788 1.561 . S
C786 C789 1.526 . S
C787 H771 0.959 . S
C787 H772 0.959 . S
C787 H773 0.961 . S
C787 C786 1.502 . S
C788 H774 0.960 . S
C788 H775 0.961 . S
C788 H776 0.959 . S
C788 C786 1.561 . S
C789 C786 1.526 . S
C789 C790 1.396 . S
C789 C794 1.390 . S
C790 C784 1.465 . S
C790 C789 1.396 . S
C790 C791 1.399 . S
C791 H777 0.929 . S
C791 C790 1.399 . S
C791 C792 1.385 . S
C792 H778 0.931 . S
C792 C791 1.385 . S
C792 C793 1.389 . S
C793 C792 1.389 . S
C793 C794 1.387 . S
C794 H779 0.930 . S
C794 C789 1.390 . S
C794 C793 1.387 . S
H795 C807 0.930 . S
H796 C809 0.930 . S
H797 C810 0.930 . S
H798 C814 0.959 . S
H799 C814 0.959 . S
H800 C814 0.961 . S
H801 C815 0.960 . S
H802 C815 0.961 . S
H803 C815 0.959 . S
H804 C818 0.929 . S
H805 C819 0.931 . S
H806 C821 0.930 . S
C807 H795 0.930 . S
C807 C808 1.399 . S
C807 C812 1.399 . S
C808 C807 1.399 . S
C808 C809 1.376 . S
C809 H796 0.930 . S
C809 C808 1.376 . S
C809 C810 1.388 . S
C810 H797 0.930 . S
C810 C809 1.388 . S
C810 C811 1.390 . S
C811 C810 1.390 . S
C811 C812 1.394 . S
C811 C817 1.465 . S
C812 C807 1.399 . S
C812 C811 1.394 . S
C812 C813 1.516 . S
C813 C812 1.516 . S
C813 C814 1.502 . S
C813 C815 1.561 . S
C813 C816 1.526 . S
C814 H798 0.959 . S
C814 H799 0.959 . S
C814 H800 0.961 . S
C814 C813 1.502 . S
C815 H801 0.960 . S
C815 H802 0.961 . S
C815 H803 0.959 . S
C815 C813 1.561 . S
C816 C813 1.526 . S
C816 C817 1.396 . S
C816 C821 1.390 . S
C817 C811 1.465 . S
C817 C816 1.396 . S
C817 C818 1.399 . S
C818 H804 0.929 . S
C818 C817 1.399 . S
C818 C819 1.385 . S
C819 H805 0.931 . S
C819 C818 1.385 . S
C819 C820 1.389 . S
C820 C819 1.389 . S
C820 C821 1.387 . S
C821 H806 0.930 . S
C821 C816 1.390 . S
C821 C820 1.387 . S
H822 C834 0.930 . S
H823 C836 0.930 . S
H824 C837 0.930 . S
H825 C841 0.959 . S
H826 C841 0.959 . S
H827 C841 0.961 . S
H828 C842 0.960 . S
H829 C842 0.961 . S
H830 C842 0.959 . S
H831 C845 0.929 . S
H832 C846 0.931 . S
H833 C848 0.930 . S
C834 H822 0.930 . S
C834 C835 1.399 . S
C834 C839 1.399 . S
C835 C834 1.399 . S
C835 C836 1.376 . S
C836 H823 0.930 . S
C836 C835 1.376 . S
C836 C837 1.388 . S
C837 H824 0.930 . S
C837 C836 1.388 . S
C837 C838 1.390 . S
C838 C837 1.390 . S
C838 C839 1.394 . S
C838 C844 1.465 . S
C839 C834 1.399 . S
C839 C838 1.394 . S
C839 C840 1.516 . S
C840 C839 1.516 . S
C840 C841 1.502 . S
C840 C842 1.561 . S
C840 C843 1.526 . S
C841 H825 0.959 . S
C841 H826 0.959 . S
C841 H827 0.961 . S
C841 C840 1.502 . S
C842 H828 0.960 . S
C842 H829 0.961 . S
C842 H830 0.959 . S
C842 C840 1.561 . S
C843 C840 1.526 . S
C843 C844 1.396 . S
C843 C848 1.390 . S
C844 C838 1.465 . S
C844 C843 1.396 . S
C844 C845 1.399 . S
C845 H831 0.929 . S
C845 C844 1.399 . S
C845 C846 1.385 . S
C846 H832 0.931 . S
C846 C845 1.385 . S
C846 C847 1.389 . S
C847 C846 1.389 . S
C847 C848 1.387 . S
C848 H833 0.930 . S
C848 C843 1.390 . S
C848 C847 1.387 . S
H849 C861 0.930 . S
H850 C863 0.930 . S
H851 C864 0.930 . S
H852 C868 0.959 . S
H853 C868 0.959 . S
H854 C868 0.961 . S
H855 C869 0.960 . S
H856 C869 0.961 . S
H857 C869 0.959 . S
H858 C872 0.929 . S
H859 C873 0.931 . S
H860 C875 0.930 . S
C861 H849 0.930 . S
C861 C862 1.399 . S
C861 C866 1.399 . S
C862 C861 1.399 . S
C862 C863 1.376 . S
C863 H850 0.930 . S
C863 C862 1.376 . S
C863 C864 1.388 . S
C864 H851 0.930 . S
C864 C863 1.388 . S
C864 C865 1.390 . S
C865 C864 1.390 . S
C865 C866 1.394 . S
C865 C871 1.465 . S
C866 C861 1.399 . S
C866 C865 1.394 . S
C866 C867 1.516 . S
C867 C866 1.516 . S
C867 C868 1.502 . S
C867 C869 1.561 . S
C867 C870 1.526 . S
C868 H852 0.959 . S
C868 H853 0.959 . S
C868 H854 0.961 . S
C868 C867 1.502 . S
C869 H855 0.960 . S
C869 H856 0.961 . S
C869 H857 0.959 . S
C869 C867 1.561 . S
C870 C867 1.526 . S
C870 C871 1.396 . S
C870 C875 1.390 . S
C871 C865 1.465 . S
C871 C870 1.396 . S
C871 C872 1.399 . S
C872 H858 0.929 . S
C872 C871 1.399 . S
C872 C873 1.385 . S
C873 H859 0.931 . S
C873 C872 1.385 . S
C873 C874 1.389 . S
C874 C873 1.389 . S
C874 C875 1.387 . S
C875 H860 0.930 . S
C875 C870 1.390 . S
C875 C874 1.387 . S
H876 C888 0.930 . S
H877 C890 0.930 . S
H878 C891 0.930 . S
H879 C895 0.959 . S
H880 C895 0.959 . S
H881 C895 0.961 . S
H882 C896 0.960 . S
H883 C896 0.961 . S
H884 C896 0.959 . S
H885 C899 0.929 . S
H886 C900 0.931 . S
H887 C902 0.930 . S
C888 H876 0.930 . S
C888 C889 1.399 . S
C888 C893 1.399 . S
C889 C888 1.399 . S
C889 C890 1.376 . S
C890 H877 0.930 . S
C890 C889 1.376 . S
C890 C891 1.388 . S
C891 H878 0.930 . S
C891 C890 1.388 . S
C891 C892 1.390 . S
C892 C891 1.390 . S
C892 C893 1.394 . S
C892 C898 1.465 . S
C893 C888 1.399 . S
C893 C892 1.394 . S
C893 C894 1.516 . S
C894 C893 1.516 . S
C894 C895 1.502 . S
C894 C896 1.561 . S
C894 C897 1.526 . S
C895 H879 0.959 . S
C895 H880 0.959 . S
C895 H881 0.961 . S
C895 C894 1.502 . S
C896 H882 0.960 . S
C896 H883 0.961 . S
C896 H884 0.959 . S
C896 C894 1.561 . S
C897 C894 1.526 . S
C897 C898 1.396 . S
C897 C902 1.390 . S
C898 C892 1.465 . S
C898 C897 1.396 . S
C898 C899 1.399 . S
C899 H885 0.929 . S
C899 C898 1.399 . S
C899 C900 1.385 . S
C900 H886 0.931 . S
C900 C899 1.385 . S
C900 C901 1.389 . S
C901 C900 1.389 . S
C901 C902 1.387 . S
C902 H887 0.930 . S
C902 C897 1.390 . S
C902 C901 1.387 . S
H903 C915 0.930 . S
H904 C917 0.930 . S
H905 C918 0.930 . S
H906 C922 0.959 . S
H907 C922 0.959 . S
H908 C922 0.961 . S
H909 C923 0.960 . S
H910 C923 0.961 . S
H911 C923 0.959 . S
H912 C926 0.929 . S
H913 C927 0.931 . S
H914 C929 0.930 . S
C915 H903 0.930 . S
C915 C916 1.399 . S
C915 C920 1.399 . S
C916 C915 1.399 . S
C916 C917 1.376 . S
C917 H904 0.930 . S
C917 C916 1.376 . S
C917 C918 1.388 . S
C918 H905 0.930 . S
C918 C917 1.388 . S
C918 C919 1.390 . S
C919 C918 1.390 . S
C919 C920 1.394 . S
C919 C925 1.465 . S
C920 C915 1.399 . S
C920 C919 1.394 . S
C920 C921 1.516 . S
C921 C920 1.516 . S
C921 C922 1.502 . S
C921 C923 1.561 . S
C921 C924 1.526 . S
C922 H906 0.959 . S
C922 H907 0.959 . S
C922 H908 0.961 . S
C922 C921 1.502 . S
C923 H909 0.960 . S
C923 H910 0.961 . S
C923 H911 0.959 . S
C923 C921 1.561 . S
C924 C921 1.526 . S
C924 C925 1.396 . S
C924 C929 1.390 . S
C925 C919 1.465 . S
C925 C924 1.396 . S
C925 C926 1.399 . S
C926 H912 0.929 . S
C926 C925 1.399 . S
C926 C927 1.385 . S
C927 H913 0.931 . S
C927 C926 1.385 . S
C927 C928 1.389 . S
C928 C927 1.389 . S
C928 C929 1.387 . S
C929 H914 0.930 . S
C929 C924 1.390 . S
C929 C928 1.387 . S
H930 C942 0.930 . S
H931 C944 0.930 . S
H932 C945 0.930 . S
H933 C949 0.959 . S
H934 C949 0.959 . S
H935 C949 0.961 . S
H936 C950 0.960 . S
H937 C950 0.961 . S
H938 C950 0.959 . S
H939 C953 0.929 . S
H940 C954 0.931 . S
H941 C956 0.930 . S
C942 H930 0.930 . S
C942 C943 1.399 . S
C942 C947 1.399 . S
C943 C942 1.399 . S
C943 C944 1.376 . S
C944 H931 0.930 . S
C944 C943 1.376 . S
C944 C945 1.388 . S
C945 H932 0.930 . S
C945 C944 1.388 . S
C945 C946 1.390 . S
C946 C945 1.390 . S
C946 C947 1.394 . S
C946 C952 1.465 . S
C947 C942 1.399 . S
C947 C946 1.394 . S
C947 C948 1.516 . S
C948 C947 1.516 . S
C948 C949 1.502 . S
C948 C950 1.561 . S
C948 C951 1.526 . S
C949 H933 0.959 . S
C949 H934 0.959 . S
C949 H935 0.961 . S
C949 C948 1.502 . S
C950 H936 0.960 . S
C950 H937 0.961 . S
C950 H938 0.959 . S
C950 C948 1.561 . S
C951 C948 1.526 . S
C951 C952 1.396 . S
C951 C956 1.390 . S
C952 C946 1.465 . S
C952 C951 1.396 . S
C952 C953 1.399 . S
C953 H939 0.929 . S
C953 C952 1.399 . S
C953 C954 1.385 . S
C954 H940 0.931 . S
C954 C953 1.385 . S
C954 C955 1.389 . S
C955 C954 1.389 . S
C955 C956 1.387 . S
C956 H941 0.930 . S
C956 C951 1.390 . S
C956 C955 1.387 . S
H957 C969 0.930 . S
H958 C971 0.930 . S
H959 C972 0.930 . S
H960 C976 0.959 . S
H961 C976 0.959 . S
H962 C976 0.961 . S
H963 C977 0.960 . S
H964 C977 0.961 . S
H965 C977 0.959 . S
H966 C980 0.929 . S
H967 C981 0.931 . S
H968 C983 0.930 . S
C969 H957 0.930 . S
C969 C970 1.399 . S
C969 C974 1.399 . S
C970 C969 1.399 . S
C970 C971 1.376 . S
C971 H958 0.930 . S
C971 C970 1.376 . S
C971 C972 1.388 . S
C972 H959 0.930 . S
C972 C971 1.388 . S
C972 C973 1.390 . S
C973 C972 1.390 . S
C973 C974 1.394 . S
C973 C979 1.465 . S
C974 C969 1.399 . S
C974 C973 1.394 . S
C974 C975 1.516 . S
C975 C974 1.516 . S
C975 C976 1.502 . S
C975 C977 1.561 . S
C975 C978 1.526 . S
C976 H960 0.959 . S
C976 H961 0.959 . S
C976 H962 0.961 . S
C976 C975 1.502 . S
C977 H963 0.960 . S
C977 H964 0.961 . S
C977 H965 0.959 . S
C977 C975 1.561 . S
C978 C975 1.526 . S
C978 C979 1.396 . S
C978 C983 1.390 . S
C979 C973 1.465 . S
C979 C978 1.396 . S
C979 C980 1.399 . S
C980 H966 0.929 . S
C980 C979 1.399 . S
C980 C981 1.385 . S
C981 H967 0.931 . S
C981 C980 1.385 . S
C981 C982 1.389 . S
C982 C981 1.389 . S
C982 C983 1.387 . S
C983 H968 0.930 . S
C983 C978 1.390 . S
C983 C982 1.387 . S
H984 C996 0.930 . S
H985 C998 0.930 . S
H986 C999 0.930 . S
H987 C1003 0.959 . S
H988 C1003 0.959 . S
H989 C1003 0.961 . S
H990 C1004 0.960 . S
H991 C1004 0.961 . S
H992 C1004 0.959 . S
H993 C1007 0.929 . S
H994 C1008 0.931 . S
H995 C1010 0.930 . S
C996 H984 0.930 . S
C996 C997 1.399 . S
C996 C1001 1.399 . S
C997 C996 1.399 . S
C997 C998 1.376 . S
C998 H985 0.930 . S
C998 C997 1.376 . S
C998 C999 1.388 . S
C999 H986 0.930 . S
C999 C998 1.388 . S
C999 C1000 1.390 . S
C1000 C999 1.390 . S
C1000 C1001 1.394 . S
C1000 C1006 1.465 . S
C1001 C996 1.399 . S
C1001 C1000 1.394 . S
C1001 C1002 1.516 . S
C1002 C1001 1.516 . S
C1002 C1003 1.502 . S
C1002 C1004 1.561 . S
C1002 C1005 1.526 . S
C1003 H987 0.959 . S
C1003 H988 0.959 . S
C1003 H989 0.961 . S
C1003 C1002 1.502 . S
C1004 H990 0.960 . S
C1004 H991 0.961 . S
C1004 H992 0.959 . S
C1004 C1002 1.561 . S
C1005 C1002 1.526 . S
C1005 C1006 1.396 . S
C1005 C1010 1.390 . S
C1006 C1000 1.465 . S
C1006 C1005 1.396 . S
C1006 C1007 1.399 . S
C1007 H993 0.929 . S
C1007 C1006 1.399 . S
C1007 C1008 1.385 . S
C1008 H994 0.931 . S
C1008 C1007 1.385 . S
C1008 C1009 1.389 . S
C1009 C1008 1.389 . S
C1009 C1010 1.387 . S
C1010 H995 0.930 . S
C1010 C1005 1.390 . S
C1010 C1009 1.387 . S
H1011 C1023 0.930 . S
H1012 C1025 0.930 . S
H1013 C1026 0.930 . S
H1014 C1030 0.959 . S
H1015 C1030 0.959 . S
H1016 C1030 0.961 . S
H1017 C1031 0.960 . S
H1018 C1031 0.961 . S
H1019 C1031 0.959 . S
H1020 C1034 0.929 . S
H1021 C1035 0.931 . S
H1022 C1037 0.930 . S
C1023 H1011 0.930 . S
C1023 C1024 1.399 . S
C1023 C1028 1.399 . S
C1024 C1023 1.399 . S
C1024 C1025 1.376 . S
C1025 H1012 0.930 . S
C1025 C1024 1.376 . S
C1025 C1026 1.388 . S
C1026 H1013 0.930 . S
C1026 C1025 1.388 . S
C1026 C1027 1.390 . S
C1027 C1026 1.390 . S
C1027 C1028 1.394 . S
C1027 C1033 1.465 . S
C1028 C1023 1.399 . S
C1028 C1027 1.394 . S
C1028 C1029 1.516 . S
C1029 C1028 1.516 . S
C1029 C1030 1.502 . S
C1029 C1031 1.561 . S
C1029 C1032 1.526 . S
C1030 H1014 0.959 . S
C1030 H1015 0.959 . S
C1030 H1016 0.961 . S
C1030 C1029 1.502 . S
C1031 H1017 0.960 . S
C1031 H1018 0.961 . S
C1031 H1019 0.959 . S
C1031 C1029 1.561 . S
C1032 C1029 1.526 . S
C1032 C1033 1.396 . S
C1032 C1037 1.390 . S
C1033 C1027 1.465 . S
C1033 C1032 1.396 . S
C1033 C1034 1.399 . S
C1034 H1020 0.929 . S
C1034 C1033 1.399 . S
C1034 C1035 1.385 . S
C1035 H1021 0.931 . S
C1035 C1034 1.385 . S
C1035 C1036 1.389 . S
C1036 C1035 1.389 . S
C1036 C1037 1.387 . S
C1037 H1022 0.930 . S
C1037 C1032 1.390 . S
C1037 C1036 1.387 . S
H1038 C1050 0.930 . S
H1039 C1052 0.930 . S
H1040 C1053 0.930 . S
H1041 C1057 0.959 . S
H1042 C1057 0.959 . S
H1043 C1057 0.961 . S
H1044 C1058 0.960 . S
H1045 C1058 0.961 . S
H1046 C1058 0.959 . S
H1047 C1061 0.929 . S
H1048 C1062 0.931 . S
H1049 C1064 0.930 . S
C1050 H1038 0.930 . S
C1050 C1051 1.399 . S
C1050 C1055 1.399 . S
C1051 C1050 1.399 . S
C1051 C1052 1.376 . S
C1052 H1039 0.930 . S
C1052 C1051 1.376 . S
C1052 C1053 1.388 . S
C1053 H1040 0.930 . S
C1053 C1052 1.388 . S
C1053 C1054 1.390 . S
C1054 C1053 1.390 . S
C1054 C1055 1.394 . S
C1054 C1060 1.465 . S
C1055 C1050 1.399 . S
C1055 C1054 1.394 . S
C1055 C1056 1.516 . S
C1056 C1055 1.516 . S
C1056 C1057 1.502 . S
C1056 C1058 1.561 . S
C1056 C1059 1.526 . S
C1057 H1041 0.959 . S
C1057 H1042 0.959 . S
C1057 H1043 0.961 . S
C1057 C1056 1.502 . S
C1058 H1044 0.960 . S
C1058 H1045 0.961 . S
C1058 H1046 0.959 . S
C1058 C1056 1.561 . S
C1059 C1056 1.526 . S
C1059 C1060 1.396 . S
C1059 C1064 1.390 . S
C1060 C1054 1.465 . S
C1060 C1059 1.396 . S
C1060 C1061 1.399 . S
C1061 H1047 0.929 . S
C1061 C1060 1.399 . S
C1061 C1062 1.385 . S
C1062 H1048 0.931 . S
C1062 C1061 1.385 . S
C1062 C1063 1.389 . S
C1063 C1062 1.389 . S
C1063 C1064 1.387 . S
C1064 H1049 0.930 . S
C1064 C1059 1.390 . S
C1064 C1063 1.387 . S
H1065 C1077 0.930 . S
H1066 C1079 0.930 . S
H1067 C1080 0.930 . S
H1068 C1084 0.959 . S
H1069 C1084 0.959 . S
H1070 C1084 0.961 . S
H1071 C1085 0.960 . S
H1072 C1085 0.961 . S
H1073 C1085 0.959 . S
H1074 C1088 0.929 . S
H1075 C1089 0.931 . S
H1076 C1091 0.930 . S
C1077 H1065 0.930 . S
C1077 C1078 1.399 . S
C1077 C1082 1.399 . S
C1078 C1077 1.399 . S
C1078 C1079 1.376 . S
C1079 H1066 0.930 . S
C1079 C1078 1.376 . S
C1079 C1080 1.388 . S
C1080 H1067 0.930 . S
C1080 C1079 1.388 . S
C1080 C1081 1.390 . S
C1081 C1080 1.390 . S
C1081 C1082 1.394 . S
C1081 C1087 1.465 . S
C1082 C1077 1.399 . S
C1082 C1081 1.394 . S
C1082 C1083 1.516 . S
C1083 C1082 1.516 . S
C1083 C1084 1.502 . S
C1083 C1085 1.561 . S
C1083 C1086 1.526 . S
C1084 H1068 0.959 . S
C1084 H1069 0.959 . S
C1084 H1070 0.961 . S
C1084 C1083 1.502 . S
C1085 H1071 0.960 . S
C1085 H1072 0.961 . S
C1085 H1073 0.959 . S
C1085 C1083 1.561 . S
C1086 C1083 1.526 . S
C1086 C1087 1.396 . S
C1086 C1091 1.390 . S
C1087 C1081 1.465 . S
C1087 C1086 1.396 . S
C1087 C1088 1.399 . S
C1088 H1074 0.929 . S
C1088 C1087 1.399 . S
C1088 C1089 1.385 . S
C1089 H1075 0.931 . S
C1089 C1088 1.385 . S
C1089 C1090 1.389 . S
C1090 C1089 1.389 . S
C1090 C1091 1.387 . S
C1091 H1076 0.930 . S
C1091 C1086 1.390 . S
C1091 C1090 1.387 . S
H1092 C1104 0.930 . S
H1093 C1106 0.930 . S
H1094 C1107 0.930 . S
H1095 C1111 0.959 . S
H1096 C1111 0.959 . S
H1097 C1111 0.961 . S
H1098 C1112 0.960 . S
H1099 C1112 0.961 . S
H1100 C1112 0.959 . S
H1101 C1115 0.929 . S
H1102 C1116 0.931 . S
H1103 C1118 0.930 . S
C1104 H1092 0.930 . S
C1104 C1105 1.399 . S
C1104 C1109 1.399 . S
C1105 C1104 1.399 . S
C1105 C1106 1.376 . S
C1106 H1093 0.930 . S
C1106 C1105 1.376 . S
C1106 C1107 1.388 . S
C1107 H1094 0.930 . S
C1107 C1106 1.388 . S
C1107 C1108 1.390 . S
C1108 C1107 1.390 . S
C1108 C1109 1.394 . S
C1108 C1114 1.465 . S
C1109 C1104 1.399 . S
C1109 C1108 1.394 . S
C1109 C1110 1.516 . S
C1110 C1109 1.516 . S
C1110 C1111 1.502 . S
C1110 C1112 1.561 . S
C1110 C1113 1.526 . S
C1111 H1095 0.959 . S
C1111 H1096 0.959 . S
C1111 H1097 0.961 . S
C1111 C1110 1.502 . S
C1112 H1098 0.960 . S
C1112 H1099 0.961 . S
C1112 H1100 0.959 . S
C1112 C1110 1.561 . S
C1113 C1110 1.526 . S
C1113 C1114 1.396 . S
C1113 C1118 1.390 . S
C1114 C1108 1.465 . S
C1114 C1113 1.396 . S
C1114 C1115 1.399 . S
C1115 H1101 0.929 . S
C1115 C1114 1.399 . S
C1115 C1116 1.385 . S
C1116 H1102 0.931 . S
C1116 C1115 1.385 . S
C1116 C1117 1.389 . S
C1117 C1116 1.389 . S
C1117 C1118 1.387 . S
C1118 H1103 0.930 . S
C1118 C1113 1.390 . S
C1118 C1117 1.387 . S
H1119 C1131 0.930 . S
H1120 C1133 0.930 . S
H1121 C1134 0.930 . S
H1122 C1138 0.959 . S
H1123 C1138 0.959 . S
H1124 C1138 0.961 . S
H1125 C1139 0.960 . S
H1126 C1139 0.961 . S
H1127 C1139 0.959 . S
H1128 C1142 0.929 . S
H1129 C1143 0.931 . S
H1130 C1145 0.930 . S
C1131 H1119 0.930 . S
C1131 C1132 1.399 . S
C1131 C1136 1.399 . S
C1132 C1131 1.399 . S
C1132 C1133 1.376 . S
C1133 H1120 0.930 . S
C1133 C1132 1.376 . S
C1133 C1134 1.388 . S
C1134 H1121 0.930 . S
C1134 C1133 1.388 . S
C1134 C1135 1.390 . S
C1135 C1134 1.390 . S
C1135 C1136 1.394 . S
C1135 C1141 1.465 . S
C1136 C1131 1.399 . S
C1136 C1135 1.394 . S
C1136 C1137 1.516 . S
C1137 C1136 1.516 . S
C1137 C1138 1.502 . S
C1137 C1139 1.561 . S
C1137 C1140 1.526 . S
C1138 H1122 0.959 . S
C1138 H1123 0.959 . S
C1138 H1124 0.961 . S
C1138 C1137 1.502 . S
C1139 H1125 0.960 . S
C1139 H1126 0.961 . S
C1139 H1127 0.959 . S
C1139 C1137 1.561 . S
C1140 C1137 1.526 . S
C1140 C1141 1.396 . S
C1140 C1145 1.390 . S
C1141 C1135 1.465 . S
C1141 C1140 1.396 . S
C1141 C1142 1.399 . S
C1142 H1128 0.929 . S
C1142 C1141 1.399 . S
C1142 C1143 1.385 . S
C1143 H1129 0.931 . S
C1143 C1142 1.385 . S
C1143 C1144 1.389 . S
C1144 C1143 1.389 . S
C1144 C1145 1.387 . S
C1145 H1130 0.930 . S
C1145 C1140 1.390 . S
C1145 C1144 1.387 . S
H1146 C1158 0.930 . S
H1147 C1160 0.930 . S
H1148 C1161 0.930 . S
H1149 C1165 0.959 . S
H1150 C1165 0.959 . S
H1151 C1165 0.961 . S
H1152 C1166 0.960 . S
H1153 C1166 0.961 . S
H1154 C1166 0.959 . S
H1155 C1169 0.929 . S
H1156 C1170 0.931 . S
H1157 C1172 0.930 . S
C1158 H1146 0.930 . S
C1158 C1159 1.399 . S
C1158 C1163 1.399 . S
C1159 C1158 1.399 . S
C1159 C1160 1.376 . S
C1160 H1147 0.930 . S
C1160 C1159 1.376 . S
C1160 C1161 1.388 . S
C1161 H1148 0.930 . S
C1161 C1160 1.388 . S
C1161 C1162 1.390 . S
C1162 C1161 1.390 . S
C1162 C1163 1.394 . S
C1162 C1168 1.465 . S
C1163 C1158 1.399 . S
C1163 C1162 1.394 . S
C1163 C1164 1.516 . S
C1164 C1163 1.516 . S
C1164 C1165 1.502 . S
C1164 C1166 1.561 . S
C1164 C1167 1.526 . S
C1165 H1149 0.959 . S
C1165 H1150 0.959 . S
C1165 H1151 0.961 . S
C1165 C1164 1.502 . S
C1166 H1152 0.960 . S
C1166 H1153 0.961 . S
C1166 H1154 0.959 . S
C1166 C1164 1.561 . S
C1167 C1164 1.526 . S
C1167 C1168 1.396 . S
C1167 C1172 1.390 . S
C1168 C1162 1.465 . S
C1168 C1167 1.396 . S
C1168 C1169 1.399 . S
C1169 H1155 0.929 . S
C1169 C1168 1.399 . S
C1169 C1170 1.385 . S
C1170 H1156 0.931 . S
C1170 C1169 1.385 . S
C1170 C1171 1.389 . S
C1171 C1170 1.389 . S
C1171 C1172 1.387 . S
C1172 H1157 0.930 . S
C1172 C1167 1.390 . S
C1172 C1171 1.387 . S
H1173 C1185 0.930 . S
H1174 C1187 0.930 . S
H1175 C1188 0.930 . S
H1176 C1192 0.959 . S
H1177 C1192 0.959 . S
H1178 C1192 0.961 . S
H1179 C1193 0.960 . S
H1180 C1193 0.961 . S
H1181 C1193 0.959 . S
H1182 C1196 0.929 . S
H1183 C1197 0.931 . S
H1184 C1199 0.930 . S
C1185 H1173 0.930 . S
C1185 C1186 1.399 . S
C1185 C1190 1.399 . S
C1186 C1185 1.399 . S
C1186 C1187 1.376 . S
C1187 H1174 0.930 . S
C1187 C1186 1.376 . S
C1187 C1188 1.388 . S
C1188 H1175 0.930 . S
C1188 C1187 1.388 . S
C1188 C1189 1.390 . S
C1189 C1188 1.390 . S
C1189 C1190 1.394 . S
C1189 C1195 1.465 . S
C1190 C1185 1.399 . S
C1190 C1189 1.394 . S
C1190 C1191 1.516 . S
C1191 C1190 1.516 . S
C1191 C1192 1.502 . S
C1191 C1193 1.561 . S
C1191 C1194 1.526 . S
C1192 H1176 0.959 . S
C1192 H1177 0.959 . S
C1192 H1178 0.961 . S
C1192 C1191 1.502 . S
C1193 H1179 0.960 . S
C1193 H1180 0.961 . S
C1193 H1181 0.959 . S
C1193 C1191 1.561 . S
C1194 C1191 1.526 . S
C1194 C1195 1.396 . S
C1194 C1199 1.390 1_556 S
C1195 C1189 1.465 . S
C1195 C1194 1.396 . S
C1195 C1196 1.399 1_556 S
C1196 H1182 0.929 . S
C1196 C1195 1.399 1_554 S
C1196 C1197 1.385 . S
C1197 H1183 0.931 . S
C1197 C1196 1.385 . S
C1197 C1198 1.389 . S
C1198 C1197 1.389 . S
C1198 C1199 1.387 . S
C1199 H1184 0.930 . S
C1199 C1194 1.390 1_554 S
C1199 C1198 1.387 . S
H1200 C1212 0.930 . S
H1201 C1214 0.930 . S
H1202 C1215 0.930 . S
H1203 C1219 0.959 . S
H1204 C1219 0.959 . S
H1205 C1219 0.961 . S
H1206 C1220 0.960 . S
H1207 C1220 0.961 . S
H1208 C1220 0.959 . S
H1209 C1223 0.929 . S
H1210 C1224 0.931 . S
H1211 C1226 0.930 . S
C1212 H1200 0.930 . S
C1212 C1213 1.399 . S
C1212 C1217 1.399 . S
C1213 C1212 1.399 . S
C1213 C1214 1.376 . S
C1214 H1201 0.930 . S
C1214 C1213 1.376 . S
C1214 C1215 1.388 . S
C1215 H1202 0.930 . S
C1215 C1214 1.388 . S
C1215 C1216 1.390 . S
C1216 C1215 1.390 . S
C1216 C1217 1.394 . S
C1216 C1222 1.465 . S
C1217 C1212 1.399 . S
C1217 C1216 1.394 . S
C1217 C1218 1.516 . S
C1218 C1217 1.516 . S
C1218 C1219 1.502 . S
C1218 C1220 1.561 . S
C1218 C1221 1.526 . S
C1219 H1203 0.959 . S
C1219 H1204 0.959 . S
C1219 H1205 0.961 . S
C1219 C1218 1.502 . S
C1220 H1206 0.960 . S
C1220 H1207 0.961 . S
C1220 H1208 0.959 . S
C1220 C1218 1.561 . S
C1221 C1218 1.526 . S
C1221 C1222 1.396 . S
C1221 C1226 1.390 . S
C1222 C1216 1.465 . S
C1222 C1221 1.396 . S
C1222 C1223 1.399 . S
C1223 H1209 0.929 . S
C1223 C1222 1.399 . S
C1223 C1224 1.385 . S
C1224 H1210 0.931 . S
C1224 C1223 1.385 . S
C1224 C1225 1.389 . S
C1225 C1224 1.389 . S
C1225 C1226 1.387 . S
C1226 H1211 0.930 . S
C1226 C1221 1.390 . S
C1226 C1225 1.387 . S
H1227 C1239 0.930 . S
H1228 C1241 0.930 . S
H1229 C1242 0.930 . S
H1230 C1246 0.959 . S
H1231 C1246 0.959 . S
H1232 C1246 0.961 . S
H1233 C1247 0.960 . S
H1234 C1247 0.961 . S
H1235 C1247 0.959 . S
H1236 C1250 0.929 . S
H1237 C1251 0.931 . S
H1238 C1253 0.930 . S
C1239 H1227 0.930 . S
C1239 C1240 1.399 . S
C1239 C1244 1.399 . S
C1240 C1239 1.399 . S
C1240 C1241 1.376 . S
C1241 H1228 0.930 . S
C1241 C1240 1.376 . S
C1241 C1242 1.388 . S
C1242 H1229 0.930 . S
C1242 C1241 1.388 . S
C1242 C1243 1.390 . S
C1243 C1242 1.390 . S
C1243 C1244 1.394 . S
C1243 C1249 1.465 . S
C1244 C1239 1.399 . S
C1244 C1243 1.394 . S
C1244 C1245 1.516 . S
C1245 C1244 1.516 . S
C1245 C1246 1.502 . S
C1245 C1247 1.561 . S
C1245 C1248 1.526 . S
C1246 H1230 0.959 . S
C1246 H1231 0.959 . S
C1246 H1232 0.961 . S
C1246 C1245 1.502 . S
C1247 H1233 0.960 . S
C1247 H1234 0.961 . S
C1247 H1235 0.959 . S
C1247 C1245 1.561 . S
C1248 C1245 1.526 . S
C1248 C1249 1.396 . S
C1248 C1253 1.390 . S
C1249 C1243 1.465 . S
C1249 C1248 1.396 . S
C1249 C1250 1.399 . S
C1250 H1236 0.929 . S
C1250 C1249 1.399 . S
C1250 C1251 1.385 . S
C1251 H1237 0.931 . S
C1251 C1250 1.385 . S
C1251 C1252 1.389 . S
C1252 C1251 1.389 . S
C1252 C1253 1.387 . S
C1253 H1238 0.930 . S
C1253 C1248 1.390 . S
C1253 C1252 1.387 . S
H1254 C1266 0.930 . S
H1255 C1268 0.930 . S
H1256 C1269 0.930 . S
H1257 C1273 0.959 . S
H1258 C1273 0.959 . S
H1259 C1273 0.961 . S
H1260 C1274 0.960 . S
H1261 C1274 0.961 . S
H1262 C1274 0.959 . S
H1263 C1277 0.929 . S
H1264 C1278 0.931 . S
H1265 C1280 0.930 . S
C1266 H1254 0.930 . S
C1266 C1267 1.399 . S
C1266 C1271 1.399 . S
C1267 C1266 1.399 . S
C1267 C1268 1.376 . S
C1268 H1255 0.930 . S
C1268 C1267 1.376 . S
C1268 C1269 1.388 . S
C1269 H1256 0.930 . S
C1269 C1268 1.388 . S
C1269 C1270 1.390 . S
C1270 C1269 1.390 . S
C1270 C1271 1.394 . S
C1270 C1276 1.465 . S
C1271 C1266 1.399 . S
C1271 C1270 1.394 . S
C1271 C1272 1.516 . S
C1272 C1271 1.516 . S
C1272 C1273 1.502 . S
C1272 C1274 1.561 . S
C1272 C1275 1.526 . S
C1273 H1257 0.959 . S
C1273 H1258 0.959 . S
C1273 H1259 0.961 . S
C1273 C1272 1.502 . S
C1274 H1260 0.960 . S
C1274 H1261 0.961 . S
C1274 H1262 0.959 . S
C1274 C1272 1.561 . S
C1275 C1272 1.526 . S
C1275 C1276 1.396 . S
C1275 C1280 1.390 . S
C1276 C1270 1.465 . S
C1276 C1275 1.396 . S
C1276 C1277 1.399 . S
C1277 H1263 0.929 . S
C1277 C1276 1.399 . S
C1277 C1278 1.385 . S
C1278 H1264 0.931 . S
C1278 C1277 1.385 . S
C1278 C1279 1.389 . S
C1279 C1278 1.389 . S
C1279 C1280 1.387 . S
C1280 H1265 0.930 . S
C1280 C1275 1.390 . S
C1280 C1279 1.387 . S
H1281 C1293 0.930 . S
H1282 C1295 0.930 . S
H1283 C1296 0.930 . S
H1284 C1300 0.959 . S
H1285 C1300 0.959 . S
H1286 C1300 0.961 . S
H1287 C1301 0.960 . S
H1288 C1301 0.961 . S
H1289 C1301 0.959 . S
H1290 C1304 0.929 . S
H1291 C1305 0.931 . S
H1292 C1307 0.930 . S
C1293 H1281 0.930 . S
C1293 C1294 1.399 . S
C1293 C1298 1.399 . S
C1294 C1293 1.399 . S
C1294 C1295 1.376 . S
C1295 H1282 0.930 . S
C1295 C1294 1.376 . S
C1295 C1296 1.388 . S
C1296 H1283 0.930 . S
C1296 C1295 1.388 . S
C1296 C1297 1.390 . S
C1297 C1296 1.390 . S
C1297 C1298 1.394 . S
C1297 C1303 1.465 . S
C1298 C1293 1.399 . S
C1298 C1297 1.394 . S
C1298 C1299 1.516 . S
C1299 C1298 1.516 . S
C1299 C1300 1.502 . S
C1299 C1301 1.561 . S
C1299 C1302 1.526 . S
C1300 H1284 0.959 . S
C1300 H1285 0.959 . S
C1300 H1286 0.961 . S
C1300 C1299 1.502 . S
C1301 H1287 0.960 . S
C1301 H1288 0.961 . S
C1301 H1289 0.959 . S
C1301 C1299 1.561 . S
C1302 C1299 1.526 . S
C1302 C1303 1.396 . S
C1302 C1307 1.390 . S
C1303 C1297 1.465 . S
C1303 C1302 1.396 . S
C1303 C1304 1.399 . S
C1304 H1290 0.929 . S
C1304 C1303 1.399 . S
C1304 C1305 1.385 . S
C1305 H1291 0.931 . S
C1305 C1304 1.385 . S
C1305 C1306 1.389 . S
C1306 C1305 1.389 . S
C1306 C1307 1.387 . S
C1307 H1292 0.930 . S
C1307 C1302 1.390 . S
C1307 C1306 1.387 . S
H1308 C1320 0.930 . S
H1309 C1322 0.930 . S
H1310 C1323 0.930 . S
H1311 C1327 0.959 . S
H1312 C1327 0.959 . S
H1313 C1327 0.961 . S
H1314 C1328 0.960 . S
H1315 C1328 0.961 . S
H1316 C1328 0.959 . S
H1317 C1331 0.929 . S
H1318 C1332 0.931 . S
H1319 C1334 0.930 . S
C1320 H1308 0.930 . S
C1320 C1321 1.399 . S
C1320 C1325 1.399 . S
C1321 C1320 1.399 . S
C1321 C1322 1.376 . S
C1322 H1309 0.930 . S
C1322 C1321 1.376 . S
C1322 C1323 1.388 . S
C1323 H1310 0.930 . S
C1323 C1322 1.388 . S
C1323 C1324 1.390 . S
C1324 C1323 1.390 . S
C1324 C1325 1.394 . S
C1324 C1330 1.465 . S
C1325 C1320 1.399 . S
C1325 C1324 1.394 . S
C1325 C1326 1.516 . S
C1326 C1325 1.516 . S
C1326 C1327 1.502 . S
C1326 C1328 1.561 . S
C1326 C1329 1.526 . S
C1327 H1311 0.959 . S
C1327 H1312 0.959 . S
C1327 H1313 0.961 . S
C1327 C1326 1.502 . S
C1328 H1314 0.960 . S
C1328 H1315 0.961 . S
C1328 H1316 0.959 . S
C1328 C1326 1.561 . S
C1329 C1326 1.526 . S
C1329 C1330 1.396 . S
C1329 C1334 1.390 . S
C1330 C1324 1.465 . S
C1330 C1329 1.396 . S
C1330 C1331 1.399 . S
C1331 H1317 0.929 . S
C1331 C1330 1.399 . S
C1331 C1332 1.385 . S
C1332 H1318 0.931 . S
C1332 C1331 1.385 . S
C1332 C1333 1.389 . S
C1333 C1332 1.389 . S
C1333 C1334 1.387 . S
C1334 H1319 0.930 . S
C1334 C1329 1.390 . S
C1334 C1333 1.387 . S
H1335 C1347 0.930 . S
H1336 C1349 0.930 . S
H1337 C1350 0.930 . S
H1338 C1354 0.959 . S
H1339 C1354 0.959 . S
H1340 C1354 0.961 . S
H1341 C1355 0.960 . S
H1342 C1355 0.961 . S
H1343 C1355 0.959 . S
H1344 C1358 0.929 . S
H1345 C1359 0.931 . S
H1346 C1361 0.930 . S
C1347 H1335 0.930 . S
C1347 C1348 1.399 . S
C1347 C1352 1.399 . S
C1348 C1347 1.399 . S
C1348 C1349 1.376 . S
C1349 H1336 0.930 . S
C1349 C1348 1.376 . S
C1349 C1350 1.388 . S
C1350 H1337 0.930 . S
C1350 C1349 1.388 . S
C1350 C1351 1.390 . S
C1351 C1350 1.390 . S
C1351 C1352 1.394 . S
C1351 C1357 1.465 . S
C1352 C1347 1.399 . S
C1352 C1351 1.394 . S
C1352 C1353 1.516 . S
C1353 C1352 1.516 . S
C1353 C1354 1.502 . S
C1353 C1355 1.561 . S
C1353 C1356 1.526 . S
C1354 H1338 0.959 . S
C1354 H1339 0.959 . S
C1354 H1340 0.961 . S
C1354 C1353 1.502 . S
C1355 H1341 0.960 . S
C1355 H1342 0.961 . S
C1355 H1343 0.959 . S
C1355 C1353 1.561 . S
C1356 C1353 1.526 . S
C1356 C1357 1.396 . S
C1356 C1361 1.390 . S
C1357 C1351 1.465 . S
C1357 C1356 1.396 . S
C1357 C1358 1.399 . S
C1358 H1344 0.929 . S
C1358 C1357 1.399 . S
C1358 C1359 1.385 . S
C1359 H1345 0.931 . S
C1359 C1358 1.385 . S
C1359 C1360 1.389 . S
C1360 C1359 1.389 . S
C1360 C1361 1.387 . S
C1361 H1346 0.930 . S
C1361 C1356 1.390 . S
C1361 C1360 1.387 . S
H1362 C1374 0.930 . S
H1363 C1376 0.930 . S
H1364 C1377 0.930 . S
H1365 C1381 0.959 . S
H1366 C1381 0.959 . S
H1367 C1381 0.961 1_554 S
H1368 C1382 0.960 . S
H1369 C1382 0.961 . S
H1370 C1382 0.959 . S
H1371 C1385 0.929 . S
H1372 C1386 0.931 . S
H1373 C1388 0.930 . S
C1374 H1362 0.930 . S
C1374 C1375 1.399 . S
C1374 C1379 1.399 . S
C1375 C1374 1.399 . S
C1375 C1376 1.376 . S
C1376 H1363 0.930 . S
C1376 C1375 1.376 . S
C1376 C1377 1.388 . S
C1377 H1364 0.930 . S
C1377 C1376 1.388 . S
C1377 C1378 1.390 . S
C1378 C1377 1.390 . S
C1378 C1379 1.394 . S
C1378 C1384 1.465 1_554 S
C1379 C1374 1.399 . S
C1379 C1378 1.394 . S
C1379 C1380 1.516 . S
C1380 C1379 1.516 . S
C1380 C1381 1.502 1_554 S
C1380 C1382 1.561 . S
C1380 C1383 1.526 1_554 S
C1381 H1365 0.959 . S
C1381 H1366 0.959 . S
C1381 H1367 0.961 1_556 S
C1381 C1380 1.502 1_556 S
C1382 H1368 0.960 . S
C1382 H1369 0.961 . S
C1382 H1370 0.959 . S
C1382 C1380 1.561 . S
C1383 C1380 1.526 1_556 S
C1383 C1384 1.396 . S
C1383 C1388 1.390 . S
C1384 C1378 1.465 1_556 S
C1384 C1383 1.396 . S
C1384 C1385 1.399 . S
C1385 H1371 0.929 . S
C1385 C1384 1.399 . S
C1385 C1386 1.385 . S
C1386 H1372 0.931 . S
C1386 C1385 1.385 . S
C1386 C1387 1.389 . S
C1387 C1386 1.389 . S
C1387 C1388 1.387 . S
C1388 H1373 0.930 . S
C1388 C1383 1.390 . S
C1388 C1387 1.387 . S
H1389 C1401 0.930 . S
H1390 C1403 0.930 . S
H1391 C1404 0.930 . S
H1392 C1408 0.959 . S
H1393 C1408 0.959 . S
H1394 C1408 0.961 . S
H1395 C1409 0.960 . S
H1396 C1409 0.961 . S
H1397 C1409 0.959 . S
H1398 C1412 0.929 . S
H1399 C1413 0.931 . S
H1400 C1415 0.930 . S
C1401 H1389 0.930 . S
C1401 C1402 1.399 . S
C1401 C1406 1.399 . S
C1402 C1401 1.399 . S
C1402 C1403 1.376 . S
C1403 H1390 0.930 . S
C1403 C1402 1.376 . S
C1403 C1404 1.388 . S
C1404 H1391 0.930 . S
C1404 C1403 1.388 . S
C1404 C1405 1.390 . S
C1405 C1404 1.390 . S
C1405 C1406 1.394 . S
C1405 C1411 1.465 . S
C1406 C1401 1.399 . S
C1406 C1405 1.394 . S
C1406 C1407 1.516 . S
C1407 C1406 1.516 . S
C1407 C1408 1.502 . S
C1407 C1409 1.561 . S
C1407 C1410 1.526 . S
C1408 H1392 0.959 . S
C1408 H1393 0.959 . S
C1408 H1394 0.961 . S
C1408 C1407 1.502 . S
C1409 H1395 0.960 . S
C1409 H1396 0.961 . S
C1409 H1397 0.959 . S
C1409 C1407 1.561 . S
C1410 C1407 1.526 . S
C1410 C1411 1.396 . S
C1410 C1415 1.390 . S
C1411 C1405 1.465 . S
C1411 C1410 1.396 . S
C1411 C1412 1.399 . S
C1412 H1398 0.929 . S
C1412 C1411 1.399 . S
C1412 C1413 1.385 . S
C1413 H1399 0.931 . S
C1413 C1412 1.385 . S
C1413 C1414 1.389 . S
C1414 C1413 1.389 . S
C1414 C1415 1.387 . S
C1415 H1400 0.930 . S
C1415 C1410 1.390 . S
C1415 C1414 1.387 . S
C793 C761 1.605 . S
C781 C1 1.208 . S
C808 C169 1.360 . S
C820 C695 1.618 . S
C835 C283 1.398 . S
C847 C709 1.566 . S
C862 C397 1.253 . S
C874 C723 1.461 . S
C901 C737 1.502 . S
C889 C457 1.105 . S
C916 C571 1.072 . S
C928 C747 1.453 . S
C943 C115 1.261 . S
C955 C705 1.624 . S
C970 C229 1.261 . S
C982 C719 1.643 . S
C997 C343 1.046 . S
C1009 C733 1.535 . S
C1036 C751 1.561 . S
C1024 C511 1.404 . S
C1063 C765 1.638 . S
C1051 C625 1.399 . S
C1090 C691 1.724 . S
C1078 C55 1.356 . S
C1105 C29 1.106 . S
C1117 C706 1.398 . S
C1132 C125 1.019 . S
C1144 C720 1.592 . S
C1171 C734 1.477 . S
C1159 C239 1.039 . S
C1186 C353 0.784 . S
C1198 C753 1.339 . S
C1225 C767 1.294 . S
C1213 C485 1.008 . S
C1252 C692 1.297 . S
C1240 C599 1.072 . S
C1279 C762 1.398 . S
C1267 C143 1.179 . S
C1294 C257 1.134 . S
C1306 C697 1.207 . S
C1333 C711 1.206 . S
C1321 C371 0.953 . S
C1348 C467 0.806 . S
C1360 C725 1.309 . S
C1375 C581 0.980 . S
C1387 C739 1.431 . S
C1402 C11 0.843 . S
C1414 C748 1.451 . S
