# Generated by pormake.
# Topology zzz, (3,6)-cn, num edge types: 1
# Building blocks:
#     Node 0, Type 0, BuildingBlock: QEWDON_clean_linker_0, # of connection points: 3
#     Node 1, Type 0, BuildingBlock: QEWDON_clean_linker_0, # of connection points: 3
#     Node 2, Type 0, BuildingBlock: QEWDON_clean_linker_0, # of connection points: 3
#     Node 3, Type 0, BuildingBlock: QEWDON_clean_linker_0, # of connection points: 3
#     Node 4, Type 0, BuildingBlock: QEWDON_clean_linker_0, # of connection points: 3
#     Node 5, Type 0, BuildingBlock: QEWDON_clean_linker_0, # of connection points: 3
#     Node 6, Type 0, BuildingBlock: QEWDON_clean_linker_0, # of connection points: 3
#     Node 7, Type 0, BuildingBlock: QEWDON_clean_linker_0, # of connection points: 3
#     Node 8, Type 1, BuildingBlock: JUFBIX_clean_sbu_0, # of connection points: 6
#     Node 9, Type 1, BuildingBlock: JUFBIX_clean_sbu_0, # of connection points: 6
#     Node 10, Type 1, BuildingBlock: JUFBIX_clean_sbu_0, # of connection points: 6
#     Node 11, Type 1, BuildingBlock: JUFBIX_clean_sbu_0, # of connection points: 6
#     Edge 12, Type (0, 1), BuildingBlock: MIFKUJ_clean_linker_0, # of connection points: 2
#     Edge 13, Type (0, 1), BuildingBlock: MIFKUJ_clean_linker_0, # of connection points: 2
#     Edge 14, Type (0, 1), BuildingBlock: MIFKUJ_clean_linker_0, # of connection points: 2
#     Edge 15, Type (0, 1), BuildingBlock: MIFKUJ_clean_linker_0, # of connection points: 2
#     Edge 16, Type (0, 1), BuildingBlock: MIFKUJ_clean_linker_0, # of connection points: 2
#     Edge 17, Type (0, 1), BuildingBlock: MIFKUJ_clean_linker_0, # of connection points: 2
#     Edge 18, Type (0, 1), BuildingBlock: MIFKUJ_clean_linker_0, # of connection points: 2
#     Edge 19, Type (0, 1), BuildingBlock: MIFKUJ_clean_linker_0, # of connection points: 2
#     Edge 20, Type (0, 1), BuildingBlock: MIFKUJ_clean_linker_0, # of connection points: 2
#     Edge 21, Type (0, 1), BuildingBlock: MIFKUJ_clean_linker_0, # of connection points: 2
#     Edge 22, Type (0, 1), BuildingBlock: MIFKUJ_clean_linker_0, # of connection points: 2
#     Edge 23, Type (0, 1), BuildingBlock: MIFKUJ_clean_linker_0, # of connection points: 2
#     Edge 24, Type (0, 1), BuildingBlock: MIFKUJ_clean_linker_0, # of connection points: 2
#     Edge 25, Type (0, 1), BuildingBlock: MIFKUJ_clean_linker_0, # of connection points: 2
#     Edge 26, Type (0, 1), BuildingBlock: MIFKUJ_clean_linker_0, # of connection points: 2
#     Edge 27, Type (0, 1), BuildingBlock: MIFKUJ_clean_linker_0, # of connection points: 2
#     Edge 28, Type (0, 1), BuildingBlock: MIFKUJ_clean_linker_0, # of connection points: 2
#     Edge 29, Type (0, 1), BuildingBlock: MIFKUJ_clean_linker_0, # of connection points: 2
#     Edge 30, Type (0, 1), BuildingBlock: MIFKUJ_clean_linker_0, # of connection points: 2
#     Edge 31, Type (0, 1), BuildingBlock: MIFKUJ_clean_linker_0, # of connection points: 2
#     Edge 32, Type (0, 1), BuildingBlock: MIFKUJ_clean_linker_0, # of connection points: 2
#     Edge 33, Type (0, 1), BuildingBlock: MIFKUJ_clean_linker_0, # of connection points: 2
#     Edge 34, Type (0, 1), BuildingBlock: MIFKUJ_clean_linker_0, # of connection points: 2
#     Edge 35, Type (0, 1), BuildingBlock: MIFKUJ_clean_linker_0, # of connection points: 2
# Relax obj value: 0.086
# Max RMSD: 0.181
# Mean RMSD: 0.079
data_MOF--net-zzz--node1-JUFBIX_clean_sbu_0--node2-QEWDON_clean_linker_0--edge1-MIFKUJ_clean_linker_0
_symmetry_space_group_name_H-M    P1
_symmetry_Int_Tables_number       1
_symmetry_cell_setting            triclinic
loop_
_symmetry_equiv_pos_as_xyz
'x, y, z'
_cell_length_a     70.45683
_cell_length_b     70.315617
_cell_length_c     22.025143
_cell_angle_alpha  83.003635
_cell_angle_beta   89.735274
_cell_angle_gamma 90.317409
loop_
_atom_site_label
_atom_site_type_symbol
_atom_site_fract_x
_atom_site_fract_y
_atom_site_fract_z
_atom_type_partial_charge
H0 H 0.79882 0.53259 0.14513 0.0
C1 C 0.80666 0.53056 0.18757 0.0
C2 C 0.82597 0.52589 0.18584 0.0
C3 C 0.79785 0.5334 0.24352 0.0
H4 H 0.85163 0.52082 0.23762 0.0
C5 C 0.83659 0.524 0.23958 0.0
C6 C 0.82835 0.52705 0.29523 0.0
C7 C 0.809 0.5316 0.29738 0.0
C8 C 0.77738 0.53906 0.24542 0.0
H9 H 0.80276 0.53363 0.34113 0.0
C10 C 0.76382 0.53254 0.2052 0.0
C11 C 0.7446 0.53797 0.2079 0.0
C12 C 0.77127 0.55135 0.28747 0.0
H13 H 0.78119 0.55728 0.3176 0.0
C14 C 0.75227 0.55658 0.29057 0.0
H15 H 0.76803 0.52297 0.17264 0.0
C16 C 0.73902 0.54992 0.25134 0.0
H17 H 0.72441 0.5545 0.25403 0.0
H18 H 0.74783 0.56604 0.32315 0.0
H19 H 1.00555 0.78263 0.14571 0.0
C20 C 0.00736 0.78957 0.18659 0.0
C21 C 0.01329 0.80875 0.1804 0.0
C22 C 1.00337 0.77968 0.24499 0.0
H23 H 0.01824 0.83353 0.2256 0.0
C24 C 0.01466 0.81839 0.23197 0.0
C25 C 0.01051 0.8092 0.29059 0.0
C26 C 1.00511 0.78972 0.29691 0.0
C27 C 0.9967 0.75921 0.25139 0.0
H28 H 1.0024 0.78246 0.34234 0.0
C29 C 1.00275 0.74639 0.21034 0.0
C30 C 0.99606 0.72728 0.21621 0.0
C31 C 0.98377 0.75244 0.29813 0.0
H32 H 0.97822 0.76182 0.32932 0.0
C33 C 0.97735 0.7335 0.30455 0.0
H34 H 0.01287 0.75106 0.17439 0.0
C35 C 0.98343 0.72101 0.2641 0.0
H36 H 0.97785 0.7065 0.26944 0.0
H37 H 0.96738 0.72856 0.34065 0.0
H38 H 0.74859 0.99586 0.06231 0.0
C39 C 0.74258 1.0002 0.10381 0.0
C40 C 0.72345 1.00581 0.10454 0.0
C41 C 0.75337 0.99874 0.15814 0.0
H42 H 0.70048 0.01457 0.15926 0.0
C43 C 0.71536 0.01068 0.15862 0.0
C44 C 0.72562 0.0091 0.21295 0.0
C45 C 0.74462 1.00323 0.21269 0.0
C46 C 0.77294 0.99052 0.1602 0.0
H47 H 0.75241 1.00186 0.25528 0.0
C48 C 0.78642 0.99527 0.11264 0.0
C49 C 0.80476 0.98703 0.11623 0.0
C50 C 0.77808 0.97734 0.21064 0.0
H51 H 0.76803 0.97289 0.24705 0.0
C52 C 0.79615 0.96944 0.2147 0.0
H53 H 0.78266 1.00524 0.07318 0.0
C54 C 0.80939 0.97428 0.1683 0.0
H55 H 0.82341 0.96807 0.17357 0.0
H56 H 0.79991 0.95945 0.25411 0.0
H57 H 0.52917 0.73761 0.05598 0.0
C58 C 0.52644 0.73008 0.10114 0.0
C59 C 0.51758 0.71201 0.10677 0.0
C60 C 0.53281 0.73789 0.15348 0.0
H61 H 0.50872 0.68758 0.16891 0.0
C62 C 0.51479 0.70189 0.16499 0.0
C63 C 0.52148 0.709 0.21757 0.0
C64 C 0.53044 0.72708 0.21163 0.0
C65 C 0.54382 0.75622 0.14679 0.0
H66 H 0.53578 0.73259 0.25216 0.0
C67 C 0.53788 0.77249 0.10729 0.0
C68 C 0.54922 0.78926 0.09924 0.0
C69 C 0.56103 0.75716 0.17843 0.0
H70 H 0.56613 0.74489 0.20828 0.0
C71 C 0.57218 0.77373 0.17062 0.0
H72 H 0.52465 0.77206 0.08262 0.0
C73 C 0.5664 0.78962 0.13114 0.0
H74 H 0.5753 0.80234 0.12591 0.0
H75 H 0.58544 0.77421 0.19499 0.0
H76 H 0.23573 0.52413 0.35474 0.0
C77 C 0.22889 0.52028 0.31395 0.0
C78 C 0.21049 0.51245 0.31862 0.0
C79 C 0.23804 0.52399 0.25653 0.0
H80 H 0.18667 0.50306 0.26872 0.0
C81 C 0.20124 0.50821 0.26571 0.0
C82 C 0.20967 0.51239 0.20813 0.0
C83 C 0.22811 0.52013 0.20355 0.0
C84 C 0.25723 0.53327 0.25145 0.0
H85 H 0.23453 0.52329 0.15865 0.0
C86 C 0.27128 0.52878 0.29663 0.0
C87 C 0.28906 0.53826 0.2924 0.0
C88 C 0.26139 0.54729 0.20186 0.0
H89 H 0.25089 0.55153 0.16718 0.0
C90 C 0.27903 0.55641 0.19695 0.0
H91 H 0.26836 0.51808 0.33528 0.0
C92 C 0.29275 0.55197 0.24167 0.0
H93 H 0.30636 0.55925 0.23632 0.0
H94 H 0.28203 0.56711 0.15842 0.0
H95 H 0.01106 0.25061 0.35578 0.0
C96 C 0.01681 0.24392 0.31797 0.0
C97 C 0.02216 0.22462 0.32807 0.0
C98 C 0.01824 0.25431 0.25911 0.0
H99 H 0.03228 0.20043 0.2865 0.0
C100 C 0.02889 0.21557 0.27911 0.0
C101 C 0.02984 0.22526 0.21986 0.0
C102 C 0.02462 0.24467 0.20993 0.0
C103 C 0.01193 0.27475 0.24873 0.0
H104 H 0.02559 0.25214 0.16401 0.0
C105 C 0.01449 0.28731 0.29379 0.0
C106 C 0.00736 0.30618 0.28508 0.0
C107 C 1.00249 0.28164 0.19436 0.0
H108 H 0.9998 0.27244 0.15934 0.0
C109 C 0.99583 0.3004 0.185 0.0
H110 H 0.02173 0.28237 0.336 0.0
C111 C 0.99816 0.31256 0.22992 0.0
H112 H 0.99279 0.32703 0.22137 0.0
H113 H 0.98859 0.30548 0.14293 0.0
H114 H 0.2812 0.01519 0.46766 0.0
C115 C 0.28931 0.02126 0.42799 0.0
C116 C 0.30828 0.02666 0.4355 0.0
C117 C 0.28117 0.02285 0.36918 0.0
H118 H 0.33407 0.03702 0.39032 0.0
C119 C 0.31922 0.03361 0.38425 0.0
C120 C 0.31193 0.03428 0.32512 0.0
C121 C 0.29279 0.02926 0.31785 0.0
C122 C 0.26114 0.01638 0.36081 0.0
H123 H 0.28709 0.03023 0.27201 0.0
C124 C 0.24656 0.019 0.40368 0.0
C125 C 0.22785 0.01236 0.39533 0.0
C126 C 0.2566 1.00699 0.3098 0.0
H127 H 0.26736 1.0041 0.27699 0.0
C128 C 0.23814 1.00083 0.30071 0.0
H129 H 0.24976 0.02605 0.44351 0.0
C130 C 0.22389 1.00354 0.34271 0.0
H131 H 0.20966 0.99877 0.33363 0.0
H132 H 0.23486 0.9938 0.26091 0.0
H133 H 0.52127 0.29464 0.45681 0.0
C134 C 0.5182 0.30236 0.41234 0.0
C135 C 0.5107 0.32095 0.4087 0.0
C136 C 0.5227 0.29422 0.35864 0.0
H137 H 0.50253 0.34596 0.34841 0.0
C138 C 0.50749 0.3313 0.3512 0.0
C139 C 0.51244 0.32386 0.29736 0.0
C140 C 0.5199 0.30525 0.30116 0.0
C141 C 0.53209 0.27509 0.36251 0.0
H142 H 0.52374 0.29953 0.25931 0.0
C143 C 0.52637 0.25949 0.40581 0.0
C144 C 0.536 0.24177 0.4097 0.0
C145 C 0.54747 0.27257 0.32333 0.0
H146 H 0.55255 0.28427 0.29064 0.0
C147 C 0.55682 0.25509 0.32658 0.0
H148 H 0.5146 0.26115 0.43651 0.0
C149 C 0.55117 0.23983 0.36922 0.0
H150 H 0.55863 0.22637 0.37013 0.0
H151 H 0.56859 0.25338 0.296 0.0
Co152 Co 0.02029 0.02349 0.79287 0.0
C153 C 0.9814 0.01379 0.79144 0.0
Co154 Co 0.01083 0.01105 0.71001 0.0
C155 C 0.03106 0.05347 0.8669 0.0
C156 C 0.02405 0.02699 0.92107 0.0
N157 N 0.02655 0.03492 0.86264 0.0
N158 N 0.03106 0.05747 0.92542 0.0
C159 C 0.02681 0.04075 0.95958 0.0
H160 H 0.03305 0.06418 0.8277 0.0
H161 H 0.01943 0.0124 0.93477 0.0
C162 C 0.04971 0.02051 0.71125 0.0
N163 N 1.00445 0.99957 0.64049 0.0
C164 C 0.99957 0.98107 0.63713 0.0
C165 C 0.00716 1.00716 0.58182 0.0
N166 N 0.9996 0.97673 0.57901 0.0
C167 C 1.00422 0.9932 0.54409 0.0
C168 C 0.00784 0.05032 0.69762 0.0
O169 O 0.04586 0.02673 0.76191 0.0
O170 O 0.03649 0.01315 0.68238 0.0
O171 O 1.00565 0.03592 0.66853 0.0
O172 O 0.01378 0.04778 0.75226 0.0
O173 O 0.98514 0.00902 0.73872 0.0
H174 H 0.01215 0.02159 0.56748 0.0
H175 H 0.99739 0.97057 0.67674 0.0
O176 O 0.99474 0.02008 0.82256 0.0
O177 O 0.02667 0.99879 0.83282 0.0
O178 O 0.01619 0.98657 0.7524 0.0
C179 C 0.02329 0.9842 0.8056 0.0
H180 H 0.02514 0.03875 0.00883 0.0
H181 H 1.0062 0.99486 0.49496 0.0
Co182 Co 0.50863 0.01844 0.79932 0.0
C183 C 0.51896 0.98005 0.79645 0.0
Co184 Co 0.52276 0.01273 0.71286 0.0
C185 C 0.47815 0.02924 0.87854 0.0
C186 C 0.50111 0.01496 0.92824 0.0
N187 N 0.49577 0.02214 0.87133 0.0
N188 N 0.47227 0.02641 0.93748 0.0
C189 C 0.48669 0.01746 0.96879 0.0
H190 H 0.4693 0.03518 0.84093 0.0
H191 H 0.51424 1.00742 0.93907 0.0
C192 C 0.5127 0.05113 0.71527 0.0
N193 N 0.53563 0.00894 0.64065 0.0
C194 C 0.55442 1.00592 0.63297 0.0
C195 C 0.52851 0.01073 0.58347 0.0
N196 N 0.55928 1.00593 0.57355 0.0
C197 C 0.54294 0.00881 0.54234 0.0
C198 C 0.48397 0.00848 0.70942 0.0
O199 O 0.50651 0.04527 0.7689 0.0
O200 O 0.52008 0.0391 0.68351 0.0
O201 O 0.49892 1.00738 0.67763 0.0
O202 O 0.48517 0.01325 0.76302 0.0
O203 O 0.52544 0.98617 0.74351 0.0
H204 H 0.5139 0.01406 0.57188 0.0
H205 H 0.5645 1.00416 0.67009 0.0
O206 O 0.51096 0.99178 0.82795 0.0
O207 O 0.53259 0.02325 0.8356 0.0
O208 O 0.54606 0.01822 0.7491 0.0
C209 C 0.54752 0.02225 0.80344 0.0
H210 H 0.48651 0.01248 0.01729 0.0
H211 H 0.54165 0.01043 0.49302 0.0
Co212 Co 0.53298 0.51648 0.7603 0.0
C213 C 0.51575 0.48955 0.84635 0.0
Co214 Co 0.50158 0.51651 0.75439 0.0
C215 C 0.57046 0.51724 0.81483 0.0
C216 C 0.57163 0.51586 0.71837 0.0
N217 N 0.55936 0.51649 0.76518 0.0
N218 N 0.5892 0.51717 0.80083 0.0
C219 C 0.58989 0.51627 0.74001 0.0
H220 H 0.56483 0.51812 0.86018 0.0
H221 H 0.56753 0.51517 0.67142 0.0
C222 C 0.51897 0.54346 0.66844 0.0
N223 N 0.47522 0.51647 0.74918 0.0
C224 C 0.46435 0.51698 0.69854 0.0
C225 C 0.46274 0.5159 0.79594 0.0
N226 N 0.44556 0.51682 0.71176 0.0
C227 C 0.44457 0.51613 0.77318 0.0
C228 C 0.51587 0.54243 0.82809 0.0
O229 O 0.53409 0.5362 0.69246 0.0
O230 O 0.503 0.53658 0.68778 0.0
O231 O 0.50064 0.5354 0.80917 0.0
O232 O 0.53176 0.53581 0.81321 0.0
O233 O 0.50055 0.49633 0.82139 0.0
H234 H 0.46663 0.51531 0.84358 0.0
H235 H 0.47018 0.51772 0.65276 0.0
O236 O 0.53161 0.49687 0.82783 0.0
O237 O 0.53382 0.49704 0.70711 0.0
O238 O 0.50278 0.49775 0.69981 0.0
C239 C 0.51856 0.49061 0.68639 0.0
H240 H 0.60267 0.51572 0.71288 0.0
H241 H 0.43164 0.51555 0.80007 0.0
Co242 Co 0.01842 0.53126 0.75889 0.0
C243 C 0.04359 0.51144 0.84042 0.0
Co244 Co 0.01776 0.49978 0.75715 0.0
C245 C 0.01741 0.56684 0.813 0.0
C246 C 0.02044 0.57164 0.71564 0.0
N247 N 0.01879 0.55759 0.76277 0.0
N248 N 0.01808 0.58615 0.7992 0.0
C249 C 0.02002 0.58913 0.73776 0.0
H250 H 0.01567 0.55947 0.85876 0.0
H251 H 0.02186 0.5693 0.6682 0.0
C252 C 0.9926 0.5197 0.67563 0.0
N253 N 0.01738 0.47346 0.7531 0.0
C254 C 0.01785 0.46435 0.70243 0.0
C255 C 0.01639 0.45931 0.80013 0.0
N256 N 0.01711 0.44506 0.71589 0.0
C257 C 0.01618 0.44188 0.77748 0.0
C258 C 0.99141 0.51211 0.83659 0.0
O259 O 0.99964 0.53437 0.69604 0.0
O260 O 0.99888 0.50319 0.69546 0.0
O261 O 0.99808 0.49718 0.81717 0.0
O262 O 0.99869 0.52835 0.81789 0.0
O263 O 0.03685 0.49674 0.81937 0.0
H264 H 0.01583 0.46153 0.84785 0.0
H265 H 0.01838 0.47179 0.65644 0.0
O266 O 0.037 0.52787 0.82123 0.0
O267 O 0.03831 0.5338 0.69949 0.0
O268 O 0.03719 0.5027 0.69731 0.0
C269 C 0.04462 0.51889 0.67899 0.0
H270 H 0.02128 0.60294 0.71042 0.0
H271 H 0.01559 0.42795 0.80444 0.0
H272 H 0.20017 0.98618 0.43402 0.0
H273 H 0.17195 0.9908 0.49476 0.0
H274 H 0.19165 0.04721 0.52217 0.0
H275 H 0.21986 0.04302 0.45893 0.0
H276 H 0.17339 0.02078 0.63269 0.0
H277 H 0.1622 0.0498 0.42519 0.0
H278 H 0.16271 0.05013 0.31311 0.0
H279 H 0.12637 1.00054 0.32877 0.0
H280 H 0.1259 0.99972 0.44109 0.0
H281 H 0.0799 0.04315 0.73837 0.0
H282 H 0.11172 0.0447 0.692 0.0
H283 H 0.09574 1.00043 0.58217 0.0
H284 H 0.06395 0.9995 0.62599 0.0
H285 H 0.11368 0.02552 0.51347 0.0
H286 H 0.126 0.99373 0.71578 0.0
H287 H 0.12615 0.99015 0.82858 0.0
H288 H 0.1603 0.04104 0.82519 0.0
H289 H 0.16016 0.04505 0.71229 0.0
C290 C 0.1986 0.99963 0.45277 0.0
C291 C 0.21219 0.01439 0.44029 0.0
C292 C 0.18249 1.00216 0.48802 0.0
C293 C 0.17961 0.01939 0.51257 0.0
C294 C 0.19363 0.03378 0.50367 0.0
C295 C 0.20977 0.03133 0.46761 0.0
C296 C 0.16117 0.02264 0.5429 0.0
C297 C 0.16033 0.02221 0.60673 0.0
C298 C 0.14411 0.02398 0.50915 0.0
C299 C 0.14415 0.02461 0.44157 0.0
C300 C 0.15444 0.03887 0.40477 0.0
C301 C 0.1547 0.03916 0.34119 0.0
C302 C 0.14461 0.02534 0.31384 0.0
C303 C 0.13419 0.01123 0.35002 0.0
C304 C 0.13391 0.01086 0.41363 0.0
C305 C 0.08324 0.03374 0.70441 0.0
C306 C 0.06934 0.02126 0.68577 0.0
C307 C 0.1015 0.03455 0.67809 0.0
C308 C 0.10636 0.02257 0.63366 0.0
C309 C 0.09247 0.00996 0.61586 0.0
C310 C 0.07423 0.0094 0.64119 0.0
C311 C 0.1256 0.02324 0.60408 0.0
C312 C 0.12665 0.02438 0.53995 0.0
C313 C 0.14277 0.02221 0.63786 0.0
C314 C 0.14288 0.01982 0.70564 0.0
C315 C 0.13342 1.00424 0.73911 0.0
C316 C 0.13352 1.00212 0.80304 0.0
C317 C 0.14317 0.01539 0.83403 0.0
C318 C 0.15279 0.03079 0.80113 0.0
C319 C 0.15272 0.03299 0.73717 0.0
H320 H 0.14324 0.01373 0.88353 0.0
H321 H 0.14483 0.02559 0.26461 0.0
H322 H 0.55948 0.21828 0.48247 0.0
H323 H 0.55163 0.1879 0.54331 0.0
H324 H 0.49236 0.19671 0.50126 0.0
H325 H 0.50028 0.22707 0.43853 0.0
H326 H 0.5313 0.17522 0.64038 0.0
H327 H 0.47242 0.153 0.48257 0.0
H328 H 0.46186 0.16 0.37548 0.0
H329 H 0.51896 0.17499 0.31874 0.0
H330 H 0.52987 0.16784 0.4253 0.0
H331 H 0.49863 0.08173 0.76877 0.0
H332 H 0.49865 0.11566 0.72585 0.0
H333 H 0.52543 0.10098 0.56145 0.0
H334 H 0.52515 0.06731 0.60321 0.0
H335 H 0.49925 0.12647 0.53125 0.0
H336 H 0.55064 0.11986 0.67619 0.0
H337 H 0.56505 0.11166 0.77781 0.0
H338 H 0.52921 0.15246 0.85176 0.0
H339 H 0.51443 0.16073 0.75066 0.0
C340 C 0.54473 0.21385 0.48649 0.0
C341 C 0.53054 0.22499 0.45481 0.0
C342 C 0.54023 0.1965 0.52177 0.0
C343 C 0.52143 0.18976 0.52633 0.0
C344 C 0.50702 0.20141 0.49781 0.0
C345 C 0.51154 0.21886 0.46235 0.0
C346 C 0.51737 0.16998 0.55708 0.0
C347 C 0.52407 0.16464 0.61675 0.0
C348 C 0.50824 0.15596 0.52622 0.0
C349 C 0.50188 0.16013 0.46196 0.0
C350 C 0.48271 0.15776 0.44717 0.0
C351 C 0.47667 0.16175 0.38659 0.0
C352 C 0.48972 0.16801 0.34038 0.0
C353 C 0.50885 0.17022 0.3546 0.0
C354 C 0.51496 0.16621 0.41508 0.0
C355 C 0.50443 0.08574 0.72337 0.0
C356 C 0.51194 0.07173 0.68965 0.0
C357 C 0.50449 0.10517 0.69891 0.0
C358 C 0.51218 0.111 0.64042 0.0
C359 C 0.51935 0.09695 0.60649 0.0
C360 C 0.51925 0.07762 0.6307 0.0
C361 C 0.51329 0.13165 0.61442 0.0
C362 C 0.50607 0.13715 0.55553 0.0
C363 C 0.52238 0.14567 0.64541 0.0
C364 C 0.53128 0.14075 0.7061 0.0
C365 C 0.54574 0.12697 0.71425 0.0
C366 C 0.55399 0.12233 0.77171 0.0
C367 C 0.54801 0.13149 0.82125 0.0
C368 C 0.5338 0.14535 0.81337 0.0
C369 C 0.52549 0.15003 0.75601 0.0
H370 H 0.55442 0.12788 0.8657 0.0
H371 H 0.48502 0.17111 0.29353 0.0
H372 H 0.31125 0.56413 0.34277 0.0
H373 H 0.33752 0.55779 0.414 0.0
H374 H 0.32686 0.49706 0.42281 0.0
H375 H 0.30044 0.50334 0.3509 0.0
H376 H 0.33541 0.50699 0.53494 0.0
H377 H 0.3627 0.51707 0.33519 0.0
H378 H 0.36827 0.53385 0.23164 0.0
H379 H 0.39042 0.58261 0.3085 0.0
H380 H 0.38473 0.56623 0.41259 0.0
H381 H 0.44531 0.50521 0.59825 0.0
H382 H 0.41853 0.50599 0.52767 0.0
H383 H 0.38326 0.53039 0.6584 0.0
H384 H 0.40989 0.52971 0.72891 0.0
H385 H 0.39854 0.53437 0.47162 0.0
H386 H 0.33764 0.51557 0.64799 0.0
H387 H 0.33271 0.4963 0.74818 0.0
H388 H 0.37927 0.4601 0.71207 0.0
H389 H 0.38431 0.47897 0.61135 0.0
C390 C 0.31448 0.54939 0.35969 0.0
C391 C 0.30389 0.53422 0.34036 0.0
C392 C 0.32952 0.5458 0.40053 0.0
C393 C 0.33444 0.52693 0.42292 0.0
C394 C 0.3234 0.51174 0.40592 0.0
C395 C 0.30826 0.51535 0.36496 0.0
C396 C 0.3514 0.52324 0.46273 0.0
C397 C 0.34921 0.51295 0.5211 0.0
C398 C 0.36957 0.5306 0.44423 0.0
C399 C 0.37315 0.54047 0.3817 0.0
C400 C 0.36864 0.53142 0.33002 0.0
C401 C 0.37183 0.54086 0.27123 0.0
C402 C 0.37966 0.5593 0.26349 0.0
C403 C 0.38435 0.56833 0.31456 0.0
C404 C 0.38116 0.55897 0.37348 0.0
C405 C 0.4319 0.51084 0.61193 0.0
C406 C 0.42981 0.51732 0.66959 0.0
C407 C 0.41655 0.51121 0.57154 0.0
C408 C 0.39875 0.51799 0.5879 0.0
C409 C 0.39669 0.52467 0.64512 0.0
C410 C 0.41199 0.52427 0.68552 0.0
C411 C 0.38245 0.51861 0.54468 0.0
C412 C 0.38477 0.52834 0.48554 0.0
C413 C 0.36452 0.5104 0.56211 0.0
C414 C 0.36145 0.49881 0.62233 0.0
C415 C 0.34677 0.50345 0.66131 0.0
C416 C 0.34396 0.4926 0.71822 0.0
C417 C 0.3557 0.47702 0.73656 0.0
C418 C 0.37023 0.47221 0.69792 0.0
C419 C 0.37308 0.483 0.64095 0.0
H420 H 0.35351 0.46865 0.78065 0.0
H421 H 0.38212 0.56658 0.21793 0.0
H422 H 0.03856 0.31331 0.35386 0.0
H423 H 0.0413 0.33645 0.42835 0.0
H424 H 0.98245 0.35154 0.40004 0.0
H425 H 0.97978 0.32877 0.32525 0.0
H426 H 1.00197 0.3827 0.40041 0.0
H427 H 0.99874 0.32294 0.5312 0.0
H428 H 0.00835 0.29004 0.57006 0.0
H429 H 0.06364 0.31055 0.61277 0.0
H430 H 0.05443 0.34355 0.5734 0.0
H431 H 1.00145 0.40944 0.73372 0.0
H432 H 1.00092 0.38554 0.66204 0.0
H433 H 0.03226 0.42414 0.53043 0.0
H434 H 0.03268 0.44819 0.60188 0.0
H435 H 0.02677 0.3661 0.61044 0.0
H436 H 0.01898 0.41761 0.38656 0.0
H437 H 1.00605 0.44963 0.35187 0.0
H438 H 0.96665 0.44384 0.50242 0.0
H439 H 0.97917 0.4117 0.53749 0.0
C440 C 0.02618 0.32144 0.36406 0.0
C441 C 0.00898 0.31926 0.33338 0.0
C442 C 0.02774 0.33468 0.40666 0.0
C443 C 0.01206 0.34578 0.42019 0.0
C444 C 0.99482 0.34334 0.39021 0.0
C445 C 0.99331 0.33028 0.3474 0.0
C446 C 0.01349 0.36019 0.46464 0.0
C447 C 0.00746 0.37903 0.44625 0.0
C448 C 0.02041 0.35549 0.5249 0.0
C449 C 0.02596 0.33568 0.54877 0.0
C450 C 0.01299 0.32041 0.54846 0.0
C451 C 0.01836 0.30175 0.57065 0.0
C452 C 0.03661 0.2982 0.59371 0.0
C453 C 0.04952 0.31332 0.5948 0.0
C454 C 0.04423 0.332 0.5726 0.0
C455 C 0.00836 0.41282 0.68974 0.0
C456 C 0.01703 0.43083 0.67359 0.0
C457 C 0.00804 0.39911 0.64868 0.0
C458 C 0.01638 0.40302 0.59041 0.0
C459 C 0.0254 0.42085 0.57458 0.0
C460 C 0.0256 0.43464 0.6155 0.0
C461 C 0.01528 0.38857 0.54607 0.0
C462 C 0.02141 0.36976 0.56444 0.0
C463 C 0.00801 0.39316 0.48624 0.0
C464 C 1.00016 0.41234 0.46497 0.0
C465 C 0.00751 0.42315 0.4121 0.0
C466 C 1.00026 0.44132 0.3924 0.0
C467 C 0.98558 0.44879 0.42504 0.0
C468 C 0.97807 0.43806 0.4773 0.0
C469 C 0.98524 0.41988 0.49714 0.0
H470 H 0.98001 0.46286 0.40977 0.0
H471 H 0.04074 0.28374 0.61087 0.0
H472 H 0.814 0.02198 0.05106 0.0
H473 H 0.84087 0.02923 0.98041 0.0
H474 H 0.85634 0.9695 0.00391 0.0
H475 H 0.82915 0.96212 0.07087 0.0
H476 H 0.87655 0.0275 0.9984 0.0
H477 H 0.88034 0.95583 0.88857 0.0
H478 H 0.85826 0.93271 0.85047 0.0
H479 H 0.81536 0.97601 0.82413 0.0
H480 H 0.83724 0.99947 0.86122 0.0
H481 H 0.97043 0.01227 0.91095 0.0
H482 H 0.9383 0.01004 0.95302 0.0
H483 H 0.9156 0.01059 0.77113 0.0
H484 H 0.94792 0.0118 0.72916 0.0
H485 H 0.89599 0.98711 0.83955 0.0
H486 H 0.914 0.05105 0.85666 0.0
H487 H 0.93423 0.07753 0.88312 0.0
H488 H 0.92981 0.05591 0.07359 0.0
H489 H 0.90978 0.02913 0.04823 0.0
C490 C 0.82284 0.01034 0.03976 0.0
C491 C 0.81945 0.99148 0.06718 0.0
C492 C 0.83834 0.01452 0.99981 0.0
C493 C 0.85072 0.99993 0.9862 0.0
C494 C 0.84694 0.98105 0.01229 0.0
C495 C 0.83144 0.97686 0.05148 0.0
C496 C 0.86827 1.00434 0.94832 0.0
C497 C 0.8807 0.01874 0.96335 0.0
C498 C 0.87362 0.99339 0.90105 0.0
C499 C 0.86042 0.97938 0.87812 0.0
C500 C 0.86623 0.96046 0.87434 0.0
C501 C 0.85374 0.94728 0.85299 0.0
C502 C 0.83541 0.95288 0.83504 0.0
C503 C 0.82954 0.97168 0.83824 0.0
C504 C 0.84198 0.98491 0.85951 0.0
C505 C 0.9586 0.01192 0.87985 0.0
C506 C 0.96175 0.01229 0.81663 0.0
C507 C 0.94015 0.0108 0.90396 0.0
C508 C 0.92431 0.01061 0.86536 0.0
C509 C 0.92747 0.01079 0.80213 0.0
C510 C 0.94598 0.0115 0.77808 0.0
C511 C 0.90457 0.00975 0.89133 0.0
C512 C 0.89175 0.99602 0.87406 0.0
C513 C 0.89857 0.02182 0.93482 0.0
C514 C 0.91048 0.038 0.95047 0.0
C515 C 0.91743 0.05187 0.90417 0.0
C516 C 0.92885 0.06694 0.91897 0.0
C517 C 0.93333 0.06838 0.97998 0.0
C518 C 0.92634 0.05477 0.02634 0.0
C519 C 0.91492 0.03966 0.01179 0.0
H520 H 0.94219 0.08005 0.99135 0.0
H521 H 0.82575 0.94265 0.81856 0.0
H522 H 0.51749 0.81111 0.10668 0.0
H523 H 0.51106 0.84257 0.04964 0.0
H524 H 0.56192 0.83802 0.94238 0.0
H525 H 0.56874 0.80707 1.00152 0.0
H526 H 0.56176 0.87117 0.97429 0.0
H527 H 0.51406 0.83492 0.88501 0.0
H528 H 0.48677 0.8129 0.883 0.0
H529 H 0.45217 0.85091 0.97401 0.0
H530 H 0.47933 0.87305 0.9773 0.0
H531 H 0.54194 0.95269 0.75616 0.0
H532 H 0.54586 0.91934 0.80173 0.0
H533 H 0.50416 0.92766 0.93973 0.0
H534 H 0.50033 0.96102 0.89505 0.0
H535 H 0.49948 0.89274 0.88835 0.0
H536 H 0.54867 0.92867 0.97645 0.0
H537 H 0.57619 0.95062 0.97245 0.0
H538 H 0.60848 0.9123 0.87539 0.0
H539 H 0.58102 0.89026 0.87784 0.0
C540 C 0.52704 0.81671 0.07006 0.0
C541 C 0.54353 0.80664 0.05822 0.0
C542 C 0.52337 0.83471 0.03729 0.0
C543 C 0.53591 0.84279 0.99097 0.0
C544 C 0.55204 0.83229 0.97787 0.0
C545 C 0.55587 0.81452 0.01135 0.0
C546 C 0.53292 0.86257 0.95867 0.0
C547 C 0.54819 0.87568 0.95462 0.0
C548 C 0.51516 0.86884 0.9338 0.0
C549 C 0.49879 0.85556 0.93192 0.0
C550 C 0.50067 0.83852 0.90501 0.0
C551 C 0.48522 0.82602 0.90357 0.0
C552 C 0.46776 0.83048 0.9285 0.0
C553 C 0.46571 0.84747 0.95479 0.0
C554 C 0.48112 0.86 0.9564 0.0
C555 C 0.53353 0.9474 0.79602 0.0
C556 C 0.52087 0.95957 0.82205 0.0
C557 C 0.53582 0.92834 0.8221 0.0
C558 C 0.52536 0.92101 0.87434 0.0
C559 C 0.51237 0.93298 0.89944 0.0
C560 C 0.51026 0.95209 0.87394 0.0
C561 C 0.52831 0.90103 0.90396 0.0
C562 C 0.51304 0.88802 0.90769 0.0
C563 C 0.54613 0.89475 0.92774 0.0
C564 C 0.56271 0.90791 0.92672 0.0
C565 C 0.56158 0.925 0.95377 0.0
C566 C 0.57718 0.93745 0.95186 0.0
C567 C 0.59405 0.93288 0.92351 0.0
C568 C 0.59538 0.91583 0.89721 0.0
C569 C 0.57981 0.90335 0.89886 0.0
H570 H 0.6061 0.94254 0.92203 0.0
H571 H 0.45582 0.82079 0.92734 0.0
H572 H 0.70937 0.5228 0.23493 0.0
H573 H 0.68415 0.51686 0.16342 0.0
H574 H 0.72183 0.53404 0.01153 0.0
H575 H 0.74718 0.54002 0.08318 0.0
H576 H 0.68727 0.55269 1.00102 0.0
H577 H 0.70923 0.48818 0.04215 0.0
H578 H 0.7185 0.45852 0.10624 0.0
H579 H 0.6624 0.45309 0.18363 0.0
H580 H 0.65286 0.48289 0.12063 0.0
H581 H 0.62507 0.52937 0.77025 0.0
H582 H 0.65209 0.53063 0.83812 0.0
H583 H 0.617 0.50913 0.99252 0.0
H584 H 0.58993 0.5071 0.92432 0.0
H585 H 0.65094 0.49208 1.00025 0.0
H586 H 0.62915 0.55677 0.96447 0.0
H587 H 0.61939 0.58673 0.90288 0.0
H588 H 0.6746 0.59227 0.81894 0.0
H589 H 0.6846 0.56217 0.87945 0.0
C590 C 0.71235 0.52507 0.18628 0.0
C591 C 0.73025 0.53191 0.16463 0.0
C592 C 0.69795 0.5216 0.14545 0.0
C593 C 0.70108 0.52497 0.08205 0.0
C594 C 0.7191 0.53132 0.06026 0.0
C595 C 0.73361 0.53459 0.10118 0.0
C596 C 0.68518 0.52304 0.03885 0.0
C597 C 0.67954 0.53934 1.00005 0.0
C598 C 0.67468 0.5058 0.03901 0.0
C599 C 0.68038 0.48789 0.07708 0.0
C600 C 0.69891 0.48077 0.07325 0.0
C601 C 0.70421 0.4639 0.1093 0.0
C602 C 0.69106 0.45395 0.1491 0.0
C603 C 0.67258 0.46082 0.15284 0.0
C604 C 0.66721 0.47769 0.11692 0.0
C605 C 0.62304 0.5247 0.81847 0.0
C606 C 0.60518 0.51814 0.84154 0.0
C607 C 0.63854 0.52562 0.85745 0.0
C608 C 0.63659 0.52022 0.92068 0.0
C609 C 0.61887 0.51345 0.94394 0.0
C610 C 0.60332 0.51247 0.90488 0.0
C611 C 0.65303 0.52173 0.96231 0.0
C612 C 0.65872 0.5054 1.00096 0.0
C613 C 0.66351 0.53899 0.96243 0.0
C614 C 0.65756 0.55711 0.92604 0.0
C615 C 0.63916 0.56429 0.93252 0.0
C616 C 0.63359 0.58131 0.89786 0.0
C617 C 0.64635 0.59137 0.8569 0.0
C618 C 0.66472 0.58444 0.85062 0.0
C619 C 0.67035 0.56741 0.88512 0.0
H620 H 0.64202 0.60455 0.83012 0.0
H621 H 0.69519 0.44089 0.17695 0.0
H622 H 0.0073 0.68996 0.24089 0.0
H623 H 0.01285 0.66688 0.16817 0.0
H624 H 1.00245 0.71092 0.01817 0.0
H625 H 0.99674 0.7341 0.09097 0.0
H626 H 0.9821 0.67775 0.00844 0.0
H627 H 0.04667 0.6948 0.0451 0.0
H628 H 0.07467 0.69994 0.10797 0.0
H629 H 0.07355 0.64064 0.18298 0.0
H630 H 0.04536 0.6352 0.12119 0.0
H631 H 0.00839 0.62364 0.77163 0.0
H632 H 1.00651 0.64796 0.84108 0.0
H633 H 0.02212 0.60609 0.99182 0.0
H634 H 0.02487 0.58175 0.922 0.0
H635 H 0.04026 0.63867 1.00035 0.0
H636 H 0.97567 0.62132 0.96917 0.0
H637 H 0.94709 0.61541 0.90989 0.0
H638 H 0.94739 0.67418 0.82925 0.0
H639 H 0.97614 0.68038 0.88746 0.0
C640 C 1.00635 0.69478 0.19238 0.0
C641 C 1.00155 0.71387 0.17171 0.0
C642 C 0.00962 0.68158 0.15083 0.0
C643 C 0.00813 0.68714 0.0876 0.0
C644 C 1.0037 0.70629 0.06672 0.0
C645 C 1.00059 0.71956 0.10833 0.0
C646 C 0.01031 0.67274 0.04369 0.0
C647 C 0.99494 0.66944 0.0059 0.0
C648 C 0.02682 0.66142 0.04179 0.0
C649 C 0.04379 0.66464 0.07892 0.0
C650 C 0.05229 0.68289 0.07539 0.0
C651 C 0.06822 0.68585 0.11076 0.0
C652 C 0.07586 0.67064 0.14956 0.0
C653 C 0.06761 0.65242 0.15296 0.0
C654 C 0.05167 0.64939 0.11772 0.0
C655 C 0.01164 0.61953 0.81933 0.0
C656 C 0.01676 0.60057 0.84082 0.0
C657 C 0.01034 0.6335 0.8593 0.0
C658 C 0.01389 0.62887 0.92205 0.0
C659 C 0.01922 0.61004 0.94369 0.0
C660 C 0.02061 0.59605 0.90364 0.0
C661 C 0.01205 0.64369 0.96488 0.0
C662 C 0.02744 0.64703 0.00262 0.0
C663 C 0.99548 0.65493 0.96724 0.0
C664 C 0.97818 0.65127 0.93221 0.0
C665 C 0.96973 0.63295 0.93843 0.0
C666 C 0.95348 0.62955 0.90509 0.0
C667 C 0.94546 0.6444 0.8657 0.0
C668 C 0.95364 0.66268 0.8597 0.0
C669 C 0.9699 0.66615 0.8929 0.0
H670 H 0.93288 0.64174 0.83994 0.0
H671 H 0.08819 0.67296 0.1769 0.0
H672 H 0.98935 0.22027 0.39453 0.0
H673 H 0.98226 0.19489 0.47838 0.0
H674 H 0.04054 0.17639 0.47652 0.0
H675 H 0.04764 0.20176 0.39359 0.0
H676 H 0.98406 0.15821 0.46433 0.0
H677 H 0.05335 0.15357 0.61158 0.0
H678 H 0.07526 0.17552 0.65601 0.0
H679 H 0.03178 0.21826 0.64861 0.0
H680 H 0.00951 0.1965 0.60492 0.0
H681 H 1.00682 0.06315 0.57539 0.0
H682 H 1.00462 0.09639 0.52832 0.0
H683 H 0.99848 0.11508 0.70697 0.0
H684 H 1.00152 0.082 0.7542 0.0
H685 H 0.02252 0.13678 0.6477 0.0
H686 H 0.96068 0.1163 0.60106 0.0
H687 H 0.9362 0.09543 0.56375 0.0
H688 H 0.95993 0.10536 0.38268 0.0
H689 H 0.98472 0.12608 0.41903 0.0
C690 C 1.00076 0.21122 0.41376 0.0
C691 C 0.01902 0.21288 0.38772 0.0
C692 C 0.99668 0.19665 0.46123 0.0
C693 C 0.01085 0.18373 0.48369 0.0
C694 C 0.02942 0.18631 0.46059 0.0
C695 C 0.03347 0.20076 0.41306 0.0
C696 C 1.00597 0.16604 0.52472 0.0
C697 C 0.99229 0.1536 0.50492 0.0
C698 C 0.01639 0.16021 0.57842 0.0
C699 C 0.02978 0.17341 0.60456 0.0
C700 C 0.04842 0.16761 0.61966 0.0
C701 C 0.06092 0.18004 0.64467 0.0
C702 C 0.05493 0.19828 0.65501 0.0
C703 C 0.03643 0.20415 0.64038 0.0
C704 C 0.02387 0.19179 0.61536 0.0
C705 C 1.00474 0.07434 0.60447 0.0
C706 C 1.00439 0.07 0.66838 0.0
C707 C 1.00338 0.09334 0.57758 0.0
C708 C 1.00117 0.10829 0.61404 0.0
C709 C 1.00023 0.10385 0.67784 0.0
C710 C 1.00192 0.08492 0.70475 0.0
C711 C 1.00116 0.12861 0.58585 0.0
C712 C 0.01398 0.1415 0.60792 0.0
C713 C 0.98959 0.13503 0.53518 0.0
C714 C 0.97462 0.12268 0.5129 0.0
C715 C 0.96075 0.11395 0.55335 0.0
C716 C 0.94681 0.10215 0.53236 0.0
C717 C 0.94653 0.09906 0.4709 0.0
C718 C 0.96017 0.10778 0.43027 0.0
C719 C 0.97414 0.11958 0.45103 0.0
H720 H 0.93573 0.08991 0.45475 0.0
H721 H 0.06463 0.20787 0.67442 0.0
H722 H 0.3262 0.05165 0.50115 0.0
H723 H 0.35286 0.04346 0.57001 0.0
H724 H 0.34105 0.98339 0.56615 0.0
H725 H 0.31424 0.99158 0.49771 0.0
H726 H 0.36401 0.01811 0.68127 0.0
H727 H 0.38368 0.96661 0.51206 0.0
H728 H 0.37373 0.95849 0.41095 0.0
H729 H 0.35893 0.01715 0.35605 0.0
H730 H 0.36916 0.02573 0.45634 0.0
H731 H 0.45571 0.98707 0.76692 0.0
H732 H 0.4231 0.98387 0.7318 0.0
H733 H 0.43688 0.01973 0.56393 0.0
H734 H 0.46998 0.02158 0.59714 0.0
H735 H 0.41139 0.99379 0.54209 0.0
H736 H 0.41554 0.03995 0.69665 0.0
H737 H 0.42692 0.04587 0.79876 0.0
H738 H 0.39539 0.99697 0.88156 0.0
H739 H 0.38348 0.99107 0.78019 0.0
C740 C 0.32866 0.03674 0.51789 0.0
C741 C 0.31828 0.02223 0.49423 0.0
C742 C 0.3439 0.03206 0.55713 0.0
C743 C 0.34907 0.01284 0.57225 0.0
C744 C 0.33726 0.99831 0.55483 0.0
C745 C 0.32189 1.00299 0.51604 0.0
C746 C 0.36865 0.00841 0.59333 0.0
C747 C 0.37431 0.0126 0.65118 0.0
C748 C 0.38214 1.00137 0.5538 0.0
C749 C 0.37691 0.99672 0.49206 0.0
C750 C 0.37839 0.97779 0.47829 0.0
C751 C 0.37267 0.97312 0.42119 0.0
C752 C 0.36548 0.98728 0.37744 0.0
C753 C 0.36417 1.00617 0.39047 0.0
C754 C 0.37003 0.01096 0.44729 0.0
C755 C 0.4518 0.99393 0.72201 0.0
C756 C 0.46516 1.00472 0.68481 0.0
C757 C 0.43315 0.99224 0.70219 0.0
C758 C 0.42732 1.00215 0.6462 0.0
C759 C 0.44098 0.01208 0.60753 0.0
C760 C 0.45985 0.01318 0.62647 0.0
C761 C 0.40686 1.00354 0.63007 0.0
C762 C 0.40104 0.99896 0.57274 0.0
C763 C 0.39325 0.01023 0.66999 0.0
C764 C 0.3986 0.01513 0.73111 0.0
C765 C 0.41082 0.03067 0.73683 0.0
C766 C 0.41741 0.03397 0.79446 0.0
C767 C 0.41191 0.02176 0.84647 0.0
C768 C 0.39964 1.00639 0.84115 0.0
C769 C 0.39278 1.0032 0.78378 0.0
H770 H 0.41705 0.02425 0.89095 0.0
H771 H 0.36106 0.98365 0.33325 0.0
H772 H 0.47983 0.33996 0.44407 0.0
H773 H 0.4807 0.36646 0.50624 0.0
H774 H 0.53872 0.35299 0.55483 0.0
H775 H 0.53792 0.32643 0.49235 0.0
H776 H 0.51586 0.37028 0.64855 0.0
H777 H 0.53524 0.38055 0.43622 0.0
H778 H 0.53116 0.3775 0.32664 0.0
H779 H 0.47936 0.40942 0.32475 0.0
H780 H 0.48294 0.41233 0.43473 0.0
H781 H 0.54727 0.46482 0.68265 0.0
H782 H 0.54558 0.43362 0.64421 0.0
H783 H 0.48863 0.44586 0.58075 0.0
H784 H 0.49008 0.47699 0.61963 0.0
H785 H 0.51168 0.4286 0.49729 0.0
H786 H 0.49338 0.41977 0.70953 0.0
H787 H 0.49763 0.42253 0.81923 0.0
H788 H 0.54777 0.38805 0.82181 0.0
H789 H 0.54406 0.3854 0.71177 0.0
C790 C 0.49247 0.3421 0.47032 0.0
C791 C 0.50887 0.33131 0.463 0.0
C792 C 0.49297 0.35726 0.50565 0.0
C793 C 0.50989 0.36186 0.53405 0.0
C794 C 0.52554 0.34964 0.53317 0.0
C795 C 0.52504 0.33442 0.49768 0.0
C796 C 0.51225 0.38114 0.55366 0.0
C797 C 0.51516 0.38304 0.61559 0.0
C798 C 0.5112 0.39775 0.51042 0.0
C799 C 0.50926 0.39649 0.44386 0.0
C800 C 0.52291 0.38681 0.41255 0.0
C801 C 0.52071 0.38512 0.35035 0.0
C802 C 0.505 0.39323 0.31878 0.0
C803 C 0.49151 0.40312 0.3493 0.0
C804 C 0.49362 0.4048 0.41156 0.0
C805 C 0.53451 0.46103 0.65947 0.0
C806 C 0.51878 0.47334 0.65428 0.0
C807 C 0.53353 0.44315 0.63798 0.0
C808 C 0.51689 0.43737 0.61045 0.0
C809 C 0.50156 0.45005 0.60214 0.0
C810 C 0.50243 0.46782 0.62432 0.0
C811 C 0.51516 0.41784 0.59236 0.0
C812 C 0.51241 0.41588 0.53044 0.0
C813 C 0.51646 0.40124 0.63567 0.0
C814 C 0.51856 0.40256 0.70214 0.0
C815 C 0.50542 0.41291 0.73332 0.0
C816 C 0.50771 0.41444 0.7956 0.0
C817 C 0.52298 0.40551 0.82742 0.0
C818 C 0.53596 0.39499 0.79707 0.0
C819 C 0.53377 0.39346 0.73473 0.0
H820 H 0.52474 0.40672 0.87561 0.0
H821 H 0.50331 0.39189 0.27065 0.0
H822 H 0.20473 0.5405 0.39185 0.0
H823 H 0.17862 0.54156 0.46522 0.0
H824 H 0.16412 0.48298 0.44528 0.0
H825 H 0.19021 0.48185 0.37223 0.0
H826 H 0.1354 0.5082 0.41191 0.0
H827 H 0.17795 0.49421 0.58069 0.0
H828 H 0.20612 0.49856 0.64363 0.0
H829 H 0.18738 0.55495 0.67043 0.0
H830 H 0.15921 0.55105 0.6069 0.0
H831 H 0.05882 0.49062 0.61808 0.0
H832 H 0.08884 0.49068 0.56264 0.0
H833 H 0.09931 0.54907 0.59531 0.0
H834 H 0.06918 0.54911 0.65153 0.0
H835 H 0.13032 0.52602 0.62238 0.0
H836 H 0.0879 0.54024 0.45519 0.0
H837 H 0.05975 0.53644 0.39163 0.0
H838 H 0.0785 0.48047 0.35998 0.0
H839 H 0.10665 0.48382 0.42411 0.0
C840 C 0.1965 0.5276 0.40529 0.0
C841 C 0.19934 0.51113 0.37613 0.0
C842 C 0.18153 0.52825 0.44695 0.0
C843 C 0.16932 0.51241 0.46003 0.0
C844 C 0.17331 0.49539 0.4354 0.0
C845 C 0.18824 0.49472 0.39395 0.0
C846 C 0.15091 0.51444 0.49131 0.0
C847 C 0.1343 0.51179 0.45833 0.0
C848 C 0.14953 0.51995 0.55077 0.0
C849 C 0.16657 0.52242 0.58841 0.0
C850 C 0.17994 0.50763 0.59941 0.0
C851 C 0.19588 0.50999 0.63536 0.0
C852 C 0.19857 0.52704 0.66087 0.0
C853 C 0.1853 0.54176 0.65056 0.0
C854 C 0.16933 0.53947 0.61462 0.0
C855 C 0.06737 0.50358 0.61289 0.0
C856 C 0.06161 0.51988 0.63913 0.0
C857 C 0.08453 0.50359 0.58111 0.0
C858 C 0.09627 0.51989 0.57474 0.0
C859 C 0.09044 0.53633 0.59983 0.0
C860 C 0.07317 0.53638 0.63147 0.0
C861 C 0.11487 0.51939 0.54332 0.0
C862 C 0.13147 0.52244 0.57597 0.0
C863 C 0.11631 0.51435 0.48328 0.0
C864 C 0.09931 0.51222 0.44496 0.0
C865 C 0.08594 0.52705 0.43516 0.0
C866 C 0.07 0.52499 0.39892 0.0
C867 C 0.06732 0.50821 0.37189 0.0
C868 C 0.08059 0.49346 0.38099 0.0
C869 C 0.09655 0.49543 0.41724 0.0
H870 H 0.05497 0.50665 0.34378 0.0
H871 H 0.21091 0.52883 0.68874 0.0
H872 H 0.0472 0.82177 0.13401 0.0
H873 H 0.05192 0.84891 0.05431 0.0
H874 H 0.99191 0.84926 0.0163 0.0
H875 H 0.98723 0.82199 0.09581 0.0
H876 H 0.0435 0.8612 0.92973 0.0
H877 H 0.97805 0.89598 0.02949 0.0
H878 H 0.95941 0.89406 0.1252 0.0
H879 H 0.00774 0.87156 0.22752 0.0
H880 H 0.02677 0.87372 0.13262 0.0
H881 H 0.01866 0.95047 0.75736 0.0
H882 H 0.02098 0.91803 0.81038 0.0
H883 H 0.03799 0.94088 0.97511 0.0
H884 H 0.0354 0.97346 0.92261 0.0
H885 H 0.00996 0.91672 0.9985 0.0
H886 H 0.06877 0.91643 0.89284 0.0
H887 H 0.09143 0.91952 0.80657 0.0
H888 H 0.06233 0.87472 0.72777 0.0
H889 H 0.0392 0.87165 0.81283 0.0
C890 C 0.03521 0.82708 0.10642 0.0
C891 C 0.01689 0.81984 0.12034 0.0
C892 C 0.0379 0.84258 0.06112 0.0
C893 C 0.02223 0.8512 0.03012 0.0
C894 C 1.00416 0.8428 0.03998 0.0
C895 C 1.0015 0.82718 0.08495 0.0
C896 C 0.02427 0.87058 0.99599 0.0
C897 C 0.03605 0.87336 0.94413 0.0
C898 C 0.01513 0.88649 0.01652 0.0
C899 C 1.00374 0.8848 0.0738 0.0
C900 C 0.98468 0.89062 0.07241 0.0
C901 C 0.97407 0.88952 0.1265 0.0
C902 C 0.98239 0.88268 0.18231 0.0
C903 C 1.00131 0.87682 0.18419 0.0
C904 C 0.01201 0.87796 0.13023 0.0
C905 C 0.02309 0.94862 0.80473 0.0
C906 C 0.02665 0.96457 0.83601 0.0
C907 C 0.02455 0.93002 0.83483 0.0
C908 C 0.0297 0.927 0.89668 0.0
C909 C 0.03395 0.94289 0.92736 0.0
C910 C 0.03248 0.9615 0.89731 0.0
C911 C 0.0289 0.90748 0.9309 0.0
C912 C 0.01732 0.90463 0.98322 0.0
C913 C 0.03863 0.89168 0.91143 0.0
C914 C 0.05212 0.89394 0.85903 0.0
C915 C 0.06703 0.90741 0.85671 0.0
C916 C 0.08 0.90912 0.80809 0.0
C917 C 0.07833 0.8973 0.76178 0.0
C918 C 0.06363 0.88382 0.76379 0.0
C919 C 0.05056 0.88213 0.81212 0.0
H920 H 0.08845 0.89858 0.72435 0.0
H921 H 0.9742 0.88209 0.22409 0.0
H922 H 0.69488 0.9806 0.10073 0.0
H923 H 0.66763 0.98386 0.0332 0.0
H924 H 0.69483 0.03176 0.92468 0.0
H925 H 0.72197 0.02896 0.99513 0.0
H926 H 0.66162 0.04193 0.95014 0.0
H927 H 0.68357 0.98704 0.86797 0.0
H928 H 0.69615 0.95454 0.86473 0.0
H929 H 0.64649 0.9303 0.95871 0.0
H930 H 0.63378 0.96266 0.96368 0.0
H931 H 0.58003 0.03304 0.74142 0.0
H932 H 0.61248 0.03152 0.78111 0.0
H933 H 0.59095 0.01264 0.96201 0.0
H934 H 0.55831 0.01466 0.92301 0.0
H935 H 0.62292 0.98928 0.88279 0.0
H936 H 0.60532 0.04717 0.97705 0.0
H937 H 0.59292 0.08012 0.96844 0.0
H938 H 0.63582 0.09863 0.83477 0.0
H939 H 0.64828 0.06568 0.84198 0.0
C940 C 0.69533 0.99137 0.0611 0.0
C941 C 0.71052 1.00443 0.05264 0.0
C942 C 0.67973 0.99323 0.02226 0.0
C943 C 0.6791 0.00797 0.97317 0.0
C944 C 0.69494 0.02026 0.96215 0.0
C945 C 0.71054 0.01853 0.00178 0.0
C946 C 0.66101 0.0118 0.93911 0.0
C947 C 0.65342 0.0304 0.9344 0.0
C948 C 0.65005 0.99687 0.91854 0.0
C949 C 0.65776 0.97733 0.91645 0.0
C950 C 0.67541 0.9748 0.88846 0.0
C951 C 0.68256 0.95639 0.88627 0.0
C952 C 0.67215 0.94036 0.91159 0.0
C953 C 0.65456 0.94272 0.93916 0.0
C954 C 0.64736 0.9611 0.94162 0.0
C955 C 0.58218 0.02896 0.78993 0.0
C956 C 0.56666 0.02404 0.82927 0.0
C957 C 0.6007 0.02808 0.81239 0.0
C958 C 0.60401 0.022 0.87431 0.0
C959 C 0.58857 0.01749 0.91408 0.0
C960 C 0.56998 0.01875 0.89187 0.0
C961 C 0.62365 0.019 0.89649 0.0
C962 C 0.63142 1.00066 0.89825 0.0
C963 C 0.63489 0.03416 0.91318 0.0
C964 C 0.62755 0.05395 0.90944 0.0
C965 C 0.61196 0.05822 0.94534 0.0
C966 C 0.60496 0.07691 0.94085 0.0
C967 C 0.61353 0.09145 0.9009 0.0
C968 C 0.62917 0.08735 0.86558 0.0
C969 C 0.63621 0.06868 0.86988 0.0
H970 H 0.60808 0.1059 0.89744 0.0
H971 H 0.6777 0.92612 0.90976 0.0
H972 H 0.48444 0.69557 0.07648 0.0
H973 H 0.48166 0.66925 0.0139 0.0
H974 H 0.54013 0.6776 0.95774 0.0
H975 H 0.54288 0.70412 0.01981 0.0
H976 H 0.51737 0.66282 0.8681 0.0
H977 H 0.53233 0.64956 0.08202 0.0
H978 H 0.52737 0.65208 0.1917 0.0
H979 H 0.47262 0.62534 0.18483 0.0
H980 H 0.47714 0.62293 0.07477 0.0
H981 H 0.54496 0.56706 0.84394 0.0
H982 H 0.54288 0.59828 0.88156 0.0
H983 H 0.4833 0.58875 0.91994 0.0
H984 H 0.48513 0.55754 0.88131 0.0
H985 H 0.50517 0.60449 0.01465 0.0
H986 H 0.49282 0.61514 0.79852 0.0
H987 H 0.49978 0.61236 0.6901 0.0
H988 H 0.55192 0.64353 0.7022 0.0
H989 H 0.54546 0.64617 0.81107 0.0
C990 C 0.49641 0.69236 0.04848 0.0
C991 C 0.51391 0.70173 0.05321 0.0
C992 C 0.49485 0.67727 0.01303 0.0
C993 C 0.51083 0.67121 0.98244 0.0
C994 C 0.52766 0.68203 0.98119 0.0
C995 C 0.5292 0.69723 0.01644 0.0
C996 C 0.51094 0.65192 0.96162 0.0
C997 C 0.51479 0.65006 0.90006 0.0
C998 C 0.50756 0.63528 0.0035 0.0
C999 C 0.50499 0.63624 0.07003 0.0
C1000 C 0.51919 0.64431 0.10383 0.0
C1001 C 0.51647 0.6457 0.16606 0.0
C1002 C 0.49968 0.63892 0.19517 0.0
C1003 C 0.48561 0.63062 0.16217 0.0
C1004 C 0.48825 0.62922 0.09988 0.0
C1005 C 0.53146 0.57143 0.86128 0.0
C1006 C 0.51519 0.55983 0.85957 0.0
C1007 C 0.53029 0.58934 0.88233 0.0
C1008 C 0.51289 0.59587 0.9027 0.0
C1009 C 0.49682 0.58395 0.90405 0.0
C1010 C 0.49791 0.56614 0.8821 0.0
C1011 C 0.51144 0.61537 0.92106 0.0
C1012 C 0.5075 0.61725 0.98244 0.0
C1013 C 0.51499 0.63195 0.8791 0.0
C1014 C 0.51874 0.63069 0.81324 0.0
C1015 C 0.50585 0.62127 0.77825 0.0
C1016 C 0.50969 0.61973 0.71667 0.0
C1017 C 0.5263 0.62773 0.68933 0.0
C1018 C 0.53907 0.63732 0.72347 0.0
C1019 C 0.53532 0.63885 0.78512 0.0
H1020 H 0.52926 0.62651 0.64168 0.0
H1021 H 0.49758 0.64006 0.24332 0.0
H1022 H 0.84632 0.55355 0.11945 0.0
H1023 H 0.87099 0.54876 0.04474 0.0
H1024 H 0.85426 0.48937 0.05124 0.0
H1025 H 0.8298 0.4942 0.12768 0.0
H1026 H 0.89028 0.49179 0.07415 0.0
H1027 H 0.85089 0.52164 0.91657 0.0
H1028 H 0.82935 0.54592 0.86505 0.0
H1029 H 0.87281 0.58893 0.86585 0.0
H1030 H 0.89454 0.56499 0.91816 0.0
H1031 H 0.96785 0.48118 0.86636 0.0
H1032 H 0.93652 0.48116 0.91493 0.0
H1033 H 0.94382 0.54076 0.93866 0.0
H1034 H 0.97495 0.54099 0.88967 0.0
H1035 H 0.90992 0.53436 0.8881 0.0
H1036 H 0.94709 0.50526 0.05907 0.0
H1037 H 0.96853 0.48107 0.11165 0.0
H1038 H 0.92864 0.43652 0.08455 0.0
H1039 H 0.90706 0.46045 0.03112 0.0
C1040 C 0.84742 0.53972 0.10277 0.0
C1041 C 0.83609 0.5243 0.12816 0.0
C1042 C 0.86152 0.53695 0.06013 0.0
C1043 C 0.86445 0.51871 0.04192 0.0
C1044 C 0.85223 0.50357 0.06442 0.0
C1045 C 0.83815 0.50634 0.10746 0.0
C1046 C 0.88183 0.51504 0.00681 0.0
C1047 C 0.89433 0.5008 0.03253 0.0
C1048 C 0.88735 0.52702 0.95325 0.0
C1049 C 0.87433 0.5415 0.92163 0.0
C1050 C 0.85582 0.5363 0.90616 0.0
C1051 C 0.84358 0.55 0.87674 0.0
C1052 C 0.8497 0.56895 0.86226 0.0
C1053 C 0.86809 0.57424 0.87708 0.0
C1054 C 0.88039 0.5606 0.90652 0.0
C1055 C 0.96292 0.49419 0.8829 0.0
C1056 C 0.97388 0.51109 0.87411 0.0
C1057 C 0.94499 0.49416 0.91048 0.0
C1058 C 0.93781 0.51099 0.93018 0.0
C1059 C 0.94902 0.52767 0.92331 0.0
C1060 C 0.96687 0.52773 0.89568 0.0
C1061 C 0.91843 0.51153 0.9565 0.0
C1062 C 0.90562 0.52515 0.92904 0.0
C1063 C 0.9126 0.49898 0.00836 0.0
C1064 C 0.92557 0.48461 0.04047 0.0
C1065 C 0.94297 0.49029 0.06386 0.0
C1066 C 0.95513 0.47663 0.09392 0.0
C1067 C 0.94998 0.45726 0.10126 0.0
C1068 C 0.93263 0.45152 0.07872 0.0
C1069 C 0.92042 0.46513 0.04859 0.0
H1070 H 0.95941 0.44671 0.12455 0.0
H1071 H 0.8402 0.57954 0.83949 0.0
H1072 H 0.06198 0.20497 0.20603 0.0
H1073 H 0.0662 0.17966 0.1403 0.0
H1074 H 0.01174 0.1933 0.05779 0.0
H1075 H 0.00782 0.21902 0.12254 0.0
H1076 H 0.04595 0.1493 0.15025 0.0
H1077 H 0.00819 0.17502 0.91984 0.0
H1078 H 1.00506 0.20446 0.84743 0.0
H1079 H 0.05726 0.22616 0.91256 0.0
H1080 H 0.06088 0.19673 0.98464 0.0
H1081 H 0.01255 0.06968 0.02119 0.0
H1082 H 0.0153 0.10085 0.05821 0.0
H1083 H 0.05582 0.11895 0.91503 0.0
H1084 H 0.0527 0.08768 0.87675 0.0
H1085 H 0.03309 0.14772 0.92975 0.0
H1086 H 0.07006 0.10468 0.06504 0.0
H1087 H 0.07671 0.07527 0.13451 0.0
H1088 H 0.03246 0.08925 0.25597 0.0
H1089 H 0.02538 0.11861 0.18681 0.0
C1090 C 0.05127 0.20301 0.17216 0.0
C1091 C 0.03462 0.21399 0.1691 0.0
C1092 C 0.0536 0.18844 0.13493 0.0
C1093 C 0.03926 0.18438 0.09416 0.0
C1094 C 0.02316 0.19622 0.08813 0.0
C1095 C 0.02092 0.21099 0.12505 0.0
C1096 C 0.04007 0.16639 0.06444 0.0
C1097 C 0.04324 0.14906 0.1019 0.0
C1098 C 0.03679 0.16591 1.00119 0.0
C1099 C 0.03469 0.18372 0.95815 0.0
C1100 C 0.01903 0.18604 0.91862 0.0
C1101 C 0.01717 0.20274 0.87761 0.0
C1102 C 0.03092 0.2172 0.87554 0.0
C1103 C 0.04658 0.21498 0.91439 0.0
C1104 C 0.04852 0.19831 0.95542 0.0
C1105 C 0.02217 0.08021 0.99781 0.0
C1106 C 0.03266 0.07607 0.9466 0.0
C1107 C 0.02372 0.09809 0.01898 0.0
C1108 C 0.03609 0.1122 0.99035 0.0
C1109 C 0.04623 0.10831 0.93815 0.0
C1110 C 0.04449 0.09043 0.91637 0.0
C1111 C 0.03858 0.13076 0.01596 0.0
C1112 C 0.03595 0.1481 0.97793 0.0
C1113 C 0.0428 0.13137 0.07853 0.0
C1114 C 0.04711 0.11378 0.1205 0.0
C1115 C 0.06168 0.10142 0.10639 0.0
C1116 C 0.06553 0.08476 0.14573 0.0
C1117 C 0.05499 0.08037 0.19956 0.0
C1118 C 0.04061 0.09266 0.21424 0.0
C1119 C 0.03669 0.10932 0.17503 0.0
H1120 H 0.05799 0.06747 0.22995 0.0
H1121 H 0.02946 0.2301 0.84374 0.0
H1122 H 0.31694 0.01281 0.23094 0.0
H1123 H 0.34269 0.01554 0.15508 0.0
H1124 H 0.36295 0.0667 0.22425 0.0
H1125 H 0.33765 0.06363 0.30139 0.0
H1126 H 0.35385 0.04168 0.06263 0.0
H1127 H 0.39986 0.07092 0.22718 0.0
H1128 H 0.40975 0.06843 0.33538 0.0
H1129 H 0.40433 1.00718 0.35048 0.0
H1130 H 0.39345 0.00946 0.24333 0.0
H1131 H 0.45241 0.05949 0.92375 0.0
H1132 H 0.4226 0.06584 0.97652 0.0
H1133 H 0.42032 1.00683 0.05695 0.0
H1134 H 0.45051 1.00082 0.00709 0.0
H1135 H 0.42016 0.04038 0.1374 0.0
H1136 H 0.36368 0.01343 0.98728 0.0
H1137 H 0.35361 0.01394 0.87988 0.0
H1138 H 0.38176 0.06809 0.8333 0.0
H1139 H 0.39132 0.06823 0.94077 0.0
C1140 C 0.3267 0.02483 0.2292 0.0
C1141 C 0.32527 0.038 0.27218 0.0
C1142 C 0.34151 0.02631 0.18611 0.0
C1143 C 0.35518 0.04101 0.18492 0.0
C1144 C 0.3531 0.0548 0.22557 0.0
C1145 C 0.33844 0.0532 0.26909 0.0
C1146 C 0.37168 0.04167 0.14184 0.0
C1147 C 0.36836 0.04151 0.079 0.0
C1148 C 0.39068 0.04165 0.16252 0.0
C1149 C 0.39551 0.0404 0.22802 0.0
C1150 C 0.40044 0.05698 0.2541 0.0
C1151 C 0.40614 0.05561 0.31521 0.0
C1152 C 0.40745 0.03767 0.35001 0.0
C1153 C 0.40302 0.02108 0.32376 0.0
C1154 C 0.39684 0.02242 0.26315 0.0
C1155 C 0.44527 0.04788 0.95182 0.0
C1156 C 0.4537 0.0297 0.96163 0.0
C1157 C 0.42816 0.05143 0.98141 0.0
C1158 C 0.41889 0.03666 0.01931 0.0
C1159 C 0.42702 0.01835 0.02714 0.0
C1160 C 0.44429 0.01495 0.999 0.0
C1161 C 0.40237 0.04053 0.05819 0.0
C1162 C 0.40568 0.04113 0.12066 0.0
C1163 C 0.38343 0.04102 0.0369 0.0
C1164 C 0.37875 0.04054 0.97165 0.0
C1165 C 0.36782 0.02538 0.95398 0.0
C1166 C 0.362 0.02566 0.89327 0.0
C1167 C 0.3671 0.04101 0.84974 0.0
C1168 C 0.37793 0.05615 0.86696 0.0
C1169 C 0.38361 0.05602 0.92776 0.0
H1170 H 0.3627 0.04113 0.80267 0.0
H1171 H 0.41202 0.03659 0.39715 0.0
H1172 H 0.48218 0.34404 0.24731 0.0
H1173 H 0.4828 0.37033 0.1632 0.0
H1174 H 0.54237 0.36056 0.13495 0.0
H1175 H 0.5417 0.334 0.21847 0.0
H1176 H 0.53288 0.39894 0.15329 0.0
H1177 H 0.51388 0.35083 0.02882 0.0
H1178 H 0.49412 0.32438 0.99972 0.0
H1179 H 0.44525 0.36083 0.98752 0.0
H1180 H 0.46467 0.38744 0.01744 0.0
H1181 H 0.54578 0.46873 0.8959 0.0
H1182 H 0.545 0.43914 0.96627 0.0
H1183 H 0.48385 0.44137 0.97208 0.0
H1184 H 0.48451 0.4708 0.90005 0.0
H1185 H 0.49457 0.40601 0.96353 0.0
H1186 H 0.51207 0.45342 0.09196 0.0
H1187 H 0.53076 0.48022 0.12386 0.0
H1188 H 0.58097 0.44567 0.13308 0.0
H1189 H 0.56262 0.41873 0.10045 0.0
C1190 C 0.49525 0.34714 0.22186 0.0
C1191 C 0.51184 0.33684 0.23887 0.0
C1192 C 0.49561 0.36219 0.17399 0.0
C1193 C 0.51263 0.36741 0.14278 0.0
C1194 C 0.52908 0.35673 0.15832 0.0
C1195 C 0.52865 0.34145 0.20556 0.0
C1196 C 0.51354 0.38494 0.09753 0.0
C1197 C 0.52477 0.40038 0.11124 0.0
C1198 C 0.50243 0.38705 0.04382 0.0
C1199 C 0.4907 0.37107 0.02603 0.0
C1200 C 0.49888 0.35315 0.02055 0.0
C1201 C 0.48775 0.33814 0.00376 0.0
C1202 C 0.46843 0.34091 0.99195 0.0
C1203 C 0.46022 0.3587 0.99677 0.0
C1204 C 0.47128 0.37376 0.01359 0.0
C1205 C 0.53214 0.46306 0.91251 0.0
C1206 C 0.5152 0.4723 0.89271 0.0
C1207 C 0.53172 0.44609 0.95293 0.0
C1208 C 0.51438 0.43808 0.9754 0.0
C1209 C 0.49743 0.44725 0.9556 0.0
C1210 C 0.49783 0.46417 0.9147 0.0
C1211 C 0.51396 0.4201 0.01917 0.0
C1212 C 0.50277 0.40459 0.0054 0.0
C1213 C 0.52494 0.41798 0.07333 0.0
C1214 C 0.53601 0.43413 0.09315 0.0
C1215 C 0.52713 0.45159 0.10034 0.0
C1216 C 0.53766 0.46679 0.11864 0.0
C1217 C 0.55705 0.46467 0.13032 0.0
C1218 C 0.56595 0.4473 0.12392 0.0
C1219 C 0.55549 0.43206 0.10558 0.0
H1220 H 0.56518 0.47646 0.14447 0.0
H1221 H 0.45984 0.32927 0.97893 0.0
H1222 H 0.19434 0.48028 0.16975 0.0
H1223 H 0.1677 0.47911 0.09862 0.0
H1224 H 0.16959 0.54066 0.05911 0.0
H1225 H 0.19658 0.5418 0.12876 0.0
H1226 H 0.1336 0.52236 0.11078 0.0
H1227 H 0.17923 0.5202 0.94848 0.0
H1228 H 0.20675 0.50756 0.89705 0.0
H1229 H 0.17867 0.4531 0.90009 0.0
H1230 H 0.15106 0.46534 0.95236 0.0
H1231 H 0.06082 0.54021 0.89281 0.0
H1232 H 0.09009 0.53873 0.95156 0.0
H1233 H 0.09363 0.478 0.94099 0.0
H1234 H 0.06437 0.47943 0.88082 0.0
H1235 H 0.12723 0.49445 0.91555 0.0
H1236 H 0.08192 0.49528 0.07572 0.0
H1237 H 0.05432 0.50623 0.13098 0.0
H1238 H 0.08142 0.56075 0.13818 0.0
H1239 H 0.10909 0.55022 0.0822 0.0
C1240 C 0.18955 0.49344 0.14379 0.0
C1241 C 0.19764 0.5111 0.15383 0.0
C1242 C 0.17429 0.49279 0.10357 0.0
C1243 C 0.16666 0.50981 0.07383 0.0
C1244 C 0.17534 0.52737 0.08149 0.0
C1245 C 0.19084 0.528 0.12072 0.0
C1246 C 0.14838 0.50943 0.04075 0.0
C1247 C 0.13222 0.51654 0.06758 0.0
C1248 C 0.14652 0.50108 0.98587 0.0
C1249 C 0.16318 0.49362 0.95504 0.0
C1250 C 0.17901 0.50546 0.93886 0.0
C1251 C 0.1946 0.49839 0.90937 0.0
C1252 C 0.19449 0.47952 0.89549 0.0
C1253 C 0.17876 0.4677 0.91097 0.0
C1254 C 0.16313 0.4747 0.94049 0.0
C1255 C 0.06765 0.52646 0.90351 0.0
C1256 C 0.06017 0.50992 0.88214 0.0
C1257 C 0.08442 0.52563 0.93735 0.0
C1258 C 0.09406 0.50822 0.95123 0.0
C1259 C 0.08647 0.4916 0.93088 0.0
C1260 C 0.06966 0.49241 0.89684 0.0
C1261 C 0.11236 0.50767 0.98509 0.0
C1262 C 0.12853 0.50029 0.95874 0.0
C1263 C 0.11421 0.51553 0.04104 0.0
C1264 C 0.09751 0.52202 0.0742 0.0
C1265 C 0.08192 0.50967 0.08856 0.0
C1266 C 0.06628 0.51579 0.12014 0.0
C1267 C 0.0661 0.53419 0.13795 0.0
C1268 C 0.08157 0.54651 0.12428 0.0
C1269 C 0.09725 0.54046 0.09268 0.0
H1270 H 0.05398 0.53889 0.16246 0.0
H1271 H 0.20656 0.47407 0.8726 0.0
H1272 H 0.98529 0.80818 0.38731 0.0
H1273 H 0.98247 0.83174 0.46016 0.0
H1274 H 0.03251 0.86095 0.38171 0.0
H1275 H 0.03628 0.8367 0.31316 0.0
H1276 H 0.03201 0.86519 0.49371 0.0
H1277 H 0.98273 0.87024 0.33621 0.0
H1278 H 0.9548 0.85819 0.28478 0.0
H1279 H 0.92312 0.85425 0.45274 0.0
H1280 H 0.95097 0.86571 0.50559 0.0
H1281 H 0.019 0.96392 0.48594 0.0
H1282 H 0.01896 0.93148 0.4572 0.0
H1283 H 0.97818 0.91385 0.59974 0.0
H1284 H 0.97821 0.94653 0.62915 0.0
H1285 H 0.971 0.90031 0.47941 0.0
H1286 H 0.01881 0.90131 0.63065 0.0
H1287 H 0.04611 0.9156 0.67826 0.0
H1288 H 0.08049 0.9092 0.52064 0.0
H1289 H 0.05315 0.89559 0.4709 0.0
C1290 C 0.99605 0.81924 0.38707 0.0
C1291 C 0.01075 0.82078 0.3432 0.0
C1292 C 0.99427 0.83292 0.4282 0.0
C1293 C 1.00686 0.84864 0.42514 0.0
C1294 C 0.0224 0.8492 0.38482 0.0
C1295 C 0.02444 0.83536 0.34496 0.0
C1296 C 1.00337 0.8654 0.45949 0.0
C1297 C 0.01864 0.87281 0.49045 0.0
C1298 C 0.98576 0.87521 0.45725 0.0
C1299 C 0.96899 0.86861 0.42498 0.0
C1300 C 0.96983 0.86671 0.36219 0.0
C1301 C 0.95403 0.85998 0.33282 0.0
C1302 C 0.93722 0.85549 0.36544 0.0
C1303 C 0.93616 0.8577 0.42755 0.0
C1304 C 0.95196 0.86425 0.45727 0.0
C1305 C 0.00978 0.95327 0.51065 0.0
C1306 C 0.99856 0.95784 0.55976 0.0
C1307 C 0.00987 0.93468 0.49441 0.0
C1308 C 0.99864 0.92024 0.52652 0.0
C1309 C 0.98695 0.9248 0.57441 0.0
C1310 C 0.98706 0.94341 0.59133 0.0
C1311 C 0.99985 0.90032 0.51072 0.0
C1312 C 0.9842 0.8924 0.48356 0.0
C1313 C 0.01711 0.8901 0.51605 0.0
C1314 C 0.03384 0.89755 0.54679 0.0
C1315 C 0.03214 0.90308 0.60587 0.0
C1316 C 0.04762 0.91109 0.63323 0.0
C1317 C 0.06504 0.91329 0.60252 0.0
C1318 C 0.06699 0.90748 0.54437 0.0
C1319 C 0.05148 0.89966 0.51649 0.0
H1320 H 0.07701 0.9195 0.62377 0.0
H1321 H 0.92501 0.85031 0.34258 0.0
H1322 H 0.70936 0.0413 0.24589 0.0
H1323 H 0.68468 0.04271 0.32386 0.0
H1324 H 0.69156 0.98221 0.38097 0.0
H1325 H 0.71681 0.98111 0.30484 0.0
H1326 H 0.65263 0.02705 0.32064 0.0
H1327 H 0.67253 0.96864 0.52084 0.0
H1328 H 0.70099 0.95676 0.57787 0.0
H1329 H 0.72878 0.01102 0.52947 0.0
H1330 H 0.7004 0.02333 0.47288 0.0
H1331 H 0.56929 0.99224 0.46843 0.0
H1332 H 0.60065 0.99375 0.42015 0.0
H1333 H 0.62346 0.02018 0.57109 0.0
H1334 H 0.59212 0.01844 0.61999 0.0
H1335 H 0.64865 0.99599 0.53493 0.0
H1336 H 0.61179 0.04726 0.43654 0.0
H1337 H 0.58405 0.06258 0.38354 0.0
H1338 H 0.59218 0.02902 0.23525 0.0
H1339 H 0.61982 0.01329 0.28781 0.0
C1340 C 0.70614 0.02854 0.27707 0.0
C1341 C 0.71512 0.01117 0.27012 0.0
C1342 C 0.69189 0.02927 0.32115 0.0
C1343 C 0.6861 0.01256 0.35847 0.0
C1344 C 0.6959 0.99541 0.35383 0.0
C1345 C 0.7104 0.99476 0.31036 0.0
C1346 C 0.6684 0.01258 0.39612 0.0
C1347 C 0.65189 0.02035 0.36764 0.0
C1348 C 0.66728 1.00408 0.45781 0.0
C1349 C 0.68438 0.99685 0.49214 0.0
C1350 C 0.68468 0.97807 0.52258 0.0
C1351 C 0.70081 0.97125 0.55479 0.0
C1352 C 0.7167 0.98311 0.55714 0.0
C1353 C 0.71648 1.00183 0.52742 0.0
C1354 C 0.70039 0.00872 0.49518 0.0
C1355 C 0.58099 0.99831 0.49143 0.0
C1356 C 0.57814 1.00536 0.54779 0.0
C1357 C 0.59893 0.99918 0.4638 0.0
C1358 C 0.6144 1.00743 0.49135 0.0
C1359 C 0.61178 0.01379 0.54882 0.0
C1360 C 0.59384 0.01275 0.57681 0.0
C1361 C 0.63301 0.0101 0.45879 0.0
C1362 C 0.64957 1.0028 0.48809 0.0
C1363 C 0.63435 0.01951 0.3983 0.0
C1364 C 0.61778 0.02898 0.36637 0.0
C1365 C 0.60758 0.04305 0.39282 0.0
C1366 C 0.59188 0.05182 0.36284 0.0
C1367 C 0.58633 0.04674 0.30613 0.0
C1368 C 0.59649 0.03292 0.27922 0.0
C1369 C 0.61218 0.02408 0.30906 0.0
H1370 H 0.57418 0.05355 0.28298 0.0
H1371 H 0.72917 0.9778 0.58208 0.0
H1372 H 0.49119 0.6886 0.26934 0.0
H1373 H 0.49168 0.66263 0.35398 0.0
H1374 H 0.55112 0.67347 0.38181 0.0
H1375 H 0.5507 0.69949 0.29669 0.0
H1376 H 0.54368 0.63567 0.37015 0.0
H1377 H 0.51938 0.68295 0.48797 0.0
H1378 H 0.49794 0.70855 0.51258 0.0
H1379 H 0.45042 0.66992 0.51666 0.0
H1380 H 0.47153 0.64414 0.4912 0.0
H1381 H 0.55026 0.56503 0.6301 0.0
H1382 H 0.55132 0.59495 0.56088 0.0
H1383 H 0.49087 0.59133 0.53408 0.0
H1384 H 0.48962 0.56162 0.60444 0.0
H1385 H 0.50042 0.62677 0.54982 0.0
H1386 H 0.52357 0.5805 0.42432 0.0
H1387 H 0.54433 0.55465 0.39723 0.0
H1388 H 0.59314 0.59113 0.40456 0.0
H1389 H 0.57268 0.61712 0.43249 0.0
C1390 C 0.50425 0.68575 0.29449 0.0
C1391 C 0.52088 0.69616 0.27655 0.0
C1392 C 0.50452 0.6709 0.34291 0.0
C1393 C 0.52143 0.66609 0.37445 0.0
C1394 C 0.5379 0.67695 0.35823 0.0
C1395 C 0.5376 0.69194 0.31003 0.0
C1396 C 0.52218 0.64878 0.42073 0.0
C1397 C 0.53448 0.63388 0.41011 0.0
C1398 C 0.50978 0.64617 0.47188 0.0
C1399 C 0.49703 0.66165 0.48712 0.0
C1400 C 0.50433 0.67995 0.49357 0.0
C1401 C 0.49224 0.69449 0.5078 0.0
C1402 C 0.47282 0.69088 0.51604 0.0
C1403 C 0.46546 0.67271 0.51021 0.0
C1404 C 0.47749 0.65812 0.49595 0.0
C1405 C 0.5372 0.57047 0.60901 0.0
C1406 C 0.51987 0.56078 0.62248 0.0
C1407 C 0.53784 0.58762 0.56935 0.0
C1408 C 0.52121 0.59536 0.54155 0.0
C1409 C 0.5039 0.58569 0.55487 0.0
C1410 C 0.50323 0.5686 0.59483 0.0
C1411 C 0.5218 0.61357 0.49893 0.0
C1412 C 0.50973 0.62862 0.51014 0.0
C1413 C 0.5343 0.61627 0.44798 0.0
C1414 C 0.54662 0.60068 0.43115 0.0
C1415 C 0.53875 0.58295 0.42063 0.0
C1416 C 0.55046 0.56829 0.40504 0.0
C1417 C 0.57005 0.57123 0.39936 0.0
C1418 C 0.57796 0.58886 0.40909 0.0
C1419 C 0.56632 0.60357 0.42475 0.0
H1420 H 0.57908 0.55986 0.38727 0.0
H1421 H 0.46349 0.70216 0.52706 0.0
H1422 H 0.84557 0.49619 0.35727 0.0
H1423 H 0.87174 0.49659 0.43022 0.0
H1424 H 0.86683 0.55796 0.42232 0.0
H1425 H 0.84037 0.55748 0.35008 0.0
H1426 H 0.90361 0.54547 0.39704 0.0
H1427 H 0.85592 0.53241 0.55096 0.0
H1428 H 0.82839 0.51572 0.60294 0.0
H1429 H 0.85987 0.46327 0.62839 0.0
H1430 H 0.88751 0.47958 0.57571 0.0
H1431 H 0.97496 0.55255 0.625 0.0
H1432 H 0.94572 0.55504 0.56493 0.0
H1433 H 0.94319 0.49348 0.57324 0.0
H1434 H 0.97233 0.49085 0.63321 0.0
H1435 H 0.90915 0.50818 0.6023 0.0
H1436 H 0.95577 0.52022 0.44282 0.0
H1437 H 0.98338 0.53629 0.38939 0.0
H1438 H 0.95399 0.58999 0.37281 0.0
H1439 H 0.92627 0.57428 0.42696 0.0
C1440 C 0.84968 0.50964 0.37291 0.0
C1441 C 0.84082 0.52676 0.34913 0.0
C1442 C 0.86466 0.50989 0.41424 0.0
C1443 C 0.87124 0.52731 0.43171 0.0
C1444 C 0.86194 0.54437 0.40957 0.0
C1445 C 0.84674 0.54407 0.36892 0.0
C1446 C 0.88876 0.52776 0.46887 0.0
C1447 C 0.90472 0.53764 0.44246 0.0
C1448 C 0.89035 0.5171 0.52735 0.0
C1449 C 0.87374 0.50719 0.55884 0.0
C1450 C 0.85692 0.51727 0.56709 0.0
C1451 C 0.8413 0.50789 0.59681 0.0
C1452 C 0.84236 0.48844 0.61881 0.0
C1453 C 0.85906 0.47833 0.61125 0.0
C1454 C 0.87472 0.48765 0.58152 0.0
C1455 C 0.96831 0.53955 0.61342 0.0
C1456 C 0.97603 0.52151 0.63393 0.0
C1457 C 0.95158 0.541 0.57909 0.0
C1458 C 0.94223 0.52444 0.5646 0.0
C1459 C 0.95009 0.50645 0.58411 0.0
C1460 C 0.96684 0.50499 0.61811 0.0
C1461 C 0.92405 0.52577 0.53028 0.0
C1462 C 0.90798 0.51618 0.55715 0.0
C1463 C 0.92238 0.53662 0.47206 0.0
C1464 C 0.93903 0.54612 0.43961 0.0
C1465 C 0.95526 0.53549 0.42831 0.0
C1466 C 0.97092 0.54453 0.39778 0.0
C1467 C 0.97047 0.56416 0.37789 0.0
C1468 C 0.95433 0.57479 0.38836 0.0
C1469 C 0.93864 0.56583 0.41893 0.0
H1470 H 0.9826 0.57113 0.35423 0.0
H1471 H 0.83026 0.4812 0.64185 0.0
loop_
_geom_bond_atom_site_label_1
_geom_bond_atom_site_label_2
_geom_bond_distance
_geom_bond_site_symmetry_2
_ccdc_geom_bond_type
H0 C1 0.949 . S
C1 H0 0.949 . S
C1 C2 1.395 . S
C1 C3 1.391 . S
C2 C1 1.395 . S
C2 C5 1.390 . S
C3 C1 1.391 . S
C3 C7 1.387 . S
C3 C8 1.491 . S
H4 C5 0.950 . S
C5 C2 1.390 . S
C5 H4 0.950 . S
C5 C6 1.378 . S
C6 C5 1.378 . S
C6 C7 1.409 . S
C7 C3 1.387 . S
C7 C6 1.409 . S
C7 H9 0.951 . S
C8 C3 1.491 . S
C8 C10 1.382 . S
C8 C12 1.404 . S
H9 C7 0.951 . S
C10 C8 1.382 . S
C10 C11 1.390 . S
C10 H15 0.949 . S
C11 C10 1.390 . S
C11 C16 1.399 . S
C12 C8 1.404 . S
C12 H13 0.950 . S
C12 C14 1.375 . S
H13 C12 0.950 . S
C14 C12 1.375 . S
C14 C16 1.382 . S
C14 H18 0.950 . S
H15 C10 0.949 . S
C16 C11 1.399 . S
C16 C14 1.382 . S
C16 H17 0.952 . S
H17 C16 0.952 . S
H18 C14 0.950 . S
H19 C20 0.949 . S
C20 H19 0.949 . S
C20 C21 1.395 . S
C20 C22 1.391 . S
C21 C20 1.395 . S
C21 C24 1.390 . S
C22 C20 1.391 . S
C22 C26 1.387 . S
C22 C27 1.491 . S
H23 C24 0.950 . S
C24 C21 1.390 . S
C24 H23 0.950 . S
C24 C25 1.378 . S
C25 C24 1.378 . S
C25 C26 1.409 . S
C26 C22 1.387 . S
C26 C25 1.409 . S
C26 H28 0.951 . S
C27 C22 1.491 . S
C27 C29 1.382 . S
C27 C31 1.404 . S
H28 C26 0.951 . S
C29 C27 1.382 . S
C29 C30 1.390 . S
C29 H34 0.949 . S
C30 C29 1.390 . S
C30 C35 1.399 . S
C31 C27 1.404 . S
C31 H32 0.950 . S
C31 C33 1.375 . S
H32 C31 0.950 . S
C33 C31 1.375 . S
C33 C35 1.382 . S
C33 H37 0.950 . S
H34 C29 0.949 . S
C35 C30 1.399 . S
C35 C33 1.382 . S
C35 H36 0.952 . S
H36 C35 0.952 . S
H37 C33 0.950 . S
H38 C39 0.949 1_556 S
C39 H38 0.949 1_554 S
C39 C40 1.395 . S
C39 C41 1.391 . S
C40 C39 1.395 . S
C40 C43 1.389 1_565 S
C41 C39 1.391 . S
C41 C45 1.387 . S
C41 C46 1.491 . S
H42 C43 0.950 . S
C43 C40 1.389 1_545 S
C43 H42 0.950 . S
C43 C44 1.379 1_545 S
C44 C43 1.379 1_565 S
C44 C45 1.413 . S
C45 C41 1.387 . S
C45 C44 1.413 . S
C45 H47 0.951 . S
C46 C41 1.491 . S
C46 C48 1.402 . S
C46 C50 1.404 . S
H47 C45 0.951 . S
C48 C46 1.402 . S
C48 C49 1.404 . S
C48 H53 0.918 1_564 S
C49 C48 1.404 . S
C49 C54 1.399 . S
C50 C46 1.404 . S
C50 H51 0.950 . S
C50 C52 1.375 . S
H51 C50 0.950 . S
C52 C50 1.375 . S
C52 C54 1.382 . S
C52 H56 0.950 . S
H53 C48 0.918 1_546 S
C54 C49 1.399 . S
C54 C52 1.382 . S
C54 H55 0.952 . S
H55 C54 0.952 . S
H56 C52 0.950 . S
H57 C58 0.949 . S
C58 H57 0.949 . S
C58 C59 1.395 . S
C58 C60 1.391 . S
C59 C58 1.395 . S
C59 C62 1.390 . S
C60 C58 1.391 . S
C60 C64 1.387 . S
C60 C65 1.491 . S
H61 C62 0.950 . S
C62 C59 1.390 . S
C62 H61 0.950 . S
C62 C63 1.378 . S
C63 C62 1.378 . S
C63 C64 1.409 . S
C64 C60 1.387 . S
C64 C63 1.409 . S
C64 H66 0.951 . S
C65 C60 1.491 . S
C65 C67 1.382 . S
C65 C69 1.404 . S
H66 C64 0.951 . S
C67 C65 1.382 . S
C67 C68 1.390 . S
C67 H72 0.949 . S
C68 C67 1.390 . S
C68 C73 1.399 . S
C69 C65 1.404 . S
C69 H70 0.950 . S
C69 C71 1.375 . S
H70 C69 0.950 . S
C71 C69 1.375 . S
C71 C73 1.382 . S
C71 H75 0.950 . S
H72 C67 0.949 . S
C73 C68 1.399 . S
C73 C71 1.382 . S
C73 H74 0.952 . S
H74 C73 0.952 . S
H75 C71 0.950 . S
H76 C77 0.949 . S
C77 H76 0.949 . S
C77 C78 1.395 . S
C77 C79 1.391 . S
C78 C77 1.395 . S
C78 C81 1.390 . S
C79 C77 1.391 . S
C79 C83 1.387 . S
C79 C84 1.491 . S
H80 C81 0.950 . S
C81 C78 1.390 . S
C81 H80 0.950 . S
C81 C82 1.378 . S
C82 C81 1.378 . S
C82 C83 1.409 . S
C83 C79 1.387 . S
C83 C82 1.409 . S
C83 H85 0.951 . S
C84 C79 1.491 . S
C84 C86 1.382 . S
C84 C88 1.404 . S
H85 C83 0.951 . S
C86 C84 1.382 . S
C86 C87 1.390 . S
C86 H91 0.949 . S
C87 C86 1.390 . S
C87 C92 1.399 . S
C88 C84 1.404 . S
C88 H89 0.950 . S
C88 C90 1.375 . S
H89 C88 0.950 . S
C90 C88 1.375 . S
C90 C92 1.382 . S
C90 H94 0.950 . S
H91 C86 0.949 . S
C92 C87 1.399 . S
C92 C90 1.382 . S
C92 H93 0.952 . S
H93 C92 0.952 . S
H94 C90 0.950 . S
H95 C96 0.949 . S
C96 H95 0.949 . S
C96 C97 1.395 . S
C96 C98 1.391 . S
C97 C96 1.395 . S
C97 C100 1.390 . S
C98 C96 1.391 . S
C98 C102 1.387 . S
C98 C103 1.491 . S
H99 C100 0.950 . S
C100 C97 1.390 . S
C100 H99 0.950 . S
C100 C101 1.378 . S
C101 C100 1.378 . S
C101 C102 1.409 . S
C102 C98 1.387 . S
C102 C101 1.409 . S
C102 H104 0.951 . S
C103 C98 1.491 . S
C103 C105 1.382 . S
C103 C107 1.404 . S
H104 C102 0.951 . S
C105 C103 1.382 . S
C105 C106 1.390 . S
C105 H110 0.949 . S
C106 C105 1.390 . S
C106 C111 1.399 . S
C107 C103 1.404 . S
C107 H108 0.950 . S
C107 C109 1.375 . S
H108 C107 0.950 . S
C109 C107 1.375 . S
C109 C111 1.382 . S
C109 H113 0.950 . S
H110 C105 0.949 . S
C111 C106 1.399 . S
C111 C109 1.382 . S
C111 H112 0.952 . S
H112 C111 0.952 . S
H113 C109 0.950 . S
H114 C115 0.949 . S
C115 H114 0.949 . S
C115 C116 1.395 . S
C115 C117 1.391 . S
C116 C115 1.395 . S
C116 C119 1.390 . S
C117 C115 1.391 . S
C117 C121 1.387 . S
C117 C122 1.491 . S
H118 C119 0.950 . S
C119 C116 1.390 . S
C119 H118 0.950 . S
C119 C120 1.378 . S
C120 C119 1.378 . S
C120 C121 1.409 . S
C121 C117 1.387 . S
C121 C120 1.409 . S
C121 H123 0.951 . S
C122 C117 1.491 . S
C122 C124 1.382 . S
C122 C126 1.404 1_545 S
H123 C121 0.951 . S
C124 C122 1.382 . S
C124 C125 1.390 . S
C124 H129 0.949 . S
C125 C124 1.390 . S
C125 C130 1.425 . S
C126 C122 1.404 1_565 S
C126 H127 0.950 . S
C126 C128 1.375 . S
H127 C126 0.950 . S
C128 C126 1.375 . S
C128 C130 1.364 1_565 S
C128 H132 0.950 . S
H129 C124 0.949 . S
C130 C125 1.425 . S
C130 C128 1.364 1_545 S
C130 H131 0.945 1_545 S
H131 C130 0.945 1_565 S
H132 C128 0.950 . S
H133 C134 0.949 . S
C134 H133 0.949 . S
C134 C135 1.395 . S
C134 C136 1.391 . S
C135 C134 1.395 . S
C135 C138 1.390 . S
C136 C134 1.391 . S
C136 C140 1.387 . S
C136 C141 1.491 . S
H137 C138 0.950 . S
C138 C135 1.390 . S
C138 H137 0.950 . S
C138 C139 1.378 . S
C139 C138 1.378 . S
C139 C140 1.409 . S
C140 C136 1.387 . S
C140 C139 1.409 . S
C140 H142 0.951 . S
C141 C136 1.491 . S
C141 C143 1.382 . S
C141 C145 1.404 . S
H142 C140 0.951 . S
C143 C141 1.382 . S
C143 C144 1.390 . S
C143 H148 0.949 . S
C144 C143 1.390 . S
C144 C149 1.399 . S
C145 C141 1.404 . S
C145 H146 0.950 . S
C145 C147 1.375 . S
H146 C145 0.950 . S
C147 C145 1.375 . S
C147 C149 1.382 . S
C147 H151 0.950 . S
H148 C143 0.949 . S
C149 C144 1.399 . S
C149 C147 1.382 . S
C149 H150 0.952 . S
H150 C149 0.952 . S
H151 C147 0.950 . S
Co152 N157 2.057 . S
Co152 O169 2.021 . S
Co152 O172 2.062 . S
Co152 O176 2.117 1_455 S
Co152 O177 2.020 1_545 S
C153 O173 1.259 . S
C153 O176 1.258 . S
Co154 N163 2.023 1_545 S
Co154 O170 2.119 . S
Co154 O171 2.069 . S
Co154 O173 2.027 1_455 S
Co154 O178 2.023 1_545 S
C155 N157 1.316 . S
C155 N158 1.347 . S
C155 H160 0.931 . S
C156 N157 1.332 1_655 S
C156 C159 1.338 1_655 S
C156 H161 0.980 . S
N157 Co152 2.057 . S
N157 C155 1.316 . S
N157 C156 1.332 1_455 S
N158 C155 1.347 . S
N158 C159 1.373 . S
C159 C156 1.338 1_455 S
C159 N158 1.373 . S
C159 H180 0.931 1_455 S
H160 C155 0.931 . S
H161 C156 0.980 . S
C162 O169 1.259 . S
C162 O170 1.258 . S
N163 Co154 2.023 1_565 S
N163 C164 1.316 1_455 S
N163 C165 1.375 . S
C164 N163 1.316 1_655 S
C164 N166 1.347 . S
C164 H175 0.931 . S
C165 N163 1.375 . S
C165 C167 1.350 . S
C165 H174 0.930 . S
N166 C164 1.347 . S
N166 C167 1.373 1_655 S
C167 C165 1.350 . S
C167 N166 1.373 1_455 S
C167 H181 0.931 . S
C168 O171 1.256 . S
C168 O172 1.255 . S
O169 Co152 2.021 . S
O169 C162 1.259 . S
O170 Co154 2.119 . S
O170 C162 1.258 . S
O171 Co154 2.069 . S
O171 C168 1.256 . S
O172 Co152 2.062 . S
O172 C168 1.255 . S
O173 C153 1.259 . S
O173 Co154 2.027 1_655 S
H174 C165 0.930 . S
H175 C164 0.931 . S
O176 Co152 2.117 1_655 S
O176 C153 1.258 . S
O177 Co152 2.020 1_565 S
O177 C179 1.256 . S
O178 Co154 2.023 1_565 S
O178 C179 1.255 . S
C179 O177 1.256 . S
C179 O178 1.255 . S
H180 C159 0.931 1_655 S
H181 C167 0.931 . S
Co182 N187 2.057 . S
Co182 O199 2.021 . S
Co182 O202 2.062 . S
Co182 O206 2.117 1_545 S
Co182 O207 2.020 . S
C183 O203 1.259 . S
C183 O206 1.258 . S
Co184 N193 2.057 . S
Co184 O200 2.117 . S
Co184 O201 2.020 . S
Co184 O203 2.021 1_545 S
Co184 O208 2.062 . S
C185 N187 1.316 . S
C185 N188 1.347 . S
C185 H190 0.931 . S
C186 N187 1.375 1_565 S
C186 C189 1.350 . S
C186 H191 0.930 . S
N187 Co182 2.057 . S
N187 C185 1.316 . S
N187 C186 1.375 1_545 S
N188 C185 1.347 . S
N188 C189 1.373 1_545 S
C189 C186 1.350 . S
C189 N188 1.373 1_565 S
C189 H210 0.943 . S
H190 C185 0.931 . S
H191 C186 0.930 . S
C192 O199 1.259 . S
C192 O200 1.258 . S
N193 Co184 2.057 . S
N193 C194 1.316 1_545 S
N193 C195 1.375 . S
C194 N193 1.316 1_565 S
C194 N196 1.347 1_565 S
C194 H205 0.931 . S
C195 N193 1.375 . S
C195 C197 1.350 . S
C195 H204 0.930 . S
N196 C194 1.347 1_545 S
N196 C197 1.373 . S
C197 C195 1.350 . S
C197 N196 1.373 . S
C197 H211 0.931 . S
C198 O201 1.256 . S
C198 O202 1.255 . S
O199 Co182 2.021 . S
O199 C192 1.259 . S
O200 Co184 2.117 . S
O200 C192 1.258 . S
O201 Co184 2.020 . S
O201 C198 1.256 . S
O202 Co182 2.062 . S
O202 C198 1.255 . S
O203 C183 1.259 . S
O203 Co184 2.021 1_565 S
H204 C195 0.930 . S
H205 C194 0.931 . S
O206 Co182 2.117 1_565 S
O206 C183 1.258 . S
O207 Co182 2.020 . S
O207 C209 1.256 . S
O208 Co184 2.062 . S
O208 C209 1.255 . S
C209 O207 1.256 . S
C209 O208 1.255 . S
H210 C189 0.943 . S
H211 C197 0.931 . S
Co212 N217 2.057 . S
Co212 O229 2.021 . S
Co212 O232 2.062 . S
Co212 O236 2.117 . S
Co212 O237 2.020 . S
C213 O233 1.259 . S
C213 O236 1.258 . S
Co214 N223 2.057 . S
Co214 O230 2.117 . S
Co214 O231 2.020 . S
Co214 O233 2.021 . S
Co214 O238 2.062 . S
C215 N217 1.316 . S
C215 N218 1.347 . S
C215 H220 0.931 . S
C216 N217 1.375 . S
C216 C219 1.350 . S
C216 H221 0.930 . S
N217 Co212 2.057 . S
N217 C215 1.316 . S
N217 C216 1.375 . S
N218 C215 1.347 . S
N218 C219 1.373 . S
C219 C216 1.350 . S
C219 N218 1.373 . S
C219 H240 0.931 . S
H220 C215 0.931 . S
H221 C216 0.930 . S
C222 O229 1.259 . S
C222 O230 1.258 . S
N223 Co214 2.057 . S
N223 C224 1.316 . S
N223 C225 1.375 . S
C224 N223 1.316 . S
C224 N226 1.347 . S
C224 H235 0.931 . S
C225 N223 1.375 . S
C225 C227 1.350 . S
C225 H234 0.930 . S
N226 C224 1.347 . S
N226 C227 1.373 . S
C227 C225 1.350 . S
C227 N226 1.373 . S
C227 H241 0.931 . S
C228 O231 1.256 . S
C228 O232 1.255 . S
O229 Co212 2.021 . S
O229 C222 1.259 . S
O230 Co214 2.117 . S
O230 C222 1.258 . S
O231 Co214 2.020 . S
O231 C228 1.256 . S
O232 Co212 2.062 . S
O232 C228 1.255 . S
O233 C213 1.259 . S
O233 Co214 2.021 . S
H234 C225 0.930 . S
H235 C224 0.931 . S
O236 Co212 2.117 . S
O236 C213 1.258 . S
O237 Co212 2.020 . S
O237 C239 1.256 . S
O238 Co214 2.062 . S
O238 C239 1.255 . S
C239 O237 1.256 . S
C239 O238 1.255 . S
H240 C219 0.931 . S
H241 C227 0.931 . S
Co242 N247 2.057 . S
Co242 O259 2.021 1_455 S
Co242 O262 2.062 1_455 S
Co242 O266 2.117 . S
Co242 O267 2.020 . S
C243 O263 1.259 . S
C243 O266 1.258 . S
Co244 N253 2.057 . S
Co244 O260 2.117 1_455 S
Co244 O261 2.020 1_455 S
Co244 O263 2.021 . S
Co244 O268 2.062 . S
C245 N247 1.316 . S
C245 N248 1.347 . S
C245 H250 0.931 1_455 S
C246 N247 1.375 . S
C246 C249 1.350 . S
C246 H251 0.930 . S
N247 Co242 2.057 . S
N247 C245 1.316 . S
N247 C246 1.375 . S
N248 C245 1.347 . S
N248 C249 1.373 . S
C249 C246 1.350 . S
C249 N248 1.373 . S
C249 H270 0.931 . S
H250 C245 0.931 1_655 S
H251 C246 0.930 . S
C252 O259 1.259 . S
C252 O260 1.258 . S
N253 Co244 2.057 . S
N253 C254 1.316 . S
N253 C255 1.375 1_455 S
C254 N253 1.316 . S
C254 N256 1.347 . S
C254 H265 0.931 . S
C255 N253 1.375 1_655 S
C255 C257 1.350 . S
C255 H264 0.930 . S
N256 C254 1.347 . S
N256 C257 1.373 1_455 S
C257 C255 1.350 . S
C257 N256 1.373 1_655 S
C257 H271 0.931 . S
C258 O261 1.256 . S
C258 O262 1.255 . S
O259 Co242 2.021 1_655 S
O259 C252 1.259 . S
O260 Co244 2.117 1_655 S
O260 C252 1.258 . S
O261 Co244 2.020 1_655 S
O261 C258 1.256 . S
O262 Co242 2.062 1_655 S
O262 C258 1.255 . S
O263 C243 1.259 . S
O263 Co244 2.021 . S
H264 C255 0.930 . S
H265 C254 0.931 . S
O266 Co242 2.117 . S
O266 C243 1.258 . S
O267 Co242 2.020 . S
O267 C269 1.256 . S
O268 Co244 2.062 . S
O268 C269 1.255 . S
C269 O267 1.256 . S
C269 O268 1.255 . S
H270 C249 0.931 . S
H271 C257 0.931 . S
H272 C290 0.951 1_565 S
H273 C292 0.914 1_565 S
H274 C294 0.950 . S
H275 C295 0.950 . S
H276 C297 0.950 . S
H277 C300 0.968 . S
H278 C301 0.950 . S
H279 C303 0.950 . S
H280 C304 0.950 . S
H281 C305 0.951 . S
H282 C307 0.951 . S
H283 C309 0.950 . S
H284 C310 0.950 . S
H285 C312 0.950 . S
H286 C315 0.950 . S
H287 C316 0.950 . S
H288 C318 0.950 . S
H289 C319 0.950 . S
C290 H272 0.951 1_545 S
C290 C291 1.366 . S
C290 C292 1.390 . S
C291 C290 1.366 . S
C291 C295 1.385 . S
C292 H273 0.914 1_545 S
C292 C290 1.390 . S
C292 C293 1.402 . S
C293 C292 1.402 . S
C293 C294 1.414 . S
C293 C296 1.499 . S
C294 H274 0.950 . S
C294 C293 1.414 . S
C294 C295 1.374 . S
C295 H275 0.950 . S
C295 C291 1.385 . S
C295 C294 1.374 . S
C296 C293 1.499 . S
C296 C297 1.373 . S
C296 C298 1.389 1_545 S
C297 H276 0.950 . S
C297 C296 1.373 . S
C297 C313 1.377 . S
C298 C296 1.389 1_565 S
C298 C299 1.524 . S
C298 C312 1.377 . S
C299 C298 1.524 . S
C299 C300 1.397 . S
C299 C304 1.363 . S
C300 H277 0.968 . S
C300 C299 1.397 . S
C300 C301 1.334 . S
C301 H278 0.950 . S
C301 C300 1.334 . S
C301 C302 1.287 . S
C302 C301 1.287 . S
C302 C303 1.524 . S
C302 H321 0.913 . S
C303 H279 0.950 . S
C303 C302 1.524 . S
C303 C304 1.415 . S
C304 H280 0.950 . S
C304 C299 1.363 . S
C304 C303 1.415 . S
C305 H281 0.951 . S
C305 C306 1.366 . S
C305 C307 1.388 . S
C306 C305 1.366 . S
C306 C310 1.385 1_545 S
C307 H282 0.951 . S
C307 C305 1.388 . S
C307 C308 1.366 . S
C308 C307 1.366 . S
C308 C309 1.414 1_545 S
C308 C311 1.499 . S
C309 H283 0.950 . S
C309 C308 1.414 1_565 S
C309 C310 1.374 . S
C310 H284 0.950 . S
C310 C306 1.385 1_565 S
C310 C309 1.374 . S
C311 C308 1.499 . S
C311 C312 1.373 1_545 S
C311 C313 1.389 . S
C312 H285 0.950 . S
C312 C298 1.377 . S
C312 C311 1.373 1_565 S
C313 C297 1.377 . S
C313 C311 1.389 . S
C313 C314 1.524 . S
C314 C313 1.524 . S
C314 C315 1.397 . S
C314 C319 1.363 . S
C315 H286 0.950 . S
C315 C314 1.397 . S
C315 C316 1.334 . S
C316 H287 0.950 . S
C316 C315 1.334 . S
C316 C317 1.287 . S
C317 C316 1.287 . S
C317 C318 1.524 . S
C317 H320 0.999 . S
C318 H288 0.950 . S
C318 C317 1.524 . S
C318 C319 1.415 . S
C319 H289 0.950 . S
C319 C314 1.363 . S
C319 C318 1.415 . S
H320 C317 0.999 . S
H321 C302 0.913 . S
H322 C340 0.951 . S
H323 C342 0.951 . S
H324 C344 0.950 . S
H325 C345 0.950 . S
H326 C347 0.950 . S
H327 C350 0.950 . S
H328 C351 0.950 . S
H329 C353 0.950 . S
H330 C354 0.950 . S
H331 C355 0.951 . S
H332 C357 0.951 . S
H333 C359 0.950 . S
H334 C360 0.950 . S
H335 C362 0.950 . S
H336 C365 0.950 . S
H337 C366 0.950 . S
H338 C368 0.950 . S
H339 C369 0.950 . S
C340 H322 0.951 . S
C340 C341 1.366 . S
C340 C342 1.388 . S
C341 C340 1.366 . S
C341 C345 1.385 . S
C342 H323 0.951 . S
C342 C340 1.388 . S
C342 C343 1.366 . S
C343 C342 1.366 . S
C343 C344 1.414 . S
C343 C346 1.499 . S
C344 H324 0.950 . S
C344 C343 1.414 . S
C344 C345 1.374 . S
C345 H325 0.950 . S
C345 C341 1.385 . S
C345 C344 1.374 . S
C346 C343 1.499 . S
C346 C347 1.373 . S
C346 C348 1.389 . S
C347 H326 0.950 . S
C347 C346 1.373 . S
C347 C363 1.377 . S
C348 C346 1.389 . S
C348 C349 1.524 . S
C348 C362 1.377 . S
C349 C348 1.524 . S
C349 C350 1.397 . S
C349 C354 1.363 . S
C350 H327 0.950 . S
C350 C349 1.397 . S
C350 C351 1.334 . S
C351 H328 0.950 . S
C351 C350 1.334 . S
C351 C352 1.287 . S
C352 C351 1.287 . S
C352 C353 1.524 . S
C352 H371 0.913 . S
C353 H329 0.950 . S
C353 C352 1.524 . S
C353 C354 1.415 . S
C354 H330 0.950 . S
C354 C349 1.363 . S
C354 C353 1.415 . S
C355 H331 0.951 . S
C355 C356 1.366 . S
C355 C357 1.388 . S
C356 C355 1.366 . S
C356 C360 1.385 . S
C357 H332 0.951 . S
C357 C355 1.388 . S
C357 C358 1.366 . S
C358 C357 1.366 . S
C358 C359 1.414 . S
C358 C361 1.499 . S
C359 H333 0.950 . S
C359 C358 1.414 . S
C359 C360 1.374 . S
C360 H334 0.950 . S
C360 C356 1.385 . S
C360 C359 1.374 . S
C361 C358 1.499 . S
C361 C362 1.373 . S
C361 C363 1.389 . S
C362 H335 0.950 . S
C362 C348 1.377 . S
C362 C361 1.373 . S
C363 C347 1.377 . S
C363 C361 1.389 . S
C363 C364 1.524 . S
C364 C363 1.524 . S
C364 C365 1.397 . S
C364 C369 1.363 . S
C365 H336 0.950 . S
C365 C364 1.397 . S
C365 C366 1.334 . S
C366 H337 0.950 . S
C366 C365 1.334 . S
C366 C367 1.287 . S
C367 C366 1.287 . S
C367 C368 1.524 . S
C367 H370 0.999 . S
C368 H338 0.950 . S
C368 C367 1.524 . S
C368 C369 1.415 . S
C369 H339 0.950 . S
C369 C364 1.363 . S
C369 C368 1.415 . S
H370 C367 0.999 . S
H371 C352 0.913 . S
H372 C390 0.951 . S
H373 C392 0.951 . S
H374 C394 0.950 . S
H375 C395 0.950 . S
H376 C397 0.950 . S
H377 C400 0.950 . S
H378 C401 0.950 . S
H379 C403 0.950 . S
H380 C404 0.950 . S
H381 C405 0.951 . S
H382 C407 0.951 . S
H383 C409 0.950 . S
H384 C410 0.950 . S
H385 C412 0.950 . S
H386 C415 0.950 . S
H387 C416 0.950 . S
H388 C418 0.950 . S
H389 C419 0.950 . S
C390 H372 0.951 . S
C390 C391 1.366 . S
C390 C392 1.388 . S
C391 C390 1.366 . S
C391 C395 1.385 . S
C392 H373 0.951 . S
C392 C390 1.388 . S
C392 C393 1.366 . S
C393 C392 1.366 . S
C393 C394 1.414 . S
C393 C396 1.499 . S
C394 H374 0.950 . S
C394 C393 1.414 . S
C394 C395 1.374 . S
C395 H375 0.950 . S
C395 C391 1.385 . S
C395 C394 1.374 . S
C396 C393 1.499 . S
C396 C397 1.373 . S
C396 C398 1.389 . S
C397 H376 0.950 . S
C397 C396 1.373 . S
C397 C413 1.377 . S
C398 C396 1.389 . S
C398 C399 1.524 . S
C398 C412 1.377 . S
C399 C398 1.524 . S
C399 C400 1.397 . S
C399 C404 1.363 . S
C400 H377 0.950 . S
C400 C399 1.397 . S
C400 C401 1.334 . S
C401 H378 0.950 . S
C401 C400 1.334 . S
C401 C402 1.287 . S
C402 C401 1.287 . S
C402 C403 1.524 . S
C402 H421 0.913 . S
C403 H379 0.950 . S
C403 C402 1.524 . S
C403 C404 1.415 . S
C404 H380 0.950 . S
C404 C399 1.363 . S
C404 C403 1.415 . S
C405 H381 0.951 . S
C405 C406 1.366 . S
C405 C407 1.388 . S
C406 C405 1.366 . S
C406 C410 1.385 . S
C407 H382 0.951 . S
C407 C405 1.388 . S
C407 C408 1.366 . S
C408 C407 1.366 . S
C408 C409 1.414 . S
C408 C411 1.499 . S
C409 H383 0.950 . S
C409 C408 1.414 . S
C409 C410 1.374 . S
C410 H384 0.950 . S
C410 C406 1.385 . S
C410 C409 1.374 . S
C411 C408 1.499 . S
C411 C412 1.373 . S
C411 C413 1.389 . S
C412 H385 0.950 . S
C412 C398 1.377 . S
C412 C411 1.373 . S
C413 C397 1.377 . S
C413 C411 1.389 . S
C413 C414 1.524 . S
C414 C413 1.524 . S
C414 C415 1.397 . S
C414 C419 1.363 . S
C415 H386 0.950 . S
C415 C414 1.397 . S
C415 C416 1.334 . S
C416 H387 0.950 . S
C416 C415 1.334 . S
C416 C417 1.287 . S
C417 C416 1.287 . S
C417 C418 1.524 . S
C417 H420 0.999 . S
C418 H388 0.950 . S
C418 C417 1.524 . S
C418 C419 1.415 . S
C419 H389 0.950 . S
C419 C414 1.363 . S
C419 C418 1.415 . S
H420 C417 0.999 . S
H421 C402 0.913 . S
H422 C440 0.951 . S
H423 C442 0.951 . S
H424 C444 0.950 . S
H425 C445 0.950 . S
H426 C447 0.950 . S
H427 C450 0.950 . S
H428 C451 0.950 . S
H429 C453 0.950 . S
H430 C454 0.950 . S
H431 C455 0.951 1_655 S
H432 C457 0.931 1_655 S
H433 C459 0.950 . S
H434 C460 0.950 . S
H435 C462 0.950 . S
H436 C465 0.950 . S
H437 C466 0.950 . S
H438 C468 0.950 1_655 S
H439 C469 0.950 . S
C440 H422 0.951 . S
C440 C441 1.366 . S
C440 C442 1.388 . S
C441 C440 1.366 . S
C441 C445 1.385 . S
C442 H423 0.951 . S
C442 C440 1.388 . S
C442 C443 1.366 . S
C443 C442 1.366 . S
C443 C444 1.414 . S
C443 C446 1.499 . S
C444 H424 0.950 . S
C444 C443 1.414 . S
C444 C445 1.374 . S
C445 H425 0.950 . S
C445 C441 1.385 . S
C445 C444 1.374 . S
C446 C443 1.499 . S
C446 C447 1.373 . S
C446 C448 1.389 . S
C447 H426 0.950 . S
C447 C446 1.373 . S
C447 C463 1.377 . S
C448 C446 1.389 . S
C448 C449 1.524 . S
C448 C462 1.377 . S
C449 C448 1.524 . S
C449 C450 1.397 . S
C449 C454 1.363 . S
C450 H427 0.950 . S
C450 C449 1.397 . S
C450 C451 1.334 . S
C451 H428 0.950 . S
C451 C450 1.334 . S
C451 C452 1.287 . S
C452 C451 1.287 . S
C452 C453 1.524 . S
C452 H471 0.913 . S
C453 H429 0.950 . S
C453 C452 1.524 . S
C453 C454 1.415 . S
C454 H430 0.950 . S
C454 C449 1.363 . S
C454 C453 1.415 . S
C455 H431 0.951 1_455 S
C455 C456 1.366 . S
C455 C457 1.388 . S
C456 C455 1.366 . S
C456 C460 1.385 . S
C457 H432 0.931 1_455 S
C457 C455 1.388 . S
C457 C458 1.366 . S
C458 C457 1.366 . S
C458 C459 1.414 . S
C458 C461 1.499 . S
C459 H433 0.950 . S
C459 C458 1.414 . S
C459 C460 1.374 . S
C460 H434 0.950 . S
C460 C456 1.385 . S
C460 C459 1.374 . S
C461 C458 1.499 . S
C461 C462 1.373 . S
C461 C463 1.389 . S
C462 H435 0.950 . S
C462 C448 1.377 . S
C462 C461 1.373 . S
C463 C447 1.377 . S
C463 C461 1.389 . S
C463 C464 1.524 . S
C464 C463 1.524 . S
C464 C465 1.397 . S
C464 C469 1.363 . S
C465 H436 0.950 . S
C465 C464 1.397 . S
C465 C466 1.334 . S
C466 H437 0.950 . S
C466 C465 1.334 . S
C466 C467 1.287 . S
C467 C466 1.287 . S
C467 C468 1.524 . S
C467 H470 0.999 . S
C468 H438 0.950 1_455 S
C468 C467 1.524 . S
C468 C469 1.415 . S
C469 H439 0.950 . S
C469 C464 1.363 . S
C469 C468 1.415 . S
H470 C467 0.999 . S
H471 C452 0.913 . S
H472 C490 0.951 . S
H473 C492 0.951 . S
H474 C494 0.950 . S
H475 C495 0.950 1_554 S
H476 C497 0.950 1_565 S
H477 C500 0.950 . S
H478 C501 0.950 . S
H479 C503 0.950 . S
H480 C504 0.950 . S
H481 C505 0.951 . S
H482 C507 0.951 . S
H483 C509 0.950 . S
H484 C510 0.950 . S
H485 C512 0.950 . S
H486 C515 0.950 . S
H487 C516 0.950 . S
H488 C518 0.950 . S
H489 C519 0.950 . S
C490 H472 0.951 . S
C490 C491 1.398 . S
C490 C492 1.388 . S
C491 C490 1.398 . S
C491 C495 1.353 1_545 S
C492 H473 0.951 . S
C492 C490 1.388 . S
C492 C493 1.366 . S
C493 C492 1.366 . S
C493 C494 1.414 1_545 S
C493 C496 1.499 . S
C494 H474 0.950 . S
C494 C493 1.414 1_565 S
C494 C495 1.374 . S
C495 H475 0.950 1_556 S
C495 C491 1.353 1_565 S
C495 C494 1.374 . S
C496 C493 1.499 . S
C496 C497 1.373 . S
C496 C498 1.389 . S
C497 H476 0.950 1_545 S
C497 C496 1.373 . S
C497 C513 1.377 . S
C498 C496 1.389 . S
C498 C499 1.524 . S
C498 C512 1.377 . S
C499 C498 1.524 . S
C499 C500 1.397 1_545 S
C499 C504 1.363 . S
C500 H477 0.950 . S
C500 C499 1.397 1_565 S
C500 C501 1.334 . S
C501 H478 0.950 . S
C501 C500 1.334 . S
C501 C502 1.263 1_565 S
C502 C501 1.263 1_545 S
C502 C503 1.557 . S
C502 H521 0.906 1_545 S
C503 H479 0.950 . S
C503 C502 1.557 . S
C503 C504 1.415 . S
C504 H480 0.950 . S
C504 C499 1.363 . S
C504 C503 1.415 . S
C505 H481 0.951 . S
C505 C506 1.366 1_565 S
C505 C507 1.388 . S
C506 C505 1.366 1_545 S
C506 C510 1.385 . S
C507 H482 0.951 . S
C507 C505 1.388 . S
C507 C508 1.366 1_565 S
C508 C507 1.366 1_545 S
C508 C509 1.414 . S
C508 C511 1.499 . S
C509 H483 0.950 . S
C509 C508 1.414 . S
C509 C510 1.374 . S
C510 H484 0.950 . S
C510 C506 1.385 . S
C510 C509 1.374 . S
C511 C508 1.499 . S
C511 C512 1.373 . S
C511 C513 1.389 . S
C512 H485 0.950 . S
C512 C498 1.377 . S
C512 C511 1.373 . S
C513 C497 1.377 . S
C513 C511 1.389 . S
C513 C514 1.524 . S
C514 C513 1.524 . S
C514 C515 1.397 . S
C514 C519 1.363 1_546 S
C515 H486 0.950 . S
C515 C514 1.397 . S
C515 C516 1.334 1_556 S
C516 H487 0.950 . S
C516 C515 1.334 1_554 S
C516 C517 1.287 . S
C517 C516 1.287 . S
C517 C518 1.524 1_545 S
C517 H520 0.999 . S
C518 H488 0.950 . S
C518 C517 1.524 1_565 S
C518 C519 1.415 . S
C519 H489 0.950 . S
C519 C514 1.363 1_564 S
C519 C518 1.415 . S
H520 C517 0.999 . S
H521 C502 0.906 1_565 S
H522 C540 0.951 . S
H523 C542 0.951 . S
H524 C544 0.950 . S
H525 C545 0.950 . S
H526 C547 0.950 . S
H527 C550 0.950 . S
H528 C551 0.950 . S
H529 C553 0.950 . S
H530 C554 0.950 . S
H531 C555 0.951 . S
H532 C557 0.951 . S
H533 C559 0.950 . S
H534 C560 0.950 . S
H535 C562 0.950 . S
H536 C565 0.950 . S
H537 C566 0.950 . S
H538 C568 0.950 . S
H539 C569 0.950 . S
C540 H522 0.951 . S
C540 C541 1.366 . S
C540 C542 1.388 . S
C541 C540 1.366 . S
C541 C545 1.385 1_554 S
C542 H523 0.951 . S
C542 C540 1.388 . S
C542 C543 1.366 1_554 S
C543 C542 1.366 1_556 S
C543 C544 1.414 . S
C543 C546 1.499 . S
C544 H524 0.950 . S
C544 C543 1.414 . S
C544 C545 1.374 . S
C545 H525 0.950 . S
C545 C541 1.385 1_556 S
C545 C544 1.374 . S
C546 C543 1.499 . S
C546 C547 1.373 . S
C546 C548 1.389 . S
C547 H526 0.950 . S
C547 C546 1.373 . S
C547 C563 1.377 . S
C548 C546 1.389 . S
C548 C549 1.524 . S
C548 C562 1.377 . S
C549 C548 1.524 . S
C549 C550 1.397 . S
C549 C554 1.363 . S
C550 H527 0.950 . S
C550 C549 1.397 . S
C550 C551 1.334 . S
C551 H528 0.950 . S
C551 C550 1.334 . S
C551 C552 1.287 . S
C552 C551 1.287 . S
C552 C553 1.524 . S
C552 H571 0.913 . S
C553 H529 0.950 . S
C553 C552 1.524 . S
C553 C554 1.415 . S
C554 H530 0.950 . S
C554 C549 1.363 . S
C554 C553 1.415 . S
C555 H531 0.951 . S
C555 C556 1.366 . S
C555 C557 1.388 . S
C556 C555 1.366 . S
C556 C560 1.385 . S
C557 H532 0.951 . S
C557 C555 1.388 . S
C557 C558 1.366 . S
C558 C557 1.366 . S
C558 C559 1.414 . S
C558 C561 1.499 . S
C559 H533 0.950 . S
C559 C558 1.414 . S
C559 C560 1.374 . S
C560 H534 0.950 . S
C560 C556 1.385 . S
C560 C559 1.374 . S
C561 C558 1.499 . S
C561 C562 1.373 . S
C561 C563 1.389 . S
C562 H535 0.950 . S
C562 C548 1.377 . S
C562 C561 1.373 . S
C563 C547 1.377 . S
C563 C561 1.389 . S
C563 C564 1.524 . S
C564 C563 1.524 . S
C564 C565 1.397 . S
C564 C569 1.363 . S
C565 H536 0.950 . S
C565 C564 1.397 . S
C565 C566 1.334 . S
C566 H537 0.950 . S
C566 C565 1.334 . S
C566 C567 1.287 . S
C567 C566 1.287 . S
C567 C568 1.524 . S
C567 H570 0.999 . S
C568 H538 0.950 . S
C568 C567 1.524 . S
C568 C569 1.415 . S
C569 H539 0.950 . S
C569 C564 1.363 . S
C569 C568 1.415 . S
H570 C567 0.999 . S
H571 C552 0.913 . S
H572 C590 0.951 . S
H573 C592 0.951 . S
H574 C594 0.950 . S
H575 C595 0.950 1_556 S
H576 C597 0.950 . S
H577 C600 0.950 . S
H578 C601 0.950 1_556 S
H579 C603 0.950 . S
H580 C604 0.950 . S
H581 C605 0.951 . S
H582 C607 0.951 . S
H583 C609 0.950 . S
H584 C610 0.950 . S
H585 C612 0.950 . S
H586 C615 0.950 . S
H587 C616 0.950 . S
H588 C618 0.950 . S
H589 C619 0.950 . S
C590 H572 0.951 . S
C590 C591 1.366 . S
C590 C592 1.388 . S
C591 C590 1.366 . S
C591 C595 1.385 . S
C592 H573 0.951 . S
C592 C590 1.388 . S
C592 C593 1.366 . S
C593 C592 1.366 . S
C593 C594 1.414 1_554 S
C593 C596 1.499 1_554 S
C594 H574 0.950 . S
C594 C593 1.414 1_556 S
C594 C595 1.374 1_556 S
C595 H575 0.950 1_554 S
C595 C591 1.385 . S
C595 C594 1.374 1_554 S
C596 C593 1.499 1_556 S
C596 C597 1.373 . S
C596 C598 1.389 . S
C597 H576 0.950 . S
C597 C596 1.373 . S
C597 C613 1.377 . S
C598 C596 1.389 . S
C598 C599 1.524 1_556 S
C598 C612 1.377 . S
C599 C598 1.524 1_554 S
C599 C600 1.397 1_554 S
C599 C604 1.363 . S
C600 H577 0.950 . S
C600 C599 1.397 1_556 S
C600 C601 1.334 1_556 S
C601 H578 0.950 1_554 S
C601 C600 1.334 1_554 S
C601 C602 1.287 . S
C602 C601 1.287 . S
C602 C603 1.524 . S
C602 H621 0.913 . S
C603 H579 0.950 . S
C603 C602 1.524 . S
C603 C604 1.415 . S
C604 H580 0.950 . S
C604 C599 1.363 . S
C604 C603 1.415 . S
C605 H581 0.951 . S
C605 C606 1.366 . S
C605 C607 1.388 . S
C606 C605 1.366 . S
C606 C610 1.385 . S
C607 H582 0.951 . S
C607 C605 1.388 . S
C607 C608 1.366 . S
C608 C607 1.366 . S
C608 C609 1.414 . S
C608 C611 1.499 . S
C609 H583 0.950 . S
C609 C608 1.414 . S
C609 C610 1.374 . S
C610 H584 0.950 . S
C610 C606 1.385 . S
C610 C609 1.374 . S
C611 C608 1.499 . S
C611 C612 1.373 . S
C611 C613 1.389 . S
C612 H585 0.950 . S
C612 C598 1.377 . S
C612 C611 1.373 . S
C613 C597 1.377 . S
C613 C611 1.389 . S
C613 C614 1.524 . S
C614 C613 1.524 . S
C614 C615 1.397 . S
C614 C619 1.363 . S
C615 H586 0.950 . S
C615 C614 1.397 . S
C615 C616 1.334 . S
C616 H587 0.950 . S
C616 C615 1.334 . S
C616 C617 1.287 . S
C617 C616 1.287 . S
C617 C618 1.524 . S
C617 H620 0.999 . S
C618 H588 0.950 . S
C618 C617 1.524 . S
C618 C619 1.415 . S
C619 H589 0.950 . S
C619 C614 1.363 . S
C619 C618 1.415 . S
H620 C617 0.999 . S
H621 C602 0.913 . S
H622 C640 0.951 . S
H623 C642 0.951 . S
H624 C644 0.950 . S
H625 C645 0.950 . S
H626 C647 0.950 . S
H627 C650 0.950 . S
H628 C651 0.950 . S
H629 C653 0.950 . S
H630 C654 0.950 . S
H631 C655 0.953 . S
H632 C657 0.951 . S
H633 C659 0.950 1_455 S
H634 C660 0.950 . S
H635 C662 0.950 . S
H636 C665 0.950 . S
H637 C666 0.950 . S
H638 C668 0.950 . S
H639 C669 0.950 . S
C640 H622 0.951 . S
C640 C641 1.366 . S
C640 C642 1.388 . S
C641 C640 1.366 . S
C641 C645 1.385 1_554 S
C642 H623 0.951 . S
C642 C640 1.388 . S
C642 C643 1.366 1_554 S
C643 C642 1.366 1_556 S
C643 C644 1.414 . S
C643 C646 1.499 . S
C644 H624 0.950 . S
C644 C643 1.414 . S
C644 C645 1.374 . S
C645 H625 0.950 . S
C645 C641 1.385 1_556 S
C645 C644 1.374 . S
C646 C643 1.499 . S
C646 C647 1.373 . S
C646 C648 1.389 1_655 S
C647 H626 0.950 . S
C647 C646 1.373 . S
C647 C663 1.377 . S
C648 C646 1.389 1_455 S
C648 C649 1.524 1_556 S
C648 C662 1.377 . S
C649 C648 1.524 1_554 S
C649 C650 1.397 1_554 S
C649 C654 1.363 . S
C650 H627 0.950 . S
C650 C649 1.397 1_556 S
C650 C651 1.334 1_556 S
C651 H628 0.950 . S
C651 C650 1.334 1_554 S
C651 C652 1.287 . S
C652 C651 1.287 . S
C652 C653 1.524 . S
C652 H671 0.913 . S
C653 H629 0.950 . S
C653 C652 1.524 . S
C653 C654 1.415 . S
C654 H630 0.950 . S
C654 C649 1.363 . S
C654 C653 1.415 . S
C655 H631 0.953 . S
C655 C656 1.356 1_655 S
C655 C657 1.399 . S
C656 C655 1.356 1_455 S
C656 C660 1.385 . S
C657 H632 0.951 . S
C657 C655 1.399 . S
C657 C658 1.366 . S
C658 C657 1.366 . S
C658 C659 1.414 . S
C658 C661 1.499 . S
C659 H633 0.950 1_655 S
C659 C658 1.414 . S
C659 C660 1.374 1_655 S
C660 H634 0.950 . S
C660 C656 1.385 . S
C660 C659 1.374 1_455 S
C661 C658 1.499 . S
C661 C662 1.373 1_655 S
C661 C663 1.389 . S
C662 H635 0.950 . S
C662 C648 1.377 . S
C662 C661 1.373 1_455 S
C663 C647 1.377 . S
C663 C661 1.389 . S
C663 C664 1.524 . S
C664 C663 1.524 . S
C664 C665 1.397 . S
C664 C669 1.363 . S
C665 H636 0.950 . S
C665 C664 1.397 . S
C665 C666 1.334 . S
C666 H637 0.950 . S
C666 C665 1.334 . S
C666 C667 1.287 . S
C667 C666 1.287 . S
C667 C668 1.524 . S
C667 H670 0.999 . S
C668 H638 0.950 . S
C668 C667 1.524 . S
C668 C669 1.415 . S
C669 H639 0.950 . S
C669 C664 1.363 . S
C669 C668 1.415 . S
H670 C667 0.999 . S
H671 C652 0.913 . S
H672 C690 0.951 . S
H673 C692 0.951 . S
H674 C694 0.950 . S
H675 C695 0.950 . S
H676 C697 0.950 . S
H677 C700 0.950 . S
H678 C701 0.950 . S
H679 C703 0.950 1_655 S
H680 C704 0.950 1_655 S
H681 C705 0.951 . S
H682 C707 0.951 . S
H683 C709 0.961 . S
H684 C710 0.950 . S
H685 C712 0.950 . S
H686 C715 0.950 . S
H687 C716 0.950 . S
H688 C718 0.950 . S
H689 C719 0.950 . S
C690 H672 0.951 . S
C690 C691 1.366 . S
C690 C692 1.388 . S
C691 C690 1.366 . S
C691 C695 1.385 . S
C692 H673 0.951 . S
C692 C690 1.388 . S
C692 C693 1.366 . S
C693 C692 1.366 . S
C693 C694 1.414 . S
C693 C696 1.499 . S
C694 H674 0.950 . S
C694 C693 1.414 . S
C694 C695 1.374 . S
C695 H675 0.950 . S
C695 C691 1.385 . S
C695 C694 1.374 . S
C696 C693 1.499 . S
C696 C697 1.373 . S
C696 C698 1.389 . S
C697 H676 0.950 . S
C697 C696 1.373 . S
C697 C713 1.377 . S
C698 C696 1.389 . S
C698 C699 1.524 . S
C698 C712 1.377 . S
C699 C698 1.524 . S
C699 C700 1.397 . S
C699 C704 1.363 . S
C700 H677 0.950 . S
C700 C699 1.397 . S
C700 C701 1.334 . S
C701 H678 0.950 . S
C701 C700 1.334 . S
C701 C702 1.287 . S
C702 C701 1.287 . S
C702 C703 1.523 . S
C702 H721 0.913 . S
C703 H679 0.950 1_455 S
C703 C702 1.523 . S
C703 C704 1.415 . S
C704 H680 0.950 1_455 S
C704 C699 1.363 . S
C704 C703 1.415 . S
C705 H681 0.951 . S
C705 C706 1.366 . S
C705 C707 1.388 . S
C706 C705 1.366 . S
C706 C710 1.385 1_455 S
C707 H682 0.951 . S
C707 C705 1.388 . S
C707 C708 1.366 . S
C708 C707 1.366 . S
C708 C709 1.401 1_455 S
C708 C711 1.499 . S
C709 H683 0.961 . S
C709 C708 1.401 1_655 S
C709 C710 1.377 . S
C710 H684 0.950 . S
C710 C706 1.385 1_655 S
C710 C709 1.377 . S
C711 C708 1.499 . S
C711 C712 1.373 . S
C711 C713 1.389 . S
C712 H685 0.950 . S
C712 C698 1.377 . S
C712 C711 1.373 . S
C713 C697 1.377 . S
C713 C711 1.389 . S
C713 C714 1.524 . S
C714 C713 1.524 . S
C714 C715 1.397 . S
C714 C719 1.363 . S
C715 H686 0.950 . S
C715 C714 1.397 . S
C715 C716 1.334 . S
C716 H687 0.950 . S
C716 C715 1.334 . S
C716 C717 1.287 . S
C717 C716 1.287 . S
C717 C718 1.524 . S
C717 H720 0.999 . S
C718 H688 0.950 . S
C718 C717 1.524 . S
C718 C719 1.415 . S
C719 H689 0.950 . S
C719 C714 1.363 . S
C719 C718 1.415 . S
H720 C717 0.999 . S
H721 C702 0.913 . S
H722 C740 0.951 . S
H723 C742 0.951 . S
H724 C744 0.950 1_565 S
H725 C745 0.950 1_565 S
H726 C747 0.950 . S
H727 C750 0.950 1_565 S
H728 C751 0.950 1_565 S
H729 C753 0.950 . S
H730 C754 0.950 . S
H731 C755 0.951 . S
H732 C757 0.951 . S
H733 C759 0.950 . S
H734 C760 0.950 . S
H735 C762 0.950 . S
H736 C765 0.950 . S
H737 C766 0.950 . S
H738 C768 0.950 . S
H739 C769 0.950 . S
C740 H722 0.951 . S
C740 C741 1.366 . S
C740 C742 1.388 . S
C741 C740 1.366 . S
C741 C745 1.385 . S
C742 H723 0.951 . S
C742 C740 1.388 . S
C742 C743 1.366 . S
C743 C742 1.366 . S
C743 C744 1.414 . S
C743 C746 1.499 . S
C744 H724 0.950 1_545 S
C744 C743 1.414 . S
C744 C745 1.374 . S
C745 H725 0.950 1_545 S
C745 C741 1.385 . S
C745 C744 1.374 . S
C746 C743 1.499 . S
C746 C747 1.373 . S
C746 C748 1.389 . S
C747 H726 0.950 . S
C747 C746 1.373 . S
C747 C763 1.377 . S
C748 C746 1.389 . S
C748 C749 1.524 . S
C748 C762 1.377 . S
C749 C748 1.524 . S
C749 C750 1.397 . S
C749 C754 1.363 . S
C750 H727 0.950 1_545 S
C750 C749 1.397 . S
C750 C751 1.334 . S
C751 H728 0.950 1_545 S
C751 C750 1.334 . S
C751 C752 1.287 . S
C752 C751 1.287 . S
C752 C753 1.524 . S
C752 H771 0.913 . S
C753 H729 0.950 . S
C753 C752 1.524 . S
C753 C754 1.415 . S
C754 H730 0.950 . S
C754 C749 1.363 . S
C754 C753 1.415 . S
C755 H731 0.951 . S
C755 C756 1.366 1_565 S
C755 C757 1.388 . S
C756 C755 1.366 1_545 S
C756 C760 1.385 . S
C757 H732 0.951 . S
C757 C755 1.388 . S
C757 C758 1.366 1_565 S
C758 C757 1.366 1_545 S
C758 C759 1.414 . S
C758 C761 1.499 . S
C759 H733 0.950 . S
C759 C758 1.414 . S
C759 C760 1.374 . S
C760 H734 0.950 . S
C760 C756 1.385 . S
C760 C759 1.374 . S
C761 C758 1.499 . S
C761 C762 1.373 . S
C761 C763 1.389 . S
C762 H735 0.950 . S
C762 C748 1.377 . S
C762 C761 1.373 . S
C763 C747 1.377 . S
C763 C761 1.389 . S
C763 C764 1.524 . S
C764 C763 1.524 . S
C764 C765 1.397 . S
C764 C769 1.363 1_545 S
C765 H736 0.950 . S
C765 C764 1.397 . S
C765 C766 1.334 . S
C766 H737 0.950 . S
C766 C765 1.334 . S
C766 C767 1.287 . S
C767 C766 1.287 . S
C767 C768 1.524 1_545 S
C767 H770 0.999 . S
C768 H738 0.950 . S
C768 C767 1.524 1_565 S
C768 C769 1.415 . S
C769 H739 0.950 . S
C769 C764 1.363 1_565 S
C769 C768 1.415 . S
H770 C767 0.999 . S
H771 C752 0.913 . S
H772 C790 0.951 . S
H773 C792 0.951 . S
H774 C794 0.950 . S
H775 C795 0.950 . S
H776 C797 0.950 . S
H777 C800 0.950 . S
H778 C801 0.950 . S
H779 C803 0.950 . S
H780 C804 0.950 . S
H781 C805 0.951 . S
H782 C807 0.951 . S
H783 C809 0.950 . S
H784 C810 0.950 . S
H785 C812 0.950 . S
H786 C815 0.950 . S
H787 C816 0.950 . S
H788 C818 0.950 . S
H789 C819 0.950 . S
C790 H772 0.951 . S
C790 C791 1.366 . S
C790 C792 1.388 . S
C791 C790 1.366 . S
C791 C795 1.385 . S
C792 H773 0.951 . S
C792 C790 1.388 . S
C792 C793 1.366 . S
C793 C792 1.366 . S
C793 C794 1.414 . S
C793 C796 1.499 . S
C794 H774 0.950 . S
C794 C793 1.414 . S
C794 C795 1.374 . S
C795 H775 0.950 . S
C795 C791 1.385 . S
C795 C794 1.374 . S
C796 C793 1.499 . S
C796 C797 1.373 . S
C796 C798 1.389 . S
C797 H776 0.950 . S
C797 C796 1.373 . S
C797 C813 1.377 . S
C798 C796 1.389 . S
C798 C799 1.524 . S
C798 C812 1.377 . S
C799 C798 1.524 . S
C799 C800 1.397 . S
C799 C804 1.363 . S
C800 H777 0.950 . S
C800 C799 1.397 . S
C800 C801 1.334 . S
C801 H778 0.950 . S
C801 C800 1.334 . S
C801 C802 1.287 . S
C802 C801 1.287 . S
C802 C803 1.524 . S
C802 H821 0.913 . S
C803 H779 0.950 . S
C803 C802 1.524 . S
C803 C804 1.415 . S
C804 H780 0.950 . S
C804 C799 1.363 . S
C804 C803 1.415 . S
C805 H781 0.951 . S
C805 C806 1.366 . S
C805 C807 1.388 . S
C806 C805 1.366 . S
C806 C810 1.385 . S
C807 H782 0.951 . S
C807 C805 1.388 . S
C807 C808 1.366 . S
C808 C807 1.366 . S
C808 C809 1.414 . S
C808 C811 1.499 . S
C809 H783 0.950 . S
C809 C808 1.414 . S
C809 C810 1.374 . S
C810 H784 0.950 . S
C810 C806 1.385 . S
C810 C809 1.374 . S
C811 C808 1.499 . S
C811 C812 1.373 . S
C811 C813 1.389 . S
C812 H785 0.950 . S
C812 C798 1.377 . S
C812 C811 1.373 . S
C813 C797 1.377 . S
C813 C811 1.389 . S
C813 C814 1.524 . S
C814 C813 1.524 . S
C814 C815 1.397 . S
C814 C819 1.363 . S
C815 H786 0.950 . S
C815 C814 1.397 . S
C815 C816 1.334 . S
C816 H787 0.950 . S
C816 C815 1.334 . S
C816 C817 1.287 . S
C817 C816 1.287 . S
C817 C818 1.524 . S
C817 H820 0.999 . S
C818 H788 0.950 . S
C818 C817 1.524 . S
C818 C819 1.415 . S
C819 H789 0.950 . S
C819 C814 1.363 . S
C819 C818 1.415 . S
H820 C817 0.999 . S
H821 C802 0.913 . S
H822 C840 0.951 . S
H823 C842 0.951 . S
H824 C844 0.950 . S
H825 C845 0.950 . S
H826 C847 0.950 . S
H827 C850 0.950 . S
H828 C851 0.950 . S
H829 C853 0.950 . S
H830 C854 0.950 . S
H831 C855 0.951 . S
H832 C857 0.951 . S
H833 C859 0.950 . S
H834 C860 0.950 . S
H835 C862 0.950 . S
H836 C865 0.950 . S
H837 C866 0.950 . S
H838 C868 0.950 . S
H839 C869 0.950 . S
C840 H822 0.951 . S
C840 C841 1.366 . S
C840 C842 1.388 . S
C841 C840 1.366 . S
C841 C845 1.385 . S
C842 H823 0.951 . S
C842 C840 1.388 . S
C842 C843 1.366 . S
C843 C842 1.366 . S
C843 C844 1.414 . S
C843 C846 1.499 . S
C844 H824 0.950 . S
C844 C843 1.414 . S
C844 C845 1.374 . S
C845 H825 0.950 . S
C845 C841 1.385 . S
C845 C844 1.374 . S
C846 C843 1.499 . S
C846 C847 1.373 . S
C846 C848 1.389 . S
C847 H826 0.950 . S
C847 C846 1.373 . S
C847 C863 1.377 . S
C848 C846 1.389 . S
C848 C849 1.524 . S
C848 C862 1.377 . S
C849 C848 1.524 . S
C849 C850 1.397 . S
C849 C854 1.363 . S
C850 H827 0.950 . S
C850 C849 1.397 . S
C850 C851 1.334 . S
C851 H828 0.950 . S
C851 C850 1.334 . S
C851 C852 1.287 . S
C852 C851 1.287 . S
C852 C853 1.524 . S
C852 H871 0.913 . S
C853 H829 0.950 . S
C853 C852 1.524 . S
C853 C854 1.415 . S
C854 H830 0.950 . S
C854 C849 1.363 . S
C854 C853 1.415 . S
C855 H831 0.951 . S
C855 C856 1.366 . S
C855 C857 1.388 . S
C856 C855 1.366 . S
C856 C860 1.385 . S
C857 H832 0.951 . S
C857 C855 1.388 . S
C857 C858 1.366 . S
C858 C857 1.366 . S
C858 C859 1.414 . S
C858 C861 1.499 . S
C859 H833 0.950 . S
C859 C858 1.414 . S
C859 C860 1.374 . S
C860 H834 0.950 . S
C860 C856 1.385 . S
C860 C859 1.374 . S
C861 C858 1.499 . S
C861 C862 1.373 . S
C861 C863 1.389 . S
C862 H835 0.950 . S
C862 C848 1.377 . S
C862 C861 1.373 . S
C863 C847 1.377 . S
C863 C861 1.389 . S
C863 C864 1.524 . S
C864 C863 1.524 . S
C864 C865 1.397 . S
C864 C869 1.363 . S
C865 H836 0.950 . S
C865 C864 1.397 . S
C865 C866 1.334 . S
C866 H837 0.950 . S
C866 C865 1.334 . S
C866 C867 1.287 . S
C867 C866 1.287 . S
C867 C868 1.524 . S
C867 H870 0.999 . S
C868 H838 0.950 . S
C868 C867 1.524 . S
C868 C869 1.415 . S
C869 H839 0.950 . S
C869 C864 1.363 . S
C869 C868 1.415 . S
H870 C867 0.999 . S
H871 C852 0.913 . S
H872 C890 0.951 . S
H873 C892 0.951 . S
H874 C894 0.950 . S
H875 C895 0.950 . S
H876 C897 0.950 . S
H877 C900 0.950 . S
H878 C901 0.950 . S
H879 C903 0.950 . S
H880 C904 0.950 . S
H881 C905 0.942 1_655 S
H882 C907 0.951 . S
H883 C909 0.950 . S
H884 C910 0.950 . S
H885 C912 0.950 . S
H886 C915 0.950 . S
H887 C916 0.950 . S
H888 C918 0.950 . S
H889 C919 0.950 1_655 S
C890 H872 0.951 . S
C890 C891 1.366 . S
C890 C892 1.388 . S
C891 C890 1.366 . S
C891 C895 1.385 1_554 S
C892 H873 0.951 . S
C892 C890 1.388 . S
C892 C893 1.366 1_554 S
C893 C892 1.366 1_556 S
C893 C894 1.414 . S
C893 C896 1.499 . S
C894 H874 0.950 . S
C894 C893 1.414 . S
C894 C895 1.374 . S
C895 H875 0.950 . S
C895 C891 1.385 1_556 S
C895 C894 1.374 . S
C896 C893 1.499 . S
C896 C897 1.373 . S
C896 C898 1.389 . S
C897 H876 0.950 . S
C897 C896 1.373 . S
C897 C913 1.377 1_655 S
C898 C896 1.389 . S
C898 C899 1.524 1_556 S
C898 C912 1.377 . S
C899 C898 1.524 1_554 S
C899 C900 1.397 . S
C899 C904 1.363 . S
C900 H877 0.950 . S
C900 C899 1.397 . S
C900 C901 1.334 . S
C901 H878 0.950 . S
C901 C900 1.334 . S
C901 C902 1.287 . S
C902 C901 1.287 . S
C902 C903 1.524 . S
C902 H921 0.913 . S
C903 H879 0.950 . S
C903 C902 1.524 . S
C903 C904 1.415 . S
C904 H880 0.950 . S
C904 C899 1.363 . S
C904 C903 1.415 . S
C905 H881 0.942 1_455 S
C905 C906 1.366 . S
C905 C907 1.388 1_455 S
C906 C905 1.366 . S
C906 C910 1.385 . S
C907 H882 0.951 . S
C907 C905 1.388 1_655 S
C907 C908 1.366 1_655 S
C908 C907 1.366 1_455 S
C908 C909 1.414 . S
C908 C911 1.499 1_455 S
C909 H883 0.950 . S
C909 C908 1.414 . S
C909 C910 1.374 . S
C910 H884 0.950 . S
C910 C906 1.385 . S
C910 C909 1.374 . S
C911 C908 1.499 1_655 S
C911 C912 1.373 . S
C911 C913 1.389 1_655 S
C912 H885 0.950 . S
C912 C898 1.377 . S
C912 C911 1.373 . S
C913 C897 1.377 1_455 S
C913 C911 1.389 1_455 S
C913 C914 1.524 . S
C914 C913 1.524 . S
C914 C915 1.397 . S
C914 C919 1.363 . S
C915 H886 0.950 . S
C915 C914 1.397 . S
C915 C916 1.334 . S
C916 H887 0.950 . S
C916 C915 1.334 . S
C916 C917 1.287 . S
C917 C916 1.287 . S
C917 C918 1.524 . S
C917 H920 0.999 . S
C918 H888 0.950 . S
C918 C917 1.524 . S
C918 C919 1.415 . S
C919 H889 0.950 1_455 S
C919 C914 1.363 . S
C919 C918 1.415 . S
H920 C917 0.999 . S
H921 C902 0.913 . S
H922 C940 0.951 . S
H923 C942 0.951 . S
H924 C944 0.950 . S
H925 C945 0.950 . S
H926 C947 0.950 . S
H927 C950 0.950 . S
H928 C951 0.950 . S
H929 C953 0.950 . S
H930 C954 0.950 . S
H931 C955 0.951 . S
H932 C957 0.951 . S
H933 C959 0.950 . S
H934 C960 0.950 . S
H935 C962 0.950 . S
H936 C965 0.950 . S
H937 C966 0.950 . S
H938 C968 0.950 . S
H939 C969 0.950 . S
C940 H922 0.951 . S
C940 C941 1.366 1_554 S
C940 C942 1.388 . S
C941 C940 1.366 1_556 S
C941 C945 1.384 1_565 S
C942 H923 0.951 . S
C942 C940 1.388 . S
C942 C943 1.366 1_564 S
C943 C942 1.366 1_546 S
C943 C944 1.414 . S
C943 C946 1.499 . S
C944 H924 0.950 . S
C944 C943 1.414 . S
C944 C945 1.374 . S
C945 H925 0.950 . S
C945 C941 1.384 1_545 S
C945 C944 1.374 . S
C946 C943 1.499 . S
C946 C947 1.373 . S
C946 C948 1.389 1_545 S
C947 H926 0.950 . S
C947 C946 1.373 . S
C947 C963 1.377 . S
C948 C946 1.389 1_565 S
C948 C949 1.524 . S
C948 C962 1.377 . S
C949 C948 1.524 . S
C949 C950 1.397 . S
C949 C954 1.363 1_556 S
C950 H927 0.950 . S
C950 C949 1.397 . S
C950 C951 1.334 . S
C951 H928 0.950 . S
C951 C950 1.334 . S
C951 C952 1.287 1_556 S
C952 C951 1.287 1_554 S
C952 C953 1.524 . S
C952 H971 0.913 . S
C953 H929 0.950 . S
C953 C952 1.524 . S
C953 C954 1.415 . S
C954 H930 0.950 . S
C954 C949 1.363 1_554 S
C954 C953 1.415 . S
C955 H931 0.951 . S
C955 C956 1.366 . S
C955 C957 1.388 . S
C956 C955 1.366 . S
C956 C960 1.385 . S
C957 H932 0.951 . S
C957 C955 1.388 . S
C957 C958 1.366 . S
C958 C957 1.366 . S
C958 C959 1.414 . S
C958 C961 1.499 . S
C959 H933 0.950 . S
C959 C958 1.414 . S
C959 C960 1.374 . S
C960 H934 0.950 . S
C960 C956 1.385 . S
C960 C959 1.374 . S
C961 C958 1.499 . S
C961 C962 1.373 1_545 S
C961 C963 1.389 . S
C962 H935 0.950 . S
C962 C948 1.377 . S
C962 C961 1.373 1_565 S
C963 C947 1.377 . S
C963 C961 1.389 . S
C963 C964 1.524 . S
C964 C963 1.524 . S
C964 C965 1.397 . S
C964 C969 1.363 . S
C965 H936 0.950 . S
C965 C964 1.397 . S
C965 C966 1.334 . S
C966 H937 0.950 . S
C966 C965 1.334 . S
C966 C967 1.287 . S
C967 C966 1.287 . S
C967 C968 1.524 . S
C967 H970 0.999 . S
C968 H938 0.950 . S
C968 C967 1.524 . S
C968 C969 1.415 . S
C969 H939 0.950 . S
C969 C964 1.363 . S
C969 C968 1.415 . S
H970 C967 0.999 . S
H971 C952 0.913 . S
H972 C990 0.951 . S
H973 C992 0.951 . S
H974 C994 0.950 . S
H975 C995 0.950 . S
H976 C997 0.950 . S
H977 C1000 0.950 . S
H978 C1001 0.950 . S
H979 C1003 0.950 . S
H980 C1004 0.950 . S
H981 C1005 0.951 . S
H982 C1007 0.951 . S
H983 C1009 0.950 . S
H984 C1010 0.950 . S
H985 C1012 0.950 . S
H986 C1015 0.950 . S
H987 C1016 0.950 . S
H988 C1018 0.950 . S
H989 C1019 0.950 . S
C990 H972 0.951 . S
C990 C991 1.366 . S
C990 C992 1.388 . S
C991 C990 1.366 . S
C991 C995 1.385 1_554 S
C992 H973 0.951 . S
C992 C990 1.388 . S
C992 C993 1.366 1_554 S
C993 C992 1.366 1_556 S
C993 C994 1.414 . S
C993 C996 1.499 . S
C994 H974 0.950 . S
C994 C993 1.414 . S
C994 C995 1.374 . S
C995 H975 0.950 . S
C995 C991 1.385 1_556 S
C995 C994 1.374 . S
C996 C993 1.499 . S
C996 C997 1.373 . S
C996 C998 1.389 . S
C997 H976 0.950 . S
C997 C996 1.373 . S
C997 C1013 1.377 . S
C998 C996 1.389 . S
C998 C999 1.524 1_556 S
C998 C1012 1.377 . S
C999 C998 1.524 1_554 S
C999 C1000 1.397 . S
C999 C1004 1.363 . S
C1000 H977 0.950 . S
C1000 C999 1.397 . S
C1000 C1001 1.334 . S
C1001 H978 0.950 . S
C1001 C1000 1.334 . S
C1001 C1002 1.287 . S
C1002 C1001 1.287 . S
C1002 C1003 1.524 . S
C1002 H1021 0.913 . S
C1003 H979 0.950 . S
C1003 C1002 1.524 . S
C1003 C1004 1.415 . S
C1004 H980 0.950 . S
C1004 C999 1.363 . S
C1004 C1003 1.415 . S
C1005 H981 0.951 . S
C1005 C1006 1.366 . S
C1005 C1007 1.388 . S
C1006 C1005 1.366 . S
C1006 C1010 1.385 . S
C1007 H982 0.951 . S
C1007 C1005 1.388 . S
C1007 C1008 1.366 . S
C1008 C1007 1.366 . S
C1008 C1009 1.414 . S
C1008 C1011 1.499 . S
C1009 H983 0.950 . S
C1009 C1008 1.414 . S
C1009 C1010 1.374 . S
C1010 H984 0.950 . S
C1010 C1006 1.385 . S
C1010 C1009 1.374 . S
C1011 C1008 1.499 . S
C1011 C1012 1.373 . S
C1011 C1013 1.389 . S
C1012 H985 0.950 . S
C1012 C998 1.377 . S
C1012 C1011 1.373 . S
C1013 C997 1.377 . S
C1013 C1011 1.389 . S
C1013 C1014 1.524 . S
C1014 C1013 1.524 . S
C1014 C1015 1.397 . S
C1014 C1019 1.363 . S
C1015 H986 0.950 . S
C1015 C1014 1.397 . S
C1015 C1016 1.334 . S
C1016 H987 0.950 . S
C1016 C1015 1.334 . S
C1016 C1017 1.287 . S
C1017 C1016 1.287 . S
C1017 C1018 1.524 . S
C1017 H1020 0.999 . S
C1018 H988 0.950 . S
C1018 C1017 1.524 . S
C1018 C1019 1.415 . S
C1019 H989 0.950 . S
C1019 C1014 1.363 . S
C1019 C1018 1.415 . S
H1020 C1017 0.999 . S
H1021 C1002 0.913 . S
H1022 C1040 0.951 . S
H1023 C1042 0.951 . S
H1024 C1044 0.950 . S
H1025 C1045 0.950 . S
H1026 C1047 0.950 . S
H1027 C1050 0.950 . S
H1028 C1051 0.950 1_556 S
H1029 C1053 0.950 . S
H1030 C1054 0.950 . S
H1031 C1055 0.951 . S
H1032 C1057 0.951 . S
H1033 C1059 0.950 . S
H1034 C1060 0.950 . S
H1035 C1062 0.950 . S
H1036 C1065 0.950 . S
H1037 C1066 0.950 . S
H1038 C1068 0.950 . S
H1039 C1069 0.950 . S
C1040 H1022 0.951 . S
C1040 C1041 1.366 . S
C1040 C1042 1.388 . S
C1041 C1040 1.366 . S
C1041 C1045 1.385 . S
C1042 H1023 0.951 . S
C1042 C1040 1.388 . S
C1042 C1043 1.366 . S
C1043 C1042 1.366 . S
C1043 C1044 1.414 1_554 S
C1043 C1046 1.499 1_554 S
C1044 H1024 0.950 . S
C1044 C1043 1.414 1_556 S
C1044 C1045 1.374 1_556 S
C1045 H1025 0.950 . S
C1045 C1041 1.385 . S
C1045 C1044 1.374 1_554 S
C1046 C1043 1.499 1_556 S
C1046 C1047 1.373 . S
C1046 C1048 1.389 . S
C1047 H1026 0.950 . S
C1047 C1046 1.373 . S
C1047 C1063 1.377 . S
C1048 C1046 1.389 . S
C1048 C1049 1.524 1_556 S
C1048 C1062 1.377 . S
C1049 C1048 1.524 1_554 S
C1049 C1050 1.397 1_554 S
C1049 C1054 1.363 . S
C1050 H1027 0.950 . S
C1050 C1049 1.397 1_556 S
C1050 C1051 1.334 1_556 S
C1051 H1028 0.950 1_554 S
C1051 C1050 1.334 1_554 S
C1051 C1052 1.287 . S
C1052 C1051 1.287 . S
C1052 C1053 1.524 . S
C1052 H1071 0.913 . S
C1053 H1029 0.950 . S
C1053 C1052 1.524 . S
C1053 C1054 1.415 . S
C1054 H1030 0.950 . S
C1054 C1049 1.363 . S
C1054 C1053 1.415 . S
C1055 H1031 0.951 . S
C1055 C1056 1.366 . S
C1055 C1057 1.388 . S
C1056 C1055 1.366 . S
C1056 C1060 1.385 . S
C1057 H1032 0.951 . S
C1057 C1055 1.388 . S
C1057 C1058 1.366 . S
C1058 C1057 1.366 . S
C1058 C1059 1.414 . S
C1058 C1061 1.499 . S
C1059 H1033 0.950 . S
C1059 C1058 1.414 . S
C1059 C1060 1.374 . S
C1060 H1034 0.950 . S
C1060 C1056 1.385 . S
C1060 C1059 1.374 . S
C1061 C1058 1.499 . S
C1061 C1062 1.373 . S
C1061 C1063 1.389 . S
C1062 H1035 0.950 . S
C1062 C1048 1.377 . S
C1062 C1061 1.373 . S
C1063 C1047 1.377 . S
C1063 C1061 1.389 . S
C1063 C1064 1.524 . S
C1064 C1063 1.524 . S
C1064 C1065 1.397 . S
C1064 C1069 1.363 . S
C1065 H1036 0.950 . S
C1065 C1064 1.397 . S
C1065 C1066 1.334 . S
C1066 H1037 0.950 . S
C1066 C1065 1.334 . S
C1066 C1067 1.287 . S
C1067 C1066 1.287 . S
C1067 C1068 1.524 . S
C1067 H1070 0.999 . S
C1068 H1038 0.950 . S
C1068 C1067 1.524 . S
C1068 C1069 1.415 . S
C1069 H1039 0.950 . S
C1069 C1064 1.363 . S
C1069 C1068 1.415 . S
H1070 C1067 0.999 . S
H1071 C1052 0.913 . S
H1072 C1090 0.951 . S
H1073 C1092 0.951 . S
H1074 C1094 0.950 . S
H1075 C1095 0.950 . S
H1076 C1097 0.950 . S
H1077 C1100 0.950 . S
H1078 C1101 0.950 . S
H1079 C1103 0.950 . S
H1080 C1104 0.950 . S
H1081 C1105 0.951 . S
H1082 C1107 0.951 . S
H1083 C1109 0.950 . S
H1084 C1110 0.950 . S
H1085 C1112 0.950 . S
H1086 C1115 0.950 . S
H1087 C1116 0.952 1_455 S
H1088 C1118 0.950 . S
H1089 C1119 0.950 . S
C1090 H1072 0.951 . S
C1090 C1091 1.366 . S
C1090 C1092 1.388 . S
C1091 C1090 1.366 . S
C1091 C1095 1.385 . S
C1092 H1073 0.951 . S
C1092 C1090 1.388 . S
C1092 C1093 1.366 . S
C1093 C1092 1.366 . S
C1093 C1094 1.414 . S
C1093 C1096 1.499 . S
C1094 H1074 0.950 . S
C1094 C1093 1.414 . S
C1094 C1095 1.374 . S
C1095 H1075 0.950 . S
C1095 C1091 1.385 . S
C1095 C1094 1.374 . S
C1096 C1093 1.499 . S
C1096 C1097 1.373 . S
C1096 C1098 1.389 . S
C1097 H1076 0.950 . S
C1097 C1096 1.373 . S
C1097 C1113 1.377 . S
C1098 C1096 1.389 . S
C1098 C1099 1.524 . S
C1098 C1112 1.377 . S
C1099 C1098 1.524 . S
C1099 C1100 1.397 . S
C1099 C1104 1.363 . S
C1100 H1077 0.950 . S
C1100 C1099 1.397 . S
C1100 C1101 1.334 . S
C1101 H1078 0.950 . S
C1101 C1100 1.334 . S
C1101 C1102 1.287 . S
C1102 C1101 1.287 . S
C1102 C1103 1.524 . S
C1102 H1121 0.913 . S
C1103 H1079 0.950 . S
C1103 C1102 1.524 . S
C1103 C1104 1.415 . S
C1104 H1080 0.950 . S
C1104 C1099 1.363 . S
C1104 C1103 1.415 . S
C1105 H1081 0.951 . S
C1105 C1106 1.366 . S
C1105 C1107 1.388 1_556 S
C1106 C1105 1.366 . S
C1106 C1110 1.385 1_556 S
C1107 H1082 0.951 . S
C1107 C1105 1.388 1_554 S
C1107 C1108 1.366 . S
C1108 C1107 1.366 . S
C1108 C1109 1.414 . S
C1108 C1111 1.499 . S
C1109 H1083 0.950 . S
C1109 C1108 1.414 . S
C1109 C1110 1.374 . S
C1110 H1084 0.950 . S
C1110 C1106 1.385 1_554 S
C1110 C1109 1.374 . S
C1111 C1108 1.499 . S
C1111 C1112 1.373 . S
C1111 C1113 1.389 . S
C1112 H1085 0.950 . S
C1112 C1098 1.377 . S
C1112 C1111 1.373 . S
C1113 C1097 1.377 . S
C1113 C1111 1.389 . S
C1113 C1114 1.524 . S
C1114 C1113 1.524 . S
C1114 C1115 1.397 . S
C1114 C1119 1.363 1_455 S
C1115 H1086 0.950 . S
C1115 C1114 1.397 . S
C1115 C1116 1.338 1_455 S
C1116 H1087 0.952 1_655 S
C1116 C1115 1.338 1_655 S
C1116 C1117 1.281 . S
C1117 C1116 1.281 . S
C1117 C1118 1.524 . S
C1117 H1120 0.999 . S
C1118 H1088 0.950 . S
C1118 C1117 1.524 . S
C1118 C1119 1.415 . S
C1119 H1089 0.950 . S
C1119 C1114 1.363 1_655 S
C1119 C1118 1.415 . S
H1120 C1117 0.999 . S
H1121 C1102 0.913 . S
H1122 C1140 0.951 . S
H1123 C1142 0.951 . S
H1124 C1144 0.950 . S
H1125 C1145 0.950 . S
H1126 C1147 0.950 . S
H1127 C1150 0.950 . S
H1128 C1151 0.950 . S
H1129 C1153 0.950 . S
H1130 C1154 0.950 . S
H1131 C1155 0.951 . S
H1132 C1157 0.951 . S
H1133 C1159 0.950 . S
H1134 C1160 0.950 . S
H1135 C1162 0.950 . S
H1136 C1165 0.950 . S
H1137 C1166 0.950 1_556 S
H1138 C1168 0.950 . S
H1139 C1169 0.950 . S
C1140 H1122 0.951 . S
C1140 C1141 1.366 . S
C1140 C1142 1.388 . S
C1141 C1140 1.366 . S
C1141 C1145 1.385 . S
C1142 H1123 0.951 . S
C1142 C1140 1.388 . S
C1142 C1143 1.366 . S
C1143 C1142 1.366 . S
C1143 C1144 1.414 . S
C1143 C1146 1.499 . S
C1144 H1124 0.950 . S
C1144 C1143 1.414 . S
C1144 C1145 1.374 . S
C1145 H1125 0.950 . S
C1145 C1141 1.385 . S
C1145 C1144 1.374 . S
C1146 C1143 1.499 . S
C1146 C1147 1.373 . S
C1146 C1148 1.389 . S
C1147 H1126 0.950 . S
C1147 C1146 1.373 . S
C1147 C1163 1.377 . S
C1148 C1146 1.389 . S
C1148 C1149 1.524 . S
C1148 C1162 1.377 . S
C1149 C1148 1.524 . S
C1149 C1150 1.397 . S
C1149 C1154 1.363 . S
C1150 H1127 0.950 . S
C1150 C1149 1.397 . S
C1150 C1151 1.334 . S
C1151 H1128 0.950 . S
C1151 C1150 1.334 . S
C1151 C1152 1.287 . S
C1152 C1151 1.287 . S
C1152 C1153 1.524 . S
C1152 H1171 0.913 . S
C1153 H1129 0.950 . S
C1153 C1152 1.524 . S
C1153 C1154 1.415 . S
C1154 H1130 0.950 . S
C1154 C1149 1.363 . S
C1154 C1153 1.415 . S
C1155 H1131 0.951 . S
C1155 C1156 1.366 . S
C1155 C1157 1.388 1_556 S
C1156 C1155 1.366 . S
C1156 C1160 1.385 1_556 S
C1157 H1132 0.951 . S
C1157 C1155 1.388 1_554 S
C1157 C1158 1.366 . S
C1158 C1157 1.366 . S
C1158 C1159 1.414 . S
C1158 C1161 1.499 . S
C1159 H1133 0.950 . S
C1159 C1158 1.414 . S
C1159 C1160 1.374 . S
C1160 H1134 0.950 . S
C1160 C1156 1.385 1_554 S
C1160 C1159 1.374 . S
C1161 C1158 1.499 . S
C1161 C1162 1.373 . S
C1161 C1163 1.389 . S
C1162 H1135 0.950 . S
C1162 C1148 1.377 . S
C1162 C1161 1.373 . S
C1163 C1147 1.377 . S
C1163 C1161 1.389 . S
C1163 C1164 1.549 . S
C1164 C1163 1.549 . S
C1164 C1165 1.363 1_545 S
C1164 C1169 1.371 . S
C1165 H1136 0.950 . S
C1165 C1164 1.363 1_565 S
C1165 C1166 1.334 . S
C1166 H1137 0.950 1_554 S
C1166 C1165 1.334 . S
C1166 C1167 1.287 1_554 S
C1167 C1166 1.287 1_556 S
C1167 C1168 1.524 . S
C1167 H1170 0.999 . S
C1168 H1138 0.950 . S
C1168 C1167 1.524 . S
C1168 C1169 1.415 1_566 S
C1169 H1139 0.950 . S
C1169 C1164 1.371 . S
C1169 C1168 1.415 1_544 S
H1170 C1167 0.999 . S
H1171 C1152 0.913 . S
H1172 C1190 0.951 . S
H1173 C1192 0.951 . S
H1174 C1194 0.950 . S
H1175 C1195 0.950 . S
H1176 C1197 0.950 . S
H1177 C1200 0.950 . S
H1178 C1201 0.950 . S
H1179 C1203 0.950 . S
H1180 C1204 0.950 . S
H1181 C1205 0.951 . S
H1182 C1207 0.951 1_554 S
H1183 C1209 0.950 . S
H1184 C1210 0.950 . S
H1185 C1212 0.950 1_556 S
H1186 C1215 0.950 . S
H1187 C1216 0.950 . S
H1188 C1218 0.950 . S
H1189 C1219 0.950 . S
C1190 H1172 0.951 . S
C1190 C1191 1.366 . S
C1190 C1192 1.388 . S
C1191 C1190 1.366 . S
C1191 C1195 1.385 . S
C1192 H1173 0.951 . S
C1192 C1190 1.388 . S
C1192 C1193 1.366 . S
C1193 C1192 1.366 . S
C1193 C1194 1.414 . S
C1193 C1196 1.499 . S
C1194 H1174 0.950 . S
C1194 C1193 1.414 . S
C1194 C1195 1.374 . S
C1195 H1175 0.950 . S
C1195 C1191 1.385 . S
C1195 C1194 1.374 . S
C1196 C1193 1.499 . S
C1196 C1197 1.373 . S
C1196 C1198 1.389 . S
C1197 H1176 0.950 . S
C1197 C1196 1.373 . S
C1197 C1213 1.377 . S
C1198 C1196 1.389 . S
C1198 C1199 1.524 . S
C1198 C1212 1.377 . S
C1199 C1198 1.524 . S
C1199 C1200 1.397 . S
C1199 C1204 1.363 . S
C1200 H1177 0.950 . S
C1200 C1199 1.397 . S
C1200 C1201 1.334 . S
C1201 H1178 0.950 . S
C1201 C1200 1.334 . S
C1201 C1202 1.287 . S
C1202 C1201 1.287 . S
C1202 C1203 1.524 1_554 S
C1202 H1221 0.913 1_554 S
C1203 H1179 0.950 . S
C1203 C1202 1.524 1_556 S
C1203 C1204 1.415 1_556 S
C1204 H1180 0.950 . S
C1204 C1199 1.363 . S
C1204 C1203 1.415 1_554 S
C1205 H1181 0.951 . S
C1205 C1206 1.366 . S
C1205 C1207 1.388 . S
C1206 C1205 1.366 . S
C1206 C1210 1.385 . S
C1207 H1182 0.951 1_556 S
C1207 C1205 1.388 . S
C1207 C1208 1.366 . S
C1208 C1207 1.366 . S
C1208 C1209 1.417 . S
C1208 C1211 1.496 1_556 S
C1209 H1183 0.950 . S
C1209 C1208 1.417 . S
C1209 C1210 1.374 . S
C1210 H1184 0.950 . S
C1210 C1206 1.385 . S
C1210 C1209 1.374 . S
C1211 C1208 1.496 1_554 S
C1211 C1212 1.373 . S
C1211 C1213 1.389 . S
C1212 H1185 0.950 1_554 S
C1212 C1198 1.377 . S
C1212 C1211 1.373 . S
C1213 C1197 1.377 . S
C1213 C1211 1.389 . S
C1213 C1214 1.524 . S
C1214 C1213 1.524 . S
C1214 C1215 1.397 . S
C1214 C1219 1.363 . S
C1215 H1186 0.950 . S
C1215 C1214 1.397 . S
C1215 C1216 1.334 . S
C1216 H1187 0.950 . S
C1216 C1215 1.334 . S
C1216 C1217 1.287 . S
C1217 C1216 1.287 . S
C1217 C1218 1.524 . S
C1217 H1220 0.999 . S
C1218 H1188 0.950 . S
C1218 C1217 1.524 . S
C1218 C1219 1.415 . S
C1219 H1189 0.950 . S
C1219 C1214 1.363 . S
C1219 C1218 1.415 . S
H1220 C1217 0.999 . S
H1221 C1202 0.913 1_556 S
H1222 C1240 0.951 . S
H1223 C1242 0.951 . S
H1224 C1244 0.950 . S
H1225 C1245 0.950 . S
H1226 C1247 0.950 . S
H1227 C1250 0.950 . S
H1228 C1251 0.950 . S
H1229 C1253 0.950 . S
H1230 C1254 0.950 . S
H1231 C1255 0.951 . S
H1232 C1257 0.951 1_554 S
H1233 C1259 0.950 . S
H1234 C1260 0.950 . S
H1235 C1262 0.950 1_556 S
H1236 C1265 0.950 . S
H1237 C1266 0.950 . S
H1238 C1268 0.950 . S
H1239 C1269 0.950 . S
C1240 H1222 0.951 . S
C1240 C1241 1.366 . S
C1240 C1242 1.388 . S
C1241 C1240 1.366 . S
C1241 C1245 1.385 . S
C1242 H1223 0.951 . S
C1242 C1240 1.388 . S
C1242 C1243 1.366 . S
C1243 C1242 1.366 . S
C1243 C1244 1.414 . S
C1243 C1246 1.499 . S
C1244 H1224 0.950 . S
C1244 C1243 1.414 . S
C1244 C1245 1.374 . S
C1245 H1225 0.950 . S
C1245 C1241 1.385 . S
C1245 C1244 1.374 . S
C1246 C1243 1.499 . S
C1246 C1247 1.373 . S
C1246 C1248 1.389 . S
C1247 H1226 0.950 . S
C1247 C1246 1.373 . S
C1247 C1263 1.377 . S
C1248 C1246 1.389 . S
C1248 C1249 1.524 . S
C1248 C1262 1.377 . S
C1249 C1248 1.524 . S
C1249 C1250 1.397 . S
C1249 C1254 1.363 1_554 S
C1250 H1227 0.950 . S
C1250 C1249 1.397 . S
C1250 C1251 1.334 . S
C1251 H1228 0.950 . S
C1251 C1250 1.334 . S
C1251 C1252 1.287 1_554 S
C1252 C1251 1.287 1_556 S
C1252 C1253 1.524 . S
C1252 H1271 0.913 . S
C1253 H1229 0.950 . S
C1253 C1252 1.524 . S
C1253 C1254 1.415 . S
C1254 H1230 0.950 . S
C1254 C1249 1.363 1_556 S
C1254 C1253 1.415 . S
C1255 H1231 0.951 . S
C1255 C1256 1.366 . S
C1255 C1257 1.388 . S
C1256 C1255 1.366 . S
C1256 C1260 1.385 . S
C1257 H1232 0.951 1_556 S
C1257 C1255 1.388 . S
C1257 C1258 1.366 . S
C1258 C1257 1.366 . S
C1258 C1259 1.414 . S
C1258 C1261 1.499 1_556 S
C1259 H1233 0.950 . S
C1259 C1258 1.414 . S
C1259 C1260 1.374 . S
C1260 H1234 0.950 . S
C1260 C1256 1.385 . S
C1260 C1259 1.374 . S
C1261 C1258 1.499 1_554 S
C1261 C1262 1.373 . S
C1261 C1263 1.389 . S
C1262 H1235 0.950 1_554 S
C1262 C1248 1.377 . S
C1262 C1261 1.373 . S
C1263 C1247 1.377 . S
C1263 C1261 1.389 . S
C1263 C1264 1.524 . S
C1264 C1263 1.524 . S
C1264 C1265 1.397 . S
C1264 C1269 1.363 . S
C1265 H1236 0.950 . S
C1265 C1264 1.397 . S
C1265 C1266 1.334 . S
C1266 H1237 0.950 . S
C1266 C1265 1.334 . S
C1266 C1267 1.287 . S
C1267 C1266 1.287 . S
C1267 C1268 1.524 . S
C1267 H1270 0.999 . S
C1268 H1238 0.950 . S
C1268 C1267 1.524 . S
C1268 C1269 1.415 . S
C1269 H1239 0.950 . S
C1269 C1264 1.363 . S
C1269 C1268 1.415 . S
H1270 C1267 0.999 . S
H1271 C1252 0.913 . S
H1272 C1290 0.951 . S
H1273 C1292 0.951 . S
H1274 C1294 0.950 . S
H1275 C1295 0.950 . S
H1276 C1297 0.950 1_455 S
H1277 C1300 0.950 . S
H1278 C1301 0.950 . S
H1279 C1303 0.950 . S
H1280 C1304 0.950 . S
H1281 C1305 0.951 . S
H1282 C1307 0.951 . S
H1283 C1309 0.950 . S
H1284 C1310 0.950 . S
H1285 C1312 0.950 . S
H1286 C1315 0.950 . S
H1287 C1316 0.950 . S
H1288 C1318 0.950 . S
H1289 C1319 0.950 . S
C1290 H1272 0.951 . S
C1290 C1291 1.366 . S
C1290 C1292 1.388 . S
C1291 C1290 1.366 . S
C1291 C1295 1.385 . S
C1292 H1273 0.951 . S
C1292 C1290 1.388 . S
C1292 C1293 1.366 . S
C1293 C1292 1.366 . S
C1293 C1294 1.414 . S
C1293 C1296 1.499 . S
C1294 H1274 0.950 . S
C1294 C1293 1.414 . S
C1294 C1295 1.374 . S
C1295 H1275 0.950 . S
C1295 C1291 1.385 . S
C1295 C1294 1.374 . S
C1296 C1293 1.499 . S
C1296 C1297 1.373 . S
C1296 C1298 1.389 . S
C1297 H1276 0.950 1_655 S
C1297 C1296 1.373 . S
C1297 C1313 1.383 . S
C1298 C1296 1.389 . S
C1298 C1299 1.524 . S
C1298 C1312 1.377 . S
C1299 C1298 1.524 . S
C1299 C1300 1.397 . S
C1299 C1304 1.363 . S
C1300 H1277 0.950 . S
C1300 C1299 1.397 . S
C1300 C1301 1.334 . S
C1301 H1278 0.950 . S
C1301 C1300 1.334 . S
C1301 C1302 1.287 . S
C1302 C1301 1.287 . S
C1302 C1303 1.524 . S
C1302 H1321 0.913 . S
C1303 H1279 0.950 . S
C1303 C1302 1.524 . S
C1303 C1304 1.415 . S
C1304 H1280 0.950 . S
C1304 C1299 1.363 . S
C1304 C1303 1.415 . S
C1305 H1281 0.951 . S
C1305 C1306 1.366 . S
C1305 C1307 1.388 . S
C1306 C1305 1.366 . S
C1306 C1310 1.385 . S
C1307 H1282 0.951 . S
C1307 C1305 1.388 . S
C1307 C1308 1.366 . S
C1308 C1307 1.366 . S
C1308 C1309 1.414 . S
C1308 C1311 1.499 . S
C1309 H1283 0.950 . S
C1309 C1308 1.414 . S
C1309 C1310 1.374 . S
C1310 H1284 0.950 . S
C1310 C1306 1.385 . S
C1310 C1309 1.374 . S
C1311 C1308 1.499 . S
C1311 C1312 1.373 . S
C1311 C1313 1.416 . S
C1312 H1285 0.950 . S
C1312 C1298 1.377 . S
C1312 C1311 1.373 . S
C1313 C1297 1.383 . S
C1313 C1311 1.416 . S
C1313 C1314 1.490 1_655 S
C1314 C1313 1.490 1_455 S
C1314 C1315 1.397 . S
C1314 C1319 1.363 . S
C1315 H1286 0.950 . S
C1315 C1314 1.397 . S
C1315 C1316 1.334 . S
C1316 H1287 0.950 . S
C1316 C1315 1.334 . S
C1316 C1317 1.287 . S
C1317 C1316 1.287 . S
C1317 C1318 1.524 . S
C1317 H1320 0.999 . S
C1318 H1288 0.950 . S
C1318 C1317 1.524 . S
C1318 C1319 1.415 . S
C1319 H1289 0.950 . S
C1319 C1314 1.363 . S
C1319 C1318 1.415 . S
H1320 C1317 0.999 . S
H1321 C1302 0.913 . S
H1322 C1340 0.951 . S
H1323 C1342 0.951 . S
H1324 C1344 0.950 . S
H1325 C1345 0.950 . S
H1326 C1347 0.950 . S
H1327 C1350 0.950 . S
H1328 C1351 0.950 . S
H1329 C1353 0.950 . S
H1330 C1354 0.950 . S
H1331 C1355 0.951 . S
H1332 C1357 0.951 . S
H1333 C1359 0.950 . S
H1334 C1360 0.950 . S
H1335 C1362 0.950 . S
H1336 C1365 0.950 . S
H1337 C1366 0.950 . S
H1338 C1368 0.950 . S
H1339 C1369 0.950 . S
C1340 H1322 0.951 . S
C1340 C1341 1.367 1_545 S
C1340 C1342 1.388 . S
C1341 C1340 1.367 1_565 S
C1341 C1345 1.384 . S
C1342 H1323 0.951 . S
C1342 C1340 1.388 . S
C1342 C1343 1.366 1_545 S
C1343 C1342 1.366 1_565 S
C1343 C1344 1.414 . S
C1343 C1346 1.499 . S
C1344 H1324 0.950 . S
C1344 C1343 1.414 . S
C1344 C1345 1.374 . S
C1345 H1325 0.950 . S
C1345 C1341 1.384 . S
C1345 C1344 1.374 . S
C1346 C1343 1.499 . S
C1346 C1347 1.373 1_565 S
C1346 C1348 1.389 . S
C1347 H1326 0.950 . S
C1347 C1346 1.373 1_545 S
C1347 C1363 1.377 . S
C1348 C1346 1.389 . S
C1348 C1349 1.524 . S
C1348 C1362 1.377 . S
C1349 C1348 1.524 . S
C1349 C1350 1.397 . S
C1349 C1354 1.363 . S
C1350 H1327 0.950 . S
C1350 C1349 1.397 . S
C1350 C1351 1.334 . S
C1351 H1328 0.950 . S
C1351 C1350 1.334 . S
C1351 C1352 1.287 . S
C1352 C1351 1.287 . S
C1352 C1353 1.524 . S
C1352 H1371 0.913 . S
C1353 H1329 0.950 . S
C1353 C1352 1.524 . S
C1353 C1354 1.415 . S
C1354 H1330 0.950 . S
C1354 C1349 1.363 . S
C1354 C1353 1.415 . S
C1355 H1331 0.951 . S
C1355 C1356 1.380 . S
C1355 C1357 1.388 . S
C1356 C1355 1.380 . S
C1356 C1360 1.376 1_565 S
C1357 H1332 0.951 . S
C1357 C1355 1.388 . S
C1357 C1358 1.362 1_565 S
C1358 C1357 1.362 1_545 S
C1358 C1359 1.418 . S
C1358 C1361 1.500 . S
C1359 H1333 0.950 . S
C1359 C1358 1.418 . S
C1359 C1360 1.374 . S
C1360 H1334 0.950 . S
C1360 C1356 1.376 1_545 S
C1360 C1359 1.374 . S
C1361 C1358 1.500 . S
C1361 C1362 1.353 1_545 S
C1361 C1363 1.405 . S
C1362 H1335 0.950 . S
C1362 C1348 1.377 . S
C1362 C1361 1.353 1_565 S
C1363 C1347 1.377 . S
C1363 C1361 1.405 . S
C1363 C1364 1.524 . S
C1364 C1363 1.524 . S
C1364 C1365 1.397 . S
C1364 C1369 1.363 . S
C1365 H1336 0.950 . S
C1365 C1364 1.397 . S
C1365 C1366 1.334 . S
C1366 H1337 0.950 . S
C1366 C1365 1.334 . S
C1366 C1367 1.287 . S
C1367 C1366 1.287 . S
C1367 C1368 1.524 . S
C1367 H1370 0.999 . S
C1368 H1338 0.950 . S
C1368 C1367 1.524 . S
C1368 C1369 1.415 . S
C1369 H1339 0.950 . S
C1369 C1364 1.363 . S
C1369 C1368 1.415 . S
H1370 C1367 0.999 . S
H1371 C1352 0.913 . S
H1372 C1390 0.951 . S
H1373 C1392 0.951 . S
H1374 C1394 0.950 . S
H1375 C1395 0.950 . S
H1376 C1397 0.950 . S
H1377 C1400 0.950 . S
H1378 C1401 0.950 . S
H1379 C1403 0.950 . S
H1380 C1404 0.950 . S
H1381 C1405 0.951 . S
H1382 C1407 0.951 . S
H1383 C1409 0.950 . S
H1384 C1410 0.950 . S
H1385 C1412 0.950 . S
H1386 C1415 0.950 . S
H1387 C1416 0.950 . S
H1388 C1418 0.950 . S
H1389 C1419 0.950 . S
C1390 H1372 0.951 . S
C1390 C1391 1.366 . S
C1390 C1392 1.388 . S
C1391 C1390 1.366 . S
C1391 C1395 1.385 . S
C1392 H1373 0.951 . S
C1392 C1390 1.388 . S
C1392 C1393 1.366 . S
C1393 C1392 1.366 . S
C1393 C1394 1.414 . S
C1393 C1396 1.499 . S
C1394 H1374 0.950 . S
C1394 C1393 1.414 . S
C1394 C1395 1.374 . S
C1395 H1375 0.950 . S
C1395 C1391 1.385 . S
C1395 C1394 1.374 . S
C1396 C1393 1.499 . S
C1396 C1397 1.373 . S
C1396 C1398 1.389 . S
C1397 H1376 0.950 . S
C1397 C1396 1.373 . S
C1397 C1413 1.377 . S
C1398 C1396 1.389 . S
C1398 C1399 1.524 . S
C1398 C1412 1.377 . S
C1399 C1398 1.524 . S
C1399 C1400 1.397 . S
C1399 C1404 1.363 . S
C1400 H1377 0.950 . S
C1400 C1399 1.397 . S
C1400 C1401 1.334 . S
C1401 H1378 0.950 . S
C1401 C1400 1.334 . S
C1401 C1402 1.287 . S
C1402 C1401 1.287 . S
C1402 C1403 1.524 . S
C1402 H1421 0.913 . S
C1403 H1379 0.950 . S
C1403 C1402 1.524 . S
C1403 C1404 1.415 . S
C1404 H1380 0.950 . S
C1404 C1399 1.363 . S
C1404 C1403 1.415 . S
C1405 H1381 0.951 . S
C1405 C1406 1.366 . S
C1405 C1407 1.388 . S
C1406 C1405 1.366 . S
C1406 C1410 1.385 . S
C1407 H1382 0.951 . S
C1407 C1405 1.388 . S
C1407 C1408 1.366 . S
C1408 C1407 1.366 . S
C1408 C1409 1.414 . S
C1408 C1411 1.499 . S
C1409 H1383 0.950 . S
C1409 C1408 1.414 . S
C1409 C1410 1.374 . S
C1410 H1384 0.950 . S
C1410 C1406 1.385 . S
C1410 C1409 1.374 . S
C1411 C1408 1.499 . S
C1411 C1412 1.373 . S
C1411 C1413 1.389 . S
C1412 H1385 0.950 . S
C1412 C1398 1.377 . S
C1412 C1411 1.373 . S
C1413 C1397 1.377 . S
C1413 C1411 1.389 . S
C1413 C1414 1.524 . S
C1414 C1413 1.524 . S
C1414 C1415 1.397 . S
C1414 C1419 1.363 . S
C1415 H1386 0.950 . S
C1415 C1414 1.397 . S
C1415 C1416 1.334 . S
C1416 H1387 0.950 . S
C1416 C1415 1.334 . S
C1416 C1417 1.287 . S
C1417 C1416 1.287 . S
C1417 C1418 1.524 . S
C1417 H1420 0.999 . S
C1418 H1388 0.950 . S
C1418 C1417 1.524 . S
C1418 C1419 1.415 . S
C1419 H1389 0.950 . S
C1419 C1414 1.363 . S
C1419 C1418 1.415 . S
H1420 C1417 0.999 . S
H1421 C1402 0.913 . S
H1422 C1440 0.951 . S
H1423 C1442 0.951 . S
H1424 C1444 0.950 . S
H1425 C1445 0.950 . S
H1426 C1447 0.950 . S
H1427 C1450 0.950 . S
H1428 C1451 0.950 . S
H1429 C1453 0.950 . S
H1430 C1454 0.950 . S
H1431 C1455 0.951 . S
H1432 C1457 0.951 . S
H1433 C1459 0.950 . S
H1434 C1460 0.950 . S
H1435 C1462 0.950 . S
H1436 C1465 0.950 . S
H1437 C1466 0.950 . S
H1438 C1468 0.950 . S
H1439 C1469 0.950 . S
C1440 H1422 0.951 . S
C1440 C1441 1.366 . S
C1440 C1442 1.388 . S
C1441 C1440 1.366 . S
C1441 C1445 1.385 . S
C1442 H1423 0.951 . S
C1442 C1440 1.388 . S
C1442 C1443 1.366 . S
C1443 C1442 1.366 . S
C1443 C1444 1.414 . S
C1443 C1446 1.499 . S
C1444 H1424 0.950 . S
C1444 C1443 1.414 . S
C1444 C1445 1.374 . S
C1445 H1425 0.950 . S
C1445 C1441 1.385 . S
C1445 C1444 1.374 . S
C1446 C1443 1.499 . S
C1446 C1447 1.373 . S
C1446 C1448 1.389 . S
C1447 H1426 0.950 . S
C1447 C1446 1.373 . S
C1447 C1463 1.377 . S
C1448 C1446 1.389 . S
C1448 C1449 1.524 . S
C1448 C1462 1.377 . S
C1449 C1448 1.524 . S
C1449 C1450 1.397 . S
C1449 C1454 1.363 . S
C1450 H1427 0.950 . S
C1450 C1449 1.397 . S
C1450 C1451 1.334 . S
C1451 H1428 0.950 . S
C1451 C1450 1.334 . S
C1451 C1452 1.287 . S
C1452 C1451 1.287 . S
C1452 C1453 1.524 . S
C1452 H1471 0.913 . S
C1453 H1429 0.950 . S
C1453 C1452 1.524 . S
C1453 C1454 1.415 . S
C1454 H1430 0.950 . S
C1454 C1449 1.363 . S
C1454 C1453 1.415 . S
C1455 H1431 0.951 . S
C1455 C1456 1.366 . S
C1455 C1457 1.388 . S
C1456 C1455 1.366 . S
C1456 C1460 1.385 . S
C1457 H1432 0.951 . S
C1457 C1455 1.388 . S
C1457 C1458 1.366 . S
C1458 C1457 1.366 . S
C1458 C1459 1.414 . S
C1458 C1461 1.499 . S
C1459 H1433 0.950 . S
C1459 C1458 1.414 . S
C1459 C1460 1.374 . S
C1460 H1434 0.950 . S
C1460 C1456 1.385 . S
C1460 C1459 1.374 . S
C1461 C1458 1.499 . S
C1461 C1462 1.373 . S
C1461 C1463 1.389 . S
C1462 H1435 0.950 . S
C1462 C1448 1.377 . S
C1462 C1461 1.373 . S
C1463 C1447 1.377 . S
C1463 C1461 1.389 . S
C1463 C1464 1.524 . S
C1464 C1463 1.524 . S
C1464 C1465 1.397 . S
C1464 C1469 1.363 . S
C1465 H1436 0.950 . S
C1465 C1464 1.397 . S
C1465 C1466 1.334 . S
C1466 H1437 0.950 . S
C1466 C1465 1.334 . S
C1466 C1467 1.287 . S
C1467 C1466 1.287 . S
C1467 C1468 1.524 . S
C1467 H1470 0.999 . S
C1468 H1438 0.950 . S
C1468 C1467 1.524 . S
C1468 C1469 1.415 . S
C1469 H1439 0.950 . S
C1469 C1464 1.363 . S
C1469 C1468 1.415 . S
H1470 C1467 0.999 . S
H1471 C1452 0.913 . S
C291 C125 1.591 . S
C306 C162 1.704 . S
C356 C192 1.843 . S
C341 C144 1.709 . S
C406 N226 1.416 . S
C391 C87 1.378 . S
C456 N256 1.348 . S
C441 C106 1.301 . S
C506 C153 1.705 . S
C491 C49 1.606 1_546 S
C541 C68 1.754 . S
C556 C183 1.843 . S
C591 C11 1.414 . S
C606 N218 1.416 . S
C641 C30 1.356 . S
C656 N248 1.347 . S
C706 C168 0.271 . S
C691 C97 0.444 . S
C756 C198 0.616 . S
C741 C116 0.649 . S
C806 C239 0.871 . S
C791 C135 0.858 . S
C841 C78 0.504 . S
C856 C269 0.467 . S
C891 C21 0.443 . S
C906 C179 0.271 . S
C956 C209 0.615 . S
C941 C40 0.647 1_556 S
C1006 C228 0.872 . S
C991 C59 0.859 . S
C1041 C2 0.504 . S
C1056 C258 0.468 . S
C1091 C101 1.475 . S
C1106 N158 1.472 . S
C1141 C120 1.467 . S
C1156 N188 1.456 . S
C1206 C213 1.642 . S
C1191 C139 1.618 . S
C1256 C243 1.632 . S
C1241 C82 1.601 . S
C1291 C25 1.477 . S
C1306 N166 1.472 . S
C1356 N196 1.439 1_565 S
C1341 C44 1.465 . S
C1406 C222 1.642 . S
C1391 C63 1.619 . S
C1441 C6 1.603 . S
C1456 C252 1.632 . S
