# Generated by pormake.
# Topology tsx, (6,3)-cn, num edge types: 1
# Building blocks:
#     Node 0, Type 0, BuildingBlock: JUFBIX_clean_sbu_0, # of connection points: 6
#     Node 1, Type 0, BuildingBlock: JUFBIX_clean_sbu_0, # of connection points: 6
#     Node 2, Type 1, BuildingBlock: BELTOD_clean_linker_0, # of connection points: 3
#     Node 3, Type 1, BuildingBlock: BELTOD_clean_linker_0, # of connection points: 3
#     Node 4, Type 1, BuildingBlock: BELTOD_clean_linker_0, # of connection points: 3
#     Node 5, Type 1, BuildingBlock: BELTOD_clean_linker_0, # of connection points: 3
#     Edge 6, Type (0, 1), BuildingBlock: MIFKUJ_clean_linker_0, # of connection points: 2
#     Edge 7, Type (0, 1), BuildingBlock: MIFKUJ_clean_linker_0, # of connection points: 2
#     Edge 8, Type (0, 1), BuildingBlock: MIFKUJ_clean_linker_0, # of connection points: 2
#     Edge 9, Type (0, 1), BuildingBlock: MIFKUJ_clean_linker_0, # of connection points: 2
#     Edge 10, Type (0, 1), BuildingBlock: MIFKUJ_clean_linker_0, # of connection points: 2
#     Edge 11, Type (0, 1), BuildingBlock: MIFKUJ_clean_linker_0, # of connection points: 2
#     Edge 12, Type (0, 1), BuildingBlock: MIFKUJ_clean_linker_0, # of connection points: 2
#     Edge 13, Type (0, 1), BuildingBlock: MIFKUJ_clean_linker_0, # of connection points: 2
#     Edge 14, Type (0, 1), BuildingBlock: MIFKUJ_clean_linker_0, # of connection points: 2
#     Edge 15, Type (0, 1), BuildingBlock: MIFKUJ_clean_linker_0, # of connection points: 2
#     Edge 16, Type (0, 1), BuildingBlock: MIFKUJ_clean_linker_0, # of connection points: 2
#     Edge 17, Type (0, 1), BuildingBlock: MIFKUJ_clean_linker_0, # of connection points: 2
# Relax obj value: 0.144
# Max RMSD: 0.159
# Mean RMSD: 0.123
data_MOF--net-tsx--node1-JUFBIX_clean_sbu_0--node2-BELTOD_clean_linker_0--edge1-MIFKUJ_clean_linker_0
_symmetry_space_group_name_H-M    P1
_symmetry_Int_Tables_number       1
_symmetry_cell_setting            triclinic
loop_
_symmetry_equiv_pos_as_xyz
'x, y, z'
_cell_length_a     28.061727
_cell_length_b     33.185598
_cell_length_c     50.143581
_cell_angle_alpha  92.900822
_cell_angle_beta   89.730335
_cell_angle_gamma 97.187572
loop_
_atom_site_label
_atom_site_type_symbol
_atom_site_fract_x
_atom_site_fract_y
_atom_site_fract_z
_atom_type_partial_charge
Co0 Co 0.01872 0.98864 0.00897 0.0
C1 C 0.98856 0.00931 0.95899 0.0
Co2 Co 0.95438 0.0213 0.01019 0.0
C3 C 0.0844 0.92788 0.01533 0.0
C4 C 0.11637 0.9806 0.9959 0.0
N5 N 0.07485 0.96412 0.00685 0.0
N6 N 0.13041 0.92174 0.01045 0.0
C7 C 0.15055 0.95485 0.99827 0.0
H8 H 0.05839 0.90662 0.02508 0.0
H9 H 0.12147 0.00944 0.98651 0.0
C10 C 0.98573 0.001 0.06026 0.0
N11 N 0.89847 0.04633 0.01236 0.0
C12 C 0.89144 0.08418 0.00577 0.0
C13 C 0.85585 0.03023 0.02223 0.0
N14 N 0.84614 0.0921 0.01102 0.0
C15 C 0.82364 0.05812 0.02127 0.0
C16 C 0.93535 0.93613 0.00449 0.0
O17 O 0.01791 0.98555 0.04665 0.0
O18 O 0.95413 0.01777 0.04822 0.0
O19 O 0.91702 0.96931 0.00619 0.0
O20 O 0.98073 0.93716 0.00536 0.0
O21 O 0.95559 0.02456 0.97213 0.0
H22 H 0.84875 0.00036 0.03015 0.0
H23 H 0.91898 0.10558 0.99731 0.0
O24 O 0.01927 0.99218 0.9714 0.0
O25 O 0.05592 0.04042 0.01262 0.0
O26 O 0.99254 0.07284 0.01412 0.0
C27 C 0.03786 0.07365 0.01446 0.0
H28 H 0.18714 0.95957 0.99103 0.0
H29 H 0.78693 0.05417 0.02835 0.0
Co30 Co 0.51978 0.48941 0.51846 0.0
C31 C 0.48536 0.51321 0.46973 0.0
Co32 Co 0.45837 0.52532 0.52186 0.0
C33 C 0.58478 0.42673 0.52083 0.0
C34 C 0.61352 0.47899 0.49987 0.0
N35 N 0.57423 0.46319 0.51321 0.0
N36 N 0.6294 0.41981 0.51306 0.0
C37 C 0.6474 0.45263 0.49988 0.0
H38 H 0.56052 0.40594 0.53201 0.0
H39 H 0.61725 0.50785 0.49048 0.0
C40 C 0.49437 0.50175 0.57062 0.0
N41 N 0.40435 0.55203 0.52719 0.0
C42 C 0.39261 0.58647 0.51699 0.0
C43 C 0.36878 0.54098 0.54454 0.0
N44 N 0.35146 0.59744 0.52764 0.0
C45 C 0.33645 0.56884 0.54495 0.0
C46 C 0.43435 0.44034 0.51589 0.0
O47 O 0.5231 0.48408 0.55578 0.0
O48 O 0.46378 0.52118 0.55985 0.0
O49 O 0.41817 0.4744 0.51911 0.0
O50 O 0.47947 0.43948 0.51482 0.0
O51 O 0.45431 0.52927 0.48395 0.0
H52 H 0.36698 0.51468 0.55657 0.0
H53 H 0.41462 0.60389 0.50277 0.0
O54 O 0.51626 0.49499 0.48113 0.0
O55 O 0.55939 0.53986 0.5223 0.0
O56 O 0.49899 0.57582 0.52438 0.0
C57 C 0.54399 0.57425 0.52434 0.0
H58 H 0.68231 0.45685 0.49041 0.0
H59 H 0.30443 0.56823 0.55713 0.0
P60 P 0.06338 0.0581 0.43779 0.0
H61 H 0.05129 0.09624 0.4904 0.0
H62 H 0.98575 0.12944 0.51057 0.0
H63 H 0.89604 0.08796 0.44233 0.0
H64 H 0.96131 0.05439 0.42263 0.0
H65 H 0.15841 0.03291 0.43922 0.0
H66 H 0.19028 0.97505 0.45741 0.0
H67 H 0.0492 0.93129 0.48681 0.0
H68 H 0.01725 0.9895 0.46802 0.0
H69 H 0.05234 0.11247 0.39534 0.0
H70 H 0.04769 0.98318 0.40269 0.0
O71 O 0.10664 0.09742 0.44098 0.0
H72 H 0.03741 0.10168 0.34741 0.0
H73 H 0.03216 0.97199 0.35465 0.0
C74 C 0.01152 0.07365 0.45483 0.0
C75 C 0.01715 0.09367 0.48009 0.0
C76 C 0.97974 0.11276 0.4915 0.0
C77 C 0.93589 0.11195 0.47785 0.0
C78 C 0.92923 0.08912 0.45343 0.0
C79 C 0.96676 0.0701 0.44202 0.0
C80 C 0.08566 0.01571 0.45253 0.0
C81 C 0.13436 0.01109 0.44978 0.0
C82 C 0.1526 0.97806 0.46034 0.0
C83 C 0.12237 0.94865 0.47374 0.0
C84 C 0.07335 0.95331 0.47647 0.0
C85 C 0.0551 0.98661 0.46587 0.0
C86 C 0.05184 0.04873 0.40249 0.0
C87 C 0.04811 0.08171 0.38659 0.0
C88 C 0.03918 0.07545 0.3592 0.0
C89 C 0.03364 0.03595 0.34711 0.0
C90 C 0.03689 0.00284 0.36324 0.0
C91 C 0.04565 0.00917 0.39073 0.0
P92 P 0.07998 0.94921 0.58455 0.0
H93 H 0.0643 0.8851 0.54221 0.0
H94 H 0.99107 0.8475 0.52279 0.0
H95 H 0.90618 0.92651 0.56853 0.0
H96 H 0.97962 0.9643 0.58726 0.0
H97 H 0.14667 0.96128 0.54032 0.0
H98 H 0.17993 0.02158 0.51719 0.0
H99 H 0.09403 0.09469 0.56692 0.0
H100 H 0.05955 0.03382 0.58901 0.0
H101 H 0.01022 0.91086 0.62232 0.0
H102 H 0.12592 0.00962 0.62437 0.0
O103 O 0.12124 0.91705 0.58328 0.0
H104 H 0.99464 0.92478 0.66961 0.0
H105 H 0.11075 0.02344 0.67191 0.0
C106 C 0.02693 0.92588 0.56726 0.0
C107 C 0.02986 0.89424 0.548 0.0
C108 C 0.98801 0.87294 0.53683 0.0
C109 C 0.94266 0.88339 0.54458 0.0
C110 C 0.9404 0.91757 0.56212 0.0
C111 C 0.98232 0.93891 0.57313 0.0
C112 C 0.10232 0.99356 0.56707 0.0
C113 C 0.13502 0.99033 0.54614 0.0
C114 C 0.15395 0.02481 0.53295 0.0
C115 C 0.14035 0.06315 0.54052 0.0
C116 C 0.10526 0.06569 0.5605 0.0
C117 C 0.08604 0.03105 0.57347 0.0
C118 C 0.06782 0.96041 0.61942 0.0
C119 C 0.03167 0.93612 0.63276 0.0
C120 C 0.02286 0.944 0.65987 0.0
C121 C 0.051 0.97559 0.67442 0.0
C122 C 0.08831 0.999 0.66122 0.0
C123 C 0.09674 0.99135 0.63399 0.0
P124 P 0.57068 0.56738 0.94837 0.0
H125 H 0.53995 0.58159 0.00328 0.0
H126 H 0.47113 0.612 0.02215 0.0
H127 H 0.40894 0.60879 0.94331 0.0
H128 H 0.47756 0.57914 0.92472 0.0
H129 H 0.66798 0.54851 0.95511 0.0
H130 H 0.70084 0.49013 0.97184 0.0
H131 H 0.55784 0.43745 0.99323 0.0
H132 H 0.52511 0.49577 0.97557 0.0
H133 H 0.56951 0.62023 0.90389 0.0
H134 H 0.5585 0.49133 0.91447 0.0
O135 O 0.61003 0.60908 0.95353 0.0
H136 H 0.55896 0.60738 0.85586 0.0
H137 H 0.55017 0.47805 0.86623 0.0
C138 C 0.51444 0.57874 0.9626 0.0
C139 C 0.51115 0.58698 0.99018 0.0
C140 C 0.47181 0.60427 1.00091 0.0
C141 C 0.43481 0.61315 0.98417 0.0
C142 C 0.43665 0.60209 0.95678 0.0
C143 C 0.47622 0.58526 0.94608 0.0
C144 C 0.59421 0.52656 0.96425 0.0
C145 C 0.64377 0.52468 0.96377 0.0
C146 C 0.66256 0.4913 0.97355 0.0
C147 C 0.63205 0.45891 0.98393 0.0
C148 C 0.58235 0.46158 0.98511 0.0
C149 C 0.56357 0.49502 0.97519 0.0
C150 C 0.56554 0.55683 0.91273 0.0
C151 C 0.56562 0.58912 0.89578 0.0
C152 C 0.5598 0.58166 0.86822 0.0
C153 C 0.55406 0.54161 0.85692 0.0
C154 C 0.55393 0.50926 0.87411 0.0
C155 C 0.55923 0.51681 0.90176 0.0
P156 P 0.55062 0.46316 0.09351 0.0
H157 H 0.51501 0.44462 0.03939 0.0
H158 H 0.43797 0.41124 0.02187 0.0
H159 H 0.37965 0.41175 0.10178 0.0
H160 H 0.45612 0.4453 0.11903 0.0
H161 H 0.64028 0.4705 0.06307 0.0
H162 H 0.68287 0.5252 0.0386 0.0
H163 H 0.57009 0.5997 0.05776 0.0
H164 H 0.52555 0.54307 0.07988 0.0
H165 H 0.56232 0.41654 0.1402 0.0
H166 H 0.53123 0.53738 0.1252 0.0
O167 O 0.58054 0.42287 0.08934 0.0
H168 H 0.55282 0.4304 0.18794 0.0
H169 H 0.52262 0.55178 0.17304 0.0
C170 C 0.49129 0.44759 0.08046 0.0
C171 C 0.48518 0.43853 0.053 0.0
C172 C 0.44127 0.41928 0.04304 0.0
C173 C 0.40281 0.40868 0.06047 0.0
C174 C 0.40833 0.41997 0.08779 0.0
C175 C 0.4523 0.43904 0.09772 0.0
C176 C 0.58063 0.50333 0.07435 0.0
C177 C 0.62452 0.49851 0.06191 0.0
C178 C 0.64912 0.53009 0.04801 0.0
C179 C 0.63093 0.56763 0.04682 0.0
C180 C 0.58559 0.57148 0.05821 0.0
C181 C 0.56041 0.53936 0.07147 0.0
C182 C 0.54872 0.47619 0.12896 0.0
C183 C 0.55447 0.44641 0.14714 0.0
C184 C 0.54901 0.4544 0.17454 0.0
C185 C 0.53724 0.49233 0.18443 0.0
C186 C 0.53139 0.52215 0.16613 0.0
C187 C 0.53689 0.51408 0.13866 0.0
H188 H 0.13163 0.08688 1.00028 0.0
H189 H 0.18665 0.14938 0.00643 0.0
H190 H 0.07254 0.21067 0.04105 0.0
H191 H 0.01636 0.14805 0.03394 0.0
H192 H 0.12895 0.26054 0.01004 0.0
H193 H 0.15471 0.17521 0.08099 0.0
H194 H 0.16871 0.11158 0.10136 0.0
H195 H 0.30254 0.11225 0.05949 0.0
H196 H 0.28906 0.1755 0.0385 0.0
H197 H 0.30828 0.41387 0.07306 0.0
H198 H 0.23934 0.36219 0.06306 0.0
H199 H 0.33123 0.29004 0.01723 0.0
H200 H 0.40002 0.34101 0.02729 0.0
H201 H 0.28052 0.24913 0.05806 0.0
H202 H 0.25107 0.33409 0.98583 0.0
H203 H 0.23603 0.39819 0.96651 0.0
H204 H 0.10807 0.39978 0.01364 0.0
H205 H 0.12273 0.33594 0.03355 0.0
C206 C 0.11809 0.11366 0.0091 0.0
C207 C 0.06987 0.11246 0.01698 0.0
C208 C 0.14962 0.14938 0.01266 0.0
C209 C 0.13401 0.18442 0.02482 0.0
C210 C 0.0854 0.18387 0.0318 0.0
C211 C 0.05344 0.14812 0.02781 0.0
C212 C 0.16929 0.22081 0.03098 0.0
C213 C 0.16174 0.25826 0.02092 0.0
C214 C 0.21217 0.21779 0.04511 0.0
C215 C 0.22072 0.18001 0.05803 0.0
C216 C 0.18701 0.16169 0.07601 0.0
C217 C 0.19485 0.12569 0.08767 0.0
C218 C 0.23643 0.10789 0.0817 0.0
C219 C 0.27034 0.12608 0.06409 0.0
C220 C 0.26265 0.16203 0.05233 0.0
C221 C 0.31353 0.38726 0.06051 0.0
C222 C 0.35957 0.38146 0.051 0.0
C223 C 0.27414 0.35792 0.05472 0.0
C224 C 0.28034 0.32233 0.03947 0.0
C225 C 0.32579 0.31735 0.02903 0.0
C226 C 0.36498 0.34669 0.03462 0.0
C227 C 0.24088 0.28842 0.0364 0.0
C228 C 0.24756 0.25147 0.04732 0.0
C229 C 0.19716 0.29217 0.02341 0.0
C230 C 0.18831 0.33049 0.01141 0.0
C231 C 0.21998 0.34831 0.99228 0.0
C232 C 0.21147 0.38455 0.98117 0.0
C233 C 0.17121 0.40312 0.9889 0.0
C234 C 0.13929 0.38541 0.0077 0.0
C235 C 0.14767 0.34918 0.01889 0.0
H236 H 0.16467 0.43117 0.98028 0.0
H237 H 0.2424 0.08001 0.09074 0.0
H238 H 0.21875 0.92236 0.03078 0.0
H239 H 0.26429 0.86441 0.03279 0.0
H240 H 0.14155 0.78434 1.00217 0.0
H241 H 0.09526 0.84257 1.0012 0.0
H242 H 0.19068 0.74556 0.03663 0.0
H243 H 0.22963 0.82296 0.96018 0.0
H244 H 0.25325 0.88473 0.93551 0.0
H245 H 0.3878 0.90491 0.9775 0.0
H246 H 0.36466 0.84356 1.00274 0.0
H247 H 0.33784 0.60164 0.97397 0.0
H248 H 0.27969 0.64938 0.98494 0.0
H249 H 0.38998 0.72936 0.0274 0.0
H250 H 0.44809 0.68199 0.01654 0.0
H251 H 0.34403 0.76542 0.9865 0.0
H252 H 0.30261 0.6835 0.06184 0.0
H253 H 0.27676 0.61965 0.08384 0.0
H254 H 0.14445 0.60463 0.03969 0.0
H255 H 0.16982 0.66813 0.01712 0.0
C256 C 0.20133 0.89223 0.02499 0.0
C257 C 0.15384 0.88681 0.01557 0.0
C258 C 0.22731 0.85917 0.02604 0.0
C259 C 0.2068 0.82016 0.01692 0.0
C260 C 0.15824 0.81419 0.00915 0.0
C261 C 0.13183 0.84734 0.0086 0.0
C262 C 0.23744 0.78678 0.01343 0.0
C263 C 0.22394 0.74972 0.02543 0.0
C264 C 0.28095 0.79213 0.99883 0.0
C265 C 0.29522 0.82886 0.98352 0.0
C266 C 0.26413 0.84071 0.96428 0.0
C267 C 0.27743 0.87564 0.95019 0.0
C268 C 0.32195 0.89878 0.95498 0.0
C269 C 0.3533 0.88698 0.97384 0.0
C270 C 0.34013 0.85212 0.98803 0.0
C271 C 0.34939 0.62907 0.98606 0.0
C272 C 0.39755 0.6381 0.99436 0.0
C273 C 0.31612 0.65618 0.99241 0.0
C274 C 0.33059 0.69288 0.00697 0.0
C275 C 0.3781 0.70113 0.0162 0.0
C276 C 0.41118 0.67389 0.01013 0.0
C277 C 0.2979 0.72462 0.01019 0.0
C278 C 0.31087 0.76132 0.99782 0.0
C279 C 0.25368 0.71849 0.02398 0.0
C280 C 0.23835 0.68036 0.03757 0.0
C281 C 0.2682 0.66639 0.05662 0.0
C282 C 0.25359 0.6303 0.06924 0.0
C283 C 0.20905 0.60803 0.06311 0.0
C284 C 0.17897 0.62188 0.04439 0.0
C285 C 0.19343 0.65794 0.0317 0.0
H286 H 0.1978 0.5801 0.0729 0.0
H287 H 0.33219 0.92581 0.94405 0.0
H288 H 0.83964 0.92369 0.99287 0.0
H289 H 0.78603 0.85981 0.99282 0.0
H290 H 0.90534 0.79623 0.01226 0.0
H291 H 0.95959 0.85996 0.0115 0.0
H292 H 0.8462 0.75051 0.97803 0.0
H293 H 0.82865 0.8276 0.06071 0.0
H294 H 0.81353 0.88803 0.08862 0.0
H295 H 0.67258 0.88229 0.05457 0.0
H296 H 0.68714 0.82213 0.02617 0.0
H297 H 0.72893 0.58645 0.04865 0.0
H298 H 0.77719 0.64703 0.03366 0.0
H299 H 0.64964 0.69226 0.00613 0.0
H300 H 0.60078 0.63102 0.02021 0.0
H301 H 0.7079 0.74747 0.04028 0.0
H302 H 0.72368 0.66383 0.96143 0.0
H303 H 0.73966 0.60155 0.93588 0.0
H304 H 0.88492 0.61762 0.96482 0.0
H305 H 0.86959 0.67966 0.99095 0.0
C306 C 0.85459 0.89605 0.9969 0.0
C307 C 0.90377 0.89693 1.00249 0.0
C308 C 0.82386 0.85956 0.99691 0.0
C309 C 0.84147 0.82334 1.00305 0.0
C310 C 0.89092 0.82381 0.00754 0.0
C311 C 0.92185 0.86028 0.0072 0.0
C312 C 0.808 0.78555 0.00633 0.0
C313 C 0.81617 0.74977 0.99177 0.0
C314 C 0.76818 0.78472 0.02387 0.0
C315 C 0.75918 0.82065 0.04112 0.0
C316 C 0.79456 0.8394 0.05905 0.0
C317 C 0.78608 0.87357 0.07497 0.0
C318 C 0.74217 0.88906 0.07331 0.0
C319 C 0.7066 0.87031 0.0558 0.0
C320 C 0.71493 0.83616 0.03979 0.0
C321 C 0.71092 0.60848 0.03869 0.0
C322 C 0.66061 0.60329 0.03556 0.0
C323 C 0.73874 0.64335 0.03028 0.0
C324 C 0.71699 0.674 0.0187 0.0
C325 C 0.66706 0.66888 0.01506 0.0
C326 C 0.63917 0.63377 0.02323 0.0
C327 C 0.74634 0.71248 0.01217 0.0
C328 C 0.73751 0.74836 0.02624 0.0
C329 C 0.7857 0.71322 0.9944 0.0
C330 C 0.79537 0.6763 0.97832 0.0
C331 C 0.75895 0.65396 0.96251 0.0
C332 C 0.76789 0.6187 0.9479 0.0
C333 C 0.81325 0.60559 0.94877 0.0
C334 C 0.84979 0.62781 0.96418 0.0
C335 C 0.84101 0.66306 0.97887 0.0
H336 H 0.8201 0.57827 0.93746 0.0
H337 H 0.73568 0.91553 0.08565 0.0
H338 H 0.89182 0.16888 0.01761 0.0
H339 H 0.85596 0.23234 0.0146 0.0
H340 H 0.71933 0.16325 0.99429 0.0
H341 H 0.75493 0.09991 0.99741 0.0
H342 H 0.74581 0.22972 0.96156 0.0
H343 H 0.73425 0.20073 0.05492 0.0
H344 H 0.76632 0.18602 0.09858 0.0
H345 H 0.85872 0.29951 0.10053 0.0
H346 H 0.82768 0.31463 0.05665 0.0
H347 H 0.5919 0.37977 0.97492 0.0
H348 H 0.62831 0.31824 0.98199 0.0
H349 H 0.75463 0.39074 0.01495 0.0
H350 H 0.71729 0.45253 0.0093 0.0
H351 H 0.73656 0.32356 0.04117 0.0
H352 H 0.75028 0.35414 0.94922 0.0
H353 H 0.72191 0.37019 0.90499 0.0
H354 H 0.6312 0.25586 0.89916 0.0
H355 H 0.65852 0.23937 0.94356 0.0
C356 C 0.85429 0.16732 0.01225 0.0
C357 C 0.8261 0.12948 0.0078 0.0
C358 C 0.83379 0.20351 0.01072 0.0
C359 C 0.78491 0.20244 0.00441 0.0
C360 C 0.75707 0.16473 0.99926 0.0
C361 C 0.77735 0.12861 1.00117 0.0
C362 C 0.76248 0.24053 0.00334 0.0
C363 C 0.74327 0.25003 0.97901 0.0
C364 C 0.76048 0.26757 0.02595 0.0
C365 C 0.77904 0.25859 0.05236 0.0
C366 C 0.76173 0.22238 0.06454 0.0
C367 C 0.77966 0.214 0.08935 0.0
C368 C 0.81465 0.24176 0.10229 0.0
C369 C 0.83168 0.27801 0.09046 0.0
C370 C 0.81391 0.28651 0.06563 0.0
C371 C 0.62692 0.38273 0.9843 0.0
C372 C 0.65185 0.42129 0.99124 0.0
C373 C 0.64801 0.34743 0.98801 0.0
C374 C 0.69478 0.34984 0.99834 0.0
C375 C 0.71874 0.38808 0.00665 0.0
C376 C 0.69748 0.42343 0.00318 0.0
C377 C 0.71934 0.31268 0.99938 0.0
C378 C 0.73909 0.30336 0.02366 0.0
C379 C 0.72245 0.28601 0.97661 0.0
C380 C 0.70611 0.2957 0.94983 0.0
C381 C 0.72402 0.33255 0.93859 0.0
C382 C 0.70816 0.34171 0.91348 0.0
C383 C 0.67468 0.31411 0.8993 0.0
C384 C 0.65708 0.27724 0.91018 0.0
C385 C 0.67277 0.26795 0.93531 0.0
H386 H 0.66245 0.32126 0.87986 0.0
H387 H 0.82847 0.23522 0.1215 0.0
H388 H 0.5274 0.6538 0.52044 0.0
H389 H 0.58755 0.71456 0.52292 0.0
H390 H 0.69892 0.6389 0.53548 0.0
H391 H 0.63983 0.5787 0.53303 0.0
H392 H 0.70447 0.70584 0.57069 0.0
H393 H 0.68321 0.67317 0.4752 0.0
H394 H 0.63492 0.66224 0.4339 0.0
H395 H 0.59706 0.78357 0.44353 0.0
H396 H 0.64472 0.79502 0.4851 0.0
H397 H 0.92946 0.80056 0.54212 0.0
H398 H 0.85414 0.7559 0.53657 0.0
H399 H 0.77871 0.85945 0.52591 0.0
H400 H 0.85468 0.90471 0.53068 0.0
H401 H 0.74424 0.78973 0.49252 0.0
H402 H 0.77523 0.82561 0.58461 0.0
H403 H 0.82414 0.83655 0.62565 0.0
H404 H 0.84208 0.7098 0.62321 0.0
H405 H 0.79394 0.69822 0.58187 0.0
C406 C 0.56471 0.65027 0.52384 0.0
C407 C 0.57889 0.61148 0.52651 0.0
C408 C 0.59895 0.68491 0.52516 0.0
C409 C 0.64762 0.6811 0.52932 0.0
C410 C 0.66153 0.64249 0.53233 0.0
C411 C 0.62765 0.60807 0.53083 0.0
C412 C 0.68495 0.71682 0.53047 0.0
C413 C 0.71316 0.7242 0.55361 0.0
C414 C 0.69523 0.74154 0.50847 0.0
C415 C 0.66702 0.73477 0.48339 0.0
C416 C 0.66428 0.69739 0.46861 0.0
C417 C 0.6371 0.69113 0.44514 0.0
C418 C 0.61281 0.72215 0.43614 0.0
C419 C 0.61581 0.75955 0.45055 0.0
C420 C 0.64293 0.76595 0.47406 0.0
C421 C 0.89723 0.81392 0.53781 0.0
C422 C 0.89808 0.85629 0.53702 0.0
C423 C 0.85408 0.78832 0.53489 0.0
C424 C 0.81084 0.8045 0.53133 0.0
C425 C 0.81174 0.84648 0.52884 0.0
C426 C 0.85506 0.87225 0.53175 0.0
C427 C 0.76479 0.77751 0.53237 0.0
C428 C 0.73493 0.77193 0.50978 0.0
C429 C 0.75272 0.75443 0.55494 0.0
C430 C 0.78119 0.76111 0.58003 0.0
C431 C 0.78986 0.80011 0.59272 0.0
C432 C 0.81743 0.80643 0.61605 0.0
C433 C 0.83626 0.7739 0.62701 0.0
C434 C 0.82747 0.73497 0.61469 0.0
C435 C 0.8 0.7285 0.59132 0.0
H436 H 0.8576 0.77885 0.64507 0.0
H437 H 0.59177 0.71724 0.41797 0.0
H438 H 0.72277 0.41995 0.52447 0.0
H439 H 0.76751 0.36136 0.52308 0.0
H440 H 0.63616 0.28133 0.50764 0.0
H441 H 0.59092 0.34047 0.50947 0.0
H442 H 0.70047 0.24705 0.54018 0.0
H443 H 0.70265 0.30888 0.45633 0.0
H444 H 0.71242 0.36546 0.42595 0.0
H445 H 0.86055 0.39345 0.44891 0.0
H446 H 0.85147 0.33742 0.47977 0.0
H447 H 0.83734 0.09394 0.47864 0.0
H448 H 0.77826 0.14106 0.4892 0.0
H449 H 0.89322 0.23674 0.50864 0.0
H450 H 0.95215 0.19032 0.49786 0.0
H451 H 0.82921 0.25785 0.47175 0.0
H452 H 0.82456 0.19586 0.557 0.0
H453 H 0.81314 0.13851 0.58674 0.0
H454 H 0.66775 0.10843 0.55923 0.0
H455 H 0.67854 0.16531 0.52903 0.0
C456 C 0.70336 0.38981 0.52119 0.0
C457 C 0.65358 0.3847 0.51669 0.0
C458 C 0.72889 0.35636 0.52041 0.0
C459 C 0.70534 0.31706 0.51466 0.0
C460 C 0.65506 0.31143 0.51198 0.0
C461 C 0.62927 0.34512 0.51305 0.0
C462 C 0.73425 0.283 0.50913 0.0
C463 C 0.72814 0.24902 0.52496 0.0
C464 C 0.77045 0.28565 0.48929 0.0
C465 C 0.77626 0.31912 0.47052 0.0
C466 C 0.73723 0.32727 0.45504 0.0
C467 C 0.74265 0.35923 0.43772 0.0
C468 C 0.78705 0.38308 0.43554 0.0
C469 C 0.82616 0.37496 0.45063 0.0
C470 C 0.82091 0.34308 0.46803 0.0
C471 C 0.84994 0.12492 0.48544 0.0
C472 C 0.89949 0.13834 0.48741 0.0
C473 C 0.81616 0.15171 0.49162 0.0
C474 C 0.83138 0.19239 0.49972 0.0
C475 C 0.8807 0.20545 0.50246 0.0
C476 C 0.91436 0.17874 0.4965 0.0
C477 C 0.79657 0.22244 0.50334 0.0
C478 C 0.80139 0.25565 0.48691 0.0
C479 C 0.75904 0.2187 0.52238 0.0
C480 C 0.75255 0.18454 0.54052 0.0
C481 C 0.7903 0.17678 0.55709 0.0
C482 C 0.78391 0.14441 0.57408 0.0
C483 C 0.73979 0.11976 0.57481 0.0
C484 C 0.70193 0.1275 0.55861 0.0
C485 C 0.70816 0.15982 0.54157 0.0
H486 H 0.73491 0.09472 0.58798 0.0
H487 H 0.79118 0.40782 0.42211 0.0
H488 H 0.45663 0.36234 0.51262 0.0
H489 H 0.40106 0.29946 0.51006 0.0
H490 H 0.28094 0.36898 0.51091 0.0
H491 H 0.33627 0.43205 0.51404 0.0
H492 H 0.2665 0.31045 0.54475 0.0
H493 H 0.31357 0.31793 0.45348 0.0
H494 H 0.37015 0.32595 0.4158 0.0
H495 H 0.43023 0.21888 0.43654 0.0
H496 H 0.37446 0.21054 0.4746 0.0
H497 H 0.10238 0.13179 0.52688 0.0
H498 H 0.14661 0.19671 0.51508 0.0
H499 H 0.27975 0.14471 0.51806 0.0
H500 H 0.23606 0.07995 0.52982 0.0
H501 H 0.28035 0.19707 0.47788 0.0
H502 H 0.24047 0.19574 0.57214 0.0
H503 H 0.18461 0.18792 0.61018 0.0
H504 H 0.11122 0.28449 0.58331 0.0
H505 H 0.1663 0.29247 0.54487 0.0
C506 C 0.4184 0.36428 0.51212 0.0
C507 C 0.40087 0.4022 0.51355 0.0
C508 C 0.38666 0.32829 0.51048 0.0
C509 C 0.33682 0.3295 0.50991 0.0
C510 C 0.31925 0.36732 0.51123 0.0
C511 C 0.35095 0.40334 0.513 0.0
C512 C 0.30309 0.29128 0.50933 0.0
C513 C 0.2689 0.28602 0.52977 0.0
C514 C 0.30668 0.25911 0.49005 0.0
C515 C 0.34002 0.26378 0.46702 0.0
C516 C 0.33905 0.29624 0.45012 0.0
C517 C 0.37095 0.30082 0.42867 0.0
C518 C 0.40382 0.27298 0.42381 0.0
C519 C 0.40476 0.24043 0.44034 0.0
C520 C 0.37296 0.23573 0.46183 0.0
C521 C 0.141 0.13402 0.52467 0.0
C522 C 0.16567 0.1007 0.52949 0.0
C523 C 0.1662 0.17111 0.51788 0.0
C524 C 0.21653 0.17566 0.51609 0.0
C525 C 0.24092 0.14184 0.51929 0.0
C526 C 0.21578 0.10475 0.52596 0.0
C527 C 0.24436 0.21627 0.51344 0.0
C528 C 0.2775 0.22188 0.4925 0.0
C529 C 0.23985 0.24886 0.53224 0.0
C530 C 0.20713 0.24439 0.55549 0.0
C531 C 0.21222 0.21511 0.57426 0.0
C532 C 0.18073 0.21067 0.59589 0.0
C533 C 0.1443 0.23561 0.59912 0.0
C534 C 0.1394 0.26514 0.58075 0.0
C535 C 0.17074 0.26964 0.55905 0.0
H536 H 0.11995 0.23213 0.61588 0.0
H537 H 0.42851 0.27659 0.40721 0.0
H538 H 0.34273 0.63199 0.48043 0.0
H539 H 0.30098 0.69096 0.4724 0.0
H540 H 0.26903 0.70307 0.55653 0.0
H541 H 0.30878 0.64326 0.56421 0.0
H542 H 0.1946 0.71562 0.53127 0.0
H543 H 0.36212 0.76635 0.52377 0.0
H544 H 0.4445 0.76744 0.50618 0.0
H545 H 0.39344 0.78271 0.42718 0.0
H546 H 0.31065 0.78119 0.44426 0.0
H547 H 0.2074 0.94687 0.49983 0.0
H548 H 0.24407 0.88723 0.51166 0.0
H549 H 0.1197 0.80915 0.48116 0.0
H550 H 0.08249 0.86883 0.46971 0.0
H551 H 0.27252 0.83049 0.48067 0.0
H552 H 0.10602 0.72151 0.50974 0.0
H553 H 0.02754 0.72451 0.53175 0.0
H554 H 0.08484 0.83305 0.5768 0.0
H555 H 0.16343 0.83104 0.55481 0.0
C556 C 0.32695 0.64749 0.49713 0.0
C557 C 0.32898 0.63315 0.52291 0.0
C558 C 0.30315 0.68121 0.49259 0.0
C559 C 0.28219 0.70198 0.51391 0.0
C560 C 0.28453 0.68762 0.53969 0.0
C561 C 0.30739 0.65349 0.5441 0.0
C562 C 0.25798 0.7387 0.50959 0.0
C563 C 0.21175 0.74069 0.52019 0.0
C564 C 0.28033 0.77193 0.49552 0.0
C565 C 0.33016 0.77329 0.48526 0.0
C566 C 0.36845 0.76972 0.50263 0.0
C567 C 0.41521 0.77043 0.49275 0.0
C568 C 0.42418 0.77504 0.46557 0.0
C569 C 0.38643 0.77909 0.44822 0.0
C570 C 0.33959 0.77835 0.458 0.0
C571 C 0.18768 0.91699 0.49583 0.0
C572 C 0.14212 0.9126 0.48367 0.0
C573 C 0.2087 0.8829 0.50261 0.0
C574 C 0.18479 0.84357 0.49731 0.0
C575 C 0.13867 0.83911 0.48586 0.0
C576 C 0.11738 0.87329 0.4793 0.0
C577 C 0.20934 0.8074 0.50242 0.0
C578 C 0.25547 0.80542 0.4918 0.0
C579 C 0.18753 0.77479 0.51715 0.0
C580 C 0.14045 0.77623 0.53049 0.0
C581 C 0.10183 0.74601 0.52435 0.0
C582 C 0.0573 0.74765 0.53673 0.0
C583 C 0.05115 0.77912 0.55553 0.0
C584 C 0.08956 0.80892 0.56206 0.0
C585 C 0.13402 0.80767 0.54954 0.0
H586 H 0.01666 0.78034 0.5651 0.0
H587 H 0.4604 0.77555 0.45795 0.0
H588 H 0.93146 0.04123 0.09571 0.0
H589 H 0.93664 0.04487 0.1445 0.0
H590 H 0.04688 0.96518 0.14069 0.0
H591 H 0.04203 0.96136 0.09189 0.0
H592 H 0.97901 0.94557 0.18018 0.0
H593 H 0.07802 0.06408 0.15072 0.0
H594 H 0.09486 0.1268 0.12614 0.0
H595 H 0.98608 0.18026 0.17105 0.0
H596 H 0.96792 0.11758 0.19559 0.0
H597 H 0.07349 0.98391 0.31178 0.0
H598 H 0.06182 0.97571 0.26342 0.0
H599 H 0.96314 0.0656 0.26758 0.0
H600 H 0.97474 0.074 0.31592 0.0
H601 H 0.02352 0.07973 0.22768 0.0
H602 H 0.92395 0.96305 0.25734 0.0
H603 H 0.90403 0.90032 0.28155 0.0
H604 H 0.01013 0.84355 0.23645 0.0
H605 H 0.03118 0.90619 0.21221 0.0
C606 C 0.95658 0.02422 0.10523 0.0
C607 C 0.9865 0.00115 0.08986 0.0
C608 C 0.9596 0.02646 0.13313 0.0
C609 C 0.99248 0.00562 0.14624 0.0
C610 C 0.02131 0.98155 0.131 0.0
C611 C 0.01857 0.97952 0.10309 0.0
C612 C 0.99776 0.00978 0.17578 0.0
C613 C 0.98929 0.97482 0.19058 0.0
C614 C 0.01004 0.04809 0.18937 0.0
C615 C 0.02126 0.08596 0.17481 0.0
C616 C 0.05741 0.08908 0.15521 0.0
C617 C 0.06724 0.12464 0.1413 0.0
C618 C 0.04151 0.15744 0.14699 0.0
C619 C 0.00594 0.1548 0.16664 0.0
C620 C 0.99587 0.11927 0.18056 0.0
C621 C 0.04882 0.00155 0.30246 0.0
C622 C 0.02506 0.02961 0.31778 0.0
C623 C 0.0422 0.99686 0.27477 0.0
C624 C 0.01126 0.01978 0.26179 0.0
C625 C 0.98732 0.04765 0.27706 0.0
C626 C 0.99406 0.05247 0.30472 0.0
C627 C 0.00474 0.01547 0.23225 0.0
C628 C 0.01309 0.05044 0.21738 0.0
C629 C 0.99203 0.97719 0.21862 0.0
C630 C 0.97947 0.93946 0.23315 0.0
C631 C 0.94332 0.93731 0.25274 0.0
C632 C 0.93177 0.90175 0.26644 0.0
C633 C 0.95589 0.86801 0.26059 0.0
C634 C 0.99153 0.86973 0.24098 0.0
C635 C 0.00325 0.90525 0.22724 0.0
H636 H 0.94689 0.8405 0.27122 0.0
H637 H 0.04919 0.18494 0.1362 0.0
H638 H 0.91826 0.02195 0.92345 0.0
H639 H 0.9243 0.02123 0.87448 0.0
H640 H 0.07264 0.00067 0.87941 0.0
H641 H 0.06677 0.0007 0.92801 0.0
H642 H 0.05517 0.0613 0.84342 0.0
H643 H 0.99459 0.92326 0.8648 0.0
H644 H 0.93693 0.87146 0.88517 0.0
H645 H 0.82282 0.90678 0.8383 0.0
H646 H 0.87975 0.95924 0.81794 0.0
H647 H 0.11688 0.98861 0.71494 0.0
H648 H 0.10185 0.99938 0.76265 0.0
H649 H 0.94974 0.99145 0.74711 0.0
H650 H 0.96463 0.97966 0.69936 0.0
H651 H 0.96231 0.95039 0.7883 0.0
H652 H 0.021 0.08416 0.76389 0.0
H653 H 0.07601 0.13796 0.74367 0.0
H654 H 0.18936 0.1149 0.79584 0.0
H655 H 0.13522 0.06053 0.81613 0.0
C656 C 0.95219 0.01752 0.91406 0.0
C657 C 0.99195 0.01115 0.92957 0.0
C658 C 0.95556 0.01704 0.88613 0.0
C659 C 0.99891 0.01077 0.87335 0.0
C660 C 0.03891 0.0056 0.88887 0.0
C661 C 0.03537 0.00543 0.91664 0.0
C662 C 0.00266 0.00824 0.84379 0.0
C663 C 0.03513 0.03696 0.83132 0.0
C664 C 0.97541 0.97718 0.82801 0.0
C665 C 0.94129 0.94548 0.8401 0.0
C666 C 0.95712 0.92022 0.85902 0.0
C667 C 0.92459 0.8907 0.87053 0.0
C668 C 0.87621 0.88592 0.8631 0.0
C669 C 0.86029 0.91057 0.84407 0.0
C670 C 0.89267 0.94019 0.83254 0.0
C671 C 0.08028 0.98958 0.72167 0.0
C672 C 0.04196 0.98344 0.70337 0.0
C673 C 0.07169 0.99584 0.74897 0.0
C674 C 0.02466 0.99692 0.75856 0.0
C675 C 0.98633 0.9908 0.74028 0.0
C676 C 0.99487 0.98404 0.71299 0.0
C677 C 0.0155 0.00322 0.78771 0.0
C678 C 0.98203 0.97515 0.8002 0.0
C679 C 0.04141 0.03526 0.80348 0.0
C680 C 0.07412 0.06802 0.79138 0.0
C681 C 0.05775 0.09035 0.77092 0.0
C682 C 0.08877 0.12098 0.75947 0.0
C683 C 0.13618 0.12978 0.76842 0.0
C684 C 0.15264 0.10802 0.7889 0.0
C685 C 0.12178 0.07732 0.80041 0.0
H686 H 0.16014 0.15352 0.75953 0.0
H687 H 0.85108 0.86304 0.87202 0.0
H688 H 0.54637 0.45516 0.59997 0.0
H689 H 0.55415 0.45605 0.64855 0.0
H690 H 0.46 0.54927 0.65656 0.0
H691 H 0.45076 0.54749 0.6081 0.0
H692 H 0.59078 0.51051 0.68304 0.0
H693 H 0.39981 0.54537 0.71457 0.0
H694 H 0.31636 0.53049 0.69824 0.0
H695 H 0.35149 0.42302 0.65516 0.0
H696 H 0.43495 0.43695 0.67152 0.0
H697 H 0.59679 0.5866 0.81672 0.0
H698 H 0.58459 0.5754 0.76874 0.0
H699 H 0.48763 0.46668 0.7817 0.0
H700 H 0.49717 0.47912 0.82991 0.0
H701 H 0.452 0.50515 0.74495 0.0
H702 H 0.60619 0.46419 0.75886 0.0
H703 H 0.68961 0.47021 0.77527 0.0
H704 H 0.72776 0.57332 0.72766 0.0
H705 H 0.64438 0.56826 0.71123 0.0
C706 C 0.52695 0.47559 0.61209 0.0
C707 C 0.49777 0.50113 0.60013 0.0
C708 C 0.53157 0.47617 0.6399 0.0
C709 C 0.50733 0.50243 0.65639 0.0
C710 C 0.47829 0.52807 0.64443 0.0
C711 C 0.47319 0.52716 0.61665 0.0
C712 C 0.5136 0.50393 0.68597 0.0
C713 C 0.56037 0.50923 0.69654 0.0
C714 C 0.47406 0.50135 0.70376 0.0
C715 C 0.42376 0.49245 0.69409 0.0
C716 C 0.38967 0.51848 0.70171 0.0
C717 C 0.34238 0.51022 0.69243 0.0
C718 C 0.32867 0.4759 0.67561 0.0
C719 C 0.3622 0.44968 0.66811 0.0
C720 C 0.40951 0.45776 0.67736 0.0
C721 C 0.57236 0.56053 0.80949 0.0
C722 C 0.54797 0.53382 0.82741 0.0
C723 C 0.56594 0.55383 0.78191 0.0
C724 C 0.53575 0.5198 0.77143 0.0
C725 C 0.51128 0.49308 0.78921 0.0
C726 C 0.51725 0.50001 0.81685 0.0
C727 C 0.52919 0.51253 0.74198 0.0
C728 C 0.48239 0.50624 0.73144 0.0
C729 C 0.56869 0.51294 0.72423 0.0
C730 C 0.61893 0.51603 0.73399 0.0
C731 C 0.63229 0.48832 0.75203 0.0
C732 C 0.67958 0.49154 0.76131 0.0
C733 C 0.71393 0.52218 0.75256 0.0
C734 C 0.70109 0.54962 0.73444 0.0
C735 C 0.65384 0.54656 0.72512 0.0
H736 H 0.75053 0.52463 0.75977 0.0
H737 H 0.29206 0.46959 0.66842 0.0
H738 H 0.42557 0.54895 0.4371 0.0
H739 H 0.43037 0.55259 0.3883 0.0
H740 H 0.55323 0.48634 0.38726 0.0
H741 H 0.54907 0.48293 0.43553 0.0
H742 H 0.56861 0.55028 0.35659 0.0
H743 H 0.44126 0.44021 0.36923 0.0
H744 H 0.36343 0.40966 0.38671 0.0
H745 H 0.29116 0.49505 0.34568 0.0
H746 H 0.36871 0.52643 0.32822 0.0
H747 H 0.59039 0.46979 0.22555 0.0
H748 H 0.57733 0.4801 0.2734 0.0
H749 H 0.45649 0.54395 0.25768 0.0
H750 H 0.46831 0.53244 0.20958 0.0
H751 H 0.43543 0.49114 0.29637 0.0
H752 H 0.56294 0.596 0.27951 0.0
H753 H 0.6411 0.62546 0.26189 0.0
H754 H 0.71359 0.54984 0.31095 0.0
H755 H 0.6358 0.51949 0.3286 0.0
C756 C 0.45352 0.53516 0.42642 0.0
C757 C 0.48684 0.51559 0.44026 0.0
C758 C 0.45617 0.53717 0.39855 0.0
C759 C 0.49209 0.51959 0.38409 0.0
C760 C 0.52534 0.50027 0.39794 0.0
C761 C 0.52273 0.49821 0.42562 0.0
C762 C 0.49571 0.52092 0.35452 0.0
C763 C 0.53955 0.53716 0.34342 0.0
C764 C 0.45739 0.50491 0.3373 0.0
C765 C 0.4108 0.48597 0.34769 0.0
C766 C 0.4088 0.45267 0.36412 0.0
C767 C 0.36474 0.43517 0.37398 0.0
C768 C 0.32239 0.45049 0.36738 0.0
C769 C 0.324 0.48327 0.35082 0.0
C770 C 0.36799 0.50091 0.34092 0.0
C771 C 0.56084 0.48584 0.2322 0.0
C772 C 0.53042 0.50028 0.21365 0.0
C773 C 0.5537 0.49209 0.25962 0.0
C774 C 0.51628 0.51328 0.2692 0.0
C775 C 0.48573 0.52769 0.25078 0.0
C776 C 0.49283 0.52141 0.22328 0.0
C777 C 0.50881 0.51951 0.29846 0.0
C778 C 0.46427 0.50481 0.30949 0.0
C779 C 0.54655 0.53689 0.31568 0.0
C780 C 0.59347 0.55527 0.30524 0.0
C781 C 0.59552 0.58545 0.28641 0.0
C782 C 0.63977 0.60234 0.27644 0.0
C783 C 0.68227 0.58948 0.28526 0.0
C784 C 0.68063 0.55976 0.30413 0.0
C785 C 0.63647 0.54275 0.31415 0.0
H786 H 0.71649 0.60258 0.27751 0.0
H787 H 0.28831 0.43691 0.37504 0.0
loop_
_geom_bond_atom_site_label_1
_geom_bond_atom_site_label_2
_geom_bond_distance
_geom_bond_site_symmetry_2
_ccdc_geom_bond_type
Co0 N5 2.057 . S
Co0 O17 2.021 . S
Co0 O20 2.062 1_455 S
Co0 O24 2.117 1_554 S
Co0 O25 2.020 1_565 S
C1 O21 1.259 1_455 S
C1 O24 1.258 1_545 S
Co2 N11 2.057 . S
Co2 O18 2.117 . S
Co2 O19 2.020 1_545 S
Co2 O21 2.021 1_554 S
Co2 O26 2.062 1_655 S
C3 N5 1.316 . S
C3 N6 1.347 . S
C3 H8 0.931 . S
C4 N5 1.375 1_556 S
C4 C7 1.350 . S
C4 H9 0.930 . S
N5 Co0 2.057 . S
N5 C3 1.316 . S
N5 C4 1.375 1_554 S
N6 C3 1.347 . S
N6 C7 1.373 1_554 S
C7 C4 1.350 . S
C7 N6 1.373 1_556 S
C7 H28 0.931 . S
H8 C3 0.931 . S
H9 C4 0.930 . S
C10 O17 1.259 1_545 S
C10 O18 1.258 1_455 S
N11 Co2 2.057 . S
N11 C12 1.316 . S
N11 C13 1.375 . S
C12 N11 1.316 . S
C12 N14 1.347 . S
C12 H23 0.931 1_554 S
C13 N11 1.375 . S
C13 C15 1.350 . S
C13 H22 0.930 . S
N14 C12 1.347 . S
N14 C15 1.373 . S
C15 C13 1.350 . S
C15 N14 1.373 . S
C15 H29 0.931 . S
C16 O19 1.256 . S
C16 O20 1.255 . S
O17 Co0 2.021 . S
O17 C10 1.259 1_565 S
O18 Co2 2.117 . S
O18 C10 1.258 1_655 S
O19 Co2 2.020 1_565 S
O19 C16 1.256 . S
O20 Co0 2.062 1_655 S
O20 C16 1.255 . S
O21 C1 1.259 1_655 S
O21 Co2 2.021 1_556 S
H22 C13 0.930 . S
H23 C12 0.931 1_556 S
O24 Co0 2.117 1_556 S
O24 C1 1.258 1_565 S
O25 Co0 2.020 1_545 S
O25 C27 1.256 . S
O26 Co2 2.062 1_455 S
O26 C27 1.255 . S
C27 O25 1.256 . S
C27 O26 1.255 . S
H28 C7 0.931 . S
H29 C15 0.931 . S
Co30 N35 2.057 . S
Co30 O47 2.021 . S
Co30 O50 2.062 . S
Co30 O54 2.117 . S
Co30 O55 2.020 . S
C31 O51 1.259 . S
C31 O54 1.258 . S
Co32 N41 2.057 . S
Co32 O48 2.117 . S
Co32 O49 2.020 . S
Co32 O51 2.021 . S
Co32 O56 2.062 . S
C33 N35 1.316 . S
C33 N36 1.347 . S
C33 H38 0.931 . S
C34 N35 1.375 . S
C34 C37 1.350 . S
C34 H39 0.930 . S
N35 Co30 2.057 . S
N35 C33 1.316 . S
N35 C34 1.375 . S
N36 C33 1.347 . S
N36 C37 1.373 . S
C37 C34 1.350 . S
C37 N36 1.373 . S
C37 H58 0.931 . S
H38 C33 0.931 . S
H39 C34 0.930 . S
C40 O47 1.259 . S
C40 O48 1.258 . S
N41 Co32 2.057 . S
N41 C42 1.316 . S
N41 C43 1.375 . S
C42 N41 1.316 . S
C42 N44 1.347 . S
C42 H53 0.931 . S
C43 N41 1.375 . S
C43 C45 1.350 . S
C43 H52 0.930 . S
N44 C42 1.347 . S
N44 C45 1.373 . S
C45 C43 1.350 . S
C45 N44 1.373 . S
C45 H59 0.931 . S
C46 O49 1.256 . S
C46 O50 1.255 . S
O47 Co30 2.021 . S
O47 C40 1.259 . S
O48 Co32 2.117 . S
O48 C40 1.258 . S
O49 Co32 2.020 . S
O49 C46 1.256 . S
O50 Co30 2.062 . S
O50 C46 1.255 . S
O51 C31 1.259 . S
O51 Co32 2.021 . S
H52 C43 0.930 . S
H53 C42 0.931 . S
O54 Co30 2.117 . S
O54 C31 1.258 . S
O55 Co30 2.020 . S
O55 C57 1.256 . S
O56 Co32 2.062 . S
O56 C57 1.255 . S
C57 O55 1.256 . S
C57 O56 1.255 . S
H58 C37 0.931 . S
H59 C45 0.931 . S
P60 O71 1.490 . S
P60 C74 1.812 . S
P60 C80 1.803 1_545 S
P60 C86 1.819 . S
H61 C75 0.941 . S
H62 C76 0.939 . S
H63 C78 0.940 . S
H64 C79 0.940 . S
H65 C81 0.939 1_545 S
H66 C82 0.942 . S
H67 C84 0.940 . S
H68 C85 0.939 . S
H69 C87 0.941 . S
H70 C91 0.939 . S
O71 P60 1.490 . S
H72 C88 0.939 . S
H73 C90 0.940 . S
C74 P60 1.812 . S
C74 C75 1.389 . S
C74 C79 1.391 1_455 S
C75 H61 0.941 . S
C75 C74 1.389 . S
C75 C76 1.397 1_455 S
C76 H62 0.939 . S
C76 C75 1.397 1_655 S
C76 C77 1.378 . S
C77 C76 1.378 . S
C77 C78 1.378 . S
C78 H63 0.940 . S
C78 C77 1.378 . S
C78 C79 1.396 . S
C79 H64 0.940 . S
C79 C74 1.391 1_655 S
C79 C78 1.396 . S
C80 P60 1.803 1_565 S
C80 C81 1.378 . S
C80 C85 1.400 . S
C81 H65 0.939 1_565 S
C81 C80 1.378 . S
C81 C82 1.361 . S
C82 H66 0.942 . S
C82 C81 1.361 . S
C82 C83 1.369 . S
C83 C82 1.369 . S
C83 C84 1.404 . S
C84 H67 0.940 . S
C84 C83 1.404 . S
C84 C85 1.389 . S
C85 H68 0.939 . S
C85 C80 1.400 . S
C85 C84 1.389 . S
C86 P60 1.819 . S
C86 C87 1.391 . S
C86 C91 1.391 1_545 S
C87 H69 0.941 . S
C87 C86 1.391 . S
C87 C88 1.396 . S
C88 H72 0.939 . S
C88 C87 1.396 . S
C88 C89 1.397 . S
C89 C88 1.397 . S
C89 C90 1.385 1_545 S
C90 H73 0.940 . S
C90 C89 1.385 1_565 S
C90 C91 1.388 . S
C91 H70 0.939 . S
C91 C86 1.391 1_565 S
C91 C90 1.388 . S
P92 O103 1.490 . S
P92 C106 1.813 1_455 S
P92 C112 1.803 1_565 S
P92 C118 1.819 . S
H93 C107 0.941 . S
H94 C108 0.939 . S
H95 C110 0.940 . S
H96 C111 0.940 . S
H97 C113 0.939 . S
H98 C114 0.942 . S
H99 C116 0.940 . S
H100 C117 0.939 . S
H101 C119 0.941 . S
H102 C123 0.939 . S
O103 P92 1.490 . S
H104 C120 0.939 . S
H105 C122 0.940 . S
C106 P92 1.813 1_655 S
C106 C107 1.389 1_655 S
C106 C111 1.390 . S
C107 H93 0.941 . S
C107 C106 1.389 1_455 S
C107 C108 1.397 1_455 S
C108 H94 0.939 . S
C108 C107 1.397 1_655 S
C108 C109 1.378 . S
C109 C108 1.378 . S
C109 C110 1.378 . S
C110 H95 0.940 . S
C110 C109 1.378 . S
C110 C111 1.396 . S
C111 H96 0.940 . S
C111 C106 1.390 . S
C111 C110 1.396 . S
C112 P92 1.803 1_545 S
C112 C113 1.378 . S
C112 C117 1.400 . S
C113 H97 0.939 . S
C113 C112 1.378 . S
C113 C114 1.361 . S
C114 H98 0.942 . S
C114 C113 1.361 . S
C114 C115 1.369 . S
C115 C114 1.369 . S
C115 C116 1.404 . S
C116 H99 0.940 . S
C116 C115 1.404 . S
C116 C117 1.389 . S
C117 H100 0.939 . S
C117 C112 1.400 . S
C117 C116 1.389 . S
C118 P92 1.819 . S
C118 C119 1.391 . S
C118 C123 1.391 1_565 S
C119 H101 0.941 . S
C119 C118 1.391 . S
C119 C120 1.396 . S
C120 H104 0.939 . S
C120 C119 1.396 . S
C120 C121 1.397 1_565 S
C121 C120 1.397 1_545 S
C121 C122 1.385 . S
C122 H105 0.940 . S
C122 C121 1.385 . S
C122 C123 1.388 . S
C123 H102 0.939 . S
C123 C118 1.391 1_545 S
C123 C122 1.388 . S
P124 O135 1.490 . S
P124 C138 1.812 . S
P124 C144 1.803 . S
P124 C150 1.819 . S
H125 C139 0.941 . S
H126 C140 0.939 . S
H127 C142 0.940 . S
H128 C143 0.940 . S
H129 C145 0.939 . S
H130 C146 0.942 . S
H131 C148 0.940 . S
H132 C149 0.939 . S
H133 C151 0.941 . S
H134 C155 0.939 . S
O135 P124 1.490 . S
H136 C152 0.939 . S
H137 C154 0.940 . S
C138 P124 1.812 . S
C138 C139 1.389 . S
C138 C143 1.391 . S
C139 H125 0.941 . S
C139 C138 1.389 . S
C139 C140 1.397 . S
C140 H126 0.939 . S
C140 C139 1.397 . S
C140 C141 1.378 . S
C141 C140 1.378 . S
C141 C142 1.378 . S
C142 H127 0.940 . S
C142 C141 1.378 . S
C142 C143 1.396 . S
C143 H128 0.940 . S
C143 C138 1.391 . S
C143 C142 1.396 . S
C144 P124 1.803 . S
C144 C145 1.378 . S
C144 C149 1.400 . S
C145 H129 0.939 . S
C145 C144 1.378 . S
C145 C146 1.361 . S
C146 H130 0.942 . S
C146 C145 1.361 . S
C146 C147 1.369 . S
C147 C146 1.369 . S
C147 C148 1.404 . S
C148 H131 0.940 . S
C148 C147 1.404 . S
C148 C149 1.389 . S
C149 H132 0.939 . S
C149 C144 1.400 . S
C149 C148 1.389 . S
C150 P124 1.819 . S
C150 C151 1.391 . S
C150 C155 1.391 . S
C151 H133 0.941 . S
C151 C150 1.391 . S
C151 C152 1.396 . S
C152 H136 0.939 . S
C152 C151 1.396 . S
C152 C153 1.397 . S
C153 C152 1.397 . S
C153 C154 1.385 . S
C154 H137 0.940 . S
C154 C153 1.385 . S
C154 C155 1.388 . S
C155 H134 0.939 . S
C155 C150 1.391 . S
C155 C154 1.388 . S
P156 O167 1.490 . S
P156 C170 1.812 . S
P156 C176 1.803 . S
P156 C182 1.819 . S
H157 C171 0.941 . S
H158 C172 0.939 . S
H159 C174 0.940 . S
H160 C175 0.940 . S
H161 C177 0.939 . S
H162 C178 0.942 . S
H163 C180 0.940 . S
H164 C181 0.939 . S
H165 C183 0.941 . S
H166 C187 0.939 . S
O167 P156 1.490 . S
H168 C184 0.939 . S
H169 C186 0.940 . S
C170 P156 1.812 . S
C170 C171 1.389 . S
C170 C175 1.391 . S
C171 H157 0.941 . S
C171 C170 1.389 . S
C171 C172 1.397 . S
C172 H158 0.939 . S
C172 C171 1.397 . S
C172 C173 1.378 . S
C173 C172 1.378 . S
C173 C174 1.378 . S
C174 H159 0.940 . S
C174 C173 1.378 . S
C174 C175 1.396 . S
C175 H160 0.940 . S
C175 C170 1.391 . S
C175 C174 1.396 . S
C176 P156 1.803 . S
C176 C177 1.378 . S
C176 C181 1.400 . S
C177 H161 0.939 . S
C177 C176 1.378 . S
C177 C178 1.361 . S
C178 H162 0.942 . S
C178 C177 1.361 . S
C178 C179 1.369 . S
C179 C178 1.369 . S
C179 C180 1.404 . S
C180 H163 0.940 . S
C180 C179 1.404 . S
C180 C181 1.389 . S
C181 H164 0.939 . S
C181 C176 1.400 . S
C181 C180 1.389 . S
C182 P156 1.819 . S
C182 C183 1.391 . S
C182 C187 1.391 . S
C183 H165 0.941 . S
C183 C182 1.391 . S
C183 C184 1.396 . S
C184 H168 0.939 . S
C184 C183 1.396 . S
C184 C185 1.397 . S
C185 C184 1.397 . S
C185 C186 1.385 . S
C186 H169 0.940 . S
C186 C185 1.385 . S
C186 C187 1.388 . S
C187 H166 0.939 . S
C187 C182 1.391 . S
C187 C186 1.388 . S
H188 C206 0.951 1_556 S
H189 C208 0.951 . S
H190 C210 0.950 . S
H191 C211 0.950 . S
H192 C213 0.950 . S
H193 C216 0.950 . S
H194 C217 0.950 . S
H195 C219 0.950 . S
H196 C220 0.950 . S
H197 C221 0.951 . S
H198 C223 0.951 . S
H199 C225 0.950 . S
H200 C226 0.950 . S
H201 C228 0.950 . S
H202 C231 0.950 . S
H203 C232 0.950 . S
H204 C234 0.950 . S
H205 C235 0.950 . S
C206 H188 0.951 1_554 S
C206 C207 1.366 . S
C206 C208 1.388 . S
C207 C206 1.366 . S
C207 C211 1.385 . S
C208 H189 0.951 . S
C208 C206 1.388 . S
C208 C209 1.366 . S
C209 C208 1.366 . S
C209 C210 1.414 . S
C209 C212 1.499 . S
C210 H190 0.950 . S
C210 C209 1.414 . S
C210 C211 1.374 . S
C211 H191 0.950 . S
C211 C207 1.385 . S
C211 C210 1.374 . S
C212 C209 1.499 . S
C212 C213 1.373 . S
C212 C214 1.389 . S
C213 H192 0.950 . S
C213 C212 1.373 . S
C213 C229 1.377 . S
C214 C212 1.389 . S
C214 C215 1.524 . S
C214 C228 1.377 . S
C215 C214 1.524 . S
C215 C216 1.397 . S
C215 C220 1.363 . S
C216 H193 0.950 . S
C216 C215 1.397 . S
C216 C217 1.334 . S
C217 H194 0.950 . S
C217 C216 1.334 . S
C217 C218 1.287 . S
C218 C217 1.287 . S
C218 C219 1.524 . S
C218 H237 0.913 . S
C219 H195 0.950 . S
C219 C218 1.524 . S
C219 C220 1.415 . S
C220 H196 0.950 . S
C220 C215 1.363 . S
C220 C219 1.415 . S
C221 H197 0.951 . S
C221 C222 1.366 . S
C221 C223 1.388 . S
C222 C221 1.366 . S
C222 C226 1.385 . S
C223 H198 0.951 . S
C223 C221 1.388 . S
C223 C224 1.366 . S
C224 C223 1.366 . S
C224 C225 1.414 . S
C224 C227 1.499 . S
C225 H199 0.950 . S
C225 C224 1.414 . S
C225 C226 1.374 . S
C226 H200 0.950 . S
C226 C222 1.385 . S
C226 C225 1.374 . S
C227 C224 1.499 . S
C227 C228 1.373 . S
C227 C229 1.389 . S
C228 H201 0.950 . S
C228 C214 1.377 . S
C228 C227 1.373 . S
C229 C213 1.377 . S
C229 C227 1.389 . S
C229 C230 1.524 . S
C230 C229 1.524 . S
C230 C231 1.397 1_554 S
C230 C235 1.363 . S
C231 H202 0.950 . S
C231 C230 1.397 1_556 S
C231 C232 1.334 . S
C232 H203 0.950 . S
C232 C231 1.334 . S
C232 C233 1.287 . S
C233 C232 1.287 . S
C233 C234 1.524 1_556 S
C233 H236 0.999 . S
C234 H204 0.950 . S
C234 C233 1.524 1_554 S
C234 C235 1.415 . S
C235 H205 0.950 . S
C235 C230 1.363 . S
C235 C234 1.415 . S
H236 C233 0.999 . S
H237 C218 0.913 . S
H238 C256 0.951 . S
H239 C258 0.951 . S
H240 C260 0.950 . S
H241 C261 0.950 . S
H242 C263 0.950 . S
H243 C266 0.950 . S
H244 C267 0.950 . S
H245 C269 0.950 . S
H246 C270 0.950 . S
H247 C271 0.951 . S
H248 C273 0.951 . S
H249 C275 0.950 1_554 S
H250 C276 0.950 . S
H251 C278 0.950 . S
H252 C281 0.950 . S
H253 C282 0.950 . S
H254 C284 0.950 . S
H255 C285 0.950 1_556 S
C256 H238 0.951 . S
C256 C257 1.366 . S
C256 C258 1.388 . S
C257 C256 1.366 . S
C257 C261 1.385 1_554 S
C258 H239 0.951 . S
C258 C256 1.388 . S
C258 C259 1.366 . S
C259 C258 1.366 . S
C259 C260 1.414 1_554 S
C259 C262 1.499 1_554 S
C260 H240 0.950 . S
C260 C259 1.414 1_556 S
C260 C261 1.374 . S
C261 H241 0.950 . S
C261 C257 1.385 1_556 S
C261 C260 1.374 . S
C262 C259 1.499 1_556 S
C262 C263 1.373 1_556 S
C262 C264 1.389 . S
C263 H242 0.950 . S
C263 C262 1.373 1_554 S
C263 C279 1.379 . S
C264 C262 1.389 . S
C264 C265 1.524 . S
C264 C278 1.377 . S
C265 C264 1.524 . S
C265 C266 1.397 . S
C265 C270 1.363 . S
C266 H243 0.950 . S
C266 C265 1.397 . S
C266 C267 1.334 . S
C267 H244 0.950 . S
C267 C266 1.334 . S
C267 C268 1.287 . S
C268 C267 1.287 . S
C268 C269 1.524 . S
C268 H287 0.913 . S
C269 H245 0.950 . S
C269 C268 1.524 . S
C269 C270 1.415 . S
C270 H246 0.950 . S
C270 C265 1.363 . S
C270 C269 1.415 . S
C271 H247 0.951 . S
C271 C272 1.366 . S
C271 C273 1.388 . S
C272 C271 1.366 . S
C272 C276 1.385 . S
C273 H248 0.951 . S
C273 C271 1.388 . S
C273 C274 1.366 . S
C274 C273 1.366 . S
C274 C275 1.414 . S
C274 C277 1.499 . S
C275 H249 0.950 1_556 S
C275 C274 1.414 . S
C275 C276 1.374 . S
C276 H250 0.950 . S
C276 C272 1.385 . S
C276 C275 1.374 . S
C277 C274 1.499 . S
C277 C278 1.373 . S
C277 C279 1.377 1_556 S
C278 H251 0.950 . S
C278 C264 1.377 . S
C278 C277 1.373 . S
C279 C263 1.379 . S
C279 C277 1.377 1_554 S
C279 C280 1.539 . S
C280 C279 1.539 . S
C280 C281 1.397 . S
C280 C285 1.363 . S
C281 H252 0.950 . S
C281 C280 1.397 . S
C281 C282 1.334 . S
C282 H253 0.950 . S
C282 C281 1.334 . S
C282 C283 1.287 . S
C283 C282 1.287 . S
C283 C284 1.524 . S
C283 H286 0.999 . S
C284 H254 0.950 . S
C284 C283 1.524 . S
C284 C285 1.415 . S
C285 H255 0.950 1_554 S
C285 C280 1.363 . S
C285 C284 1.415 . S
H286 C283 0.999 . S
H287 C268 0.913 . S
H288 C306 0.951 . S
H289 C308 0.936 1_556 S
H290 C310 0.950 . S
H291 C311 0.950 . S
H292 C313 0.950 . S
H293 C316 0.950 . S
H294 C317 0.950 . S
H295 C319 0.950 . S
H296 C320 0.963 . S
H297 C321 0.951 . S
H298 C323 0.951 . S
H299 C325 0.950 . S
H300 C326 0.950 . S
H301 C328 0.950 . S
H302 C331 0.950 . S
H303 C332 0.950 . S
H304 C334 0.950 . S
H305 C335 0.950 . S
C306 H288 0.951 . S
C306 C307 1.366 1_556 S
C306 C308 1.384 1_556 S
C307 C306 1.366 1_554 S
C307 C311 1.385 . S
C308 H289 0.936 1_554 S
C308 C306 1.384 1_554 S
C308 C309 1.384 . S
C309 C308 1.384 . S
C309 C310 1.414 . S
C309 C312 1.499 . S
C310 H290 0.950 . S
C310 C309 1.414 . S
C310 C311 1.374 . S
C311 H291 0.950 . S
C311 C307 1.385 . S
C311 C310 1.374 . S
C312 C309 1.499 . S
C312 C313 1.373 . S
C312 C314 1.389 . S
C313 H292 0.950 . S
C313 C312 1.373 . S
C313 C329 1.377 . S
C314 C312 1.389 . S
C314 C315 1.524 . S
C314 C328 1.377 . S
C315 C314 1.524 . S
C315 C316 1.397 . S
C315 C320 1.347 1_554 S
C316 H293 0.950 . S
C316 C315 1.397 . S
C316 C317 1.334 . S
C317 H294 0.950 . S
C317 C316 1.334 . S
C317 C318 1.287 . S
C318 C317 1.287 . S
C318 C319 1.524 1_554 S
C318 H337 0.913 . S
C319 H295 0.950 . S
C319 C318 1.524 1_556 S
C319 C320 1.419 . S
C320 H296 0.963 . S
C320 C315 1.347 1_556 S
C320 C319 1.419 . S
C321 H297 0.951 . S
C321 C322 1.366 . S
C321 C323 1.388 . S
C322 C321 1.366 . S
C322 C326 1.385 . S
C323 H298 0.951 . S
C323 C321 1.388 . S
C323 C324 1.366 . S
C324 C323 1.366 . S
C324 C325 1.414 . S
C324 C327 1.499 . S
C325 H299 0.950 . S
C325 C324 1.414 . S
C325 C326 1.374 . S
C326 H300 0.950 . S
C326 C322 1.385 . S
C326 C325 1.374 . S
C327 C324 1.499 . S
C327 C328 1.373 . S
C327 C329 1.389 . S
C328 H301 0.950 . S
C328 C314 1.377 . S
C328 C327 1.373 . S
C329 C313 1.377 . S
C329 C327 1.389 . S
C329 C330 1.524 . S
C330 C329 1.524 . S
C330 C331 1.397 . S
C330 C335 1.363 . S
C331 H302 0.950 . S
C331 C330 1.397 . S
C331 C332 1.334 . S
C332 H303 0.950 . S
C332 C331 1.334 . S
C332 C333 1.287 . S
C333 C332 1.287 . S
C333 C334 1.524 . S
C333 H336 0.999 . S
C334 H304 0.950 . S
C334 C333 1.524 . S
C334 C335 1.415 . S
C335 H305 0.950 . S
C335 C330 1.363 . S
C335 C334 1.415 . S
H336 C333 0.999 . S
H337 C318 0.913 . S
H338 C356 0.951 . S
H339 C358 0.951 . S
H340 C360 0.950 . S
H341 C361 0.950 . S
H342 C363 0.950 . S
H343 C366 0.950 . S
H344 C367 0.950 . S
H345 C369 0.950 . S
H346 C370 0.950 . S
H347 C371 0.951 . S
H348 C373 0.951 . S
H349 C375 0.986 . S
H350 C376 0.950 1_554 S
H351 C378 0.950 . S
H352 C381 0.950 . S
H353 C382 0.950 . S
H354 C384 0.950 . S
H355 C385 0.950 . S
C356 H338 0.951 . S
C356 C357 1.366 . S
C356 C358 1.388 . S
C357 C356 1.366 . S
C357 C361 1.385 1_554 S
C358 H339 0.951 . S
C358 C356 1.388 . S
C358 C359 1.366 . S
C359 C358 1.366 . S
C359 C360 1.414 1_554 S
C359 C362 1.499 1_554 S
C360 H340 0.950 . S
C360 C359 1.414 1_556 S
C360 C361 1.374 . S
C361 H341 0.950 . S
C361 C357 1.385 1_556 S
C361 C360 1.374 . S
C362 C359 1.499 1_556 S
C362 C363 1.373 . S
C362 C364 1.389 1_556 S
C363 H342 0.950 . S
C363 C362 1.373 . S
C363 C379 1.377 . S
C364 C362 1.389 1_554 S
C364 C365 1.524 . S
C364 C378 1.377 . S
C365 C364 1.524 . S
C365 C366 1.397 . S
C365 C370 1.363 . S
C366 H343 0.950 . S
C366 C365 1.397 . S
C366 C367 1.334 . S
C367 H344 0.950 . S
C367 C366 1.334 . S
C367 C368 1.287 . S
C368 C367 1.287 . S
C368 C369 1.524 . S
C368 H387 0.913 . S
C369 H345 0.950 . S
C369 C368 1.524 . S
C369 C370 1.415 . S
C370 H346 0.950 . S
C370 C365 1.363 . S
C370 C369 1.415 . S
C371 H347 0.951 . S
C371 C372 1.366 . S
C371 C373 1.388 . S
C372 C371 1.366 . S
C372 C376 1.385 . S
C373 H348 0.951 . S
C373 C371 1.388 . S
C373 C374 1.366 . S
C374 C373 1.366 . S
C374 C375 1.388 1_556 S
C374 C377 1.499 . S
C375 H349 0.986 . S
C375 C374 1.388 1_554 S
C375 C376 1.366 1_554 S
C376 H350 0.950 1_556 S
C376 C372 1.385 . S
C376 C375 1.366 1_556 S
C377 C374 1.499 . S
C377 C378 1.373 1_556 S
C377 C379 1.389 . S
C378 H351 0.950 . S
C378 C364 1.377 . S
C378 C377 1.373 1_554 S
C379 C363 1.377 . S
C379 C377 1.389 . S
C379 C380 1.524 . S
C380 C379 1.524 . S
C380 C381 1.397 . S
C380 C385 1.363 . S
C381 H352 0.950 . S
C381 C380 1.397 . S
C381 C382 1.334 . S
C382 H353 0.950 . S
C382 C381 1.334 . S
C382 C383 1.287 . S
C383 C382 1.287 . S
C383 C384 1.524 . S
C383 H386 0.999 . S
C384 H354 0.950 . S
C384 C383 1.524 . S
C384 C385 1.415 . S
C385 H355 0.950 . S
C385 C380 1.363 . S
C385 C384 1.415 . S
H386 C383 0.999 . S
H387 C368 0.913 . S
H388 C406 0.951 . S
H389 C408 0.951 . S
H390 C410 0.950 . S
H391 C411 0.950 . S
H392 C413 0.950 . S
H393 C416 0.950 . S
H394 C417 0.950 . S
H395 C419 0.950 . S
H396 C420 0.950 . S
H397 C421 0.951 . S
H398 C423 0.951 . S
H399 C425 0.950 . S
H400 C426 0.950 . S
H401 C428 0.950 . S
H402 C431 0.950 . S
H403 C432 0.950 . S
H404 C434 0.950 . S
H405 C435 0.950 . S
C406 H388 0.951 . S
C406 C407 1.366 . S
C406 C408 1.388 . S
C407 C406 1.366 . S
C407 C411 1.385 . S
C408 H389 0.951 . S
C408 C406 1.388 . S
C408 C409 1.366 . S
C409 C408 1.366 . S
C409 C410 1.414 . S
C409 C412 1.499 . S
C410 H390 0.950 . S
C410 C409 1.414 . S
C410 C411 1.374 . S
C411 H391 0.950 . S
C411 C407 1.385 . S
C411 C410 1.374 . S
C412 C409 1.499 . S
C412 C413 1.373 . S
C412 C414 1.389 . S
C413 H392 0.950 . S
C413 C412 1.373 . S
C413 C429 1.377 . S
C414 C412 1.389 . S
C414 C415 1.524 . S
C414 C428 1.377 . S
C415 C414 1.524 . S
C415 C416 1.397 . S
C415 C420 1.363 . S
C416 H393 0.950 . S
C416 C415 1.397 . S
C416 C417 1.334 . S
C417 H394 0.950 . S
C417 C416 1.334 . S
C417 C418 1.287 . S
C418 C417 1.287 . S
C418 C419 1.524 . S
C418 H437 0.913 . S
C419 H395 0.950 . S
C419 C418 1.524 . S
C419 C420 1.415 . S
C420 H396 0.950 . S
C420 C415 1.363 . S
C420 C419 1.415 . S
C421 H397 0.951 . S
C421 C422 1.366 . S
C421 C423 1.388 . S
C422 C421 1.366 . S
C422 C426 1.385 . S
C423 H398 0.951 . S
C423 C421 1.388 . S
C423 C424 1.366 . S
C424 C423 1.366 . S
C424 C425 1.414 . S
C424 C427 1.499 . S
C425 H399 0.950 . S
C425 C424 1.414 . S
C425 C426 1.374 . S
C426 H400 0.950 . S
C426 C422 1.385 . S
C426 C425 1.374 . S
C427 C424 1.499 . S
C427 C428 1.373 . S
C427 C429 1.389 . S
C428 H401 0.950 . S
C428 C414 1.377 . S
C428 C427 1.373 . S
C429 C413 1.377 . S
C429 C427 1.389 . S
C429 C430 1.524 . S
C430 C429 1.524 . S
C430 C431 1.397 . S
C430 C435 1.363 . S
C431 H402 0.950 . S
C431 C430 1.397 . S
C431 C432 1.334 . S
C432 H403 0.950 . S
C432 C431 1.334 . S
C432 C433 1.287 . S
C433 C432 1.287 . S
C433 C434 1.524 . S
C433 H436 0.999 . S
C434 H404 0.950 . S
C434 C433 1.524 . S
C434 C435 1.415 . S
C435 H405 0.950 . S
C435 C430 1.363 . S
C435 C434 1.415 . S
H436 C433 0.999 . S
H437 C418 0.913 . S
H438 C456 0.951 . S
H439 C458 0.951 . S
H440 C460 0.950 . S
H441 C461 0.950 . S
H442 C463 0.950 . S
H443 C466 0.950 . S
H444 C467 0.950 . S
H445 C469 0.950 . S
H446 C470 0.950 . S
H447 C471 0.951 . S
H448 C473 0.951 . S
H449 C475 0.950 . S
H450 C476 0.950 . S
H451 C478 0.950 . S
H452 C481 0.950 . S
H453 C482 0.950 . S
H454 C484 0.950 . S
H455 C485 0.950 . S
C456 H438 0.951 . S
C456 C457 1.366 . S
C456 C458 1.388 . S
C457 C456 1.366 . S
C457 C461 1.385 . S
C458 H439 0.951 . S
C458 C456 1.388 . S
C458 C459 1.366 . S
C459 C458 1.366 . S
C459 C460 1.414 . S
C459 C462 1.499 . S
C460 H440 0.950 . S
C460 C459 1.414 . S
C460 C461 1.374 . S
C461 H441 0.950 . S
C461 C457 1.385 . S
C461 C460 1.374 . S
C462 C459 1.499 . S
C462 C463 1.373 . S
C462 C464 1.389 . S
C463 H442 0.950 . S
C463 C462 1.373 . S
C463 C479 1.377 . S
C464 C462 1.389 . S
C464 C465 1.524 . S
C464 C478 1.377 . S
C465 C464 1.524 . S
C465 C466 1.397 . S
C465 C470 1.363 . S
C466 H443 0.950 . S
C466 C465 1.397 . S
C466 C467 1.334 . S
C467 H444 0.950 . S
C467 C466 1.334 . S
C467 C468 1.287 . S
C468 C467 1.287 . S
C468 C469 1.524 . S
C468 H487 0.913 . S
C469 H445 0.950 . S
C469 C468 1.524 . S
C469 C470 1.415 . S
C470 H446 0.950 . S
C470 C465 1.363 . S
C470 C469 1.415 . S
C471 H447 0.951 . S
C471 C472 1.366 . S
C471 C473 1.388 . S
C472 C471 1.366 . S
C472 C476 1.385 . S
C473 H448 0.951 . S
C473 C471 1.388 . S
C473 C474 1.366 . S
C474 C473 1.366 . S
C474 C475 1.414 . S
C474 C477 1.499 . S
C475 H449 0.950 . S
C475 C474 1.414 . S
C475 C476 1.374 . S
C476 H450 0.950 . S
C476 C472 1.385 . S
C476 C475 1.374 . S
C477 C474 1.499 . S
C477 C478 1.373 . S
C477 C479 1.389 . S
C478 H451 0.950 . S
C478 C464 1.377 . S
C478 C477 1.373 . S
C479 C463 1.377 . S
C479 C477 1.389 . S
C479 C480 1.524 . S
C480 C479 1.524 . S
C480 C481 1.397 . S
C480 C485 1.363 . S
C481 H452 0.950 . S
C481 C480 1.397 . S
C481 C482 1.334 . S
C482 H453 0.950 . S
C482 C481 1.334 . S
C482 C483 1.287 . S
C483 C482 1.287 . S
C483 C484 1.524 . S
C483 H486 0.999 . S
C484 H454 0.950 . S
C484 C483 1.524 . S
C484 C485 1.415 . S
C485 H455 0.950 . S
C485 C480 1.363 . S
C485 C484 1.415 . S
H486 C483 0.999 . S
H487 C468 0.913 . S
H488 C506 0.951 . S
H489 C508 0.951 . S
H490 C510 0.950 . S
H491 C511 0.950 . S
H492 C513 0.950 . S
H493 C516 0.950 . S
H494 C517 0.950 . S
H495 C519 0.950 . S
H496 C520 0.950 . S
H497 C521 0.951 . S
H498 C523 0.951 . S
H499 C525 0.950 . S
H500 C526 0.950 . S
H501 C528 0.950 . S
H502 C531 0.950 . S
H503 C532 0.950 . S
H504 C534 0.950 . S
H505 C535 0.950 . S
C506 H488 0.951 . S
C506 C507 1.366 . S
C506 C508 1.388 . S
C507 C506 1.366 . S
C507 C511 1.385 . S
C508 H489 0.951 . S
C508 C506 1.388 . S
C508 C509 1.366 . S
C509 C508 1.366 . S
C509 C510 1.414 . S
C509 C512 1.499 . S
C510 H490 0.950 . S
C510 C509 1.414 . S
C510 C511 1.374 . S
C511 H491 0.950 . S
C511 C507 1.385 . S
C511 C510 1.374 . S
C512 C509 1.499 . S
C512 C513 1.373 . S
C512 C514 1.389 . S
C513 H492 0.950 . S
C513 C512 1.373 . S
C513 C529 1.377 . S
C514 C512 1.389 . S
C514 C515 1.524 . S
C514 C528 1.377 . S
C515 C514 1.524 . S
C515 C516 1.397 . S
C515 C520 1.363 . S
C516 H493 0.950 . S
C516 C515 1.397 . S
C516 C517 1.334 . S
C517 H494 0.950 . S
C517 C516 1.334 . S
C517 C518 1.287 . S
C518 C517 1.287 . S
C518 C519 1.524 . S
C518 H537 0.913 . S
C519 H495 0.950 . S
C519 C518 1.524 . S
C519 C520 1.415 . S
C520 H496 0.950 . S
C520 C515 1.363 . S
C520 C519 1.415 . S
C521 H497 0.951 . S
C521 C522 1.366 . S
C521 C523 1.388 . S
C522 C521 1.366 . S
C522 C526 1.385 . S
C523 H498 0.951 . S
C523 C521 1.388 . S
C523 C524 1.366 . S
C524 C523 1.366 . S
C524 C525 1.414 . S
C524 C527 1.499 . S
C525 H499 0.950 . S
C525 C524 1.414 . S
C525 C526 1.374 . S
C526 H500 0.950 . S
C526 C522 1.385 . S
C526 C525 1.374 . S
C527 C524 1.499 . S
C527 C528 1.373 . S
C527 C529 1.389 . S
C528 H501 0.950 . S
C528 C514 1.377 . S
C528 C527 1.373 . S
C529 C513 1.377 . S
C529 C527 1.389 . S
C529 C530 1.524 . S
C530 C529 1.524 . S
C530 C531 1.397 . S
C530 C535 1.363 . S
C531 H502 0.950 . S
C531 C530 1.397 . S
C531 C532 1.334 . S
C532 H503 0.950 . S
C532 C531 1.334 . S
C532 C533 1.287 . S
C533 C532 1.287 . S
C533 C534 1.524 . S
C533 H536 0.999 . S
C534 H504 0.950 . S
C534 C533 1.524 . S
C534 C535 1.415 . S
C535 H505 0.950 . S
C535 C530 1.363 . S
C535 C534 1.415 . S
H536 C533 0.999 . S
H537 C518 0.913 . S
H538 C556 0.951 . S
H539 C558 0.951 . S
H540 C560 0.950 . S
H541 C561 0.950 . S
H542 C563 0.950 . S
H543 C566 0.950 . S
H544 C567 0.950 . S
H545 C569 0.950 . S
H546 C570 0.950 . S
H547 C571 0.951 . S
H548 C573 0.951 . S
H549 C575 0.950 . S
H550 C576 0.950 . S
H551 C578 0.950 . S
H552 C581 0.950 . S
H553 C582 0.950 . S
H554 C584 0.950 . S
H555 C585 0.950 . S
C556 H538 0.951 . S
C556 C557 1.366 . S
C556 C558 1.388 . S
C557 C556 1.366 . S
C557 C561 1.385 . S
C558 H539 0.951 . S
C558 C556 1.388 . S
C558 C559 1.366 . S
C559 C558 1.366 . S
C559 C560 1.414 . S
C559 C562 1.499 . S
C560 H540 0.950 . S
C560 C559 1.414 . S
C560 C561 1.374 . S
C561 H541 0.950 . S
C561 C557 1.385 . S
C561 C560 1.374 . S
C562 C559 1.499 . S
C562 C563 1.373 . S
C562 C564 1.389 . S
C563 H542 0.950 . S
C563 C562 1.373 . S
C563 C579 1.377 . S
C564 C562 1.389 . S
C564 C565 1.524 . S
C564 C578 1.377 . S
C565 C564 1.524 . S
C565 C566 1.397 . S
C565 C570 1.363 . S
C566 H543 0.950 . S
C566 C565 1.397 . S
C566 C567 1.334 . S
C567 H544 0.950 . S
C567 C566 1.334 . S
C567 C568 1.287 . S
C568 C567 1.287 . S
C568 C569 1.524 . S
C568 H587 0.913 . S
C569 H545 0.950 . S
C569 C568 1.524 . S
C569 C570 1.415 . S
C570 H546 0.950 . S
C570 C565 1.363 . S
C570 C569 1.415 . S
C571 H547 0.951 . S
C571 C572 1.366 . S
C571 C573 1.388 . S
C572 C571 1.366 . S
C572 C576 1.385 . S
C573 H548 0.951 . S
C573 C571 1.388 . S
C573 C574 1.366 . S
C574 C573 1.366 . S
C574 C575 1.414 . S
C574 C577 1.499 . S
C575 H549 0.950 . S
C575 C574 1.414 . S
C575 C576 1.374 . S
C576 H550 0.950 . S
C576 C572 1.385 . S
C576 C575 1.374 . S
C577 C574 1.499 . S
C577 C578 1.373 . S
C577 C579 1.389 . S
C578 H551 0.950 . S
C578 C564 1.377 . S
C578 C577 1.373 . S
C579 C563 1.377 . S
C579 C577 1.389 . S
C579 C580 1.524 . S
C580 C579 1.524 . S
C580 C581 1.397 . S
C580 C585 1.363 . S
C581 H552 0.950 . S
C581 C580 1.397 . S
C581 C582 1.334 . S
C582 H553 0.950 . S
C582 C581 1.334 . S
C582 C583 1.287 . S
C583 C582 1.287 . S
C583 C584 1.524 . S
C583 H586 0.999 . S
C584 H554 0.950 . S
C584 C583 1.524 . S
C584 C585 1.415 . S
C585 H555 0.950 . S
C585 C580 1.363 . S
C585 C584 1.415 . S
H586 C583 0.999 . S
H587 C568 0.913 . S
H588 C606 0.951 . S
H589 C608 0.951 . S
H590 C610 0.950 . S
H591 C611 0.950 . S
H592 C613 0.950 . S
H593 C616 0.950 . S
H594 C617 0.950 . S
H595 C619 0.950 . S
H596 C620 0.950 . S
H597 C621 0.951 . S
H598 C623 0.951 . S
H599 C625 0.950 . S
H600 C626 0.950 . S
H601 C628 0.950 . S
H602 C631 0.950 . S
H603 C632 0.950 . S
H604 C634 0.950 . S
H605 C635 0.950 . S
C606 H588 0.951 . S
C606 C607 1.366 1_655 S
C606 C608 1.388 . S
C607 C606 1.366 1_455 S
C607 C611 1.385 1_545 S
C608 H589 0.951 . S
C608 C606 1.388 . S
C608 C609 1.366 1_655 S
C609 C608 1.366 1_455 S
C609 C610 1.414 1_545 S
C609 C612 1.499 . S
C610 H590 0.950 . S
C610 C609 1.414 1_565 S
C610 C611 1.374 . S
C611 H591 0.950 . S
C611 C607 1.385 1_565 S
C611 C610 1.374 . S
C612 C609 1.499 . S
C612 C613 1.373 1_445 S
C612 C614 1.389 . S
C613 H592 0.950 . S
C613 C612 1.373 1_665 S
C613 C629 1.377 . S
C614 C612 1.389 . S
C614 C615 1.524 . S
C614 C628 1.377 . S
C615 C614 1.524 . S
C615 C616 1.397 . S
C615 C620 1.363 . S
C616 H593 0.950 . S
C616 C615 1.397 . S
C616 C617 1.334 . S
C617 H594 0.950 . S
C617 C616 1.334 . S
C617 C618 1.287 . S
C618 C617 1.287 . S
C618 C619 1.524 . S
C618 H637 0.913 . S
C619 H595 0.950 . S
C619 C618 1.524 . S
C619 C620 1.415 . S
C620 H596 0.950 . S
C620 C615 1.363 . S
C620 C619 1.415 . S
C621 H597 0.951 . S
C621 C622 1.366 1_565 S
C621 C623 1.388 . S
C622 C621 1.366 1_545 S
C622 C626 1.385 1_455 S
C623 H598 0.951 . S
C623 C621 1.388 . S
C623 C624 1.369 1_565 S
C624 C623 1.369 1_545 S
C624 C625 1.411 1_455 S
C624 C627 1.499 . S
C625 H599 0.950 . S
C625 C624 1.411 1_655 S
C625 C626 1.374 . S
C626 H600 0.950 . S
C626 C622 1.385 1_655 S
C626 C625 1.374 . S
C627 C624 1.499 . S
C627 C628 1.377 . S
C627 C629 1.386 1_445 S
C628 H601 0.950 . S
C628 C614 1.377 . S
C628 C627 1.377 . S
C629 C613 1.377 . S
C629 C627 1.386 1_665 S
C629 C630 1.524 . S
C630 C629 1.524 . S
C630 C631 1.397 . S
C630 C635 1.363 . S
C631 H602 0.950 . S
C631 C630 1.397 . S
C631 C632 1.334 . S
C632 H603 0.950 . S
C632 C631 1.334 . S
C632 C633 1.287 . S
C633 C632 1.287 . S
C633 C634 1.524 . S
C633 H636 0.999 . S
C634 H604 0.950 . S
C634 C633 1.524 . S
C634 C635 1.415 . S
C635 H605 0.950 . S
C635 C630 1.363 . S
C635 C634 1.415 . S
H636 C633 0.999 . S
H637 C618 0.913 . S
H638 C656 0.951 . S
H639 C658 0.951 . S
H640 C660 0.950 . S
H641 C661 0.950 . S
H642 C663 0.950 . S
H643 C666 0.950 . S
H644 C667 0.950 . S
H645 C669 0.950 . S
H646 C670 0.950 . S
H647 C671 0.951 . S
H648 C673 0.951 . S
H649 C675 0.950 . S
H650 C676 0.950 . S
H651 C678 0.950 . S
H652 C681 0.951 . S
H653 C682 0.950 1_655 S
H654 C684 0.950 . S
H655 C685 0.950 . S
C656 H638 0.951 . S
C656 C657 1.366 1_665 S
C656 C658 1.388 . S
C657 C656 1.366 1_445 S
C657 C661 1.385 . S
C658 H639 0.951 . S
C658 C656 1.388 . S
C658 C659 1.366 1_665 S
C659 C658 1.366 1_445 S
C659 C660 1.414 . S
C659 C662 1.499 . S
C660 H640 0.950 . S
C660 C659 1.414 . S
C660 C661 1.374 . S
C661 H641 0.950 . S
C661 C657 1.385 . S
C661 C660 1.374 . S
C662 C659 1.499 . S
C662 C663 1.373 . S
C662 C664 1.389 1_445 S
C663 H642 0.950 . S
C663 C662 1.373 . S
C663 C679 1.377 . S
C664 C662 1.389 1_665 S
C664 C665 1.524 . S
C664 C678 1.377 . S
C665 C664 1.524 . S
C665 C666 1.397 1_655 S
C665 C670 1.363 . S
C666 H643 0.950 . S
C666 C665 1.397 1_455 S
C666 C667 1.334 . S
C667 H644 0.950 . S
C667 C666 1.334 . S
C667 C668 1.287 1_455 S
C668 C667 1.287 1_655 S
C668 C669 1.524 . S
C668 H687 0.913 . S
C669 H645 0.950 . S
C669 C668 1.524 . S
C669 C670 1.415 . S
C670 H646 0.950 . S
C670 C665 1.363 . S
C670 C669 1.415 . S
C671 H647 0.951 . S
C671 C672 1.366 . S
C671 C673 1.388 . S
C672 C671 1.366 . S
C672 C676 1.385 1_445 S
C673 H648 0.951 . S
C673 C671 1.388 . S
C673 C674 1.366 . S
C674 C673 1.366 . S
C674 C675 1.414 1_445 S
C674 C677 1.499 . S
C675 H649 0.950 . S
C675 C674 1.414 1_665 S
C675 C676 1.374 . S
C676 H650 0.950 . S
C676 C672 1.385 1_665 S
C676 C675 1.374 . S
C677 C674 1.499 . S
C677 C678 1.373 1_445 S
C677 C679 1.389 . S
C678 H651 0.950 . S
C678 C664 1.377 . S
C678 C677 1.373 1_665 S
C679 C663 1.377 . S
C679 C677 1.389 . S
C679 C680 1.524 . S
C680 C679 1.524 . S
C680 C681 1.396 1_455 S
C680 C685 1.363 . S
C681 H652 0.951 . S
C681 C680 1.396 1_655 S
C681 C682 1.334 1_655 S
C682 H653 0.950 1_455 S
C682 C681 1.334 1_455 S
C682 C683 1.287 . S
C683 C682 1.287 . S
C683 C684 1.524 . S
C683 H686 0.999 . S
C684 H654 0.950 . S
C684 C683 1.524 . S
C684 C685 1.415 . S
C685 H655 0.950 . S
C685 C680 1.363 . S
C685 C684 1.415 . S
H686 C683 0.999 . S
H687 C668 0.913 . S
H688 C706 0.951 . S
H689 C708 0.951 . S
H690 C710 0.950 . S
H691 C711 0.950 . S
H692 C713 0.950 . S
H693 C716 0.950 . S
H694 C717 0.950 . S
H695 C719 0.950 . S
H696 C720 0.950 . S
H697 C721 0.951 . S
H698 C723 0.951 . S
H699 C725 0.950 . S
H700 C726 0.950 . S
H701 C728 0.950 . S
H702 C731 0.950 . S
H703 C732 0.950 . S
H704 C734 0.950 . S
H705 C735 0.950 . S
C706 H688 0.951 . S
C706 C707 1.366 . S
C706 C708 1.388 . S
C707 C706 1.366 . S
C707 C711 1.385 . S
C708 H689 0.951 . S
C708 C706 1.388 . S
C708 C709 1.366 . S
C709 C708 1.366 . S
C709 C710 1.414 . S
C709 C712 1.499 . S
C710 H690 0.950 . S
C710 C709 1.414 . S
C710 C711 1.374 . S
C711 H691 0.950 . S
C711 C707 1.385 . S
C711 C710 1.374 . S
C712 C709 1.499 . S
C712 C713 1.373 . S
C712 C714 1.389 . S
C713 H692 0.950 . S
C713 C712 1.373 . S
C713 C729 1.377 . S
C714 C712 1.389 . S
C714 C715 1.524 . S
C714 C728 1.377 . S
C715 C714 1.524 . S
C715 C716 1.397 . S
C715 C720 1.363 . S
C716 H693 0.950 . S
C716 C715 1.397 . S
C716 C717 1.334 . S
C717 H694 0.950 . S
C717 C716 1.334 . S
C717 C718 1.287 . S
C718 C717 1.287 . S
C718 C719 1.524 . S
C718 H737 0.913 . S
C719 H695 0.950 . S
C719 C718 1.524 . S
C719 C720 1.415 . S
C720 H696 0.950 . S
C720 C715 1.363 . S
C720 C719 1.415 . S
C721 H697 0.951 . S
C721 C722 1.366 . S
C721 C723 1.388 . S
C722 C721 1.366 . S
C722 C726 1.385 . S
C723 H698 0.951 . S
C723 C721 1.388 . S
C723 C724 1.366 . S
C724 C723 1.366 . S
C724 C725 1.414 . S
C724 C727 1.499 . S
C725 H699 0.950 . S
C725 C724 1.414 . S
C725 C726 1.374 . S
C726 H700 0.950 . S
C726 C722 1.385 . S
C726 C725 1.374 . S
C727 C724 1.499 . S
C727 C728 1.373 . S
C727 C729 1.389 . S
C728 H701 0.950 . S
C728 C714 1.377 . S
C728 C727 1.373 . S
C729 C713 1.377 . S
C729 C727 1.389 . S
C729 C730 1.524 . S
C730 C729 1.524 . S
C730 C731 1.397 . S
C730 C735 1.363 . S
C731 H702 0.950 . S
C731 C730 1.397 . S
C731 C732 1.334 . S
C732 H703 0.950 . S
C732 C731 1.334 . S
C732 C733 1.287 . S
C733 C732 1.287 . S
C733 C734 1.524 . S
C733 H736 0.999 . S
C734 H704 0.950 . S
C734 C733 1.524 . S
C734 C735 1.415 . S
C735 H705 0.950 . S
C735 C730 1.363 . S
C735 C734 1.415 . S
H736 C733 0.999 . S
H737 C718 0.913 . S
H738 C756 0.951 . S
H739 C758 0.951 . S
H740 C760 0.950 . S
H741 C761 0.950 . S
H742 C763 0.950 . S
H743 C766 0.950 . S
H744 C767 0.950 . S
H745 C769 0.950 . S
H746 C770 0.950 . S
H747 C771 0.951 . S
H748 C773 0.951 . S
H749 C775 0.950 . S
H750 C776 0.950 . S
H751 C778 0.950 . S
H752 C781 0.950 . S
H753 C782 0.950 . S
H754 C784 0.950 . S
H755 C785 0.950 . S
C756 H738 0.951 . S
C756 C757 1.366 . S
C756 C758 1.388 . S
C757 C756 1.366 . S
C757 C761 1.385 . S
C758 H739 0.951 . S
C758 C756 1.388 . S
C758 C759 1.366 . S
C759 C758 1.366 . S
C759 C760 1.414 . S
C759 C762 1.499 . S
C760 H740 0.950 . S
C760 C759 1.414 . S
C760 C761 1.374 . S
C761 H741 0.950 . S
C761 C757 1.385 . S
C761 C760 1.374 . S
C762 C759 1.499 . S
C762 C763 1.373 . S
C762 C764 1.389 . S
C763 H742 0.950 . S
C763 C762 1.373 . S
C763 C779 1.377 . S
C764 C762 1.389 . S
C764 C765 1.524 . S
C764 C778 1.377 . S
C765 C764 1.524 . S
C765 C766 1.397 . S
C765 C770 1.363 . S
C766 H743 0.950 . S
C766 C765 1.397 . S
C766 C767 1.334 . S
C767 H744 0.950 . S
C767 C766 1.334 . S
C767 C768 1.287 . S
C768 C767 1.287 . S
C768 C769 1.524 . S
C768 H787 0.913 . S
C769 H745 0.950 . S
C769 C768 1.524 . S
C769 C770 1.415 . S
C770 H746 0.950 . S
C770 C765 1.363 . S
C770 C769 1.415 . S
C771 H747 0.951 . S
C771 C772 1.366 . S
C771 C773 1.388 . S
C772 C771 1.366 . S
C772 C776 1.385 . S
C773 H748 0.951 . S
C773 C771 1.388 . S
C773 C774 1.366 . S
C774 C773 1.366 . S
C774 C775 1.414 . S
C774 C777 1.499 . S
C775 H749 0.950 . S
C775 C774 1.414 . S
C775 C776 1.374 . S
C776 H750 0.950 . S
C776 C772 1.385 . S
C776 C775 1.374 . S
C777 C774 1.499 . S
C777 C778 1.373 . S
C777 C779 1.389 . S
C778 H751 0.950 . S
C778 C764 1.377 . S
C778 C777 1.373 . S
C779 C763 1.377 . S
C779 C777 1.389 . S
C779 C780 1.524 . S
C780 C779 1.524 . S
C780 C781 1.397 . S
C780 C785 1.363 . S
C781 H752 0.950 . S
C781 C780 1.397 . S
C781 C782 1.334 . S
C782 H753 0.950 . S
C782 C781 1.334 . S
C782 C783 1.287 . S
C783 C782 1.287 . S
C783 C784 1.524 . S
C783 H786 0.999 . S
C784 H754 0.950 . S
C784 C783 1.524 . S
C784 C785 1.415 . S
C785 H755 0.950 . S
C785 C780 1.363 . S
C785 C784 1.415 . S
H786 C783 0.999 . S
H787 C768 0.913 . S
C222 C173 1.349 . S
C207 C27 1.384 . S
C257 N6 1.296 . S
C272 C141 1.314 . S
C307 C16 1.376 . S
C322 C179 1.341 . S
C357 N14 1.328 . S
C372 C147 1.309 . S
C407 C57 1.384 . S
C422 C109 1.350 . S
C457 N36 1.296 . S
C472 C77 1.314 . S
C522 C115 1.340 . S
C507 C46 1.376 . S
C572 C83 1.307 . S
C557 N44 1.328 . S
C607 C10 1.394 . S
C622 C89 1.365 . S
C657 C1 1.526 . S
C672 C121 1.495 . S
C722 C153 1.366 . S
C707 C40 1.394 . S
C757 C31 1.526 . S
C772 C185 1.496 . S
