# Generated by pormake.
# Topology ptr, (4,4)-cn, num edge types: 1
# Building blocks:
#     Node 0, Type 0, BuildingBlock: NAHDIM_clean_sbu_0, # of connection points: 4
#     Node 1, Type 0, BuildingBlock: NAHDIM_clean_sbu_0, # of connection points: 4
#     Node 2, Type 0, BuildingBlock: NAHDIM_clean_sbu_0, # of connection points: 4
#     Node 3, Type 0, BuildingBlock: NAHDIM_clean_sbu_0, # of connection points: 4
#     Node 4, Type 0, BuildingBlock: NAHDIM_clean_sbu_0, # of connection points: 4
#     Node 5, Type 0, BuildingBlock: NAHDIM_clean_sbu_0, # of connection points: 4
#     Node 6, Type 0, BuildingBlock: NAHDIM_clean_sbu_0, # of connection points: 4
#     Node 7, Type 0, BuildingBlock: NAHDIM_clean_sbu_0, # of connection points: 4
#     Node 8, Type 0, BuildingBlock: NAHDIM_clean_sbu_0, # of connection points: 4
#     Node 9, Type 0, BuildingBlock: NAHDIM_clean_sbu_0, # of connection points: 4
#     Node 10, Type 0, BuildingBlock: NAHDIM_clean_sbu_0, # of connection points: 4
#     Node 11, Type 0, BuildingBlock: NAHDIM_clean_sbu_0, # of connection points: 4
#     Node 12, Type 0, BuildingBlock: NAHDIM_clean_sbu_0, # of connection points: 4
#     Node 13, Type 0, BuildingBlock: NAHDIM_clean_sbu_0, # of connection points: 4
#     Node 14, Type 0, BuildingBlock: NAHDIM_clean_sbu_0, # of connection points: 4
#     Node 15, Type 0, BuildingBlock: NAHDIM_clean_sbu_0, # of connection points: 4
#     Node 16, Type 0, BuildingBlock: NAHDIM_clean_sbu_0, # of connection points: 4
#     Node 17, Type 0, BuildingBlock: NAHDIM_clean_sbu_0, # of connection points: 4
#     Node 18, Type 1, BuildingBlock: MIFKUJ_clean_linker_1, # of connection points: 4
#     Node 19, Type 1, BuildingBlock: MIFKUJ_clean_linker_1, # of connection points: 4
#     Node 20, Type 1, BuildingBlock: MIFKUJ_clean_linker_1, # of connection points: 4
#     Node 21, Type 1, BuildingBlock: MIFKUJ_clean_linker_1, # of connection points: 4
#     Node 22, Type 1, BuildingBlock: MIFKUJ_clean_linker_1, # of connection points: 4
#     Node 23, Type 1, BuildingBlock: MIFKUJ_clean_linker_1, # of connection points: 4
#     Node 24, Type 1, BuildingBlock: MIFKUJ_clean_linker_1, # of connection points: 4
#     Node 25, Type 1, BuildingBlock: MIFKUJ_clean_linker_1, # of connection points: 4
#     Node 26, Type 1, BuildingBlock: MIFKUJ_clean_linker_1, # of connection points: 4
#     Node 27, Type 1, BuildingBlock: MIFKUJ_clean_linker_1, # of connection points: 4
#     Node 28, Type 1, BuildingBlock: MIFKUJ_clean_linker_1, # of connection points: 4
#     Node 29, Type 1, BuildingBlock: MIFKUJ_clean_linker_1, # of connection points: 4
#     Node 30, Type 1, BuildingBlock: MIFKUJ_clean_linker_1, # of connection points: 4
#     Node 31, Type 1, BuildingBlock: MIFKUJ_clean_linker_1, # of connection points: 4
#     Node 32, Type 1, BuildingBlock: MIFKUJ_clean_linker_1, # of connection points: 4
#     Node 33, Type 1, BuildingBlock: MIFKUJ_clean_linker_1, # of connection points: 4
#     Node 34, Type 1, BuildingBlock: MIFKUJ_clean_linker_1, # of connection points: 4
#     Node 35, Type 1, BuildingBlock: MIFKUJ_clean_linker_1, # of connection points: 4
#     Edge 36, Type (0, 1), BuildingBlock: KIFKEQ_clean_linker_1, # of connection points: 2
#     Edge 37, Type (0, 1), BuildingBlock: KIFKEQ_clean_linker_1, # of connection points: 2
#     Edge 38, Type (0, 1), BuildingBlock: KIFKEQ_clean_linker_1, # of connection points: 2
#     Edge 39, Type (0, 1), BuildingBlock: KIFKEQ_clean_linker_1, # of connection points: 2
#     Edge 40, Type (0, 1), BuildingBlock: KIFKEQ_clean_linker_1, # of connection points: 2
#     Edge 41, Type (0, 1), BuildingBlock: KIFKEQ_clean_linker_1, # of connection points: 2
#     Edge 42, Type (0, 1), BuildingBlock: KIFKEQ_clean_linker_1, # of connection points: 2
#     Edge 43, Type (0, 1), BuildingBlock: KIFKEQ_clean_linker_1, # of connection points: 2
#     Edge 44, Type (0, 1), BuildingBlock: KIFKEQ_clean_linker_1, # of connection points: 2
#     Edge 45, Type (0, 1), BuildingBlock: KIFKEQ_clean_linker_1, # of connection points: 2
#     Edge 46, Type (0, 1), BuildingBlock: KIFKEQ_clean_linker_1, # of connection points: 2
#     Edge 47, Type (0, 1), BuildingBlock: KIFKEQ_clean_linker_1, # of connection points: 2
#     Edge 48, Type (0, 1), BuildingBlock: KIFKEQ_clean_linker_1, # of connection points: 2
#     Edge 49, Type (0, 1), BuildingBlock: KIFKEQ_clean_linker_1, # of connection points: 2
#     Edge 50, Type (0, 1), BuildingBlock: KIFKEQ_clean_linker_1, # of connection points: 2
#     Edge 51, Type (0, 1), BuildingBlock: KIFKEQ_clean_linker_1, # of connection points: 2
#     Edge 52, Type (0, 1), BuildingBlock: KIFKEQ_clean_linker_1, # of connection points: 2
#     Edge 53, Type (0, 1), BuildingBlock: KIFKEQ_clean_linker_1, # of connection points: 2
#     Edge 54, Type (0, 1), BuildingBlock: KIFKEQ_clean_linker_1, # of connection points: 2
#     Edge 55, Type (0, 1), BuildingBlock: KIFKEQ_clean_linker_1, # of connection points: 2
#     Edge 56, Type (0, 1), BuildingBlock: KIFKEQ_clean_linker_1, # of connection points: 2
#     Edge 57, Type (0, 1), BuildingBlock: KIFKEQ_clean_linker_1, # of connection points: 2
#     Edge 58, Type (0, 1), BuildingBlock: KIFKEQ_clean_linker_1, # of connection points: 2
#     Edge 59, Type (0, 1), BuildingBlock: KIFKEQ_clean_linker_1, # of connection points: 2
#     Edge 60, Type (0, 1), BuildingBlock: KIFKEQ_clean_linker_1, # of connection points: 2
#     Edge 61, Type (0, 1), BuildingBlock: KIFKEQ_clean_linker_1, # of connection points: 2
#     Edge 62, Type (0, 1), BuildingBlock: KIFKEQ_clean_linker_1, # of connection points: 2
#     Edge 63, Type (0, 1), BuildingBlock: KIFKEQ_clean_linker_1, # of connection points: 2
#     Edge 64, Type (0, 1), BuildingBlock: KIFKEQ_clean_linker_1, # of connection points: 2
#     Edge 65, Type (0, 1), BuildingBlock: KIFKEQ_clean_linker_1, # of connection points: 2
#     Edge 66, Type (0, 1), BuildingBlock: KIFKEQ_clean_linker_1, # of connection points: 2
#     Edge 67, Type (0, 1), BuildingBlock: KIFKEQ_clean_linker_1, # of connection points: 2
#     Edge 68, Type (0, 1), BuildingBlock: KIFKEQ_clean_linker_1, # of connection points: 2
#     Edge 69, Type (0, 1), BuildingBlock: KIFKEQ_clean_linker_1, # of connection points: 2
#     Edge 70, Type (0, 1), BuildingBlock: KIFKEQ_clean_linker_1, # of connection points: 2
#     Edge 71, Type (0, 1), BuildingBlock: KIFKEQ_clean_linker_1, # of connection points: 2
#     Edge 72, Type (0, 1), BuildingBlock: KIFKEQ_clean_linker_1, # of connection points: 2
#     Edge 73, Type (0, 1), BuildingBlock: KIFKEQ_clean_linker_1, # of connection points: 2
#     Edge 74, Type (0, 1), BuildingBlock: KIFKEQ_clean_linker_1, # of connection points: 2
#     Edge 75, Type (0, 1), BuildingBlock: KIFKEQ_clean_linker_1, # of connection points: 2
#     Edge 76, Type (0, 1), BuildingBlock: KIFKEQ_clean_linker_1, # of connection points: 2
#     Edge 77, Type (0, 1), BuildingBlock: KIFKEQ_clean_linker_1, # of connection points: 2
#     Edge 78, Type (0, 1), BuildingBlock: KIFKEQ_clean_linker_1, # of connection points: 2
#     Edge 79, Type (0, 1), BuildingBlock: KIFKEQ_clean_linker_1, # of connection points: 2
#     Edge 80, Type (0, 1), BuildingBlock: KIFKEQ_clean_linker_1, # of connection points: 2
#     Edge 81, Type (0, 1), BuildingBlock: KIFKEQ_clean_linker_1, # of connection points: 2
#     Edge 82, Type (0, 1), BuildingBlock: KIFKEQ_clean_linker_1, # of connection points: 2
#     Edge 83, Type (0, 1), BuildingBlock: KIFKEQ_clean_linker_1, # of connection points: 2
#     Edge 84, Type (0, 1), BuildingBlock: KIFKEQ_clean_linker_1, # of connection points: 2
#     Edge 85, Type (0, 1), BuildingBlock: KIFKEQ_clean_linker_1, # of connection points: 2
#     Edge 86, Type (0, 1), BuildingBlock: KIFKEQ_clean_linker_1, # of connection points: 2
#     Edge 87, Type (0, 1), BuildingBlock: KIFKEQ_clean_linker_1, # of connection points: 2
#     Edge 88, Type (0, 1), BuildingBlock: KIFKEQ_clean_linker_1, # of connection points: 2
#     Edge 89, Type (0, 1), BuildingBlock: KIFKEQ_clean_linker_1, # of connection points: 2
#     Edge 90, Type (0, 1), BuildingBlock: KIFKEQ_clean_linker_1, # of connection points: 2
#     Edge 91, Type (0, 1), BuildingBlock: KIFKEQ_clean_linker_1, # of connection points: 2
#     Edge 92, Type (0, 1), BuildingBlock: KIFKEQ_clean_linker_1, # of connection points: 2
#     Edge 93, Type (0, 1), BuildingBlock: KIFKEQ_clean_linker_1, # of connection points: 2
#     Edge 94, Type (0, 1), BuildingBlock: KIFKEQ_clean_linker_1, # of connection points: 2
#     Edge 95, Type (0, 1), BuildingBlock: KIFKEQ_clean_linker_1, # of connection points: 2
#     Edge 96, Type (0, 1), BuildingBlock: KIFKEQ_clean_linker_1, # of connection points: 2
#     Edge 97, Type (0, 1), BuildingBlock: KIFKEQ_clean_linker_1, # of connection points: 2
#     Edge 98, Type (0, 1), BuildingBlock: KIFKEQ_clean_linker_1, # of connection points: 2
#     Edge 99, Type (0, 1), BuildingBlock: KIFKEQ_clean_linker_1, # of connection points: 2
#     Edge 100, Type (0, 1), BuildingBlock: KIFKEQ_clean_linker_1, # of connection points: 2
#     Edge 101, Type (0, 1), BuildingBlock: KIFKEQ_clean_linker_1, # of connection points: 2
#     Edge 102, Type (0, 1), BuildingBlock: KIFKEQ_clean_linker_1, # of connection points: 2
#     Edge 103, Type (0, 1), BuildingBlock: KIFKEQ_clean_linker_1, # of connection points: 2
#     Edge 104, Type (0, 1), BuildingBlock: KIFKEQ_clean_linker_1, # of connection points: 2
#     Edge 105, Type (0, 1), BuildingBlock: KIFKEQ_clean_linker_1, # of connection points: 2
#     Edge 106, Type (0, 1), BuildingBlock: KIFKEQ_clean_linker_1, # of connection points: 2
#     Edge 107, Type (0, 1), BuildingBlock: KIFKEQ_clean_linker_1, # of connection points: 2
# Relax obj value: 0.073
# Max RMSD: 0.246
# Mean RMSD: 0.109
data_MOF--net-ptr--node1-NAHDIM_clean_sbu_0--node2-MIFKUJ_clean_linker_1--edge1-KIFKEQ_clean_linker_1
_symmetry_space_group_name_H-M    P1
_symmetry_Int_Tables_number       1
_symmetry_cell_setting            triclinic
loop_
_symmetry_equiv_pos_as_xyz
'x, y, z'
_cell_length_a     92.719843
_cell_length_b     90.991139
_cell_length_c     61.443074
_cell_angle_alpha  91.744531
_cell_angle_beta   89.1392
_cell_angle_gamma 121.80619
loop_
_atom_site_label
_atom_site_type_symbol
_atom_site_fract_x
_atom_site_fract_y
_atom_site_fract_z
_atom_type_partial_charge
C0 C 0.03612 0.34337 0.01345 0.0
O1 O 0.02668 0.33296 0.99744 0.0
O2 O 0.99509 0.3317 0.00148 0.0
Zn3 Zn 0.01355 0.35596 0.01019 0.0
O4 O 0.00653 0.3659 0.03488 0.0
C5 C 0.00923 0.36752 0.96922 0.0
O6 O 0.99454 0.35285 0.97006 0.0
O7 O 0.03335 0.35487 0.02078 0.0
C8 C 0.99667 0.37148 0.03242 0.0
O9 O 0.98995 0.37001 0.01319 0.0
C10 C 0.97954 0.32392 0.00684 0.0
O11 O 0.97414 0.33178 0.01978 0.0
O12 O 0.0199 0.37157 0.9845 0.0
C13 C 0.68163 0.65682 0.98166 0.0
O14 O 0.67094 0.6591 0.97068 0.0
O15 O 0.65937 0.66946 0.02525 0.0
Zn16 Zn 0.65552 0.64694 0.01271 0.0
O17 O 0.63836 0.63738 0.98845 0.0
C18 C 0.63644 0.63087 0.05021 0.0
O19 O 0.63324 0.64318 0.0478 0.0
O20 O 0.67771 0.65104 0.00082 0.0
C21 C 0.6257 0.63911 0.98683 0.0
O22 O 0.62316 0.64811 0.00183 0.0
C23 C 0.66395 0.6832 0.0151 0.0
O24 O 0.66642 0.68352 0.99398 0.0
O25 O 0.6463 0.62959 0.03674 0.0
C26 C 0.33815 0.02572 0.98683 0.0
O27 O 0.32858 0.00916 0.98172 0.0
O28 O 0.32987 0.99311 0.02143 0.0
Zn29 Zn 0.35284 0.0113 0.01027 0.0
O30 O 0.36018 0.00255 0.98455 0.0
C31 C 0.36615 0.01283 0.05315 0.0
O32 O 0.34999 0.0025 0.05766 0.0
O33 O 0.35053 0.0307 0.99983 0.0
C34 C 0.368 0.99468 0.98683 0.0
O35 O 0.37058 0.99129 0.00653 0.0
C36 C 0.32368 0.97689 0.02108 0.0
O37 O 0.33243 0.97067 0.01228 0.0
O38 O 0.37042 0.01897 0.03419 0.0
C39 C 0.97332 0.6575 0.98092 0.0
O40 O 0.98644 0.65985 0.96951 0.0
O41 O 0.00956 0.67446 0.02018 0.0
Zn42 Zn 0.99076 0.65035 0.01158 0.0
O43 O 0.99756 0.63958 0.98758 0.0
C44 C 0.99442 0.63912 0.05312 0.0
O45 O 0.009 0.6539 0.05241 0.0
O46 O 0.97175 0.65267 0.00048 0.0
C47 C 0.00789 0.63461 0.99011 0.0
O48 O 0.01532 0.63713 0.00907 0.0
C49 C 0.02485 0.6824 0.01364 0.0
O50 O 0.02973 0.67482 0.99941 0.0
O51 O 0.9839 0.63487 0.0376 0.0
C52 C 0.31303 0.34206 0.03505 0.0
O53 O 0.32107 0.33443 0.04071 0.0
O54 O 0.33651 0.33433 0.99615 0.0
Zn55 Zn 0.34145 0.35739 0.0082 0.0
O56 O 0.35856 0.36673 0.0326 0.0
C57 C 0.35827 0.37262 0.96839 0.0
O58 O 0.3599 0.35913 0.96812 0.0
O59 O 0.31952 0.35344 0.0205 0.0
C60 C 0.37394 0.371 0.03042 0.0
O61 O 0.37927 0.3688 0.01138 0.0
C62 C 0.34228 0.32543 0.00315 0.0
O63 O 0.35264 0.3312 0.01991 0.0
O64 O 0.35036 0.3747 0.98411 0.0
C65 C 0.65351 0.97302 0.03189 0.0
O66 O 0.65643 0.98677 0.0433 0.0
O67 O 0.67087 0.00993 0.99312 0.0
Zn68 Zn 0.64731 0.99121 0.00141 0.0
O69 O 0.63725 0.99882 0.0253 0.0
C70 C 0.63098 0.99781 0.96956 0.0
O71 O 0.63974 0.01257 0.9805 0.0
O72 O 0.64879 0.97135 0.01217 0.0
C73 C 0.62133 0.98883 0.02779 0.0
O74 O 0.61312 0.97496 0.01508 0.0
C75 C 0.67805 0.02593 0.99804 0.0
O76 O 0.66997 0.03145 0.01017 0.0
O77 O 0.63226 0.98518 0.97505 0.0
C78 C 0.69371 0.67501 0.34691 0.0
O79 O 0.68528 0.6656 0.32971 0.0
O80 O 0.65386 0.6682 0.32963 0.0
Zn81 Zn 0.67309 0.69033 0.34264 0.0
O82 O 0.66483 0.69866 0.36773 0.0
C83 C 0.68717 0.72379 0.3232 0.0
O84 O 0.68603 0.72861 0.3432 0.0
O85 O 0.69086 0.6864 0.35447 0.0
C86 C 0.65086 0.69813 0.3681 0.0
O87 O 0.64056 0.69139 0.35131 0.0
C88 C 0.64649 0.65405 0.33968 0.0
O89 O 0.6513 0.65378 0.3596 0.0
O90 O 0.68279 0.70817 0.31925 0.0
C91 C 0.34721 0.99374 0.32354 0.0
O92 O 0.34154 0.00375 0.31857 0.0
O93 O 0.3242 0.00378 0.36006 0.0
Zn94 Zn 0.31768 0.98002 0.34869 0.0
O95 O 0.30081 0.97155 0.32406 0.0
C96 C 0.30011 0.96614 0.38865 0.0
O97 O 0.29974 0.98037 0.38853 0.0
O98 O 0.33885 0.98173 0.33696 0.0
C99 C 0.28586 0.96862 0.3259 0.0
O100 O 0.28088 0.97168 0.34471 0.0
C101 C 0.31978 0.01348 0.35188 0.0
O102 O 0.31016 0.00818 0.33442 0.0
O103 O 0.30748 0.96309 0.37313 0.0
C104 C 0.01453 0.36218 0.31715 0.0
O105 O 0.01194 0.34841 0.3061 0.0
O106 O 0.00093 0.32759 0.36343 0.0
Zn107 Zn 0.023 0.34676 0.35088 0.0
O108 O 0.03276 0.3377 0.32852 0.0
C109 C 0.03778 0.35335 0.39433 0.0
O110 O 0.02259 0.34064 0.39978 0.0
O111 O 0.01945 0.36441 0.33685 0.0
C112 C 0.02493 0.32373 0.31719 0.0
O113 O 0.0085 0.31323 0.31974 0.0
C114 C 0.98648 0.32214 0.35496 0.0
O115 O 0.98555 0.3287 0.33669 0.0
O116 O 0.04055 0.35834 0.37476 0.0
C117 C 0.64297 0.99051 0.31511 0.0
O118 O 0.65898 0.0005 0.30961 0.0
O119 O 0.67569 0.00227 0.35321 0.0
Zn120 Zn 0.65859 0.97831 0.34153 0.0
O121 O 0.66807 0.97053 0.31721 0.0
C122 C 0.66121 0.96432 0.38127 0.0
O123 O 0.67616 0.97874 0.38139 0.0
O124 O 0.63905 0.97914 0.32934 0.0
C125 C 0.68055 0.96855 0.31936 0.0
O126 O 0.68834 0.97222 0.33824 0.0
C127 C 0.6902 0.01248 0.34505 0.0
O128 O 0.69502 0.00763 0.32749 0.0
O129 O 0.65098 0.96124 0.36575 0.0
C130 C 0.98047 0.6765 0.36571 0.0
O131 O 0.98776 0.66835 0.37229 0.0
O132 O 0.006 0.66927 0.32927 0.0
Zn133 Zn 0.01033 0.69221 0.34094 0.0
O134 O 0.02686 0.7016 0.36601 0.0
C135 C 0.02769 0.70751 0.30124 0.0
O136 O 0.02935 0.69404 0.30097 0.0
O137 O 0.988 0.68817 0.35167 0.0
C138 C 0.04219 0.70569 0.36399 0.0
O139 O 0.04751 0.70333 0.34502 0.0
C140 C 0.01146 0.66039 0.3373 0.0
O141 O 0.02086 0.66605 0.35496 0.0
O142 O 0.01968 0.70952 0.31687 0.0
C143 C 0.32825 0.31472 0.36793 0.0
O144 O 0.33765 0.33159 0.37097 0.0
O145 O 0.33236 0.34246 0.32621 0.0
Zn146 Zn 0.31089 0.32519 0.34145 0.0
O147 O 0.30453 0.33689 0.36476 0.0
C148 C 0.29355 0.31574 0.29966 0.0
O149 O 0.30888 0.32626 0.2921 0.0
O150 O 0.31534 0.30841 0.35559 0.0
C151 C 0.29421 0.34157 0.36027 0.0
O152 O 0.2884 0.33924 0.34029 0.0
C153 C 0.33835 0.35864 0.32634 0.0
O154 O 0.33026 0.36492 0.33692 0.0
O155 O 0.29155 0.31285 0.31993 0.0
C156 C 0.36173 0.01144 0.68124 0.0
O157 O 0.35238 0.00046 0.66561 0.0
O158 O 0.32063 -0.00083 0.66661 0.0
Zn159 Zn 0.33855 0.02328 0.67676 0.0
O160 O 0.33025 0.03219 0.70117 0.0
C161 C 0.33529 0.03621 0.63626 0.0
O162 O 0.32042 0.0217 0.63635 0.0
O163 O 0.35845 0.0227 0.68807 0.0
C164 C 0.31814 0.03477 0.6991 0.0
O165 O 0.31004 0.0309 0.68043 0.0
C166 C 0.30647 0.98939 0.67583 0.0
O167 O 0.30256 0.99485 0.69367 0.0
O168 O 0.34557 0.03963 0.65183 0.0
C169 C 0.02409 0.32669 0.67214 0.0
O170 O 0.02493 0.33623 0.68914 0.0
O171 O 0.99252 0.33504 0.68801 0.0
Zn172 Zn 0.98792 0.31185 0.67681 0.0
O173 O 0.97082 0.30205 0.65241 0.0
C174 C 0.97166 0.29716 0.71735 0.0
O175 O 0.97006 0.31067 0.71782 0.0
O176 O 0.00964 0.31515 0.66467 0.0
C177 C 0.95511 0.29633 0.65494 0.0
O178 O 0.94942 0.29718 0.67435 0.0
C179 C 0.98509 0.34261 0.68186 0.0
O180 O 0.97347 0.33537 0.66657 0.0
O181 O 0.9792 0.29493 0.70131 0.0
C182 C 0.66906 0.68873 0.65531 0.0
O183 O 0.65945 0.67192 0.65187 0.0
O184 O 0.66506 0.6594 0.69442 0.0
Zn185 Zn 0.6865 0.67711 0.67935 0.0
O186 O 0.69269 0.66651 0.65452 0.0
C187 C 0.70396 0.68495 0.72086 0.0
O188 O 0.68851 0.67482 0.72832 0.0
O189 O 0.68222 0.69468 0.66713 0.0
C190 C 0.69883 0.6572 0.65814 0.0
O191 O 0.70044 0.65397 0.67837 0.0
C192 C 0.65648 0.64327 0.6899 0.0
O193 O 0.66154 0.63694 0.67418 0.0
O194 O 0.70607 0.68819 0.70067 0.0
C195 C 0.29455 0.30881 0.64944 0.0
O196 O 0.29698 0.29706 0.64028 0.0
O197 O 0.34095 0.33961 0.68743 0.0
Zn198 Zn 0.32289 0.31576 0.67658 0.0
O199 O 0.33125 0.30705 0.65189 0.0
C200 C 0.32553 0.30229 0.71691 0.0
O201 O 0.3403 0.31692 0.71719 0.0
O202 O 0.30364 0.31771 0.66565 0.0
C203 C 0.34172 0.30228 0.65461 0.0
O204 O 0.34809 0.30374 0.67408 0.0
C205 C 0.35623 0.34821 0.68091 0.0
O206 O 0.36133 0.34165 0.66551 0.0
O207 O 0.31541 0.29893 0.70115 0.0
C208 C 0.64809 0.01314 0.67968 0.0
O209 O 0.64636 0.00245 0.66362 0.0
O210 O 0.67689 0.00182 0.66161 0.0
Zn211 Zn 0.68364 0.02511 0.67473 0.0
O212 O 0.70027 0.03164 0.69945 0.0
C213 C 0.68856 0.04205 0.63309 0.0
O214 O 0.67335 0.02888 0.62819 0.0
O215 O 0.66288 0.02423 0.68666 0.0
C216 C 0.71612 0.04148 0.69618 0.0
O217 O 0.72157 0.04672 0.67638 0.0
C218 C 0.68673 0.99606 0.66072 0.0
O219 O 0.70211 0.00552 0.66885 0.0
O220 O 0.6948 0.043 0.65173 0.0
C221 C 0.98744 0.63956 0.69443 0.0
O222 O 0.9975 0.65619 0.69879 0.0
O223 O 0.99521 0.6712 0.65604 0.0
Zn224 Zn 0.97274 0.65336 0.669 0.0
O225 O 0.96573 0.66319 0.69382 0.0
C226 C 0.9573 0.64827 0.62645 0.0
O227 O 0.97304 0.65885 0.62027 0.0
O228 O 0.97524 0.6346 0.68117 0.0
C229 C 0.96171 0.67441 0.69151 0.0
O230 O 0.96277 0.68067 0.67216 0.0
C231 C 0.00473 0.68659 0.6634 0.0
O232 O 6e-05 0.69182 0.68075 0.0
O233 O 0.9543 0.6438 0.64621 0.0
H234 H 0.1383 0.3231 0.20197 0.0
H235 H 0.11761 0.32611 0.22342 0.0
H236 H 0.07679 0.28216 0.18859 0.0
H237 H 0.09772 0.27914 0.16707 0.0
H238 H 0.14313 0.29621 0.19946 0.0
H239 H 0.12911 0.32768 0.15228 0.0
H240 H 0.11265 0.33479 0.12897 0.0
H241 H 0.09817 0.28925 0.08877 0.0
H242 H 0.11417 0.28188 0.11267 0.0
H243 H 0.16142 0.28147 0.11322 0.0
H244 H 0.18686 0.28819 0.09243 0.0
H245 H 0.21745 0.33139 0.13656 0.0
H246 H 0.19201 0.32495 0.15677 0.0
H247 H 0.14845 0.30196 0.11931 0.0
H248 H 0.16888 0.27505 0.16581 0.0
H249 H 0.19025 0.27389 0.18736 0.0
H250 H 0.19657 0.31655 0.22794 0.0
H251 H 0.17522 0.31757 0.20651 0.0
C252 C 0.11954 0.30092 0.18293 0.0
C253 C 0.1249 0.3141 0.19893 0.0
C254 C 0.11307 0.31589 0.21105 0.0
C255 C 0.09559 0.30443 0.20757 0.0
C256 C 0.09019 0.29114 0.19162 0.0
C257 C 0.1021 0.28945 0.17929 0.0
C258 C 0.13242 0.29929 0.17039 0.0
C259 C 0.14429 0.29743 0.18192 0.0
C260 C 0.13371 0.30053 0.14747 0.0
C261 C 0.12263 0.30409 0.13442 0.0
C262 C 0.12207 0.31901 0.13875 0.0
C263 C 0.11286 0.3232 0.12521 0.0
C264 C 0.10417 0.31263 0.10695 0.0
C265 C 0.10456 0.29755 0.10284 0.0
C266 C 0.11375 0.29336 0.11642 0.0
C267 C 0.17485 0.30256 0.1367 0.0
C268 C 0.17364 0.29233 0.11843 0.0
C269 C 0.18818 0.29613 0.10665 0.0
C270 C 0.20415 0.31035 0.11283 0.0
C271 C 0.20531 0.32049 0.13123 0.0
C272 C 0.1908 0.31667 0.14297 0.0
C273 C 0.1594 0.29932 0.14844 0.0
C274 C 0.14701 0.30019 0.13676 0.0
C275 C 0.15784 0.29754 0.17128 0.0
C276 C 0.17047 0.29642 0.18452 0.0
C277 C 0.1749 0.28416 0.17935 0.0
C278 C 0.18712 0.28352 0.19164 0.0
C279 C 0.19506 0.29508 0.20941 0.0
C280 C 0.19048 0.30725 0.21462 0.0
C281 C 0.1783 0.30788 0.20234 0.0
H282 H 0.72854 0.88999 0.18373 0.0
H283 H 0.72896 0.91188 0.20843 0.0
H284 H 0.67785 0.89501 0.18896 0.0
H285 H 0.67723 0.87286 0.16493 0.0
H286 H 0.70911 0.85643 0.18661 0.0
H287 H 0.71742 0.89607 0.12901 0.0
H288 H 0.71072 0.91468 0.10927 0.0
H289 H 0.6594 0.87139 0.09927 0.0
H290 H 0.66641 0.85284 0.11835 0.0
H291 H 0.66744 0.81104 0.11707 0.0
H292 H 0.66193 0.78529 0.09622 0.0
H293 H 0.71274 0.79763 0.11013 0.0
H294 H 0.71832 0.82365 0.13061 0.0
H295 H 0.68955 0.84404 0.10985 0.0
H296 H 0.67718 0.80582 0.16783 0.0
H297 H 0.67802 0.78602 0.19286 0.0
H298 H 0.73109 0.82343 0.20558 0.0
H299 H 0.72997 0.84337 0.18084 0.0
C300 C 0.70296 0.87992 0.17217 0.0
C301 C 0.71749 0.89113 0.18461 0.0
C302 C 0.71773 0.9036 0.19871 0.0
C303 C 0.70347 0.90517 0.2005 0.0
C304 C 0.68912 0.89429 0.18761 0.0
C305 C 0.6888 0.88167 0.17378 0.0
C306 C 0.702 0.86542 0.15912 0.0
C307 C 0.7053 0.854 0.16963 0.0
C308 C 0.69627 0.86176 0.13727 0.0
C309 C 0.6924 0.87311 0.12518 0.0
C310 C 0.70475 0.89064 0.1225 0.0
C311 C 0.70086 0.90126 0.1113 0.0
C312 C 0.68449 0.89456 0.10267 0.0
C313 C 0.67221 0.87694 0.10532 0.0
C314 C 0.67616 0.86632 0.11633 0.0
C315 C 0.69327 0.81921 0.12545 0.0
C316 C 0.6774 0.8082 0.11561 0.0
C317 C 0.67422 0.79343 0.10385 0.0
C318 C 0.6869 0.78944 0.10158 0.0
C319 C 0.70279 0.80047 0.11146 0.0
C320 C 0.70594 0.81523 0.12331 0.0
C321 C 0.69661 0.83509 0.13741 0.0
C322 C 0.69379 0.84674 0.12667 0.0
C323 C 0.70236 0.83872 0.15921 0.0
C324 C 0.70354 0.82602 0.17237 0.0
C325 C 0.68908 0.80961 0.17568 0.0
C326 C 0.68961 0.79828 0.19 0.0
C327 C 0.70463 0.80312 0.20132 0.0
C328 C 0.71925 0.81938 0.19741 0.0
C329 C 0.71867 0.83075 0.18317 0.0
H330 H 0.11508 0.8419 0.18105 0.0
H331 H 0.09236 0.81926 0.20298 0.0
H332 H 0.1071 0.78351 0.18072 0.0
H333 H 0.12975 0.80613 0.15904 0.0
H334 H 0.14852 0.85553 0.18537 0.0
H335 H 0.10732 0.82376 0.1283 0.0
H336 H 0.08772 0.79797 0.10658 0.0
H337 H 0.1295 0.79246 0.08611 0.0
H338 H 0.14877 0.81757 0.10874 0.0
H339 H 0.18993 0.85731 0.11503 0.0
H340 H 0.21613 0.87679 0.09581 0.0
H341 H 0.21083 0.91995 0.11418 0.0
H342 H 0.18424 0.9002 0.133 0.0
H343 H 0.15881 0.84947 0.10717 0.0
H344 H 0.19856 0.87529 0.165 0.0
H345 H 0.21934 0.8965 0.19091 0.0
H346 H 0.18329 0.91031 0.21214 0.0
H347 H 0.16261 0.88935 0.18569 0.0
C348 C 0.12397 0.82565 0.16817 0.0
C349 C 0.11329 0.82913 0.18077 0.0
C350 C 0.10036 0.81621 0.19332 0.0
C351 C 0.0979 0.79959 0.1935 0.0
C352 C 0.10845 0.79609 0.1806 0.0
C353 C 0.12142 0.80901 0.16819 0.0
C354 C 0.13852 0.83968 0.15622 0.0
C355 C 0.15059 0.85444 0.16813 0.0
C356 C 0.1415 0.83788 0.13392 0.0
C357 C 0.1295 0.82252 0.12035 0.0
C358 C 0.11221 0.81687 0.11931 0.0
C359 C 0.10105 0.80224 0.10667 0.0
C360 C 0.10702 0.7931 0.09463 0.0
C361 C 0.1244 0.79898 0.09546 0.0
C362 C 0.13548 0.81349 0.10822 0.0
C363 C 0.18515 0.87731 0.12547 0.0
C364 C 0.19439 0.87097 0.1149 0.0
C365 C 0.20945 0.88214 0.10409 0.0
C366 C 0.21559 0.89992 0.10355 0.0
C367 C 0.20634 0.90629 0.11418 0.0
C368 C 0.19124 0.89506 0.12507 0.0
C369 C 0.16899 0.86509 0.13645 0.0
C370 C 0.15658 0.85075 0.12431 0.0
C371 C 0.16596 0.86701 0.15869 0.0
C372 C 0.17909 0.88091 0.17309 0.0
C373 C 0.19526 0.88322 0.17474 0.0
C374 C 0.20712 0.8953 0.18963 0.0
C375 C 0.20292 0.90506 0.20349 0.0
C376 C 0.18681 0.90289 0.2017 0.0
C377 C 0.17502 0.89095 0.18659 0.0
H378 H 0.27883 0.16807 0.83252 0.0
H379 H 0.28149 0.19102 0.80986 0.0
H380 H 0.33078 0.22666 0.83812 0.0
H381 H 0.32838 0.20352 0.85987 0.0
H382 H 0.29796 0.15432 0.83131 0.0
H383 H 0.28517 0.18492 0.88551 0.0
H384 H 0.29016 0.21036 0.90688 0.0
H385 H 0.33605 0.21645 0.93299 0.0
H386 H 0.3313 0.19136 0.91125 0.0
H387 H 0.33209 0.15173 0.90622 0.0
H388 H 0.33728 0.13189 0.92536 0.0
H389 H 0.28955 0.08873 0.90142 0.0
H390 H 0.28407 0.10881 0.88306 0.0
H391 H 0.30878 0.15935 0.91075 0.0
H392 H 0.32558 0.13394 0.85434 0.0
H393 H 0.32511 0.11218 0.82955 0.0
H394 H 0.27577 0.09857 0.80613 0.0
H395 H 0.27612 0.12015 0.8313 0.0
C396 C 0.30332 0.18409 0.84806 0.0
C397 C 0.29017 0.18086 0.83388 0.0
C398 C 0.29165 0.19403 0.82106 0.0
C399 C 0.30637 0.21069 0.82213 0.0
C400 C 0.31937 0.21394 0.83667 0.0
C401 C 0.31792 0.20076 0.84935 0.0
C402 C 0.30233 0.16984 0.86047 0.0
C403 C 0.29993 0.15522 0.84878 0.0
C404 C 0.3054 0.17127 0.88316 0.0
C405 C 0.30794 0.1863 0.8966 0.0
C406 C 0.29637 0.19181 0.8957 0.0
C407 C 0.29921 0.2063 0.90793 0.0
C408 C 0.31349 0.21534 0.92156 0.0
C409 C 0.32485 0.20961 0.92279 0.0
C410 C 0.32213 0.19527 0.91037 0.0
C411 C 0.30774 0.13176 0.89309 0.0
C412 C 0.32266 0.138 0.90523 0.0
C413 C 0.3257 0.12661 0.91598 0.0
C414 C 0.3139 0.1087 0.9148 0.0
C415 C 0.29885 0.10246 0.90281 0.0
C416 C 0.29577 0.1139 0.89213 0.0
C417 C 0.30495 0.14412 0.88148 0.0
C418 C 0.3065 0.1583 0.89334 0.0
C419 C 0.30147 0.14247 0.85888 0.0
C420 C 0.30077 0.12851 0.84492 0.0
C421 C 0.31447 0.126 0.84426 0.0
C422 C 0.31421 0.11359 0.83006 0.0
C423 C 0.30038 0.10367 0.81595 0.0
C424 C 0.28663 0.10611 0.81673 0.0
C425 C 0.28681 0.11839 0.83112 0.0
H426 H 0.8367 0.11372 0.8413 0.0
H427 H 0.81525 0.09237 0.81599 0.0
H428 H 0.78389 0.11373 0.82959 0.0
H429 H 0.80509 0.1345 0.85538 0.0
H430 H 0.85285 0.15022 0.83687 0.0
H431 H 0.81762 0.10648 0.88929 0.0
H432 H 0.79136 0.08692 0.90866 0.0
H433 H 0.78744 0.13049 0.92957 0.0
H434 H 0.81324 0.14981 0.90949 0.0
H435 H 0.85545 0.18982 0.91358 0.0
H436 H 0.87591 0.21496 0.93546 0.0
H437 H 0.9158 0.2067 0.91428 0.0
H438 H 0.89519 0.18135 0.89254 0.0
H439 H 0.8443 0.15749 0.91538 0.0
H440 H 0.87286 0.20011 0.86306 0.0
H441 H 0.89511 0.22243 0.84067 0.0
H442 H 0.90851 0.18599 0.81684 0.0
H443 H 0.8862 0.16364 0.83951 0.0
C444 C 0.82241 0.12558 0.85028 0.0
C445 C 0.82507 0.11358 0.839 0.0
C446 C 0.81283 0.10147 0.82444 0.0
C447 C 0.79783 0.10134 0.82062 0.0
C448 C 0.7951 0.1132 0.83236 0.0
C449 C 0.80726 0.12516 0.84707 0.0
C450 C 0.83597 0.1394 0.86416 0.0
C451 C 0.8512 0.15163 0.85417 0.0
C452 C 0.83336 0.14165 0.88642 0.0
C453 C 0.81733 0.12959 0.89781 0.0
C454 C 0.81097 0.11176 0.89781 0.0
C455 C 0.79607 0.10064 0.9091 0.0
C456 C 0.78732 0.10715 0.92068 0.0
C457 C 0.79373 0.12501 0.92059 0.0
C458 C 0.80857 0.13609 0.90927 0.0
C459 C 0.87378 0.18373 0.90132 0.0
C460 C 0.86857 0.19332 0.91377 0.0
C461 C 0.88026 0.20766 0.9263 0.0
C462 C 0.89744 0.21276 0.9266 0.0
C463 C 0.90266 0.20316 0.91417 0.0
C464 C 0.89092 0.1887 0.90174 0.0
C465 C 0.86118 0.1685 0.88808 0.0
C466 C 0.84615 0.15598 0.89816 0.0
C467 C 0.86364 0.16642 0.86567 0.0
C468 C 0.87801 0.18025 0.85323 0.0
C469 C 0.88083 0.197 0.85342 0.0
C470 C 0.89356 0.20976 0.84059 0.0
C471 C 0.90362 0.20599 0.82704 0.0
C472 C 0.9009 0.18925 0.827 0.0
C473 C 0.8882 0.1765 0.83998 0.0
H474 H 0.8228 0.68393 0.81583 0.0
H475 H 0.80126 0.6844 0.79413 0.0
H476 H 0.80553 0.72578 0.83556 0.0
H477 H 0.82704 0.7251 0.85741 0.0
H478 H 0.85495 0.707 0.82354 0.0
H479 H 0.80521 0.67382 0.86657 0.0
H480 H 0.77942 0.66686 0.88659 0.0
H481 H 0.80868 0.71231 0.92795 0.0
H482 H 0.83449 0.71922 0.9078 0.0
H483 H 0.89764 0.72205 0.88108 0.0
H484 H 0.91655 0.71637 0.90158 0.0
H485 H 0.8738 0.66583 0.91726 0.0
H486 H 0.85503 0.67197 0.89762 0.0
H487 H 0.84774 0.69711 0.90295 0.0
H488 H 0.8878 0.72654 0.82346 0.0
H489 H 0.90681 0.72332 0.79869 0.0
H490 H 0.89231 0.67479 0.82802 0.0
H491 H 0.87238 0.67743 0.85139 0.0
C492 C 0.82651 0.70444 0.83826 0.0
C493 C 0.8192 0.69319 0.82015 0.0
C494 C 0.80692 0.69353 0.80771 0.0
C495 C 0.80172 0.70519 0.81303 0.0
C496 C 0.80911 0.71652 0.83116 0.0
C497 C 0.82143 0.71616 0.84364 0.0
C498 C 0.83937 0.70372 0.85149 0.0
C499 C 0.85357 0.70513 0.84098 0.0
C500 C 0.83728 0.70078 0.87408 0.0
C501 C 0.82167 0.69711 0.88561 0.0
C502 C 0.80603 0.68235 0.87983 0.0
C503 C 0.79137 0.67831 0.89138 0.0
C504 C 0.7921 0.68903 0.90884 0.0
C505 C 0.80777 0.70391 0.91447 0.0
C506 C 0.82248 0.70784 0.90305 0.0
C507 C 0.87497 0.69743 0.88786 0.0
C508 C 0.89239 0.70982 0.8891 0.0
C509 C 0.90318 0.70649 0.90072 0.0
C510 C 0.89674 0.69061 0.91111 0.0
C511 C 0.87921 0.67833 0.90991 0.0
C512 C 0.86844 0.68177 0.89857 0.0
C513 C 0.86343 0.70046 0.87503 0.0
C514 C 0.8495 0.69956 0.88564 0.0
C515 C 0.86547 0.70318 0.85233 0.0
C516 C 0.87876 0.70235 0.83953 0.0
C517 C 0.88882 0.71527 0.82465 0.0
C518 C 0.89983 0.71347 0.8106 0.0
C519 C 0.90109 0.69874 0.81121 0.0
C520 C 0.89149 0.68616 0.82676 0.0
C521 C 0.88028 0.68783 0.84051 0.0
H522 H 0.80555 0.65962 0.52861 0.0
H523 H 0.78561 0.66038 0.55416 0.0
H524 H 0.74402 0.61602 0.52088 0.0
H525 H 0.76421 0.61541 0.49502 0.0
H526 H 0.81108 0.63365 0.5241 0.0
H527 H 0.79304 0.66332 0.47971 0.0
H528 H 0.77462 0.66903 0.45832 0.0
H529 H 0.76109 0.62421 0.41714 0.0
H530 H 0.77907 0.6182 0.43916 0.0
H531 H 0.82703 0.61915 0.43664 0.0
H532 H 0.85222 0.62545 0.41546 0.0
H533 H 0.88332 0.66965 0.45801 0.0
H534 H 0.85816 0.66361 0.47856 0.0
H535 H 0.81323 0.6392 0.44394 0.0
H536 H 0.8369 0.61386 0.48809 0.0
H537 H 0.8586 0.61288 0.50918 0.0
H538 H 0.86464 0.65509 0.55045 0.0
H539 H 0.84305 0.656 0.52944 0.0
C540 C 0.78638 0.63739 0.51003 0.0
C541 C 0.79213 0.6501 0.52672 0.0
C542 C 0.78072 0.65047 0.54137 0.0
C543 C 0.76328 0.63808 0.53976 0.0
C544 C 0.75739 0.62574 0.5225 0.0
C545 C 0.76889 0.62537 0.50775 0.0
C546 C 0.799 0.63631 0.49614 0.0
C547 C 0.81157 0.63491 0.50656 0.0
C548 C 0.79933 0.63742 0.47321 0.0
C549 C 0.78723 0.64018 0.46124 0.0
C550 C 0.78581 0.6545 0.46639 0.0
C551 C 0.77546 0.65789 0.45394 0.0
C552 C 0.76645 0.64712 0.43595 0.0
C553 C 0.7677 0.63264 0.43103 0.0
C554 C 0.77804 0.62924 0.44352 0.0
C555 C 0.84078 0.64076 0.45934 0.0
C556 C 0.83929 0.6302 0.44133 0.0
C557 C 0.85369 0.63376 0.42934 0.0
C558 C 0.86976 0.64805 0.43507 0.0
C559 C 0.87112 0.65867 0.45301 0.0
C560 C 0.85677 0.65511 0.46494 0.0
C561 C 0.82563 0.63723 0.47206 0.0
C562 C 0.81251 0.63756 0.46142 0.0
C563 C 0.82497 0.63553 0.4949 0.0
C564 C 0.83833 0.63499 0.5072 0.0
C565 C 0.843 0.62297 0.50159 0.0
C566 C 0.85539 0.62243 0.51363 0.0
C567 C 0.86323 0.63382 0.53159 0.0
C568 C 0.85861 0.64592 0.53699 0.0
C569 C 0.8463 0.64648 0.52495 0.0
H570 H 0.38687 0.21879 0.52683 0.0
H571 H 0.38423 0.23848 0.55211 0.0
H572 H 0.33816 0.22667 0.51949 0.0
H573 H 0.34026 0.20617 0.49537 0.0
H574 H 0.36611 0.18495 0.52265 0.0
H575 H 0.38438 0.23287 0.47352 0.0
H576 H 0.38058 0.25409 0.45495 0.0
H577 H 0.33446 0.21247 0.42539 0.0
H578 H 0.33823 0.19145 0.44396 0.0
H579 H 0.33697 0.15193 0.44024 0.0
H580 H 0.33119 0.12671 0.41829 0.0
H581 H 0.37388 0.12808 0.44805 0.0
H582 H 0.38027 0.15411 0.46897 0.0
H583 H 0.36106 0.18333 0.44229 0.0
H584 H 0.3368 0.13721 0.49218 0.0
H585 H 0.33308 0.11323 0.51345 0.0
H586 H 0.38193 0.14718 0.54379 0.0
H587 H 0.38586 0.17097 0.52176 0.0
C588 C 0.3639 0.21116 0.50898 0.0
C589 C 0.37623 0.22051 0.52511 0.0
C590 C 0.37478 0.23189 0.53944 0.0
C591 C 0.36097 0.2342 0.53789 0.0
C592 C 0.34883 0.22506 0.52141 0.0
C593 C 0.35016 0.21351 0.50732 0.0
C594 C 0.36474 0.19807 0.49491 0.0
C595 C 0.36543 0.18482 0.50502 0.0
C596 C 0.36318 0.19752 0.47197 0.0
C597 C 0.36156 0.21057 0.46019 0.0
C598 C 0.37346 0.22835 0.46304 0.0
C599 C 0.37127 0.24045 0.45246 0.0
C600 C 0.35725 0.23493 0.43868 0.0
C601 C 0.34553 0.21712 0.43562 0.0
C602 C 0.34767 0.20509 0.44626 0.0
C603 C 0.35897 0.15487 0.45643 0.0
C604 C 0.34525 0.14697 0.44184 0.0
C605 C 0.34182 0.13237 0.42948 0.0
C606 C 0.35193 0.12519 0.43157 0.0
C607 C 0.36589 0.13332 0.44589 0.0
C608 C 0.36945 0.1481 0.45808 0.0
C609 C 0.36194 0.16997 0.47008 0.0
C610 C 0.36214 0.18367 0.45989 0.0
C611 C 0.36359 0.17056 0.49301 0.0
C612 C 0.36171 0.15582 0.50517 0.0
C613 C 0.34685 0.13941 0.5031 0.0
C614 C 0.34466 0.12575 0.51546 0.0
C615 C 0.35719 0.12829 0.53038 0.0
C616 C 0.37214 0.14472 0.53225 0.0
C617 C 0.37435 0.15836 0.5198 0.0
H618 H 0.78183 0.17125 0.51183 0.0
H619 H 0.75987 0.14809 0.53392 0.0
H620 H 0.77447 0.11311 0.50794 0.0
H621 H 0.79657 0.1364 0.4862 0.0
H622 H 0.81635 0.18407 0.51526 0.0
H623 H 0.77239 0.15498 0.46072 0.0
H624 H 0.75166 0.12942 0.43937 0.0
H625 H 0.7923 0.12511 0.41131 0.0
H626 H 0.81292 0.15026 0.43313 0.0
H627 H 0.85406 0.19107 0.43686 0.0
H628 H 0.87962 0.21261 0.41803 0.0
H629 H 0.87508 0.2534 0.44854 0.0
H630 H 0.84933 0.23173 0.46724 0.0
H631 H 0.82278 0.18233 0.43516 0.0
H632 H 0.86544 0.20532 0.4892 0.0
H633 H 0.88761 0.2251 0.51458 0.0
H634 H 0.85234 0.23622 0.54638 0.0
H635 H 0.83057 0.21734 0.5199 0.0
C636 C 0.79075 0.15551 0.4973 0.0
C637 C 0.78016 0.15854 0.51076 0.0
C638 C 0.76756 0.14527 0.52323 0.0
C639 C 0.76547 0.1288 0.52266 0.0
C640 C 0.77587 0.12571 0.50884 0.0
C641 C 0.78841 0.13896 0.49629 0.0
C642 C 0.80494 0.16992 0.48542 0.0
C643 C 0.81761 0.18395 0.49768 0.0
C644 C 0.80685 0.16924 0.46259 0.0
C645 C 0.79421 0.15443 0.44878 0.0
C646 C 0.77683 0.14847 0.45011 0.0
C647 C 0.76502 0.13392 0.43787 0.0
C648 C 0.77042 0.12532 0.42375 0.0
C649 C 0.78783 0.13161 0.42193 0.0
C650 C 0.7996 0.14598 0.43439 0.0
C651 C 0.8498 0.20977 0.45355 0.0
C652 C 0.85847 0.20464 0.43937 0.0
C653 C 0.87307 0.21696 0.4286 0.0
C654 C 0.87934 0.23468 0.43181 0.0
C655 C 0.87064 0.23983 0.44596 0.0
C656 C 0.85593 0.22747 0.45663 0.0
C657 C 0.83438 0.19648 0.46504 0.0
C658 C 0.82143 0.18269 0.45271 0.0
C659 C 0.83251 0.19704 0.48792 0.0
C660 C 0.84637 0.21002 0.50238 0.0
C661 C 0.8626 0.2124 0.50123 0.0
C662 C 0.87522 0.22352 0.51604 0.0
C663 C 0.87178 0.2322 0.53271 0.0
C664 C 0.85557 0.22999 0.53362 0.0
C665 C 0.84303 0.21905 0.51859 0.0
H666 H 0.95935 0.507 0.1646 0.0
H667 H 0.96005 0.52969 0.14344 0.0
H668 H 0.00781 0.56749 0.17366 0.0
H669 H 0.00736 0.54462 0.19403 0.0
H670 H 0.98127 0.49622 0.16301 0.0
H671 H 0.96337 0.52259 0.21753 0.0
H672 H 0.96647 0.54706 0.2394 0.0
H673 H 0.01236 0.55482 0.2679 0.0
H674 H 0.00951 0.53071 0.24563 0.0
H675 H 0.00987 0.4901 0.24286 0.0
H676 H 0.01345 0.46888 0.26151 0.0
H677 H 0.96935 0.42746 0.22831 0.0
H678 H 0.96527 0.44869 0.21035 0.0
H679 H 0.98734 0.49796 0.24323 0.0
H680 H 0.00823 0.47532 0.18861 0.0
H681 H 0.00917 0.45398 0.16467 0.0
H682 H 0.96222 0.4421 0.13452 0.0
H683 H 0.96081 0.46263 0.15953 0.0
C684 C 0.98322 0.52412 0.18103 0.0
C685 C 0.96994 0.52019 0.16669 0.0
C686 C 0.97029 0.5332 0.15475 0.0
C687 C 0.98398 0.55042 0.15686 0.0
C688 C 0.99717 0.55434 0.17146 0.0
C689 C 0.99685 0.54131 0.1833 0.0
C690 C 0.98319 0.51012 0.19286 0.0
C691 C 0.98228 0.4964 0.18061 0.0
C692 C 0.9851 0.51073 0.21574 0.0
C693 C 0.98633 0.52495 0.2297 0.0
C694 C 0.97416 0.52963 0.22836 0.0
C695 C 0.97591 0.54356 0.24088 0.0
C696 C 0.98967 0.55282 0.25527 0.0
C697 C 0.00155 0.5478 0.25706 0.0
C698 C -7e-05 0.53404 0.24434 0.0
C699 C 0.98741 0.47104 0.22497 0.0
C700 C 0.00081 0.47646 0.23978 0.0
C701 C 0.00288 0.46435 0.25041 0.0
C702 C 0.99172 0.4466 0.24622 0.0
C703 C 0.97821 0.44111 0.2316 0.0
C704 C 0.97593 0.45323 0.2213 0.0
C705 C 0.98566 0.48411 0.21337 0.0
C706 C 0.98616 0.49764 0.22565 0.0
C707 C 0.98377 0.48354 0.19045 0.0
C708 C 0.98431 0.4704 0.17612 0.0
C709 C 0.99797 0.46787 0.17714 0.0
C710 C -0.0014 0.4558 0.1632 0.0
C711 C 0.98578 0.44628 0.14758 0.0
C712 C 0.97216 0.44893 0.14657 0.0
C713 C 0.97142 0.46082 0.16071 0.0
H714 H 0.49926 0.45093 0.16505 0.0
H715 H 0.47747 0.43182 0.13864 0.0
H716 H 0.4433 0.44585 0.16723 0.0
H717 H 0.46551 0.46579 0.19243 0.0
H718 H 0.51452 0.48474 0.16816 0.0
H719 H 0.4796 0.43849 0.21854 0.0
H720 H 0.45301 0.41832 0.23701 0.0
H721 H 0.44947 0.46139 0.26133 0.0
H722 H 0.47598 0.48139 0.24305 0.0
H723 H 0.51757 0.52127 0.24695 0.0
H724 H 0.53802 0.54652 0.26868 0.0
H725 H 0.57825 0.5393 0.24591 0.0
H726 H 0.55759 0.51366 0.22462 0.0
H727 H 0.50702 0.48848 0.24777 0.0
H728 H 0.53411 0.53295 0.19722 0.0
H729 H 0.55562 0.55609 0.17499 0.0
H730 H 0.56974 0.52111 0.14759 0.0
H731 H 0.54851 0.49807 0.17055 0.0
C732 C 0.48399 0.45965 0.18096 0.0
C733 C 0.48703 0.44981 0.16567 0.0
C734 C 0.47448 0.43876 0.15069 0.0
C735 C 0.45858 0.43727 0.15072 0.0
C736 C 0.45545 0.44683 0.16645 0.0
C737 C 0.46808 0.45805 0.18119 0.0
C738 C 0.49787 0.47264 0.1954 0.0
C739 C 0.51307 0.48525 0.18568 0.0
C740 C 0.49568 0.47384 0.2181 0.0
C741 C 0.47976 0.46143 0.22941 0.0
C742 C 0.47305 0.44355 0.22783 0.0
C743 C 0.45785 0.43205 0.23833 0.0
C744 C 0.44917 0.43827 0.25068 0.0
C745 C 0.45599 0.4562 0.25227 0.0
C746 C 0.47113 0.46764 0.24178 0.0
C747 C 0.53606 0.51562 0.23407 0.0
C748 C 0.53077 0.52501 0.2468 0.0
C749 C 0.54249 0.53954 0.25905 0.0
C750 C 0.55976 0.54497 0.2589 0.0
C751 C 0.56501 0.53536 0.24647 0.0
C752 C 0.55325 0.52081 0.23417 0.0
C753 C 0.52351 0.50063 0.22047 0.0
C754 C 0.50866 0.48764 0.23035 0.0
C755 C 0.52571 0.49946 0.19778 0.0
C756 C 0.53984 0.51383 0.18575 0.0
C757 C 0.54211 0.53035 0.18684 0.0
C758 C 0.55428 0.54352 0.17392 0.0
C759 C 0.56429 0.54038 0.15941 0.0
C760 C 0.56233 0.52396 0.15875 0.0
C761 C 0.55015 0.51077 0.17175 0.0
H762 H 0.53926 0.03499 0.15431 0.0
H763 H 0.55839 0.03185 0.12963 0.0
H764 H 0.54513 0.98413 0.16027 0.0
H765 H 0.52523 0.9868 0.18386 0.0
H766 H 0.50632 0.01551 0.15717 0.0
H767 H 0.55225 0.0323 0.20699 0.0
H768 H 0.57333 0.02885 0.22574 0.0
H769 H 0.53307 0.98216 0.25459 0.0
H770 H 0.51205 0.9856 0.2357 0.0
H771 H 0.47108 0.98715 0.23711 0.0
H772 H 0.44753 0.98509 0.25813 0.0
H773 H 0.45901 0.03405 0.23331 0.0
H774 H 0.48268 0.03612 0.21242 0.0
H775 H 0.50423 0.00941 0.23727 0.0
H776 H 0.45849 0.99161 0.18734 0.0
H777 H 0.43687 0.99316 0.16733 0.0
H778 H 0.47606 0.03958 0.13661 0.0
H779 H 0.49752 0.0386 0.1579 0.0
C780 C 0.5309 0.01122 0.17109 0.0
C781 C 0.5405 0.02386 0.1557 0.0
C782 C 0.55158 0.02213 0.14175 0.0
C783 C 0.55335 0.00773 0.14293 0.0
C784 C 0.54394 0.99527 0.15867 0.0
C785 C 0.53271 0.9969 0.17241 0.0
C786 C 0.51836 0.01256 0.18497 0.0
C787 C 0.50607 0.01455 0.17475 0.0
C788 C 0.51774 0.01078 0.20783 0.0
C789 C 0.53057 0.00911 0.21976 0.0
C790 C 0.54797 0.02127 0.21726 0.0
C791 C 0.55999 0.01928 0.22796 0.0
C792 C 0.55484 0.00519 0.24155 0.0
C793 C 0.53741 0.99323 0.24438 0.0
C794 C 0.5254 0.99517 0.23358 0.0
C795 C 0.47851 0.01169 0.22301 0.0
C796 C 0.46865 0.99754 0.23639 0.0
C797 C 0.45521 0.99639 0.24841 0.0
C798 C 0.45138 0.00937 0.24727 0.0
C799 C 0.46152 0.02373 0.23425 0.0
C800 C 0.47504 0.02494 0.22233 0.0
C801 C 0.49217 0.01229 0.20945 0.0
C802 C 0.50464 0.01064 0.21973 0.0
C803 C 0.49288 0.01428 0.18661 0.0
C804 C 0.47964 0.01516 0.17444 0.0
C805 C 0.46241 0.00232 0.17664 0.0
C806 C 0.45005 0.00309 0.16489 0.0
C807 C 0.45466 0.01649 0.15026 0.0
C808 C 0.47197 0.02925 0.14798 0.0
C809 C 0.4843 0.02861 0.15998 0.0
H810 H 0.48201 0.01183 0.85895 0.0
H811 H 0.46012 0.01129 0.88217 0.0
H812 H 0.42212 0.96364 0.85019 0.0
H813 H 0.44418 0.96423 0.82694 0.0
H814 H 0.49126 0.98794 0.85669 0.0
H815 H 0.47091 0.0134 0.80969 0.0
H816 H 0.45117 0.01704 0.78814 0.0
H817 H 0.43869 0.97124 0.74971 0.0
H818 H 0.45804 0.9673 0.77191 0.0
H819 H 0.5042 0.9679 0.77102 0.0
H820 H 0.528 0.97219 0.74841 0.0
H821 H 0.56205 0.01808 0.78676 0.0
H822 H 0.53815 0.01411 0.80868 0.0
H823 H 0.49183 0.98867 0.776 0.0
H824 H 0.51493 0.96512 0.82558 0.0
H825 H 0.53633 0.96491 0.84829 0.0
H826 H 0.54664 0.01248 0.88037 0.0
H827 H 0.52498 0.01226 0.85816 0.0
C828 C 0.46471 0.98809 0.84122 0.0
C829 C 0.46895 0.00132 0.85685 0.0
C830 C 0.45642 0.00106 0.86999 0.0
C831 C 0.43941 0.98744 0.86794 0.0
C832 C 0.43514 0.97424 0.85217 0.0
C833 C 0.44769 0.97461 0.83883 0.0
C834 C 0.47826 0.98815 0.82808 0.0
C835 C 0.49142 0.98817 0.83903 0.0
C836 C 0.47833 0.9882 0.80508 0.0
C837 C 0.46575 0.98992 0.79262 0.0
C838 C 0.46369 0.00395 0.79689 0.0
C839 C 0.45257 0.00616 0.78436 0.0
C840 C 0.44341 0.99446 0.76715 0.0
C841 C 0.44541 0.98036 0.763 0.0
C842 C 0.45653 0.97814 0.77558 0.0
C843 C 0.51942 0.99054 0.79172 0.0
C844 C 0.51681 0.97886 0.77456 0.0
C845 C 0.53044 0.98127 0.76175 0.0
C846 C 0.54693 0.99548 0.76579 0.0
C847 C 0.54949 0.00712 0.78306 0.0
C848 C 0.53587 0.00472 0.7958 0.0
C849 C 0.50486 0.98849 0.80462 0.0
C850 C 0.49148 0.98808 0.79363 0.0
C851 C 0.50474 0.9884 0.82762 0.0
C852 C 0.51833 0.98866 0.8403 0.0
C853 C 0.5219 0.97552 0.83745 0.0
C854 C 0.53417 0.97546 0.85039 0.0
C855 C 0.54308 0.98857 0.86634 0.0
C856 C 0.53974 0.00194 0.86865 0.0
C857 C 0.52742 0.00191 0.85588 0.0
H858 H 0.04045 0.54159 0.85855 0.0
H859 H 0.04152 0.56344 0.88385 0.0
H860 H 0.99232 0.55092 0.86127 0.0
H861 H 0.99105 0.52874 0.83643 0.0
H862 H 0.0198 0.50831 0.85817 0.0
H863 H 0.0325 0.55272 0.80705 0.0
H864 H 0.02854 0.57345 0.78767 0.0
H865 H 0.97956 0.53178 0.76495 0.0
H866 H 0.9835 0.51114 0.78449 0.0
H867 H 0.98459 0.46915 0.7801 0.0
H868 H 0.98126 0.44494 0.75754 0.0
H869 H 0.03018 0.456 0.77922 0.0
H870 H 0.03367 0.48046 0.80141 0.0
H871 H 0.00602 0.50227 0.77951 0.0
H872 H 0.99164 0.45837 0.83145 0.0
H873 H 0.99355 0.43699 0.85225 0.0
H874 H 0.04382 0.47661 0.87393 0.0
H875 H 0.04182 0.49795 0.85306 0.0
C876 C 0.01575 0.53361 0.8454 0.0
C877 C 0.02991 0.54357 0.85899 0.0
C878 C 0.03051 0.55603 0.87343 0.0
C879 C 0.01702 0.55887 0.87446 0.0
C880 C 0.003 0.54915 0.86058 0.0
C881 C 0.00229 0.53651 0.84634 0.0
C882 C 0.0147 0.51954 0.83125 0.0
C883 C 0.01709 0.50719 0.84087 0.0
C884 C 0.01057 0.51769 0.80883 0.0
C885 C 0.00823 0.5304 0.79737 0.0
C886 C 0.02083 0.54808 0.79809 0.0
C887 C 0.01856 0.5599 0.78701 0.0
C888 C 0.00374 0.55422 0.77479 0.0
C889 C 0.99119 0.53651 0.77402 0.0
C890 C 0.99341 0.52472 0.78521 0.0
C891 C 0.00928 0.47651 0.79267 0.0
C892 C 0.99467 0.46646 0.77988 0.0
C893 C 0.99278 0.45265 0.76698 0.0
C894 C 0.00544 0.44857 0.76671 0.0
C895 C 0.02013 0.45873 0.77936 0.0
C896 C 0.02211 0.47267 0.79207 0.0
C897 C 0.01111 0.49108 0.80646 0.0
C898 C 0.00885 0.5035 0.79678 0.0
C899 C 0.01519 0.49291 0.82887 0.0
C900 C 0.01664 0.47973 0.84057 0.0
C901 C 0.00317 0.46239 0.84041 0.0
C902 C 0.0043 0.45018 0.85228 0.0
C903 C 0.01885 0.45512 0.86472 0.0
C904 C 0.03238 0.47245 0.86468 0.0
C905 C 0.03127 0.48464 0.85274 0.0
H906 H 0.44868 0.50745 0.85013 0.0
H907 H 0.42565 0.48499 0.8719 0.0
H908 H 0.43871 0.44823 0.84835 0.0
H909 H 0.46167 0.47067 0.8268 0.0
H910 H 0.48227 0.51977 0.85406 0.0
H911 H 0.43962 0.48912 0.79763 0.0
H912 H 0.41947 0.46326 0.77643 0.0
H913 H 0.46069 0.45763 0.75358 0.0
H914 H 0.48051 0.48274 0.77578 0.0
H915 H 0.5212 0.52178 0.77928 0.0
H916 H 0.54749 0.54147 0.76047 0.0
H917 H 0.54545 0.58503 0.78648 0.0
H918 H 0.51858 0.56513 0.80439 0.0
H919 H 0.49076 0.51473 0.77497 0.0
H920 H 0.53093 0.53668 0.83217 0.0
H921 H 0.55313 0.55704 0.85725 0.0
H922 H 0.5204 0.5746 0.88078 0.0
H923 H 0.49844 0.55462 0.85492 0.0
C924 C 0.45674 0.49068 0.83661 0.0
C925 C 0.44646 0.4945 0.84955 0.0
C926 C 0.43335 0.48169 0.862 0.0
C927 C 0.43032 0.46483 0.86177 0.0
C928 C 0.44051 0.461 0.84857 0.0
C929 C 0.45365 0.47382 0.83624 0.0
C930 C 0.47139 0.50455 0.82462 0.0
C931 C 0.48396 0.51889 0.83665 0.0
C932 C 0.4739 0.50297 0.80209 0.0
C933 C 0.46157 0.48778 0.78853 0.0
C934 C 0.44427 0.4822 0.78822 0.0
C935 C 0.43279 0.46752 0.77587 0.0
C936 C 0.43843 0.45828 0.76336 0.0
C937 C 0.45583 0.46419 0.76334 0.0
C938 C 0.46723 0.47871 0.77584 0.0
C939 C 0.51792 0.54196 0.79333 0.0
C940 C 0.52633 0.53557 0.78081 0.0
C941 C 0.5415 0.54687 0.77026 0.0
C942 C 0.54867 0.56485 0.77207 0.0
C943 C 0.5402 0.57125 0.78458 0.0
C944 C 0.52492 0.5599 0.79502 0.0
C945 C 0.50182 0.5297 0.80449 0.0
C946 C 0.48893 0.51578 0.7923 0.0
C947 C 0.49933 0.53122 0.82703 0.0
C948 C 0.51311 0.54429 0.84145 0.0
C949 C 0.52865 0.54516 0.8424 0.0
C950 C 0.54126 0.55666 0.85696 0.0
C951 C 0.5385 0.56739 0.87111 0.0
C952 C 0.523 0.56667 0.86994 0.0
C953 C 0.5104 0.55518 0.85529 0.0
H954 H 0.60955 0.83098 0.50098 0.0
H955 H 0.61322 0.8539 0.47736 0.0
H956 H 0.6636 0.88798 0.50361 0.0
H957 H 0.66014 0.86484 0.5263 0.0
H958 H 0.6283 0.81595 0.49989 0.0
H959 H 0.61725 0.84913 0.55455 0.0
H960 H 0.6252 0.87646 0.57358 0.0
H961 H 0.67152 0.88111 0.59555 0.0
H962 H 0.66374 0.85411 0.57615 0.0
H963 H 0.6603 0.81272 0.57713 0.0
H964 H 0.66455 0.79218 0.59618 0.0
H965 H 0.61677 0.75004 0.57095 0.0
H966 H 0.6125 0.77074 0.55195 0.0
H967 H 0.63841 0.82189 0.57957 0.0
H968 H 0.65597 0.79671 0.52592 0.0
H969 H 0.65743 0.77582 0.50175 0.0
H970 H 0.60894 0.76115 0.47393 0.0
H971 H 0.60716 0.78153 0.49904 0.0
C972 C 0.63448 0.84625 0.51562 0.0
C973 C 0.62134 0.84344 0.5017 0.0
C974 C 0.62341 0.85659 0.48833 0.0
C975 C 0.63872 0.87278 0.48856 0.0
C976 C 0.65173 0.87561 0.50281 0.0
C977 C 0.64968 0.86245 0.51604 0.0
C978 C 0.63281 0.83195 0.52859 0.0
C979 C 0.63 0.81698 0.51742 0.0
C980 C 0.63589 0.83374 0.55128 0.0
C981 C 0.63995 0.84965 0.56383 0.0
C982 C 0.6291 0.85605 0.56349 0.0
C983 C 0.6336 0.8716 0.57447 0.0
C984 C 0.64904 0.88098 0.58593 0.0
C985 C 0.65967 0.87431 0.5866 0.0
C986 C 0.65515 0.85879 0.5757 0.0
C987 C 0.63611 0.79328 0.56302 0.0
C988 C 0.65062 0.79908 0.5759 0.0
C989 C 0.65303 0.78732 0.58681 0.0
C990 C 0.64099 0.76949 0.58506 0.0
C991 C 0.62635 0.76369 0.57239 0.0
C992 C 0.62389 0.7755 0.56155 0.0
C993 C 0.63413 0.80594 0.55083 0.0
C994 C 0.63616 0.82055 0.56214 0.0
C995 C 0.63114 0.8042 0.52809 0.0
C996 C 0.63133 0.79052 0.51454 0.0
C997 C 0.64543 0.78868 0.51504 0.0
C998 C 0.64636 0.77689 0.50096 0.0
C999 C 0.63336 0.76689 0.48576 0.0
C1000 C 0.61908 0.7685 0.48558 0.0
C1001 C 0.6181 0.78023 0.49982 0.0
H1002 H 0.16598 0.78435 0.50256 0.0
H1003 H 0.14495 0.76442 0.47575 0.0
H1004 H 0.10891 0.77674 0.50176 0.0
H1005 H 0.13005 0.79687 0.52826 0.0
H1006 H 0.17924 0.81841 0.50516 0.0
H1007 H 0.14463 0.77049 0.55324 0.0
H1008 H 0.1179 0.74954 0.57063 0.0
H1009 H 0.11508 0.79158 0.60059 0.0
H1010 H 0.14108 0.81231 0.58216 0.0
H1011 H 0.18089 0.85153 0.58762 0.0
H1012 H 0.20069 0.87636 0.61021 0.0
H1013 H 0.24256 0.87448 0.58139 0.0
H1014 H 0.22252 0.84881 0.55994 0.0
H1015 H 0.17173 0.82014 0.58502 0.0
H1016 H 0.19781 0.86625 0.53596 0.0
H1017 H 0.21907 0.89013 0.51435 0.0
H1018 H 0.2337 0.8563 0.48438 0.0
H1019 H 0.21287 0.83263 0.50679 0.0
C1020 C 0.14955 0.79196 0.5176 0.0
C1021 C 0.15349 0.78263 0.50262 0.0
C1022 C 0.1415 0.7713 0.48729 0.0
C1023 C 0.12531 0.76904 0.48669 0.0
C1024 C 0.12121 0.77804 0.50205 0.0
C1025 C 0.13328 0.78952 0.51724 0.0
C1026 C 0.16291 0.8053 0.53227 0.0
C1027 C 0.17778 0.81858 0.52271 0.0
C1028 C 0.1606 0.80596 0.55503 0.0
C1029 C 0.14479 0.79299 0.56617 0.0
C1030 C 0.13814 0.77517 0.56337 0.0
C1031 C 0.12294 0.7632 0.57353 0.0
C1032 C 0.11424 0.76885 0.58692 0.0
C1033 C 0.12119 0.78672 0.59004 0.0
C1034 C 0.13622 0.79863 0.57971 0.0
C1035 C 0.20019 0.84835 0.57188 0.0
C1036 C 0.19432 0.85629 0.58637 0.0
C1037 C 0.20571 0.87067 0.5991 0.0
C1038 C 0.22328 0.87761 0.59748 0.0
C1039 C 0.22912 0.86944 0.58324 0.0
C1040 C 0.21768 0.85487 0.57072 0.0
C1041 C 0.18791 0.83344 0.55786 0.0
C1042 C 0.17334 0.81981 0.56752 0.0
C1043 C 0.19007 0.83288 0.53505 0.0
C1044 C 0.20389 0.84769 0.52319 0.0
C1045 C 0.20587 0.86407 0.52512 0.0
C1046 C 0.21788 0.87766 0.51254 0.0
C1047 C 0.22802 0.87511 0.49753 0.0
C1048 C 0.22625 0.85878 0.49596 0.0
C1049 C 0.21427 0.84519 0.50864 0.0
H1050 H 0.15632 0.35458 0.48548 0.0
H1051 H 0.13481 0.35633 0.46557 0.0
H1052 H 0.13832 0.39445 0.51245 0.0
H1053 H 0.16018 0.3928 0.53238 0.0
H1054 H 0.18793 0.37699 0.49317 0.0
H1055 H 0.13843 0.34369 0.53667 0.0
H1056 H 0.11384 0.33721 0.55894 0.0
H1057 H 0.14664 0.37828 0.6045 0.0
H1058 H 0.17127 0.38458 0.58215 0.0
H1059 H 0.21615 0.37975 0.57821 0.0
H1060 H 0.23223 0.3694 0.59664 0.0
H1061 H 0.21645 0.32886 0.54737 0.0
H1062 H 0.20043 0.33928 0.52903 0.0
H1063 H 0.18226 0.36217 0.57102 0.0
H1064 H 0.23287 0.3861 0.5261 0.0
H1065 H 0.25371 0.38554 0.5014 0.0
H1066 H 0.21393 0.3546 0.45483 0.0
H1067 H 0.19304 0.35425 0.47974 0.0
C1068 C 0.15991 0.37357 0.51042 0.0
C1069 C 0.15262 0.36347 0.49141 0.0
C1070 C 0.14033 0.36449 0.48001 0.0
C1071 C 0.13498 0.37564 0.48735 0.0
C1072 C 0.14216 0.38569 0.50649 0.0
C1073 C 0.15462 0.38475 0.51787 0.0
C1074 C 0.17301 0.37216 0.52217 0.0
C1075 C 0.18667 0.37363 0.51018 0.0
C1076 C 0.17156 0.36822 0.54447 0.0
C1077 C 0.15663 0.36479 0.5576 0.0
C1078 C 0.1403 0.35145 0.55131 0.0
C1079 C 0.12625 0.34777 0.56405 0.0
C1080 C 0.12828 0.35729 0.58345 0.0
C1081 C 0.14468 0.37061 0.58976 0.0
C1082 C 0.15874 0.37429 0.57697 0.0
C1083 C 0.2073 0.36044 0.55209 0.0
C1084 C 0.21625 0.3687 0.57133 0.0
C1085 C 0.22535 0.36271 0.5819 0.0
C1086 C 0.2256 0.3483 0.57347 0.0
C1087 C 0.21671 0.34014 0.5541 0.0
C1088 C 0.20757 0.34609 0.54359 0.0
C1089 C 0.19678 0.36612 0.5417 0.0
C1090 C 0.18373 0.36575 0.55408 0.0
C1091 C 0.19835 0.37022 0.5194 0.0
C1092 C 0.21131 0.37015 0.50488 0.0
C1093 C 0.22857 0.37896 0.51074 0.0
C1094 C 0.24048 0.37875 0.49663 0.0
C1095 C 0.23534 0.37015 0.47627 0.0
C1096 C 0.21817 0.36147 0.47039 0.0
C1097 C 0.20627 0.36133 0.48461 0.0
H1098 H 0.01378 0.38282 0.07104 0.0
H1099 H 0.97321 0.38102 0.03492 0.0
H1100 H 0.01054 0.39984 0.09996 0.0
H1101 H 0.96995 0.39801 0.064 0.0
H1102 H 0.95982 0.41498 0.13148 0.0
H1103 H 0.96162 0.3958 0.1044 0.0
H1104 H 0.01597 0.43043 0.10163 0.0
H1105 H 0.01423 0.44994 0.12801 0.0
C1106 C 0.00406 0.38591 0.06936 0.0
C1107 C 0.9938 0.38065 0.05063 0.0
C1108 C 0.00228 0.39572 0.08587 0.0
C1109 C 0.99006 0.40029 0.08414 0.0
C1110 C 0.97941 0.39456 0.06578 0.0
C1111 C 0.98134 0.38492 0.04911 0.0
C1112 C 0.97215 0.41861 0.12497 0.0
C1113 C 0.98687 0.43407 0.13195 0.0
C1114 C 0.97316 0.40758 0.10955 0.0
C1115 C 0.98893 0.41163 0.10099 0.0
C1116 C 0.00367 0.42687 0.1082 0.0
C1117 C 0.00265 0.43802 0.1234 0.0
H1118 H 0.635 0.60029 0.05594 0.0
H1119 H 0.6184 0.63305 0.08405 0.0
H1120 H 0.61844 0.57853 0.08314 0.0
H1121 H 0.6023 0.61163 0.11134 0.0
H1122 H 0.55796 0.56133 0.1361 0.0
H1123 H 0.57659 0.5834 0.11076 0.0
H1124 H 0.61555 0.57204 0.12223 0.0
H1125 H 0.59672 0.54972 0.14772 0.0
C1126 C 0.62801 0.60294 0.06807 0.0
C1127 C 0.62783 0.61829 0.06768 0.0
C1128 C 0.61859 0.59052 0.0837 0.0
C1129 C 0.60888 0.59327 0.09922 0.0
C1130 C 0.60932 0.60894 0.09931 0.0
C1131 C 0.61863 0.62126 0.0837 0.0
C1132 C 0.57058 0.56367 0.13347 0.0
C1133 C 0.57593 0.55391 0.14411 0.0
C1134 C 0.58127 0.57633 0.11892 0.0
C1135 C 0.59763 0.57961 0.11464 0.0
C1136 C 0.60298 0.56974 0.12509 0.0
C1137 C 0.59222 0.55699 0.13968 0.0
H1138 H 0.36109 0.99635 0.09139 0.0
H1139 H 0.40067 0.03495 0.05082 0.0
H1140 H 0.38249 0.99818 0.11578 0.0
H1141 H 0.42211 0.03682 0.07547 0.0
H1142 H 0.45373 0.04484 0.13806 0.0
H1143 H 0.43253 0.04527 0.1154 0.0
H1144 H 0.40445 0.98951 0.1103 0.0
H1145 H 0.42584 0.98899 0.13212 0.0
C1146 C 0.37434 0.00539 0.0878 0.0
C1147 C 0.37918 0.01543 0.06907 0.0
C1148 C 0.38659 0.00636 0.10173 0.0
C1149 C 0.40393 0.01754 0.0974 0.0
C1150 C 0.4088 0.02814 0.07922 0.0
C1151 C 0.39654 0.02702 0.06509 0.0
C1152 C 0.44315 0.03267 0.13193 0.0
C1153 C 0.44154 0.01687 0.13701 0.0
C1154 C 0.43098 0.03294 0.11904 0.0
C1155 C 0.41683 0.01743 0.11123 0.0
C1156 C 0.41511 0.00166 0.11641 0.0
C1157 C 0.42736 0.00138 0.12902 0.0
H1158 H 0.36914 0.00437 0.94483 0.0
H1159 H 0.38422 0.97681 0.98557 0.0
H1160 H 0.38423 0.0009 0.91418 0.0
H1161 H 0.39936 0.97345 0.9549 0.0
H1162 H 0.41523 0.95986 0.89067 0.0
H1163 H 0.39555 0.95962 0.91785 0.0
H1164 H 0.41496 0.01352 0.9064 0.0
H1165 H 0.43443 0.01368 0.8791 0.0
C1166 C 0.3755 0.9974 0.9472 0.0
C1167 C 0.3756 0.99099 0.9677 0.0
C1168 C 0.3842 0.99549 0.92966 0.0
C1169 C 0.39305 0.98701 0.93218 0.0
C1170 C 0.39254 0.97994 0.95242 0.0
C1171 C 0.38394 0.98195 0.97001 0.0
C1172 C 0.41506 0.97155 0.89372 0.0
C1173 C 0.4264 0.98681 0.88286 0.0
C1174 C 0.40391 0.97145 0.90938 0.0
C1175 C 0.40376 0.98656 0.9143 0.0
C1176 C 0.41467 0.00164 0.90284 0.0
C1177 C 0.42592 0.00178 0.88735 0.0
H1178 H 0.03742 0.39978 0.96361 0.0
H1179 H 0.98832 0.36316 0.93562 0.0
H1180 H 0.04156 0.42086 0.9367 0.0
H1181 H 0.99228 0.3843 0.90917 0.0
H1182 H 0.00881 0.42159 0.85414 0.0
H1183 H 0.00827 0.40019 0.87774 0.0
H1184 H 0.02967 0.43851 0.93014 0.0
H1185 H 0.03031 0.45985 0.90655 0.0
C1186 C 0.02757 0.39618 0.95164 0.0
C1187 C 0.0125 0.37983 0.95185 0.0
C1188 C 0.02989 0.40829 0.93631 0.0
C1189 C 0.0172 0.4043 0.92086 0.0
C1190 C 0.0024 0.38774 0.92065 0.0
C1191 C 8e-05 0.37564 0.93594 0.0
C1192 C 0.01343 0.42542 0.87069 0.0
C1193 C 0.01955 0.44239 0.8785 0.0
C1194 C 0.01312 0.41318 0.8842 0.0
C1195 C 0.01888 0.41762 0.90585 0.0
C1196 C 0.02539 0.43471 0.91346 0.0
C1197 C 0.02574 0.44695 0.89994 0.0
H1198 H 0.59579 0.63759 0.97963 0.0
H1199 H 0.62797 0.62029 0.95308 0.0
H1200 H 0.57485 0.62096 0.95109 0.0
H1201 H 0.60724 0.60397 0.92455 0.0
H1202 H 0.55754 0.55959 0.89607 0.0
H1203 H 0.57885 0.5779 0.92315 0.0
H1204 H 0.57006 0.61908 0.91114 0.0
H1205 H 0.54869 0.60071 0.88377 0.0
C1206 C 0.59847 0.63039 0.96762 0.0
C1207 C 0.61347 0.63014 0.96876 0.0
C1208 C 0.58652 0.62093 0.95122 0.0
C1209 C 0.58933 0.61102 0.9357 0.0
C1210 C 0.60456 0.61122 0.9365 0.0
C1211 C 0.61648 0.62065 0.95282 0.0
C1212 C 0.56029 0.57262 0.89896 0.0
C1213 C 0.55151 0.57873 0.88761 0.0
C1214 C 0.5725 0.58312 0.91451 0.0
C1215 C 0.57623 0.59998 0.91917 0.0
C1216 C 0.56736 0.60609 0.90802 0.0
C1217 C 0.55513 0.59557 0.89237 0.0
H1218 H 0.98955 0.62112 0.95265 0.0
H1219 H 0.0325 0.62667 0.98709 0.0
H1220 H 0.99277 0.60382 0.92437 0.0
H1221 H 0.03625 0.60997 0.95825 0.0
H1222 H 0.0245 0.56186 0.91764 0.0
H1223 H 0.02335 0.58122 0.94486 0.0
H1224 H 0.00924 0.6038 0.89486 0.0
H1225 H 0.00982 0.5839 0.86782 0.0
C1226 C -0.00014 0.61886 0.95401 0.0
C1227 C 0.01071 0.62517 0.97219 0.0
C1228 C 0.00179 0.60902 0.93768 0.0
C1229 C 0.01476 0.60542 0.93897 0.0
C1230 C 0.02592 0.61218 0.95689 0.0
C1231 C 0.02385 0.62185 0.97338 0.0
C1232 C 0.02132 0.57109 0.91248 0.0
C1233 C 0.01722 0.57137 0.89066 0.0
C1234 C 0.02072 0.58226 0.92806 0.0
C1235 C 0.0162 0.59412 0.92213 0.0
C1236 C 0.01247 0.59463 0.90013 0.0
C1237 C 0.01286 0.5833 0.8846 0.0
H1238 H 0.35948 0.40327 0.96515 0.0
H1239 H 0.37582 0.37156 0.93306 0.0
H1240 H 0.37469 0.42546 0.93803 0.0
H1241 H 0.39122 0.39377 0.9064 0.0
H1242 H 0.40754 0.43075 0.85163 0.0
H1243 H 0.38798 0.40822 0.87619 0.0
H1244 H 0.40422 0.44618 0.92891 0.0
H1245 H 0.42366 0.46868 0.90433 0.0
C1246 C 0.36622 0.40099 0.95226 0.0
C1247 C 0.3665 0.38568 0.95132 0.0
C1248 C 0.37501 0.41374 0.9368 0.0
C1249 C 0.38419 0.41141 0.92006 0.0
C1250 C 0.38408 0.3959 0.91887 0.0
C1251 C 0.37534 0.3832 0.93428 0.0
C1252 C 0.40685 0.43427 0.86845 0.0
C1253 C 0.41722 0.45146 0.87608 0.0
C1254 C 0.39566 0.42138 0.88251 0.0
C1255 C 0.39464 0.42537 0.90456 0.0
C1256 C 0.40454 0.44268 0.91198 0.0
C1257 C 0.4157 0.45559 0.89789 0.0
H1258 H 0.61121 0.96969 0.94237 0.0
H1259 H 0.6232 0.02152 0.95863 0.0
H1260 H 0.58972 0.96632 0.91638 0.0
H1261 H 0.60187 0.01805 0.93302 0.0
H1262 H 0.54787 0.99685 0.90977 0.0
H1263 H 0.56944 0.99839 0.93342 0.0
H1264 H 0.58773 0.98041 0.88033 0.0
H1265 H 0.56635 0.97933 0.85621 0.0
C1266 C 0.60936 0.98037 0.94031 0.0
C1267 C 0.61883 0.99582 0.95267 0.0
C1268 C 0.59713 0.97845 0.92542 0.0
C1269 C 0.59406 0.99187 0.92293 0.0
C1270 C 0.60383 0.00742 0.93487 0.0
C1271 C 0.6161 0.00941 0.94948 0.0
C1272 C 0.55657 0.99338 0.90299 0.0
C1273 C 0.55555 0.98826 0.88096 0.0
C1274 C 0.56885 0.99417 0.91659 0.0
C1275 C 0.58033 0.98969 0.90861 0.0
C1276 C 0.57897 0.98389 0.88687 0.0
C1277 C 0.56672 0.98325 0.87311 0.0
H1278 H 0.58717 0.97366 0.03159 0.0
H1279 H 0.63443 0.0121 0.06221 0.0
H1280 H 0.5715 0.97877 0.05964 0.0
H1281 H 0.61865 0.01683 0.09093 0.0
H1282 H 0.58427 0.0324 0.12632 0.0
H1283 H 0.601 0.02841 0.09847 0.0
H1284 H 0.56434 0.97337 0.09685 0.0
H1285 H 0.54712 0.97748 0.12348 0.0
C1286 C 0.59422 0.98314 0.04443 0.0
C1287 C 0.61204 0.99242 0.04474 0.0
C1288 C 0.58522 0.986 0.06063 0.0
C1289 C 0.59378 0.99807 0.07774 0.0
C1290 C 0.61165 0.00754 0.07791 0.0
C1291 C 0.62069 0.00479 0.06152 0.0
C1292 C 0.57971 0.01947 0.11987 0.0
C1293 C 0.56427 0.00528 0.12711 0.0
C1294 C 0.58942 0.01715 0.10409 0.0
C1295 C 0.58398 0.00058 0.09527 0.0
C1296 C 0.56878 0.98637 0.10296 0.0
C1297 C 0.55902 0.98869 0.11855 0.0
H1298 H 0.01429 0.64474 0.08845 0.0
H1299 H 0.9676 0.60574 0.05711 0.0
H1300 H 0.01096 0.62389 0.11502 0.0
H1301 H 0.96442 0.58475 0.08362 0.0
H1302 H 0.95814 0.55523 0.14606 0.0
H1303 H 0.95961 0.57716 0.12252 0.0
H1304 H 0.01325 0.59833 0.11328 0.0
H1305 H 0.01179 0.57644 0.13653 0.0
C1306 C 0.00324 0.63174 0.08731 0.0
C1307 C 0.99128 0.62686 0.07053 0.0
C1308 C 0.00139 0.61977 0.10249 0.0
C1309 C 0.98754 0.60261 0.10127 0.0
C1310 C 0.97518 0.5979 0.08506 0.0
C1311 C 0.97704 0.60991 0.06983 0.0
C1312 C 0.97023 0.56454 0.13893 0.0
C1313 C 0.98486 0.5641 0.14324 0.0
C1314 C 0.97106 0.5771 0.12547 0.0
C1315 C 0.98656 0.58953 0.11611 0.0
C1316 C 0.00118 0.58915 0.12057 0.0
C1317 C 0.00034 0.5766 0.13394 0.0
H1318 H 0.36846 0.38271 0.06918 0.0
H1319 H 0.40636 0.37785 0.03356 0.0
H1320 H 0.38855 0.39772 0.09892 0.0
H1321 H 0.42646 0.39286 0.06349 0.0
H1322 H 0.45093 0.40591 0.13262 0.0
H1323 H 0.4303 0.38894 0.10392 0.0
H1324 H 0.41604 0.42702 0.10217 0.0
H1325 H 0.43696 0.44429 0.13015 0.0
C1326 C 0.38103 0.38472 0.06775 0.0
C1327 C 0.38585 0.37917 0.04894 0.0
C1328 C 0.39255 0.39338 0.08475 0.0
C1329 C 0.40906 0.39651 0.08344 0.0
C1330 C 0.41376 0.39052 0.06496 0.0
C1331 C 0.40229 0.38202 0.0478 0.0
C1332 C 0.44352 0.41076 0.126 0.0
C1333 C 0.44561 0.42648 0.13382 0.0
C1334 C 0.43167 0.401 0.10962 0.0
C1335 C 0.42153 0.40663 0.10093 0.0
C1336 C 0.4235 0.42223 0.10883 0.0
C1337 C 0.43546 0.43208 0.12497 0.0
H1338 H 0.62309 0.70112 0.37366 0.0
H1339 H 0.66993 0.71357 0.40459 0.0
H1340 H 0.61812 0.71667 0.40303 0.0
H1341 H 0.66483 0.72883 0.43392 0.0
H1342 H 0.66197 0.77397 0.46362 0.0
H1343 H 0.66522 0.756 0.43641 0.0
H1344 H 0.6122 0.71649 0.44286 0.0
H1345 H 0.60892 0.73447 0.47048 0.0
C1346 C 0.63223 0.707 0.38681 0.0
C1347 C 0.64699 0.70625 0.38666 0.0
C1348 C 0.62933 0.71583 0.40368 0.0
C1349 C 0.64117 0.72411 0.42067 0.0
C1350 C 0.65562 0.72283 0.42086 0.0
C1351 C 0.65849 0.71401 0.40408 0.0
C1352 C 0.65104 0.76134 0.45956 0.0
C1353 C 0.63521 0.75561 0.4694 0.0
C1354 C 0.6529 0.75105 0.4439 0.0
C1355 C 0.63899 0.73478 0.43758 0.0
C1356 C 0.62312 0.72903 0.44729 0.0
C1357 C 0.62125 0.73933 0.46308 0.0
H1358 H 0.29646 0.93441 0.39277 0.0
H1359 H 0.28348 0.96921 0.42376 0.0
H1360 H 0.27994 0.91286 0.4201 0.0
H1361 H 0.26727 0.94784 0.45115 0.0
H1362 H 0.22211 0.89745 0.47657 0.0
H1363 H 0.24063 0.91986 0.45148 0.0
H1364 H 0.27873 0.90675 0.45928 0.0
H1365 H 0.26016 0.88428 0.48466 0.0
C1366 C 0.29024 0.93753 0.40552 0.0
C1367 C 0.29118 0.95347 0.40598 0.0
C1368 C 0.28085 0.92522 0.42124 0.0
C1369 C 0.2722 0.9286 0.43769 0.0
C1370 C 0.27355 0.94473 0.43847 0.0
C1371 C 0.28293 0.95702 0.42281 0.0
C1372 C 0.23454 0.89951 0.47326 0.0
C1373 C 0.23968 0.88913 0.48274 0.0
C1374 C 0.24516 0.91235 0.45882 0.0
C1375 C 0.26118 0.91513 0.45345 0.0
C1376 C 0.26638 0.9048 0.46294 0.0
C1377 C 0.25575 0.89194 0.47746 0.0
H1378 H 0.07063 0.3798 0.38856 0.0
H1379 H 0.0372 0.34261 0.43559 0.0
H1380 H 0.09472 0.38874 0.41257 0.0
H1381 H 0.06133 0.35125 0.45932 0.0
H1382 H 0.1071 0.37544 0.50326 0.0
H1383 H 0.0839 0.37353 0.4823 0.0
H1384 H 0.10978 0.37499 0.42255 0.0
H1385 H 0.13306 0.37747 0.44343 0.0
C1386 C 0.06838 0.37364 0.40411 0.0
C1387 C 0.05201 0.36033 0.41003 0.0
C1388 C 0.08221 0.37872 0.41784 0.0
C1389 C 0.08 0.37057 0.43776 0.0
C1390 C 0.06349 0.35791 0.44419 0.0
C1391 C 0.04965 0.35287 0.43049 0.0
C1392 C 0.10795 0.37573 0.48566 0.0
C1393 C 0.1218 0.37643 0.47497 0.0
C1394 C 0.09461 0.37447 0.47365 0.0
C1395 C 0.09492 0.374 0.45074 0.0
C1396 C 0.10917 0.3755 0.44016 0.0
C1397 C 0.12244 0.37671 0.45212 0.0
H1398 H 0.01227 0.29662 0.28738 0.0
H1399 H 0.05892 0.3423 0.30929 0.0
H1400 H 0.028 0.29136 0.25908 0.0
H1401 H 0.07454 0.33688 0.28151 0.0
H1402 H 0.09597 0.33404 0.21706 0.0
H1403 H 0.07778 0.338 0.24242 0.0
H1404 H 0.04929 0.28317 0.25428 0.0
H1405 H 0.06745 0.2792 0.22854 0.0
C1406 C 0.02586 0.30547 0.28625 0.0
C1407 C 0.03432 0.31993 0.30053 0.0
C1408 C 0.03487 0.30243 0.27008 0.0
C1409 C 0.0525 0.3138 0.26788 0.0
C1410 C 0.06092 0.32807 0.28242 0.0
C1411 C 0.05196 0.33111 0.29849 0.0
C1412 C 0.08576 0.32282 0.225 0.0
C1413 C 0.08325 0.30635 0.22104 0.0
C1414 C 0.07537 0.32509 0.23958 0.0
C1415 C 0.06227 0.31094 0.25067 0.0
C1416 C 0.05923 0.29431 0.24594 0.0
C1417 C 0.06962 0.29204 0.23121 0.0
H1418 H 0.69322 0.71902 0.28059 0.0
H1419 H 0.69231 0.75622 0.32509 0.0
H1420 H 0.69975 0.73857 0.25063 0.0
H1421 H 0.69826 0.77546 0.29514 0.0
H1422 H 0.72072 0.81266 0.24089 0.0
H1423 H 0.71897 0.79401 0.26963 0.0
H1424 H 0.68581 0.74901 0.22937 0.0
H1425 H 0.68842 0.76768 0.2001 0.0
C1426 C 0.69445 0.73138 0.28399 0.0
C1427 C 0.6922 0.73604 0.30522 0.0
C1428 C 0.6981 0.74255 0.26679 0.0
C1429 C 0.69947 0.75858 0.27041 0.0
C1430 C 0.69757 0.76336 0.29176 0.0
C1431 C 0.69404 0.75225 0.30895 0.0
C1432 C 0.71339 0.7988 0.23792 0.0
C1433 C 0.70465 0.7917 0.21816 0.0
C1434 C 0.71218 0.78808 0.25457 0.0
C1435 C 0.70209 0.76998 0.25196 0.0
C1436 C 0.69381 0.76288 0.23193 0.0
C1437 C 0.69512 0.7736 0.21522 0.0
H1438 H 0.29029 0.95567 0.2875 0.0
H1439 H 0.25466 0.96479 0.322 0.0
H1440 H 0.27031 0.94191 0.25759 0.0
H1441 H 0.23483 0.95159 0.2916 0.0
H1442 H 0.19623 0.90705 0.24644 0.0
H1443 H 0.21641 0.92388 0.27542 0.0
H1444 H 0.257 0.94626 0.22814 0.0
H1445 H 0.23678 0.92893 0.19929 0.0
C1446 C 0.27827 0.95495 0.28857 0.0
C1447 C 0.27403 0.96123 0.30719 0.0
C1448 C 0.26683 0.94716 0.2713 0.0
C1449 C 0.25091 0.94562 0.27211 0.0
C1450 C 0.24685 0.95229 0.29055 0.0
C1451 C 0.25825 0.95995 0.30794 0.0
C1452 C 0.20944 0.91576 0.24224 0.0
C1453 C 0.21497 0.91663 0.22065 0.0
C1454 C 0.22102 0.92546 0.25884 0.0
C1455 C 0.2384 0.93639 0.25419 0.0
C1456 C 0.24379 0.93772 0.23241 0.0
C1457 C 0.23222 0.92786 0.21585 0.0
H1458 H 0.70912 0.96686 0.316 0.0
H1459 H 0.66371 0.95426 0.28111 0.0
H1460 H 0.71696 0.95408 0.28623 0.0
H1461 H 0.67113 0.9409 0.25185 0.0
H1462 H 0.69309 0.92785 0.19469 0.0
H1463 H 0.68963 0.94548 0.2225 0.0
H1464 H 0.70845 0.92638 0.27124 0.0
H1465 H 0.71241 0.90929 0.24326 0.0
C1466 C 0.70081 0.96135 0.30198 0.0
C1467 C 0.68577 0.96152 0.30096 0.0
C1468 C 0.70525 0.95394 0.28495 0.0
C1469 C 0.69466 0.94638 0.26661 0.0
C1470 C 0.67977 0.94685 0.26549 0.0
C1471 C 0.67543 0.9544 0.28239 0.0
C1472 C 0.69664 0.92761 0.21134 0.0
C1473 C 0.70297 0.91719 0.21686 0.0
C1474 C 0.69458 0.93763 0.2273 0.0
C1475 C 0.69859 0.93725 0.24921 0.0
C1476 C 0.70545 0.92722 0.25454 0.0
C1477 C 0.70769 0.91738 0.23852 0.0
H1478 H 0.04585 0.70689 0.26633 0.0
H1479 H 0.0281 0.7377 0.29752 0.0
H1480 H 0.06085 0.72902 0.23944 0.0
H1481 H 0.04289 0.75978 0.27019 0.0
H1482 H 0.09102 0.80361 0.2359 0.0
H1483 H 0.07217 0.78111 0.26086 0.0
H1484 H 0.05695 0.74269 0.20886 0.0
H1485 H 0.07594 0.76523 0.18394 0.0
C1486 C 0.04498 0.71831 0.26732 0.0
C1487 C 0.03584 0.72057 0.28415 0.0
C1488 C 0.0535 0.73096 0.25177 0.0
C1489 C 0.05306 0.74618 0.25264 0.0
C1490 C 0.04363 0.74829 0.26921 0.0
C1491 C 0.03509 0.7356 0.2848 0.0
C1492 C 0.08341 0.79041 0.2297 0.0
C1493 C 0.08506 0.78617 0.20799 0.0
C1494 C 0.07258 0.7775 0.244 0.0
C1495 C 0.06315 0.76007 0.2369 0.0
C1496 C 0.06429 0.75595 0.21495 0.0
C1497 C 0.07514 0.76885 0.20067 0.0
H1498 H 0.29313 0.32283 0.25686 0.0
H1499 H 0.2601 0.29389 0.30996 0.0
H1500 H 0.26851 0.31518 0.23467 0.0
H1501 H 0.23542 0.28582 0.28751 0.0
H1502 H 0.19936 0.29854 0.25356 0.0
H1503 H 0.22261 0.30097 0.27447 0.0
H1504 H 0.24374 0.2927 0.21557 0.0
H1505 H 0.22081 0.29105 0.19447 0.0
C1506 C 0.28061 0.31456 0.26367 0.0
C1507 C 0.27859 0.30913 0.28527 0.0
C1508 C 0.26646 0.31007 0.25088 0.0
C1509 C 0.24997 0.3 0.25937 0.0
C1510 C 0.24795 0.29387 0.28061 0.0
C1511 C 0.2621 0.29841 0.29344 0.0
C1512 C 0.20898 0.29726 0.24506 0.0
C1513 C 0.20833 0.2948 0.22232 0.0
C1514 C 0.2222 0.29841 0.25709 0.0
C1515 C 0.23509 0.29706 0.24671 0.0
C1516 C 0.23413 0.29399 0.22404 0.0
C1517 C 0.22089 0.29287 0.21198 0.0
H1518 H 0.26787 0.34662 0.35768 0.0
H1519 H 0.30635 0.35215 0.40187 0.0
H1520 H 0.25611 0.35599 0.38643 0.0
H1521 H 0.29497 0.36232 0.43064 0.0
H1522 H 0.25482 0.35634 0.48198 0.0
H1523 H 0.27114 0.35157 0.45412 0.0
H1524 H 0.2599 0.37933 0.4082 0.0
H1525 H 0.24292 0.38318 0.43583 0.0
C1526 C 0.27401 0.35013 0.37347 0.0
C1527 C 0.28799 0.34856 0.37751 0.0
C1528 C 0.26733 0.35566 0.38999 0.0
C1529 C 0.27461 0.36001 0.41093 0.0
C1530 C 0.2889 0.35886 0.41482 0.0
C1531 C 0.29548 0.35312 0.3983 0.0
C1532 C 0.25615 0.36163 0.466 0.0
C1533 C 0.2476 0.36999 0.46087 0.0
C1534 C 0.26553 0.35897 0.45003 0.0
C1535 C 0.26666 0.36483 0.42874 0.0
C1536 C 0.25894 0.37421 0.4242 0.0
C1537 C 0.24936 0.37659 0.44003 0.0
H1538 H 0.63191 0.93262 0.38546 0.0
H1539 H 0.68087 0.96679 0.41541 0.0
H1540 H 0.62593 0.91067 0.41207 0.0
H1541 H 0.67479 0.94499 0.44203 0.0
H1542 H 0.6674 0.89425 0.46563 0.0
H1543 H 0.67211 0.91664 0.44076 0.0
H1544 H 0.62087 0.90447 0.45164 0.0
H1545 H 0.61616 0.88207 0.47687 0.0
C1546 C 0.64132 0.93552 0.39782 0.0
C1547 C 0.65692 0.95141 0.39821 0.0
C1548 C 0.63785 0.92297 0.41312 0.0
C1549 C 0.64995 0.92606 0.42903 0.0
C1550 C 0.66533 0.94212 0.42975 0.0
C1551 C 0.66877 0.95465 0.41454 0.0
C1552 C 0.65719 0.89648 0.46301 0.0
C1553 C 0.64144 0.88644 0.4734 0.0
C1554 C 0.65989 0.90931 0.4487 0.0
C1555 C 0.6469 0.91239 0.44434 0.0
C1556 C 0.63108 0.90229 0.45455 0.0
C1557 C 0.62839 0.88946 0.46897 0.0
H1558 H 0.07404 0.71119 0.36744 0.0
H1559 H 0.03706 0.71772 0.40277 0.0
H1560 H 0.09382 0.72479 0.39775 0.0
H1561 H 0.05703 0.73192 0.4327 0.0
H1562 H 0.09145 0.74491 0.4908 0.0
H1563 H 0.07116 0.72806 0.46178 0.0
H1564 H 0.11134 0.75251 0.41422 0.0
H1565 H 0.13158 0.76887 0.44328 0.0
C1566 C 0.07015 0.71557 0.38165 0.0
C1567 C 0.05401 0.71343 0.38266 0.0
C1568 C 0.08153 0.72346 0.39901 0.0
C1569 C 0.0771 0.72956 0.41768 0.0
C1570 C 0.06082 0.72716 0.41876 0.0
C1571 C 0.04939 0.71912 0.40151 0.0
C1572 C 0.0959 0.74657 0.47413 0.0
C1573 C 0.11308 0.75816 0.46929 0.0
C1574 C 0.08428 0.73699 0.45748 0.0
C1575 C 0.08957 0.73894 0.4356 0.0
C1576 C 0.10683 0.7504 0.43087 0.0
C1577 C 0.11845 0.75984 0.44752 0.0
H1578 H 0.29101 0.03894 0.70219 0.0
H1579 H 0.33561 0.049 0.73701 0.0
H1580 H 0.28481 0.05356 0.73137 0.0
H1581 H 0.3298 0.06412 0.76571 0.0
H1582 H 0.30918 0.0798 0.8224 0.0
H1583 H 0.31163 0.0612 0.79506 0.0
H1584 H 0.29556 0.08217 0.74531 0.0
H1585 H 0.29269 0.10034 0.77276 0.0
C1586 C 0.29949 0.04427 0.71607 0.0
C1587 C 0.31383 0.04286 0.71724 0.0
C1588 C 0.29599 0.05274 0.73275 0.0
C1589 C 0.30683 0.06011 0.75089 0.0
C1590 C 0.321 0.05838 0.7522 0.0
C1591 C 0.32441 0.0498 0.73563 0.0
C1592 C 0.30609 0.08032 0.80562 0.0
C1593 C 0.30078 0.09153 0.79969 0.0
C1594 C 0.30754 0.06972 0.78994 0.0
C1595 C 0.3039 0.07024 0.76792 0.0
C1596 C 0.29821 0.0812 0.76212 0.0
C1597 C 0.29661 0.09166 0.77784 0.0
H1598 H 0.95458 0.29825 0.75324 0.0
H1599 H 0.97106 0.26684 0.72063 0.0
H1600 H 0.94012 0.27633 0.78051 0.0
H1601 H 0.95681 0.24497 0.74832 0.0
H1602 H 0.90933 0.20165 0.78424 0.0
H1603 H 0.9277 0.22394 0.75875 0.0
H1604 H 0.94461 0.26265 0.81063 0.0
H1605 H 0.92612 0.24033 0.8361 0.0
C1606 C 0.95528 0.28675 0.75201 0.0
C1607 C 0.9639 0.28426 0.73467 0.0
C1608 C 0.94709 0.27421 0.76778 0.0
C1609 C 0.94731 0.25888 0.76662 0.0
C1610 C 0.95624 0.25655 0.74954 0.0
C1611 C 0.96447 0.26912 0.73374 0.0
C1612 C 0.91722 0.21487 0.79029 0.0
C1613 C 0.91618 0.21925 0.81215 0.0
C1614 C 0.92776 0.22765 0.77568 0.0
C1615 C 0.93752 0.2451 0.78261 0.0
C1616 C 0.93701 0.24937 0.80468 0.0
C1617 C 0.92644 0.2366 0.81927 0.0
H1618 H 0.7039 0.677 0.76338 0.0
H1619 H 0.73758 0.7065 0.71107 0.0
H1620 H 0.72822 0.68426 0.78594 0.0
H1621 H 0.76198 0.7142 0.73391 0.0
H1622 H 0.7981 0.70214 0.76875 0.0
H1623 H 0.77497 0.69943 0.74729 0.0
H1624 H 0.75251 0.70648 0.80571 0.0
H1625 H 0.77529 0.70833 0.82736 0.0
C1626 C 0.71651 0.68528 0.75681 0.0
C1627 C 0.71879 0.69102 0.73533 0.0
C1628 C 0.73049 0.68955 0.76982 0.0
C1629 C 0.74709 0.69973 0.76171 0.0
C1630 C 0.74937 0.70607 0.74054 0.0
C1631 C 0.73538 0.70174 0.72748 0.0
C1632 C 0.7882 0.70306 0.77704 0.0
C1633 C 0.78845 0.70525 0.79981 0.0
C1634 C 0.77505 0.70175 0.76469 0.0
C1635 C 0.76183 0.70269 0.77476 0.0
C1636 C 0.76238 0.70548 0.79746 0.0
C1637 C 0.77553 0.70674 0.80985 0.0
H1638 H 0.71104 0.63573 0.65998 0.0
H1639 H 0.70115 0.66508 0.61511 0.0
H1640 H 0.72411 0.62808 0.63072 0.0
H1641 H 0.71464 0.65781 0.58599 0.0
H1642 H 0.73194 0.63383 0.53414 0.0
H1643 H 0.71374 0.63542 0.56223 0.0
H1644 H 0.75045 0.64394 0.61137 0.0
H1645 H 0.76814 0.64172 0.58359 0.0
C1646 C 0.71156 0.64047 0.64385 0.0
C1647 C 0.70523 0.65118 0.63994 0.0
C1648 C 0.71912 0.63614 0.62709 0.0
C1649 C 0.7206 0.6425 0.60606 0.0
C1650 C 0.71358 0.65257 0.60194 0.0
C1651 C 0.70595 0.65684 0.61869 0.0
C1652 C 0.73593 0.63576 0.551 0.0
C1653 C 0.75155 0.63785 0.55664 0.0
C1654 C 0.7256 0.63682 0.56706 0.0
C1655 C 0.73066 0.63986 0.58905 0.0
C1656 C 0.74603 0.64138 0.59466 0.0
C1657 C 0.75631 0.64035 0.57868 0.0
H1658 H 0.31576 0.03297 0.60149 0.0
H1659 H 0.36412 0.06822 0.63222 0.0
H1660 H 0.32156 0.05455 0.57463 0.0
H1661 H 0.36978 0.08994 0.60549 0.0
H1662 H 0.38004 0.11946 0.54216 0.0
H1663 H 0.37537 0.09661 0.56654 0.0
H1664 H 0.32324 0.08228 0.57516 0.0
H1665 H 0.32791 0.10507 0.55102 0.0
C1666 C 0.32767 0.04529 0.60248 0.0
C1667 C 0.33943 0.04891 0.6191 0.0
C1668 C 0.33094 0.0577 0.58714 0.0
C1669 C 0.34607 0.07401 0.58804 0.0
C1670 C 0.35807 0.07745 0.60425 0.0
C1671 C 0.35478 0.06503 0.61964 0.0
C1672 C 0.36761 0.11146 0.54933 0.0
C1673 C 0.35434 0.11406 0.54458 0.0
C1674 C 0.36494 0.09838 0.56327 0.0
C1675 C 0.34892 0.0876 0.57271 0.0
C1676 C 0.33564 0.09014 0.56783 0.0
C1677 C 0.33832 0.10321 0.55397 0.0
H1678 H 0.92206 0.28762 0.65245 0.0
H1679 H 0.96157 0.28683 0.61519 0.0
H1680 H 0.90238 0.27318 0.62199 0.0
H1681 H 0.94187 0.27235 0.58492 0.0
H1682 H 0.89452 0.22578 0.55131 0.0
H1683 H 0.91514 0.24249 0.57983 0.0
H1684 H 0.89861 0.27884 0.58224 0.0
H1685 H 0.8783 0.2625 0.55302 0.0
C1686 C 0.92656 0.28444 0.63776 0.0
C1687 C 0.94335 0.2883 0.63626 0.0
C1688 C 0.91533 0.27627 0.6203 0.0
C1689 C 0.92061 0.27161 0.60117 0.0
C1690 C 0.93744 0.27567 0.59957 0.0
C1691 C 0.94872 0.28402 0.61688 0.0
C1692 C 0.89547 0.23752 0.55751 0.0
C1693 C 0.88474 0.24279 0.54971 0.0
C1694 C 0.90725 0.24704 0.57396 0.0
C1695 C 0.90845 0.26194 0.58322 0.0
C1696 C 0.89781 0.26729 0.5755 0.0
C1697 C 0.88615 0.25789 0.55882 0.0
H1698 H 0.36645 0.29445 0.65306 0.0
H1699 H 0.32629 0.29171 0.61484 0.0
H1700 H 0.37187 0.27921 0.62374 0.0
H1701 H 0.33173 0.27647 0.58566 0.0
H1702 H 0.33139 0.22869 0.55597 0.0
H1703 H 0.32774 0.24668 0.58278 0.0
H1704 H 0.38189 0.28287 0.58409 0.0
H1705 H 0.38562 0.26518 0.55657 0.0
C1706 C 0.35888 0.29072 0.63836 0.0
C1707 C 0.34588 0.2942 0.63632 0.0
C1708 C 0.36205 0.28209 0.62154 0.0
C1709 C 0.35216 0.2766 0.6025 0.0
C1710 C 0.33943 0.28041 0.60026 0.0
C1711 C 0.33638 0.28921 0.61694 0.0
C1712 C 0.34253 0.24065 0.56156 0.0
C1713 C 0.35881 0.24549 0.55396 0.0
C1714 C 0.34042 0.25092 0.57702 0.0
C1715 C 0.35453 0.26617 0.58547 0.0
C1716 C 0.37081 0.27108 0.57795 0.0
C1717 C 0.37292 0.2609 0.56226 0.0
H1718 H 0.67916 0.0453 0.59223 0.0
H1719 H 0.72168 0.06821 0.63678 0.0
H1720 H 0.69715 0.06595 0.56463 0.0
H1721 H 0.73948 0.08872 0.60932 0.0
H1722 H 0.77082 0.10783 0.54751 0.0
H1723 H 0.7515 0.08668 0.57354 0.0
H1724 H 0.71333 0.09827 0.55801 0.0
H1725 H 0.73264 0.11933 0.53158 0.0
C1726 C 0.69228 0.05477 0.59618 0.0
C1727 C 0.69899 0.05506 0.61667 0.0
C1728 C 0.70255 0.06662 0.58041 0.0
C1729 C 0.71974 0.07882 0.58478 0.0
C1730 C 0.72634 0.07928 0.60538 0.0
C1731 C 0.71609 0.06758 0.62116 0.0
C1732 C 0.75822 0.1057 0.5494 0.0
C1733 C 0.75324 0.11524 0.5375 0.0
C1734 C 0.74723 0.09372 0.56447 0.0
C1735 C 0.73097 0.09093 0.56792 0.0
C1736 C 0.72578 0.10012 0.55562 0.0
C1737 C 0.73686 0.11224 0.54064 0.0
H1738 H 0.92333 0.62657 0.63386 0.0
H1739 H 0.95913 0.65832 0.5845 0.0
H1740 H 0.89991 0.6204 0.61001 0.0
H1741 H 0.93571 0.65248 0.56089 0.0
H1742 H 0.88944 0.63029 0.51733 0.0
H1743 H 0.91153 0.63091 0.53932 0.0
H1744 H 0.88842 0.63711 0.59765 0.0
H1745 H 0.86612 0.63584 0.57582 0.0
C1746 C 0.92621 0.63213 0.61786 0.0
C1747 C 0.94311 0.64307 0.61117 0.0
C1748 C 0.91279 0.62866 0.60424 0.0
C1749 C 0.91594 0.63609 0.58363 0.0
C1750 C 0.93283 0.64642 0.57658 0.0
C1751 C 0.94626 0.64986 0.59018 0.0
C1752 C 0.88895 0.63149 0.53488 0.0
C1753 C 0.87612 0.63315 0.54483 0.0
C1754 C 0.90168 0.63201 0.54745 0.0
C1755 C 0.90178 0.63412 0.57024 0.0
C1756 C 0.88865 0.63528 0.58018 0.0
C1757 C 0.87597 0.63478 0.56764 0.0
H1758 H 0.95219 0.65935 0.7311 0.0
H1759 H 0.95569 0.70083 0.69425 0.0
H1760 H 0.93892 0.66615 0.76102 0.0
H1761 H 0.94245 0.70767 0.72441 0.0
H1762 H 0.93183 0.72289 0.79339 0.0
H1763 H 0.94782 0.7181 0.76503 0.0
H1764 H 0.91007 0.66347 0.7639 0.0
H1765 H 0.89374 0.66818 0.79141 0.0
C1766 C 0.95029 0.67003 0.72946 0.0
C1767 C 0.95488 0.67948 0.71023 0.0
C1768 C 0.94264 0.67387 0.74657 0.0
C1769 C 0.9396 0.68736 0.74495 0.0
C1770 C 0.94474 0.69725 0.7261 0.0
C1771 C 0.95222 0.69327 0.70882 0.0
C1772 C 0.92685 0.70987 0.787 0.0
C1773 C 0.91148 0.69592 0.79484 0.0
C1774 C 0.93606 0.70715 0.77083 0.0
C1775 C 0.9302 0.69041 0.7624 0.0
C1776 C 0.91501 0.67647 0.77038 0.0
C1777 C 0.9057 0.67919 0.78628 0.0
H1778 H 0.29711 0.26978 0.72017 0.0
H1779 H 0.34489 0.3056 0.75184 0.0
H1780 H 0.29185 0.24784 0.74645 0.0
H1781 H 0.33951 0.28381 0.77813 0.0
H1782 H 0.33502 0.23404 0.80051 0.0
H1783 H 0.33877 0.25644 0.77632 0.0
H1784 H 0.28634 0.24071 0.78573 0.0
H1785 H 0.28258 0.21828 0.81029 0.0
C1786 C 0.30639 0.27304 0.73286 0.0
C1787 C 0.32149 0.28939 0.73379 0.0
C1788 C 0.30334 0.2605 0.74796 0.0
C1789 C 0.31535 0.26406 0.76423 0.0
C1790 C 0.33016 0.28059 0.76555 0.0
C1791 C 0.33319 0.2931 0.75053 0.0
C1792 C 0.32434 0.23549 0.79773 0.0
C1793 C 0.30853 0.22443 0.80749 0.0
C1794 C 0.32649 0.24833 0.78381 0.0
C1795 C 0.31288 0.25042 0.77922 0.0
C1796 C 0.29702 0.23931 0.78883 0.0
C1797 C 0.29488 0.22647 0.80287 0.0
H1798 H 0.74966 0.06674 0.6956 0.0
H1799 H 0.70994 0.03103 0.73846 0.0
H1800 H 0.7691 0.07918 0.7262 0.0
H1801 H 0.72966 0.04308 0.76912 0.0
H1802 H 0.76302 0.0846 0.82118 0.0
H1803 H 0.74346 0.06868 0.79137 0.0
H1804 H 0.78517 0.07489 0.7518 0.0
H1805 H 0.80485 0.09184 0.781 0.0
C1806 C 0.74514 0.06135 0.71152 0.0
C1807 C 0.72822 0.04796 0.71461 0.0
C1808 C 0.75636 0.06841 0.7291 0.0
C1809 C 0.75099 0.06216 0.7502 0.0
C1810 C 0.73416 0.04841 0.75317 0.0
C1811 C 0.72288 0.04143 0.73558 0.0
C1812 C 0.76804 0.08265 0.80609 0.0
C1813 C 0.78558 0.08972 0.80348 0.0
C1814 C 0.75677 0.07327 0.78907 0.0
C1815 C 0.76272 0.07059 0.76906 0.0
C1816 C 0.78015 0.07697 0.76682 0.0
C1817 C 0.79144 0.08649 0.78375 0.0
H1818 H 0.05703 0.36204 0.04755 0.0
H1819 H 0.04238 0.31754 0.00517 0.0
H1820 H 0.07432 0.35493 0.06894 0.0
H1821 H 0.05992 0.31059 0.02644 0.0
H1822 H 0.07321 0.29157 0.08758 0.0
H1823 H 0.05828 0.29977 0.06315 0.0
H1824 H 0.09973 0.35304 0.06788 0.0
H1825 H 0.11471 0.34485 0.09223 0.0
C1826 C 0.05769 0.35088 0.0426 0.0
C1827 C 0.04822 0.34028 0.02475 0.0
C1828 C 0.06767 0.34685 0.05482 0.0
C1829 C 0.06838 0.33211 0.04948 0.0
C1830 C 0.05941 0.32187 0.03115 0.0
C1831 C 0.04946 0.32594 0.01888 0.0
C1832 C 0.07922 0.305 0.08322 0.0
C1833 C 0.0951 0.31757 0.09194 0.0
C1834 C 0.07068 0.3097 0.06919 0.0
C1835 C 0.07784 0.32706 0.06358 0.0
C1836 C 0.09379 0.3396 0.07213 0.0
C1837 C 0.10234 0.3349 0.08613 0.0
H1838 H 0.65735 0.68578 0.05798 0.0
H1839 H 0.67733 0.71592 0.99998 0.0
H1840 H 0.66297 0.71153 0.0786 0.0
H1841 H 0.68278 0.74172 0.02069 0.0
H1842 H 0.70759 0.78671 0.07171 0.0
H1843 H 0.70186 0.76103 0.05048 0.0
H1844 H 0.65263 0.7315 0.08087 0.0
H1845 H 0.65853 0.75702 0.10248 0.0
C1846 C 0.66288 0.69789 0.04959 0.0
C1847 C 0.66692 0.69881 0.02732 0.0
C1848 C 0.66601 0.71262 0.0614 0.0
C1849 C 0.67331 0.72863 0.05126 0.0
C1850 C 0.6773 0.72957 0.02898 0.0
C1851 C 0.67408 0.71478 0.0171 0.0
C1852 C 0.69561 0.77469 0.07398 0.0
C1853 C 0.68352 0.77386 0.08878 0.0
C1854 C 0.69226 0.76005 0.06165 0.0
C1855 C 0.67679 0.74427 0.06399 0.0
C1856 C 0.66472 0.74345 0.07884 0.0
C1857 C 0.66804 0.75809 0.09108 0.0
H1858 H 0.30304 0.98603 0.04136 0.0
H1859 H 0.30726 0.94182 0.02556 0.0
H1860 H 0.27691 0.96755 0.06114 0.0
H1861 H 0.28086 0.92325 0.04505 0.0
H1862 H 0.2452 0.90021 0.10349 0.0
H1863 H 0.27088 0.91856 0.0827 0.0
H1864 H 0.24749 0.94432 0.05562 0.0
H1865 H 0.22178 0.92595 0.07649 0.0
C1866 C 0.29832 0.97233 0.04193 0.0
C1867 C 0.30728 0.9654 0.03194 0.0
C1868 C 0.28328 0.96173 0.05319 0.0
C1869 C 0.27684 0.94395 0.05473 0.0
C1870 C 0.28564 0.93695 0.04442 0.0
C1871 C 0.3007 0.94757 0.03313 0.0
C1872 C 0.24551 0.90973 0.093 0.0
C1873 C 0.23145 0.91161 0.09159 0.0
C1874 C 0.2602 0.92021 0.08105 0.0
C1875 C 0.26118 0.93282 0.06741 0.0
C1876 C 0.24719 0.93484 0.06617 0.0
C1877 C 0.23248 0.92435 0.07815 0.0
H1878 H 0.31101 0.01838 0.96187 0.0
H1879 H 0.35706 0.06116 0.99011 0.0
H1880 H 0.30516 0.03861 0.94517 0.0
H1881 H 0.35106 0.08146 0.97346 0.0
H1882 H 0.34412 0.11027 0.91754 0.0
H1883 H 0.34995 0.09065 0.93608 0.0
H1884 H 0.29743 0.06005 0.95565 0.0
H1885 H 0.29159 0.07981 0.93736 0.0
C1886 C 0.31986 0.03211 0.9646 0.0
C1887 C 0.33453 0.03817 0.97728 0.0
C1888 C 0.31643 0.04369 0.95513 0.0
C1889 C 0.32763 0.06161 0.95802 0.0
C1890 C 0.34227 0.0677 0.97079 0.0
C1891 C 0.34566 0.05609 0.98041 0.0
C1892 C 0.33384 0.09948 0.92602 0.0
C1893 C 0.31738 0.09663 0.92598 0.0
C1894 C 0.3372 0.08825 0.93664 0.0
C1895 C 0.32416 0.07384 0.94734 0.0
C1896 C 0.3077 0.07095 0.94732 0.0
C1897 C 0.30435 0.08224 0.93678 0.0
H1898 H 0.98712 0.3029 0.98348 0.0
H1899 H 0.94483 0.30591 0.00816 0.0
H1900 H 0.96751 0.27528 0.9655 0.0
H1901 H 0.92518 0.27847 0.98962 0.0
H1902 H 0.89395 0.22173 0.96831 0.0
H1903 H 0.9139 0.24779 0.98918 0.0
H1904 H 0.94868 0.26494 0.9348 0.0
H1905 H 0.92883 0.23877 0.91414 0.0
C1906 C 0.97362 0.29766 0.98508 0.0
C1907 C 0.96752 0.30664 0.99716 0.0
C1908 C 0.96238 0.28186 0.97466 0.0
C1909 C 0.94477 0.27472 0.97595 0.0
C1910 C 0.93866 0.28351 0.98848 0.0
C1911 C 0.94992 0.29928 0.99903 0.0
C1912 C 0.90587 0.2311 0.96085 0.0
C1913 C 0.90984 0.22824 0.9396 0.0
C1914 C 0.91728 0.24604 0.97278 0.0
C1915 C 0.93288 0.25848 0.96367 0.0
C1916 C 0.93691 0.2555 0.94247 0.0
C1917 C 0.92554 0.24052 0.9306 0.0
H1918 H 0.696 0.67541 0.94529 0.0
H1919 H 0.70466 0.64909 0.99612 0.0
H1920 H 0.72327 0.68354 0.92908 0.0
H1921 H 0.73206 0.65725 0.97969 0.0
H1922 H 0.76841 0.65775 0.92509 0.0
H1923 H 0.74203 0.65016 0.94396 0.0
H1924 H 0.7544 0.70282 0.93917 0.0
H1925 H 0.78073 0.71039 0.9202 0.0
C1926 C 0.70372 0.67134 0.95301 0.0
C1927 C 0.69817 0.66158 0.97197 0.0
C1928 C 0.71938 0.67611 0.94379 0.0
C1929 C 0.72977 0.67108 0.95319 0.0
C1930 C 0.72423 0.66123 0.97209 0.0
C1931 C 0.7086 0.65662 0.9815 0.0
C1932 C 0.76547 0.66768 0.92811 0.0
C1933 C 0.77653 0.68463 0.92111 0.0
C1934 C 0.75048 0.66338 0.93906 0.0
C1935 C 0.74619 0.6759 0.94295 0.0
C1936 C 0.75737 0.6929 0.93622 0.0
C1937 C 0.77245 0.69725 0.92551 0.0
H1938 H 0.951 0.66401 0.00214 0.0
H1939 H 0.96865 0.66017 0.93802 0.0
H1940 H 0.9329 0.67286 0.98614 0.0
H1941 H 0.95007 0.66818 0.92192 0.0
H1942 H 0.92906 0.69963 0.89973 0.0
H1943 H 0.94739 0.69212 0.91757 0.0
H1944 H 0.90831 0.66362 0.9653 0.0
H1945 H 0.8905 0.67232 0.94847 0.0
C1946 C 0.95081 0.66481 0.98461 0.0
C1947 C 0.96129 0.66149 0.97134 0.0
C1948 C 0.9404 0.66984 0.9754 0.0
C1949 C 0.94009 0.67141 0.9527 0.0
C1950 C 0.95027 0.66757 0.93947 0.0
C1951 C 0.96083 0.66281 0.94869 0.0
C1952 C 0.92448 0.69208 0.9143 0.0
C1953 C 0.90823 0.68656 0.92256 0.0
C1954 C 0.93491 0.68749 0.92434 0.0
C1955 C 0.92928 0.67703 0.94275 0.0
C1956 C 0.91315 0.67177 0.95126 0.0
C1957 C 0.90281 0.67656 0.94138 0.0
H1958 H 0.31681 0.30709 0.97371 0.0
H1959 H 0.35676 0.30615 0.0077 0.0
H1960 H 0.30902 0.27998 0.95495 0.0
H1961 H 0.3494 0.27931 0.98828 0.0
H1962 H 0.32219 0.22317 0.96445 0.0
H1963 H 0.32845 0.24927 0.98496 0.0
H1964 H 0.3191 0.26903 0.92719 0.0
H1965 H 0.31238 0.2427 0.907 0.0
C1966 C 0.324 0.30113 0.97709 0.0
C1967 C 0.33743 0.30878 0.99215 0.0
C1968 C 0.31959 0.28562 0.96622 0.0
C1969 C 0.32864 0.27748 0.96997 0.0
C1970 C 0.342 0.28508 0.98521 0.0
C1971 C 0.34629 0.30052 0.99626 0.0
C1972 C 0.32147 0.23312 0.95621 0.0
C1973 C 0.31679 0.23093 0.93417 0.0
C1974 C 0.32512 0.2481 0.96791 0.0
C1975 C 0.32432 0.2613 0.95774 0.0
C1976 C 0.31955 0.25902 0.93567 0.0
C1977 C 0.31574 0.24396 0.92406 0.0
H1978 H 0.6953 0.06136 0.99955 0.0
H1979 H 0.69886 0.01827 0.97534 0.0
H1980 H 0.7223 0.08139 0.98204 0.0
H1981 H 0.72562 0.03822 0.95772 0.0
H1982 H 0.78099 0.08001 0.94576 0.0
H1983 H 0.75524 0.06084 0.96606 0.0
H1984 H 0.73257 0.08882 0.94408 0.0
H1985 H 0.75822 0.10788 0.92362 0.0
C1986 C 0.70187 0.05617 0.99063 0.0
C1987 C 0.6949 0.03823 0.98877 0.0
C1988 C 0.71727 0.06762 0.9805 0.0
C1989 C 0.72603 0.06136 0.96844 0.0
C1990 C 0.71926 0.04345 0.96706 0.0
C1991 C 0.70386 0.03202 0.97707 0.0
C1992 C 0.77046 0.08198 0.9451 0.0
C1993 C 0.77165 0.09545 0.93302 0.0
C1994 C 0.75574 0.07104 0.95679 0.0
C1995 C 0.74191 0.07336 0.95671 0.0
C1996 C 0.74312 0.08689 0.94476 0.0
C1997 C 0.75781 0.09779 0.93301 0.0
H1998 H 0.65678 0.96929 0.07489 0.0
H1999 H 0.65762 0.94835 0.01117 0.0
H2000 H 0.6638 0.94993 0.09142 0.0
H2001 H 0.66535 0.92935 0.02766 0.0
H2002 H 0.66415 0.88669 0.06678 0.0
H2003 H 0.65564 0.90477 0.04973 0.0
H2004 H 0.68726 0.94663 0.09506 0.0
H2005 H 0.69482 0.9282 0.113 0.0
C2006 C 0.65852 0.96056 0.0644 0.0
C2007 C 0.65672 0.96039 0.04172 0.0
C2008 C 0.66269 0.94954 0.07387 0.0
C2009 C 0.66539 0.93822 0.06088 0.0
C2010 C 0.66323 0.93779 0.03819 0.0
C2011 C 0.65885 0.94871 0.02871 0.0
C2012 C 0.66913 0.89968 0.07328 0.0
C2013 C 0.68009 0.90592 0.09138 0.0
C2014 C 0.66442 0.91014 0.0633 0.0
C2015 C 0.67067 0.92715 0.07106 0.0
C2016 C 0.68193 0.93349 0.08887 0.0
C2017 C 0.6865 0.923 0.09897 0.0
H2018 H 0.05951 0.70033 0.01059 0.0
H2019 H 0.01804 0.70331 0.03861 0.0
H2020 H 0.07976 0.72785 0.02877 0.0
H2021 H 0.03826 0.73068 0.05675 0.0
H2022 H 0.08013 0.78739 0.06971 0.0
H2023 H 0.06058 0.76136 0.04845 0.0
H2024 H 0.08784 0.73739 0.06793 0.0
H2025 H 0.10714 0.76316 0.08958 0.0
C2026 C 0.05472 0.70692 0.02045 0.0
C2027 C 0.03718 0.69961 0.02325 0.0
C2028 C 0.0663 0.7226 0.03094 0.0
C2029 C 0.06057 0.73135 0.04422 0.0
C2030 C 0.04304 0.7243 0.04647 0.0
C2031 C 0.03148 0.70856 0.03618 0.0
C2032 C 0.08188 0.77652 0.06962 0.0
C2033 C 0.09522 0.77739 0.08138 0.0
C2034 C 0.07073 0.76166 0.05736 0.0
C2035 C 0.07276 0.7474 0.05646 0.0
C2036 C 0.08616 0.7483 0.06802 0.0
C2037 C 0.09721 0.76309 0.08041 0.0
H2038 H 0.29602 0.31786 0.06585 0.0
H2039 H 0.29309 0.35543 0.02787 0.0
H2040 H 0.26935 0.31006 0.08351 0.0
H2041 H 0.26615 0.34736 0.04537 0.0
H2042 H 0.2298 0.34241 0.10092 0.0
H2043 H 0.25577 0.3499 0.08137 0.0
H2044 H 0.23908 0.29575 0.07558 0.0
H2045 H 0.21334 0.28831 0.09581 0.0
C2046 C 0.28964 0.32441 0.06118 0.0
C2047 C 0.2967 0.3373 0.04548 0.0
C2048 C 0.27428 0.31983 0.07121 0.0
C2049 C 0.26561 0.32805 0.06579 0.0
C2050 C 0.27262 0.34091 0.05004 0.0
C2051 C 0.28801 0.34548 0.03995 0.0
C2052 C 0.23172 0.33212 0.09558 0.0
C2053 C 0.21958 0.31478 0.10006 0.0
C2054 C 0.24651 0.33639 0.08415 0.0
C2055 C 0.2495 0.32342 0.07697 0.0
C2056 C 0.23722 0.30605 0.08112 0.0
C2057 C 0.22241 0.30177 0.09252 0.0
H2058 H 0.70007 0.64924 0.33833 0.0
H2059 H 0.71374 0.69283 0.38196 0.0
H2060 H 0.71819 0.64263 0.35896 0.0
H2061 H 0.73159 0.68607 0.40267 0.0
H2062 H 0.77466 0.67891 0.42214 0.0
H2063 H 0.75784 0.68591 0.39953 0.0
H2064 H 0.71832 0.63182 0.39528 0.0
H2065 H 0.73513 0.62479 0.41803 0.0
C2066 C 0.707 0.65746 0.35223 0.0
C2067 C 0.70545 0.67155 0.35851 0.0
C2068 C 0.71728 0.6536 0.36413 0.0
C2069 C 0.72628 0.6638 0.38248 0.0
C2070 C 0.72497 0.67807 0.38848 0.0
C2071 C 0.71466 0.6819 0.37666 0.0
C2072 C 0.76232 0.66852 0.41656 0.0
C2073 C 0.75619 0.6513 0.42201 0.0
C2074 C 0.7527 0.67253 0.40355 0.0
C2075 C 0.73674 0.65942 0.39564 0.0
C2076 C 0.73068 0.64218 0.40088 0.0
C2077 C 0.74029 0.63816 0.41393 0.0
H2078 H 0.34419 0.03078 0.38299 0.0
H2079 H 0.30767 0.03454 0.3445 0.0
H2080 H 0.35247 0.05828 0.40136 0.0
H2081 H 0.31597 0.06206 0.363 0.0
H2082 H 0.32037 0.09701 0.42255 0.0
H2083 H 0.31324 0.07077 0.40192 0.0
H2084 H 0.3665 0.09018 0.39242 0.0
H2085 H 0.37376 0.1168 0.41249 0.0
C2086 C 0.33798 0.0375 0.37839 0.0
C2087 C 0.32523 0.03046 0.36235 0.0
C2088 C 0.3428 0.05329 0.38882 0.0
C2089 C 0.33484 0.06225 0.38361 0.0
C2090 C 0.32222 0.05532 0.36743 0.0
C2091 C 0.31753 0.03962 0.35679 0.0
C2092 C 0.3306 0.09588 0.41577 0.0
C2093 C 0.34766 0.10911 0.41912 0.0
C2094 C 0.32648 0.0808 0.404 0.0
C2095 C 0.33931 0.0785 0.39553 0.0
C2096 C 0.35636 0.0916 0.39894 0.0
C2097 C 0.3605 0.1068 0.41052 0.0
H2098 H 0.95392 0.3061 0.33989 0.0
H2099 H 0.98357 0.30855 0.39506 0.0
H2100 H 0.92799 0.28515 0.35852 0.0
H2101 H 0.9576 0.28745 0.41358 0.0
H2102 H 0.90621 0.26468 0.44874 0.0
H2103 H 0.93212 0.28582 0.43002 0.0
H2104 H 0.91372 0.25491 0.37058 0.0
H2105 H 0.88769 0.23401 0.38915 0.0
C2106 C 0.95492 0.30212 0.35595 0.0
C2107 C 0.97081 0.309 0.36599 0.0
C2108 C 0.94007 0.29006 0.36657 0.0
C2109 C 0.94077 0.28468 0.38752 0.0
C2110 C 0.95666 0.29151 0.39754 0.0
C2111 C 0.97153 0.30349 0.38686 0.0
C2112 C 0.90766 0.2625 0.43163 0.0
C2113 C 0.89494 0.2477 0.42041 0.0
C2114 C 0.92255 0.2745 0.42098 0.0
C2115 C 0.92496 0.27199 0.39885 0.0
C2116 C 0.91217 0.25726 0.38759 0.0
C2117 C 0.89734 0.24522 0.39827 0.0
H2118 H 0.99476 0.35637 0.28174 0.0
H2119 H 0.02638 0.39573 0.32967 0.0
H2120 H 0.98851 0.37631 0.26517 0.0
H2121 H 0.02094 0.4161 0.31241 0.0
H2122 H 0.99562 0.44401 0.28949 0.0
H2123 H 0.00059 0.42333 0.30694 0.0
H2124 H -4e-05 0.40062 0.24377 0.0
H2125 H 0.99411 0.42076 0.22666 0.0
C2126 C 0.00054 0.36938 0.28858 0.0
C2127 C 0.01106 0.37451 0.30699 0.0
C2128 C 0.99705 0.38089 0.27899 0.0
C2129 C 0.00425 0.39792 0.28733 0.0
C2130 C 0.01488 0.40303 0.30573 0.0
C2131 C 0.01812 0.3914 0.31556 0.0
C2132 C 0.99649 0.4345 0.27945 0.0
C2133 C 0.99443 0.43387 0.2568 0.0
C2134 C -0.00054 0.42273 0.28938 0.0
C2135 C 0.00075 0.41027 0.27682 0.0
C2136 C -0.00128 0.40976 0.25408 0.0
C2137 C 0.99544 0.42133 0.24421 0.0
H2138 H 0.63308 0.65064 0.29928 0.0
H2139 H 0.63005 0.62104 0.35476 0.0
H2140 H 0.61208 0.62415 0.28025 0.0
H2141 H 0.60878 0.59449 0.33574 0.0
H2142 H 0.58621 0.54988 0.284 0.0
H2143 H 0.60694 0.57619 0.30397 0.0
H2144 H 0.58189 0.60192 0.28228 0.0
H2145 H 0.56155 0.57587 0.26182 0.0
C2146 C 0.62786 0.63849 0.30748 0.0
C2147 C 0.63325 0.63796 0.32855 0.0
C2148 C 0.61575 0.62331 0.2966 0.0
C2149 C 0.60876 0.60723 0.3065 0.0
C2150 C 0.61408 0.60668 0.32761 0.0
C2151 C 0.62617 0.6219 0.33855 0.0
C2152 C 0.58522 0.56121 0.2834 0.0
C2153 C 0.57226 0.56081 0.27133 0.0
C2154 C 0.59697 0.5762 0.29502 0.0
C2155 C 0.59604 0.59112 0.2947 0.0
C2156 C 0.58304 0.59069 0.28268 0.0
C2157 C 0.57128 0.5757 0.27114 0.0
H2158 H 0.36917 0.02005 0.2976 0.0
H2159 H 0.36077 0.97341 0.32638 0.0
H2160 H 0.39474 0.02431 0.28009 0.0
H2161 H 0.38618 0.97742 0.30831 0.0
H2162 H 0.44165 -0.00074 0.28916 0.0
H2163 H 0.41681 0.99578 0.30831 0.0
H2164 H 0.40262 0.0117 0.25102 0.0
H2165 H 0.42753 0.01538 0.23206 0.0
C2166 C 0.37275 0.01066 0.30013 0.0
C2167 C 0.36291 0.99636 0.31333 0.0
C2168 C 0.38737 0.01306 0.28998 0.0
C2169 C 0.39246 0.00116 0.29267 0.0
C2170 C 0.38272 0.98694 0.30608 0.0
C2171 C 0.36811 0.98458 0.31635 0.0
C2172 C 0.43318 0.00198 0.28069 0.0
C2173 C 0.43655 0.00765 0.25915 0.0
C2174 C 0.41894 -6e-05 0.29162 0.0
C2175 C 0.40773 0.00347 0.28121 0.0
C2176 C 0.41115 0.00917 0.25966 0.0
C2177 C 0.42542 0.01128 0.24878 0.0
H2178 H 0.60845 0.9705 0.32006 0.0
H2179 H 0.64784 0.01514 0.28671 0.0
H2180 H 0.58696 0.97375 0.30224 0.0
H2181 H 0.62646 0.01864 0.26941 0.0
H2182 H 0.5837 0.00868 0.22413 0.0
H2183 H 0.6047 0.0048 0.24203 0.0
H2184 H 0.57585 0.99261 0.30176 0.0
H2185 H 0.55474 0.99631 0.28372 0.0
C2186 C 0.61252 0.98106 0.30903 0.0
C2187 C 0.62984 0.99253 0.30474 0.0
C2188 C 0.60022 0.98297 0.29891 0.0
C2189 C 0.60499 0.99643 0.28434 0.0
C2190 C 0.62233 0.00796 0.28024 0.0
C2191 C 0.6346 0.00601 0.29028 0.0
C2192 C 0.58192 0.0053 0.24113 0.0
C2193 C 0.56761 0.00286 0.25254 0.0
C2194 C 0.59395 0.00308 0.2514 0.0
C2195 C 0.59199 0.99845 0.27336 0.0
C2196 C 0.57763 0.99594 0.28475 0.0
C2197 C 0.56555 0.9981 0.27444 0.0
H2198 H 0.98733 0.64179 0.30636 0.0
H2199 H 0.02659 0.64193 0.34351 0.0
H2200 H 0.98114 0.61519 0.28756 0.0
H2201 H 0.0209 0.61564 0.32405 0.0
H2202 H 0.9967 0.56013 0.29863 0.0
H2203 H 0.00113 0.58551 0.31934 0.0
H2204 H 0.99287 0.60535 0.26082 0.0
H2205 H 0.98791 0.57971 0.24044 0.0
C2206 C 0.9947 0.63617 0.31043 0.0
C2207 C 0.00748 0.64398 0.32638 0.0
C2208 C 0.99123 0.62096 0.29955 0.0
C2209 C 0.00059 0.61329 0.30414 0.0
C2210 C 0.01327 0.62103 0.32029 0.0
C2211 C 0.01661 0.63616 0.33137 0.0
C2212 C 0.9958 0.56994 0.29029 0.0
C2213 C 0.99191 0.56797 0.26798 0.0
C2214 C 0.99842 0.58451 0.30209 0.0
C2215 C 0.99738 0.59752 0.29178 0.0
C2216 C 0.99345 0.59546 0.26943 0.0
C2217 C 0.99065 0.5808 0.2577 0.0
H2218 H 0.35552 0.39392 0.3246 0.0
H2219 H 0.35755 0.34955 0.30215 0.0
H2220 H 0.38223 0.41297 0.30602 0.0
H2221 H 0.38435 0.36862 0.2839 0.0
H2222 H 0.42255 0.40746 0.23499 0.0
H2223 H 0.39562 0.38814 0.25301 0.0
H2224 H 0.41234 0.4226 0.30952 0.0
H2225 H 0.43925 0.44185 0.29158 0.0
C2226 C 0.36166 0.38823 0.31574 0.0
C2227 C 0.35442 0.37023 0.31489 0.0
C2228 C 0.37701 0.39915 0.3052 0.0
C2229 C 0.38541 0.39229 0.29355 0.0
C2230 C 0.37809 0.37428 0.29255 0.0
C2231 C 0.36278 0.36337 0.30312 0.0
C2232 C 0.42054 0.4108 0.25135 0.0
C2233 C 0.43301 0.4262 0.26183 0.0
C2234 C 0.40511 0.39975 0.26165 0.0
C2235 C 0.40183 0.4039 0.28264 0.0
C2236 C 0.41437 0.41921 0.29319 0.0
C2237 C 0.42978 0.43022 0.28292 0.0
H2238 H 0.31153 0.27943 0.36525 0.0
H2239 H 0.35551 0.3243 0.39419 0.0
H2240 H 0.31934 0.26074 0.38224 0.0
H2241 H 0.36349 0.3056 0.41083 0.0
H2242 H 0.36055 0.26451 0.45629 0.0
H2243 H 0.35396 0.28415 0.43914 0.0
H2244 H 0.34108 0.25345 0.37944 0.0
H2245 H 0.34758 0.23382 0.39662 0.0
C2246 C 0.32289 0.28531 0.37518 0.0
C2247 C 0.33289 0.30335 0.37837 0.0
C2248 C 0.32743 0.27461 0.3848 0.0
C2249 C 0.34208 0.2817 0.39781 0.0
C2250 C 0.35204 0.29973 0.40108 0.0
C2251 C 0.3475 0.31044 0.39145 0.0
C2252 C 0.35654 0.26212 0.43942 0.0
C2253 C 0.35449 0.24758 0.42783 0.0
C2254 C 0.35275 0.27335 0.42959 0.0
C2255 C 0.34686 0.27027 0.40798 0.0
C2256 C 0.34525 0.25598 0.39625 0.0
C2257 C 0.34901 0.24476 0.40607 0.0
H2258 H 0.72421 0.03428 0.33847 0.0
H2259 H 0.68192 0.02929 0.37544 0.0
H2260 H 0.74319 0.06186 0.35708 0.0
H2261 H 0.7007 0.05719 0.39338 0.0
H2262 H 0.74193 0.09712 0.43934 0.0
H2263 H 0.72239 0.0702 0.41978 0.0
H2264 H 0.75112 0.09112 0.36063 0.0
H2265 H 0.77098 0.11779 0.38055 0.0
C2266 C 0.71894 0.03919 0.35039 0.0
C2267 C 0.7016 0.02958 0.35558 0.0
C2268 C 0.7298 0.05506 0.36097 0.0
C2269 C 0.72351 0.06179 0.3768 0.0
C2270 C 0.70607 0.05229 0.38162 0.0
C2271 C 0.69526 0.03632 0.37124 0.0
C2272 C 0.74393 0.09597 0.42211 0.0
C2273 C 0.75795 0.10948 0.41144 0.0
C2274 C 0.73272 0.08058 0.41085 0.0
C2275 C 0.73516 0.07843 0.38858 0.0
C2276 C 0.74901 0.09216 0.37784 0.0
C2277 C 0.76034 0.10748 0.38919 0.0
H2278 H 0.96154 0.6904 0.35537 0.0
H2279 H 0.96152 0.6524 0.39593 0.0
H2280 H 0.93398 0.68294 0.37021 0.0
H2281 H 0.93422 0.64523 0.41101 0.0
H2282 H 0.87838 0.62513 0.4198 0.0
H2283 H 0.90445 0.6316 0.4012 0.0
H2284 H 0.92227 0.6861 0.40454 0.0
H2285 H 0.89596 0.67957 0.42237 0.0
C2286 C 0.95568 0.68049 0.36747 0.0
C2287 C 0.96374 0.67203 0.37451 0.0
C2288 C 0.93992 0.67626 0.37602 0.0
C2289 C 0.9319 0.66347 0.39177 0.0
C2290 C 0.93993 0.65494 0.39866 0.0
C2291 C 0.95565 0.65916 0.39013 0.0
C2292 C 0.88774 0.63846 0.41624 0.0
C2293 C 0.88515 0.65184 0.42266 0.0
C2294 C 0.90276 0.64219 0.4058 0.0
C2295 C 0.91548 0.65938 0.40153 0.0
C2296 C 0.91268 0.67271 0.40744 0.0
C2297 C 0.89768 0.66899 0.41788 0.0
H2298 H 0.38318 0.03204 0.71393 0.0
H2299 H 0.37006 0.98708 0.67323 0.0
H2300 H 0.40339 0.02806 0.73371 0.0
H2301 H 0.3905 0.98328 0.69286 0.0
H2302 H 0.41184 0.97012 0.7517 0.0
H2303 H 0.39301 0.9747 0.72953 0.0
H2304 H 0.4304 0.02949 0.7293 0.0
H2305 H 0.44926 0.02492 0.75138 0.0
C2306 C 0.38473 0.02141 0.70905 0.0
C2307 C 0.37495 0.00983 0.69206 0.0
C2308 C 0.39638 0.01918 0.72032 0.0
C2309 C 0.39849 0.00531 0.7149 0.0
C2310 C 0.38898 0.99395 0.69761 0.0
C2311 C 0.37736 0.9962 0.68628 0.0
C2312 C 0.41611 0.98311 0.74672 0.0
C2313 C 0.43201 0.99717 0.75339 0.0
C2314 C 0.40534 0.98573 0.734 0.0
C2315 C 0.41022 0.00246 0.72769 0.0
C2316 C 0.42618 0.01648 0.73417 0.0
C2317 C 0.43696 0.01387 0.74686 0.0
H2318 H 0.96723 0.35868 0.67958 0.0
H2319 H 0.01159 0.36346 0.70904 0.0
H2320 H 0.97255 0.3846 0.69962 0.0
H2321 H 0.01729 0.38971 0.72843 0.0
H2322 H 0.01079 0.42336 0.77925 0.0
H2323 H 0.0063 0.39825 0.75797 0.0
H2324 H 0.99087 0.4152 0.70282 0.0
H2325 H 0.99494 0.44006 0.72443 0.0
C2326 C 0.97825 0.3654 0.69012 0.0
C2327 C 0.98893 0.35897 0.69283 0.0
C2328 C 0.98136 0.38032 0.70153 0.0
C2329 C 0.99531 0.38923 0.71575 0.0
C2330 C 0.00623 0.383 0.71798 0.0
C2331 C 0.00303 0.368 0.70674 0.0
C2332 C 0.00656 0.42175 0.76252 0.0
C2333 C 0.0032 0.43363 0.75348 0.0
C2334 C 0.00404 0.4074 0.75028 0.0
C2335 C 0.99825 0.40469 0.72862 0.0
C2336 C 0.99506 0.41671 0.71954 0.0
C2337 C 0.99744 0.43099 0.73187 0.0
H2338 H 0.64033 0.65282 0.7193 0.0
H2339 H 0.6372 0.60791 0.68834 0.0
H2340 H 0.61446 0.63405 0.73958 0.0
H2341 H 0.61126 0.58916 0.70864 0.0
H2342 H 0.57667 0.56224 0.76749 0.0
H2343 H 0.60271 0.58114 0.7476 0.0
H2344 H 0.58351 0.61359 0.73145 0.0
H2345 H 0.55727 0.5945 0.75092 0.0
C2346 C 0.63413 0.63895 0.71682 0.0
C2347 C 0.64081 0.63185 0.7022 0.0
C2348 C 0.61927 0.62822 0.72836 0.0
C2349 C 0.61086 0.61016 0.72567 0.0
C2350 C 0.61758 0.60304 0.71117 0.0
C2351 C 0.63237 0.61378 0.69947 0.0
C2352 C 0.57791 0.5733 0.75953 0.0
C2353 C 0.56483 0.5768 0.76073 0.0
C2354 C 0.59284 0.58414 0.74817 0.0
C2355 C 0.5951 0.59879 0.73793 0.0
C2356 C 0.58217 0.60247 0.73939 0.0
C2357 C 0.56717 0.59156 0.7506 0.0
H2358 H 0.68683 0.72412 0.65743 0.0
H2359 H 0.64105 0.67977 0.63103 0.0
H2360 H 0.67946 0.74329 0.64076 0.0
H2361 H 0.63351 0.69892 0.61481 0.0
H2362 H 0.63623 0.73904 0.56847 0.0
H2363 H 0.64269 0.71941 0.58579 0.0
H2364 H 0.65906 0.75227 0.6438 0.0
H2365 H 0.65271 0.77195 0.62638 0.0
C2366 C 0.67515 0.71846 0.64818 0.0
C2367 C 0.66455 0.70043 0.64551 0.0
C2368 C 0.67087 0.72945 0.63873 0.0
C2369 C 0.65589 0.72263 0.62646 0.0
C2370 C 0.64526 0.70459 0.62391 0.0
C2371 C 0.64955 0.69362 0.63331 0.0
C2372 C 0.641 0.74194 0.58502 0.0
C2373 C 0.644 0.75705 0.59605 0.0
C2374 C 0.64471 0.7307 0.59495 0.0
C2375 C 0.65146 0.73431 0.61615 0.0
C2376 C 0.65417 0.74928 0.62731 0.0
C2377 C 0.6505 0.76053 0.61736 0.0
H2378 H 0.31291 0.97154 0.64476 0.0
H2379 H 0.27262 0.96851 0.68453 0.0
H2380 H 0.29266 0.94386 0.62712 0.0
H2381 H 0.25235 0.94081 0.66671 0.0
H2382 H 0.22101 0.90594 0.607 0.0
H2383 H 0.24086 0.93204 0.6277 0.0
H2384 H 0.27331 0.91196 0.63688 0.0
H2385 H 0.25316 0.88545 0.61683 0.0
C2386 C 0.29974 0.96493 0.6498 0.0
C2387 C 0.29433 0.97223 0.66598 0.0
C2388 C 0.28819 0.94904 0.63979 0.0
C2389 C 0.27096 0.94025 0.64554 0.0
C2390 C 0.26556 0.94742 0.66189 0.0
C2391 C 0.27717 0.96321 0.67213 0.0
C2392 C 0.23219 0.90687 0.61376 0.0
C2393 C 0.23541 0.8935 0.61026 0.0
C2394 C 0.24358 0.92187 0.62556 0.0
C2395 C 0.25858 0.92397 0.6339 0.0
C2396 C 0.26188 0.91069 0.63045 0.0
C2397 C 0.25037 0.89556 0.61887 0.0
H2398 H 0.0265 0.31025 0.63563 0.0
H2399 H 0.05698 0.3515 0.68226 0.0
H2400 H 0.05193 0.31758 0.61493 0.0
H2401 H 0.08243 0.35897 0.6613 0.0
H2402 H 0.12572 0.35568 0.62791 0.0
H2403 H 0.10079 0.34791 0.65022 0.0
H2404 H 0.0721 0.34157 0.5922 0.0
H2405 H 0.09699 0.34942 0.56993 0.0
C2406 C 0.03863 0.32084 0.64153 0.0
C2407 C 0.0397 0.33035 0.66055 0.0
C2408 C 0.05319 0.32511 0.62957 0.0
C2409 C 0.06916 0.33896 0.63637 0.0
C2410 C 0.07031 0.34816 0.65572 0.0
C2411 C 0.05572 0.34391 0.66769 0.0
C2412 C 0.11414 0.35281 0.61995 0.0
C2413 C 0.11331 0.3531 0.59714 0.0
C2414 C 0.09986 0.34833 0.63272 0.0
C2415 C 0.08445 0.34401 0.62295 0.0
C2416 C 0.0837 0.3445 0.60018 0.0
C2417 C 0.09796 0.34901 0.58742 0.0
H2418 H 0.28801 0.33362 0.66299 0.0
H2419 H 0.27442 0.29362 0.61351 0.0
H2420 H 0.27064 0.34237 0.64492 0.0
H2421 H 0.25672 0.30217 0.59567 0.0
H2422 H 0.24568 0.33729 0.55585 0.0
H2423 H 0.26104 0.32654 0.5749 0.0
H2424 H 0.24163 0.33331 0.6363 0.0
H2425 H 0.22634 0.34413 0.61723 0.0
C2426 C 0.28114 0.32653 0.64841 0.0
C2427 C 0.28268 0.31298 0.63963 0.0
C2428 C 0.27111 0.33151 0.6381 0.0
C2429 C 0.26236 0.32303 0.61877 0.0
C2430 C 0.26352 0.30915 0.61034 0.0
C2431 C 0.27356 0.30417 0.62066 0.0
C2432 C 0.24458 0.33634 0.57339 0.0
C2433 C 0.23485 0.34163 0.58504 0.0
C2434 C 0.25334 0.33013 0.58431 0.0
C2435 C 0.25255 0.32905 0.60713 0.0
C2436 C 0.24271 0.33421 0.61875 0.0
C2437 C 0.23397 0.34044 0.60783 0.0
H2438 H 0.70386 0.97915 0.6576 0.0
H2439 H 0.65653 0.97432 0.64012 0.0
H2440 H 0.69444 0.95116 0.63998 0.0
H2441 H 0.6473 0.94654 0.62206 0.0
H2442 H 0.62963 0.88937 0.61103 0.0
H2443 H 0.63856 0.91699 0.6296 0.0
H2444 H 0.68917 0.93824 0.60378 0.0
H2445 H 0.68028 0.91064 0.58545 0.0
C2446 C 0.69147 0.97215 0.64995 0.0
C2447 C 0.68096 0.97898 0.65025 0.0
C2448 C 0.6861 0.95614 0.63974 0.0
C2449 C 0.67013 0.94663 0.62954 0.0
C2450 C 0.65958 0.95342 0.62999 0.0
C2451 C 0.66493 0.96941 0.64024 0.0
C2452 C 0.64262 0.89999 0.60923 0.0
C2453 C 0.65427 0.89781 0.59688 0.0
C2454 C 0.64774 0.91581 0.61985 0.0
C2455 C 0.6646 0.9298 0.61826 0.0
C2456 C 0.67618 0.92764 0.60571 0.0
C2457 C 0.67108 0.91183 0.59517 0.0
H2458 H 0.02521 0.72157 0.66965 0.0
H2459 H 0.02087 0.67841 0.63223 0.0
H2460 H 0.05173 0.74119 0.65095 0.0
H2461 H 0.04742 0.69807 0.61365 0.0
H2462 H 0.10534 0.73792 0.60501 0.0
H2463 H 0.07885 0.71777 0.62337 0.0
H2464 H 0.06007 0.75135 0.61205 0.0
H2465 H 0.08622 0.77123 0.5931 0.0
C2466 C 0.02993 0.71627 0.6575 0.0
C2467 C 0.02093 0.69846 0.65238 0.0
C2468 C 0.04506 0.72751 0.64674 0.0
C2469 C 0.05158 0.72113 0.63085 0.0
C2470 C 0.04272 0.7033 0.62594 0.0
C2471 C 0.02749 0.69208 0.6365 0.0
C2472 C 0.09549 0.74091 0.60614 0.0
C2473 C 0.09799 0.75628 0.59765 0.0
C2474 C 0.08035 0.72939 0.61673 0.0
C2475 C 0.06749 0.73309 0.61925 0.0
C2476 C 0.0699 0.74834 0.61064 0.0
C2477 C 0.08492 0.75974 0.59985 0.0
H2478 H 0.96697 0.60424 0.69308 0.0
H2479 H 0.01376 0.64627 0.72074 0.0
H2480 H 0.97082 0.58357 0.71251 0.0
H2481 H 0.01785 0.62563 0.73965 0.0
H2482 H 0.01004 0.58576 0.7892 0.0
H2483 H 0.00604 0.60621 0.76946 0.0
H2484 H 0.98837 0.57131 0.71332 0.0
H2485 H 0.99215 0.55079 0.73322 0.0
C2486 C 0.97814 0.60905 0.70315 0.0
C2487 C 0.99003 0.62689 0.70543 0.0
C2488 C 0.98039 0.5972 0.71421 0.0
C2489 C 0.99462 0.60294 0.7277 0.0
C2490 C 0.0066 0.62078 0.72971 0.0
C2491 C 0.00431 0.63262 0.71874 0.0
C2492 C 0.00541 0.58253 0.77259 0.0
C2493 C 0.00141 0.56669 0.76275 0.0
C2494 C 0.00314 0.59424 0.76126 0.0
C2495 C 0.99692 0.59041 0.73978 0.0
C2496 C 0.99294 0.57455 0.72995 0.0
C2497 C 0.99513 0.56281 0.74132 0.0
H2498 H 0.34895 0.36758 0.70838 0.0
H2499 H 0.39082 0.36697 0.67747 0.0
H2500 H 0.36892 0.39467 0.72742 0.0
H2501 H 0.41078 0.3941 0.69659 0.0
H2502 H 0.43869 0.42847 0.75758 0.0
H2503 H 0.41913 0.40267 0.73617 0.0
H2504 H 0.39072 0.42599 0.71924 0.0
H2505 H 0.41059 0.45212 0.74016 0.0
C2506 C 0.36241 0.37327 0.70555 0.0
C2507 C 0.36832 0.3651 0.69148 0.0
C2508 C 0.37382 0.38883 0.71637 0.0
C2509 C 0.39137 0.39643 0.71352 0.0
C2510 C 0.39729 0.38841 0.69922 0.0
C2511 C 0.38587 0.37294 0.6882 0.0
C2512 C 0.42845 0.42826 0.74904 0.0
C2513 C 0.42628 0.44245 0.75054 0.0
C2514 C 0.41723 0.41345 0.73681 0.0
C2515 C 0.40347 0.41238 0.72599 0.0
C2516 C 0.40117 0.42645 0.72757 0.0
C2517 C 0.4125 0.44136 0.73964 0.0
H2518 H 0.64725 0.03337 0.71286 0.0
H2519 H 0.61473 0.98888 0.67147 0.0
H2520 H 0.62247 0.02926 0.73267 0.0
H2521 H 0.58993 0.98492 0.69115 0.0
H2522 H 0.55369 0.97126 0.75 0.0
H2523 H 0.57775 0.976 0.72784 0.0
H2524 H 0.597 0.03079 0.72817 0.0
H2525 H 0.57288 0.02606 0.75019 0.0
C2526 C 0.63481 0.02281 0.70784 0.0
C2527 C 0.63298 0.01141 0.69064 0.0
C2528 C 0.6206 0.02051 0.71914 0.0
C2529 C 0.60425 0.00672 0.71352 0.0
C2530 C 0.60239 0.99553 0.69604 0.0
C2531 C 0.61659 0.99787 0.68468 0.0
C2532 C 0.56294 0.98429 0.74513 0.0
C2533 C 0.5614 0.99829 0.75194 0.0
C2534 C 0.57672 0.987 0.73242 0.0
C2535 C 0.58928 0.00378 0.72629 0.0
C2536 C 0.58765 0.01775 0.73291 0.0
C2537 C 0.57386 0.01503 0.74556 0.0
loop_
_geom_bond_atom_site_label_1
_geom_bond_atom_site_label_2
_geom_bond_distance
_geom_bond_site_symmetry_2
_ccdc_geom_bond_type
C0 O1 1.160 . S
C0 O7 1.185 . S
O1 C0 1.160 . S
O2 Zn3 1.899 1_656 S
O2 C10 1.298 . S
Zn3 O2 1.899 1_454 S
Zn3 O4 2.032 . S
Zn3 O7 2.086 . S
Zn3 O12 1.977 1_554 S
O4 Zn3 2.032 . S
O4 C8 1.278 1_455 S
C5 O6 1.203 1_455 S
C5 O12 1.267 . S
O6 C5 1.203 1_655 S
O7 C0 1.185 . S
O7 Zn3 2.086 . S
C8 O4 1.278 1_655 S
C8 O9 1.211 . S
O9 C8 1.211 . S
C10 O2 1.298 . S
C10 O11 1.247 1_556 S
O11 C10 1.247 1_554 S
O12 Zn3 1.977 1_556 S
O12 C5 1.267 . S
C13 O14 1.160 . S
C13 O20 1.185 1_556 S
O14 C13 1.160 . S
O15 Zn16 1.899 . S
O15 C23 1.284 . S
Zn16 O15 1.899 . S
Zn16 O17 2.032 1_554 S
Zn16 O20 2.086 . S
Zn16 O25 1.977 . S
O17 Zn16 2.032 1_556 S
O17 C21 1.278 . S
C18 O19 1.203 . S
C18 O25 1.267 . S
O19 C18 1.203 . S
O20 C13 1.185 1_554 S
O20 Zn16 2.086 . S
C21 O17 1.278 . S
C21 O22 1.211 . S
O22 C21 1.211 . S
C23 O15 1.284 . S
C23 O24 1.273 . S
O24 C23 1.273 . S
O25 Zn16 1.977 . S
O25 C18 1.267 . S
C26 O27 1.160 . S
C26 O33 1.185 1_556 S
O27 C26 1.160 . S
O28 Zn29 1.899 1_565 S
O28 C36 1.284 . S
Zn29 O28 1.899 1_545 S
Zn29 O30 2.032 1_554 S
Zn29 O33 2.086 . S
Zn29 O38 1.977 . S
O30 Zn29 2.032 1_556 S
O30 C34 1.298 . S
C31 O32 1.203 1_545 S
C31 O38 1.267 . S
O32 C31 1.203 1_565 S
O33 C26 1.185 1_554 S
O33 Zn29 2.086 . S
C34 O30 1.298 . S
C34 O35 1.196 1_545 S
O35 C34 1.196 1_565 S
C36 O28 1.284 . S
C36 O37 1.273 . S
O37 C36 1.273 . S
O38 Zn29 1.977 . S
O38 C31 1.267 . S
C39 O40 1.160 . S
C39 O46 1.185 1_556 S
O40 C39 1.160 . S
O41 Zn42 1.899 1_455 S
O41 C49 1.284 . S
Zn42 O41 1.899 1_655 S
Zn42 O43 2.033 1_654 S
Zn42 O46 2.086 . S
Zn42 O51 1.977 . S
O43 Zn42 2.033 1_456 S
O43 C47 1.274 . S
C44 O45 1.203 1_655 S
C44 O51 1.267 . S
O45 C44 1.203 1_455 S
O46 C39 1.185 1_554 S
O46 Zn42 2.086 . S
C47 O43 1.274 . S
C47 O48 1.211 . S
O48 C47 1.211 . S
C49 O41 1.284 . S
C49 O50 1.273 . S
O50 C49 1.273 . S
O51 Zn42 1.977 . S
O51 C44 1.267 . S
C52 O53 1.160 . S
C52 O59 1.185 . S
O53 C52 1.160 . S
O54 Zn55 1.899 1_556 S
O54 C62 1.284 . S
Zn55 O54 1.899 1_554 S
Zn55 O56 2.032 . S
Zn55 O59 2.086 . S
Zn55 O64 1.977 1_554 S
O56 Zn55 2.032 . S
O56 C60 1.278 . S
C57 O58 1.203 . S
C57 O64 1.267 . S
O58 C57 1.203 . S
O59 C52 1.185 . S
O59 Zn55 2.086 . S
C60 O56 1.278 . S
C60 O61 1.211 . S
O61 C60 1.211 . S
C62 O54 1.284 . S
C62 O63 1.273 1_556 S
O63 C62 1.273 1_554 S
O64 Zn55 1.977 1_556 S
O64 C57 1.267 . S
C65 O66 1.160 . S
C65 O72 1.185 . S
O66 C65 1.160 . S
O67 Zn68 1.899 1_546 S
O67 C75 1.284 . S
Zn68 O67 1.899 1_564 S
Zn68 O69 2.021 1_565 S
Zn68 O72 2.086 . S
Zn68 O77 1.977 1_554 S
O69 Zn68 2.021 1_545 S
O69 C73 1.307 . S
C70 O71 1.203 1_565 S
C70 O77 1.267 . S
O71 C70 1.203 1_545 S
O72 C65 1.185 . S
O72 Zn68 2.086 . S
C73 O69 1.307 . S
C73 O74 1.211 . S
O74 C73 1.211 . S
C75 O67 1.284 . S
C75 O76 1.273 1_556 S
O76 C75 1.273 1_554 S
O77 Zn68 1.977 1_556 S
O77 C70 1.267 . S
C78 O79 1.160 . S
C78 O85 1.185 . S
O79 C78 1.160 . S
O80 Zn81 1.899 . S
O80 C88 1.284 . S
Zn81 O80 1.899 . S
Zn81 O82 2.032 . S
Zn81 O85 2.086 . S
Zn81 O90 1.977 . S
O82 Zn81 2.032 . S
O82 C86 1.278 . S
C83 O84 1.203 . S
C83 O90 1.267 . S
O84 C83 1.203 . S
O85 C78 1.185 . S
O85 Zn81 2.086 . S
C86 O82 1.278 . S
C86 O87 1.211 . S
O87 C86 1.211 . S
C88 O80 1.284 . S
C88 O89 1.273 . S
O89 C88 1.273 . S
O90 Zn81 1.977 . S
O90 C83 1.267 . S
C91 O92 1.160 1_565 S
C91 O98 1.185 . S
O92 C91 1.160 1_545 S
O93 Zn94 1.899 1_545 S
O93 C101 1.284 . S
Zn94 O93 1.899 1_565 S
Zn94 O95 2.032 . S
Zn94 O98 2.086 . S
Zn94 O103 1.977 . S
O95 Zn94 2.032 . S
O95 C99 1.278 . S
C96 O97 1.203 . S
C96 O103 1.267 . S
O97 C96 1.203 . S
O98 C91 1.185 . S
O98 Zn94 2.086 . S
C99 O95 1.278 . S
C99 O100 1.211 . S
O100 C99 1.211 . S
C101 O93 1.284 . S
C101 O102 1.273 . S
O102 C101 1.273 . S
O103 Zn94 1.977 . S
O103 C96 1.267 . S
C104 O105 1.160 . S
C104 O111 1.185 . S
O105 C104 1.160 . S
O106 Zn107 1.899 . S
O106 C114 1.284 1_455 S
Zn107 O106 1.899 . S
Zn107 O108 2.032 . S
Zn107 O111 2.086 . S
Zn107 O116 1.977 . S
O108 Zn107 2.032 . S
O108 C112 1.278 . S
C109 O110 1.203 . S
C109 O116 1.267 . S
O110 C109 1.203 . S
O111 C104 1.185 . S
O111 Zn107 2.086 . S
C112 O108 1.278 . S
C112 O113 1.211 . S
O113 C112 1.211 . S
C114 O106 1.284 1_655 S
C114 O115 1.273 1_655 S
O115 C114 1.273 1_455 S
O116 Zn107 1.977 . S
O116 C109 1.267 . S
C117 O118 1.160 1_565 S
C117 O124 1.185 . S
O118 C117 1.160 1_545 S
O119 Zn120 1.899 1_545 S
O119 C127 1.284 . S
Zn120 O119 1.899 1_565 S
Zn120 O121 2.032 . S
Zn120 O124 2.086 . S
Zn120 O129 1.977 . S
O121 Zn120 2.032 . S
O121 C125 1.278 . S
C122 O123 1.203 . S
C122 O129 1.267 . S
O123 C122 1.203 . S
O124 C117 1.185 . S
O124 Zn120 2.086 . S
C125 O121 1.278 . S
C125 O126 1.211 . S
O126 C125 1.211 . S
C127 O119 1.284 . S
C127 O128 1.273 . S
O128 C127 1.273 . S
O129 Zn120 1.977 . S
O129 C122 1.267 . S
C130 O131 1.160 . S
C130 O137 1.185 . S
O131 C130 1.160 . S
O132 Zn133 1.899 . S
O132 C140 1.284 . S
Zn133 O132 1.899 . S
Zn133 O134 2.032 . S
Zn133 O137 2.086 1_455 S
Zn133 O142 1.977 . S
O134 Zn133 2.032 . S
O134 C138 1.278 . S
C135 O136 1.203 . S
C135 O142 1.267 . S
O136 C135 1.203 . S
O137 C130 1.185 . S
O137 Zn133 2.086 1_655 S
C138 O134 1.278 . S
C138 O139 1.211 . S
O139 C138 1.211 . S
C140 O132 1.284 . S
C140 O141 1.273 . S
O141 C140 1.273 . S
O142 Zn133 1.977 . S
O142 C135 1.267 . S
C143 O144 1.160 . S
C143 O150 1.185 . S
O144 C143 1.160 . S
O145 Zn146 1.899 . S
O145 C153 1.284 . S
Zn146 O145 1.899 . S
Zn146 O147 2.032 . S
Zn146 O150 2.086 . S
Zn146 O155 1.977 . S
O147 Zn146 2.032 . S
O147 C151 1.278 . S
C148 O149 1.203 . S
C148 O155 1.267 . S
O149 C148 1.203 . S
O150 C143 1.185 . S
O150 Zn146 2.086 . S
C151 O147 1.278 . S
C151 O152 1.211 . S
O152 C151 1.211 . S
C153 O145 1.284 . S
C153 O154 1.273 . S
O154 C153 1.273 . S
O155 Zn146 1.977 . S
O155 C148 1.267 . S
C156 O157 1.160 . S
C156 O163 1.185 . S
O157 C156 1.160 . S
O158 Zn159 1.909 . S
O158 C166 1.286 1_545 S
Zn159 O158 1.909 . S
Zn159 O160 2.032 . S
Zn159 O163 2.086 . S
Zn159 O168 1.977 . S
O160 Zn159 2.032 . S
O160 C164 1.278 . S
C161 O162 1.203 . S
C161 O168 1.267 . S
O162 C161 1.203 . S
O163 C156 1.185 . S
O163 Zn159 2.086 . S
C164 O160 1.278 . S
C164 O165 1.211 . S
O165 C164 1.211 . S
C166 O158 1.286 1_565 S
C166 O167 1.231 1_565 S
O167 C166 1.231 1_545 S
O168 Zn159 1.977 . S
O168 C161 1.267 . S
C169 O170 1.160 . S
C169 O176 1.185 . S
O170 C169 1.160 . S
O171 Zn172 1.899 . S
O171 C179 1.284 . S
Zn172 O171 1.899 . S
Zn172 O173 2.032 . S
Zn172 O176 2.086 1_655 S
Zn172 O181 1.977 . S
O173 Zn172 2.032 . S
O173 C177 1.278 . S
C174 O175 1.203 . S
C174 O181 1.267 . S
O175 C174 1.203 . S
O176 C169 1.185 . S
O176 Zn172 2.086 1_455 S
C177 O173 1.278 . S
C177 O178 1.211 . S
O178 C177 1.211 . S
C179 O171 1.284 . S
C179 O180 1.273 . S
O180 C179 1.273 . S
O181 Zn172 1.977 . S
O181 C174 1.267 . S
C182 O183 1.160 . S
C182 O189 1.185 . S
O183 C182 1.160 . S
O184 Zn185 1.899 . S
O184 C192 1.284 . S
Zn185 O184 1.899 . S
Zn185 O186 2.032 . S
Zn185 O189 2.086 . S
Zn185 O194 1.977 . S
O186 Zn185 2.032 . S
O186 C190 1.278 . S
C187 O188 1.203 . S
C187 O194 1.267 . S
O188 C187 1.203 . S
O189 C182 1.185 . S
O189 Zn185 2.086 . S
C190 O186 1.278 . S
C190 O191 1.211 . S
O191 C190 1.211 . S
C192 O184 1.284 . S
C192 O193 1.273 . S
O193 C192 1.273 . S
O194 Zn185 1.977 . S
O194 C187 1.267 . S
C195 O196 1.160 . S
C195 O202 1.185 . S
O196 C195 1.160 . S
O197 Zn198 1.899 . S
O197 C205 1.284 . S
Zn198 O197 1.899 . S
Zn198 O199 2.032 . S
Zn198 O202 2.086 . S
Zn198 O207 1.977 . S
O199 Zn198 2.032 . S
O199 C203 1.278 . S
C200 O201 1.203 . S
C200 O207 1.267 . S
O201 C200 1.203 . S
O202 C195 1.185 . S
O202 Zn198 2.086 . S
C203 O199 1.278 . S
C203 O204 1.211 . S
O204 C203 1.211 . S
C205 O197 1.284 . S
C205 O206 1.273 . S
O206 C205 1.273 . S
O207 Zn198 1.977 . S
O207 C200 1.267 . S
C208 O209 1.160 . S
C208 O215 1.185 . S
O209 C208 1.160 . S
O210 Zn211 1.904 . S
O210 C218 1.280 1_545 S
Zn211 O210 1.904 . S
Zn211 O212 2.032 . S
Zn211 O215 2.086 . S
Zn211 O220 1.977 . S
O212 Zn211 2.032 . S
O212 C216 1.278 . S
C213 O214 1.203 . S
C213 O220 1.267 . S
O214 C213 1.203 . S
O215 C208 1.185 . S
O215 Zn211 2.086 . S
C216 O212 1.278 . S
C216 O217 1.211 . S
O217 C216 1.211 . S
C218 O210 1.280 1_565 S
C218 O219 1.275 1_565 S
O219 C218 1.275 1_545 S
O220 Zn211 1.977 . S
O220 C213 1.267 . S
C221 O222 1.160 . S
C221 O228 1.185 . S
O222 C221 1.160 . S
O223 Zn224 1.899 . S
O223 C231 1.284 1_655 S
Zn224 O223 1.899 . S
Zn224 O225 2.032 . S
Zn224 O228 2.086 . S
Zn224 O233 1.977 . S
O225 Zn224 2.032 . S
O225 C229 1.278 . S
C226 O227 1.203 . S
C226 O233 1.267 . S
O227 C226 1.203 . S
O228 C221 1.185 . S
O228 Zn224 2.086 . S
C229 O225 1.278 . S
C229 O230 1.211 . S
O230 C229 1.211 . S
C231 O223 1.284 1_455 S
C231 O232 1.273 1_455 S
O232 C231 1.273 1_655 S
O233 Zn224 1.977 . S
O233 C226 1.267 . S
H234 C253 0.949 . S
H235 C254 0.950 . S
H236 C256 0.950 . S
H237 C257 0.950 . S
H238 C259 0.950 . S
H239 C262 0.950 . S
H240 C263 0.950 . S
H241 C265 0.951 . S
H242 C266 0.949 . S
H243 C268 0.949 . S
H244 C269 0.950 . S
H245 C271 0.950 . S
H246 C272 0.950 . S
H247 C274 0.950 . S
H248 C277 0.950 . S
H249 C278 0.950 . S
H250 C280 0.951 . S
H251 C281 0.949 . S
C252 C253 1.376 . S
C252 C257 1.386 . S
C252 C258 1.483 . S
C253 H234 0.949 . S
C253 C252 1.376 . S
C253 C254 1.397 . S
C254 H235 0.950 . S
C254 C253 1.397 . S
C254 C255 1.391 . S
C255 C254 1.391 . S
C255 C256 1.405 . S
C256 H236 0.950 . S
C256 C255 1.405 . S
C256 C257 1.367 . S
C257 H237 0.950 . S
C257 C252 1.386 . S
C257 C256 1.367 . S
C258 C252 1.483 . S
C258 C259 1.382 . S
C258 C260 1.403 . S
C259 H238 0.950 . S
C259 C258 1.382 . S
C259 C275 1.411 . S
C260 C258 1.403 . S
C260 C261 1.489 . S
C260 C274 1.411 . S
C261 C260 1.489 . S
C261 C262 1.383 . S
C261 C266 1.382 . S
C262 H239 0.950 . S
C262 C261 1.383 . S
C262 C263 1.395 . S
C263 H240 0.950 . S
C263 C262 1.395 . S
C263 C264 1.288 . S
C264 C263 1.288 . S
C264 C265 1.392 . S
C265 H241 0.951 . S
C265 C264 1.392 . S
C265 C266 1.392 . S
C266 H242 0.949 . S
C266 C261 1.382 . S
C266 C265 1.392 . S
C267 C268 1.376 . S
C267 C272 1.386 . S
C267 C273 1.483 . S
C268 H243 0.949 . S
C268 C267 1.376 . S
C268 C269 1.397 . S
C269 H244 0.950 . S
C269 C268 1.397 . S
C269 C270 1.391 . S
C270 C269 1.391 . S
C270 C271 1.405 . S
C271 H245 0.950 . S
C271 C270 1.405 . S
C271 C272 1.367 . S
C272 H246 0.950 . S
C272 C267 1.386 . S
C272 C271 1.367 . S
C273 C267 1.483 . S
C273 C274 1.382 . S
C273 C275 1.403 . S
C274 H247 0.950 . S
C274 C260 1.411 . S
C274 C273 1.382 . S
C275 C259 1.411 . S
C275 C273 1.403 . S
C275 C276 1.489 . S
C276 C275 1.489 . S
C276 C277 1.383 . S
C276 C281 1.382 . S
C277 H248 0.950 . S
C277 C276 1.383 . S
C277 C278 1.395 . S
C278 H249 0.950 . S
C278 C277 1.395 . S
C278 C279 1.288 . S
C279 C278 1.288 . S
C279 C280 1.392 . S
C280 H250 0.951 . S
C280 C279 1.392 . S
C280 C281 1.392 . S
C281 H251 0.949 . S
C281 C276 1.382 . S
C281 C280 1.392 . S
H282 C301 0.949 . S
H283 C302 0.950 . S
H284 C304 0.950 . S
H285 C305 0.950 . S
H286 C307 0.950 . S
H287 C310 0.950 . S
H288 C311 0.950 . S
H289 C313 0.951 . S
H290 C314 0.949 . S
H291 C316 0.949 . S
H292 C317 0.950 . S
H293 C319 0.950 . S
H294 C320 0.950 . S
H295 C322 0.950 . S
H296 C325 0.950 . S
H297 C326 0.950 . S
H298 C328 0.951 . S
H299 C329 0.949 . S
C300 C301 1.376 . S
C300 C305 1.386 . S
C300 C306 1.483 . S
C301 H282 0.949 . S
C301 C300 1.376 . S
C301 C302 1.397 . S
C302 H283 0.950 . S
C302 C301 1.397 . S
C302 C303 1.391 . S
C303 C302 1.391 . S
C303 C304 1.405 . S
C304 H284 0.950 . S
C304 C303 1.405 . S
C304 C305 1.367 . S
C305 H285 0.950 . S
C305 C300 1.386 . S
C305 C304 1.367 . S
C306 C300 1.483 . S
C306 C307 1.382 . S
C306 C308 1.403 . S
C307 H286 0.950 . S
C307 C306 1.382 . S
C307 C323 1.411 . S
C308 C306 1.403 . S
C308 C309 1.489 . S
C308 C322 1.411 . S
C309 C308 1.489 . S
C309 C310 1.383 . S
C309 C314 1.382 . S
C310 H287 0.950 . S
C310 C309 1.383 . S
C310 C311 1.395 . S
C311 H288 0.950 . S
C311 C310 1.395 . S
C311 C312 1.288 . S
C312 C311 1.288 . S
C312 C313 1.392 . S
C313 H289 0.951 . S
C313 C312 1.392 . S
C313 C314 1.392 . S
C314 H290 0.949 . S
C314 C309 1.382 . S
C314 C313 1.392 . S
C315 C316 1.376 . S
C315 C320 1.386 . S
C315 C321 1.483 . S
C316 H291 0.949 . S
C316 C315 1.376 . S
C316 C317 1.397 . S
C317 H292 0.950 . S
C317 C316 1.397 . S
C317 C318 1.391 . S
C318 C317 1.391 . S
C318 C319 1.405 . S
C319 H293 0.950 . S
C319 C318 1.405 . S
C319 C320 1.367 . S
C320 H294 0.950 . S
C320 C315 1.386 . S
C320 C319 1.367 . S
C321 C315 1.483 . S
C321 C322 1.382 . S
C321 C323 1.403 . S
C322 H295 0.950 . S
C322 C308 1.411 . S
C322 C321 1.382 . S
C323 C307 1.411 . S
C323 C321 1.403 . S
C323 C324 1.489 . S
C324 C323 1.489 . S
C324 C325 1.383 . S
C324 C329 1.382 . S
C325 H296 0.950 . S
C325 C324 1.383 . S
C325 C326 1.395 . S
C326 H297 0.950 . S
C326 C325 1.395 . S
C326 C327 1.288 . S
C327 C326 1.288 . S
C327 C328 1.392 . S
C328 H298 0.951 . S
C328 C327 1.392 . S
C328 C329 1.392 . S
C329 H299 0.949 . S
C329 C324 1.382 . S
C329 C328 1.392 . S
H330 C349 0.949 . S
H331 C350 0.950 . S
H332 C352 0.950 . S
H333 C353 0.950 . S
H334 C355 0.950 . S
H335 C358 0.950 . S
H336 C359 0.950 . S
H337 C361 0.951 . S
H338 C362 0.949 . S
H339 C364 0.949 . S
H340 C365 0.950 . S
H341 C367 0.950 . S
H342 C368 0.950 . S
H343 C370 0.950 . S
H344 C373 0.950 . S
H345 C374 0.950 . S
H346 C376 0.951 . S
H347 C377 0.949 . S
C348 C349 1.376 . S
C348 C353 1.386 . S
C348 C354 1.483 . S
C349 H330 0.949 . S
C349 C348 1.376 . S
C349 C350 1.397 . S
C350 H331 0.950 . S
C350 C349 1.397 . S
C350 C351 1.391 . S
C351 C350 1.391 . S
C351 C352 1.405 . S
C352 H332 0.950 . S
C352 C351 1.405 . S
C352 C353 1.367 . S
C353 H333 0.950 . S
C353 C348 1.386 . S
C353 C352 1.367 . S
C354 C348 1.483 . S
C354 C355 1.382 . S
C354 C356 1.403 . S
C355 H334 0.950 . S
C355 C354 1.382 . S
C355 C371 1.411 . S
C356 C354 1.403 . S
C356 C357 1.489 . S
C356 C370 1.411 . S
C357 C356 1.489 . S
C357 C358 1.383 . S
C357 C362 1.382 . S
C358 H335 0.950 . S
C358 C357 1.383 . S
C358 C359 1.395 . S
C359 H336 0.950 . S
C359 C358 1.395 . S
C359 C360 1.288 . S
C360 C359 1.288 . S
C360 C361 1.392 . S
C361 H337 0.951 . S
C361 C360 1.392 . S
C361 C362 1.392 . S
C362 H338 0.949 . S
C362 C357 1.382 . S
C362 C361 1.392 . S
C363 C364 1.376 . S
C363 C368 1.386 . S
C363 C369 1.483 . S
C364 H339 0.949 . S
C364 C363 1.376 . S
C364 C365 1.397 . S
C365 H340 0.950 . S
C365 C364 1.397 . S
C365 C366 1.391 . S
C366 C365 1.391 . S
C366 C367 1.405 . S
C367 H341 0.950 . S
C367 C366 1.405 . S
C367 C368 1.367 . S
C368 H342 0.950 . S
C368 C363 1.386 . S
C368 C367 1.367 . S
C369 C363 1.483 . S
C369 C370 1.382 . S
C369 C371 1.403 . S
C370 H343 0.950 . S
C370 C356 1.411 . S
C370 C369 1.382 . S
C371 C355 1.411 . S
C371 C369 1.403 . S
C371 C372 1.489 . S
C372 C371 1.489 . S
C372 C373 1.383 . S
C372 C377 1.382 . S
C373 H344 0.950 . S
C373 C372 1.383 . S
C373 C374 1.395 . S
C374 H345 0.950 . S
C374 C373 1.395 . S
C374 C375 1.288 . S
C375 C374 1.288 . S
C375 C376 1.392 . S
C376 H346 0.951 . S
C376 C375 1.392 . S
C376 C377 1.392 . S
C377 H347 0.949 . S
C377 C372 1.382 . S
C377 C376 1.392 . S
H378 C397 0.949 . S
H379 C398 0.950 . S
H380 C400 0.950 . S
H381 C401 0.950 . S
H382 C403 0.950 . S
H383 C406 0.950 . S
H384 C407 0.950 . S
H385 C409 0.951 . S
H386 C410 0.949 . S
H387 C412 0.949 . S
H388 C413 0.950 . S
H389 C415 0.950 . S
H390 C416 0.950 . S
H391 C418 0.950 . S
H392 C421 0.950 . S
H393 C422 0.950 . S
H394 C424 0.951 . S
H395 C425 0.949 . S
C396 C397 1.376 . S
C396 C401 1.386 . S
C396 C402 1.483 . S
C397 H378 0.949 . S
C397 C396 1.376 . S
C397 C398 1.397 . S
C398 H379 0.950 . S
C398 C397 1.397 . S
C398 C399 1.391 . S
C399 C398 1.391 . S
C399 C400 1.405 . S
C400 H380 0.950 . S
C400 C399 1.405 . S
C400 C401 1.367 . S
C401 H381 0.950 . S
C401 C396 1.386 . S
C401 C400 1.367 . S
C402 C396 1.483 . S
C402 C403 1.382 . S
C402 C404 1.403 . S
C403 H382 0.950 . S
C403 C402 1.382 . S
C403 C419 1.411 . S
C404 C402 1.403 . S
C404 C405 1.489 . S
C404 C418 1.411 . S
C405 C404 1.489 . S
C405 C406 1.383 . S
C405 C410 1.382 . S
C406 H383 0.950 . S
C406 C405 1.383 . S
C406 C407 1.395 . S
C407 H384 0.950 . S
C407 C406 1.395 . S
C407 C408 1.288 . S
C408 C407 1.288 . S
C408 C409 1.392 . S
C409 H385 0.951 . S
C409 C408 1.392 . S
C409 C410 1.392 . S
C410 H386 0.949 . S
C410 C405 1.382 . S
C410 C409 1.392 . S
C411 C412 1.376 . S
C411 C416 1.386 . S
C411 C417 1.483 . S
C412 H387 0.949 . S
C412 C411 1.376 . S
C412 C413 1.397 . S
C413 H388 0.950 . S
C413 C412 1.397 . S
C413 C414 1.391 . S
C414 C413 1.391 . S
C414 C415 1.405 . S
C415 H389 0.950 . S
C415 C414 1.405 . S
C415 C416 1.367 . S
C416 H390 0.950 . S
C416 C411 1.386 . S
C416 C415 1.367 . S
C417 C411 1.483 . S
C417 C418 1.382 . S
C417 C419 1.403 . S
C418 H391 0.950 . S
C418 C404 1.411 . S
C418 C417 1.382 . S
C419 C403 1.411 . S
C419 C417 1.403 . S
C419 C420 1.489 . S
C420 C419 1.489 . S
C420 C421 1.383 . S
C420 C425 1.382 . S
C421 H392 0.950 . S
C421 C420 1.383 . S
C421 C422 1.395 . S
C422 H393 0.950 . S
C422 C421 1.395 . S
C422 C423 1.288 . S
C423 C422 1.288 . S
C423 C424 1.392 . S
C424 H394 0.951 . S
C424 C423 1.392 . S
C424 C425 1.392 . S
C425 H395 0.949 . S
C425 C420 1.382 . S
C425 C424 1.392 . S
H426 C445 0.949 . S
H427 C446 0.950 . S
H428 C448 0.950 . S
H429 C449 0.950 . S
H430 C451 0.950 . S
H431 C454 0.950 . S
H432 C455 0.950 . S
H433 C457 0.951 . S
H434 C458 0.949 . S
H435 C460 0.949 . S
H436 C461 0.950 . S
H437 C463 0.950 . S
H438 C464 0.950 . S
H439 C466 0.950 . S
H440 C469 0.950 . S
H441 C470 0.950 . S
H442 C472 0.951 . S
H443 C473 0.949 . S
C444 C445 1.376 . S
C444 C449 1.386 . S
C444 C450 1.483 . S
C445 H426 0.949 . S
C445 C444 1.376 . S
C445 C446 1.397 . S
C446 H427 0.950 . S
C446 C445 1.397 . S
C446 C447 1.391 . S
C447 C446 1.391 . S
C447 C448 1.405 . S
C448 H428 0.950 . S
C448 C447 1.405 . S
C448 C449 1.367 . S
C449 H429 0.950 . S
C449 C444 1.386 . S
C449 C448 1.367 . S
C450 C444 1.483 . S
C450 C451 1.382 . S
C450 C452 1.403 . S
C451 H430 0.950 . S
C451 C450 1.382 . S
C451 C467 1.411 . S
C452 C450 1.403 . S
C452 C453 1.489 . S
C452 C466 1.411 . S
C453 C452 1.489 . S
C453 C454 1.383 . S
C453 C458 1.382 . S
C454 H431 0.950 . S
C454 C453 1.383 . S
C454 C455 1.395 . S
C455 H432 0.950 . S
C455 C454 1.395 . S
C455 C456 1.288 . S
C456 C455 1.288 . S
C456 C457 1.392 . S
C457 H433 0.951 . S
C457 C456 1.392 . S
C457 C458 1.392 . S
C458 H434 0.949 . S
C458 C453 1.382 . S
C458 C457 1.392 . S
C459 C460 1.376 . S
C459 C464 1.386 . S
C459 C465 1.483 . S
C460 H435 0.949 . S
C460 C459 1.376 . S
C460 C461 1.397 . S
C461 H436 0.950 . S
C461 C460 1.397 . S
C461 C462 1.391 . S
C462 C461 1.391 . S
C462 C463 1.405 . S
C463 H437 0.950 . S
C463 C462 1.405 . S
C463 C464 1.367 . S
C464 H438 0.950 . S
C464 C459 1.386 . S
C464 C463 1.367 . S
C465 C459 1.483 . S
C465 C466 1.382 . S
C465 C467 1.403 . S
C466 H439 0.950 . S
C466 C452 1.411 . S
C466 C465 1.382 . S
C467 C451 1.411 . S
C467 C465 1.403 . S
C467 C468 1.489 . S
C468 C467 1.489 . S
C468 C469 1.383 . S
C468 C473 1.382 . S
C469 H440 0.950 . S
C469 C468 1.383 . S
C469 C470 1.395 . S
C470 H441 0.950 . S
C470 C469 1.395 . S
C470 C471 1.288 . S
C471 C470 1.288 . S
C471 C472 1.392 . S
C472 H442 0.951 . S
C472 C471 1.392 . S
C472 C473 1.392 . S
C473 H443 0.949 . S
C473 C468 1.382 . S
C473 C472 1.392 . S
H474 C493 0.949 . S
H475 C494 0.950 . S
H476 C496 0.950 . S
H477 C497 0.950 . S
H478 C499 0.950 . S
H479 C502 0.950 . S
H480 C503 0.950 . S
H481 C505 0.951 . S
H482 C506 0.949 . S
H483 C508 0.949 . S
H484 C509 0.950 . S
H485 C511 0.950 . S
H486 C512 0.950 . S
H487 C514 0.950 . S
H488 C517 0.950 . S
H489 C518 0.950 . S
H490 C520 0.951 . S
H491 C521 0.949 . S
C492 C493 1.376 . S
C492 C497 1.386 . S
C492 C498 1.483 . S
C493 H474 0.949 . S
C493 C492 1.376 . S
C493 C494 1.397 . S
C494 H475 0.950 . S
C494 C493 1.397 . S
C494 C495 1.391 . S
C495 C494 1.391 . S
C495 C496 1.405 . S
C496 H476 0.950 . S
C496 C495 1.405 . S
C496 C497 1.367 . S
C497 H477 0.950 . S
C497 C492 1.386 . S
C497 C496 1.367 . S
C498 C492 1.483 . S
C498 C499 1.382 . S
C498 C500 1.403 . S
C499 H478 0.950 . S
C499 C498 1.382 . S
C499 C515 1.411 . S
C500 C498 1.403 . S
C500 C501 1.489 . S
C500 C514 1.411 . S
C501 C500 1.489 . S
C501 C502 1.383 . S
C501 C506 1.382 . S
C502 H479 0.950 . S
C502 C501 1.383 . S
C502 C503 1.395 . S
C503 H480 0.950 . S
C503 C502 1.395 . S
C503 C504 1.288 . S
C504 C503 1.288 . S
C504 C505 1.392 . S
C505 H481 0.951 . S
C505 C504 1.392 . S
C505 C506 1.392 . S
C506 H482 0.949 . S
C506 C501 1.382 . S
C506 C505 1.392 . S
C507 C508 1.376 . S
C507 C512 1.386 . S
C507 C513 1.483 . S
C508 H483 0.949 . S
C508 C507 1.376 . S
C508 C509 1.397 . S
C509 H484 0.950 . S
C509 C508 1.397 . S
C509 C510 1.391 . S
C510 C509 1.391 . S
C510 C511 1.405 . S
C511 H485 0.950 . S
C511 C510 1.405 . S
C511 C512 1.367 . S
C512 H486 0.950 . S
C512 C507 1.386 . S
C512 C511 1.367 . S
C513 C507 1.483 . S
C513 C514 1.382 . S
C513 C515 1.403 . S
C514 H487 0.950 . S
C514 C500 1.411 . S
C514 C513 1.382 . S
C515 C499 1.411 . S
C515 C513 1.403 . S
C515 C516 1.489 . S
C516 C515 1.489 . S
C516 C517 1.383 . S
C516 C521 1.382 . S
C517 H488 0.950 . S
C517 C516 1.383 . S
C517 C518 1.395 . S
C518 H489 0.950 . S
C518 C517 1.395 . S
C518 C519 1.288 . S
C519 C518 1.288 . S
C519 C520 1.392 . S
C520 H490 0.951 . S
C520 C519 1.392 . S
C520 C521 1.392 . S
C521 H491 0.949 . S
C521 C516 1.382 . S
C521 C520 1.392 . S
H522 C541 0.949 . S
H523 C542 0.950 . S
H524 C544 0.950 . S
H525 C545 0.950 . S
H526 C547 0.950 . S
H527 C550 0.950 . S
H528 C551 0.950 . S
H529 C553 0.951 . S
H530 C554 0.949 . S
H531 C556 0.949 . S
H532 C557 0.950 . S
H533 C559 0.950 . S
H534 C560 0.950 . S
H535 C562 0.950 . S
H536 C565 0.950 . S
H537 C566 0.950 . S
H538 C568 0.951 . S
H539 C569 0.949 . S
C540 C541 1.376 . S
C540 C545 1.386 . S
C540 C546 1.483 . S
C541 H522 0.949 . S
C541 C540 1.376 . S
C541 C542 1.397 . S
C542 H523 0.950 . S
C542 C541 1.397 . S
C542 C543 1.391 . S
C543 C542 1.391 . S
C543 C544 1.405 . S
C544 H524 0.950 . S
C544 C543 1.405 . S
C544 C545 1.367 . S
C545 H525 0.950 . S
C545 C540 1.386 . S
C545 C544 1.367 . S
C546 C540 1.483 . S
C546 C547 1.382 . S
C546 C548 1.403 . S
C547 H526 0.950 . S
C547 C546 1.382 . S
C547 C563 1.411 . S
C548 C546 1.403 . S
C548 C549 1.489 . S
C548 C562 1.411 . S
C549 C548 1.489 . S
C549 C550 1.383 . S
C549 C554 1.382 . S
C550 H527 0.950 . S
C550 C549 1.383 . S
C550 C551 1.395 . S
C551 H528 0.950 . S
C551 C550 1.395 . S
C551 C552 1.288 . S
C552 C551 1.288 . S
C552 C553 1.392 . S
C553 H529 0.951 . S
C553 C552 1.392 . S
C553 C554 1.392 . S
C554 H530 0.949 . S
C554 C549 1.382 . S
C554 C553 1.392 . S
C555 C556 1.376 . S
C555 C560 1.386 . S
C555 C561 1.483 . S
C556 H531 0.949 . S
C556 C555 1.376 . S
C556 C557 1.397 . S
C557 H532 0.950 . S
C557 C556 1.397 . S
C557 C558 1.391 . S
C558 C557 1.391 . S
C558 C559 1.405 . S
C559 H533 0.950 . S
C559 C558 1.405 . S
C559 C560 1.367 . S
C560 H534 0.950 . S
C560 C555 1.386 . S
C560 C559 1.367 . S
C561 C555 1.483 . S
C561 C562 1.382 . S
C561 C563 1.403 . S
C562 H535 0.950 . S
C562 C548 1.411 . S
C562 C561 1.382 . S
C563 C547 1.411 . S
C563 C561 1.403 . S
C563 C564 1.489 . S
C564 C563 1.489 . S
C564 C565 1.383 . S
C564 C569 1.382 . S
C565 H536 0.950 . S
C565 C564 1.383 . S
C565 C566 1.395 . S
C566 H537 0.950 . S
C566 C565 1.395 . S
C566 C567 1.288 . S
C567 C566 1.288 . S
C567 C568 1.392 . S
C568 H538 0.951 . S
C568 C567 1.392 . S
C568 C569 1.392 . S
C569 H539 0.949 . S
C569 C564 1.382 . S
C569 C568 1.392 . S
H570 C589 0.949 . S
H571 C590 0.950 . S
H572 C592 0.950 . S
H573 C593 0.950 . S
H574 C595 0.950 . S
H575 C598 0.950 . S
H576 C599 0.950 . S
H577 C601 0.951 . S
H578 C602 0.949 . S
H579 C604 0.949 . S
H580 C605 0.950 . S
H581 C607 0.950 . S
H582 C608 0.950 . S
H583 C610 0.950 . S
H584 C613 0.950 . S
H585 C614 0.950 . S
H586 C616 0.951 . S
H587 C617 0.949 . S
C588 C589 1.376 . S
C588 C593 1.386 . S
C588 C594 1.483 . S
C589 H570 0.949 . S
C589 C588 1.376 . S
C589 C590 1.397 . S
C590 H571 0.950 . S
C590 C589 1.397 . S
C590 C591 1.391 . S
C591 C590 1.391 . S
C591 C592 1.405 . S
C592 H572 0.950 . S
C592 C591 1.405 . S
C592 C593 1.367 . S
C593 H573 0.950 . S
C593 C588 1.386 . S
C593 C592 1.367 . S
C594 C588 1.483 . S
C594 C595 1.382 . S
C594 C596 1.403 . S
C595 H574 0.950 . S
C595 C594 1.382 . S
C595 C611 1.411 . S
C596 C594 1.403 . S
C596 C597 1.489 . S
C596 C610 1.411 . S
C597 C596 1.489 . S
C597 C598 1.383 . S
C597 C602 1.382 . S
C598 H575 0.950 . S
C598 C597 1.383 . S
C598 C599 1.395 . S
C599 H576 0.950 . S
C599 C598 1.395 . S
C599 C600 1.288 . S
C600 C599 1.288 . S
C600 C601 1.392 . S
C601 H577 0.951 . S
C601 C600 1.392 . S
C601 C602 1.392 . S
C602 H578 0.949 . S
C602 C597 1.382 . S
C602 C601 1.392 . S
C603 C604 1.376 . S
C603 C608 1.386 . S
C603 C609 1.483 . S
C604 H579 0.949 . S
C604 C603 1.376 . S
C604 C605 1.397 . S
C605 H580 0.950 . S
C605 C604 1.397 . S
C605 C606 1.391 . S
C606 C605 1.391 . S
C606 C607 1.405 . S
C607 H581 0.950 . S
C607 C606 1.405 . S
C607 C608 1.367 . S
C608 H582 0.950 . S
C608 C603 1.386 . S
C608 C607 1.367 . S
C609 C603 1.483 . S
C609 C610 1.382 . S
C609 C611 1.403 . S
C610 H583 0.950 . S
C610 C596 1.411 . S
C610 C609 1.382 . S
C611 C595 1.411 . S
C611 C609 1.403 . S
C611 C612 1.489 . S
C612 C611 1.489 . S
C612 C613 1.383 . S
C612 C617 1.382 . S
C613 H584 0.950 . S
C613 C612 1.383 . S
C613 C614 1.395 . S
C614 H585 0.950 . S
C614 C613 1.395 . S
C614 C615 1.288 . S
C615 C614 1.288 . S
C615 C616 1.392 . S
C616 H586 0.951 . S
C616 C615 1.392 . S
C616 C617 1.392 . S
C617 H587 0.949 . S
C617 C612 1.382 . S
C617 C616 1.392 . S
H618 C637 0.949 . S
H619 C638 0.950 . S
H620 C640 0.950 . S
H621 C641 0.950 . S
H622 C643 0.950 . S
H623 C646 0.950 . S
H624 C647 0.950 . S
H625 C649 0.951 . S
H626 C650 0.949 . S
H627 C652 0.949 . S
H628 C653 0.950 . S
H629 C655 0.950 . S
H630 C656 0.950 . S
H631 C658 0.950 . S
H632 C661 0.950 . S
H633 C662 0.950 . S
H634 C664 0.951 . S
H635 C665 0.949 . S
C636 C637 1.376 . S
C636 C641 1.386 . S
C636 C642 1.483 . S
C637 H618 0.949 . S
C637 C636 1.376 . S
C637 C638 1.397 . S
C638 H619 0.950 . S
C638 C637 1.397 . S
C638 C639 1.391 . S
C639 C638 1.391 . S
C639 C640 1.405 . S
C640 H620 0.950 . S
C640 C639 1.405 . S
C640 C641 1.367 . S
C641 H621 0.950 . S
C641 C636 1.386 . S
C641 C640 1.367 . S
C642 C636 1.483 . S
C642 C643 1.382 . S
C642 C644 1.403 . S
C643 H622 0.950 . S
C643 C642 1.382 . S
C643 C659 1.411 . S
C644 C642 1.403 . S
C644 C645 1.489 . S
C644 C658 1.411 . S
C645 C644 1.489 . S
C645 C646 1.383 . S
C645 C650 1.382 . S
C646 H623 0.950 . S
C646 C645 1.383 . S
C646 C647 1.395 . S
C647 H624 0.950 . S
C647 C646 1.395 . S
C647 C648 1.288 . S
C648 C647 1.288 . S
C648 C649 1.392 . S
C649 H625 0.951 . S
C649 C648 1.392 . S
C649 C650 1.392 . S
C650 H626 0.949 . S
C650 C645 1.382 . S
C650 C649 1.392 . S
C651 C652 1.376 . S
C651 C656 1.386 . S
C651 C657 1.483 . S
C652 H627 0.949 . S
C652 C651 1.376 . S
C652 C653 1.397 . S
C653 H628 0.950 . S
C653 C652 1.397 . S
C653 C654 1.391 . S
C654 C653 1.391 . S
C654 C655 1.405 . S
C655 H629 0.950 . S
C655 C654 1.405 . S
C655 C656 1.367 . S
C656 H630 0.950 . S
C656 C651 1.386 . S
C656 C655 1.367 . S
C657 C651 1.483 . S
C657 C658 1.382 . S
C657 C659 1.403 . S
C658 H631 0.950 . S
C658 C644 1.411 . S
C658 C657 1.382 . S
C659 C643 1.411 . S
C659 C657 1.403 . S
C659 C660 1.489 . S
C660 C659 1.489 . S
C660 C661 1.383 . S
C660 C665 1.382 . S
C661 H632 0.950 . S
C661 C660 1.383 . S
C661 C662 1.395 . S
C662 H633 0.950 . S
C662 C661 1.395 . S
C662 C663 1.288 . S
C663 C662 1.288 . S
C663 C664 1.392 . S
C664 H634 0.951 . S
C664 C663 1.392 . S
C664 C665 1.392 . S
C665 H635 0.949 . S
C665 C660 1.382 . S
C665 C664 1.392 . S
H666 C685 0.949 . S
H667 C686 0.950 . S
H668 C688 0.950 . S
H669 C689 0.950 . S
H670 C691 0.950 . S
H671 C694 0.950 . S
H672 C695 0.950 . S
H673 C697 0.951 . S
H674 C698 0.949 . S
H675 C700 0.949 . S
H676 C701 0.950 . S
H677 C703 0.950 . S
H678 C704 0.950 . S
H679 C706 0.950 . S
H680 C709 0.950 . S
H681 C710 0.950 . S
H682 C712 0.951 . S
H683 C713 0.949 . S
C684 C685 1.376 . S
C684 C689 1.386 1_655 S
C684 C690 1.483 . S
C685 H666 0.949 . S
C685 C684 1.376 . S
C685 C686 1.397 . S
C686 H667 0.950 . S
C686 C685 1.397 . S
C686 C687 1.391 . S
C687 C686 1.391 . S
C687 C688 1.405 1_655 S
C688 H668 0.950 . S
C688 C687 1.405 1_455 S
C688 C689 1.367 . S
C689 H669 0.950 . S
C689 C684 1.386 1_455 S
C689 C688 1.367 . S
C690 C684 1.483 . S
C690 C691 1.382 . S
C690 C692 1.403 1_655 S
C691 H670 0.950 . S
C691 C690 1.382 . S
C691 C707 1.411 . S
C692 C690 1.403 1_455 S
C692 C693 1.489 . S
C692 C706 1.411 . S
C693 C692 1.489 . S
C693 C694 1.383 1_455 S
C693 C698 1.382 . S
C694 H671 0.950 . S
C694 C693 1.383 1_655 S
C694 C695 1.395 . S
C695 H672 0.950 . S
C695 C694 1.395 . S
C695 C696 1.288 1_655 S
C696 C695 1.288 1_455 S
C696 C697 1.392 . S
C697 H673 0.951 . S
C697 C696 1.392 . S
C697 C698 1.392 . S
C698 H674 0.949 . S
C698 C693 1.382 . S
C698 C697 1.392 . S
C699 C700 1.376 . S
C699 C704 1.386 1_455 S
C699 C705 1.483 . S
C700 H675 0.949 . S
C700 C699 1.376 . S
C700 C701 1.397 . S
C701 H676 0.950 . S
C701 C700 1.397 . S
C701 C702 1.391 . S
C702 C701 1.391 . S
C702 C703 1.405 1_455 S
C703 H677 0.950 . S
C703 C702 1.405 1_655 S
C703 C704 1.367 . S
C704 H678 0.950 . S
C704 C699 1.386 1_655 S
C704 C703 1.367 . S
C705 C699 1.483 . S
C705 C706 1.382 . S
C705 C707 1.403 1_455 S
C706 H679 0.950 . S
C706 C692 1.411 . S
C706 C705 1.382 . S
C707 C691 1.411 . S
C707 C705 1.403 1_655 S
C707 C708 1.489 . S
C708 C707 1.489 . S
C708 C709 1.383 1_655 S
C708 C713 1.382 . S
C709 H680 0.950 . S
C709 C708 1.383 1_455 S
C709 C710 1.395 . S
C710 H681 0.950 . S
C710 C709 1.395 . S
C710 C711 1.288 1_455 S
C711 C710 1.288 1_655 S
C711 C712 1.392 . S
C712 H682 0.951 . S
C712 C711 1.392 . S
C712 C713 1.392 . S
C713 H683 0.949 . S
C713 C708 1.382 . S
C713 C712 1.392 . S
H714 C733 0.949 . S
H715 C734 0.950 . S
H716 C736 0.950 . S
H717 C737 0.950 . S
H718 C739 0.950 . S
H719 C742 0.950 . S
H720 C743 0.950 . S
H721 C745 0.951 . S
H722 C746 0.949 . S
H723 C748 0.949 . S
H724 C749 0.950 . S
H725 C751 0.950 . S
H726 C752 0.950 . S
H727 C754 0.950 . S
H728 C757 0.950 . S
H729 C758 0.950 . S
H730 C760 0.951 . S
H731 C761 0.949 . S
C732 C733 1.376 . S
C732 C737 1.386 . S
C732 C738 1.483 . S
C733 H714 0.949 . S
C733 C732 1.376 . S
C733 C734 1.397 . S
C734 H715 0.950 . S
C734 C733 1.397 . S
C734 C735 1.391 . S
C735 C734 1.391 . S
C735 C736 1.405 . S
C736 H716 0.950 . S
C736 C735 1.405 . S
C736 C737 1.367 . S
C737 H717 0.950 . S
C737 C732 1.386 . S
C737 C736 1.367 . S
C738 C732 1.483 . S
C738 C739 1.382 . S
C738 C740 1.403 . S
C739 H718 0.950 . S
C739 C738 1.382 . S
C739 C755 1.411 . S
C740 C738 1.403 . S
C740 C741 1.489 . S
C740 C754 1.411 . S
C741 C740 1.489 . S
C741 C742 1.383 . S
C741 C746 1.382 . S
C742 H719 0.950 . S
C742 C741 1.383 . S
C742 C743 1.395 . S
C743 H720 0.950 . S
C743 C742 1.395 . S
C743 C744 1.288 . S
C744 C743 1.288 . S
C744 C745 1.392 . S
C745 H721 0.951 . S
C745 C744 1.392 . S
C745 C746 1.392 . S
C746 H722 0.949 . S
C746 C741 1.382 . S
C746 C745 1.392 . S
C747 C748 1.376 . S
C747 C752 1.386 . S
C747 C753 1.483 . S
C748 H723 0.949 . S
C748 C747 1.376 . S
C748 C749 1.397 . S
C749 H724 0.950 . S
C749 C748 1.397 . S
C749 C750 1.391 . S
C750 C749 1.391 . S
C750 C751 1.405 . S
C751 H725 0.950 . S
C751 C750 1.405 . S
C751 C752 1.367 . S
C752 H726 0.950 . S
C752 C747 1.386 . S
C752 C751 1.367 . S
C753 C747 1.483 . S
C753 C754 1.382 . S
C753 C755 1.403 . S
C754 H727 0.950 . S
C754 C740 1.411 . S
C754 C753 1.382 . S
C755 C739 1.411 . S
C755 C753 1.403 . S
C755 C756 1.489 . S
C756 C755 1.489 . S
C756 C757 1.383 . S
C756 C761 1.382 . S
C757 H728 0.950 . S
C757 C756 1.383 . S
C757 C758 1.395 . S
C758 H729 0.950 . S
C758 C757 1.395 . S
C758 C759 1.288 . S
C759 C758 1.288 . S
C759 C760 1.392 . S
C760 H730 0.951 . S
C760 C759 1.392 . S
C760 C761 1.392 . S
C761 H731 0.949 . S
C761 C756 1.382 . S
C761 C760 1.392 . S
H762 C781 0.949 . S
H763 C782 0.950 . S
H764 C784 0.950 . S
H765 C785 0.950 . S
H766 C787 0.950 . S
H767 C790 0.950 . S
H768 C791 0.950 . S
H769 C793 0.951 . S
H770 C794 0.949 . S
H771 C796 0.949 . S
H772 C797 0.950 . S
H773 C799 0.950 . S
H774 C800 0.950 . S
H775 C802 0.950 . S
H776 C805 0.950 . S
H777 C806 0.950 . S
H778 C808 0.951 . S
H779 C809 0.949 . S
C780 C781 1.376 . S
C780 C785 1.386 1_545 S
C780 C786 1.483 . S
C781 H762 0.949 . S
C781 C780 1.376 . S
C781 C782 1.397 . S
C782 H763 0.950 . S
C782 C781 1.397 . S
C782 C783 1.391 . S
C783 C782 1.391 . S
C783 C784 1.405 1_545 S
C784 H764 0.950 . S
C784 C783 1.405 1_565 S
C784 C785 1.367 . S
C785 H765 0.950 . S
C785 C780 1.386 1_565 S
C785 C784 1.367 . S
C786 C780 1.483 . S
C786 C787 1.382 . S
C786 C788 1.403 1_545 S
C787 H766 0.950 . S
C787 C786 1.382 . S
C787 C803 1.411 . S
C788 C786 1.403 1_565 S
C788 C789 1.489 . S
C788 C802 1.411 . S
C789 C788 1.489 . S
C789 C790 1.383 1_565 S
C789 C794 1.382 . S
C790 H767 0.950 . S
C790 C789 1.383 1_545 S
C790 C791 1.395 . S
C791 H768 0.950 . S
C791 C790 1.395 . S
C791 C792 1.288 1_545 S
C792 C791 1.288 1_565 S
C792 C793 1.392 . S
C793 H769 0.951 . S
C793 C792 1.392 . S
C793 C794 1.392 . S
C794 H770 0.949 . S
C794 C789 1.382 . S
C794 C793 1.392 . S
C795 C796 1.376 . S
C795 C800 1.386 1_565 S
C795 C801 1.483 . S
C796 H771 0.949 . S
C796 C795 1.376 . S
C796 C797 1.397 . S
C797 H772 0.950 . S
C797 C796 1.397 . S
C797 C798 1.391 . S
C798 C797 1.391 . S
C798 C799 1.405 1_565 S
C799 H773 0.950 . S
C799 C798 1.405 1_545 S
C799 C800 1.367 . S
C800 H774 0.950 . S
C800 C795 1.386 1_545 S
C800 C799 1.367 . S
C801 C795 1.483 . S
C801 C802 1.382 . S
C801 C803 1.403 1_565 S
C802 H775 0.950 . S
C802 C788 1.411 . S
C802 C801 1.382 . S
C803 C787 1.411 . S
C803 C801 1.403 1_545 S
C803 C804 1.489 . S
C804 C803 1.489 . S
C804 C805 1.383 1_545 S
C804 C809 1.382 . S
C805 H776 0.950 . S
C805 C804 1.383 1_565 S
C805 C806 1.395 . S
C806 H777 0.950 . S
C806 C805 1.395 . S
C806 C807 1.288 1_565 S
C807 C806 1.288 1_545 S
C807 C808 1.392 . S
C808 H778 0.951 . S
C808 C807 1.392 . S
C808 C809 1.392 . S
C809 H779 0.949 . S
C809 C804 1.382 . S
C809 C808 1.392 . S
H810 C829 0.949 . S
H811 C830 0.950 . S
H812 C832 0.950 . S
H813 C833 0.950 . S
H814 C835 0.950 . S
H815 C838 0.950 . S
H816 C839 0.950 . S
H817 C841 0.951 . S
H818 C842 0.949 . S
H819 C844 0.949 . S
H820 C845 0.950 . S
H821 C847 0.950 . S
H822 C848 0.950 . S
H823 C850 0.950 . S
H824 C853 0.950 . S
H825 C854 0.950 . S
H826 C856 0.951 . S
H827 C857 0.949 . S
C828 C829 1.403 . S
C828 C833 1.375 1_545 S
C828 C834 1.499 . S
C829 H810 0.949 . S
C829 C828 1.403 . S
C829 C830 1.397 . S
C830 H811 0.950 . S
C830 C829 1.397 . S
C830 C831 1.391 1_545 S
C831 C830 1.391 1_565 S
C831 C832 1.405 . S
C832 H812 0.950 . S
C832 C831 1.405 . S
C832 C833 1.367 . S
C833 H813 0.950 . S
C833 C828 1.375 1_565 S
C833 C832 1.367 . S
C834 C828 1.499 . S
C834 C835 1.350 . S
C834 C836 1.402 1_545 S
C835 H814 0.950 . S
C835 C834 1.350 . S
C835 C851 1.438 . S
C836 C834 1.402 1_565 S
C836 C837 1.476 . S
C836 C850 1.428 . S
C837 C836 1.476 . S
C837 C838 1.378 1_565 S
C837 C842 1.384 . S
C838 H815 0.950 . S
C838 C837 1.378 1_545 S
C838 C839 1.395 . S
C839 H816 0.950 . S
C839 C838 1.395 . S
C839 C840 1.288 . S
C840 C839 1.288 . S
C840 C841 1.392 1_545 S
C841 H817 0.951 . S
C841 C840 1.392 1_565 S
C841 C842 1.392 . S
C842 H818 0.949 . S
C842 C837 1.384 . S
C842 C841 1.392 . S
C843 C844 1.390 . S
C843 C848 1.380 1_565 S
C843 C849 1.499 . S
C844 H819 0.949 . S
C844 C843 1.390 . S
C844 C845 1.397 . S
C845 H820 0.950 . S
C845 C844 1.397 . S
C845 C846 1.391 1_565 S
C846 C845 1.391 1_545 S
C846 C847 1.405 . S
C847 H821 0.950 . S
C847 C846 1.405 . S
C847 C848 1.367 . S
C848 H822 0.950 . S
C848 C843 1.380 1_545 S
C848 C847 1.367 . S
C849 C843 1.499 . S
C849 C850 1.357 . S
C849 C851 1.402 1_565 S
C850 H823 0.950 . S
C850 C836 1.428 . S
C850 C849 1.357 . S
C851 C835 1.438 . S
C851 C849 1.402 1_545 S
C851 C852 1.476 . S
C852 C851 1.476 . S
C852 C853 1.361 1_545 S
C852 C857 1.393 . S
C853 H824 0.950 . S
C853 C852 1.361 1_565 S
C853 C854 1.395 . S
C854 H825 0.950 . S
C854 C853 1.395 . S
C854 C855 1.288 . S
C855 C854 1.288 . S
C855 C856 1.392 1_565 S
C856 H826 0.951 . S
C856 C855 1.392 1_545 S
C856 C857 1.392 . S
C857 H827 0.949 . S
C857 C852 1.393 . S
C857 C856 1.392 . S
H858 C877 0.949 . S
H859 C878 0.950 . S
H860 C880 0.950 . S
H861 C881 0.950 . S
H862 C883 0.950 . S
H863 C886 0.950 . S
H864 C887 0.950 . S
H865 C889 0.951 . S
H866 C890 0.949 . S
H867 C892 0.949 . S
H868 C893 0.950 . S
H869 C895 0.950 . S
H870 C896 0.950 . S
H871 C898 0.950 . S
H872 C901 0.950 . S
H873 C902 0.950 . S
H874 C904 0.951 . S
H875 C905 0.949 . S
C876 C877 1.376 . S
C876 C881 1.386 1_455 S
C876 C882 1.483 . S
C877 H858 0.949 . S
C877 C876 1.376 . S
C877 C878 1.397 . S
C878 H859 0.950 . S
C878 C877 1.397 . S
C878 C879 1.391 . S
C879 C878 1.391 . S
C879 C880 1.405 1_455 S
C880 H860 0.950 . S
C880 C879 1.405 1_655 S
C880 C881 1.367 . S
C881 H861 0.950 . S
C881 C876 1.386 1_655 S
C881 C880 1.367 . S
C882 C876 1.483 . S
C882 C883 1.382 . S
C882 C884 1.403 1_455 S
C883 H862 0.950 . S
C883 C882 1.382 . S
C883 C899 1.411 . S
C884 C882 1.403 1_655 S
C884 C885 1.489 . S
C884 C898 1.411 . S
C885 C884 1.489 . S
C885 C886 1.383 1_655 S
C885 C890 1.382 . S
C886 H863 0.950 . S
C886 C885 1.383 1_455 S
C886 C887 1.395 . S
C887 H864 0.950 . S
C887 C886 1.395 . S
C887 C888 1.288 1_455 S
C888 C887 1.288 1_655 S
C888 C889 1.392 . S
C889 H865 0.951 . S
C889 C888 1.392 . S
C889 C890 1.392 . S
C890 H866 0.949 . S
C890 C885 1.382 . S
C890 C889 1.392 . S
C891 C892 1.376 . S
C891 C896 1.386 1_655 S
C891 C897 1.483 . S
C892 H867 0.949 . S
C892 C891 1.376 . S
C892 C893 1.397 . S
C893 H868 0.950 . S
C893 C892 1.397 . S
C893 C894 1.391 . S
C894 C893 1.391 . S
C894 C895 1.405 1_655 S
C895 H869 0.950 . S
C895 C894 1.405 1_455 S
C895 C896 1.367 . S
C896 H870 0.950 . S
C896 C891 1.386 1_455 S
C896 C895 1.367 . S
C897 C891 1.483 . S
C897 C898 1.382 . S
C897 C899 1.403 1_655 S
C898 H871 0.950 . S
C898 C884 1.411 . S
C898 C897 1.382 . S
C899 C883 1.411 . S
C899 C897 1.403 1_455 S
C899 C900 1.489 . S
C900 C899 1.489 . S
C900 C901 1.383 1_455 S
C900 C905 1.382 . S
C901 H872 0.950 . S
C901 C900 1.383 1_655 S
C901 C902 1.395 . S
C902 H873 0.950 . S
C902 C901 1.395 . S
C902 C903 1.288 1_655 S
C903 C902 1.288 1_455 S
C903 C904 1.392 . S
C904 H874 0.951 . S
C904 C903 1.392 . S
C904 C905 1.392 . S
C905 H875 0.949 . S
C905 C900 1.382 . S
C905 C904 1.392 . S
H906 C925 0.949 . S
H907 C926 0.950 . S
H908 C928 0.950 . S
H909 C929 0.950 . S
H910 C931 0.950 . S
H911 C934 0.950 . S
H912 C935 0.950 . S
H913 C937 0.951 . S
H914 C938 0.949 . S
H915 C940 0.949 . S
H916 C941 0.950 . S
H917 C943 0.950 . S
H918 C944 0.950 . S
H919 C946 0.950 . S
H920 C949 0.950 . S
H921 C950 0.950 . S
H922 C952 0.951 . S
H923 C953 0.949 . S
C924 C925 1.376 . S
C924 C929 1.386 . S
C924 C930 1.483 . S
C925 H906 0.949 . S
C925 C924 1.376 . S
C925 C926 1.397 . S
C926 H907 0.950 . S
C926 C925 1.397 . S
C926 C927 1.391 . S
C927 C926 1.391 . S
C927 C928 1.405 . S
C928 H908 0.950 . S
C928 C927 1.405 . S
C928 C929 1.367 . S
C929 H909 0.950 . S
C929 C924 1.386 . S
C929 C928 1.367 . S
C930 C924 1.483 . S
C930 C931 1.382 . S
C930 C932 1.403 . S
C931 H910 0.950 . S
C931 C930 1.382 . S
C931 C947 1.411 . S
C932 C930 1.403 . S
C932 C933 1.489 . S
C932 C946 1.411 . S
C933 C932 1.489 . S
C933 C934 1.383 . S
C933 C938 1.382 . S
C934 H911 0.950 . S
C934 C933 1.383 . S
C934 C935 1.395 . S
C935 H912 0.950 . S
C935 C934 1.395 . S
C935 C936 1.288 . S
C936 C935 1.288 . S
C936 C937 1.392 . S
C937 H913 0.951 . S
C937 C936 1.392 . S
C937 C938 1.392 . S
C938 H914 0.949 . S
C938 C933 1.382 . S
C938 C937 1.392 . S
C939 C940 1.376 . S
C939 C944 1.386 . S
C939 C945 1.483 . S
C940 H915 0.949 . S
C940 C939 1.376 . S
C940 C941 1.397 . S
C941 H916 0.950 . S
C941 C940 1.397 . S
C941 C942 1.391 . S
C942 C941 1.391 . S
C942 C943 1.405 . S
C943 H917 0.950 . S
C943 C942 1.405 . S
C943 C944 1.367 . S
C944 H918 0.950 . S
C944 C939 1.386 . S
C944 C943 1.367 . S
C945 C939 1.483 . S
C945 C946 1.382 . S
C945 C947 1.403 . S
C946 H919 0.950 . S
C946 C932 1.411 . S
C946 C945 1.382 . S
C947 C931 1.411 . S
C947 C945 1.403 . S
C947 C948 1.489 . S
C948 C947 1.489 . S
C948 C949 1.383 . S
C948 C953 1.382 . S
C949 H920 0.950 . S
C949 C948 1.383 . S
C949 C950 1.395 . S
C950 H921 0.950 . S
C950 C949 1.395 . S
C950 C951 1.288 . S
C951 C950 1.288 . S
C951 C952 1.392 . S
C952 H922 0.951 . S
C952 C951 1.392 . S
C952 C953 1.392 . S
C953 H923 0.949 . S
C953 C948 1.382 . S
C953 C952 1.392 . S
H954 C973 0.949 . S
H955 C974 0.950 . S
H956 C976 0.950 . S
H957 C977 0.950 . S
H958 C979 0.950 . S
H959 C982 0.950 . S
H960 C983 0.950 . S
H961 C985 0.951 . S
H962 C986 0.949 . S
H963 C988 0.949 . S
H964 C989 0.950 . S
H965 C991 0.950 . S
H966 C992 0.950 . S
H967 C994 0.950 . S
H968 C997 0.950 . S
H969 C998 0.950 . S
H970 C1000 0.951 . S
H971 C1001 0.949 . S
C972 C973 1.376 . S
C972 C977 1.386 . S
C972 C978 1.483 . S
C973 H954 0.949 . S
C973 C972 1.376 . S
C973 C974 1.397 . S
C974 H955 0.950 . S
C974 C973 1.397 . S
C974 C975 1.391 . S
C975 C974 1.391 . S
C975 C976 1.405 . S
C976 H956 0.950 . S
C976 C975 1.405 . S
C976 C977 1.367 . S
C977 H957 0.950 . S
C977 C972 1.386 . S
C977 C976 1.367 . S
C978 C972 1.483 . S
C978 C979 1.382 . S
C978 C980 1.403 . S
C979 H958 0.950 . S
C979 C978 1.382 . S
C979 C995 1.411 . S
C980 C978 1.403 . S
C980 C981 1.489 . S
C980 C994 1.411 . S
C981 C980 1.489 . S
C981 C982 1.383 . S
C981 C986 1.382 . S
C982 H959 0.950 . S
C982 C981 1.383 . S
C982 C983 1.395 . S
C983 H960 0.950 . S
C983 C982 1.395 . S
C983 C984 1.288 . S
C984 C983 1.288 . S
C984 C985 1.392 . S
C985 H961 0.951 . S
C985 C984 1.392 . S
C985 C986 1.392 . S
C986 H962 0.949 . S
C986 C981 1.382 . S
C986 C985 1.392 . S
C987 C988 1.376 . S
C987 C992 1.386 . S
C987 C993 1.483 . S
C988 H963 0.949 . S
C988 C987 1.376 . S
C988 C989 1.397 . S
C989 H964 0.950 . S
C989 C988 1.397 . S
C989 C990 1.391 . S
C990 C989 1.391 . S
C990 C991 1.405 . S
C991 H965 0.950 . S
C991 C990 1.405 . S
C991 C992 1.367 . S
C992 H966 0.950 . S
C992 C987 1.386 . S
C992 C991 1.367 . S
C993 C987 1.483 . S
C993 C994 1.382 . S
C993 C995 1.403 . S
C994 H967 0.950 . S
C994 C980 1.411 . S
C994 C993 1.382 . S
C995 C979 1.411 . S
C995 C993 1.403 . S
C995 C996 1.489 . S
C996 C995 1.489 . S
C996 C997 1.383 . S
C996 C1001 1.382 . S
C997 H968 0.950 . S
C997 C996 1.383 . S
C997 C998 1.395 . S
C998 H969 0.950 . S
C998 C997 1.395 . S
C998 C999 1.288 . S
C999 C998 1.288 . S
C999 C1000 1.392 . S
C1000 H970 0.951 . S
C1000 C999 1.392 . S
C1000 C1001 1.392 . S
C1001 H971 0.949 . S
C1001 C996 1.382 . S
C1001 C1000 1.392 . S
H1002 C1021 0.949 . S
H1003 C1022 0.950 . S
H1004 C1024 0.950 . S
H1005 C1025 0.950 . S
H1006 C1027 0.950 . S
H1007 C1030 0.950 . S
H1008 C1031 0.950 . S
H1009 C1033 0.951 . S
H1010 C1034 0.949 . S
H1011 C1036 0.949 . S
H1012 C1037 0.950 . S
H1013 C1039 0.950 . S
H1014 C1040 0.950 . S
H1015 C1042 0.950 . S
H1016 C1045 0.950 . S
H1017 C1046 0.950 . S
H1018 C1048 0.951 . S
H1019 C1049 0.949 . S
C1020 C1021 1.376 . S
C1020 C1025 1.386 . S
C1020 C1026 1.483 . S
C1021 H1002 0.949 . S
C1021 C1020 1.376 . S
C1021 C1022 1.397 . S
C1022 H1003 0.950 . S
C1022 C1021 1.397 . S
C1022 C1023 1.391 . S
C1023 C1022 1.391 . S
C1023 C1024 1.405 . S
C1024 H1004 0.950 . S
C1024 C1023 1.405 . S
C1024 C1025 1.367 . S
C1025 H1005 0.950 . S
C1025 C1020 1.386 . S
C1025 C1024 1.367 . S
C1026 C1020 1.483 . S
C1026 C1027 1.382 . S
C1026 C1028 1.403 . S
C1027 H1006 0.950 . S
C1027 C1026 1.382 . S
C1027 C1043 1.411 . S
C1028 C1026 1.403 . S
C1028 C1029 1.489 . S
C1028 C1042 1.411 . S
C1029 C1028 1.489 . S
C1029 C1030 1.383 . S
C1029 C1034 1.382 . S
C1030 H1007 0.950 . S
C1030 C1029 1.383 . S
C1030 C1031 1.395 . S
C1031 H1008 0.950 . S
C1031 C1030 1.395 . S
C1031 C1032 1.288 . S
C1032 C1031 1.288 . S
C1032 C1033 1.392 . S
C1033 H1009 0.951 . S
C1033 C1032 1.392 . S
C1033 C1034 1.392 . S
C1034 H1010 0.949 . S
C1034 C1029 1.382 . S
C1034 C1033 1.392 . S
C1035 C1036 1.376 . S
C1035 C1040 1.386 . S
C1035 C1041 1.483 . S
C1036 H1011 0.949 . S
C1036 C1035 1.376 . S
C1036 C1037 1.397 . S
C1037 H1012 0.950 . S
C1037 C1036 1.397 . S
C1037 C1038 1.391 . S
C1038 C1037 1.391 . S
C1038 C1039 1.405 . S
C1039 H1013 0.950 . S
C1039 C1038 1.405 . S
C1039 C1040 1.367 . S
C1040 H1014 0.950 . S
C1040 C1035 1.386 . S
C1040 C1039 1.367 . S
C1041 C1035 1.483 . S
C1041 C1042 1.382 . S
C1041 C1043 1.403 . S
C1042 H1015 0.950 . S
C1042 C1028 1.411 . S
C1042 C1041 1.382 . S
C1043 C1027 1.411 . S
C1043 C1041 1.403 . S
C1043 C1044 1.489 . S
C1044 C1043 1.489 . S
C1044 C1045 1.383 . S
C1044 C1049 1.382 . S
C1045 H1016 0.950 . S
C1045 C1044 1.383 . S
C1045 C1046 1.395 . S
C1046 H1017 0.950 . S
C1046 C1045 1.395 . S
C1046 C1047 1.288 . S
C1047 C1046 1.288 . S
C1047 C1048 1.392 . S
C1048 H1018 0.951 . S
C1048 C1047 1.392 . S
C1048 C1049 1.392 . S
C1049 H1019 0.949 . S
C1049 C1044 1.382 . S
C1049 C1048 1.392 . S
H1050 C1069 0.949 . S
H1051 C1070 0.950 . S
H1052 C1072 0.950 . S
H1053 C1073 0.950 . S
H1054 C1075 0.950 . S
H1055 C1078 0.950 . S
H1056 C1079 0.950 . S
H1057 C1081 0.951 . S
H1058 C1082 0.949 . S
H1059 C1084 0.949 . S
H1060 C1085 0.950 . S
H1061 C1087 0.950 . S
H1062 C1088 0.950 . S
H1063 C1090 0.950 . S
H1064 C1093 0.950 . S
H1065 C1094 0.950 . S
H1066 C1096 0.951 . S
H1067 C1097 0.949 . S
C1068 C1069 1.376 . S
C1068 C1073 1.386 . S
C1068 C1074 1.483 . S
C1069 H1050 0.949 . S
C1069 C1068 1.376 . S
C1069 C1070 1.397 . S
C1070 H1051 0.950 . S
C1070 C1069 1.397 . S
C1070 C1071 1.391 . S
C1071 C1070 1.391 . S
C1071 C1072 1.405 . S
C1072 H1052 0.950 . S
C1072 C1071 1.405 . S
C1072 C1073 1.367 . S
C1073 H1053 0.950 . S
C1073 C1068 1.386 . S
C1073 C1072 1.367 . S
C1074 C1068 1.483 . S
C1074 C1075 1.382 . S
C1074 C1076 1.403 . S
C1075 H1054 0.950 . S
C1075 C1074 1.382 . S
C1075 C1091 1.411 . S
C1076 C1074 1.403 . S
C1076 C1077 1.489 . S
C1076 C1090 1.411 . S
C1077 C1076 1.489 . S
C1077 C1078 1.383 . S
C1077 C1082 1.382 . S
C1078 H1055 0.950 . S
C1078 C1077 1.383 . S
C1078 C1079 1.395 . S
C1079 H1056 0.950 . S
C1079 C1078 1.395 . S
C1079 C1080 1.288 . S
C1080 C1079 1.288 . S
C1080 C1081 1.392 . S
C1081 H1057 0.951 . S
C1081 C1080 1.392 . S
C1081 C1082 1.392 . S
C1082 H1058 0.949 . S
C1082 C1077 1.382 . S
C1082 C1081 1.392 . S
C1083 C1084 1.376 . S
C1083 C1088 1.386 . S
C1083 C1089 1.483 . S
C1084 H1059 0.949 . S
C1084 C1083 1.376 . S
C1084 C1085 1.397 . S
C1085 H1060 0.950 . S
C1085 C1084 1.397 . S
C1085 C1086 1.391 . S
C1086 C1085 1.391 . S
C1086 C1087 1.405 . S
C1087 H1061 0.950 . S
C1087 C1086 1.405 . S
C1087 C1088 1.367 . S
C1088 H1062 0.950 . S
C1088 C1083 1.386 . S
C1088 C1087 1.367 . S
C1089 C1083 1.483 . S
C1089 C1090 1.382 . S
C1089 C1091 1.403 . S
C1090 H1063 0.950 . S
C1090 C1076 1.411 . S
C1090 C1089 1.382 . S
C1091 C1075 1.411 . S
C1091 C1089 1.403 . S
C1091 C1092 1.489 . S
C1092 C1091 1.489 . S
C1092 C1093 1.383 . S
C1092 C1097 1.382 . S
C1093 H1064 0.950 . S
C1093 C1092 1.383 . S
C1093 C1094 1.395 . S
C1094 H1065 0.950 . S
C1094 C1093 1.395 . S
C1094 C1095 1.288 . S
C1095 C1094 1.288 . S
C1095 C1096 1.392 . S
C1096 H1066 0.951 . S
C1096 C1095 1.392 . S
C1096 C1097 1.392 . S
C1097 H1067 0.949 . S
C1097 C1092 1.382 . S
C1097 C1096 1.392 . S
H1098 C1106 0.950 . S
H1099 C1111 0.950 . S
H1100 C1108 0.950 . S
H1101 C1110 0.950 . S
H1102 C1112 0.950 . S
H1103 C1114 0.950 . S
H1104 C1116 0.950 . S
H1105 C1117 0.950 . S
C1106 H1098 0.950 . S
C1106 C1107 1.386 1_455 S
C1106 C1108 1.391 . S
C1107 C1106 1.386 1_655 S
C1107 C1111 1.393 . S
C1108 H1100 0.950 . S
C1108 C1106 1.391 . S
C1108 C1109 1.400 1_455 S
C1109 C1108 1.400 1_655 S
C1109 C1110 1.398 . S
C1109 C1115 1.491 . S
C1110 H1101 0.950 . S
C1110 C1109 1.398 . S
C1110 C1111 1.391 . S
C1111 H1099 0.950 . S
C1111 C1107 1.393 . S
C1111 C1110 1.391 . S
C1112 H1102 0.950 . S
C1112 C1113 1.386 . S
C1112 C1114 1.391 . S
C1113 C1112 1.386 . S
C1113 C1117 1.393 1_655 S
C1114 H1103 0.950 . S
C1114 C1112 1.391 . S
C1114 C1115 1.400 . S
C1115 C1109 1.491 . S
C1115 C1114 1.400 . S
C1115 C1116 1.398 1_655 S
C1116 H1104 0.950 . S
C1116 C1115 1.398 1_455 S
C1116 C1117 1.391 . S
C1117 H1105 0.950 . S
C1117 C1113 1.393 1_455 S
C1117 C1116 1.391 . S
H1118 C1126 0.950 . S
H1119 C1131 0.950 . S
H1120 C1128 0.950 . S
H1121 C1130 0.950 . S
H1122 C1132 0.950 . S
H1123 C1134 0.950 . S
H1124 C1136 0.950 . S
H1125 C1137 0.950 . S
C1126 H1118 0.950 . S
C1126 C1127 1.386 . S
C1126 C1128 1.391 . S
C1127 C1126 1.386 . S
C1127 C1131 1.393 . S
C1128 H1120 0.950 . S
C1128 C1126 1.391 . S
C1128 C1129 1.400 . S
C1129 C1128 1.400 . S
C1129 C1130 1.398 . S
C1129 C1135 1.491 . S
C1130 H1121 0.950 . S
C1130 C1129 1.398 . S
C1130 C1131 1.391 . S
C1131 H1119 0.950 . S
C1131 C1127 1.393 . S
C1131 C1130 1.391 . S
C1132 H1122 0.950 . S
C1132 C1133 1.386 . S
C1132 C1134 1.391 . S
C1133 C1132 1.386 . S
C1133 C1137 1.393 . S
C1134 H1123 0.950 . S
C1134 C1132 1.391 . S
C1134 C1135 1.400 . S
C1135 C1129 1.491 . S
C1135 C1134 1.400 . S
C1135 C1136 1.398 . S
C1136 H1124 0.950 . S
C1136 C1135 1.398 . S
C1136 C1137 1.391 . S
C1137 H1125 0.950 . S
C1137 C1133 1.393 . S
C1137 C1136 1.391 . S
H1138 C1146 0.949 . S
H1139 C1151 0.950 . S
H1140 C1148 0.950 . S
H1141 C1150 0.950 . S
H1142 C1152 0.950 . S
H1143 C1154 0.950 . S
H1144 C1156 0.950 . S
H1145 C1157 0.950 . S
C1146 H1138 0.949 . S
C1146 C1147 1.388 1_565 S
C1146 C1148 1.390 . S
C1147 C1146 1.388 1_545 S
C1147 C1151 1.393 . S
C1148 H1140 0.950 . S
C1148 C1146 1.390 . S
C1148 C1149 1.400 1_565 S
C1149 C1148 1.400 1_545 S
C1149 C1150 1.398 . S
C1149 C1155 1.491 . S
C1150 H1141 0.950 . S
C1150 C1149 1.398 . S
C1150 C1151 1.391 . S
C1151 H1139 0.950 . S
C1151 C1147 1.393 . S
C1151 C1150 1.391 . S
C1152 H1142 0.950 . S
C1152 C1153 1.386 . S
C1152 C1154 1.391 . S
C1153 C1152 1.386 . S
C1153 C1157 1.393 1_545 S
C1154 H1143 0.950 . S
C1154 C1152 1.391 . S
C1154 C1155 1.400 . S
C1155 C1149 1.491 . S
C1155 C1154 1.400 . S
C1155 C1156 1.398 1_545 S
C1156 H1144 0.950 . S
C1156 C1155 1.398 1_565 S
C1156 C1157 1.391 . S
C1157 H1145 0.950 . S
C1157 C1153 1.393 1_565 S
C1157 C1156 1.391 . S
H1158 C1166 0.950 . S
H1159 C1171 0.950 . S
H1160 C1168 0.950 . S
H1161 C1170 0.950 . S
H1162 C1172 0.950 . S
H1163 C1174 0.950 . S
H1164 C1176 0.950 . S
H1165 C1177 0.950 . S
C1166 H1158 0.950 . S
C1166 C1167 1.386 1_545 S
C1166 C1168 1.391 . S
C1167 C1166 1.386 1_565 S
C1167 C1171 1.393 . S
C1168 H1160 0.950 . S
C1168 C1166 1.391 . S
C1168 C1169 1.400 1_545 S
C1169 C1168 1.400 1_565 S
C1169 C1170 1.398 . S
C1169 C1175 1.491 . S
C1170 H1161 0.950 . S
C1170 C1169 1.398 . S
C1170 C1171 1.391 . S
C1171 H1159 0.950 . S
C1171 C1167 1.393 . S
C1171 C1170 1.391 . S
C1172 H1162 0.950 . S
C1172 C1173 1.386 . S
C1172 C1174 1.391 . S
C1173 C1172 1.386 . S
C1173 C1177 1.393 1_565 S
C1174 H1163 0.950 . S
C1174 C1172 1.391 . S
C1174 C1175 1.400 . S
C1175 C1169 1.491 . S
C1175 C1174 1.400 . S
C1175 C1176 1.398 1_565 S
C1176 H1164 0.950 . S
C1176 C1175 1.398 1_545 S
C1176 C1177 1.391 . S
C1177 H1165 0.950 . S
C1177 C1173 1.393 1_545 S
C1177 C1176 1.391 . S
H1178 C1186 0.950 . S
H1179 C1191 0.950 . S
H1180 C1188 0.950 . S
H1181 C1190 0.950 . S
H1182 C1192 0.950 . S
H1183 C1194 0.950 . S
H1184 C1196 0.950 . S
H1185 C1197 0.950 . S
C1186 H1178 0.950 . S
C1186 C1187 1.386 . S
C1186 C1188 1.391 . S
C1187 C1186 1.386 . S
C1187 C1191 1.393 1_455 S
C1188 H1180 0.950 . S
C1188 C1186 1.391 . S
C1188 C1189 1.400 . S
C1189 C1188 1.400 . S
C1189 C1190 1.398 1_455 S
C1189 C1195 1.491 . S
C1190 H1181 0.950 . S
C1190 C1189 1.398 1_655 S
C1190 C1191 1.391 . S
C1191 H1179 0.950 . S
C1191 C1187 1.393 1_655 S
C1191 C1190 1.391 . S
C1192 H1182 0.950 . S
C1192 C1193 1.386 1_655 S
C1192 C1194 1.391 . S
C1193 C1192 1.386 1_455 S
C1193 C1197 1.393 . S
C1194 H1183 0.950 . S
C1194 C1192 1.391 . S
C1194 C1195 1.400 1_655 S
C1195 C1189 1.491 . S
C1195 C1194 1.400 1_455 S
C1195 C1196 1.398 . S
C1196 H1184 0.950 . S
C1196 C1195 1.398 . S
C1196 C1197 1.391 . S
C1197 H1185 0.950 . S
C1197 C1193 1.393 . S
C1197 C1196 1.391 . S
H1198 C1206 0.950 . S
H1199 C1211 0.950 . S
H1200 C1208 0.950 . S
H1201 C1210 0.950 . S
H1202 C1212 0.950 . S
H1203 C1214 0.950 . S
H1204 C1216 0.950 . S
H1205 C1217 0.950 . S
C1206 H1198 0.950 . S
C1206 C1207 1.386 . S
C1206 C1208 1.391 . S
C1207 C1206 1.386 . S
C1207 C1211 1.393 . S
C1208 H1200 0.950 . S
C1208 C1206 1.391 . S
C1208 C1209 1.400 . S
C1209 C1208 1.400 . S
C1209 C1210 1.398 . S
C1209 C1215 1.491 . S
C1210 H1201 0.950 . S
C1210 C1209 1.398 . S
C1210 C1211 1.391 . S
C1211 H1199 0.950 . S
C1211 C1207 1.393 . S
C1211 C1210 1.391 . S
C1212 H1202 0.950 . S
C1212 C1213 1.386 . S
C1212 C1214 1.391 . S
C1213 C1212 1.386 . S
C1213 C1217 1.393 . S
C1214 H1203 0.950 . S
C1214 C1212 1.391 . S
C1214 C1215 1.400 . S
C1215 C1209 1.491 . S
C1215 C1214 1.400 . S
C1215 C1216 1.398 . S
C1216 H1204 0.950 . S
C1216 C1215 1.398 . S
C1216 C1217 1.391 . S
C1217 H1205 0.950 . S
C1217 C1213 1.393 . S
C1217 C1216 1.391 . S
H1218 C1226 0.926 1_655 S
H1219 C1231 0.950 . S
H1220 C1228 0.987 . S
H1221 C1230 0.950 . S
H1222 C1232 0.950 . S
H1223 C1234 0.950 . S
H1224 C1236 0.950 . S
H1225 C1237 0.950 . S
C1226 H1218 0.926 1_455 S
C1226 C1227 1.400 . S
C1226 C1228 1.427 1_455 S
C1227 C1226 1.400 . S
C1227 C1231 1.393 . S
C1228 H1220 0.987 . S
C1228 C1226 1.427 1_655 S
C1228 C1229 1.343 1_655 S
C1229 C1228 1.343 1_455 S
C1229 C1230 1.398 . S
C1229 C1235 1.491 . S
C1230 H1221 0.950 . S
C1230 C1229 1.398 . S
C1230 C1231 1.391 . S
C1231 H1219 0.950 . S
C1231 C1227 1.393 . S
C1231 C1230 1.391 . S
C1232 H1222 0.950 . S
C1232 C1233 1.386 . S
C1232 C1234 1.391 . S
C1233 C1232 1.386 . S
C1233 C1237 1.393 1_455 S
C1234 H1223 0.950 . S
C1234 C1232 1.391 . S
C1234 C1235 1.400 . S
C1235 C1229 1.491 . S
C1235 C1234 1.400 . S
C1235 C1236 1.398 1_455 S
C1236 H1224 0.950 . S
C1236 C1235 1.398 1_655 S
C1236 C1237 1.391 . S
C1237 H1225 0.950 . S
C1237 C1233 1.393 1_655 S
C1237 C1236 1.391 . S
H1238 C1246 0.950 . S
H1239 C1251 0.950 . S
H1240 C1248 0.950 . S
H1241 C1250 0.950 . S
H1242 C1252 0.950 . S
H1243 C1254 0.950 . S
H1244 C1256 0.950 . S
H1245 C1257 0.950 . S
C1246 H1238 0.950 . S
C1246 C1247 1.386 . S
C1246 C1248 1.391 . S
C1247 C1246 1.386 . S
C1247 C1251 1.393 . S
C1248 H1240 0.950 . S
C1248 C1246 1.391 . S
C1248 C1249 1.400 . S
C1249 C1248 1.400 . S
C1249 C1250 1.398 . S
C1249 C1255 1.491 . S
C1250 H1241 0.950 . S
C1250 C1249 1.398 . S
C1250 C1251 1.391 . S
C1251 H1239 0.950 . S
C1251 C1247 1.393 . S
C1251 C1250 1.391 . S
C1252 H1242 0.950 . S
C1252 C1253 1.386 . S
C1252 C1254 1.391 . S
C1253 C1252 1.386 . S
C1253 C1257 1.393 . S
C1254 H1243 0.950 . S
C1254 C1252 1.391 . S
C1254 C1255 1.400 . S
C1255 C1249 1.491 . S
C1255 C1254 1.400 . S
C1255 C1256 1.398 . S
C1256 H1244 0.950 . S
C1256 C1255 1.398 . S
C1256 C1257 1.391 . S
C1257 H1245 0.950 . S
C1257 C1253 1.393 . S
C1257 C1256 1.391 . S
H1258 C1266 0.950 . S
H1259 C1271 0.950 . S
H1260 C1268 0.950 . S
H1261 C1270 0.950 . S
H1262 C1272 0.950 . S
H1263 C1274 0.950 . S
H1264 C1276 0.950 . S
H1265 C1277 0.950 . S
C1266 H1258 0.950 . S
C1266 C1267 1.386 . S
C1266 C1268 1.391 . S
C1267 C1266 1.386 . S
C1267 C1271 1.393 1_565 S
C1268 H1260 0.950 . S
C1268 C1266 1.391 . S
C1268 C1269 1.400 . S
C1269 C1268 1.400 . S
C1269 C1270 1.398 1_565 S
C1269 C1275 1.491 . S
C1270 H1261 0.950 . S
C1270 C1269 1.398 1_545 S
C1270 C1271 1.391 . S
C1271 H1259 0.950 . S
C1271 C1267 1.393 1_545 S
C1271 C1270 1.391 . S
C1272 H1262 0.950 . S
C1272 C1273 1.386 1_545 S
C1272 C1274 1.391 . S
C1273 C1272 1.386 1_565 S
C1273 C1277 1.393 . S
C1274 H1263 0.950 . S
C1274 C1272 1.391 . S
C1274 C1275 1.400 1_545 S
C1275 C1269 1.491 . S
C1275 C1274 1.400 1_565 S
C1275 C1276 1.398 . S
C1276 H1264 0.950 . S
C1276 C1275 1.398 . S
C1276 C1277 1.391 . S
C1277 H1265 0.950 . S
C1277 C1273 1.393 . S
C1277 C1276 1.391 . S
H1278 C1286 0.950 1_565 S
H1279 C1291 0.950 . S
H1280 C1288 0.950 1_565 S
H1281 C1290 0.950 . S
H1282 C1292 0.950 . S
H1283 C1294 0.950 . S
H1284 C1296 0.950 . S
H1285 C1297 0.950 . S
C1286 H1278 0.950 1_545 S
C1286 C1287 1.386 . S
C1286 C1288 1.389 . S
C1287 C1286 1.386 . S
C1287 C1291 1.393 . S
C1288 H1280 0.950 1_545 S
C1288 C1286 1.389 . S
C1288 C1289 1.402 . S
C1289 C1288 1.402 . S
C1289 C1290 1.398 . S
C1289 C1295 1.491 . S
C1290 H1281 0.950 . S
C1290 C1289 1.398 . S
C1290 C1291 1.391 . S
C1291 H1279 0.950 . S
C1291 C1287 1.393 . S
C1291 C1290 1.391 . S
C1292 H1282 0.950 . S
C1292 C1293 1.386 . S
C1292 C1294 1.391 . S
C1293 C1292 1.386 . S
C1293 C1297 1.393 1_545 S
C1294 H1283 0.950 . S
C1294 C1292 1.391 . S
C1294 C1295 1.400 . S
C1295 C1289 1.491 . S
C1295 C1294 1.400 . S
C1295 C1296 1.398 1_545 S
C1296 H1284 0.950 . S
C1296 C1295 1.398 1_565 S
C1296 C1297 1.391 . S
C1297 H1285 0.950 . S
C1297 C1293 1.393 1_565 S
C1297 C1296 1.391 . S
H1298 C1306 0.950 . S
H1299 C1311 0.950 . S
H1300 C1308 0.950 . S
H1301 C1310 0.950 . S
H1302 C1312 0.950 . S
H1303 C1314 0.950 . S
H1304 C1316 0.950 . S
H1305 C1317 0.950 . S
C1306 H1298 0.950 . S
C1306 C1307 1.386 1_455 S
C1306 C1308 1.391 . S
C1307 C1306 1.386 1_655 S
C1307 C1311 1.393 . S
C1308 H1300 0.950 . S
C1308 C1306 1.391 . S
C1308 C1309 1.400 1_455 S
C1309 C1308 1.400 1_655 S
C1309 C1310 1.398 . S
C1309 C1315 1.491 . S
C1310 H1301 0.950 . S
C1310 C1309 1.398 . S
C1310 C1311 1.391 . S
C1311 H1299 0.950 . S
C1311 C1307 1.393 . S
C1311 C1310 1.391 . S
C1312 H1302 0.950 . S
C1312 C1313 1.386 . S
C1312 C1314 1.391 . S
C1313 C1312 1.386 . S
C1313 C1317 1.393 1_655 S
C1314 H1303 0.950 . S
C1314 C1312 1.391 . S
C1314 C1315 1.400 . S
C1315 C1309 1.491 . S
C1315 C1314 1.400 . S
C1315 C1316 1.398 1_655 S
C1316 H1304 0.950 . S
C1316 C1315 1.398 1_455 S
C1316 C1317 1.391 . S
C1317 H1305 0.950 . S
C1317 C1313 1.393 1_455 S
C1317 C1316 1.391 . S
H1318 C1326 0.950 . S
H1319 C1331 0.950 . S
H1320 C1328 0.950 . S
H1321 C1330 0.950 . S
H1322 C1332 0.950 . S
H1323 C1334 0.950 . S
H1324 C1336 0.950 . S
H1325 C1337 0.950 . S
C1326 H1318 0.950 . S
C1326 C1327 1.386 . S
C1326 C1328 1.391 . S
C1327 C1326 1.386 . S
C1327 C1331 1.393 . S
C1328 H1320 0.950 . S
C1328 C1326 1.391 . S
C1328 C1329 1.400 . S
C1329 C1328 1.400 . S
C1329 C1330 1.398 . S
C1329 C1335 1.491 . S
C1330 H1321 0.950 . S
C1330 C1329 1.398 . S
C1330 C1331 1.391 . S
C1331 H1319 0.950 . S
C1331 C1327 1.393 . S
C1331 C1330 1.391 . S
C1332 H1322 0.950 . S
C1332 C1333 1.386 . S
C1332 C1334 1.391 . S
C1333 C1332 1.386 . S
C1333 C1337 1.393 . S
C1334 H1323 0.950 . S
C1334 C1332 1.391 . S
C1334 C1335 1.400 . S
C1335 C1329 1.491 . S
C1335 C1334 1.400 . S
C1335 C1336 1.398 . S
C1336 H1324 0.950 . S
C1336 C1335 1.398 . S
C1336 C1337 1.391 . S
C1337 H1325 0.950 . S
C1337 C1333 1.393 . S
C1337 C1336 1.391 . S
H1338 C1346 0.950 . S
H1339 C1351 0.950 . S
H1340 C1348 0.950 . S
H1341 C1350 0.950 . S
H1342 C1352 0.950 . S
H1343 C1354 0.950 . S
H1344 C1356 0.950 . S
H1345 C1357 0.950 . S
C1346 H1338 0.950 . S
C1346 C1347 1.386 . S
C1346 C1348 1.391 . S
C1347 C1346 1.386 . S
C1347 C1351 1.393 . S
C1348 H1340 0.950 . S
C1348 C1346 1.391 . S
C1348 C1349 1.400 . S
C1349 C1348 1.400 . S
C1349 C1350 1.398 . S
C1349 C1355 1.491 . S
C1350 H1341 0.950 . S
C1350 C1349 1.398 . S
C1350 C1351 1.391 . S
C1351 H1339 0.950 . S
C1351 C1347 1.393 . S
C1351 C1350 1.391 . S
C1352 H1342 0.950 . S
C1352 C1353 1.386 . S
C1352 C1354 1.391 . S
C1353 C1352 1.386 . S
C1353 C1357 1.393 . S
C1354 H1343 0.950 . S
C1354 C1352 1.391 . S
C1354 C1355 1.400 . S
C1355 C1349 1.491 . S
C1355 C1354 1.400 . S
C1355 C1356 1.398 . S
C1356 H1344 0.950 . S
C1356 C1355 1.398 . S
C1356 C1357 1.391 . S
C1357 H1345 0.950 . S
C1357 C1353 1.393 . S
C1357 C1356 1.391 . S
H1358 C1366 0.950 . S
H1359 C1371 0.950 . S
H1360 C1368 0.950 . S
H1361 C1370 0.950 . S
H1362 C1372 0.950 . S
H1363 C1374 0.950 . S
H1364 C1376 0.950 . S
H1365 C1377 0.950 . S
C1366 H1358 0.950 . S
C1366 C1367 1.386 . S
C1366 C1368 1.391 . S
C1367 C1366 1.386 . S
C1367 C1371 1.393 . S
C1368 H1360 0.950 . S
C1368 C1366 1.391 . S
C1368 C1369 1.400 . S
C1369 C1368 1.400 . S
C1369 C1370 1.398 . S
C1369 C1375 1.491 . S
C1370 H1361 0.950 . S
C1370 C1369 1.398 . S
C1370 C1371 1.391 . S
C1371 H1359 0.950 . S
C1371 C1367 1.393 . S
C1371 C1370 1.391 . S
C1372 H1362 0.950 . S
C1372 C1373 1.386 . S
C1372 C1374 1.391 . S
C1373 C1372 1.386 . S
C1373 C1377 1.393 . S
C1374 H1363 0.950 . S
C1374 C1372 1.391 . S
C1374 C1375 1.400 . S
C1375 C1369 1.491 . S
C1375 C1374 1.400 . S
C1375 C1376 1.398 . S
C1376 H1364 0.950 . S
C1376 C1375 1.398 . S
C1376 C1377 1.391 . S
C1377 H1365 0.950 . S
C1377 C1373 1.393 . S
C1377 C1376 1.391 . S
H1378 C1386 0.950 . S
H1379 C1391 0.950 . S
H1380 C1388 0.950 . S
H1381 C1390 0.950 . S
H1382 C1392 0.950 . S
H1383 C1394 0.950 . S
H1384 C1396 0.950 . S
H1385 C1397 0.950 . S
C1386 H1378 0.950 . S
C1386 C1387 1.386 . S
C1386 C1388 1.391 . S
C1387 C1386 1.386 . S
C1387 C1391 1.393 . S
C1388 H1380 0.950 . S
C1388 C1386 1.391 . S
C1388 C1389 1.400 . S
C1389 C1388 1.400 . S
C1389 C1390 1.398 . S
C1389 C1395 1.491 . S
C1390 H1381 0.950 . S
C1390 C1389 1.398 . S
C1390 C1391 1.391 . S
C1391 H1379 0.950 . S
C1391 C1387 1.393 . S
C1391 C1390 1.391 . S
C1392 H1382 0.950 . S
C1392 C1393 1.386 . S
C1392 C1394 1.391 . S
C1393 C1392 1.386 . S
C1393 C1397 1.393 . S
C1394 H1383 0.950 . S
C1394 C1392 1.391 . S
C1394 C1395 1.400 . S
C1395 C1389 1.491 . S
C1395 C1394 1.400 . S
C1395 C1396 1.398 . S
C1396 H1384 0.950 . S
C1396 C1395 1.398 . S
C1396 C1397 1.391 . S
C1397 H1385 0.950 . S
C1397 C1393 1.393 . S
C1397 C1396 1.391 . S
H1398 C1406 0.950 . S
H1399 C1411 0.950 . S
H1400 C1408 0.950 . S
H1401 C1410 0.950 . S
H1402 C1412 0.950 . S
H1403 C1414 0.950 . S
H1404 C1416 0.950 . S
H1405 C1417 0.950 . S
C1406 H1398 0.950 . S
C1406 C1407 1.386 . S
C1406 C1408 1.391 . S
C1407 C1406 1.386 . S
C1407 C1411 1.393 . S
C1408 H1400 0.950 . S
C1408 C1406 1.391 . S
C1408 C1409 1.400 . S
C1409 C1408 1.400 . S
C1409 C1410 1.398 . S
C1409 C1415 1.491 . S
C1410 H1401 0.950 . S
C1410 C1409 1.398 . S
C1410 C1411 1.391 . S
C1411 H1399 0.950 . S
C1411 C1407 1.393 . S
C1411 C1410 1.391 . S
C1412 H1402 0.950 . S
C1412 C1413 1.386 . S
C1412 C1414 1.391 . S
C1413 C1412 1.386 . S
C1413 C1417 1.393 . S
C1414 H1403 0.950 . S
C1414 C1412 1.391 . S
C1414 C1415 1.400 . S
C1415 C1409 1.491 . S
C1415 C1414 1.400 . S
C1415 C1416 1.398 . S
C1416 H1404 0.950 . S
C1416 C1415 1.398 . S
C1416 C1417 1.391 . S
C1417 H1405 0.950 . S
C1417 C1413 1.393 . S
C1417 C1416 1.391 . S
H1418 C1426 0.950 . S
H1419 C1431 0.950 . S
H1420 C1428 0.950 . S
H1421 C1430 0.950 . S
H1422 C1432 0.950 . S
H1423 C1434 0.950 . S
H1424 C1436 0.950 . S
H1425 C1437 0.950 . S
C1426 H1418 0.950 . S
C1426 C1427 1.386 . S
C1426 C1428 1.391 . S
C1427 C1426 1.386 . S
C1427 C1431 1.393 . S
C1428 H1420 0.950 . S
C1428 C1426 1.391 . S
C1428 C1429 1.400 . S
C1429 C1428 1.400 . S
C1429 C1430 1.398 . S
C1429 C1435 1.491 . S
C1430 H1421 0.950 . S
C1430 C1429 1.398 . S
C1430 C1431 1.391 . S
C1431 H1419 0.950 . S
C1431 C1427 1.393 . S
C1431 C1430 1.391 . S
C1432 H1422 0.950 . S
C1432 C1433 1.386 . S
C1432 C1434 1.391 . S
C1433 C1432 1.386 . S
C1433 C1437 1.393 . S
C1434 H1423 0.950 . S
C1434 C1432 1.391 . S
C1434 C1435 1.400 . S
C1435 C1429 1.491 . S
C1435 C1434 1.400 . S
C1435 C1436 1.398 . S
C1436 H1424 0.950 . S
C1436 C1435 1.398 . S
C1436 C1437 1.391 . S
C1437 H1425 0.950 . S
C1437 C1433 1.393 . S
C1437 C1436 1.391 . S
H1438 C1446 0.950 . S
H1439 C1451 0.950 . S
H1440 C1448 0.950 . S
H1441 C1450 0.950 . S
H1442 C1452 0.950 . S
H1443 C1454 0.950 . S
H1444 C1456 0.950 . S
H1445 C1457 0.950 . S
C1446 H1438 0.950 . S
C1446 C1447 1.386 . S
C1446 C1448 1.391 . S
C1447 C1446 1.386 . S
C1447 C1451 1.393 . S
C1448 H1440 0.950 . S
C1448 C1446 1.391 . S
C1448 C1449 1.400 . S
C1449 C1448 1.400 . S
C1449 C1450 1.398 . S
C1449 C1455 1.491 . S
C1450 H1441 0.950 . S
C1450 C1449 1.398 . S
C1450 C1451 1.391 . S
C1451 H1439 0.950 . S
C1451 C1447 1.393 . S
C1451 C1450 1.391 . S
C1452 H1442 0.950 . S
C1452 C1453 1.386 . S
C1452 C1454 1.391 . S
C1453 C1452 1.386 . S
C1453 C1457 1.393 . S
C1454 H1443 0.950 . S
C1454 C1452 1.391 . S
C1454 C1455 1.400 . S
C1455 C1449 1.491 . S
C1455 C1454 1.400 . S
C1455 C1456 1.398 . S
C1456 H1444 0.950 . S
C1456 C1455 1.398 . S
C1456 C1457 1.391 . S
C1457 H1445 0.950 . S
C1457 C1453 1.393 . S
C1457 C1456 1.391 . S
H1458 C1466 0.950 . S
H1459 C1471 0.950 . S
H1460 C1468 0.950 . S
H1461 C1470 0.950 . S
H1462 C1472 0.950 . S
H1463 C1474 0.950 . S
H1464 C1476 0.950 . S
H1465 C1477 0.950 . S
C1466 H1458 0.950 . S
C1466 C1467 1.386 . S
C1466 C1468 1.391 . S
C1467 C1466 1.386 . S
C1467 C1471 1.393 . S
C1468 H1460 0.950 . S
C1468 C1466 1.391 . S
C1468 C1469 1.400 . S
C1469 C1468 1.400 . S
C1469 C1470 1.398 . S
C1469 C1475 1.491 . S
C1470 H1461 0.950 . S
C1470 C1469 1.398 . S
C1470 C1471 1.391 . S
C1471 H1459 0.950 . S
C1471 C1467 1.393 . S
C1471 C1470 1.391 . S
C1472 H1462 0.950 . S
C1472 C1473 1.386 . S
C1472 C1474 1.391 . S
C1473 C1472 1.386 . S
C1473 C1477 1.393 . S
C1474 H1463 0.950 . S
C1474 C1472 1.391 . S
C1474 C1475 1.400 . S
C1475 C1469 1.491 . S
C1475 C1474 1.400 . S
C1475 C1476 1.398 . S
C1476 H1464 0.950 . S
C1476 C1475 1.398 . S
C1476 C1477 1.391 . S
C1477 H1465 0.950 . S
C1477 C1473 1.393 . S
C1477 C1476 1.391 . S
H1478 C1486 0.950 . S
H1479 C1491 0.950 . S
H1480 C1488 0.950 . S
H1481 C1490 0.950 . S
H1482 C1492 0.950 . S
H1483 C1494 0.950 . S
H1484 C1496 0.950 . S
H1485 C1497 0.950 . S
C1486 H1478 0.950 . S
C1486 C1487 1.386 . S
C1486 C1488 1.391 . S
C1487 C1486 1.386 . S
C1487 C1491 1.393 . S
C1488 H1480 0.950 . S
C1488 C1486 1.391 . S
C1488 C1489 1.400 . S
C1489 C1488 1.400 . S
C1489 C1490 1.398 . S
C1489 C1495 1.491 . S
C1490 H1481 0.950 . S
C1490 C1489 1.398 . S
C1490 C1491 1.391 . S
C1491 H1479 0.950 . S
C1491 C1487 1.393 . S
C1491 C1490 1.391 . S
C1492 H1482 0.950 . S
C1492 C1493 1.386 . S
C1492 C1494 1.391 . S
C1493 C1492 1.386 . S
C1493 C1497 1.393 . S
C1494 H1483 0.950 . S
C1494 C1492 1.391 . S
C1494 C1495 1.400 . S
C1495 C1489 1.491 . S
C1495 C1494 1.400 . S
C1495 C1496 1.398 . S
C1496 H1484 0.950 . S
C1496 C1495 1.398 . S
C1496 C1497 1.391 . S
C1497 H1485 0.950 . S
C1497 C1493 1.393 . S
C1497 C1496 1.391 . S
H1498 C1506 0.950 . S
H1499 C1511 0.950 . S
H1500 C1508 0.950 . S
H1501 C1510 0.950 . S
H1502 C1512 0.950 . S
H1503 C1514 0.950 . S
H1504 C1516 0.950 . S
H1505 C1517 0.950 . S
C1506 H1498 0.950 . S
C1506 C1507 1.386 . S
C1506 C1508 1.391 . S
C1507 C1506 1.386 . S
C1507 C1511 1.393 . S
C1508 H1500 0.950 . S
C1508 C1506 1.391 . S
C1508 C1509 1.400 . S
C1509 C1508 1.400 . S
C1509 C1510 1.398 . S
C1509 C1515 1.491 . S
C1510 H1501 0.950 . S
C1510 C1509 1.398 . S
C1510 C1511 1.391 . S
C1511 H1499 0.950 . S
C1511 C1507 1.393 . S
C1511 C1510 1.391 . S
C1512 H1502 0.950 . S
C1512 C1513 1.386 . S
C1512 C1514 1.391 . S
C1513 C1512 1.386 . S
C1513 C1517 1.393 . S
C1514 H1503 0.950 . S
C1514 C1512 1.391 . S
C1514 C1515 1.400 . S
C1515 C1509 1.491 . S
C1515 C1514 1.400 . S
C1515 C1516 1.398 . S
C1516 H1504 0.950 . S
C1516 C1515 1.398 . S
C1516 C1517 1.391 . S
C1517 H1505 0.950 . S
C1517 C1513 1.393 . S
C1517 C1516 1.391 . S
H1518 C1526 0.950 . S
H1519 C1531 0.950 . S
H1520 C1528 0.950 . S
H1521 C1530 0.950 . S
H1522 C1532 0.950 . S
H1523 C1534 0.950 . S
H1524 C1536 0.950 . S
H1525 C1537 0.950 . S
C1526 H1518 0.950 . S
C1526 C1527 1.386 . S
C1526 C1528 1.391 . S
C1527 C1526 1.386 . S
C1527 C1531 1.393 . S
C1528 H1520 0.950 . S
C1528 C1526 1.391 . S
C1528 C1529 1.400 . S
C1529 C1528 1.400 . S
C1529 C1530 1.398 . S
C1529 C1535 1.491 . S
C1530 H1521 0.950 . S
C1530 C1529 1.398 . S
C1530 C1531 1.391 . S
C1531 H1519 0.950 . S
C1531 C1527 1.393 . S
C1531 C1530 1.391 . S
C1532 H1522 0.950 . S
C1532 C1533 1.386 . S
C1532 C1534 1.391 . S
C1533 C1532 1.386 . S
C1533 C1537 1.393 . S
C1534 H1523 0.950 . S
C1534 C1532 1.391 . S
C1534 C1535 1.400 . S
C1535 C1529 1.491 . S
C1535 C1534 1.400 . S
C1535 C1536 1.398 . S
C1536 H1524 0.950 . S
C1536 C1535 1.398 . S
C1536 C1537 1.391 . S
C1537 H1525 0.950 . S
C1537 C1533 1.393 . S
C1537 C1536 1.391 . S
H1538 C1546 0.950 . S
H1539 C1551 0.950 . S
H1540 C1548 0.950 . S
H1541 C1550 0.950 . S
H1542 C1552 0.950 . S
H1543 C1554 0.950 . S
H1544 C1556 0.950 . S
H1545 C1557 0.950 . S
C1546 H1538 0.950 . S
C1546 C1547 1.386 . S
C1546 C1548 1.391 . S
C1547 C1546 1.386 . S
C1547 C1551 1.393 . S
C1548 H1540 0.950 . S
C1548 C1546 1.391 . S
C1548 C1549 1.400 . S
C1549 C1548 1.400 . S
C1549 C1550 1.398 . S
C1549 C1555 1.491 . S
C1550 H1541 0.950 . S
C1550 C1549 1.398 . S
C1550 C1551 1.391 . S
C1551 H1539 0.950 . S
C1551 C1547 1.393 . S
C1551 C1550 1.391 . S
C1552 H1542 0.950 . S
C1552 C1553 1.386 . S
C1552 C1554 1.391 . S
C1553 C1552 1.386 . S
C1553 C1557 1.393 . S
C1554 H1543 0.950 . S
C1554 C1552 1.391 . S
C1554 C1555 1.400 . S
C1555 C1549 1.491 . S
C1555 C1554 1.400 . S
C1555 C1556 1.398 . S
C1556 H1544 0.950 . S
C1556 C1555 1.398 . S
C1556 C1557 1.391 . S
C1557 H1545 0.950 . S
C1557 C1553 1.393 . S
C1557 C1556 1.391 . S
H1558 C1566 0.950 . S
H1559 C1571 0.950 . S
H1560 C1568 0.950 . S
H1561 C1570 0.950 . S
H1562 C1572 0.950 . S
H1563 C1574 0.950 . S
H1564 C1576 0.950 . S
H1565 C1577 0.950 . S
C1566 H1558 0.950 . S
C1566 C1567 1.386 . S
C1566 C1568 1.391 . S
C1567 C1566 1.386 . S
C1567 C1571 1.393 . S
C1568 H1560 0.950 . S
C1568 C1566 1.391 . S
C1568 C1569 1.400 . S
C1569 C1568 1.400 . S
C1569 C1570 1.398 . S
C1569 C1575 1.491 . S
C1570 H1561 0.950 . S
C1570 C1569 1.398 . S
C1570 C1571 1.391 . S
C1571 H1559 0.950 . S
C1571 C1567 1.393 . S
C1571 C1570 1.391 . S
C1572 H1562 0.950 . S
C1572 C1573 1.386 . S
C1572 C1574 1.391 . S
C1573 C1572 1.386 . S
C1573 C1577 1.393 . S
C1574 H1563 0.950 . S
C1574 C1572 1.391 . S
C1574 C1575 1.400 . S
C1575 C1569 1.491 . S
C1575 C1574 1.400 . S
C1575 C1576 1.398 . S
C1576 H1564 0.950 . S
C1576 C1575 1.398 . S
C1576 C1577 1.391 . S
C1577 H1565 0.950 . S
C1577 C1573 1.393 . S
C1577 C1576 1.391 . S
H1578 C1586 0.950 . S
H1579 C1591 0.950 . S
H1580 C1588 0.950 . S
H1581 C1590 0.950 . S
H1582 C1592 0.950 . S
H1583 C1594 0.950 . S
H1584 C1596 0.950 . S
H1585 C1597 0.950 . S
C1586 H1578 0.950 . S
C1586 C1587 1.386 . S
C1586 C1588 1.391 . S
C1587 C1586 1.386 . S
C1587 C1591 1.393 . S
C1588 H1580 0.950 . S
C1588 C1586 1.391 . S
C1588 C1589 1.400 . S
C1589 C1588 1.400 . S
C1589 C1590 1.398 . S
C1589 C1595 1.491 . S
C1590 H1581 0.950 . S
C1590 C1589 1.398 . S
C1590 C1591 1.391 . S
C1591 H1579 0.950 . S
C1591 C1587 1.393 . S
C1591 C1590 1.391 . S
C1592 H1582 0.950 . S
C1592 C1593 1.386 . S
C1592 C1594 1.391 . S
C1593 C1592 1.386 . S
C1593 C1597 1.393 . S
C1594 H1583 0.950 . S
C1594 C1592 1.391 . S
C1594 C1595 1.400 . S
C1595 C1589 1.491 . S
C1595 C1594 1.400 . S
C1595 C1596 1.398 . S
C1596 H1584 0.950 . S
C1596 C1595 1.398 . S
C1596 C1597 1.391 . S
C1597 H1585 0.950 . S
C1597 C1593 1.393 . S
C1597 C1596 1.391 . S
H1598 C1606 0.950 . S
H1599 C1611 0.950 . S
H1600 C1608 0.950 . S
H1601 C1610 0.950 . S
H1602 C1612 0.950 . S
H1603 C1614 0.950 . S
H1604 C1616 0.950 . S
H1605 C1617 0.950 . S
C1606 H1598 0.950 . S
C1606 C1607 1.386 . S
C1606 C1608 1.391 . S
C1607 C1606 1.386 . S
C1607 C1611 1.393 . S
C1608 H1600 0.950 . S
C1608 C1606 1.391 . S
C1608 C1609 1.400 . S
C1609 C1608 1.400 . S
C1609 C1610 1.398 . S
C1609 C1615 1.491 . S
C1610 H1601 0.950 . S
C1610 C1609 1.398 . S
C1610 C1611 1.391 . S
C1611 H1599 0.950 . S
C1611 C1607 1.393 . S
C1611 C1610 1.391 . S
C1612 H1602 0.950 . S
C1612 C1613 1.386 . S
C1612 C1614 1.391 . S
C1613 C1612 1.386 . S
C1613 C1617 1.393 . S
C1614 H1603 0.950 . S
C1614 C1612 1.391 . S
C1614 C1615 1.400 . S
C1615 C1609 1.491 . S
C1615 C1614 1.400 . S
C1615 C1616 1.398 . S
C1616 H1604 0.950 . S
C1616 C1615 1.398 . S
C1616 C1617 1.391 . S
C1617 H1605 0.950 . S
C1617 C1613 1.393 . S
C1617 C1616 1.391 . S
H1618 C1626 0.950 . S
H1619 C1631 0.950 . S
H1620 C1628 0.950 . S
H1621 C1630 0.950 . S
H1622 C1632 0.950 . S
H1623 C1634 0.950 . S
H1624 C1636 0.950 . S
H1625 C1637 0.950 . S
C1626 H1618 0.950 . S
C1626 C1627 1.386 . S
C1626 C1628 1.391 . S
C1627 C1626 1.386 . S
C1627 C1631 1.393 . S
C1628 H1620 0.950 . S
C1628 C1626 1.391 . S
C1628 C1629 1.400 . S
C1629 C1628 1.400 . S
C1629 C1630 1.398 . S
C1629 C1635 1.491 . S
C1630 H1621 0.950 . S
C1630 C1629 1.398 . S
C1630 C1631 1.391 . S
C1631 H1619 0.950 . S
C1631 C1627 1.393 . S
C1631 C1630 1.391 . S
C1632 H1622 0.950 . S
C1632 C1633 1.386 . S
C1632 C1634 1.391 . S
C1633 C1632 1.386 . S
C1633 C1637 1.393 . S
C1634 H1623 0.950 . S
C1634 C1632 1.391 . S
C1634 C1635 1.400 . S
C1635 C1629 1.491 . S
C1635 C1634 1.400 . S
C1635 C1636 1.398 . S
C1636 H1624 0.950 . S
C1636 C1635 1.398 . S
C1636 C1637 1.391 . S
C1637 H1625 0.950 . S
C1637 C1633 1.393 . S
C1637 C1636 1.391 . S
H1638 C1646 0.950 . S
H1639 C1651 0.950 . S
H1640 C1648 0.950 . S
H1641 C1650 0.950 . S
H1642 C1652 0.950 . S
H1643 C1654 0.950 . S
H1644 C1656 0.950 . S
H1645 C1657 0.950 . S
C1646 H1638 0.950 . S
C1646 C1647 1.386 . S
C1646 C1648 1.391 . S
C1647 C1646 1.386 . S
C1647 C1651 1.393 . S
C1648 H1640 0.950 . S
C1648 C1646 1.391 . S
C1648 C1649 1.400 . S
C1649 C1648 1.400 . S
C1649 C1650 1.398 . S
C1649 C1655 1.491 . S
C1650 H1641 0.950 . S
C1650 C1649 1.398 . S
C1650 C1651 1.391 . S
C1651 H1639 0.950 . S
C1651 C1647 1.393 . S
C1651 C1650 1.391 . S
C1652 H1642 0.950 . S
C1652 C1653 1.386 . S
C1652 C1654 1.391 . S
C1653 C1652 1.386 . S
C1653 C1657 1.393 . S
C1654 H1643 0.950 . S
C1654 C1652 1.391 . S
C1654 C1655 1.400 . S
C1655 C1649 1.491 . S
C1655 C1654 1.400 . S
C1655 C1656 1.398 . S
C1656 H1644 0.950 . S
C1656 C1655 1.398 . S
C1656 C1657 1.391 . S
C1657 H1645 0.950 . S
C1657 C1653 1.393 . S
C1657 C1656 1.391 . S
H1658 C1666 0.950 . S
H1659 C1671 0.950 . S
H1660 C1668 0.950 . S
H1661 C1670 0.950 . S
H1662 C1672 0.950 . S
H1663 C1674 0.950 . S
H1664 C1676 0.950 . S
H1665 C1677 0.950 . S
C1666 H1658 0.950 . S
C1666 C1667 1.386 . S
C1666 C1668 1.391 . S
C1667 C1666 1.386 . S
C1667 C1671 1.393 . S
C1668 H1660 0.950 . S
C1668 C1666 1.391 . S
C1668 C1669 1.400 . S
C1669 C1668 1.400 . S
C1669 C1670 1.398 . S
C1669 C1675 1.491 . S
C1670 H1661 0.950 . S
C1670 C1669 1.398 . S
C1670 C1671 1.391 . S
C1671 H1659 0.950 . S
C1671 C1667 1.393 . S
C1671 C1670 1.391 . S
C1672 H1662 0.950 . S
C1672 C1673 1.386 . S
C1672 C1674 1.391 . S
C1673 C1672 1.386 . S
C1673 C1677 1.393 . S
C1674 H1663 0.950 . S
C1674 C1672 1.391 . S
C1674 C1675 1.400 . S
C1675 C1669 1.491 . S
C1675 C1674 1.400 . S
C1675 C1676 1.398 . S
C1676 H1664 0.950 . S
C1676 C1675 1.398 . S
C1676 C1677 1.391 . S
C1677 H1665 0.950 . S
C1677 C1673 1.393 . S
C1677 C1676 1.391 . S
H1678 C1686 0.950 . S
H1679 C1691 0.950 . S
H1680 C1688 0.950 . S
H1681 C1690 0.950 . S
H1682 C1692 0.950 . S
H1683 C1694 0.950 . S
H1684 C1696 0.950 . S
H1685 C1697 0.950 . S
C1686 H1678 0.950 . S
C1686 C1687 1.386 . S
C1686 C1688 1.391 . S
C1687 C1686 1.386 . S
C1687 C1691 1.393 . S
C1688 H1680 0.950 . S
C1688 C1686 1.391 . S
C1688 C1689 1.400 . S
C1689 C1688 1.400 . S
C1689 C1690 1.398 . S
C1689 C1695 1.491 . S
C1690 H1681 0.950 . S
C1690 C1689 1.398 . S
C1690 C1691 1.391 . S
C1691 H1679 0.950 . S
C1691 C1687 1.393 . S
C1691 C1690 1.391 . S
C1692 H1682 0.950 . S
C1692 C1693 1.386 . S
C1692 C1694 1.391 . S
C1693 C1692 1.386 . S
C1693 C1697 1.393 . S
C1694 H1683 0.950 . S
C1694 C1692 1.391 . S
C1694 C1695 1.400 . S
C1695 C1689 1.491 . S
C1695 C1694 1.400 . S
C1695 C1696 1.398 . S
C1696 H1684 0.950 . S
C1696 C1695 1.398 . S
C1696 C1697 1.391 . S
C1697 H1685 0.950 . S
C1697 C1693 1.393 . S
C1697 C1696 1.391 . S
H1698 C1706 0.950 . S
H1699 C1711 0.950 . S
H1700 C1708 0.950 . S
H1701 C1710 0.950 . S
H1702 C1712 0.950 . S
H1703 C1714 0.950 . S
H1704 C1716 0.950 . S
H1705 C1717 0.950 . S
C1706 H1698 0.950 . S
C1706 C1707 1.386 . S
C1706 C1708 1.391 . S
C1707 C1706 1.386 . S
C1707 C1711 1.393 . S
C1708 H1700 0.950 . S
C1708 C1706 1.391 . S
C1708 C1709 1.400 . S
C1709 C1708 1.400 . S
C1709 C1710 1.398 . S
C1709 C1715 1.491 . S
C1710 H1701 0.950 . S
C1710 C1709 1.398 . S
C1710 C1711 1.391 . S
C1711 H1699 0.950 . S
C1711 C1707 1.393 . S
C1711 C1710 1.391 . S
C1712 H1702 0.950 . S
C1712 C1713 1.386 . S
C1712 C1714 1.391 . S
C1713 C1712 1.386 . S
C1713 C1717 1.393 . S
C1714 H1703 0.950 . S
C1714 C1712 1.391 . S
C1714 C1715 1.400 . S
C1715 C1709 1.491 . S
C1715 C1714 1.400 . S
C1715 C1716 1.398 . S
C1716 H1704 0.950 . S
C1716 C1715 1.398 . S
C1716 C1717 1.391 . S
C1717 H1705 0.950 . S
C1717 C1713 1.393 . S
C1717 C1716 1.391 . S
H1718 C1726 0.950 . S
H1719 C1731 0.950 . S
H1720 C1728 0.950 . S
H1721 C1730 0.950 . S
H1722 C1732 0.950 . S
H1723 C1734 0.950 . S
H1724 C1736 0.950 . S
H1725 C1737 0.950 . S
C1726 H1718 0.950 . S
C1726 C1727 1.386 . S
C1726 C1728 1.391 . S
C1727 C1726 1.386 . S
C1727 C1731 1.393 . S
C1728 H1720 0.950 . S
C1728 C1726 1.391 . S
C1728 C1729 1.400 . S
C1729 C1728 1.400 . S
C1729 C1730 1.398 . S
C1729 C1735 1.491 . S
C1730 H1721 0.950 . S
C1730 C1729 1.398 . S
C1730 C1731 1.391 . S
C1731 H1719 0.950 . S
C1731 C1727 1.393 . S
C1731 C1730 1.391 . S
C1732 H1722 0.950 . S
C1732 C1733 1.386 . S
C1732 C1734 1.391 . S
C1733 C1732 1.386 . S
C1733 C1737 1.393 . S
C1734 H1723 0.950 . S
C1734 C1732 1.391 . S
C1734 C1735 1.400 . S
C1735 C1729 1.491 . S
C1735 C1734 1.400 . S
C1735 C1736 1.398 . S
C1736 H1724 0.950 . S
C1736 C1735 1.398 . S
C1736 C1737 1.391 . S
C1737 H1725 0.950 . S
C1737 C1733 1.393 . S
C1737 C1736 1.391 . S
H1738 C1746 0.950 . S
H1739 C1751 0.950 . S
H1740 C1748 0.950 . S
H1741 C1750 0.950 . S
H1742 C1752 0.950 . S
H1743 C1754 0.950 . S
H1744 C1756 0.950 . S
H1745 C1757 0.950 . S
C1746 H1738 0.950 . S
C1746 C1747 1.386 . S
C1746 C1748 1.391 . S
C1747 C1746 1.386 . S
C1747 C1751 1.393 . S
C1748 H1740 0.950 . S
C1748 C1746 1.391 . S
C1748 C1749 1.400 . S
C1749 C1748 1.400 . S
C1749 C1750 1.398 . S
C1749 C1755 1.491 . S
C1750 H1741 0.950 . S
C1750 C1749 1.398 . S
C1750 C1751 1.391 . S
C1751 H1739 0.950 . S
C1751 C1747 1.393 . S
C1751 C1750 1.391 . S
C1752 H1742 0.950 . S
C1752 C1753 1.386 . S
C1752 C1754 1.391 . S
C1753 C1752 1.386 . S
C1753 C1757 1.393 . S
C1754 H1743 0.950 . S
C1754 C1752 1.391 . S
C1754 C1755 1.400 . S
C1755 C1749 1.491 . S
C1755 C1754 1.400 . S
C1755 C1756 1.398 . S
C1756 H1744 0.950 . S
C1756 C1755 1.398 . S
C1756 C1757 1.391 . S
C1757 H1745 0.950 . S
C1757 C1753 1.393 . S
C1757 C1756 1.391 . S
H1758 C1766 0.950 . S
H1759 C1771 0.950 . S
H1760 C1768 0.950 . S
H1761 C1770 0.950 . S
H1762 C1772 0.950 . S
H1763 C1774 0.950 . S
H1764 C1776 0.950 . S
H1765 C1777 0.950 . S
C1766 H1758 0.950 . S
C1766 C1767 1.386 . S
C1766 C1768 1.391 . S
C1767 C1766 1.386 . S
C1767 C1771 1.393 . S
C1768 H1760 0.950 . S
C1768 C1766 1.391 . S
C1768 C1769 1.400 . S
C1769 C1768 1.400 . S
C1769 C1770 1.398 . S
C1769 C1775 1.491 . S
C1770 H1761 0.950 . S
C1770 C1769 1.398 . S
C1770 C1771 1.391 . S
C1771 H1759 0.950 . S
C1771 C1767 1.393 . S
C1771 C1770 1.391 . S
C1772 H1762 0.950 . S
C1772 C1773 1.386 . S
C1772 C1774 1.391 . S
C1773 C1772 1.386 . S
C1773 C1777 1.393 . S
C1774 H1763 0.950 . S
C1774 C1772 1.391 . S
C1774 C1775 1.400 . S
C1775 C1769 1.491 . S
C1775 C1774 1.400 . S
C1775 C1776 1.398 . S
C1776 H1764 0.950 . S
C1776 C1775 1.398 . S
C1776 C1777 1.391 . S
C1777 H1765 0.950 . S
C1777 C1773 1.393 . S
C1777 C1776 1.391 . S
H1778 C1786 0.950 . S
H1779 C1791 0.950 . S
H1780 C1788 0.950 . S
H1781 C1790 0.950 . S
H1782 C1792 0.950 . S
H1783 C1794 0.950 . S
H1784 C1796 0.950 . S
H1785 C1797 0.950 . S
C1786 H1778 0.950 . S
C1786 C1787 1.386 . S
C1786 C1788 1.391 . S
C1787 C1786 1.386 . S
C1787 C1791 1.393 . S
C1788 H1780 0.950 . S
C1788 C1786 1.391 . S
C1788 C1789 1.400 . S
C1789 C1788 1.400 . S
C1789 C1790 1.398 . S
C1789 C1795 1.491 . S
C1790 H1781 0.950 . S
C1790 C1789 1.398 . S
C1790 C1791 1.391 . S
C1791 H1779 0.950 . S
C1791 C1787 1.393 . S
C1791 C1790 1.391 . S
C1792 H1782 0.950 . S
C1792 C1793 1.386 . S
C1792 C1794 1.391 . S
C1793 C1792 1.386 . S
C1793 C1797 1.393 . S
C1794 H1783 0.950 . S
C1794 C1792 1.391 . S
C1794 C1795 1.400 . S
C1795 C1789 1.491 . S
C1795 C1794 1.400 . S
C1795 C1796 1.398 . S
C1796 H1784 0.950 . S
C1796 C1795 1.398 . S
C1796 C1797 1.391 . S
C1797 H1785 0.950 . S
C1797 C1793 1.393 . S
C1797 C1796 1.391 . S
H1798 C1806 0.950 . S
H1799 C1811 0.950 . S
H1800 C1808 0.950 . S
H1801 C1810 0.950 . S
H1802 C1812 0.950 . S
H1803 C1814 0.950 . S
H1804 C1816 0.950 . S
H1805 C1817 0.950 . S
C1806 H1798 0.950 . S
C1806 C1807 1.386 . S
C1806 C1808 1.391 . S
C1807 C1806 1.386 . S
C1807 C1811 1.393 . S
C1808 H1800 0.950 . S
C1808 C1806 1.391 . S
C1808 C1809 1.400 . S
C1809 C1808 1.400 . S
C1809 C1810 1.398 . S
C1809 C1815 1.491 . S
C1810 H1801 0.950 . S
C1810 C1809 1.398 . S
C1810 C1811 1.391 . S
C1811 H1799 0.950 . S
C1811 C1807 1.393 . S
C1811 C1810 1.391 . S
C1812 H1802 0.950 . S
C1812 C1813 1.386 . S
C1812 C1814 1.391 . S
C1813 C1812 1.386 . S
C1813 C1817 1.393 . S
C1814 H1803 0.950 . S
C1814 C1812 1.391 . S
C1814 C1815 1.400 . S
C1815 C1809 1.491 . S
C1815 C1814 1.400 . S
C1815 C1816 1.398 . S
C1816 H1804 0.950 . S
C1816 C1815 1.398 . S
C1816 C1817 1.391 . S
C1817 H1805 0.950 . S
C1817 C1813 1.393 . S
C1817 C1816 1.391 . S
H1818 C1826 0.950 . S
H1819 C1831 0.950 . S
H1820 C1828 0.950 . S
H1821 C1830 0.950 . S
H1822 C1832 0.950 . S
H1823 C1834 0.950 . S
H1824 C1836 0.950 . S
H1825 C1837 0.950 . S
C1826 H1818 0.950 . S
C1826 C1827 1.386 . S
C1826 C1828 1.391 . S
C1827 C1826 1.386 . S
C1827 C1831 1.393 . S
C1828 H1820 0.950 . S
C1828 C1826 1.391 . S
C1828 C1829 1.400 . S
C1829 C1828 1.400 . S
C1829 C1830 1.398 . S
C1829 C1835 1.491 . S
C1830 H1821 0.950 . S
C1830 C1829 1.398 . S
C1830 C1831 1.391 . S
C1831 H1819 0.950 . S
C1831 C1827 1.393 . S
C1831 C1830 1.391 . S
C1832 H1822 0.950 . S
C1832 C1833 1.386 . S
C1832 C1834 1.391 . S
C1833 C1832 1.386 . S
C1833 C1837 1.393 . S
C1834 H1823 0.950 . S
C1834 C1832 1.391 . S
C1834 C1835 1.400 . S
C1835 C1829 1.491 . S
C1835 C1834 1.400 . S
C1835 C1836 1.398 . S
C1836 H1824 0.950 . S
C1836 C1835 1.398 . S
C1836 C1837 1.391 . S
C1837 H1825 0.950 . S
C1837 C1833 1.393 . S
C1837 C1836 1.391 . S
H1838 C1846 0.950 . S
H1839 C1851 0.950 . S
H1840 C1848 0.950 . S
H1841 C1850 0.950 . S
H1842 C1852 0.950 . S
H1843 C1854 0.950 . S
H1844 C1856 0.950 . S
H1845 C1857 0.950 . S
C1846 H1838 0.950 . S
C1846 C1847 1.386 . S
C1846 C1848 1.391 . S
C1847 C1846 1.386 . S
C1847 C1851 1.393 . S
C1848 H1840 0.950 . S
C1848 C1846 1.391 . S
C1848 C1849 1.400 . S
C1849 C1848 1.400 . S
C1849 C1850 1.398 . S
C1849 C1855 1.491 . S
C1850 H1841 0.950 . S
C1850 C1849 1.398 . S
C1850 C1851 1.391 . S
C1851 H1839 0.950 . S
C1851 C1847 1.393 . S
C1851 C1850 1.391 . S
C1852 H1842 0.950 . S
C1852 C1853 1.386 . S
C1852 C1854 1.391 . S
C1853 C1852 1.386 . S
C1853 C1857 1.393 . S
C1854 H1843 0.950 . S
C1854 C1852 1.391 . S
C1854 C1855 1.400 . S
C1855 C1849 1.491 . S
C1855 C1854 1.400 . S
C1855 C1856 1.398 . S
C1856 H1844 0.950 . S
C1856 C1855 1.398 . S
C1856 C1857 1.391 . S
C1857 H1845 0.950 . S
C1857 C1853 1.393 . S
C1857 C1856 1.391 . S
H1858 C1866 0.950 . S
H1859 C1871 0.950 . S
H1860 C1868 0.950 . S
H1861 C1870 0.950 . S
H1862 C1872 0.950 . S
H1863 C1874 0.950 . S
H1864 C1876 0.950 . S
H1865 C1877 0.950 . S
C1866 H1858 0.950 . S
C1866 C1867 1.386 . S
C1866 C1868 1.391 . S
C1867 C1866 1.386 . S
C1867 C1871 1.393 . S
C1868 H1860 0.950 . S
C1868 C1866 1.391 . S
C1868 C1869 1.400 . S
C1869 C1868 1.400 . S
C1869 C1870 1.398 . S
C1869 C1875 1.491 . S
C1870 H1861 0.950 . S
C1870 C1869 1.398 . S
C1870 C1871 1.391 . S
C1871 H1859 0.950 . S
C1871 C1867 1.393 . S
C1871 C1870 1.391 . S
C1872 H1862 0.950 . S
C1872 C1873 1.386 . S
C1872 C1874 1.391 . S
C1873 C1872 1.386 . S
C1873 C1877 1.393 . S
C1874 H1863 0.950 . S
C1874 C1872 1.391 . S
C1874 C1875 1.400 . S
C1875 C1869 1.491 . S
C1875 C1874 1.400 . S
C1875 C1876 1.398 . S
C1876 H1864 0.950 . S
C1876 C1875 1.398 . S
C1876 C1877 1.391 . S
C1877 H1865 0.950 . S
C1877 C1873 1.393 . S
C1877 C1876 1.391 . S
H1878 C1886 0.950 . S
H1879 C1891 0.950 . S
H1880 C1888 0.950 . S
H1881 C1890 0.950 . S
H1882 C1892 0.950 . S
H1883 C1894 0.950 . S
H1884 C1896 0.950 . S
H1885 C1897 0.950 . S
C1886 H1878 0.950 . S
C1886 C1887 1.386 . S
C1886 C1888 1.391 . S
C1887 C1886 1.386 . S
C1887 C1891 1.393 . S
C1888 H1880 0.950 . S
C1888 C1886 1.391 . S
C1888 C1889 1.400 . S
C1889 C1888 1.400 . S
C1889 C1890 1.398 . S
C1889 C1895 1.491 . S
C1890 H1881 0.950 . S
C1890 C1889 1.398 . S
C1890 C1891 1.391 . S
C1891 H1879 0.950 . S
C1891 C1887 1.393 . S
C1891 C1890 1.391 . S
C1892 H1882 0.950 . S
C1892 C1893 1.386 . S
C1892 C1894 1.391 . S
C1893 C1892 1.386 . S
C1893 C1897 1.393 . S
C1894 H1883 0.950 . S
C1894 C1892 1.391 . S
C1894 C1895 1.400 . S
C1895 C1889 1.491 . S
C1895 C1894 1.400 . S
C1895 C1896 1.398 . S
C1896 H1884 0.950 . S
C1896 C1895 1.398 . S
C1896 C1897 1.391 . S
C1897 H1885 0.950 . S
C1897 C1893 1.393 . S
C1897 C1896 1.391 . S
H1898 C1906 0.950 . S
H1899 C1911 0.950 1_554 S
H1900 C1908 0.950 . S
H1901 C1910 0.950 . S
H1902 C1912 0.950 . S
H1903 C1914 0.950 . S
H1904 C1916 0.950 . S
H1905 C1917 0.950 . S
C1906 H1898 0.950 . S
C1906 C1907 1.386 . S
C1906 C1908 1.391 . S
C1907 C1906 1.386 . S
C1907 C1911 1.393 . S
C1908 H1900 0.950 . S
C1908 C1906 1.391 . S
C1908 C1909 1.400 . S
C1909 C1908 1.400 . S
C1909 C1910 1.398 . S
C1909 C1915 1.491 . S
C1910 H1901 0.950 . S
C1910 C1909 1.398 . S
C1910 C1911 1.391 . S
C1911 H1899 0.950 1_556 S
C1911 C1907 1.393 . S
C1911 C1910 1.391 . S
C1912 H1902 0.950 . S
C1912 C1913 1.386 . S
C1912 C1914 1.391 . S
C1913 C1912 1.386 . S
C1913 C1917 1.393 . S
C1914 H1903 0.950 . S
C1914 C1912 1.391 . S
C1914 C1915 1.400 . S
C1915 C1909 1.491 . S
C1915 C1914 1.400 . S
C1915 C1916 1.398 . S
C1916 H1904 0.950 . S
C1916 C1915 1.398 . S
C1916 C1917 1.391 . S
C1917 H1905 0.950 . S
C1917 C1913 1.393 . S
C1917 C1916 1.391 . S
H1918 C1926 0.950 . S
H1919 C1931 0.950 1_554 S
H1920 C1928 0.950 . S
H1921 C1930 0.950 . S
H1922 C1932 0.950 . S
H1923 C1934 0.950 . S
H1924 C1936 0.950 . S
H1925 C1937 0.950 . S
C1926 H1918 0.950 . S
C1926 C1927 1.386 . S
C1926 C1928 1.391 . S
C1927 C1926 1.386 . S
C1927 C1931 1.393 . S
C1928 H1920 0.950 . S
C1928 C1926 1.391 . S
C1928 C1929 1.400 . S
C1929 C1928 1.400 . S
C1929 C1930 1.398 . S
C1929 C1935 1.491 . S
C1930 H1921 0.950 . S
C1930 C1929 1.398 . S
C1930 C1931 1.391 . S
C1931 H1919 0.950 1_556 S
C1931 C1927 1.393 . S
C1931 C1930 1.391 . S
C1932 H1922 0.950 . S
C1932 C1933 1.386 . S
C1932 C1934 1.391 . S
C1933 C1932 1.386 . S
C1933 C1937 1.393 . S
C1934 H1923 0.950 . S
C1934 C1932 1.391 . S
C1934 C1935 1.400 . S
C1935 C1929 1.491 . S
C1935 C1934 1.400 . S
C1935 C1936 1.398 . S
C1936 H1924 0.950 . S
C1936 C1935 1.398 . S
C1936 C1937 1.391 . S
C1937 H1925 0.950 . S
C1937 C1933 1.393 . S
C1937 C1936 1.391 . S
H1938 C1946 0.950 . S
H1939 C1951 0.950 . S
H1940 C1948 0.950 . S
H1941 C1950 0.950 . S
H1942 C1952 0.950 . S
H1943 C1954 0.950 . S
H1944 C1956 0.950 . S
H1945 C1957 0.950 . S
C1946 H1938 0.950 . S
C1946 C1947 1.386 . S
C1946 C1948 1.391 . S
C1947 C1946 1.386 . S
C1947 C1951 1.393 . S
C1948 H1940 0.950 . S
C1948 C1946 1.391 . S
C1948 C1949 1.400 . S
C1949 C1948 1.400 . S
C1949 C1950 1.398 . S
C1949 C1955 1.491 . S
C1950 H1941 0.950 . S
C1950 C1949 1.398 . S
C1950 C1951 1.391 . S
C1951 H1939 0.950 . S
C1951 C1947 1.393 . S
C1951 C1950 1.391 . S
C1952 H1942 0.950 . S
C1952 C1953 1.386 . S
C1952 C1954 1.391 . S
C1953 C1952 1.386 . S
C1953 C1957 1.393 . S
C1954 H1943 0.950 . S
C1954 C1952 1.391 . S
C1954 C1955 1.400 . S
C1955 C1949 1.491 . S
C1955 C1954 1.400 . S
C1955 C1956 1.398 . S
C1956 H1944 0.950 . S
C1956 C1955 1.398 . S
C1956 C1957 1.391 . S
C1957 H1945 0.950 . S
C1957 C1953 1.393 . S
C1957 C1956 1.391 . S
H1958 C1966 0.950 . S
H1959 C1971 0.950 1_554 S
H1960 C1968 0.950 . S
H1961 C1970 0.950 . S
H1962 C1972 0.950 . S
H1963 C1974 0.950 . S
H1964 C1976 0.950 . S
H1965 C1977 0.950 . S
C1966 H1958 0.950 . S
C1966 C1967 1.386 . S
C1966 C1968 1.391 . S
C1967 C1966 1.386 . S
C1967 C1971 1.393 . S
C1968 H1960 0.950 . S
C1968 C1966 1.391 . S
C1968 C1969 1.400 . S
C1969 C1968 1.400 . S
C1969 C1970 1.398 . S
C1969 C1975 1.491 . S
C1970 H1961 0.950 . S
C1970 C1969 1.398 . S
C1970 C1971 1.391 . S
C1971 H1959 0.950 1_556 S
C1971 C1967 1.393 . S
C1971 C1970 1.391 . S
C1972 H1962 0.950 . S
C1972 C1973 1.386 . S
C1972 C1974 1.391 . S
C1973 C1972 1.386 . S
C1973 C1977 1.393 . S
C1974 H1963 0.950 . S
C1974 C1972 1.391 . S
C1974 C1975 1.400 . S
C1975 C1969 1.491 . S
C1975 C1974 1.400 . S
C1975 C1976 1.398 . S
C1976 H1964 0.950 . S
C1976 C1975 1.398 . S
C1976 C1977 1.391 . S
C1977 H1965 0.950 . S
C1977 C1973 1.393 . S
C1977 C1976 1.391 . S
H1978 C1986 0.950 . S
H1979 C1991 0.950 1_554 S
H1980 C1988 0.950 . S
H1981 C1990 0.950 . S
H1982 C1992 0.950 . S
H1983 C1994 0.950 . S
H1984 C1996 0.950 . S
H1985 C1997 0.950 . S
C1986 H1978 0.950 . S
C1986 C1987 1.386 . S
C1986 C1988 1.391 . S
C1987 C1986 1.386 . S
C1987 C1991 1.393 . S
C1988 H1980 0.950 . S
C1988 C1986 1.391 . S
C1988 C1989 1.400 . S
C1989 C1988 1.400 . S
C1989 C1990 1.398 . S
C1989 C1995 1.491 . S
C1990 H1981 0.950 . S
C1990 C1989 1.398 . S
C1990 C1991 1.391 . S
C1991 H1979 0.950 1_556 S
C1991 C1987 1.393 . S
C1991 C1990 1.391 . S
C1992 H1982 0.950 . S
C1992 C1993 1.386 . S
C1992 C1994 1.391 . S
C1993 C1992 1.386 . S
C1993 C1997 1.393 . S
C1994 H1983 0.950 . S
C1994 C1992 1.391 . S
C1994 C1995 1.400 . S
C1995 C1989 1.491 . S
C1995 C1994 1.400 . S
C1995 C1996 1.398 . S
C1996 H1984 0.950 . S
C1996 C1995 1.398 . S
C1996 C1997 1.391 . S
C1997 H1985 0.950 . S
C1997 C1993 1.393 . S
C1997 C1996 1.391 . S
H1998 C2006 0.950 . S
H1999 C2011 0.950 . S
H2000 C2008 0.950 . S
H2001 C2010 0.950 . S
H2002 C2012 0.950 . S
H2003 C2014 0.950 . S
H2004 C2016 0.950 . S
H2005 C2017 0.950 . S
C2006 H1998 0.950 . S
C2006 C2007 1.386 . S
C2006 C2008 1.391 . S
C2007 C2006 1.386 . S
C2007 C2011 1.393 . S
C2008 H2000 0.950 . S
C2008 C2006 1.391 . S
C2008 C2009 1.400 . S
C2009 C2008 1.400 . S
C2009 C2010 1.398 . S
C2009 C2015 1.491 . S
C2010 H2001 0.950 . S
C2010 C2009 1.398 . S
C2010 C2011 1.391 . S
C2011 H1999 0.950 . S
C2011 C2007 1.393 . S
C2011 C2010 1.391 . S
C2012 H2002 0.950 . S
C2012 C2013 1.386 . S
C2012 C2014 1.391 . S
C2013 C2012 1.386 . S
C2013 C2017 1.393 . S
C2014 H2003 0.950 . S
C2014 C2012 1.391 . S
C2014 C2015 1.400 . S
C2015 C2009 1.491 . S
C2015 C2014 1.400 . S
C2015 C2016 1.398 . S
C2016 H2004 0.950 . S
C2016 C2015 1.398 . S
C2016 C2017 1.391 . S
C2017 H2005 0.950 . S
C2017 C2013 1.393 . S
C2017 C2016 1.391 . S
H2018 C2026 0.950 . S
H2019 C2031 0.950 . S
H2020 C2028 0.950 . S
H2021 C2030 0.950 . S
H2022 C2032 0.950 . S
H2023 C2034 0.950 . S
H2024 C2036 0.950 . S
H2025 C2037 0.950 . S
C2026 H2018 0.950 . S
C2026 C2027 1.386 . S
C2026 C2028 1.391 . S
C2027 C2026 1.386 . S
C2027 C2031 1.393 . S
C2028 H2020 0.950 . S
C2028 C2026 1.391 . S
C2028 C2029 1.400 . S
C2029 C2028 1.400 . S
C2029 C2030 1.398 . S
C2029 C2035 1.491 . S
C2030 H2021 0.950 . S
C2030 C2029 1.398 . S
C2030 C2031 1.391 . S
C2031 H2019 0.950 . S
C2031 C2027 1.393 . S
C2031 C2030 1.391 . S
C2032 H2022 0.950 . S
C2032 C2033 1.386 . S
C2032 C2034 1.391 . S
C2033 C2032 1.386 . S
C2033 C2037 1.393 . S
C2034 H2023 0.950 . S
C2034 C2032 1.391 . S
C2034 C2035 1.400 . S
C2035 C2029 1.491 . S
C2035 C2034 1.400 . S
C2035 C2036 1.398 . S
C2036 H2024 0.950 . S
C2036 C2035 1.398 . S
C2036 C2037 1.391 . S
C2037 H2025 0.950 . S
C2037 C2033 1.393 . S
C2037 C2036 1.391 . S
H2038 C2046 0.950 . S
H2039 C2051 0.950 . S
H2040 C2048 0.950 . S
H2041 C2050 0.950 . S
H2042 C2052 0.950 . S
H2043 C2054 0.950 . S
H2044 C2056 0.950 . S
H2045 C2057 0.950 . S
C2046 H2038 0.950 . S
C2046 C2047 1.386 . S
C2046 C2048 1.391 . S
C2047 C2046 1.386 . S
C2047 C2051 1.393 . S
C2048 H2040 0.950 . S
C2048 C2046 1.391 . S
C2048 C2049 1.400 . S
C2049 C2048 1.400 . S
C2049 C2050 1.398 . S
C2049 C2055 1.491 . S
C2050 H2041 0.950 . S
C2050 C2049 1.398 . S
C2050 C2051 1.391 . S
C2051 H2039 0.950 . S
C2051 C2047 1.393 . S
C2051 C2050 1.391 . S
C2052 H2042 0.950 . S
C2052 C2053 1.386 . S
C2052 C2054 1.391 . S
C2053 C2052 1.386 . S
C2053 C2057 1.393 . S
C2054 H2043 0.950 . S
C2054 C2052 1.391 . S
C2054 C2055 1.400 . S
C2055 C2049 1.491 . S
C2055 C2054 1.400 . S
C2055 C2056 1.398 . S
C2056 H2044 0.950 . S
C2056 C2055 1.398 . S
C2056 C2057 1.391 . S
C2057 H2045 0.950 . S
C2057 C2053 1.393 . S
C2057 C2056 1.391 . S
H2058 C2066 0.950 . S
H2059 C2071 0.950 . S
H2060 C2068 0.950 . S
H2061 C2070 0.950 . S
H2062 C2072 0.950 . S
H2063 C2074 0.950 . S
H2064 C2076 0.950 . S
H2065 C2077 0.950 . S
C2066 H2058 0.950 . S
C2066 C2067 1.386 . S
C2066 C2068 1.391 . S
C2067 C2066 1.386 . S
C2067 C2071 1.393 . S
C2068 H2060 0.950 . S
C2068 C2066 1.391 . S
C2068 C2069 1.400 . S
C2069 C2068 1.400 . S
C2069 C2070 1.398 . S
C2069 C2075 1.491 . S
C2070 H2061 0.950 . S
C2070 C2069 1.398 . S
C2070 C2071 1.391 . S
C2071 H2059 0.950 . S
C2071 C2067 1.393 . S
C2071 C2070 1.391 . S
C2072 H2062 0.950 . S
C2072 C2073 1.386 . S
C2072 C2074 1.391 . S
C2073 C2072 1.386 . S
C2073 C2077 1.393 . S
C2074 H2063 0.950 . S
C2074 C2072 1.391 . S
C2074 C2075 1.400 . S
C2075 C2069 1.491 . S
C2075 C2074 1.400 . S
C2075 C2076 1.398 . S
C2076 H2064 0.950 . S
C2076 C2075 1.398 . S
C2076 C2077 1.391 . S
C2077 H2065 0.950 . S
C2077 C2073 1.393 . S
C2077 C2076 1.391 . S
H2078 C2086 0.950 . S
H2079 C2091 0.950 . S
H2080 C2088 0.950 . S
H2081 C2090 0.950 . S
H2082 C2092 0.950 . S
H2083 C2094 0.950 . S
H2084 C2096 0.950 . S
H2085 C2097 0.950 . S
C2086 H2078 0.950 . S
C2086 C2087 1.386 . S
C2086 C2088 1.391 . S
C2087 C2086 1.386 . S
C2087 C2091 1.393 . S
C2088 H2080 0.950 . S
C2088 C2086 1.391 . S
C2088 C2089 1.400 . S
C2089 C2088 1.400 . S
C2089 C2090 1.398 . S
C2089 C2095 1.491 . S
C2090 H2081 0.950 . S
C2090 C2089 1.398 . S
C2090 C2091 1.391 . S
C2091 H2079 0.950 . S
C2091 C2087 1.393 . S
C2091 C2090 1.391 . S
C2092 H2082 0.950 . S
C2092 C2093 1.386 . S
C2092 C2094 1.391 . S
C2093 C2092 1.386 . S
C2093 C2097 1.393 . S
C2094 H2083 0.950 . S
C2094 C2092 1.391 . S
C2094 C2095 1.400 . S
C2095 C2089 1.491 . S
C2095 C2094 1.400 . S
C2095 C2096 1.398 . S
C2096 H2084 0.950 . S
C2096 C2095 1.398 . S
C2096 C2097 1.391 . S
C2097 H2085 0.950 . S
C2097 C2093 1.393 . S
C2097 C2096 1.391 . S
H2098 C2106 0.950 . S
H2099 C2111 0.950 . S
H2100 C2108 0.950 . S
H2101 C2110 0.950 . S
H2102 C2112 0.950 . S
H2103 C2114 0.950 . S
H2104 C2116 0.950 . S
H2105 C2117 0.950 . S
C2106 H2098 0.950 . S
C2106 C2107 1.386 . S
C2106 C2108 1.391 . S
C2107 C2106 1.386 . S
C2107 C2111 1.393 . S
C2108 H2100 0.950 . S
C2108 C2106 1.391 . S
C2108 C2109 1.400 . S
C2109 C2108 1.400 . S
C2109 C2110 1.398 . S
C2109 C2115 1.491 . S
C2110 H2101 0.950 . S
C2110 C2109 1.398 . S
C2110 C2111 1.391 . S
C2111 H2099 0.950 . S
C2111 C2107 1.393 . S
C2111 C2110 1.391 . S
C2112 H2102 0.950 . S
C2112 C2113 1.386 . S
C2112 C2114 1.391 . S
C2113 C2112 1.386 . S
C2113 C2117 1.393 . S
C2114 H2103 0.950 . S
C2114 C2112 1.391 . S
C2114 C2115 1.400 . S
C2115 C2109 1.491 . S
C2115 C2114 1.400 . S
C2115 C2116 1.398 . S
C2116 H2104 0.950 . S
C2116 C2115 1.398 . S
C2116 C2117 1.391 . S
C2117 H2105 0.950 . S
C2117 C2113 1.393 . S
C2117 C2116 1.391 . S
H2118 C2126 0.950 . S
H2119 C2131 0.950 . S
H2120 C2128 0.950 . S
H2121 C2130 0.950 . S
H2122 C2132 0.950 . S
H2123 C2134 0.950 . S
H2124 C2136 0.950 . S
H2125 C2137 0.950 . S
C2126 H2118 0.950 . S
C2126 C2127 1.386 . S
C2126 C2128 1.391 . S
C2127 C2126 1.386 . S
C2127 C2131 1.393 . S
C2128 H2120 0.950 . S
C2128 C2126 1.391 . S
C2128 C2129 1.400 . S
C2129 C2128 1.400 . S
C2129 C2130 1.398 . S
C2129 C2135 1.491 . S
C2130 H2121 0.950 . S
C2130 C2129 1.398 . S
C2130 C2131 1.391 . S
C2131 H2119 0.950 . S
C2131 C2127 1.393 . S
C2131 C2130 1.391 . S
C2132 H2122 0.950 . S
C2132 C2133 1.386 . S
C2132 C2134 1.391 . S
C2133 C2132 1.386 . S
C2133 C2137 1.393 . S
C2134 H2123 0.950 . S
C2134 C2132 1.391 . S
C2134 C2135 1.400 . S
C2135 C2129 1.491 . S
C2135 C2134 1.400 . S
C2135 C2136 1.398 . S
C2136 H2124 0.950 . S
C2136 C2135 1.398 . S
C2136 C2137 1.391 . S
C2137 H2125 0.950 . S
C2137 C2133 1.393 . S
C2137 C2136 1.391 . S
H2138 C2146 0.950 . S
H2139 C2151 0.950 . S
H2140 C2148 0.950 . S
H2141 C2150 0.950 . S
H2142 C2152 0.950 . S
H2143 C2154 0.950 . S
H2144 C2156 0.950 . S
H2145 C2157 0.950 . S
C2146 H2138 0.950 . S
C2146 C2147 1.386 . S
C2146 C2148 1.391 . S
C2147 C2146 1.386 . S
C2147 C2151 1.393 . S
C2148 H2140 0.950 . S
C2148 C2146 1.391 . S
C2148 C2149 1.400 . S
C2149 C2148 1.400 . S
C2149 C2150 1.398 . S
C2149 C2155 1.491 . S
C2150 H2141 0.950 . S
C2150 C2149 1.398 . S
C2150 C2151 1.391 . S
C2151 H2139 0.950 . S
C2151 C2147 1.393 . S
C2151 C2150 1.391 . S
C2152 H2142 0.950 . S
C2152 C2153 1.386 . S
C2152 C2154 1.391 . S
C2153 C2152 1.386 . S
C2153 C2157 1.393 . S
C2154 H2143 0.950 . S
C2154 C2152 1.391 . S
C2154 C2155 1.400 . S
C2155 C2149 1.491 . S
C2155 C2154 1.400 . S
C2155 C2156 1.398 . S
C2156 H2144 0.950 . S
C2156 C2155 1.398 . S
C2156 C2157 1.391 . S
C2157 H2145 0.950 . S
C2157 C2153 1.393 . S
C2157 C2156 1.391 . S
H2158 C2166 0.901 1_545 S
H2159 C2171 0.950 . S
H2160 C2168 0.974 . S
H2161 C2170 0.950 . S
H2162 C2172 0.950 . S
H2163 C2174 0.950 . S
H2164 C2176 0.950 . S
H2165 C2177 0.950 . S
C2166 H2158 0.901 1_565 S
C2166 C2167 1.413 . S
C2166 C2168 1.437 1_565 S
C2167 C2166 1.413 . S
C2167 C2171 1.393 . S
C2168 H2160 0.974 . S
C2168 C2166 1.437 1_545 S
C2168 C2169 1.358 1_545 S
C2169 C2168 1.358 1_565 S
C2169 C2170 1.398 . S
C2169 C2175 1.491 . S
C2170 H2161 0.950 . S
C2170 C2169 1.398 . S
C2170 C2171 1.391 . S
C2171 H2159 0.950 . S
C2171 C2167 1.393 . S
C2171 C2170 1.391 . S
C2172 H2162 0.950 . S
C2172 C2173 1.386 . S
C2172 C2174 1.391 . S
C2173 C2172 1.386 . S
C2173 C2177 1.393 1_565 S
C2174 H2163 0.950 . S
C2174 C2172 1.391 . S
C2174 C2175 1.400 . S
C2175 C2169 1.491 . S
C2175 C2174 1.400 . S
C2175 C2176 1.398 1_565 S
C2176 H2164 0.950 . S
C2176 C2175 1.398 1_545 S
C2176 C2177 1.391 . S
C2177 H2165 0.950 . S
C2177 C2173 1.393 1_545 S
C2177 C2176 1.391 . S
H2178 C2186 0.950 . S
H2179 C2191 0.950 . S
H2180 C2188 0.950 . S
H2181 C2190 0.950 . S
H2182 C2192 0.959 . S
H2183 C2194 0.950 . S
H2184 C2196 0.950 . S
H2185 C2197 0.950 . S
C2186 H2178 0.950 . S
C2186 C2187 1.386 . S
C2186 C2188 1.391 . S
C2187 C2186 1.386 . S
C2187 C2191 1.393 . S
C2188 H2180 0.950 . S
C2188 C2186 1.391 . S
C2188 C2189 1.400 . S
C2189 C2188 1.400 . S
C2189 C2190 1.398 . S
C2189 C2195 1.491 . S
C2190 H2181 0.950 . S
C2190 C2189 1.398 . S
C2190 C2191 1.391 . S
C2191 H2179 0.950 . S
C2191 C2187 1.393 . S
C2191 C2190 1.391 . S
C2192 H2182 0.959 . S
C2192 C2193 1.386 . S
C2192 C2194 1.391 . S
C2193 C2192 1.386 . S
C2193 C2197 1.393 . S
C2194 H2183 0.950 . S
C2194 C2192 1.391 . S
C2194 C2195 1.400 . S
C2195 C2189 1.491 . S
C2195 C2194 1.400 . S
C2195 C2196 1.398 . S
C2196 H2184 0.950 . S
C2196 C2195 1.398 . S
C2196 C2197 1.391 . S
C2197 H2185 0.950 . S
C2197 C2193 1.393 . S
C2197 C2196 1.391 . S
H2198 C2206 0.950 . S
H2199 C2211 0.950 . S
H2200 C2208 0.950 . S
H2201 C2210 0.950 . S
H2202 C2212 0.950 . S
H2203 C2214 0.950 . S
H2204 C2216 0.950 . S
H2205 C2217 0.950 . S
C2206 H2198 0.950 . S
C2206 C2207 1.386 1_655 S
C2206 C2208 1.391 . S
C2207 C2206 1.386 1_455 S
C2207 C2211 1.393 . S
C2208 H2200 0.950 . S
C2208 C2206 1.391 . S
C2208 C2209 1.400 1_655 S
C2209 C2208 1.400 1_455 S
C2209 C2210 1.398 . S
C2209 C2215 1.491 . S
C2210 H2201 0.950 . S
C2210 C2209 1.398 . S
C2210 C2211 1.391 . S
C2211 H2199 0.950 . S
C2211 C2207 1.393 . S
C2211 C2210 1.391 . S
C2212 H2202 0.950 . S
C2212 C2213 1.386 . S
C2212 C2214 1.391 . S
C2213 C2212 1.386 . S
C2213 C2217 1.393 1_455 S
C2214 H2203 0.950 . S
C2214 C2212 1.391 . S
C2214 C2215 1.400 . S
C2215 C2209 1.491 . S
C2215 C2214 1.400 . S
C2215 C2216 1.398 1_455 S
C2216 H2204 0.950 . S
C2216 C2215 1.398 1_655 S
C2216 C2217 1.391 . S
C2217 H2205 0.950 . S
C2217 C2213 1.393 1_655 S
C2217 C2216 1.391 . S
H2218 C2226 0.950 . S
H2219 C2231 0.950 . S
H2220 C2228 0.950 . S
H2221 C2230 0.950 . S
H2222 C2232 0.950 . S
H2223 C2234 0.950 . S
H2224 C2236 0.950 . S
H2225 C2237 0.950 . S
C2226 H2218 0.950 . S
C2226 C2227 1.386 . S
C2226 C2228 1.391 . S
C2227 C2226 1.386 . S
C2227 C2231 1.393 . S
C2228 H2220 0.950 . S
C2228 C2226 1.391 . S
C2228 C2229 1.400 . S
C2229 C2228 1.400 . S
C2229 C2230 1.398 . S
C2229 C2235 1.491 . S
C2230 H2221 0.950 . S
C2230 C2229 1.398 . S
C2230 C2231 1.391 . S
C2231 H2219 0.950 . S
C2231 C2227 1.393 . S
C2231 C2230 1.391 . S
C2232 H2222 0.950 . S
C2232 C2233 1.386 . S
C2232 C2234 1.391 . S
C2233 C2232 1.386 . S
C2233 C2237 1.393 . S
C2234 H2223 0.950 . S
C2234 C2232 1.391 . S
C2234 C2235 1.400 . S
C2235 C2229 1.491 . S
C2235 C2234 1.400 . S
C2235 C2236 1.398 . S
C2236 H2224 0.950 . S
C2236 C2235 1.398 . S
C2236 C2237 1.391 . S
C2237 H2225 0.950 . S
C2237 C2233 1.393 . S
C2237 C2236 1.391 . S
H2238 C2246 0.950 . S
H2239 C2251 0.950 . S
H2240 C2248 0.950 . S
H2241 C2250 0.950 . S
H2242 C2252 0.950 . S
H2243 C2254 0.950 . S
H2244 C2256 0.950 . S
H2245 C2257 0.950 . S
C2246 H2238 0.950 . S
C2246 C2247 1.386 . S
C2246 C2248 1.391 . S
C2247 C2246 1.386 . S
C2247 C2251 1.393 . S
C2248 H2240 0.950 . S
C2248 C2246 1.391 . S
C2248 C2249 1.400 . S
C2249 C2248 1.400 . S
C2249 C2250 1.398 . S
C2249 C2255 1.491 . S
C2250 H2241 0.950 . S
C2250 C2249 1.398 . S
C2250 C2251 1.391 . S
C2251 H2239 0.950 . S
C2251 C2247 1.393 . S
C2251 C2250 1.391 . S
C2252 H2242 0.950 . S
C2252 C2253 1.386 . S
C2252 C2254 1.391 . S
C2253 C2252 1.386 . S
C2253 C2257 1.393 . S
C2254 H2243 0.950 . S
C2254 C2252 1.391 . S
C2254 C2255 1.400 . S
C2255 C2249 1.491 . S
C2255 C2254 1.400 . S
C2255 C2256 1.398 . S
C2256 H2244 0.950 . S
C2256 C2255 1.398 . S
C2256 C2257 1.391 . S
C2257 H2245 0.950 . S
C2257 C2253 1.393 . S
C2257 C2256 1.391 . S
H2258 C2266 0.950 . S
H2259 C2271 0.950 . S
H2260 C2268 0.950 . S
H2261 C2270 0.950 . S
H2262 C2272 0.950 . S
H2263 C2274 0.950 . S
H2264 C2276 0.950 . S
H2265 C2277 0.950 . S
C2266 H2258 0.950 . S
C2266 C2267 1.386 . S
C2266 C2268 1.391 . S
C2267 C2266 1.386 . S
C2267 C2271 1.393 . S
C2268 H2260 0.950 . S
C2268 C2266 1.391 . S
C2268 C2269 1.400 . S
C2269 C2268 1.400 . S
C2269 C2270 1.398 . S
C2269 C2275 1.491 . S
C2270 H2261 0.950 . S
C2270 C2269 1.398 . S
C2270 C2271 1.391 . S
C2271 H2259 0.950 . S
C2271 C2267 1.393 . S
C2271 C2270 1.391 . S
C2272 H2262 0.950 . S
C2272 C2273 1.386 . S
C2272 C2274 1.391 . S
C2273 C2272 1.386 . S
C2273 C2277 1.393 . S
C2274 H2263 0.950 . S
C2274 C2272 1.391 . S
C2274 C2275 1.400 . S
C2275 C2269 1.491 . S
C2275 C2274 1.400 . S
C2275 C2276 1.398 . S
C2276 H2264 0.950 . S
C2276 C2275 1.398 . S
C2276 C2277 1.391 . S
C2277 H2265 0.950 . S
C2277 C2273 1.393 . S
C2277 C2276 1.391 . S
H2278 C2286 0.950 . S
H2279 C2291 0.950 . S
H2280 C2288 0.950 . S
H2281 C2290 0.950 . S
H2282 C2292 0.950 . S
H2283 C2294 0.950 . S
H2284 C2296 0.950 . S
H2285 C2297 0.950 . S
C2286 H2278 0.950 . S
C2286 C2287 1.386 . S
C2286 C2288 1.391 . S
C2287 C2286 1.386 . S
C2287 C2291 1.393 . S
C2288 H2280 0.950 . S
C2288 C2286 1.391 . S
C2288 C2289 1.400 . S
C2289 C2288 1.400 . S
C2289 C2290 1.398 . S
C2289 C2295 1.491 . S
C2290 H2281 0.950 . S
C2290 C2289 1.398 . S
C2290 C2291 1.391 . S
C2291 H2279 0.950 . S
C2291 C2287 1.393 . S
C2291 C2290 1.391 . S
C2292 H2282 0.950 . S
C2292 C2293 1.386 . S
C2292 C2294 1.391 . S
C2293 C2292 1.386 . S
C2293 C2297 1.393 . S
C2294 H2283 0.950 . S
C2294 C2292 1.391 . S
C2294 C2295 1.400 . S
C2295 C2289 1.491 . S
C2295 C2294 1.400 . S
C2295 C2296 1.398 . S
C2296 H2284 0.950 . S
C2296 C2295 1.398 . S
C2296 C2297 1.391 . S
C2297 H2285 0.950 . S
C2297 C2293 1.393 . S
C2297 C2296 1.391 . S
H2298 C2306 0.950 . S
H2299 C2311 0.950 1_565 S
H2300 C2308 0.950 . S
H2301 C2310 1.009 . S
H2302 C2312 0.950 . S
H2303 C2314 0.950 . S
H2304 C2316 0.950 . S
H2305 C2317 0.950 . S
C2306 H2298 0.950 . S
C2306 C2307 1.386 . S
C2306 C2308 1.391 . S
C2307 C2306 1.386 . S
C2307 C2311 1.393 . S
C2308 H2300 0.950 . S
C2308 C2306 1.391 . S
C2308 C2309 1.400 . S
C2309 C2308 1.400 . S
C2309 C2310 1.377 1_545 S
C2309 C2315 1.491 . S
C2310 H2301 1.009 . S
C2310 C2309 1.377 1_565 S
C2310 C2311 1.357 1_565 S
C2311 H2299 0.950 1_545 S
C2311 C2307 1.393 . S
C2311 C2310 1.357 1_545 S
C2312 H2302 0.950 . S
C2312 C2313 1.386 1_565 S
C2312 C2314 1.391 . S
C2313 C2312 1.386 1_545 S
C2313 C2317 1.393 . S
C2314 H2303 0.950 . S
C2314 C2312 1.391 . S
C2314 C2315 1.400 1_565 S
C2315 C2309 1.491 . S
C2315 C2314 1.400 1_545 S
C2315 C2316 1.398 . S
C2316 H2304 0.950 . S
C2316 C2315 1.398 . S
C2316 C2317 1.391 . S
C2317 H2305 0.950 . S
C2317 C2313 1.393 . S
C2317 C2316 1.391 . S
H2318 C2326 0.950 . S
H2319 C2331 0.915 1_455 S
H2320 C2328 0.950 . S
H2321 C2330 0.969 . S
H2322 C2332 0.950 . S
H2323 C2334 0.950 . S
H2324 C2336 0.950 . S
H2325 C2337 0.950 . S
C2326 H2318 0.950 . S
C2326 C2327 1.386 . S
C2326 C2328 1.391 . S
C2327 C2326 1.386 . S
C2327 C2331 1.410 . S
C2328 H2320 0.950 . S
C2328 C2326 1.391 . S
C2328 C2329 1.400 . S
C2329 C2328 1.400 . S
C2329 C2330 1.361 1_655 S
C2329 C2335 1.491 . S
C2330 H2321 0.969 . S
C2330 C2329 1.361 1_455 S
C2330 C2331 1.431 1_455 S
C2331 H2319 0.915 1_655 S
C2331 C2327 1.410 . S
C2331 C2330 1.431 1_655 S
C2332 H2322 0.950 . S
C2332 C2333 1.386 1_455 S
C2332 C2334 1.391 . S
C2333 C2332 1.386 1_655 S
C2333 C2337 1.393 . S
C2334 H2323 0.950 . S
C2334 C2332 1.391 . S
C2334 C2335 1.400 1_455 S
C2335 C2329 1.491 . S
C2335 C2334 1.400 1_655 S
C2335 C2336 1.398 . S
C2336 H2324 0.950 . S
C2336 C2335 1.398 . S
C2336 C2337 1.391 . S
C2337 H2325 0.950 . S
C2337 C2333 1.393 . S
C2337 C2336 1.391 . S
H2338 C2346 0.950 . S
H2339 C2351 0.950 . S
H2340 C2348 0.950 . S
H2341 C2350 0.950 . S
H2342 C2352 0.950 . S
H2343 C2354 0.950 . S
H2344 C2356 0.950 . S
H2345 C2357 0.950 . S
C2346 H2338 0.950 . S
C2346 C2347 1.386 . S
C2346 C2348 1.391 . S
C2347 C2346 1.386 . S
C2347 C2351 1.393 . S
C2348 H2340 0.950 . S
C2348 C2346 1.391 . S
C2348 C2349 1.400 . S
C2349 C2348 1.400 . S
C2349 C2350 1.398 . S
C2349 C2355 1.491 . S
C2350 H2341 0.950 . S
C2350 C2349 1.398 . S
C2350 C2351 1.391 . S
C2351 H2339 0.950 . S
C2351 C2347 1.393 . S
C2351 C2350 1.391 . S
C2352 H2342 0.950 . S
C2352 C2353 1.386 . S
C2352 C2354 1.391 . S
C2353 C2352 1.386 . S
C2353 C2357 1.393 . S
C2354 H2343 0.950 . S
C2354 C2352 1.391 . S
C2354 C2355 1.400 . S
C2355 C2349 1.491 . S
C2355 C2354 1.400 . S
C2355 C2356 1.398 . S
C2356 H2344 0.950 . S
C2356 C2355 1.398 . S
C2356 C2357 1.391 . S
C2357 H2345 0.950 . S
C2357 C2353 1.393 . S
C2357 C2356 1.391 . S
H2358 C2366 0.950 . S
H2359 C2371 0.950 . S
H2360 C2368 0.950 . S
H2361 C2370 0.950 . S
H2362 C2372 0.950 . S
H2363 C2374 0.950 . S
H2364 C2376 0.950 . S
H2365 C2377 0.950 . S
C2366 H2358 0.950 . S
C2366 C2367 1.386 . S
C2366 C2368 1.391 . S
C2367 C2366 1.386 . S
C2367 C2371 1.393 . S
C2368 H2360 0.950 . S
C2368 C2366 1.391 . S
C2368 C2369 1.400 . S
C2369 C2368 1.400 . S
C2369 C2370 1.398 . S
C2369 C2375 1.491 . S
C2370 H2361 0.950 . S
C2370 C2369 1.398 . S
C2370 C2371 1.391 . S
C2371 H2359 0.950 . S
C2371 C2367 1.393 . S
C2371 C2370 1.391 . S
C2372 H2362 0.950 . S
C2372 C2373 1.386 . S
C2372 C2374 1.391 . S
C2373 C2372 1.386 . S
C2373 C2377 1.393 . S
C2374 H2363 0.950 . S
C2374 C2372 1.391 . S
C2374 C2375 1.400 . S
C2375 C2369 1.491 . S
C2375 C2374 1.400 . S
C2375 C2376 1.398 . S
C2376 H2364 0.950 . S
C2376 C2375 1.398 . S
C2376 C2377 1.391 . S
C2377 H2365 0.950 . S
C2377 C2373 1.393 . S
C2377 C2376 1.391 . S
H2378 C2386 0.950 . S
H2379 C2391 0.950 . S
H2380 C2388 0.950 . S
H2381 C2390 0.950 . S
H2382 C2392 0.950 . S
H2383 C2394 0.950 . S
H2384 C2396 0.950 . S
H2385 C2397 0.950 . S
C2386 H2378 0.950 . S
C2386 C2387 1.386 . S
C2386 C2388 1.391 . S
C2387 C2386 1.386 . S
C2387 C2391 1.393 . S
C2388 H2380 0.950 . S
C2388 C2386 1.391 . S
C2388 C2389 1.400 . S
C2389 C2388 1.400 . S
C2389 C2390 1.398 . S
C2389 C2395 1.491 . S
C2390 H2381 0.950 . S
C2390 C2389 1.398 . S
C2390 C2391 1.391 . S
C2391 H2379 0.950 . S
C2391 C2387 1.393 . S
C2391 C2390 1.391 . S
C2392 H2382 0.950 . S
C2392 C2393 1.386 . S
C2392 C2394 1.391 . S
C2393 C2392 1.386 . S
C2393 C2397 1.393 . S
C2394 H2383 0.950 . S
C2394 C2392 1.391 . S
C2394 C2395 1.400 . S
C2395 C2389 1.491 . S
C2395 C2394 1.400 . S
C2395 C2396 1.398 . S
C2396 H2384 0.950 . S
C2396 C2395 1.398 . S
C2396 C2397 1.391 . S
C2397 H2385 0.950 . S
C2397 C2393 1.393 . S
C2397 C2396 1.391 . S
H2398 C2406 0.950 . S
H2399 C2411 0.950 . S
H2400 C2408 0.950 . S
H2401 C2410 0.950 . S
H2402 C2412 0.950 . S
H2403 C2414 0.950 . S
H2404 C2416 0.950 . S
H2405 C2417 0.950 . S
C2406 H2398 0.950 . S
C2406 C2407 1.386 . S
C2406 C2408 1.391 . S
C2407 C2406 1.386 . S
C2407 C2411 1.393 . S
C2408 H2400 0.950 . S
C2408 C2406 1.391 . S
C2408 C2409 1.400 . S
C2409 C2408 1.400 . S
C2409 C2410 1.398 . S
C2409 C2415 1.491 . S
C2410 H2401 0.950 . S
C2410 C2409 1.398 . S
C2410 C2411 1.391 . S
C2411 H2399 0.950 . S
C2411 C2407 1.393 . S
C2411 C2410 1.391 . S
C2412 H2402 0.950 . S
C2412 C2413 1.386 . S
C2412 C2414 1.391 . S
C2413 C2412 1.386 . S
C2413 C2417 1.393 . S
C2414 H2403 0.950 . S
C2414 C2412 1.391 . S
C2414 C2415 1.400 . S
C2415 C2409 1.491 . S
C2415 C2414 1.400 . S
C2415 C2416 1.398 . S
C2416 H2404 0.950 . S
C2416 C2415 1.398 . S
C2416 C2417 1.391 . S
C2417 H2405 0.950 . S
C2417 C2413 1.393 . S
C2417 C2416 1.391 . S
H2418 C2426 0.950 . S
H2419 C2431 0.950 . S
H2420 C2428 0.950 . S
H2421 C2430 0.950 . S
H2422 C2432 0.950 . S
H2423 C2434 0.950 . S
H2424 C2436 0.950 . S
H2425 C2437 0.950 . S
C2426 H2418 0.950 . S
C2426 C2427 1.386 . S
C2426 C2428 1.391 . S
C2427 C2426 1.386 . S
C2427 C2431 1.393 . S
C2428 H2420 0.950 . S
C2428 C2426 1.391 . S
C2428 C2429 1.400 . S
C2429 C2428 1.400 . S
C2429 C2430 1.398 . S
C2429 C2435 1.491 . S
C2430 H2421 0.950 . S
C2430 C2429 1.398 . S
C2430 C2431 1.391 . S
C2431 H2419 0.950 . S
C2431 C2427 1.393 . S
C2431 C2430 1.391 . S
C2432 H2422 0.950 . S
C2432 C2433 1.386 . S
C2432 C2434 1.391 . S
C2433 C2432 1.386 . S
C2433 C2437 1.393 . S
C2434 H2423 0.950 . S
C2434 C2432 1.391 . S
C2434 C2435 1.400 . S
C2435 C2429 1.491 . S
C2435 C2434 1.400 . S
C2435 C2436 1.398 . S
C2436 H2424 0.950 . S
C2436 C2435 1.398 . S
C2436 C2437 1.391 . S
C2437 H2425 0.950 . S
C2437 C2433 1.393 . S
C2437 C2436 1.391 . S
H2438 C2446 0.950 . S
H2439 C2451 0.950 . S
H2440 C2448 0.950 . S
H2441 C2450 0.950 . S
H2442 C2452 0.950 . S
H2443 C2454 0.950 . S
H2444 C2456 0.950 . S
H2445 C2457 0.950 . S
C2446 H2438 0.950 . S
C2446 C2447 1.386 . S
C2446 C2448 1.391 . S
C2447 C2446 1.386 . S
C2447 C2451 1.393 . S
C2448 H2440 0.950 . S
C2448 C2446 1.391 . S
C2448 C2449 1.400 . S
C2449 C2448 1.400 . S
C2449 C2450 1.398 . S
C2449 C2455 1.491 . S
C2450 H2441 0.950 . S
C2450 C2449 1.398 . S
C2450 C2451 1.391 . S
C2451 H2439 0.950 . S
C2451 C2447 1.393 . S
C2451 C2450 1.391 . S
C2452 H2442 0.950 . S
C2452 C2453 1.386 . S
C2452 C2454 1.391 . S
C2453 C2452 1.386 . S
C2453 C2457 1.393 . S
C2454 H2443 0.950 . S
C2454 C2452 1.391 . S
C2454 C2455 1.400 . S
C2455 C2449 1.491 . S
C2455 C2454 1.400 . S
C2455 C2456 1.398 . S
C2456 H2444 0.950 . S
C2456 C2455 1.398 . S
C2456 C2457 1.391 . S
C2457 H2445 0.950 . S
C2457 C2453 1.393 . S
C2457 C2456 1.391 . S
H2458 C2466 0.950 . S
H2459 C2471 0.950 . S
H2460 C2468 0.950 . S
H2461 C2470 0.950 . S
H2462 C2472 0.950 . S
H2463 C2474 0.950 . S
H2464 C2476 0.950 . S
H2465 C2477 0.950 . S
C2466 H2458 0.950 . S
C2466 C2467 1.386 . S
C2466 C2468 1.391 . S
C2467 C2466 1.386 . S
C2467 C2471 1.393 . S
C2468 H2460 0.950 . S
C2468 C2466 1.391 . S
C2468 C2469 1.400 . S
C2469 C2468 1.400 . S
C2469 C2470 1.398 . S
C2469 C2475 1.491 . S
C2470 H2461 0.950 . S
C2470 C2469 1.398 . S
C2470 C2471 1.391 . S
C2471 H2459 0.950 . S
C2471 C2467 1.393 . S
C2471 C2470 1.391 . S
C2472 H2462 0.950 . S
C2472 C2473 1.386 . S
C2472 C2474 1.391 . S
C2473 C2472 1.386 . S
C2473 C2477 1.393 . S
C2474 H2463 0.950 . S
C2474 C2472 1.391 . S
C2474 C2475 1.400 . S
C2475 C2469 1.491 . S
C2475 C2474 1.400 . S
C2475 C2476 1.398 . S
C2476 H2464 0.950 . S
C2476 C2475 1.398 . S
C2476 C2477 1.391 . S
C2477 H2465 0.950 . S
C2477 C2473 1.393 . S
C2477 C2476 1.391 . S
H2478 C2486 0.950 . S
H2479 C2491 0.950 . S
H2480 C2488 0.950 . S
H2481 C2490 0.950 . S
H2482 C2492 0.950 . S
H2483 C2494 0.950 . S
H2484 C2496 0.950 . S
H2485 C2497 0.950 . S
C2486 H2478 0.950 . S
C2486 C2487 1.386 . S
C2486 C2488 1.391 . S
C2487 C2486 1.386 . S
C2487 C2491 1.393 . S
C2488 H2480 0.950 . S
C2488 C2486 1.391 . S
C2488 C2489 1.400 . S
C2489 C2488 1.400 . S
C2489 C2490 1.398 . S
C2489 C2495 1.491 . S
C2490 H2481 0.950 . S
C2490 C2489 1.398 . S
C2490 C2491 1.391 . S
C2491 H2479 0.950 . S
C2491 C2487 1.393 . S
C2491 C2490 1.391 . S
C2492 H2482 0.950 . S
C2492 C2493 1.386 . S
C2492 C2494 1.391 . S
C2493 C2492 1.386 . S
C2493 C2497 1.393 . S
C2494 H2483 0.950 . S
C2494 C2492 1.391 . S
C2494 C2495 1.400 . S
C2495 C2489 1.491 . S
C2495 C2494 1.400 . S
C2495 C2496 1.398 . S
C2496 H2484 0.950 . S
C2496 C2495 1.398 . S
C2496 C2497 1.391 . S
C2497 H2485 0.950 . S
C2497 C2493 1.393 . S
C2497 C2496 1.391 . S
H2498 C2506 0.950 . S
H2499 C2511 0.950 . S
H2500 C2508 0.950 . S
H2501 C2510 0.950 . S
H2502 C2512 0.950 . S
H2503 C2514 0.950 . S
H2504 C2516 0.950 . S
H2505 C2517 0.950 . S
C2506 H2498 0.950 . S
C2506 C2507 1.386 . S
C2506 C2508 1.391 . S
C2507 C2506 1.386 . S
C2507 C2511 1.393 . S
C2508 H2500 0.950 . S
C2508 C2506 1.391 . S
C2508 C2509 1.400 . S
C2509 C2508 1.400 . S
C2509 C2510 1.398 . S
C2509 C2515 1.491 . S
C2510 H2501 0.950 . S
C2510 C2509 1.398 . S
C2510 C2511 1.391 . S
C2511 H2499 0.950 . S
C2511 C2507 1.393 . S
C2511 C2510 1.391 . S
C2512 H2502 0.950 . S
C2512 C2513 1.386 . S
C2512 C2514 1.391 . S
C2513 C2512 1.386 . S
C2513 C2517 1.393 . S
C2514 H2503 0.950 . S
C2514 C2512 1.391 . S
C2514 C2515 1.400 . S
C2515 C2509 1.491 . S
C2515 C2514 1.400 . S
C2515 C2516 1.398 . S
C2516 H2504 0.950 . S
C2516 C2515 1.398 . S
C2516 C2517 1.391 . S
C2517 H2505 0.950 . S
C2517 C2513 1.393 . S
C2517 C2516 1.391 . S
H2518 C2526 0.950 . S
H2519 C2531 0.957 1_565 S
H2520 C2528 0.950 . S
H2521 C2530 0.950 . S
H2522 C2532 0.950 . S
H2523 C2534 0.950 . S
H2524 C2536 0.950 . S
H2525 C2537 0.950 . S
C2526 H2518 0.950 . S
C2526 C2527 1.386 . S
C2526 C2528 1.391 . S
C2527 C2526 1.386 . S
C2527 C2531 1.388 . S
C2528 H2520 0.950 . S
C2528 C2526 1.391 . S
C2528 C2529 1.400 . S
C2529 C2528 1.400 . S
C2529 C2530 1.398 1_545 S
C2529 C2535 1.491 . S
C2530 H2521 0.950 . S
C2530 C2529 1.398 1_565 S
C2530 C2531 1.388 1_565 S
C2531 H2519 0.957 1_545 S
C2531 C2527 1.388 . S
C2531 C2530 1.388 1_545 S
C2532 H2522 0.950 . S
C2532 C2533 1.386 1_565 S
C2532 C2534 1.391 . S
C2533 C2532 1.386 1_545 S
C2533 C2537 1.393 . S
C2534 H2523 0.950 . S
C2534 C2532 1.391 . S
C2534 C2535 1.400 1_565 S
C2535 C2529 1.491 . S
C2535 C2534 1.400 1_545 S
C2535 C2536 1.398 . S
C2536 H2524 0.950 . S
C2536 C2535 1.398 . S
C2536 C2537 1.391 . S
C2537 H2525 0.950 . S
C2537 C2533 1.393 . S
C2537 C2536 1.391 . S
C1107 C8 1.410 . S
C1113 C711 1.485 . S
C1127 C18 1.484 . S
C1133 C759 1.529 . S
C1153 C807 1.514 . S
C1147 C31 1.436 . S
C1167 C34 1.419 1_565 S
C1173 C831 1.512 . S
C1187 C5 1.450 . S
C1193 C903 1.507 . S
C1207 C21 1.509 . S
C1213 C951 1.547 . S
C1227 C47 1.432 . S
C1233 C879 1.487 . S
C1253 C927 1.540 . S
C1247 C57 1.480 . S
C1273 C855 1.528 . S
C1267 C70 1.470 . S
C1287 C73 1.418 . S
C1293 C783 1.484 . S
C1313 C687 1.528 . S
C1307 C44 1.462 . S
C1327 C60 1.513 . S
C1333 C735 1.549 . S
C1347 C86 1.581 . S
C1353 C999 1.613 . S
C1367 C96 1.547 . S
C1373 C1047 1.569 . S
C1393 C1071 1.613 . S
C1387 C109 1.615 . S
C1407 C112 1.600 . S
C1413 C255 1.618 . S
C1427 C83 1.589 . S
C1433 C327 1.628 . S
C1447 C99 1.549 . S
C1453 C375 1.600 . S
C1467 C125 1.497 . S
C1473 C303 1.558 . S
C1487 C135 1.554 . S
C1493 C351 1.580 . S
C1513 C279 1.592 . S
C1507 C148 1.608 . S
C1533 C1095 1.658 . S
C1527 C151 1.650 . S
C1553 C975 1.609 . S
C1547 C122 1.583 . S
C1573 C1023 1.630 . S
C1567 C138 1.575 . S
C1587 C164 1.519 . S
C1593 C423 1.553 . S
C1607 C174 1.523 . S
C1613 C471 1.572 . S
C1627 C187 1.589 . S
C1633 C495 1.625 . S
C1647 C190 1.654 . S
C1653 C543 1.669 . S
C1673 C615 1.625 . S
C1667 C161 1.600 . S
C1693 C663 1.618 . S
C1687 C177 1.597 . S
C1713 C591 1.636 . S
C1707 C203 1.573 . S
C1733 C639 1.592 . S
C1727 C213 1.570 . S
C1747 C226 1.587 . S
C1753 C567 1.594 . S
C1773 C519 1.584 . S
C1767 C229 1.584 . S
C1787 C200 1.590 . S
C1793 C399 1.632 . S
C1813 C447 1.609 . S
C1807 C216 1.562 . S
C1833 C264 1.484 . S
C1827 C0 1.409 . S
C1847 C23 1.413 . S
C1853 C318 1.375 . S
C1873 C366 1.454 . S
C1867 C36 1.487 . S
C1893 C414 1.484 . S
C1887 C26 1.445 . S
C1913 C462 1.417 . S
C1907 C10 1.482 . S
C1933 C504 1.433 . S
C1927 C13 1.365 . S
C1947 C39 1.421 . S
C1953 C510 1.482 . S
C1967 C62 1.405 . S
C1973 C408 1.377 . S
C1987 C75 1.456 . S
C1993 C456 1.419 . S
C2007 C65 1.484 . S
C2013 C312 1.515 . S
C2033 C360 1.408 . S
C2027 C49 1.458 . S
C2047 C52 1.399 . S
C2053 C270 1.434 . S
C2073 C552 1.451 . S
C2067 C78 1.397 . S
C2087 C101 1.506 . S
C2093 C606 1.471 . S
C2107 C114 1.521 . S
C2113 C654 1.504 . S
C2133 C702 1.301 . S
C2127 C104 1.272 . S
C2147 C88 1.414 . S
C2153 C750 1.383 . S
C2167 C91 1.200 . S
C2173 C798 1.218 . S
C2187 C117 1.232 . S
C2193 C792 1.246 . S
C2207 C140 1.260 . S
C2213 C696 1.267 . S
C2233 C744 1.392 . S
C2227 C153 1.428 . S
C2247 C143 1.411 . S
C2253 C600 1.431 . S
C2267 C127 1.514 . S
C2273 C648 1.463 . S
C2293 C558 1.499 . S
C2287 C130 1.465 . S
C2313 C840 1.282 . S
C2307 C156 1.245 . S
C2327 C179 1.250 . S
C2333 C894 1.259 . S
C2347 C192 1.424 . S
C2353 C942 1.407 . S
C2373 C990 1.444 . S
C2367 C182 1.412 . S
C2393 C1038 1.481 . S
C2387 C166 1.514 . S
C2407 C169 1.462 . S
C2413 C1080 1.520 . S
C2427 C195 1.398 . S
C2433 C1086 1.452 . S
C2447 C218 1.501 . S
C2453 C984 1.460 . S
C2473 C1032 1.455 . S
C2467 C231 1.493 . S
C2493 C888 1.277 . S
C2487 C221 1.252 . S
C2513 C936 1.392 . S
C2507 C205 1.425 . S
C2527 C208 1.221 . S
C2533 C846 1.243 . S
