# Generated by pormake.
# Topology eea, (3,6)-cn, num edge types: 1
# Building blocks:
#     Node 0, Type 0, BuildingBlock: KAKCAD_clean_linker_0, # of connection points: 3
#     Node 1, Type 0, BuildingBlock: KAKCAD_clean_linker_0, # of connection points: 3
#     Node 2, Type 0, BuildingBlock: KAKCAD_clean_linker_0, # of connection points: 3
#     Node 3, Type 0, BuildingBlock: KAKCAD_clean_linker_0, # of connection points: 3
#     Node 4, Type 0, BuildingBlock: KAKCAD_clean_linker_0, # of connection points: 3
#     Node 5, Type 0, BuildingBlock: KAKCAD_clean_linker_0, # of connection points: 3
#     Node 6, Type 0, BuildingBlock: KAKCAD_clean_linker_0, # of connection points: 3
#     Node 7, Type 0, BuildingBlock: KAKCAD_clean_linker_0, # of connection points: 3
#     Node 8, Type 0, BuildingBlock: KAKCAD_clean_linker_0, # of connection points: 3
#     Node 9, Type 0, BuildingBlock: KAKCAD_clean_linker_0, # of connection points: 3
#     Node 10, Type 0, BuildingBlock: KAKCAD_clean_linker_0, # of connection points: 3
#     Node 11, Type 0, BuildingBlock: KAKCAD_clean_linker_0, # of connection points: 3
#     Node 12, Type 0, BuildingBlock: KAKCAD_clean_linker_0, # of connection points: 3
#     Node 13, Type 0, BuildingBlock: KAKCAD_clean_linker_0, # of connection points: 3
#     Node 14, Type 0, BuildingBlock: KAKCAD_clean_linker_0, # of connection points: 3
#     Node 15, Type 0, BuildingBlock: KAKCAD_clean_linker_0, # of connection points: 3
#     Node 16, Type 0, BuildingBlock: KAKCAD_clean_linker_0, # of connection points: 3
#     Node 17, Type 0, BuildingBlock: KAKCAD_clean_linker_0, # of connection points: 3
#     Node 18, Type 1, BuildingBlock: KUMJIN_clean_sbu_0, # of connection points: 6
#     Node 19, Type 1, BuildingBlock: KUMJIN_clean_sbu_0, # of connection points: 6
#     Node 20, Type 1, BuildingBlock: KUMJIN_clean_sbu_0, # of connection points: 6
#     Node 21, Type 1, BuildingBlock: KUMJIN_clean_sbu_0, # of connection points: 6
#     Node 22, Type 1, BuildingBlock: KUMJIN_clean_sbu_0, # of connection points: 6
#     Node 23, Type 1, BuildingBlock: KUMJIN_clean_sbu_0, # of connection points: 6
#     Node 24, Type 1, BuildingBlock: KUMJIN_clean_sbu_0, # of connection points: 6
#     Node 25, Type 1, BuildingBlock: KUMJIN_clean_sbu_0, # of connection points: 6
#     Node 26, Type 1, BuildingBlock: KUMJIN_clean_sbu_0, # of connection points: 6
#     Edge 27, Type (0, 1), BuildingBlock: OJICUG_clean_linker_0, # of connection points: 2
#     Edge 28, Type (0, 1), BuildingBlock: OJICUG_clean_linker_0, # of connection points: 2
#     Edge 29, Type (0, 1), BuildingBlock: OJICUG_clean_linker_0, # of connection points: 2
#     Edge 30, Type (0, 1), BuildingBlock: OJICUG_clean_linker_0, # of connection points: 2
#     Edge 31, Type (0, 1), BuildingBlock: OJICUG_clean_linker_0, # of connection points: 2
#     Edge 32, Type (0, 1), BuildingBlock: OJICUG_clean_linker_0, # of connection points: 2
#     Edge 33, Type (0, 1), BuildingBlock: OJICUG_clean_linker_0, # of connection points: 2
#     Edge 34, Type (0, 1), BuildingBlock: OJICUG_clean_linker_0, # of connection points: 2
#     Edge 35, Type (0, 1), BuildingBlock: OJICUG_clean_linker_0, # of connection points: 2
#     Edge 36, Type (0, 1), BuildingBlock: OJICUG_clean_linker_0, # of connection points: 2
#     Edge 37, Type (0, 1), BuildingBlock: OJICUG_clean_linker_0, # of connection points: 2
#     Edge 38, Type (0, 1), BuildingBlock: OJICUG_clean_linker_0, # of connection points: 2
#     Edge 39, Type (0, 1), BuildingBlock: OJICUG_clean_linker_0, # of connection points: 2
#     Edge 40, Type (0, 1), BuildingBlock: OJICUG_clean_linker_0, # of connection points: 2
#     Edge 41, Type (0, 1), BuildingBlock: OJICUG_clean_linker_0, # of connection points: 2
#     Edge 42, Type (0, 1), BuildingBlock: OJICUG_clean_linker_0, # of connection points: 2
#     Edge 43, Type (0, 1), BuildingBlock: OJICUG_clean_linker_0, # of connection points: 2
#     Edge 44, Type (0, 1), BuildingBlock: OJICUG_clean_linker_0, # of connection points: 2
#     Edge 45, Type (0, 1), BuildingBlock: OJICUG_clean_linker_0, # of connection points: 2
#     Edge 46, Type (0, 1), BuildingBlock: OJICUG_clean_linker_0, # of connection points: 2
#     Edge 47, Type (0, 1), BuildingBlock: OJICUG_clean_linker_0, # of connection points: 2
#     Edge 48, Type (0, 1), BuildingBlock: OJICUG_clean_linker_0, # of connection points: 2
#     Edge 49, Type (0, 1), BuildingBlock: OJICUG_clean_linker_0, # of connection points: 2
#     Edge 50, Type (0, 1), BuildingBlock: OJICUG_clean_linker_0, # of connection points: 2
#     Edge 51, Type (0, 1), BuildingBlock: OJICUG_clean_linker_0, # of connection points: 2
#     Edge 52, Type (0, 1), BuildingBlock: OJICUG_clean_linker_0, # of connection points: 2
#     Edge 53, Type (0, 1), BuildingBlock: OJICUG_clean_linker_0, # of connection points: 2
#     Edge 54, Type (0, 1), BuildingBlock: OJICUG_clean_linker_0, # of connection points: 2
#     Edge 55, Type (0, 1), BuildingBlock: OJICUG_clean_linker_0, # of connection points: 2
#     Edge 56, Type (0, 1), BuildingBlock: OJICUG_clean_linker_0, # of connection points: 2
#     Edge 57, Type (0, 1), BuildingBlock: OJICUG_clean_linker_0, # of connection points: 2
#     Edge 58, Type (0, 1), BuildingBlock: OJICUG_clean_linker_0, # of connection points: 2
#     Edge 59, Type (0, 1), BuildingBlock: OJICUG_clean_linker_0, # of connection points: 2
#     Edge 60, Type (0, 1), BuildingBlock: OJICUG_clean_linker_0, # of connection points: 2
#     Edge 61, Type (0, 1), BuildingBlock: OJICUG_clean_linker_0, # of connection points: 2
#     Edge 62, Type (0, 1), BuildingBlock: OJICUG_clean_linker_0, # of connection points: 2
#     Edge 63, Type (0, 1), BuildingBlock: OJICUG_clean_linker_0, # of connection points: 2
#     Edge 64, Type (0, 1), BuildingBlock: OJICUG_clean_linker_0, # of connection points: 2
#     Edge 65, Type (0, 1), BuildingBlock: OJICUG_clean_linker_0, # of connection points: 2
#     Edge 66, Type (0, 1), BuildingBlock: OJICUG_clean_linker_0, # of connection points: 2
#     Edge 67, Type (0, 1), BuildingBlock: OJICUG_clean_linker_0, # of connection points: 2
#     Edge 68, Type (0, 1), BuildingBlock: OJICUG_clean_linker_0, # of connection points: 2
#     Edge 69, Type (0, 1), BuildingBlock: OJICUG_clean_linker_0, # of connection points: 2
#     Edge 70, Type (0, 1), BuildingBlock: OJICUG_clean_linker_0, # of connection points: 2
#     Edge 71, Type (0, 1), BuildingBlock: OJICUG_clean_linker_0, # of connection points: 2
#     Edge 72, Type (0, 1), BuildingBlock: OJICUG_clean_linker_0, # of connection points: 2
#     Edge 73, Type (0, 1), BuildingBlock: OJICUG_clean_linker_0, # of connection points: 2
#     Edge 74, Type (0, 1), BuildingBlock: OJICUG_clean_linker_0, # of connection points: 2
#     Edge 75, Type (0, 1), BuildingBlock: OJICUG_clean_linker_0, # of connection points: 2
#     Edge 76, Type (0, 1), BuildingBlock: OJICUG_clean_linker_0, # of connection points: 2
#     Edge 77, Type (0, 1), BuildingBlock: OJICUG_clean_linker_0, # of connection points: 2
#     Edge 78, Type (0, 1), BuildingBlock: OJICUG_clean_linker_0, # of connection points: 2
#     Edge 79, Type (0, 1), BuildingBlock: OJICUG_clean_linker_0, # of connection points: 2
#     Edge 80, Type (0, 1), BuildingBlock: OJICUG_clean_linker_0, # of connection points: 2
# Relax obj value: 0.008
# Max RMSD: 0.089
# Mean RMSD: 0.072
data_MOF--net-eea--node1-KUMJIN_clean_sbu_0--node2-KAKCAD_clean_linker_0--edge1-OJICUG_clean_linker_0
_symmetry_space_group_name_H-M    P1
_symmetry_Int_Tables_number       1
_symmetry_cell_setting            triclinic
loop_
_symmetry_equiv_pos_as_xyz
'x, y, z'
_cell_length_a     48.364201
_cell_length_b     49.649184
_cell_length_c     71.698581
_cell_angle_alpha  90.108493
_cell_angle_beta   89.880837
_cell_angle_gamma 119.98888
loop_
_atom_site_label
_atom_site_type_symbol
_atom_site_fract_x
_atom_site_fract_y
_atom_site_fract_z
_atom_type_partial_charge
C0 C 0.30152 0.16862 0.49613 0.0
C1 C 0.32159 0.15677 0.50099 0.0
C2 C 0.28495 0.16054 0.47923 0.0
C3 C 0.28854 0.14099 0.46642 0.0
C4 C 0.30933 0.12987 0.47104 0.0
C5 C 0.32528 0.13732 0.48814 0.0
C6 C 0.27015 0.13167 0.44858 0.0
C7 C 0.26266 0.15215 0.43925 0.0
C8 C 0.24423 0.14304 0.42284 0.0
C9 C 0.23394 0.11326 0.4155 0.0
C10 C 0.24202 0.09292 0.42424 0.0
C11 C 0.25966 0.10204 0.44085 0.0
C12 C 0.23278 0.06238 0.41574 0.0
C13 C 0.20136 0.04258 0.40969 0.0
C14 C 0.25571 0.05326 0.41318 0.0
C15 C 0.24751 0.02503 0.40454 0.0
C16 C 0.21605 0.00506 0.39846 0.0
C17 C 0.2358 0.16461 0.41336 0.0
C18 C 0.22781 0.18373 0.42384 0.0
C19 C 0.23545 0.16613 0.39376 0.0
C20 C 0.22722 0.18619 0.38489 0.0
C21 C 0.21955 0.20542 0.39542 0.0
C22 C 0.21993 0.204 0.41497 0.0
C23 C 0.19303 0.01412 0.40125 0.0
H24 H 0.29845 0.18419 0.50537 0.0
H25 H 0.2689 0.16931 0.47641 0.0
H26 H 0.31338 0.11531 0.46147 0.0
H27 H 0.34008 0.12728 0.49134 0.0
H28 H 0.27171 0.17551 0.44453 0.0
H29 H 0.26456 0.0856 0.4479 0.0
H30 H 0.2198 0.10589 0.40286 0.0
H31 H 0.18318 0.049 0.41166 0.0
H32 H 0.28021 0.06833 0.41749 0.0
H33 H 0.26604 0.01918 0.40232 0.0
H34 H 0.22723 0.18276 0.43894 0.0
H35 H 0.24199 0.15216 0.38523 0.0
H36 H 0.16846 0.99913 0.39707 0.0
H37 H 0.21372 0.21832 0.42342 0.0
H38 H 0.22748 0.1871 0.36979 0.0
C39 C 0.8736 0.17281 0.484 0.0
C40 C 0.86808 0.1532 0.49934 0.0
C41 C 0.88219 0.16619 0.46668 0.0
C42 C 0.88479 0.13945 0.46427 0.0
C43 C 0.87956 0.11995 0.47966 0.0
C44 C 0.87165 0.12697 0.49711 0.0
C45 C 0.8911 0.13118 0.44546 0.0
C46 C 0.91696 0.15305 0.43473 0.0
C47 C 0.92162 0.14627 0.41625 0.0
C48 C 0.89945 0.11724 0.40859 0.0
C49 C 0.87384 0.09506 0.41929 0.0
C50 C 0.87006 0.10196 0.43777 0.0
C51 C 0.85023 0.06499 0.41097 0.0
C52 C 0.832 0.0642 0.39554 0.0
C53 C 0.84542 0.03695 0.41859 0.0
C54 C 0.823 0.00851 0.41072 0.0
C55 C 0.80451 0.0077 0.39542 0.0
C56 C 0.94936 0.16951 0.40498 0.0
C57 C 0.96043 0.20148 0.40689 0.0
C58 C 0.96533 0.16005 0.39242 0.0
C59 C 0.99181 0.18199 0.38224 0.0
C60 C 1.00322 0.21402 0.38444 0.0
C61 C 0.98706 0.22337 0.39691 0.0
C62 C 0.80904 0.03574 0.38796 0.0
H63 H 0.87111 0.19323 0.48541 0.0
H64 H 0.88584 0.18145 0.45501 0.0
H65 H 0.88144 0.09921 0.47814 0.0
H66 H 0.86741 0.11146 0.50873 0.0
H67 H 0.93363 0.17522 0.44097 0.0
H68 H 0.84983 0.08508 0.44587 0.0
H69 H 0.90187 0.11183 0.39424 0.0
H70 H 0.83525 0.08561 0.38954 0.0
H71 H 0.85925 0.03709 0.4305 0.0
H72 H 0.81984 0.98711 0.4167 0.0
H73 H 0.94855 0.20977 0.41613 0.0
H74 H 0.95779 0.13567 0.39069 0.0
H75 H 0.79513 0.03561 0.3761 0.0
H76 H 0.99532 0.24775 0.39937 0.0
H77 H 1.00336 0.1738 0.37267 0.0
C78 C 0.89883 0.74274 0.49301 0.0
C79 C 0.86761 0.72269 0.49938 0.0
C80 C 0.90428 0.7559 0.47512 0.0
C81 C 0.87867 0.74882 0.46292 0.0
C82 C 0.84741 0.72869 0.46946 0.0
C83 C 0.84198 0.71612 0.48747 0.0
C84 C 0.88433 0.76151 0.44336 0.0
C85 C 0.91182 0.76721 0.43327 0.0
C86 C 0.91635 0.77749 0.41463 0.0
C87 C 0.89276 0.78165 0.40585 0.0
C88 C 0.86525 0.7766 0.41562 0.0
C89 C 0.86171 0.7671 0.43443 0.0
C90 C 0.83987 0.78064 0.40622 0.0
C91 C 0.84761 0.80452 0.39312 0.0
C92 C 0.80743 0.76054 0.41041 0.0
C93 C 0.78356 0.76447 0.40206 0.0
C94 C 0.79122 0.7884 0.38905 0.0
C95 C 0.94564 0.78341 0.4043 0.0
C96 C 0.97603 0.80275 0.41198 0.0
C97 C 0.94347 0.76934 0.3869 0.0
C98 C 0.97106 0.77381 0.37766 0.0
C99 C 1.00144 0.79301 0.38542 0.0
C100 C 1.00362 0.80775 0.40257 0.0
C101 C 0.82363 0.8083 0.38463 0.0
H102 H 0.91906 0.74838 0.50194 0.0
H103 H 0.92867 0.77171 0.47095 0.0
H104 H 0.82693 0.72185 0.46054 0.0
H105 H 0.81767 0.70039 0.49189 0.0
H106 H 0.92939 0.76269 0.43961 0.0
H107 H 0.8413 0.76442 0.44223 0.0
H108 H 0.8959 0.78877 0.39136 0.0
H109 H 0.87227 0.82066 0.38961 0.0
H110 H 0.80031 0.74153 0.42013 0.0
H111 H 0.75904 0.74892 0.40613 0.0
H112 H 0.97843 0.81401 0.42532 0.0
H113 H 0.92036 0.75423 0.38067 0.0
H114 H 0.83054 0.8268 0.37454 0.0
H115 H 0.02667 0.82242 0.40898 0.0
H116 H 0.96867 0.76216 0.36447 0.0
C117 C 0.14855 0.25498 0.53194 0.0
C118 C 0.14637 0.28174 0.52816 0.0
C119 C 0.14252 0.24198 0.54991 0.0
C120 C 0.13364 0.25507 0.56451 0.0
C121 C 0.13129 0.28162 0.56077 0.0
C122 C 0.13781 0.29489 0.54296 0.0
C123 C 0.12725 0.24161 0.58371 0.0
C124 C 0.14882 0.23449 0.59245 0.0
C125 C 0.14425 0.22428 0.6111 0.0
C126 C 0.11725 0.22049 0.62091 0.0
C127 C 0.09475 0.22657 0.61228 0.0
C128 C 0.10018 0.2372 0.59366 0.0
C129 C 0.06584 0.22231 0.62264 0.0
C130 C 0.04926 0.1975 0.63522 0.0
C131 C 0.05418 0.24287 0.61974 0.0
C132 C 0.02656 0.23846 0.62877 0.0
C133 C 0.00977 0.21357 0.64125 0.0
C134 C 0.16839 0.21868 0.62049 0.0
C135 C 0.1788 0.19968 0.61211 0.0
C136 C 0.18194 0.23309 0.63761 0.0
C137 C 0.20597 0.22922 0.64591 0.0
C138 C 0.21647 0.21033 0.63747 0.0
C139 C 0.20233 0.19528 0.6206 0.0
C140 C 0.02164 0.19321 0.64441 0.0
H141 H 0.15458 0.24376 0.52099 0.0
H142 H 0.14434 0.22139 0.55232 0.0
H143 H 0.12505 0.29259 0.57179 0.0
H144 H 0.13668 0.31592 0.54096 0.0
H145 H 0.16997 0.2382 0.585 0.0
H146 H 0.08306 0.24173 0.58669 0.0
H147 H 0.11396 0.21299 0.63532 0.0
H148 H 0.05724 0.18097 0.63774 0.0
H149 H 0.06642 0.26256 0.61046 0.0
H150 H 0.01807 0.2544 0.62562 0.0
H151 H 0.16872 0.18821 0.59896 0.0
H152 H 0.17451 0.248 0.64434 0.0
H153 H 0.00966 0.17393 0.65401 0.0
H154 H 0.2101 0.18076 0.61373 0.0
H155 H 0.21638 0.241 0.65894 0.0
C156 C 0.67909 0.82828 0.54176 0.0
C157 C 0.6937 0.84686 0.52593 0.0
C158 C 0.69532 0.83491 0.55878 0.0
C159 C 0.72617 0.8606 0.5604 0.0
C160 C 0.74092 0.87909 0.54471 0.0
C161 C 0.72505 0.87211 0.52762 0.0
C162 C 0.74282 0.86881 0.57852 0.0
C163 C 0.74978 0.84797 0.58767 0.0
C164 C 0.76717 0.85659 0.60441 0.0
C165 C 0.77684 0.88599 0.61213 0.0
C166 C 0.76909 0.90672 0.60343 0.0
C167 C 0.75232 0.89796 0.58648 0.0
C168 C 0.778 0.9372 0.6122 0.0
C169 C 0.77679 0.93979 0.6317 0.0
C170 C 0.7873 0.96382 0.60117 0.0
C171 C 0.79484 0.99219 0.60944 0.0
C172 C 0.79376 0.99464 0.62889 0.0
C173 C 0.77554 0.83508 0.61381 0.0
C174 C 0.75232 0.80382 0.61664 0.0
C175 C 0.8068 0.84579 0.62015 0.0
C176 C 0.81476 0.82557 0.62903 0.0
C177 C 0.79154 0.79422 0.63191 0.0
C178 C 0.76017 0.78366 0.62569 0.0
C179 C 0.78484 0.96827 0.63995 0.0
H180 H 0.65486 0.80896 0.54118 0.0
H181 H 0.68347 0.8205 0.5708 0.0
H182 H 0.76488 0.89887 0.54566 0.0
H183 H 0.73753 0.8865 0.51572 0.0
H184 H 0.74259 0.82551 0.58143 0.0
H185 H 0.74587 0.91344 0.57958 0.0
H186 H 0.79032 0.89262 0.62502 0.0
H187 H 0.7691 0.91972 0.64062 0.0
H188 H 0.78907 0.96288 0.58616 0.0
H189 H 0.80198 0.01234 0.60064 0.0
H190 H 0.72794 0.79509 0.6121 0.0
H191 H 0.82526 0.86973 0.61796 0.0
H192 H 0.78352 0.96956 0.65499 0.0
H193 H 0.74153 0.75983 0.62796 0.0
H194 H 0.83925 0.8344 0.63332 0.0
C195 C 0.10873 0.83632 0.53228 0.0
C196 C 0.14031 0.84851 0.52606 0.0
C197 C 0.10238 0.84395 0.55 0.0
C198 C 0.12753 0.86343 0.56206 0.0
C199 C 0.15914 0.87535 0.55571 0.0
C200 C 0.16541 0.86827 0.53789 0.0
C201 C 0.12121 0.87085 0.58132 0.0
C202 C 0.09485 0.84896 0.59179 0.0
C203 C 0.09034 0.85529 0.61032 0.0
C204 C 0.11279 0.88345 0.61859 0.0
C205 C 0.13884 0.90612 0.6083 0.0
C206 C 0.14232 0.89972 0.58957 0.0
C207 C 0.16244 0.9364 0.61702 0.0
C208 C 0.15289 0.95045 0.63071 0.0
C209 C 0.1948 0.95162 0.61169 0.0
C210 C 0.21676 0.98027 0.6195 0.0
C211 C 0.20725 0.99427 0.63324 0.0
C212 C 0.06196 0.83255 0.62104 0.0
C213 C 0.03119 0.82174 0.61387 0.0
C214 C 0.06538 0.82188 0.63856 0.0
C215 C 0.03847 0.80017 0.64851 0.0
C216 C 0.00769 0.78936 0.64132 0.0
C217 C 1.00429 0.80058 0.624 0.0
C218 C 0.17501 0.97871 0.63886 0.0
H219 H 0.08895 0.82112 0.52335 0.0
H220 H 0.07774 0.83468 0.55415 0.0
H221 H 0.17927 0.88969 0.56463 0.0
H222 H 0.18998 0.87759 0.53352 0.0
H223 H 0.07821 0.82654 0.58584 0.0
H224 H 0.1614 0.9175 0.58127 0.0
H225 H 0.10967 0.88762 0.63307 0.0
H226 H 0.12821 0.93987 0.63506 0.0
H227 H 0.20341 0.94142 0.6015 0.0
H228 H 0.24114 0.99153 0.61452 0.0
H229 H 0.02795 0.82982 0.60047 0.0
H230 H 0.08889 0.82989 0.64436 0.0
H231 H 0.16667 0.98819 0.64965 0.0
H232 H 0.98083 0.7923 0.61805 0.0
H233 H 0.04167 0.79176 0.66181 0.0
C234 C 0.96348 0.49843 0.82995 0.0
C235 C 0.98422 0.48731 0.83433 0.0
C236 C 0.94704 0.49053 0.813 0.0
C237 C 0.95155 0.47187 0.7999 0.0
C238 C 0.97306 0.46146 0.80425 0.0
C239 C 0.9889 0.46879 0.82138 0.0
C240 C 0.9334 0.46272 0.782 0.0
C241 C 0.92569 0.48312 0.77279 0.0
C242 C 0.9077 0.47421 0.75622 0.0
C243 C 0.89795 0.44467 0.74867 0.0
C244 C 0.90624 0.42442 0.75734 0.0
C245 C 0.92351 0.43337 0.77406 0.0
C246 C 0.89762 0.39418 0.74864 0.0
C247 C 0.86636 0.37408 0.74248 0.0
C248 C 0.92097 0.38561 0.74611 0.0
C249 C 0.91332 0.35758 0.73738 0.0
C250 C 0.88201 0.33729 0.73121 0.0
C251 C 0.89932 0.4958 0.74674 0.0
C252 C 0.89089 0.51461 0.75721 0.0
C253 C 0.89959 0.49775 0.72714 0.0
C254 C 0.89159 0.51795 0.71827 0.0
C255 C 0.88354 0.53692 0.72878 0.0
C256 C 0.88325 0.53505 0.74833 0.0
C257 C 0.85857 0.34582 0.73397 0.0
H258 H 0.95939 0.5126 0.83985 0.0
H259 H 0.9303 0.49855 0.81038 0.0
H260 H 0.97785 0.44772 0.79442 0.0
H261 H 0.00508 0.46025 0.82445 0.0
H262 H 0.9343 0.50629 0.7783 0.0
H263 H 0.92865 0.41702 0.78103 0.0
H264 H 0.88412 0.43743 0.73591 0.0
H265 H 0.84788 0.38009 0.74444 0.0
H266 H 0.94536 0.40094 0.75052 0.0
H267 H 0.93214 0.35214 0.73519 0.0
H268 H 0.88984 0.51332 0.77229 0.0
H269 H 0.90648 0.48403 0.71863 0.0
H270 H 0.8341 0.33056 0.72971 0.0
H271 H 0.87675 0.54917 0.75676 0.0
H272 H 0.89235 0.51923 0.70318 0.0
C273 C 0.54061 0.50802 0.81797 0.0
C274 C 0.53543 0.48861 0.83347 0.0
C275 C 0.54874 0.50121 0.80056 0.0
C276 C 0.55127 0.4745 0.79806 0.0
C277 C 0.54634 0.45511 0.81342 0.0
C278 C 0.53886 0.46225 0.83096 0.0
C279 C 0.55736 0.46616 0.7792 0.0
C280 C 0.58315 0.48796 0.76839 0.0
C281 C 0.58774 0.48098 0.74995 0.0
C282 C 0.56555 0.45188 0.74239 0.0
C283 C 0.54001 0.42979 0.75316 0.0
C284 C 0.53631 0.43686 0.77161 0.0
C285 C 0.51653 0.39957 0.74495 0.0
C286 C 0.49836 0.39849 0.72943 0.0
C287 C 0.51193 0.37169 0.75271 0.0
C288 C 0.4898 0.34312 0.74486 0.0
C289 C 0.4714 0.34202 0.72944 0.0
C290 C 0.6155 0.50402 0.73861 0.0
C291 C 0.62676 0.53605 0.74038 0.0
C292 C 0.6313 0.4943 0.72609 0.0
C293 C 0.65776 0.51602 0.7158 0.0
C294 C 0.66934 0.5481 0.71786 0.0
C295 C 0.65338 0.55772 0.7303 0.0
C296 C 0.47569 0.3699 0.72185 0.0
H297 H 0.53756 0.52812 0.81905 0.0
H298 H 0.552 0.51631 0.78886 0.0
H299 H 0.54834 0.43444 0.81186 0.0
H300 H 0.53583 0.44703 0.84253 0.0
H301 H 0.59986 0.51018 0.77456 0.0
H302 H 0.51617 0.42001 0.77978 0.0
H303 H 0.56792 0.44632 0.72806 0.0
H304 H 0.50147 0.41977 0.72331 0.0
H305 H 0.52574 0.37207 0.76469 0.0
H306 H 0.48681 0.32185 0.75093 0.0
H307 H 0.61503 0.54454 0.74959 0.0
H308 H 0.62364 0.46987 0.72446 0.0
H309 H 0.46184 0.36954 0.7099 0.0
H310 H 0.66179 0.58216 0.73266 0.0
H311 H 0.66914 0.50761 0.70627 0.0
C312 C 0.56754 0.0761 0.82614 0.0
C313 C 0.53634 0.05608 0.83254 0.0
C314 C 0.57294 0.08924 0.80825 0.0
C315 C 0.54727 0.08215 0.79609 0.0
C316 C 0.51604 0.06203 0.80266 0.0
C317 C 0.51067 0.04948 0.82067 0.0
C318 C 0.55285 0.09488 0.77654 0.0
C319 C 0.58026 0.10057 0.76637 0.0
C320 C 0.58467 0.11086 0.74774 0.0
C321 C 0.56103 0.11504 0.73905 0.0
C322 C 0.5336 0.11 0.7489 0.0
C323 C 0.53019 0.10051 0.7677 0.0
C324 C 0.50814 0.11405 0.73962 0.0
C325 C 0.51576 0.13799 0.7266 0.0
C326 C 0.47574 0.09392 0.74389 0.0
C327 C 0.45179 0.09792 0.73573 0.0
C328 C 0.45933 0.12196 0.72282 0.0
C329 C 0.61389 0.11675 0.73733 0.0
C330 C 0.64433 0.13611 0.74495 0.0
C331 C 0.6116 0.10262 0.71994 0.0
C332 C 0.63913 0.10702 0.71066 0.0
C333 C 0.66956 0.12622 0.71836 0.0
C334 C 0.67186 0.14104 0.73549 0.0
C335 C 0.4917 0.14185 0.71829 0.0
H336 H 0.5878 0.08175 0.83505 0.0
H337 H 0.59731 0.10504 0.80404 0.0
H338 H 0.49553 0.05518 0.79376 0.0
H339 H 0.48638 0.03376 0.82511 0.0
H340 H 0.59786 0.09602 0.77266 0.0
H341 H 0.50986 0.09785 0.77557 0.0
H342 H 0.56406 0.12217 0.72456 0.0
H343 H 0.54039 0.15414 0.72302 0.0
H344 H 0.46871 0.07485 0.75356 0.0
H345 H 0.42731 0.08236 0.73986 0.0
H346 H 0.64682 0.14741 0.75828 0.0
H347 H 0.58845 0.0875 0.71377 0.0
H348 H 0.49851 0.16041 0.70826 0.0
H349 H 0.69495 0.15571 0.74185 0.0
H350 H 0.63666 0.0953 0.69748 0.0
C351 C 0.81425 0.58706 0.86502 0.0
C352 C 0.81205 0.61381 0.86123 0.0
C353 C 0.80804 0.57397 0.88297 0.0
C354 C 0.79897 0.58696 0.89754 0.0
C355 C 0.79663 0.61351 0.89379 0.0
C356 C 0.80331 0.62687 0.876 0.0
C357 C 0.79234 0.57338 0.91671 0.0
C358 C 0.81376 0.56614 0.92554 0.0
C359 C 0.80898 0.55591 0.94419 0.0
C360 C 0.78195 0.55223 0.9539 0.0
C361 C 0.75958 0.55839 0.94518 0.0
C362 C 0.7652 0.56902 0.92656 0.0
C363 C 0.73063 0.55423 0.95545 0.0
C364 C 0.71407 0.52958 0.96814 0.0
C365 C 0.71895 0.57473 0.95239 0.0
C366 C 0.69132 0.57041 0.96136 0.0
C367 C 0.67456 0.54569 0.97395 0.0
C368 C 0.83295 0.55024 0.95372 0.0
C369 C 0.84326 0.53103 0.9455 0.0
C370 C 0.84641 0.56475 0.97083 0.0
C371 C 0.87028 0.56082 0.97928 0.0
C372 C 0.88071 0.54175 0.971 0.0
C373 C 0.86663 0.52656 0.95415 0.0
C374 C 0.68648 0.52541 0.97728 0.0
H375 H 0.82043 0.57592 0.8541 0.0
H376 H 0.80987 0.55339 0.88539 0.0
H377 H 0.79025 0.62442 0.90478 0.0
H378 H 0.80216 0.64788 0.87399 0.0
H379 H 0.83496 0.5698 0.91818 0.0
H380 H 0.74819 0.57361 0.91951 0.0
H381 H 0.77854 0.54476 0.96833 0.0
H382 H 0.72206 0.51309 0.97078 0.0
H383 H 0.73118 0.59432 0.94303 0.0
H384 H 0.6828 0.58628 0.95807 0.0
H385 H 0.83323 0.51948 0.93236 0.0
H386 H 0.83905 0.57981 0.97743 0.0
H387 H 0.67454 0.50628 0.98699 0.0
H388 H 0.87438 0.51192 0.9474 0.0
H389 H 0.88069 0.57274 0.99227 0.0
C390 C 0.34397 0.1603 0.87503 0.0
C391 C 0.35837 0.17907 0.85923 0.0
C392 C 0.36032 0.16689 0.89201 0.0
C393 C 0.3911 0.1927 0.89364 0.0
C394 C 0.40564 0.21138 0.87799 0.0
C395 C 0.38965 0.20446 0.86093 0.0
C396 C 0.40782 0.20088 0.91176 0.0
C397 C 0.41505 0.18014 0.92083 0.0
C398 C 0.43251 0.18876 0.93758 0.0
C399 C 0.44196 0.21809 0.94538 0.0
C400 C 0.43396 0.23858 0.9367 0.0
C401 C 0.41718 0.22995 0.91979 0.0
C402 C 0.44252 0.26874 0.94549 0.0
C403 C 0.41928 0.27751 0.94787 0.0
C404 C 0.47375 0.28876 0.95171 0.0
C405 C 0.48168 0.31718 0.96005 0.0
C406 C 0.45838 0.32597 0.96261 0.0
C407 C 0.44104 0.1673 0.94694 0.0
C408 C 0.41809 0.13586 0.94947 0.0
C409 C 0.47221 0.17825 0.95353 0.0
C410 C 0.48033 0.1581 0.96237 0.0
C411 C 0.45739 0.12658 0.96497 0.0
C412 C 0.42612 0.11576 0.95847 0.0
C413 C 0.42705 0.30568 0.95645 0.0
H414 H 0.31981 0.14087 0.87446 0.0
H415 H 0.34862 0.15232 0.904 0.0
H416 H 0.42953 0.23127 0.87894 0.0
H417 H 0.40199 0.21901 0.84906 0.0
H418 H 0.40801 0.15775 0.91453 0.0
H419 H 0.41138 0.24589 0.91285 0.0
H420 H 0.45472 0.22461 0.95853 0.0
H421 H 0.39491 0.26225 0.9434 0.0
H422 H 0.49215 0.2826 0.94987 0.0
H423 H 0.50617 0.33239 0.96428 0.0
H424 H 0.39378 0.12691 0.94475 0.0
H425 H 0.49047 0.20233 0.95158 0.0
H426 H 0.40831 0.31128 0.95851 0.0
H427 H 0.40766 0.09179 0.96052 0.0
H428 H 0.50477 0.16717 0.96685 0.0
C429 C 0.77799 0.16729 0.86505 0.0
C430 C 0.80967 0.17861 0.8593 0.0
C431 C 0.77135 0.17518 0.88262 0.0
C432 C 0.79628 0.19407 0.89497 0.0
C433 C 0.82797 0.20479 0.88917 0.0
C434 C 0.83456 0.19746 0.8715 0.0
C435 C 0.78952 0.20285 0.91372 0.0
C436 C 0.76202 0.18226 0.92396 0.0
C437 C 0.7563 0.19041 0.94179 0.0
C438 C 0.77813 0.21944 0.94938 0.0
C439 C 0.80548 0.24025 0.93938 0.0
C440 C 0.81095 0.23194 0.92163 0.0
C441 C 0.82863 0.27066 0.94757 0.0
C442 C 0.81865 0.29134 0.95355 0.0
C443 C 0.86082 0.27907 0.94949 0.0
C444 C 0.88263 0.30753 0.95757 0.0
C445 C 0.87284 0.32851 0.96358 0.0
C446 C 0.72789 0.16833 0.95273 0.0
C447 C 0.69713 0.15585 0.94517 0.0
C448 C 0.73143 0.15958 0.97081 0.0
C449 C 0.70472 0.13804 0.98096 0.0
C450 C 0.67397 0.12549 0.97337 0.0
C451 C 0.67037 0.13486 0.95549 0.0
C452 C 0.84055 0.32009 0.96126 0.0
H453 H 0.75838 0.15277 0.85583 0.0
H454 H 0.74668 0.16683 0.88635 0.0
H455 H 0.84788 0.2186 0.89835 0.0
H456 H 0.85918 0.20607 0.86747 0.0
H457 H 0.74551 0.15945 0.91843 0.0
H458 H 0.83178 0.24862 0.9139 0.0
H459 H 0.77391 0.22578 0.96314 0.0
H460 H 0.79396 0.28543 0.952 0.0
H461 H 0.86896 0.26331 0.94507 0.0
H462 H 0.90702 0.31274 0.9594 0.0
H463 H 0.69381 0.16239 0.9313 0.0
H464 H 0.75494 0.16886 0.9769 0.0
H465 H 0.83211 0.33577 0.96525 0.0
H466 H 0.64691 0.12518 0.94926 0.0
H467 H 0.70807 0.13103 0.99468 0.0
C468 C 0.62946 0.83062 0.1638 0.0
C469 C 0.6484 0.8177 0.16879 0.0
C470 C 0.61336 0.82306 0.14673 0.0
C471 C 0.61644 0.80294 0.1341 0.0
C472 C 0.63582 0.79037 0.13916 0.0
C473 C 0.65131 0.7974 0.15639 0.0
C474 C 0.59984 0.79524 0.11568 0.0
C475 C 0.59562 0.81744 0.1059 0.0
C476 C 0.58028 0.81039 0.08847 0.0
C477 C 0.57059 0.7812 0.08038 0.0
C478 C 0.57477 0.75864 0.08979 0.0
C479 C 0.58851 0.76568 0.10768 0.0
C480 C 0.56547 0.72804 0.08083 0.0
C481 C 0.53983 0.71413 0.06819 0.0
C482 C 0.58274 0.71274 0.08454 0.0
C483 C 0.5745 0.6844 0.07605 0.0
C484 C 0.54942 0.67088 0.06303 0.0
C485 C 0.57371 0.83325 0.07893 0.0
C486 C 0.56428 0.85136 0.08934 0.0
C487 C 0.57572 0.83646 0.05939 0.0
C488 C 0.56797 0.85686 0.0505 0.0
C489 C 0.55854 0.87483 0.06097 0.0
C490 C 0.55698 0.87204 0.08047 0.0
C491 C 0.53227 0.68628 0.05921 0.0
H492 H 0.6267 0.84616 0.17327 0.0
H493 H 0.59824 0.83277 0.14357 0.0
H494 H 0.63948 0.7754 0.12971 0.0
H495 H 0.66607 0.78741 0.15991 0.0
H496 H 0.60482 0.84053 0.11166 0.0
H497 H 0.59011 0.74794 0.11556 0.0
H498 H 0.55968 0.77609 0.06673 0.0
H499 H 0.5254 0.72462 0.06516 0.0
H500 H 0.60303 0.72274 0.09387 0.0
H501 H 0.58793 0.67315 0.07983 0.0
H502 H 0.56184 0.84911 0.10436 0.0
H503 H 0.58344 0.82335 0.05092 0.0
H504 H 0.51312 0.67714 0.0491 0.0
H505 H 0.54943 0.88539 0.08885 0.0
H506 H 0.56972 0.85888 0.03544 0.0
C507 C 0.20881 0.84295 0.15122 0.0
C508 C 0.20289 0.8234 0.16675 0.0
C509 C 0.21671 0.83572 0.13386 0.0
C510 C 0.21824 0.80845 0.13148 0.0
C511 C 0.21248 0.78889 0.14686 0.0
C512 C 0.20525 0.79644 0.16433 0.0
C513 C 0.22463 0.79985 0.1128 0.0
C514 C 0.25169 0.82077 0.10257 0.0
C515 C 0.2574 0.81313 0.08457 0.0
C516 C 0.23548 0.78388 0.07704 0.0
C517 C 0.208 0.76266 0.08703 0.0
C518 C 0.20298 0.77097 0.10497 0.0
C519 C 0.18412 0.73225 0.0786 0.0
C520 C 0.17786 0.72967 0.0593 0.0
C521 C 0.16703 0.70556 0.08979 0.0
C522 C 0.14422 0.67728 0.08192 0.0
C523 C 0.13851 0.67488 0.06267 0.0
C524 C 0.2857 0.83598 0.07349 0.0
C525 C 0.29635 0.86796 0.07469 0.0
C526 C 0.30216 0.82621 0.06152 0.0
C527 C 0.32849 0.84784 0.05109 0.0
C528 C 0.33927 0.87987 0.05246 0.0
C529 C 0.32283 0.88953 0.0645 0.0
C530 C 0.15559 0.70123 0.05141 0.0
H531 H 0.20661 0.86355 0.15226 0.0
H532 H 0.2207 0.85099 0.12214 0.0
H533 H 0.21376 0.76782 0.14537 0.0
H534 H 0.20164 0.78109 0.17593 0.0
H535 H 0.26849 0.84286 0.10883 0.0
H536 H 0.18157 0.75549 0.1127 0.0
H537 H 0.23963 0.77779 0.06323 0.0
H538 H 0.1898 0.74969 0.05023 0.0
H539 H 0.1715 0.7063 0.10462 0.0
H540 H 0.13152 0.6571 0.09082 0.0
H541 H 0.28411 0.87649 0.08345 0.0
H542 H 0.29501 0.80184 0.06035 0.0
H543 H 0.15137 0.69988 0.03651 0.0
H544 H 0.33067 0.91395 0.06638 0.0
H545 H 0.3403 0.83939 0.04191 0.0
C546 C 0.23248 0.40862 0.15982 0.0
C547 C 0.2012 0.38879 0.16617 0.0
C548 C 0.23807 0.42181 0.14194 0.0
C549 C 0.21253 0.41495 0.12973 0.0
C550 C 0.18121 0.39507 0.13626 0.0
C551 C 0.17565 0.38248 0.15426 0.0
C552 C 0.21835 0.4276 0.11016 0.0
C553 C 0.24573 0.43291 0.1001 0.0
C554 C 0.25041 0.44314 0.08145 0.0
C555 C 0.22708 0.44764 0.07263 0.0
C556 C 0.19969 0.44299 0.08237 0.0
C557 C 0.196 0.43353 0.10119 0.0
C558 C 0.17456 0.44735 0.07292 0.0
C559 C 0.18258 0.47121 0.05977 0.0
C560 C 0.14206 0.42752 0.07709 0.0
C561 C 0.11841 0.43166 0.06865 0.0
C562 C 0.12632 0.45552 0.05554 0.0
C563 C 0.27963 0.44872 0.07119 0.0
C564 C 0.31002 0.46807 0.07886 0.0
C565 C 0.27739 0.43433 0.0539 0.0
C566 C 0.30495 0.43851 0.04476 0.0
C567 C 0.33534 0.45775 0.0525 0.0
C568 C 0.33757 0.47279 0.06953 0.0
C569 C 0.1588 0.47521 0.05118 0.0
H570 H 0.25265 0.41407 0.16876 0.0
H571 H 0.26251 0.43744 0.13778 0.0
H572 H 0.16079 0.38844 0.12732 0.0
H573 H 0.15129 0.36692 0.15867 0.0
H574 H 0.2631 0.42813 0.10647 0.0
H575 H 0.17569 0.43113 0.10898 0.0
H576 H 0.23033 0.45472 0.05813 0.0
H577 H 0.2073 0.48716 0.05627 0.0
H578 H 0.13473 0.40853 0.08686 0.0
H579 H 0.09383 0.41629 0.07269 0.0
H580 H 0.31245 0.47957 0.09212 0.0
H581 H 0.25427 0.41921 0.0477 0.0
H582 H 0.1659 0.49365 0.04104 0.0
H583 H 0.36063 0.48751 0.07592 0.0
H584 H 0.30254 0.42665 0.03165 0.0
C585 C 0.47957 0.92073 0.19818 0.0
C586 C 0.47783 0.94776 0.19448 0.0
C587 C 0.47337 0.90761 0.21612 0.0
C588 C 0.46474 0.92082 0.23078 0.0
C589 C 0.4628 0.94762 0.22712 0.0
C590 C 0.46951 0.96102 0.20933 0.0
C591 C 0.45823 0.90726 0.24996 0.0
C592 C 0.47969 0.89995 0.25867 0.0
C593 C 0.47508 0.88974 0.27732 0.0
C594 C 0.44814 0.88607 0.28713 0.0
C595 C 0.42573 0.89229 0.27853 0.0
C596 C 0.43122 0.903 0.25992 0.0
C597 C 0.3969 0.88813 0.28894 0.0
C598 C 0.38041 0.8634 0.30159 0.0
C599 C 0.38532 0.90877 0.28611 0.0
C600 C 0.35789 0.90454 0.29531 0.0
C601 C 0.34123 0.87977 0.30788 0.0
C602 C 0.49914 0.88409 0.28675 0.0
C603 C 0.50936 0.86484 0.27849 0.0
C604 C 0.51275 0.89864 0.30383 0.0
C605 C 0.53665 0.89469 0.31221 0.0
C606 C 0.54696 0.87556 0.30389 0.0
C607 C 0.53276 0.86035 0.28708 0.0
C608 C 0.353 0.8593 0.31094 0.0
H609 H 0.48539 0.90941 0.1872 0.0
H610 H 0.47488 0.88684 0.21848 0.0
H611 H 0.45676 0.95868 0.23817 0.0
H612 H 0.46872 0.98224 0.20741 0.0
H613 H 0.5008 0.90357 0.25122 0.0
H614 H 0.4142 0.90769 0.25298 0.0
H615 H 0.44485 0.87858 0.30155 0.0
H616 H 0.38831 0.8468 0.30405 0.0
H617 H 0.39749 0.9284 0.27677 0.0
H618 H 0.34946 0.92055 0.29222 0.0
H619 H 0.49921 0.85325 0.26538 0.0
H620 H 0.50547 0.91374 0.31046 0.0
H621 H 0.34111 0.8401 0.3206 0.0
H622 H 0.54041 0.84564 0.28031 0.0
H623 H 0.54716 0.90662 0.32518 0.0
C624 C 0.01387 0.49542 0.20846 0.0
C625 C 0.02842 0.51414 0.19267 0.0
C626 C 0.02992 0.50227 0.22554 0.0
C627 C 0.06051 0.52831 0.22728 0.0
C628 C 0.07517 0.54701 0.21165 0.0
C629 C 0.05949 0.53982 0.19448 0.0
C630 C 0.07705 0.53652 0.24545 0.0
C631 C 0.08391 0.51565 0.25463 0.0
C632 C 0.10107 0.52414 0.27145 0.0
C633 C 0.11062 0.5535 0.27922 0.0
C634 C 0.10297 0.57429 0.27049 0.0
C635 C 0.08643 0.56562 0.25345 0.0
C636 C 0.11168 0.60468 0.27931 0.0
C637 C 0.11015 0.60713 0.2988 0.0
C638 C 0.12102 0.63138 0.26834 0.0
C639 C 0.12828 0.65965 0.27664 0.0
C640 C 0.12686 0.66195 0.29609 0.0
C641 C 0.1093 0.50253 0.28086 0.0
C642 C 0.08605 0.47121 0.28349 0.0
C643 C 0.14046 0.51314 0.28734 0.0
C644 C 0.1483 0.49277 0.29615 0.0
C645 C 0.12507 0.46136 0.29883 0.0
C646 C 0.09379 0.45089 0.29247 0.0
C647 C 0.11791 0.63551 0.3071 0.0
H648 H 0.98984 0.47578 0.20779 0.0
H649 H 0.01814 0.48768 0.23752 0.0
H650 H 0.09893 0.56707 0.21269 0.0
H651 H 0.07192 0.55436 0.18263 0.0
H652 H 0.07682 0.49323 0.24836 0.0
H653 H 0.08002 0.58112 0.24654 0.0
H654 H 0.12392 0.56004 0.29217 0.0
H655 H 0.10242 0.587 0.30769 0.0
H656 H 0.12303 0.63057 0.25333 0.0
H657 H 0.13547 0.67985 0.26788 0.0
H658 H 0.06174 0.46253 0.27884 0.0
H659 H 0.15895 0.53711 0.2853 0.0
H660 H 0.11633 0.63666 0.32213 0.0
H661 H 0.07512 0.42703 0.29458 0.0
H662 H 0.17274 0.50155 0.30054 0.0
C663 C 0.44509 0.50056 0.19875 0.0
C664 C 0.47685 0.51218 0.19306 0.0
C665 C 0.43822 0.50819 0.21633 0.0
C666 C 0.46299 0.52709 0.22877 0.0
C667 C 0.49477 0.5381 0.22304 0.0
C668 C 0.50159 0.53104 0.20534 0.0
C669 C 0.45598 0.5356 0.24754 0.0
C670 C 0.42845 0.5148 0.25768 0.0
C671 C 0.4225 0.52271 0.27552 0.0
C672 C 0.44415 0.5517 0.28324 0.0
C673 C 0.47153 0.57273 0.27334 0.0
C674 C 0.47721 0.56466 0.25557 0.0
C675 C 0.49449 0.60313 0.28163 0.0
C676 C 0.48425 0.62355 0.28774 0.0
C677 C 0.52677 0.61184 0.28346 0.0
C678 C 0.54842 0.64034 0.29156 0.0
C679 C 0.53839 0.66108 0.29768 0.0
C680 C 0.39401 0.50045 0.28634 0.0
C681 C 0.36331 0.48812 0.27873 0.0
C682 C 0.3974 0.49142 0.30438 0.0
C683 C 0.37061 0.4698 0.31443 0.0
C684 C 0.33991 0.45743 0.3068 0.0
C685 C 0.33646 0.46704 0.28895 0.0
C686 C 0.506 0.65235 0.29548 0.0
H687 H 0.42561 0.48601 0.18946 0.0
H688 H 0.41349 0.49961 0.22001 0.0
H689 H 0.51457 0.55193 0.23227 0.0
H690 H 0.52627 0.53989 0.20137 0.0
H691 H 0.41207 0.49202 0.25206 0.0
H692 H 0.49804 0.5815 0.2479 0.0
H693 H 0.43976 0.55786 0.29701 0.0
H694 H 0.45949 0.61742 0.28627 0.0
H695 H 0.53512 0.59629 0.27895 0.0
H696 H 0.57291 0.64578 0.2933 0.0
H697 H 0.36011 0.49487 0.2649 0.0
H698 H 0.42087 0.50059 0.31052 0.0
H699 H 0.49735 0.66783 0.29956 0.0
H700 H 0.31304 0.45753 0.28269 0.0
H701 H 0.37383 0.4626 0.32812 0.0
Eu702 Eu 0.49735 0.97886 0.99048 0.0
C703 C 0.55618 0.09621 0.04267 0.0
C704 C 0.61288 0.11447 0.04199 0.0
C705 C 0.59423 0.15127 0.04668 0.0
C706 C 0.58094 0.09015 0.04063 0.0
C707 C 0.56249 0.12672 0.04616 0.0
C708 C 0.6194 0.14516 0.04457 0.0
C709 C 0.50573 0.10602 0.04995 0.0
N710 N 0.52586 0.07194 0.04226 0.0
C711 C 0.50072 0.07618 0.04645 0.0
C712 C 0.53673 0.13148 0.04956 0.0
Eu713 Eu 0.51904 0.02234 0.03538 0.0
N714 N 0.57377 0.06021 0.03843 0.0
C715 C 0.59731 0.05267 0.03905 0.0
C716 C 0.63725 0.10708 0.04136 0.0
C717 C 0.62938 0.07597 0.0402 0.0
H718 H 0.4767 0.05663 0.04668 0.0
H719 H 0.64799 0.06992 0.04013 0.0
H720 H 0.64378 0.16419 0.04548 0.0
H721 H 0.4857 0.10937 0.0529 0.0
H722 H 0.59157 0.02874 0.03808 0.0
H723 H 0.36842 0.93051 0.98492 0.0
H724 H 0.6621 0.12507 0.0423 0.0
H725 H 0.5404 0.94515 0.97947 0.0
H726 H 0.42471 0.97197 0.98727 0.0
H727 H 0.53188 0.89259 0.9732 0.0
H728 H 0.59957 0.17492 0.04917 0.0
H729 H 0.35476 0.87546 0.98282 0.0
H730 H 0.37353 0.83667 0.97987 0.0
H731 H 0.54056 0.15456 0.05232 0.0
H732 H 0.41806 0.82636 0.97645 0.0
N733 N 0.4428 0.94074 0.98722 0.0
C734 C 0.41913 0.94808 0.98637 0.0
C735 C 0.37953 0.89358 0.98392 0.0
C736 C 0.40407 0.88641 0.98349 0.0
C737 C 0.38715 0.92462 0.98503 0.0
C738 C 0.43591 0.91088 0.98504 0.0
H739 H 0.47718 0.84714 0.97356 0.0
N740 N 0.49111 0.92946 0.98371 0.0
C741 C 0.5117 0.89574 0.97608 0.0
C742 C 0.46087 0.90506 0.98315 0.0
C743 C 0.51644 0.92547 0.97961 0.0
C744 C 0.48079 0.87014 0.97634 0.0
C745 C 0.45485 0.87464 0.97963 0.0
O746 O 0.52606 0.99293 0.96501 0.0
O747 O 0.53362 0.02016 1.00619 0.0
O748 O 0.51216 0.05211 0.01409 0.0
O749 O 0.48003 0.01403 0.99239 0.0
O750 O 0.55074 0.99757 0.98974 0.0
O751 O 0.47948 0.98874 0.96478 0.0
O752 O 0.49093 0.00921 0.06111 0.0
O753 O 0.48252 0.98116 0.01965 0.0
O754 O 0.50393 0.94897 0.01179 0.0
O755 O 0.53631 0.98716 0.03333 0.0
O756 O 0.4658 0.00409 0.03615 0.0
O757 O 0.53647 0.01117 0.06077 0.0
C758 C 0.55883 0.02111 1.00056 0.0
C759 C 0.49932 0.98102 0.93612 0.0
C760 C 0.50583 0.98786 0.90227 0.0
C761 C 0.50827 0.00039 0.92026 0.0
C762 C 0.4939 0.95574 0.90037 0.0
C763 C 0.48708 0.94898 0.93384 0.0
C764 C 0.48436 0.93646 0.91604 0.0
C765 C 0.49252 0.0424 0.9996 0.0
C766 C 0.50463 0.99468 0.95496 0.0
C767 C 0.42319 0.84995 0.97896 0.0
C768 C 0.39783 0.85582 0.98091 0.0
C769 C 0.45748 0.98064 0.02522 0.0
C770 C 0.51858 0.02017 0.08971 0.0
C771 C 0.50873 0.00089 0.10564 0.0
C772 C 0.51292 0.01392 0.12362 0.0
C773 C 0.52744 0.04636 0.12546 0.0
C774 C 0.53338 0.05251 0.09192 0.0
C775 C 0.53781 0.06548 0.10971 0.0
C776 C 0.52371 0.95874 0.02621 0.0
C777 C 0.51198 0.00634 0.07088 0.0
H778 H 0.51788 0.02521 0.92195 0.0
H779 H 0.49169 0.94551 0.8867 0.0
H780 H 0.48 0.93373 0.94582 0.0
H781 H 0.47505 0.91172 0.91439 0.0
H782 H 0.49714 0.97586 0.10403 0.0
H783 H 0.53091 0.05692 0.13912 0.0
H784 H 0.54119 0.06768 0.07989 0.0
H785 H 0.54909 0.09046 0.11131 0.0
Eu786 Eu 0.03144 0.51199 0.99269 0.0
C787 C 0.9027 0.45717 0.03632 0.0
C788 C 0.88706 0.49629 0.03324 0.0
C789 C 0.84645 0.44185 0.03642 0.0
C790 C 0.91094 0.48792 0.03402 0.0
C791 C 0.87041 0.43387 0.03811 0.0
C792 C 0.85477 0.47301 0.03395 0.0
C793 C 0.88804 0.39718 0.04495 0.0
N794 N 0.92643 0.45032 0.03808 0.0
C795 C 0.91971 0.42109 0.04305 0.0
C796 C 0.86324 0.40348 0.04219 0.0
Eu797 Eu 0.97934 0.49181 0.03433 0.0
N798 N 0.94236 0.50985 0.03367 0.0
C799 C 0.95156 0.54071 0.03407 0.0
C800 C 0.89639 0.52787 0.03242 0.0
C801 C 0.92877 0.55018 0.03317 0.0
H802 H 0.93881 0.41609 0.0451 0.0
H803 H 0.93623 0.57468 0.03295 0.0
H804 H 0.83608 0.47895 0.03318 0.0
H805 H 0.88278 0.3739 0.04849 0.0
H806 H 0.97653 0.55817 0.03452 0.0
H807 H 0.07529 0.42969 0.99321 0.0
H808 H 0.87879 0.53526 0.03173 0.0
H809 H 0.0715 0.58793 0.98247 0.0
H810 H 0.03472 0.44588 0.99201 0.0
H811 H 0.12742 0.6304 0.97909 0.0
H812 H 0.82148 0.42424 0.03754 0.0
H813 H 0.13266 0.46935 0.99436 0.0
H814 H 0.1751 0.52577 0.9931 0.0
H815 H 0.83873 0.38494 0.04371 0.0
H816 H 0.18934 0.58045 0.98911 0.0
N817 N 0.06867 0.49425 0.99302 0.0
C818 C 0.05966 0.46344 0.99245 0.0
C819 C 0.11494 0.4766 0.99384 0.0
C820 C 0.12406 0.50814 0.9932 0.0
C821 C 0.08259 0.45415 0.99314 0.0
C822 C 0.10003 0.51633 0.99265 0.0
H823 H 0.17171 0.6196 0.98344 0.0
N824 N 0.08421 0.55378 0.98903 0.0
C825 C 0.12232 0.60711 0.98243 0.0
C826 C 0.10807 0.54707 0.99056 0.0
C827 C 0.09071 0.58304 0.98432 0.0
C828 C 0.14726 0.60093 0.98494 0.0
C829 C 0.1403 0.57053 0.98878 0.0
O830 O 0.0258 0.52846 0.96558 0.0
O831 O 0.98722 0.50795 1.0049 0.0
O832 O 0.95138 0.45632 0.01209 0.0
O833 O 0.99277 0.46041 0.99321 0.0
O834 O 0.01383 0.5464 0.98849 0.0
O835 O 0.02486 0.48448 0.96751 0.0
O836 O 0.98543 0.47559 0.06142 0.0
O837 O 0.02346 0.49556 0.0221 0.0
O838 O 0.05955 0.54699 0.01511 0.0
O839 O 0.01821 0.54336 0.03379 0.0
O840 O 0.99636 0.45701 0.03843 0.0
O841 O 0.98556 0.51917 0.05954 0.0
C842 C 0.98788 0.53163 0.99805 0.0
C843 C 0.04416 0.51317 0.93954 0.0
C844 C 0.04746 0.51545 0.90564 0.0
C845 C 0.02919 0.50574 0.92206 0.0
C846 C 0.0809 0.53241 0.90682 0.0
C847 C 0.0776 0.52965 0.94053 0.0
C848 C 0.09586 0.53919 0.92422 0.0
C849 C 0.96247 0.44573 0.99876 0.0
C850 C 0.02449 0.50514 0.95645 0.0
C851 C 0.16441 0.56271 0.99023 0.0
C852 C 0.1563 0.53157 0.99249 0.0
C853 C 0.02231 0.47158 0.02884 0.0
C854 C 0.96673 0.49039 0.08752 0.0
C855 C 0.98175 0.4973 0.10498 0.0
C856 C 0.96354 0.48732 0.12142 0.0
C857 C 0.93009 0.47055 0.12026 0.0
C858 C 0.93328 0.47413 0.08656 0.0
C859 C 0.91508 0.46427 0.10288 0.0
C860 C 0.04857 0.55778 0.02836 0.0
C861 C 0.98635 0.49871 0.07057 0.0
H862 H 1.00333 0.49314 0.92124 0.0
H863 H 0.09537 0.54012 0.8943 0.0
H864 H 0.08957 0.53542 0.95384 0.0
H865 H 0.12165 0.55209 0.92508 0.0
H866 H 0.00761 0.50973 0.10576 0.0
H867 H 0.91565 0.46265 0.13279 0.0
H868 H 0.92127 0.46877 0.07326 0.0
H869 H 0.88928 0.45155 0.10205 0.0
Eu870 Eu 0.5163 0.48731 0.03466 0.0
C871 C 0.45056 0.54511 0.98763 0.0
C872 C 0.39438 0.50627 0.98816 0.0
C873 C 0.41059 0.56107 0.98605 0.0
C874 C 0.42677 0.51431 0.98874 0.0
C875 C 0.44278 0.56882 0.9859 0.0
C876 C 0.38643 0.52984 0.9872 0.0
C877 C 0.4991 0.60581 0.98263 0.0
N878 N 0.48138 0.55177 0.98742 0.0
C879 C 0.5056 0.58146 0.98431 0.0
C880 C 0.46757 0.59952 0.98364 0.0
Eu881 Eu 0.49057 0.5096 0.99154 0.0
N882 N 0.43528 0.49212 0.98955 0.0
C883 C 0.41265 0.46137 0.98843 0.0
C884 C 0.371 0.47475 0.98809 0.0
C885 C 0.38021 0.45222 0.98794 0.0
H886 H 0.53002 0.58645 0.98363 0.0
H887 H 0.36234 0.42778 0.98754 0.0
H888 H 0.36168 0.52414 0.98691 0.0
H889 H 0.51839 0.62939 0.98058 0.0
H890 H 0.41943 0.44371 0.98844 0.0
H891 H 0.64514 0.5665 0.0381 0.0
H892 H 0.34586 0.4676 0.98772 0.0
H893 H 0.4752 0.41115 0.04456 0.0
H894 H 0.58842 0.55203 0.03723 0.0
H895 H 0.48528 0.36751 0.04918 0.0
H896 H 0.40412 0.57898 0.9849 0.0
H897 H 0.66007 0.52556 0.03855 0.0
H898 H 0.64264 0.4687 0.0404 0.0
H899 H 0.46258 0.61841 0.98228 0.0
H900 H 0.59912 0.41451 0.04362 0.0
N901 N 0.57129 0.50336 0.03655 0.0
C902 C 0.59455 0.53391 0.03745 0.0
C903 C 0.6351 0.51906 0.03813 0.0
C904 C 0.61106 0.48779 0.03846 0.0
C905 C 0.62677 0.54223 0.03794 0.0
C906 C 0.57894 0.48061 0.03778 0.0
H907 H 0.54041 0.37664 0.0473 0.0
N908 N 0.52402 0.44443 0.03974 0.0
C909 C 0.50496 0.39062 0.04637 0.0
C910 C 0.55453 0.45017 0.0395 0.0
C911 C 0.49934 0.41538 0.04376 0.0
C912 C 0.53611 0.39585 0.04525 0.0
C913 C 0.56143 0.42599 0.04205 0.0
O914 O 0.4894 0.47218 0.06069 0.0
O915 O 0.47808 0.49218 0.02059 0.0
O916 O 0.49585 0.54333 0.01426 0.0
O917 O 0.53259 0.53929 0.0334 0.0
O918 O 0.46292 0.45307 0.0367 0.0
O919 O 0.53571 0.51389 0.06046 0.0
O920 O 0.51705 0.52693 0.96552 0.0
O921 O 0.52897 0.50473 1.00548 0.0
O922 O 0.5101 0.45241 0.01248 0.0
O923 O 0.47549 0.45794 0.99221 0.0
O924 O 0.5437 0.54422 0.98962 0.0
O925 O 0.47244 0.48324 0.96558 0.0
C926 C 0.45349 0.4683 0.02651 0.0
C927 C 0.51859 0.48511 0.08861 0.0
C928 C 0.51273 0.48181 0.12249 0.0
C929 C 0.50882 0.49295 0.10524 0.0
C930 C 0.52687 0.46304 0.12292 0.0
C931 C 0.53309 0.46674 0.08933 0.0
C932 C 0.53722 0.45581 0.10643 0.0
C933 C 0.51757 0.55396 0.02761 0.0
C934 C 0.51151 0.49449 0.07062 0.0
C935 C 0.59334 0.43281 0.04187 0.0
C936 C 0.61812 0.46366 0.04004 0.0
C937 C 0.55334 0.52892 0.99959 0.0
C938 C 0.48796 0.51236 0.93752 0.0
C939 C 0.49819 0.50494 0.92092 0.0
C940 C 0.49337 0.51527 0.90362 0.0
C941 C 0.47776 0.5327 0.90311 0.0
C942 C 0.47206 0.52944 0.93675 0.0
C943 C 0.46693 0.53948 0.91959 0.0
C944 C 0.48964 0.44265 0.99842 0.0
C945 C 0.49598 0.5039 0.95551 0.0
H946 H 0.49743 0.50701 0.10472 0.0
H947 H 0.53023 0.45428 0.13604 0.0
H948 H 0.54083 0.46054 0.0767 0.0
H949 H 0.54827 0.44149 0.10689 0.0
H950 H 0.51073 0.49196 0.9215 0.0
H951 H 0.47374 0.54087 0.88995 0.0
H952 H 0.46403 0.53536 0.9494 0.0
H953 H 0.45481 0.55281 0.91907 0.0
Eu954 Eu 0.16249 0.31192 0.32412 0.0
C955 C 0.2232 0.42951 0.37617 0.0
C956 C 0.27973 0.44699 0.37535 0.0
C957 C 0.26191 0.48442 0.38008 0.0
C958 C 0.24763 0.42299 0.37406 0.0
C959 C 0.23001 0.46019 0.37964 0.0
C960 C 0.28674 0.47783 0.37791 0.0
C961 C 0.17341 0.44026 0.38356 0.0
N962 N 0.19272 0.40553 0.37584 0.0
C963 C 0.1679 0.41024 0.38007 0.0
C964 C 0.20458 0.46542 0.3831 0.0
Eu965 Eu 0.18505 0.35561 0.36898 0.0
N966 N 0.23998 0.39291 0.37188 0.0
C967 C 0.26319 0.38492 0.37243 0.0
C968 C 0.30375 0.43912 0.37464 0.0
C969 C 0.2954 0.40788 0.3735 0.0
H970 H 0.14374 0.39092 0.38035 0.0
H971 H 0.31374 0.40147 0.37338 0.0
H972 H 0.31125 0.49662 0.37875 0.0
H973 H 0.15362 0.44398 0.38655 0.0
H974 H 0.25707 0.36088 0.37147 0.0
H975 H 0.0339 0.26547 0.3182 0.0
H976 H 0.32871 0.45686 0.37552 0.0
H977 H 0.20461 0.27697 0.31371 0.0
H978 H 0.09044 0.30629 0.32069 0.0
H979 H 0.1952 0.22403 0.30771 0.0
H980 H 0.26764 0.50819 0.38255 0.0
H981 H 0.01933 0.21017 0.31614 0.0
H982 H 0.03719 0.17067 0.3134 0.0
H983 H 0.2088 0.48864 0.38585 0.0
H984 H 0.08112 0.1594 0.31033 0.0
N985 N 0.10776 0.27444 0.32073 0.0
C986 C 0.08446 0.28228 0.31979 0.0
C987 C 0.04422 0.22801 0.31729 0.0
C988 C 0.06838 0.22032 0.31698 0.0
C989 C 0.05235 0.25919 0.31838 0.0
C990 C 0.10038 0.24443 0.3186 0.0
H991 H 0.1401 0.17921 0.30783 0.0
N992 N 0.15543 0.26213 0.31757 0.0
C993 C 0.17524 0.22763 0.31036 0.0
C994 C 0.125 0.23807 0.3169 0.0
C995 C 0.18049 0.25758 0.31374 0.0
C996 C 0.14411 0.20238 0.31049 0.0
C997 C 0.11847 0.20746 0.31351 0.0
O998 O 0.19106 0.32518 0.2986 0.0
O999 O 0.19927 0.35302 0.33975 0.0
O1000 O 0.17856 0.38561 0.34769 0.0
O1001 O 0.14596 0.34768 0.32603 0.0
O1002 O 0.21578 0.32993 0.32329 0.0
O1003 O 0.1451 0.3224 0.29844 0.0
O1004 O 0.15735 0.3431 0.39485 0.0
O1005 O 0.14799 0.3148 0.35326 0.0
O1006 O 0.16797 0.28162 0.34563 0.0
O1007 O 0.20146 0.3198 0.36682 0.0
O1008 O 0.13189 0.33799 0.37001 0.0
O1009 O 0.20232 0.34387 0.3942 0.0
C1010 C 0.22426 0.3536 0.33407 0.0
C1011 C 0.1642 0.31382 0.26976 0.0
C1012 C 0.17027 0.32048 0.23588 0.0
C1013 C 0.17314 0.33314 0.25387 0.0
C1014 C 0.15792 0.28829 0.234 0.0
C1015 C 0.15155 0.28172 0.26751 0.0
C1016 C 0.1484 0.26907 0.2497 0.0
C1017 C 0.15885 0.3761 0.33323 0.0
C1018 C 0.16998 0.32759 0.28858 0.0
C1019 C 0.08664 0.18313 0.31274 0.0
C1020 C 0.06163 0.18954 0.3145 0.0
C1021 C 0.12319 0.31463 0.35895 0.0
C1022 C 0.18543 0.35358 0.42327 0.0
C1023 C 0.17577 0.33435 0.43922 0.0
C1024 C 0.18068 0.34748 0.45721 0.0
C1025 C 0.19569 0.37995 0.45903 0.0
C1026 C 0.20074 0.38595 0.42546 0.0
C1027 C 0.20587 0.39902 0.44326 0.0
C1028 C 0.18791 0.29115 0.35996 0.0
C1029 C 0.1782 0.33966 0.40446 0.0
H1030 H 0.18308 0.358 0.25553 0.0
H1031 H 0.15539 0.27797 0.22033 0.0
H1032 H 0.1445 0.26651 0.2795 0.0
H1033 H 0.13877 0.24428 0.24807 0.0
H1034 H 0.1638 0.30929 0.43763 0.0
H1035 H 0.19968 0.39057 0.47271 0.0
H1036 H 0.20842 0.40108 0.41341 0.0
H1037 H 0.21754 0.42402 0.44484 0.0
Eu1038 Eu 0.697 0.84491 0.3267 0.0
C1039 C 0.56741 0.79004 0.36984 0.0
C1040 C 0.55124 0.82866 0.36609 0.0
C1041 C 0.51102 0.77418 0.3697 0.0
C1042 C 0.57534 0.82063 0.36716 0.0
C1043 C 0.5352 0.76657 0.37169 0.0
C1044 C 0.51903 0.80518 0.36687 0.0
C1045 C 0.55334 0.73048 0.37915 0.0
N1046 N 0.59136 0.78356 0.37188 0.0
C1047 C 0.58492 0.75456 0.37717 0.0
C1048 C 0.52834 0.73639 0.37612 0.0
Eu1049 Eu 0.64412 0.8253 0.36796 0.0
N1050 N 0.60668 0.84277 0.36678 0.0
C1051 C 0.61556 0.87356 0.36686 0.0
C1052 C 0.56025 0.86014 0.36493 0.0
C1053 C 0.59255 0.8827 0.36565 0.0
H1054 H 0.60415 0.74983 0.37945 0.0
H1055 H 0.59977 0.90713 0.36518 0.0
H1056 H 0.50017 0.81086 0.36587 0.0
H1057 H 0.54831 0.70737 0.38296 0.0
H1058 H 0.64046 0.8912 0.3673 0.0
H1059 H 0.73851 0.76076 0.32664 0.0
H1060 H 0.54247 0.86728 0.364 0.0
H1061 H 0.73891 0.92173 0.31893 0.0
H1062 H 0.69879 0.778 0.32539 0.0
H1063 H 0.79534 0.96379 0.3176 0.0
H1064 H 0.48611 0.75642 0.37086 0.0
H1065 H 0.79606 0.79958 0.3286 0.0
H1066 H 0.8393 0.85573 0.32867 0.0
H1067 H 0.5039 0.71771 0.37769 0.0
H1068 H 0.85479 0.91096 0.32617 0.0
N1069 N 0.73338 0.82614 0.32697 0.0
C1070 C 0.72381 0.79522 0.32612 0.0
C1071 C 0.77872 0.80731 0.32799 0.0
C1072 C 0.78846 0.83901 0.32783 0.0
C1073 C 0.74627 0.78533 0.32685 0.0
C1074 C 0.7649 0.84781 0.32713 0.0
H1075 H 0.83858 0.95144 0.3218 0.0
N1076 N 0.7503 0.88629 0.32427 0.0
C1077 C 0.78956 0.94001 0.31998 0.0
C1078 C 0.77364 0.87885 0.32577 0.0
C1079 C 0.75769 0.91619 0.32068 0.0
C1080 C 0.8139 0.93296 0.3224 0.0
C1081 C 0.80612 0.90201 0.32504 0.0
O1082 O 0.69357 0.86297 0.29968 0.0
O1083 O 0.65261 0.84114 0.33843 0.0
O1084 O 0.6164 0.78934 0.34589 0.0
O1085 O 0.65787 0.79347 0.32701 0.0
O1086 O 0.67986 0.87961 0.32213 0.0
O1087 O 0.69007 0.81775 0.30131 0.0
O1088 O 0.65101 0.81041 0.39529 0.0
O1089 O 0.68807 0.82843 0.356 0.0
O1090 O 0.72456 0.87853 0.34978 0.0
O1091 O 0.68269 0.877 0.36679 0.0
O1092 O 0.66111 0.79053 0.37274 0.0
O1093 O 0.64991 0.8533 0.3928 0.0
C1094 C 0.65358 0.86485 0.33141 0.0
C1095 C 0.71069 0.84668 0.27351 0.0
C1096 C 0.71358 0.8477 0.2396 0.0
C1097 C 0.69554 0.83847 0.25611 0.0
C1098 C 0.74704 0.86492 0.24066 0.0
C1099 C 0.74413 0.86348 0.27442 0.0
C1100 C 0.7622 0.87249 0.25802 0.0
C1101 C 0.62759 0.77874 0.33262 0.0
C1102 C 0.6911 0.83925 0.29041 0.0
C1103 C 0.82969 0.89348 0.32652 0.0
C1104 C 0.82087 0.86204 0.32793 0.0
C1105 C 0.68693 0.80462 0.36299 0.0
C1106 C 0.63164 0.8252 0.42105 0.0
C1107 C 0.6466 0.83166 0.43851 0.0
C1108 C 0.62833 0.82162 0.45493 0.0
C1109 C 0.59488 0.80523 0.45373 0.0
C1110 C 0.59821 0.80931 0.42004 0.0
C1111 C 0.57993 0.79938 0.43634 0.0
C1112 C 0.71334 0.89047 0.36211 0.0
C1113 C 0.65132 0.83349 0.40412 0.0
H1114 H 0.66967 0.82571 0.25539 0.0
H1115 H 0.76137 0.87229 0.22807 0.0
H1116 H 0.7562 0.87 0.28771 0.0
H1117 H 0.78799 0.88563 0.25877 0.0
H1118 H 0.67245 0.84379 0.43931 0.0
H1119 H 0.58039 0.79728 0.46624 0.0
H1120 H 0.58626 0.80429 0.40673 0.0
H1121 H 0.55414 0.78694 0.43549 0.0
Eu1122 Eu 0.1816 0.82149 0.36825 0.0
C1123 C 0.1196 0.88189 0.31999 0.0
C1124 C 0.06319 0.84378 0.32043 0.0
C1125 C 0.08039 0.89872 0.31748 0.0
C1126 C 0.0954 0.85131 0.32136 0.0
C1127 C 0.11241 0.9059 0.31756 0.0
C1128 C 0.05582 0.86771 0.31895 0.0
C1129 C 0.16888 0.94186 0.31381 0.0
N1130 N 0.15023 0.88798 0.31998 0.0
C1131 C 0.1748 0.91725 0.31628 0.0
C1132 C 0.13758 0.93625 0.31471 0.0
Eu1133 Eu 0.15844 0.84539 0.32487 0.0
N1134 N 0.10337 0.82877 0.3225 0.0
C1135 C 0.08041 0.79815 0.32129 0.0
C1136 C 0.03942 0.8124 0.32041 0.0
C1137 C 0.04811 0.78949 0.32053 0.0
H1138 H 0.19904 0.92174 0.31566 0.0
H1139 H 0.02995 0.76515 0.32011 0.0
H1140 H 0.03121 0.8624 0.3184 0.0
H1141 H 0.18846 0.96513 0.31127 0.0
H1142 H 0.08682 0.78022 0.32147 0.0
H1143 H 0.31027 0.90051 0.37354 0.0
H1144 H 0.01439 0.80564 0.31979 0.0
H1145 H 0.13997 0.74506 0.37725 0.0
H1146 H 0.25362 0.88614 0.37185 0.0
H1147 H 0.14979 0.70125 0.38192 0.0
H1148 H 0.07437 0.91687 0.31581 0.0
H1149 H 0.3251 0.85951 0.37422 0.0
H1150 H 0.30754 0.80259 0.37579 0.0
H1151 H 0.13305 0.95534 0.31276 0.0
H1152 H 0.26386 0.74835 0.37828 0.0
N1153 N 0.23647 0.83747 0.37093 0.0
C1154 C 0.25971 0.86799 0.37216 0.0
C1155 C 0.30016 0.85305 0.37344 0.0
C1156 C 0.2761 0.82178 0.37341 0.0
C1157 C 0.29188 0.87625 0.37312 0.0
C1158 C 0.24403 0.81466 0.37226 0.0
H1159 H 0.20499 0.71041 0.38096 0.0
N1160 N 0.18902 0.77845 0.37332 0.0
C1161 C 0.16961 0.72444 0.37949 0.0
C1162 C 0.21953 0.78418 0.37358 0.0
C1163 C 0.16413 0.74929 0.37686 0.0
C1164 C 0.2008 0.72969 0.37889 0.0
C1165 C 0.22628 0.75991 0.37617 0.0
O1166 O 0.15361 0.80518 0.39385 0.0
O1167 O 0.1443 0.82741 0.35376 0.0
O1168 O 0.16425 0.87992 0.34726 0.0
O1169 O 0.19783 0.87336 0.3678 0.0
O1170 O 0.1282 0.78737 0.36916 0.0
O1171 O 0.19968 0.84723 0.39442 0.0
O1172 O 0.18597 0.86219 0.29912 0.0
O1173 O 0.19593 0.83972 0.33935 0.0
O1174 O 0.17656 0.78741 0.34587 0.0
O1175 O 0.14287 0.79355 0.32519 0.0
O1176 O 0.21168 0.87972 0.32388 0.0
O1177 O 0.14048 0.8195 0.29875 0.0
C1178 C 0.11939 0.80332 0.35917 0.0
C1179 C 0.18142 0.81778 0.42227 0.0
C1180 C 0.17512 0.81517 0.45612 0.0
C1181 C 0.17185 0.82631 0.43872 0.0
C1182 C 0.18844 0.79569 0.45689 0.0
C1183 C 0.19506 0.79869 0.42331 0.0
C1184 C 0.19857 0.78775 0.44057 0.0
C1185 C 0.18419 0.8891 0.36157 0.0
C1186 C 0.17509 0.82737 0.40415 0.0
C1187 C 0.25817 0.76671 0.37649 0.0
C1188 C 0.28304 0.7976 0.37507 0.0
C1189 C 0.22069 0.86401 0.33394 0.0
C1190 C 0.15748 0.84906 0.2709 0.0
C1191 C 0.16738 0.84132 0.25429 0.0
C1192 C 0.1632 0.85221 0.23702 0.0
C1193 C 0.14863 0.8706 0.23655 0.0
C1194 C 0.14255 0.86704 0.27015 0.0
C1195 C 0.13813 0.8777 0.25303 0.0
C1196 C 0.1567 0.77804 0.33153 0.0
C1197 C 0.16463 0.83976 0.28889 0.0
H1198 H 0.16111 0.84092 0.43793 0.0
H1199 H 0.19132 0.78693 0.47013 0.0
H1200 H 0.20263 0.79195 0.41082 0.0
H1201 H 0.20897 0.77288 0.44129 0.0
H1202 H 0.1791 0.82757 0.25483 0.0
H1203 H 0.1451 0.87919 0.22341 0.0
H1204 H 0.13467 0.87312 0.28277 0.0
H1205 H 0.12676 0.89173 0.25254 0.0
Eu1206 Eu 0.82877 0.6449 0.65728 0.0
C1207 C 0.89019 0.76236 0.70952 0.0
C1208 C 0.94658 0.7792 0.70904 0.0
C1209 C 0.92933 0.8171 0.7136 0.0
C1210 C 0.91439 0.75548 0.70758 0.0
C1211 C 0.89732 0.79313 0.71299 0.0
C1212 C 0.95393 0.81015 0.7116 0.0
C1213 C 0.84077 0.77381 0.71659 0.0
N1214 N 0.85959 0.73863 0.70903 0.0
C1215 C 0.83494 0.74368 0.71311 0.0
C1216 C 0.87208 0.79872 0.71629 0.0
Eu1217 Eu 0.85137 0.68849 0.7022 0.0
N1218 N 0.9064 0.72531 0.70539 0.0
C1219 C 0.92932 0.71695 0.70609 0.0
C1220 C 0.97033 0.77097 0.7085 0.0
C1221 C 0.96161 0.73963 0.70734 0.0
H1222 H 0.81067 0.72454 0.71326 0.0
H1223 H 0.97974 0.73293 0.70733 0.0
H1224 H 0.97853 0.82873 0.71258 0.0
H1225 H 0.82112 0.77779 0.71945 0.0
H1226 H 0.92292 0.69283 0.70512 0.0
H1227 H 0.7003 0.59908 0.65127 0.0
H1228 H 0.99535 0.78849 0.70951 0.0
H1229 H 0.87059 0.60962 0.64687 0.0
H1230 H 0.7569 0.63967 0.65385 0.0
H1231 H 0.86089 0.55662 0.64077 0.0
H1232 H 0.93531 0.84095 0.71608 0.0
H1233 H 0.68544 0.54372 0.64908 0.0
H1234 H 0.70301 0.50401 0.64624 0.0
H1235 H 0.87655 0.82203 0.71903 0.0
H1236 H 0.74675 0.49247 0.64316 0.0
N1237 N 0.77398 0.60764 0.65381 0.0
C1238 C 0.7508 0.61564 0.6529 0.0
C1239 C 0.71035 0.56145 0.65027 0.0
C1240 C 0.7344 0.5536 0.64994 0.0
C1241 C 0.71864 0.59267 0.65144 0.0
C1242 C 0.76644 0.57759 0.65161 0.0
H1243 H 0.80568 0.512 0.64074 0.0
N1244 N 0.82144 0.59503 0.65064 0.0
C1245 C 0.84101 0.56034 0.64341 0.0
C1246 C 0.79096 0.57108 0.6499 0.0
C1247 C 0.84641 0.59033 0.64684 0.0
C1248 C 0.80981 0.5352 0.64345 0.0
C1249 C 0.78427 0.54043 0.64646 0.0
O1250 O 0.85749 0.65834 0.63182 0.0
O1251 O 0.8657 0.68574 0.67303 0.0
O1252 O 0.84534 0.71871 0.68084 0.0
O1253 O 0.8125 0.6808 0.65925 0.0
O1254 O 0.88197 0.66244 0.65655 0.0
O1255 O 0.81158 0.65563 0.63161 0.0
O1256 O 0.82359 0.67644 0.72804 0.0
O1257 O 0.81418 0.6479 0.6864 0.0
O1258 O 0.83373 0.61431 0.67879 0.0
O1259 O 0.86723 0.65227 0.7001 0.0
O1260 O 0.7983 0.67129 0.70313 0.0
O1261 O 0.86796 0.67602 0.72743 0.0
C1262 C 0.89058 0.68604 0.66741 0.0
C1263 C 0.83085 0.64732 0.60291 0.0
C1264 C 0.83702 0.65429 0.56904 0.0
C1265 C 0.83979 0.66678 0.58709 0.0
C1266 C 0.82477 0.62213 0.56707 0.0
C1267 C 0.81829 0.61525 0.60055 0.0
C1268 C 0.81524 0.60277 0.58271 0.0
C1269 C 0.82559 0.70925 0.66639 0.0
C1270 C 0.83651 0.66089 0.62179 0.0
C1271 C 0.75239 0.51622 0.64562 0.0
C1272 C 0.72749 0.52279 0.64738 0.0
C1273 C 0.78946 0.64793 0.69206 0.0
C1274 C 0.85148 0.68616 0.75649 0.0
C1275 C 0.84168 0.66683 0.7724 0.0
C1276 C 0.84691 0.67989 0.79042 0.0
C1277 C 0.86235 0.71237 0.79233 0.0
C1278 C 0.86721 0.71854 0.75875 0.0
C1279 C 0.87264 0.73152 0.77659 0.0
C1280 C 0.8535 0.62363 0.6932 0.0
C1281 C 0.84401 0.67236 0.73766 0.0
H1282 H 0.84965 0.69161 0.58883 0.0
H1283 H 0.82232 0.61194 0.55336 0.0
H1284 H 0.81124 0.59993 0.6125 0.0
H1285 H 0.80569 0.57801 0.58099 0.0
H1286 H 0.8294 0.64178 0.77076 0.0
H1287 H 0.86657 0.72291 0.80604 0.0
H1288 H 0.87499 0.73374 0.74674 0.0
H1289 H 0.88464 0.75653 0.77823 0.0
Eu1290 Eu 0.3665 0.17903 0.6605 0.0
C1291 C 0.23539 0.12434 0.70122 0.0
C1292 C 0.21997 0.16364 0.69824 0.0
C1293 C 0.1792 0.10901 0.69961 0.0
C1294 C 0.24378 0.15524 0.69952 0.0
C1295 C 0.203 0.1009 0.70167 0.0
C1296 C 0.18767 0.14033 0.69788 0.0
C1297 C 0.22004 0.0635 0.70766 0.0
N1298 N 0.25895 0.11733 0.7033 0.0
C1299 C 0.25181 0.0876 0.70722 0.0
C1300 C 0.19552 0.07012 0.70465 0.0
Eu1301 Eu 0.31212 0.15911 0.70115 0.0
N1302 N 0.27518 0.17717 0.69997 0.0
C1303 C 0.28435 0.20802 0.70057 0.0
C1304 C 0.22932 0.19525 0.69781 0.0
C1305 C 0.26163 0.21752 0.69929 0.0
H1306 H 0.2707 0.08236 0.70943 0.0
H1307 H 0.26909 0.24202 0.69929 0.0
H1308 H 0.16905 0.14632 0.69671 0.0
H1309 H 0.21448 0.03986 0.7103 0.0
H1310 H 0.30927 0.22545 0.70153 0.0
H1311 H 0.41042 0.09679 0.66144 0.0
H1312 H 0.21179 0.20267 0.69676 0.0
H1313 H 0.40734 0.25593 0.65265 0.0
H1314 H 0.36991 0.11298 0.65967 0.0
H1315 H 0.46342 0.2987 0.65164 0.0
H1316 H 0.15417 0.09131 0.69974 0.0
H1317 H 0.46768 0.13642 0.66373 0.0
H1318 H 0.5101 0.19287 0.66386 0.0
H1319 H 0.17091 0.05142 0.70506 0.0
H1320 H 0.52454 0.24781 0.66115 0.0
N1321 N 0.40375 0.16132 0.66129 0.0
C1322 C 0.3948 0.13054 0.66055 0.0
C1323 C 0.44999 0.14368 0.66289 0.0
C1324 C 0.4591 0.17523 0.66262 0.0
C1325 C 0.4177 0.12125 0.66156 0.0
C1326 C 0.43511 0.18342 0.66162 0.0
H1327 H 0.50733 0.28745 0.65635 0.0
N1328 N 0.41951 0.2211 0.65832 0.0
C1329 C 0.45807 0.27507 0.65411 0.0
C1330 C 0.44325 0.21428 0.66012 0.0
C1331 C 0.42638 0.25082 0.65463 0.0
C1332 C 0.48279 0.26864 0.65682 0.0
C1333 C 0.47557 0.23789 0.65958 0.0
O1334 O 0.36224 0.19596 0.63327 0.0
O1335 O 0.32202 0.17553 0.67183 0.0
O1336 O 0.2855 0.12503 0.6781 0.0
O1337 O 0.32795 0.12728 0.6612 0.0
O1338 O 0.34922 0.21358 0.65531 0.0
O1339 O 0.36081 0.15173 0.63533 0.0
O1340 O 0.31645 0.14222 0.72839 0.0
O1341 O 0.3565 0.16238 0.6898 0.0
O1342 O 0.39329 0.21274 0.68371 0.0
O1343 O 0.35091 0.21076 0.70049 0.0
O1344 O 0.329 0.1243 0.70632 0.0
O1345 O 0.31747 0.18625 0.72635 0.0
C1346 C 0.32298 0.19912 0.66466 0.0
C1347 C 0.38096 0.18063 0.60745 0.0
C1348 C 0.38455 0.18354 0.57341 0.0
C1349 C 0.36624 0.17346 0.58991 0.0
C1350 C 0.4181 0.20038 0.57495 0.0
C1351 C 0.41432 0.1971 0.60866 0.0
C1352 C 0.43277 0.2068 0.59245 0.0
C1353 C 0.29726 0.1134 0.66588 0.0
C1354 C 0.36097 0.17259 0.62422 0.0
C1355 C 0.49957 0.22998 0.66136 0.0
C1356 C 0.49134 0.1987 0.66289 0.0
C1357 C 0.3552 0.1386 0.69693 0.0
C1358 C 0.29734 0.15719 0.75418 0.0
C1359 C 0.3119 0.16401 0.77177 0.0
C1360 C 0.2933 0.15377 0.78806 0.0
C1361 C 0.25989 0.13691 0.7866 0.0
C1362 C 0.26393 0.14074 0.7529 0.0
C1363 C 0.24532 0.13072 0.76907 0.0
C1364 C 0.38165 0.22445 0.69595 0.0
C1365 C 0.31746 0.16545 0.73746 0.0
H1366 H 0.34042 0.16013 0.58925 0.0
H1367 H 0.43312 0.20918 0.56271 0.0
H1368 H 0.42606 0.20283 0.62207 0.0
H1369 H 0.45855 0.21982 0.59344 0.0
H1370 H 0.33774 0.17647 0.77277 0.0
H1371 H 0.24513 0.12878 0.799 0.0
H1372 H 0.2523 0.13528 0.73945 0.0
H1373 H 0.21955 0.11785 0.76802 0.0
Eu1374 Eu 0.84963 0.15443 0.70091 0.0
C1375 C 0.78741 0.21479 0.65267 0.0
C1376 C 0.73097 0.17678 0.65324 0.0
C1377 C 0.74828 0.23173 0.65021 0.0
C1378 C 0.76317 0.18423 0.6541 0.0
C1379 C 0.78028 0.23884 0.65024 0.0
C1380 C 0.72367 0.20075 0.65175 0.0
C1381 C 0.83676 0.27469 0.64643 0.0
N1382 N 0.81801 0.2208 0.65261 0.0
C1383 C 0.84261 0.25004 0.6489 0.0
C1384 C 0.80549 0.26915 0.64736 0.0
Eu1385 Eu 0.82613 0.17815 0.65754 0.0
N1386 N 0.77108 0.16165 0.65527 0.0
C1387 C 0.74805 0.13104 0.65415 0.0
C1388 C 0.70715 0.14543 0.65331 0.0
C1389 C 0.71576 0.12246 0.65345 0.0
H1390 H 0.86684 0.25449 0.64827 0.0
H1391 H 0.69756 0.09814 0.6531 0.0
H1392 H 0.69908 0.1955 0.65124 0.0
H1393 H 0.85637 0.29794 0.64387 0.0
H1394 H 0.75439 0.11307 0.65435 0.0
H1395 H 0.9782 0.23381 0.70629 0.0
H1396 H 0.68213 0.13872 0.65274 0.0
H1397 H 0.80829 0.07793 0.70968 0.0
H1398 H 0.92148 0.21922 0.70467 0.0
H1399 H 0.81836 0.03422 0.7141 0.0
H1400 H 0.74231 0.24991 0.64854 0.0
H1401 H 0.99328 0.19298 0.70667 0.0
H1402 H 0.97597 0.1361 0.70793 0.0
H1403 H 0.80101 0.28827 0.6454 0.0
H1404 H 0.93245 0.08175 0.71025 0.0
N1405 N 0.90455 0.17061 0.7035 0.0
C1406 C 0.92768 0.20115 0.70485 0.0
C1407 C 0.96831 0.18642 0.70592 0.0
C1408 C 0.94435 0.15512 0.70576 0.0
C1409 C 0.9599 0.20953 0.70577 0.0
C1410 C 0.91224 0.14787 0.70467 0.0
H1411 H 0.87364 0.0436 0.71296 0.0
N1412 N 0.85727 0.11147 0.7057 0.0
C1413 C 0.83811 0.05745 0.7117 0.0
C1414 C 0.88783 0.11733 0.70588 0.0
C1415 C 0.83248 0.08224 0.70922 0.0
C1416 C 0.86934 0.06284 0.711 0.0
C1417 C 0.89473 0.09313 0.70833 0.0
O1418 O 0.8219 0.1378 0.72658 0.0
O1419 O 0.81223 0.16028 0.68649 0.0
O1420 O 0.83189 0.21263 0.67992 0.0
O1421 O 0.86557 0.20626 0.70051 0.0
O1422 O 0.79621 0.12037 0.702 0.0
O1423 O 0.86779 0.18005 0.72711 0.0
O1424 O 0.85333 0.19473 0.63167 0.0
O1425 O 0.86377 0.17268 0.672 0.0
O1426 O 0.84456 0.12045 0.67843 0.0
O1427 O 0.81037 0.12632 0.65805 0.0
O1428 O 0.87937 0.21251 0.65639 0.0
O1429 O 0.80806 0.1518 0.63157 0.0
C1430 C 0.78734 0.13626 0.692 0.0
C1431 C 0.85014 0.15022 0.75486 0.0
C1432 C 0.84436 0.14701 0.78874 0.0
C1433 C 0.84071 0.15837 0.7715 0.0
C1434 C 0.8579 0.12772 0.78915 0.0
C1435 C 0.86406 0.13133 0.75555 0.0
C1436 C 0.86793 0.12018 0.77264 0.0
C1437 C 0.85183 0.22189 0.69423 0.0
C1438 C 0.84341 0.15996 0.73689 0.0
C1439 C 0.92666 0.10006 0.70858 0.0
C1440 C 0.95144 0.131 0.70726 0.0
C1441 C 0.88848 0.19696 0.66652 0.0
C1442 C 0.8244 0.18095 0.60357 0.0
C1443 C 0.8331 0.17217 0.58689 0.0
C1444 C 0.8281 0.18223 0.56946 0.0
C1445 C 0.81399 0.20116 0.56921 0.0
C1446 C 0.80993 0.19931 0.60289 0.0
C1447 C 0.80478 0.20934 0.58578 0.0
C1448 C 0.82444 0.11095 0.66422 0.0
C1449 C 0.83199 0.17205 0.62157 0.0
H1450 H 0.82979 0.17284 0.771 0.0
H1451 H 0.86105 0.1188 0.80226 0.0
H1452 H 0.87155 0.1249 0.74292 0.0
H1453 H 0.87852 0.10547 0.77309 0.0
H1454 H 0.84373 0.15748 0.5876 0.0
H1455 H 0.81048 0.21018 0.55625 0.0
H1456 H 0.80298 0.2062 0.61556 0.0
H1457 H 0.79395 0.22385 0.58535 0.0
C1458 C 0.39483 0.89951 0.03938 0.0
C1459 C 0.36816 0.90346 0.0421 0.0
H1460 H 0.4442 0.92086 0.03139 0.0
C1461 C 0.37033 0.93149 0.0362 0.0
H1462 H 0.39427 0.8784 0.04377 0.0
C1463 C 0.39909 0.95589 0.02954 0.0
C1464 C 0.42611 0.95256 0.02794 0.0
H1465 H 0.35011 0.93512 0.03738 0.0
H1466 H 0.40057 0.97786 0.02623 0.0
C1467 C 0.42352 0.92383 0.03227 0.0
C1468 C 0.07049 0.43412 0.04296 0.0
C1469 C 0.10069 0.45995 0.04688 0.0
H1470 H 0.0223 0.41778 0.03418 0.0
C1471 C 0.10547 0.48992 0.04334 0.0
H1472 H 0.06595 0.41067 0.04505 0.0
C1473 C 0.08043 0.49388 0.03673 0.0
C1474 C 0.05013 0.46798 0.03341 0.0
H1475 H 0.12818 0.51043 0.04635 0.0
H1476 H 0.08452 0.51722 0.03481 0.0
C1477 C 0.04549 0.43812 0.03655 0.0
C1478 C 0.56495 0.63282 0.05024 0.0
C1479 C 0.54129 0.64096 0.05355 0.0
H1480 H 0.57584 0.59871 0.03977 0.0
C1481 C 0.50979 0.62011 0.04778 0.0
H1482 H 0.58966 0.64842 0.05386 0.0
C1483 C 0.50229 0.59217 0.03896 0.0
C1484 C 0.52583 0.58393 0.03625 0.0
H1485 H 0.49063 0.62492 0.05033 0.0
H1486 H 0.47786 0.57662 0.0347 0.0
C1487 C 0.55718 0.60441 0.04198 0.0
C1488 C 0.88592 0.37171 0.98655 0.0
C1489 C 0.89599 0.35876 0.97246 0.0
H1490 H 0.89839 0.40947 1.00523 0.0
C1491 C 0.92832 0.37496 0.96702 0.0
H1492 H 0.86145 0.35991 0.99141 0.0
C1493 C 0.94998 0.40303 0.97562 0.0
C1494 C 0.93978 0.41585 0.98969 0.0
H1495 H 0.93697 0.36622 0.95596 0.0
H1496 H 0.97467 0.41473 0.97111 0.0
C1497 C 0.90739 0.40003 0.99482 0.0
C1498 C 0.61827 0.5108 0.98609 0.0
C1499 C 0.64442 0.54089 0.983 0.0
H1500 H 0.56889 0.48326 0.99398 0.0
C1501 C 0.64079 0.56658 0.98754 0.0
H1502 H 0.61989 0.49038 0.98268 0.0
C1503 C 0.61147 0.56239 0.99373 0.0
C1504 C 0.58516 0.53245 0.99608 0.0
H1505 H 0.66046 0.5901 0.98592 0.0
H1506 H 0.60915 0.58268 0.99635 0.0
C1507 C 0.58895 0.50663 0.99257 0.0
C1508 C 0.48782 0.11496 0.98911 0.0
C1509 C 0.46615 0.10498 0.97413 0.0
H1510 H 0.51357 0.1034 1.00868 0.0
C1511 C 0.4532 0.07422 0.96775 0.0
H1512 H 0.49804 0.13838 0.99455 0.0
C1513 C 0.46155 0.05395 0.97614 0.0
C1514 C 0.4833 0.06394 0.99107 0.0
H1515 H 0.43694 0.06584 0.95602 0.0
H1516 H 0.45107 0.03048 0.97076 0.0
C1517 C 0.49644 0.09474 0.9974 0.0
C1518 C 0.64529 0.07314 0.98827 0.0
C1519 C 0.64589 0.10076 0.98333 0.0
H1520 H 0.61678 0.02606 0.99763 0.0
C1521 C 0.61855 0.10329 0.98638 0.0
H1522 H 0.666 0.07058 0.98594 0.0
C1523 C 0.59062 0.07806 0.9935 0.0
C1524 C 0.58952 0.0498 0.99732 0.0
H1525 H 0.61852 0.12442 0.9827 0.0
H1526 H 0.56945 0.08009 0.99494 0.0
C1527 C 0.61721 0.04773 0.99494 0.0
C1528 C 0.93656 0.56566 0.9834 0.0
C1529 C 0.90726 0.53889 0.97936 0.0
H1530 H 0.9851 0.58415 0.99232 0.0
C1531 C 0.90415 0.50954 0.98249 0.0
H1532 H 0.93972 0.58856 0.98096 0.0
C1533 C 0.92992 0.50704 0.98933 0.0
C1534 C 0.95941 0.53386 0.99298 0.0
H1535 H 0.88183 0.48853 0.97951 0.0
H1536 H 0.92701 0.48415 0.99123 0.0
C1537 C 0.9625 0.56316 0.98985 0.0
C1538 C 0.45232 0.37324 0.96581 0.0
C1539 C 0.46663 0.35605 0.97172 0.0
H1540 H 0.44804 0.41369 0.96963 0.0
C1541 C 0.48879 0.36782 0.98643 0.0
H1542 H 0.43566 0.36533 0.95428 0.0
C1543 C 0.49646 0.39601 0.99496 0.0
C1544 C 0.48171 0.41287 0.98928 0.0
H1545 H 0.50005 0.35513 0.99153 0.0
H1546 H 0.51404 0.40453 1.00599 0.0
C1547 C 0.45963 0.4012 0.97455 0.0
C1548 C 0.1255 0.6316 0.04037 0.0
C1549 C 0.11538 0.64476 0.05419 0.0
H1550 H 0.11283 0.5933 0.0221 0.0
C1551 C 0.08325 0.62904 0.0598 0.0
H1552 H 0.15028 0.64313 0.03603 0.0
C1553 C 0.06139 0.60085 0.05136 0.0
C1554 C 0.07145 0.58765 0.0374 0.0
H1555 H 0.075 0.63882 0.07048 0.0
H1556 H 0.03668 0.58947 0.0558 0.0
C1557 C 0.1039 0.60315 0.03229 0.0
C1558 C 0.39168 0.49021 0.04068 0.0
C1559 C 0.36457 0.4608 0.04352 0.0
H1560 H 0.44098 0.51574 0.03263 0.0
C1561 C 0.36633 0.43413 0.03905 0.0
H1562 H 0.39098 0.51116 0.04397 0.0
C1563 C 0.39503 0.43676 0.03279 0.0
C1564 C 0.42231 0.4661 0.03033 0.0
H1565 H 0.34591 0.41118 0.04124 0.0
H1566 H 0.39613 0.4158 0.03023 0.0
C1567 C 0.42023 0.49284 0.03404 0.0
C1568 C 0.52893 0.88641 0.03652 0.0
C1569 C 0.55021 0.89641 0.05164 0.0
H1570 H 0.50308 0.89785 0.01696 0.0
C1571 C 0.56298 0.92702 0.05814 0.0
H1572 H 0.51846 0.86278 0.03139 0.0
C1573 C 0.55465 0.94727 0.04972 0.0
C1574 C 0.53305 0.93727 0.0347 0.0
H1575 H 0.57961 0.93537 0.06971 0.0
H1576 H 0.56505 0.97073 0.05512 0.0
C1577 C 0.5202 0.90655 0.02824 0.0
C1578 C 0.03564 0.26652 0.36936 0.0
C1579 C 0.03261 0.23784 0.37458 0.0
H1580 H 0.06694 0.31326 0.36029 0.0
C1581 C 0.05891 0.23336 0.37172 0.0
H1582 H 0.01576 0.27063 0.37072 0.0
C1583 C 0.08804 0.25766 0.36511 0.0
C1584 C 0.09143 0.2869 0.36136 0.0
H1585 H 0.05768 0.21174 0.37564 0.0
H1586 H 0.10838 0.25417 0.3641 0.0
C1587 C 0.06483 0.29087 0.36314 0.0
C1588 C 0.73518 0.76698 0.3767 0.0
C1589 C 0.76541 0.7928 0.3806 0.0
H1590 H 0.6869 0.75069 0.36807 0.0
C1591 C 0.77011 0.82278 0.37725 0.0
H1592 H 0.73068 0.74352 0.37869 0.0
C1593 C 0.74502 0.82676 0.3708 0.0
C1594 C 0.71472 0.80089 0.36743 0.0
H1595 H 0.79281 0.84328 0.38028 0.0
H1596 H 0.74908 0.85011 0.36906 0.0
C1597 C 0.7101 0.77101 0.37044 0.0
C1598 C 0.22139 0.95748 0.39489 0.0
C1599 C 0.20747 0.97508 0.38913 0.0
H1600 H 0.22528 0.9169 0.39069 0.0
C1601 C 0.18553 0.96391 0.37429 0.0
H1602 H 0.23787 0.96495 0.4065 0.0
C1603 C 0.17777 0.93592 0.36545 0.0
C1604 C 0.19217 0.91867 0.37099 0.0
H1605 H 0.17457 0.97696 0.36932 0.0
H1606 H 0.16043 0.92786 0.35429 0.0
C1607 C 0.21397 0.92972 0.38587 0.0
C1608 C 0.55131 0.70422 0.32067 0.0
C1609 C 0.56141 0.69142 0.30651 0.0
H1610 H 0.56364 0.74195 0.33936 0.0
C1611 C 0.59368 0.70788 0.30094 0.0
H1612 H 0.5269 0.69222 0.32563 0.0
C1613 C 0.61523 0.73605 0.30948 0.0
C1614 C 0.60499 0.74873 0.32362 0.0
H1615 H 0.60235 0.69927 0.28982 0.0
H1616 H 0.63985 0.74796 0.30486 0.0
C1617 C 0.57267 0.73264 0.32889 0.0
C1618 C 0.30812 0.90095 0.32204 0.0
C1619 C 0.31134 0.87514 0.3172 0.0
H1620 H 0.27695 0.9174 0.33117 0.0
C1621 C 0.28501 0.84512 0.32023 0.0
H1622 H 0.32795 0.9244 0.32048 0.0
C1623 C 0.25585 0.84118 0.32685 0.0
C1624 C 0.25241 0.86715 0.33057 0.0
H1625 H 0.28634 0.82463 0.31661 0.0
H1626 H 0.23562 0.81789 0.32814 0.0
C1627 C 0.27897 0.89699 0.32839 0.0
C1628 C 0.12013 0.4087 0.30153 0.0
C1629 C 0.13352 0.4395 0.30791 0.0
H1630 H 0.11735 0.36466 0.3045 0.0
C1631 C 0.1553 0.44926 0.32283 0.0
H1632 H 0.10378 0.40049 0.28985 0.0
C1633 C 0.1636 0.42878 0.33107 0.0
C1634 C 0.15 0.39793 0.32474 0.0
H1635 H 0.16584 0.47271 0.32826 0.0
H1636 H 0.18082 0.43725 0.3423 0.0
C1637 C 0.12816 0.38817 0.30988 0.0
C1638 C 0.31077 0.40494 0.32152 0.0
C1639 C 0.31169 0.43276 0.31669 0.0
H1640 H 0.2819 0.35786 0.33082 0.0
C1641 C 0.28457 0.4356 0.31984 0.0
H1642 H 0.33132 0.40215 0.31911 0.0
C1643 C 0.25653 0.41051 0.32697 0.0
C1644 C 0.25511 0.38208 0.33071 0.0
H1645 H 0.28479 0.45689 0.31625 0.0
H1646 H 0.23553 0.41281 0.32851 0.0
C1647 C 0.28258 0.37968 0.3282 0.0
C1648 C 0.60286 0.89927 0.31621 0.0
C1649 C 0.57346 0.87258 0.31223 0.0
H1650 H 0.65133 0.91756 0.32522 0.0
C1651 C 0.57012 0.84317 0.31549 0.0
H1652 H 0.60618 0.92221 0.31367 0.0
C1653 C 0.59576 0.84054 0.32243 0.0
C1654 C 0.62533 0.86727 0.32605 0.0
H1655 H 0.54772 0.82222 0.31256 0.0
H1656 H 0.59266 0.8176 0.32447 0.0
C1657 C 0.62867 0.89663 0.32276 0.0
C1658 C 0.12049 0.70885 0.29868 0.0
C1659 C 0.13474 0.69186 0.30493 0.0
H1660 H 0.11581 0.74915 0.30234 0.0
C1661 C 0.15648 0.7035 0.31978 0.0
H1662 H 0.10355 0.70025 0.28728 0.0
C1663 C 0.16389 0.73164 0.32823 0.0
C1664 C 0.14915 0.74843 0.32231 0.0
H1665 H 0.16811 0.69101 0.32467 0.0
H1666 H 0.18132 0.74025 0.33934 0.0
C1667 C 0.12746 0.73677 0.30736 0.0
C1668 C 0.7486 0.96912 0.38585 0.0
C1669 C 0.78095 0.97764 0.38706 0.0
H1670 H 0.70155 0.93443 0.37728 0.0
C1671 C 0.79083 0.95735 0.38014 0.0
H1672 H 0.74051 0.98446 0.39114 0.0
C1673 C 0.76881 0.92914 0.37194 0.0
C1674 C 0.73634 0.92037 0.37086 0.0
H1675 H 0.8157 0.96354 0.38086 0.0
H1676 H 0.7772 0.91406 0.3666 0.0
C1677 C 0.72638 0.94052 0.37801 0.0
C1678 C 0.03227 0.76947 0.37166 0.0
C1679 C 0.03068 0.79614 0.37638 0.0
H1680 H 0.06184 0.75105 0.36259 0.0
C1681 C 0.05792 0.82554 0.37369 0.0
H1682 H 0.01177 0.74652 0.37372 0.0
C1683 C 0.08642 0.82813 0.36696 0.0
C1684 C 0.08831 0.80134 0.36304 0.0
H1685 H 0.05733 0.84649 0.37716 0.0
H1686 H 0.10728 0.85101 0.36563 0.0
C1687 C 0.0609 0.77204 0.36533 0.0
C1688 C 0.22569 0.25826 0.39214 0.0
C1689 C 0.21162 0.22729 0.38607 0.0
H1690 H 0.22965 0.3027 0.38856 0.0
C1691 C 0.18989 0.21741 0.37117 0.0
H1692 H 0.24276 0.26658 0.40348 0.0
C1693 C 0.18208 0.23806 0.36265 0.0
C1694 C 0.19627 0.26914 0.36868 0.0
H1695 H 0.17845 0.19355 0.36635 0.0
H1696 H 0.16468 0.22952 0.35152 0.0
C1697 C 0.21822 0.27897 0.3835 0.0
C1698 C 0.70192 0.60038 0.70255 0.0
C1699 C 0.69872 0.57168 0.70789 0.0
H1700 H 0.73341 0.64697 0.69331 0.0
C1701 C 0.72486 0.56694 0.70502 0.0
H1702 H 0.68216 0.60467 0.70391 0.0
C1703 C 0.75403 0.59105 0.69831 0.0
C1704 C 0.75762 0.62034 0.69447 0.0
H1705 H 0.72351 0.54531 0.70902 0.0
H1706 H 0.77426 0.58739 0.69731 0.0
C1707 C 0.73115 0.62454 0.69623 0.0
C1708 C 0.4032 0.1007 0.71066 0.0
C1709 C 0.43347 0.12646 0.71457 0.0
H1710 H 0.35495 0.08454 0.70201 0.0
C1711 C 0.43818 0.15649 0.7114 0.0
H1712 H 0.39868 0.07721 0.71254 0.0
C1713 C 0.41312 0.16057 0.70501 0.0
C1714 C 0.38284 0.13475 0.70154 0.0
H1715 H 0.4609 0.17694 0.71446 0.0
H1716 H 0.41723 0.18394 0.70335 0.0
C1717 C 0.37815 0.10482 0.70446 0.0
C1718 C 0.88826 0.29023 0.72759 0.0
C1719 C 0.87399 0.30751 0.72182 0.0
H1720 H 0.89278 0.25 0.72338 0.0
C1721 C 0.85217 0.2962 0.70693 0.0
H1722 H 0.90467 0.29784 0.73924 0.0
C1723 C 0.84482 0.26834 0.69807 0.0
C1724 C 0.85952 0.25138 0.70364 0.0
H1725 H 0.84096 0.30901 0.70194 0.0
H1726 H 0.82752 0.26014 0.68689 0.0
C1727 C 0.88124 0.2626 0.71856 0.0
C1728 C 0.22078 0.04598 0.64739 0.0
C1729 C 0.23066 0.02501 0.64153 0.0
H1730 H 0.23392 0.08997 0.6598 0.0
C1731 C 0.2631 0.03383 0.64362 0.0
H1732 H 0.19634 0.04066 0.64565 0.0
C1733 C 0.28496 0.06278 0.65119 0.0
C1734 C 0.27474 0.08326 0.65727 0.0
H1735 H 0.27169 0.01824 0.63969 0.0
H1736 H 0.30968 0.06882 0.65269 0.0
C1737 C 0.24244 0.07452 0.65536 0.0
C1738 C 0.97614 0.23438 0.65513 0.0
C1739 C 0.97963 0.2087 0.65035 0.0
H1740 H 0.94459 0.25054 0.66401 0.0
C1741 C 0.95333 0.17861 0.65319 0.0
H1742 H 0.99592 0.25789 0.6537 0.0
C1743 C 0.92397 0.17446 0.6596 0.0
C1744 C 0.92031 0.20031 0.66329 0.0
H1745 H 0.95486 0.15821 0.6496 0.0
H1746 H 0.90379 0.15111 0.66076 0.0
C1747 C 0.9468 0.23023 0.66126 0.0
C1748 C 0.82206 0.78239 0.65588 0.0
C1749 C 0.80012 0.77249 0.64103 0.0
H1750 H 0.84776 0.77053 0.67531 0.0
C1751 C 0.78668 0.74165 0.63474 0.0
H1752 H 0.83266 0.8059 0.66122 0.0
C1753 C 0.79479 0.7212 0.64309 0.0
C1754 C 0.81677 0.73108 0.65789 0.0
H1755 H 0.77021 0.73333 0.62311 0.0
H1756 H 0.78391 0.69766 0.63777 0.0
C1757 C 0.83044 0.76198 0.66413 0.0
C1758 C 0.97752 0.73645 0.65549 0.0
C1759 C 0.97918 0.76475 0.65106 0.0
H1760 H 0.9477 0.68916 0.66418 0.0
C1761 C 0.95238 0.76812 0.65431 0.0
H1762 H 0.99776 0.73321 0.65299 0.0
C1763 C 0.92394 0.7431 0.66107 0.0
C1764 C 0.92179 0.71425 0.6644 0.0
H1765 H 0.95315 0.78977 0.65104 0.0
H1766 H 0.90321 0.74585 0.66266 0.0
C1767 C 0.94894 0.7113 0.66185 0.0
C1768 C 0.23974 0.17782 0.64858 0.0
C1769 C 0.24295 0.20726 0.64577 0.0
H1770 H 0.26234 0.1521 0.65705 0.0
C1771 C 0.27223 0.23389 0.65009 0.0
H1772 H 0.21746 0.15691 0.64538 0.0
C1773 C 0.29803 0.23113 0.65656 0.0
C1774 C 0.29478 0.20171 0.65943 0.0
H1775 H 0.27548 0.25687 0.64788 0.0
H1776 H 0.32061 0.25201 0.65928 0.0
C1777 C 0.26535 0.17507 0.65542 0.0
C1778 C 0.78742 0.04149 0.63163 0.0
C1779 C 0.80191 0.02463 0.63768 0.0
H1780 H 0.78274 0.08176 0.63544 0.0
C1781 C 0.82412 0.03644 0.65229 0.0
H1782 H 0.77013 0.03275 0.62041 0.0
C1783 C 0.83174 0.06466 0.66072 0.0
C1784 C 0.81674 0.08131 0.65501 0.0
H1785 H 0.83592 0.02402 0.65702 0.0
H1786 H 0.84953 0.07342 0.67163 0.0
C1787 C 0.7946 0.06948 0.64029 0.0
C1788 C 0.45849 0.29175 0.71434 0.0
C1789 C 0.4482 0.31183 0.72106 0.0
H1790 H 0.4455 0.24853 0.70089 0.0
C1791 C 0.41581 0.30302 0.71962 0.0
H1792 H 0.48341 0.29818 0.71523 0.0
C1793 C 0.39393 0.27435 0.71173 0.0
C1794 C 0.40429 0.2544 0.70477 0.0
H1795 H 0.40741 0.31821 0.72476 0.0
H1796 H 0.36905 0.26804 0.71081 0.0
C1797 C 0.43681 0.26345 0.70609 0.0
C1798 C 0.70028 0.10255 0.7046 0.0
C1799 C 0.69873 0.12927 0.70928 0.0
H1800 H 0.72978 0.08403 0.69554 0.0
C1801 C 0.72598 0.15863 0.70651 0.0
H1802 H 0.67978 0.07963 0.70672 0.0
C1803 C 0.75444 0.16116 0.69977 0.0
C1804 C 0.75629 0.13433 0.69589 0.0
H1805 H 0.72544 0.17962 0.70995 0.0
H1806 H 0.7753 0.18402 0.69839 0.0
C1807 C 0.72887 0.10506 0.69824 0.0
C1808 C 0.89007 0.58991 0.72565 0.0
C1809 C 0.87598 0.55903 0.71943 0.0
H1810 H 0.89445 0.63453 0.72215 0.0
C1811 C 0.85463 0.54947 0.70435 0.0
H1812 H 0.90685 0.59796 0.73714 0.0
C1813 C 0.84721 0.57036 0.6958 0.0
C1814 C 0.86144 0.60136 0.70197 0.0
H1815 H 0.8432 0.52567 0.6994 0.0
H1816 H 0.8301 0.56207 0.68451 0.0
C1817 C 0.88301 0.61087 0.71698 0.0
C1818 C 0.50789 0.96141 0.16361 0.0
C1819 C 0.48507 0.96248 0.17544 0.0
H1820 H 0.53418 0.9764 0.13782 0.0
C1821 C 0.46995 0.97879 0.16912 0.0
H1822 H 0.52046 0.94954 0.16789 0.0
C1823 C 0.47846 0.99472 0.1521 0.0
C1824 C 0.50173 0.9942 0.14064 0.0
H1825 H 0.4516 0.97955 0.17738 0.0
H1826 H 0.46704 0.00779 0.14795 0.0
C1827 C 0.51593 0.97689 0.14635 0.0
C1828 C 0.01631 0.53137 0.16221 0.0
C1829 C 0.01132 0.50714 0.17444 0.0
H1830 H 0.0053 0.54394 0.13579 0.0
C1831 C 0.98993 0.47626 0.16903 0.0
H1832 H 0.0319 0.55548 0.16597 0.0
C1833 C 0.97397 0.46985 0.15194 0.0
C1834 C 0.97955 0.4941 0.13974 0.0
H1835 H 0.98583 0.4569 0.17781 0.0
H1836 H 0.95778 0.44589 0.14806 0.0
C1837 C 1.00089 0.52487 0.14496 0.0
C1838 C 0.47211 0.47321 0.16916 0.0
C1839 C 0.48443 0.50438 0.17448 0.0
H1840 H 0.47186 0.44168 0.14855 0.0
C1841 C 0.50514 0.52808 0.16228 0.0
H1842 H 0.45623 0.45456 0.17838 0.0
C1843 C 0.51359 0.52074 0.14511 0.0
C1844 C 0.50206 0.48958 0.14006 0.0
H1845 H 0.51487 0.55229 0.16607 0.0
H1846 H 0.52983 0.53939 0.13601 0.0
C1847 C 0.48114 0.46588 0.15219 0.0
C1848 C 0.02089 0.52559 0.85789 0.0
C1849 C 1.00059 0.49459 0.85253 0.0
H1850 H 0.05227 0.55644 0.87897 0.0
C1851 C 0.99587 0.47048 0.86466 0.0
H1852 H 0.02486 0.54449 0.8487 0.0
C1853 C 0.01095 0.47729 0.88202 0.0
C1854 C 0.03155 0.50828 0.8873 0.0
H1855 H 0.98018 0.44641 0.86078 0.0
H1856 H 0.00681 0.45839 0.89127 0.0
C1857 C 0.03658 0.53238 0.87508 0.0
C1858 C 0.50525 0.47122 0.86404 0.0
C1859 C 0.52573 0.49547 0.85195 0.0
H1860 H 0.47931 0.45855 0.88991 0.0
C1861 C 0.53614 0.52634 0.85749 0.0
H1862 H 0.49612 0.44712 0.86026 0.0
C1863 C 0.52564 0.53269 0.87425 0.0
C1864 C 0.50509 0.50843 0.88612 0.0
H1865 H 0.55252 0.54578 0.84893 0.0
H1866 H 0.53379 0.55665 0.87801 0.0
C1867 C 0.49534 0.47767 0.88101 0.0
C1868 C 0.50819 0.04138 0.86366 0.0
C1869 C 0.53046 0.0409 0.85118 0.0
H1870 H 0.48356 0.02559 0.88987 0.0
C1871 C 0.54593 0.02441 0.85623 0.0
H1872 H 0.49599 0.05399 0.86016 0.0
C1873 C 0.53841 0.00778 0.87301 0.0
C1874 C 0.51579 0.00786 0.88534 0.0
H1875 H 0.56302 0.02344 0.84686 0.0
H1876 H 0.54997 0.99449 0.87627 0.0
C1877 C 0.50121 0.02532 0.88067 0.0
C1878 C 0.17656 0.29567 0.49734 0.0
C1879 C 0.15343 0.29633 0.50909 0.0
H1880 H 0.20291 0.31091 0.47159 0.0
C1881 C 0.13782 0.31212 0.50267 0.0
H1882 H 0.18949 0.2842 0.50171 0.0
C1883 C 0.14614 0.32795 0.48562 0.0
C1884 C 0.1697 0.32783 0.47423 0.0
H1885 H 0.11925 0.31256 0.51088 0.0
H1886 H 0.13436 0.34064 0.48138 0.0
C1887 C 0.18441 0.31106 0.48006 0.0
C1888 C 0.68169 0.86472 0.49569 0.0
C1889 C 0.67635 0.84026 0.50781 0.0
H1890 H 0.67086 0.87785 0.46941 0.0
C1891 C 0.65442 0.80953 0.50238 0.0
H1892 H 0.69771 0.88873 0.49948 0.0
C1893 C 0.63833 0.80351 0.48535 0.0
C1894 C 0.64431 0.82799 0.47324 0.0
H1895 H 0.65001 0.79 0.51109 0.0
H1896 H 0.62176 0.77967 0.48144 0.0
C1897 C 0.66613 0.85861 0.47851 0.0
C1898 C 0.16795 0.86314 0.49503 0.0
C1899 C 0.14738 0.83997 0.50756 0.0
H1900 H 0.1924 0.87334 0.46872 0.0
C1901 C 0.13497 0.80858 0.50272 0.0
H1902 H 0.17777 0.8875 0.49845 0.0
C1903 C 0.1438 0.80053 0.48593 0.0
C1904 C 0.16464 0.8237 0.4735 0.0
H1905 H 0.11923 0.79032 0.5122 0.0
H1906 H 0.13443 0.77617 0.48267 0.0
C1907 C 0.17622 0.85506 0.47805 0.0
C1908 C 0.66011 0.80167 0.19943 0.0
C1909 C 0.66518 0.8254 0.18689 0.0
H1910 H 0.67129 0.79032 0.22619 0.0
C1911 C 0.68651 0.85649 0.19167 0.0
H1912 H 0.64367 0.77755 0.19601 0.0
C1913 C 0.70275 0.86371 0.20868 0.0
C1914 C 0.69734 0.83999 0.22132 0.0
H1915 H 0.69084 0.87512 0.18214 0.0
H1916 H 0.71913 0.88783 0.21212 0.0
C1917 C 0.67578 0.80894 0.21662 0.0
C1918 C 0.20521 0.86187 0.19077 0.0
C1919 C 0.19366 0.8308 0.18521 0.0
H1920 H 0.20437 0.89286 0.21137 0.0
C1921 C 0.17265 0.80688 0.19732 0.0
H1922 H 0.222 0.88103 0.18219 0.0
C1923 C 0.16338 0.81384 0.21434 0.0
C1924 C 0.17431 0.84482 0.21949 0.0
H1925 H 0.16265 0.78267 0.19353 0.0
H1926 H 0.14692 0.79498 0.22325 0.0
C1927 C 0.19535 0.86876 0.20758 0.0
C1928 C 0.21036 0.35677 0.1898 0.0
C1929 C 0.19514 0.3735 0.18478 0.0
H1930 H 0.21414 0.32666 0.20983 0.0
C1931 C 0.17299 0.37417 0.19727 0.0
H1932 H 0.22736 0.35565 0.18042 0.0
C1933 C 0.16591 0.35809 0.21428 0.0
C1934 C 0.18028 0.34042 0.21893 0.0
H1935 H 0.16097 0.38696 0.19379 0.0
H1936 H 0.14838 0.35853 0.22351 0.0
C1937 C 0.20274 0.34013 0.20658 0.0
C1938 C 0.80359 0.64417 0.8357 0.0
C1939 C 0.81926 0.62848 0.84219 0.0
H1940 H 0.80021 0.6727 0.81438 0.0
C1941 C 0.8426 0.62801 0.83055 0.0
H1942 H 0.78488 0.64447 0.84384 0.0
C1943 C 0.8506 0.64349 0.8133 0.0
C1944 C 0.8358 0.66015 0.8074 0.0
H1945 H 0.85558 0.61662 0.83498 0.0
H1946 H 0.86926 0.64349 0.80491 0.0
C1947 C 0.81204 0.66008 0.81867 0.0
C1948 C 0.31911 0.14175 0.83564 0.0
C1949 C 0.34092 0.17248 0.84113 0.0
H1950 H 0.28667 0.11185 0.81462 0.0
C1951 C 0.34611 0.19695 0.82905 0.0
H1952 H 0.31481 0.1222 0.84432 0.0
C1953 C 0.3306 0.19083 0.81185 0.0
C1954 C 0.30896 0.16019 0.80649 0.0
H1955 H 0.36201 0.22096 0.83288 0.0
H1956 H 0.33528 0.21008 0.80276 0.0
C1957 C 0.30307 0.13572 0.81859 0.0
C1958 C 0.83786 0.19401 0.82847 0.0
C1959 C 0.81698 0.17052 0.84073 0.0
H1960 H 0.86239 0.20487 0.80216 0.0
C1961 C 0.80422 0.13926 0.83549 0.0
H1962 H 0.84792 0.21828 0.83221 0.0
C1963 C 0.81296 0.13163 0.81852 0.0
C1964 C 0.83404 0.15511 0.80632 0.0
H1965 H 0.78821 0.12076 0.84475 0.0
H1966 H 0.80333 0.10735 0.81492 0.0
C1967 C 0.84602 0.18637 0.81131 0.0
C1968 C 0.36804 0.16626 0.52152 0.0
C1969 C 0.33808 0.16417 0.51946 0.0
H1970 H 0.40551 0.17275 0.53995 0.0
C1971 C 0.32378 0.16882 0.53533 0.0
H1972 H 0.38024 0.16342 0.50966 0.0
C1973 C 0.33902 0.17556 0.55263 0.0
C1974 C 0.36868 0.17703 0.55477 0.0
H1975 H 0.30053 0.16693 0.53454 0.0
H1976 H 0.32745 0.17977 0.56429 0.0
C1977 C 0.38293 0.17224 0.53894 0.0
C1978 C 0.87447 0.1627 0.53389 0.0
C1979 C 0.85753 0.15961 0.51741 0.0
H1980 H 0.87937 0.17331 0.56303 0.0
C1981 C 0.83046 0.16302 0.51817 0.0
H1982 H 0.89555 0.16031 0.53362 0.0
C1983 C 0.82054 0.16955 0.53506 0.0
C1984 C 0.8379 0.17359 0.55161 0.0
H1985 H 0.81674 0.16031 0.50567 0.0
H1986 H 0.7991 0.17127 0.53508 0.0
C1987 C 0.86498 0.16993 0.55077 0.0
C1988 C 0.87719 0.69099 0.52305 0.0
C1989 C 0.86169 0.70746 0.51801 0.0
H1990 H 0.88124 0.66105 0.54308 0.0
C1991 C 0.83938 0.70788 0.53048 0.0
H1992 H 0.89431 0.69007 0.51369 0.0
C1993 C 0.83239 0.69178 0.54748 0.0
C1994 C 0.84701 0.67435 0.55215 0.0
H1995 H 0.82714 0.72045 0.52698 0.0
H1996 H 0.81471 0.692 0.55668 0.0
C1997 C 0.86966 0.67434 0.53982 0.0
loop_
_geom_bond_atom_site_label_1
_geom_bond_atom_site_label_2
_geom_bond_distance
_geom_bond_site_symmetry_2
_ccdc_geom_bond_type
C0 C1 1.386 . S
C0 C2 1.397 . S
C0 H24 0.931 . S
C1 C0 1.386 . S
C1 C5 1.397 . S
C2 C0 1.397 . S
C2 C3 1.384 . S
C2 H25 0.930 . S
C3 C2 1.384 . S
C3 C4 1.377 . S
C3 C6 1.481 . S
C4 C3 1.377 . S
C4 C5 1.389 . S
C4 H26 0.929 . S
C5 C1 1.397 . S
C5 C4 1.389 . S
C5 H27 0.931 . S
C6 C3 1.481 . S
C6 C7 1.387 . S
C6 C11 1.390 . S
C7 C6 1.387 . S
C7 C8 1.401 . S
C7 H28 0.930 . S
C8 C7 1.401 . S
C8 C9 1.376 . S
C8 C17 1.511 . S
C9 C8 1.376 . S
C9 C10 1.392 . S
C9 H30 0.931 . S
C10 C9 1.392 . S
C10 C11 1.361 . S
C10 C12 1.500 . S
C11 C6 1.390 . S
C11 C10 1.361 . S
C11 H29 0.931 . S
C12 C10 1.500 . S
C12 C13 1.371 . S
C12 C14 1.365 . S
C13 C12 1.371 . S
C13 C23 1.386 . S
C13 H31 0.931 . S
C14 C12 1.365 . S
C14 C15 1.409 . S
C14 H32 0.929 . S
C15 C14 1.409 . S
C15 C16 1.380 . S
C15 H33 0.930 . S
C16 C15 1.380 . S
C16 C23 1.357 . S
C17 C8 1.511 . S
C17 C18 1.341 . S
C17 C19 1.371 . S
C18 C17 1.341 . S
C18 C22 1.394 . S
C18 H34 0.930 . S
C19 C17 1.371 . S
C19 C20 1.392 . S
C19 H35 0.931 . S
C20 C19 1.392 . S
C20 C21 1.331 . S
C20 H38 0.932 . S
C21 C20 1.331 . S
C21 C22 1.336 . S
C22 C18 1.394 . S
C22 C21 1.336 . S
C22 H37 0.929 . S
C23 C13 1.386 . S
C23 C16 1.357 . S
C23 H36 0.928 . S
H24 C0 0.931 . S
H25 C2 0.930 . S
H26 C4 0.929 . S
H27 C5 0.931 . S
H28 C7 0.930 . S
H29 C11 0.931 . S
H30 C9 0.931 . S
H31 C13 0.931 . S
H32 C14 0.929 . S
H33 C15 0.930 . S
H34 C18 0.930 . S
H35 C19 0.931 . S
H36 C23 0.928 . S
H37 C22 0.929 . S
H38 C20 0.932 . S
C39 C40 1.386 . S
C39 C41 1.397 . S
C39 H63 0.931 . S
C40 C39 1.386 . S
C40 C44 1.397 . S
C41 C39 1.397 . S
C41 C42 1.384 . S
C41 H64 0.930 . S
C42 C41 1.384 . S
C42 C43 1.377 . S
C42 C45 1.481 . S
C43 C42 1.377 . S
C43 C44 1.389 . S
C43 H65 0.929 . S
C44 C40 1.397 . S
C44 C43 1.389 . S
C44 H66 0.931 . S
C45 C42 1.481 . S
C45 C46 1.387 . S
C45 C50 1.390 . S
C46 C45 1.387 . S
C46 C47 1.401 . S
C46 H67 0.930 . S
C47 C46 1.401 . S
C47 C48 1.376 . S
C47 C56 1.511 . S
C48 C47 1.376 . S
C48 C49 1.392 . S
C48 H69 0.931 . S
C49 C48 1.392 . S
C49 C50 1.361 . S
C49 C51 1.500 . S
C50 C45 1.390 . S
C50 C49 1.361 . S
C50 H68 0.931 . S
C51 C49 1.500 . S
C51 C52 1.371 . S
C51 C53 1.365 . S
C52 C51 1.371 . S
C52 C62 1.386 . S
C52 H70 0.931 . S
C53 C51 1.365 . S
C53 C54 1.409 . S
C53 H71 0.929 . S
C54 C53 1.409 . S
C54 C55 1.380 . S
C54 H72 0.930 1_545 S
C55 C54 1.380 . S
C55 C62 1.357 . S
C56 C47 1.511 . S
C56 C57 1.341 . S
C56 C58 1.371 . S
C57 C56 1.341 . S
C57 C61 1.394 . S
C57 H73 0.930 . S
C58 C56 1.371 . S
C58 C59 1.392 . S
C58 H74 0.931 . S
C59 C58 1.392 . S
C59 C60 1.331 . S
C59 H77 0.932 . S
C60 C59 1.331 . S
C60 C61 1.336 . S
C61 C57 1.394 . S
C61 C60 1.336 . S
C61 H76 0.929 . S
C62 C52 1.386 . S
C62 C55 1.357 . S
C62 H75 0.928 . S
H63 C39 0.931 . S
H64 C41 0.930 . S
H65 C43 0.929 . S
H66 C44 0.931 . S
H67 C46 0.930 . S
H68 C50 0.931 . S
H69 C48 0.931 . S
H70 C52 0.931 . S
H71 C53 0.929 . S
H72 C54 0.930 1_565 S
H73 C57 0.930 . S
H74 C58 0.931 . S
H75 C62 0.928 . S
H76 C61 0.929 . S
H77 C59 0.932 . S
C78 C79 1.386 . S
C78 C80 1.397 . S
C78 H102 0.931 . S
C79 C78 1.386 . S
C79 C83 1.397 . S
C80 C78 1.397 . S
C80 C81 1.384 . S
C80 H103 0.930 . S
C81 C80 1.384 . S
C81 C82 1.377 . S
C81 C84 1.481 . S
C82 C81 1.377 . S
C82 C83 1.389 . S
C82 H104 0.929 . S
C83 C79 1.397 . S
C83 C82 1.389 . S
C83 H105 0.931 . S
C84 C81 1.481 . S
C84 C85 1.387 . S
C84 C89 1.390 . S
C85 C84 1.387 . S
C85 C86 1.401 . S
C85 H106 0.930 . S
C86 C85 1.401 . S
C86 C87 1.376 . S
C86 C95 1.511 . S
C87 C86 1.376 . S
C87 C88 1.392 . S
C87 H108 0.931 . S
C88 C87 1.392 . S
C88 C89 1.361 . S
C88 C90 1.500 . S
C89 C84 1.390 . S
C89 C88 1.361 . S
C89 H107 0.931 . S
C90 C88 1.500 . S
C90 C91 1.371 . S
C90 C92 1.365 . S
C91 C90 1.371 . S
C91 C101 1.386 . S
C91 H109 0.931 . S
C92 C90 1.365 . S
C92 C93 1.409 . S
C92 H110 0.929 . S
C93 C92 1.409 . S
C93 C94 1.380 . S
C93 H111 0.930 . S
C94 C93 1.380 . S
C94 C101 1.357 . S
C95 C86 1.511 . S
C95 C96 1.341 . S
C95 C97 1.371 . S
C96 C95 1.341 . S
C96 C100 1.394 . S
C96 H112 0.930 . S
C97 C95 1.371 . S
C97 C98 1.392 . S
C97 H113 0.931 . S
C98 C97 1.392 . S
C98 C99 1.331 . S
C98 H116 0.932 . S
C99 C98 1.331 . S
C99 C100 1.336 . S
C100 C96 1.394 . S
C100 C99 1.336 . S
C100 H115 0.929 1_655 S
C101 C91 1.386 . S
C101 C94 1.357 . S
C101 H114 0.928 . S
H102 C78 0.931 . S
H103 C80 0.930 . S
H104 C82 0.929 . S
H105 C83 0.931 . S
H106 C85 0.930 . S
H107 C89 0.931 . S
H108 C87 0.931 . S
H109 C91 0.931 . S
H110 C92 0.929 . S
H111 C93 0.930 . S
H112 C96 0.930 . S
H113 C97 0.931 . S
H114 C101 0.928 . S
H115 C100 0.929 1_455 S
H116 C98 0.932 . S
C117 C118 1.386 . S
C117 C119 1.397 . S
C117 H141 0.931 . S
C118 C117 1.386 . S
C118 C122 1.397 . S
C119 C117 1.397 . S
C119 C120 1.384 . S
C119 H142 0.930 . S
C120 C119 1.384 . S
C120 C121 1.377 . S
C120 C123 1.481 . S
C121 C120 1.377 . S
C121 C122 1.389 . S
C121 H143 0.929 . S
C122 C118 1.397 . S
C122 C121 1.389 . S
C122 H144 0.931 . S
C123 C120 1.481 . S
C123 C124 1.387 . S
C123 C128 1.390 . S
C124 C123 1.387 . S
C124 C125 1.401 . S
C124 H145 0.930 . S
C125 C124 1.401 . S
C125 C126 1.376 . S
C125 C134 1.511 . S
C126 C125 1.376 . S
C126 C127 1.392 . S
C126 H147 0.931 . S
C127 C126 1.392 . S
C127 C128 1.361 . S
C127 C129 1.500 . S
C128 C123 1.390 . S
C128 C127 1.361 . S
C128 H146 0.931 . S
C129 C127 1.500 . S
C129 C130 1.371 . S
C129 C131 1.365 . S
C130 C129 1.371 . S
C130 C140 1.386 . S
C130 H148 0.931 . S
C131 C129 1.365 . S
C131 C132 1.409 . S
C131 H149 0.929 . S
C132 C131 1.409 . S
C132 C133 1.380 . S
C132 H150 0.930 . S
C133 C132 1.380 . S
C133 C140 1.357 . S
C134 C125 1.511 . S
C134 C135 1.341 . S
C134 C136 1.371 . S
C135 C134 1.341 . S
C135 C139 1.394 . S
C135 H151 0.930 . S
C136 C134 1.371 . S
C136 C137 1.392 . S
C136 H152 0.931 . S
C137 C136 1.392 . S
C137 C138 1.331 . S
C137 H155 0.932 . S
C138 C137 1.331 . S
C138 C139 1.336 . S
C139 C135 1.394 . S
C139 C138 1.336 . S
C139 H154 0.929 . S
C140 C130 1.386 . S
C140 C133 1.357 . S
C140 H153 0.928 . S
H141 C117 0.931 . S
H142 C119 0.930 . S
H143 C121 0.929 . S
H144 C122 0.931 . S
H145 C124 0.930 . S
H146 C128 0.931 . S
H147 C126 0.931 . S
H148 C130 0.931 . S
H149 C131 0.929 . S
H150 C132 0.930 . S
H151 C135 0.930 . S
H152 C136 0.931 . S
H153 C140 0.928 . S
H154 C139 0.929 . S
H155 C137 0.932 . S
C156 C157 1.386 . S
C156 C158 1.397 . S
C156 H180 0.931 . S
C157 C156 1.386 . S
C157 C161 1.397 . S
C158 C156 1.397 . S
C158 C159 1.384 . S
C158 H181 0.930 . S
C159 C158 1.384 . S
C159 C160 1.377 . S
C159 C162 1.481 . S
C160 C159 1.377 . S
C160 C161 1.389 . S
C160 H182 0.929 . S
C161 C157 1.397 . S
C161 C160 1.389 . S
C161 H183 0.931 . S
C162 C159 1.481 . S
C162 C163 1.387 . S
C162 C167 1.390 . S
C163 C162 1.387 . S
C163 C164 1.401 . S
C163 H184 0.930 . S
C164 C163 1.401 . S
C164 C165 1.376 . S
C164 C173 1.511 . S
C165 C164 1.376 . S
C165 C166 1.392 . S
C165 H186 0.931 . S
C166 C165 1.392 . S
C166 C167 1.361 . S
C166 C168 1.500 . S
C167 C162 1.390 . S
C167 C166 1.361 . S
C167 H185 0.931 . S
C168 C166 1.500 . S
C168 C169 1.371 . S
C168 C170 1.365 . S
C169 C168 1.371 . S
C169 C179 1.386 . S
C169 H187 0.931 . S
C170 C168 1.365 . S
C170 C171 1.409 . S
C170 H188 0.929 . S
C171 C170 1.409 . S
C171 C172 1.380 . S
C171 H189 0.930 1_565 S
C172 C171 1.380 . S
C172 C179 1.357 . S
C173 C164 1.511 . S
C173 C174 1.341 . S
C173 C175 1.371 . S
C174 C173 1.341 . S
C174 C178 1.394 . S
C174 H190 0.930 . S
C175 C173 1.371 . S
C175 C176 1.392 . S
C175 H191 0.931 . S
C176 C175 1.392 . S
C176 C177 1.331 . S
C176 H194 0.932 . S
C177 C176 1.331 . S
C177 C178 1.336 . S
C178 C174 1.394 . S
C178 C177 1.336 . S
C178 H193 0.929 . S
C179 C169 1.386 . S
C179 C172 1.357 . S
C179 H192 0.928 . S
H180 C156 0.931 . S
H181 C158 0.930 . S
H182 C160 0.929 . S
H183 C161 0.931 . S
H184 C163 0.930 . S
H185 C167 0.931 . S
H186 C165 0.931 . S
H187 C169 0.931 . S
H188 C170 0.929 . S
H189 C171 0.930 1_545 S
H190 C174 0.930 . S
H191 C175 0.931 . S
H192 C179 0.928 . S
H193 C178 0.929 . S
H194 C176 0.932 . S
C195 C196 1.386 . S
C195 C197 1.397 . S
C195 H219 0.931 . S
C196 C195 1.386 . S
C196 C200 1.397 . S
C197 C195 1.397 . S
C197 C198 1.384 . S
C197 H220 0.930 . S
C198 C197 1.384 . S
C198 C199 1.377 . S
C198 C201 1.481 . S
C199 C198 1.377 . S
C199 C200 1.389 . S
C199 H221 0.929 . S
C200 C196 1.397 . S
C200 C199 1.389 . S
C200 H222 0.931 . S
C201 C198 1.481 . S
C201 C202 1.387 . S
C201 C206 1.390 . S
C202 C201 1.387 . S
C202 C203 1.401 . S
C202 H223 0.930 . S
C203 C202 1.401 . S
C203 C204 1.376 . S
C203 C212 1.511 . S
C204 C203 1.376 . S
C204 C205 1.392 . S
C204 H225 0.931 . S
C205 C204 1.392 . S
C205 C206 1.361 . S
C205 C207 1.500 . S
C206 C201 1.390 . S
C206 C205 1.361 . S
C206 H224 0.931 . S
C207 C205 1.500 . S
C207 C208 1.371 . S
C207 C209 1.365 . S
C208 C207 1.371 . S
C208 C218 1.386 . S
C208 H226 0.931 . S
C209 C207 1.365 . S
C209 C210 1.409 . S
C209 H227 0.929 . S
C210 C209 1.409 . S
C210 C211 1.380 . S
C210 H228 0.930 . S
C211 C210 1.380 . S
C211 C218 1.357 . S
C212 C203 1.511 . S
C212 C213 1.341 . S
C212 C214 1.371 . S
C213 C212 1.341 . S
C213 C217 1.394 . S
C213 H229 0.930 . S
C214 C212 1.371 . S
C214 C215 1.392 . S
C214 H230 0.931 . S
C215 C214 1.392 . S
C215 C216 1.331 . S
C215 H233 0.932 . S
C216 C215 1.331 . S
C216 C217 1.336 . S
C217 C213 1.394 . S
C217 C216 1.336 . S
C217 H232 0.929 1_455 S
C218 C208 1.386 . S
C218 C211 1.357 . S
C218 H231 0.928 . S
H219 C195 0.931 . S
H220 C197 0.930 . S
H221 C199 0.929 . S
H222 C200 0.931 . S
H223 C202 0.930 . S
H224 C206 0.931 . S
H225 C204 0.931 . S
H226 C208 0.931 . S
H227 C209 0.929 . S
H228 C210 0.930 . S
H229 C213 0.930 . S
H230 C214 0.931 . S
H231 C218 0.928 . S
H232 C217 0.929 1_655 S
H233 C215 0.932 . S
C234 C235 1.386 . S
C234 C236 1.397 . S
C234 H258 0.931 . S
C235 C234 1.386 . S
C235 C239 1.397 . S
C236 C234 1.397 . S
C236 C237 1.384 . S
C236 H259 0.930 . S
C237 C236 1.384 . S
C237 C238 1.377 . S
C237 C240 1.481 . S
C238 C237 1.377 . S
C238 C239 1.389 . S
C238 H260 0.929 . S
C239 C235 1.397 . S
C239 C238 1.389 . S
C239 H261 0.931 . S
C240 C237 1.481 . S
C240 C241 1.387 . S
C240 C245 1.390 . S
C241 C240 1.387 . S
C241 C242 1.401 . S
C241 H262 0.930 . S
C242 C241 1.401 . S
C242 C243 1.376 . S
C242 C251 1.511 . S
C243 C242 1.376 . S
C243 C244 1.392 . S
C243 H264 0.931 . S
C244 C243 1.392 . S
C244 C245 1.361 . S
C244 C246 1.500 . S
C245 C240 1.390 . S
C245 C244 1.361 . S
C245 H263 0.931 . S
C246 C244 1.500 . S
C246 C247 1.371 . S
C246 C248 1.365 . S
C247 C246 1.371 . S
C247 C257 1.386 . S
C247 H265 0.931 . S
C248 C246 1.365 . S
C248 C249 1.409 . S
C248 H266 0.929 . S
C249 C248 1.409 . S
C249 C250 1.380 . S
C249 H267 0.930 . S
C250 C249 1.380 . S
C250 C257 1.357 . S
C251 C242 1.511 . S
C251 C252 1.341 . S
C251 C253 1.371 . S
C252 C251 1.341 . S
C252 C256 1.394 . S
C252 H268 0.930 . S
C253 C251 1.371 . S
C253 C254 1.392 . S
C253 H269 0.931 . S
C254 C253 1.392 . S
C254 C255 1.331 . S
C254 H272 0.932 . S
C255 C254 1.331 . S
C255 C256 1.336 . S
C256 C252 1.394 . S
C256 C255 1.336 . S
C256 H271 0.929 . S
C257 C247 1.386 . S
C257 C250 1.357 . S
C257 H270 0.928 . S
H258 C234 0.931 . S
H259 C236 0.930 . S
H260 C238 0.929 . S
H261 C239 0.931 . S
H262 C241 0.930 . S
H263 C245 0.931 . S
H264 C243 0.931 . S
H265 C247 0.931 . S
H266 C248 0.929 . S
H267 C249 0.930 . S
H268 C252 0.930 . S
H269 C253 0.931 . S
H270 C257 0.928 . S
H271 C256 0.929 . S
H272 C254 0.932 . S
C273 C274 1.386 . S
C273 C275 1.397 . S
C273 H297 0.931 . S
C274 C273 1.386 . S
C274 C278 1.397 . S
C275 C273 1.397 . S
C275 C276 1.384 . S
C275 H298 0.930 . S
C276 C275 1.384 . S
C276 C277 1.377 . S
C276 C279 1.481 . S
C277 C276 1.377 . S
C277 C278 1.389 . S
C277 H299 0.929 . S
C278 C274 1.397 . S
C278 C277 1.389 . S
C278 H300 0.931 . S
C279 C276 1.481 . S
C279 C280 1.387 . S
C279 C284 1.390 . S
C280 C279 1.387 . S
C280 C281 1.401 . S
C280 H301 0.930 . S
C281 C280 1.401 . S
C281 C282 1.376 . S
C281 C290 1.511 . S
C282 C281 1.376 . S
C282 C283 1.392 . S
C282 H303 0.931 . S
C283 C282 1.392 . S
C283 C284 1.361 . S
C283 C285 1.500 . S
C284 C279 1.390 . S
C284 C283 1.361 . S
C284 H302 0.931 . S
C285 C283 1.500 . S
C285 C286 1.371 . S
C285 C287 1.365 . S
C286 C285 1.371 . S
C286 C296 1.386 . S
C286 H304 0.931 . S
C287 C285 1.365 . S
C287 C288 1.409 . S
C287 H305 0.929 . S
C288 C287 1.409 . S
C288 C289 1.380 . S
C288 H306 0.930 . S
C289 C288 1.380 . S
C289 C296 1.357 . S
C290 C281 1.511 . S
C290 C291 1.341 . S
C290 C292 1.371 . S
C291 C290 1.341 . S
C291 C295 1.394 . S
C291 H307 0.930 . S
C292 C290 1.371 . S
C292 C293 1.392 . S
C292 H308 0.931 . S
C293 C292 1.392 . S
C293 C294 1.331 . S
C293 H311 0.932 . S
C294 C293 1.331 . S
C294 C295 1.336 . S
C295 C291 1.394 . S
C295 C294 1.336 . S
C295 H310 0.929 . S
C296 C286 1.386 . S
C296 C289 1.357 . S
C296 H309 0.928 . S
H297 C273 0.931 . S
H298 C275 0.930 . S
H299 C277 0.929 . S
H300 C278 0.931 . S
H301 C280 0.930 . S
H302 C284 0.931 . S
H303 C282 0.931 . S
H304 C286 0.931 . S
H305 C287 0.929 . S
H306 C288 0.930 . S
H307 C291 0.930 . S
H308 C292 0.931 . S
H309 C296 0.928 . S
H310 C295 0.929 . S
H311 C293 0.932 . S
C312 C313 1.386 . S
C312 C314 1.397 . S
C312 H336 0.931 . S
C313 C312 1.386 . S
C313 C317 1.397 . S
C314 C312 1.397 . S
C314 C315 1.384 . S
C314 H337 0.930 . S
C315 C314 1.384 . S
C315 C316 1.377 . S
C315 C318 1.481 . S
C316 C315 1.377 . S
C316 C317 1.389 . S
C316 H338 0.929 . S
C317 C313 1.397 . S
C317 C316 1.389 . S
C317 H339 0.931 . S
C318 C315 1.481 . S
C318 C319 1.387 . S
C318 C323 1.390 . S
C319 C318 1.387 . S
C319 C320 1.401 . S
C319 H340 0.930 . S
C320 C319 1.401 . S
C320 C321 1.376 . S
C320 C329 1.511 . S
C321 C320 1.376 . S
C321 C322 1.392 . S
C321 H342 0.931 . S
C322 C321 1.392 . S
C322 C323 1.361 . S
C322 C324 1.500 . S
C323 C318 1.390 . S
C323 C322 1.361 . S
C323 H341 0.931 . S
C324 C322 1.500 . S
C324 C325 1.371 . S
C324 C326 1.365 . S
C325 C324 1.371 . S
C325 C335 1.386 . S
C325 H343 0.931 . S
C326 C324 1.365 . S
C326 C327 1.409 . S
C326 H344 0.929 . S
C327 C326 1.409 . S
C327 C328 1.380 . S
C327 H345 0.930 . S
C328 C327 1.380 . S
C328 C335 1.357 . S
C329 C320 1.511 . S
C329 C330 1.341 . S
C329 C331 1.371 . S
C330 C329 1.341 . S
C330 C334 1.394 . S
C330 H346 0.930 . S
C331 C329 1.371 . S
C331 C332 1.392 . S
C331 H347 0.931 . S
C332 C331 1.392 . S
C332 C333 1.331 . S
C332 H350 0.932 . S
C333 C332 1.331 . S
C333 C334 1.336 . S
C334 C330 1.394 . S
C334 C333 1.336 . S
C334 H349 0.929 . S
C335 C325 1.386 . S
C335 C328 1.357 . S
C335 H348 0.928 . S
H336 C312 0.931 . S
H337 C314 0.930 . S
H338 C316 0.929 . S
H339 C317 0.931 . S
H340 C319 0.930 . S
H341 C323 0.931 . S
H342 C321 0.931 . S
H343 C325 0.931 . S
H344 C326 0.929 . S
H345 C327 0.930 . S
H346 C330 0.930 . S
H347 C331 0.931 . S
H348 C335 0.928 . S
H349 C334 0.929 . S
H350 C332 0.932 . S
C351 C352 1.386 . S
C351 C353 1.397 . S
C351 H375 0.931 . S
C352 C351 1.386 . S
C352 C356 1.397 . S
C353 C351 1.397 . S
C353 C354 1.384 . S
C353 H376 0.930 . S
C354 C353 1.384 . S
C354 C355 1.377 . S
C354 C357 1.481 . S
C355 C354 1.377 . S
C355 C356 1.389 . S
C355 H377 0.929 . S
C356 C352 1.397 . S
C356 C355 1.389 . S
C356 H378 0.931 . S
C357 C354 1.481 . S
C357 C358 1.387 . S
C357 C362 1.390 . S
C358 C357 1.387 . S
C358 C359 1.401 . S
C358 H379 0.930 . S
C359 C358 1.401 . S
C359 C360 1.376 . S
C359 C368 1.511 . S
C360 C359 1.376 . S
C360 C361 1.392 . S
C360 H381 0.931 . S
C361 C360 1.392 . S
C361 C362 1.361 . S
C361 C363 1.500 . S
C362 C357 1.390 . S
C362 C361 1.361 . S
C362 H380 0.931 . S
C363 C361 1.500 . S
C363 C364 1.371 . S
C363 C365 1.365 . S
C364 C363 1.371 . S
C364 C374 1.386 . S
C364 H382 0.931 . S
C365 C363 1.365 . S
C365 C366 1.409 . S
C365 H383 0.929 . S
C366 C365 1.409 . S
C366 C367 1.380 . S
C366 H384 0.930 . S
C367 C366 1.380 . S
C367 C374 1.357 . S
C368 C359 1.511 . S
C368 C369 1.341 . S
C368 C370 1.371 . S
C369 C368 1.341 . S
C369 C373 1.394 . S
C369 H385 0.930 . S
C370 C368 1.371 . S
C370 C371 1.392 . S
C370 H386 0.931 . S
C371 C370 1.392 . S
C371 C372 1.331 . S
C371 H389 0.932 . S
C372 C371 1.331 . S
C372 C373 1.336 . S
C373 C369 1.394 . S
C373 C372 1.336 . S
C373 H388 0.929 . S
C374 C364 1.386 . S
C374 C367 1.357 . S
C374 H387 0.928 . S
H375 C351 0.931 . S
H376 C353 0.930 . S
H377 C355 0.929 . S
H378 C356 0.931 . S
H379 C358 0.930 . S
H380 C362 0.931 . S
H381 C360 0.931 . S
H382 C364 0.931 . S
H383 C365 0.929 . S
H384 C366 0.930 . S
H385 C369 0.930 . S
H386 C370 0.931 . S
H387 C374 0.928 . S
H388 C373 0.929 . S
H389 C371 0.932 . S
C390 C391 1.386 . S
C390 C392 1.397 . S
C390 H414 0.931 . S
C391 C390 1.386 . S
C391 C395 1.397 . S
C392 C390 1.397 . S
C392 C393 1.384 . S
C392 H415 0.930 . S
C393 C392 1.384 . S
C393 C394 1.377 . S
C393 C396 1.481 . S
C394 C393 1.377 . S
C394 C395 1.389 . S
C394 H416 0.929 . S
C395 C391 1.397 . S
C395 C394 1.389 . S
C395 H417 0.931 . S
C396 C393 1.481 . S
C396 C397 1.387 . S
C396 C401 1.390 . S
C397 C396 1.387 . S
C397 C398 1.401 . S
C397 H418 0.930 . S
C398 C397 1.401 . S
C398 C399 1.376 . S
C398 C407 1.511 . S
C399 C398 1.376 . S
C399 C400 1.392 . S
C399 H420 0.931 . S
C400 C399 1.392 . S
C400 C401 1.361 . S
C400 C402 1.500 . S
C401 C396 1.390 . S
C401 C400 1.361 . S
C401 H419 0.931 . S
C402 C400 1.500 . S
C402 C403 1.371 . S
C402 C404 1.365 . S
C403 C402 1.371 . S
C403 C413 1.386 . S
C403 H421 0.931 . S
C404 C402 1.365 . S
C404 C405 1.409 . S
C404 H422 0.929 . S
C405 C404 1.409 . S
C405 C406 1.380 . S
C405 H423 0.930 . S
C406 C405 1.380 . S
C406 C413 1.357 . S
C407 C398 1.511 . S
C407 C408 1.341 . S
C407 C409 1.371 . S
C408 C407 1.341 . S
C408 C412 1.394 . S
C408 H424 0.930 . S
C409 C407 1.371 . S
C409 C410 1.392 . S
C409 H425 0.931 . S
C410 C409 1.392 . S
C410 C411 1.331 . S
C410 H428 0.932 . S
C411 C410 1.331 . S
C411 C412 1.336 . S
C412 C408 1.394 . S
C412 C411 1.336 . S
C412 H427 0.929 . S
C413 C403 1.386 . S
C413 C406 1.357 . S
C413 H426 0.928 . S
H414 C390 0.931 . S
H415 C392 0.930 . S
H416 C394 0.929 . S
H417 C395 0.931 . S
H418 C397 0.930 . S
H419 C401 0.931 . S
H420 C399 0.931 . S
H421 C403 0.931 . S
H422 C404 0.929 . S
H423 C405 0.930 . S
H424 C408 0.930 . S
H425 C409 0.931 . S
H426 C413 0.928 . S
H427 C412 0.929 . S
H428 C410 0.932 . S
C429 C430 1.386 . S
C429 C431 1.397 . S
C429 H453 0.931 . S
C430 C429 1.386 . S
C430 C434 1.397 . S
C431 C429 1.397 . S
C431 C432 1.384 . S
C431 H454 0.930 . S
C432 C431 1.384 . S
C432 C433 1.377 . S
C432 C435 1.481 . S
C433 C432 1.377 . S
C433 C434 1.389 . S
C433 H455 0.929 . S
C434 C430 1.397 . S
C434 C433 1.389 . S
C434 H456 0.931 . S
C435 C432 1.481 . S
C435 C436 1.387 . S
C435 C440 1.390 . S
C436 C435 1.387 . S
C436 C437 1.401 . S
C436 H457 0.930 . S
C437 C436 1.401 . S
C437 C438 1.376 . S
C437 C446 1.511 . S
C438 C437 1.376 . S
C438 C439 1.392 . S
C438 H459 0.931 . S
C439 C438 1.392 . S
C439 C440 1.361 . S
C439 C441 1.500 . S
C440 C435 1.390 . S
C440 C439 1.361 . S
C440 H458 0.931 . S
C441 C439 1.500 . S
C441 C442 1.371 . S
C441 C443 1.365 . S
C442 C441 1.371 . S
C442 C452 1.386 . S
C442 H460 0.931 . S
C443 C441 1.365 . S
C443 C444 1.409 . S
C443 H461 0.929 . S
C444 C443 1.409 . S
C444 C445 1.380 . S
C444 H462 0.930 . S
C445 C444 1.380 . S
C445 C452 1.357 . S
C446 C437 1.511 . S
C446 C447 1.341 . S
C446 C448 1.371 . S
C447 C446 1.341 . S
C447 C451 1.394 . S
C447 H463 0.930 . S
C448 C446 1.371 . S
C448 C449 1.392 . S
C448 H464 0.931 . S
C449 C448 1.392 . S
C449 C450 1.331 . S
C449 H467 0.932 . S
C450 C449 1.331 . S
C450 C451 1.336 . S
C451 C447 1.394 . S
C451 C450 1.336 . S
C451 H466 0.929 . S
C452 C442 1.386 . S
C452 C445 1.357 . S
C452 H465 0.928 . S
H453 C429 0.931 . S
H454 C431 0.930 . S
H455 C433 0.929 . S
H456 C434 0.931 . S
H457 C436 0.930 . S
H458 C440 0.931 . S
H459 C438 0.931 . S
H460 C442 0.931 . S
H461 C443 0.929 . S
H462 C444 0.930 . S
H463 C447 0.930 . S
H464 C448 0.931 . S
H465 C452 0.928 . S
H466 C451 0.929 . S
H467 C449 0.932 . S
C468 C469 1.386 . S
C468 C470 1.397 . S
C468 H492 0.931 . S
C469 C468 1.386 . S
C469 C473 1.397 . S
C470 C468 1.397 . S
C470 C471 1.384 . S
C470 H493 0.930 . S
C471 C470 1.384 . S
C471 C472 1.377 . S
C471 C474 1.481 . S
C472 C471 1.377 . S
C472 C473 1.389 . S
C472 H494 0.929 . S
C473 C469 1.397 . S
C473 C472 1.389 . S
C473 H495 0.931 . S
C474 C471 1.481 . S
C474 C475 1.387 . S
C474 C479 1.390 . S
C475 C474 1.387 . S
C475 C476 1.401 . S
C475 H496 0.930 . S
C476 C475 1.401 . S
C476 C477 1.376 . S
C476 C485 1.511 . S
C477 C476 1.376 . S
C477 C478 1.392 . S
C477 H498 0.931 . S
C478 C477 1.392 . S
C478 C479 1.361 . S
C478 C480 1.500 . S
C479 C474 1.390 . S
C479 C478 1.361 . S
C479 H497 0.931 . S
C480 C478 1.500 . S
C480 C481 1.371 . S
C480 C482 1.365 . S
C481 C480 1.371 . S
C481 C491 1.386 . S
C481 H499 0.931 . S
C482 C480 1.365 . S
C482 C483 1.409 . S
C482 H500 0.929 . S
C483 C482 1.409 . S
C483 C484 1.380 . S
C483 H501 0.930 . S
C484 C483 1.380 . S
C484 C491 1.357 . S
C485 C476 1.511 . S
C485 C486 1.341 . S
C485 C487 1.371 . S
C486 C485 1.341 . S
C486 C490 1.394 . S
C486 H502 0.930 . S
C487 C485 1.371 . S
C487 C488 1.392 . S
C487 H503 0.931 . S
C488 C487 1.392 . S
C488 C489 1.331 . S
C488 H506 0.932 . S
C489 C488 1.331 . S
C489 C490 1.336 . S
C490 C486 1.394 . S
C490 C489 1.336 . S
C490 H505 0.929 . S
C491 C481 1.386 . S
C491 C484 1.357 . S
C491 H504 0.928 . S
H492 C468 0.931 . S
H493 C470 0.930 . S
H494 C472 0.929 . S
H495 C473 0.931 . S
H496 C475 0.930 . S
H497 C479 0.931 . S
H498 C477 0.931 . S
H499 C481 0.931 . S
H500 C482 0.929 . S
H501 C483 0.930 . S
H502 C486 0.930 . S
H503 C487 0.931 . S
H504 C491 0.928 . S
H505 C490 0.929 . S
H506 C488 0.932 . S
C507 C508 1.386 . S
C507 C509 1.397 . S
C507 H531 0.931 . S
C508 C507 1.386 . S
C508 C512 1.397 . S
C509 C507 1.397 . S
C509 C510 1.384 . S
C509 H532 0.930 . S
C510 C509 1.384 . S
C510 C511 1.377 . S
C510 C513 1.481 . S
C511 C510 1.377 . S
C511 C512 1.389 . S
C511 H533 0.929 . S
C512 C508 1.397 . S
C512 C511 1.389 . S
C512 H534 0.931 . S
C513 C510 1.481 . S
C513 C514 1.387 . S
C513 C518 1.390 . S
C514 C513 1.387 . S
C514 C515 1.401 . S
C514 H535 0.930 . S
C515 C514 1.401 . S
C515 C516 1.376 . S
C515 C524 1.511 . S
C516 C515 1.376 . S
C516 C517 1.392 . S
C516 H537 0.931 . S
C517 C516 1.392 . S
C517 C518 1.361 . S
C517 C519 1.500 . S
C518 C513 1.390 . S
C518 C517 1.361 . S
C518 H536 0.931 . S
C519 C517 1.500 . S
C519 C520 1.371 . S
C519 C521 1.365 . S
C520 C519 1.371 . S
C520 C530 1.386 . S
C520 H538 0.931 . S
C521 C519 1.365 . S
C521 C522 1.409 . S
C521 H539 0.929 . S
C522 C521 1.409 . S
C522 C523 1.380 . S
C522 H540 0.930 . S
C523 C522 1.380 . S
C523 C530 1.357 . S
C524 C515 1.511 . S
C524 C525 1.341 . S
C524 C526 1.371 . S
C525 C524 1.341 . S
C525 C529 1.394 . S
C525 H541 0.930 . S
C526 C524 1.371 . S
C526 C527 1.392 . S
C526 H542 0.931 . S
C527 C526 1.392 . S
C527 C528 1.331 . S
C527 H545 0.932 . S
C528 C527 1.331 . S
C528 C529 1.336 . S
C529 C525 1.394 . S
C529 C528 1.336 . S
C529 H544 0.929 . S
C530 C520 1.386 . S
C530 C523 1.357 . S
C530 H543 0.928 . S
H531 C507 0.931 . S
H532 C509 0.930 . S
H533 C511 0.929 . S
H534 C512 0.931 . S
H535 C514 0.930 . S
H536 C518 0.931 . S
H537 C516 0.931 . S
H538 C520 0.931 . S
H539 C521 0.929 . S
H540 C522 0.930 . S
H541 C525 0.930 . S
H542 C526 0.931 . S
H543 C530 0.928 . S
H544 C529 0.929 . S
H545 C527 0.932 . S
C546 C547 1.386 . S
C546 C548 1.397 . S
C546 H570 0.931 . S
C547 C546 1.386 . S
C547 C551 1.397 . S
C548 C546 1.397 . S
C548 C549 1.384 . S
C548 H571 0.930 . S
C549 C548 1.384 . S
C549 C550 1.377 . S
C549 C552 1.481 . S
C550 C549 1.377 . S
C550 C551 1.389 . S
C550 H572 0.929 . S
C551 C547 1.397 . S
C551 C550 1.389 . S
C551 H573 0.931 . S
C552 C549 1.481 . S
C552 C553 1.387 . S
C552 C557 1.390 . S
C553 C552 1.387 . S
C553 C554 1.401 . S
C553 H574 0.930 . S
C554 C553 1.401 . S
C554 C555 1.376 . S
C554 C563 1.511 . S
C555 C554 1.376 . S
C555 C556 1.392 . S
C555 H576 0.931 . S
C556 C555 1.392 . S
C556 C557 1.361 . S
C556 C558 1.500 . S
C557 C552 1.390 . S
C557 C556 1.361 . S
C557 H575 0.931 . S
C558 C556 1.500 . S
C558 C559 1.371 . S
C558 C560 1.365 . S
C559 C558 1.371 . S
C559 C569 1.386 . S
C559 H577 0.931 . S
C560 C558 1.365 . S
C560 C561 1.409 . S
C560 H578 0.929 . S
C561 C560 1.409 . S
C561 C562 1.380 . S
C561 H579 0.930 . S
C562 C561 1.380 . S
C562 C569 1.357 . S
C563 C554 1.511 . S
C563 C564 1.341 . S
C563 C565 1.371 . S
C564 C563 1.341 . S
C564 C568 1.394 . S
C564 H580 0.930 . S
C565 C563 1.371 . S
C565 C566 1.392 . S
C565 H581 0.931 . S
C566 C565 1.392 . S
C566 C567 1.331 . S
C566 H584 0.932 . S
C567 C566 1.331 . S
C567 C568 1.336 . S
C568 C564 1.394 . S
C568 C567 1.336 . S
C568 H583 0.929 . S
C569 C559 1.386 . S
C569 C562 1.357 . S
C569 H582 0.928 . S
H570 C546 0.931 . S
H571 C548 0.930 . S
H572 C550 0.929 . S
H573 C551 0.931 . S
H574 C553 0.930 . S
H575 C557 0.931 . S
H576 C555 0.931 . S
H577 C559 0.931 . S
H578 C560 0.929 . S
H579 C561 0.930 . S
H580 C564 0.930 . S
H581 C565 0.931 . S
H582 C569 0.928 . S
H583 C568 0.929 . S
H584 C566 0.932 . S
C585 C586 1.386 . S
C585 C587 1.397 . S
C585 H609 0.931 . S
C586 C585 1.386 . S
C586 C590 1.397 . S
C587 C585 1.397 . S
C587 C588 1.384 . S
C587 H610 0.930 . S
C588 C587 1.384 . S
C588 C589 1.377 . S
C588 C591 1.481 . S
C589 C588 1.377 . S
C589 C590 1.389 . S
C589 H611 0.929 . S
C590 C586 1.397 . S
C590 C589 1.389 . S
C590 H612 0.931 . S
C591 C588 1.481 . S
C591 C592 1.387 . S
C591 C596 1.390 . S
C592 C591 1.387 . S
C592 C593 1.401 . S
C592 H613 0.930 . S
C593 C592 1.401 . S
C593 C594 1.376 . S
C593 C602 1.511 . S
C594 C593 1.376 . S
C594 C595 1.392 . S
C594 H615 0.931 . S
C595 C594 1.392 . S
C595 C596 1.361 . S
C595 C597 1.500 . S
C596 C591 1.390 . S
C596 C595 1.361 . S
C596 H614 0.931 . S
C597 C595 1.500 . S
C597 C598 1.371 . S
C597 C599 1.365 . S
C598 C597 1.371 . S
C598 C608 1.386 . S
C598 H616 0.931 . S
C599 C597 1.365 . S
C599 C600 1.409 . S
C599 H617 0.929 . S
C600 C599 1.409 . S
C600 C601 1.380 . S
C600 H618 0.930 . S
C601 C600 1.380 . S
C601 C608 1.357 . S
C602 C593 1.511 . S
C602 C603 1.341 . S
C602 C604 1.371 . S
C603 C602 1.341 . S
C603 C607 1.394 . S
C603 H619 0.930 . S
C604 C602 1.371 . S
C604 C605 1.392 . S
C604 H620 0.931 . S
C605 C604 1.392 . S
C605 C606 1.331 . S
C605 H623 0.932 . S
C606 C605 1.331 . S
C606 C607 1.336 . S
C607 C603 1.394 . S
C607 C606 1.336 . S
C607 H622 0.929 . S
C608 C598 1.386 . S
C608 C601 1.357 . S
C608 H621 0.928 . S
H609 C585 0.931 . S
H610 C587 0.930 . S
H611 C589 0.929 . S
H612 C590 0.931 . S
H613 C592 0.930 . S
H614 C596 0.931 . S
H615 C594 0.931 . S
H616 C598 0.931 . S
H617 C599 0.929 . S
H618 C600 0.930 . S
H619 C603 0.930 . S
H620 C604 0.931 . S
H621 C608 0.928 . S
H622 C607 0.929 . S
H623 C605 0.932 . S
C624 C625 1.386 . S
C624 C626 1.397 . S
C624 H648 0.931 . S
C625 C624 1.386 . S
C625 C629 1.397 . S
C626 C624 1.397 . S
C626 C627 1.384 . S
C626 H649 0.930 . S
C627 C626 1.384 . S
C627 C628 1.377 . S
C627 C630 1.481 . S
C628 C627 1.377 . S
C628 C629 1.389 . S
C628 H650 0.929 . S
C629 C625 1.397 . S
C629 C628 1.389 . S
C629 H651 0.931 . S
C630 C627 1.481 . S
C630 C631 1.387 . S
C630 C635 1.390 . S
C631 C630 1.387 . S
C631 C632 1.401 . S
C631 H652 0.930 . S
C632 C631 1.401 . S
C632 C633 1.376 . S
C632 C641 1.511 . S
C633 C632 1.376 . S
C633 C634 1.392 . S
C633 H654 0.931 . S
C634 C633 1.392 . S
C634 C635 1.361 . S
C634 C636 1.500 . S
C635 C630 1.390 . S
C635 C634 1.361 . S
C635 H653 0.931 . S
C636 C634 1.500 . S
C636 C637 1.371 . S
C636 C638 1.365 . S
C637 C636 1.371 . S
C637 C647 1.386 . S
C637 H655 0.931 . S
C638 C636 1.365 . S
C638 C639 1.409 . S
C638 H656 0.929 . S
C639 C638 1.409 . S
C639 C640 1.380 . S
C639 H657 0.930 . S
C640 C639 1.380 . S
C640 C647 1.357 . S
C641 C632 1.511 . S
C641 C642 1.341 . S
C641 C643 1.371 . S
C642 C641 1.341 . S
C642 C646 1.394 . S
C642 H658 0.930 . S
C643 C641 1.371 . S
C643 C644 1.392 . S
C643 H659 0.931 . S
C644 C643 1.392 . S
C644 C645 1.331 . S
C644 H662 0.932 . S
C645 C644 1.331 . S
C645 C646 1.336 . S
C646 C642 1.394 . S
C646 C645 1.336 . S
C646 H661 0.929 . S
C647 C637 1.386 . S
C647 C640 1.357 . S
C647 H660 0.928 . S
H648 C624 0.931 . S
H649 C626 0.930 . S
H650 C628 0.929 . S
H651 C629 0.931 . S
H652 C631 0.930 . S
H653 C635 0.931 . S
H654 C633 0.931 . S
H655 C637 0.931 . S
H656 C638 0.929 . S
H657 C639 0.930 . S
H658 C642 0.930 . S
H659 C643 0.931 . S
H660 C647 0.928 . S
H661 C646 0.929 . S
H662 C644 0.932 . S
C663 C664 1.386 . S
C663 C665 1.397 . S
C663 H687 0.931 . S
C664 C663 1.386 . S
C664 C668 1.397 . S
C665 C663 1.397 . S
C665 C666 1.384 . S
C665 H688 0.930 . S
C666 C665 1.384 . S
C666 C667 1.377 . S
C666 C669 1.481 . S
C667 C666 1.377 . S
C667 C668 1.389 . S
C667 H689 0.929 . S
C668 C664 1.397 . S
C668 C667 1.389 . S
C668 H690 0.931 . S
C669 C666 1.481 . S
C669 C670 1.387 . S
C669 C674 1.390 . S
C670 C669 1.387 . S
C670 C671 1.401 . S
C670 H691 0.930 . S
C671 C670 1.401 . S
C671 C672 1.376 . S
C671 C680 1.511 . S
C672 C671 1.376 . S
C672 C673 1.392 . S
C672 H693 0.931 . S
C673 C672 1.392 . S
C673 C674 1.361 . S
C673 C675 1.500 . S
C674 C669 1.390 . S
C674 C673 1.361 . S
C674 H692 0.931 . S
C675 C673 1.500 . S
C675 C676 1.371 . S
C675 C677 1.365 . S
C676 C675 1.371 . S
C676 C686 1.386 . S
C676 H694 0.931 . S
C677 C675 1.365 . S
C677 C678 1.409 . S
C677 H695 0.929 . S
C678 C677 1.409 . S
C678 C679 1.380 . S
C678 H696 0.930 . S
C679 C678 1.380 . S
C679 C686 1.357 . S
C680 C671 1.511 . S
C680 C681 1.341 . S
C680 C682 1.371 . S
C681 C680 1.341 . S
C681 C685 1.394 . S
C681 H697 0.930 . S
C682 C680 1.371 . S
C682 C683 1.392 . S
C682 H698 0.931 . S
C683 C682 1.392 . S
C683 C684 1.331 . S
C683 H701 0.932 . S
C684 C683 1.331 . S
C684 C685 1.336 . S
C685 C681 1.394 . S
C685 C684 1.336 . S
C685 H700 0.929 . S
C686 C676 1.386 . S
C686 C679 1.357 . S
C686 H699 0.928 . S
H687 C663 0.931 . S
H688 C665 0.930 . S
H689 C667 0.929 . S
H690 C668 0.931 . S
H691 C670 0.930 . S
H692 C674 0.931 . S
H693 C672 0.931 . S
H694 C676 0.931 . S
H695 C677 0.929 . S
H696 C678 0.930 . S
H697 C681 0.930 . S
H698 C682 0.931 . S
H699 C686 0.928 . S
H700 C685 0.929 . S
H701 C683 0.932 . S
Eu702 N733 2.657 . S
Eu702 N740 2.609 . S
Eu702 O746 2.558 . S
Eu702 O747 2.612 1_565 S
Eu702 O749 2.339 1_565 S
Eu702 O750 2.563 1_565 S
Eu702 O751 2.419 . S
Eu702 O753 2.380 1_556 S
Eu702 O754 2.432 . S
Eu702 C766 2.848 . S
C703 C706 1.429 . S
C703 C707 1.411 . S
C703 N710 1.377 . S
C704 C706 1.420 . S
C704 C708 1.423 . S
C704 C716 1.392 . S
C705 C707 1.420 . S
C705 C708 1.351 . S
C705 H728 0.931 . S
C706 C703 1.429 . S
C706 C704 1.420 . S
C706 N714 1.362 . S
C707 C703 1.411 . S
C707 C705 1.420 . S
C707 C712 1.395 . S
C708 C704 1.423 . S
C708 C705 1.351 . S
C708 H720 0.930 . S
C709 C711 1.400 . S
C709 C712 1.386 . S
C709 H721 0.930 . S
N710 C703 1.377 . S
N710 C711 1.321 . S
N710 Eu713 2.609 . S
C711 C709 1.400 . S
C711 N710 1.321 . S
C711 H718 0.930 . S
C712 C707 1.395 . S
C712 C709 1.386 . S
C712 H731 0.930 . S
Eu713 N710 2.609 . S
Eu713 N714 2.657 . S
Eu713 O747 2.380 1_554 S
Eu713 O748 2.432 . S
Eu713 O752 2.558 . S
Eu713 O753 2.612 1_545 S
Eu713 O755 2.339 1_545 S
Eu713 O756 2.563 1_545 S
Eu713 O757 2.419 . S
Eu713 C777 2.848 . S
N714 C706 1.362 . S
N714 Eu713 2.657 . S
N714 C715 1.334 . S
C715 N714 1.334 . S
C715 C717 1.413 . S
C715 H722 0.929 . S
C716 C704 1.392 . S
C716 C717 1.367 . S
C716 H724 0.930 . S
C717 C715 1.413 . S
C717 C716 1.367 . S
C717 H719 0.930 . S
H718 C711 0.930 . S
H719 C717 0.930 . S
H720 C708 0.930 . S
H721 C709 0.930 . S
H722 C715 0.929 . S
H723 C737 0.930 . S
H724 C716 0.930 . S
H725 C743 0.930 . S
H726 C734 0.929 . S
H727 C741 0.930 . S
H728 C705 0.931 . S
H729 C735 0.930 . S
H730 C768 0.930 . S
H731 C712 0.930 . S
H732 C767 0.931 . S
N733 Eu702 2.657 . S
N733 C734 1.334 . S
N733 C738 1.362 . S
C734 H726 0.929 . S
C734 N733 1.334 . S
C734 C737 1.413 . S
C735 H729 0.930 . S
C735 C736 1.392 . S
C735 C737 1.367 . S
C736 C735 1.392 . S
C736 C738 1.420 . S
C736 C768 1.423 . S
C737 H723 0.930 . S
C737 C734 1.413 . S
C737 C735 1.367 . S
C738 N733 1.362 . S
C738 C736 1.420 . S
C738 C742 1.429 . S
H739 C744 0.930 . S
N740 Eu702 2.609 . S
N740 C742 1.377 . S
N740 C743 1.321 . S
C741 H727 0.930 . S
C741 C743 1.400 . S
C741 C744 1.386 . S
C742 C738 1.429 . S
C742 N740 1.377 . S
C742 C745 1.411 . S
C743 H725 0.930 . S
C743 N740 1.321 . S
C743 C741 1.400 . S
C744 H739 0.930 . S
C744 C741 1.386 . S
C744 C745 1.395 . S
C745 C742 1.411 . S
C745 C744 1.395 . S
C745 C767 1.420 . S
O746 Eu702 2.558 . S
O746 C766 1.257 . S
O747 Eu702 2.612 1_545 S
O747 Eu713 2.380 1_556 S
O747 C758 1.276 . S
O748 Eu713 2.432 . S
O748 C765 1.264 1_554 S
O749 Eu702 2.339 1_545 S
O749 C765 1.254 . S
O750 Eu702 2.563 1_545 S
O750 C758 1.235 . S
O751 Eu702 2.419 . S
O751 C766 1.249 . S
O752 Eu713 2.558 . S
O752 C777 1.257 . S
O753 Eu702 2.380 1_554 S
O753 Eu713 2.612 1_565 S
O753 C769 1.276 . S
O754 Eu702 2.432 . S
O754 C776 1.264 1_556 S
O755 Eu713 2.339 1_565 S
O755 C776 1.254 . S
O756 Eu713 2.563 1_565 S
O756 C769 1.235 . S
O757 Eu713 2.419 . S
O757 C777 1.249 . S
C758 O747 1.276 . S
C758 O750 1.235 . S
C759 C761 1.393 1_565 S
C759 C763 1.395 . S
C759 C766 1.492 . S
C760 C761 1.392 . S
C760 C762 1.386 1_545 S
C761 C759 1.393 1_545 S
C761 C760 1.392 . S
C761 H778 0.930 . S
C762 C760 1.386 1_565 S
C762 C764 1.395 . S
C762 H779 0.930 . S
C763 C759 1.395 . S
C763 C764 1.379 . S
C763 H780 0.930 . S
C764 C762 1.395 . S
C764 C763 1.379 . S
C764 H781 0.930 . S
C765 O748 1.264 1_556 S
C765 O749 1.254 . S
C766 Eu702 2.848 . S
C766 O746 1.257 . S
C766 O751 1.249 . S
C766 C759 1.492 . S
C767 H732 0.931 . S
C767 C745 1.420 . S
C767 C768 1.351 . S
C768 H730 0.930 . S
C768 C736 1.423 . S
C768 C767 1.351 . S
C769 O753 1.276 . S
C769 O756 1.235 . S
C770 C771 1.393 1_545 S
C770 C774 1.395 . S
C770 C777 1.492 . S
C771 C770 1.393 1_565 S
C771 C772 1.392 . S
C771 H782 0.930 . S
C772 C771 1.392 . S
C772 C773 1.386 1_565 S
C773 C772 1.386 1_545 S
C773 C775 1.395 . S
C773 H783 0.930 . S
C774 C770 1.395 . S
C774 C775 1.379 . S
C774 H784 0.930 . S
C775 C773 1.395 . S
C775 C774 1.379 . S
C775 H785 0.930 . S
C776 O754 1.264 1_554 S
C776 O755 1.254 . S
C777 Eu713 2.848 . S
C777 O752 1.257 . S
C777 O757 1.249 . S
C777 C770 1.492 . S
H778 C761 0.930 . S
H779 C762 0.930 . S
H780 C763 0.930 . S
H781 C764 0.930 . S
H782 C771 0.930 . S
H783 C773 0.930 . S
H784 C774 0.930 . S
H785 C775 0.930 . S
Eu786 N817 2.657 . S
Eu786 N824 2.609 . S
Eu786 O830 2.558 . S
Eu786 O831 2.612 1_455 S
Eu786 O833 2.339 1_455 S
Eu786 O834 2.563 1_455 S
Eu786 O835 2.419 . S
Eu786 O837 2.380 1_556 S
Eu786 O838 2.432 . S
Eu786 C850 2.848 . S
C787 C790 1.429 . S
C787 C791 1.411 . S
C787 N794 1.377 . S
C788 C790 1.420 . S
C788 C792 1.423 . S
C788 C800 1.392 . S
C789 C791 1.420 . S
C789 C792 1.351 . S
C789 H812 0.931 . S
C790 C787 1.429 . S
C790 C788 1.420 . S
C790 N798 1.362 . S
C791 C787 1.411 . S
C791 C789 1.420 . S
C791 C796 1.395 . S
C792 C788 1.423 . S
C792 C789 1.351 . S
C792 H804 0.930 . S
C793 C795 1.400 . S
C793 C796 1.386 . S
C793 H805 0.930 . S
N794 C787 1.377 . S
N794 C795 1.321 . S
N794 Eu797 2.609 . S
C795 C793 1.400 . S
C795 N794 1.321 . S
C795 H802 0.930 . S
C796 C791 1.395 . S
C796 C793 1.386 . S
C796 H815 0.930 . S
Eu797 N794 2.609 . S
Eu797 N798 2.657 . S
Eu797 O831 2.380 1_554 S
Eu797 O832 2.432 . S
Eu797 O836 2.558 . S
Eu797 O837 2.612 1_655 S
Eu797 O839 2.339 1_655 S
Eu797 O840 2.563 1_655 S
Eu797 O841 2.419 . S
Eu797 C861 2.848 . S
N798 C790 1.362 . S
N798 Eu797 2.657 . S
N798 C799 1.334 . S
C799 N798 1.334 . S
C799 C801 1.413 . S
C799 H806 0.929 . S
C800 C788 1.392 . S
C800 C801 1.367 . S
C800 H808 0.930 . S
C801 C799 1.413 . S
C801 C800 1.367 . S
C801 H803 0.930 . S
H802 C795 0.930 . S
H803 C801 0.930 . S
H804 C792 0.930 . S
H805 C793 0.930 . S
H806 C799 0.929 . S
H807 C821 0.930 . S
H808 C800 0.930 . S
H809 C827 0.930 . S
H810 C818 0.929 . S
H811 C825 0.930 . S
H812 C789 0.931 . S
H813 C819 0.930 . S
H814 C852 0.930 . S
H815 C796 0.930 . S
H816 C851 0.931 . S
N817 Eu786 2.657 . S
N817 C818 1.334 . S
N817 C822 1.362 . S
C818 H810 0.929 . S
C818 N817 1.334 . S
C818 C821 1.413 . S
C819 H813 0.930 . S
C819 C820 1.392 . S
C819 C821 1.367 . S
C820 C819 1.392 . S
C820 C822 1.420 . S
C820 C852 1.423 . S
C821 H807 0.930 . S
C821 C818 1.413 . S
C821 C819 1.367 . S
C822 N817 1.362 . S
C822 C820 1.420 . S
C822 C826 1.429 . S
H823 C828 0.930 . S
N824 Eu786 2.609 . S
N824 C826 1.377 . S
N824 C827 1.321 . S
C825 H811 0.930 . S
C825 C827 1.400 . S
C825 C828 1.386 . S
C826 C822 1.429 . S
C826 N824 1.377 . S
C826 C829 1.411 . S
C827 H809 0.930 . S
C827 N824 1.321 . S
C827 C825 1.400 . S
C828 H823 0.930 . S
C828 C825 1.386 . S
C828 C829 1.395 . S
C829 C826 1.411 . S
C829 C828 1.395 . S
C829 C851 1.420 . S
O830 Eu786 2.558 . S
O830 C850 1.257 . S
O831 Eu786 2.612 1_655 S
O831 Eu797 2.380 1_556 S
O831 C842 1.276 . S
O832 Eu797 2.432 . S
O832 C849 1.264 1_554 S
O833 Eu786 2.339 1_655 S
O833 C849 1.254 . S
O834 Eu786 2.563 1_655 S
O834 C842 1.235 . S
O835 Eu786 2.419 . S
O835 C850 1.249 . S
O836 Eu797 2.558 . S
O836 C861 1.257 . S
O837 Eu786 2.380 1_554 S
O837 Eu797 2.612 1_455 S
O837 C853 1.276 . S
O838 Eu786 2.432 . S
O838 C860 1.264 1_556 S
O839 Eu797 2.339 1_455 S
O839 C860 1.254 . S
O840 Eu797 2.563 1_455 S
O840 C853 1.235 . S
O841 Eu797 2.419 . S
O841 C861 1.249 . S
C842 O831 1.276 . S
C842 O834 1.235 . S
C843 C845 1.393 1_455 S
C843 C847 1.395 . S
C843 C850 1.492 . S
C844 C845 1.392 . S
C844 C846 1.386 1_655 S
C845 C843 1.393 1_655 S
C845 C844 1.392 . S
C845 H862 0.930 . S
C846 C844 1.386 1_455 S
C846 C848 1.395 . S
C846 H863 0.930 . S
C847 C843 1.395 . S
C847 C848 1.379 . S
C847 H864 0.930 . S
C848 C846 1.395 . S
C848 C847 1.379 . S
C848 H865 0.930 . S
C849 O832 1.264 1_556 S
C849 O833 1.254 . S
C850 Eu786 2.848 . S
C850 O830 1.257 . S
C850 O835 1.249 . S
C850 C843 1.492 . S
C851 H816 0.931 . S
C851 C829 1.420 . S
C851 C852 1.351 . S
C852 H814 0.930 . S
C852 C820 1.423 . S
C852 C851 1.351 . S
C853 O837 1.276 . S
C853 O840 1.235 . S
C854 C855 1.393 1_655 S
C854 C858 1.395 . S
C854 C861 1.492 . S
C855 C854 1.393 1_455 S
C855 C856 1.392 . S
C855 H866 0.930 . S
C856 C855 1.392 . S
C856 C857 1.386 1_455 S
C857 C856 1.386 1_655 S
C857 C859 1.395 . S
C857 H867 0.930 . S
C858 C854 1.395 . S
C858 C859 1.379 . S
C858 H868 0.930 . S
C859 C857 1.395 . S
C859 C858 1.379 . S
C859 H869 0.930 . S
C860 O838 1.264 1_554 S
C860 O839 1.254 . S
C861 Eu797 2.848 . S
C861 O836 1.257 . S
C861 O841 1.249 . S
C861 C854 1.492 . S
H862 C845 0.930 . S
H863 C846 0.930 . S
H864 C847 0.930 . S
H865 C848 0.930 . S
H866 C855 0.930 . S
H867 C857 0.930 . S
H868 C858 0.930 . S
H869 C859 0.930 . S
Eu870 N901 2.657 . S
Eu870 N908 2.609 . S
Eu870 O914 2.558 . S
Eu870 O915 2.612 . S
Eu870 O917 2.339 . S
Eu870 O918 2.563 . S
Eu870 O919 2.419 . S
Eu870 O921 2.380 1_554 S
Eu870 O922 2.432 . S
Eu870 C934 2.848 . S
C871 C874 1.429 . S
C871 C875 1.411 . S
C871 N878 1.377 . S
C872 C874 1.420 . S
C872 C876 1.423 . S
C872 C884 1.392 . S
C873 C875 1.420 . S
C873 C876 1.351 . S
C873 H896 0.931 . S
C874 C871 1.429 . S
C874 C872 1.420 . S
C874 N882 1.362 . S
C875 C871 1.411 . S
C875 C873 1.420 . S
C875 C880 1.395 . S
C876 C872 1.423 . S
C876 C873 1.351 . S
C876 H888 0.930 . S
C877 C879 1.400 . S
C877 C880 1.386 . S
C877 H889 0.930 . S
N878 C871 1.377 . S
N878 C879 1.321 . S
N878 Eu881 2.609 . S
C879 C877 1.400 . S
C879 N878 1.321 . S
C879 H886 0.930 . S
C880 C875 1.395 . S
C880 C877 1.386 . S
C880 H899 0.930 . S
Eu881 N878 2.609 . S
Eu881 N882 2.657 . S
Eu881 O915 2.380 1_556 S
Eu881 O916 2.432 . S
Eu881 O920 2.558 . S
Eu881 O921 2.612 . S
Eu881 O923 2.339 . S
Eu881 O924 2.563 . S
Eu881 O925 2.419 . S
Eu881 C945 2.848 . S
N882 C874 1.362 . S
N882 Eu881 2.657 . S
N882 C883 1.334 . S
C883 N882 1.334 . S
C883 C885 1.413 . S
C883 H890 0.929 . S
C884 C872 1.392 . S
C884 C885 1.367 . S
C884 H892 0.930 . S
C885 C883 1.413 . S
C885 C884 1.367 . S
C885 H887 0.930 . S
H886 C879 0.930 . S
H887 C885 0.930 . S
H888 C876 0.930 . S
H889 C877 0.930 . S
H890 C883 0.929 . S
H891 C905 0.930 . S
H892 C884 0.930 . S
H893 C911 0.930 . S
H894 C902 0.929 . S
H895 C909 0.930 . S
H896 C873 0.931 . S
H897 C903 0.930 . S
H898 C936 0.930 . S
H899 C880 0.930 . S
H900 C935 0.931 . S
N901 Eu870 2.657 . S
N901 C902 1.334 . S
N901 C906 1.362 . S
C902 H894 0.929 . S
C902 N901 1.334 . S
C902 C905 1.413 . S
C903 H897 0.930 . S
C903 C904 1.392 . S
C903 C905 1.367 . S
C904 C903 1.392 . S
C904 C906 1.420 . S
C904 C936 1.423 . S
C905 H891 0.930 . S
C905 C902 1.413 . S
C905 C903 1.367 . S
C906 N901 1.362 . S
C906 C904 1.420 . S
C906 C910 1.429 . S
H907 C912 0.930 . S
N908 Eu870 2.609 . S
N908 C910 1.377 . S
N908 C911 1.321 . S
C909 H895 0.930 . S
C909 C911 1.400 . S
C909 C912 1.386 . S
C910 C906 1.429 . S
C910 N908 1.377 . S
C910 C913 1.411 . S
C911 H893 0.930 . S
C911 N908 1.321 . S
C911 C909 1.400 . S
C912 H907 0.930 . S
C912 C909 1.386 . S
C912 C913 1.395 . S
C913 C910 1.411 . S
C913 C912 1.395 . S
C913 C935 1.420 . S
O914 Eu870 2.558 . S
O914 C934 1.257 . S
O915 Eu870 2.612 . S
O915 Eu881 2.380 1_554 S
O915 C926 1.276 . S
O916 Eu881 2.432 . S
O916 C933 1.264 1_556 S
O917 Eu870 2.339 . S
O917 C933 1.254 . S
O918 Eu870 2.563 . S
O918 C926 1.235 . S
O919 Eu870 2.419 . S
O919 C934 1.249 . S
O920 Eu881 2.558 . S
O920 C945 1.257 . S
O921 Eu870 2.380 1_556 S
O921 Eu881 2.612 . S
O921 C937 1.276 . S
O922 Eu870 2.432 . S
O922 C944 1.264 1_554 S
O923 Eu881 2.339 . S
O923 C944 1.254 . S
O924 Eu881 2.563 . S
O924 C937 1.235 . S
O925 Eu881 2.419 . S
O925 C945 1.249 . S
C926 O915 1.276 . S
C926 O918 1.235 . S
C927 C929 1.393 . S
C927 C931 1.395 . S
C927 C934 1.492 . S
C928 C929 1.392 . S
C928 C930 1.386 . S
C929 C927 1.393 . S
C929 C928 1.392 . S
C929 H946 0.930 . S
C930 C928 1.386 . S
C930 C932 1.395 . S
C930 H947 0.930 . S
C931 C927 1.395 . S
C931 C932 1.379 . S
C931 H948 0.930 . S
C932 C930 1.395 . S
C932 C931 1.379 . S
C932 H949 0.930 . S
C933 O916 1.264 1_554 S
C933 O917 1.254 . S
C934 Eu870 2.848 . S
C934 O914 1.257 . S
C934 O919 1.249 . S
C934 C927 1.492 . S
C935 H900 0.931 . S
C935 C913 1.420 . S
C935 C936 1.351 . S
C936 H898 0.930 . S
C936 C904 1.423 . S
C936 C935 1.351 . S
C937 O921 1.276 . S
C937 O924 1.235 . S
C938 C939 1.393 . S
C938 C942 1.395 . S
C938 C945 1.492 . S
C939 C938 1.393 . S
C939 C940 1.392 . S
C939 H950 0.930 . S
C940 C939 1.392 . S
C940 C941 1.386 . S
C941 C940 1.386 . S
C941 C943 1.395 . S
C941 H951 0.930 . S
C942 C938 1.395 . S
C942 C943 1.379 . S
C942 H952 0.930 . S
C943 C941 1.395 . S
C943 C942 1.379 . S
C943 H953 0.930 . S
C944 O922 1.264 1_556 S
C944 O923 1.254 . S
C945 Eu881 2.848 . S
C945 O920 1.257 . S
C945 O925 1.249 . S
C945 C938 1.492 . S
H946 C929 0.930 . S
H947 C930 0.930 . S
H948 C931 0.930 . S
H949 C932 0.930 . S
H950 C939 0.930 . S
H951 C941 0.930 . S
H952 C942 0.930 . S
H953 C943 0.930 . S
Eu954 N985 2.657 . S
Eu954 N992 2.609 . S
Eu954 O998 2.558 . S
Eu954 O999 2.612 . S
Eu954 O1001 2.339 . S
Eu954 O1002 2.563 . S
Eu954 O1003 2.419 . S
Eu954 O1005 2.380 . S
Eu954 O1006 2.432 . S
Eu954 C1018 2.848 . S
C955 C958 1.429 . S
C955 C959 1.411 . S
C955 N962 1.377 . S
C956 C958 1.420 . S
C956 C960 1.423 . S
C956 C968 1.392 . S
C957 C959 1.420 . S
C957 C960 1.351 . S
C957 H980 0.931 . S
C958 C955 1.429 . S
C958 C956 1.420 . S
C958 N966 1.362 . S
C959 C955 1.411 . S
C959 C957 1.420 . S
C959 C964 1.395 . S
C960 C956 1.423 . S
C960 C957 1.351 . S
C960 H972 0.930 . S
C961 C963 1.400 . S
C961 C964 1.386 . S
C961 H973 0.930 . S
N962 C955 1.377 . S
N962 C963 1.321 . S
N962 Eu965 2.609 . S
C963 C961 1.400 . S
C963 N962 1.321 . S
C963 H970 0.930 . S
C964 C959 1.395 . S
C964 C961 1.386 . S
C964 H983 0.930 . S
Eu965 N962 2.609 . S
Eu965 N966 2.657 . S
Eu965 O999 2.380 . S
Eu965 O1000 2.432 . S
Eu965 O1004 2.558 . S
Eu965 O1005 2.612 . S
Eu965 O1007 2.339 . S
Eu965 O1008 2.563 . S
Eu965 O1009 2.419 . S
Eu965 C1029 2.848 . S
N966 C958 1.362 . S
N966 Eu965 2.657 . S
N966 C967 1.334 . S
C967 N966 1.334 . S
C967 C969 1.413 . S
C967 H974 0.929 . S
C968 C956 1.392 . S
C968 C969 1.367 . S
C968 H976 0.930 . S
C969 C967 1.413 . S
C969 C968 1.367 . S
C969 H971 0.930 . S
H970 C963 0.930 . S
H971 C969 0.930 . S
H972 C960 0.930 . S
H973 C961 0.930 . S
H974 C967 0.929 . S
H975 C989 0.930 . S
H976 C968 0.930 . S
H977 C995 0.930 . S
H978 C986 0.929 . S
H979 C993 0.930 . S
H980 C957 0.931 . S
H981 C987 0.930 . S
H982 C1020 0.930 . S
H983 C964 0.930 . S
H984 C1019 0.931 . S
N985 Eu954 2.657 . S
N985 C986 1.334 . S
N985 C990 1.362 . S
C986 H978 0.929 . S
C986 N985 1.334 . S
C986 C989 1.413 . S
C987 H981 0.930 . S
C987 C988 1.392 . S
C987 C989 1.367 . S
C988 C987 1.392 . S
C988 C990 1.420 . S
C988 C1020 1.423 . S
C989 H975 0.930 . S
C989 C986 1.413 . S
C989 C987 1.367 . S
C990 N985 1.362 . S
C990 C988 1.420 . S
C990 C994 1.429 . S
H991 C996 0.930 . S
N992 Eu954 2.609 . S
N992 C994 1.377 . S
N992 C995 1.321 . S
C993 H979 0.930 . S
C993 C995 1.400 . S
C993 C996 1.386 . S
C994 C990 1.429 . S
C994 N992 1.377 . S
C994 C997 1.411 . S
C995 H977 0.930 . S
C995 N992 1.321 . S
C995 C993 1.400 . S
C996 H991 0.930 . S
C996 C993 1.386 . S
C996 C997 1.395 . S
C997 C994 1.411 . S
C997 C996 1.395 . S
C997 C1019 1.420 . S
O998 Eu954 2.558 . S
O998 C1018 1.257 . S
O999 Eu954 2.612 . S
O999 Eu965 2.380 . S
O999 C1010 1.276 . S
O1000 Eu965 2.432 . S
O1000 C1017 1.264 . S
O1001 Eu954 2.339 . S
O1001 C1017 1.254 . S
O1002 Eu954 2.563 . S
O1002 C1010 1.235 . S
O1003 Eu954 2.419 . S
O1003 C1018 1.249 . S
O1004 Eu965 2.558 . S
O1004 C1029 1.257 . S
O1005 Eu954 2.380 . S
O1005 Eu965 2.612 . S
O1005 C1021 1.276 . S
O1006 Eu954 2.432 . S
O1006 C1028 1.264 . S
O1007 Eu965 2.339 . S
O1007 C1028 1.254 . S
O1008 Eu965 2.563 . S
O1008 C1021 1.235 . S
O1009 Eu965 2.419 . S
O1009 C1029 1.249 . S
C1010 O999 1.276 . S
C1010 O1002 1.235 . S
C1011 C1013 1.393 . S
C1011 C1015 1.395 . S
C1011 C1018 1.492 . S
C1012 C1013 1.392 . S
C1012 C1014 1.386 . S
C1013 C1011 1.393 . S
C1013 C1012 1.392 . S
C1013 H1030 0.930 . S
C1014 C1012 1.386 . S
C1014 C1016 1.395 . S
C1014 H1031 0.930 . S
C1015 C1011 1.395 . S
C1015 C1016 1.379 . S
C1015 H1032 0.930 . S
C1016 C1014 1.395 . S
C1016 C1015 1.379 . S
C1016 H1033 0.930 . S
C1017 O1000 1.264 . S
C1017 O1001 1.254 . S
C1018 Eu954 2.848 . S
C1018 O998 1.257 . S
C1018 O1003 1.249 . S
C1018 C1011 1.492 . S
C1019 H984 0.931 . S
C1019 C997 1.420 . S
C1019 C1020 1.351 . S
C1020 H982 0.930 . S
C1020 C988 1.423 . S
C1020 C1019 1.351 . S
C1021 O1005 1.276 . S
C1021 O1008 1.235 . S
C1022 C1023 1.393 . S
C1022 C1026 1.395 . S
C1022 C1029 1.492 . S
C1023 C1022 1.393 . S
C1023 C1024 1.392 . S
C1023 H1034 0.930 . S
C1024 C1023 1.392 . S
C1024 C1025 1.386 . S
C1025 C1024 1.386 . S
C1025 C1027 1.395 . S
C1025 H1035 0.930 . S
C1026 C1022 1.395 . S
C1026 C1027 1.379 . S
C1026 H1036 0.930 . S
C1027 C1025 1.395 . S
C1027 C1026 1.379 . S
C1027 H1037 0.930 . S
C1028 O1006 1.264 . S
C1028 O1007 1.254 . S
C1029 Eu965 2.848 . S
C1029 O1004 1.257 . S
C1029 O1009 1.249 . S
C1029 C1022 1.492 . S
H1030 C1013 0.930 . S
H1031 C1014 0.930 . S
H1032 C1015 0.930 . S
H1033 C1016 0.930 . S
H1034 C1023 0.930 . S
H1035 C1025 0.930 . S
H1036 C1026 0.930 . S
H1037 C1027 0.930 . S
Eu1038 N1069 2.657 . S
Eu1038 N1076 2.609 . S
Eu1038 O1082 2.558 . S
Eu1038 O1083 2.612 . S
Eu1038 O1085 2.339 . S
Eu1038 O1086 2.563 . S
Eu1038 O1087 2.419 . S
Eu1038 O1089 2.380 . S
Eu1038 O1090 2.432 . S
Eu1038 C1102 2.848 . S
C1039 C1042 1.429 . S
C1039 C1043 1.411 . S
C1039 N1046 1.377 . S
C1040 C1042 1.420 . S
C1040 C1044 1.423 . S
C1040 C1052 1.392 . S
C1041 C1043 1.420 . S
C1041 C1044 1.351 . S
C1041 H1064 0.931 . S
C1042 C1039 1.429 . S
C1042 C1040 1.420 . S
C1042 N1050 1.362 . S
C1043 C1039 1.411 . S
C1043 C1041 1.420 . S
C1043 C1048 1.395 . S
C1044 C1040 1.423 . S
C1044 C1041 1.351 . S
C1044 H1056 0.930 . S
C1045 C1047 1.400 . S
C1045 C1048 1.386 . S
C1045 H1057 0.930 . S
N1046 C1039 1.377 . S
N1046 C1047 1.321 . S
N1046 Eu1049 2.609 . S
C1047 C1045 1.400 . S
C1047 N1046 1.321 . S
C1047 H1054 0.930 . S
C1048 C1043 1.395 . S
C1048 C1045 1.386 . S
C1048 H1067 0.930 . S
Eu1049 N1046 2.609 . S
Eu1049 N1050 2.657 . S
Eu1049 O1083 2.380 . S
Eu1049 O1084 2.432 . S
Eu1049 O1088 2.558 . S
Eu1049 O1089 2.612 . S
Eu1049 O1091 2.339 . S
Eu1049 O1092 2.563 . S
Eu1049 O1093 2.419 . S
Eu1049 C1113 2.848 . S
N1050 C1042 1.362 . S
N1050 Eu1049 2.657 . S
N1050 C1051 1.334 . S
C1051 N1050 1.334 . S
C1051 C1053 1.413 . S
C1051 H1058 0.929 . S
C1052 C1040 1.392 . S
C1052 C1053 1.367 . S
C1052 H1060 0.930 . S
C1053 C1051 1.413 . S
C1053 C1052 1.367 . S
C1053 H1055 0.930 . S
H1054 C1047 0.930 . S
H1055 C1053 0.930 . S
H1056 C1044 0.930 . S
H1057 C1045 0.930 . S
H1058 C1051 0.929 . S
H1059 C1073 0.930 . S
H1060 C1052 0.930 . S
H1061 C1079 0.930 . S
H1062 C1070 0.929 . S
H1063 C1077 0.930 . S
H1064 C1041 0.931 . S
H1065 C1071 0.930 . S
H1066 C1104 0.930 . S
H1067 C1048 0.930 . S
H1068 C1103 0.931 . S
N1069 Eu1038 2.657 . S
N1069 C1070 1.334 . S
N1069 C1074 1.362 . S
C1070 H1062 0.929 . S
C1070 N1069 1.334 . S
C1070 C1073 1.413 . S
C1071 H1065 0.930 . S
C1071 C1072 1.392 . S
C1071 C1073 1.367 . S
C1072 C1071 1.392 . S
C1072 C1074 1.420 . S
C1072 C1104 1.423 . S
C1073 H1059 0.930 . S
C1073 C1070 1.413 . S
C1073 C1071 1.367 . S
C1074 N1069 1.362 . S
C1074 C1072 1.420 . S
C1074 C1078 1.429 . S
H1075 C1080 0.930 . S
N1076 Eu1038 2.609 . S
N1076 C1078 1.377 . S
N1076 C1079 1.321 . S
C1077 H1063 0.930 . S
C1077 C1079 1.400 . S
C1077 C1080 1.386 . S
C1078 C1074 1.429 . S
C1078 N1076 1.377 . S
C1078 C1081 1.411 . S
C1079 H1061 0.930 . S
C1079 N1076 1.321 . S
C1079 C1077 1.400 . S
C1080 H1075 0.930 . S
C1080 C1077 1.386 . S
C1080 C1081 1.395 . S
C1081 C1078 1.411 . S
C1081 C1080 1.395 . S
C1081 C1103 1.420 . S
O1082 Eu1038 2.558 . S
O1082 C1102 1.257 . S
O1083 Eu1038 2.612 . S
O1083 Eu1049 2.380 . S
O1083 C1094 1.276 . S
O1084 Eu1049 2.432 . S
O1084 C1101 1.264 . S
O1085 Eu1038 2.339 . S
O1085 C1101 1.254 . S
O1086 Eu1038 2.563 . S
O1086 C1094 1.235 . S
O1087 Eu1038 2.419 . S
O1087 C1102 1.249 . S
O1088 Eu1049 2.558 . S
O1088 C1113 1.257 . S
O1089 Eu1038 2.380 . S
O1089 Eu1049 2.612 . S
O1089 C1105 1.276 . S
O1090 Eu1038 2.432 . S
O1090 C1112 1.264 . S
O1091 Eu1049 2.339 . S
O1091 C1112 1.254 . S
O1092 Eu1049 2.563 . S
O1092 C1105 1.235 . S
O1093 Eu1049 2.419 . S
O1093 C1113 1.249 . S
C1094 O1083 1.276 . S
C1094 O1086 1.235 . S
C1095 C1097 1.393 . S
C1095 C1099 1.395 . S
C1095 C1102 1.492 . S
C1096 C1097 1.392 . S
C1096 C1098 1.386 . S
C1097 C1095 1.393 . S
C1097 C1096 1.392 . S
C1097 H1114 0.930 . S
C1098 C1096 1.386 . S
C1098 C1100 1.395 . S
C1098 H1115 0.930 . S
C1099 C1095 1.395 . S
C1099 C1100 1.379 . S
C1099 H1116 0.930 . S
C1100 C1098 1.395 . S
C1100 C1099 1.379 . S
C1100 H1117 0.930 . S
C1101 O1084 1.264 . S
C1101 O1085 1.254 . S
C1102 Eu1038 2.848 . S
C1102 O1082 1.257 . S
C1102 O1087 1.249 . S
C1102 C1095 1.492 . S
C1103 H1068 0.931 . S
C1103 C1081 1.420 . S
C1103 C1104 1.351 . S
C1104 H1066 0.930 . S
C1104 C1072 1.423 . S
C1104 C1103 1.351 . S
C1105 O1089 1.276 . S
C1105 O1092 1.235 . S
C1106 C1107 1.393 . S
C1106 C1110 1.395 . S
C1106 C1113 1.492 . S
C1107 C1106 1.393 . S
C1107 C1108 1.392 . S
C1107 H1118 0.930 . S
C1108 C1107 1.392 . S
C1108 C1109 1.386 . S
C1109 C1108 1.386 . S
C1109 C1111 1.395 . S
C1109 H1119 0.930 . S
C1110 C1106 1.395 . S
C1110 C1111 1.379 . S
C1110 H1120 0.930 . S
C1111 C1109 1.395 . S
C1111 C1110 1.379 . S
C1111 H1121 0.930 . S
C1112 O1090 1.264 . S
C1112 O1091 1.254 . S
C1113 Eu1049 2.848 . S
C1113 O1088 1.257 . S
C1113 O1093 1.249 . S
C1113 C1106 1.492 . S
H1114 C1097 0.930 . S
H1115 C1098 0.930 . S
H1116 C1099 0.930 . S
H1117 C1100 0.930 . S
H1118 C1107 0.930 . S
H1119 C1109 0.930 . S
H1120 C1110 0.930 . S
H1121 C1111 0.930 . S
Eu1122 N1153 2.657 . S
Eu1122 N1160 2.609 . S
Eu1122 O1166 2.558 . S
Eu1122 O1167 2.612 . S
Eu1122 O1169 2.339 . S
Eu1122 O1170 2.563 . S
Eu1122 O1171 2.419 . S
Eu1122 O1173 2.380 . S
Eu1122 O1174 2.432 . S
Eu1122 C1186 2.848 . S
C1123 C1126 1.429 . S
C1123 C1127 1.411 . S
C1123 N1130 1.377 . S
C1124 C1126 1.420 . S
C1124 C1128 1.423 . S
C1124 C1136 1.392 . S
C1125 C1127 1.420 . S
C1125 C1128 1.351 . S
C1125 H1148 0.931 . S
C1126 C1123 1.429 . S
C1126 C1124 1.420 . S
C1126 N1134 1.362 . S
C1127 C1123 1.411 . S
C1127 C1125 1.420 . S
C1127 C1132 1.395 . S
C1128 C1124 1.423 . S
C1128 C1125 1.351 . S
C1128 H1140 0.930 . S
C1129 C1131 1.400 . S
C1129 C1132 1.386 . S
C1129 H1141 0.930 . S
N1130 C1123 1.377 . S
N1130 C1131 1.321 . S
N1130 Eu1133 2.609 . S
C1131 C1129 1.400 . S
C1131 N1130 1.321 . S
C1131 H1138 0.930 . S
C1132 C1127 1.395 . S
C1132 C1129 1.386 . S
C1132 H1151 0.930 . S
Eu1133 N1130 2.609 . S
Eu1133 N1134 2.657 . S
Eu1133 O1167 2.380 . S
Eu1133 O1168 2.432 . S
Eu1133 O1172 2.558 . S
Eu1133 O1173 2.612 . S
Eu1133 O1175 2.339 . S
Eu1133 O1176 2.563 . S
Eu1133 O1177 2.419 . S
Eu1133 C1197 2.848 . S
N1134 C1126 1.362 . S
N1134 Eu1133 2.657 . S
N1134 C1135 1.334 . S
C1135 N1134 1.334 . S
C1135 C1137 1.413 . S
C1135 H1142 0.929 . S
C1136 C1124 1.392 . S
C1136 C1137 1.367 . S
C1136 H1144 0.930 . S
C1137 C1135 1.413 . S
C1137 C1136 1.367 . S
C1137 H1139 0.930 . S
H1138 C1131 0.930 . S
H1139 C1137 0.930 . S
H1140 C1128 0.930 . S
H1141 C1129 0.930 . S
H1142 C1135 0.929 . S
H1143 C1157 0.930 . S
H1144 C1136 0.930 . S
H1145 C1163 0.930 . S
H1146 C1154 0.929 . S
H1147 C1161 0.930 . S
H1148 C1125 0.931 . S
H1149 C1155 0.930 . S
H1150 C1188 0.930 . S
H1151 C1132 0.930 . S
H1152 C1187 0.931 . S
N1153 Eu1122 2.657 . S
N1153 C1154 1.334 . S
N1153 C1158 1.362 . S
C1154 H1146 0.929 . S
C1154 N1153 1.334 . S
C1154 C1157 1.413 . S
C1155 H1149 0.930 . S
C1155 C1156 1.392 . S
C1155 C1157 1.367 . S
C1156 C1155 1.392 . S
C1156 C1158 1.420 . S
C1156 C1188 1.423 . S
C1157 H1143 0.930 . S
C1157 C1154 1.413 . S
C1157 C1155 1.367 . S
C1158 N1153 1.362 . S
C1158 C1156 1.420 . S
C1158 C1162 1.429 . S
H1159 C1164 0.930 . S
N1160 Eu1122 2.609 . S
N1160 C1162 1.377 . S
N1160 C1163 1.321 . S
C1161 H1147 0.930 . S
C1161 C1163 1.400 . S
C1161 C1164 1.386 . S
C1162 C1158 1.429 . S
C1162 N1160 1.377 . S
C1162 C1165 1.411 . S
C1163 H1145 0.930 . S
C1163 N1160 1.321 . S
C1163 C1161 1.400 . S
C1164 H1159 0.930 . S
C1164 C1161 1.386 . S
C1164 C1165 1.395 . S
C1165 C1162 1.411 . S
C1165 C1164 1.395 . S
C1165 C1187 1.420 . S
O1166 Eu1122 2.558 . S
O1166 C1186 1.257 . S
O1167 Eu1122 2.612 . S
O1167 Eu1133 2.380 . S
O1167 C1178 1.276 . S
O1168 Eu1133 2.432 . S
O1168 C1185 1.264 . S
O1169 Eu1122 2.339 . S
O1169 C1185 1.254 . S
O1170 Eu1122 2.563 . S
O1170 C1178 1.235 . S
O1171 Eu1122 2.419 . S
O1171 C1186 1.249 . S
O1172 Eu1133 2.558 . S
O1172 C1197 1.257 . S
O1173 Eu1122 2.380 . S
O1173 Eu1133 2.612 . S
O1173 C1189 1.276 . S
O1174 Eu1122 2.432 . S
O1174 C1196 1.264 . S
O1175 Eu1133 2.339 . S
O1175 C1196 1.254 . S
O1176 Eu1133 2.563 . S
O1176 C1189 1.235 . S
O1177 Eu1133 2.419 . S
O1177 C1197 1.249 . S
C1178 O1167 1.276 . S
C1178 O1170 1.235 . S
C1179 C1181 1.393 . S
C1179 C1183 1.395 . S
C1179 C1186 1.492 . S
C1180 C1181 1.392 . S
C1180 C1182 1.386 . S
C1181 C1179 1.393 . S
C1181 C1180 1.392 . S
C1181 H1198 0.930 . S
C1182 C1180 1.386 . S
C1182 C1184 1.395 . S
C1182 H1199 0.930 . S
C1183 C1179 1.395 . S
C1183 C1184 1.379 . S
C1183 H1200 0.930 . S
C1184 C1182 1.395 . S
C1184 C1183 1.379 . S
C1184 H1201 0.930 . S
C1185 O1168 1.264 . S
C1185 O1169 1.254 . S
C1186 Eu1122 2.848 . S
C1186 O1166 1.257 . S
C1186 O1171 1.249 . S
C1186 C1179 1.492 . S
C1187 H1152 0.931 . S
C1187 C1165 1.420 . S
C1187 C1188 1.351 . S
C1188 H1150 0.930 . S
C1188 C1156 1.423 . S
C1188 C1187 1.351 . S
C1189 O1173 1.276 . S
C1189 O1176 1.235 . S
C1190 C1191 1.393 . S
C1190 C1194 1.395 . S
C1190 C1197 1.492 . S
C1191 C1190 1.393 . S
C1191 C1192 1.392 . S
C1191 H1202 0.930 . S
C1192 C1191 1.392 . S
C1192 C1193 1.386 . S
C1193 C1192 1.386 . S
C1193 C1195 1.395 . S
C1193 H1203 0.930 . S
C1194 C1190 1.395 . S
C1194 C1195 1.379 . S
C1194 H1204 0.930 . S
C1195 C1193 1.395 . S
C1195 C1194 1.379 . S
C1195 H1205 0.930 . S
C1196 O1174 1.264 . S
C1196 O1175 1.254 . S
C1197 Eu1133 2.848 . S
C1197 O1172 1.257 . S
C1197 O1177 1.249 . S
C1197 C1190 1.492 . S
H1198 C1181 0.930 . S
H1199 C1182 0.930 . S
H1200 C1183 0.930 . S
H1201 C1184 0.930 . S
H1202 C1191 0.930 . S
H1203 C1193 0.930 . S
H1204 C1194 0.930 . S
H1205 C1195 0.930 . S
Eu1206 N1237 2.657 . S
Eu1206 N1244 2.609 . S
Eu1206 O1250 2.558 . S
Eu1206 O1251 2.612 . S
Eu1206 O1253 2.339 . S
Eu1206 O1254 2.563 . S
Eu1206 O1255 2.419 . S
Eu1206 O1257 2.380 . S
Eu1206 O1258 2.432 . S
Eu1206 C1270 2.848 . S
C1207 C1210 1.429 . S
C1207 C1211 1.411 . S
C1207 N1214 1.377 . S
C1208 C1210 1.420 . S
C1208 C1212 1.423 . S
C1208 C1220 1.392 . S
C1209 C1211 1.420 . S
C1209 C1212 1.351 . S
C1209 H1232 0.931 . S
C1210 C1207 1.429 . S
C1210 C1208 1.420 . S
C1210 N1218 1.362 . S
C1211 C1207 1.411 . S
C1211 C1209 1.420 . S
C1211 C1216 1.395 . S
C1212 C1208 1.423 . S
C1212 C1209 1.351 . S
C1212 H1224 0.930 . S
C1213 C1215 1.400 . S
C1213 C1216 1.386 . S
C1213 H1225 0.930 . S
N1214 C1207 1.377 . S
N1214 C1215 1.321 . S
N1214 Eu1217 2.609 . S
C1215 C1213 1.400 . S
C1215 N1214 1.321 . S
C1215 H1222 0.930 . S
C1216 C1211 1.395 . S
C1216 C1213 1.386 . S
C1216 H1235 0.930 . S
Eu1217 N1214 2.609 . S
Eu1217 N1218 2.657 . S
Eu1217 O1251 2.380 . S
Eu1217 O1252 2.432 . S
Eu1217 O1256 2.558 . S
Eu1217 O1257 2.612 . S
Eu1217 O1259 2.339 . S
Eu1217 O1260 2.563 . S
Eu1217 O1261 2.419 . S
Eu1217 C1281 2.848 . S
N1218 C1210 1.362 . S
N1218 Eu1217 2.657 . S
N1218 C1219 1.334 . S
C1219 N1218 1.334 . S
C1219 C1221 1.413 . S
C1219 H1226 0.929 . S
C1220 C1208 1.392 . S
C1220 C1221 1.367 . S
C1220 H1228 0.930 . S
C1221 C1219 1.413 . S
C1221 C1220 1.367 . S
C1221 H1223 0.930 . S
H1222 C1215 0.930 . S
H1223 C1221 0.930 . S
H1224 C1212 0.930 . S
H1225 C1213 0.930 . S
H1226 C1219 0.929 . S
H1227 C1241 0.930 . S
H1228 C1220 0.930 . S
H1229 C1247 0.930 . S
H1230 C1238 0.929 . S
H1231 C1245 0.930 . S
H1232 C1209 0.931 . S
H1233 C1239 0.930 . S
H1234 C1272 0.930 . S
H1235 C1216 0.930 . S
H1236 C1271 0.931 . S
N1237 Eu1206 2.657 . S
N1237 C1238 1.334 . S
N1237 C1242 1.362 . S
C1238 H1230 0.929 . S
C1238 N1237 1.334 . S
C1238 C1241 1.413 . S
C1239 H1233 0.930 . S
C1239 C1240 1.392 . S
C1239 C1241 1.367 . S
C1240 C1239 1.392 . S
C1240 C1242 1.420 . S
C1240 C1272 1.423 . S
C1241 H1227 0.930 . S
C1241 C1238 1.413 . S
C1241 C1239 1.367 . S
C1242 N1237 1.362 . S
C1242 C1240 1.420 . S
C1242 C1246 1.429 . S
H1243 C1248 0.930 . S
N1244 Eu1206 2.609 . S
N1244 C1246 1.377 . S
N1244 C1247 1.321 . S
C1245 H1231 0.930 . S
C1245 C1247 1.400 . S
C1245 C1248 1.386 . S
C1246 C1242 1.429 . S
C1246 N1244 1.377 . S
C1246 C1249 1.411 . S
C1247 H1229 0.930 . S
C1247 N1244 1.321 . S
C1247 C1245 1.400 . S
C1248 H1243 0.930 . S
C1248 C1245 1.386 . S
C1248 C1249 1.395 . S
C1249 C1246 1.411 . S
C1249 C1248 1.395 . S
C1249 C1271 1.420 . S
O1250 Eu1206 2.558 . S
O1250 C1270 1.257 . S
O1251 Eu1206 2.612 . S
O1251 Eu1217 2.380 . S
O1251 C1262 1.276 . S
O1252 Eu1217 2.432 . S
O1252 C1269 1.264 . S
O1253 Eu1206 2.339 . S
O1253 C1269 1.254 . S
O1254 Eu1206 2.563 . S
O1254 C1262 1.235 . S
O1255 Eu1206 2.419 . S
O1255 C1270 1.249 . S
O1256 Eu1217 2.558 . S
O1256 C1281 1.257 . S
O1257 Eu1206 2.380 . S
O1257 Eu1217 2.612 . S
O1257 C1273 1.276 . S
O1258 Eu1206 2.432 . S
O1258 C1280 1.264 . S
O1259 Eu1217 2.339 . S
O1259 C1280 1.254 . S
O1260 Eu1217 2.563 . S
O1260 C1273 1.235 . S
O1261 Eu1217 2.419 . S
O1261 C1281 1.249 . S
C1262 O1251 1.276 . S
C1262 O1254 1.235 . S
C1263 C1265 1.393 . S
C1263 C1267 1.395 . S
C1263 C1270 1.492 . S
C1264 C1265 1.392 . S
C1264 C1266 1.386 . S
C1265 C1263 1.393 . S
C1265 C1264 1.392 . S
C1265 H1282 0.930 . S
C1266 C1264 1.386 . S
C1266 C1268 1.395 . S
C1266 H1283 0.930 . S
C1267 C1263 1.395 . S
C1267 C1268 1.379 . S
C1267 H1284 0.930 . S
C1268 C1266 1.395 . S
C1268 C1267 1.379 . S
C1268 H1285 0.930 . S
C1269 O1252 1.264 . S
C1269 O1253 1.254 . S
C1270 Eu1206 2.848 . S
C1270 O1250 1.257 . S
C1270 O1255 1.249 . S
C1270 C1263 1.492 . S
C1271 H1236 0.931 . S
C1271 C1249 1.420 . S
C1271 C1272 1.351 . S
C1272 H1234 0.930 . S
C1272 C1240 1.423 . S
C1272 C1271 1.351 . S
C1273 O1257 1.276 . S
C1273 O1260 1.235 . S
C1274 C1275 1.393 . S
C1274 C1278 1.395 . S
C1274 C1281 1.492 . S
C1275 C1274 1.393 . S
C1275 C1276 1.392 . S
C1275 H1286 0.930 . S
C1276 C1275 1.392 . S
C1276 C1277 1.386 . S
C1277 C1276 1.386 . S
C1277 C1279 1.395 . S
C1277 H1287 0.930 . S
C1278 C1274 1.395 . S
C1278 C1279 1.379 . S
C1278 H1288 0.930 . S
C1279 C1277 1.395 . S
C1279 C1278 1.379 . S
C1279 H1289 0.930 . S
C1280 O1258 1.264 . S
C1280 O1259 1.254 . S
C1281 Eu1217 2.848 . S
C1281 O1256 1.257 . S
C1281 O1261 1.249 . S
C1281 C1274 1.492 . S
H1282 C1265 0.930 . S
H1283 C1266 0.930 . S
H1284 C1267 0.930 . S
H1285 C1268 0.930 . S
H1286 C1275 0.930 . S
H1287 C1277 0.930 . S
H1288 C1278 0.930 . S
H1289 C1279 0.930 . S
Eu1290 N1321 2.657 . S
Eu1290 N1328 2.609 . S
Eu1290 O1334 2.558 . S
Eu1290 O1335 2.612 . S
Eu1290 O1337 2.339 . S
Eu1290 O1338 2.563 . S
Eu1290 O1339 2.419 . S
Eu1290 O1341 2.380 . S
Eu1290 O1342 2.432 . S
Eu1290 C1354 2.848 . S
C1291 C1294 1.429 . S
C1291 C1295 1.411 . S
C1291 N1298 1.377 . S
C1292 C1294 1.420 . S
C1292 C1296 1.423 . S
C1292 C1304 1.392 . S
C1293 C1295 1.420 . S
C1293 C1296 1.351 . S
C1293 H1316 0.931 . S
C1294 C1291 1.429 . S
C1294 C1292 1.420 . S
C1294 N1302 1.362 . S
C1295 C1291 1.411 . S
C1295 C1293 1.420 . S
C1295 C1300 1.395 . S
C1296 C1292 1.423 . S
C1296 C1293 1.351 . S
C1296 H1308 0.930 . S
C1297 C1299 1.400 . S
C1297 C1300 1.386 . S
C1297 H1309 0.930 . S
N1298 C1291 1.377 . S
N1298 C1299 1.321 . S
N1298 Eu1301 2.609 . S
C1299 C1297 1.400 . S
C1299 N1298 1.321 . S
C1299 H1306 0.930 . S
C1300 C1295 1.395 . S
C1300 C1297 1.386 . S
C1300 H1319 0.930 . S
Eu1301 N1298 2.609 . S
Eu1301 N1302 2.657 . S
Eu1301 O1335 2.380 . S
Eu1301 O1336 2.432 . S
Eu1301 O1340 2.558 . S
Eu1301 O1341 2.612 . S
Eu1301 O1343 2.339 . S
Eu1301 O1344 2.563 . S
Eu1301 O1345 2.419 . S
Eu1301 C1365 2.848 . S
N1302 C1294 1.362 . S
N1302 Eu1301 2.657 . S
N1302 C1303 1.334 . S
C1303 N1302 1.334 . S
C1303 C1305 1.413 . S
C1303 H1310 0.929 . S
C1304 C1292 1.392 . S
C1304 C1305 1.367 . S
C1304 H1312 0.930 . S
C1305 C1303 1.413 . S
C1305 C1304 1.367 . S
C1305 H1307 0.930 . S
H1306 C1299 0.930 . S
H1307 C1305 0.930 . S
H1308 C1296 0.930 . S
H1309 C1297 0.930 . S
H1310 C1303 0.929 . S
H1311 C1325 0.930 . S
H1312 C1304 0.930 . S
H1313 C1331 0.930 . S
H1314 C1322 0.929 . S
H1315 C1329 0.930 . S
H1316 C1293 0.931 . S
H1317 C1323 0.930 . S
H1318 C1356 0.930 . S
H1319 C1300 0.930 . S
H1320 C1355 0.931 . S
N1321 Eu1290 2.657 . S
N1321 C1322 1.334 . S
N1321 C1326 1.362 . S
C1322 H1314 0.929 . S
C1322 N1321 1.334 . S
C1322 C1325 1.413 . S
C1323 H1317 0.930 . S
C1323 C1324 1.392 . S
C1323 C1325 1.367 . S
C1324 C1323 1.392 . S
C1324 C1326 1.420 . S
C1324 C1356 1.423 . S
C1325 H1311 0.930 . S
C1325 C1322 1.413 . S
C1325 C1323 1.367 . S
C1326 N1321 1.362 . S
C1326 C1324 1.420 . S
C1326 C1330 1.429 . S
H1327 C1332 0.930 . S
N1328 Eu1290 2.609 . S
N1328 C1330 1.377 . S
N1328 C1331 1.321 . S
C1329 H1315 0.930 . S
C1329 C1331 1.400 . S
C1329 C1332 1.386 . S
C1330 C1326 1.429 . S
C1330 N1328 1.377 . S
C1330 C1333 1.411 . S
C1331 H1313 0.930 . S
C1331 N1328 1.321 . S
C1331 C1329 1.400 . S
C1332 H1327 0.930 . S
C1332 C1329 1.386 . S
C1332 C1333 1.395 . S
C1333 C1330 1.411 . S
C1333 C1332 1.395 . S
C1333 C1355 1.420 . S
O1334 Eu1290 2.558 . S
O1334 C1354 1.257 . S
O1335 Eu1290 2.612 . S
O1335 Eu1301 2.380 . S
O1335 C1346 1.276 . S
O1336 Eu1301 2.432 . S
O1336 C1353 1.264 . S
O1337 Eu1290 2.339 . S
O1337 C1353 1.254 . S
O1338 Eu1290 2.563 . S
O1338 C1346 1.235 . S
O1339 Eu1290 2.419 . S
O1339 C1354 1.249 . S
O1340 Eu1301 2.558 . S
O1340 C1365 1.257 . S
O1341 Eu1290 2.380 . S
O1341 Eu1301 2.612 . S
O1341 C1357 1.276 . S
O1342 Eu1290 2.432 . S
O1342 C1364 1.264 . S
O1343 Eu1301 2.339 . S
O1343 C1364 1.254 . S
O1344 Eu1301 2.563 . S
O1344 C1357 1.235 . S
O1345 Eu1301 2.419 . S
O1345 C1365 1.249 . S
C1346 O1335 1.276 . S
C1346 O1338 1.235 . S
C1347 C1349 1.393 . S
C1347 C1351 1.395 . S
C1347 C1354 1.492 . S
C1348 C1349 1.392 . S
C1348 C1350 1.386 . S
C1349 C1347 1.393 . S
C1349 C1348 1.392 . S
C1349 H1366 0.930 . S
C1350 C1348 1.386 . S
C1350 C1352 1.395 . S
C1350 H1367 0.930 . S
C1351 C1347 1.395 . S
C1351 C1352 1.379 . S
C1351 H1368 0.930 . S
C1352 C1350 1.395 . S
C1352 C1351 1.379 . S
C1352 H1369 0.930 . S
C1353 O1336 1.264 . S
C1353 O1337 1.254 . S
C1354 Eu1290 2.848 . S
C1354 O1334 1.257 . S
C1354 O1339 1.249 . S
C1354 C1347 1.492 . S
C1355 H1320 0.931 . S
C1355 C1333 1.420 . S
C1355 C1356 1.351 . S
C1356 H1318 0.930 . S
C1356 C1324 1.423 . S
C1356 C1355 1.351 . S
C1357 O1341 1.276 . S
C1357 O1344 1.235 . S
C1358 C1359 1.393 . S
C1358 C1362 1.395 . S
C1358 C1365 1.492 . S
C1359 C1358 1.393 . S
C1359 C1360 1.392 . S
C1359 H1370 0.930 . S
C1360 C1359 1.392 . S
C1360 C1361 1.386 . S
C1361 C1360 1.386 . S
C1361 C1363 1.395 . S
C1361 H1371 0.930 . S
C1362 C1358 1.395 . S
C1362 C1363 1.379 . S
C1362 H1372 0.930 . S
C1363 C1361 1.395 . S
C1363 C1362 1.379 . S
C1363 H1373 0.930 . S
C1364 O1342 1.264 . S
C1364 O1343 1.254 . S
C1365 Eu1301 2.848 . S
C1365 O1340 1.257 . S
C1365 O1345 1.249 . S
C1365 C1358 1.492 . S
H1366 C1349 0.930 . S
H1367 C1350 0.930 . S
H1368 C1351 0.930 . S
H1369 C1352 0.930 . S
H1370 C1359 0.930 . S
H1371 C1361 0.930 . S
H1372 C1362 0.930 . S
H1373 C1363 0.930 . S
Eu1374 N1405 2.657 . S
Eu1374 N1412 2.609 . S
Eu1374 O1418 2.558 . S
Eu1374 O1419 2.612 . S
Eu1374 O1421 2.339 . S
Eu1374 O1422 2.563 . S
Eu1374 O1423 2.419 . S
Eu1374 O1425 2.380 . S
Eu1374 O1426 2.432 . S
Eu1374 C1438 2.848 . S
C1375 C1378 1.429 . S
C1375 C1379 1.411 . S
C1375 N1382 1.377 . S
C1376 C1378 1.420 . S
C1376 C1380 1.423 . S
C1376 C1388 1.392 . S
C1377 C1379 1.420 . S
C1377 C1380 1.351 . S
C1377 H1400 0.931 . S
C1378 C1375 1.429 . S
C1378 C1376 1.420 . S
C1378 N1386 1.362 . S
C1379 C1375 1.411 . S
C1379 C1377 1.420 . S
C1379 C1384 1.395 . S
C1380 C1376 1.423 . S
C1380 C1377 1.351 . S
C1380 H1392 0.930 . S
C1381 C1383 1.400 . S
C1381 C1384 1.386 . S
C1381 H1393 0.930 . S
N1382 C1375 1.377 . S
N1382 C1383 1.321 . S
N1382 Eu1385 2.609 . S
C1383 C1381 1.400 . S
C1383 N1382 1.321 . S
C1383 H1390 0.930 . S
C1384 C1379 1.395 . S
C1384 C1381 1.386 . S
C1384 H1403 0.930 . S
Eu1385 N1382 2.609 . S
Eu1385 N1386 2.657 . S
Eu1385 O1419 2.380 . S
Eu1385 O1420 2.432 . S
Eu1385 O1424 2.558 . S
Eu1385 O1425 2.612 . S
Eu1385 O1427 2.339 . S
Eu1385 O1428 2.563 . S
Eu1385 O1429 2.419 . S
Eu1385 C1449 2.848 . S
N1386 C1378 1.362 . S
N1386 Eu1385 2.657 . S
N1386 C1387 1.334 . S
C1387 N1386 1.334 . S
C1387 C1389 1.413 . S
C1387 H1394 0.929 . S
C1388 C1376 1.392 . S
C1388 C1389 1.367 . S
C1388 H1396 0.930 . S
C1389 C1387 1.413 . S
C1389 C1388 1.367 . S
C1389 H1391 0.930 . S
H1390 C1383 0.930 . S
H1391 C1389 0.930 . S
H1392 C1380 0.930 . S
H1393 C1381 0.930 . S
H1394 C1387 0.929 . S
H1395 C1409 0.930 . S
H1396 C1388 0.930 . S
H1397 C1415 0.930 . S
H1398 C1406 0.929 . S
H1399 C1413 0.930 . S
H1400 C1377 0.931 . S
H1401 C1407 0.930 . S
H1402 C1440 0.930 . S
H1403 C1384 0.930 . S
H1404 C1439 0.931 . S
N1405 Eu1374 2.657 . S
N1405 C1406 1.334 . S
N1405 C1410 1.362 . S
C1406 H1398 0.929 . S
C1406 N1405 1.334 . S
C1406 C1409 1.413 . S
C1407 H1401 0.930 . S
C1407 C1408 1.392 . S
C1407 C1409 1.367 . S
C1408 C1407 1.392 . S
C1408 C1410 1.420 . S
C1408 C1440 1.423 . S
C1409 H1395 0.930 . S
C1409 C1406 1.413 . S
C1409 C1407 1.367 . S
C1410 N1405 1.362 . S
C1410 C1408 1.420 . S
C1410 C1414 1.429 . S
H1411 C1416 0.930 . S
N1412 Eu1374 2.609 . S
N1412 C1414 1.377 . S
N1412 C1415 1.321 . S
C1413 H1399 0.930 . S
C1413 C1415 1.400 . S
C1413 C1416 1.386 . S
C1414 C1410 1.429 . S
C1414 N1412 1.377 . S
C1414 C1417 1.411 . S
C1415 H1397 0.930 . S
C1415 N1412 1.321 . S
C1415 C1413 1.400 . S
C1416 H1411 0.930 . S
C1416 C1413 1.386 . S
C1416 C1417 1.395 . S
C1417 C1414 1.411 . S
C1417 C1416 1.395 . S
C1417 C1439 1.420 . S
O1418 Eu1374 2.558 . S
O1418 C1438 1.257 . S
O1419 Eu1374 2.612 . S
O1419 Eu1385 2.380 . S
O1419 C1430 1.276 . S
O1420 Eu1385 2.432 . S
O1420 C1437 1.264 . S
O1421 Eu1374 2.339 . S
O1421 C1437 1.254 . S
O1422 Eu1374 2.563 . S
O1422 C1430 1.235 . S
O1423 Eu1374 2.419 . S
O1423 C1438 1.249 . S
O1424 Eu1385 2.558 . S
O1424 C1449 1.257 . S
O1425 Eu1374 2.380 . S
O1425 Eu1385 2.612 . S
O1425 C1441 1.276 . S
O1426 Eu1374 2.432 . S
O1426 C1448 1.264 . S
O1427 Eu1385 2.339 . S
O1427 C1448 1.254 . S
O1428 Eu1385 2.563 . S
O1428 C1441 1.235 . S
O1429 Eu1385 2.419 . S
O1429 C1449 1.249 . S
C1430 O1419 1.276 . S
C1430 O1422 1.235 . S
C1431 C1433 1.393 . S
C1431 C1435 1.395 . S
C1431 C1438 1.492 . S
C1432 C1433 1.392 . S
C1432 C1434 1.386 . S
C1433 C1431 1.393 . S
C1433 C1432 1.392 . S
C1433 H1450 0.930 . S
C1434 C1432 1.386 . S
C1434 C1436 1.395 . S
C1434 H1451 0.930 . S
C1435 C1431 1.395 . S
C1435 C1436 1.379 . S
C1435 H1452 0.930 . S
C1436 C1434 1.395 . S
C1436 C1435 1.379 . S
C1436 H1453 0.930 . S
C1437 O1420 1.264 . S
C1437 O1421 1.254 . S
C1438 Eu1374 2.848 . S
C1438 O1418 1.257 . S
C1438 O1423 1.249 . S
C1438 C1431 1.492 . S
C1439 H1404 0.931 . S
C1439 C1417 1.420 . S
C1439 C1440 1.351 . S
C1440 H1402 0.930 . S
C1440 C1408 1.423 . S
C1440 C1439 1.351 . S
C1441 O1425 1.276 . S
C1441 O1428 1.235 . S
C1442 C1443 1.393 . S
C1442 C1446 1.395 . S
C1442 C1449 1.492 . S
C1443 C1442 1.393 . S
C1443 C1444 1.392 . S
C1443 H1454 0.930 . S
C1444 C1443 1.392 . S
C1444 C1445 1.386 . S
C1445 C1444 1.386 . S
C1445 C1447 1.395 . S
C1445 H1455 0.930 . S
C1446 C1442 1.395 . S
C1446 C1447 1.379 . S
C1446 H1456 0.930 . S
C1447 C1445 1.395 . S
C1447 C1446 1.379 . S
C1447 H1457 0.930 . S
C1448 O1426 1.264 . S
C1448 O1427 1.254 . S
C1449 Eu1385 2.848 . S
C1449 O1424 1.257 . S
C1449 O1429 1.249 . S
C1449 C1442 1.492 . S
H1450 C1433 0.930 . S
H1451 C1434 0.930 . S
H1452 C1435 0.930 . S
H1453 C1436 0.930 . S
H1454 C1443 0.930 . S
H1455 C1445 0.930 . S
H1456 C1446 0.930 . S
H1457 C1447 0.930 . S
C1458 C1459 1.387 . S
C1458 H1462 0.950 . S
C1458 C1467 1.390 . S
C1459 C1458 1.387 . S
C1459 C1461 1.387 . S
H1460 C1467 0.950 . S
C1461 C1459 1.387 . S
C1461 C1463 1.390 . S
C1461 H1465 0.950 . S
H1462 C1458 0.950 . S
C1463 C1461 1.390 . S
C1463 C1464 1.387 . S
C1463 H1466 0.950 . S
C1464 C1463 1.387 . S
C1464 C1467 1.387 . S
H1465 C1461 0.950 . S
H1466 C1463 0.950 . S
C1467 C1458 1.390 . S
C1467 H1460 0.950 . S
C1467 C1464 1.387 . S
C1468 C1469 1.387 . S
C1468 H1472 0.950 . S
C1468 C1477 1.390 . S
C1469 C1468 1.387 . S
C1469 C1471 1.387 . S
H1470 C1477 0.950 . S
C1471 C1469 1.387 . S
C1471 C1473 1.390 . S
C1471 H1475 0.950 . S
H1472 C1468 0.950 . S
C1473 C1471 1.390 . S
C1473 C1474 1.387 . S
C1473 H1476 0.950 . S
C1474 C1473 1.387 . S
C1474 C1477 1.387 . S
H1475 C1471 0.950 . S
H1476 C1473 0.950 . S
C1477 C1468 1.390 . S
C1477 H1470 0.950 . S
C1477 C1474 1.387 . S
C1478 C1479 1.387 . S
C1478 H1482 0.950 . S
C1478 C1487 1.390 . S
C1479 C1478 1.387 . S
C1479 C1481 1.387 . S
H1480 C1487 0.950 . S
C1481 C1479 1.387 . S
C1481 C1483 1.390 . S
C1481 H1485 0.950 . S
H1482 C1478 0.950 . S
C1483 C1481 1.390 . S
C1483 C1484 1.387 . S
C1483 H1486 0.950 . S
C1484 C1483 1.387 . S
C1484 C1487 1.387 . S
H1485 C1481 0.950 . S
H1486 C1483 0.950 . S
C1487 C1478 1.390 . S
C1487 H1480 0.950 . S
C1487 C1484 1.387 . S
C1488 C1489 1.387 . S
C1488 H1492 0.950 . S
C1488 C1497 1.390 . S
C1489 C1488 1.387 . S
C1489 C1491 1.387 . S
H1490 C1497 0.950 . S
C1491 C1489 1.387 . S
C1491 C1493 1.390 . S
C1491 H1495 0.950 . S
H1492 C1488 0.950 . S
C1493 C1491 1.390 . S
C1493 C1494 1.387 . S
C1493 H1496 0.950 . S
C1494 C1493 1.387 . S
C1494 C1497 1.387 . S
H1495 C1491 0.950 . S
H1496 C1493 0.950 . S
C1497 C1488 1.390 . S
C1497 H1490 0.950 . S
C1497 C1494 1.387 . S
C1498 C1499 1.387 . S
C1498 H1502 0.950 . S
C1498 C1507 1.390 . S
C1499 C1498 1.387 . S
C1499 C1501 1.387 . S
H1500 C1507 0.950 . S
C1501 C1499 1.387 . S
C1501 C1503 1.390 . S
C1501 H1505 0.950 . S
H1502 C1498 0.950 . S
C1503 C1501 1.390 . S
C1503 C1504 1.387 . S
C1503 H1506 0.950 . S
C1504 C1503 1.387 . S
C1504 C1507 1.387 . S
H1505 C1501 0.950 . S
H1506 C1503 0.950 . S
C1507 C1498 1.390 . S
C1507 H1500 0.950 . S
C1507 C1504 1.387 . S
C1508 C1509 1.387 . S
C1508 H1512 0.950 . S
C1508 C1517 1.390 . S
C1509 C1508 1.387 . S
C1509 C1511 1.387 . S
H1510 C1517 0.950 1_554 S
C1511 C1509 1.387 . S
C1511 C1513 1.390 . S
C1511 H1515 0.950 . S
H1512 C1508 0.950 . S
C1513 C1511 1.390 . S
C1513 C1514 1.387 . S
C1513 H1516 0.950 . S
C1514 C1513 1.387 . S
C1514 C1517 1.387 . S
H1515 C1511 0.950 . S
H1516 C1513 0.950 . S
C1517 C1508 1.390 . S
C1517 H1510 0.950 1_556 S
C1517 C1514 1.387 . S
C1518 C1519 1.387 . S
C1518 H1522 0.950 . S
C1518 C1527 1.390 . S
C1519 C1518 1.387 . S
C1519 C1521 1.387 . S
H1520 C1527 0.950 . S
C1521 C1519 1.387 . S
C1521 C1523 1.390 . S
C1521 H1525 0.950 . S
H1522 C1518 0.950 . S
C1523 C1521 1.390 . S
C1523 C1524 1.387 . S
C1523 H1526 0.950 1_556 S
C1524 C1523 1.387 . S
C1524 C1527 1.387 . S
H1525 C1521 0.950 . S
H1526 C1523 0.950 1_554 S
C1527 C1518 1.390 . S
C1527 H1520 0.950 . S
C1527 C1524 1.387 . S
C1528 C1529 1.387 . S
C1528 H1532 0.950 . S
C1528 C1537 1.390 . S
C1529 C1528 1.387 . S
C1529 C1531 1.387 . S
H1530 C1537 0.950 1_554 S
C1531 C1529 1.387 . S
C1531 C1533 1.390 . S
C1531 H1535 0.950 . S
H1532 C1528 0.950 . S
C1533 C1531 1.390 . S
C1533 C1534 1.387 . S
C1533 H1536 0.950 . S
C1534 C1533 1.387 . S
C1534 C1537 1.387 . S
H1535 C1531 0.950 . S
H1536 C1533 0.950 . S
C1537 C1528 1.390 . S
C1537 H1530 0.950 1_556 S
C1537 C1534 1.387 . S
C1538 C1539 1.387 . S
C1538 H1542 0.950 . S
C1538 C1547 1.390 . S
C1539 C1538 1.387 . S
C1539 C1541 1.387 . S
H1540 C1547 0.950 . S
C1541 C1539 1.387 . S
C1541 C1543 1.390 . S
C1541 H1545 0.950 . S
H1542 C1538 0.950 . S
C1543 C1541 1.390 . S
C1543 C1544 1.387 . S
C1543 H1546 0.950 . S
C1544 C1543 1.387 . S
C1544 C1547 1.387 . S
H1545 C1541 0.950 . S
H1546 C1543 0.950 . S
C1547 C1538 1.390 . S
C1547 H1540 0.950 . S
C1547 C1544 1.387 . S
C1548 C1549 1.387 . S
C1548 H1552 0.950 . S
C1548 C1557 1.390 . S
C1549 C1548 1.387 . S
C1549 C1551 1.387 . S
H1550 C1557 0.950 1_556 S
C1551 C1549 1.387 . S
C1551 C1553 1.390 . S
C1551 H1555 0.950 . S
H1552 C1548 0.950 . S
C1553 C1551 1.390 . S
C1553 C1554 1.387 . S
C1553 H1556 0.950 . S
C1554 C1553 1.387 . S
C1554 C1557 1.387 . S
H1555 C1551 0.950 . S
H1556 C1553 0.950 . S
C1557 C1548 1.390 . S
C1557 H1550 0.950 1_554 S
C1557 C1554 1.387 . S
C1558 C1559 1.387 . S
C1558 H1562 0.950 . S
C1558 C1567 1.390 . S
C1559 C1558 1.387 . S
C1559 C1561 1.387 . S
H1560 C1567 0.950 . S
C1561 C1559 1.387 . S
C1561 C1563 1.390 . S
C1561 H1565 0.950 . S
H1562 C1558 0.950 . S
C1563 C1561 1.390 . S
C1563 C1564 1.387 . S
C1563 H1566 0.950 . S
C1564 C1563 1.387 . S
C1564 C1567 1.387 . S
H1565 C1561 0.950 . S
H1566 C1563 0.950 . S
C1567 C1558 1.390 . S
C1567 H1560 0.950 . S
C1567 C1564 1.387 . S
C1568 C1569 1.387 . S
C1568 H1572 0.950 . S
C1568 C1577 1.390 . S
C1569 C1568 1.387 . S
C1569 C1571 1.387 . S
H1570 C1577 0.950 . S
C1571 C1569 1.387 . S
C1571 C1573 1.390 . S
C1571 H1575 0.950 . S
H1572 C1568 0.950 . S
C1573 C1571 1.390 . S
C1573 C1574 1.387 . S
C1573 H1576 0.950 . S
C1574 C1573 1.387 . S
C1574 C1577 1.387 . S
H1575 C1571 0.950 . S
H1576 C1573 0.950 . S
C1577 C1568 1.390 . S
C1577 H1570 0.950 . S
C1577 C1574 1.387 . S
C1578 C1579 1.387 . S
C1578 H1582 0.950 . S
C1578 C1587 1.390 . S
C1579 C1578 1.387 . S
C1579 C1581 1.387 . S
H1580 C1587 0.950 . S
C1581 C1579 1.387 . S
C1581 C1583 1.390 . S
C1581 H1585 0.950 . S
H1582 C1578 0.950 . S
C1583 C1581 1.390 . S
C1583 C1584 1.387 . S
C1583 H1586 0.950 . S
C1584 C1583 1.387 . S
C1584 C1587 1.387 . S
H1585 C1581 0.950 . S
H1586 C1583 0.950 . S
C1587 C1578 1.390 . S
C1587 H1580 0.950 . S
C1587 C1584 1.387 . S
C1588 C1589 1.387 . S
C1588 H1592 0.950 . S
C1588 C1597 1.390 . S
C1589 C1588 1.387 . S
C1589 C1591 1.387 . S
H1590 C1597 0.950 . S
C1591 C1589 1.387 . S
C1591 C1593 1.390 . S
C1591 H1595 0.950 . S
H1592 C1588 0.950 . S
C1593 C1591 1.390 . S
C1593 C1594 1.387 . S
C1593 H1596 0.950 . S
C1594 C1593 1.387 . S
C1594 C1597 1.387 . S
H1595 C1591 0.950 . S
H1596 C1593 0.950 . S
C1597 C1588 1.390 . S
C1597 H1590 0.950 . S
C1597 C1594 1.387 . S
C1598 C1599 1.387 . S
C1598 H1602 0.950 . S
C1598 C1607 1.390 . S
C1599 C1598 1.387 . S
C1599 C1601 1.387 . S
H1600 C1607 0.950 . S
C1601 C1599 1.387 . S
C1601 C1603 1.390 . S
C1601 H1605 0.950 . S
H1602 C1598 0.950 . S
C1603 C1601 1.390 . S
C1603 C1604 1.387 . S
C1603 H1606 0.950 . S
C1604 C1603 1.387 . S
C1604 C1607 1.387 . S
H1605 C1601 0.950 . S
H1606 C1603 0.950 . S
C1607 C1598 1.390 . S
C1607 H1600 0.950 . S
C1607 C1604 1.387 . S
C1608 C1609 1.387 . S
C1608 H1612 0.950 . S
C1608 C1617 1.390 . S
C1609 C1608 1.387 . S
C1609 C1611 1.387 . S
H1610 C1617 0.950 . S
C1611 C1609 1.387 . S
C1611 C1613 1.390 . S
C1611 H1615 0.950 . S
H1612 C1608 0.950 . S
C1613 C1611 1.390 . S
C1613 C1614 1.387 . S
C1613 H1616 0.950 . S
C1614 C1613 1.387 . S
C1614 C1617 1.387 . S
H1615 C1611 0.950 . S
H1616 C1613 0.950 . S
C1617 C1608 1.390 . S
C1617 H1610 0.950 . S
C1617 C1614 1.387 . S
C1618 C1619 1.387 . S
C1618 H1622 0.950 . S
C1618 C1627 1.390 . S
C1619 C1618 1.387 . S
C1619 C1621 1.387 . S
H1620 C1627 0.950 . S
C1621 C1619 1.387 . S
C1621 C1623 1.390 . S
C1621 H1625 0.950 . S
H1622 C1618 0.950 . S
C1623 C1621 1.390 . S
C1623 C1624 1.387 . S
C1623 H1626 0.950 . S
C1624 C1623 1.387 . S
C1624 C1627 1.387 . S
H1625 C1621 0.950 . S
H1626 C1623 0.950 . S
C1627 C1618 1.390 . S
C1627 H1620 0.950 . S
C1627 C1624 1.387 . S
C1628 C1629 1.387 . S
C1628 H1632 0.950 . S
C1628 C1637 1.390 . S
C1629 C1628 1.387 . S
C1629 C1631 1.387 . S
H1630 C1637 0.950 . S
C1631 C1629 1.387 . S
C1631 C1633 1.390 . S
C1631 H1635 0.950 . S
H1632 C1628 0.950 . S
C1633 C1631 1.390 . S
C1633 C1634 1.387 . S
C1633 H1636 0.950 . S
C1634 C1633 1.387 . S
C1634 C1637 1.387 . S
H1635 C1631 0.950 . S
H1636 C1633 0.950 . S
C1637 C1628 1.390 . S
C1637 H1630 0.950 . S
C1637 C1634 1.387 . S
C1638 C1639 1.387 . S
C1638 H1642 0.950 . S
C1638 C1647 1.390 . S
C1639 C1638 1.387 . S
C1639 C1641 1.387 . S
H1640 C1647 0.950 . S
C1641 C1639 1.387 . S
C1641 C1643 1.390 . S
C1641 H1645 0.950 . S
H1642 C1638 0.950 . S
C1643 C1641 1.390 . S
C1643 C1644 1.387 . S
C1643 H1646 0.950 . S
C1644 C1643 1.387 . S
C1644 C1647 1.387 . S
H1645 C1641 0.950 . S
H1646 C1643 0.950 . S
C1647 C1638 1.390 . S
C1647 H1640 0.950 . S
C1647 C1644 1.387 . S
C1648 C1649 1.387 . S
C1648 H1652 0.950 . S
C1648 C1657 1.390 . S
C1649 C1648 1.387 . S
C1649 C1651 1.387 . S
H1650 C1657 0.950 . S
C1651 C1649 1.387 . S
C1651 C1653 1.390 . S
C1651 H1655 0.950 . S
H1652 C1648 0.950 . S
C1653 C1651 1.390 . S
C1653 C1654 1.387 . S
C1653 H1656 0.950 . S
C1654 C1653 1.387 . S
C1654 C1657 1.387 . S
H1655 C1651 0.950 . S
H1656 C1653 0.950 . S
C1657 C1648 1.390 . S
C1657 H1650 0.950 . S
C1657 C1654 1.387 . S
C1658 C1659 1.387 . S
C1658 H1662 0.950 . S
C1658 C1667 1.390 . S
C1659 C1658 1.387 . S
C1659 C1661 1.387 . S
H1660 C1667 0.950 . S
C1661 C1659 1.387 . S
C1661 C1663 1.390 . S
C1661 H1665 0.950 . S
H1662 C1658 0.950 . S
C1663 C1661 1.390 . S
C1663 C1664 1.387 . S
C1663 H1666 0.950 . S
C1664 C1663 1.387 . S
C1664 C1667 1.387 . S
H1665 C1661 0.950 . S
H1666 C1663 0.950 . S
C1667 C1658 1.390 . S
C1667 H1660 0.950 . S
C1667 C1664 1.387 . S
C1668 C1669 1.387 . S
C1668 H1672 0.950 . S
C1668 C1677 1.390 . S
C1669 C1668 1.387 . S
C1669 C1671 1.387 . S
H1670 C1677 0.950 . S
C1671 C1669 1.387 . S
C1671 C1673 1.390 . S
C1671 H1675 0.950 . S
H1672 C1668 0.950 . S
C1673 C1671 1.390 . S
C1673 C1674 1.387 . S
C1673 H1676 0.950 . S
C1674 C1673 1.387 . S
C1674 C1677 1.387 . S
H1675 C1671 0.950 . S
H1676 C1673 0.950 . S
C1677 C1668 1.390 . S
C1677 H1670 0.950 . S
C1677 C1674 1.387 . S
C1678 C1679 1.387 . S
C1678 H1682 0.950 . S
C1678 C1687 1.390 . S
C1679 C1678 1.387 . S
C1679 C1681 1.387 . S
H1680 C1687 0.950 . S
C1681 C1679 1.387 . S
C1681 C1683 1.390 . S
C1681 H1685 0.950 . S
H1682 C1678 0.950 . S
C1683 C1681 1.390 . S
C1683 C1684 1.387 . S
C1683 H1686 0.950 . S
C1684 C1683 1.387 . S
C1684 C1687 1.387 . S
H1685 C1681 0.950 . S
H1686 C1683 0.950 . S
C1687 C1678 1.390 . S
C1687 H1680 0.950 . S
C1687 C1684 1.387 . S
C1688 C1689 1.387 . S
C1688 H1692 0.950 . S
C1688 C1697 1.390 . S
C1689 C1688 1.387 . S
C1689 C1691 1.387 . S
H1690 C1697 0.950 . S
C1691 C1689 1.387 . S
C1691 C1693 1.390 . S
C1691 H1695 0.950 . S
H1692 C1688 0.950 . S
C1693 C1691 1.390 . S
C1693 C1694 1.387 . S
C1693 H1696 0.950 . S
C1694 C1693 1.387 . S
C1694 C1697 1.387 . S
H1695 C1691 0.950 . S
H1696 C1693 0.950 . S
C1697 C1688 1.390 . S
C1697 H1690 0.950 . S
C1697 C1694 1.387 . S
C1698 C1699 1.387 . S
C1698 H1702 0.950 . S
C1698 C1707 1.390 . S
C1699 C1698 1.387 . S
C1699 C1701 1.387 . S
H1700 C1707 0.950 . S
C1701 C1699 1.387 . S
C1701 C1703 1.390 . S
C1701 H1705 0.950 . S
H1702 C1698 0.950 . S
C1703 C1701 1.390 . S
C1703 C1704 1.387 . S
C1703 H1706 0.950 . S
C1704 C1703 1.387 . S
C1704 C1707 1.387 . S
H1705 C1701 0.950 . S
H1706 C1703 0.950 . S
C1707 C1698 1.390 . S
C1707 H1700 0.950 . S
C1707 C1704 1.387 . S
C1708 C1709 1.387 . S
C1708 H1712 0.950 . S
C1708 C1717 1.390 . S
C1709 C1708 1.387 . S
C1709 C1711 1.387 . S
H1710 C1717 0.950 . S
C1711 C1709 1.387 . S
C1711 C1713 1.390 . S
C1711 H1715 0.950 . S
H1712 C1708 0.950 . S
C1713 C1711 1.390 . S
C1713 C1714 1.387 . S
C1713 H1716 0.950 . S
C1714 C1713 1.387 . S
C1714 C1717 1.387 . S
H1715 C1711 0.950 . S
H1716 C1713 0.950 . S
C1717 C1708 1.390 . S
C1717 H1710 0.950 . S
C1717 C1714 1.387 . S
C1718 C1719 1.387 . S
C1718 H1722 0.950 . S
C1718 C1727 1.390 . S
C1719 C1718 1.387 . S
C1719 C1721 1.387 . S
H1720 C1727 0.950 . S
C1721 C1719 1.387 . S
C1721 C1723 1.390 . S
C1721 H1725 0.950 . S
H1722 C1718 0.950 . S
C1723 C1721 1.390 . S
C1723 C1724 1.387 . S
C1723 H1726 0.950 . S
C1724 C1723 1.387 . S
C1724 C1727 1.387 . S
H1725 C1721 0.950 . S
H1726 C1723 0.950 . S
C1727 C1718 1.390 . S
C1727 H1720 0.950 . S
C1727 C1724 1.387 . S
C1728 C1729 1.387 . S
C1728 H1732 0.950 . S
C1728 C1737 1.390 . S
C1729 C1728 1.387 . S
C1729 C1731 1.387 . S
H1730 C1737 0.950 . S
C1731 C1729 1.387 . S
C1731 C1733 1.390 . S
C1731 H1735 0.950 . S
H1732 C1728 0.950 . S
C1733 C1731 1.390 . S
C1733 C1734 1.387 . S
C1733 H1736 0.950 . S
C1734 C1733 1.387 . S
C1734 C1737 1.387 . S
H1735 C1731 0.950 . S
H1736 C1733 0.950 . S
C1737 C1728 1.390 . S
C1737 H1730 0.950 . S
C1737 C1734 1.387 . S
C1738 C1739 1.387 . S
C1738 H1742 0.950 . S
C1738 C1747 1.390 . S
C1739 C1738 1.387 . S
C1739 C1741 1.387 . S
H1740 C1747 0.950 . S
C1741 C1739 1.387 . S
C1741 C1743 1.390 . S
C1741 H1745 0.950 . S
H1742 C1738 0.950 . S
C1743 C1741 1.390 . S
C1743 C1744 1.387 . S
C1743 H1746 0.950 . S
C1744 C1743 1.387 . S
C1744 C1747 1.387 . S
H1745 C1741 0.950 . S
H1746 C1743 0.950 . S
C1747 C1738 1.390 . S
C1747 H1740 0.950 . S
C1747 C1744 1.387 . S
C1748 C1749 1.387 . S
C1748 H1752 0.950 . S
C1748 C1757 1.390 . S
C1749 C1748 1.387 . S
C1749 C1751 1.387 . S
H1750 C1757 0.950 . S
C1751 C1749 1.387 . S
C1751 C1753 1.390 . S
C1751 H1755 0.950 . S
H1752 C1748 0.950 . S
C1753 C1751 1.390 . S
C1753 C1754 1.387 . S
C1753 H1756 0.950 . S
C1754 C1753 1.387 . S
C1754 C1757 1.387 . S
H1755 C1751 0.950 . S
H1756 C1753 0.950 . S
C1757 C1748 1.390 . S
C1757 H1750 0.950 . S
C1757 C1754 1.387 . S
C1758 C1759 1.387 . S
C1758 H1762 0.950 . S
C1758 C1767 1.390 . S
C1759 C1758 1.387 . S
C1759 C1761 1.387 . S
H1760 C1767 0.950 . S
C1761 C1759 1.387 . S
C1761 C1763 1.390 . S
C1761 H1765 0.950 . S
H1762 C1758 0.950 . S
C1763 C1761 1.390 . S
C1763 C1764 1.387 . S
C1763 H1766 0.950 . S
C1764 C1763 1.387 . S
C1764 C1767 1.387 . S
H1765 C1761 0.950 . S
H1766 C1763 0.950 . S
C1767 C1758 1.390 . S
C1767 H1760 0.950 . S
C1767 C1764 1.387 . S
C1768 C1769 1.387 . S
C1768 H1772 0.950 . S
C1768 C1777 1.390 . S
C1769 C1768 1.387 . S
C1769 C1771 1.387 . S
H1770 C1777 0.950 . S
C1771 C1769 1.387 . S
C1771 C1773 1.390 . S
C1771 H1775 0.950 . S
H1772 C1768 0.950 . S
C1773 C1771 1.390 . S
C1773 C1774 1.387 . S
C1773 H1776 0.950 . S
C1774 C1773 1.387 . S
C1774 C1777 1.387 . S
H1775 C1771 0.950 . S
H1776 C1773 0.950 . S
C1777 C1768 1.390 . S
C1777 H1770 0.950 . S
C1777 C1774 1.387 . S
C1778 C1779 1.387 . S
C1778 H1782 0.950 . S
C1778 C1787 1.390 . S
C1779 C1778 1.387 . S
C1779 C1781 1.387 . S
H1780 C1787 0.950 . S
C1781 C1779 1.387 . S
C1781 C1783 1.390 . S
C1781 H1785 0.950 . S
H1782 C1778 0.950 . S
C1783 C1781 1.390 . S
C1783 C1784 1.387 . S
C1783 H1786 0.950 . S
C1784 C1783 1.387 . S
C1784 C1787 1.387 . S
H1785 C1781 0.950 . S
H1786 C1783 0.950 . S
C1787 C1778 1.390 . S
C1787 H1780 0.950 . S
C1787 C1784 1.387 . S
C1788 C1789 1.387 . S
C1788 H1792 0.950 . S
C1788 C1797 1.390 . S
C1789 C1788 1.387 . S
C1789 C1791 1.387 . S
H1790 C1797 0.950 . S
C1791 C1789 1.387 . S
C1791 C1793 1.390 . S
C1791 H1795 0.950 . S
H1792 C1788 0.950 . S
C1793 C1791 1.390 . S
C1793 C1794 1.387 . S
C1793 H1796 0.950 . S
C1794 C1793 1.387 . S
C1794 C1797 1.387 . S
H1795 C1791 0.950 . S
H1796 C1793 0.950 . S
C1797 C1788 1.390 . S
C1797 H1790 0.950 . S
C1797 C1794 1.387 . S
C1798 C1799 1.387 . S
C1798 H1802 0.950 . S
C1798 C1807 1.390 . S
C1799 C1798 1.387 . S
C1799 C1801 1.387 . S
H1800 C1807 0.950 . S
C1801 C1799 1.387 . S
C1801 C1803 1.390 . S
C1801 H1805 0.950 . S
H1802 C1798 0.950 . S
C1803 C1801 1.390 . S
C1803 C1804 1.387 . S
C1803 H1806 0.950 . S
C1804 C1803 1.387 . S
C1804 C1807 1.387 . S
H1805 C1801 0.950 . S
H1806 C1803 0.950 . S
C1807 C1798 1.390 . S
C1807 H1800 0.950 . S
C1807 C1804 1.387 . S
C1808 C1809 1.387 . S
C1808 H1812 0.950 . S
C1808 C1817 1.390 . S
C1809 C1808 1.387 . S
C1809 C1811 1.387 . S
H1810 C1817 0.950 . S
C1811 C1809 1.387 . S
C1811 C1813 1.390 . S
C1811 H1815 0.950 . S
H1812 C1808 0.950 . S
C1813 C1811 1.390 . S
C1813 C1814 1.387 . S
C1813 H1816 0.950 . S
C1814 C1813 1.387 . S
C1814 C1817 1.387 . S
H1815 C1811 0.950 . S
H1816 C1813 0.950 . S
C1817 C1808 1.390 . S
C1817 H1810 0.950 . S
C1817 C1814 1.387 . S
C1818 C1819 1.387 . S
C1818 H1822 0.950 . S
C1818 C1827 1.390 . S
C1819 C1818 1.387 . S
C1819 C1821 1.387 . S
H1820 C1827 0.950 . S
C1821 C1819 1.387 . S
C1821 C1823 1.390 . S
C1821 H1825 0.950 . S
H1822 C1818 0.950 . S
C1823 C1821 1.390 . S
C1823 C1824 1.387 . S
C1823 H1826 0.950 . S
C1824 C1823 1.387 . S
C1824 C1827 1.387 . S
H1825 C1821 0.950 . S
H1826 C1823 0.950 . S
C1827 C1818 1.390 . S
C1827 H1820 0.950 . S
C1827 C1824 1.387 . S
C1828 C1829 1.387 . S
C1828 H1832 0.950 . S
C1828 C1837 1.390 . S
C1829 C1828 1.387 . S
C1829 C1831 1.387 . S
H1830 C1837 0.950 . S
C1831 C1829 1.387 . S
C1831 C1833 1.390 . S
C1831 H1835 0.950 . S
H1832 C1828 0.950 . S
C1833 C1831 1.390 . S
C1833 C1834 1.387 . S
C1833 H1836 0.950 . S
C1834 C1833 1.387 . S
C1834 C1837 1.387 . S
H1835 C1831 0.950 . S
H1836 C1833 0.950 . S
C1837 C1828 1.390 . S
C1837 H1830 0.950 . S
C1837 C1834 1.387 . S
C1838 C1839 1.387 . S
C1838 H1842 0.950 . S
C1838 C1847 1.390 . S
C1839 C1838 1.387 . S
C1839 C1841 1.387 . S
H1840 C1847 0.950 . S
C1841 C1839 1.387 . S
C1841 C1843 1.390 . S
C1841 H1845 0.950 . S
H1842 C1838 0.950 . S
C1843 C1841 1.390 . S
C1843 C1844 1.387 . S
C1843 H1846 0.950 . S
C1844 C1843 1.387 . S
C1844 C1847 1.387 . S
H1845 C1841 0.950 . S
H1846 C1843 0.950 . S
C1847 C1838 1.390 . S
C1847 H1840 0.950 . S
C1847 C1844 1.387 . S
C1848 C1849 1.387 . S
C1848 H1852 0.950 . S
C1848 C1857 1.390 . S
C1849 C1848 1.387 . S
C1849 C1851 1.387 . S
H1850 C1857 0.950 . S
C1851 C1849 1.387 . S
C1851 C1853 1.390 . S
C1851 H1855 0.950 . S
H1852 C1848 0.950 . S
C1853 C1851 1.390 . S
C1853 C1854 1.387 . S
C1853 H1856 0.950 . S
C1854 C1853 1.387 . S
C1854 C1857 1.387 . S
H1855 C1851 0.950 . S
H1856 C1853 0.950 . S
C1857 C1848 1.390 . S
C1857 H1850 0.950 . S
C1857 C1854 1.387 . S
C1858 C1859 1.387 . S
C1858 H1862 0.950 . S
C1858 C1867 1.390 . S
C1859 C1858 1.387 . S
C1859 C1861 1.387 . S
H1860 C1867 0.950 . S
C1861 C1859 1.387 . S
C1861 C1863 1.390 . S
C1861 H1865 0.950 . S
H1862 C1858 0.950 . S
C1863 C1861 1.390 . S
C1863 C1864 1.387 . S
C1863 H1866 0.950 . S
C1864 C1863 1.387 . S
C1864 C1867 1.387 . S
H1865 C1861 0.950 . S
H1866 C1863 0.950 . S
C1867 C1858 1.390 . S
C1867 H1860 0.950 . S
C1867 C1864 1.387 . S
C1868 C1869 1.387 . S
C1868 H1872 0.950 . S
C1868 C1877 1.390 . S
C1869 C1868 1.387 . S
C1869 C1871 1.387 . S
H1870 C1877 0.950 . S
C1871 C1869 1.387 . S
C1871 C1873 1.390 . S
C1871 H1875 0.950 . S
H1872 C1868 0.950 . S
C1873 C1871 1.390 . S
C1873 C1874 1.387 . S
C1873 H1876 0.950 . S
C1874 C1873 1.387 . S
C1874 C1877 1.387 . S
H1875 C1871 0.950 . S
H1876 C1873 0.950 . S
C1877 C1868 1.390 . S
C1877 H1870 0.950 . S
C1877 C1874 1.387 . S
C1878 C1879 1.387 . S
C1878 H1882 0.950 . S
C1878 C1887 1.390 . S
C1879 C1878 1.387 . S
C1879 C1881 1.387 . S
H1880 C1887 0.950 . S
C1881 C1879 1.387 . S
C1881 C1883 1.390 . S
C1881 H1885 0.950 . S
H1882 C1878 0.950 . S
C1883 C1881 1.390 . S
C1883 C1884 1.387 . S
C1883 H1886 0.950 . S
C1884 C1883 1.387 . S
C1884 C1887 1.387 . S
H1885 C1881 0.950 . S
H1886 C1883 0.950 . S
C1887 C1878 1.390 . S
C1887 H1880 0.950 . S
C1887 C1884 1.387 . S
C1888 C1889 1.387 . S
C1888 H1892 0.950 . S
C1888 C1897 1.390 . S
C1889 C1888 1.387 . S
C1889 C1891 1.387 . S
H1890 C1897 0.950 . S
C1891 C1889 1.387 . S
C1891 C1893 1.390 . S
C1891 H1895 0.950 . S
H1892 C1888 0.950 . S
C1893 C1891 1.390 . S
C1893 C1894 1.387 . S
C1893 H1896 0.950 . S
C1894 C1893 1.387 . S
C1894 C1897 1.387 . S
H1895 C1891 0.950 . S
H1896 C1893 0.950 . S
C1897 C1888 1.390 . S
C1897 H1890 0.950 . S
C1897 C1894 1.387 . S
C1898 C1899 1.387 . S
C1898 H1902 0.950 . S
C1898 C1907 1.390 . S
C1899 C1898 1.387 . S
C1899 C1901 1.387 . S
H1900 C1907 0.950 . S
C1901 C1899 1.387 . S
C1901 C1903 1.390 . S
C1901 H1905 0.950 . S
H1902 C1898 0.950 . S
C1903 C1901 1.390 . S
C1903 C1904 1.387 . S
C1903 H1906 0.950 . S
C1904 C1903 1.387 . S
C1904 C1907 1.387 . S
H1905 C1901 0.950 . S
H1906 C1903 0.950 . S
C1907 C1898 1.390 . S
C1907 H1900 0.950 . S
C1907 C1904 1.387 . S
C1908 C1909 1.387 . S
C1908 H1912 0.950 . S
C1908 C1917 1.390 . S
C1909 C1908 1.387 . S
C1909 C1911 1.387 . S
H1910 C1917 0.950 . S
C1911 C1909 1.387 . S
C1911 C1913 1.390 . S
C1911 H1915 0.950 . S
H1912 C1908 0.950 . S
C1913 C1911 1.390 . S
C1913 C1914 1.387 . S
C1913 H1916 0.950 . S
C1914 C1913 1.387 . S
C1914 C1917 1.387 . S
H1915 C1911 0.950 . S
H1916 C1913 0.950 . S
C1917 C1908 1.390 . S
C1917 H1910 0.950 . S
C1917 C1914 1.387 . S
C1918 C1919 1.387 . S
C1918 H1922 0.950 . S
C1918 C1927 1.390 . S
C1919 C1918 1.387 . S
C1919 C1921 1.387 . S
H1920 C1927 0.950 . S
C1921 C1919 1.387 . S
C1921 C1923 1.390 . S
C1921 H1925 0.950 . S
H1922 C1918 0.950 . S
C1923 C1921 1.390 . S
C1923 C1924 1.387 . S
C1923 H1926 0.950 . S
C1924 C1923 1.387 . S
C1924 C1927 1.387 . S
H1925 C1921 0.950 . S
H1926 C1923 0.950 . S
C1927 C1918 1.390 . S
C1927 H1920 0.950 . S
C1927 C1924 1.387 . S
C1928 C1929 1.387 . S
C1928 H1932 0.950 . S
C1928 C1937 1.390 . S
C1929 C1928 1.387 . S
C1929 C1931 1.387 . S
H1930 C1937 0.950 . S
C1931 C1929 1.387 . S
C1931 C1933 1.390 . S
C1931 H1935 0.950 . S
H1932 C1928 0.950 . S
C1933 C1931 1.390 . S
C1933 C1934 1.387 . S
C1933 H1936 0.950 . S
C1934 C1933 1.387 . S
C1934 C1937 1.387 . S
H1935 C1931 0.950 . S
H1936 C1933 0.950 . S
C1937 C1928 1.390 . S
C1937 H1930 0.950 . S
C1937 C1934 1.387 . S
C1938 C1939 1.387 . S
C1938 H1942 0.950 . S
C1938 C1947 1.390 . S
C1939 C1938 1.387 . S
C1939 C1941 1.387 . S
H1940 C1947 0.950 . S
C1941 C1939 1.387 . S
C1941 C1943 1.390 . S
C1941 H1945 0.950 . S
H1942 C1938 0.950 . S
C1943 C1941 1.390 . S
C1943 C1944 1.387 . S
C1943 H1946 0.950 . S
C1944 C1943 1.387 . S
C1944 C1947 1.387 . S
H1945 C1941 0.950 . S
H1946 C1943 0.950 . S
C1947 C1938 1.390 . S
C1947 H1940 0.950 . S
C1947 C1944 1.387 . S
C1948 C1949 1.387 . S
C1948 H1952 0.950 . S
C1948 C1957 1.390 . S
C1949 C1948 1.387 . S
C1949 C1951 1.387 . S
H1950 C1957 0.950 . S
C1951 C1949 1.387 . S
C1951 C1953 1.390 . S
C1951 H1955 0.950 . S
H1952 C1948 0.950 . S
C1953 C1951 1.390 . S
C1953 C1954 1.387 . S
C1953 H1956 0.950 . S
C1954 C1953 1.387 . S
C1954 C1957 1.387 . S
H1955 C1951 0.950 . S
H1956 C1953 0.950 . S
C1957 C1948 1.390 . S
C1957 H1950 0.950 . S
C1957 C1954 1.387 . S
C1958 C1959 1.387 . S
C1958 H1962 0.950 . S
C1958 C1967 1.390 . S
C1959 C1958 1.387 . S
C1959 C1961 1.387 . S
H1960 C1967 0.950 . S
C1961 C1959 1.387 . S
C1961 C1963 1.390 . S
C1961 H1965 0.950 . S
H1962 C1958 0.950 . S
C1963 C1961 1.390 . S
C1963 C1964 1.387 . S
C1963 H1966 0.950 . S
C1964 C1963 1.387 . S
C1964 C1967 1.387 . S
H1965 C1961 0.950 . S
H1966 C1963 0.950 . S
C1967 C1958 1.390 . S
C1967 H1960 0.950 . S
C1967 C1964 1.387 . S
C1968 C1969 1.387 . S
C1968 H1972 0.950 . S
C1968 C1977 1.390 . S
C1969 C1968 1.387 . S
C1969 C1971 1.387 . S
H1970 C1977 0.950 . S
C1971 C1969 1.387 . S
C1971 C1973 1.390 . S
C1971 H1975 0.950 . S
H1972 C1968 0.950 . S
C1973 C1971 1.390 . S
C1973 C1974 1.387 . S
C1973 H1976 0.950 . S
C1974 C1973 1.387 . S
C1974 C1977 1.387 . S
H1975 C1971 0.950 . S
H1976 C1973 0.950 . S
C1977 C1968 1.390 . S
C1977 H1970 0.950 . S
C1977 C1974 1.387 . S
C1978 C1979 1.387 . S
C1978 H1982 0.950 . S
C1978 C1987 1.390 . S
C1979 C1978 1.387 . S
C1979 C1981 1.387 . S
H1980 C1987 0.950 . S
C1981 C1979 1.387 . S
C1981 C1983 1.390 . S
C1981 H1985 0.950 . S
H1982 C1978 0.950 . S
C1983 C1981 1.390 . S
C1983 C1984 1.387 . S
C1983 H1986 0.950 . S
C1984 C1983 1.387 . S
C1984 C1987 1.387 . S
H1985 C1981 0.950 . S
H1986 C1983 0.950 . S
C1987 C1978 1.390 . S
C1987 H1980 0.950 . S
C1987 C1984 1.387 . S
C1988 C1989 1.387 . S
C1988 H1992 0.950 . S
C1988 C1997 1.390 . S
C1989 C1988 1.387 . S
C1989 C1991 1.387 . S
H1990 C1997 0.950 . S
C1991 C1989 1.387 . S
C1991 C1993 1.390 . S
C1991 H1995 0.950 . S
H1992 C1988 0.950 . S
C1993 C1991 1.390 . S
C1993 C1994 1.387 . S
C1993 H1996 0.950 . S
C1994 C1993 1.387 . S
C1994 C1997 1.387 . S
H1995 C1991 0.950 . S
H1996 C1993 0.950 . S
C1997 C1988 1.390 . S
C1997 H1990 0.950 . S
C1997 C1994 1.387 . S
C1459 C528 1.462 . S
C1464 C769 1.388 . S
C1469 C562 1.513 . S
C1474 C853 1.441 . S
C1479 C484 1.514 . S
C1484 C933 1.457 . S
C1489 C445 1.466 . S
C1494 C849 1.414 . S
C1504 C937 1.385 . S
C1499 C367 1.460 . S
C1509 C411 1.448 . S
C1514 C765 1.388 . S
C1524 C758 1.403 . S
C1519 C450 1.472 . S
C1534 C842 1.433 . S
C1529 C372 1.496 . S
C1539 C406 1.510 . S
C1544 C944 1.455 . S
C1549 C523 1.465 . S
C1554 C860 1.416 . S
C1559 C567 1.441 . S
C1564 C926 1.369 . S
C1574 C776 1.407 . S
C1569 C489 1.458 . S
C1584 C1021 1.388 . S
C1579 C60 1.463 1_455 S
C1589 C94 1.513 . S
C1594 C1105 1.441 . S
C1599 C16 1.514 1_565 S
C1604 C1185 1.457 . S
C1609 C679 1.466 . S
C1614 C1101 1.414 . S
C1619 C601 1.460 . S
C1624 C1189 1.381 . S
C1629 C645 1.450 . S
C1634 C1017 1.391 . S
C1639 C684 1.471 . S
C1644 C1010 1.403 . S
C1649 C606 1.495 . S
C1654 C1094 1.431 . S
C1664 C1196 1.454 . S
C1659 C640 1.509 . S
C1669 C55 1.464 1_565 S
C1674 C1112 1.415 . S
C1684 C1178 1.373 . S
C1679 C99 1.442 1_455 S
C1689 C21 1.456 . S
C1694 C1028 1.404 . S
C1704 C1273 1.388 . S
C1699 C294 1.463 . S
C1709 C328 1.513 . S
C1714 C1357 1.442 . S
C1724 C1437 1.457 . S
C1719 C250 1.514 . S
C1734 C1353 1.415 . S
C1729 C211 1.467 1_545 S
C1744 C1441 1.381 . S
C1739 C133 1.460 1_655 S
C1749 C177 1.448 . S
C1754 C1269 1.387 . S
C1759 C216 1.471 1_655 S
C1764 C1262 1.403 . S
C1769 C138 1.495 . S
C1774 C1346 1.430 . S
C1784 C1448 1.457 . S
C1779 C172 1.511 1_545 S
C1789 C289 1.465 . S
C1794 C1364 1.415 . S
C1799 C333 1.442 . S
C1804 C1430 1.373 . S
C1809 C255 1.456 . S
C1814 C1280 1.404 . S
C1819 C586 1.490 . S
C1824 C772 1.387 . S
C1834 C856 1.365 . S
C1829 C625 1.509 . S
C1839 C664 1.496 . S
C1844 C928 1.366 . S
C1849 C235 1.519 . S
C1854 C844 1.373 . S
C1859 C274 1.484 . S
C1864 C940 1.358 . S
C1874 C760 1.384 . S
C1869 C313 1.490 . S
C1879 C118 1.490 . S
C1884 C1024 1.387 . S
C1889 C157 1.509 . S
C1894 C1108 1.364 . S
C1899 C196 1.495 . S
C1904 C1180 1.363 . S
C1909 C469 1.519 . S
C1914 C1096 1.369 . S
C1924 C1192 1.356 . S
C1919 C508 1.484 . S
C1929 C547 1.490 . S
C1934 C1012 1.388 . S
C1939 C352 1.491 . S
C1944 C1276 1.383 . S
C1949 C391 1.509 . S
C1954 C1360 1.361 . S
C1964 C1432 1.363 . S
C1959 C430 1.495 . S
C1969 C1 1.519 . S
C1974 C1348 1.371 . S
C1979 C40 1.484 . S
C1984 C1444 1.357 . S
C1989 C79 1.490 . S
C1994 C1264 1.388 . S
