# Generated by pormake.
# Topology eea, (3,6)-cn, num edge types: 1
# Building blocks:
#     Node 0, Type 0, BuildingBlock: MIDCAF_clean_linker_0, # of connection points: 3
#     Node 1, Type 0, BuildingBlock: MIDCAF_clean_linker_0, # of connection points: 3
#     Node 2, Type 0, BuildingBlock: MIDCAF_clean_linker_0, # of connection points: 3
#     Node 3, Type 0, BuildingBlock: MIDCAF_clean_linker_0, # of connection points: 3
#     Node 4, Type 0, BuildingBlock: MIDCAF_clean_linker_0, # of connection points: 3
#     Node 5, Type 0, BuildingBlock: MIDCAF_clean_linker_0, # of connection points: 3
#     Node 6, Type 0, BuildingBlock: MIDCAF_clean_linker_0, # of connection points: 3
#     Node 7, Type 0, BuildingBlock: MIDCAF_clean_linker_0, # of connection points: 3
#     Node 8, Type 0, BuildingBlock: MIDCAF_clean_linker_0, # of connection points: 3
#     Node 9, Type 0, BuildingBlock: MIDCAF_clean_linker_0, # of connection points: 3
#     Node 10, Type 0, BuildingBlock: MIDCAF_clean_linker_0, # of connection points: 3
#     Node 11, Type 0, BuildingBlock: MIDCAF_clean_linker_0, # of connection points: 3
#     Node 12, Type 0, BuildingBlock: MIDCAF_clean_linker_0, # of connection points: 3
#     Node 13, Type 0, BuildingBlock: MIDCAF_clean_linker_0, # of connection points: 3
#     Node 14, Type 0, BuildingBlock: MIDCAF_clean_linker_0, # of connection points: 3
#     Node 15, Type 0, BuildingBlock: MIDCAF_clean_linker_0, # of connection points: 3
#     Node 16, Type 0, BuildingBlock: MIDCAF_clean_linker_0, # of connection points: 3
#     Node 17, Type 0, BuildingBlock: MIDCAF_clean_linker_0, # of connection points: 3
#     Node 18, Type 1, BuildingBlock: CUWYAW_clean_sbu_0, # of connection points: 6
#     Node 19, Type 1, BuildingBlock: CUWYAW_clean_sbu_0, # of connection points: 6
#     Node 20, Type 1, BuildingBlock: CUWYAW_clean_sbu_0, # of connection points: 6
#     Node 21, Type 1, BuildingBlock: CUWYAW_clean_sbu_0, # of connection points: 6
#     Node 22, Type 1, BuildingBlock: CUWYAW_clean_sbu_0, # of connection points: 6
#     Node 23, Type 1, BuildingBlock: CUWYAW_clean_sbu_0, # of connection points: 6
#     Node 24, Type 1, BuildingBlock: CUWYAW_clean_sbu_0, # of connection points: 6
#     Node 25, Type 1, BuildingBlock: CUWYAW_clean_sbu_0, # of connection points: 6
#     Node 26, Type 1, BuildingBlock: CUWYAW_clean_sbu_0, # of connection points: 6
#     Edge 27, Type (0, 1), BuildingBlock: CIFDUS_clean_linker_0, # of connection points: 2
#     Edge 28, Type (0, 1), BuildingBlock: CIFDUS_clean_linker_0, # of connection points: 2
#     Edge 29, Type (0, 1), BuildingBlock: CIFDUS_clean_linker_0, # of connection points: 2
#     Edge 30, Type (0, 1), BuildingBlock: CIFDUS_clean_linker_0, # of connection points: 2
#     Edge 31, Type (0, 1), BuildingBlock: CIFDUS_clean_linker_0, # of connection points: 2
#     Edge 32, Type (0, 1), BuildingBlock: CIFDUS_clean_linker_0, # of connection points: 2
#     Edge 33, Type (0, 1), BuildingBlock: CIFDUS_clean_linker_0, # of connection points: 2
#     Edge 34, Type (0, 1), BuildingBlock: CIFDUS_clean_linker_0, # of connection points: 2
#     Edge 35, Type (0, 1), BuildingBlock: CIFDUS_clean_linker_0, # of connection points: 2
#     Edge 36, Type (0, 1), BuildingBlock: CIFDUS_clean_linker_0, # of connection points: 2
#     Edge 37, Type (0, 1), BuildingBlock: CIFDUS_clean_linker_0, # of connection points: 2
#     Edge 38, Type (0, 1), BuildingBlock: CIFDUS_clean_linker_0, # of connection points: 2
#     Edge 39, Type (0, 1), BuildingBlock: CIFDUS_clean_linker_0, # of connection points: 2
#     Edge 40, Type (0, 1), BuildingBlock: CIFDUS_clean_linker_0, # of connection points: 2
#     Edge 41, Type (0, 1), BuildingBlock: CIFDUS_clean_linker_0, # of connection points: 2
#     Edge 42, Type (0, 1), BuildingBlock: CIFDUS_clean_linker_0, # of connection points: 2
#     Edge 43, Type (0, 1), BuildingBlock: CIFDUS_clean_linker_0, # of connection points: 2
#     Edge 44, Type (0, 1), BuildingBlock: CIFDUS_clean_linker_0, # of connection points: 2
#     Edge 45, Type (0, 1), BuildingBlock: CIFDUS_clean_linker_0, # of connection points: 2
#     Edge 46, Type (0, 1), BuildingBlock: CIFDUS_clean_linker_0, # of connection points: 2
#     Edge 47, Type (0, 1), BuildingBlock: CIFDUS_clean_linker_0, # of connection points: 2
#     Edge 48, Type (0, 1), BuildingBlock: CIFDUS_clean_linker_0, # of connection points: 2
#     Edge 49, Type (0, 1), BuildingBlock: CIFDUS_clean_linker_0, # of connection points: 2
#     Edge 50, Type (0, 1), BuildingBlock: CIFDUS_clean_linker_0, # of connection points: 2
#     Edge 51, Type (0, 1), BuildingBlock: CIFDUS_clean_linker_0, # of connection points: 2
#     Edge 52, Type (0, 1), BuildingBlock: CIFDUS_clean_linker_0, # of connection points: 2
#     Edge 53, Type (0, 1), BuildingBlock: CIFDUS_clean_linker_0, # of connection points: 2
#     Edge 54, Type (0, 1), BuildingBlock: CIFDUS_clean_linker_0, # of connection points: 2
#     Edge 55, Type (0, 1), BuildingBlock: CIFDUS_clean_linker_0, # of connection points: 2
#     Edge 56, Type (0, 1), BuildingBlock: CIFDUS_clean_linker_0, # of connection points: 2
#     Edge 57, Type (0, 1), BuildingBlock: CIFDUS_clean_linker_0, # of connection points: 2
#     Edge 58, Type (0, 1), BuildingBlock: CIFDUS_clean_linker_0, # of connection points: 2
#     Edge 59, Type (0, 1), BuildingBlock: CIFDUS_clean_linker_0, # of connection points: 2
#     Edge 60, Type (0, 1), BuildingBlock: CIFDUS_clean_linker_0, # of connection points: 2
#     Edge 61, Type (0, 1), BuildingBlock: CIFDUS_clean_linker_0, # of connection points: 2
#     Edge 62, Type (0, 1), BuildingBlock: CIFDUS_clean_linker_0, # of connection points: 2
#     Edge 63, Type (0, 1), BuildingBlock: CIFDUS_clean_linker_0, # of connection points: 2
#     Edge 64, Type (0, 1), BuildingBlock: CIFDUS_clean_linker_0, # of connection points: 2
#     Edge 65, Type (0, 1), BuildingBlock: CIFDUS_clean_linker_0, # of connection points: 2
#     Edge 66, Type (0, 1), BuildingBlock: CIFDUS_clean_linker_0, # of connection points: 2
#     Edge 67, Type (0, 1), BuildingBlock: CIFDUS_clean_linker_0, # of connection points: 2
#     Edge 68, Type (0, 1), BuildingBlock: CIFDUS_clean_linker_0, # of connection points: 2
#     Edge 69, Type (0, 1), BuildingBlock: CIFDUS_clean_linker_0, # of connection points: 2
#     Edge 70, Type (0, 1), BuildingBlock: CIFDUS_clean_linker_0, # of connection points: 2
#     Edge 71, Type (0, 1), BuildingBlock: CIFDUS_clean_linker_0, # of connection points: 2
#     Edge 72, Type (0, 1), BuildingBlock: CIFDUS_clean_linker_0, # of connection points: 2
#     Edge 73, Type (0, 1), BuildingBlock: CIFDUS_clean_linker_0, # of connection points: 2
#     Edge 74, Type (0, 1), BuildingBlock: CIFDUS_clean_linker_0, # of connection points: 2
#     Edge 75, Type (0, 1), BuildingBlock: CIFDUS_clean_linker_0, # of connection points: 2
#     Edge 76, Type (0, 1), BuildingBlock: CIFDUS_clean_linker_0, # of connection points: 2
#     Edge 77, Type (0, 1), BuildingBlock: CIFDUS_clean_linker_0, # of connection points: 2
#     Edge 78, Type (0, 1), BuildingBlock: CIFDUS_clean_linker_0, # of connection points: 2
#     Edge 79, Type (0, 1), BuildingBlock: CIFDUS_clean_linker_0, # of connection points: 2
#     Edge 80, Type (0, 1), BuildingBlock: CIFDUS_clean_linker_0, # of connection points: 2
# Relax obj value: 0.035
# Max RMSD: 0.133
# Mean RMSD: 0.080
data_MOF--net-eea--node1-CUWYAW_clean_sbu_0--node2-MIDCAF_clean_linker_0--edge1-CIFDUS_clean_linker_0
_symmetry_space_group_name_H-M    P1
_symmetry_Int_Tables_number       1
_symmetry_cell_setting            triclinic
loop_
_symmetry_equiv_pos_as_xyz
'x, y, z'
_cell_length_a     55.791212
_cell_length_b     55.520896
_cell_length_c     82.91179
_cell_angle_alpha  93.476952
_cell_angle_beta   93.265757
_cell_angle_gamma 119.92536
loop_
_atom_site_label
_atom_site_type_symbol
_atom_site_fract_x
_atom_site_fract_y
_atom_site_fract_z
_atom_type_partial_charge
C0 C 0.24635 0.04563 0.39968 0.0
C1 C 0.22949 0.03718 0.38486 0.0
C2 C 0.22568 0.05693 0.37705 0.0
C3 C 0.23772 0.08436 0.38412 0.0
H4 H 0.23857 0.15484 0.37763 0.0
H5 H 0.22302 0.18346 0.3649 0.0
H6 H 0.25951 0.24499 0.40669 0.0
H7 H 0.27552 0.21635 0.4196 0.0
H8 H 0.29144 0.19553 0.45273 0.0
H9 H 0.30979 0.2043 0.48127 0.0
H10 H 0.32981 0.13888 0.47423 0.0
H11 H 0.31168 0.13012 0.4458 0.0
H12 H 0.27068 0.07885 0.41846 0.0
H13 H 0.24957 0.03079 0.40597 0.0
H14 H 0.2132 0.05111 0.36546 0.0
H15 H 0.2339 0.09883 0.37782 0.0
N16 N 0.25848 0.13916 0.4001 0.0
N17 N 0.27998 0.17222 0.42284 0.0
N18 N 0.27833 0.12906 0.42237 0.0
C19 C 0.26622 0.16468 0.40769 0.0
C20 C 0.28627 0.15454 0.4302 0.0
C21 C 0.2644 0.12122 0.4073 0.0
C22 C 0.25818 0.18315 0.39973 0.0
C23 C 0.24344 0.17447 0.38419 0.0
C24 C 0.23434 0.1908 0.37688 0.0
C25 C 0.23975 0.21626 0.38489 0.0
C26 C 0.2551 0.22544 0.40024 0.0
C27 C 0.26419 0.20899 0.40763 0.0
C28 C 0.29989 0.16196 0.44701 0.0
C29 C 0.30012 0.18329 0.45721 0.0
C30 C 0.31049 0.18825 0.47356 0.0
C31 C 0.32115 0.17223 0.47995 0.0
C32 C 0.32197 0.15174 0.4696 0.0
C33 C 0.31136 0.14658 0.45333 0.0
C34 C 0.25381 0.09271 0.39924 0.0
C35 C 0.25835 0.07314 0.40684 0.0
C36 C 0.98022 0.19813 0.41407 0.0
C37 C 0.98558 0.19268 0.39832 0.0
C38 C 0.96556 0.16815 0.3888 0.0
C39 C 0.94061 0.14971 0.39478 0.0
H40 H 0.86685 0.07658 0.38169 0.0
H41 H 0.83202 0.03426 0.36507 0.0
H42 H 0.77823 0.013 0.40366 0.0
H43 H 0.81265 0.05541 0.42017 0.0
H44 H 0.83067 0.09363 0.452 0.0
H45 H 0.8214 0.10187 0.47942 0.0
H46 H 0.90427 0.17344 0.48886 0.0
H47 H 0.91353 0.16561 0.46121 0.0
H48 H 0.9517 0.1847 0.43221 0.0
H49 H 0.99511 0.21697 0.42166 0.0
H50 H 0.96923 0.16308 0.3767 0.0
H51 H 0.9257 0.13109 0.38704 0.0
N52 N 0.8886 0.11274 0.40712 0.0
N53 N 0.85919 0.10048 0.42792 0.0
N54 N 0.90305 0.14107 0.43193 0.0
C55 C 0.86399 0.09493 0.41266 0.0
C56 C 0.87854 0.12345 0.43764 0.0
C57 C 0.90825 0.13588 0.41666 0.0
C58 C 0.84267 0.06948 0.40232 0.0
C59 C 0.84757 0.06297 0.38664 0.0
C60 C 0.82765 0.03862 0.37712 0.0
C61 C 0.80236 0.02022 0.38305 0.0
C62 C 0.79734 0.02688 0.39865 0.0
C63 C 0.81723 0.05118 0.40816 0.0
C64 C 0.87292 0.12889 0.45435 0.0
C65 C 0.847 0.11117 0.45986 0.0
C66 C 0.8417 0.11578 0.47565 0.0
C67 C 0.86217 0.13817 0.48637 0.0
C68 C 0.88799 0.15613 0.48085 0.0
C69 C 0.89332 0.15154 0.46501 0.0
C70 C 0.93503 0.15529 0.41046 0.0
C71 C 0.95522 0.17967 0.42008 0.0
C72 C 0.80786 0.7786 0.41671 0.0
C73 C 0.80847 0.78522 0.4006 0.0
C74 C 0.82911 0.78561 0.39147 0.0
C75 C 0.84871 0.77949 0.39829 0.0
H76 H 0.91475 0.77233 0.38797 0.0
H77 H 0.95275 0.77902 0.37241 0.0
H78 H 0.99162 0.76267 0.41354 0.0
H79 H 0.95367 0.75645 0.42938 0.0
H80 H 0.91595 0.73367 0.46144 0.0
H81 H 0.90914 0.7183 0.48877 0.0
H82 H 0.84475 0.73947 0.49198 0.0
H83 H 0.85106 0.75425 0.46496 0.0
H84 H 0.8262 0.76732 0.43597 0.0
H85 H 0.79203 0.77783 0.424 0.0
H86 H 0.83035 0.79099 0.37908 0.0
H87 H 0.86433 0.78007 0.39089 0.0
N88 N 0.88938 0.76755 0.41312 0.0
N89 N 0.90697 0.75443 0.43523 0.0
N90 N 0.86758 0.75902 0.43705 0.0
C91 C 0.90855 0.76172 0.41973 0.0
C92 C 0.88641 0.75304 0.44397 0.0
C93 C 0.86884 0.76626 0.42168 0.0
C94 C 0.93114 0.76403 0.41005 0.0
C95 C 0.93127 0.77001 0.39377 0.0
C96 C 0.95302 0.77365 0.38474 0.0
C97 C 0.9753 0.77145 0.3917 0.0
C98 C 0.97494 0.76486 0.40786 0.0
C99 C 0.95309 0.76115 0.41692 0.0
C100 C 0.88388 0.74494 0.46084 0.0
C101 C 0.90041 0.7351 0.46801 0.0
C102 C 0.89659 0.72638 0.48369 0.0
C103 C 0.87612 0.72728 0.49246 0.0
C104 C 0.86023 0.73785 0.48543 0.0
C105 C 0.864 0.74648 0.46989 0.0
C106 C 0.84808 0.77278 0.4144 0.0
C107 C 0.8274 0.77241 0.42353 0.0
C108 C 0.013 0.20806 0.59558 0.0
C109 C 0.01669 0.21231 0.61271 0.0
C110 C 0.04348 0.2221 0.6205 0.0
C111 C 0.06559 0.22657 0.61154 0.0
H112 H 0.13059 0.20861 0.61443 0.0
H113 H 0.16556 0.19886 0.62617 0.0
H114 H 0.2078 0.22024 0.58269 0.0
H115 H 0.17276 0.22951 0.57082 0.0
H116 H 0.15178 0.24871 0.54335 0.0
H117 H 0.15749 0.26315 0.51627 0.0
H118 H 0.07718 0.25731 0.51364 0.0
H119 H 0.07159 0.24332 0.54127 0.0
H120 H 0.03169 0.20927 0.57348 0.0
H121 H 0.99272 0.20012 0.58906 0.0
H122 H 0.04756 0.22644 0.63358 0.0
H123 H 0.08579 0.23379 0.61801 0.0
N124 N 0.10542 0.22183 0.59233 0.0
N125 N 0.12825 0.2321 0.56875 0.0
N126 N 0.08664 0.23278 0.56969 0.0
C127 C 0.12697 0.22483 0.58413 0.0
C128 C 0.10839 0.23623 0.56141 0.0
C129 C 0.08517 0.22572 0.58523 0.0
C130 C 0.14869 0.21977 0.59163 0.0
C131 C 0.14734 0.2113 0.60737 0.0
C132 C 0.16749 0.20583 0.61414 0.0
C133 C 0.18944 0.20868 0.60535 0.0
C134 C 0.19094 0.21742 0.5897 0.0
C135 C 0.17086 0.2229 0.58294 0.0
C136 C 0.11112 0.24471 0.5446 0.0
C137 C 0.13515 0.25033 0.53709 0.0
C138 C 0.13839 0.25847 0.52141 0.0
C139 C 0.11768 0.26111 0.51263 0.0
C140 C 0.09362 0.25562 0.52009 0.0
C141 C 0.09037 0.24749 0.53591 0.0
C142 C 0.06177 0.22205 0.5945 0.0
C143 C 0.03534 0.21315 0.58659 0.0
C144 C 0.76014 0.7826 0.60341 0.0
C145 C 0.775 0.79061 0.61891 0.0
C146 C 0.78324 0.81714 0.62666 0.0
C147 C 0.77704 0.83538 0.61909 0.0
H148 H 0.78864 0.91228 0.62676 0.0
H149 H 0.80528 0.95813 0.64113 0.0
H150 H 0.76613 0.97881 0.60222 0.0
H151 H 0.74911 0.93273 0.5878 0.0
H152 H 0.71573 0.88717 0.55793 0.0
H153 H 0.69763 0.87996 0.52963 0.0
H154 H 0.71436 0.81248 0.52118 0.0
H155 H 0.73281 0.81977 0.54966 0.0
H156 H 0.74268 0.79428 0.58378 0.0
H157 H 0.75363 0.7623 0.59711 0.0
H158 H 0.7943 0.82375 0.63872 0.0
H159 H 0.78384 0.85564 0.62553 0.0
N160 N 0.76356 0.87245 0.60389 0.0
N161 N 0.746 0.88486 0.58163 0.0
N162 N 0.7439 0.84145 0.58014 0.0
C163 C 0.75852 0.89123 0.59702 0.0
C164 C 0.73862 0.86007 0.57309 0.0
C165 C 0.75628 0.84751 0.59562 0.0
C166 C 0.7676 0.91877 0.60605 0.0
C167 C 0.7834 0.92646 0.62125 0.0
C168 C 0.79311 0.95283 0.62946 0.0
C169 C 0.78716 0.97211 0.62275 0.0
C170 C 0.77089 0.9643 0.60774 0.0
C171 C 0.76127 0.93793 0.59945 0.0
C172 C 0.72588 0.85414 0.55608 0.0
C173 C 0.71547 0.87067 0.55012 0.0
C174 C 0.70487 0.86641 0.5339 0.0
C175 C 0.70455 0.84564 0.52319 0.0
C176 C 0.71453 0.82877 0.52915 0.0
C177 C 0.72494 0.83286 0.54547 0.0
C178 C 0.76243 0.82763 0.60352 0.0
C179 C 0.75399 0.80097 0.59575 0.0
C180 C 0.18704 0.96891 0.60913 0.0
C181 C 0.18018 0.97426 0.62447 0.0
C182 C 0.15588 0.95345 0.63022 0.0
C183 C 0.13884 0.92791 0.62084 0.0
H184 H 0.06686 0.85404 0.62027 0.0
H185 H 0.02348 0.82022 0.62985 0.0
H186 H 0.00204 0.7672 0.58489 0.0
H187 H 0.04558 0.80136 0.57505 0.0
H188 H 0.09105 0.82033 0.54847 0.0
H189 H 0.10642 0.81297 0.52253 0.0
H190 H 0.18246 0.89239 0.53319 0.0
H191 H 0.1676 0.89956 0.55901 0.0
H192 H 0.17602 0.94016 0.58799 0.0
H193 H 0.20536 0.98463 0.60422 0.0
H194 H 0.15017 0.95676 0.64207 0.0
H195 H 0.12033 0.91236 0.62568 0.0
N196 N 0.10323 0.8761 0.60038 0.0
N197 N 0.09447 0.84637 0.57669 0.0
N198 N 0.13527 0.89016 0.58103 0.0
C199 C 0.08649 0.85145 0.59112 0.0
C200 C 0.11895 0.86569 0.57159 0.0
C201 C 0.12763 0.89559 0.59542 0.0
C202 C 0.05987 0.83049 0.59686 0.0
C203 C 0.05302 0.83522 0.61235 0.0
C204 C 0.02816 0.81571 0.61792 0.0
C205 C 0.0094 0.79092 0.60819 0.0
C206 C 0.01602 0.78618 0.59264 0.0
C207 C 0.04105 0.80572 0.58705 0.0
C208 C 0.12802 0.86055 0.55588 0.0
C209 C 0.11111 0.83615 0.54531 0.0
C210 C 0.11985 0.83197 0.53042 0.0
C211 C 0.14573 0.85203 0.52582 0.0
C212 C 0.16264 0.87627 0.53645 0.0
C213 C 0.15394 0.88047 0.55126 0.0
C214 C 0.14571 0.92257 0.60549 0.0
C215 C 0.17007 0.9434 0.59977 0.0
C216 C 0.90738 0.37316 0.731 0.0
C217 C 0.88776 0.36065 0.71728 0.0
C218 C 0.87614 0.3757 0.71058 0.0
C219 C 0.88351 0.40231 0.71763 0.0
H220 H 0.88338 0.47579 0.70923 0.0
H221 H 0.87282 0.50758 0.69562 0.0
H222 H 0.91137 0.56872 0.7375 0.0
H223 H 0.92226 0.5372 0.75112 0.0
H224 H 0.94147 0.52098 0.78355 0.0
H225 H 0.95445 0.52961 0.81288 0.0
H226 H 0.93617 0.44449 0.81398 0.0
H227 H 0.92317 0.4357 0.78485 0.0
H228 H 0.92928 0.40835 0.74888 0.0
H229 H 0.91726 0.36253 0.73627 0.0
H230 H 0.86068 0.36663 0.70017 0.0
H231 H 0.87372 0.41307 0.71239 0.0
N232 N 0.90392 0.45959 0.73204 0.0
N233 N 0.91833 0.49009 0.75599 0.0
N234 N 0.91772 0.44763 0.75605 0.0
C235 C 0.90902 0.48415 0.73993 0.0
C236 C 0.92262 0.47188 0.76414 0.0
C237 C 0.90847 0.44135 0.74002 0.0
C238 C 0.90358 0.50384 0.73133 0.0
C239 C 0.88978 0.49606 0.71553 0.0
C240 C 0.88357 0.5142 0.70775 0.0
C241 C 0.89116 0.54057 0.71553 0.0
C242 C 0.90546 0.54861 0.73116 0.0
C243 C 0.91153 0.53043 0.73899 0.0
C244 C 0.93126 0.47764 0.78182 0.0
C245 C 0.94022 0.5041 0.79005 0.0
C246 C 0.94772 0.5091 0.80682 0.0
C247 C 0.94608 0.48765 0.81568 0.0
C248 C 0.93722 0.46128 0.80747 0.0
C249 C 0.93 0.45635 0.79074 0.0
C250 C 0.90234 0.41428 0.73168 0.0
C251 C 0.91441 0.39955 0.73817 0.0
C252 C 0.62698 0.55486 0.7329 0.0
C253 C 0.62896 0.54791 0.71661 0.0
C254 C 0.60714 0.52302 0.70835 0.0
C255 C 0.58422 0.50525 0.71623 0.0
H256 H 0.51668 0.42774 0.70938 0.0
H257 H 0.48395 0.38172 0.69558 0.0
H258 H 0.43943 0.3595 0.73821 0.0
H259 H 0.47181 0.40564 0.75199 0.0
H260 H 0.49555 0.44425 0.78322 0.0
H261 H 0.49069 0.45265 0.81146 0.0
H262 H 0.56173 0.53598 0.81376 0.0
H263 H 0.56716 0.52734 0.78527 0.0
H264 H 0.60332 0.54292 0.75341 0.0
H265 H 0.64328 0.57406 0.73957 0.0
H266 H 0.6081 0.51679 0.69587 0.0
H267 H 0.56809 0.48608 0.70945 0.0
N268 N 0.5392 0.46697 0.73306 0.0
N269 N 0.51551 0.45444 0.75624 0.0
N270 N 0.5562 0.49806 0.75687 0.0
C271 C 0.51759 0.44808 0.74053 0.0
C272 C 0.53459 0.47928 0.76453 0.0
C273 C 0.55858 0.492 0.74106 0.0
C274 C 0.49703 0.42046 0.73185 0.0
C275 C 0.49986 0.41316 0.71582 0.0
C276 C 0.48117 0.38669 0.70792 0.0
C277 C 0.45919 0.36691 0.71583 0.0
C278 C 0.456 0.37436 0.73173 0.0
C279 C 0.47471 0.40081 0.73965 0.0
C280 C 0.53176 0.48514 0.78185 0.0
C281 C 0.5102 0.46448 0.78962 0.0
C282 C 0.50723 0.46935 0.80588 0.0
C283 C 0.52562 0.4951 0.81488 0.0
C284 C 0.54729 0.51585 0.80719 0.0
C285 C 0.55032 0.51093 0.79084 0.0
C286 C 0.58244 0.51185 0.73262 0.0
C287 C 0.60399 0.53706 0.74082 0.0
C288 C 0.49265 0.13519 0.7527 0.0
C289 C 0.48261 0.12542 0.73627 0.0
C290 C 0.49394 0.11151 0.72755 0.0
C291 C 0.51437 0.10716 0.73513 0.0
H292 H 0.58573 0.09243 0.72966 0.0
H293 H 0.62621 0.09856 0.7168 0.0
H294 H 0.67596 0.13139 0.76326 0.0
H295 H 0.63473 0.1231 0.77617 0.0
H296 H 0.58275 0.07586 0.8037 0.0
H297 H 0.56843 0.05544 0.82931 0.0
H298 H 0.50117 0.0729 0.82661 0.0
H299 H 0.51512 0.09307 0.80132 0.0
H300 H 0.51928 0.1375 0.77308 0.0
H301 H 0.48528 0.14677 0.75976 0.0
H302 H 0.48657 0.10325 0.71497 0.0
H303 H 0.52234 0.09596 0.72822 0.0
N304 N 0.56454 0.11025 0.75312 0.0
N305 N 0.57848 0.09743 0.77692 0.0
N306 N 0.53895 0.10209 0.77561 0.0
C307 C 0.58268 0.10471 0.76148 0.0
C308 C 0.55636 0.0958 0.78399 0.0
C309 C 0.54283 0.10929 0.76026 0.0
C310 C 0.60711 0.10733 0.75389 0.0
C311 C 0.60532 0.10073 0.7371 0.0
C312 C 0.62871 0.10456 0.72972 0.0
C313 C 0.65478 0.11594 0.73886 0.0
C314 C 0.65635 0.1222 0.75576 0.0
C315 C 0.63272 0.11761 0.7632 0.0
C316 C 0.54994 0.08585 0.80029 0.0
C317 C 0.56508 0.07557 0.80866 0.0
C318 C 0.55693 0.06392 0.82332 0.0
C319 C 0.53342 0.06219 0.82979 0.0
C320 C 0.51902 0.0734 0.82174 0.0
C321 C 0.52717 0.0851 0.80723 0.0
C322 C 0.52334 0.11599 0.75167 0.0
C323 C 0.51243 0.13017 0.76033 0.0
C324 C 0.69718 0.57344 0.93481 0.0
C325 C 0.69772 0.56875 0.95129 0.0
C326 C 0.7209 0.56846 0.95859 0.0
C327 C 0.74253 0.57178 0.94952 0.0
H328 H 0.8072 0.55675 0.95161 0.0
H329 H 0.84052 0.54444 0.96289 0.0
H330 H 0.87864 0.55854 0.91788 0.0
H331 H 0.84517 0.5703 0.90647 0.0
H332 H 0.81053 0.56926 0.87583 0.0
H333 H 0.81423 0.579 0.84774 0.0
H334 H 0.76257 0.61605 0.85253 0.0
H335 H 0.75886 0.60635 0.88109 0.0
H336 H 0.71748 0.57989 0.913 0.0
H337 H 0.67979 0.57418 0.92887 0.0
H338 H 0.7219 0.56467 0.97121 0.0
H339 H 0.75972 0.5708 0.95553 0.0
N340 N 0.78302 0.57132 0.92978 0.0
N341 N 0.80273 0.57642 0.9052 0.0
N342 N 0.76407 0.58217 0.9072 0.0
C343 C 0.80266 0.57114 0.92093 0.0
C344 C 0.78368 0.58198 0.8982 0.0
C345 C 0.76365 0.57683 0.92307 0.0
C346 C 0.82337 0.56447 0.9281 0.0
C347 C 0.8227 0.55729 0.94411 0.0
C348 C 0.84189 0.55035 0.95061 0.0
C349 C 0.86219 0.55044 0.94126 0.0
C350 C 0.86301 0.55785 0.92532 0.0
C351 C 0.84386 0.56477 0.91882 0.0
C352 C 0.78445 0.58711 0.8808 0.0
C353 C 0.79981 0.57943 0.871 0.0
C354 C 0.80178 0.5848 0.85479 0.0
C355 C 0.78857 0.59815 0.84787 0.0
C356 C 0.77304 0.60579 0.85757 0.0
C357 C 0.77081 0.60011 0.87387 0.0
C358 C 0.74162 0.57557 0.93289 0.0
C359 C 0.71889 0.57687 0.92572 0.0
C360 C 0.42653 0.11321 0.94149 0.0
C361 C 0.43942 0.12063 0.95748 0.0
C362 C 0.44516 0.14607 0.96568 0.0
C363 C 0.43892 0.16416 0.95795 0.0
H364 H 0.44614 0.23955 0.966 0.0
H365 H 0.46194 0.28528 0.98035 0.0
H366 H 0.43843 0.3116 0.93725 0.0
H367 H 0.42232 0.26576 0.92281 0.0
H368 H 0.42272 0.23473 0.88953 0.0
H369 H 0.41507 0.23041 0.86012 0.0
H370 H 0.38516 0.14197 0.8583 0.0
H371 H 0.39296 0.14614 0.88799 0.0
H372 H 0.4112 0.12552 0.92118 0.0
H373 H 0.42194 0.0937 0.93489 0.0
H374 H 0.45473 0.15212 0.9781 0.0
H375 H 0.44414 0.1838 0.96463 0.0
N376 N 0.42778 0.20203 0.94165 0.0
N377 N 0.41912 0.21785 0.91773 0.0
N378 N 0.41589 0.17399 0.91689 0.0
C379 C 0.42587 0.22203 0.93402 0.0
C380 C 0.41404 0.19393 0.90907 0.0
C381 C 0.42276 0.17793 0.93324 0.0
C382 C 0.43318 0.24898 0.94317 0.0
C383 C 0.44405 0.25492 0.95957 0.0
C384 C 0.45326 0.28118 0.9678 0.0
C385 C 0.45166 0.30207 0.95986 0.0
C386 C 0.43979 0.29585 0.94369 0.0
C387 C 0.43071 0.26961 0.9354 0.0
C388 C 0.40846 0.19076 0.89116 0.0
C389 C 0.41444 0.21428 0.88295 0.0
C390 C 0.41028 0.2119 0.86607 0.0
C391 C 0.39977 0.18592 0.85696 0.0
C392 C 0.3933 0.16224 0.86508 0.0
C393 C 0.39784 0.16467 0.88204 0.0
C394 C 0.42699 0.15737 0.94173 0.0
C395 C 0.4205 0.13149 0.93364 0.0
C396 C 0.86995 0.30102 0.93666 0.0
C397 C 0.867 0.30841 0.95263 0.0
C398 C 0.84334 0.2899 0.95991 0.0
C399 C 0.82289 0.26473 0.95135 0.0
H400 H 0.76283 0.17541 0.95517 0.0
H401 H 0.72463 0.14477 0.97001 0.0
H402 H 0.66667 0.12782 0.92806 0.0
H403 H 0.7055 0.15719 0.91289 0.0
H404 H 0.74651 0.15972 0.87824 0.0
H405 H 0.75203 0.15225 0.84956 0.0
H406 H 0.83104 0.22921 0.855 0.0
H407 H 0.82589 0.23659 0.88334 0.0
H408 H 0.85226 0.27114 0.9157 0.0
H409 H 0.88783 0.31495 0.93067 0.0
H410 H 0.84065 0.29487 0.97227 0.0
H411 H 0.80483 0.25111 0.95731 0.0
N412 N 0.78145 0.21244 0.93316 0.0
N413 N 0.76154 0.18455 0.90823 0.0
N414 N 0.8041 0.22666 0.90974 0.0
C415 C 0.76056 0.18899 0.92448 0.0
C416 C 0.78352 0.20335 0.9008 0.0
C417 C 0.80323 0.23148 0.92586 0.0
C418 C 0.73712 0.16879 0.9329 0.0
C419 C 0.74192 0.16492 0.94908 0.0
C420 C 0.71987 0.14749 0.95766 0.0
C421 C 0.69224 0.13402 0.95044 0.0
C422 C 0.68755 0.13747 0.93406 0.0
C423 C 0.7098 0.15443 0.92533 0.0
C424 C 0.78579 0.19867 0.88322 0.0
C425 C 0.76503 0.17504 0.8733 0.0
C426 C 0.76813 0.1708 0.85686 0.0
C427 C 0.79212 0.18999 0.85005 0.0
C428 C 0.81256 0.21374 0.85992 0.0
C429 C 0.80946 0.21803 0.87622 0.0
C430 C 0.82553 0.25756 0.93525 0.0
C431 C 0.84943 0.27595 0.92806 0.0
C432 C 0.59597 0.7163 0.04918 0.0
C433 C 0.58051 0.70956 0.03395 0.0
C434 C 0.57321 0.72862 0.02823 0.0
C435 C 0.58009 0.75319 0.03786 0.0
H436 H 0.60528 0.84385 0.03958 0.0
H437 H 0.59378 0.87724 0.02864 0.0
H438 H 0.56162 0.88501 0.07354 0.0
H439 H 0.57378 0.8522 0.08474 0.0
H440 H 0.6081 0.84087 0.11621 0.0
H441 H 0.61406 0.83844 0.14535 0.0
H442 H 0.62013 0.76446 0.1357 0.0
H443 H 0.61385 0.76651 0.10671 0.0
H444 H 0.61387 0.74478 0.07072 0.0
H445 H 0.6025 0.70242 0.0538 0.0
H446 H 0.56112 0.72401 0.01661 0.0
H447 H 0.57325 0.76688 0.03332 0.0
N448 N 0.59433 0.8034 0.05887 0.0
N449 N 0.60116 0.82431 0.08549 0.0
N450 N 0.60381 0.78371 0.08078 0.0
C451 C 0.59587 0.82413 0.06926 0.0
C452 C 0.60538 0.80424 0.09133 0.0
C453 C 0.59826 0.78307 0.06456 0.0
C454 C 0.59038 0.84542 0.06299 0.0
C455 C 0.596 0.85288 0.04717 0.0
C456 C 0.58958 0.87204 0.04094 0.0
C457 C 0.57688 0.88355 0.05031 0.0
C458 C 0.57145 0.87633 0.06616 0.0
C459 C 0.57847 0.85768 0.07254 0.0
C460 C 0.61031 0.8038 0.10905 0.0
C461 C 0.61079 0.82413 0.12028 0.0
C462 C 0.61431 0.82283 0.13699 0.0
C463 C 0.61733 0.80113 0.1428 0.0
C464 C 0.61735 0.78114 0.13159 0.0
C465 C 0.6139 0.78245 0.11494 0.0
C466 C 0.5942 0.7591 0.05347 0.0
C467 C 0.60262 0.74069 0.05886 0.0
C468 C 0.3112 0.88074 0.07623 0.0
C469 C 0.31393 0.87427 0.06 0.0
C470 C 0.29361 0.84847 0.05182 0.0
C471 C 0.27099 0.82973 0.05953 0.0
H472 H 0.20366 0.7517 0.05124 0.0
H473 H 0.16934 0.70738 0.03609 0.0
H474 H 0.11794 0.68808 0.07581 0.0
H475 H 0.15186 0.73239 0.09087 0.0
H476 H 0.1678 0.77429 0.11958 0.0
H477 H 0.15722 0.78287 0.14642 0.0
H478 H 0.23949 0.85499 0.1567 0.0
H479 H 0.25053 0.8463 0.12944 0.0
H480 H 0.28679 0.86765 0.09642 0.0
H481 H 0.32645 0.90052 0.08285 0.0
H482 H 0.2953 0.84257 0.03942 0.0
H483 H 0.25585 0.81013 0.05269 0.0
N484 N 0.22436 0.79127 0.07504 0.0
N485 N 0.19737 0.77906 0.09688 0.0
N486 N 0.23899 0.82216 0.09891 0.0
C487 C 0.20136 0.77265 0.08163 0.0
C488 C 0.2159 0.80359 0.10565 0.0
C489 C 0.2433 0.81607 0.08352 0.0
C490 C 0.18062 0.74571 0.07231 0.0
C491 C 0.18504 0.73806 0.05675 0.0
C492 C 0.16543 0.71258 0.04809 0.0
C493 C 0.14092 0.69422 0.05475 0.0
C494 C 0.13644 0.70191 0.07025 0.0
C495 C 0.15605 0.7273 0.07893 0.0
C496 C 0.21008 0.80965 0.12223 0.0
C497 C 0.18384 0.79205 0.12744 0.0
C498 C 0.17762 0.79705 0.14287 0.0
C499 C 0.19741 0.81975 0.15364 0.0
C500 C 0.22384 0.83729 0.14864 0.0
C501 C 0.23008 0.83239 0.13302 0.0
C502 C 0.26794 0.83619 0.07569 0.0
C503 C 0.2884 0.86194 0.08398 0.0
C504 C 0.15732 0.46298 0.08461 0.0
C505 C 0.14737 0.45356 0.06815 0.0
C506 C 0.1595 0.44083 0.05911 0.0
C507 C 0.18084 0.43755 0.06637 0.0
H508 H 0.25648 0.43134 0.05905 0.0
H509 H 0.29729 0.43818 0.04617 0.0
H510 H 0.3458 0.46681 0.09308 0.0
H511 H 0.30454 0.45809 0.10591 0.0
H512 H 0.25821 0.4131 0.1329 0.0
H513 H 0.24924 0.3953 0.15944 0.0
H514 H 0.17889 0.40792 0.15989 0.0
H515 H 0.18798 0.4261 0.13368 0.0
H516 H 0.18495 0.4662 0.10468 0.0
H517 H 0.14928 0.47365 0.09192 0.0
H518 H 0.15221 0.43284 0.0465 0.0
H519 H 0.18957 0.42742 0.05919 0.0
N520 N 0.23291 0.44367 0.0834 0.0
N521 N 0.24988 0.43301 0.1069 0.0
N522 N 0.20865 0.43446 0.10655 0.0
C523 C 0.25262 0.43991 0.09138 0.0
C524 C 0.22777 0.43 0.11451 0.0
C525 C 0.21102 0.44123 0.09105 0.0
C526 C 0.27732 0.44409 0.08347 0.0
C527 C 0.27589 0.43898 0.06656 0.0
C528 C 0.29942 0.44313 0.05918 0.0
C529 C 0.32512 0.45319 0.06851 0.0
C530 C 0.3264 0.45847 0.08546 0.0
C531 C 0.30274 0.45365 0.09285 0.0
C532 C 0.22377 0.42095 0.13108 0.0
C533 C 0.241 0.41236 0.13873 0.0
C534 C 0.23579 0.402 0.15389 0.0
C535 C 0.21335 0.40018 0.16174 0.0
C536 C 0.19657 0.40939 0.15427 0.0
C537 C 0.2017 0.41965 0.13914 0.0
C538 C 0.18995 0.44624 0.0829 0.0
C539 C 0.17803 0.459 0.09193 0.0
C540 C 0.34283 0.87649 0.25389 0.0
C541 C 0.34372 0.88264 0.27073 0.0
C542 C 0.36949 0.89437 0.28023 0.0
C543 C 0.39335 0.89875 0.27323 0.0
H544 H 0.4742 0.90723 0.28464 0.0
H545 H 0.50835 0.90101 0.30068 0.0
H546 H 0.52258 0.86414 0.25742 0.0
H547 H 0.49 0.87227 0.2414 0.0
H548 H 0.48341 0.90253 0.20916 0.0
H549 H 0.49338 0.91642 0.18201 0.0
H550 H 0.4249 0.9321 0.1788 0.0
H551 H 0.41443 0.91759 0.20594 0.0
H552 H 0.36541 0.87604 0.23391 0.0
H553 H 0.32343 0.86712 0.24617 0.0
H554 H 0.37134 0.90022 0.29312 0.0
H555 H 0.41271 0.90739 0.28095 0.0
N556 N 0.43667 0.89277 0.25853 0.0
N557 N 0.46226 0.89906 0.23613 0.0
N558 N 0.42076 0.9002 0.23351 0.0
C559 C 0.45908 0.89434 0.25195 0.0
C560 C 0.4434 0.90232 0.22685 0.0
C561 C 0.41729 0.8954 0.24934 0.0
C562 C 0.47956 0.89037 0.26177 0.0
C563 C 0.48481 0.89794 0.27861 0.0
C564 C 0.50428 0.89416 0.28781 0.0
C565 C 0.51848 0.88208 0.28044 0.0
C566 C 0.51281 0.87422 0.26357 0.0
C567 C 0.49389 0.87865 0.25434 0.0
C568 C 0.4482 0.90909 0.20985 0.0
C569 C 0.47032 0.90879 0.20269 0.0
C570 C 0.47617 0.91692 0.18712 0.0
C571 C 0.46015 0.92568 0.17828 0.0
C572 C 0.43755 0.92528 0.18523 0.0
C573 C 0.43161 0.91705 0.20083 0.0
C574 C 0.39229 0.8922 0.25649 0.0
C575 C 0.3669 0.88148 0.24684 0.0
C576 C 0.11721 0.46526 0.2742 0.0
C577 C 0.13273 0.47446 0.2895 0.0
C578 C 0.13806 0.49984 0.29759 0.0
C579 C 0.12807 0.51572 0.29059 0.0
H580 H 0.12037 0.5822 0.3014 0.0
H581 H 0.12681 0.62299 0.31775 0.0
H582 H 0.08313 0.63921 0.27909 0.0
H583 H 0.07731 0.59855 0.26237 0.0
H584 H 0.07786 0.57062 0.22602 0.0
H585 H 0.06321 0.56261 0.19698 0.0
H586 H 0.05233 0.47988 0.19569 0.0
H587 H 0.06702 0.48774 0.22476 0.0
H588 H 0.09554 0.47373 0.25526 0.0
H589 H 0.11291 0.44579 0.26768 0.0
H590 H 0.14964 0.50724 0.3095 0.0
H591 H 0.13261 0.53517 0.29723 0.0
N592 N 0.10415 0.54607 0.27691 0.0
N593 N 0.0856 0.55724 0.25447 0.0
N594 N 0.09212 0.51856 0.25202 0.0
C595 C 0.0957 0.56273 0.27038 0.0
C596 C 0.08371 0.53514 0.24522 0.0
C597 C 0.10244 0.52398 0.26788 0.0
C598 C 0.0984 0.58707 0.2805 0.0
C599 C 0.11196 0.59429 0.29634 0.0
C600 C 0.11548 0.61764 0.30581 0.0
C601 C 0.10539 0.63436 0.29978 0.0
C602 C 0.09143 0.62695 0.28403 0.0
C603 C 0.088 0.60358 0.27448 0.0
C604 C 0.07369 0.52985 0.22773 0.0
C605 C 0.07223 0.55065 0.2196 0.0
C606 C 0.06403 0.54617 0.20295 0.0
C607 C 0.0568 0.52069 0.19411 0.0
C608 C 0.0577 0.49967 0.20225 0.0
C609 C 0.06623 0.50426 0.21888 0.0
C610 C 0.11264 0.5067 0.27524 0.0
C611 C 0.10737 0.48131 0.26709 0.0
C612 C 0.53348 0.6171 0.27885 0.0
C613 C 0.52656 0.63614 0.28619 0.0
C614 C 0.49839 0.62901 0.28471 0.0
C615 C 0.47792 0.60368 0.27635 0.0
H616 H 0.42274 0.50414 0.28838 0.0
H617 H 0.38421 0.47351 0.30302 0.0
H618 H 0.32738 0.45413 0.2601 0.0
H619 H 0.36654 0.48368 0.2452 0.0
H620 H 0.41897 0.48436 0.21251 0.0
H621 H 0.42481 0.48019 0.1835 0.0
H622 H 0.48081 0.56926 0.18648 0.0
H623 H 0.47518 0.57349 0.21512 0.0
H624 H 0.51897 0.57815 0.26428 0.0
H625 H 0.55463 0.62122 0.27995 0.0
H626 H 0.49201 0.64316 0.28966 0.0
H627 H 0.45648 0.59882 0.27535 0.0
N628 N 0.44176 0.54033 0.26629 0.0
N629 N 0.42264 0.51301 0.24112 0.0
N630 N 0.46511 0.55544 0.24313 0.0
C631 C 0.42126 0.5169 0.25739 0.0
C632 C 0.44468 0.53237 0.23393 0.0
C633 C 0.46371 0.55952 0.25923 0.0
C634 C 0.39766 0.4964 0.26564 0.0
C635 C 0.40202 0.49312 0.28203 0.0
C636 C 0.37978 0.4757 0.29049 0.0
C637 C 0.35236 0.46149 0.28294 0.0
C638 C 0.34811 0.46435 0.26637 0.0
C639 C 0.37055 0.48139 0.25779 0.0
C640 C 0.44667 0.52923 0.21619 0.0
C641 C 0.43235 0.50303 0.20691 0.0
C642 C 0.4358 0.50062 0.19034 0.0
C643 C 0.45319 0.52442 0.18269 0.0
C644 C 0.46701 0.55057 0.19193 0.0
C645 C 0.46392 0.55293 0.20843 0.0
C646 C 0.48517 0.58533 0.26878 0.0
C647 C 0.51305 0.59221 0.27 0.0
C648 C 0.54921 0.02696 0.0522 0.0
Eu649 Eu 0.52439 0.01676 0.02299 0.0
C650 C 0.54131 0.01531 0.06778 0.0
C651 C 0.55447 0.03245 0.08231 0.0
C652 C 0.54673 0.02198 0.09724 0.0
C653 C 0.52559 0.99414 0.09789 0.0
C654 C 0.51237 0.97702 0.08324 0.0
C655 C 0.52019 0.98751 0.06831 0.0
C656 C 0.50811 0.04831 0.00753 0.0
C657 C 0.45714 0.97352 0.02359 0.0
C658 C 0.46343 0.97691 0.96165 0.0
Eu659 Eu 0.48663 0.988 0.99131 0.0
C660 C 0.47423 0.98819 0.94638 0.0
C661 C 0.4644 0.97061 0.9318 0.0
C662 C 0.4757 0.98073 0.91738 0.0
C663 C 0.49713 0.00862 0.91731 0.0
C664 C 0.50692 0.02617 0.93199 0.0
C665 C 0.49558 0.01606 0.94637 0.0
C666 C 0.50341 0.95715 0.00712 0.0
C667 C 0.55367 0.03207 0.99056 0.0
O668 O 0.5508 0.01074 0.04068 0.0
O669 O 0.53698 0.04028 0.04694 0.0
O670 O 0.53231 0.05842 0.01568 0.0
O671 O 0.49303 0.02258 0.00887 0.0
O672 O 0.48259 0.98526 0.03113 0.0
O673 O 0.45277 0.9747 0.00789 0.0
O674 O 0.46183 0.99406 0.9725 0.0
O675 O 0.47354 0.96243 0.96799 0.0
O676 O 0.47866 0.94675 0.99965 0.0
O677 O 0.51824 0.98263 0.00525 0.0
O678 O 0.52826 0.019 0.98294 0.0
O679 O 0.5583 0.03205 0.00636 0.0
H680 H 0.57065 0.05401 0.08212 0.0
H681 H 0.55704 0.03584 0.10827 0.0
H682 H 0.49622 0.95543 0.08332 0.0
H683 H 0.50973 0.97393 0.0572 0.0
H684 H 0.44819 0.94896 0.9316 0.0
H685 H 0.46793 0.96658 0.90632 0.0
H686 H 0.52313 0.04783 0.93233 0.0
H687 H 0.5036 0.03002 0.9575 0.0
C688 C 0.99794 0.52339 0.05035 0.0
Eu689 Eu 0.9982 0.507 0.02029 0.0
C690 C 0.00853 0.52277 0.06688 0.0
C691 C 0.99056 0.51569 0.07913 0.0
C692 C 1.0002 0.51617 0.09512 0.0
C693 C 0.0281 0.52393 0.09916 0.0
C694 C 0.04602 0.53059 0.08681 0.0
C695 C 0.03628 0.52989 0.07077 0.0
C696 C 0.96034 0.45727 0.00407 0.0
C697 C 0.04053 0.48258 0.01654 0.0
C698 C 0.01209 0.47987 0.95666 0.0
Eu699 Eu 0.01204 0.49556 0.98687 0.0
C700 C 0.99974 0.4801 0.9406 0.0
C701 C 0.01583 0.48577 0.92749 0.0
C702 C 0.00486 0.48636 0.91208 0.0
C703 C 0.97751 0.48118 0.90952 0.0
C704 C 0.96138 0.4756 0.92271 0.0
C705 C 0.97247 0.4752 0.93819 0.0
C706 C 0.04972 0.54532 0.00315 0.0
C707 C 0.97057 0.52081 0.99059 0.0
O708 O 0.01612 0.53914 0.04078 0.0
O709 O 0.97851 0.49951 0.04287 0.0
O710 O 0.95387 0.47267 0.01309 0.0
O711 O 0.98636 0.46809 0.00453 0.0
O712 O 0.03161 0.49583 0.02608 0.0
O713 O 0.03283 0.47661 1.0008 0.0
O714 O 0.99526 0.46318 0.96649 0.0
O715 O 0.03063 0.50428 0.964 0.0
O716 O 0.05638 0.53008 0.99413 0.0
O717 O 0.0237 0.53434 0.00256 0.0
O718 O 0.97795 0.5059 0.98126 0.0
O719 O 0.97945 0.52773 0.00618 0.0
H720 H 0.9691 0.51019 0.07637 0.0
H721 H 0.986 0.51126 0.1044 0.0
H722 H 0.06755 0.5364 0.08958 0.0
H723 H 0.05051 0.53522 0.06147 0.0
H724 H 0.03692 0.48965 0.92915 0.0
H725 H 0.01762 0.49032 0.90209 0.0
H726 H 0.9403 0.47172 0.92107 0.0
H727 H 0.95978 0.47103 0.94822 0.0
C728 C 0.46174 0.47619 0.95448 0.0
Eu729 Eu 0.48536 0.49642 0.98381 0.0
C730 C 0.46891 0.48198 0.93769 0.0
C731 C 0.45254 0.48815 0.92718 0.0
C732 C 0.45805 0.49213 0.91101 0.0
C733 C 0.47993 0.48978 0.90493 0.0
C734 C 0.49669 0.48421 0.9156 0.0
C735 C 0.49129 0.48042 0.93179 0.0
C736 C 0.51358 0.55053 0.99753 0.0
C737 C 0.55172 0.51609 0.98801 0.0
C738 C 0.5362 0.5143 0.0499 0.0
Eu739 Eu 0.51738 0.5034 0.01926 0.0
C740 C 0.5251 0.51382 0.06568 0.0
C741 C 0.53769 0.50943 0.07941 0.0
C742 C 0.52664 0.50709 0.09433 0.0
C743 C 0.50265 0.50905 0.09586 0.0
C744 C 0.4902 0.51376 0.08208 0.0
C745 C 0.50128 0.51605 0.0671 0.0
C746 C 0.49666 0.45411 0.00096 0.0
C747 C 0.45179 0.48827 0.01525 0.0
O748 O 0.47505 0.46639 0.96288 0.0
O749 O 0.45814 0.49453 0.96315 0.0
O750 O 0.49979 0.54326 0.98323 0.0
O751 O 0.51174 0.52911 0.00274 0.0
O752 O 0.52762 0.50349 0.9788 0.0
O753 O 0.55381 0.52199 0.004 0.0
O754 O 0.53835 0.53352 0.04068 0.0
O755 O 0.52668 0.48989 0.04169 0.0
O756 O 0.51962 0.46539 0.01056 0.0
O757 O 0.48507 0.46862 0.00204 0.0
O758 O 0.47494 0.49613 0.0248 0.0
O759 O 0.45006 0.48485 0.99919 0.0
H760 H 0.43522 0.48953 0.93144 0.0
H761 H 0.44498 0.49684 0.90323 0.0
H762 H 0.51347 0.48185 0.91133 0.0
H763 H 0.50437 0.47572 0.93957 0.0
H764 H 0.55601 0.50754 0.07855 0.0
H765 H 0.53702 0.50391 0.10473 0.0
H766 H 0.47158 0.51513 0.08279 0.0
H767 H 0.49107 0.51922 0.05662 0.0
C768 C 0.19733 0.34611 0.3817 0.0
Eu769 Eu 0.1778 0.3373 0.35131 0.0
C770 C 0.18674 0.33315 0.39671 0.0
C771 C 0.15939 0.3245 0.40021 0.0
C772 C 0.14974 0.31202 0.41445 0.0
C773 C 0.16716 0.30771 0.42536 0.0
C774 C 0.19445 0.31629 0.42174 0.0
C775 C 0.20412 0.32889 0.40757 0.0
C776 C 0.16079 0.3674 0.33494 0.0
C777 C 0.11079 0.29029 0.34787 0.0
C778 C 0.12537 0.30002 0.2875 0.0
Eu779 Eu 0.14537 0.30949 0.31775 0.0
C780 C 0.1359 0.31515 0.27325 0.0
C781 C 0.12867 0.30045 0.25778 0.0
C782 C 0.13957 0.31457 0.24425 0.0
C783 C 0.15789 0.34364 0.246 0.0
C784 C 0.16504 0.3583 0.26156 0.0
C785 C 0.15419 0.34417 0.27508 0.0
C786 C 0.16271 0.27965 0.3342 0.0
C787 C 0.21172 0.35705 0.32058 0.0
O788 O 0.20159 0.33102 0.37076 0.0
O789 O 0.18593 0.35949 0.37535 0.0
O790 O 0.18404 0.37862 0.34427 0.0
O791 O 0.147 0.34139 0.33558 0.0
O792 O 0.13505 0.30294 0.35693 0.0
O793 O 0.10888 0.29246 0.33217 0.0
O794 O 0.11877 0.3126 0.29879 0.0
O795 O 0.1393 0.28879 0.29343 0.0
O796 O 0.13926 0.26827 0.32507 0.0
O797 O 0.17631 0.3056 0.33341 0.0
O798 O 0.1872 0.34404 0.3119 0.0
O799 O 0.21444 0.35562 0.33642 0.0
H800 H 0.14543 0.32728 0.39194 0.0
H801 H 0.12853 0.30535 0.41679 0.0
H802 H 0.20849 0.31354 0.42997 0.0
H803 H 0.22523 0.33531 0.40509 0.0
H804 H 0.11469 0.27803 0.25619 0.0
H805 H 0.13345 0.30278 0.23238 0.0
H806 H 0.17934 0.38064 0.26332 0.0
H807 H 0.16025 0.3559 0.28696 0.0
C808 C 0.66413 0.8604 0.37887 0.0
Eu809 Eu 0.6603 0.83828 0.3495 0.0
C810 C 0.67096 0.85638 0.39546 0.0
C811 C 0.67877 0.83648 0.39839 0.0
C812 C 0.68483 0.83268 0.41432 0.0
C813 C 0.68295 0.84857 0.42755 0.0
C814 C 0.67522 0.86855 0.42447 0.0
C815 C 0.66929 0.8724 0.40856 0.0
C816 C 0.62253 0.78566 0.33675 0.0
C817 C 0.6997 0.8101 0.34792 0.0
C818 C 0.66931 0.7986 0.2875 0.0
Eu819 Eu 0.67226 0.82071 0.31669 0.0
C820 C 0.66502 0.80339 0.27068 0.0
C821 C 0.6621 0.82621 0.26708 0.0
C822 C 0.65737 0.83001 0.25092 0.0
C823 C 0.65542 0.81096 0.23819 0.0
C824 C 0.65864 0.7883 0.24196 0.0
C825 C 0.66336 0.78455 0.25807 0.0
C826 C 0.71021 0.87294 0.32992 0.0
C827 C 0.63275 0.84887 0.318 0.0
O828 O 0.68454 0.87021 0.36963 0.0
O829 O 0.64094 0.84009 0.37126 0.0
O830 O 0.61633 0.80156 0.3455 0.0
O831 O 0.64841 0.79727 0.33621 0.0
O832 O 0.69327 0.82682 0.35628 0.0
O833 O 0.68977 0.80076 0.3326 0.0
O834 O 0.64791 0.79056 0.2959 0.0
O835 O 0.69268 0.81736 0.29576 0.0
O836 O 0.71653 0.85685 0.32145 0.0
O837 O 0.68426 0.86159 0.33 0.0
O838 O 0.64102 0.83396 0.30943 0.0
O839 O 0.64024 0.8563 0.33373 0.0
H840 H 0.67998 0.82381 0.38837 0.0
H841 H 0.69055 0.81701 0.41629 0.0
H842 H 0.67404 0.88145 0.43437 0.0
H843 H 0.66335 0.88789 0.40649 0.0
H844 H 0.6633 0.84091 0.27674 0.0
H845 H 0.65476 0.84753 0.24841 0.0
H846 H 0.6577 0.77354 0.23243 0.0
H847 H 0.66564 0.76687 0.26069 0.0
C848 C 0.13503 0.82819 0.29229 0.0
Eu849 Eu 0.15396 0.83633 0.32269 0.0
C850 C 0.14597 0.82809 0.27653 0.0
C851 C 0.14033 0.84109 0.2641 0.0
C852 C 0.15137 0.84249 0.24926 0.0
C853 C 0.16818 0.83068 0.24643 0.0
C854 C 0.17399 0.81783 0.25902 0.0
C855 C 0.16309 0.81665 0.27395 0.0
C856 C 0.17655 0.88455 0.34214 0.0
C857 C 0.21862 0.84798 0.32537 0.0
C858 C 0.2095 0.85798 0.38689 0.0
Eu859 Eu 0.18652 0.83998 0.3573 0.0
C860 C 0.19845 0.85372 0.40291 0.0
C861 C 0.20842 0.84305 0.4148 0.0
C862 C 0.19771 0.83857 0.4299 0.0
C863 C 0.17683 0.84474 0.4334 0.0
C864 C 0.16691 0.85541 0.42144 0.0
C865 C 0.17756 0.85982 0.40639 0.0
C866 C 0.15742 0.787 0.34198 0.0
C867 C 0.12047 0.8221 0.35424 0.0
O868 O 0.13036 0.80771 0.30111 0.0
O869 O 0.14664 0.85255 0.30088 0.0
O870 O 0.15326 0.87445 0.33297 0.0
O871 O 0.18735 0.86945 0.34013 0.0
O872 O 0.19539 0.84153 0.31627 0.0
O873 O 0.22105 0.85067 0.34147 0.0
O874 O 0.20262 0.87226 0.37756 0.0
O875 O 0.20847 0.8363 0.37887 0.0
O876 O 0.17216 0.79296 0.3559 0.0
O877 O 0.15895 0.80898 0.338 0.0
O878 O 0.14474 0.83342 0.36321 0.0
O879 O 0.1179 0.81759 0.33814 0.0
H880 H 0.12755 0.85045 0.26594 0.0
H881 H 0.14693 0.85312 0.24004 0.0
H882 H 0.18663 0.8083 0.25727 0.0
H883 H 0.16809 0.80686 0.28345 0.0
H884 H 0.22444 0.83809 0.41239 0.0
H885 H 0.20563 0.83008 0.43878 0.0
H886 H 0.15123 0.86087 0.42379 0.0
H887 H 0.16942 0.86813 0.39752 0.0
C888 C 0.86646 0.68614 0.71774 0.0
Eu889 Eu 0.84627 0.67836 0.68751 0.0
C890 C 0.85535 0.67733 0.73339 0.0
C891 C 0.86806 0.69575 0.74755 0.0
C892 C 0.85755 0.68803 0.76247 0.0
C893 C 0.83396 0.66173 0.76353 0.0
C894 C 0.82122 0.64334 0.74924 0.0
C895 C 0.83188 0.65104 0.73434 0.0
C896 C 0.83346 0.71249 0.67204 0.0
C897 C 0.77846 0.6374 0.68439 0.0
C898 C 0.79296 0.64602 0.62375 0.0
Eu899 Eu 0.81343 0.65425 0.65396 0.0
C900 C 0.8028 0.65387 0.60772 0.0
C901 C 0.78849 0.63481 0.59399 0.0
C902 C 0.79652 0.64197 0.57854 0.0
C903 C 0.81905 0.66844 0.57647 0.0
C904 C 0.83394 0.68725 0.59034 0.0
C905 C 0.82586 0.68004 0.60585 0.0
C906 C 0.82644 0.62019 0.66934 0.0
C907 C 0.88144 0.69539 0.65737 0.0
O908 O 0.86473 0.66669 0.70718 0.0
O909 O 0.86021 0.70331 0.71107 0.0
O910 O 0.85677 0.72127 0.68093 0.0
O911 O 0.8176 0.68662 0.6724 0.0
O912 O 0.80266 0.64743 0.69317 0.0
O913 O 0.77686 0.64042 0.66873 0.0
O914 O 0.79521 0.6659 0.63416 0.0
O915 O 0.79937 0.62902 0.63048 0.0
O916 O 0.80307 0.61138 0.66053 0.0
O917 O 0.84221 0.64607 0.66897 0.0
O918 O 0.8574 0.68537 0.64834 0.0
O919 O 0.88262 0.69192 0.67295 0.0
H920 H 0.88622 0.71612 0.74706 0.0
H921 H 0.86821 0.70254 0.77323 0.0
H922 H 0.80285 0.62307 0.74954 0.0
H923 H 0.82176 0.63646 0.72355 0.0
H924 H 0.77081 0.61443 0.59521 0.0
H925 H 0.78491 0.62679 0.56817 0.0
H926 H 0.85128 0.70785 0.58917 0.0
H927 H 0.8373 0.69504 0.61631 0.0
C928 C 0.32928 0.18852 0.71626 0.0
Eu929 Eu 0.32991 0.1728 0.68616 0.0
C930 C 0.33543 0.18235 0.73249 0.0
C931 C 0.31688 0.17791 0.74419 0.0
C932 C 0.32231 0.17237 0.75976 0.0
C933 C 0.34653 0.17133 0.76392 0.0
C934 C 0.36494 0.17539 0.7521 0.0
C935 C 0.35938 0.18073 0.73647 0.0
C936 C 0.29633 0.12074 0.67104 0.0
C937 C 0.37535 0.15223 0.68316 0.0
C938 C 0.34482 0.14448 0.62314 0.0
Eu939 Eu 0.34493 0.1621 0.65299 0.0
C940 C 0.33964 0.15028 0.60673 0.0
C941 C 0.33101 0.16966 0.60415 0.0
C942 C 0.32708 0.17554 0.58837 0.0
C943 C 0.33189 0.1622 0.57501 0.0
C944 C 0.34027 0.1426 0.57774 0.0
C945 C 0.34414 0.13674 0.59348 0.0
C946 C 0.37901 0.21415 0.66792 0.0
C947 C 0.3006 0.18422 0.65609 0.0
O948 O 0.35035 0.20214 0.70781 0.0
O949 O 0.30747 0.16828 0.70749 0.0
O950 O 0.28742 0.13422 0.67978 0.0
O951 O 0.32237 0.13456 0.67136 0.0
O952 O 0.36559 0.165 0.69238 0.0
O953 O 0.36699 0.14485 0.66753 0.0
O954 O 0.32327 0.13269 0.63145 0.0
O955 O 0.36695 0.16448 0.6318 0.0
O956 O 0.38737 0.20075 0.65865 0.0
O957 O 0.35298 0.20053 0.66785 0.0
O958 O 0.30961 0.17065 0.64687 0.0
O959 O 0.30925 0.1915 0.6717 0.0
H960 H 0.29827 0.179 0.74133 0.0
H961 H 0.30794 0.16967 0.76868 0.0
H962 H 0.38364 0.17447 0.75495 0.0
H963 H 0.37389 0.1838 0.72759 0.0
H964 H 0.32757 0.18037 0.61432 0.0
H965 H 0.32074 0.19081 0.58664 0.0
H966 H 0.34362 0.13158 0.56769 0.0
H967 H 0.35076 0.12169 0.59531 0.0
C968 C 0.78705 0.14304 0.62196 0.0
Eu969 Eu 0.81094 0.16094 0.65152 0.0
C970 C 0.79574 0.1407 0.60584 0.0
C971 C 0.82279 0.15915 0.60213 0.0
C972 C 0.83096 0.15607 0.58688 0.0
C973 C 0.81222 0.13439 0.57512 0.0
C974 C 0.78512 0.11602 0.57891 0.0
C975 C 0.77699 0.11917 0.59415 0.0
C976 C 0.82968 0.21134 0.66792 0.0
C977 C 0.8777 0.18215 0.65253 0.0
C978 C 0.86775 0.18469 0.71399 0.0
Eu979 Eu 0.84495 0.17047 0.68408 0.0
C980 C 0.85905 0.18605 0.73033 0.0
C981 C 0.83287 0.16588 0.73445 0.0
C982 C 0.82579 0.16662 0.75035 0.0
C983 C 0.84477 0.18757 0.76239 0.0
C984 C 0.87057 0.20825 0.758 0.0
C985 C 0.87763 0.20744 0.74215 0.0
C986 C 0.82519 0.12005 0.66724 0.0
C987 C 0.77873 0.15155 0.683 0.0
O988 O 0.78877 0.12684 0.63221 0.0
O989 O 0.79572 0.16833 0.62868 0.0
O990 O 0.80652 0.19822 0.65851 0.0
O991 O 0.84323 0.19873 0.66702 0.0
O992 O 0.85313 0.17065 0.64395 0.0
O993 O 0.88069 0.18689 0.66855 0.0
O994 O 0.86798 0.20265 0.7044 0.0
O995 O 0.85801 0.15977 0.70642 0.0
O996 O 0.84948 0.13364 0.67548 0.0
O997 O 0.81217 0.13303 0.66887 0.0
O998 O 0.80324 0.16282 0.69165 0.0
O999 O 0.77569 0.14583 0.66708 0.0
H1000 H 0.83761 0.17582 0.61106 0.0
H1001 H 0.85206 0.17036 0.58438 0.0
H1002 H 0.77012 0.09933 0.57004 0.0
H1003 H 0.75605 0.1047 0.59683 0.0
H1004 H 0.8181 0.14923 0.72548 0.0
H1005 H 0.80581 0.15031 0.75329 0.0
H1006 H 0.88545 0.22506 0.76684 0.0
H1007 H 0.89781 0.22334 0.73918 0.0
H1008 H 0.36877 0.9051 0.07172 0.0
H1009 H 0.31261 0.88786 0.02899 0.0
H1010 H 0.35169 0.91739 0.0141 0.0
H1011 H 0.40192 0.94678 0.01283 0.0
H1012 H 0.45821 0.96433 0.05561 0.0
H1013 H 0.41906 0.93637 0.07081 0.0
C1014 C 0.36506 0.90812 0.05923 0.0
C1015 C 0.33778 0.89406 0.05147 0.0
C1016 C 0.38769 0.92514 0.05068 0.0
C1017 C 0.33341 0.89803 0.0352 0.0
C1018 C 0.35575 0.91501 0.02667 0.0
C1019 C 0.40567 0.94462 0.0255 0.0
C1020 C 0.43308 0.95759 0.03298 0.0
C1021 C 0.38301 0.9284 0.03422 0.0
C1022 C 0.43741 0.95457 0.04945 0.0
C1023 C 0.41499 0.93853 0.0582 0.0
H1024 H 0.1393 0.46284 0.03672 0.0
H1025 H 0.10328 0.45184 0.08242 0.0
H1026 H 0.06771 0.46051 0.07067 0.0
H1027 H 0.04691 0.47179 0.0475 0.0
H1028 H 0.08005 0.47801 0.0012 0.0
H1029 H 0.11607 0.46972 0.01302 0.0
C1030 C 0.12344 0.46175 0.0441 0.0
C1031 C 0.12451 0.4571 0.06058 0.0
C1032 C 0.10232 0.46576 0.03713 0.0
C1033 C 0.10375 0.45622 0.06987 0.0
C1034 C 0.0831 0.46089 0.06312 0.0
C1035 C 0.06195 0.47117 0.04 0.0
C1036 C 0.06092 0.47559 0.02354 0.0
C1037 C 0.08231 0.46589 0.0468 0.0
C1038 C 0.08034 0.4745 0.0139 0.0
C1039 C 0.10102 0.4699 0.02066 0.0
H1040 H 0.56067 0.65929 0.04586 0.0
H1041 H 0.57718 0.69765 0.00096 0.0
H1042 H 0.55795 0.65174 0.98567 0.0
H1043 H 0.53554 0.60039 0.98509 0.0
H1044 H 0.51949 0.56276 0.03007 0.0
H1045 H 0.54013 0.60874 0.04539 0.0
C1046 C 0.5606 0.65775 0.03275 0.0
C1047 C 0.57044 0.68195 0.0246 0.0
C1048 C 0.54972 0.63139 0.02407 0.0
C1049 C 0.56949 0.67937 0.00755 0.0
C1050 C 0.5586 0.65313 0.9988 0.0
C1051 C 0.53679 0.60242 0.99825 0.0
C1052 C 0.52673 0.57843 0.00655 0.0
C1053 C 0.54846 0.62897 0.00693 0.0
C1054 C 0.52814 0.58108 0.02355 0.0
C1055 C 0.53958 0.60733 0.03226 0.0
H1056 H 0.85797 0.34517 0.97052 0.0
H1057 H 0.92365 0.33289 0.95448 0.0
H1058 H 0.95849 0.37797 0.96888 0.0
H1059 H 0.97023 0.42074 0.98636 0.0
H1060 H 0.90423 0.43289 0.00199 0.0
H1061 H 0.86959 0.38786 0.98763 0.0
C1062 C 0.87991 0.35224 0.97031 0.0
C1063 C 0.8882 0.33564 0.96151 0.0
C1064 C 0.89977 0.37815 0.97857 0.0
C1065 C 0.91673 0.34536 0.96108 0.0
C1066 C 0.93665 0.37107 0.96936 0.0
C1067 C 0.94826 0.41354 0.98653 0.0
C1068 C 0.93977 0.43008 0.9952 0.0
C1069 C 0.92841 0.38765 0.97815 0.0
C1070 C 0.91127 0.42048 0.99543 0.0
C1071 C 0.89144 0.39475 0.98721 0.0
H1072 H 0.64313 0.5352 0.94087 0.0
H1073 H 0.69797 0.58787 0.98274 0.0
H1074 H 0.65794 0.57586 0.99812 0.0
H1075 H 0.60689 0.55028 0.99957 0.0
H1076 H 0.55314 0.49808 0.95709 0.0
H1077 H 0.59307 0.51024 0.94218 0.0
C1078 C 0.64637 0.5444 0.95329 0.0
C1079 C 0.67352 0.56254 0.96057 0.0
C1080 C 0.62335 0.53741 0.96204 0.0
C1081 C 0.67728 0.57371 0.97683 0.0
C1082 C 0.65439 0.5669 0.98564 0.0
C1083 C 0.60396 0.54151 0.98708 0.0
C1084 C 0.57689 0.52335 0.97954 0.0
C1085 C 0.62725 0.54867 0.97838 0.0
C1086 C 0.57357 0.51226 0.96329 0.0
C1087 C 0.59646 0.51916 0.95467 0.0
H1088 H 0.48963 0.13655 0.97309 0.0
H1089 H 0.40846 0.06438 0.95968 0.0
H1090 H 0.42246 0.03534 0.97407 0.0
H1091 H 0.45748 0.03114 0.99134 0.0
H1092 H 0.5391 0.10333 0.00369 0.0
H1093 H 0.52507 0.13192 0.98912 0.0
C1094 C 0.47499 0.11447 0.97338 0.0
C1095 C 0.448 0.10262 0.96551 0.0
C1096 C 0.48321 0.09802 0.98157 0.0
C1097 C 0.42937 0.0739 0.96566 0.0
C1098 C 0.43733 0.05737 0.97393 0.0
C1099 C 0.47225 0.05303 0.99065 0.0
C1100 C 0.49929 0.06511 0.99851 0.0
C1101 C 0.46415 0.06927 0.98203 0.0
C1102 C 0.51814 0.09359 0.99775 0.0
C1103 C 0.51016 0.10994 0.98941 0.0
H1104 H 0.64181 0.08707 0.94011 0.0
H1105 H 0.68889 0.14339 0.98295 0.0
H1106 H 0.65137 0.11591 0.99914 0.0
H1107 H 0.60459 0.07649 0.00128 0.0
H1108 H 0.55559 0.02297 0.9581 0.0
H1109 H 0.59408 0.04913 0.94195 0.0
C1110 C 0.64386 0.09366 0.95293 0.0
C1111 C 0.66862 0.11724 0.96019 0.0
C1112 C 0.6217 0.07825 0.96219 0.0
C1113 C 0.67065 0.12497 0.97695 0.0
C1114 C 0.64899 0.10939 0.98628 0.0
C1115 C 0.60244 0.07044 0.98836 0.0
C1116 C 0.57737 0.04766 0.98095 0.0
C1117 C 0.62443 0.08598 0.97905 0.0
C1118 C 0.5747 0.0404 0.96413 0.0
C1119 C 0.59672 0.05534 0.95487 0.0
H1120 H 0.88993 0.56576 0.97153 0.0
H1121 H 0.87986 0.51778 0.92614 0.0
H1122 H 0.91319 0.50519 0.93717 0.0
H1123 H 0.94447 0.50705 0.95987 0.0
H1124 H 0.9537 0.55429 0.00546 0.0
H1125 H 0.92123 0.56766 0.9942 0.0
C1126 C 0.89483 0.55234 0.9641 0.0
C1127 C 0.88239 0.54273 0.94805 0.0
C1128 C 0.91385 0.54501 0.97055 0.0
C1129 C 0.88936 0.52575 0.93849 0.0
C1130 C 0.90831 0.51841 0.94481 0.0
C1131 C 0.93948 0.52035 0.96734 0.0
C1132 C 0.95154 0.5296 0.9835 0.0
C1133 C 0.92064 0.52788 0.96083 0.0
C1134 C 0.94474 0.54679 0.99299 0.0
C1135 C 0.92613 0.55447 0.98658 0.0
H1136 H 0.4288 0.33555 0.96059 0.0
H1137 H 0.50175 0.33269 0.97774 0.0
H1138 H 0.52225 0.37972 0.99154 0.0
H1139 H 0.51946 0.42144 0.99889 0.0
H1140 H 0.44635 0.42457 0.98262 0.0
H1141 H 0.42605 0.37783 0.96805 0.0
C1142 C 0.44924 0.34534 0.96728 0.0
C1143 C 0.46368 0.33062 0.96822 0.0
C1144 C 0.46091 0.37243 0.97524 0.0
C1145 C 0.49005 0.34342 0.97704 0.0
C1146 C 0.50186 0.37037 0.98485 0.0
C1147 C 0.49911 0.41193 0.99211 0.0
C1148 C 0.48449 0.42642 0.9917 0.0
C1149 C 0.48746 0.38501 0.98406 0.0
C1150 C 0.4581 0.41385 0.98295 0.0
C1151 C 0.44646 0.38711 0.9747 0.0
H1152 H 0.1509 0.65725 0.03776 0.0
H1153 H 0.0843 0.67002 0.05147 0.0
H1154 H 0.0501 0.62493 0.0369 0.0
H1155 H 0.03913 0.58197 0.02 0.0
H1156 H 0.10587 0.56944 0.00631 0.0
H1157 H 0.14 0.61448 0.02093 0.0
C1158 C 0.12891 0.65029 0.03742 0.0
C1159 C 0.12019 0.66701 0.04566 0.0
C1160 C 0.10938 0.62439 0.029 0.0
C1161 C 0.09157 0.65744 0.04535 0.0
C1162 C 0.072 0.63172 0.03696 0.0
C1163 C 0.06115 0.5891 0.02029 0.0
C1164 C 0.07002 0.57247 0.01212 0.0
C1165 C 0.08066 0.61501 0.02875 0.0
C1166 C 0.09857 0.58195 0.01249 0.0
C1167 C 0.11809 0.60767 0.02086 0.0
H1168 H 0.33932 0.47117 0.03861 0.0
H1169 H 0.36845 0.44693 0.08061 0.0
H1170 H 0.41063 0.45714 0.06827 0.0
H1171 H 0.43905 0.47211 0.04535 0.0
H1172 H 0.40786 0.49195 0.00237 0.0
H1173 H 0.3663 0.48346 0.01515 0.0
C1174 C 0.35453 0.46756 0.04501 0.0
C1175 C 0.3505 0.45843 0.06064 0.0
C1176 C 0.3784 0.47254 0.03762 0.0
C1177 C 0.37104 0.45455 0.06876 0.0
C1178 C 0.39515 0.46013 0.06164 0.0
C1179 C 0.42316 0.47462 0.0388 0.0
C1180 C 0.42655 0.48274 0.02297 0.0
C1181 C 0.39906 0.46914 0.04608 0.0
C1182 C 0.40567 0.48559 0.01455 0.0
C1183 C 0.38194 0.48081 0.02186 0.0
H1184 H 0.52463 0.87431 0.04588 0.0
H1185 H 0.60933 0.93322 0.03849 0.0
H1186 H 0.59419 0.96244 0.02531 0.0
H1187 H 0.55648 0.96997 0.01487 0.0
H1188 H 0.47143 0.90891 0.02029 0.0
H1189 H 0.48692 0.88172 0.03534 0.0
C1190 C 0.5397 0.89371 0.0415 0.0
C1191 C 0.56799 0.90187 0.04317 0.0
C1192 C 0.53073 0.90983 0.03354 0.0
C1193 C 0.58744 0.92672 0.03728 0.0
C1194 C 0.57879 0.94334 0.02977 0.0
C1195 C 0.54142 0.95077 0.01943 0.0
C1196 C 0.51291 0.94131 0.0165 0.0
C1197 C 0.55045 0.93493 0.02767 0.0
C1198 C 0.49349 0.91639 0.02234 0.0
C1199 C 0.50233 0.90091 0.03095 0.0
H1200 H 0.99119 0.20965 0.36808 0.0
H1201 H 0.03862 0.22073 0.41365 0.0
H1202 H 0.08155 0.25274 0.40232 0.0
H1203 H 0.10569 0.27629 0.37908 0.0
H1204 H 0.05759 0.26411 0.33348 0.0
H1205 H 0.01498 0.23354 0.34519 0.0
C1206 C 0.01094 0.21886 0.37551 0.0
C1207 C 0.01169 0.21262 0.39165 0.0
C1208 C 0.03547 0.23699 0.36889 0.0
C1209 C 0.03741 0.22529 0.40122 0.0
C1210 C 0.06199 0.24348 0.39472 0.0
C1211 C 0.08589 0.26708 0.37172 0.0
C1212 C 0.08497 0.27251 0.35539 0.0
C1213 C 0.06128 0.24934 0.37852 0.0
C1214 C 0.05906 0.26029 0.34605 0.0
C1215 C 0.03459 0.24277 0.35273 0.0
H1216 H 0.78053 0.76716 0.37043 0.0
H1217 H 0.78953 0.81772 0.41449 0.0
H1218 H 0.75583 0.82898 0.40235 0.0
H1219 H 0.72504 0.82572 0.37889 0.0
H1220 H 0.71665 0.77552 0.33473 0.0
H1221 H 0.7491 0.76314 0.34722 0.0
C1222 C 0.77528 0.78082 0.37734 0.0
C1223 C 0.78764 0.79168 0.39331 0.0
C1224 C 0.75605 0.78734 0.37026 0.0
C1225 C 0.78017 0.80889 0.40221 0.0
C1226 C 0.76101 0.81546 0.39525 0.0
C1227 C 0.73016 0.81194 0.37201 0.0
C1228 C 0.71841 0.80164 0.35587 0.0
C1229 C 0.74894 0.80494 0.37924 0.0
C1230 C 0.72536 0.78382 0.34716 0.0
C1231 C 0.74397 0.77673 0.35428 0.0
H1232 H 0.25138 0.00317 0.38123 0.0
H1233 H 0.17551 0.00527 0.37233 0.0
H1234 H 0.15216 0.95768 0.359 0.0
H1235 H 0.15375 0.91627 0.3489 0.0
H1236 H 0.22957 0.91396 0.35708 0.0
H1237 H 0.25241 0.96065 0.37194 0.0
C1238 C 0.22966 0.99304 0.37653 0.0
C1239 C 0.21525 0.00775 0.37762 0.0
C1240 C 0.21638 0.96569 0.36878 0.0
C1241 C 0.18716 0.9945 0.37139 0.0
C1242 C 0.17376 0.96727 0.36383 0.0
C1243 C 0.17524 0.92595 0.35402 0.0
C1244 C 0.18998 0.91181 0.35197 0.0
C1245 C 0.18826 0.95282 0.36228 0.0
C1246 C 0.21777 0.92447 0.35864 0.0
C1247 C 0.23085 0.95117 0.36706 0.0
H1248 H 0.52153 0.6666 0.31181 0.0
H1249 H 0.58163 0.66803 0.28053 0.0
H1250 H 0.61704 0.71258 0.29463 0.0
H1251 H 0.63076 0.75233 0.31514 0.0
H1252 H 0.56871 0.75442 0.34293 0.0
H1253 H 0.53424 0.70745 0.33078 0.0
C1254 C 0.54214 0.67669 0.30775 0.0
C1255 C 0.54852 0.66346 0.29501 0.0
C1256 C 0.56219 0.70314 0.31531 0.0
C1257 C 0.57588 0.67698 0.29049 0.0
C1258 C 0.59624 0.70277 0.29844 0.0
C1259 C 0.60961 0.74264 0.31835 0.0
C1260 C 0.60218 0.75694 0.32973 0.0
C1261 C 0.58957 0.71617 0.31076 0.0
C1262 C 0.57487 0.74389 0.3341 0.0
C1263 C 0.55515 0.71705 0.32716 0.0
H1264 H 0.33039 0.86525 0.30074 0.0
H1265 H 0.2985 0.88554 0.25815 0.0
H1266 H 0.25639 0.87489 0.27084 0.0
H1267 H 0.22926 0.86148 0.29447 0.0
H1268 H 0.26332 0.84514 0.33774 0.0
H1269 H 0.30427 0.8534 0.32446 0.0
C1270 C 0.31457 0.86791 0.29427 0.0
C1271 C 0.31793 0.87636 0.27847 0.0
C1272 C 0.29077 0.86263 0.30182 0.0
C1273 C 0.29654 0.87873 0.27021 0.0
C1274 C 0.27247 0.87287 0.27752 0.0
C1275 C 0.24561 0.85965 0.30097 0.0
C1276 C 0.24323 0.85274 0.3171 0.0
C1277 C 0.26943 0.86496 0.29336 0.0
C1278 C 0.26469 0.85063 0.32538 0.0
C1279 C 0.28811 0.85528 0.31777 0.0
H1280 H 0.1039 0.41874 0.29226 0.0
H1281 H 0.1845 0.4925 0.30433 0.0
H1282 H 0.20054 0.4656 0.31913 0.0
H1283 H 0.19104 0.4216 0.32958 0.0
H1284 H 0.11018 0.34804 0.31812 0.0
H1285 H 0.09492 0.37422 0.30193 0.0
C1286 C 0.12509 0.42878 0.29794 0.0
C1287 C 0.14297 0.45754 0.29728 0.0
C1288 C 0.13406 0.41326 0.30656 0.0
C1289 C 0.17027 0.47042 0.30485 0.0
C1290 C 0.17947 0.45507 0.31328 0.0
C1291 C 0.1701 0.41134 0.32351 0.0
C1292 C 0.15174 0.38301 0.32499 0.0
C1293 C 0.16142 0.42659 0.31441 0.0
C1294 C 0.12472 0.36984 0.31703 0.0
C1295 C 0.11596 0.38481 0.30784 0.0
H1296 H 0.30338 0.41337 0.27234 0.0
H1297 H 0.34705 0.47115 0.31516 0.0
H1298 H 0.30873 0.44315 0.33082 0.0
H1299 H 0.26182 0.40273 0.33236 0.0
H1300 H 0.21681 0.34783 0.28883 0.0
H1301 H 0.25622 0.37449 0.27353 0.0
C1302 C 0.30451 0.42018 0.28503 0.0
C1303 C 0.32847 0.44439 0.29244 0.0
C1304 C 0.28195 0.40444 0.29394 0.0
C1305 C 0.32937 0.45232 0.30906 0.0
C1306 C 0.30726 0.43642 0.31807 0.0
C1307 C 0.26078 0.39654 0.31956 0.0
C1308 C 0.23646 0.37324 0.3118 0.0
C1309 C 0.28339 0.41243 0.31065 0.0
C1310 C 0.23526 0.36571 0.29513 0.0
C1311 C 0.25782 0.38094 0.28634 0.0
H1312 H 0.56577 0.88428 0.2711 0.0
H1313 H 0.51718 0.86894 0.31203 0.0
H1314 H 0.54972 0.86008 0.32771 0.0
H1315 H 0.59063 0.85394 0.32938 0.0
H1316 H 0.63547 0.86371 0.28731 0.0
H1317 H 0.60534 0.87676 0.2724 0.0
C1318 C 0.56189 0.87859 0.28335 0.0
C1319 C 0.5388 0.8773 0.29024 0.0
C1320 C 0.58002 0.87233 0.29212 0.0
C1321 C 0.53491 0.87066 0.30638 0.0
C1322 C 0.5534 0.86528 0.31536 0.0
C1323 C 0.59388 0.85919 0.317 0.0
C1324 C 0.61524 0.85801 0.30945 0.0
C1325 C 0.57588 0.86578 0.30831 0.0
C1326 C 0.61907 0.8644 0.29333 0.0
C1327 C 0.60188 0.87189 0.28481 0.0
H1328 H 0.11996 0.68516 0.28951 0.0
H1329 H 0.10282 0.64132 0.33247 0.0
H1330 H 0.11669 0.68467 0.3493 0.0
H1331 H 0.13634 0.73563 0.35199 0.0
H1332 H 0.15269 0.77918 0.30911 0.0
H1333 H 0.13585 0.7353 0.29198 0.0
C1334 C 0.11868 0.68492 0.30251 0.0
C1335 C 0.11067 0.66004 0.30971 0.0
C1336 C 0.12652 0.7099 0.31212 0.0
C1337 C 0.10947 0.66028 0.32663 0.0
C1338 C 0.11728 0.68503 0.33627 0.0
C1339 C 0.13586 0.73532 0.33888 0.0
C1340 C 0.14526 0.76034 0.33172 0.0
C1341 C 0.12633 0.71005 0.32918 0.0
C1342 C 0.14473 0.75996 0.31477 0.0
C1343 C 0.13544 0.73494 0.30502 0.0
H1344 H 0.81196 0.98393 0.36497 0.0
H1345 H 0.74582 0.99714 0.37913 0.0
H1346 H 0.71142 0.95288 0.36381 0.0
H1347 H 0.70009 0.91011 0.34657 0.0
H1348 H 0.76638 0.89715 0.33248 0.0
H1349 H 0.80077 0.94187 0.34733 0.0
C1350 C 0.79005 0.97733 0.36453 0.0
C1351 C 0.78151 0.99385 0.37319 0.0
C1352 C 0.7704 0.9519 0.35569 0.0
C1353 C 0.75296 0.98468 0.37272 0.0
C1354 C 0.73327 0.95944 0.36391 0.0
C1355 C 0.72207 0.91714 0.34676 0.0
C1356 C 0.73072 0.90038 0.33851 0.0
C1357 C 0.74174 0.94281 0.35541 0.0
C1358 C 0.75924 0.90973 0.33876 0.0
C1359 C 0.77891 0.93526 0.34726 0.0
H1360 H 0.03016 0.80123 0.40261 0.0
H1361 H 0.97453 0.75525 0.35959 0.0
H1362 H 0.01423 0.7672 0.34399 0.0
H1363 H 0.06514 0.79108 0.34256 0.0
H1364 H 0.11987 0.8363 0.38613 0.0
H1365 H 0.08028 0.82403 0.40139 0.0
C1366 C 0.02665 0.79344 0.38988 0.0
C1367 C 0.99936 0.77732 0.38234 0.0
C1368 C 0.04952 0.80035 0.38099 0.0
C1369 C 0.99531 0.76793 0.36571 0.0
C1370 C 0.01802 0.77469 0.35677 0.0
C1371 C 0.06838 0.7983 0.35537 0.0
C1372 C 0.09561 0.81462 0.36309 0.0
C1373 C 0.04529 0.79105 0.36426 0.0
C1374 C 0.0993 0.82365 0.37976 0.0
C1375 C 0.07659 0.81665 0.38859 0.0
H1376 H 0.18806 0.19707 0.37018 0.0
H1377 H 0.2673 0.27248 0.38236 0.0
H1378 H 0.25017 0.29901 0.36798 0.0
H1379 H 0.21344 0.30005 0.35068 0.0
H1380 H 0.13415 0.22459 0.33874 0.0
H1381 H 0.15076 0.19852 0.35398 0.0
C1382 C 0.20159 0.21931 0.36963 0.0
C1383 C 0.22897 0.23279 0.37716 0.0
C1384 C 0.19169 0.23428 0.36127 0.0
C1385 C 0.24611 0.2617 0.3767 0.0
C1386 C 0.23639 0.27681 0.3684 0.0
C1387 C 0.19972 0.27798 0.35161 0.0
C1388 C 0.17263 0.26421 0.34368 0.0
C1389 C 0.20934 0.26323 0.36048 0.0
C1390 C 0.15513 0.23556 0.34473 0.0
C1391 C 0.16458 0.22069 0.35346 0.0
H1392 H 0.68295 0.57385 0.72937 0.0
H1393 H 0.63161 0.56181 0.68528 0.0
H1394 H 0.6731 0.58839 0.67135 0.0
H1395 H 0.72421 0.61426 0.67153 0.0
H1396 H 0.77486 0.62664 0.71606 0.0
H1397 H 0.73352 0.60111 0.7299 0.0
C1398 C 0.68078 0.57741 0.71679 0.0
C1399 C 0.65415 0.56576 0.70841 0.0
C1400 C 0.70469 0.59273 0.70885 0.0
C1401 C 0.65183 0.57021 0.692 0.0
C1402 C 0.67557 0.58551 0.68402 0.0
C1403 C 0.72621 0.61142 0.68426 0.0
C1404 C 0.75277 0.62229 0.69264 0.0
C1405 C 0.70215 0.59667 0.69228 0.0
C1406 C 0.75484 0.61846 0.70919 0.0
C1407 C 0.73113 0.60384 0.71719 0.0
H1408 H 0.4746 0.13362 0.70455 0.0
H1409 H 0.43931 0.12574 0.75037 0.0
H1410 H 0.40396 0.13431 0.7382 0.0
H1411 H 0.3827 0.14393 0.71455 0.0
H1412 H 0.41498 0.14717 0.66818 0.0
H1413 H 0.45124 0.1396 0.68048 0.0
C1414 C 0.45897 0.13325 0.71187 0.0
C1415 C 0.46017 0.12942 0.72849 0.0
C1416 C 0.43793 0.13719 0.70466 0.0
C1417 C 0.4397 0.12947 0.7377 0.0
C1418 C 0.41916 0.13407 0.73071 0.0
C1419 C 0.39767 0.14294 0.70715 0.0
C1420 C 0.39629 0.14623 0.69052 0.0
C1421 C 0.41814 0.13807 0.71423 0.0
C1422 C 0.41556 0.14456 0.68101 0.0
C1423 C 0.43637 0.14035 0.68805 0.0
H1424 H 0.87515 0.33953 0.68535 0.0
H1425 H 0.87978 0.31626 0.73372 0.0
H1426 H 0.86402 0.26853 0.72261 0.0
H1427 H 0.84636 0.23261 0.69925 0.0
H1428 H 0.83873 0.25491 0.6512 0.0
H1429 H 0.85739 0.30366 0.66208 0.0
C1430 C 0.8725 0.32402 0.6935 0.0
C1431 C 0.87877 0.33167 0.71036 0.0
C1432 C 0.8627 0.29636 0.68708 0.0
C1433 C 0.87564 0.31125 0.72067 0.0
C1434 C 0.86637 0.28381 0.71435 0.0
C1435 C 0.84944 0.24834 0.6912 0.0
C1436 C 0.84187 0.24061 0.67449 0.0
C1437 C 0.85967 0.27609 0.69759 0.0
C1438 C 0.84471 0.26071 0.66413 0.0
C1439 C 0.85533 0.28848 0.67034 0.0
H1440 H 0.23677 0.00409 0.62874 0.0
H1441 H 0.16406 0.00582 0.64236 0.0
H1442 H 0.19358 0.05092 0.65827 0.0
H1443 H 0.24008 0.09039 0.66788 0.0
H1444 H 0.31271 0.08914 0.65377 0.0
H1445 H 0.28319 0.04353 0.63827 0.0
C1446 C 0.22736 0.01443 0.63507 0.0
C1447 C 0.19822 0.00155 0.63433 0.0
C1448 C 0.24445 0.0405 0.64407 0.0
C1449 C 0.18641 0.01505 0.64287 0.0
C1450 C 0.20328 0.04095 0.6519 0.0
C1451 C 0.2494 0.08006 0.66144 0.0
C1452 C 0.27846 0.09303 0.66194 0.0
C1453 C 0.23231 0.0539 0.65254 0.0
C1454 C 0.29034 0.07953 0.65353 0.0
C1455 C 0.27349 0.05347 0.64468 0.0
H1456 H 0.97132 0.21793 0.60482 0.0
H1457 H 0.00763 0.19231 0.64269 0.0
H1458 H 0.96933 0.18294 0.65878 0.0
H1459 H 0.92443 0.18047 0.66193 0.0
H1460 H 0.88618 0.20172 0.62295 0.0
H1461 H 0.92585 0.21366 0.60742 0.0
C1462 C 0.97082 0.20994 0.61648 0.0
C1463 C 0.99277 0.20617 0.62245 0.0
C1464 C 0.94816 0.20364 0.62553 0.0
C1465 C 0.99161 0.1962 0.6378 0.0
C1466 C 0.96948 0.19053 0.64702 0.0
C1467 C 0.92495 0.18791 0.65009 0.0
C1468 C 0.90245 0.19027 0.64361 0.0
C1469 C 0.9476 0.19412 0.64101 0.0
C1470 C 0.90316 0.19954 0.62815 0.0
C1471 C 0.92589 0.20645 0.61927 0.0
H1472 H 0.82432 0.80376 0.63502 0.0
H1473 H 0.74127 0.73474 0.62129 0.0
H1474 H 0.75206 0.70425 0.63644 0.0
H1475 H 0.78456 0.69793 0.65465 0.0
H1476 H 0.86766 0.76709 0.66807 0.0
H1477 H 0.85717 0.79707 0.65232 0.0
C1478 C 0.80855 0.78206 0.63539 0.0
C1479 C 0.78198 0.77158 0.62716 0.0
C1480 C 0.81483 0.7648 0.6442 0.0
C1481 C 0.76193 0.74327 0.62746 0.0
C1482 C 0.76803 0.7259 0.63621 0.0
C1483 C 0.80042 0.71949 0.65398 0.0
C1484 C 0.82685 0.73031 0.66245 0.0
C1485 C 0.79432 0.73652 0.64476 0.0
C1486 C 0.84713 0.75834 0.66167 0.0
C1487 C 0.84118 0.77546 0.65264 0.0
H1488 H 0.00261 0.77304 0.63821 0.0
H1489 H 0.95704 0.76245 0.59201 0.0
H1490 H 0.91342 0.73083 0.60288 0.0
H1491 H 0.88812 0.70817 0.62599 0.0
H1492 H 0.93428 0.71979 0.67224 0.0
H1493 H 0.97768 0.74917 0.66086 0.0
C1494 C 0.98312 0.7639 0.63052 0.0
C1495 C 0.98306 0.7703 0.61437 0.0
C1496 C 0.95819 0.74601 0.63688 0.0
C1497 C 0.95769 0.75777 0.60447 0.0
C1498 C 0.93273 0.73982 0.6107 0.0
C1499 C 0.90766 0.717 0.63357 0.0
C1500 C 0.9078 0.71184 0.65 0.0
C1501 C 0.9327 0.73407 0.62697 0.0
C1502 C 0.93341 0.72341 0.65959 0.0
C1503 C 0.95832 0.74028 0.6531 0.0
H1504 H 0.21464 0.22253 0.6363 0.0
H1505 H 0.21184 0.18055 0.5901 0.0
H1506 H 0.24656 0.17009 0.60149 0.0
H1507 H 0.27702 0.17198 0.62474 0.0
H1508 H 0.27912 0.21337 0.67107 0.0
H1509 H 0.24524 0.22465 0.65948 0.0
C1510 C 0.22144 0.21088 0.62876 0.0
C1511 C 0.21059 0.20234 0.61237 0.0
C1512 C 0.24129 0.20477 0.63541 0.0
C1513 C 0.22004 0.18768 0.6027 0.0
C1514 C 0.2398 0.18154 0.60923 0.0
C1515 C 0.27015 0.18354 0.63231 0.0
C1516 C 0.28064 0.19174 0.64877 0.0
C1517 C 0.25052 0.18992 0.62559 0.0
C1518 C 0.27144 0.20672 0.65836 0.0
C1519 C 0.25201 0.21319 0.65176 0.0
H1520 H 0.75994 0.00081 0.62764 0.0
H1521 H 0.8398 0.00697 0.63695 0.0
H1522 H 0.85858 0.05334 0.65143 0.0
H1523 H 0.85232 0.09203 0.66156 0.0
H1524 H 0.77244 0.0859 0.65277 0.0
H1525 H 0.75372 0.03981 0.63775 0.0
C1526 C 0.7815 0.01244 0.63273 0.0
C1527 C 0.79843 0.00046 0.63128 0.0
C1528 C 0.79216 0.03909 0.64108 0.0
C1529 C 0.82625 0.0156 0.6381 0.0
C1530 C 0.83704 0.04216 0.6463 0.0
C1531 C 0.83082 0.08058 0.65635 0.0
C1532 C 0.81381 0.09234 0.65814 0.0
C1533 C 0.82017 0.05405 0.64792 0.0
C1534 C 0.78599 0.07734 0.65137 0.0
C1535 C 0.77527 0.05097 0.64285 0.0
H1536 H 0.47305 0.33381 0.69809 0.0
H1537 H 0.40256 0.33576 0.71549 0.0
H1538 H 0.37142 0.28845 0.7024 0.0
H1539 H 0.36424 0.24659 0.68574 0.0
H1540 H 0.435 0.24523 0.66831 0.0
H1541 H 0.46597 0.29236 0.68151 0.0
C1542 C 0.45083 0.32402 0.69886 0.0
C1543 C 0.44014 0.33834 0.70769 0.0
C1544 C 0.4331 0.29692 0.69129 0.0
C1545 C 0.41135 0.3251 0.70887 0.0
C1546 C 0.39352 0.29811 0.70133 0.0
C1547 C 0.38644 0.25667 0.68486 0.0
C1548 C 0.39736 0.24256 0.67606 0.0
C1549 C 0.40416 0.28381 0.6925 0.0
C1550 C 0.42613 0.25574 0.675 0.0
C1551 C 0.44385 0.28268 0.68254 0.0
H1552 H 0.66656 0.13151 0.70827 0.0
H1553 H 0.70082 0.11392 0.75103 0.0
H1554 H 0.74263 0.12494 0.73796 0.0
H1555 H 0.76926 0.13858 0.71406 0.0
H1556 H 0.7325 0.15123 0.67055 0.0
H1557 H 0.69153 0.14222 0.68411 0.0
C1558 C 0.68277 0.12943 0.71471 0.0
C1559 C 0.68019 0.12185 0.73072 0.0
C1560 C 0.70638 0.13477 0.70692 0.0
C1561 C 0.70214 0.1202 0.73885 0.0
C1562 C 0.72608 0.12625 0.73132 0.0
C1563 C 0.75227 0.13938 0.70758 0.0
C1564 C 0.75392 0.14562 0.69135 0.0
C1565 C 0.72842 0.13353 0.71534 0.0
C1566 C 0.73165 0.14631 0.68303 0.0
C1567 C 0.70825 0.14125 0.69079 0.0
H1568 H 0.84146 0.52662 0.69959 0.0
H1569 H 0.92375 0.59671 0.71375 0.0
H1570 H 0.91092 0.62774 0.70089 0.0
H1571 H 0.87638 0.63474 0.6853 0.0
H1572 H 0.79404 0.56457 0.67137 0.0
H1573 H 0.8069 0.53367 0.6843 0.0
C1574 C 0.85666 0.54864 0.69972 0.0
C1575 C 0.88354 0.55934 0.70754 0.0
C1576 C 0.84912 0.56631 0.69235 0.0
C1577 C 0.90286 0.58802 0.7079 0.0
C1578 C 0.89557 0.60574 0.7005 0.0
C1579 C 0.86125 0.61271 0.68519 0.0
C1580 C 0.83432 0.6019 0.67744 0.0
C1581 C 0.86876 0.5951 0.69269 0.0
C1582 C 0.81492 0.57332 0.67727 0.0
C1583 C 0.82225 0.55566 0.68465 0.0
H1584 H 0.51186 0.95918 0.16935 0.0
H1585 H 0.42518 0.91555 0.15087 0.0
H1586 H 0.43769 0.93286 0.12442 0.0
H1587 H 0.47336 0.96051 0.10655 0.0
H1588 H 0.56002 0.00291 0.12508 0.0
H1589 H 0.54735 0.9858 0.15147 0.0
C1590 C 0.49568 0.95313 0.15949 0.0
C1591 C 0.46762 0.93598 0.16211 0.0
C1592 C 0.50302 0.963 0.14432 0.0
C1593 C 0.44693 0.92893 0.14926 0.0
C1594 C 0.45408 0.93869 0.1341 0.0
C1595 C 0.48948 0.96577 0.11631 0.0
C1596 C 0.51761 0.98307 0.11382 0.0
C1597 C 0.48207 0.95574 0.13148 0.0
C1598 C 0.5382 0.98999 0.12671 0.0
C1599 C 0.531 0.98009 0.14179 0.0
H1600 H 0.08334 0.5555 0.17151 0.0
H1601 H 0.01181 0.4757 0.17713 0.0
H1602 H 0.9972 0.46901 0.14803 0.0
H1603 H 0.00396 0.48673 0.1212 0.0
H1604 H 0.07561 0.56652 0.11563 0.0
H1605 H 0.09119 0.57226 0.14448 0.0
C1606 C 0.06452 0.5367 0.16634 0.0
C1607 C 0.04852 0.51622 0.17642 0.0
C1608 C 0.05636 0.53298 0.14963 0.0
C1609 C 0.02447 0.4917 0.16957 0.0
C1610 C 0.01609 0.48792 0.15296 0.0
C1611 C 0.02299 0.50534 0.12633 0.0
C1612 C 0.03856 0.52623 0.11634 0.0
C1613 C 0.03174 0.50854 0.14292 0.0
C1614 C 0.0634 0.55005 0.12305 0.0
C1615 C 0.07221 0.55343 0.13956 0.0
H1616 H 0.46496 0.4877 0.16674 0.0
H1617 H 0.45241 0.55707 0.1596 0.0
H1618 H 0.46514 0.55755 0.13186 0.0
H1619 H 0.48292 0.54036 0.11023 0.0
H1620 H 0.49609 0.47136 0.11746 0.0
H1621 H 0.4801 0.46866 0.14445 0.0
C1622 C 0.46455 0.50259 0.15901 0.0
C1623 C 0.45786 0.52239 0.16527 0.0
C1624 C 0.47233 0.50303 0.14311 0.0
C1625 C 0.45777 0.54179 0.15514 0.0
C1626 C 0.46503 0.54207 0.13927 0.0
C1627 C 0.48191 0.52446 0.11761 0.0
C1628 C 0.49095 0.50626 0.11183 0.0
C1629 C 0.47284 0.52312 0.13321 0.0
C1630 C 0.48973 0.48597 0.12168 0.0
C1631 C 0.48045 0.48431 0.13711 0.0
H1632 H 0.91761 0.45501 0.83871 0.0
H1633 H 0.99255 0.53149 0.83232 0.0
H1634 H 0.00796 0.53742 0.86124 0.0
H1635 H 0.00166 0.51894 0.88783 0.0
H1636 H 0.92707 0.44202 0.89408 0.0
H1637 H 0.90979 0.43828 0.86574 0.0
C1638 C 0.93727 0.47301 0.84369 0.0
C1639 C 0.95408 0.49264 0.83342 0.0
C1640 C 0.94604 0.47615 0.86025 0.0
C1641 C 0.97924 0.51616 0.84002 0.0
C1642 C 0.98812 0.51946 0.85652 0.0
C1643 C 0.98158 0.50143 0.88297 0.0
C1644 C 0.96577 0.48064 0.89294 0.0
C1645 C 0.97193 0.4993 0.86666 0.0
C1646 C 0.93955 0.45834 0.88664 0.0
C1647 C 0.92976 0.45609 0.87042 0.0
H1648 H 0.47736 0.47926 0.82849 0.0
H1649 H 0.5662 0.52125 0.84047 0.0
H1650 H 0.56007 0.52509 0.8693 0.0
H1651 H 0.52924 0.51392 0.89122 0.0
H1652 H 0.44027 0.4691 0.87896 0.0
H1653 H 0.44677 0.4691 0.85018 0.0
C1654 C 0.49542 0.48916 0.83739 0.0
C1655 C 0.52219 0.49969 0.83229 0.0
C1656 C 0.49172 0.49076 0.85394 0.0
C1657 C 0.54536 0.51311 0.84401 0.0
C1658 C 0.54186 0.51512 0.86052 0.0
C1659 C 0.51125 0.50406 0.88227 0.0
C1660 C 0.48428 0.49151 0.88736 0.0
C1661 C 0.51509 0.50359 0.86565 0.0
C1662 C 0.46128 0.4793 0.8755 0.0
C1663 C 0.46495 0.47907 0.85899 0.0
H1664 H 0.56325 0.06866 0.85863 0.0
H1665 H 0.48019 0.02397 0.83409 0.0
H1666 H 0.46183 0.00292 0.85879 0.0
H1667 H 0.46891 0.99888 0.88764 0.0
H1668 H 0.55174 0.04316 0.91251 0.0
H1669 H 0.57061 0.06279 0.88748 0.0
C1670 C 0.5412 0.05405 0.85868 0.0
C1671 C 0.52308 0.04807 0.84461 0.0
C1672 C 0.5307 0.04214 0.87302 0.0
C1673 C 0.49451 0.02924 0.84485 0.0
C1674 C 0.48399 0.01713 0.85895 0.0
C1675 C 0.49114 0.01249 0.88755 0.0
C1676 C 0.50884 0.01957 0.90194 0.0
C1677 C 0.50183 0.02369 0.87315 0.0
C1678 C 0.53757 0.03765 0.90165 0.0
C1679 C 0.54841 0.04878 0.88732 0.0
H1680 H 0.14004 0.24518 0.48877 0.0
H1681 H 0.10468 0.29746 0.49884 0.0
H1682 H 0.11515 0.31512 0.4723 0.0
H1683 H 0.13748 0.31822 0.447 0.0
H1684 H 0.17431 0.26707 0.4377 0.0
H1685 H 0.16067 0.24695 0.4633 0.0
C1686 C 0.13471 0.26054 0.48523 0.0
C1687 C 0.12181 0.27013 0.49592 0.0
C1688 C 0.14134 0.27105 0.47012 0.0
C1689 C 0.11443 0.28951 0.49087 0.0
C1690 C 0.12063 0.29981 0.47572 0.0
C1691 C 0.14221 0.30242 0.4505 0.0
C1692 C 0.15712 0.29435 0.44049 0.0
C1693 C 0.13448 0.29106 0.46535 0.0
C1694 C 0.16326 0.274 0.44527 0.0
C1695 C 0.15536 0.26238 0.45988 0.0
H1696 H 0.72927 0.83994 0.497 0.0
H1697 H 0.65809 0.8449 0.5103 0.0
H1698 H 0.64447 0.84494 0.48179 0.0
H1699 H 0.65408 0.84603 0.4533 0.0
H1700 H 0.72575 0.84213 0.43989 0.0
H1701 H 0.73752 0.83854 0.46816 0.0
C1702 C 0.71052 0.84054 0.49361 0.0
C1703 C 0.69481 0.84259 0.50575 0.0
C1704 C 0.70295 0.84083 0.4772 0.0
C1705 C 0.67073 0.84368 0.5012 0.0
C1706 C 0.66291 0.84365 0.48491 0.0
C1707 C 0.67233 0.84447 0.45657 0.0
C1708 C 0.68915 0.84461 0.44452 0.0
C1709 C 0.67914 0.84276 0.47285 0.0
C1710 C 0.71237 0.84194 0.4489 0.0
C1711 C 0.7192 0.84004 0.46509 0.0
H1712 H 0.11479 0.83289 0.49641 0.0
H1713 H 0.19762 0.86338 0.5193 0.0
H1714 H 0.21425 0.86257 0.4928 0.0
H1715 H 0.20601 0.85636 0.46308 0.0
H1716 H 0.12299 0.82474 0.44014 0.0
H1717 H 0.10574 0.82276 0.4667 0.0
C1718 C 0.13636 0.83885 0.49563 0.0
C1719 C 0.15497 0.84846 0.50982 0.0
C1720 C 0.14584 0.83839 0.48033 0.0
C1721 C 0.18294 0.85639 0.50855 0.0
C1722 C 0.19247 0.85584 0.4934 0.0
C1723 C 0.18405 0.84852 0.46387 0.0
C1724 C 0.16593 0.84099 0.44959 0.0
C1725 C 0.17422 0.84737 0.47919 0.0
C1726 C 0.13755 0.83121 0.4509 0.0
C1727 C 0.12761 0.82992 0.4661 0.0
H1728 H 0.64937 0.84298 0.16679 0.0
H1729 H 0.59139 0.75429 0.15847 0.0
H1730 H 0.59747 0.74976 0.18727 0.0
H1731 H 0.61998 0.77064 0.21465 0.0
H1732 H 0.67844 0.85915 0.22322 0.0
H1733 H 0.67087 0.86424 0.19457 0.0
C1734 C 0.63784 0.82274 0.17133 0.0
C1735 C 0.62015 0.79897 0.16048 0.0
C1736 C 0.64145 0.82026 0.18794 0.0
C1737 C 0.60551 0.77283 0.16652 0.0
C1738 C 0.60886 0.77023 0.183 0.0
C1739 C 0.63119 0.79103 0.21023 0.0
C1740 C 0.6499 0.81443 0.22101 0.0
C1741 C 0.62699 0.79373 0.19377 0.0
C1742 C 0.66379 0.84082 0.21518 0.0
C1743 C 0.6596 0.84372 0.19879 0.0
H1744 H 0.22746 0.83122 0.18319 0.0
H1745 H 0.15008 0.81903 0.16058 0.0
H1746 H 0.1345 0.82158 0.18716 0.0
H1747 H 0.14146 0.82439 0.21664 0.0
H1748 H 0.21916 0.83816 0.23982 0.0
H1749 H 0.23577 0.83742 0.21324 0.0
C1750 C 0.2074 0.82958 0.18412 0.0
C1751 C 0.18985 0.82466 0.16992 0.0
C1752 C 0.19842 0.83091 0.19953 0.0
C1753 C 0.16381 0.82238 0.17132 0.0
C1754 C 0.15488 0.82387 0.18652 0.0
C1755 C 0.16225 0.82776 0.21597 0.0
C1756 C 0.17893 0.83125 0.2303 0.0
C1757 C 0.1718 0.82767 0.20069 0.0
C1758 C 0.2056 0.83495 0.22903 0.0
C1759 C 0.21523 0.83475 0.21382 0.0
H1760 H 0.19818 0.41884 0.18813 0.0
H1761 H 0.21302 0.35326 0.17029 0.0
H1762 H 0.19818 0.33054 0.19508 0.0
H1763 H 0.17883 0.32811 0.22123 0.0
H1764 H 0.16265 0.39297 0.23861 0.0
H1765 H 0.18011 0.41713 0.21457 0.0
C1766 C 0.19812 0.39954 0.18966 0.0
C1767 C 0.20655 0.38769 0.17735 0.0
C1768 C 0.1892 0.3864 0.20382 0.0
C1769 C 0.20688 0.36297 0.17965 0.0
C1770 C 0.19818 0.34984 0.19376 0.0
C1771 C 0.17902 0.34747 0.2197 0.0
C1772 C 0.16932 0.35865 0.23163 0.0
C1773 C 0.18893 0.36116 0.20581 0.0
C1774 C 0.17018 0.38403 0.22966 0.0
C1775 C 0.18004 0.39779 0.21588 0.0
H1776 H 0.80086 0.6471 0.8356 0.0
H1777 H 0.78446 0.56371 0.82167 0.0
H1778 H 0.79594 0.57566 0.79422 0.0
H1779 H 0.81394 0.61066 0.77479 0.0
H1780 H 0.82983 0.694 0.78839 0.0
H1781 H 0.81542 0.68124 0.81532 0.0
C1782 C 0.7993 0.63142 0.82646 0.0
C1783 C 0.79204 0.60463 0.83072 0.0
C1784 C 0.80621 0.63852 0.81069 0.0
C1785 C 0.79037 0.58461 0.81877 0.0
C1786 C 0.79691 0.59141 0.80306 0.0
C1787 C 0.81379 0.62594 0.78351 0.0
C1788 C 0.82322 0.65334 0.77954 0.0
C1789 C 0.80539 0.61845 0.79897 0.0
C1790 C 0.82322 0.67291 0.79117 0.0
C1791 C 0.8148 0.66558 0.80656 0.0
H1792 H 0.35322 0.14919 0.83736 0.0
H1793 H 0.4364 0.21848 0.83655 0.0
H1794 H 0.42792 0.21859 0.80732 0.0
H1795 H 0.39576 0.20138 0.78248 0.0
H1796 H 0.31197 0.13321 0.7833 0.0
H1797 H 0.32174 0.13014 0.81201 0.0
C1798 C 0.36958 0.16397 0.83069 0.0
C1799 C 0.39533 0.18387 0.83904 0.0
C1800 C 0.36437 0.16425 0.81394 0.0
C1801 C 0.41631 0.20315 0.83036 0.0
C1802 C 0.41149 0.20321 0.81367 0.0
C1803 C 0.37981 0.18553 0.78888 0.0
C1804 C 0.35319 0.1676 0.78082 0.0
C1805 C 0.38544 0.18421 0.8054 0.0
C1806 C 0.33256 0.14743 0.78931 0.0
C1807 C 0.33815 0.14563 0.8057 0.0
H1808 H 0.8392 0.19678 0.83825 0.0
H1809 H 0.75446 0.17319 0.82308 0.0
H1810 H 0.76283 0.16945 0.79459 0.0
H1811 H 0.79522 0.17552 0.77395 0.0
H1812 H 0.87986 0.19892 0.78967 0.0
H1813 H 0.87066 0.20073 0.81793 0.0
C1814 C 0.82256 0.19091 0.82871 0.0
C1815 C 0.79633 0.18556 0.83279 0.0
C1816 C 0.8276 0.18909 0.81243 0.0
C1817 C 0.77482 0.17732 0.82029 0.0
C1818 C 0.77966 0.17536 0.80399 0.0
C1819 C 0.81157 0.18074 0.78356 0.0
C1820 C 0.83834 0.18748 0.77961 0.0
C1821 C 0.8061 0.18155 0.7999 0.0
C1822 C 0.85927 0.19431 0.79227 0.0
C1823 C 0.85399 0.19514 0.80848 0.0
H1824 H 0.29296 0.17526 0.50483 0.0
H1825 H 0.3679 0.17538 0.49443 0.0
H1826 H 0.37884 0.17433 0.52326 0.0
H1827 H 0.36539 0.17003 0.55101 0.0
H1828 H 0.28949 0.168 0.56132 0.0
H1829 H 0.28099 0.17391 0.53298 0.0
C1830 C 0.31196 0.17563 0.50894 0.0
C1831 C 0.32955 0.17528 0.49755 0.0
C1832 C 0.31787 0.17458 0.52547 0.0
C1833 C 0.35392 0.17537 0.50298 0.0
C1834 C 0.36018 0.17479 0.51944 0.0
C1835 C 0.34697 0.17086 0.54705 0.0
C1836 C 0.32794 0.16826 0.5582 0.0
C1837 C 0.34197 0.17373 0.53072 0.0
C1838 C 0.30452 0.17005 0.55299 0.0
C1839 C 0.29955 0.17326 0.53677 0.0
H1840 H 0.83587 0.09868 0.50686 0.0
H1841 H 0.87573 0.18755 0.50382 0.0
H1842 H 0.86478 0.19437 0.53127 0.0
H1843 H 0.84206 0.17478 0.55566 0.0
H1844 H 0.80168 0.08578 0.55833 0.0
H1845 H 0.81414 0.07927 0.53133 0.0
C1846 C 0.842 0.11953 0.51215 0.0
C1847 C 0.85644 0.14253 0.50326 0.0
C1848 C 0.83536 0.12326 0.52781 0.0
C1849 C 0.86478 0.16949 0.51044 0.0
C1850 C 0.85837 0.1734 0.52609 0.0
C1851 C 0.83626 0.15401 0.55039 0.0
C1852 C 0.82082 0.13079 0.55895 0.0
C1853 C 0.84348 0.1504 0.53484 0.0
C1854 C 0.81319 0.10395 0.55189 0.0
C1855 C 0.82043 0.10022 0.53649 0.0
H1856 H 0.82596 0.6953 0.50342 0.0
H1857 H 0.9139 0.73569 0.5181 0.0
H1858 H 0.90422 0.7207 0.54536 0.0
H1859 H 0.87044 0.69728 0.5653 0.0
H1860 H 0.78264 0.65842 0.5502 0.0
H1861 H 0.79264 0.67181 0.52291 0.0
C1862 C 0.84306 0.70101 0.5126 0.0
C1863 C 0.87062 0.71685 0.50876 0.0
C1864 C 0.83735 0.69261 0.52821 0.0
C1865 C 0.89249 0.72341 0.5207 0.0
C1866 C 0.88696 0.715 0.53632 0.0
C1867 C 0.85353 0.69186 0.55604 0.0
C1868 C 0.8258 0.67671 0.55983 0.0
C1869 C 0.85943 0.69982 0.54027 0.0
C1870 C 0.80414 0.66963 0.54761 0.0
C1871 C 0.80983 0.67743 0.53199 0.0
loop_
_geom_bond_atom_site_label_1
_geom_bond_atom_site_label_2
_geom_bond_distance
_geom_bond_site_symmetry_2
_ccdc_geom_bond_type
C0 C1 1.384 . S
C0 H13 0.947 . S
C0 C35 1.382 . S
C1 C0 1.384 . S
C1 C2 1.378 . S
C2 C1 1.378 . S
C2 C3 1.378 . S
C2 H14 0.952 . S
C3 C2 1.378 . S
C3 H15 0.950 . S
C3 C34 1.383 . S
H4 C23 0.947 . S
H5 C24 0.946 . S
H6 C26 0.953 . S
H7 C27 0.945 . S
H8 C29 0.952 . S
H9 C30 0.949 . S
H10 C32 0.950 . S
H11 C33 0.948 . S
H12 C35 0.951 . S
H13 C0 0.947 . S
H14 C2 0.952 . S
H15 C3 0.950 . S
N16 C19 1.382 . S
N16 C21 1.363 . S
N17 C19 1.371 . S
N17 C20 1.372 . S
N18 C20 1.361 . S
N18 C21 1.377 . S
C19 N16 1.382 . S
C19 N17 1.371 . S
C19 C22 1.480 . S
C20 N17 1.372 . S
C20 N18 1.361 . S
C20 C28 1.457 . S
C21 N16 1.363 . S
C21 N18 1.377 . S
C21 C34 1.479 . S
C22 C19 1.480 . S
C22 C23 1.383 . S
C22 C27 1.385 . S
C23 H4 0.947 . S
C23 C22 1.383 . S
C23 C24 1.388 . S
C24 H5 0.946 . S
C24 C23 1.388 . S
C24 C25 1.384 . S
C25 C24 1.384 . S
C25 C26 1.377 . S
C26 H6 0.953 . S
C26 C25 1.377 . S
C26 C27 1.369 . S
C27 H7 0.945 . S
C27 C22 1.385 . S
C27 C26 1.369 . S
C28 C20 1.457 . S
C28 C29 1.372 . S
C28 C33 1.364 . S
C29 H8 0.952 . S
C29 C28 1.372 . S
C29 C30 1.389 . S
C30 H9 0.949 . S
C30 C29 1.389 . S
C30 C31 1.387 . S
C31 C30 1.387 . S
C31 C32 1.372 . S
C32 H10 0.950 . S
C32 C31 1.372 . S
C32 C33 1.379 . S
C33 H11 0.948 . S
C33 C28 1.364 . S
C33 C32 1.379 . S
C34 C3 1.383 . S
C34 C21 1.479 . S
C34 C35 1.398 . S
C35 C0 1.382 . S
C35 H12 0.951 . S
C35 C34 1.398 . S
C36 C37 1.384 . S
C36 H49 0.947 . S
C36 C71 1.382 . S
C37 C36 1.384 . S
C37 C38 1.378 . S
C38 C37 1.378 . S
C38 C39 1.378 . S
C38 H50 0.952 . S
C39 C38 1.378 . S
C39 H51 0.950 . S
C39 C70 1.383 . S
H40 C59 0.947 . S
H41 C60 0.946 . S
H42 C62 0.953 . S
H43 C63 0.945 . S
H44 C65 0.952 . S
H45 C66 0.949 . S
H46 C68 0.950 . S
H47 C69 0.948 . S
H48 C71 0.951 . S
H49 C36 0.947 . S
H50 C38 0.952 . S
H51 C39 0.950 . S
N52 C55 1.382 . S
N52 C57 1.363 . S
N53 C55 1.371 . S
N53 C56 1.372 . S
N54 C56 1.361 . S
N54 C57 1.377 . S
C55 N52 1.382 . S
C55 N53 1.371 . S
C55 C58 1.480 . S
C56 N53 1.372 . S
C56 N54 1.361 . S
C56 C64 1.457 . S
C57 N52 1.363 . S
C57 N54 1.377 . S
C57 C70 1.479 . S
C58 C55 1.480 . S
C58 C59 1.383 . S
C58 C63 1.385 . S
C59 H40 0.947 . S
C59 C58 1.383 . S
C59 C60 1.388 . S
C60 H41 0.946 . S
C60 C59 1.388 . S
C60 C61 1.384 . S
C61 C60 1.384 . S
C61 C62 1.377 . S
C62 H42 0.953 . S
C62 C61 1.377 . S
C62 C63 1.369 . S
C63 H43 0.945 . S
C63 C58 1.385 . S
C63 C62 1.369 . S
C64 C56 1.457 . S
C64 C65 1.372 . S
C64 C69 1.364 . S
C65 H44 0.952 . S
C65 C64 1.372 . S
C65 C66 1.389 . S
C66 H45 0.949 . S
C66 C65 1.389 . S
C66 C67 1.387 . S
C67 C66 1.387 . S
C67 C68 1.372 . S
C68 H46 0.950 . S
C68 C67 1.372 . S
C68 C69 1.379 . S
C69 H47 0.948 . S
C69 C64 1.364 . S
C69 C68 1.379 . S
C70 C39 1.383 . S
C70 C57 1.479 . S
C70 C71 1.398 . S
C71 C36 1.382 . S
C71 H48 0.951 . S
C71 C70 1.398 . S
C72 C73 1.384 . S
C72 H85 0.947 . S
C72 C107 1.382 . S
C73 C72 1.384 . S
C73 C74 1.378 . S
C74 C73 1.378 . S
C74 C75 1.378 . S
C74 H86 0.952 . S
C75 C74 1.378 . S
C75 H87 0.950 . S
C75 C106 1.383 . S
H76 C95 0.947 . S
H77 C96 0.946 . S
H78 C98 0.953 . S
H79 C99 0.945 . S
H80 C101 0.952 . S
H81 C102 0.949 . S
H82 C104 0.950 . S
H83 C105 0.948 . S
H84 C107 0.951 . S
H85 C72 0.947 . S
H86 C74 0.952 . S
H87 C75 0.950 . S
N88 C91 1.382 . S
N88 C93 1.363 . S
N89 C91 1.371 . S
N89 C92 1.372 . S
N90 C92 1.361 . S
N90 C93 1.377 . S
C91 N88 1.382 . S
C91 N89 1.371 . S
C91 C94 1.480 . S
C92 N89 1.372 . S
C92 N90 1.361 . S
C92 C100 1.457 . S
C93 N88 1.363 . S
C93 N90 1.377 . S
C93 C106 1.479 . S
C94 C91 1.480 . S
C94 C95 1.383 . S
C94 C99 1.385 . S
C95 H76 0.947 . S
C95 C94 1.383 . S
C95 C96 1.388 . S
C96 H77 0.946 . S
C96 C95 1.388 . S
C96 C97 1.384 . S
C97 C96 1.384 . S
C97 C98 1.377 . S
C98 H78 0.953 . S
C98 C97 1.377 . S
C98 C99 1.369 . S
C99 H79 0.945 . S
C99 C94 1.385 . S
C99 C98 1.369 . S
C100 C92 1.457 . S
C100 C101 1.372 . S
C100 C105 1.364 . S
C101 H80 0.952 . S
C101 C100 1.372 . S
C101 C102 1.389 . S
C102 H81 0.949 . S
C102 C101 1.389 . S
C102 C103 1.387 . S
C103 C102 1.387 . S
C103 C104 1.372 . S
C104 H82 0.950 . S
C104 C103 1.372 . S
C104 C105 1.379 . S
C105 H83 0.948 . S
C105 C100 1.364 . S
C105 C104 1.379 . S
C106 C75 1.383 . S
C106 C93 1.479 . S
C106 C107 1.398 . S
C107 C72 1.382 . S
C107 H84 0.951 . S
C107 C106 1.398 . S
C108 C109 1.384 . S
C108 H121 0.947 . S
C108 C143 1.382 . S
C109 C108 1.384 . S
C109 C110 1.378 . S
C110 C109 1.378 . S
C110 C111 1.378 . S
C110 H122 0.952 . S
C111 C110 1.378 . S
C111 H123 0.950 . S
C111 C142 1.383 . S
H112 C131 0.947 . S
H113 C132 0.946 . S
H114 C134 0.953 . S
H115 C135 0.945 . S
H116 C137 0.952 . S
H117 C138 0.949 . S
H118 C140 0.950 . S
H119 C141 0.948 . S
H120 C143 0.951 . S
H121 C108 0.947 . S
H122 C110 0.952 . S
H123 C111 0.950 . S
N124 C127 1.382 . S
N124 C129 1.363 . S
N125 C127 1.371 . S
N125 C128 1.372 . S
N126 C128 1.361 . S
N126 C129 1.377 . S
C127 N124 1.382 . S
C127 N125 1.371 . S
C127 C130 1.480 . S
C128 N125 1.372 . S
C128 N126 1.361 . S
C128 C136 1.457 . S
C129 N124 1.363 . S
C129 N126 1.377 . S
C129 C142 1.479 . S
C130 C127 1.480 . S
C130 C131 1.383 . S
C130 C135 1.385 . S
C131 H112 0.947 . S
C131 C130 1.383 . S
C131 C132 1.388 . S
C132 H113 0.946 . S
C132 C131 1.388 . S
C132 C133 1.384 . S
C133 C132 1.384 . S
C133 C134 1.377 . S
C134 H114 0.953 . S
C134 C133 1.377 . S
C134 C135 1.369 . S
C135 H115 0.945 . S
C135 C130 1.385 . S
C135 C134 1.369 . S
C136 C128 1.457 . S
C136 C137 1.372 . S
C136 C141 1.364 . S
C137 H116 0.952 . S
C137 C136 1.372 . S
C137 C138 1.389 . S
C138 H117 0.949 . S
C138 C137 1.389 . S
C138 C139 1.387 . S
C139 C138 1.387 . S
C139 C140 1.372 . S
C140 H118 0.950 . S
C140 C139 1.372 . S
C140 C141 1.379 . S
C141 H119 0.948 . S
C141 C136 1.364 . S
C141 C140 1.379 . S
C142 C111 1.383 . S
C142 C129 1.479 . S
C142 C143 1.398 . S
C143 C108 1.382 . S
C143 H120 0.951 . S
C143 C142 1.398 . S
C144 C145 1.384 . S
C144 H157 0.947 . S
C144 C179 1.382 . S
C145 C144 1.384 . S
C145 C146 1.378 . S
C146 C145 1.378 . S
C146 C147 1.378 . S
C146 H158 0.952 . S
C147 C146 1.378 . S
C147 H159 0.950 . S
C147 C178 1.383 . S
H148 C167 0.947 . S
H149 C168 0.946 . S
H150 C170 0.953 . S
H151 C171 0.945 . S
H152 C173 0.952 . S
H153 C174 0.949 . S
H154 C176 0.950 . S
H155 C177 0.948 . S
H156 C179 0.951 . S
H157 C144 0.947 . S
H158 C146 0.952 . S
H159 C147 0.950 . S
N160 C163 1.382 . S
N160 C165 1.363 . S
N161 C163 1.371 . S
N161 C164 1.372 . S
N162 C164 1.361 . S
N162 C165 1.377 . S
C163 N160 1.382 . S
C163 N161 1.371 . S
C163 C166 1.480 . S
C164 N161 1.372 . S
C164 N162 1.361 . S
C164 C172 1.457 . S
C165 N160 1.363 . S
C165 N162 1.377 . S
C165 C178 1.479 . S
C166 C163 1.480 . S
C166 C167 1.383 . S
C166 C171 1.385 . S
C167 H148 0.947 . S
C167 C166 1.383 . S
C167 C168 1.388 . S
C168 H149 0.946 . S
C168 C167 1.388 . S
C168 C169 1.384 . S
C169 C168 1.384 . S
C169 C170 1.377 . S
C170 H150 0.953 . S
C170 C169 1.377 . S
C170 C171 1.369 . S
C171 H151 0.945 . S
C171 C166 1.385 . S
C171 C170 1.369 . S
C172 C164 1.457 . S
C172 C173 1.372 . S
C172 C177 1.364 . S
C173 H152 0.952 . S
C173 C172 1.372 . S
C173 C174 1.389 . S
C174 H153 0.949 . S
C174 C173 1.389 . S
C174 C175 1.387 . S
C175 C174 1.387 . S
C175 C176 1.372 . S
C176 H154 0.950 . S
C176 C175 1.372 . S
C176 C177 1.379 . S
C177 H155 0.948 . S
C177 C172 1.364 . S
C177 C176 1.379 . S
C178 C147 1.383 . S
C178 C165 1.479 . S
C178 C179 1.398 . S
C179 C144 1.382 . S
C179 H156 0.951 . S
C179 C178 1.398 . S
C180 C181 1.384 . S
C180 H193 0.947 . S
C180 C215 1.382 . S
C181 C180 1.384 . S
C181 C182 1.378 . S
C182 C181 1.378 . S
C182 C183 1.378 . S
C182 H194 0.952 . S
C183 C182 1.378 . S
C183 H195 0.950 . S
C183 C214 1.383 . S
H184 C203 0.947 . S
H185 C204 0.946 . S
H186 C206 0.953 . S
H187 C207 0.945 . S
H188 C209 0.952 . S
H189 C210 0.949 . S
H190 C212 0.950 . S
H191 C213 0.948 . S
H192 C215 0.951 . S
H193 C180 0.947 . S
H194 C182 0.952 . S
H195 C183 0.950 . S
N196 C199 1.382 . S
N196 C201 1.363 . S
N197 C199 1.371 . S
N197 C200 1.372 . S
N198 C200 1.361 . S
N198 C201 1.377 . S
C199 N196 1.382 . S
C199 N197 1.371 . S
C199 C202 1.480 . S
C200 N197 1.372 . S
C200 N198 1.361 . S
C200 C208 1.457 . S
C201 N196 1.363 . S
C201 N198 1.377 . S
C201 C214 1.479 . S
C202 C199 1.480 . S
C202 C203 1.383 . S
C202 C207 1.385 . S
C203 H184 0.947 . S
C203 C202 1.383 . S
C203 C204 1.388 . S
C204 H185 0.946 . S
C204 C203 1.388 . S
C204 C205 1.384 . S
C205 C204 1.384 . S
C205 C206 1.377 . S
C206 H186 0.953 . S
C206 C205 1.377 . S
C206 C207 1.369 . S
C207 H187 0.945 . S
C207 C202 1.385 . S
C207 C206 1.369 . S
C208 C200 1.457 . S
C208 C209 1.372 . S
C208 C213 1.364 . S
C209 H188 0.952 . S
C209 C208 1.372 . S
C209 C210 1.389 . S
C210 H189 0.949 . S
C210 C209 1.389 . S
C210 C211 1.387 . S
C211 C210 1.387 . S
C211 C212 1.372 . S
C212 H190 0.950 . S
C212 C211 1.372 . S
C212 C213 1.379 . S
C213 H191 0.948 . S
C213 C208 1.364 . S
C213 C212 1.379 . S
C214 C183 1.383 . S
C214 C201 1.479 . S
C214 C215 1.398 . S
C215 C180 1.382 . S
C215 H192 0.951 . S
C215 C214 1.398 . S
C216 C217 1.384 . S
C216 H229 0.947 . S
C216 C251 1.382 . S
C217 C216 1.384 . S
C217 C218 1.378 . S
C218 C217 1.378 . S
C218 C219 1.378 . S
C218 H230 0.952 . S
C219 C218 1.378 . S
C219 H231 0.950 . S
C219 C250 1.383 . S
H220 C239 0.947 . S
H221 C240 0.946 . S
H222 C242 0.953 . S
H223 C243 0.945 . S
H224 C245 0.952 . S
H225 C246 0.949 . S
H226 C248 0.947 . S
H227 C249 0.948 . S
H228 C251 0.951 . S
H229 C216 0.947 . S
H230 C218 0.952 . S
H231 C219 0.950 . S
N232 C235 1.382 . S
N232 C237 1.363 . S
N233 C235 1.371 . S
N233 C236 1.372 . S
N234 C236 1.361 . S
N234 C237 1.377 . S
C235 N232 1.382 . S
C235 N233 1.371 . S
C235 C238 1.480 . S
C236 N233 1.372 . S
C236 N234 1.361 . S
C236 C244 1.457 . S
C237 N232 1.363 . S
C237 N234 1.377 . S
C237 C250 1.479 . S
C238 C235 1.480 . S
C238 C239 1.383 . S
C238 C243 1.385 . S
C239 H220 0.947 . S
C239 C238 1.383 . S
C239 C240 1.388 . S
C240 H221 0.946 . S
C240 C239 1.388 . S
C240 C241 1.384 . S
C241 C240 1.384 . S
C241 C242 1.377 . S
C242 H222 0.953 . S
C242 C241 1.377 . S
C242 C243 1.369 . S
C243 H223 0.945 . S
C243 C238 1.385 . S
C243 C242 1.369 . S
C244 C236 1.457 . S
C244 C245 1.372 . S
C244 C249 1.364 . S
C245 H224 0.952 . S
C245 C244 1.372 . S
C245 C246 1.389 . S
C246 H225 0.949 . S
C246 C245 1.389 . S
C246 C247 1.387 . S
C247 C246 1.387 . S
C247 C248 1.372 . S
C248 H226 0.947 . S
C248 C247 1.372 . S
C248 C249 1.379 . S
C249 H227 0.948 . S
C249 C244 1.364 . S
C249 C248 1.379 . S
C250 C219 1.383 . S
C250 C237 1.479 . S
C250 C251 1.398 . S
C251 C216 1.382 . S
C251 H228 0.951 . S
C251 C250 1.398 . S
C252 C253 1.384 . S
C252 H265 0.947 . S
C252 C287 1.382 . S
C253 C252 1.384 . S
C253 C254 1.378 . S
C254 C253 1.378 . S
C254 C255 1.378 . S
C254 H266 0.952 . S
C255 C254 1.378 . S
C255 H267 0.950 . S
C255 C286 1.383 . S
H256 C275 0.947 . S
H257 C276 0.946 . S
H258 C278 0.953 . S
H259 C279 0.945 . S
H260 C281 0.952 . S
H261 C282 0.949 . S
H262 C284 0.950 . S
H263 C285 0.948 . S
H264 C287 0.951 . S
H265 C252 0.947 . S
H266 C254 0.952 . S
H267 C255 0.950 . S
N268 C271 1.382 . S
N268 C273 1.363 . S
N269 C271 1.371 . S
N269 C272 1.372 . S
N270 C272 1.361 . S
N270 C273 1.377 . S
C271 N268 1.382 . S
C271 N269 1.371 . S
C271 C274 1.480 . S
C272 N269 1.372 . S
C272 N270 1.361 . S
C272 C280 1.457 . S
C273 N268 1.363 . S
C273 N270 1.377 . S
C273 C286 1.479 . S
C274 C271 1.480 . S
C274 C275 1.383 . S
C274 C279 1.385 . S
C275 H256 0.947 . S
C275 C274 1.383 . S
C275 C276 1.388 . S
C276 H257 0.946 . S
C276 C275 1.388 . S
C276 C277 1.384 . S
C277 C276 1.384 . S
C277 C278 1.377 . S
C278 H258 0.953 . S
C278 C277 1.377 . S
C278 C279 1.369 . S
C279 H259 0.945 . S
C279 C274 1.385 . S
C279 C278 1.369 . S
C280 C272 1.457 . S
C280 C281 1.372 . S
C280 C285 1.364 . S
C281 H260 0.952 . S
C281 C280 1.372 . S
C281 C282 1.389 . S
C282 H261 0.949 . S
C282 C281 1.389 . S
C282 C283 1.387 . S
C283 C282 1.387 . S
C283 C284 1.372 . S
C284 H262 0.950 . S
C284 C283 1.372 . S
C284 C285 1.379 . S
C285 H263 0.948 . S
C285 C280 1.364 . S
C285 C284 1.379 . S
C286 C255 1.383 . S
C286 C273 1.479 . S
C286 C287 1.398 . S
C287 C252 1.382 . S
C287 H264 0.951 . S
C287 C286 1.398 . S
C288 C289 1.384 . S
C288 H301 0.947 . S
C288 C323 1.382 . S
C289 C288 1.384 . S
C289 C290 1.378 . S
C290 C289 1.378 . S
C290 C291 1.378 . S
C290 H302 0.952 . S
C291 C290 1.378 . S
C291 H303 0.950 . S
C291 C322 1.383 . S
H292 C311 0.947 . S
H293 C312 0.946 . S
H294 C314 0.953 . S
H295 C315 0.945 . S
H296 C317 0.952 . S
H297 C318 0.949 . S
H298 C320 0.950 . S
H299 C321 0.948 . S
H300 C323 0.951 . S
H301 C288 0.947 . S
H302 C290 0.952 . S
H303 C291 0.950 . S
N304 C307 1.382 . S
N304 C309 1.363 . S
N305 C307 1.371 . S
N305 C308 1.372 . S
N306 C308 1.361 . S
N306 C309 1.377 . S
C307 N304 1.382 . S
C307 N305 1.371 . S
C307 C310 1.480 . S
C308 N305 1.372 . S
C308 N306 1.361 . S
C308 C316 1.457 . S
C309 N304 1.363 . S
C309 N306 1.377 . S
C309 C322 1.479 . S
C310 C307 1.480 . S
C310 C311 1.383 . S
C310 C315 1.385 . S
C311 H292 0.947 . S
C311 C310 1.383 . S
C311 C312 1.388 . S
C312 H293 0.946 . S
C312 C311 1.388 . S
C312 C313 1.384 . S
C313 C312 1.384 . S
C313 C314 1.377 . S
C314 H294 0.953 . S
C314 C313 1.377 . S
C314 C315 1.369 . S
C315 H295 0.945 . S
C315 C310 1.385 . S
C315 C314 1.369 . S
C316 C308 1.457 . S
C316 C317 1.372 . S
C316 C321 1.364 . S
C317 H296 0.952 . S
C317 C316 1.372 . S
C317 C318 1.389 . S
C318 H297 0.949 . S
C318 C317 1.389 . S
C318 C319 1.387 . S
C319 C318 1.387 . S
C319 C320 1.372 . S
C320 H298 0.950 . S
C320 C319 1.372 . S
C320 C321 1.379 . S
C321 H299 0.948 . S
C321 C316 1.364 . S
C321 C320 1.379 . S
C322 C291 1.383 . S
C322 C309 1.479 . S
C322 C323 1.398 . S
C323 C288 1.382 . S
C323 H300 0.951 . S
C323 C322 1.398 . S
C324 C325 1.384 . S
C324 H337 0.947 . S
C324 C359 1.382 . S
C325 C324 1.384 . S
C325 C326 1.378 . S
C326 C325 1.378 . S
C326 C327 1.378 . S
C326 H338 0.952 . S
C327 C326 1.378 . S
C327 H339 0.950 . S
C327 C358 1.383 . S
H328 C347 0.947 . S
H329 C348 0.946 . S
H330 C350 0.953 . S
H331 C351 0.945 . S
H332 C353 0.952 . S
H333 C354 0.949 . S
H334 C356 0.950 . S
H335 C357 0.948 . S
H336 C359 0.951 . S
H337 C324 0.947 . S
H338 C326 0.952 . S
H339 C327 0.950 . S
N340 C343 1.382 . S
N340 C345 1.363 . S
N341 C343 1.371 . S
N341 C344 1.372 . S
N342 C344 1.361 . S
N342 C345 1.377 . S
C343 N340 1.382 . S
C343 N341 1.371 . S
C343 C346 1.480 . S
C344 N341 1.372 . S
C344 N342 1.361 . S
C344 C352 1.457 . S
C345 N340 1.363 . S
C345 N342 1.377 . S
C345 C358 1.479 . S
C346 C343 1.480 . S
C346 C347 1.383 . S
C346 C351 1.385 . S
C347 H328 0.947 . S
C347 C346 1.383 . S
C347 C348 1.388 . S
C348 H329 0.946 . S
C348 C347 1.388 . S
C348 C349 1.384 . S
C349 C348 1.384 . S
C349 C350 1.377 . S
C350 H330 0.953 . S
C350 C349 1.377 . S
C350 C351 1.369 . S
C351 H331 0.945 . S
C351 C346 1.385 . S
C351 C350 1.369 . S
C352 C344 1.457 . S
C352 C353 1.372 . S
C352 C357 1.364 . S
C353 H332 0.952 . S
C353 C352 1.372 . S
C353 C354 1.389 . S
C354 H333 0.949 . S
C354 C353 1.389 . S
C354 C355 1.387 . S
C355 C354 1.387 . S
C355 C356 1.372 . S
C356 H334 0.950 . S
C356 C355 1.372 . S
C356 C357 1.379 . S
C357 H335 0.948 . S
C357 C352 1.364 . S
C357 C356 1.379 . S
C358 C327 1.383 . S
C358 C345 1.479 . S
C358 C359 1.398 . S
C359 C324 1.382 . S
C359 H336 0.951 . S
C359 C358 1.398 . S
C360 C361 1.384 . S
C360 H373 0.947 . S
C360 C395 1.382 . S
C361 C360 1.384 . S
C361 C362 1.378 . S
C362 C361 1.378 . S
C362 C363 1.378 . S
C362 H374 0.952 . S
C363 C362 1.378 . S
C363 H375 0.950 . S
C363 C394 1.383 . S
H364 C383 0.947 . S
H365 C384 0.946 . S
H366 C386 0.953 . S
H367 C387 0.945 . S
H368 C389 0.952 . S
H369 C390 0.949 . S
H370 C392 0.950 . S
H371 C393 0.948 . S
H372 C395 0.951 . S
H373 C360 0.947 . S
H374 C362 0.952 . S
H375 C363 0.950 . S
N376 C379 1.382 . S
N376 C381 1.363 . S
N377 C379 1.371 . S
N377 C380 1.372 . S
N378 C380 1.361 . S
N378 C381 1.377 . S
C379 N376 1.382 . S
C379 N377 1.371 . S
C379 C382 1.480 . S
C380 N377 1.372 . S
C380 N378 1.361 . S
C380 C388 1.457 . S
C381 N376 1.363 . S
C381 N378 1.377 . S
C381 C394 1.479 . S
C382 C379 1.480 . S
C382 C383 1.383 . S
C382 C387 1.385 . S
C383 H364 0.947 . S
C383 C382 1.383 . S
C383 C384 1.388 . S
C384 H365 0.946 . S
C384 C383 1.388 . S
C384 C385 1.384 . S
C385 C384 1.384 . S
C385 C386 1.377 . S
C386 H366 0.953 . S
C386 C385 1.377 . S
C386 C387 1.369 . S
C387 H367 0.945 . S
C387 C382 1.385 . S
C387 C386 1.369 . S
C388 C380 1.457 . S
C388 C389 1.372 . S
C388 C393 1.364 . S
C389 H368 0.952 . S
C389 C388 1.372 . S
C389 C390 1.389 . S
C390 H369 0.949 . S
C390 C389 1.389 . S
C390 C391 1.387 . S
C391 C390 1.387 . S
C391 C392 1.372 . S
C392 H370 0.950 . S
C392 C391 1.372 . S
C392 C393 1.379 . S
C393 H371 0.948 . S
C393 C388 1.364 . S
C393 C392 1.379 . S
C394 C363 1.383 . S
C394 C381 1.479 . S
C394 C395 1.398 . S
C395 C360 1.382 . S
C395 H372 0.951 . S
C395 C394 1.398 . S
C396 C397 1.384 . S
C396 H409 0.947 . S
C396 C431 1.382 . S
C397 C396 1.384 . S
C397 C398 1.378 . S
C398 C397 1.378 . S
C398 C399 1.378 . S
C398 H410 0.952 . S
C399 C398 1.378 . S
C399 H411 0.950 . S
C399 C430 1.383 . S
H400 C419 0.947 . S
H401 C420 0.946 . S
H402 C422 0.953 . S
H403 C423 0.945 . S
H404 C425 0.952 . S
H405 C426 0.949 . S
H406 C428 0.950 . S
H407 C429 0.948 . S
H408 C431 0.951 . S
H409 C396 0.947 . S
H410 C398 0.952 . S
H411 C399 0.950 . S
N412 C415 1.382 . S
N412 C417 1.363 . S
N413 C415 1.371 . S
N413 C416 1.372 . S
N414 C416 1.361 . S
N414 C417 1.377 . S
C415 N412 1.382 . S
C415 N413 1.371 . S
C415 C418 1.480 . S
C416 N413 1.372 . S
C416 N414 1.361 . S
C416 C424 1.457 . S
C417 N412 1.363 . S
C417 N414 1.377 . S
C417 C430 1.479 . S
C418 C415 1.480 . S
C418 C419 1.383 . S
C418 C423 1.385 . S
C419 H400 0.947 . S
C419 C418 1.383 . S
C419 C420 1.388 . S
C420 H401 0.946 . S
C420 C419 1.388 . S
C420 C421 1.384 . S
C421 C420 1.384 . S
C421 C422 1.377 . S
C422 H402 0.953 . S
C422 C421 1.377 . S
C422 C423 1.369 . S
C423 H403 0.945 . S
C423 C418 1.385 . S
C423 C422 1.369 . S
C424 C416 1.457 . S
C424 C425 1.372 . S
C424 C429 1.364 . S
C425 H404 0.952 . S
C425 C424 1.372 . S
C425 C426 1.389 . S
C426 H405 0.949 . S
C426 C425 1.389 . S
C426 C427 1.387 . S
C427 C426 1.387 . S
C427 C428 1.372 . S
C428 H406 0.950 . S
C428 C427 1.372 . S
C428 C429 1.379 . S
C429 H407 0.948 . S
C429 C424 1.364 . S
C429 C428 1.379 . S
C430 C399 1.383 . S
C430 C417 1.479 . S
C430 C431 1.398 . S
C431 C396 1.382 . S
C431 H408 0.951 . S
C431 C430 1.398 . S
C432 C433 1.384 . S
C432 H445 0.947 . S
C432 C467 1.382 . S
C433 C432 1.384 . S
C433 C434 1.378 . S
C434 C433 1.378 . S
C434 C435 1.378 . S
C434 H446 0.952 . S
C435 C434 1.378 . S
C435 H447 0.950 . S
C435 C466 1.383 . S
H436 C455 0.947 . S
H437 C456 0.946 . S
H438 C458 0.953 . S
H439 C459 0.945 . S
H440 C461 0.952 . S
H441 C462 0.949 . S
H442 C464 0.950 . S
H443 C465 0.948 . S
H444 C467 0.951 . S
H445 C432 0.947 . S
H446 C434 0.952 . S
H447 C435 0.950 . S
N448 C451 1.382 . S
N448 C453 1.363 . S
N449 C451 1.371 . S
N449 C452 1.372 . S
N450 C452 1.361 . S
N450 C453 1.377 . S
C451 N448 1.382 . S
C451 N449 1.371 . S
C451 C454 1.480 . S
C452 N449 1.372 . S
C452 N450 1.361 . S
C452 C460 1.457 . S
C453 N448 1.363 . S
C453 N450 1.377 . S
C453 C466 1.479 . S
C454 C451 1.480 . S
C454 C455 1.383 . S
C454 C459 1.385 . S
C455 H436 0.947 . S
C455 C454 1.383 . S
C455 C456 1.388 . S
C456 H437 0.946 . S
C456 C455 1.388 . S
C456 C457 1.384 . S
C457 C456 1.384 . S
C457 C458 1.377 . S
C458 H438 0.953 . S
C458 C457 1.377 . S
C458 C459 1.369 . S
C459 H439 0.945 . S
C459 C454 1.385 . S
C459 C458 1.369 . S
C460 C452 1.457 . S
C460 C461 1.372 . S
C460 C465 1.364 . S
C461 H440 0.952 . S
C461 C460 1.372 . S
C461 C462 1.389 . S
C462 H441 0.949 . S
C462 C461 1.389 . S
C462 C463 1.387 . S
C463 C462 1.387 . S
C463 C464 1.372 . S
C464 H442 0.950 . S
C464 C463 1.372 . S
C464 C465 1.379 . S
C465 H443 0.948 . S
C465 C460 1.364 . S
C465 C464 1.379 . S
C466 C435 1.383 . S
C466 C453 1.479 . S
C466 C467 1.398 . S
C467 C432 1.382 . S
C467 H444 0.951 . S
C467 C466 1.398 . S
C468 C469 1.384 . S
C468 H481 0.947 . S
C468 C503 1.382 . S
C469 C468 1.384 . S
C469 C470 1.378 . S
C470 C469 1.378 . S
C470 C471 1.378 . S
C470 H482 0.952 . S
C471 C470 1.378 . S
C471 H483 0.950 . S
C471 C502 1.383 . S
H472 C491 0.947 . S
H473 C492 0.946 . S
H474 C494 0.953 . S
H475 C495 0.945 . S
H476 C497 0.952 . S
H477 C498 0.949 . S
H478 C500 0.950 . S
H479 C501 0.948 . S
H480 C503 0.951 . S
H481 C468 0.947 . S
H482 C470 0.952 . S
H483 C471 0.950 . S
N484 C487 1.382 . S
N484 C489 1.363 . S
N485 C487 1.371 . S
N485 C488 1.372 . S
N486 C488 1.361 . S
N486 C489 1.377 . S
C487 N484 1.382 . S
C487 N485 1.371 . S
C487 C490 1.480 . S
C488 N485 1.372 . S
C488 N486 1.361 . S
C488 C496 1.457 . S
C489 N484 1.363 . S
C489 N486 1.377 . S
C489 C502 1.479 . S
C490 C487 1.480 . S
C490 C491 1.383 . S
C490 C495 1.385 . S
C491 H472 0.947 . S
C491 C490 1.383 . S
C491 C492 1.388 . S
C492 H473 0.946 . S
C492 C491 1.388 . S
C492 C493 1.384 . S
C493 C492 1.384 . S
C493 C494 1.377 . S
C494 H474 0.953 . S
C494 C493 1.377 . S
C494 C495 1.369 . S
C495 H475 0.945 . S
C495 C490 1.385 . S
C495 C494 1.369 . S
C496 C488 1.457 . S
C496 C497 1.372 . S
C496 C501 1.364 . S
C497 H476 0.952 . S
C497 C496 1.372 . S
C497 C498 1.389 . S
C498 H477 0.949 . S
C498 C497 1.389 . S
C498 C499 1.387 . S
C499 C498 1.387 . S
C499 C500 1.372 . S
C500 H478 0.950 . S
C500 C499 1.372 . S
C500 C501 1.379 . S
C501 H479 0.948 . S
C501 C496 1.364 . S
C501 C500 1.379 . S
C502 C471 1.383 . S
C502 C489 1.479 . S
C502 C503 1.398 . S
C503 C468 1.382 . S
C503 H480 0.951 . S
C503 C502 1.398 . S
C504 C505 1.384 . S
C504 H517 0.947 . S
C504 C539 1.382 . S
C505 C504 1.384 . S
C505 C506 1.378 . S
C506 C505 1.378 . S
C506 C507 1.378 . S
C506 H518 0.952 . S
C507 C506 1.378 . S
C507 H519 0.950 . S
C507 C538 1.383 . S
H508 C527 0.947 . S
H509 C528 0.946 . S
H510 C530 0.953 . S
H511 C531 0.945 . S
H512 C533 0.952 . S
H513 C534 0.949 . S
H514 C536 0.950 . S
H515 C537 0.948 . S
H516 C539 0.951 . S
H517 C504 0.947 . S
H518 C506 0.952 . S
H519 C507 0.950 . S
N520 C523 1.382 . S
N520 C525 1.363 . S
N521 C523 1.371 . S
N521 C524 1.372 . S
N522 C524 1.361 . S
N522 C525 1.377 . S
C523 N520 1.382 . S
C523 N521 1.371 . S
C523 C526 1.480 . S
C524 N521 1.372 . S
C524 N522 1.361 . S
C524 C532 1.457 . S
C525 N520 1.363 . S
C525 N522 1.377 . S
C525 C538 1.479 . S
C526 C523 1.480 . S
C526 C527 1.383 . S
C526 C531 1.385 . S
C527 H508 0.947 . S
C527 C526 1.383 . S
C527 C528 1.388 . S
C528 H509 0.946 . S
C528 C527 1.388 . S
C528 C529 1.384 . S
C529 C528 1.384 . S
C529 C530 1.377 . S
C530 H510 0.953 . S
C530 C529 1.377 . S
C530 C531 1.369 . S
C531 H511 0.945 . S
C531 C526 1.385 . S
C531 C530 1.369 . S
C532 C524 1.457 . S
C532 C533 1.372 . S
C532 C537 1.364 . S
C533 H512 0.952 . S
C533 C532 1.372 . S
C533 C534 1.389 . S
C534 H513 0.949 . S
C534 C533 1.389 . S
C534 C535 1.387 . S
C535 C534 1.387 . S
C535 C536 1.372 . S
C536 H514 0.950 . S
C536 C535 1.372 . S
C536 C537 1.379 . S
C537 H515 0.948 . S
C537 C532 1.364 . S
C537 C536 1.379 . S
C538 C507 1.383 . S
C538 C525 1.479 . S
C538 C539 1.398 . S
C539 C504 1.382 . S
C539 H516 0.951 . S
C539 C538 1.398 . S
C540 C541 1.384 . S
C540 H553 0.947 . S
C540 C575 1.382 . S
C541 C540 1.384 . S
C541 C542 1.378 . S
C542 C541 1.378 . S
C542 C543 1.378 . S
C542 H554 0.952 . S
C543 C542 1.378 . S
C543 H555 0.950 . S
C543 C574 1.383 . S
H544 C563 0.947 . S
H545 C564 0.946 . S
H546 C566 0.953 . S
H547 C567 0.945 . S
H548 C569 0.952 . S
H549 C570 0.949 . S
H550 C572 0.950 . S
H551 C573 0.948 . S
H552 C575 0.951 . S
H553 C540 0.947 . S
H554 C542 0.952 . S
H555 C543 0.950 . S
N556 C559 1.382 . S
N556 C561 1.363 . S
N557 C559 1.371 . S
N557 C560 1.372 . S
N558 C560 1.361 . S
N558 C561 1.377 . S
C559 N556 1.382 . S
C559 N557 1.371 . S
C559 C562 1.480 . S
C560 N557 1.372 . S
C560 N558 1.361 . S
C560 C568 1.457 . S
C561 N556 1.363 . S
C561 N558 1.377 . S
C561 C574 1.479 . S
C562 C559 1.480 . S
C562 C563 1.383 . S
C562 C567 1.385 . S
C563 H544 0.947 . S
C563 C562 1.383 . S
C563 C564 1.388 . S
C564 H545 0.946 . S
C564 C563 1.388 . S
C564 C565 1.384 . S
C565 C564 1.384 . S
C565 C566 1.377 . S
C566 H546 0.953 . S
C566 C565 1.377 . S
C566 C567 1.369 . S
C567 H547 0.945 . S
C567 C562 1.385 . S
C567 C566 1.369 . S
C568 C560 1.457 . S
C568 C569 1.372 . S
C568 C573 1.364 . S
C569 H548 0.952 . S
C569 C568 1.372 . S
C569 C570 1.389 . S
C570 H549 0.949 . S
C570 C569 1.389 . S
C570 C571 1.387 . S
C571 C570 1.387 . S
C571 C572 1.372 . S
C572 H550 0.950 . S
C572 C571 1.372 . S
C572 C573 1.379 . S
C573 H551 0.948 . S
C573 C568 1.364 . S
C573 C572 1.379 . S
C574 C543 1.383 . S
C574 C561 1.479 . S
C574 C575 1.398 . S
C575 C540 1.382 . S
C575 H552 0.951 . S
C575 C574 1.398 . S
C576 C577 1.384 . S
C576 H589 0.947 . S
C576 C611 1.382 . S
C577 C576 1.384 . S
C577 C578 1.378 . S
C578 C577 1.378 . S
C578 C579 1.378 . S
C578 H590 0.952 . S
C579 C578 1.378 . S
C579 H591 0.950 . S
C579 C610 1.383 . S
H580 C599 0.947 . S
H581 C600 0.946 . S
H582 C602 0.953 . S
H583 C603 0.945 . S
H584 C605 0.952 . S
H585 C606 0.949 . S
H586 C608 0.956 1_655 S
H587 C609 0.948 . S
H588 C611 0.951 . S
H589 C576 0.947 . S
H590 C578 0.952 . S
H591 C579 0.950 . S
N592 C595 1.382 . S
N592 C597 1.363 . S
N593 C595 1.371 . S
N593 C596 1.372 . S
N594 C596 1.361 . S
N594 C597 1.377 . S
C595 N592 1.382 . S
C595 N593 1.371 . S
C595 C598 1.480 . S
C596 N593 1.372 . S
C596 N594 1.361 . S
C596 C604 1.457 . S
C597 N592 1.363 . S
C597 N594 1.377 . S
C597 C610 1.479 . S
C598 C595 1.480 . S
C598 C599 1.383 . S
C598 C603 1.385 . S
C599 H580 0.947 . S
C599 C598 1.383 . S
C599 C600 1.388 . S
C600 H581 0.946 . S
C600 C599 1.388 . S
C600 C601 1.384 . S
C601 C600 1.384 . S
C601 C602 1.377 . S
C602 H582 0.953 . S
C602 C601 1.377 . S
C602 C603 1.369 . S
C603 H583 0.945 . S
C603 C598 1.385 . S
C603 C602 1.369 . S
C604 C596 1.457 . S
C604 C605 1.372 . S
C604 C609 1.364 . S
C605 H584 0.952 . S
C605 C604 1.372 . S
C605 C606 1.389 . S
C606 H585 0.949 . S
C606 C605 1.389 . S
C606 C607 1.387 . S
C607 C606 1.387 . S
C607 C608 1.372 . S
C608 H586 0.956 1_455 S
C608 C607 1.372 . S
C608 C609 1.379 . S
C609 H587 0.948 . S
C609 C604 1.364 . S
C609 C608 1.379 . S
C610 C579 1.383 . S
C610 C597 1.479 . S
C610 C611 1.398 . S
C611 C576 1.382 . S
C611 H588 0.951 . S
C611 C610 1.398 . S
C612 C613 1.384 . S
C612 H625 0.947 . S
C612 C647 1.382 . S
C613 C612 1.384 . S
C613 C614 1.378 . S
C614 C613 1.378 . S
C614 C615 1.378 . S
C614 H626 0.952 . S
C615 C614 1.378 . S
C615 H627 0.950 . S
C615 C646 1.383 . S
H616 C635 0.947 . S
H617 C636 0.946 . S
H618 C638 0.953 . S
H619 C639 0.945 . S
H620 C641 0.952 . S
H621 C642 0.949 . S
H622 C644 0.950 . S
H623 C645 0.948 . S
H624 C647 0.951 . S
H625 C612 0.947 . S
H626 C614 0.952 . S
H627 C615 0.950 . S
N628 C631 1.382 . S
N628 C633 1.363 . S
N629 C631 1.371 . S
N629 C632 1.372 . S
N630 C632 1.361 . S
N630 C633 1.377 . S
C631 N628 1.382 . S
C631 N629 1.371 . S
C631 C634 1.480 . S
C632 N629 1.372 . S
C632 N630 1.361 . S
C632 C640 1.457 . S
C633 N628 1.363 . S
C633 N630 1.377 . S
C633 C646 1.479 . S
C634 C631 1.480 . S
C634 C635 1.383 . S
C634 C639 1.385 . S
C635 H616 0.947 . S
C635 C634 1.383 . S
C635 C636 1.388 . S
C636 H617 0.946 . S
C636 C635 1.388 . S
C636 C637 1.384 . S
C637 C636 1.384 . S
C637 C638 1.377 . S
C638 H618 0.953 . S
C638 C637 1.377 . S
C638 C639 1.369 . S
C639 H619 0.945 . S
C639 C634 1.385 . S
C639 C638 1.369 . S
C640 C632 1.457 . S
C640 C641 1.372 . S
C640 C645 1.364 . S
C641 H620 0.952 . S
C641 C640 1.372 . S
C641 C642 1.389 . S
C642 H621 0.949 . S
C642 C641 1.389 . S
C642 C643 1.387 . S
C643 C642 1.387 . S
C643 C644 1.372 . S
C644 H622 0.950 . S
C644 C643 1.372 . S
C644 C645 1.379 . S
C645 H623 0.948 . S
C645 C640 1.364 . S
C645 C644 1.379 . S
C646 C615 1.383 . S
C646 C633 1.479 . S
C646 C647 1.398 . S
C647 C612 1.382 . S
C647 H624 0.951 . S
C647 C646 1.398 . S
C648 Eu649 2.835 . S
C648 C650 1.500 . S
C648 O668 1.257 1_545 S
C648 O669 1.260 . S
Eu649 C648 2.835 . S
Eu649 O668 2.473 1_545 S
Eu649 O669 2.480 . S
Eu649 O670 2.430 . S
Eu649 O671 2.670 1_554 S
Eu649 O672 2.394 1_545 S
Eu649 O677 2.355 1_545 S
Eu649 O679 2.374 . S
C650 C648 1.500 . S
C650 C651 1.377 . S
C650 C655 1.377 1_545 S
C651 C650 1.377 . S
C651 C652 1.395 . S
C651 H680 0.931 . S
C652 C651 1.395 . S
C652 C653 1.383 1_545 S
C652 H681 0.931 . S
C653 C652 1.383 1_565 S
C653 C654 1.394 . S
C654 C653 1.394 . S
C654 C655 1.378 . S
C654 H682 0.931 . S
C655 C650 1.377 1_565 S
C655 C654 1.378 . S
C655 H683 0.931 . S
C656 O670 1.245 1_556 S
C656 O671 1.275 . S
C657 O672 1.251 . S
C657 O673 1.251 1_554 S
C658 Eu659 2.835 . S
C658 C660 1.500 . S
C658 O674 1.257 1_565 S
C658 O675 1.260 . S
Eu659 C658 2.835 . S
Eu659 O671 2.355 1_565 S
Eu659 O673 2.374 . S
Eu659 O674 2.473 1_565 S
Eu659 O675 2.480 . S
Eu659 O676 2.430 . S
Eu659 O677 2.670 1_556 S
Eu659 O678 2.394 1_565 S
C660 C658 1.500 . S
C660 C661 1.377 . S
C660 C665 1.377 1_565 S
C661 C660 1.377 . S
C661 C662 1.395 . S
C661 H684 0.931 . S
C662 C661 1.395 . S
C662 C663 1.383 1_565 S
C662 H685 0.931 . S
C663 C662 1.383 1_545 S
C663 C664 1.394 . S
C664 C663 1.394 . S
C664 C665 1.378 . S
C664 H686 0.931 . S
C665 C660 1.377 1_545 S
C665 C664 1.378 . S
C665 H687 0.931 . S
C666 O676 1.259 1_554 S
C666 O677 1.270 . S
C667 O678 1.251 . S
C667 O679 1.251 1_556 S
O668 C648 1.257 1_565 S
O668 Eu649 2.473 1_565 S
O669 C648 1.260 . S
O669 Eu649 2.480 . S
O670 Eu649 2.430 . S
O670 C656 1.245 1_554 S
O671 Eu649 2.670 1_556 S
O671 C656 1.275 . S
O671 Eu659 2.355 1_545 S
O672 Eu649 2.394 1_565 S
O672 C657 1.251 . S
O673 C657 1.251 1_556 S
O673 Eu659 2.374 . S
O674 C658 1.257 1_545 S
O674 Eu659 2.473 1_545 S
O675 C658 1.260 . S
O675 Eu659 2.480 . S
O676 Eu659 2.430 . S
O676 C666 1.259 1_556 S
O677 Eu649 2.355 1_565 S
O677 Eu659 2.670 1_554 S
O677 C666 1.270 . S
O678 Eu659 2.394 1_545 S
O678 C667 1.251 . S
O679 Eu649 2.374 . S
O679 C667 1.251 1_554 S
H680 C651 0.931 . S
H681 C652 0.931 . S
H682 C654 0.931 . S
H683 C655 0.931 . S
H684 C661 0.931 . S
H685 C662 0.931 . S
H686 C664 0.931 . S
H687 C665 0.931 . S
C688 Eu689 2.835 . S
C688 C690 1.500 1_655 S
C688 O708 1.257 1_655 S
C688 O709 1.260 . S
Eu689 C688 2.835 . S
Eu689 O708 2.473 1_655 S
Eu689 O709 2.480 . S
Eu689 O710 2.430 . S
Eu689 O711 2.670 1_554 S
Eu689 O712 2.394 1_655 S
Eu689 O717 2.355 1_655 S
Eu689 O719 2.374 . S
C690 C688 1.500 1_455 S
C690 C691 1.377 1_455 S
C690 C695 1.377 . S
C691 C690 1.377 1_655 S
C691 C692 1.395 . S
C691 H720 0.931 . S
C692 C691 1.395 . S
C692 C693 1.383 1_655 S
C692 H721 0.931 . S
C693 C692 1.383 1_455 S
C693 C694 1.394 . S
C694 C693 1.394 . S
C694 C695 1.378 . S
C694 H722 0.931 . S
C695 C690 1.377 . S
C695 C694 1.378 . S
C695 H723 0.931 . S
C696 O710 1.259 1_556 S
C696 O711 1.270 . S
C697 O712 1.251 . S
C697 O713 1.251 . S
C698 Eu699 2.835 . S
C698 C700 1.500 1_455 S
C698 O714 1.257 1_455 S
C698 O715 1.260 . S
Eu699 C698 2.835 . S
Eu699 O711 2.355 1_455 S
Eu699 O713 2.374 1_556 S
Eu699 O714 2.473 1_455 S
Eu699 O715 2.480 . S
Eu699 O716 2.430 . S
Eu699 O717 2.670 1_556 S
Eu699 O718 2.394 1_455 S
C700 C698 1.500 1_655 S
C700 C701 1.377 1_655 S
C700 C705 1.377 . S
C701 C700 1.377 1_455 S
C701 C702 1.395 . S
C701 H724 0.931 . S
C702 C701 1.395 . S
C702 C703 1.383 1_455 S
C702 H725 0.931 . S
C703 C702 1.383 1_655 S
C703 C704 1.394 . S
C704 C703 1.394 . S
C704 C705 1.378 . S
C704 H726 0.931 . S
C705 C700 1.377 . S
C705 C704 1.378 . S
C705 H727 0.931 . S
C706 O716 1.259 1_554 S
C706 O717 1.270 . S
C707 O718 1.251 . S
C707 O719 1.251 1_556 S
O708 C688 1.257 1_455 S
O708 Eu689 2.473 1_455 S
O709 C688 1.260 . S
O709 Eu689 2.480 . S
O710 Eu689 2.430 . S
O710 C696 1.259 1_554 S
O711 Eu689 2.670 1_556 S
O711 C696 1.270 . S
O711 Eu699 2.355 1_655 S
O712 Eu689 2.394 1_455 S
O712 C697 1.251 . S
O713 C697 1.251 . S
O713 Eu699 2.374 1_554 S
O714 C698 1.257 1_655 S
O714 Eu699 2.473 1_655 S
O715 C698 1.260 . S
O715 Eu699 2.480 . S
O716 Eu699 2.430 . S
O716 C706 1.259 1_556 S
O717 Eu689 2.355 1_455 S
O717 Eu699 2.670 1_554 S
O717 C706 1.270 . S
O718 Eu699 2.394 1_655 S
O718 C707 1.251 . S
O719 Eu689 2.374 . S
O719 C707 1.251 1_554 S
H720 C691 0.931 . S
H721 C692 0.931 . S
H722 C694 0.931 . S
H723 C695 0.931 . S
H724 C701 0.931 . S
H725 C702 0.931 . S
H726 C704 0.931 . S
H727 C705 0.931 . S
C728 Eu729 2.835 . S
C728 C730 1.500 . S
C728 O748 1.257 . S
C728 O749 1.260 . S
Eu729 C728 2.835 . S
Eu729 O748 2.473 . S
Eu729 O749 2.480 . S
Eu729 O750 2.430 . S
Eu729 O751 2.670 1_556 S
Eu729 O752 2.394 . S
Eu729 O757 2.355 . S
Eu729 O759 2.346 1_556 S
C730 C728 1.500 . S
C730 C731 1.377 . S
C730 C735 1.377 . S
C731 C730 1.377 . S
C731 C732 1.395 . S
C731 H760 0.931 . S
C732 C731 1.395 . S
C732 C733 1.383 . S
C732 H761 0.931 . S
C733 C732 1.383 . S
C733 C734 1.394 . S
C734 C733 1.394 . S
C734 C735 1.378 . S
C734 H762 0.931 . S
C735 C730 1.377 . S
C735 C734 1.378 . S
C735 H763 0.931 . S
C736 O750 1.259 1_554 S
C736 O751 1.270 . S
C737 O752 1.251 . S
C737 O753 1.251 1_556 S
C738 Eu739 2.835 . S
C738 C740 1.500 . S
C738 O754 1.257 . S
C738 O755 1.260 . S
Eu739 C738 2.835 . S
Eu739 O751 2.355 . S
Eu739 O753 2.374 . S
Eu739 O754 2.473 . S
Eu739 O755 2.480 . S
Eu739 O756 2.430 . S
Eu739 O757 2.670 1_554 S
Eu739 O758 2.394 . S
C740 C738 1.500 . S
C740 C741 1.377 . S
C740 C745 1.377 . S
C741 C740 1.377 . S
C741 C742 1.395 . S
C741 H764 0.931 . S
C742 C741 1.395 . S
C742 C743 1.383 . S
C742 H765 0.931 . S
C743 C742 1.383 . S
C743 C744 1.394 . S
C744 C743 1.394 . S
C744 C745 1.378 . S
C744 H766 0.931 . S
C745 C740 1.377 . S
C745 C744 1.378 . S
C745 H767 0.931 . S
C746 O756 1.259 1_556 S
C746 O757 1.270 . S
C747 O758 1.251 . S
C747 O759 1.287 . S
O748 C728 1.257 . S
O748 Eu729 2.473 . S
O749 C728 1.260 . S
O749 Eu729 2.480 . S
O750 Eu729 2.430 . S
O750 C736 1.259 1_556 S
O751 Eu729 2.670 1_554 S
O751 C736 1.270 . S
O751 Eu739 2.355 . S
O752 Eu729 2.394 . S
O752 C737 1.251 . S
O753 C737 1.251 1_554 S
O753 Eu739 2.374 . S
O754 C738 1.257 . S
O754 Eu739 2.473 . S
O755 C738 1.260 . S
O755 Eu739 2.480 . S
O756 Eu739 2.430 . S
O756 C746 1.259 1_554 S
O757 Eu729 2.355 . S
O757 Eu739 2.670 1_556 S
O757 C746 1.270 . S
O758 Eu739 2.394 . S
O758 C747 1.251 . S
O759 Eu729 2.346 1_554 S
O759 C747 1.287 . S
H760 C731 0.931 . S
H761 C732 0.931 . S
H762 C734 0.931 . S
H763 C735 0.931 . S
H764 C741 0.931 . S
H765 C742 0.931 . S
H766 C744 0.931 . S
H767 C745 0.931 . S
C768 Eu769 2.835 . S
C768 C770 1.500 . S
C768 O788 1.257 . S
C768 O789 1.260 . S
Eu769 C768 2.835 . S
Eu769 O788 2.473 . S
Eu769 O789 2.480 . S
Eu769 O790 2.430 . S
Eu769 O791 2.670 . S
Eu769 O792 2.394 . S
Eu769 O797 2.355 . S
Eu769 O799 2.374 . S
C770 C768 1.500 . S
C770 C771 1.377 . S
C770 C775 1.377 . S
C771 C770 1.377 . S
C771 C772 1.395 . S
C771 H800 0.931 . S
C772 C771 1.395 . S
C772 C773 1.383 . S
C772 H801 0.931 . S
C773 C772 1.383 . S
C773 C774 1.394 . S
C774 C773 1.394 . S
C774 C775 1.378 . S
C774 H802 0.931 . S
C775 C770 1.377 . S
C775 C774 1.378 . S
C775 H803 0.931 . S
C776 O790 1.259 . S
C776 O791 1.270 . S
C777 O792 1.251 . S
C777 O793 1.251 . S
C778 Eu779 2.835 . S
C778 C780 1.500 . S
C778 O794 1.257 . S
C778 O795 1.260 . S
Eu779 C778 2.835 . S
Eu779 O791 2.355 . S
Eu779 O793 2.374 . S
Eu779 O794 2.473 . S
Eu779 O795 2.480 . S
Eu779 O796 2.430 . S
Eu779 O797 2.670 . S
Eu779 O798 2.394 . S
C780 C778 1.500 . S
C780 C781 1.377 . S
C780 C785 1.377 . S
C781 C780 1.377 . S
C781 C782 1.395 . S
C781 H804 0.931 . S
C782 C781 1.395 . S
C782 C783 1.383 . S
C782 H805 0.931 . S
C783 C782 1.383 . S
C783 C784 1.394 . S
C784 C783 1.394 . S
C784 C785 1.378 . S
C784 H806 0.931 . S
C785 C780 1.377 . S
C785 C784 1.378 . S
C785 H807 0.931 . S
C786 O796 1.259 . S
C786 O797 1.270 . S
C787 O798 1.251 . S
C787 O799 1.251 . S
O788 C768 1.257 . S
O788 Eu769 2.473 . S
O789 C768 1.260 . S
O789 Eu769 2.480 . S
O790 Eu769 2.430 . S
O790 C776 1.259 . S
O791 Eu769 2.670 . S
O791 C776 1.270 . S
O791 Eu779 2.355 . S
O792 Eu769 2.394 . S
O792 C777 1.251 . S
O793 C777 1.251 . S
O793 Eu779 2.374 . S
O794 C778 1.257 . S
O794 Eu779 2.473 . S
O795 C778 1.260 . S
O795 Eu779 2.480 . S
O796 Eu779 2.430 . S
O796 C786 1.259 . S
O797 Eu769 2.355 . S
O797 Eu779 2.670 . S
O797 C786 1.270 . S
O798 Eu779 2.394 . S
O798 C787 1.251 . S
O799 Eu769 2.374 . S
O799 C787 1.251 . S
H800 C771 0.931 . S
H801 C772 0.931 . S
H802 C774 0.931 . S
H803 C775 0.931 . S
H804 C781 0.931 . S
H805 C782 0.931 . S
H806 C784 0.931 . S
H807 C785 0.931 . S
C808 Eu809 2.835 . S
C808 C810 1.500 . S
C808 O828 1.257 . S
C808 O829 1.260 . S
Eu809 C808 2.835 . S
Eu809 O828 2.473 . S
Eu809 O829 2.480 . S
Eu809 O830 2.430 . S
Eu809 O831 2.670 . S
Eu809 O832 2.394 . S
Eu809 O837 2.355 . S
Eu809 O839 2.374 . S
C810 C808 1.500 . S
C810 C811 1.377 . S
C810 C815 1.377 . S
C811 C810 1.377 . S
C811 C812 1.395 . S
C811 H840 0.931 . S
C812 C811 1.395 . S
C812 C813 1.383 . S
C812 H841 0.931 . S
C813 C812 1.383 . S
C813 C814 1.394 . S
C814 C813 1.394 . S
C814 C815 1.378 . S
C814 H842 0.931 . S
C815 C810 1.377 . S
C815 C814 1.378 . S
C815 H843 0.931 . S
C816 O830 1.259 . S
C816 O831 1.270 . S
C817 O832 1.251 . S
C817 O833 1.251 . S
C818 Eu819 2.835 . S
C818 C820 1.500 . S
C818 O834 1.257 . S
C818 O835 1.260 . S
Eu819 C818 2.835 . S
Eu819 O831 2.355 . S
Eu819 O833 2.374 . S
Eu819 O834 2.473 . S
Eu819 O835 2.480 . S
Eu819 O836 2.430 . S
Eu819 O837 2.670 . S
Eu819 O838 2.394 . S
C820 C818 1.500 . S
C820 C821 1.377 . S
C820 C825 1.377 . S
C821 C820 1.377 . S
C821 C822 1.395 . S
C821 H844 0.931 . S
C822 C821 1.395 . S
C822 C823 1.383 . S
C822 H845 0.931 . S
C823 C822 1.383 . S
C823 C824 1.394 . S
C824 C823 1.394 . S
C824 C825 1.378 . S
C824 H846 0.931 . S
C825 C820 1.377 . S
C825 C824 1.378 . S
C825 H847 0.931 . S
C826 O836 1.259 . S
C826 O837 1.270 . S
C827 O838 1.251 . S
C827 O839 1.251 . S
O828 C808 1.257 . S
O828 Eu809 2.473 . S
O829 C808 1.260 . S
O829 Eu809 2.480 . S
O830 Eu809 2.430 . S
O830 C816 1.259 . S
O831 Eu809 2.670 . S
O831 C816 1.270 . S
O831 Eu819 2.355 . S
O832 Eu809 2.394 . S
O832 C817 1.251 . S
O833 C817 1.251 . S
O833 Eu819 2.374 . S
O834 C818 1.257 . S
O834 Eu819 2.473 . S
O835 C818 1.260 . S
O835 Eu819 2.480 . S
O836 Eu819 2.430 . S
O836 C826 1.259 . S
O837 Eu809 2.355 . S
O837 Eu819 2.670 . S
O837 C826 1.270 . S
O838 Eu819 2.394 . S
O838 C827 1.251 . S
O839 Eu809 2.374 . S
O839 C827 1.251 . S
H840 C811 0.931 . S
H841 C812 0.931 . S
H842 C814 0.931 . S
H843 C815 0.931 . S
H844 C821 0.931 . S
H845 C822 0.931 . S
H846 C824 0.931 . S
H847 C825 0.931 . S
C848 Eu849 2.835 . S
C848 C850 1.500 . S
C848 O868 1.257 . S
C848 O869 1.260 . S
Eu849 C848 2.835 . S
Eu849 O868 2.473 . S
Eu849 O869 2.480 . S
Eu849 O870 2.430 . S
Eu849 O871 2.670 . S
Eu849 O872 2.394 . S
Eu849 O877 2.355 . S
Eu849 O879 2.374 . S
C850 C848 1.500 . S
C850 C851 1.377 . S
C850 C855 1.377 . S
C851 C850 1.377 . S
C851 C852 1.395 . S
C851 H880 0.931 . S
C852 C851 1.395 . S
C852 C853 1.383 . S
C852 H881 0.931 . S
C853 C852 1.383 . S
C853 C854 1.394 . S
C854 C853 1.394 . S
C854 C855 1.378 . S
C854 H882 0.931 . S
C855 C850 1.377 . S
C855 C854 1.378 . S
C855 H883 0.931 . S
C856 O870 1.259 . S
C856 O871 1.270 . S
C857 O872 1.251 . S
C857 O873 1.251 . S
C858 Eu859 2.835 . S
C858 C860 1.500 . S
C858 O874 1.257 . S
C858 O875 1.260 . S
Eu859 C858 2.835 . S
Eu859 O871 2.355 . S
Eu859 O873 2.374 . S
Eu859 O874 2.473 . S
Eu859 O875 2.480 . S
Eu859 O876 2.430 . S
Eu859 O877 2.670 . S
Eu859 O878 2.394 . S
C860 C858 1.500 . S
C860 C861 1.377 . S
C860 C865 1.377 . S
C861 C860 1.377 . S
C861 C862 1.395 . S
C861 H884 0.931 . S
C862 C861 1.395 . S
C862 C863 1.383 . S
C862 H885 0.931 . S
C863 C862 1.383 . S
C863 C864 1.394 . S
C864 C863 1.394 . S
C864 C865 1.378 . S
C864 H886 0.931 . S
C865 C860 1.377 . S
C865 C864 1.378 . S
C865 H887 0.931 . S
C866 O876 1.259 . S
C866 O877 1.270 . S
C867 O878 1.251 . S
C867 O879 1.251 . S
O868 C848 1.257 . S
O868 Eu849 2.473 . S
O869 C848 1.260 . S
O869 Eu849 2.480 . S
O870 Eu849 2.430 . S
O870 C856 1.259 . S
O871 Eu849 2.670 . S
O871 C856 1.270 . S
O871 Eu859 2.355 . S
O872 Eu849 2.394 . S
O872 C857 1.251 . S
O873 C857 1.251 . S
O873 Eu859 2.374 . S
O874 C858 1.257 . S
O874 Eu859 2.473 . S
O875 C858 1.260 . S
O875 Eu859 2.480 . S
O876 Eu859 2.430 . S
O876 C866 1.259 . S
O877 Eu849 2.355 . S
O877 Eu859 2.670 . S
O877 C866 1.270 . S
O878 Eu859 2.394 . S
O878 C867 1.251 . S
O879 Eu849 2.374 . S
O879 C867 1.251 . S
H880 C851 0.931 . S
H881 C852 0.931 . S
H882 C854 0.931 . S
H883 C855 0.931 . S
H884 C861 0.931 . S
H885 C862 0.931 . S
H886 C864 0.931 . S
H887 C865 0.931 . S
C888 Eu889 2.835 . S
C888 C890 1.500 . S
C888 O908 1.257 . S
C888 O909 1.260 . S
Eu889 C888 2.835 . S
Eu889 O908 2.473 . S
Eu889 O909 2.480 . S
Eu889 O910 2.430 . S
Eu889 O911 2.670 . S
Eu889 O912 2.394 . S
Eu889 O917 2.355 . S
Eu889 O919 2.374 . S
C890 C888 1.500 . S
C890 C891 1.377 . S
C890 C895 1.377 . S
C891 C890 1.377 . S
C891 C892 1.395 . S
C891 H920 0.931 . S
C892 C891 1.395 . S
C892 C893 1.383 . S
C892 H921 0.931 . S
C893 C892 1.383 . S
C893 C894 1.394 . S
C894 C893 1.394 . S
C894 C895 1.378 . S
C894 H922 0.931 . S
C895 C890 1.377 . S
C895 C894 1.378 . S
C895 H923 0.931 . S
C896 O910 1.259 . S
C896 O911 1.270 . S
C897 O912 1.251 . S
C897 O913 1.251 . S
C898 Eu899 2.835 . S
C898 C900 1.500 . S
C898 O914 1.257 . S
C898 O915 1.260 . S
Eu899 C898 2.835 . S
Eu899 O911 2.355 . S
Eu899 O913 2.374 . S
Eu899 O914 2.473 . S
Eu899 O915 2.480 . S
Eu899 O916 2.430 . S
Eu899 O917 2.670 . S
Eu899 O918 2.394 . S
C900 C898 1.500 . S
C900 C901 1.377 . S
C900 C905 1.377 . S
C901 C900 1.377 . S
C901 C902 1.395 . S
C901 H924 0.931 . S
C902 C901 1.395 . S
C902 C903 1.383 . S
C902 H925 0.931 . S
C903 C902 1.383 . S
C903 C904 1.394 . S
C904 C903 1.394 . S
C904 C905 1.378 . S
C904 H926 0.931 . S
C905 C900 1.377 . S
C905 C904 1.378 . S
C905 H927 0.931 . S
C906 O916 1.259 . S
C906 O917 1.270 . S
C907 O918 1.251 . S
C907 O919 1.251 . S
O908 C888 1.257 . S
O908 Eu889 2.473 . S
O909 C888 1.260 . S
O909 Eu889 2.480 . S
O910 Eu889 2.430 . S
O910 C896 1.259 . S
O911 Eu889 2.670 . S
O911 C896 1.270 . S
O911 Eu899 2.355 . S
O912 Eu889 2.394 . S
O912 C897 1.251 . S
O913 C897 1.251 . S
O913 Eu899 2.374 . S
O914 C898 1.257 . S
O914 Eu899 2.473 . S
O915 C898 1.260 . S
O915 Eu899 2.480 . S
O916 Eu899 2.430 . S
O916 C906 1.259 . S
O917 Eu889 2.355 . S
O917 Eu899 2.670 . S
O917 C906 1.270 . S
O918 Eu899 2.394 . S
O918 C907 1.251 . S
O919 Eu889 2.374 . S
O919 C907 1.251 . S
H920 C891 0.931 . S
H921 C892 0.931 . S
H922 C894 0.931 . S
H923 C895 0.931 . S
H924 C901 0.931 . S
H925 C902 0.931 . S
H926 C904 0.931 . S
H927 C905 0.931 . S
C928 Eu929 2.835 . S
C928 C930 1.500 . S
C928 O948 1.257 . S
C928 O949 1.260 . S
Eu929 C928 2.835 . S
Eu929 O948 2.473 . S
Eu929 O949 2.480 . S
Eu929 O950 2.430 . S
Eu929 O951 2.670 . S
Eu929 O952 2.394 . S
Eu929 O957 2.355 . S
Eu929 O959 2.374 . S
C930 C928 1.500 . S
C930 C931 1.377 . S
C930 C935 1.377 . S
C931 C930 1.377 . S
C931 C932 1.395 . S
C931 H960 0.931 . S
C932 C931 1.395 . S
C932 C933 1.383 . S
C932 H961 0.931 . S
C933 C932 1.383 . S
C933 C934 1.394 . S
C934 C933 1.394 . S
C934 C935 1.378 . S
C934 H962 0.931 . S
C935 C930 1.377 . S
C935 C934 1.378 . S
C935 H963 0.931 . S
C936 O950 1.259 . S
C936 O951 1.270 . S
C937 O952 1.251 . S
C937 O953 1.251 . S
C938 Eu939 2.835 . S
C938 C940 1.500 . S
C938 O954 1.257 . S
C938 O955 1.260 . S
Eu939 C938 2.835 . S
Eu939 O951 2.355 . S
Eu939 O953 2.374 . S
Eu939 O954 2.473 . S
Eu939 O955 2.480 . S
Eu939 O956 2.430 . S
Eu939 O957 2.670 . S
Eu939 O958 2.394 . S
C940 C938 1.500 . S
C940 C941 1.377 . S
C940 C945 1.377 . S
C941 C940 1.377 . S
C941 C942 1.395 . S
C941 H964 0.931 . S
C942 C941 1.395 . S
C942 C943 1.383 . S
C942 H965 0.931 . S
C943 C942 1.383 . S
C943 C944 1.394 . S
C944 C943 1.394 . S
C944 C945 1.378 . S
C944 H966 0.931 . S
C945 C940 1.377 . S
C945 C944 1.378 . S
C945 H967 0.931 . S
C946 O956 1.259 . S
C946 O957 1.270 . S
C947 O958 1.251 . S
C947 O959 1.251 . S
O948 C928 1.257 . S
O948 Eu929 2.473 . S
O949 C928 1.260 . S
O949 Eu929 2.480 . S
O950 Eu929 2.430 . S
O950 C936 1.259 . S
O951 Eu929 2.670 . S
O951 C936 1.270 . S
O951 Eu939 2.355 . S
O952 Eu929 2.394 . S
O952 C937 1.251 . S
O953 C937 1.251 . S
O953 Eu939 2.374 . S
O954 C938 1.257 . S
O954 Eu939 2.473 . S
O955 C938 1.260 . S
O955 Eu939 2.480 . S
O956 Eu939 2.430 . S
O956 C946 1.259 . S
O957 Eu929 2.355 . S
O957 Eu939 2.670 . S
O957 C946 1.270 . S
O958 Eu939 2.394 . S
O958 C947 1.251 . S
O959 Eu929 2.374 . S
O959 C947 1.251 . S
H960 C931 0.931 . S
H961 C932 0.931 . S
H962 C934 0.931 . S
H963 C935 0.931 . S
H964 C941 0.931 . S
H965 C942 0.931 . S
H966 C944 0.931 . S
H967 C945 0.931 . S
C968 Eu969 2.835 . S
C968 C970 1.500 . S
C968 O988 1.257 . S
C968 O989 1.260 . S
Eu969 C968 2.835 . S
Eu969 O988 2.473 . S
Eu969 O989 2.480 . S
Eu969 O990 2.430 . S
Eu969 O991 2.670 . S
Eu969 O992 2.394 . S
Eu969 O997 2.355 . S
Eu969 O999 2.374 . S
C970 C968 1.500 . S
C970 C971 1.377 . S
C970 C975 1.377 . S
C971 C970 1.377 . S
C971 C972 1.395 . S
C971 H1000 0.931 . S
C972 C971 1.395 . S
C972 C973 1.383 . S
C972 H1001 0.931 . S
C973 C972 1.383 . S
C973 C974 1.394 . S
C974 C973 1.394 . S
C974 C975 1.378 . S
C974 H1002 0.931 . S
C975 C970 1.377 . S
C975 C974 1.378 . S
C975 H1003 0.931 . S
C976 O990 1.259 . S
C976 O991 1.270 . S
C977 O992 1.251 . S
C977 O993 1.251 . S
C978 Eu979 2.835 . S
C978 C980 1.500 . S
C978 O994 1.257 . S
C978 O995 1.260 . S
Eu979 C978 2.835 . S
Eu979 O991 2.355 . S
Eu979 O993 2.374 . S
Eu979 O994 2.473 . S
Eu979 O995 2.480 . S
Eu979 O996 2.430 . S
Eu979 O997 2.670 . S
Eu979 O998 2.394 . S
C980 C978 1.500 . S
C980 C981 1.377 . S
C980 C985 1.377 . S
C981 C980 1.377 . S
C981 C982 1.395 . S
C981 H1004 0.931 . S
C982 C981 1.395 . S
C982 C983 1.383 . S
C982 H1005 0.931 . S
C983 C982 1.383 . S
C983 C984 1.394 . S
C984 C983 1.394 . S
C984 C985 1.378 . S
C984 H1006 0.931 . S
C985 C980 1.377 . S
C985 C984 1.378 . S
C985 H1007 0.931 . S
C986 O996 1.259 . S
C986 O997 1.270 . S
C987 O998 1.251 . S
C987 O999 1.251 . S
O988 C968 1.257 . S
O988 Eu969 2.473 . S
O989 C968 1.260 . S
O989 Eu969 2.480 . S
O990 Eu969 2.430 . S
O990 C976 1.259 . S
O991 Eu969 2.670 . S
O991 C976 1.270 . S
O991 Eu979 2.355 . S
O992 Eu969 2.394 . S
O992 C977 1.251 . S
O993 C977 1.251 . S
O993 Eu979 2.374 . S
O994 C978 1.257 . S
O994 Eu979 2.473 . S
O995 C978 1.260 . S
O995 Eu979 2.480 . S
O996 Eu979 2.430 . S
O996 C986 1.259 . S
O997 Eu969 2.355 . S
O997 Eu979 2.670 . S
O997 C986 1.270 . S
O998 Eu979 2.394 . S
O998 C987 1.251 . S
O999 Eu969 2.374 . S
O999 C987 1.251 . S
H1000 C971 0.931 . S
H1001 C972 0.931 . S
H1002 C974 0.931 . S
H1003 C975 0.931 . S
H1004 C981 0.931 . S
H1005 C982 0.931 . S
H1006 C984 0.931 . S
H1007 C985 0.931 . S
H1008 C1014 0.930 . S
H1009 C1017 0.930 . S
H1010 C1018 0.930 . S
H1011 C1019 0.930 . S
H1012 C1022 0.930 . S
H1013 C1023 0.930 . S
C1014 H1008 0.930 . S
C1014 C1015 1.355 . S
C1014 C1016 1.415 . S
C1015 C1014 1.355 . S
C1015 C1017 1.419 . S
C1016 C1014 1.415 . S
C1016 C1021 1.425 . S
C1016 C1023 1.409 . S
C1017 H1009 0.930 . S
C1017 C1015 1.419 . S
C1017 C1018 1.362 . S
C1018 H1010 0.930 . S
C1018 C1017 1.362 . S
C1018 C1021 1.409 . S
C1019 H1011 0.930 . S
C1019 C1020 1.355 . S
C1019 C1021 1.415 . S
C1020 C1019 1.355 . S
C1020 C1022 1.419 . S
C1021 C1016 1.425 . S
C1021 C1018 1.409 . S
C1021 C1019 1.415 . S
C1022 H1012 0.930 . S
C1022 C1020 1.419 . S
C1022 C1023 1.362 . S
C1023 H1013 0.930 . S
C1023 C1016 1.409 . S
C1023 C1022 1.362 . S
H1024 C1030 0.930 . S
H1025 C1033 0.930 . S
H1026 C1034 0.930 . S
H1027 C1035 0.930 . S
H1028 C1038 0.930 . S
H1029 C1039 0.930 . S
C1030 H1024 0.930 . S
C1030 C1031 1.355 . S
C1030 C1032 1.415 . S
C1031 C1030 1.355 . S
C1031 C1033 1.419 . S
C1032 C1030 1.415 . S
C1032 C1037 1.425 . S
C1032 C1039 1.409 . S
C1033 H1025 0.930 . S
C1033 C1031 1.419 . S
C1033 C1034 1.362 . S
C1034 H1026 0.930 . S
C1034 C1033 1.362 . S
C1034 C1037 1.409 . S
C1035 H1027 0.930 . S
C1035 C1036 1.355 . S
C1035 C1037 1.415 . S
C1036 C1035 1.355 . S
C1036 C1038 1.419 . S
C1037 C1032 1.425 . S
C1037 C1034 1.409 . S
C1037 C1035 1.415 . S
C1038 H1028 0.930 . S
C1038 C1036 1.419 . S
C1038 C1039 1.362 . S
C1039 H1029 0.930 . S
C1039 C1032 1.409 . S
C1039 C1038 1.362 . S
H1040 C1046 0.930 . S
H1041 C1049 0.930 1_556 S
H1042 C1050 0.991 . S
H1043 C1051 0.930 1_556 S
H1044 C1054 0.930 . S
H1045 C1055 0.930 . S
C1046 H1040 0.930 . S
C1046 C1047 1.355 . S
C1046 C1048 1.415 . S
C1047 C1046 1.355 . S
C1047 C1049 1.419 . S
C1048 C1046 1.415 . S
C1048 C1053 1.425 . S
C1048 C1055 1.409 . S
C1049 H1041 0.930 1_554 S
C1049 C1047 1.419 . S
C1049 C1050 1.350 1_554 S
C1050 H1042 0.991 . S
C1050 C1049 1.350 1_556 S
C1050 C1053 1.364 1_556 S
C1051 H1043 0.930 1_554 S
C1051 C1052 1.355 . S
C1051 C1053 1.415 . S
C1052 C1051 1.355 . S
C1052 C1054 1.419 . S
C1053 C1048 1.425 . S
C1053 C1050 1.364 1_554 S
C1053 C1051 1.415 . S
C1054 H1044 0.930 . S
C1054 C1052 1.419 . S
C1054 C1055 1.362 . S
C1055 H1045 0.930 . S
C1055 C1048 1.409 . S
C1055 C1054 1.362 . S
H1056 C1062 0.930 . S
H1057 C1065 0.930 . S
H1058 C1066 0.930 . S
H1059 C1067 0.930 . S
H1060 C1070 0.930 . S
H1061 C1071 0.930 . S
C1062 H1056 0.930 . S
C1062 C1063 1.355 . S
C1062 C1064 1.415 . S
C1063 C1062 1.355 . S
C1063 C1065 1.419 . S
C1064 C1062 1.415 . S
C1064 C1069 1.425 . S
C1064 C1071 1.409 . S
C1065 H1057 0.930 . S
C1065 C1063 1.419 . S
C1065 C1066 1.362 . S
C1066 H1058 0.930 . S
C1066 C1065 1.362 . S
C1066 C1069 1.409 . S
C1067 H1059 0.930 . S
C1067 C1068 1.355 . S
C1067 C1069 1.415 . S
C1068 C1067 1.355 . S
C1068 C1070 1.419 . S
C1069 C1064 1.425 . S
C1069 C1066 1.409 . S
C1069 C1067 1.415 . S
C1070 H1060 0.930 . S
C1070 C1068 1.419 . S
C1070 C1071 1.362 . S
C1071 H1061 0.930 . S
C1071 C1064 1.409 . S
C1071 C1070 1.362 . S
H1072 C1078 0.930 . S
H1073 C1081 0.930 . S
H1074 C1082 0.930 . S
H1075 C1083 0.930 . S
H1076 C1086 0.930 . S
H1077 C1087 0.930 . S
C1078 H1072 0.930 . S
C1078 C1079 1.355 . S
C1078 C1080 1.415 . S
C1079 C1078 1.355 . S
C1079 C1081 1.419 . S
C1080 C1078 1.415 . S
C1080 C1085 1.425 . S
C1080 C1087 1.409 . S
C1081 H1073 0.930 . S
C1081 C1079 1.419 . S
C1081 C1082 1.362 . S
C1082 H1074 0.930 . S
C1082 C1081 1.362 . S
C1082 C1085 1.409 . S
C1083 H1075 0.930 . S
C1083 C1084 1.355 . S
C1083 C1085 1.415 . S
C1084 C1083 1.355 . S
C1084 C1086 1.419 . S
C1085 C1080 1.425 . S
C1085 C1082 1.409 . S
C1085 C1083 1.415 . S
C1086 H1076 0.930 . S
C1086 C1084 1.419 . S
C1086 C1087 1.362 . S
C1087 H1077 0.930 . S
C1087 C1080 1.409 . S
C1087 C1086 1.362 . S
H1088 C1094 0.930 . S
H1089 C1097 0.930 . S
H1090 C1098 0.930 . S
H1091 C1099 0.930 . S
H1092 C1102 0.946 . S
H1093 C1103 0.930 1_554 S
C1094 H1088 0.930 . S
C1094 C1095 1.355 . S
C1094 C1096 1.415 . S
C1095 C1094 1.355 . S
C1095 C1097 1.419 . S
C1096 C1094 1.415 . S
C1096 C1101 1.425 . S
C1096 C1103 1.409 . S
C1097 H1089 0.930 . S
C1097 C1095 1.419 . S
C1097 C1098 1.362 . S
C1098 H1090 0.930 . S
C1098 C1097 1.362 . S
C1098 C1101 1.409 . S
C1099 H1091 0.930 . S
C1099 C1100 1.355 . S
C1099 C1101 1.415 . S
C1100 C1099 1.355 . S
C1100 C1102 1.408 1_556 S
C1101 C1096 1.425 . S
C1101 C1098 1.409 . S
C1101 C1099 1.415 . S
C1102 H1092 0.946 . S
C1102 C1100 1.408 1_554 S
C1102 C1103 1.358 1_554 S
C1103 H1093 0.930 1_556 S
C1103 C1096 1.409 . S
C1103 C1102 1.358 1_556 S
H1104 C1110 0.930 . S
H1105 C1113 0.930 . S
H1106 C1114 0.930 . S
H1107 C1115 0.930 . S
H1108 C1118 0.930 . S
H1109 C1119 0.930 . S
C1110 H1104 0.930 . S
C1110 C1111 1.355 . S
C1110 C1112 1.415 . S
C1111 C1110 1.355 . S
C1111 C1113 1.419 . S
C1112 C1110 1.415 . S
C1112 C1117 1.425 . S
C1112 C1119 1.409 . S
C1113 H1105 0.930 . S
C1113 C1111 1.419 . S
C1113 C1114 1.362 . S
C1114 H1106 0.930 . S
C1114 C1113 1.362 . S
C1114 C1117 1.409 . S
C1115 H1107 0.930 . S
C1115 C1116 1.355 . S
C1115 C1117 1.415 . S
C1116 C1115 1.355 . S
C1116 C1118 1.419 . S
C1117 C1112 1.425 . S
C1117 C1114 1.409 . S
C1117 C1115 1.415 . S
C1118 H1108 0.930 . S
C1118 C1116 1.419 . S
C1118 C1119 1.362 . S
C1119 H1109 0.930 . S
C1119 C1112 1.409 . S
C1119 C1118 1.362 . S
H1120 C1126 0.930 . S
H1121 C1129 0.930 . S
H1122 C1130 0.930 . S
H1123 C1131 0.930 . S
H1124 C1134 0.930 1_554 S
H1125 C1135 0.894 1_554 S
C1126 H1120 0.930 . S
C1126 C1127 1.355 . S
C1126 C1128 1.415 . S
C1127 C1126 1.355 . S
C1127 C1129 1.419 . S
C1128 C1126 1.415 . S
C1128 C1133 1.425 . S
C1128 C1135 1.409 . S
C1129 H1121 0.930 . S
C1129 C1127 1.419 . S
C1129 C1130 1.362 . S
C1130 H1122 0.930 . S
C1130 C1129 1.362 . S
C1130 C1133 1.409 . S
C1131 H1123 0.930 . S
C1131 C1132 1.355 . S
C1131 C1133 1.415 . S
C1132 C1131 1.355 . S
C1132 C1134 1.419 . S
C1133 C1128 1.425 . S
C1133 C1130 1.409 . S
C1133 C1131 1.415 . S
C1134 H1124 0.930 1_556 S
C1134 C1132 1.419 . S
C1134 C1135 1.362 . S
C1135 H1125 0.894 1_556 S
C1135 C1128 1.409 . S
C1135 C1134 1.362 . S
H1136 C1142 0.930 . S
H1137 C1145 0.930 . S
H1138 C1146 0.930 . S
H1139 C1147 0.930 . S
H1140 C1150 0.930 . S
H1141 C1151 0.930 . S
C1142 H1136 0.930 . S
C1142 C1143 1.355 . S
C1142 C1144 1.415 . S
C1143 C1142 1.355 . S
C1143 C1145 1.419 . S
C1144 C1142 1.415 . S
C1144 C1149 1.425 . S
C1144 C1151 1.409 1_556 S
C1145 H1137 0.930 . S
C1145 C1143 1.419 . S
C1145 C1146 1.362 . S
C1146 H1138 0.930 . S
C1146 C1145 1.362 . S
C1146 C1149 1.409 . S
C1147 H1139 0.930 . S
C1147 C1148 1.355 . S
C1147 C1149 1.415 . S
C1148 C1147 1.355 . S
C1148 C1150 1.419 1_556 S
C1149 C1144 1.425 . S
C1149 C1146 1.409 . S
C1149 C1147 1.415 . S
C1150 H1140 0.930 . S
C1150 C1148 1.419 1_554 S
C1150 C1151 1.362 . S
C1151 H1141 0.930 . S
C1151 C1144 1.409 1_554 S
C1151 C1150 1.362 . S
H1152 C1158 0.930 . S
H1153 C1161 0.930 . S
H1154 C1162 0.930 . S
H1155 C1163 0.930 . S
H1156 C1166 0.930 . S
H1157 C1167 0.930 . S
C1158 H1152 0.930 . S
C1158 C1159 1.355 . S
C1158 C1160 1.415 . S
C1159 C1158 1.355 . S
C1159 C1161 1.419 . S
C1160 C1158 1.415 . S
C1160 C1165 1.425 . S
C1160 C1167 1.409 . S
C1161 H1153 0.930 . S
C1161 C1159 1.419 . S
C1161 C1162 1.362 . S
C1162 H1154 0.930 . S
C1162 C1161 1.362 . S
C1162 C1165 1.409 . S
C1163 H1155 0.930 . S
C1163 C1164 1.355 . S
C1163 C1165 1.415 . S
C1164 C1163 1.355 . S
C1164 C1166 1.419 . S
C1165 C1160 1.425 . S
C1165 C1162 1.409 . S
C1165 C1163 1.415 . S
C1166 H1156 0.930 . S
C1166 C1164 1.419 . S
C1166 C1167 1.362 . S
C1167 H1157 0.930 . S
C1167 C1160 1.409 . S
C1167 C1166 1.362 . S
H1168 C1174 0.930 . S
H1169 C1177 0.930 . S
H1170 C1178 0.930 . S
H1171 C1179 0.930 . S
H1172 C1182 0.930 . S
H1173 C1183 0.930 . S
C1174 H1168 0.930 . S
C1174 C1175 1.355 . S
C1174 C1176 1.415 . S
C1175 C1174 1.355 . S
C1175 C1177 1.419 . S
C1176 C1174 1.415 . S
C1176 C1181 1.425 . S
C1176 C1183 1.409 . S
C1177 H1169 0.930 . S
C1177 C1175 1.419 . S
C1177 C1178 1.362 . S
C1178 H1170 0.930 . S
C1178 C1177 1.362 . S
C1178 C1181 1.409 . S
C1179 H1171 0.930 . S
C1179 C1180 1.355 . S
C1179 C1181 1.415 . S
C1180 C1179 1.355 . S
C1180 C1182 1.419 . S
C1181 C1176 1.425 . S
C1181 C1178 1.409 . S
C1181 C1179 1.415 . S
C1182 H1172 0.930 . S
C1182 C1180 1.419 . S
C1182 C1183 1.362 . S
C1183 H1173 0.930 . S
C1183 C1176 1.409 . S
C1183 C1182 1.362 . S
H1184 C1190 0.930 . S
H1185 C1193 0.954 . S
H1186 C1194 0.880 1_556 S
H1187 C1195 0.930 1_556 S
H1188 C1198 0.930 . S
H1189 C1199 0.930 . S
C1190 H1184 0.930 . S
C1190 C1191 1.355 . S
C1190 C1192 1.415 . S
C1191 C1190 1.355 . S
C1191 C1193 1.419 . S
C1192 C1190 1.415 . S
C1192 C1197 1.425 . S
C1192 C1199 1.409 . S
C1193 H1185 0.954 . S
C1193 C1191 1.419 . S
C1193 C1194 1.382 . S
C1194 H1186 0.880 1_554 S
C1194 C1193 1.382 . S
C1194 C1197 1.440 . S
C1195 H1187 0.930 1_554 S
C1195 C1196 1.355 . S
C1195 C1197 1.415 . S
C1196 C1195 1.355 . S
C1196 C1198 1.419 . S
C1197 C1192 1.425 . S
C1197 C1194 1.440 . S
C1197 C1195 1.415 . S
C1198 H1188 0.930 . S
C1198 C1196 1.419 . S
C1198 C1199 1.362 . S
C1199 H1189 0.930 . S
C1199 C1192 1.409 . S
C1199 C1198 1.362 . S
H1200 C1206 0.930 1_655 S
H1201 C1209 0.930 1_655 S
H1202 C1210 0.930 . S
H1203 C1211 0.930 . S
H1204 C1214 0.930 . S
H1205 C1215 0.930 . S
C1206 H1200 0.930 1_455 S
C1206 C1207 1.355 1_455 S
C1206 C1208 1.415 . S
C1207 C1206 1.355 1_655 S
C1207 C1209 1.419 1_655 S
C1208 C1206 1.415 . S
C1208 C1213 1.425 . S
C1208 C1215 1.409 . S
C1209 H1201 0.930 1_455 S
C1209 C1207 1.419 1_455 S
C1209 C1210 1.362 . S
C1210 H1202 0.930 . S
C1210 C1209 1.362 . S
C1210 C1213 1.409 . S
C1211 H1203 0.930 . S
C1211 C1212 1.355 . S
C1211 C1213 1.415 . S
C1212 C1211 1.355 . S
C1212 C1214 1.419 . S
C1213 C1208 1.425 . S
C1213 C1210 1.409 . S
C1213 C1211 1.415 . S
C1214 H1204 0.930 . S
C1214 C1212 1.419 . S
C1214 C1215 1.362 . S
C1215 H1205 0.930 . S
C1215 C1208 1.409 . S
C1215 C1214 1.362 . S
H1216 C1222 0.930 . S
H1217 C1225 0.930 . S
H1218 C1226 0.930 . S
H1219 C1227 0.930 . S
H1220 C1230 0.930 . S
H1221 C1231 0.930 . S
C1222 H1216 0.930 . S
C1222 C1223 1.355 . S
C1222 C1224 1.415 . S
C1223 C1222 1.355 . S
C1223 C1225 1.419 . S
C1224 C1222 1.415 . S
C1224 C1229 1.425 . S
C1224 C1231 1.409 . S
C1225 H1217 0.930 . S
C1225 C1223 1.419 . S
C1225 C1226 1.362 . S
C1226 H1218 0.930 . S
C1226 C1225 1.362 . S
C1226 C1229 1.409 . S
C1227 H1219 0.930 . S
C1227 C1228 1.355 . S
C1227 C1229 1.415 . S
C1228 C1227 1.355 . S
C1228 C1230 1.419 . S
C1229 C1224 1.425 . S
C1229 C1226 1.409 . S
C1229 C1227 1.415 . S
C1230 H1220 0.930 . S
C1230 C1228 1.419 . S
C1230 C1231 1.362 . S
C1231 H1221 0.930 . S
C1231 C1224 1.409 . S
C1231 C1230 1.362 . S
H1232 C1238 0.930 . S
H1233 C1241 0.930 . S
H1234 C1242 0.930 . S
H1235 C1243 0.930 . S
H1236 C1246 0.930 . S
H1237 C1247 0.930 . S
C1238 H1232 0.930 . S
C1238 C1239 1.355 . S
C1238 C1240 1.415 1_545 S
C1239 C1238 1.355 . S
C1239 C1241 1.419 . S
C1240 C1238 1.415 1_565 S
C1240 C1245 1.425 . S
C1240 C1247 1.409 . S
C1241 H1233 0.930 . S
C1241 C1239 1.419 . S
C1241 C1242 1.362 1_545 S
C1242 H1234 0.930 . S
C1242 C1241 1.362 1_565 S
C1242 C1245 1.409 . S
C1243 H1235 0.930 . S
C1243 C1244 1.355 . S
C1243 C1245 1.415 . S
C1244 C1243 1.355 . S
C1244 C1246 1.419 . S
C1245 C1240 1.425 . S
C1245 C1242 1.409 . S
C1245 C1243 1.415 . S
C1246 H1236 0.930 . S
C1246 C1244 1.419 . S
C1246 C1247 1.362 . S
C1247 H1237 0.930 . S
C1247 C1240 1.409 . S
C1247 C1246 1.362 . S
H1248 C1254 0.930 . S
H1249 C1257 0.930 . S
H1250 C1258 0.930 . S
H1251 C1259 0.930 . S
H1252 C1262 0.930 . S
H1253 C1263 0.930 . S
C1254 H1248 0.930 . S
C1254 C1255 1.355 . S
C1254 C1256 1.415 . S
C1255 C1254 1.355 . S
C1255 C1257 1.419 . S
C1256 C1254 1.415 . S
C1256 C1261 1.425 . S
C1256 C1263 1.409 . S
C1257 H1249 0.930 . S
C1257 C1255 1.419 . S
C1257 C1258 1.362 . S
C1258 H1250 0.930 . S
C1258 C1257 1.362 . S
C1258 C1261 1.409 . S
C1259 H1251 0.930 . S
C1259 C1260 1.355 . S
C1259 C1261 1.415 . S
C1260 C1259 1.355 . S
C1260 C1262 1.419 . S
C1261 C1256 1.425 . S
C1261 C1258 1.409 . S
C1261 C1259 1.415 . S
C1262 H1252 0.930 . S
C1262 C1260 1.419 . S
C1262 C1263 1.362 . S
C1263 H1253 0.930 . S
C1263 C1256 1.409 . S
C1263 C1262 1.362 . S
H1264 C1270 0.930 . S
H1265 C1273 0.930 . S
H1266 C1274 0.930 . S
H1267 C1275 0.930 . S
H1268 C1278 0.930 . S
H1269 C1279 0.930 . S
C1270 H1264 0.930 . S
C1270 C1271 1.355 . S
C1270 C1272 1.415 . S
C1271 C1270 1.355 . S
C1271 C1273 1.419 . S
C1272 C1270 1.415 . S
C1272 C1277 1.425 . S
C1272 C1279 1.409 . S
C1273 H1265 0.930 . S
C1273 C1271 1.419 . S
C1273 C1274 1.362 . S
C1274 H1266 0.930 . S
C1274 C1273 1.362 . S
C1274 C1277 1.409 . S
C1275 H1267 0.930 . S
C1275 C1276 1.355 . S
C1275 C1277 1.415 . S
C1276 C1275 1.355 . S
C1276 C1278 1.419 . S
C1277 C1272 1.425 . S
C1277 C1274 1.409 . S
C1277 C1275 1.415 . S
C1278 H1268 0.930 . S
C1278 C1276 1.419 . S
C1278 C1279 1.362 . S
C1279 H1269 0.930 . S
C1279 C1272 1.409 . S
C1279 C1278 1.362 . S
H1280 C1286 0.930 . S
H1281 C1289 0.930 . S
H1282 C1290 0.930 . S
H1283 C1291 0.930 . S
H1284 C1294 0.930 . S
H1285 C1295 0.930 . S
C1286 H1280 0.930 . S
C1286 C1287 1.355 . S
C1286 C1288 1.415 . S
C1287 C1286 1.355 . S
C1287 C1289 1.419 . S
C1288 C1286 1.415 . S
C1288 C1293 1.425 . S
C1288 C1295 1.409 . S
C1289 H1281 0.930 . S
C1289 C1287 1.419 . S
C1289 C1290 1.362 . S
C1290 H1282 0.930 . S
C1290 C1289 1.362 . S
C1290 C1293 1.409 . S
C1291 H1283 0.930 . S
C1291 C1292 1.355 . S
C1291 C1293 1.415 . S
C1292 C1291 1.355 . S
C1292 C1294 1.419 . S
C1293 C1288 1.425 . S
C1293 C1290 1.409 . S
C1293 C1291 1.415 . S
C1294 H1284 0.930 . S
C1294 C1292 1.419 . S
C1294 C1295 1.362 . S
C1295 H1285 0.930 . S
C1295 C1288 1.409 . S
C1295 C1294 1.362 . S
H1296 C1302 0.930 . S
H1297 C1305 0.930 . S
H1298 C1306 0.930 . S
H1299 C1307 0.930 . S
H1300 C1310 0.930 . S
H1301 C1311 0.930 . S
C1302 H1296 0.930 . S
C1302 C1303 1.355 . S
C1302 C1304 1.415 . S
C1303 C1302 1.355 . S
C1303 C1305 1.419 . S
C1304 C1302 1.415 . S
C1304 C1309 1.425 . S
C1304 C1311 1.409 . S
C1305 H1297 0.930 . S
C1305 C1303 1.419 . S
C1305 C1306 1.362 . S
C1306 H1298 0.930 . S
C1306 C1305 1.362 . S
C1306 C1309 1.409 . S
C1307 H1299 0.930 . S
C1307 C1308 1.355 . S
C1307 C1309 1.415 . S
C1308 C1307 1.355 . S
C1308 C1310 1.419 . S
C1309 C1304 1.425 . S
C1309 C1306 1.409 . S
C1309 C1307 1.415 . S
C1310 H1300 0.930 . S
C1310 C1308 1.419 . S
C1310 C1311 1.362 . S
C1311 H1301 0.930 . S
C1311 C1304 1.409 . S
C1311 C1310 1.362 . S
H1312 C1318 0.930 . S
H1313 C1321 0.930 . S
H1314 C1322 0.930 . S
H1315 C1323 0.930 . S
H1316 C1326 0.930 . S
H1317 C1327 0.930 . S
C1318 H1312 0.930 . S
C1318 C1319 1.355 . S
C1318 C1320 1.415 . S
C1319 C1318 1.355 . S
C1319 C1321 1.419 . S
C1320 C1318 1.415 . S
C1320 C1325 1.425 . S
C1320 C1327 1.409 . S
C1321 H1313 0.930 . S
C1321 C1319 1.419 . S
C1321 C1322 1.362 . S
C1322 H1314 0.930 . S
C1322 C1321 1.362 . S
C1322 C1325 1.409 . S
C1323 H1315 0.930 . S
C1323 C1324 1.355 . S
C1323 C1325 1.415 . S
C1324 C1323 1.355 . S
C1324 C1326 1.419 . S
C1325 C1320 1.425 . S
C1325 C1322 1.409 . S
C1325 C1323 1.415 . S
C1326 H1316 0.930 . S
C1326 C1324 1.419 . S
C1326 C1327 1.362 . S
C1327 H1317 0.930 . S
C1327 C1320 1.409 . S
C1327 C1326 1.362 . S
H1328 C1334 0.930 . S
H1329 C1337 0.930 . S
H1330 C1338 0.930 . S
H1331 C1339 0.930 . S
H1332 C1342 0.930 . S
H1333 C1343 0.930 . S
C1334 H1328 0.930 . S
C1334 C1335 1.355 . S
C1334 C1336 1.415 . S
C1335 C1334 1.355 . S
C1335 C1337 1.419 . S
C1336 C1334 1.415 . S
C1336 C1341 1.425 . S
C1336 C1343 1.409 . S
C1337 H1329 0.930 . S
C1337 C1335 1.419 . S
C1337 C1338 1.362 . S
C1338 H1330 0.930 . S
C1338 C1337 1.362 . S
C1338 C1341 1.409 . S
C1339 H1331 0.930 . S
C1339 C1340 1.355 . S
C1339 C1341 1.415 . S
C1340 C1339 1.355 . S
C1340 C1342 1.419 . S
C1341 C1336 1.425 . S
C1341 C1338 1.409 . S
C1341 C1339 1.415 . S
C1342 H1332 0.930 . S
C1342 C1340 1.419 . S
C1342 C1343 1.362 . S
C1343 H1333 0.930 . S
C1343 C1336 1.409 . S
C1343 C1342 1.362 . S
H1344 C1350 0.930 . S
H1345 C1353 0.930 . S
H1346 C1354 0.930 . S
H1347 C1355 0.930 . S
H1348 C1358 0.930 . S
H1349 C1359 0.930 . S
C1350 H1344 0.930 . S
C1350 C1351 1.355 . S
C1350 C1352 1.415 1_545 S
C1351 C1350 1.355 . S
C1351 C1353 1.419 . S
C1352 C1350 1.415 1_565 S
C1352 C1357 1.425 . S
C1352 C1359 1.409 . S
C1353 H1345 0.930 . S
C1353 C1351 1.419 . S
C1353 C1354 1.362 1_545 S
C1354 H1346 0.930 . S
C1354 C1353 1.362 1_565 S
C1354 C1357 1.409 . S
C1355 H1347 0.930 . S
C1355 C1356 1.355 . S
C1355 C1357 1.415 . S
C1356 C1355 1.355 . S
C1356 C1358 1.419 . S
C1357 C1352 1.425 . S
C1357 C1354 1.409 . S
C1357 C1355 1.415 . S
C1358 H1348 0.930 . S
C1358 C1356 1.419 . S
C1358 C1359 1.362 . S
C1359 H1349 0.930 . S
C1359 C1352 1.409 . S
C1359 C1358 1.362 . S
H1360 C1366 0.930 . S
H1361 C1369 0.930 . S
H1362 C1370 0.930 . S
H1363 C1371 0.930 . S
H1364 C1374 0.930 . S
H1365 C1375 0.930 . S
C1366 H1360 0.930 . S
C1366 C1367 1.368 . S
C1366 C1368 1.415 . S
C1367 C1366 1.368 . S
C1367 C1369 1.415 1_455 S
C1368 C1366 1.415 . S
C1368 C1373 1.425 . S
C1368 C1375 1.409 . S
C1369 H1361 0.930 . S
C1369 C1367 1.415 1_655 S
C1369 C1370 1.362 1_655 S
C1370 H1362 0.930 . S
C1370 C1369 1.362 1_455 S
C1370 C1373 1.409 . S
C1371 H1363 0.930 . S
C1371 C1372 1.355 . S
C1371 C1373 1.415 . S
C1372 C1371 1.355 . S
C1372 C1374 1.419 . S
C1373 C1368 1.425 . S
C1373 C1370 1.409 . S
C1373 C1371 1.415 . S
C1374 H1364 0.930 . S
C1374 C1372 1.419 . S
C1374 C1375 1.362 . S
C1375 H1365 0.930 . S
C1375 C1368 1.409 . S
C1375 C1374 1.362 . S
H1376 C1382 0.930 . S
H1377 C1385 0.930 . S
H1378 C1386 0.930 . S
H1379 C1387 0.930 . S
H1380 C1390 0.930 . S
H1381 C1391 0.930 . S
C1382 H1376 0.930 . S
C1382 C1383 1.355 . S
C1382 C1384 1.415 . S
C1383 C1382 1.355 . S
C1383 C1385 1.419 . S
C1384 C1382 1.415 . S
C1384 C1389 1.425 . S
C1384 C1391 1.409 . S
C1385 H1377 0.930 . S
C1385 C1383 1.419 . S
C1385 C1386 1.362 . S
C1386 H1378 0.930 . S
C1386 C1385 1.362 . S
C1386 C1389 1.409 . S
C1387 H1379 0.930 . S
C1387 C1388 1.355 . S
C1387 C1389 1.415 . S
C1388 C1387 1.355 . S
C1388 C1390 1.419 . S
C1389 C1384 1.425 . S
C1389 C1386 1.409 . S
C1389 C1387 1.415 . S
C1390 H1380 0.930 . S
C1390 C1388 1.419 . S
C1390 C1391 1.362 . S
C1391 H1381 0.930 . S
C1391 C1384 1.409 . S
C1391 C1390 1.362 . S
H1392 C1398 0.930 . S
H1393 C1401 0.930 . S
H1394 C1402 0.930 . S
H1395 C1403 0.930 . S
H1396 C1406 0.930 . S
H1397 C1407 0.930 . S
C1398 H1392 0.930 . S
C1398 C1399 1.355 . S
C1398 C1400 1.415 . S
C1399 C1398 1.355 . S
C1399 C1401 1.419 . S
C1400 C1398 1.415 . S
C1400 C1405 1.425 . S
C1400 C1407 1.409 . S
C1401 H1393 0.930 . S
C1401 C1399 1.419 . S
C1401 C1402 1.362 . S
C1402 H1394 0.930 . S
C1402 C1401 1.362 . S
C1402 C1405 1.409 . S
C1403 H1395 0.930 . S
C1403 C1404 1.355 . S
C1403 C1405 1.415 . S
C1404 C1403 1.355 . S
C1404 C1406 1.419 . S
C1405 C1400 1.425 . S
C1405 C1402 1.409 . S
C1405 C1403 1.415 . S
C1406 H1396 0.930 . S
C1406 C1404 1.419 . S
C1406 C1407 1.362 . S
C1407 H1397 0.930 . S
C1407 C1400 1.409 . S
C1407 C1406 1.362 . S
H1408 C1414 0.930 . S
H1409 C1417 0.930 . S
H1410 C1418 0.930 . S
H1411 C1419 0.930 . S
H1412 C1422 0.930 . S
H1413 C1423 0.930 . S
C1414 H1408 0.930 . S
C1414 C1415 1.355 . S
C1414 C1416 1.415 . S
C1415 C1414 1.355 . S
C1415 C1417 1.419 . S
C1416 C1414 1.415 . S
C1416 C1421 1.425 . S
C1416 C1423 1.409 . S
C1417 H1409 0.930 . S
C1417 C1415 1.419 . S
C1417 C1418 1.362 . S
C1418 H1410 0.930 . S
C1418 C1417 1.362 . S
C1418 C1421 1.409 . S
C1419 H1411 0.930 . S
C1419 C1420 1.355 . S
C1419 C1421 1.415 . S
C1420 C1419 1.355 . S
C1420 C1422 1.419 . S
C1421 C1416 1.425 . S
C1421 C1418 1.409 . S
C1421 C1419 1.415 . S
C1422 H1412 0.930 . S
C1422 C1420 1.419 . S
C1422 C1423 1.362 . S
C1423 H1413 0.930 . S
C1423 C1416 1.409 . S
C1423 C1422 1.362 . S
H1424 C1430 0.930 . S
H1425 C1433 0.930 . S
H1426 C1434 0.930 . S
H1427 C1435 0.930 . S
H1428 C1438 0.930 . S
H1429 C1439 0.930 . S
C1430 H1424 0.930 . S
C1430 C1431 1.355 . S
C1430 C1432 1.415 . S
C1431 C1430 1.355 . S
C1431 C1433 1.419 . S
C1432 C1430 1.415 . S
C1432 C1437 1.425 . S
C1432 C1439 1.409 . S
C1433 H1425 0.930 . S
C1433 C1431 1.419 . S
C1433 C1434 1.362 . S
C1434 H1426 0.930 . S
C1434 C1433 1.362 . S
C1434 C1437 1.409 . S
C1435 H1427 0.930 . S
C1435 C1436 1.355 . S
C1435 C1437 1.415 . S
C1436 C1435 1.355 . S
C1436 C1438 1.419 . S
C1437 C1432 1.425 . S
C1437 C1434 1.409 . S
C1437 C1435 1.415 . S
C1438 H1428 0.930 . S
C1438 C1436 1.419 . S
C1438 C1439 1.362 . S
C1439 H1429 0.930 . S
C1439 C1432 1.409 . S
C1439 C1438 1.362 . S
H1440 C1446 0.930 . S
H1441 C1449 0.930 . S
H1442 C1450 0.930 . S
H1443 C1451 0.930 . S
H1444 C1454 0.930 . S
H1445 C1455 0.930 . S
C1446 H1440 0.930 . S
C1446 C1447 1.355 . S
C1446 C1448 1.415 1_565 S
C1447 C1446 1.355 . S
C1447 C1449 1.419 . S
C1448 C1446 1.415 1_545 S
C1448 C1453 1.425 . S
C1448 C1455 1.409 . S
C1449 H1441 0.930 . S
C1449 C1447 1.419 . S
C1449 C1450 1.362 1_565 S
C1450 H1442 0.930 . S
C1450 C1449 1.362 1_545 S
C1450 C1453 1.409 . S
C1451 H1443 0.930 . S
C1451 C1452 1.355 . S
C1451 C1453 1.415 . S
C1452 C1451 1.355 . S
C1452 C1454 1.419 . S
C1453 C1448 1.425 . S
C1453 C1450 1.409 . S
C1453 C1451 1.415 . S
C1454 H1444 0.930 . S
C1454 C1452 1.419 . S
C1454 C1455 1.362 . S
C1455 H1445 0.930 . S
C1455 C1448 1.409 . S
C1455 C1454 1.362 . S
H1456 C1462 0.930 . S
H1457 C1465 0.938 . S
H1458 C1466 0.930 . S
H1459 C1467 0.930 . S
H1460 C1470 0.930 . S
H1461 C1471 0.930 . S
C1462 H1456 0.930 . S
C1462 C1463 1.326 1_655 S
C1462 C1464 1.415 . S
C1463 C1462 1.326 1_455 S
C1463 C1465 1.426 . S
C1464 C1462 1.415 . S
C1464 C1469 1.425 . S
C1464 C1471 1.409 . S
C1465 H1457 0.938 . S
C1465 C1463 1.426 . S
C1465 C1466 1.357 1_455 S
C1466 H1458 0.930 . S
C1466 C1465 1.357 1_655 S
C1466 C1469 1.409 . S
C1467 H1459 0.930 . S
C1467 C1468 1.355 . S
C1467 C1469 1.415 . S
C1468 C1467 1.355 . S
C1468 C1470 1.419 . S
C1469 C1464 1.425 . S
C1469 C1466 1.409 . S
C1469 C1467 1.415 . S
C1470 H1460 0.930 . S
C1470 C1468 1.419 . S
C1470 C1471 1.362 . S
C1471 H1461 0.930 . S
C1471 C1464 1.409 . S
C1471 C1470 1.362 . S
H1472 C1478 0.930 . S
H1473 C1481 0.930 . S
H1474 C1482 0.930 . S
H1475 C1483 0.930 . S
H1476 C1486 0.930 . S
H1477 C1487 0.930 . S
C1478 H1472 0.930 . S
C1478 C1479 1.355 . S
C1478 C1480 1.415 . S
C1479 C1478 1.355 . S
C1479 C1481 1.419 . S
C1480 C1478 1.415 . S
C1480 C1485 1.425 . S
C1480 C1487 1.409 . S
C1481 H1473 0.930 . S
C1481 C1479 1.419 . S
C1481 C1482 1.362 . S
C1482 H1474 0.930 . S
C1482 C1481 1.362 . S
C1482 C1485 1.409 . S
C1483 H1475 0.930 . S
C1483 C1484 1.355 . S
C1483 C1485 1.415 . S
C1484 C1483 1.355 . S
C1484 C1486 1.419 . S
C1485 C1480 1.425 . S
C1485 C1482 1.409 . S
C1485 C1483 1.415 . S
C1486 H1476 0.930 . S
C1486 C1484 1.419 . S
C1486 C1487 1.362 . S
C1487 H1477 0.930 . S
C1487 C1480 1.409 . S
C1487 C1486 1.362 . S
H1488 C1494 0.951 . S
H1489 C1497 0.930 . S
H1490 C1498 0.930 . S
H1491 C1499 0.930 . S
H1492 C1502 0.930 . S
H1493 C1503 0.930 . S
C1494 H1488 0.951 . S
C1494 C1495 1.377 . S
C1494 C1496 1.372 1_455 S
C1495 C1494 1.377 . S
C1495 C1497 1.419 1_455 S
C1496 C1494 1.372 1_655 S
C1496 C1501 1.425 . S
C1496 C1503 1.409 . S
C1497 H1489 0.930 . S
C1497 C1495 1.419 1_655 S
C1497 C1498 1.362 . S
C1498 H1490 0.930 . S
C1498 C1497 1.362 . S
C1498 C1501 1.409 . S
C1499 H1491 0.930 . S
C1499 C1500 1.355 . S
C1499 C1501 1.415 . S
C1500 C1499 1.355 . S
C1500 C1502 1.419 . S
C1501 C1496 1.425 . S
C1501 C1498 1.409 . S
C1501 C1499 1.415 . S
C1502 H1492 0.930 . S
C1502 C1500 1.419 . S
C1502 C1503 1.362 . S
C1503 H1493 0.930 . S
C1503 C1496 1.409 . S
C1503 C1502 1.362 . S
H1504 C1510 0.930 . S
H1505 C1513 0.930 . S
H1506 C1514 0.930 . S
H1507 C1515 0.930 . S
H1508 C1518 0.930 . S
H1509 C1519 0.930 . S
C1510 H1504 0.930 . S
C1510 C1511 1.355 . S
C1510 C1512 1.415 . S
C1511 C1510 1.355 . S
C1511 C1513 1.419 . S
C1512 C1510 1.415 . S
C1512 C1517 1.425 . S
C1512 C1519 1.409 . S
C1513 H1505 0.930 . S
C1513 C1511 1.419 . S
C1513 C1514 1.362 . S
C1514 H1506 0.930 . S
C1514 C1513 1.362 . S
C1514 C1517 1.409 . S
C1515 H1507 0.930 . S
C1515 C1516 1.355 . S
C1515 C1517 1.415 . S
C1516 C1515 1.355 . S
C1516 C1518 1.419 . S
C1517 C1512 1.425 . S
C1517 C1514 1.409 . S
C1517 C1515 1.415 . S
C1518 H1508 0.930 . S
C1518 C1516 1.419 . S
C1518 C1519 1.362 . S
C1519 H1509 0.930 . S
C1519 C1512 1.409 . S
C1519 C1518 1.362 . S
H1520 C1526 0.930 . S
H1521 C1529 0.930 . S
H1522 C1530 0.930 . S
H1523 C1531 0.930 . S
H1524 C1534 0.930 . S
H1525 C1535 0.930 . S
C1526 H1520 0.930 . S
C1526 C1527 1.355 . S
C1526 C1528 1.415 1_565 S
C1527 C1526 1.355 . S
C1527 C1529 1.419 . S
C1528 C1526 1.415 1_545 S
C1528 C1533 1.425 . S
C1528 C1535 1.409 . S
C1529 H1521 0.930 . S
C1529 C1527 1.419 . S
C1529 C1530 1.362 1_565 S
C1530 H1522 0.930 . S
C1530 C1529 1.362 1_545 S
C1530 C1533 1.409 . S
C1531 H1523 0.930 . S
C1531 C1532 1.355 . S
C1531 C1533 1.415 . S
C1532 C1531 1.355 . S
C1532 C1534 1.419 . S
C1533 C1528 1.425 . S
C1533 C1530 1.409 . S
C1533 C1531 1.415 . S
C1534 H1524 0.930 . S
C1534 C1532 1.419 . S
C1534 C1535 1.362 . S
C1535 H1525 0.930 . S
C1535 C1528 1.409 . S
C1535 C1534 1.362 . S
H1536 C1542 0.930 . S
H1537 C1545 0.930 . S
H1538 C1546 0.930 . S
H1539 C1547 0.930 . S
H1540 C1550 0.930 . S
H1541 C1551 0.930 . S
C1542 H1536 0.930 . S
C1542 C1543 1.355 . S
C1542 C1544 1.415 . S
C1543 C1542 1.355 . S
C1543 C1545 1.419 . S
C1544 C1542 1.415 . S
C1544 C1549 1.425 . S
C1544 C1551 1.409 . S
C1545 H1537 0.930 . S
C1545 C1543 1.419 . S
C1545 C1546 1.362 . S
C1546 H1538 0.930 . S
C1546 C1545 1.362 . S
C1546 C1549 1.409 . S
C1547 H1539 0.930 . S
C1547 C1548 1.355 . S
C1547 C1549 1.415 . S
C1548 C1547 1.355 . S
C1548 C1550 1.419 . S
C1549 C1544 1.425 . S
C1549 C1546 1.409 . S
C1549 C1547 1.415 . S
C1550 H1540 0.930 . S
C1550 C1548 1.419 . S
C1550 C1551 1.362 . S
C1551 H1541 0.930 . S
C1551 C1544 1.409 . S
C1551 C1550 1.362 . S
H1552 C1558 0.930 . S
H1553 C1561 0.930 . S
H1554 C1562 0.930 . S
H1555 C1563 0.930 . S
H1556 C1566 0.930 . S
H1557 C1567 0.930 . S
C1558 H1552 0.930 . S
C1558 C1559 1.355 . S
C1558 C1560 1.415 . S
C1559 C1558 1.355 . S
C1559 C1561 1.419 . S
C1560 C1558 1.415 . S
C1560 C1565 1.425 . S
C1560 C1567 1.409 . S
C1561 H1553 0.930 . S
C1561 C1559 1.419 . S
C1561 C1562 1.362 . S
C1562 H1554 0.930 . S
C1562 C1561 1.362 . S
C1562 C1565 1.409 . S
C1563 H1555 0.930 . S
C1563 C1564 1.355 . S
C1563 C1565 1.415 . S
C1564 C1563 1.355 . S
C1564 C1566 1.419 . S
C1565 C1560 1.425 . S
C1565 C1562 1.409 . S
C1565 C1563 1.415 . S
C1566 H1556 0.930 . S
C1566 C1564 1.419 . S
C1566 C1567 1.362 . S
C1567 H1557 0.930 . S
C1567 C1560 1.409 . S
C1567 C1566 1.362 . S
H1568 C1574 0.930 . S
H1569 C1577 0.930 . S
H1570 C1578 0.930 . S
H1571 C1579 0.930 . S
H1572 C1582 0.930 . S
H1573 C1583 0.930 . S
C1574 H1568 0.930 . S
C1574 C1575 1.355 . S
C1574 C1576 1.415 . S
C1575 C1574 1.355 . S
C1575 C1577 1.419 . S
C1576 C1574 1.415 . S
C1576 C1581 1.425 . S
C1576 C1583 1.409 . S
C1577 H1569 0.930 . S
C1577 C1575 1.419 . S
C1577 C1578 1.362 . S
C1578 H1570 0.930 . S
C1578 C1577 1.362 . S
C1578 C1581 1.409 . S
C1579 H1571 0.930 . S
C1579 C1580 1.355 . S
C1579 C1581 1.415 . S
C1580 C1579 1.355 . S
C1580 C1582 1.419 . S
C1581 C1576 1.425 . S
C1581 C1578 1.409 . S
C1581 C1579 1.415 . S
C1582 H1572 0.930 . S
C1582 C1580 1.419 . S
C1582 C1583 1.362 . S
C1583 H1573 0.930 . S
C1583 C1576 1.409 . S
C1583 C1582 1.362 . S
H1584 C1590 0.930 . S
H1585 C1593 0.930 . S
H1586 C1594 0.930 . S
H1587 C1595 0.930 . S
H1588 C1598 0.930 . S
H1589 C1599 0.930 . S
C1590 H1584 0.930 . S
C1590 C1591 1.355 . S
C1590 C1592 1.415 . S
C1591 C1590 1.355 . S
C1591 C1593 1.419 . S
C1592 C1590 1.415 . S
C1592 C1597 1.425 . S
C1592 C1599 1.409 1_565 S
C1593 H1585 0.930 . S
C1593 C1591 1.419 . S
C1593 C1594 1.362 . S
C1594 H1586 0.930 . S
C1594 C1593 1.362 . S
C1594 C1597 1.409 . S
C1595 H1587 0.930 . S
C1595 C1596 1.355 . S
C1595 C1597 1.415 . S
C1596 C1595 1.355 . S
C1596 C1598 1.419 1_565 S
C1597 C1592 1.425 . S
C1597 C1594 1.409 . S
C1597 C1595 1.415 . S
C1598 H1588 0.930 . S
C1598 C1596 1.419 1_545 S
C1598 C1599 1.362 . S
C1599 H1589 0.930 . S
C1599 C1592 1.409 1_545 S
C1599 C1598 1.362 . S
H1600 C1606 0.930 . S
H1601 C1609 0.930 . S
H1602 C1610 0.930 . S
H1603 C1611 0.930 1_655 S
H1604 C1614 0.930 . S
H1605 C1615 0.930 . S
C1606 H1600 0.930 . S
C1606 C1607 1.355 . S
C1606 C1608 1.415 . S
C1607 C1606 1.355 . S
C1607 C1609 1.419 1_455 S
C1608 C1606 1.415 . S
C1608 C1613 1.425 . S
C1608 C1615 1.409 . S
C1609 H1601 0.930 . S
C1609 C1607 1.419 1_655 S
C1609 C1610 1.362 . S
C1610 H1602 0.930 . S
C1610 C1609 1.362 . S
C1610 C1613 1.409 1_655 S
C1611 H1603 0.930 1_455 S
C1611 C1612 1.355 . S
C1611 C1613 1.415 . S
C1612 C1611 1.355 . S
C1612 C1614 1.419 . S
C1613 C1608 1.425 . S
C1613 C1610 1.409 1_455 S
C1613 C1611 1.415 . S
C1614 H1604 0.930 . S
C1614 C1612 1.419 . S
C1614 C1615 1.362 . S
C1615 H1605 0.930 . S
C1615 C1608 1.409 . S
C1615 C1614 1.362 . S
H1616 C1622 0.930 . S
H1617 C1625 0.930 . S
H1618 C1626 0.930 . S
H1619 C1627 0.930 . S
H1620 C1630 0.930 . S
H1621 C1631 0.930 . S
C1622 H1616 0.930 . S
C1622 C1623 1.355 . S
C1622 C1624 1.415 . S
C1623 C1622 1.355 . S
C1623 C1625 1.419 . S
C1624 C1622 1.415 . S
C1624 C1629 1.425 . S
C1624 C1631 1.409 . S
C1625 H1617 0.930 . S
C1625 C1623 1.419 . S
C1625 C1626 1.362 . S
C1626 H1618 0.930 . S
C1626 C1625 1.362 . S
C1626 C1629 1.409 . S
C1627 H1619 0.930 . S
C1627 C1628 1.355 . S
C1627 C1629 1.415 . S
C1628 C1627 1.355 . S
C1628 C1630 1.419 . S
C1629 C1624 1.425 . S
C1629 C1626 1.409 . S
C1629 C1627 1.415 . S
C1630 H1620 0.930 . S
C1630 C1628 1.419 . S
C1630 C1631 1.362 . S
C1631 H1621 0.930 . S
C1631 C1624 1.409 . S
C1631 C1630 1.362 . S
H1632 C1638 0.930 . S
H1633 C1641 0.930 . S
H1634 C1642 0.930 . S
H1635 C1643 0.930 . S
H1636 C1646 0.930 . S
H1637 C1647 0.930 . S
C1638 H1632 0.930 . S
C1638 C1639 1.355 . S
C1638 C1640 1.415 . S
C1639 C1638 1.355 . S
C1639 C1641 1.419 1_655 S
C1640 C1638 1.415 . S
C1640 C1645 1.425 1_655 S
C1640 C1647 1.409 . S
C1641 H1633 0.930 . S
C1641 C1639 1.419 1_455 S
C1641 C1642 1.362 . S
C1642 H1634 0.930 . S
C1642 C1641 1.362 . S
C1642 C1645 1.409 . S
C1643 H1635 0.930 . S
C1643 C1644 1.355 1_455 S
C1643 C1645 1.415 . S
C1644 C1643 1.355 1_655 S
C1644 C1646 1.419 . S
C1645 C1640 1.425 1_455 S
C1645 C1642 1.409 . S
C1645 C1643 1.415 . S
C1646 H1636 0.930 . S
C1646 C1644 1.419 . S
C1646 C1647 1.362 . S
C1647 H1637 0.930 . S
C1647 C1640 1.409 . S
C1647 C1646 1.362 . S
H1648 C1654 0.930 . S
H1649 C1657 0.930 . S
H1650 C1658 0.930 . S
H1651 C1659 0.930 . S
H1652 C1662 0.930 . S
H1653 C1663 0.930 . S
C1654 H1648 0.930 . S
C1654 C1655 1.355 . S
C1654 C1656 1.415 . S
C1655 C1654 1.355 . S
C1655 C1657 1.419 . S
C1656 C1654 1.415 . S
C1656 C1661 1.425 . S
C1656 C1663 1.409 . S
C1657 H1649 0.930 . S
C1657 C1655 1.419 . S
C1657 C1658 1.362 . S
C1658 H1650 0.930 . S
C1658 C1657 1.362 . S
C1658 C1661 1.409 . S
C1659 H1651 0.930 . S
C1659 C1660 1.355 . S
C1659 C1661 1.415 . S
C1660 C1659 1.355 . S
C1660 C1662 1.419 . S
C1661 C1656 1.425 . S
C1661 C1658 1.409 . S
C1661 C1659 1.415 . S
C1662 H1652 0.930 . S
C1662 C1660 1.419 . S
C1662 C1663 1.362 . S
C1663 H1653 0.930 . S
C1663 C1656 1.409 . S
C1663 C1662 1.362 . S
H1664 C1670 0.930 . S
H1665 C1673 0.918 1_565 S
H1666 C1674 0.930 . S
H1667 C1675 0.930 . S
H1668 C1678 0.930 . S
H1669 C1679 0.930 . S
C1670 H1664 0.930 . S
C1670 C1671 1.355 . S
C1670 C1672 1.415 . S
C1671 C1670 1.355 . S
C1671 C1673 1.442 . S
C1672 C1670 1.415 . S
C1672 C1677 1.425 . S
C1672 C1679 1.409 . S
C1673 H1665 0.918 1_545 S
C1673 C1671 1.442 . S
C1673 C1674 1.352 1_545 S
C1674 H1666 0.930 . S
C1674 C1673 1.352 1_565 S
C1674 C1677 1.409 1_565 S
C1675 H1667 0.930 . S
C1675 C1676 1.355 1_565 S
C1675 C1677 1.415 1_565 S
C1676 C1675 1.355 1_545 S
C1676 C1678 1.419 . S
C1677 C1672 1.425 . S
C1677 C1674 1.409 1_545 S
C1677 C1675 1.415 1_545 S
C1678 H1668 0.930 . S
C1678 C1676 1.419 . S
C1678 C1679 1.362 . S
C1679 H1669 0.930 . S
C1679 C1672 1.409 . S
C1679 C1678 1.362 . S
H1680 C1686 0.930 . S
H1681 C1689 0.930 . S
H1682 C1690 0.930 . S
H1683 C1691 0.930 . S
H1684 C1694 0.930 . S
H1685 C1695 0.930 . S
C1686 H1680 0.930 . S
C1686 C1687 1.355 . S
C1686 C1688 1.415 . S
C1687 C1686 1.355 . S
C1687 C1689 1.419 . S
C1688 C1686 1.415 . S
C1688 C1693 1.425 . S
C1688 C1695 1.409 . S
C1689 H1681 0.930 . S
C1689 C1687 1.419 . S
C1689 C1690 1.362 . S
C1690 H1682 0.930 . S
C1690 C1689 1.362 . S
C1690 C1693 1.409 . S
C1691 H1683 0.930 . S
C1691 C1692 1.355 . S
C1691 C1693 1.415 . S
C1692 C1691 1.355 . S
C1692 C1694 1.419 . S
C1693 C1688 1.425 . S
C1693 C1690 1.409 . S
C1693 C1691 1.415 . S
C1694 H1684 0.930 . S
C1694 C1692 1.419 . S
C1694 C1695 1.362 . S
C1695 H1685 0.930 . S
C1695 C1688 1.409 . S
C1695 C1694 1.362 . S
H1696 C1702 0.930 . S
H1697 C1705 0.930 . S
H1698 C1706 0.930 . S
H1699 C1707 0.930 . S
H1700 C1710 0.930 . S
H1701 C1711 0.930 . S
C1702 H1696 0.930 . S
C1702 C1703 1.355 . S
C1702 C1704 1.415 . S
C1703 C1702 1.355 . S
C1703 C1705 1.419 . S
C1704 C1702 1.415 . S
C1704 C1709 1.425 . S
C1704 C1711 1.409 . S
C1705 H1697 0.930 . S
C1705 C1703 1.419 . S
C1705 C1706 1.362 . S
C1706 H1698 0.930 . S
C1706 C1705 1.362 . S
C1706 C1709 1.409 . S
C1707 H1699 0.930 . S
C1707 C1708 1.355 . S
C1707 C1709 1.415 . S
C1708 C1707 1.355 . S
C1708 C1710 1.419 . S
C1709 C1704 1.425 . S
C1709 C1706 1.409 . S
C1709 C1707 1.415 . S
C1710 H1700 0.930 . S
C1710 C1708 1.419 . S
C1710 C1711 1.362 . S
C1711 H1701 0.930 . S
C1711 C1704 1.409 . S
C1711 C1710 1.362 . S
H1712 C1718 0.930 . S
H1713 C1721 0.930 . S
H1714 C1722 0.930 . S
H1715 C1723 0.930 . S
H1716 C1726 0.930 . S
H1717 C1727 0.930 . S
C1718 H1712 0.930 . S
C1718 C1719 1.355 . S
C1718 C1720 1.415 . S
C1719 C1718 1.355 . S
C1719 C1721 1.419 . S
C1720 C1718 1.415 . S
C1720 C1725 1.425 . S
C1720 C1727 1.409 . S
C1721 H1713 0.930 . S
C1721 C1719 1.419 . S
C1721 C1722 1.362 . S
C1722 H1714 0.930 . S
C1722 C1721 1.362 . S
C1722 C1725 1.409 . S
C1723 H1715 0.930 . S
C1723 C1724 1.355 . S
C1723 C1725 1.415 . S
C1724 C1723 1.355 . S
C1724 C1726 1.419 . S
C1725 C1720 1.425 . S
C1725 C1722 1.409 . S
C1725 C1723 1.415 . S
C1726 H1716 0.930 . S
C1726 C1724 1.419 . S
C1726 C1727 1.362 . S
C1727 H1717 0.930 . S
C1727 C1720 1.409 . S
C1727 C1726 1.362 . S
H1728 C1734 0.930 . S
H1729 C1737 0.930 . S
H1730 C1738 0.930 . S
H1731 C1739 0.930 . S
H1732 C1742 0.930 . S
H1733 C1743 0.930 . S
C1734 H1728 0.930 . S
C1734 C1735 1.355 . S
C1734 C1736 1.415 . S
C1735 C1734 1.355 . S
C1735 C1737 1.419 . S
C1736 C1734 1.415 . S
C1736 C1741 1.425 . S
C1736 C1743 1.409 . S
C1737 H1729 0.930 . S
C1737 C1735 1.419 . S
C1737 C1738 1.362 . S
C1738 H1730 0.930 . S
C1738 C1737 1.362 . S
C1738 C1741 1.409 . S
C1739 H1731 0.930 . S
C1739 C1740 1.355 . S
C1739 C1741 1.415 . S
C1740 C1739 1.355 . S
C1740 C1742 1.419 . S
C1741 C1736 1.425 . S
C1741 C1738 1.409 . S
C1741 C1739 1.415 . S
C1742 H1732 0.930 . S
C1742 C1740 1.419 . S
C1742 C1743 1.362 . S
C1743 H1733 0.930 . S
C1743 C1736 1.409 . S
C1743 C1742 1.362 . S
H1744 C1750 0.930 . S
H1745 C1753 0.930 . S
H1746 C1754 0.930 . S
H1747 C1755 0.930 . S
H1748 C1758 0.930 . S
H1749 C1759 0.930 . S
C1750 H1744 0.930 . S
C1750 C1751 1.355 . S
C1750 C1752 1.415 . S
C1751 C1750 1.355 . S
C1751 C1753 1.419 . S
C1752 C1750 1.415 . S
C1752 C1757 1.425 . S
C1752 C1759 1.409 . S
C1753 H1745 0.930 . S
C1753 C1751 1.419 . S
C1753 C1754 1.362 . S
C1754 H1746 0.930 . S
C1754 C1753 1.362 . S
C1754 C1757 1.409 . S
C1755 H1747 0.930 . S
C1755 C1756 1.355 . S
C1755 C1757 1.415 . S
C1756 C1755 1.355 . S
C1756 C1758 1.419 . S
C1757 C1752 1.425 . S
C1757 C1754 1.409 . S
C1757 C1755 1.415 . S
C1758 H1748 0.930 . S
C1758 C1756 1.419 . S
C1758 C1759 1.362 . S
C1759 H1749 0.930 . S
C1759 C1752 1.409 . S
C1759 C1758 1.362 . S
H1760 C1766 0.930 . S
H1761 C1769 0.930 . S
H1762 C1770 0.930 . S
H1763 C1771 0.930 . S
H1764 C1774 0.930 . S
H1765 C1775 0.930 . S
C1766 H1760 0.930 . S
C1766 C1767 1.355 . S
C1766 C1768 1.415 . S
C1767 C1766 1.355 . S
C1767 C1769 1.419 . S
C1768 C1766 1.415 . S
C1768 C1773 1.425 . S
C1768 C1775 1.409 . S
C1769 H1761 0.930 . S
C1769 C1767 1.419 . S
C1769 C1770 1.362 . S
C1770 H1762 0.930 . S
C1770 C1769 1.362 . S
C1770 C1773 1.409 . S
C1771 H1763 0.930 . S
C1771 C1772 1.355 . S
C1771 C1773 1.415 . S
C1772 C1771 1.355 . S
C1772 C1774 1.419 . S
C1773 C1768 1.425 . S
C1773 C1770 1.409 . S
C1773 C1771 1.415 . S
C1774 H1764 0.930 . S
C1774 C1772 1.419 . S
C1774 C1775 1.362 . S
C1775 H1765 0.930 . S
C1775 C1768 1.409 . S
C1775 C1774 1.362 . S
H1776 C1782 0.930 . S
H1777 C1785 0.930 . S
H1778 C1786 0.930 . S
H1779 C1787 0.930 . S
H1780 C1790 0.930 . S
H1781 C1791 0.930 . S
C1782 H1776 0.930 . S
C1782 C1783 1.355 . S
C1782 C1784 1.415 . S
C1783 C1782 1.355 . S
C1783 C1785 1.419 . S
C1784 C1782 1.415 . S
C1784 C1789 1.425 . S
C1784 C1791 1.409 . S
C1785 H1777 0.930 . S
C1785 C1783 1.419 . S
C1785 C1786 1.362 . S
C1786 H1778 0.930 . S
C1786 C1785 1.362 . S
C1786 C1789 1.409 . S
C1787 H1779 0.930 . S
C1787 C1788 1.355 . S
C1787 C1789 1.415 . S
C1788 C1787 1.355 . S
C1788 C1790 1.419 . S
C1789 C1784 1.425 . S
C1789 C1786 1.409 . S
C1789 C1787 1.415 . S
C1790 H1780 0.930 . S
C1790 C1788 1.419 . S
C1790 C1791 1.362 . S
C1791 H1781 0.930 . S
C1791 C1784 1.409 . S
C1791 C1790 1.362 . S
H1792 C1798 0.930 . S
H1793 C1801 0.930 . S
H1794 C1802 0.930 . S
H1795 C1803 0.930 . S
H1796 C1806 0.930 . S
H1797 C1807 0.930 . S
C1798 H1792 0.930 . S
C1798 C1799 1.355 . S
C1798 C1800 1.415 . S
C1799 C1798 1.355 . S
C1799 C1801 1.419 . S
C1800 C1798 1.415 . S
C1800 C1805 1.425 . S
C1800 C1807 1.409 . S
C1801 H1793 0.930 . S
C1801 C1799 1.419 . S
C1801 C1802 1.362 . S
C1802 H1794 0.930 . S
C1802 C1801 1.362 . S
C1802 C1805 1.409 . S
C1803 H1795 0.930 . S
C1803 C1804 1.355 . S
C1803 C1805 1.415 . S
C1804 C1803 1.355 . S
C1804 C1806 1.419 . S
C1805 C1800 1.425 . S
C1805 C1802 1.409 . S
C1805 C1803 1.415 . S
C1806 H1796 0.930 . S
C1806 C1804 1.419 . S
C1806 C1807 1.362 . S
C1807 H1797 0.930 . S
C1807 C1800 1.409 . S
C1807 C1806 1.362 . S
H1808 C1814 0.930 . S
H1809 C1817 0.930 . S
H1810 C1818 0.930 . S
H1811 C1819 0.930 . S
H1812 C1822 0.930 . S
H1813 C1823 0.930 . S
C1814 H1808 0.930 . S
C1814 C1815 1.355 . S
C1814 C1816 1.415 . S
C1815 C1814 1.355 . S
C1815 C1817 1.419 . S
C1816 C1814 1.415 . S
C1816 C1821 1.425 . S
C1816 C1823 1.409 . S
C1817 H1809 0.930 . S
C1817 C1815 1.419 . S
C1817 C1818 1.362 . S
C1818 H1810 0.930 . S
C1818 C1817 1.362 . S
C1818 C1821 1.409 . S
C1819 H1811 0.930 . S
C1819 C1820 1.355 . S
C1819 C1821 1.415 . S
C1820 C1819 1.355 . S
C1820 C1822 1.419 . S
C1821 C1816 1.425 . S
C1821 C1818 1.409 . S
C1821 C1819 1.415 . S
C1822 H1812 0.930 . S
C1822 C1820 1.419 . S
C1822 C1823 1.362 . S
C1823 H1813 0.930 . S
C1823 C1816 1.409 . S
C1823 C1822 1.362 . S
H1824 C1830 0.930 . S
H1825 C1833 0.930 . S
H1826 C1834 0.930 . S
H1827 C1835 0.930 . S
H1828 C1838 0.930 . S
H1829 C1839 0.930 . S
C1830 H1824 0.930 . S
C1830 C1831 1.355 . S
C1830 C1832 1.415 . S
C1831 C1830 1.355 . S
C1831 C1833 1.419 . S
C1832 C1830 1.415 . S
C1832 C1837 1.425 . S
C1832 C1839 1.409 . S
C1833 H1825 0.930 . S
C1833 C1831 1.419 . S
C1833 C1834 1.362 . S
C1834 H1826 0.930 . S
C1834 C1833 1.362 . S
C1834 C1837 1.409 . S
C1835 H1827 0.930 . S
C1835 C1836 1.355 . S
C1835 C1837 1.415 . S
C1836 C1835 1.355 . S
C1836 C1838 1.419 . S
C1837 C1832 1.425 . S
C1837 C1834 1.409 . S
C1837 C1835 1.415 . S
C1838 H1828 0.930 . S
C1838 C1836 1.419 . S
C1838 C1839 1.362 . S
C1839 H1829 0.930 . S
C1839 C1832 1.409 . S
C1839 C1838 1.362 . S
H1840 C1846 0.930 . S
H1841 C1849 0.930 . S
H1842 C1850 0.930 . S
H1843 C1851 0.930 . S
H1844 C1854 0.930 . S
H1845 C1855 0.930 . S
C1846 H1840 0.930 . S
C1846 C1847 1.355 . S
C1846 C1848 1.415 . S
C1847 C1846 1.355 . S
C1847 C1849 1.419 . S
C1848 C1846 1.415 . S
C1848 C1853 1.425 . S
C1848 C1855 1.409 . S
C1849 H1841 0.930 . S
C1849 C1847 1.419 . S
C1849 C1850 1.362 . S
C1850 H1842 0.930 . S
C1850 C1849 1.362 . S
C1850 C1853 1.409 . S
C1851 H1843 0.930 . S
C1851 C1852 1.355 . S
C1851 C1853 1.415 . S
C1852 C1851 1.355 . S
C1852 C1854 1.419 . S
C1853 C1848 1.425 . S
C1853 C1850 1.409 . S
C1853 C1851 1.415 . S
C1854 H1844 0.930 . S
C1854 C1852 1.419 . S
C1854 C1855 1.362 . S
C1855 H1845 0.930 . S
C1855 C1848 1.409 . S
C1855 C1854 1.362 . S
H1856 C1862 0.930 . S
H1857 C1865 0.930 . S
H1858 C1866 0.930 . S
H1859 C1867 0.930 . S
H1860 C1870 0.930 . S
H1861 C1871 0.930 . S
C1862 H1856 0.930 . S
C1862 C1863 1.355 . S
C1862 C1864 1.415 . S
C1863 C1862 1.355 . S
C1863 C1865 1.419 . S
C1864 C1862 1.415 . S
C1864 C1869 1.425 . S
C1864 C1871 1.409 . S
C1865 H1857 0.930 . S
C1865 C1863 1.419 . S
C1865 C1866 1.362 . S
C1866 H1858 0.930 . S
C1866 C1865 1.362 . S
C1866 C1869 1.409 . S
C1867 H1859 0.930 . S
C1867 C1868 1.355 . S
C1867 C1869 1.415 . S
C1868 C1867 1.355 . S
C1868 C1870 1.419 . S
C1869 C1864 1.425 . S
C1869 C1866 1.409 . S
C1869 C1867 1.415 . S
C1870 H1860 0.930 . S
C1870 C1868 1.419 . S
C1870 C1871 1.362 . S
C1871 H1861 0.930 . S
C1871 C1864 1.409 . S
C1871 C1870 1.362 . S
C1015 C469 1.716 . S
C1020 C657 1.690 . S
C1031 C505 1.774 . S
C1036 C697 1.727 . S
C1047 C433 1.799 . S
C1052 C736 1.785 . S
C1063 C397 1.624 . S
C1068 C696 1.577 . S
C1084 C737 1.496 . S
C1079 C325 1.507 . S
C1095 C361 1.497 . S
C1100 C656 1.488 . S
C1116 C667 1.626 . S
C1111 C421 1.686 . S
C1132 C707 1.732 . S
C1127 C349 1.765 . S
C1143 C385 1.738 . S
C1148 C746 1.740 . S
C1159 C493 1.621 . S
C1164 C706 1.588 . S
C1175 C529 1.511 . S
C1180 C747 1.493 . S
C1196 C666 1.530 . S
C1191 C457 1.507 . S
C1212 C777 1.623 . S
C1207 C37 1.673 . S
C1223 C73 1.764 . S
C1228 C817 1.712 . S
C1239 C1 1.754 . S
C1244 C856 1.767 . S
C1255 C613 1.584 . S
C1260 C816 1.569 . S
C1271 C541 1.494 . S
C1276 C857 1.456 . S
C1287 C577 1.456 . S
C1292 C776 1.487 . S
C1303 C637 1.683 . S
C1308 C787 1.623 . S
C1319 C565 1.767 . S
C1324 C827 1.715 . S
C1340 C866 1.780 . S
C1335 C601 1.794 . S
C1351 C61 1.627 . S
C1356 C826 1.601 . S
C1372 C867 1.449 . S
C1367 C97 1.480 1_455 S
C1383 C25 1.518 . S
C1388 C786 1.530 . S
C1404 C897 1.686 . S
C1399 C253 1.717 . S
C1415 C289 1.777 . S
C1420 C937 1.734 . S
C1436 C976 1.737 . S
C1431 C217 1.750 . S
C1452 C936 1.615 . S
C1447 C181 1.609 . S
C1468 C977 1.457 . S
C1463 C109 1.498 . S
C1479 C145 1.483 . S
C1484 C896 1.476 . S
C1495 C205 1.703 . S
C1500 C907 1.662 . S
C1511 C133 1.763 . S
C1516 C947 1.727 . S
C1532 C986 1.767 . S
C1527 C169 1.751 . S
C1543 C277 1.616 . S
C1548 C946 1.580 . S
C1559 C313 1.510 . S
C1564 C987 1.488 . S
C1575 C241 1.496 . S
C1580 C906 1.525 . S
C1591 C571 1.357 . S
C1596 C653 1.346 . S
C1612 C693 1.840 . S
C1607 C607 1.845 . S
C1623 C643 1.562 . S
C1628 C743 1.577 . S
C1639 C247 1.845 . S
C1644 C703 1.836 . S
C1655 C283 1.569 . S
C1660 C733 1.574 . S
C1676 C663 1.338 . S
C1671 C319 1.357 . S
C1687 C139 1.354 . S
C1692 C773 1.342 . S
C1703 C175 1.839 . S
C1708 C813 1.844 . S
C1719 C211 1.573 . S
C1724 C863 1.580 . S
C1735 C463 1.826 . S
C1740 C823 1.832 . S
C1756 C853 1.580 . S
C1751 C499 1.577 . S
C1767 C535 1.361 . S
C1772 C783 1.339 . S
C1783 C355 1.370 . S
C1788 C893 1.372 . S
C1799 C391 1.826 . S
C1804 C933 1.829 . S
C1820 C983 1.575 . S
C1815 C427 1.575 . S
C1831 C31 1.844 . S
C1836 C943 1.849 . S
C1847 C67 1.581 . S
C1852 C973 1.581 . S
C1863 C103 1.365 . S
C1868 C903 1.350 . S
