# Generated by pormake.
# Topology anh, (6,3)-cn, num edge types: 1
# Building blocks:
#     Node 0, Type 0, BuildingBlock: PAMTOO_clean_sbu_0, # of connection points: 6
#     Node 1, Type 0, BuildingBlock: PAMTOO_clean_sbu_0, # of connection points: 6
#     Node 2, Type 0, BuildingBlock: PAMTOO_clean_sbu_0, # of connection points: 6
#     Node 3, Type 1, BuildingBlock: QEWDON_clean_linker_0, # of connection points: 3
#     Node 4, Type 1, BuildingBlock: QEWDON_clean_linker_0, # of connection points: 3
#     Node 5, Type 1, BuildingBlock: QEWDON_clean_linker_0, # of connection points: 3
#     Node 6, Type 1, BuildingBlock: QEWDON_clean_linker_0, # of connection points: 3
#     Node 7, Type 1, BuildingBlock: QEWDON_clean_linker_0, # of connection points: 3
#     Node 8, Type 1, BuildingBlock: QEWDON_clean_linker_0, # of connection points: 3
#     Edge 9, Type (0, 1), BuildingBlock: UVAHIK_clean_linker_0, # of connection points: 2
#     Edge 10, Type (0, 1), BuildingBlock: UVAHIK_clean_linker_0, # of connection points: 2
#     Edge 11, Type (0, 1), BuildingBlock: UVAHIK_clean_linker_0, # of connection points: 2
#     Edge 12, Type (0, 1), BuildingBlock: UVAHIK_clean_linker_0, # of connection points: 2
#     Edge 13, Type (0, 1), BuildingBlock: UVAHIK_clean_linker_0, # of connection points: 2
#     Edge 14, Type (0, 1), BuildingBlock: UVAHIK_clean_linker_0, # of connection points: 2
#     Edge 15, Type (0, 1), BuildingBlock: UVAHIK_clean_linker_0, # of connection points: 2
#     Edge 16, Type (0, 1), BuildingBlock: UVAHIK_clean_linker_0, # of connection points: 2
#     Edge 17, Type (0, 1), BuildingBlock: UVAHIK_clean_linker_0, # of connection points: 2
#     Edge 18, Type (0, 1), BuildingBlock: UVAHIK_clean_linker_0, # of connection points: 2
#     Edge 19, Type (0, 1), BuildingBlock: UVAHIK_clean_linker_0, # of connection points: 2
#     Edge 20, Type (0, 1), BuildingBlock: UVAHIK_clean_linker_0, # of connection points: 2
#     Edge 21, Type (0, 1), BuildingBlock: UVAHIK_clean_linker_0, # of connection points: 2
#     Edge 22, Type (0, 1), BuildingBlock: UVAHIK_clean_linker_0, # of connection points: 2
#     Edge 23, Type (0, 1), BuildingBlock: UVAHIK_clean_linker_0, # of connection points: 2
#     Edge 24, Type (0, 1), BuildingBlock: UVAHIK_clean_linker_0, # of connection points: 2
#     Edge 25, Type (0, 1), BuildingBlock: UVAHIK_clean_linker_0, # of connection points: 2
#     Edge 26, Type (0, 1), BuildingBlock: UVAHIK_clean_linker_0, # of connection points: 2
# Relax obj value: 0.100
# Max RMSD: 0.142
# Mean RMSD: 0.117
data_MOF--net-anh--node1-PAMTOO_clean_sbu_0--node2-QEWDON_clean_linker_0--edge1-UVAHIK_clean_linker_0
_symmetry_space_group_name_H-M    P1
_symmetry_Int_Tables_number       1
_symmetry_cell_setting            triclinic
loop_
_symmetry_equiv_pos_as_xyz
'x, y, z'
_cell_length_a     41.188812
_cell_length_b     39.934139
_cell_length_c     63.811299
_cell_angle_alpha  93.197906
_cell_angle_beta   99.99779
_cell_angle_gamma 105.4694
loop_
_atom_site_label
_atom_site_type_symbol
_atom_site_fract_x
_atom_site_fract_y
_atom_site_fract_z
_atom_type_partial_charge
Dy0 Dy 0.08463 0.60902 0.14566 0.0
Dy1 Dy 0.05832 0.52305 0.13622 0.0
C2 C 0.07172 0.57166 0.09779 0.0
O3 O 1.02671 0.59749 0.13593 0.0
O4 O 1.01192 0.5398 0.14223 0.0
O5 O 0.08999 0.66194 0.13748 0.0
O6 O 0.11248 0.65264 0.16913 0.0
O7 O 0.07877 0.53676 0.17132 0.0
O8 O 0.06489 0.58798 0.17406 0.0
O9 O 0.11355 0.53525 0.1319 0.0
O10 O 0.13321 0.59124 0.14897 0.0
O11 O 0.05933 0.47195 0.14552 0.0
O12 O 1.02323 0.47657 0.11769 0.0
C13 C 1.00335 0.56884 0.13848 0.0
O14 O 0.08682 0.59953 0.11144 0.0
O15 O 0.05673 0.54124 0.10365 0.0
C16 C 0.14357 0.70208 0.15472 0.0
C17 C 0.20625 0.75254 0.15355 0.0
C18 C 0.178 0.74629 0.13645 0.0
C19 C 0.147 0.72135 0.13703 0.0
C20 C 0.17171 0.70872 0.17191 0.0
C21 C 0.20262 0.7335 0.17129 0.0
C22 C 0.11076 0.67575 0.1556 0.0
C23 C 0.0716 0.56108 0.18274 0.0
C24 C 0.13912 0.56323 0.14011 0.0
C25 C 1.00441 0.43086 0.1382 0.0
C26 C 0.94744 0.38378 0.14988 0.0
C27 C 0.95906 0.4189 0.15894 0.0
C28 C 0.98723 0.44222 0.15312 0.0
C29 C 0.99331 0.39588 0.12935 0.0
C30 C 0.96514 0.37255 0.13512 0.0
C31 C 1.0326 0.45564 0.1309 0.0
H32 H 0.17996 0.76039 0.1225 0.0
H33 H 0.12574 0.71716 0.12362 0.0
H34 H 0.16989 0.69484 0.18596 0.0
H35 H 0.22356 0.73814 0.18494 0.0
H36 H 0.94638 0.42843 0.17053 0.0
H37 H 0.99536 0.46923 0.16008 0.0
H38 H 1.00606 0.38672 0.11766 0.0
H39 H 0.95667 0.34592 0.12754 0.0
Dy40 Dy 0.57182 0.04276 0.49132 0.0
Dy41 Dy 0.65669 0.06797 0.49929 0.0
C42 C 0.61764 0.05726 0.53752 0.0
O43 O 0.58463 0.09948 0.48648 0.0
O44 O 0.64059 0.11649 0.50492 0.0
O45 O 0.52657 0.02712 0.50521 0.0
O46 O 0.52131 0.03036 0.47109 0.0
O47 O 0.63674 0.07658 0.46585 0.0
O48 O 0.58676 0.03242 0.4601 0.0
O49 O 0.64231 0.00983 0.4913 0.0
O50 O 0.58793 0.99492 0.4989 0.0
O51 O 0.70396 0.06999 0.48844 0.0
O52 O 0.70533 0.09604 0.51941 0.0
C53 C 0.61253 0.12396 0.49584 0.0
O54 O 0.59329 0.06636 0.52508 0.0
O55 O 0.642 0.04883 0.52953 0.0
C56 C 0.47824 0.98719 0.48321 0.0
C57 C 0.42529 0.92356 0.47755 0.0
C58 C 0.42974 0.94875 0.49491 0.0
C59 C 0.45578 0.9802 0.49763 0.0
C60 C 0.47416 0.96208 0.4659 0.0
C61 C 0.44789 0.93062 0.46308 0.0
C62 C 0.50555 0.02074 0.48676 0.0
C63 C 0.61086 0.05451 0.45275 0.0
C64 C 0.61532 0.98649 0.49517 0.0
C65 C 0.74633 0.12363 0.49983 0.0
C66 C 0.79136 0.18609 0.49143 0.0
C67 C 0.75588 0.17765 0.48302 0.0
C68 C 0.73356 0.14674 0.48724 0.0
C69 C 0.78163 0.13174 0.50813 0.0
C70 C 0.80397 0.1627 0.50399 0.0
C71 C 0.72286 0.09161 0.50483 0.0
H72 H 0.41332 0.94406 0.50661 0.0
H73 H 0.45851 -0.00089 0.51114 0.0
H74 H 0.49115 0.96673 0.45453 0.0
H75 H 0.44503 0.91205 0.44939 0.0
H76 H 0.74524 0.19527 0.47354 0.0
H77 H 0.70628 0.14101 0.48084 0.0
H78 H 0.79191 0.1142 0.51791 0.0
H79 H 0.83117 0.16822 0.51052 0.0
Dy80 Dy 0.61754 0.53146 0.82336 0.0
Dy81 Dy 0.53418 0.50953 0.81003 0.0
C82 C 0.57973 0.5186 0.77447 0.0
O83 O 0.60487 0.58166 0.82975 0.0
O84 O 0.55214 0.56693 0.80716 0.0
O85 O 0.66845 0.56284 0.82181 0.0
O86 O 0.66189 0.51938 0.84107 0.0
O87 O 0.54664 0.53324 0.84398 0.0
O88 O 0.59737 0.51985 0.85333 0.0
O89 O 0.54792 0.46064 0.81862 0.0
O90 O 0.60039 0.47576 0.80923 0.0
O91 O 0.48389 0.48751 0.81712 0.0
O92 O 0.48898 0.50601 0.78625 0.0
C93 C 0.57899 0.59052 0.81864 0.0
O94 O 0.60539 0.53869 0.78871 0.0
O95 O 0.55285 0.4983 0.78032 0.0
C96 C 0.70575 0.52696 0.82135 0.0
C97 C 0.74683 0.49482 0.80103 0.0
C98 C 0.72218 0.50802 0.78885 0.0
C99 C 0.70156 0.52369 0.79891 0.0
C100 C 0.73017 0.51355 0.83349 0.0
C101 C 0.75048 0.49751 0.82343 0.0
C102 C 0.68309 0.54172 0.83213 0.0
C103 C 0.57085 0.52808 0.85861 0.0
C104 C 0.57437 0.45192 0.81355 0.0
C105 C 0.44569 0.51802 0.80178 0.0
C106 C 0.40616 0.56545 0.80297 0.0
C107 C 0.43714 0.57079 0.81775 0.0
C108 C 0.45682 0.54739 0.81707 0.0
C109 C 0.41459 0.51216 0.78726 0.0
C110 C 0.39493 0.53569 0.78784 0.0
C111 C 0.46833 0.49592 0.79943 0.0
H112 H 0.71889 0.50625 0.77157 0.0
H113 H 0.68233 0.53314 0.78912 0.0
H114 H 0.73346 0.5154 0.85078 0.0
H115 H 0.76971 0.48806 0.83322 0.0
H116 H 0.44627 0.59312 0.82981 0.0
H117 H 0.48111 0.55264 0.82821 0.0
H118 H 0.406 0.48994 0.77511 0.0
H119 H 0.37145 0.53106 0.77604 0.0
H120 H 0.58987 0.11368 0.22045 0.0
C121 C 0.57099 0.09006 0.2124 0.0
C122 C 0.55666 0.06347 0.22446 0.0
C123 C 0.55918 0.08725 0.19009 0.0
H124 H 0.52072 0.0126 0.22297 0.0
C125 C 0.53167 0.03334 0.21383 0.0
C126 C 0.51939 0.03014 0.19172 0.0
C127 C 0.53317 0.05721 0.17994 0.0
C128 C 0.5719 0.11656 0.17747 0.0
H129 H 0.52364 0.05482 0.16283 0.0
C130 C 0.60732 0.13352 0.17967 0.0
C131 C 0.61869 0.16005 0.16669 0.0
C132 C 0.54814 0.12736 0.16274 0.0
H133 H 0.52079 0.11533 0.16099 0.0
C134 C 0.55928 0.15398 0.15023 0.0
H135 H 0.62595 0.12528 0.19081 0.0
C136 C 0.59424 0.17009 0.15207 0.0
H137 H 0.60219 0.19071 0.14213 0.0
H138 H 0.54072 0.16209 0.13898 0.0
H139 H 0.57854 0.56647 0.5404 0.0
C140 C 0.5847 0.54285 0.53552 0.0
C141 C 0.58764 0.51867 0.5504 0.0
C142 C 0.58785 0.53557 0.51417 0.0
H143 H 0.59638 0.46873 0.55561 0.0
C144 C 0.59444 0.48747 0.54411 0.0
C145 C 0.59803 0.47978 0.52313 0.0
C146 C 0.5948 0.50387 0.50825 0.0
C147 C 0.58248 0.56001 0.49779 0.0
H148 H 0.59808 0.4979 0.49212 0.0
C149 C 0.59277 0.59673 0.50305 0.0
C150 C 0.58823 0.61913 0.48714 0.0
C151 C 0.56669 0.54643 0.47649 0.0
H152 H 0.55725 0.51853 0.47189 0.0
C153 C 0.56231 0.5686 0.46079 0.0
H154 H 0.60503 0.608 0.51926 0.0
C155 C 0.57319 0.60467 0.466 0.0
H156 H 0.56925 0.62137 0.45355 0.0
H157 H 0.55022 0.55772 0.44449 0.0
H158 H 0.10461 0.6688 0.88221 0.0
C159 C 0.08943 0.6479 0.86999 0.0
C160 C 0.07155 0.61582 0.87585 0.0
C161 C 0.08678 0.65349 0.84835 0.0
H162 H 1.03754 0.56461 0.86444 0.0
C163 C 0.05182 0.58912 0.85984 0.0
C164 C 0.04954 0.59418 0.83806 0.0
C165 C 0.06707 0.62665 0.83246 0.0
C166 C 0.10535 0.68711 0.84216 0.0
H167 H 0.06556 0.63111 0.81576 0.0
C168 C 0.13999 0.69322 0.84104 0.0
C169 C 0.15763 0.72382 0.83341 0.0
C170 C 0.08823 0.71208 0.83609 0.0
H171 H 0.06131 0.70753 0.83676 0.0
C172 C 0.1058 0.74292 0.82887 0.0
H173 H 0.15273 0.67328 0.84517 0.0
C174 C 0.14029 0.74869 0.82732 0.0
H175 H 0.15333 0.77235 0.82125 0.0
H176 H 0.0925 0.76211 0.82412 0.0
H177 H 0.04883 0.54769 0.41607 0.0
C178 C 0.07389 0.56548 0.42276 0.0
C179 C 0.09764 0.5759 0.40937 0.0
C180 C 0.08197 0.57886 0.4445 0.0
H181 H 0.14732 0.609 0.4072 0.0
C182 C 0.12965 0.59986 0.41779 0.0
C183 C 0.13795 0.6142 0.43925 0.0
C184 C 0.11416 0.60326 0.45257 0.0
C185 C 0.05616 0.569 0.45845 0.0
H186 H 0.12075 0.61392 0.46924 0.0
C187 C 1.03522 0.53432 0.45718 0.0
C188 C 1.01043 0.52542 0.47019 0.0
C189 C 0.05193 0.59463 0.47294 0.0
H190 H 0.06704 0.62163 0.47404 0.0
C191 C 1.02768 0.58592 0.48595 0.0
H192 H 1.03811 0.51433 0.44604 0.0
C193 C 1.00711 0.55165 0.48464 0.0
H194 H 0.98881 0.54562 0.49516 0.0
H195 H 1.02475 0.60588 0.49708 0.0
H196 H 0.57043 -0.00211 0.7632 0.0
C197 C 0.57494 0.02451 0.77015 0.0
C198 C 0.58336 0.05208 0.75753 0.0
C199 C 0.56983 0.03111 0.79111 0.0
H200 H 0.59386 0.10758 0.75621 0.0
C201 C 0.58785 0.08645 0.76614 0.0
C202 C 0.58331 0.0938 0.78697 0.0
C203 C 0.5744 0.06604 0.7994 0.0
C204 C 0.55691 0.00163 0.80371 0.0
H205 H 0.57093 0.07175 0.81553 0.0
C206 C 0.56843 0.97124 0.8034 0.0
C207 C 0.55553 0.94368 0.81539 0.0
C208 C 0.53193 0.0036 0.81588 0.0
H209 H 0.52169 0.02591 0.81605 0.0
C210 C 0.51909 0.97648 0.82763 0.0
H211 H 0.58781 0.96931 0.79426 0.0
C212 C 0.53072 0.9468 0.82742 0.0
H213 H 0.51971 0.92591 0.83641 0.0
H214 H 0.49974 0.97832 0.8368 0.0
H215 H 0.54591 0.56654 0.09196 0.0
C216 C 0.57137 0.56536 0.09897 0.0
C217 C 0.59255 0.5584 0.08517 0.0
C218 C 0.58295 0.57115 0.12139 0.0
H219 H 0.6428 0.55438 0.08285 0.0
C220 C 0.62622 0.55812 0.09371 0.0
C221 C 0.63941 0.56342 0.11577 0.0
C222 C 0.61749 0.5698 0.12959 0.0
C223 C 0.55969 0.58038 0.13582 0.0
H224 H 0.62743 0.57295 0.14662 0.0
C225 C 0.52275 0.57277 0.1296 0.0
C226 C 0.50282 0.5846 0.14319 0.0
C227 C 0.57509 0.59924 0.15603 0.0
H228 H 0.60261 0.60717 0.16151 0.0
C229 C 0.5556 0.60955 0.16957 0.0
H230 H 0.50944 0.55839 0.1143 0.0
C231 C 0.52017 0.60246 0.16329 0.0
H232 H 0.50618 0.61133 0.17431 0.0
H233 H 0.56825 0.62388 0.18503 0.0
C234 C 0.20327 0.5945 0.1455 0.0
C235 C 0.17592 0.56365 0.13925 0.0
C236 C 0.23743 0.59539 0.14427 0.0
C237 C 0.29656 0.5383 0.13979 0.0
H238 H 0.35535 0.62216 0.12404 0.0
C239 C 0.43964 0.54796 0.13104 0.0
C240 C 0.46442 0.58059 0.13729 0.0
C241 C 0.404 0.54457 0.12949 0.0
C242 C 0.33977 0.59854 0.1288 0.0
H243 H 0.16435 0.50925 0.12687 0.0
H244 H 0.22357 0.5107 0.12487 0.0
H245 H 0.29614 0.61901 0.12571 0.0
H246 H 0.47007 0.63534 0.14598 0.0
H247 H 0.40946 0.62964 0.14354 0.0
H248 H 0.34045 0.51802 0.14317 0.0
C249 C 0.21863 0.5344 0.13084 0.0
C250 C 0.30532 0.59673 0.12973 0.0
C251 C 0.18434 0.53359 0.1319 0.0
C252 C 0.45209 0.60971 0.14107 0.0
C253 C 0.41682 0.60639 0.13954 0.0
C254 C 0.33121 0.54019 0.13901 0.0
C255 C 0.24596 0.56539 0.13688 0.0
C256 C 0.28294 0.56671 0.13541 0.0
C257 C 0.39181 0.57371 0.13403 0.0
C258 C 0.35379 0.57052 0.13369 0.0
H259 H 0.19831 0.61833 0.15126 0.0
H260 H 0.25732 0.61976 0.14941 0.0
H261 H 0.28069 0.5147 0.14441 0.0
H262 H 0.44784 0.52479 0.1282 0.0
H263 H 0.38605 0.51889 0.12489 0.0
C264 C 0.81133 0.23155 0.46711 0.0
C265 C 0.81501 0.21943 0.48742 0.0
C266 C 0.83321 0.26318 0.46348 0.0
C267 C 0.91701 0.32849 0.48612 0.0
H268 H 0.87821 0.39014 0.4513 0.0
C269 C 1.00148 0.46021 0.46752 0.0
C270 C 0.98805 0.48896 0.46898 0.0
C271 C 0.98075 0.42621 0.46784 0.0
C272 C 0.88947 0.37332 0.46115 0.0
H273 H 0.84441 0.23137 0.5199 0.0
H274 H 0.88231 0.28657 0.51367 0.0
H275 H 0.84162 0.3334 0.45625 0.0
H276 H 0.94186 0.50425 0.47099 0.0
H277 H 0.90609 0.44536 0.47205 0.0
H278 H 0.96456 0.36897 0.49167 0.0
C279 C 0.86299 0.27132 0.50038 0.0
C280 C 0.86854 0.34055 0.46378 0.0
C281 C 0.8412 0.23964 0.50398 0.0
C282 C 0.95319 0.48278 0.47016 0.0
C283 C 0.93253 0.44889 0.47049 0.0
C284 C 0.93793 0.36131 0.48352 0.0
C285 C 0.85925 0.28357 0.4801 0.0
C286 C 0.88194 0.31782 0.47648 0.0
C287 C 0.94608 0.42016 0.46957 0.0
C288 C 0.92435 0.38432 0.47118 0.0
H289 H 0.79173 0.21638 0.45392 0.0
H290 H 0.82988 0.2715 0.44758 0.0
H291 H 0.92835 0.31151 0.49577 0.0
H292 H 1.02825 0.46403 0.46672 0.0
H293 H 0.99195 0.40467 0.46684 0.0
C294 C 0.55058 0.63773 0.80984 0.0
C295 C 0.58016 0.62806 0.81847 0.0
C296 C 0.55168 0.67294 0.809 0.0
C297 C 0.60327 0.7629 0.83219 0.0
H298 H 0.54711 0.78909 0.78415 0.0
C299 C 0.57214 0.89546 0.83433 0.0
C300 C 0.56684 0.91114 0.8153 0.0
C301 C 0.57821 0.86266 0.8341 0.0
C302 C 0.56339 0.78245 0.79755 0.0
H303 H 0.63417 0.64809 0.83302 0.0
H304 H 0.63627 0.70949 0.83122 0.0
H305 H 0.54883 0.72874 0.78472 0.0
H306 H 0.56556 0.90515 0.78119 0.0
H307 H 0.57707 0.84811 0.78081 0.0
H308 H 0.61832 0.81676 0.84483 0.0
C309 C 0.612 0.68985 0.8254 0.0
C310 C 0.56394 0.74759 0.79805 0.0
C311 C 0.61084 0.65457 0.82638 0.0
C312 C 0.56958 0.89389 0.79614 0.0
C313 C 0.57574 0.86096 0.7959 0.0
C314 C 0.60286 0.79781 0.83164 0.0
C315 C 0.58245 0.69956 0.81662 0.0
C316 C 0.58346 0.73717 0.81554 0.0
C317 C 0.57941 0.84455 0.81483 0.0
C318 C 0.58248 0.80801 0.81447 0.0
H319 H 0.52639 0.61807 0.80378 0.0
H320 H 0.52818 0.67926 0.80257 0.0
H321 H 0.61847 0.75599 0.846 0.0
H322 H 0.57073 0.90823 0.84944 0.0
H323 H 0.58058 0.85094 0.84898 0.0
C324 C 0.95417 0.5974 0.13117 0.0
C325 C 0.96638 0.56913 0.13788 0.0
C326 C 0.91949 0.59708 0.13045 0.0
C327 C 0.83153 0.53577 0.13212 0.0
H328 H 0.80604 0.62192 0.1379 0.0
C329 C 0.6876 0.5356 0.1136 0.0
C330 C 0.67617 0.56196 0.12317 0.0
C331 C 0.72256 0.5366 0.11702 0.0
C332 C 0.81243 0.59741 0.13649 0.0
H333 H 0.95064 0.51851 0.14955 0.0
H334 H 0.89147 0.51832 0.14896 0.0
H335 H 0.86631 0.62383 0.14074 0.0
H336 H 0.69383 0.60972 0.14472 0.0
H337 H 0.75481 0.61102 0.15135 0.0
H338 H 0.77802 0.50925 0.12862 0.0
C339 C 0.90812 0.54057 0.14356 0.0
C340 C 0.84742 0.59853 0.13779 0.0
C341 C 0.94259 0.54076 0.14407 0.0
C342 C 0.70126 0.58872 0.13716 0.0
C343 C 0.73655 0.58971 0.14066 0.0
C344 C 0.7967 0.53465 0.13098 0.0
C345 C 0.89554 0.56858 0.13658 0.0
C346 C 0.85785 0.5677 0.13551 0.0
C347 C 0.74809 0.5639 0.13037 0.0
C348 C 0.78615 0.56542 0.1329 0.0
H349 H 0.97134 0.61978 0.12619 0.0
H350 H 0.91146 0.61912 0.12466 0.0
H351 H 0.83754 0.5112 0.12993 0.0
H352 H 0.66938 0.51442 0.10275 0.0
H353 H 0.72952 0.51631 0.10839 0.0
C354 C 0.40221 0.85845 0.46726 0.0
C355 C 0.39714 0.89021 0.47462 0.0
C356 C 0.3758 0.82719 0.46476 0.0
C357 C 0.29528 0.78601 0.48264 0.0
H358 H 0.27509 0.72276 0.43076 0.0
C359 C 0.16949 0.67366 0.45837 0.0
C360 C 0.17019 0.64277 0.44701 0.0
C361 C 0.19881 0.70229 0.46338 0.0
C362 C 0.2807 0.73975 0.44554 0.0
H363 H 0.35976 0.9138 0.48463 0.0
H364 H 0.31407 0.85932 0.4806 0.0
H365 H 0.32308 0.77558 0.43606 0.0
H366 H 0.20266 0.61703 0.43298 0.0
H367 H 0.25409 0.66665 0.44213 0.0
H368 H 0.25303 0.75024 0.49219 0.0
C369 C 0.33865 0.85858 0.47702 0.0
C370 C 0.30819 0.77013 0.44853 0.0
C371 C 0.36492 0.88983 0.47936 0.0
C372 C 0.20125 0.64065 0.44154 0.0
C373 C 0.23065 0.66917 0.44668 0.0
C374 C 0.26794 0.7555 0.47974 0.0
C375 C 0.34377 0.82689 0.46971 0.0
C376 C 0.31557 0.79379 0.467 0.0
C377 C 0.22965 0.70065 0.45727 0.0
C378 C 0.26004 0.73212 0.46104 0.0
H379 H 0.42679 0.85759 0.46376 0.0
H380 H 0.38064 0.80314 0.45929 0.0
H381 H 0.30064 0.80348 0.49721 0.0
H382 H 0.14582 0.67628 0.46254 0.0
H383 H 0.19685 0.72617 0.47128 0.0
C384 C 0.60314 0.40569 0.80634 0.0
C385 C 0.57508 0.41484 0.81235 0.0
C386 C 0.60427 0.37098 0.8052 0.0
C387 C 0.56841 0.28502 0.82372 0.0
H388 H 0.601 0.25025 0.7758 0.0
C389 C 0.55909 0.13806 0.80357 0.0
C390 C 0.58559 0.13038 0.79473 0.0
C391 C 0.55862 0.1728 0.80764 0.0
C392 C 0.59233 0.2596 0.78949 0.0
H393 H 0.5263 0.39441 0.82208 0.0
H394 H 0.52819 0.33361 0.81992 0.0
H395 H 0.59781 0.31017 0.77867 0.0
H396 H 0.63358 0.15309 0.78466 0.0
H397 H 0.63321 0.21349 0.79213 0.0
H398 H 0.5629 0.23421 0.83448 0.0
C399 C 0.54945 0.35348 0.81625 0.0
C400 C 0.59041 0.29403 0.7911 0.0
C401 C 0.54826 0.38832 0.81735 0.0
C402 C 0.61256 0.15818 0.79119 0.0
C403 C 0.61219 0.1928 0.79534 0.0
C404 C 0.57039 0.25046 0.82213 0.0
C405 C 0.57741 0.34437 0.81004 0.0
C406 C 0.5786 0.3073 0.80828 0.0
C407 C 0.58473 0.20059 0.80302 0.0
C408 C 0.58258 0.23736 0.80504 0.0
H409 H 0.62441 0.42537 0.80251 0.0
H410 H 0.62646 0.36506 0.80069 0.0
H411 H 0.5595 0.29449 0.83727 0.0
H412 H 0.5378 0.11719 0.80629 0.0
H413 H 0.53698 0.17776 0.81345 0.0
C414 C 0.64 0.93705 0.48706 0.0
C415 C 0.61583 0.94949 0.49583 0.0
C416 C 0.64001 0.902 0.48752 0.0
C417 C 0.61324 0.82459 0.51593 0.0
H418 H 0.61451 0.77214 0.46328 0.0
C419 C 0.58333 0.67332 0.50666 0.0
C420 C 0.59832 0.65767 0.49215 0.0
C421 C 0.58855 0.70962 0.50869 0.0
C422 C 0.61487 0.7864 0.47829 0.0
H423 H 0.5731 0.93485 0.51234 0.0
H424 H 0.57351 0.87397 0.51338 0.0
H425 H 0.61814 0.83397 0.46374 0.0
H426 H 0.63206 0.66756 0.46935 0.0
H427 H 0.64269 0.73082 0.47359 0.0
H428 H 0.61049 0.77729 0.53064 0.0
C429 C 0.59236 0.89131 0.50609 0.0
C430 C 0.61677 0.82192 0.47847 0.0
C431 C 0.592 0.92617 0.50534 0.0
C432 C 0.62005 0.67904 0.48056 0.0
C433 C 0.62577 0.71529 0.48284 0.0
C434 C 0.61182 0.78913 0.51584 0.0
C435 C 0.61622 0.87877 0.49708 0.0
C436 C 0.61569 0.84136 0.49723 0.0
C437 C 0.60929 0.73109 0.49644 0.0
C438 C 0.61236 0.76939 0.49697 0.0
H439 H 0.65869 0.95427 0.4796 0.0
H440 H 0.65882 0.89312 0.48055 0.0
H441 H 0.61269 0.83901 0.53069 0.0
H442 H 0.56615 0.65732 0.5156 0.0
H443 H 0.57508 0.72055 0.51917 0.0
C444 C 0.7795 0.45095 0.79686 0.0
C445 C 0.77109 0.48133 0.79081 0.0
C446 C 0.80786 0.44278 0.79098 0.0
C447 C 0.88219 0.4782 0.76359 0.0
H448 H 0.93382 0.46894 0.81871 0.0
C449 C 1.00388 0.57538 0.80493 0.0
C450 C 1.0263 0.56656 0.82151 0.0
C451 C 0.97685 0.54946 0.79225 0.0
C452 C 0.92005 0.47057 0.80288 0.0
H453 H 0.78337 0.52503 0.77216 0.0
H454 H 0.83333 0.51191 0.76266 0.0
H455 H 0.87222 0.44808 0.81174 0.0
H456 H 1.0408 0.52341 0.8359 0.0
H457 H 0.99305 0.47807 0.81395 0.0
H458 H 0.93058 0.50422 0.75582 0.0
C459 C 0.81795 0.49365 0.77147 0.0
C460 C 0.88432 0.45845 0.79882 0.0
C461 C 0.78933 0.50145 0.77706 0.0
C462 C 1.02331 0.53104 0.82362 0.0
C463 C 0.99618 0.50507 0.81095 0.0
C464 C 0.91804 0.49067 0.76776 0.0
C465 C 0.82878 0.46536 0.7794 0.0
C466 C 0.86487 0.46471 0.7798 0.0
C467 C 0.97157 0.51418 0.79595 0.0
C468 C 0.93705 0.48935 0.78809 0.0
H469 H 0.76528 0.43459 0.8071 0.0
H470 H 0.81483 0.42022 0.79686 0.0
H471 H 0.86802 0.4822 0.74843 0.0
H472 H 1.00537 0.60245 0.80288 0.0
H473 H 0.95823 0.55752 0.78101 0.0
C474 C 0.2708 0.77236 0.16106 0.0
C475 C 0.23933 0.77907 0.1532 0.0
C476 C 0.30189 0.79799 0.1622 0.0
C477 C 0.34245 0.88196 0.14271 0.0
H478 H 0.40876 0.89369 0.19565 0.0
C479 C 0.46031 0.00423 0.1694 0.0
C480 C 0.49026 -0.00048 0.18166 0.0
C481 C 0.4307 0.976 0.16315 0.0
C482 C 0.39089 0.89047 0.18058 0.0
H483 H 0.21608 0.81788 0.13984 0.0
H484 H 0.27045 0.8627 0.14184 0.0
H485 H 0.35532 0.84723 0.19003 0.0
H486 H 0.51357 0.96124 0.19561 0.0
H487 H 0.46239 0.9119 0.1843 0.0
H488 H 0.37813 0.92561 0.13341 0.0
C489 C 0.27101 0.83742 0.14696 0.0
C490 C 0.36012 0.86378 0.17737 0.0
C491 C 0.23983 0.81172 0.14582 0.0
C492 C 0.49069 0.96569 0.1864 0.0
C493 C 0.46127 0.93749 0.18004 0.0
C494 C 0.3734 0.90871 0.1459 0.0
C495 C 0.3024 0.83106 0.15551 0.0
C496 C 0.33546 0.85917 0.15844 0.0
C497 C 0.43053 0.94245 0.16896 0.0
C498 C 0.39803 0.91332 0.16491 0.0
H499 H 0.27142 0.74725 0.16645 0.0
H500 H 0.3256 0.79193 0.16846 0.0
H501 H 0.32413 0.87893 0.12786 0.0
H502 H 0.45917 0.03009 0.16569 0.0
H503 H 0.4075 0.98089 0.15475 0.0
C504 C 0.58491 0.17115 0.48488 0.0
C505 C 0.6123 0.16116 0.49673 0.0
C506 C 0.58466 0.20623 0.48612 0.0
C507 C 0.61874 0.2879 0.52199 0.0
H508 H 0.59543 0.33316 0.47159 0.0
C509 C 0.62953 0.43454 0.52948 0.0
C510 C 0.6037 0.44571 0.51692 0.0
C511 C 0.63227 0.40074 0.52547 0.0
C512 C 0.60161 0.32085 0.48587 0.0
H513 H 0.66111 0.18051 0.519 0.0
H514 H 0.66038 0.24138 0.5213 0.0
H515 H 0.59594 0.27205 0.46767 0.0
H516 H 0.56105 0.4307 0.48994 0.0
H517 H 0.56514 0.37123 0.48317 0.0
H518 H 0.6235 0.33593 0.54032 0.0
C519 C 0.63907 0.22207 0.5111 0.0
C520 C 0.60196 0.28583 0.48359 0.0
C521 C 0.63953 0.18714 0.50969 0.0
C522 C 0.58141 0.42281 0.49974 0.0
C523 C 0.58382 0.38874 0.49588 0.0
C524 C 0.61803 0.32268 0.52429 0.0
C525 C 0.61158 0.23201 0.49943 0.0
C526 C 0.61073 0.26905 0.50164 0.0
C527 C 0.60886 0.37698 0.509 0.0
C528 C 0.60968 0.3398 0.50628 0.0
H529 H 0.56359 0.15187 0.47468 0.0
H530 H 0.56302 0.21306 0.47704 0.0
H531 H 0.62501 0.27553 0.53624 0.0
H532 H 0.64727 0.45182 0.5427 0.0
H533 H 0.6525 0.39311 0.53555 0.0
C534 C 0.40223 0.62711 0.80732 0.0
C535 C 0.38581 0.59099 0.80327 0.0
C536 C 0.38303 0.65103 0.80814 0.0
C537 C 0.29581 0.66035 0.79203 0.0
H538 H 0.31986 0.72701 0.8427 0.0
C539 C 0.20116 0.73354 0.80994 0.0
C540 C 0.19299 0.72752 0.83012 0.0
C541 C 0.23149 0.72846 0.8052 0.0
C542 C 0.31308 0.70886 0.82833 0.0
H543 H 0.33634 0.55178 0.79689 0.0
H544 H 0.30293 0.59348 0.79807 0.0
H545 H 0.359 0.69287 0.83615 0.0
H546 H 0.21139 0.71514 0.86182 0.0
H547 H 0.26413 0.70605 0.85359 0.0
H548 H 0.24905 0.67463 0.7848 0.0
C549 C 0.33062 0.6033 0.80035 0.0
C550 C 0.33553 0.68947 0.82452 0.0
C551 C 0.34978 0.5794 0.7997 0.0
C552 C 0.21704 0.71963 0.84608 0.0
C553 C 0.24737 0.71472 0.84139 0.0
C554 C 0.27347 0.6798 0.79577 0.0
C555 C 0.34705 0.63931 0.80471 0.0
C556 C 0.32645 0.6641 0.80675 0.0
C557 C 0.25413 0.71747 0.82061 0.0
C558 C 0.28129 0.70332 0.81437 0.0
H559 H 0.42993 0.63695 0.80976 0.0
H560 H 0.39629 0.67867 0.8114 0.0
H561 H 0.28844 0.64129 0.77805 0.0
H562 H 0.18297 0.73957 0.79735 0.0
H563 H 0.23627 0.73115 0.78912 0.0
C564 C 0.8876 0.37053 0.15769 0.0
C565 C 0.91641 0.35919 0.15523 0.0
C566 C 0.85787 0.3471 0.16164 0.0
C567 C 0.81167 0.25323 0.15404 0.0
H568 H 0.7568 0.28058 0.19186 0.0
C569 C 0.66873 0.18169 0.14886 0.0
C570 C 0.65582 0.17733 0.16783 0.0
C571 C 0.70261 0.20103 0.14938 0.0
C572 C 0.77201 0.27235 0.18144 0.0
H573 H 0.93672 0.31432 0.15584 0.0
H574 H 0.88479 0.27347 0.16251 0.0
H575 H 0.81217 0.32052 0.1895 0.0
H576 H 0.66862 0.18898 0.20231 0.0
H577 H 0.72818 0.22306 0.20327 0.0
H578 H 0.77141 0.20524 0.1458 0.0
C579 C 0.88508 0.30045 0.16111 0.0
C580 C 0.80358 0.29541 0.1799 0.0
C581 C 0.91486 0.3239 0.15724 0.0
C582 C 0.67794 0.19181 0.18745 0.0
C583 C 0.71189 0.21155 0.18797 0.0
C584 C 0.78006 0.23028 0.15548 0.0
C585 C 0.85608 0.31167 0.16316 0.0
C586 C 0.8236 0.28632 0.16597 0.0
C587 C 0.72448 0.21674 0.16889 0.0
C588 C 0.75959 0.23974 0.16897 0.0
H589 H 0.88758 0.39733 0.15593 0.0
H590 H 0.83586 0.35656 0.16282 0.0
H591 H 0.82625 0.24543 0.14303 0.0
H592 H 0.65235 0.17063 0.1335 0.0
H593 H 0.71128 0.20472 0.13437 0.0
C594 C 0.07722 0.60813 0.06735 0.0
C595 C 0.07163 0.57501 0.07483 0.0
C596 C 0.07706 0.61163 0.0457 0.0
C597 C 0.09205 0.57135 -0.0028 0.0
H598 H 1.03577 0.62488 0.96772 0.0
C599 C 0.10323 0.61777 0.91339 0.0
C600 C 0.07203 0.61056 0.89865 0.0
C601 C 0.10338 0.61235 0.93487 0.0
C602 C 0.05154 0.60983 0.97576 0.0
H603 H 0.06199 0.51963 0.06552 0.0
H604 H 0.0624 0.52595 0.02758 0.0
H605 H 1.03541 0.61704 0.00543 0.0
H606 H 1.0166 0.59262 0.89471 0.0
H607 H 1.01685 0.58376 0.93234 0.0
H608 H 0.10855 0.56461 0.96753 0.0
C609 C 0.06664 0.54907 0.03856 0.0
C610 C 0.05147 0.6055 -0.00269 0.0
C611 C 0.06621 0.54546 0.06021 0.0
C612 C 1.04101 0.59815 0.90576 0.0
C613 C 1.04113 0.59327 0.92725 0.0
C614 C 0.09256 0.57618 0.9757 0.0
C615 C 0.07186 0.58217 0.03113 0.0
C616 C 0.07166 0.58618 0.0082 0.0
C617 C 0.0723 0.60025 0.94199 0.0
C618 C 0.07222 0.59538 0.9648 0.0
H619 H 0.08138 0.63141 0.07818 0.0
H620 H 0.08137 0.63747 0.04037 0.0
H621 H 0.10799 0.55653 0.00531 0.0
H622 H 0.12746 0.62723 0.90823 0.0
H623 H 0.12773 0.61812 0.94598 0.0
C624 C 0.63617 0.0748 0.42105 0.0
C625 C 0.60829 0.05546 0.42935 0.0
C626 C 0.63347 0.07637 0.39899 0.0
C627 C 0.58001 0.03171 0.34666 0.0
H628 H 0.62146 0.11858 0.32499 0.0
C629 C 0.53954 0.05638 0.26006 0.0
C630 C 0.56565 0.06734 0.24827 0.0
C631 C 0.54748 0.05641 0.28218 0.0
C632 C 0.6101 0.09409 0.33086 0.0
H633 H 0.55561 0.02289 0.42096 0.0
H634 H 0.55054 0.02634 0.38266 0.0
H635 H 0.62969 0.11507 0.36363 0.0
H636 H 0.62053 0.08902 0.25077 0.0
H637 H 0.63441 0.08984 0.28991 0.0
H638 H 0.55946 0.01118 0.31391 0.0
C639 C 0.57487 0.03959 0.39308 0.0
C640 C 0.61484 0.09197 0.35298 0.0
C641 C 0.57768 0.03774 0.4151 0.0
C642 C 0.59986 0.08033 0.25939 0.0
C643 C 0.60781 0.08072 0.28172 0.0
C644 C 0.57497 0.03398 0.32465 0.0
C645 C 0.60273 0.05887 0.38469 0.0
C646 C 0.59945 0.06085 0.36117 0.0
C647 C 0.58168 0.06792 0.29321 0.0
C648 C 0.58955 0.06528 0.31653 0.0
H649 H 0.66019 0.08866 0.4316 0.0
H650 H 0.65562 0.09105 0.39315 0.0
H651 H 0.56852 0.00704 0.35228 0.0
H652 H 0.51281 0.04728 0.25212 0.0
H653 H 0.52677 0.04718 0.29069 0.0
C654 C 0.5549 0.4963 0.73593 0.0
C655 C 0.58071 0.51956 0.75141 0.0
C656 C 0.55517 0.49796 0.71414 0.0
C657 C 0.58761 0.55696 0.67547 0.0
H658 H 0.56963 0.4709 0.63864 0.0
C659 C 0.60488 0.55239 0.58681 0.0
C660 C 0.58246 0.52456 0.5725 0.0
C661 C 0.60343 0.55411 0.60862 0.0
C662 C 0.57413 0.49519 0.64859 0.0
H663 H 0.62715 0.56282 0.75608 0.0
H664 H 0.62751 0.56567 0.71799 0.0
H665 H 0.57014 0.46877 0.67669 0.0
H666 H 0.5396 0.47812 0.56921 0.0
H667 H 0.53609 0.48171 0.60696 0.0
H668 H 0.59134 0.58337 0.64727 0.0
C669 C 0.60698 0.5463 0.72277 0.0
C670 C 0.57456 0.49392 0.67044 0.0
C671 C 0.60688 0.54447 0.74458 0.0
C672 C 0.55731 0.49969 0.58003 0.0
C673 C 0.55559 0.50159 0.60168 0.0
C674 C 0.58695 0.55823 0.65351 0.0
C675 C 0.58112 0.52307 0.70731 0.0
C676 C 0.58119 0.52475 0.68413 0.0
C677 C 0.57934 0.52813 0.61639 0.0
C678 C 0.58002 0.5273 0.63978 0.0
H679 H 0.53432 0.47684 0.74061 0.0
H680 H 0.53471 0.4799 0.7026 0.0
H681 H 0.59251 0.58114 0.68561 0.0
H682 H 0.62465 0.57169 0.58132 0.0
H683 H 0.62222 0.57483 0.61948 0.0
C684 C 0.59296 0.06866 0.56942 0.0
C685 C 0.6169 0.05595 0.56059 0.0
C686 C 0.59126 0.06668 0.59098 0.0
C687 C 0.61129 0.01928 0.63697 0.0
H688 H 0.60006 0.09937 0.66908 0.0
C689 C 0.60817 0.02861 0.72847 0.0
C690 C 0.58511 0.04567 0.73472 0.0
C691 C 0.61292 0.02744 0.70721 0.0
C692 C 0.6028 0.0766 0.6603 0.0
H693 H 0.65776 0.031 0.56753 0.0
H694 H 0.65473 0.02757 0.60538 0.0
H695 H 0.60789 0.103 0.63231 0.0
H696 H 0.54715 0.07249 0.7236 0.0
H697 H 0.55474 0.06981 0.68664 0.0
H698 H 0.60574 0.99279 0.66507 0.0
C699 C 0.63725 0.03897 0.59549 0.0
C700 C 0.60739 0.07874 0.63923 0.0
C701 C 0.63913 0.04117 0.57386 0.0
C702 C 0.56549 0.05967 0.71922 0.0
C703 C 0.57004 0.05833 0.6981 0.0
C704 C 0.60658 0.01708 0.65815 0.0
C705 C 0.61334 0.05182 0.60427 0.0
C706 C 0.61111 0.04997 0.62719 0.0
C707 C 0.59455 0.0432 0.69194 0.0
C708 C 0.60164 0.04555 0.66991 0.0
H709 H 0.57534 0.08008 0.55967 0.0
H710 H 0.57223 0.07638 0.59718 0.0
H711 H 0.61395 -0.00339 0.62804 0.0
H712 H 0.62361 0.01769 0.74019 0.0
H713 H 0.63198 0.01556 0.70297 0.0
C714 C 0.54617 0.54886 0.88852 0.0
C715 C 0.56794 0.53081 0.88141 0.0
C716 C 0.5435 0.55122 0.91012 0.0
C717 C 0.55322 0.50659 0.95825 0.0
H718 H 0.57063 0.59701 -0.00966 0.0
C719 C 0.58858 0.52535 0.04987 0.0
C720 C 0.58032 0.55178 0.06153 0.0
C721 C 0.58124 0.52147 0.02755 0.0
C722 C 0.56491 0.57145 0.98159 0.0
H723 H 0.60366 0.50078 0.89133 0.0
H724 H 0.59837 0.50427 0.92885 0.0
H725 H 0.56907 0.5932 0.95182 0.0
H726 H 0.55615 0.59377 0.0588 0.0
H727 H 0.54211 0.58622 0.01965 0.0
H728 H 0.54868 0.48457 -0.01228 0.0
C729 C 0.58358 0.51677 0.91775 0.0
C730 C 0.56422 0.56935 0.95952 0.0
C731 C 0.58675 0.51497 0.89629 0.0
C732 C 0.5628 0.5731 0.05029 0.0
C733 C 0.55517 0.56904 0.02784 0.0
C734 C 0.55335 0.50859 0.9802 0.0
C735 C 0.56198 0.53494 0.92489 0.0
C736 C 0.55921 0.53698 0.94777 0.0
C737 C 0.56493 0.54359 0.01616 0.0
C738 C 0.56016 0.54113 -0.00768 0.0
H739 H 0.53141 0.56142 0.87745 0.0
H740 H 0.52664 0.56534 0.91523 0.0
H741 H 0.54874 0.48123 0.94948 0.0
H742 H 0.60164 0.50812 0.05803 0.0
H743 H 0.58963 0.50187 0.01929 0.0
C744 C 0.05087 0.57541 0.2157 0.0
C745 C 0.07025 0.55794 0.20554 0.0
C746 C 0.04979 0.57298 0.23733 0.0
C747 C 0.07171 0.52301 0.2831 0.0
H748 H 0.06829 0.60565 0.31657 0.0
C749 C 0.11039 0.55166 0.37569 0.0
C750 C 0.08823 0.56476 0.38609 0.0
C751 C 0.1041 0.54595 0.35336 0.0
C752 C 0.06883 0.58223 0.30737 0.0
H753 H 0.10359 0.52409 0.20997 0.0
H754 H 0.10316 0.52115 0.24798 0.0
H755 H 0.06649 0.60623 0.27834 0.0
H756 H 1.04171 0.58126 0.38149 0.0
H757 H 1.03104 0.57188 0.34233 0.0
H758 H 0.07594 0.49994 0.3127 0.0
C759 C 0.08783 0.53587 0.23917 0.0
C760 C 0.06765 0.58244 0.28538 0.0
C761 C 0.08834 0.53774 0.21739 0.0
C762 C 0.05898 0.57083 0.37383 0.0
C763 C 0.05303 0.56572 0.35149 0.0
C764 C 0.07353 0.52308 0.30521 0.0
C765 C 0.06866 0.55362 0.24949 0.0
C766 C 0.0691 0.55286 0.2729 0.0
C767 C 0.0759 0.55387 0.34106 0.0
C768 C 0.07211 0.55271 0.31751 0.0
H769 H 1.03623 0.59075 0.20688 0.0
H770 H 1.034 0.58628 0.24445 0.0
H771 H 0.07227 0.4995 0.27404 0.0
H772 H 0.13313 0.54684 0.38485 0.0
H773 H 0.12222 0.53701 0.34569 0.0
loop_
_geom_bond_atom_site_label_1
_geom_bond_atom_site_label_2
_geom_bond_distance
_geom_bond_site_symmetry_2
_ccdc_geom_bond_type
Dy0 O3 2.307 1_455 S
Dy0 O5 2.395 . S
Dy0 O6 2.379 . S
Dy0 O8 2.339 . S
Dy0 O10 2.298 . S
Dy0 O14 2.275 . S
Dy0 C22 2.738 . S
Dy1 O4 2.298 1_455 S
Dy1 O7 2.275 . S
Dy1 O9 2.307 . S
Dy1 O11 2.395 1_455 S
Dy1 O12 2.379 1_455 S
Dy1 O15 2.339 . S
Dy1 C31 2.738 1_455 S
C2 O14 1.254 . S
C2 O15 1.257 . S
O3 Dy0 2.307 1_655 S
O3 C13 1.266 . S
O4 Dy1 2.298 1_655 S
O4 C13 1.236 . S
O5 Dy0 2.395 . S
O5 C22 1.255 . S
O6 Dy0 2.379 . S
O6 C22 1.249 . S
O7 Dy1 2.275 . S
O7 C23 1.254 . S
O8 Dy0 2.339 . S
O8 C23 1.257 . S
O9 Dy1 2.307 . S
O9 C24 1.266 . S
O10 Dy0 2.298 . S
O10 C24 1.236 . S
O11 Dy1 2.395 1_655 S
O11 C31 1.255 . S
O12 Dy1 2.379 1_655 S
O12 C31 1.249 . S
C13 O3 1.266 . S
C13 O4 1.236 . S
O14 Dy0 2.275 . S
O14 C2 1.254 . S
O15 Dy1 2.339 . S
O15 C2 1.257 . S
C16 C19 1.344 . S
C16 C20 1.328 . S
C16 C22 1.516 . S
C17 C18 1.304 . S
C17 C21 1.323 . S
C18 C17 1.304 . S
C18 C19 1.371 . S
C18 H32 0.930 . S
C19 C16 1.344 . S
C19 C18 1.371 . S
C19 H33 0.931 . S
C20 C16 1.328 . S
C20 C21 1.433 . S
C20 H34 0.931 . S
C21 C17 1.323 . S
C21 C20 1.433 . S
C21 H35 0.933 . S
C22 Dy0 2.738 . S
C22 O5 1.255 . S
C22 O6 1.249 . S
C22 C16 1.516 . S
C23 O7 1.254 . S
C23 O8 1.257 . S
C24 O9 1.266 . S
C24 O10 1.236 . S
C25 C28 1.344 . S
C25 C29 1.328 . S
C25 C31 1.516 . S
C26 C27 1.304 . S
C26 C30 1.323 . S
C27 C26 1.304 . S
C27 C28 1.371 . S
C27 H36 0.930 . S
C28 C25 1.344 . S
C28 C27 1.371 . S
C28 H37 0.931 . S
C29 C25 1.328 . S
C29 C30 1.433 . S
C29 H38 0.931 . S
C30 C26 1.323 . S
C30 C29 1.433 . S
C30 H39 0.933 . S
C31 Dy1 2.738 1_655 S
C31 O11 1.255 . S
C31 O12 1.249 . S
C31 C25 1.516 . S
H32 C18 0.930 . S
H33 C19 0.931 . S
H34 C20 0.931 . S
H35 C21 0.933 . S
H36 C27 0.930 . S
H37 C28 0.931 . S
H38 C29 0.931 . S
H39 C30 0.933 . S
Dy40 O43 2.307 . S
Dy40 O45 2.395 1_545 S
Dy40 O46 2.379 1_545 S
Dy40 O48 2.339 . S
Dy40 O50 2.287 1_545 S
Dy40 O54 2.275 . S
Dy40 C62 2.738 1_545 S
Dy41 O44 2.298 . S
Dy41 O47 2.275 . S
Dy41 O49 2.307 . S
Dy41 O51 2.395 . S
Dy41 O52 2.379 . S
Dy41 O55 2.339 . S
Dy41 C71 2.738 . S
C42 O54 1.254 . S
C42 O55 1.257 . S
O43 Dy40 2.307 . S
O43 C53 1.266 . S
O44 Dy41 2.298 . S
O44 C53 1.236 . S
O45 Dy40 2.395 1_565 S
O45 C62 1.255 . S
O46 Dy40 2.379 1_565 S
O46 C62 1.249 . S
O47 Dy41 2.275 . S
O47 C63 1.254 . S
O48 Dy40 2.339 . S
O48 C63 1.257 . S
O49 Dy41 2.307 . S
O49 C64 1.266 1_545 S
O50 Dy40 2.287 1_565 S
O50 C64 1.241 . S
O51 Dy41 2.395 . S
O51 C71 1.255 . S
O52 Dy41 2.379 . S
O52 C71 1.249 . S
C53 O43 1.266 . S
C53 O44 1.236 . S
O54 Dy40 2.275 . S
O54 C42 1.254 . S
O55 Dy41 2.339 . S
O55 C42 1.257 . S
C56 C59 1.344 . S
C56 C60 1.328 . S
C56 C62 1.516 . S
C57 C58 1.304 . S
C57 C61 1.323 . S
C58 C57 1.304 . S
C58 C59 1.371 . S
C58 H72 0.930 . S
C59 C56 1.344 . S
C59 C58 1.371 . S
C59 H73 0.931 . S
C60 C56 1.328 . S
C60 C61 1.433 . S
C60 H74 0.931 . S
C61 C57 1.323 . S
C61 C60 1.433 . S
C61 H75 0.933 . S
C62 Dy40 2.738 1_565 S
C62 O45 1.255 . S
C62 O46 1.249 . S
C62 C56 1.516 . S
C63 O47 1.254 . S
C63 O48 1.257 . S
C64 O49 1.266 1_565 S
C64 O50 1.241 . S
C65 C68 1.344 . S
C65 C69 1.328 . S
C65 C71 1.516 . S
C66 C67 1.304 . S
C66 C70 1.323 . S
C67 C66 1.304 . S
C67 C68 1.371 . S
C67 H76 0.930 . S
C68 C65 1.344 . S
C68 C67 1.371 . S
C68 H77 0.931 . S
C69 C65 1.328 . S
C69 C70 1.433 . S
C69 H78 0.931 . S
C70 C66 1.323 . S
C70 C69 1.433 . S
C70 H79 0.933 . S
C71 Dy41 2.738 . S
C71 O51 1.255 . S
C71 O52 1.249 . S
C71 C65 1.516 . S
H72 C58 0.930 . S
H73 C59 0.931 . S
H74 C60 0.931 . S
H75 C61 0.933 . S
H76 C67 0.930 . S
H77 C68 0.931 . S
H78 C69 0.931 . S
H79 C70 0.933 . S
Dy80 O83 2.307 . S
Dy80 O85 2.395 . S
Dy80 O86 2.379 . S
Dy80 O88 2.339 . S
Dy80 O90 2.298 . S
Dy80 O94 2.275 . S
Dy80 C102 2.738 . S
Dy81 O84 2.298 . S
Dy81 O87 2.275 . S
Dy81 O89 2.307 . S
Dy81 O91 2.395 . S
Dy81 O92 2.379 . S
Dy81 O95 2.339 . S
Dy81 C111 2.738 . S
C82 O94 1.254 . S
C82 O95 1.257 . S
O83 Dy80 2.307 . S
O83 C93 1.266 . S
O84 Dy81 2.298 . S
O84 C93 1.236 . S
O85 Dy80 2.395 . S
O85 C102 1.255 . S
O86 Dy80 2.379 . S
O86 C102 1.249 . S
O87 Dy81 2.275 . S
O87 C103 1.254 . S
O88 Dy80 2.339 . S
O88 C103 1.257 . S
O89 Dy81 2.307 . S
O89 C104 1.266 . S
O90 Dy80 2.298 . S
O90 C104 1.236 . S
O91 Dy81 2.395 . S
O91 C111 1.255 . S
O92 Dy81 2.379 . S
O92 C111 1.249 . S
C93 O83 1.266 . S
C93 O84 1.236 . S
O94 Dy80 2.275 . S
O94 C82 1.254 . S
O95 Dy81 2.339 . S
O95 C82 1.257 . S
C96 C99 1.344 . S
C96 C100 1.328 . S
C96 C102 1.516 . S
C97 C98 1.304 . S
C97 C101 1.323 . S
C98 C97 1.304 . S
C98 C99 1.371 . S
C98 H112 0.930 . S
C99 C96 1.344 . S
C99 C98 1.371 . S
C99 H113 0.931 . S
C100 C96 1.328 . S
C100 C101 1.433 . S
C100 H114 0.931 . S
C101 C97 1.323 . S
C101 C100 1.433 . S
C101 H115 0.933 . S
C102 Dy80 2.738 . S
C102 O85 1.255 . S
C102 O86 1.249 . S
C102 C96 1.516 . S
C103 O87 1.254 . S
C103 O88 1.257 . S
C104 O89 1.266 . S
C104 O90 1.236 . S
C105 C108 1.344 . S
C105 C109 1.328 . S
C105 C111 1.516 . S
C106 C107 1.304 . S
C106 C110 1.323 . S
C107 C106 1.304 . S
C107 C108 1.371 . S
C107 H116 0.930 . S
C108 C105 1.344 . S
C108 C107 1.371 . S
C108 H117 0.931 . S
C109 C105 1.328 . S
C109 C110 1.433 . S
C109 H118 0.931 . S
C110 C106 1.323 . S
C110 C109 1.433 . S
C110 H119 0.933 . S
C111 Dy81 2.738 . S
C111 O91 1.255 . S
C111 O92 1.249 . S
C111 C105 1.516 . S
H112 C98 0.930 . S
H113 C99 0.931 . S
H114 C100 0.931 . S
H115 C101 0.933 . S
H116 C107 0.930 . S
H117 C108 0.931 . S
H118 C109 0.931 . S
H119 C110 0.933 . S
H120 C121 0.949 . S
C121 H120 0.949 . S
C121 C122 1.395 . S
C121 C123 1.391 . S
C122 C121 1.395 . S
C122 C125 1.390 . S
C123 C121 1.391 . S
C123 C127 1.387 . S
C123 C128 1.491 . S
H124 C125 0.950 . S
C125 C122 1.390 . S
C125 H124 0.950 . S
C125 C126 1.378 . S
C126 C125 1.378 . S
C126 C127 1.409 . S
C127 C123 1.387 . S
C127 C126 1.409 . S
C127 H129 0.951 . S
C128 C123 1.491 . S
C128 C130 1.382 . S
C128 C132 1.404 . S
H129 C127 0.951 . S
C130 C128 1.382 . S
C130 C131 1.390 . S
C130 H135 0.949 . S
C131 C130 1.390 . S
C131 C136 1.399 . S
C132 C128 1.404 . S
C132 H133 0.950 . S
C132 C134 1.375 . S
H133 C132 0.950 . S
C134 C132 1.375 . S
C134 C136 1.382 . S
C134 H138 0.950 . S
H135 C130 0.949 . S
C136 C131 1.399 . S
C136 C134 1.382 . S
C136 H137 0.952 . S
H137 C136 0.952 . S
H138 C134 0.950 . S
H139 C140 0.949 . S
C140 H139 0.949 . S
C140 C141 1.395 . S
C140 C142 1.391 . S
C141 C140 1.395 . S
C141 C144 1.390 . S
C142 C140 1.391 . S
C142 C146 1.387 . S
C142 C147 1.491 . S
H143 C144 0.950 . S
C144 C141 1.390 . S
C144 H143 0.950 . S
C144 C145 1.378 . S
C145 C144 1.378 . S
C145 C146 1.409 . S
C146 C142 1.387 . S
C146 C145 1.409 . S
C146 H148 0.951 . S
C147 C142 1.491 . S
C147 C149 1.382 . S
C147 C151 1.404 . S
H148 C146 0.951 . S
C149 C147 1.382 . S
C149 C150 1.390 . S
C149 H154 0.949 . S
C150 C149 1.390 . S
C150 C155 1.399 . S
C151 C147 1.404 . S
C151 H152 0.950 . S
C151 C153 1.375 . S
H152 C151 0.950 . S
C153 C151 1.375 . S
C153 C155 1.382 . S
C153 H157 0.950 . S
H154 C149 0.949 . S
C155 C150 1.399 . S
C155 C153 1.382 . S
C155 H156 0.952 . S
H156 C155 0.952 . S
H157 C153 0.950 . S
H158 C159 0.949 . S
C159 H158 0.949 . S
C159 C160 1.395 . S
C159 C161 1.391 . S
C160 C159 1.395 . S
C160 C163 1.390 . S
C161 C159 1.391 . S
C161 C165 1.387 . S
C161 C166 1.491 . S
H162 C163 0.950 1_655 S
C163 C160 1.390 . S
C163 H162 0.950 1_455 S
C163 C164 1.378 . S
C164 C163 1.378 . S
C164 C165 1.409 . S
C165 C161 1.387 . S
C165 C164 1.409 . S
C165 H167 0.951 . S
C166 C161 1.491 . S
C166 C168 1.382 . S
C166 C170 1.404 . S
H167 C165 0.951 . S
C168 C166 1.382 . S
C168 C169 1.390 . S
C168 H173 0.949 . S
C169 C168 1.390 . S
C169 C174 1.399 . S
C170 C166 1.404 . S
C170 H171 0.950 . S
C170 C172 1.375 . S
H171 C170 0.950 . S
C172 C170 1.375 . S
C172 C174 1.382 . S
C172 H176 0.950 . S
H173 C168 0.949 . S
C174 C169 1.399 . S
C174 C172 1.382 . S
C174 H175 0.952 . S
H175 C174 0.952 . S
H176 C172 0.950 . S
H177 C178 0.949 1_655 S
C178 H177 0.949 1_455 S
C178 C179 1.395 . S
C178 C180 1.391 . S
C179 C178 1.395 . S
C179 C182 1.390 . S
C180 C178 1.391 . S
C180 C184 1.387 . S
C180 C185 1.491 1_455 S
H181 C182 0.950 . S
C182 C179 1.390 . S
C182 H181 0.950 . S
C182 C183 1.378 . S
C183 C182 1.378 . S
C183 C184 1.409 . S
C184 C180 1.387 . S
C184 C183 1.409 . S
C184 H186 0.951 . S
C185 C180 1.491 1_655 S
C185 C187 1.382 . S
C185 C189 1.404 . S
H186 C184 0.951 . S
C187 C185 1.382 . S
C187 C188 1.390 . S
C187 H192 0.949 . S
C188 C187 1.390 . S
C188 C193 1.399 . S
C189 C185 1.404 . S
C189 H190 0.950 1_655 S
C189 C191 1.375 . S
H190 C189 0.950 1_455 S
C191 C189 1.375 . S
C191 C193 1.382 . S
C191 H195 0.950 . S
H192 C187 0.949 . S
C193 C188 1.399 . S
C193 C191 1.382 . S
C193 H194 0.952 . S
H194 C193 0.952 . S
H195 C191 0.950 . S
H196 C197 0.949 1_565 S
C197 H196 0.949 1_545 S
C197 C198 1.395 . S
C197 C199 1.391 . S
C198 C197 1.395 . S
C198 C201 1.390 . S
C199 C197 1.391 . S
C199 C203 1.387 . S
C199 C204 1.491 1_545 S
H200 C201 0.950 . S
C201 C198 1.390 . S
C201 H200 0.950 . S
C201 C202 1.378 . S
C202 C201 1.378 . S
C202 C203 1.409 . S
C203 C199 1.387 . S
C203 C202 1.409 . S
C203 H205 0.951 . S
C204 C199 1.491 1_565 S
C204 C206 1.382 . S
C204 C208 1.404 . S
H205 C203 0.951 . S
C206 C204 1.382 . S
C206 C207 1.390 . S
C206 H211 0.949 . S
C207 C206 1.390 . S
C207 C212 1.399 . S
C208 C204 1.404 . S
C208 H209 0.950 . S
C208 C210 1.375 . S
H209 C208 0.950 . S
C210 C208 1.375 . S
C210 C212 1.382 . S
C210 H214 0.950 . S
H211 C206 0.949 . S
C212 C207 1.399 . S
C212 C210 1.382 . S
C212 H213 0.952 . S
H213 C212 0.952 . S
H214 C210 0.950 . S
H215 C216 0.949 . S
C216 H215 0.949 . S
C216 C217 1.395 . S
C216 C218 1.391 . S
C217 C216 1.395 . S
C217 C220 1.390 . S
C218 C216 1.391 . S
C218 C222 1.387 . S
C218 C223 1.491 . S
H219 C220 0.950 . S
C220 C217 1.390 . S
C220 H219 0.950 . S
C220 C221 1.378 . S
C221 C220 1.378 . S
C221 C222 1.409 . S
C222 C218 1.387 . S
C222 C221 1.409 . S
C222 H224 0.951 . S
C223 C218 1.491 . S
C223 C225 1.382 . S
C223 C227 1.404 . S
H224 C222 0.951 . S
C225 C223 1.382 . S
C225 C226 1.390 . S
C225 H230 0.949 . S
C226 C225 1.390 . S
C226 C231 1.399 . S
C227 C223 1.404 . S
C227 H228 0.950 . S
C227 C229 1.375 . S
H228 C227 0.950 . S
C229 C227 1.375 . S
C229 C231 1.382 . S
C229 H233 0.950 . S
H230 C225 0.949 . S
C231 C226 1.399 . S
C231 C229 1.382 . S
C231 H232 0.952 . S
H232 C231 0.952 . S
H233 C229 0.950 . S
C234 C235 1.349 . S
C234 C236 1.327 . S
C234 H259 0.950 . S
C235 C234 1.349 . S
C235 C251 1.349 . S
C236 C234 1.327 . S
C236 C255 1.429 . S
C236 H260 0.950 . S
C237 C254 1.574 . S
C237 C256 1.368 . S
C237 H261 0.949 . S
H238 C242 0.949 . S
C239 C240 1.349 . S
C239 C241 1.327 . S
C239 H262 0.950 . S
C240 C239 1.349 . S
C240 C252 1.349 . S
C241 C239 1.327 . S
C241 C257 1.429 . S
C241 H263 0.950 . S
C242 H238 0.949 . S
C242 C250 1.574 . S
C242 C258 1.368 . S
H243 C251 0.950 . S
H244 C249 0.950 . S
H245 C250 0.949 . S
H246 C252 0.950 . S
H247 C253 0.950 . S
H248 C254 0.949 . S
C249 H244 0.950 . S
C249 C251 1.327 . S
C249 C255 1.429 . S
C250 C242 1.574 . S
C250 H245 0.949 . S
C250 C256 1.368 . S
C251 C235 1.349 . S
C251 H243 0.950 . S
C251 C249 1.327 . S
C252 C240 1.349 . S
C252 H246 0.950 . S
C252 C253 1.327 . S
C253 H247 0.950 . S
C253 C252 1.327 . S
C253 C257 1.429 . S
C254 C237 1.574 . S
C254 H248 0.949 . S
C254 C258 1.368 . S
C255 C236 1.429 . S
C255 C249 1.429 . S
C255 C256 1.523 . S
C256 C237 1.368 . S
C256 C250 1.368 . S
C256 C255 1.523 . S
C257 C241 1.429 . S
C257 C253 1.429 . S
C257 C258 1.523 . S
C258 C242 1.368 . S
C258 C254 1.368 . S
C258 C257 1.523 . S
H259 C234 0.950 . S
H260 C236 0.950 . S
H261 C237 0.949 . S
H262 C239 0.950 . S
H263 C241 0.950 . S
C264 C265 1.349 . S
C264 C266 1.327 . S
C264 H289 0.950 . S
C265 C264 1.349 . S
C265 C281 1.349 . S
C266 C264 1.327 . S
C266 C285 1.429 . S
C266 H290 0.950 . S
C267 C284 1.574 . S
C267 C286 1.368 . S
C267 H291 0.949 . S
H268 C272 0.949 . S
C269 C270 1.349 . S
C269 C271 1.327 . S
C269 H292 0.950 . S
C270 C269 1.349 . S
C270 C282 1.349 . S
C271 C269 1.327 . S
C271 C287 1.429 . S
C271 H293 0.950 . S
C272 H268 0.949 . S
C272 C280 1.574 . S
C272 C288 1.368 . S
H273 C281 0.950 . S
H274 C279 0.950 . S
H275 C280 0.949 . S
H276 C282 0.950 . S
H277 C283 0.950 . S
H278 C284 0.949 . S
C279 H274 0.950 . S
C279 C281 1.327 . S
C279 C285 1.429 . S
C280 C272 1.574 . S
C280 H275 0.949 . S
C280 C286 1.368 . S
C281 C265 1.349 . S
C281 H273 0.950 . S
C281 C279 1.327 . S
C282 C270 1.349 . S
C282 H276 0.950 . S
C282 C283 1.327 . S
C283 H277 0.950 . S
C283 C282 1.327 . S
C283 C287 1.429 . S
C284 C267 1.574 . S
C284 H278 0.949 . S
C284 C288 1.368 . S
C285 C266 1.429 . S
C285 C279 1.429 . S
C285 C286 1.523 . S
C286 C267 1.368 . S
C286 C280 1.368 . S
C286 C285 1.523 . S
C287 C271 1.429 . S
C287 C283 1.429 . S
C287 C288 1.523 . S
C288 C272 1.368 . S
C288 C284 1.368 . S
C288 C287 1.523 . S
H289 C264 0.950 . S
H290 C266 0.950 . S
H291 C267 0.949 . S
H292 C269 0.950 . S
H293 C271 0.950 . S
C294 C295 1.349 . S
C294 C296 1.327 . S
C294 H319 0.950 . S
C295 C294 1.349 . S
C295 C311 1.349 . S
C296 C294 1.327 . S
C296 C315 1.429 . S
C296 H320 0.950 . S
C297 C314 1.574 . S
C297 C316 1.368 . S
C297 H321 0.949 . S
H298 C302 0.949 . S
C299 C300 1.349 . S
C299 C301 1.327 . S
C299 H322 0.950 . S
C300 C299 1.349 . S
C300 C312 1.349 . S
C301 C299 1.327 . S
C301 C317 1.429 . S
C301 H323 0.950 . S
C302 H298 0.949 . S
C302 C310 1.574 . S
C302 C318 1.368 . S
H303 C311 0.950 . S
H304 C309 0.950 . S
H305 C310 0.949 . S
H306 C312 0.950 . S
H307 C313 0.950 . S
H308 C314 0.949 . S
C309 H304 0.950 . S
C309 C311 1.327 . S
C309 C315 1.429 . S
C310 C302 1.574 . S
C310 H305 0.949 . S
C310 C316 1.368 . S
C311 C295 1.349 . S
C311 H303 0.950 . S
C311 C309 1.327 . S
C312 C300 1.349 . S
C312 H306 0.950 . S
C312 C313 1.327 . S
C313 H307 0.950 . S
C313 C312 1.327 . S
C313 C317 1.429 . S
C314 C297 1.574 . S
C314 H308 0.949 . S
C314 C318 1.368 . S
C315 C296 1.429 . S
C315 C309 1.429 . S
C315 C316 1.523 . S
C316 C297 1.368 . S
C316 C310 1.368 . S
C316 C315 1.523 . S
C317 C301 1.429 . S
C317 C313 1.429 . S
C317 C318 1.523 . S
C318 C302 1.368 . S
C318 C314 1.368 . S
C318 C317 1.523 . S
H319 C294 0.950 . S
H320 C296 0.950 . S
H321 C297 0.949 . S
H322 C299 0.950 . S
H323 C301 0.950 . S
C324 C325 1.349 . S
C324 C326 1.327 . S
C324 H349 0.950 . S
C325 C324 1.349 . S
C325 C341 1.349 . S
C326 C324 1.327 . S
C326 C345 1.429 . S
C326 H350 0.950 . S
C327 C344 1.574 . S
C327 C346 1.368 . S
C327 H351 0.949 . S
H328 C332 0.949 . S
C329 C330 1.349 . S
C329 C331 1.327 . S
C329 H352 0.950 . S
C330 C329 1.349 . S
C330 C342 1.349 . S
C331 C329 1.327 . S
C331 C347 1.429 . S
C331 H353 0.950 . S
C332 H328 0.949 . S
C332 C340 1.574 . S
C332 C348 1.368 . S
H333 C341 0.950 . S
H334 C339 0.950 . S
H335 C340 0.949 . S
H336 C342 0.950 . S
H337 C343 0.950 . S
H338 C344 0.949 . S
C339 H334 0.950 . S
C339 C341 1.327 . S
C339 C345 1.429 . S
C340 C332 1.574 . S
C340 H335 0.949 . S
C340 C346 1.368 . S
C341 C325 1.349 . S
C341 H333 0.950 . S
C341 C339 1.327 . S
C342 C330 1.349 . S
C342 H336 0.950 . S
C342 C343 1.327 . S
C343 H337 0.950 . S
C343 C342 1.327 . S
C343 C347 1.429 . S
C344 C327 1.574 . S
C344 H338 0.949 . S
C344 C348 1.368 . S
C345 C326 1.429 . S
C345 C339 1.429 . S
C345 C346 1.523 . S
C346 C327 1.368 . S
C346 C340 1.368 . S
C346 C345 1.523 . S
C347 C331 1.429 . S
C347 C343 1.429 . S
C347 C348 1.523 . S
C348 C332 1.368 . S
C348 C344 1.368 . S
C348 C347 1.523 . S
H349 C324 0.950 . S
H350 C326 0.950 . S
H351 C327 0.949 . S
H352 C329 0.950 . S
H353 C331 0.950 . S
C354 C355 1.349 . S
C354 C356 1.327 . S
C354 H379 0.950 . S
C355 C354 1.349 . S
C355 C371 1.349 . S
C356 C354 1.327 . S
C356 C375 1.429 . S
C356 H380 0.950 . S
C357 C374 1.574 . S
C357 C376 1.368 . S
C357 H381 0.949 . S
H358 C362 0.949 . S
C359 C360 1.349 . S
C359 C361 1.327 . S
C359 H382 0.950 . S
C360 C359 1.349 . S
C360 C372 1.349 . S
C361 C359 1.327 . S
C361 C377 1.429 . S
C361 H383 0.950 . S
C362 H358 0.949 . S
C362 C370 1.574 . S
C362 C378 1.368 . S
H363 C371 0.950 . S
H364 C369 0.950 . S
H365 C370 0.949 . S
H366 C372 0.950 . S
H367 C373 0.950 . S
H368 C374 0.949 . S
C369 H364 0.950 . S
C369 C371 1.327 . S
C369 C375 1.429 . S
C370 C362 1.574 . S
C370 H365 0.949 . S
C370 C376 1.368 . S
C371 C355 1.349 . S
C371 H363 0.950 . S
C371 C369 1.327 . S
C372 C360 1.349 . S
C372 H366 0.950 . S
C372 C373 1.327 . S
C373 H367 0.950 . S
C373 C372 1.327 . S
C373 C377 1.429 . S
C374 C357 1.574 . S
C374 H368 0.949 . S
C374 C378 1.368 . S
C375 C356 1.429 . S
C375 C369 1.429 . S
C375 C376 1.523 . S
C376 C357 1.368 . S
C376 C370 1.368 . S
C376 C375 1.523 . S
C377 C361 1.429 . S
C377 C373 1.429 . S
C377 C378 1.523 . S
C378 C362 1.368 . S
C378 C374 1.368 . S
C378 C377 1.523 . S
H379 C354 0.950 . S
H380 C356 0.950 . S
H381 C357 0.949 . S
H382 C359 0.950 . S
H383 C361 0.950 . S
C384 C385 1.349 . S
C384 C386 1.327 . S
C384 H409 0.950 . S
C385 C384 1.349 . S
C385 C401 1.349 . S
C386 C384 1.327 . S
C386 C405 1.429 . S
C386 H410 0.950 . S
C387 C404 1.574 . S
C387 C406 1.368 . S
C387 H411 0.949 . S
H388 C392 0.949 . S
C389 C390 1.349 . S
C389 C391 1.327 . S
C389 H412 0.950 . S
C390 C389 1.349 . S
C390 C402 1.349 . S
C391 C389 1.327 . S
C391 C407 1.429 . S
C391 H413 0.950 . S
C392 H388 0.949 . S
C392 C400 1.574 . S
C392 C408 1.368 . S
H393 C401 0.950 . S
H394 C399 0.950 . S
H395 C400 0.949 . S
H396 C402 0.950 . S
H397 C403 0.950 . S
H398 C404 0.949 . S
C399 H394 0.950 . S
C399 C401 1.327 . S
C399 C405 1.429 . S
C400 C392 1.574 . S
C400 H395 0.949 . S
C400 C406 1.368 . S
C401 C385 1.349 . S
C401 H393 0.950 . S
C401 C399 1.327 . S
C402 C390 1.349 . S
C402 H396 0.950 . S
C402 C403 1.327 . S
C403 H397 0.950 . S
C403 C402 1.327 . S
C403 C407 1.429 . S
C404 C387 1.574 . S
C404 H398 0.949 . S
C404 C408 1.368 . S
C405 C386 1.429 . S
C405 C399 1.429 . S
C405 C406 1.523 . S
C406 C387 1.368 . S
C406 C400 1.368 . S
C406 C405 1.523 . S
C407 C391 1.429 . S
C407 C403 1.429 . S
C407 C408 1.523 . S
C408 C392 1.368 . S
C408 C404 1.368 . S
C408 C407 1.523 . S
H409 C384 0.950 . S
H410 C386 0.950 . S
H411 C387 0.949 . S
H412 C389 0.950 . S
H413 C391 0.950 . S
C414 C415 1.349 . S
C414 C416 1.327 . S
C414 H439 0.950 . S
C415 C414 1.349 . S
C415 C431 1.349 . S
C416 C414 1.327 . S
C416 C435 1.429 . S
C416 H440 0.950 . S
C417 C434 1.574 . S
C417 C436 1.368 . S
C417 H441 0.949 . S
H418 C422 0.949 . S
C419 C420 1.349 . S
C419 C421 1.327 . S
C419 H442 0.950 . S
C420 C419 1.349 . S
C420 C432 1.349 . S
C421 C419 1.327 . S
C421 C437 1.429 . S
C421 H443 0.950 . S
C422 H418 0.949 . S
C422 C430 1.574 . S
C422 C438 1.368 . S
H423 C431 0.950 . S
H424 C429 0.950 . S
H425 C430 0.949 . S
H426 C432 0.950 . S
H427 C433 0.950 . S
H428 C434 0.949 . S
C429 H424 0.950 . S
C429 C431 1.327 . S
C429 C435 1.429 . S
C430 C422 1.574 . S
C430 H425 0.949 . S
C430 C436 1.368 . S
C431 C415 1.349 . S
C431 H423 0.950 . S
C431 C429 1.327 . S
C432 C420 1.349 . S
C432 H426 0.950 . S
C432 C433 1.327 . S
C433 H427 0.950 . S
C433 C432 1.327 . S
C433 C437 1.429 . S
C434 C417 1.574 . S
C434 H428 0.949 . S
C434 C438 1.368 . S
C435 C416 1.429 . S
C435 C429 1.429 . S
C435 C436 1.523 . S
C436 C417 1.368 . S
C436 C430 1.368 . S
C436 C435 1.523 . S
C437 C421 1.429 . S
C437 C433 1.429 . S
C437 C438 1.523 . S
C438 C422 1.368 . S
C438 C434 1.368 . S
C438 C437 1.523 . S
H439 C414 0.950 . S
H440 C416 0.950 . S
H441 C417 0.949 . S
H442 C419 0.950 . S
H443 C421 0.950 . S
C444 C445 1.349 . S
C444 C446 1.327 . S
C444 H469 0.950 . S
C445 C444 1.349 . S
C445 C461 1.349 . S
C446 C444 1.327 . S
C446 C465 1.429 . S
C446 H470 0.950 . S
C447 C464 1.574 . S
C447 C466 1.368 . S
C447 H471 0.949 . S
H448 C452 0.949 . S
C449 C450 1.349 1_655 S
C449 C451 1.327 . S
C449 H472 0.950 1_655 S
C450 C449 1.349 1_455 S
C450 C462 1.349 1_455 S
C451 C449 1.327 . S
C451 C467 1.429 . S
C451 H473 0.950 . S
C452 H448 0.949 . S
C452 C460 1.574 . S
C452 C468 1.368 . S
H453 C461 0.950 . S
H454 C459 0.950 . S
H455 C460 0.949 . S
H456 C462 0.950 . S
H457 C463 0.950 . S
H458 C464 0.949 . S
C459 H454 0.950 . S
C459 C461 1.327 . S
C459 C465 1.429 . S
C460 C452 1.574 . S
C460 H455 0.949 . S
C460 C466 1.368 . S
C461 C445 1.349 . S
C461 H453 0.950 . S
C461 C459 1.327 . S
C462 C450 1.349 1_655 S
C462 H456 0.950 . S
C462 C463 1.327 . S
C463 H457 0.950 . S
C463 C462 1.327 . S
C463 C467 1.429 . S
C464 C447 1.574 . S
C464 H458 0.949 . S
C464 C468 1.368 . S
C465 C446 1.429 . S
C465 C459 1.429 . S
C465 C466 1.523 . S
C466 C447 1.368 . S
C466 C460 1.368 . S
C466 C465 1.523 . S
C467 C451 1.429 . S
C467 C463 1.429 . S
C467 C468 1.523 . S
C468 C452 1.368 . S
C468 C464 1.368 . S
C468 C467 1.523 . S
H469 C444 0.950 . S
H470 C446 0.950 . S
H471 C447 0.949 . S
H472 C449 0.950 1_455 S
H473 C451 0.950 . S
C474 C475 1.349 . S
C474 C476 1.327 . S
C474 H499 0.950 . S
C475 C474 1.349 . S
C475 C491 1.349 . S
C476 C474 1.327 . S
C476 C495 1.429 . S
C476 H500 0.950 . S
C477 C494 1.574 . S
C477 C496 1.368 . S
C477 H501 0.949 . S
H478 C482 0.949 . S
C479 C480 1.349 . S
C479 C481 1.327 . S
C479 H502 0.950 . S
C480 C479 1.349 . S
C480 C492 1.349 . S
C481 C479 1.327 . S
C481 C497 1.429 1_545 S
C481 H503 0.950 . S
C482 H478 0.949 . S
C482 C490 1.574 . S
C482 C498 1.368 . S
H483 C491 0.950 . S
H484 C489 0.950 . S
H485 C490 0.949 . S
H486 C492 0.950 . S
H487 C493 0.950 . S
H488 C494 0.949 . S
C489 H484 0.950 . S
C489 C491 1.327 . S
C489 C495 1.429 . S
C490 C482 1.574 . S
C490 H485 0.949 . S
C490 C496 1.368 . S
C491 C475 1.349 . S
C491 H483 0.950 . S
C491 C489 1.327 . S
C492 C480 1.349 . S
C492 H486 0.950 . S
C492 C493 1.327 1_545 S
C493 H487 0.950 . S
C493 C492 1.327 1_565 S
C493 C497 1.429 . S
C494 C477 1.574 . S
C494 H488 0.949 . S
C494 C498 1.368 . S
C495 C476 1.429 . S
C495 C489 1.429 . S
C495 C496 1.523 . S
C496 C477 1.368 . S
C496 C490 1.368 . S
C496 C495 1.523 . S
C497 C481 1.429 1_565 S
C497 C493 1.429 . S
C497 C498 1.523 . S
C498 C482 1.368 . S
C498 C494 1.368 . S
C498 C497 1.523 . S
H499 C474 0.950 . S
H500 C476 0.950 . S
H501 C477 0.949 . S
H502 C479 0.950 . S
H503 C481 0.950 . S
C504 C505 1.349 . S
C504 C506 1.327 . S
C504 H529 0.950 . S
C505 C504 1.349 . S
C505 C521 1.349 . S
C506 C504 1.327 . S
C506 C525 1.429 . S
C506 H530 0.950 . S
C507 C524 1.574 . S
C507 C526 1.368 . S
C507 H531 0.949 . S
H508 C512 0.949 . S
C509 C510 1.349 . S
C509 C511 1.327 . S
C509 H532 0.950 . S
C510 C509 1.349 . S
C510 C522 1.349 . S
C511 C509 1.327 . S
C511 C527 1.429 . S
C511 H533 0.950 . S
C512 H508 0.949 . S
C512 C520 1.574 . S
C512 C528 1.368 . S
H513 C521 0.950 . S
H514 C519 0.950 . S
H515 C520 0.949 . S
H516 C522 0.950 . S
H517 C523 0.950 . S
H518 C524 0.949 . S
C519 H514 0.950 . S
C519 C521 1.327 . S
C519 C525 1.429 . S
C520 C512 1.574 . S
C520 H515 0.949 . S
C520 C526 1.368 . S
C521 C505 1.349 . S
C521 H513 0.950 . S
C521 C519 1.327 . S
C522 C510 1.349 . S
C522 H516 0.950 . S
C522 C523 1.327 . S
C523 H517 0.950 . S
C523 C522 1.327 . S
C523 C527 1.429 . S
C524 C507 1.574 . S
C524 H518 0.949 . S
C524 C528 1.368 . S
C525 C506 1.429 . S
C525 C519 1.429 . S
C525 C526 1.523 . S
C526 C507 1.368 . S
C526 C520 1.368 . S
C526 C525 1.523 . S
C527 C511 1.429 . S
C527 C523 1.429 . S
C527 C528 1.523 . S
C528 C512 1.368 . S
C528 C524 1.368 . S
C528 C527 1.523 . S
H529 C504 0.950 . S
H530 C506 0.950 . S
H531 C507 0.949 . S
H532 C509 0.950 . S
H533 C511 0.950 . S
C534 C535 1.349 . S
C534 C536 1.327 . S
C534 H559 0.950 . S
C535 C534 1.349 . S
C535 C551 1.349 . S
C536 C534 1.327 . S
C536 C555 1.429 . S
C536 H560 0.950 . S
C537 C554 1.574 . S
C537 C556 1.368 . S
C537 H561 0.949 . S
H538 C542 0.949 . S
C539 C540 1.349 . S
C539 C541 1.327 . S
C539 H562 0.950 . S
C540 C539 1.349 . S
C540 C552 1.349 . S
C541 C539 1.327 . S
C541 C557 1.429 . S
C541 H563 0.950 . S
C542 H538 0.949 . S
C542 C550 1.574 . S
C542 C558 1.368 . S
H543 C551 0.950 . S
H544 C549 0.950 . S
H545 C550 0.949 . S
H546 C552 0.950 . S
H547 C553 0.950 . S
H548 C554 0.949 . S
C549 H544 0.950 . S
C549 C551 1.327 . S
C549 C555 1.429 . S
C550 C542 1.574 . S
C550 H545 0.949 . S
C550 C556 1.368 . S
C551 C535 1.349 . S
C551 H543 0.950 . S
C551 C549 1.327 . S
C552 C540 1.349 . S
C552 H546 0.950 . S
C552 C553 1.327 . S
C553 H547 0.950 . S
C553 C552 1.327 . S
C553 C557 1.429 . S
C554 C537 1.574 . S
C554 H548 0.949 . S
C554 C558 1.368 . S
C555 C536 1.429 . S
C555 C549 1.429 . S
C555 C556 1.523 . S
C556 C537 1.368 . S
C556 C550 1.368 . S
C556 C555 1.523 . S
C557 C541 1.429 . S
C557 C553 1.429 . S
C557 C558 1.523 . S
C558 C542 1.368 . S
C558 C554 1.368 . S
C558 C557 1.523 . S
H559 C534 0.950 . S
H560 C536 0.950 . S
H561 C537 0.949 . S
H562 C539 0.950 . S
H563 C541 0.950 . S
C564 C565 1.349 . S
C564 C566 1.327 . S
C564 H589 0.950 . S
C565 C564 1.349 . S
C565 C581 1.349 . S
C566 C564 1.327 . S
C566 C585 1.429 . S
C566 H590 0.950 . S
C567 C584 1.574 . S
C567 C586 1.368 . S
C567 H591 0.949 . S
H568 C572 0.949 . S
C569 C570 1.349 . S
C569 C571 1.327 . S
C569 H592 0.950 . S
C570 C569 1.349 . S
C570 C582 1.349 . S
C571 C569 1.327 . S
C571 C587 1.429 . S
C571 H593 0.950 . S
C572 H568 0.949 . S
C572 C580 1.574 . S
C572 C588 1.368 . S
H573 C581 0.950 . S
H574 C579 0.950 . S
H575 C580 0.949 . S
H576 C582 0.950 . S
H577 C583 0.950 . S
H578 C584 0.949 . S
C579 H574 0.950 . S
C579 C581 1.327 . S
C579 C585 1.429 . S
C580 C572 1.574 . S
C580 H575 0.949 . S
C580 C586 1.368 . S
C581 C565 1.349 . S
C581 H573 0.950 . S
C581 C579 1.327 . S
C582 C570 1.349 . S
C582 H576 0.950 . S
C582 C583 1.327 . S
C583 H577 0.950 . S
C583 C582 1.327 . S
C583 C587 1.429 . S
C584 C567 1.574 . S
C584 H578 0.949 . S
C584 C588 1.368 . S
C585 C566 1.429 . S
C585 C579 1.429 . S
C585 C586 1.523 . S
C586 C567 1.368 . S
C586 C580 1.368 . S
C586 C585 1.523 . S
C587 C571 1.429 . S
C587 C583 1.429 . S
C587 C588 1.523 . S
C588 C572 1.368 . S
C588 C584 1.368 . S
C588 C587 1.523 . S
H589 C564 0.950 . S
H590 C566 0.950 . S
H591 C567 0.949 . S
H592 C569 0.950 . S
H593 C571 0.950 . S
C594 C595 1.349 . S
C594 C596 1.327 . S
C594 H619 0.950 . S
C595 C594 1.349 . S
C595 C611 1.349 . S
C596 C594 1.327 . S
C596 C615 1.429 . S
C596 H620 0.950 . S
C597 C614 1.574 1_554 S
C597 C616 1.368 . S
C597 H621 0.949 1_455 S
H598 C602 0.949 1_556 S
C599 C600 1.349 . S
C599 C601 1.327 . S
C599 H622 0.950 . S
C600 C599 1.349 . S
C600 C612 1.349 . S
C601 C599 1.327 . S
C601 C617 1.429 . S
C601 H623 0.959 . S
C602 H598 0.949 1_554 S
C602 C610 1.574 . S
C602 C618 1.368 1_554 S
H603 C611 0.950 1_655 S
H604 C609 0.950 1_655 S
H605 C610 0.949 . S
H606 C612 0.950 . S
H607 C613 0.950 . S
H608 C614 0.949 1_655 S
C609 H604 0.950 1_455 S
C609 C611 1.327 . S
C609 C615 1.429 . S
C610 C602 1.574 . S
C610 H605 0.949 . S
C610 C616 1.368 . S
C611 C595 1.349 . S
C611 H603 0.950 1_455 S
C611 C609 1.327 . S
C612 C600 1.349 . S
C612 H606 0.950 . S
C612 C613 1.327 . S
C613 H607 0.950 . S
C613 C612 1.327 . S
C613 C617 1.429 . S
C614 C597 1.574 1_556 S
C614 H608 0.949 1_455 S
C614 C618 1.368 . S
C615 C596 1.429 . S
C615 C609 1.429 . S
C615 C616 1.523 . S
C616 C597 1.368 . S
C616 C610 1.368 . S
C616 C615 1.523 . S
C617 C601 1.429 . S
C617 C613 1.429 . S
C617 C618 1.523 . S
C618 C602 1.368 1_556 S
C618 C614 1.368 . S
C618 C617 1.523 . S
H619 C594 0.950 . S
H620 C596 0.950 . S
H621 C597 0.949 1_655 S
H622 C599 0.950 . S
H623 C601 0.959 . S
C624 C625 1.349 . S
C624 C626 1.327 . S
C624 H649 0.950 . S
C625 C624 1.349 . S
C625 C641 1.349 . S
C626 C624 1.327 . S
C626 C645 1.429 . S
C626 H650 0.950 . S
C627 C644 1.574 . S
C627 C646 1.368 . S
C627 H651 0.949 . S
H628 C632 0.949 . S
C629 C630 1.349 . S
C629 C631 1.327 . S
C629 H652 0.950 . S
C630 C629 1.349 . S
C630 C642 1.349 . S
C631 C629 1.327 . S
C631 C647 1.429 . S
C631 H653 0.950 . S
C632 H628 0.949 . S
C632 C640 1.574 . S
C632 C648 1.368 . S
H633 C641 0.950 . S
H634 C639 0.950 . S
H635 C640 0.949 . S
H636 C642 0.950 . S
H637 C643 0.950 . S
H638 C644 0.949 . S
C639 H634 0.950 . S
C639 C641 1.327 . S
C639 C645 1.429 . S
C640 C632 1.574 . S
C640 H635 0.949 . S
C640 C646 1.368 . S
C641 C625 1.349 . S
C641 H633 0.950 . S
C641 C639 1.327 . S
C642 C630 1.349 . S
C642 H636 0.950 . S
C642 C643 1.327 . S
C643 H637 0.950 . S
C643 C642 1.327 . S
C643 C647 1.429 . S
C644 C627 1.574 . S
C644 H638 0.949 . S
C644 C648 1.368 . S
C645 C626 1.429 . S
C645 C639 1.429 . S
C645 C646 1.523 . S
C646 C627 1.368 . S
C646 C640 1.368 . S
C646 C645 1.523 . S
C647 C631 1.429 . S
C647 C643 1.429 . S
C647 C648 1.523 . S
C648 C632 1.368 . S
C648 C644 1.368 . S
C648 C647 1.523 . S
H649 C624 0.950 . S
H650 C626 0.950 . S
H651 C627 0.949 . S
H652 C629 0.950 . S
H653 C631 0.950 . S
C654 C655 1.349 . S
C654 C656 1.327 . S
C654 H679 0.950 . S
C655 C654 1.349 . S
C655 C671 1.349 . S
C656 C654 1.327 . S
C656 C675 1.429 . S
C656 H680 0.950 . S
C657 C674 1.574 . S
C657 C676 1.368 . S
C657 H681 0.949 . S
H658 C662 0.949 . S
C659 C660 1.349 . S
C659 C661 1.327 . S
C659 H682 0.950 . S
C660 C659 1.349 . S
C660 C672 1.349 . S
C661 C659 1.327 . S
C661 C677 1.429 . S
C661 H683 0.950 . S
C662 H658 0.949 . S
C662 C670 1.574 . S
C662 C678 1.368 . S
H663 C671 0.950 . S
H664 C669 0.950 . S
H665 C670 0.949 . S
H666 C672 0.950 . S
H667 C673 0.950 . S
H668 C674 0.949 . S
C669 H664 0.950 . S
C669 C671 1.327 . S
C669 C675 1.429 . S
C670 C662 1.574 . S
C670 H665 0.949 . S
C670 C676 1.368 . S
C671 C655 1.349 . S
C671 H663 0.950 . S
C671 C669 1.327 . S
C672 C660 1.349 . S
C672 H666 0.950 . S
C672 C673 1.327 . S
C673 H667 0.950 . S
C673 C672 1.327 . S
C673 C677 1.429 . S
C674 C657 1.574 . S
C674 H668 0.949 . S
C674 C678 1.368 . S
C675 C656 1.429 . S
C675 C669 1.429 . S
C675 C676 1.523 . S
C676 C657 1.368 . S
C676 C670 1.368 . S
C676 C675 1.523 . S
C677 C661 1.429 . S
C677 C673 1.429 . S
C677 C678 1.523 . S
C678 C662 1.368 . S
C678 C674 1.368 . S
C678 C677 1.523 . S
H679 C654 0.950 . S
H680 C656 0.950 . S
H681 C657 0.949 . S
H682 C659 0.950 . S
H683 C661 0.950 . S
C684 C685 1.349 . S
C684 C686 1.327 . S
C684 H709 0.950 . S
C685 C684 1.349 . S
C685 C701 1.349 . S
C686 C684 1.327 . S
C686 C705 1.429 . S
C686 H710 0.950 . S
C687 C704 1.574 . S
C687 C706 1.368 . S
C687 H711 0.949 . S
H688 C692 0.949 . S
C689 C690 1.349 . S
C689 C691 1.327 . S
C689 H712 0.950 1_545 S
C690 C689 1.349 . S
C690 C702 1.349 . S
C691 C689 1.327 . S
C691 C707 1.429 . S
C691 H713 0.950 1_545 S
C692 H688 0.949 . S
C692 C700 1.574 . S
C692 C708 1.368 . S
H693 C701 0.950 . S
H694 C699 0.950 . S
H695 C700 0.949 . S
H696 C702 0.950 . S
H697 C703 0.950 . S
H698 C704 0.949 1_565 S
C699 H694 0.950 . S
C699 C701 1.327 . S
C699 C705 1.429 . S
C700 C692 1.574 . S
C700 H695 0.949 . S
C700 C706 1.368 . S
C701 C685 1.349 . S
C701 H693 0.950 . S
C701 C699 1.327 . S
C702 C690 1.349 . S
C702 H696 0.950 . S
C702 C703 1.327 . S
C703 H697 0.950 . S
C703 C702 1.327 . S
C703 C707 1.429 . S
C704 C687 1.574 . S
C704 H698 0.949 1_545 S
C704 C708 1.368 . S
C705 C686 1.429 . S
C705 C699 1.429 . S
C705 C706 1.523 . S
C706 C687 1.368 . S
C706 C700 1.368 . S
C706 C705 1.523 . S
C707 C691 1.429 . S
C707 C703 1.429 . S
C707 C708 1.523 . S
C708 C692 1.368 . S
C708 C704 1.368 . S
C708 C707 1.523 . S
H709 C684 0.950 . S
H710 C686 0.950 . S
H711 C687 0.949 . S
H712 C689 0.950 1_565 S
H713 C691 0.950 1_565 S
C714 C715 1.349 . S
C714 C716 1.327 . S
C714 H739 0.950 . S
C715 C714 1.349 . S
C715 C731 1.349 . S
C716 C714 1.327 . S
C716 C735 1.429 . S
C716 H740 0.950 . S
C717 C734 1.574 1_556 S
C717 C736 1.368 . S
C717 H741 0.949 . S
H718 C722 0.949 1_554 S
C719 C720 1.349 . S
C719 C721 1.327 . S
C719 H742 0.950 . S
C720 C719 1.349 . S
C720 C732 1.349 . S
C721 C719 1.327 . S
C721 C737 1.429 . S
C721 H743 0.950 . S
C722 H718 0.949 1_556 S
C722 C730 1.574 . S
C722 C738 1.368 1_556 S
H723 C731 0.950 . S
H724 C729 0.950 . S
H725 C730 0.949 . S
H726 C732 0.950 . S
H727 C733 0.950 . S
H728 C734 0.949 . S
C729 H724 0.950 . S
C729 C731 1.327 . S
C729 C735 1.429 . S
C730 C722 1.574 . S
C730 H725 0.949 . S
C730 C736 1.368 . S
C731 C715 1.349 . S
C731 H723 0.950 . S
C731 C729 1.327 . S
C732 C720 1.349 . S
C732 H726 0.950 . S
C732 C733 1.327 . S
C733 H727 0.950 . S
C733 C732 1.327 . S
C733 C737 1.429 . S
C734 C717 1.574 1_554 S
C734 H728 0.949 . S
C734 C738 1.368 . S
C735 C716 1.429 . S
C735 C729 1.429 . S
C735 C736 1.523 . S
C736 C717 1.368 . S
C736 C730 1.368 . S
C736 C735 1.523 . S
C737 C721 1.429 . S
C737 C733 1.429 . S
C737 C738 1.523 . S
C738 C722 1.368 1_554 S
C738 C734 1.368 . S
C738 C737 1.523 . S
H739 C714 0.950 . S
H740 C716 0.950 . S
H741 C717 0.949 . S
H742 C719 0.950 . S
H743 C721 0.950 . S
C744 C745 1.349 . S
C744 C746 1.327 . S
C744 H769 0.950 . S
C745 C744 1.349 . S
C745 C761 1.349 . S
C746 C744 1.327 . S
C746 C765 1.429 . S
C746 H770 0.950 . S
C747 C764 1.574 . S
C747 C766 1.368 . S
C747 H771 0.949 . S
H748 C752 0.949 . S
C749 C750 1.349 . S
C749 C751 1.327 . S
C749 H772 0.950 . S
C750 C749 1.349 . S
C750 C762 1.349 . S
C751 C749 1.327 . S
C751 C767 1.429 . S
C751 H773 0.950 . S
C752 H748 0.949 . S
C752 C760 1.574 . S
C752 C768 1.368 . S
H753 C761 0.950 . S
H754 C759 0.950 . S
H755 C760 0.949 . S
H756 C762 0.950 . S
H757 C763 0.950 . S
H758 C764 0.949 . S
C759 H754 0.950 . S
C759 C761 1.327 . S
C759 C765 1.429 . S
C760 C752 1.574 . S
C760 H755 0.949 . S
C760 C766 1.368 . S
C761 C745 1.349 . S
C761 H753 0.950 . S
C761 C759 1.327 . S
C762 C750 1.349 . S
C762 H756 0.950 . S
C762 C763 1.327 . S
C763 H757 0.950 . S
C763 C762 1.327 . S
C763 C767 1.429 . S
C764 C747 1.574 . S
C764 H758 0.949 . S
C764 C768 1.368 . S
C765 C746 1.429 . S
C765 C759 1.429 . S
C765 C766 1.523 . S
C766 C747 1.368 . S
C766 C760 1.368 . S
C766 C765 1.523 . S
C767 C751 1.429 . S
C767 C763 1.429 . S
C767 C768 1.523 . S
C768 C752 1.368 . S
C768 C764 1.368 . S
C768 C767 1.523 . S
H769 C744 0.950 . S
H770 C746 0.950 . S
H771 C747 0.949 . S
H772 C749 0.950 . S
H773 C751 0.950 . S
C235 C24 3.063 . S
C240 C226 2.975 . S
C265 C66 1.183 . S
C270 C188 1.135 . S
C295 C93 1.838 . S
C300 C207 1.781 . S
C325 C13 2.954 . S
C330 C221 2.915 . S
C360 C183 1.003 . S
C355 C57 1.015 . S
C390 C202 1.824 . S
C385 C104 1.853 . S
C415 C64 2.066 . S
C420 C150 1.982 . S
C445 C97 0.132 . S
C450 C164 0.239 . S
C475 C17 1.088 . S
C480 C126 1.082 . S
C510 C145 1.632 . S
C505 C53 1.657 . S
C540 C169 0.463 . S
C535 C106 0.241 . S
C565 C26 1.193 . S
C570 C131 1.151 . S
C600 C160 1.375 . S
C595 C2 1.345 . S
C625 C63 1.523 . S
C630 C122 1.514 . S
C655 C82 1.522 . S
C660 C141 1.559 . S
C690 C198 1.516 . S
C685 C42 1.493 . S
C720 C217 1.727 . S
C715 C103 1.726 . S
C745 C23 1.603 . S
C750 C179 1.590 . S
