# Generated by pormake.
# Topology zzz, (3,6)-cn, num edge types: 1
# Building blocks:
#     Node 0, Type 0, BuildingBlock: BETDAH_clean_linker_0, # of connection points: 3
#     Node 1, Type 0, BuildingBlock: BETDAH_clean_linker_0, # of connection points: 3
#     Node 2, Type 0, BuildingBlock: BETDAH_clean_linker_0, # of connection points: 3
#     Node 3, Type 0, BuildingBlock: BETDAH_clean_linker_0, # of connection points: 3
#     Node 4, Type 0, BuildingBlock: BETDAH_clean_linker_0, # of connection points: 3
#     Node 5, Type 0, BuildingBlock: BETDAH_clean_linker_0, # of connection points: 3
#     Node 6, Type 0, BuildingBlock: BETDAH_clean_linker_0, # of connection points: 3
#     Node 7, Type 0, BuildingBlock: BETDAH_clean_linker_0, # of connection points: 3
#     Node 8, Type 1, BuildingBlock: BETDAH_clean_sbu_0, # of connection points: 6
#     Node 9, Type 1, BuildingBlock: BETDAH_clean_sbu_0, # of connection points: 6
#     Node 10, Type 1, BuildingBlock: BETDAH_clean_sbu_0, # of connection points: 6
#     Node 11, Type 1, BuildingBlock: BETDAH_clean_sbu_0, # of connection points: 6
#     Edge 12, Type (0, 1), BuildingBlock: ZUJKAS_clean_linker_0, # of connection points: 2
#     Edge 13, Type (0, 1), BuildingBlock: ZUJKAS_clean_linker_0, # of connection points: 2
#     Edge 14, Type (0, 1), BuildingBlock: ZUJKAS_clean_linker_0, # of connection points: 2
#     Edge 15, Type (0, 1), BuildingBlock: ZUJKAS_clean_linker_0, # of connection points: 2
#     Edge 16, Type (0, 1), BuildingBlock: ZUJKAS_clean_linker_0, # of connection points: 2
#     Edge 17, Type (0, 1), BuildingBlock: ZUJKAS_clean_linker_0, # of connection points: 2
#     Edge 18, Type (0, 1), BuildingBlock: ZUJKAS_clean_linker_0, # of connection points: 2
#     Edge 19, Type (0, 1), BuildingBlock: ZUJKAS_clean_linker_0, # of connection points: 2
#     Edge 20, Type (0, 1), BuildingBlock: ZUJKAS_clean_linker_0, # of connection points: 2
#     Edge 21, Type (0, 1), BuildingBlock: ZUJKAS_clean_linker_0, # of connection points: 2
#     Edge 22, Type (0, 1), BuildingBlock: ZUJKAS_clean_linker_0, # of connection points: 2
#     Edge 23, Type (0, 1), BuildingBlock: ZUJKAS_clean_linker_0, # of connection points: 2
#     Edge 24, Type (0, 1), BuildingBlock: ZUJKAS_clean_linker_0, # of connection points: 2
#     Edge 25, Type (0, 1), BuildingBlock: ZUJKAS_clean_linker_0, # of connection points: 2
#     Edge 26, Type (0, 1), BuildingBlock: ZUJKAS_clean_linker_0, # of connection points: 2
#     Edge 27, Type (0, 1), BuildingBlock: ZUJKAS_clean_linker_0, # of connection points: 2
#     Edge 28, Type (0, 1), BuildingBlock: ZUJKAS_clean_linker_0, # of connection points: 2
#     Edge 29, Type (0, 1), BuildingBlock: ZUJKAS_clean_linker_0, # of connection points: 2
#     Edge 30, Type (0, 1), BuildingBlock: ZUJKAS_clean_linker_0, # of connection points: 2
#     Edge 31, Type (0, 1), BuildingBlock: ZUJKAS_clean_linker_0, # of connection points: 2
#     Edge 32, Type (0, 1), BuildingBlock: ZUJKAS_clean_linker_0, # of connection points: 2
#     Edge 33, Type (0, 1), BuildingBlock: ZUJKAS_clean_linker_0, # of connection points: 2
#     Edge 34, Type (0, 1), BuildingBlock: ZUJKAS_clean_linker_0, # of connection points: 2
#     Edge 35, Type (0, 1), BuildingBlock: ZUJKAS_clean_linker_0, # of connection points: 2
# Relax obj value: 0.228
# Max RMSD: 0.176
# Mean RMSD: 0.162
data_MOF--net-zzz--node1-BETDAH_clean_sbu_0--node2-BETDAH_clean_linker_0--edge1-ZUJKAS_clean_linker_0
_symmetry_space_group_name_H-M    P1
_symmetry_Int_Tables_number       1
_symmetry_cell_setting            triclinic
loop_
_symmetry_equiv_pos_as_xyz
'x, y, z'
_cell_length_a     68.386067
_cell_length_b     68.292592
_cell_length_c     17.111731
_cell_angle_alpha  90.061089
_cell_angle_beta   89.875354
_cell_angle_gamma 90.006807
loop_
_atom_site_label
_atom_site_type_symbol
_atom_site_fract_x
_atom_site_fract_y
_atom_site_fract_z
_atom_type_partial_charge
H0 H 0.79135 0.4964 0.25197 0.0
H1 H 0.73166 0.50794 0.19435 0.0
H2 H 0.75382 0.52368 0.42239 0.0
C3 C 0.77702 0.50151 0.27013 0.0
C4 C 0.7746 0.50967 0.3447 0.0
C5 C 0.76162 0.50073 0.21647 0.0
C6 C 0.74336 0.50837 0.23687 0.0
C7 C 0.74034 0.51653 0.31168 0.0
C8 C 0.75608 0.51729 0.36511 0.0
N9 N 0.72175 0.52412 0.33423 0.0
C10 C 0.70534 0.52382 0.28581 0.0
H11 H 0.03315 0.7924 0.28828 0.0
H12 H 0.02154 0.73421 0.20704 0.0
H13 H 0.99446 0.75534 0.4194 0.0
C14 C 0.02643 0.7782 0.29752 0.0
C15 C 0.01406 0.77561 0.36194 0.0
C16 C 0.02935 0.76337 0.242 0.0
C17 C 0.01951 0.7455 0.25072 0.0
C18 C 1.00698 0.74242 0.31517 0.0
C19 C 1.00421 0.75761 0.37025 0.0
N20 N 0.99682 0.72439 0.32556 0.0
C21 C 0.99835 0.70842 0.27491 0.0
H22 H 0.72677 0.01432 0.26166 0.0
H23 H 0.78729 1.00529 0.2074 0.0
H24 H 0.7683 1.00812 0.44832 0.0
C25 C 0.74175 0.01258 0.28128 0.0
C26 C 0.74564 0.01174 0.36144 0.0
C27 C 0.75669 0.01005 0.22603 0.0
C28 C 0.77593 1.00725 0.25089 0.0
C29 C 0.7804 1.00693 0.33121 0.0
C30 C 0.76507 1.00879 0.38643 0.0
N31 N 0.80004 1.00464 0.35751 0.0
C32 C 0.81619 1.00401 0.30729 0.0
H33 H 0.49229 0.732 0.2635 0.0
H34 H 0.5033 0.79159 0.19916 0.0
H35 H 0.52318 0.76971 0.42205 0.0
C36 C 0.49778 0.7464 0.27876 0.0
C37 C 0.50732 0.74898 0.35041 0.0
C38 C 0.49619 0.76166 0.22436 0.0
C39 C 0.5044 0.77993 0.24173 0.0
C40 C 0.5141 0.78302 0.31331 0.0
C41 C 0.51563 0.76742 0.36719 0.0
N42 N 0.52256 0.80152 0.33199 0.0
C43 C 0.52192 0.81776 0.28253 0.0
H44 H 0.22798 0.52732 0.10868 0.0
H45 H 0.28813 0.52274 0.1771 0.0
H46 H 0.26727 0.49208 0.97233 0.0
C47 C 0.24264 0.52188 0.09767 0.0
C48 C 0.24575 0.50925 0.03457 0.0
C49 C 0.25783 0.52695 0.14866 0.0
C50 C 0.27654 0.51912 0.13653 0.0
C51 C 0.28015 0.50665 0.07223 0.0
C52 C 0.26468 0.50193 0.02096 0.0
N53 N 0.29897 0.49835 0.05871 0.0
C54 C 0.31483 0.50043 0.1093 0.0
H55 H 0.0292 0.2297 0.11388 0.0
H56 H 0.0257 0.29037 0.1791 0.0
H57 H 0.01171 0.27226 0.94378 0.0
C58 C 0.02677 0.2449 0.0983 0.0
C59 C 0.02074 0.24924 0.02233 0.0
C60 C 0.02853 0.2596 0.15526 0.0
C61 C 0.0244 0.27906 0.13502 0.0
C62 C 0.01849 0.28382 0.05843 0.0
C63 C 0.01655 0.26877 0.00239 0.0
N64 N 0.01412 0.30347 0.03671 0.0
C65 C 0.01467 0.31926 0.08853 0.0
H66 H 0.29211 0.01945 0.14094 0.0
H67 H 0.23149 0.01424 0.20157 0.0
H68 H 0.24911 0.0153 0.959 0.0
C69 C 0.27691 0.0186 0.12316 0.0
C70 C 0.27247 0.01794 0.04341 0.0
C71 C 0.26224 0.01708 0.18019 0.0
C72 C 0.24269 0.01532 0.1571 0.0
C73 C 0.23772 0.0149 0.07728 0.0
C74 C 0.25277 0.01589 0.02052 0.0
N75 N 0.21784 0.01338 0.05287 0.0
C76 C 0.20186 0.01333 0.10411 0.0
H77 H 0.51418 0.29812 0.15121 0.0
H78 H 0.50679 0.23808 0.21792 0.0
H79 H 0.49838 0.25553 0.9774 0.0
C80 C 0.51072 0.28312 0.13535 0.0
C81 C 0.50649 0.27864 0.05744 0.0
C82 C 0.51064 0.26863 0.19319 0.0
C83 C 0.50661 0.2492 0.17283 0.0
C84 C 0.50203 0.24431 0.09485 0.0
C85 C 0.50182 0.25918 0.03745 0.0
N86 N 0.49766 0.22468 0.07269 0.0
C87 C 0.4977 0.20889 0.1245 0.0
Ho88 Ho 0.01825 1.00547 0.78487 0.0
Ho89 Ho 0.99735 0.01759 0.62771 0.0
C90 C 1.006 0.97256 0.65263 0.0
C91 C 0.02525 0.98863 0.91565 0.0
C92 C 0.03598 0.9702 0.9254 0.0
C93 C 0.0346 0.95934 0.99455 0.0
C94 C 0.04227 0.94033 0.99766 0.0
C95 C 0.05121 0.93194 0.93131 0.0
C96 C 0.05329 0.94326 0.86345 0.0
C97 C 0.04572 0.96218 0.86053 0.0
C98 C 0.04502 1.00897 0.66638 0.0
C99 C 0.01223 0.05097 0.75331 0.0
C100 C 0.98811 0.03723 0.50582 0.0
C101 C 0.99399 0.05759 0.48957 0.0
C102 C 0.01347 0.06349 0.50147 0.0
C103 C 0.01833 0.0833 0.50398 0.0
C104 C 1.00381 0.09765 0.49515 0.0
C105 C 0.98447 0.09176 0.47991 0.0
C106 C 0.97962 0.07189 0.47704 0.0
C107 C 0.97382 1.00654 0.74714 0.0
O108 O 0.00953 0.97687 0.72699 0.0
O109 O 1.00305 0.98617 0.59888 0.0
O110 O 0.03565 1.00346 0.88997 0.0
O111 O 1.0086 0.98666 0.8786 0.0
O112 O 0.04946 1.00459 0.73772 0.0
O113 O 0.02683 0.01139 0.66471 0.0
O114 O 1.00786 0.04616 0.68027 0.0
O115 O 0.01513 0.03764 0.80834 0.0
O116 O 0.97632 0.03534 0.56568 0.0
O117 O 1.0021 0.0241 0.50539 0.0
O118 O 0.97031 1.00272 0.67401 0.0
O119 O 0.98919 0.01671 0.75252 0.0
H120 H 0.02689 0.96521 0.04476 0.0
H121 H 0.04025 0.93183 0.05048 0.0
H122 H 0.0602 0.93725 0.8117 0.0
H123 H 0.04671 0.97021 0.80619 0.0
H124 H 0.02484 0.05286 0.51309 0.0
H125 H 0.03331 0.08738 0.51644 0.0
H126 H 0.97304 0.10253 0.47161 0.0
H127 H 0.96447 0.0677 0.46887 0.0
Ho128 Ho 0.5136 0.02337 0.7819 0.0
Ho129 Ho 0.50303 1.00397 0.6182 0.0
C130 C 0.54829 1.00945 0.65609 0.0
C131 C 0.53153 0.03186 0.90898 0.0
C132 C 0.55215 0.02759 0.92832 0.0
C133 C 0.55796 1.00855 0.94936 0.0
C134 C 0.57773 1.00348 0.95031 0.0
C135 C 0.59209 0.01733 0.93028 0.0
C136 C 0.58632 0.03664 0.91389 0.0
C137 C 0.56659 0.04175 0.91356 0.0
C138 C 0.50259 0.04788 0.66663 0.0
C139 C 0.46892 0.01347 0.75016 0.0
C140 C 0.48624 1.00201 0.48489 0.0
C141 C 0.46483 1.0025 0.47298 0.0
C142 C 0.45416 0.01948 0.49202 0.0
C143 C 0.43391 0.01877 0.50036 0.0
C144 C 0.42375 1.00111 0.48923 0.0
C145 C 0.43424 0.98444 0.4649 0.0
C146 C 0.45459 0.98514 0.45687 0.0
C147 C 0.5077 0.97603 0.73037 0.0
O148 O 0.54304 0.01527 0.72754 0.0
O149 O 0.53542 1.00501 0.60087 0.0
O150 O 0.52898 0.04453 0.85253 0.0
O151 O 0.51984 0.01673 0.90286 0.0
O152 O 0.49825 0.05058 0.73988 0.0
O153 O 0.51312 0.03279 0.6595 0.0
O154 O 0.47382 0.01078 0.67569 0.0
O155 O 0.4821 0.01659 0.80547 0.0
O156 O 0.49299 0.98643 0.5205 0.0
O157 O 0.49405 0.01819 0.51155 0.0
O158 O 0.50413 0.97213 0.65744 0.0
O159 O 0.50883 0.99436 0.73641 0.0
H160 H 0.54724 0.99729 0.96174 0.0
H161 H 0.58174 0.98861 0.96524 0.0
H162 H 0.59698 0.04766 0.89779 0.0
H163 H 0.5626 0.05655 0.89734 0.0
H164 H 0.4615 0.03315 0.50523 0.0
H165 H 0.42639 0.03186 0.51968 0.0
H166 H 0.4268 0.97074 0.45368 0.0
H167 H 0.4624 0.97184 0.44199 0.0
Ho168 Ho 0.49964 0.51846 0.76393 0.0
Ho169 Ho 0.52182 0.50736 0.6232 0.0
C170 C 0.51413 0.55228 0.6413 0.0
C171 C 0.48615 0.53704 0.88357 0.0
C172 C 0.48343 0.55832 0.89435 0.0
C173 C 0.49952 0.5711 0.89153 0.0
C174 C 0.49666 0.59127 0.88749 0.0
C175 C 0.47768 0.59915 0.8857 0.0
C176 C 0.46159 0.58645 0.89251 0.0
C177 C 0.46446 0.56621 0.89692 0.0
C178 C 0.47694 0.50746 0.64232 0.0
C179 C 0.50806 0.47353 0.7491 0.0
C180 C 0.5343 0.48894 0.50128 0.0
C181 C 0.5385 0.46791 0.4916 0.0
C182 C 0.52549 0.45385 0.52166 0.0
C183 C 0.53074 0.43416 0.52393 0.0
C184 C 0.54897 0.42809 0.49534 0.0
C185 C 0.56165 0.4419 0.46172 0.0
C186 C 0.5565 0.46176 0.46054 0.0
C187 C 0.54464 0.51834 0.74448 0.0
O188 O 0.50989 0.54766 0.71453 0.0
O189 O 0.51692 0.53852 0.58834 0.0
O190 O 0.47493 0.5291 0.83065 0.0
O191 O 0.50419 0.53071 0.87917 0.0
O192 O 0.47378 0.5025 0.71429 0.0
O193 O 0.49188 0.51829 0.63827 0.0
O194 O 0.51383 0.47799 0.67736 0.0
O195 O 0.50336 0.48729 0.79984 0.0
O196 O 0.54591 0.49819 0.54927 0.0
O197 O 0.51593 0.49365 0.51176 0.0
O198 O 0.54793 0.52306 0.67222 0.0
O199 O 0.52964 0.50758 0.74874 0.0
H200 H 0.51435 0.56556 0.88947 0.0
H201 H 0.50938 0.60069 0.88455 0.0
H202 H 0.44679 0.59208 0.89147 0.0
H203 H 0.45181 0.55666 0.89884 0.0
H204 H 0.51144 0.45806 0.54563 0.0
H205 H 0.52059 0.42366 0.54864 0.0
H206 H 0.5757 0.43741 0.43853 0.0
H207 H 0.56678 0.47236 0.43742 0.0
Ho208 Ho 1.00396 0.50274 0.7612 0.0
Ho209 Ho 0.01772 0.52242 0.61697 0.0
C210 C 0.97101 0.51725 0.6444 0.0
C211 C 0.99198 0.49008 0.89423 0.0
C212 C 0.97214 0.48307 0.91298 0.0
C213 C 0.96144 0.49214 0.97287 0.0
C214 C 0.94128 0.48912 0.9791 0.0
C215 C 0.93148 0.47695 0.9255 0.0
C216 C 0.94245 0.46688 0.86886 0.0
C217 C 0.96255 0.46994 0.86247 0.0
C218 C 1.005 0.47925 0.63372 0.0
C219 C 0.05048 0.50784 0.73386 0.0
C220 C 0.03029 0.53462 0.48407 0.0
C221 C 0.05094 0.53821 0.46347 0.0
C222 C 0.06522 0.5242 0.48258 0.0
C223 C 0.085 0.52899 0.47992 0.0
C224 C 0.09099 0.54787 0.45822 0.0
C225 C 0.07683 0.56157 0.43469 0.0
C226 C 0.05692 0.55679 0.43769 0.0
C227 C 0.01652 0.54583 0.74501 0.0
O228 O 0.97494 0.51305 0.7179 0.0
O229 O 0.9852 0.51963 0.59238 0.0
O230 O 1.00217 0.47928 0.84581 0.0
O231 O 0.99304 0.50874 0.87758 0.0
O232 O 0.99128 0.47901 0.68585 0.0
O233 O 0.01789 0.49159 0.65261 0.0
O234 O 0.04653 0.51127 0.65975 0.0
O235 O 0.03629 0.50636 0.78629 0.0
O236 O 0.02323 0.54642 0.53724 0.0
O237 O 0.02538 0.51635 0.49656 0.0
O238 O 0.03036 0.54607 0.6934 0.0
O239 O 1.00369 0.53354 0.72526 0.0
H240 H 0.96846 0.50249 0.01179 0.0
H241 H 0.93324 0.49725 0.02303 0.0
H242 H 0.9354 0.45714 0.82762 0.0
H243 H 0.97035 0.46279 0.81525 0.0
H244 H 0.06115 0.50977 0.5032 0.0
H245 H 0.09562 0.518 0.49657 0.0
H246 H 0.0811 0.57621 0.41732 0.0
H247 H 0.04617 0.56788 0.42357 0.0
H248 H 0.16478 0.02383 0.06894 0.0
H249 H 0.13645 0.02461 0.15797 0.0
H250 H 0.17291 1.00382 0.3457 0.0
H251 H 0.20112 1.00298 0.25689 0.0
H252 H 0.11946 0.99363 0.24853 0.0
H253 H 0.1472 0.05361 0.4368 0.0
H254 H 0.15721 0.04853 0.34116 0.0
H255 H 0.16413 0.03376 0.42349 0.0
C256 C 0.16667 0.01946 0.1293 0.0
C257 C 0.1851 0.01352 0.15644 0.0
C258 C 0.15051 0.01988 0.18003 0.0
C259 C 0.15257 0.01455 0.25892 0.0
C260 C 0.171 1.00835 0.28556 0.0
H261 H 0.08401 1.00328 0.67613 0.0
H262 H 0.10855 1.00525 0.57295 0.0
C263 C 0.18712 1.00784 0.23477 0.0
C264 C 0.13551 0.01529 0.31342 0.0
H265 H 0.11961 0.03603 0.48401 0.0
C266 C 0.11937 1.00303 0.29966 0.0
C267 C 0.13535 0.02762 0.37996 0.0
C268 C 0.1518 0.04177 0.39611 0.0
C269 C 0.10352 1.00212 0.35242 0.0
C270 C 0.10359 0.01413 0.42006 0.0
C271 C 0.11951 0.02678 0.43243 0.0
C272 C 0.08809 0.01288 0.48166 0.0
C273 C 0.08726 0.98771 0.33695 0.0
C274 C 0.06825 0.01662 0.46539 0.0
C275 C 0.05405 0.01538 0.52484 0.0
C276 C 0.05946 0.01059 0.60164 0.0
C277 C 0.0793 1.00704 0.61762 0.0
C278 C 0.09341 1.00818 0.55856 0.0
H279 H 0.09157 0.97651 0.29299 0.0
H280 H 0.08284 0.98012 0.39156 0.0
H281 H 0.07435 0.99568 0.31408 0.0
H282 H 0.06376 0.02066 0.40696 0.0
H283 H 0.03893 0.01817 0.51074 0.0
H284 H 0.5163 0.17438 0.10462 0.0
H285 H 0.5161 0.1462 0.19404 0.0
H286 H 0.47919 0.17832 0.35378 0.0
H287 H 0.47926 0.20639 0.26389 0.0
H288 H 0.52865 0.14409 0.34882 0.0
H289 H 0.44958 0.12664 0.32848 0.0
H290 H 0.46177 0.14259 0.25981 0.0
H291 H 0.45473 0.15159 0.35454 0.0
C292 C 0.50811 0.17531 0.15878 0.0
C293 C 0.4977 0.19238 0.17758 0.0
C294 C 0.508 0.15926 0.20978 0.0
C295 C 0.49737 0.15998 0.28015 0.0
C296 C 0.48714 0.17722 0.29916 0.0
H297 H 0.48114 0.08149 0.67501 0.0
H298 H 0.47983 0.10821 0.57959 0.0
C299 C 0.48728 0.19328 0.24814 0.0
C300 C 0.49742 0.14291 0.33443 0.0
H301 H 0.46766 0.10971 0.42554 0.0
C302 C 0.51533 0.1365 0.36522 0.0
C303 C 0.48003 0.13301 0.35605 0.0
C304 C 0.46044 0.13865 0.32255 0.0
C305 C 0.51629 0.12079 0.41823 0.0
C306 C 0.4989 0.11088 0.43994 0.0
C307 C 0.48099 0.11726 0.40894 0.0
C308 C 0.49897 0.09413 0.49581 0.0
C309 C 0.53589 0.11532 0.45223 0.0
C310 C 0.50975 0.07705 0.47982 0.0
C311 C 0.51056 0.06179 0.53442 0.0
C312 C 0.50043 0.06319 0.6058 0.0
C313 C 0.48913 0.07999 0.62059 0.0
C314 C 0.48836 0.09527 0.56607 0.0
H315 H 0.54669 0.12738 0.44614 0.0
H316 H 0.53453 0.11151 0.51508 0.0
H317 H 0.54172 0.10236 0.4207 0.0
H318 H 0.51773 0.07561 0.42539 0.0
H319 H 0.51949 0.04909 0.52143 0.0
H320 H 0.31908 0.48335 0.25035 0.0
H321 H 0.34788 0.48485 0.33598 0.0
H322 H 0.37721 0.52178 0.16818 0.0
H323 H 0.34831 0.5204 0.08309 0.0
H324 H 0.3861 0.47287 0.30359 0.0
H325 H 0.38407 0.55236 0.37179 0.0
H326 H 0.36357 0.53961 0.32912 0.0
H327 H 0.38404 0.54662 0.26933 0.0
C328 C 0.33166 0.49189 0.23233 0.0
C329 C 0.33157 0.50186 0.16076 0.0
C330 C 0.3481 0.49272 0.28103 0.0
C331 C 0.36466 0.50364 0.25911 0.0
C332 C 0.3645 0.51358 0.18719 0.0
H333 H 0.47673 0.52414 0.49633 0.0
H334 H 0.45047 0.52257 0.39856 0.0
C335 C 0.34806 0.51273 0.13848 0.0
C336 C 0.38223 0.5041 0.31053 0.0
H337 H 0.41159 0.53468 0.41684 0.0
C338 C 0.39165 0.48639 0.3284 0.0
C339 C 0.38959 0.52175 0.34259 0.0
C340 C 0.37974 0.54117 0.32794 0.0
C341 C 0.40819 0.48583 0.37711 0.0
C342 C 0.41537 0.50343 0.41016 0.0
C343 C 0.40614 0.52119 0.39137 0.0
C344 C 0.43179 0.50363 0.46732 0.0
C345 C 0.41798 0.46639 0.39198 0.0
C346 C 0.43006 0.49355 0.53848 0.0
C347 C 0.44499 0.49443 0.59415 0.0
C348 C 0.46197 0.50551 0.5802 0.0
C349 C 0.46385 0.51542 0.50859 0.0
C350 C 0.44884 0.51458 0.45284 0.0
H351 H 0.41454 0.4556 0.34538 0.0
H352 H 0.43411 0.46805 0.39576 0.0
H353 H 0.41262 0.46036 0.44827 0.0
H354 H 0.41693 0.48532 0.55182 0.0
H355 H 0.44307 0.48669 0.64886 0.0
H356 H 0.04153 0.34824 0.09627 0.0
H357 H 0.04186 0.37599 0.18812 0.0
H358 H 0.9884 0.35487 0.29258 0.0
H359 H 0.9883 0.32702 0.20166 0.0
H360 H 0.01488 0.40549 0.21071 0.0
H361 H 0.02307 0.36231 0.48249 0.0
H362 H 0.02699 0.35187 0.38681 0.0
H363 H 1.00258 0.35468 0.42466 0.0
C364 C 0.02995 0.34955 0.13927 0.0
C365 C 0.01494 0.33558 0.14261 0.0
C366 C 0.03011 0.36539 0.19153 0.0
C367 C 0.01533 0.36739 0.24821 0.0
C368 C 1.00021 0.35344 0.25069 0.0
H369 H 0.97961 0.44988 0.60056 0.0
H370 H 0.98328 0.42362 0.50454 0.0
C371 C 1.00007 0.33761 0.19852 0.0
C372 C 0.01543 0.38426 0.30362 0.0
H373 H 0.01417 0.39588 0.49796 0.0
C374 C 0.01493 0.4034 0.27353 0.0
C375 C 0.01559 0.38157 0.38567 0.0
C376 C 0.01728 0.36151 0.42193 0.0
C377 C 0.01382 0.41984 0.32315 0.0
C378 C 0.01345 0.41709 0.40508 0.0
C379 C 0.01437 0.39798 0.43514 0.0
C380 C 0.01121 0.4337 0.46084 0.0
C381 C 0.01238 0.43999 0.28758 0.0
C382 C 0.02571 0.4482 0.46828 0.0
C383 C 0.02366 0.46329 0.52354 0.0
C384 C 1.00709 0.46408 0.57228 0.0
C385 C 0.99255 0.44968 0.56393 0.0
C386 C 0.99463 0.43463 0.50912 0.0
H387 H 1.009 0.43938 0.22415 0.0
H388 H 1.00092 0.44876 0.31753 0.0
H389 H 0.02654 0.4477 0.29494 0.0
H390 H 0.03877 0.44764 0.43244 0.0
H391 H 0.03513 0.47414 0.52889 0.0
H392 H 0.81811 0.98603 0.16672 0.0
H393 H 0.84596 0.9857 0.07566 0.0
H394 H 0.87926 0.021 0.23676 0.0
H395 H 0.85143 0.02119 0.32799 0.0
H396 H 0.86451 0.01743 0.00445 0.0
H397 H 0.91709 0.97618 0.18811 0.0
H398 H 0.89123 0.97696 0.20927 0.0
H399 H 0.90662 0.99734 0.23449 0.0
C400 C 0.83144 0.99361 0.18264 0.0
C401 C 0.83276 1.00356 0.25419 0.0
C402 C 0.84733 0.99344 0.13068 0.0
C403 C 0.86487 1.00308 0.14968 0.0
C404 C 0.86609 0.0131 0.22136 0.0
H405 H 0.97501 0.02104 0.89674 0.0
H406 H 0.94883 0.02014 0.99523 0.0
C407 C 0.85017 0.01331 0.27325 0.0
C408 C 0.88156 1.00318 0.09328 0.0
H409 H 0.92948 0.98977 0.07051 0.0
C410 C 0.87868 0.0113 0.01883 0.0
C411 C 0.90014 0.99532 0.11208 0.0
C412 C 0.90399 0.9858 0.19005 0.0
C413 C 0.89385 0.01199 0.96316 0.0
C414 C 0.91237 1.00391 0.98153 0.0
C415 C 0.91531 0.99593 0.05623 0.0
C416 C 0.92874 1.00349 0.9236 0.0
C417 C 0.88997 0.02179 0.8857 0.0
C418 C 0.92647 0.99393 0.85144 0.0
C419 C 0.94137 0.99447 0.79518 0.0
C420 C 0.95896 1.00444 0.81001 0.0
C421 C 0.96159 0.0133 0.88349 0.0
C422 C 0.94663 0.0128 0.93978 0.0
H423 H 0.87734 0.03199 0.8892 0.0
H424 H 0.90298 0.03008 0.86526 0.0
H425 H 0.88648 0.01045 0.84139 0.0
H426 H 0.91305 0.98619 0.8382 0.0
H427 H 0.93896 0.98734 0.73944 0.0
H428 H 0.49122 0.82957 0.19553 0.0
H429 H 0.49006 0.85769 0.10603 0.0
H430 H 0.54972 0.87193 0.16464 0.0
H431 H 0.55091 0.84365 0.25335 0.0
H432 H 0.49558 0.89754 0.13451 0.0
H433 H 0.55127 0.86952 0.92604 0.0
H434 H 0.54006 0.8542 0.99938 0.0
H435 H 0.55934 0.87081 0.02572 0.0
C436 C 0.50406 0.83873 0.18899 0.0
C437 C 0.52118 0.83451 0.23065 0.0
C438 C 0.50339 0.85479 0.1381 0.0
C439 C 0.51988 0.86682 0.1277 0.0
C440 C 0.53693 0.86269 0.17045 0.0
H441 H 0.51638 0.98106 0.88657 0.0
H442 H 0.52017 0.95554 0.98631 0.0
C443 C 0.53759 0.84662 0.22135 0.0
C444 C 0.51917 0.88364 0.0722 0.0
H445 H 0.53964 0.90166 0.90453 0.0
C446 C 0.50524 0.89848 0.08432 0.0
C447 C 0.53166 0.8848 0.00625 0.0
C448 C 0.54632 0.86892 0.98788 0.0
C449 C 0.50345 0.91437 0.0324 0.0
C450 C 0.51611 0.91564 0.96697 0.0
C451 C 0.53006 0.90082 0.95502 0.0
C452 C 0.51429 0.93146 0.90729 0.0
C453 C 0.4876 0.92932 0.04672 0.0
C454 C 0.51026 0.92652 0.82933 0.0
C455 C 0.50829 0.94109 0.77253 0.0
C456 C 0.51036 0.96099 0.79208 0.0
C457 C 0.51464 0.96596 0.86984 0.0
C458 C 0.51667 0.95133 0.92694 0.0
H459 H 0.47639 0.9239 0.08855 0.0
H460 H 0.49422 0.94277 0.07174 0.0
H461 H 0.48023 0.93335 0.99125 0.0
H462 H 0.50841 0.91134 0.81248 0.0
H463 H 0.505 0.93673 0.71311 0.0
H464 H 0.67068 0.50583 0.31129 0.0
H465 H 0.64245 0.50474 0.22239 0.0
H466 H 0.67411 0.54013 0.05604 0.0
H467 H 0.70237 0.54092 0.14441 0.0
H468 H 0.61981 0.53474 0.16118 0.0
H469 H 0.65676 0.49402 0.92258 0.0
H470 H 0.66698 0.496 0.01942 0.0
H471 H 0.66947 0.51587 0.95117 0.0
C472 C 0.67153 0.51332 0.25558 0.0
C473 C 0.68858 0.5234 0.23414 0.0
C474 C 0.65544 0.51272 0.20494 0.0
C475 C 0.65622 0.5221 0.13187 0.0
C476 C 0.67326 0.53243 0.11122 0.0
H477 H 0.57909 0.53816 0.73686 0.0
H478 H 0.60516 0.53933 0.83439 0.0
C479 C 0.68934 0.533 0.16182 0.0
C480 C 0.63919 0.52128 0.07764 0.0
H481 H 0.62576 0.50783 0.89288 0.0
C482 C 0.62107 0.52874 0.10268 0.0
C483 C 0.64077 0.51338 0.00132 0.0
C484 C 0.65948 0.50418 0.97213 0.0
C485 C 0.60471 0.52907 0.05279 0.0
C486 C 0.6064 0.52145 0.97608 0.0
C487 C 0.62445 0.51376 0.95148 0.0
C488 C 0.58983 0.52162 0.91953 0.0
C489 C 0.58592 0.5381 0.08186 0.0
C490 C 0.57239 0.51137 0.93487 0.0
C491 C 0.55739 0.51073 0.87906 0.0
C492 C 0.55962 0.5202 0.80664 0.0
C493 C 0.57693 0.5307 0.79204 0.0
C494 C 0.59187 0.53135 0.84772 0.0
H495 H 0.58836 0.54754 0.13386 0.0
H496 H 0.57889 0.547 0.03546 0.0
H497 H 0.57562 0.52628 0.09881 0.0
H498 H 0.57058 0.50344 0.98917 0.0
H499 H 0.54426 0.50244 0.89181 0.0
H500 H 0.02893 0.69771 0.18398 0.0
H501 H 0.03089 0.66898 0.09761 0.0
H502 H 0.97253 0.65215 0.16646 0.0
H503 H 0.9705 0.68106 0.25174 0.0
H504 H 0.02795 0.62956 0.13454 0.0
H505 H 0.9689 0.65067 0.9291 0.0
H506 H 0.97951 0.66775 0.9975 0.0
H507 H 0.96161 0.65025 0.02995 0.0
C508 C 0.01651 0.68791 0.18005 0.0
C509 C 0.99952 0.69155 0.22368 0.0
C510 C 0.01764 0.6715 0.13096 0.0
C511 C 1.00175 0.65852 0.12449 0.0
C512 C 0.98482 0.66214 0.16901 0.0
H513 H 0.98516 0.55208 0.84256 0.0
H514 H 0.98129 0.5784 0.93965 0.0
C515 C 0.9837 0.67856 0.218 0.0
C516 C 1.00311 0.64102 0.07255 0.0
H517 H 0.98238 0.61898 0.91333 0.0
C518 C 0.018 0.62727 0.08612 0.0
C519 C 0.99005 0.63793 0.00957 0.0
C520 C 0.97421 0.65249 0.98999 0.0
C521 C 0.02015 0.61055 0.03876 0.0
C522 C 1.00728 0.60761 0.97511 0.0
C523 C 0.99221 0.62119 0.96222 0.0
C524 C 0.00983 0.59111 0.91892 0.0
C525 C 0.03609 0.59606 0.0579 0.0
C526 C 0.02708 0.58953 0.87476 0.0
C527 C 0.0293 0.57457 0.81953 0.0
C528 C 0.01426 0.56091 0.80679 0.0
C529 C 0.99702 0.56236 0.85131 0.0
C530 C 0.99478 0.57741 0.90661 0.0
H531 H 0.04073 0.59725 0.11992 0.0
H532 H 0.03124 0.58081 0.04652 0.0
H533 H 0.04904 0.5991 0.02064 0.0
H534 H 0.03874 0.60012 0.8819 0.0
H535 H 0.04273 0.57389 0.78595 0.0
H536 H 0.05588 0.23359 0.20611 0.0
H537 H 0.05405 0.21515 0.32711 0.0
H538 H 0.00986 0.25472 0.41404 0.0
H539 H 0.0105 0.27236 0.28961 0.0
H540 H 0.05459 0.2156 0.48276 0.0
H541 H 0.97744 0.20707 0.38085 0.0
H542 H 0.9951 0.22032 0.32373 0.0
H543 H 0.98508 0.23098 0.4114 0.0
C544 C 0.04605 0.23863 0.2516 0.0
C545 C 0.03268 0.2538 0.23705 0.0
C546 C 0.04515 0.22819 0.32132 0.0
C547 C 0.03113 0.233 0.37821 0.0
C548 C 0.0202 0.25027 0.36945 0.0
H549 H 0.98354 0.12589 0.57467 0.0
H550 H 0.99092 0.16092 0.58181 0.0
C551 C 0.02075 0.26049 0.2986 0.0
C552 C 0.0255 0.21765 0.43529 0.0
H553 H 0.99018 0.18289 0.45878 0.0
C554 C 0.04031 0.20872 0.4795 0.0
C555 C 1.00678 0.20871 0.43179 0.0
C556 C 0.99018 0.21713 0.38426 0.0
C557 C 0.03763 0.19012 0.51264 0.0
C558 C 0.0196 0.18036 0.50179 0.0
C559 C 1.00406 0.19035 0.46642 0.0
C560 C 0.01737 0.15895 0.51255 0.0
C561 C 0.0546 0.18073 0.55443 0.0
C562 C 0.02989 0.14617 0.47202 0.0
C563 C 0.02574 0.1262 0.46805 0.0
C564 C 1.0088 0.11866 0.50346 0.0
C565 C 0.99657 0.13135 0.54596 0.0
C566 C 1.00087 0.15131 0.5508 0.0
H567 H 0.0623 0.19172 0.59105 0.0
H568 H 0.05 0.16833 0.59205 0.0
H569 H 0.06525 0.17524 0.51052 0.0
H570 H 0.04234 0.15176 0.43978 0.0
H571 H 0.03533 0.11681 0.43424 0.0
H572 H 0.28691 0.04121 0.25871 0.0
H573 H 0.30428 0.03333 0.37854 0.0
H574 H 0.26786 0.98236 0.4108 0.0
H575 H 0.25081 0.98987 0.28839 0.0
H576 H 0.29929 0.02362 0.53682 0.0
H577 H 0.32059 0.95852 0.35733 0.0
H578 H 0.3064 0.978 0.31496 0.0
H579 H 0.29543 0.96171 0.38489 0.0
C580 C 0.28223 0.02863 0.2925 0.0
C581 C 0.26797 0.01582 0.26333 0.0
C582 C 0.29204 0.02421 0.36141 0.0
C583 C 0.28772 1.00695 0.40238 0.0
C584 C 0.27168 0.99552 0.37903 0.0
H585 H 0.40288 0.97107 0.55642 0.0
H586 H 0.36734 0.96883 0.57274 0.0
C587 C 0.26189 0.99989 0.30943 0.0
C588 C 0.30268 0.99941 0.457 0.0
H589 H 0.34315 0.97041 0.4461 0.0
C590 C 0.30855 0.01149 0.51914 0.0
C591 C 0.31462 0.98333 0.43505 0.0
C592 C 0.30907 0.9696 0.36944 0.0
C593 C 0.32719 1.00956 0.55225 0.0
C594 C 0.34017 0.9954 0.52165 0.0
C595 C 0.33321 0.98147 0.46844 0.0
C596 C 0.36161 0.9978 0.52737 0.0
C597 C 0.33346 0.02363 0.61523 0.0
C598 C 0.37011 0.01477 0.49606 0.0
C599 C 0.39024 0.01591 0.48468 0.0
C600 C 0.40238 1.00009 0.50455 0.0
C601 C 0.39391 0.98335 0.53878 0.0
C602 C 0.37366 0.98216 0.54952 0.0
H603 H 0.32082 0.028 0.65227 0.0
H604 H 0.34491 0.01706 0.6528 0.0
H605 H 0.33947 0.03709 0.58791 0.0
H606 H 0.36105 0.02676 0.47598 0.0
H607 H 0.39616 0.0289 0.45718 0.0
H608 H 0.53996 0.25501 0.28699 0.0
H609 H 0.55288 0.27172 0.40317 0.0
H610 H 0.50509 0.31299 0.39193 0.0
H611 H 0.49205 0.296 0.27921 0.0
H612 H 0.56716 0.30561 0.39032 0.0
H613 H 0.51233 0.31402 0.61875 0.0
H614 H 0.51019 0.29488 0.54623 0.0
H615 H 0.49947 0.31876 0.53 0.0
C616 C 0.53179 0.26706 0.31219 0.0
C617 C 0.51517 0.27442 0.27425 0.0
C618 C 0.53918 0.27664 0.3783 0.0
C619 C 0.52996 0.29361 0.40707 0.0
C620 C 0.51228 0.29968 0.37303 0.0
H621 H 0.55792 0.40397 0.37466 0.0
H622 H 0.55994 0.36836 0.37829 0.0
C623 C 0.50491 0.29011 0.30766 0.0
C624 C 0.54053 0.30763 0.45818 0.0
H625 H 0.52895 0.34584 0.57724 0.0
C626 C 0.55912 0.31396 0.43371 0.0
C627 C 0.53075 0.31823 0.51758 0.0
C628 C 0.51219 0.31087 0.55504 0.0
C629 C 0.5665 0.33219 0.45714 0.0
C630 C 0.55469 0.34455 0.50378 0.0
C631 C 0.53774 0.3368 0.53862 0.0
C632 C 0.55739 0.36613 0.5045 0.0
C633 C 0.58631 0.33846 0.42741 0.0
C634 C 0.55516 0.3769 0.57391 0.0
C635 C 0.55354 0.39728 0.57132 0.0
C636 C 0.55422 0.40719 0.49949 0.0
C637 C 0.55762 0.39661 0.43072 0.0
C638 C 0.55897 0.37624 0.43308 0.0
H639 H 0.59659 0.32587 0.42763 0.0
H640 H 0.58498 0.34346 0.36596 0.0
H641 H 0.59261 0.35047 0.4632 0.0
H642 H 0.55377 0.36949 0.62961 0.0
H643 H 0.55106 0.40529 0.62504 0.0
H644 H 0.23911 0.56192 0.15161 0.0
H645 H 0.21921 0.5737 0.25911 0.0
H646 H 0.24521 0.53067 0.41164 0.0
H647 H 0.26453 0.51816 0.30186 0.0
H648 H 0.2091 0.52344 0.39713 0.0
H649 H 0.21222 0.60207 0.45674 0.0
H650 H 0.21152 0.59935 0.35286 0.0
H651 H 0.23199 0.58962 0.40709 0.0
C652 C 0.24124 0.55559 0.209 0.0
C653 C 0.25294 0.53886 0.21821 0.0
C654 C 0.22998 0.56249 0.27109 0.0
C655 C 0.23052 0.55302 0.34389 0.0
C656 C 0.24446 0.53817 0.35598 0.0
H657 H 0.11657 0.54067 0.57669 0.0
H658 H 0.15215 0.54479 0.57447 0.0
C659 C 0.25558 0.53107 0.29331 0.0
C660 C 0.21326 0.55476 0.39635 0.0
H661 H 0.17833 0.58775 0.45162 0.0
C662 C 0.20275 0.53751 0.41199 0.0
C663 C 0.20482 0.57304 0.41606 0.0
C664 C 0.21592 0.59199 0.40789 0.0
C665 C 0.18334 0.53811 0.43803 0.0
C666 C 0.17426 0.55648 0.4497 0.0
C667 C 0.18527 0.5737 0.4414 0.0
C668 C 0.15283 0.55787 0.45943 0.0
C669 C 0.17218 0.51911 0.44604 0.0
C670 C 0.14143 0.56468 0.39696 0.0
C671 C 0.12113 0.56234 0.398 0.0
C672 C 0.112 0.55305 0.46146 0.0
C673 C 0.12333 0.54748 0.52629 0.0
C674 C 0.1436 0.54994 0.52539 0.0
H675 H 0.18075 0.5063 0.42531 0.0
H676 H 0.1684 0.51669 0.50838 0.0
H677 H 0.15832 0.51977 0.41241 0.0
H678 H 0.14834 0.57077 0.34538 0.0
H679 H 0.11274 0.56677 0.34739 0.0
H680 H 0.06512 0.78076 0.23605 0.0
H681 H 0.0758 0.80194 0.13045 0.0
H682 H 0.03172 0.77719 0.97972 0.0
H683 H 0.01977 0.75714 0.08831 0.0
H684 H 0.08623 0.80755 0.98508 0.0
H685 H 1.00796 0.82932 0.01925 0.0
H686 H 0.01877 0.81065 0.07905 0.0
H687 H 0.01212 0.80543 0.97929 0.0
C688 C 0.05808 0.77938 0.17963 0.0
C689 C 0.041 0.76812 0.1714 0.0
C690 C 0.06429 0.79143 0.1189 0.0
C691 C 0.0538 0.79197 0.04855 0.0
C692 C 0.03938 0.77769 0.03499 0.0
H693 H 0.04299 0.90539 0.81732 0.0
H694 H 0.04729 0.86984 0.82274 0.0
C695 C 0.03273 0.76601 0.09678 0.0
C696 C 0.05502 0.81001 1.00036 0.0
H697 H 0.02869 0.85121 0.95888 0.0
C698 C 0.07357 0.81692 0.97766 0.0
C699 C 0.03849 0.82241 0.9914 0.0
C700 C 0.01824 0.81672 0.01893 0.0
C701 C 0.07619 0.83624 0.95142 0.0
C702 C 0.05983 0.84873 0.94658 0.0
C703 C 0.04115 0.84142 0.96282 0.0
C704 C 0.06163 0.87005 0.93485 0.0
C705 C 0.09645 0.8435 0.93243 0.0
C706 C 0.06852 0.88184 0.99612 0.0
C707 C 0.0659 0.90214 0.99384 0.0
C708 C 0.05645 0.91089 0.93 0.0
C709 C 0.05055 0.89909 0.86684 0.0
C710 C 0.05301 0.87882 0.86958 0.0
H711 H 0.10681 0.83122 0.92242 0.0
H712 H 0.09619 0.853 0.87978 0.0
H713 H 0.10193 0.85241 0.98204 0.0
H714 H 0.07485 0.87525 0.04778 0.0
H715 H 0.07067 0.9109 0.04303 0.0
H716 H 0.76209 0.97913 0.12821 0.0
H717 H 0.74326 0.97285 0.00899 0.0
H718 H 0.71962 0.03139 0.02135 0.0
H719 H 0.73837 0.03758 0.1393 0.0
H720 H 0.7053 0.97262 0.03632 0.0
H721 H 0.71664 0.02247 0.7901 0.0
H722 H 0.7358 0.01736 0.85997 0.0
H723 H 0.71824 0.03661 0.87799 0.0
C724 C 0.75366 0.99094 0.10274 0.0
C725 C 0.75138 1.00874 0.1428 0.0
C726 C 0.74294 0.98735 0.03467 0.0
C727 C 0.73003 1.00163 0.00594 0.0
C728 C 0.72974 0.02025 0.04102 0.0
H729 H 0.62394 0.03851 0.97595 0.0
H730 H 0.65824 0.0294 0.96544 0.0
C731 C 0.7403 0.02375 0.10908 0.0
C732 C 0.7131 0.99592 0.95723 0.0
H733 H 0.68149 0.0178 0.8311 0.0
C734 C 0.70033 0.98187 0.98883 0.0
C735 C 0.7067 1.00768 0.89447 0.0
C736 C 0.72024 0.02171 0.85331 0.0
C737 C 0.68049 0.98163 0.96873 0.0
C738 C 0.67351 0.99555 0.91457 0.0
C739 C 0.68685 1.00746 0.8741 0.0
C740 C 0.65265 1.00106 0.91331 0.0
C741 C 0.6668 0.96818 0.01251 0.0
C742 C 0.63814 0.98809 0.88756 0.0
C743 C 0.61843 0.99338 0.89265 0.0
C744 C 0.61296 0.01161 0.92459 0.0
C745 C 0.62762 0.02451 0.95002 0.0
C746 C 0.64724 0.01932 0.94406 0.0
H747 H 0.67457 0.95898 0.05606 0.0
H748 H 0.65543 0.97686 0.0434 0.0
H749 H 0.6593 0.95833 0.9706 0.0
H750 H 0.64206 0.974 0.86312 0.0
H751 H 0.6075 0.98328 0.87092 0.0
H752 H 0.46223 0.74238 0.19394 0.0
H753 H 0.45537 0.72419 0.07494 0.0
H754 H 0.5031 0.75351 0.95842 0.0
H755 H 0.51087 0.77087 0.07974 0.0
H756 H 0.44974 0.7248 0.91738 0.0
H757 H 0.52542 0.69964 0.98845 0.0
H758 H 0.51256 0.71648 0.05091 0.0
H759 H 0.52248 0.72465 0.95903 0.0
C760 C 0.47092 0.74538 0.14228 0.0
C761 C 0.48759 0.75733 0.14687 0.0
C762 C 0.46687 0.7351 0.07391 0.0
C763 C 0.47928 0.73687 0.0089 0.0
C764 C 0.49378 0.75144 0.009 0.0
H765 H 0.49775 0.62373 0.78932 0.0
H766 H 0.49706 0.6594 0.78854 0.0
C767 C 0.4981 0.76149 0.07817 0.0
C768 C 0.47972 0.72049 0.95205 0.0
H769 H 0.50596 0.67897 0.91632 0.0
C770 C 0.46222 0.71501 0.91504 0.0
C771 C 0.49604 0.70769 0.94878 0.0
C772 C 0.51517 0.71226 0.98907 0.0
C773 C 0.46009 0.69639 0.88111 0.0
C774 C 0.47581 0.68302 0.88483 0.0
C775 C 0.49389 0.68926 0.91409 0.0
C776 C 0.47328 0.66176 0.87162 0.0
C777 C 0.44076 0.69088 0.84511 0.0
C778 C 0.46017 0.65116 0.9187 0.0
C779 C 0.46094 0.63072 0.92087 0.0
C780 C 0.4749 0.62056 0.87619 0.0
C781 C 0.48715 0.63118 0.82555 0.0
C782 C 0.4865 0.65156 0.82389 0.0
H783 H 0.43333 0.70394 0.82042 0.0
H784 H 0.44264 0.67978 0.79821 0.0
H785 H 0.43109 0.68467 0.89097 0.0
H786 H 0.45026 0.6587 0.95796 0.0
H787 H 0.4514 0.62298 0.96092 0.0
H788 H 0.75856 0.52043 0.07884 0.0
H789 H 0.77866 0.51361 0.96346 0.0
H790 H 0.79597 0.45841 0.0649 0.0
H791 H 0.77549 0.46494 0.17769 0.0
H792 H 0.81486 0.51476 0.99878 0.0
H793 H 0.80562 0.4453 0.84363 0.0
H794 H 0.78576 0.45622 0.89824 0.0
H795 H 0.80299 0.44004 0.94547 0.0
C796 C 0.76568 0.50631 0.07378 0.0
C797 C 0.76587 0.49333 0.13725 0.0
C798 C 0.77722 0.50242 0.00797 0.0
C799 C 0.78909 0.4856 0.00559 0.0
C800 C 0.78684 0.47135 0.0641 0.0
H801 H 0.90664 0.47507 0.05083 0.0
H802 H 0.87098 0.47756 0.04942 0.0
C803 C 0.77522 0.47516 0.12929 0.0
C804 C 0.80748 0.4856 0.95939 0.0
H805 H 0.8404 0.45353 0.8807 0.0
C806 C 0.82013 0.50161 0.9701 0.0
C807 C 0.81455 0.46862 0.92114 0.0
C808 C 0.80134 0.45171 0.90086 0.0
C809 C 0.84005 0.50018 0.95246 0.0
C810 C 0.84751 0.48226 0.9243 0.0
C811 C 0.83464 0.46706 0.90472 0.0
C812 C 0.86875 0.47863 0.92341 0.0
C813 C 0.85322 0.5174 0.96924 0.0
C814 C 0.8791 0.47788 0.85293 0.0
C815 C 0.89951 0.47672 0.85346 0.0
C816 C 0.9098 0.47606 0.92473 0.0
C817 C 0.8992 0.47588 0.99513 0.0
C818 C 0.87885 0.47718 0.99441 0.0
H819 H 0.84489 0.53136 0.97112 0.0
H820 H 0.86028 0.51529 0.02698 0.0
H821 H 0.86493 0.51862 0.9244 0.0
H822 H 0.8714 0.47895 0.79791 0.0
H823 H 0.90724 0.47714 0.79819 0.0
H824 H 0.04905 0.22858 0.94748 0.0
H825 H 0.04558 0.19627 0.88631 0.0
H826 H 0.98315 0.19898 0.92089 0.0
H827 H 0.98667 0.23144 0.98162 0.0
H828 H 0.99958 0.1655 0.98235 0.0
H829 H 0.02256 0.17635 0.67788 0.0
H830 H 0.0419 0.18388 0.74206 0.0
H831 H 0.01881 0.19662 0.74343 0.0
C832 C 0.03454 0.22259 0.93901 0.0
C833 C 0.01808 0.23265 0.96744 0.0
C834 C 0.03256 0.20408 0.90449 0.0
C835 C 0.01409 0.19517 0.89858 0.0
C836 C 0.99753 0.20558 0.92433 0.0
H837 H 0.99766 0.08172 0.66928 0.0
H838 H 0.99724 0.11634 0.70473 0.0
C839 C 0.99951 0.2242 0.95818 0.0
C840 C 0.01241 0.17435 0.87297 0.0
H841 H 0.02433 0.1428 0.72512 0.0
C842 C 1.00484 0.16055 0.92583 0.0
C843 C 0.01893 0.16787 0.79881 0.0
C844 C 0.02582 0.18204 0.73716 0.0
C845 C 1.00419 0.14046 0.90765 0.0
C846 C 0.01189 0.13379 0.83535 0.0
C847 C 0.01882 0.14771 0.78133 0.0
C848 C 0.01253 0.11253 0.81404 0.0
C849 C 0.99491 0.12668 0.96582 0.0
C850 C 0.0215 0.09868 0.86316 0.0
C851 C 0.02149 0.0787 0.84371 0.0
C852 C 0.01292 0.07217 0.77372 0.0
C853 C 1.0045 0.08615 0.72353 0.0
C854 C 1.00425 0.10603 0.74362 0.0
H855 H 0.98441 0.13447 0.00456 0.0
H856 H 0.98706 0.11457 0.93603 0.0
H857 H 1.00646 0.1203 0.0034 0.0
H858 H 0.02854 0.10329 0.9167 0.0
H859 H 0.02828 0.0684 0.88332 0.0
H860 H 0.2843 0.98977 0.93922 0.0
H861 H 0.31612 0.9881 0.87169 0.0
H862 H 0.33045 0.0457 0.95732 0.0
H863 H 0.29886 0.04732 0.02498 0.0
H864 H 0.34241 0.03677 0.7924 0.0
H865 H 0.3666 0.98217 0.01338 0.0
H866 H 0.34411 0.97726 0.96255 0.0
H867 H 0.34551 0.99763 0.02854 0.0
C868 C 0.29399 1.0023 0.94136 0.0
C869 C 0.28906 0.01873 0.98685 0.0
C870 C 0.31224 1.00127 0.90349 0.0
C871 C 0.32579 0.0167 0.91014 0.0
C872 C 0.32029 0.03362 0.95128 0.0
H873 H 0.45187 0.02241 0.89168 0.0
H874 H 0.41702 0.02266 0.92477 0.0
C875 C 0.3022 0.03457 0.98965 0.0
C876 C 0.34626 0.01472 0.88064 0.0
H877 H 0.3898 0.99217 0.92022 0.0
C878 C 0.35274 0.02686 0.81964 0.0
C879 C 0.35981 1.00201 0.91705 0.0
C880 C 0.35382 0.98907 0.98438 0.0
C881 C 0.37238 0.02663 0.79416 0.0
C882 C 0.38598 0.01402 0.83107 0.0
C883 C 0.37943 1.00182 0.89181 0.0
C884 C 0.40722 0.01379 0.80992 0.0
C885 C 0.37854 0.04034 0.72954 0.0
C886 C 0.41346 1.00843 0.73461 0.0
C887 C 0.43342 1.00823 0.71555 0.0
C888 C 0.44769 0.01336 0.77129 0.0
C889 C 0.44139 0.01843 0.84704 0.0
C890 C 0.42142 0.01859 0.8661 0.0
H891 H 0.36743 0.05188 0.71864 0.0
H892 H 0.3927 0.04747 0.74368 0.0
H893 H 0.3805 0.03188 0.67467 0.0
H894 H 0.40289 1.00422 0.69069 0.0
H895 H 0.43767 1.00388 0.65714 0.0
H896 H 0.53761 0.30149 0.02142 0.0
H897 H 0.53715 0.33309 0.95408 0.0
H898 H 0.47612 0.32502 0.90042 0.0
H899 H 0.47661 0.29312 0.96758 0.0
H900 H 0.50011 0.34424 0.77675 0.0
H901 H 0.50784 0.3782 0.07006 0.0
H902 H 0.52618 0.36029 0.04643 0.0
H903 H 0.5011 0.35286 0.05684 0.0
C904 C 0.52425 0.30619 0.99317 0.0
C905 C 0.50715 0.29487 0.99962 0.0
C906 C 0.52396 0.32431 0.95522 0.0
C907 C 0.50652 0.33161 0.92351 0.0
C908 C 0.48974 0.3197 0.92471 0.0
H909 H 0.48545 0.45686 0.86349 0.0
H910 H 0.48378 0.42225 0.90063 0.0
C911 C 0.49004 0.30144 0.96259 0.0
C912 C 0.50553 0.3523 0.89628 0.0
H913 H 0.51019 0.3994 0.96133 0.0
C914 C 0.5022 0.35634 0.817 0.0
C915 C 0.50803 0.36809 0.94902 0.0
C916 C 0.51082 0.36474 0.03548 0.0
C917 C 0.5017 0.37574 0.78882 0.0
C918 C 0.50485 0.39156 0.84132 0.0
C919 C 0.50782 0.38741 0.92082 0.0
C920 C 0.50524 0.4125 0.81578 0.0
C921 C 0.49753 0.37903 0.70327 0.0
C922 C 0.518 0.41878 0.75642 0.0
C923 C 0.51882 0.43854 0.73462 0.0
C924 C 0.50713 0.45259 0.77258 0.0
C925 C 0.49463 0.44641 0.83303 0.0
C926 C 0.49364 0.42659 0.85415 0.0
H927 H 0.48942 0.3665 0.6775 0.0
H928 H 0.48889 0.39259 0.69403 0.0
H929 H 0.51157 0.38042 0.67111 0.0
H930 H 0.52764 0.40844 0.72794 0.0
H931 H 0.52899 0.44289 0.68933 0.0
H932 H 0.21425 0.48901 0.08513 0.0
H933 H 0.18235 0.48638 0.02154 0.0
H934 H 0.20555 0.51512 0.81714 0.0
H935 H 0.23771 0.51767 0.88108 0.0
H936 H 0.16228 0.52112 0.97599 0.0
H937 H 0.17157 0.4697 0.72629 0.0
H938 H 0.18806 0.46996 0.8087 0.0
H939 H 0.18947 0.48885 0.73614 0.0
C940 C 0.21271 0.49416 0.02558 0.0
C941 C 0.22846 0.50337 0.98766 0.0
C942 C 0.19445 0.49276 0.98948 0.0
C943 C 0.19151 0.50051 0.91451 0.0
C944 C 0.20753 0.50877 0.87454 0.0
H945 H 0.08336 0.5161 0.64809 0.0
H946 H 0.11749 0.51459 0.68998 0.0
C947 C 0.22591 0.51016 0.91087 0.0
C948 C 0.17126 0.50186 0.88301 0.0
H949 H 0.14082 0.48517 0.73931 0.0
C950 C 0.15758 0.51324 0.92426 0.0
C951 C 0.1652 0.49181 0.81496 0.0
C952 C 0.17924 0.47927 0.7689 0.0
C953 C 0.13805 0.5148 0.8997 0.0
C954 C 0.13175 0.50421 0.83311 0.0
C955 C 0.14554 0.49314 0.79077 0.0
C956 C 0.11093 0.50445 0.80688 0.0
C957 C 0.12449 0.52815 0.94466 0.0
C958 C 0.09576 0.49891 0.85793 0.0
C959 C 0.07617 0.49992 0.83433 0.0
C960 C 0.07129 0.50619 0.75859 0.0
C961 C 0.08653 0.5112 0.70682 0.0
C962 C 0.10611 0.51033 0.73068 0.0
H963 H 0.13272 0.53954 0.9773 0.0
H964 H 0.11394 0.53553 0.90521 0.0
H965 H 0.11613 0.51939 0.9879 0.0
H966 H 0.09906 0.49381 0.91632 0.0
H967 H 0.06486 0.49576 0.8755 0.0
H968 H 0.97964 0.7906 0.42194 0.0
H969 H 0.97532 0.82231 0.48783 0.0
H970 H 0.03778 0.83119 0.48405 0.0
H971 H 0.04216 0.79926 0.42351 0.0
H972 H 0.0244 0.84572 0.61087 0.0
H973 H 0.97706 0.8725 0.37074 0.0
H974 H 0.967 0.85201 0.42249 0.0
H975 H 0.98917 0.84911 0.36666 0.0
C976 C 0.99244 0.79909 0.43732 0.0
C977 C 0.01122 0.79253 0.41623 0.0
C978 C 0.98995 0.81742 0.47365 0.0
C979 C 1.00617 0.82961 0.4884 0.0
C980 C 0.02496 0.82233 0.47258 0.0
H981 H 0.01022 0.95642 0.50658 0.0
H982 H 0.00962 0.92168 0.4711 0.0
C983 C 0.02746 0.80402 0.43759 0.0
C984 C 1.00394 0.85021 0.51713 0.0
H985 H 0.98328 0.89452 0.47377 0.0
C986 C 0.01534 0.85635 0.58091 0.0
C987 C 0.99241 0.86431 0.47745 0.0
C988 C 0.98087 0.85925 0.4051 0.0
C989 C 0.0159 0.87606 0.60492 0.0
C990 C 1.004 0.89006 0.56657 0.0
C991 C 0.99231 0.88387 0.50372 0.0
C992 C 1.00401 0.91128 0.58861 0.0
C993 C 0.02996 0.8817 0.66891 0.0
C994 C 1.0008 0.91723 0.66627 0.0
C995 C 1.00158 0.93707 0.68691 0.0
C996 C 1.00499 0.95154 0.63 0.0
C997 C 1.00755 0.94567 0.55186 0.0
C998 C 1.00717 0.92577 0.5315 0.0
H999 H 0.04209 0.87096 0.6741 0.0
H1000 H 0.0364 0.8964 0.65853 0.0
H1001 H 0.02203 0.88195 0.72551 0.0
H1002 H 0.99766 0.90653 0.71121 0.0
H1003 H 0.99929 0.94106 0.74752 0.0
H1004 H 0.73065 0.98316 0.45609 0.0
H1005 H 0.69815 0.98298 0.51792 0.0
H1006 H 0.68967 0.0431 0.44897 0.0
H1007 H 0.72177 0.04302 0.38503 0.0
H1008 H 0.67832 1.00308 0.62988 0.0
H1009 H 0.64413 0.01732 0.34251 0.0
H1010 H 0.66977 0.01176 0.35254 0.0
H1011 H 0.66093 0.03619 0.3708 0.0
C1012 C 0.72203 0.99647 0.45618 0.0
C1013 C 0.72875 0.01314 0.41616 0.0
C1014 C 0.70339 0.99634 0.49097 0.0
C1015 C 0.69112 0.01286 0.48631 0.0
C1016 C 0.69852 0.02997 0.45149 0.0
H1017 H 0.57899 0.02621 0.73531 0.0
H1018 H 0.61346 0.02687 0.6979 0.0
C1019 C 0.717 0.03003 0.41596 0.0
C1020 C 0.67031 0.01188 0.51361 0.0
H1021 H 0.62315 0.01846 0.45273 0.0
C1022 C 0.66625 1.00637 0.59105 0.0
C1023 C 0.65443 0.01581 0.46284 0.0
C1024 C 0.65748 0.0204 0.37737 0.0
C1025 C 0.64689 1.00493 0.61923 0.0
C1026 C 0.631 1.00961 0.5693 0.0
C1027 C 0.63514 0.01496 0.49165 0.0
C1028 C 0.60997 1.0087 0.59493 0.0
C1029 C 0.64378 0.99795 0.70177 0.0
C1030 C 0.59609 0.99873 0.54902 0.0
C1031 C 0.5762 0.99877 0.56929 0.0
C1032 C 0.56959 1.00861 0.63661 0.0
C1033 C 0.5835 0.0183 0.68344 0.0
C1034 C 0.60337 0.01855 0.66235 0.0
H1035 H 0.65638 0.98912 0.72263 0.0
H1036 H 0.64242 0.01085 0.74083 0.0
H1037 H 0.63031 0.98897 0.70701 0.0
H1038 H 0.60063 0.99099 0.49676 0.0
H1039 H 0.56599 0.9911 0.53188 0.0
H1040 H 0.47856 0.72321 0.39033 0.0
H1041 H 0.48211 0.69153 0.45342 0.0
H1042 H 0.54306 0.7036 0.49616 0.0
H1043 H 0.53976 0.73522 0.42871 0.0
H1044 H 0.5386 0.66812 0.43297 0.0
H1045 H 0.48472 0.67414 0.67358 0.0
H1046 H 0.47444 0.68047 0.58124 0.0
H1047 H 0.49378 0.69525 0.62162 0.0
C1048 C 0.49269 0.7193 0.41417 0.0
C1049 C 0.50891 0.73177 0.404 0.0
C1050 C 0.49466 0.70118 0.4512 0.0
C1051 C 0.51278 0.69514 0.48098 0.0
C1052 C 0.52887 0.70792 0.47414 0.0
H1053 H 0.52093 0.58376 0.73669 0.0
H1054 H 0.52308 0.61839 0.70011 0.0
C1055 C 0.52694 0.7261 0.43628 0.0
C1056 C 0.51512 0.67486 0.51268 0.0
H1057 H 0.49445 0.64154 0.63725 0.0
C1058 C 0.52911 0.66242 0.47842 0.0
C1059 C 0.50288 0.6673 0.57249 0.0
C1060 C 0.48827 0.68004 0.61491 0.0
C1061 C 0.53067 0.64258 0.49991 0.0
C1062 C 0.51768 0.63476 0.5564 0.0
C1063 C 0.50424 0.64738 0.59311 0.0
C1064 C 0.51754 0.6135 0.57739 0.0
C1065 C 0.54629 0.6302 0.46188 0.0
C1066 C 0.51413 0.59907 0.52031 0.0
C1067 C 0.51339 0.57918 0.54069 0.0
C1068 C 0.5156 0.5733 0.61894 0.0
C1069 C 0.51896 0.58777 0.67601 0.0
C1070 C 0.52009 0.6076 0.6553 0.0
H1071 H 0.55847 0.63934 0.43908 0.0
H1072 H 0.55236 0.61934 0.50358 0.0
H1073 H 0.53985 0.62214 0.41182 0.0
H1074 H 0.51174 0.60319 0.46 0.0
H1075 H 0.51064 0.56846 0.49537 0.0
H1076 H 0.78704 0.54022 0.43856 0.0
H1077 H 0.81872 0.54316 0.5049 0.0
H1078 H 0.83379 0.48468 0.43062 0.0
H1079 H 0.80189 0.4812 0.36992 0.0
H1080 H 0.84787 0.48976 0.56603 0.0
H1081 H 0.86803 0.55534 0.39275 0.0
H1082 H 0.84697 0.55908 0.45356 0.0
H1083 H 0.84598 0.54167 0.37451 0.0
C1084 C 0.79692 0.52783 0.4382 0.0
C1085 C 0.79202 0.51062 0.39741 0.0
C1086 C 0.81523 0.52965 0.47489 0.0
C1087 C 0.82911 0.51443 0.47039 0.0
C1088 C 0.82361 0.4968 0.43428 0.0
H1089 H 0.95602 0.52006 0.49565 0.0
H1090 H 0.92154 0.52004 0.45682 0.0
C1091 C 0.80532 0.49487 0.39901 0.0
C1092 C 0.84954 0.51666 0.50076 0.0
H1093 H 0.89103 0.54456 0.48606 0.0
C1094 C 0.85723 0.50182 0.54865 0.0
C1095 C 0.86207 0.53215 0.47701 0.0
C1096 C 0.85545 0.54786 0.42101 0.0
C1097 C 0.87692 0.50187 0.57245 0.0
C1098 C 0.88922 0.51766 0.55085 0.0
C1099 C 0.88157 0.53259 0.50352 0.0
C1100 C 0.9102 0.51856 0.57488 0.0
C1101 C 0.88462 0.48453 0.61739 0.0
C1102 C 0.91543 0.51819 0.65422 0.0
C1103 C 0.93511 0.51801 0.67652 0.0
C1104 C 0.95013 0.51855 0.62008 0.0
C1105 C 0.94489 0.51962 0.54071 0.0
C1106 C 0.92514 0.51962 0.51841 0.0
H1107 H 0.87456 0.47178 0.61452 0.0
H1108 H 0.89917 0.48001 0.59474 0.0
H1109 H 0.88636 0.48866 0.67952 0.0
H1110 H 0.90426 0.51796 0.69917 0.0
H1111 H 0.93852 0.51734 0.73825 0.0
loop_
_geom_bond_atom_site_label_1
_geom_bond_atom_site_label_2
_geom_bond_distance
_geom_bond_site_symmetry_2
_ccdc_geom_bond_type
H0 C3 0.929 . S
H1 C6 0.929 . S
H2 C8 0.930 . S
C3 H0 0.929 . S
C3 C4 1.398 . S
C3 C5 1.396 . S
C4 C3 1.398 . S
C4 C8 1.407 . S
C5 C3 1.396 . S
C5 C6 1.394 . S
C6 H1 0.929 . S
C6 C5 1.394 . S
C6 C7 1.382 . S
C7 C6 1.382 . S
C7 C8 1.392 . S
C7 N9 1.420 . S
C8 H2 0.930 . S
C8 C4 1.407 . S
C8 C7 1.392 . S
N9 C7 1.420 . S
N9 C10 1.244 . S
C10 N9 1.244 . S
H11 C14 0.929 . S
H12 C17 0.929 . S
H13 C19 0.930 . S
C14 H11 0.929 . S
C14 C15 1.397 1_655 S
C14 C16 1.396 1_655 S
C15 C14 1.397 1_455 S
C15 C19 1.410 . S
C16 C14 1.396 1_455 S
C16 C17 1.394 . S
C17 H12 0.929 . S
C17 C16 1.394 . S
C17 C18 1.382 . S
C18 C17 1.382 . S
C18 C19 1.392 . S
C18 N20 1.420 . S
C19 H13 0.930 . S
C19 C15 1.410 . S
C19 C18 1.392 . S
N20 C18 1.420 . S
N20 C21 1.226 1_455 S
C21 N20 1.226 1_655 S
H22 C25 0.929 . S
H23 C28 0.929 . S
H24 C30 0.930 . S
C25 H22 0.929 . S
C25 C26 1.398 1_565 S
C25 C27 1.396 . S
C26 C25 1.398 1_545 S
C26 C30 1.408 . S
C27 C25 1.396 . S
C27 C28 1.394 1_565 S
C28 H23 0.929 . S
C28 C27 1.394 1_545 S
C28 C29 1.382 . S
C29 C28 1.382 . S
C29 C30 1.392 . S
C29 N31 1.420 . S
C30 H24 0.930 . S
C30 C26 1.408 . S
C30 C29 1.392 . S
N31 C29 1.420 . S
N31 C32 1.222 1_545 S
C32 N31 1.222 1_565 S
H33 C36 0.929 . S
H34 C39 0.929 . S
H35 C41 0.930 . S
C36 H33 0.929 . S
C36 C37 1.398 . S
C36 C38 1.396 . S
C37 C36 1.398 . S
C37 C41 1.407 . S
C38 C36 1.396 . S
C38 C39 1.394 . S
C39 H34 0.929 . S
C39 C38 1.394 . S
C39 C40 1.382 . S
C40 C39 1.382 . S
C40 C41 1.392 . S
C40 N42 1.420 . S
C41 H35 0.930 . S
C41 C37 1.407 . S
C41 C40 1.392 . S
N42 C40 1.420 . S
N42 C43 1.244 . S
C43 N42 1.244 . S
H44 C47 0.929 . S
H45 C50 0.929 . S
H46 C52 0.930 . S
C47 H44 0.929 . S
C47 C48 1.398 1_554 S
C47 C49 1.396 . S
C48 C47 1.398 1_556 S
C48 C52 1.407 . S
C49 C47 1.396 . S
C49 C50 1.394 . S
C50 H45 0.929 . S
C50 C49 1.394 . S
C50 C51 1.382 . S
C51 C50 1.382 . S
C51 C52 1.392 1_554 S
C51 N53 1.420 . S
C52 H46 0.930 . S
C52 C48 1.407 . S
C52 C51 1.392 1_556 S
N53 C51 1.420 . S
N53 C54 1.244 . S
C54 N53 1.244 . S
H55 C58 0.943 . S
H56 C61 0.929 . S
H57 C63 0.930 . S
C58 H55 0.943 . S
C58 C59 1.398 1_554 S
C58 C60 1.396 . S
C59 C58 1.398 1_556 S
C59 C63 1.407 . S
C60 C58 1.396 . S
C60 C61 1.394 . S
C61 H56 0.929 . S
C61 C60 1.394 . S
C61 C62 1.382 . S
C62 C61 1.382 . S
C62 C63 1.392 1_554 S
C62 N64 1.420 . S
C63 H57 0.930 . S
C63 C59 1.407 . S
C63 C62 1.392 1_556 S
N64 C62 1.420 . S
N64 C65 1.244 . S
C65 N64 1.244 . S
H66 C69 0.940 . S
H67 C72 0.929 . S
H68 C74 0.930 . S
C69 H66 0.940 . S
C69 C70 1.398 1_554 S
C69 C71 1.396 . S
C70 C69 1.398 1_556 S
C70 C74 1.407 . S
C71 C69 1.396 . S
C71 C72 1.394 . S
C72 H67 0.929 . S
C72 C71 1.394 . S
C72 C73 1.382 . S
C73 C72 1.382 . S
C73 C74 1.392 1_554 S
C73 N75 1.420 . S
C74 H68 0.930 . S
C74 C70 1.407 . S
C74 C73 1.392 1_556 S
N75 C73 1.420 . S
N75 C76 1.244 . S
C76 N75 1.244 . S
H77 C80 0.929 . S
H78 C83 0.929 . S
H79 C85 0.930 . S
C80 H77 0.929 . S
C80 C81 1.398 1_554 S
C80 C82 1.396 . S
C81 C80 1.398 1_556 S
C81 C85 1.407 . S
C82 C80 1.396 . S
C82 C83 1.394 . S
C83 H78 0.929 . S
C83 C82 1.394 . S
C83 C84 1.382 . S
C84 C83 1.382 . S
C84 C85 1.392 1_554 S
C84 N86 1.420 . S
C85 H79 0.930 . S
C85 C81 1.407 . S
C85 C84 1.392 1_556 S
N86 C84 1.420 . S
N86 C87 1.244 . S
C87 N86 1.244 . S
Ho88 C91 2.811 . S
Ho88 O108 2.322 . S
Ho88 O110 2.378 . S
Ho88 O111 2.548 . S
Ho88 O112 2.381 . S
Ho88 O113 2.669 1_565 S
Ho88 O115 2.346 1_565 S
Ho88 O119 2.305 1_455 S
Ho89 C100 2.811 . S
Ho89 O109 2.346 1_545 S
Ho89 O113 2.305 1_655 S
Ho89 O114 2.322 . S
Ho89 O116 2.378 . S
Ho89 O117 2.524 1_655 S
Ho89 O118 2.381 . S
Ho89 O119 2.669 1_545 S
C90 O108 1.259 1_655 S
C90 O109 1.268 . S
C91 Ho88 2.811 . S
C91 C92 1.488 . S
C91 O110 1.215 . S
C91 O111 1.342 . S
C92 C91 1.488 . S
C92 C93 1.348 . S
C92 C97 1.413 . S
C93 C92 1.348 . S
C93 C94 1.442 . S
C93 H120 0.930 1_455 S
C94 C93 1.442 . S
C94 C95 1.381 . S
C94 H121 0.931 1_455 S
C95 C94 1.381 . S
C95 C96 1.321 . S
C96 C95 1.321 . S
C96 C97 1.403 . S
C96 H122 0.934 . S
C97 C92 1.413 . S
C97 C96 1.403 . S
C97 H123 0.930 . S
C98 O112 1.275 1_545 S
C98 O113 1.256 . S
C99 O114 1.259 1_455 S
C99 O115 1.268 . S
C100 Ho89 2.811 . S
C100 C101 1.488 . S
C100 O116 1.215 . S
C100 O117 1.289 1_655 S
C101 C100 1.488 . S
C101 C102 1.324 1_655 S
C101 C106 1.413 . S
C102 C101 1.324 1_455 S
C102 C103 1.439 1_455 S
C102 H124 0.958 . S
C103 C102 1.439 1_655 S
C103 C104 1.381 . S
C103 H125 0.931 1_655 S
C104 C103 1.381 . S
C104 C105 1.321 . S
C105 C104 1.321 . S
C105 C106 1.403 . S
C105 H126 0.934 . S
C106 C101 1.413 . S
C106 C105 1.403 . S
C106 H127 0.930 . S
C107 O118 1.275 . S
C107 O119 1.256 1_545 S
O108 Ho88 2.322 . S
O108 C90 1.259 1_455 S
O109 Ho89 2.346 1_565 S
O109 C90 1.268 . S
O110 Ho88 2.378 . S
O110 C91 1.215 . S
O111 Ho88 2.548 . S
O111 C91 1.342 . S
O112 Ho88 2.381 . S
O112 C98 1.275 1_565 S
O113 Ho88 2.669 1_545 S
O113 Ho89 2.305 1_455 S
O113 C98 1.256 . S
O114 Ho89 2.322 . S
O114 C99 1.259 1_655 S
O115 Ho88 2.346 1_545 S
O115 C99 1.268 . S
O116 Ho89 2.378 . S
O116 C100 1.215 . S
O117 Ho89 2.524 1_455 S
O117 C100 1.289 1_455 S
O118 Ho89 2.381 . S
O118 C107 1.275 . S
O119 Ho88 2.305 1_655 S
O119 Ho89 2.669 1_565 S
O119 C107 1.256 1_565 S
H120 C93 0.930 1_655 S
H121 C94 0.931 1_655 S
H122 C96 0.934 . S
H123 C97 0.930 . S
H124 C102 0.958 . S
H125 C103 0.931 1_455 S
H126 C105 0.934 . S
H127 C106 0.930 . S
Ho128 C131 2.811 . S
Ho128 O148 2.322 . S
Ho128 O150 2.378 . S
Ho128 O151 2.545 . S
Ho128 O152 2.381 . S
Ho128 O153 2.669 . S
Ho128 O155 2.346 . S
Ho128 O159 2.305 1_545 S
Ho129 C140 2.811 . S
Ho129 O149 2.346 . S
Ho129 O153 2.305 1_565 S
Ho129 O154 2.322 . S
Ho129 O156 2.378 . S
Ho129 O157 2.524 1_565 S
Ho129 O158 2.381 . S
Ho129 O159 2.669 . S
C130 O148 1.259 1_565 S
C130 O149 1.268 . S
C131 Ho128 2.811 . S
C131 C132 1.488 . S
C131 O150 1.215 . S
C131 O151 1.334 . S
C132 C131 1.488 . S
C132 C133 1.348 . S
C132 C137 1.413 . S
C133 C132 1.348 . S
C133 C134 1.442 . S
C133 H160 0.930 1_545 S
C134 C133 1.442 . S
C134 C135 1.381 . S
C134 H161 0.931 1_545 S
C135 C134 1.381 . S
C135 C136 1.321 . S
C136 C135 1.321 . S
C136 C137 1.403 . S
C136 H162 0.934 . S
C137 C132 1.413 . S
C137 C136 1.403 . S
C137 H163 0.930 . S
C138 O152 1.275 . S
C138 O153 1.256 . S
C139 O154 1.259 1_545 S
C139 O155 1.268 . S
C140 Ho129 2.811 . S
C140 C141 1.488 . S
C140 O156 1.215 . S
C140 O157 1.289 1_565 S
C141 C140 1.488 . S
C141 C142 1.331 1_565 S
C141 C146 1.413 . S
C142 C141 1.331 1_545 S
C142 C143 1.439 1_545 S
C142 H164 0.950 . S
C143 C142 1.439 1_565 S
C143 C144 1.381 . S
C143 H165 0.931 1_565 S
C144 C143 1.381 . S
C144 C145 1.321 . S
C145 C144 1.321 . S
C145 C146 1.403 . S
C145 H166 0.934 . S
C146 C141 1.413 . S
C146 C145 1.403 . S
C146 H167 0.930 . S
C147 O158 1.275 . S
C147 O159 1.256 . S
O148 Ho128 2.322 . S
O148 C130 1.259 1_545 S
O149 Ho129 2.346 . S
O149 C130 1.268 . S
O150 Ho128 2.378 . S
O150 C131 1.215 . S
O151 Ho128 2.545 . S
O151 C131 1.334 . S
O152 Ho128 2.381 . S
O152 C138 1.275 . S
O153 Ho128 2.669 . S
O153 Ho129 2.305 1_545 S
O153 C138 1.256 . S
O154 Ho129 2.322 . S
O154 C139 1.259 1_565 S
O155 Ho128 2.346 . S
O155 C139 1.268 . S
O156 Ho129 2.378 . S
O156 C140 1.215 . S
O157 Ho129 2.524 1_545 S
O157 C140 1.289 1_545 S
O158 Ho129 2.381 . S
O158 C147 1.275 . S
O159 Ho128 2.305 1_565 S
O159 Ho129 2.669 . S
O159 C147 1.256 . S
H160 C133 0.930 1_565 S
H161 C134 0.931 1_565 S
H162 C136 0.934 . S
H163 C137 0.930 . S
H164 C142 0.950 . S
H165 C143 0.931 1_545 S
H166 C145 0.934 . S
H167 C146 0.930 . S
Ho168 C171 2.811 . S
Ho168 O188 2.322 . S
Ho168 O190 2.378 . S
Ho168 O191 2.524 . S
Ho168 O192 2.381 . S
Ho168 O193 2.669 . S
Ho168 O195 2.346 . S
Ho168 O199 2.305 . S
Ho169 C180 2.811 . S
Ho169 O189 2.346 . S
Ho169 O193 2.305 . S
Ho169 O194 2.322 . S
Ho169 O196 2.378 . S
Ho169 O197 2.524 . S
Ho169 O198 2.381 . S
Ho169 O199 2.669 . S
C170 O188 1.259 . S
C170 O189 1.268 . S
C171 Ho168 2.811 . S
C171 C172 1.488 . S
C171 O190 1.215 . S
C171 O191 1.289 . S
C172 C171 1.488 . S
C172 C173 1.348 . S
C172 C177 1.413 . S
C173 C172 1.348 . S
C173 C174 1.442 . S
C173 H200 0.930 . S
C174 C173 1.442 . S
C174 C175 1.381 . S
C174 H201 0.931 . S
C175 C174 1.381 . S
C175 C176 1.321 . S
C176 C175 1.321 . S
C176 C177 1.403 . S
C176 H202 0.934 . S
C177 C172 1.413 . S
C177 C176 1.403 . S
C177 H203 0.930 . S
C178 O192 1.275 . S
C178 O193 1.256 . S
C179 O194 1.259 . S
C179 O195 1.268 . S
C180 Ho169 2.811 . S
C180 C181 1.488 . S
C180 O196 1.215 . S
C180 O197 1.289 . S
C181 C180 1.488 . S
C181 C182 1.348 . S
C181 C186 1.413 . S
C182 C181 1.348 . S
C182 C183 1.442 . S
C182 H204 0.930 . S
C183 C182 1.442 . S
C183 C184 1.381 . S
C183 H205 0.931 . S
C184 C183 1.381 . S
C184 C185 1.321 . S
C185 C184 1.321 . S
C185 C186 1.403 . S
C185 H206 0.934 . S
C186 C181 1.413 . S
C186 C185 1.403 . S
C186 H207 0.930 . S
C187 O198 1.275 . S
C187 O199 1.256 . S
O188 Ho168 2.322 . S
O188 C170 1.259 . S
O189 Ho169 2.346 . S
O189 C170 1.268 . S
O190 Ho168 2.378 . S
O190 C171 1.215 . S
O191 Ho168 2.524 . S
O191 C171 1.289 . S
O192 Ho168 2.381 . S
O192 C178 1.275 . S
O193 Ho168 2.669 . S
O193 Ho169 2.305 . S
O193 C178 1.256 . S
O194 Ho169 2.322 . S
O194 C179 1.259 . S
O195 Ho168 2.346 . S
O195 C179 1.268 . S
O196 Ho169 2.378 . S
O196 C180 1.215 . S
O197 Ho169 2.524 . S
O197 C180 1.289 . S
O198 Ho169 2.381 . S
O198 C187 1.275 . S
O199 Ho168 2.305 . S
O199 Ho169 2.669 . S
O199 C187 1.256 . S
H200 C173 0.930 . S
H201 C174 0.931 . S
H202 C176 0.934 . S
H203 C177 0.930 . S
H204 C182 0.930 . S
H205 C183 0.931 . S
H206 C185 0.934 . S
H207 C186 0.930 . S
Ho208 C211 2.811 . S
Ho208 O228 2.322 . S
Ho208 O230 2.378 . S
Ho208 O231 2.524 . S
Ho208 O232 2.381 . S
Ho208 O233 2.669 1_655 S
Ho208 O235 2.346 1_655 S
Ho208 O239 2.305 . S
Ho209 C220 2.811 . S
Ho209 O229 2.346 1_455 S
Ho209 O233 2.305 . S
Ho209 O234 2.322 . S
Ho209 O236 2.378 . S
Ho209 O237 2.524 . S
Ho209 O238 2.381 . S
Ho209 O239 2.669 1_455 S
C210 O228 1.259 . S
C210 O229 1.268 . S
C211 Ho208 2.811 . S
C211 C212 1.488 . S
C211 O230 1.215 . S
C211 O231 1.289 . S
C212 C211 1.488 . S
C212 C213 1.348 . S
C212 C217 1.413 . S
C213 C212 1.348 . S
C213 C214 1.442 . S
C213 H240 0.930 . S
C214 C213 1.442 . S
C214 C215 1.381 . S
C214 H241 0.931 . S
C215 C214 1.381 . S
C215 C216 1.321 . S
C216 C215 1.321 . S
C216 C217 1.403 . S
C216 H242 0.934 . S
C217 C212 1.413 . S
C217 C216 1.403 . S
C217 H243 0.930 . S
C218 O232 1.275 1_455 S
C218 O233 1.256 . S
C219 O234 1.259 . S
C219 O235 1.268 . S
C220 Ho209 2.811 . S
C220 C221 1.488 . S
C220 O236 1.215 . S
C220 O237 1.289 . S
C221 C220 1.488 . S
C221 C222 1.348 . S
C221 C226 1.413 . S
C222 C221 1.348 . S
C222 C223 1.442 . S
C222 H244 0.930 . S
C223 C222 1.442 . S
C223 C224 1.381 . S
C223 H245 0.931 . S
C224 C223 1.381 . S
C224 C225 1.321 . S
C225 C224 1.321 . S
C225 C226 1.403 . S
C225 H246 0.934 . S
C226 C221 1.413 . S
C226 C225 1.403 . S
C226 H247 0.930 . S
C227 O238 1.275 . S
C227 O239 1.256 1_455 S
O228 Ho208 2.322 . S
O228 C210 1.259 . S
O229 Ho209 2.346 1_655 S
O229 C210 1.268 . S
O230 Ho208 2.378 . S
O230 C211 1.215 . S
O231 Ho208 2.524 . S
O231 C211 1.289 . S
O232 Ho208 2.381 . S
O232 C218 1.275 1_655 S
O233 Ho208 2.669 1_455 S
O233 Ho209 2.305 . S
O233 C218 1.256 . S
O234 Ho209 2.322 . S
O234 C219 1.259 . S
O235 Ho208 2.346 1_455 S
O235 C219 1.268 . S
O236 Ho209 2.378 . S
O236 C220 1.215 . S
O237 Ho209 2.524 . S
O237 C220 1.289 . S
O238 Ho209 2.381 . S
O238 C227 1.275 . S
O239 Ho208 2.305 . S
O239 Ho209 2.669 1_655 S
O239 C227 1.256 1_655 S
H240 C213 0.930 . S
H241 C214 0.931 . S
H242 C216 0.934 . S
H243 C217 0.930 . S
H244 C222 0.930 . S
H245 C223 0.931 . S
H246 C225 0.934 . S
H247 C226 0.930 . S
H248 C256 0.929 . S
H249 C258 0.930 . S
H250 C260 0.930 . S
H251 C263 0.929 . S
H252 C266 0.930 . S
H253 C268 0.960 . S
H254 C268 0.960 . S
H255 C268 0.960 1_565 S
C256 H248 0.929 . S
C256 C257 1.377 . S
C256 C258 1.384 . S
C257 C256 1.377 . S
C257 C263 1.390 1_545 S
C258 H249 0.930 . S
C258 C256 1.384 . S
C258 C259 1.372 . S
C259 C258 1.372 . S
C259 C260 1.400 1_545 S
C259 C264 1.490 . S
C260 H250 0.930 . S
C260 C259 1.400 1_565 S
C260 C263 1.386 . S
H261 C277 0.930 . S
H262 C278 0.931 . S
C263 H251 0.929 . S
C263 C257 1.390 1_565 S
C263 C260 1.386 . S
C264 C259 1.490 . S
C264 C266 1.395 . S
C264 C267 1.403 . S
H265 C271 0.930 . S
C266 H252 0.930 . S
C266 C264 1.395 . S
C266 C269 1.403 . S
C267 C264 1.403 . S
C267 C268 1.524 . S
C267 C271 1.400 . S
C268 H253 0.960 . S
C268 H254 0.960 . S
C268 H255 0.960 1_545 S
C268 C267 1.524 . S
C269 C266 1.403 . S
C269 C270 1.392 . S
C269 C273 1.495 . S
C270 C269 1.392 . S
C270 C271 1.385 . S
C270 C272 1.478 . S
C271 H265 0.930 . S
C271 C267 1.400 . S
C271 C270 1.385 . S
C272 C270 1.478 . S
C272 C274 1.381 . S
C272 C278 1.383 1_545 S
C273 C269 1.495 . S
C273 H279 0.959 . S
C273 H280 0.961 1_545 S
C273 H281 0.960 . S
C274 C272 1.381 . S
C274 C275 1.394 . S
C274 H282 0.930 . S
C275 C274 1.394 . S
C275 C276 1.383 . S
C275 H283 0.929 . S
C276 C275 1.383 . S
C276 C277 1.377 1_545 S
C277 H261 0.930 . S
C277 C276 1.377 1_565 S
C277 C278 1.379 . S
C278 H262 0.931 . S
C278 C272 1.383 1_565 S
C278 C277 1.379 . S
H279 C273 0.959 . S
H280 C273 0.961 1_565 S
H281 C273 0.960 . S
H282 C274 0.930 . S
H283 C275 0.929 . S
H284 C292 0.929 . S
H285 C294 0.930 . S
H286 C296 0.930 . S
H287 C299 0.929 . S
H288 C302 0.930 . S
H289 C304 0.960 . S
H290 C304 0.960 . S
H291 C304 0.960 . S
C292 H284 0.929 . S
C292 C293 1.377 . S
C292 C294 1.384 . S
C293 C292 1.377 . S
C293 C299 1.390 . S
C294 H285 0.930 . S
C294 C292 1.384 . S
C294 C295 1.372 . S
C295 C294 1.372 . S
C295 C296 1.400 . S
C295 C300 1.490 . S
C296 H286 0.930 . S
C296 C295 1.400 . S
C296 C299 1.386 . S
H297 C313 0.930 . S
H298 C314 0.931 . S
C299 H287 0.929 . S
C299 C293 1.390 . S
C299 C296 1.386 . S
C300 C295 1.490 . S
C300 C302 1.395 . S
C300 C303 1.403 . S
H301 C307 0.930 . S
C302 H288 0.930 . S
C302 C300 1.395 . S
C302 C305 1.403 . S
C303 C300 1.403 . S
C303 C304 1.524 . S
C303 C307 1.400 . S
C304 H289 0.960 . S
C304 H290 0.960 . S
C304 H291 0.960 . S
C304 C303 1.524 . S
C305 C302 1.403 . S
C305 C306 1.392 . S
C305 C309 1.495 . S
C306 C305 1.392 . S
C306 C307 1.385 . S
C306 C308 1.478 . S
C307 H301 0.930 . S
C307 C303 1.400 . S
C307 C306 1.385 . S
C308 C306 1.478 . S
C308 C310 1.381 . S
C308 C314 1.383 . S
C309 C305 1.495 . S
C309 H315 0.959 . S
C309 H316 0.961 . S
C309 H317 0.960 . S
C310 C308 1.381 . S
C310 C311 1.394 . S
C310 H318 0.930 . S
C311 C310 1.394 . S
C311 C312 1.383 . S
C311 H319 0.929 . S
C312 C311 1.383 . S
C312 C313 1.377 . S
C313 H297 0.930 . S
C313 C312 1.377 . S
C313 C314 1.379 . S
C314 H298 0.931 . S
C314 C308 1.383 . S
C314 C313 1.379 . S
H315 C309 0.959 . S
H316 C309 0.961 . S
H317 C309 0.960 . S
H318 C310 0.930 . S
H319 C311 0.929 . S
H320 C328 0.929 . S
H321 C330 0.930 . S
H322 C332 0.930 . S
H323 C335 0.929 . S
H324 C338 0.930 . S
H325 C340 0.960 . S
H326 C340 0.960 . S
H327 C340 0.960 . S
C328 H320 0.929 . S
C328 C329 1.377 . S
C328 C330 1.384 . S
C329 C328 1.377 . S
C329 C335 1.390 . S
C330 H321 0.930 . S
C330 C328 1.384 . S
C330 C331 1.372 . S
C331 C330 1.372 . S
C331 C332 1.400 . S
C331 C336 1.490 . S
C332 H322 0.930 . S
C332 C331 1.400 . S
C332 C335 1.386 . S
H333 C349 0.930 . S
H334 C350 0.931 . S
C335 H323 0.929 . S
C335 C329 1.390 . S
C335 C332 1.386 . S
C336 C331 1.490 . S
C336 C338 1.395 . S
C336 C339 1.403 . S
H337 C343 0.930 . S
C338 H324 0.930 . S
C338 C336 1.395 . S
C338 C341 1.403 . S
C339 C336 1.403 . S
C339 C340 1.524 . S
C339 C343 1.400 . S
C340 H325 0.960 . S
C340 H326 0.960 . S
C340 H327 0.960 . S
C340 C339 1.524 . S
C341 C338 1.403 . S
C341 C342 1.392 . S
C341 C345 1.495 . S
C342 C341 1.392 . S
C342 C343 1.385 . S
C342 C344 1.478 . S
C343 H337 0.930 . S
C343 C339 1.400 . S
C343 C342 1.385 . S
C344 C342 1.478 . S
C344 C346 1.381 . S
C344 C350 1.383 . S
C345 C341 1.495 . S
C345 H351 0.959 . S
C345 H352 0.961 . S
C345 H353 0.960 . S
C346 C344 1.381 . S
C346 C347 1.394 . S
C346 H354 0.930 . S
C347 C346 1.394 . S
C347 C348 1.383 . S
C347 H355 0.929 . S
C348 C347 1.383 . S
C348 C349 1.377 . S
C349 H333 0.930 . S
C349 C348 1.377 . S
C349 C350 1.379 . S
C350 H334 0.931 . S
C350 C344 1.383 . S
C350 C349 1.379 . S
H351 C345 0.959 . S
H352 C345 0.961 . S
H353 C345 0.960 . S
H354 C346 0.930 . S
H355 C347 0.929 . S
H356 C364 0.929 . S
H357 C366 0.930 . S
H358 C368 0.945 . S
H359 C371 0.951 . S
H360 C374 0.930 . S
H361 C376 0.960 . S
H362 C376 0.960 . S
H363 C376 0.960 . S
C364 H356 0.929 . S
C364 C365 1.377 . S
C364 C366 1.384 . S
C365 C364 1.377 . S
C365 C371 1.372 1_455 S
C366 H357 0.930 . S
C366 C364 1.384 . S
C366 C367 1.372 . S
C367 C366 1.372 . S
C367 C368 1.386 1_455 S
C367 C372 1.490 . S
C368 H358 0.945 . S
C368 C367 1.386 1_655 S
C368 C371 1.386 . S
H369 C385 0.930 . S
H370 C386 0.931 . S
C371 H359 0.951 . S
C371 C365 1.372 1_655 S
C371 C368 1.386 . S
C372 C367 1.490 . S
C372 C374 1.395 1_455 S
C372 C375 1.403 . S
H373 C379 0.930 . S
C374 H360 0.930 . S
C374 C372 1.395 1_655 S
C374 C377 1.403 . S
C375 C372 1.403 . S
C375 C376 1.524 . S
C375 C379 1.400 . S
C376 H361 0.960 . S
C376 H362 0.960 . S
C376 H363 0.960 . S
C376 C375 1.524 . S
C377 C374 1.403 . S
C377 C378 1.392 1_655 S
C377 C381 1.495 . S
C378 C377 1.392 1_455 S
C378 C379 1.385 . S
C378 C380 1.478 . S
C379 H373 0.930 . S
C379 C375 1.400 . S
C379 C378 1.385 . S
C380 C378 1.478 . S
C380 C382 1.381 . S
C380 C386 1.383 1_455 S
C381 C377 1.495 . S
C381 H387 0.959 . S
C381 H388 0.961 . S
C381 H389 0.960 . S
C382 C380 1.381 . S
C382 C383 1.394 . S
C382 H390 0.930 . S
C383 C382 1.394 . S
C383 C384 1.383 . S
C383 H391 0.929 . S
C384 C383 1.383 . S
C384 C385 1.377 1_455 S
C385 H369 0.930 . S
C385 C384 1.377 1_655 S
C385 C386 1.379 . S
C386 H370 0.931 . S
C386 C380 1.383 1_655 S
C386 C385 1.379 . S
H387 C381 0.959 . S
H388 C381 0.961 . S
H389 C381 0.960 . S
H390 C382 0.930 . S
H391 C383 0.929 . S
H392 C400 0.929 . S
H393 C402 0.930 . S
H394 C404 0.930 . S
H395 C407 0.929 . S
H396 C410 0.930 . S
H397 C412 0.960 . S
H398 C412 0.960 . S
H399 C412 0.960 . S
C400 H392 0.929 . S
C400 C401 1.400 . S
C400 C402 1.384 . S
C401 C400 1.400 . S
C401 C407 1.369 1_565 S
C402 H393 0.930 . S
C402 C400 1.384 . S
C402 C403 1.406 . S
C403 C402 1.406 . S
C403 C404 1.367 1_565 S
C403 C408 1.490 . S
C404 H394 0.930 . S
C404 C403 1.367 1_545 S
C404 C407 1.386 . S
H405 C421 0.930 . S
H406 C422 0.931 . S
C407 H395 0.929 . S
C407 C401 1.369 1_545 S
C407 C404 1.386 . S
C408 C403 1.490 . S
C408 C410 1.384 1_565 S
C408 C411 1.413 . S
H409 C415 0.930 . S
C410 H396 0.930 . S
C410 C408 1.384 1_545 S
C410 C413 1.403 1_554 S
C411 C408 1.413 . S
C411 C412 1.524 . S
C411 C415 1.400 . S
C412 H397 0.960 . S
C412 H398 0.960 . S
C412 H399 0.960 . S
C412 C411 1.524 . S
C413 C410 1.403 1_556 S
C413 C414 1.392 . S
C413 C417 1.495 . S
C414 C413 1.392 . S
C414 C415 1.385 1_546 S
C414 C416 1.478 . S
C415 H409 0.930 . S
C415 C411 1.400 . S
C415 C414 1.385 1_564 S
C416 C414 1.478 . S
C416 C418 1.381 1_545 S
C416 C422 1.383 . S
C417 C413 1.495 . S
C417 H423 0.959 . S
C417 H424 0.961 . S
C417 H425 0.960 . S
C418 C416 1.381 1_565 S
C418 C419 1.394 . S
C418 H426 0.930 . S
C419 C418 1.394 . S
C419 C420 1.383 1_565 S
C419 H427 0.929 . S
C420 C419 1.383 1_545 S
C420 C421 1.377 . S
C421 H405 0.930 . S
C421 C420 1.377 . S
C421 C422 1.379 . S
C422 H406 0.931 . S
C422 C416 1.383 . S
C422 C421 1.379 . S
H423 C417 0.959 . S
H424 C417 0.961 . S
H425 C417 0.960 . S
H426 C418 0.930 . S
H427 C419 0.929 . S
H428 C436 0.929 . S
H429 C438 0.930 . S
H430 C440 0.930 . S
H431 C443 0.929 . S
H432 C446 0.930 . S
H433 C448 0.960 1_556 S
H434 C448 0.960 1_556 S
H435 C448 0.960 . S
C436 H428 0.929 . S
C436 C437 1.377 . S
C436 C438 1.384 . S
C437 C436 1.377 . S
C437 C443 1.390 . S
C438 H429 0.930 . S
C438 C436 1.384 . S
C438 C439 1.372 . S
C439 C438 1.372 . S
C439 C440 1.400 . S
C439 C444 1.490 . S
C440 H430 0.930 . S
C440 C439 1.400 . S
C440 C443 1.386 . S
H441 C457 0.930 . S
H442 C458 0.931 . S
C443 H431 0.929 . S
C443 C437 1.390 . S
C443 C440 1.386 . S
C444 C439 1.490 . S
C444 C446 1.395 . S
C444 C447 1.403 . S
H445 C451 0.930 . S
C446 H432 0.930 . S
C446 C444 1.395 . S
C446 C449 1.403 . S
C447 C444 1.403 . S
C447 C448 1.524 . S
C447 C451 1.400 1_554 S
C448 H433 0.960 1_554 S
C448 H434 0.960 1_554 S
C448 H435 0.960 . S
C448 C447 1.524 . S
C449 C446 1.403 . S
C449 C450 1.395 . S
C449 C453 1.495 . S
C450 C449 1.395 . S
C450 C451 1.384 1_554 S
C450 C452 1.476 1_554 S
C451 H445 0.930 . S
C451 C447 1.400 1_556 S
C451 C450 1.384 1_556 S
C452 C450 1.476 1_556 S
C452 C454 1.381 . S
C452 C458 1.383 . S
C453 C449 1.495 . S
C453 H459 0.959 . S
C453 H460 0.961 . S
C453 H461 0.960 . S
C454 C452 1.381 . S
C454 C455 1.394 . S
C454 H462 0.930 . S
C455 C454 1.394 . S
C455 C456 1.383 . S
C455 H463 0.929 . S
C456 C455 1.383 . S
C456 C457 1.377 . S
C457 H441 0.930 . S
C457 C456 1.377 . S
C457 C458 1.379 . S
C458 H442 0.931 . S
C458 C452 1.383 . S
C458 C457 1.379 . S
H459 C453 0.959 . S
H460 C453 0.961 . S
H461 C453 0.960 . S
H462 C454 0.930 . S
H463 C455 0.929 . S
H464 C472 0.929 . S
H465 C474 0.930 . S
H466 C476 0.930 . S
H467 C479 0.929 . S
H468 C482 0.930 . S
H469 C484 0.960 . S
H470 C484 0.960 1_554 S
H471 C484 0.960 1_554 S
C472 H464 0.929 . S
C472 C473 1.377 . S
C472 C474 1.384 . S
C473 C472 1.377 . S
C473 C479 1.390 . S
C474 H465 0.930 . S
C474 C472 1.384 . S
C474 C475 1.372 . S
C475 C474 1.372 . S
C475 C476 1.400 . S
C475 C480 1.490 . S
C476 H466 0.930 . S
C476 C475 1.400 . S
C476 C479 1.386 . S
H477 C493 0.930 . S
H478 C494 0.931 . S
C479 H467 0.929 . S
C479 C473 1.390 . S
C479 C476 1.386 . S
C480 C475 1.490 . S
C480 C482 1.395 . S
C480 C483 1.403 . S
H481 C487 0.930 . S
C482 H468 0.930 . S
C482 C480 1.395 . S
C482 C485 1.403 . S
C483 C480 1.403 . S
C483 C484 1.524 1_554 S
C483 C487 1.400 1_554 S
C484 H469 0.960 . S
C484 H470 0.960 1_556 S
C484 H471 0.960 1_556 S
C484 C483 1.524 1_556 S
C485 C482 1.403 . S
C485 C486 1.392 . S
C485 C489 1.495 . S
C486 C485 1.392 . S
C486 C487 1.385 1_554 S
C486 C488 1.478 1_554 S
C487 H481 0.930 . S
C487 C483 1.400 1_556 S
C487 C486 1.385 1_556 S
C488 C486 1.478 1_556 S
C488 C490 1.381 . S
C488 C494 1.383 . S
C489 C485 1.495 . S
C489 H495 0.959 . S
C489 H496 0.961 . S
C489 H497 0.960 . S
C490 C488 1.381 . S
C490 C491 1.394 . S
C490 H498 0.930 . S
C491 C490 1.394 . S
C491 C492 1.383 . S
C491 H499 0.929 . S
C492 C491 1.383 . S
C492 C493 1.377 . S
C493 H477 0.930 . S
C493 C492 1.377 . S
C493 C494 1.379 . S
C494 H478 0.931 . S
C494 C488 1.383 . S
C494 C493 1.379 . S
H495 C489 0.959 . S
H496 C489 0.961 . S
H497 C489 0.960 . S
H498 C490 0.930 . S
H499 C491 0.929 . S
H500 C508 0.929 . S
H501 C510 0.930 . S
H502 C512 0.930 . S
H503 C515 0.929 . S
H504 C518 0.930 . S
H505 C520 0.960 . S
H506 C520 0.960 . S
H507 C520 0.960 . S
C508 H500 0.929 . S
C508 C509 1.372 1_455 S
C508 C510 1.384 . S
C509 C508 1.372 1_655 S
C509 C515 1.395 . S
C510 H501 0.930 . S
C510 C508 1.384 . S
C510 C511 1.396 . S
C511 C510 1.396 . S
C511 C512 1.375 1_455 S
C511 C516 1.492 . S
C512 H502 0.930 . S
C512 C511 1.375 1_655 S
C512 C515 1.386 . S
H513 C529 0.930 . S
H514 C530 0.931 . S
C515 H503 0.929 . S
C515 C509 1.395 . S
C515 C512 1.386 . S
C516 C511 1.492 . S
C516 C518 1.395 . S
C516 C519 1.403 1_455 S
H517 C523 0.930 1_556 S
C518 H504 0.930 . S
C518 C516 1.395 . S
C518 C521 1.403 . S
C519 C516 1.403 1_655 S
C519 C520 1.524 . S
C519 C523 1.400 . S
C520 H505 0.960 . S
C520 H506 0.960 . S
C520 H507 0.960 . S
C520 C519 1.524 . S
C521 C518 1.403 . S
C521 C522 1.392 1_554 S
C521 C525 1.495 . S
C522 C521 1.392 1_556 S
C522 C523 1.385 1_456 S
C522 C524 1.478 . S
C523 H517 0.930 1_554 S
C523 C519 1.400 . S
C523 C522 1.385 1_654 S
C524 C522 1.478 . S
C524 C526 1.381 . S
C524 C530 1.383 1_455 S
C525 C521 1.495 . S
C525 H531 0.959 . S
C525 H532 0.961 . S
C525 H533 0.960 1_554 S
C526 C524 1.381 . S
C526 C527 1.394 . S
C526 H534 0.930 . S
C527 C526 1.394 . S
C527 C528 1.383 . S
C527 H535 0.929 . S
C528 C527 1.383 . S
C528 C529 1.377 1_455 S
C529 H513 0.930 . S
C529 C528 1.377 1_655 S
C529 C530 1.379 . S
C530 H514 0.931 . S
C530 C524 1.383 1_655 S
C530 C529 1.379 . S
H531 C525 0.959 . S
H532 C525 0.961 . S
H533 C525 0.960 1_556 S
H534 C526 0.930 . S
H535 C527 0.929 . S
H536 C544 0.929 . S
H537 C546 0.930 . S
H538 C548 0.930 . S
H539 C551 0.929 . S
H540 C554 0.930 . S
H541 C556 0.960 . S
H542 C556 0.960 . S
H543 C556 0.960 . S
C544 H536 0.929 . S
C544 C545 1.377 . S
C544 C546 1.384 . S
C545 C544 1.377 . S
C545 C551 1.390 1_455 S
C546 H537 0.930 . S
C546 C544 1.384 . S
C546 C547 1.359 1_455 S
C547 C546 1.359 1_655 S
C547 C548 1.410 . S
C547 C552 1.493 . S
C548 H538 0.930 . S
C548 C547 1.410 . S
C548 C551 1.386 . S
H549 C565 0.930 . S
H550 C566 0.931 . S
C551 H539 0.929 . S
C551 C545 1.390 1_655 S
C551 C548 1.386 . S
C552 C547 1.493 . S
C552 C554 1.395 1_655 S
C552 C555 1.403 . S
H553 C559 0.930 . S
C554 H540 0.930 . S
C554 C552 1.395 1_455 S
C554 C557 1.403 . S
C555 C552 1.403 . S
C555 C556 1.524 . S
C555 C559 1.400 . S
C556 H541 0.960 . S
C556 H542 0.960 . S
C556 H543 0.960 . S
C556 C555 1.524 . S
C557 C554 1.403 . S
C557 C558 1.392 1_455 S
C557 C561 1.495 . S
C558 C557 1.392 1_655 S
C558 C559 1.385 . S
C558 C560 1.478 . S
C559 H553 0.930 . S
C559 C555 1.400 . S
C559 C558 1.385 . S
C560 C558 1.478 . S
C560 C562 1.381 . S
C560 C566 1.383 . S
C561 C557 1.495 . S
C561 H567 0.959 . S
C561 H568 0.961 . S
C561 H569 0.960 . S
C562 C560 1.381 . S
C562 C563 1.394 . S
C562 H570 0.930 1_655 S
C563 C562 1.394 . S
C563 C564 1.383 . S
C563 H571 0.929 . S
C564 C563 1.383 . S
C564 C565 1.377 . S
C565 H549 0.930 . S
C565 C564 1.377 . S
C565 C566 1.379 . S
C566 H550 0.931 . S
C566 C560 1.383 . S
C566 C565 1.379 . S
H567 C561 0.959 . S
H568 C561 0.961 . S
H569 C561 0.960 . S
H570 C562 0.930 1_455 S
H571 C563 0.929 . S
H572 C580 0.929 . S
H573 C582 0.930 . S
H574 C584 0.930 . S
H575 C587 0.929 . S
H576 C590 0.930 . S
H577 C592 0.960 . S
H578 C592 0.960 . S
H579 C592 0.960 . S
C580 H572 0.929 . S
C580 C581 1.377 . S
C580 C582 1.384 . S
C581 C580 1.377 . S
C581 C587 1.390 1_545 S
C582 H573 0.930 . S
C582 C580 1.384 . S
C582 C583 1.368 1_545 S
C583 C582 1.368 1_565 S
C583 C584 1.403 . S
C583 C588 1.491 . S
C584 H574 0.930 . S
C584 C583 1.403 . S
C584 C587 1.386 . S
H585 C601 0.930 . S
H586 C602 0.931 . S
C587 H575 0.929 . S
C587 C581 1.390 1_565 S
C587 C584 1.386 . S
C588 C583 1.491 . S
C588 C590 1.395 1_565 S
C588 C591 1.403 . S
H589 C595 0.930 . S
C590 H576 0.930 . S
C590 C588 1.395 1_545 S
C590 C593 1.403 . S
C591 C588 1.403 . S
C591 C592 1.524 . S
C591 C595 1.400 . S
C592 H577 0.960 . S
C592 H578 0.960 . S
C592 H579 0.960 . S
C592 C591 1.524 . S
C593 C590 1.403 . S
C593 C594 1.392 1_545 S
C593 C597 1.495 . S
C594 C593 1.392 1_565 S
C594 C595 1.385 . S
C594 C596 1.478 . S
C595 H589 0.930 . S
C595 C591 1.400 . S
C595 C594 1.385 . S
C596 C594 1.478 . S
C596 C598 1.367 1_565 S
C596 C602 1.383 . S
C597 C593 1.495 . S
C597 H603 0.959 . S
C597 H604 0.961 . S
C597 H605 0.960 . S
C598 C596 1.367 1_545 S
C598 C599 1.390 1_545 S
C598 H606 0.949 . S
C599 C598 1.390 1_565 S
C599 C600 1.383 . S
C599 H607 0.929 1_565 S
C600 C599 1.383 . S
C600 C601 1.377 . S
C601 H585 0.930 . S
C601 C600 1.377 . S
C601 C602 1.379 . S
C602 H586 0.931 . S
C602 C596 1.383 . S
C602 C601 1.379 . S
H603 C597 0.959 . S
H604 C597 0.961 . S
H605 C597 0.960 . S
H606 C598 0.949 . S
H607 C599 0.929 1_545 S
H608 C616 0.929 . S
H609 C618 0.930 . S
H610 C620 0.930 . S
H611 C623 0.929 . S
H612 C626 0.930 . S
H613 C628 0.960 . S
H614 C628 0.960 . S
H615 C628 0.960 . S
C616 H608 0.929 . S
C616 C617 1.377 . S
C616 C618 1.384 . S
C617 C616 1.377 . S
C617 C623 1.390 . S
C618 H609 0.930 . S
C618 C616 1.384 . S
C618 C619 1.372 . S
C619 C618 1.372 . S
C619 C620 1.400 . S
C619 C624 1.490 . S
C620 H610 0.930 . S
C620 C619 1.400 . S
C620 C623 1.386 . S
H621 C637 0.930 . S
H622 C638 0.931 . S
C623 H611 0.929 . S
C623 C617 1.390 . S
C623 C620 1.386 . S
C624 C619 1.490 . S
C624 C626 1.395 . S
C624 C627 1.403 . S
H625 C631 0.930 . S
C626 H612 0.930 . S
C626 C624 1.395 . S
C626 C629 1.403 . S
C627 C624 1.403 . S
C627 C628 1.524 . S
C627 C631 1.400 . S
C628 H613 0.960 . S
C628 H614 0.960 . S
C628 H615 0.960 . S
C628 C627 1.524 . S
C629 C626 1.403 . S
C629 C630 1.392 . S
C629 C633 1.495 . S
C630 C629 1.392 . S
C630 C631 1.385 . S
C630 C632 1.478 . S
C631 H625 0.930 . S
C631 C627 1.400 . S
C631 C630 1.385 . S
C632 C630 1.478 . S
C632 C634 1.381 . S
C632 C638 1.383 . S
C633 C629 1.495 . S
C633 H639 0.959 . S
C633 H640 0.961 . S
C633 H641 0.960 . S
C634 C632 1.381 . S
C634 C635 1.394 . S
C634 H642 0.930 . S
C635 C634 1.394 . S
C635 C636 1.383 . S
C635 H643 0.929 . S
C636 C635 1.383 . S
C636 C637 1.377 . S
C637 H621 0.930 . S
C637 C636 1.377 . S
C637 C638 1.379 . S
C638 H622 0.931 . S
C638 C632 1.383 . S
C638 C637 1.379 . S
H639 C633 0.959 . S
H640 C633 0.961 . S
H641 C633 0.960 . S
H642 C634 0.930 . S
H643 C635 0.929 . S
H644 C652 0.929 . S
H645 C654 0.930 . S
H646 C656 0.930 . S
H647 C659 0.929 . S
H648 C662 0.930 . S
H649 C664 0.960 . S
H650 C664 0.960 . S
H651 C664 0.960 . S
C652 H644 0.929 . S
C652 C653 1.377 . S
C652 C654 1.384 . S
C653 C652 1.377 . S
C653 C659 1.390 . S
C654 H645 0.930 . S
C654 C652 1.384 . S
C654 C655 1.372 . S
C655 C654 1.372 . S
C655 C656 1.400 . S
C655 C660 1.490 . S
C656 H646 0.930 . S
C656 C655 1.400 . S
C656 C659 1.386 . S
H657 C673 0.930 . S
H658 C674 0.931 . S
C659 H647 0.929 . S
C659 C653 1.390 . S
C659 C656 1.386 . S
C660 C655 1.490 . S
C660 C662 1.395 . S
C660 C663 1.403 . S
H661 C667 0.930 . S
C662 H648 0.930 . S
C662 C660 1.395 . S
C662 C665 1.403 . S
C663 C660 1.403 . S
C663 C664 1.524 . S
C663 C667 1.400 . S
C664 H649 0.960 . S
C664 H650 0.960 . S
C664 H651 0.960 . S
C664 C663 1.524 . S
C665 C662 1.403 . S
C665 C666 1.392 . S
C665 C669 1.495 . S
C666 C665 1.392 . S
C666 C667 1.385 . S
C666 C668 1.478 . S
C667 H661 0.930 . S
C667 C663 1.400 . S
C667 C666 1.385 . S
C668 C666 1.478 . S
C668 C670 1.381 . S
C668 C674 1.383 . S
C669 C665 1.495 . S
C669 H675 0.959 . S
C669 H676 0.961 . S
C669 H677 0.960 . S
C670 C668 1.381 . S
C670 C671 1.394 . S
C670 H678 0.930 . S
C671 C670 1.394 . S
C671 C672 1.383 . S
C671 H679 0.929 . S
C672 C671 1.383 . S
C672 C673 1.377 . S
C673 H657 0.930 . S
C673 C672 1.377 . S
C673 C674 1.379 . S
C674 H658 0.931 . S
C674 C668 1.383 . S
C674 C673 1.379 . S
H675 C669 0.959 . S
H676 C669 0.961 . S
H677 C669 0.960 . S
H678 C670 0.930 . S
H679 C671 0.929 . S
H680 C688 0.930 1_655 S
H681 C690 0.930 . S
H682 C692 0.930 . S
H683 C695 0.929 . S
H684 C698 0.930 . S
H685 C700 0.960 . S
H686 C700 0.960 . S
H687 C700 0.960 . S
C688 H680 0.930 1_455 S
C688 C689 1.378 1_455 S
C688 C690 1.383 . S
C689 C688 1.378 1_655 S
C689 C695 1.390 . S
C690 H681 0.930 . S
C690 C688 1.383 . S
C690 C691 1.372 . S
C691 C690 1.372 . S
C691 C692 1.400 . S
C691 C696 1.490 . S
C692 H682 0.930 . S
C692 C691 1.400 . S
C692 C695 1.386 1_455 S
H693 C709 0.930 . S
H694 C710 0.931 . S
C695 H683 0.929 . S
C695 C689 1.390 . S
C695 C692 1.386 1_655 S
C696 C691 1.490 . S
C696 C698 1.395 . S
C696 C699 1.403 1_455 S
H697 C703 0.930 1_655 S
C698 H684 0.930 . S
C698 C696 1.395 . S
C698 C701 1.403 . S
C699 C696 1.403 1_655 S
C699 C700 1.524 . S
C699 C703 1.400 1_655 S
C700 H685 0.960 . S
C700 H686 0.960 . S
C700 H687 0.960 . S
C700 C699 1.524 . S
C701 C698 1.403 . S
C701 C702 1.392 . S
C701 C705 1.495 . S
C702 C701 1.392 . S
C702 C703 1.385 . S
C702 C704 1.478 . S
C703 H697 0.930 1_455 S
C703 C699 1.400 1_455 S
C703 C702 1.385 . S
C704 C702 1.478 . S
C704 C706 1.381 . S
C704 C710 1.383 1_554 S
C705 C701 1.495 . S
C705 H711 0.959 . S
C705 H712 0.961 . S
C705 H713 0.960 . S
C706 C704 1.381 . S
C706 C707 1.394 . S
C706 H714 0.930 . S
C707 C706 1.394 . S
C707 C708 1.383 1_554 S
C707 H715 0.929 . S
C708 C707 1.383 1_556 S
C708 C709 1.377 . S
C709 H693 0.930 . S
C709 C708 1.377 . S
C709 C710 1.379 . S
C710 H694 0.931 . S
C710 C704 1.383 1_556 S
C710 C709 1.379 . S
H711 C705 0.959 . S
H712 C705 0.961 . S
H713 C705 0.960 . S
H714 C706 0.930 . S
H715 C707 0.929 . S
H716 C724 0.929 . S
H717 C726 0.930 . S
H718 C728 0.930 . S
H719 C731 0.929 . S
H720 C734 0.910 1_565 S
H721 C736 0.960 . S
H722 C736 0.960 . S
H723 C736 0.960 . S
C724 H716 0.929 . S
C724 C725 1.377 . S
C724 C726 1.384 . S
C725 C724 1.377 . S
C725 C731 1.390 1_565 S
C726 H717 0.930 . S
C726 C724 1.384 . S
C726 C727 1.372 1_565 S
C727 C726 1.372 1_545 S
C727 C728 1.400 . S
C727 C732 1.490 . S
C728 H718 0.930 . S
C728 C727 1.400 . S
C728 C731 1.386 . S
H729 C745 0.930 . S
H730 C746 0.931 . S
C731 H719 0.929 . S
C731 C725 1.390 1_545 S
C731 C728 1.386 . S
C732 C727 1.490 . S
C732 C734 1.409 . S
C732 C735 1.403 . S
H733 C739 0.930 . S
C734 H720 0.910 1_545 S
C734 C732 1.409 . S
C734 C737 1.410 . S
C735 C732 1.403 . S
C735 C736 1.524 . S
C735 C739 1.400 . S
C736 H721 0.960 . S
C736 H722 0.960 . S
C736 H723 0.960 . S
C736 C735 1.524 . S
C737 C734 1.410 . S
C737 C738 1.392 . S
C737 C741 1.495 1_545 S
C738 C737 1.392 . S
C738 C739 1.385 . S
C738 C740 1.478 . S
C739 H733 0.930 . S
C739 C735 1.400 . S
C739 C738 1.385 . S
C740 C738 1.478 . S
C740 C742 1.381 . S
C740 C746 1.383 . S
C741 C737 1.495 1_565 S
C741 H747 0.959 . S
C741 H748 0.961 1_565 S
C741 H749 0.960 . S
C742 C740 1.381 . S
C742 C743 1.394 1_554 S
C742 H750 0.930 1_545 S
C743 C742 1.394 1_556 S
C743 C744 1.383 . S
C743 H751 0.929 1_545 S
C744 C743 1.383 . S
C744 C745 1.377 1_556 S
C745 H729 0.930 . S
C745 C744 1.377 1_554 S
C745 C746 1.379 . S
C746 H730 0.931 . S
C746 C740 1.383 . S
C746 C745 1.379 . S
H747 C741 0.959 . S
H748 C741 0.961 1_545 S
H749 C741 0.960 . S
H750 C742 0.930 1_565 S
H751 C743 0.929 1_565 S
H752 C760 0.929 . S
H753 C762 0.930 . S
H754 C764 0.930 . S
H755 C767 0.929 . S
H756 C770 0.930 . S
H757 C772 0.960 . S
H758 C772 0.960 . S
H759 C772 0.960 . S
C760 H752 0.929 . S
C760 C761 1.377 . S
C760 C762 1.384 . S
C761 C760 1.377 . S
C761 C767 1.390 . S
C762 H753 0.930 . S
C762 C760 1.384 . S
C762 C763 1.372 . S
C763 C762 1.372 . S
C763 C764 1.400 . S
C763 C768 1.490 . S
C764 H754 0.930 . S
C764 C763 1.400 . S
C764 C767 1.386 . S
H765 C781 0.930 . S
H766 C782 0.931 . S
C767 H755 0.929 . S
C767 C761 1.390 . S
C767 C764 1.386 . S
C768 C763 1.490 . S
C768 C770 1.395 . S
C768 C771 1.403 . S
H769 C775 0.930 . S
C770 H756 0.930 . S
C770 C768 1.395 . S
C770 C773 1.403 . S
C771 C768 1.403 . S
C771 C772 1.524 . S
C771 C775 1.400 . S
C772 H757 0.960 . S
C772 H758 0.960 . S
C772 H759 0.960 . S
C772 C771 1.524 . S
C773 C770 1.403 . S
C773 C774 1.392 . S
C773 C777 1.495 . S
C774 C773 1.392 . S
C774 C775 1.385 . S
C774 C776 1.478 . S
C775 H769 0.930 . S
C775 C771 1.400 . S
C775 C774 1.385 . S
C776 C774 1.478 . S
C776 C778 1.381 . S
C776 C782 1.383 1_554 S
C777 C773 1.495 . S
C777 H783 0.959 . S
C777 H784 0.961 . S
C777 H785 0.960 . S
C778 C776 1.381 . S
C778 C779 1.394 . S
C778 H786 0.930 . S
C779 C778 1.394 . S
C779 C780 1.383 1_554 S
C779 H787 0.929 . S
C780 C779 1.383 1_556 S
C780 C781 1.377 . S
C781 H765 0.930 . S
C781 C780 1.377 . S
C781 C782 1.379 . S
C782 H766 0.931 . S
C782 C776 1.383 1_556 S
C782 C781 1.379 . S
H783 C777 0.959 . S
H784 C777 0.961 . S
H785 C777 0.960 . S
H786 C778 0.930 . S
H787 C779 0.929 . S
H788 C796 0.929 . S
H789 C798 0.930 . S
H790 C800 0.930 . S
H791 C803 0.929 . S
H792 C806 0.930 . S
H793 C808 0.960 . S
H794 C808 0.960 . S
H795 C808 0.960 . S
C796 H788 0.929 . S
C796 C797 1.377 . S
C796 C798 1.384 . S
C797 C796 1.377 . S
C797 C803 1.390 . S
C798 H789 0.930 . S
C798 C796 1.384 . S
C798 C799 1.372 . S
C799 C798 1.372 . S
C799 C800 1.400 . S
C799 C804 1.490 . S
C800 H790 0.930 . S
C800 C799 1.400 . S
C800 C803 1.386 . S
H801 C817 0.930 . S
H802 C818 0.931 . S
C803 H791 0.929 . S
C803 C797 1.390 . S
C803 C800 1.386 . S
C804 C799 1.490 . S
C804 C806 1.395 . S
C804 C807 1.403 . S
H805 C811 0.930 . S
C806 H792 0.930 . S
C806 C804 1.395 . S
C806 C809 1.403 . S
C807 C804 1.403 . S
C807 C808 1.524 . S
C807 C811 1.400 . S
C808 H793 0.960 . S
C808 H794 0.960 . S
C808 H795 0.960 . S
C808 C807 1.524 . S
C809 C806 1.403 . S
C809 C810 1.392 . S
C809 C813 1.495 . S
C810 C809 1.392 . S
C810 C811 1.385 . S
C810 C812 1.478 . S
C811 H805 0.930 . S
C811 C807 1.400 . S
C811 C810 1.385 . S
C812 C810 1.478 . S
C812 C814 1.381 1_554 S
C812 C818 1.383 . S
C813 C809 1.495 . S
C813 H819 0.959 1_554 S
C813 H820 0.961 . S
C813 H821 0.960 1_554 S
C814 C812 1.381 1_556 S
C814 C815 1.394 . S
C814 H822 0.930 . S
C815 C814 1.394 . S
C815 C816 1.383 . S
C815 H823 0.929 . S
C816 C815 1.383 . S
C816 C817 1.377 1_556 S
C817 H801 0.930 . S
C817 C816 1.377 1_554 S
C817 C818 1.379 . S
C818 H802 0.931 . S
C818 C812 1.383 . S
C818 C817 1.379 . S
H819 C813 0.959 1_556 S
H820 C813 0.961 . S
H821 C813 0.960 1_556 S
H822 C814 0.930 . S
H823 C815 0.929 . S
H824 C832 0.929 . S
H825 C834 0.930 . S
H826 C836 0.930 . S
H827 C839 0.929 . S
H828 C842 0.930 . S
H829 C844 0.960 . S
H830 C844 0.960 1_455 S
H831 C844 0.960 . S
C832 H824 0.929 . S
C832 C833 1.377 . S
C832 C834 1.384 . S
C833 C832 1.377 . S
C833 C839 1.390 1_455 S
C834 H825 0.930 . S
C834 C832 1.384 . S
C834 C835 1.372 . S
C835 C834 1.372 . S
C835 C836 1.400 1_455 S
C835 C840 1.490 . S
C836 H826 0.930 . S
C836 C835 1.400 1_655 S
C836 C839 1.386 . S
H837 C853 0.930 . S
H838 C854 0.931 . S
C839 H827 0.929 . S
C839 C833 1.390 1_655 S
C839 C836 1.386 . S
C840 C835 1.490 . S
C840 C842 1.395 . S
C840 C843 1.403 . S
H841 C847 0.919 1_655 S
C842 H828 0.930 . S
C842 C840 1.395 . S
C842 C845 1.403 . S
C843 C840 1.403 . S
C843 C844 1.524 1_455 S
C843 C847 1.400 . S
C844 H829 0.960 . S
C844 H830 0.960 1_655 S
C844 H831 0.960 . S
C844 C843 1.524 1_655 S
C845 C842 1.403 . S
C845 C846 1.392 . S
C845 C849 1.495 . S
C846 C845 1.392 . S
C846 C847 1.385 . S
C846 C848 1.478 . S
C847 H841 0.919 1_455 S
C847 C843 1.400 . S
C847 C846 1.385 . S
C848 C846 1.478 . S
C848 C850 1.381 . S
C848 C854 1.383 1_455 S
C849 C845 1.495 . S
C849 H855 0.959 1_556 S
C849 H856 0.961 . S
C849 H857 0.960 . S
C850 C848 1.381 . S
C850 C851 1.394 . S
C850 H858 0.930 . S
C851 C850 1.394 . S
C851 C852 1.383 . S
C851 H859 0.929 . S
C852 C851 1.383 . S
C852 C853 1.377 1_455 S
C853 H837 0.930 . S
C853 C852 1.377 1_655 S
C853 C854 1.379 . S
C854 H838 0.931 . S
C854 C848 1.383 1_655 S
C854 C853 1.379 . S
H855 C849 0.959 1_554 S
H856 C849 0.961 . S
H857 C849 0.960 . S
H858 C850 0.930 . S
H859 C851 0.929 . S
H860 C868 0.929 . S
H861 C870 0.930 . S
H862 C872 0.930 . S
H863 C875 0.929 . S
H864 C878 0.930 . S
H865 C880 0.960 1_554 S
H866 C880 0.960 . S
H867 C880 0.960 1_544 S
C868 H860 0.929 . S
C868 C869 1.377 1_565 S
C868 C870 1.384 . S
C869 C868 1.377 1_545 S
C869 C875 1.390 . S
C870 H861 0.930 . S
C870 C868 1.384 . S
C870 C871 1.372 1_565 S
C871 C870 1.372 1_545 S
C871 C872 1.400 . S
C871 C876 1.490 . S
C872 H862 0.930 . S
C872 C871 1.400 . S
C872 C875 1.386 . S
H873 C889 0.930 . S
H874 C890 0.931 . S
C875 H863 0.929 . S
C875 C869 1.390 . S
C875 C872 1.386 . S
C876 C871 1.490 . S
C876 C878 1.395 . S
C876 C879 1.403 . S
H877 C883 0.930 . S
C878 H864 0.930 . S
C878 C876 1.395 . S
C878 C881 1.403 . S
C879 C876 1.403 . S
C879 C880 1.524 1_545 S
C879 C883 1.400 . S
C880 H865 0.960 1_556 S
C880 H866 0.960 . S
C880 H867 0.960 1_566 S
C880 C879 1.524 1_565 S
C881 C878 1.403 . S
C881 C882 1.392 . S
C881 C885 1.495 . S
C882 C881 1.392 . S
C882 C883 1.385 . S
C882 C884 1.478 . S
C883 H877 0.930 . S
C883 C879 1.400 . S
C883 C882 1.385 . S
C884 C882 1.478 . S
C884 C886 1.381 1_545 S
C884 C890 1.383 . S
C885 C881 1.495 . S
C885 H891 0.959 . S
C885 H892 0.961 . S
C885 H893 0.960 . S
C886 C884 1.381 1_565 S
C886 C887 1.394 . S
C886 H894 0.930 . S
C887 C886 1.394 . S
C887 C888 1.383 1_565 S
C887 H895 0.929 . S
C888 C887 1.383 1_545 S
C888 C889 1.377 . S
C889 H873 0.930 . S
C889 C888 1.377 . S
C889 C890 1.379 . S
C890 H874 0.931 . S
C890 C884 1.383 . S
C890 C889 1.379 . S
H891 C885 0.959 . S
H892 C885 0.961 . S
H893 C885 0.960 . S
H894 C886 0.930 . S
H895 C887 0.929 . S
H896 C904 0.929 . S
H897 C906 0.930 . S
H898 C908 0.930 . S
H899 C911 0.929 . S
H900 C914 0.930 . S
H901 C916 0.960 1_554 S
H902 C916 0.960 1_554 S
H903 C916 0.960 . S
C904 H896 0.929 . S
C904 C905 1.377 . S
C904 C906 1.384 . S
C905 C904 1.377 . S
C905 C911 1.390 . S
C906 H897 0.930 . S
C906 C904 1.384 . S
C906 C907 1.372 . S
C907 C906 1.372 . S
C907 C908 1.400 . S
C907 C912 1.490 . S
C908 H898 0.930 . S
C908 C907 1.400 . S
C908 C911 1.386 . S
H909 C925 0.930 . S
H910 C926 0.931 . S
C911 H899 0.929 . S
C911 C905 1.390 . S
C911 C908 1.386 . S
C912 C907 1.490 . S
C912 C914 1.395 . S
C912 C915 1.403 . S
H913 C919 0.930 . S
C914 H900 0.930 . S
C914 C912 1.395 . S
C914 C917 1.403 . S
C915 C912 1.403 . S
C915 C916 1.524 . S
C915 C919 1.400 . S
C916 H901 0.960 1_556 S
C916 H902 0.960 1_556 S
C916 H903 0.960 . S
C916 C915 1.524 . S
C917 C914 1.403 . S
C917 C918 1.392 . S
C917 C921 1.495 . S
C918 C917 1.392 . S
C918 C919 1.385 . S
C918 C920 1.478 . S
C919 H913 0.930 . S
C919 C915 1.400 . S
C919 C918 1.385 . S
C920 C918 1.478 . S
C920 C922 1.381 . S
C920 C926 1.383 . S
C921 C917 1.495 . S
C921 H927 0.959 . S
C921 H928 0.961 . S
C921 H929 0.960 . S
C922 C920 1.381 . S
C922 C923 1.394 . S
C922 H930 0.930 . S
C923 C922 1.394 . S
C923 C924 1.383 . S
C923 H931 0.929 . S
C924 C923 1.383 . S
C924 C925 1.377 . S
C925 H909 0.930 . S
C925 C924 1.377 . S
C925 C926 1.379 . S
C926 H910 0.931 . S
C926 C920 1.383 . S
C926 C925 1.379 . S
H927 C921 0.959 . S
H928 C921 0.961 . S
H929 C921 0.960 . S
H930 C922 0.930 . S
H931 C923 0.929 . S
H932 C940 0.929 . S
H933 C942 0.930 . S
H934 C944 0.930 . S
H935 C947 0.929 . S
H936 C950 0.930 . S
H937 C952 0.960 . S
H938 C952 0.960 . S
H939 C952 0.960 . S
C940 H932 0.929 . S
C940 C941 1.377 . S
C940 C942 1.384 . S
C941 C940 1.377 . S
C941 C947 1.390 . S
C942 H933 0.930 . S
C942 C940 1.384 . S
C942 C943 1.372 . S
C943 C942 1.372 . S
C943 C944 1.400 . S
C943 C948 1.490 . S
C944 H934 0.930 . S
C944 C943 1.400 . S
C944 C947 1.386 . S
H945 C961 0.930 . S
H946 C962 0.931 . S
C947 H935 0.929 . S
C947 C941 1.390 . S
C947 C944 1.386 . S
C948 C943 1.490 . S
C948 C950 1.395 . S
C948 C951 1.403 . S
H949 C955 0.930 . S
C950 H936 0.930 . S
C950 C948 1.395 . S
C950 C953 1.403 . S
C951 C948 1.403 . S
C951 C952 1.524 . S
C951 C955 1.400 . S
C952 H937 0.960 . S
C952 H938 0.960 . S
C952 H939 0.960 . S
C952 C951 1.524 . S
C953 C950 1.403 . S
C953 C954 1.392 . S
C953 C957 1.495 . S
C954 C953 1.392 . S
C954 C955 1.385 . S
C954 C956 1.478 . S
C955 H949 0.930 . S
C955 C951 1.400 . S
C955 C954 1.385 . S
C956 C954 1.478 . S
C956 C958 1.381 . S
C956 C962 1.383 . S
C957 C953 1.495 . S
C957 H963 0.959 1_556 S
C957 H964 0.961 . S
C957 H965 0.960 . S
C958 C956 1.381 . S
C958 C959 1.394 . S
C958 H966 0.930 . S
C959 C958 1.394 . S
C959 C960 1.383 . S
C959 H967 0.929 . S
C960 C959 1.383 . S
C960 C961 1.377 . S
C961 H945 0.930 . S
C961 C960 1.377 . S
C961 C962 1.379 . S
C962 H946 0.931 . S
C962 C956 1.383 . S
C962 C961 1.379 . S
H963 C957 0.959 1_554 S
H964 C957 0.961 . S
H965 C957 0.960 . S
H966 C958 0.930 . S
H967 C959 0.929 . S
H968 C976 0.929 . S
H969 C978 0.930 . S
H970 C980 0.930 . S
H971 C983 0.929 . S
H972 C986 0.930 . S
H973 C988 0.960 . S
H974 C988 0.960 . S
H975 C988 0.960 1_455 S
C976 H968 0.929 . S
C976 C977 1.377 . S
C976 C978 1.384 . S
C977 C976 1.377 . S
C977 C983 1.390 1_655 S
C978 H969 0.930 . S
C978 C976 1.384 . S
C978 C979 1.372 . S
C979 C978 1.372 . S
C979 C980 1.400 1_655 S
C979 C984 1.490 . S
C980 H970 0.930 . S
C980 C979 1.400 1_455 S
C980 C983 1.386 . S
H981 C997 0.930 . S
H982 C998 0.931 . S
C983 H971 0.929 . S
C983 C977 1.390 1_455 S
C983 C980 1.386 . S
C984 C979 1.490 . S
C984 C986 1.395 . S
C984 C987 1.403 . S
H985 C991 0.930 . S
C986 H972 0.930 . S
C986 C984 1.395 . S
C986 C989 1.403 . S
C987 C984 1.403 . S
C987 C988 1.524 . S
C987 C991 1.400 . S
C988 H973 0.960 . S
C988 H974 0.960 . S
C988 H975 0.960 1_655 S
C988 C987 1.524 . S
C989 C986 1.403 . S
C989 C990 1.392 . S
C989 C993 1.500 . S
C990 C989 1.392 . S
C990 C991 1.385 . S
C990 C992 1.478 . S
C991 H985 0.930 . S
C991 C987 1.400 . S
C991 C990 1.385 . S
C992 C990 1.478 . S
C992 C994 1.381 . S
C992 C998 1.383 1_655 S
C993 C989 1.500 . S
C993 H999 0.956 1_655 S
C993 H1000 0.924 1_655 S
C993 H1001 0.997 . S
C994 C992 1.381 . S
C994 C995 1.394 . S
C994 H1002 0.930 . S
C995 C994 1.394 . S
C995 C996 1.383 . S
C995 H1003 0.929 . S
C996 C995 1.383 . S
C996 C997 1.377 1_655 S
C997 H981 0.930 . S
C997 C996 1.377 1_455 S
C997 C998 1.379 . S
C998 H982 0.931 . S
C998 C992 1.383 1_455 S
C998 C997 1.379 . S
H999 C993 0.956 1_455 S
H1000 C993 0.924 1_455 S
H1001 C993 0.997 . S
H1002 C994 0.930 . S
H1003 C995 0.929 . S
H1004 C1012 0.929 . S
H1005 C1014 0.930 . S
H1006 C1016 0.930 . S
H1007 C1019 0.929 . S
H1008 C1022 0.930 . S
H1009 C1024 0.960 . S
H1010 C1024 0.960 1_565 S
H1011 C1024 0.960 . S
C1012 H1004 0.929 . S
C1012 C1013 1.377 . S
C1012 C1014 1.384 . S
C1013 C1012 1.377 . S
C1013 C1019 1.390 1_565 S
C1014 H1005 0.930 . S
C1014 C1012 1.384 . S
C1014 C1015 1.372 . S
C1015 C1014 1.372 . S
C1015 C1016 1.400 1_565 S
C1015 C1020 1.490 . S
C1016 H1006 0.930 . S
C1016 C1015 1.400 1_545 S
C1016 C1019 1.386 . S
H1017 C1033 0.930 . S
H1018 C1034 0.931 . S
C1019 H1007 0.929 . S
C1019 C1013 1.390 1_545 S
C1019 C1016 1.386 . S
C1020 C1015 1.490 . S
C1020 C1022 1.395 . S
C1020 C1023 1.410 . S
H1021 C1027 0.930 1_545 S
C1022 H1008 0.930 . S
C1022 C1020 1.395 . S
C1022 C1025 1.403 . S
C1023 C1020 1.410 . S
C1023 C1024 1.517 1_565 S
C1023 C1027 1.402 . S
C1024 H1009 0.960 . S
C1024 H1010 0.960 1_545 S
C1024 H1011 0.960 . S
C1024 C1023 1.517 1_545 S
C1025 C1022 1.403 . S
C1025 C1026 1.392 . S
C1025 C1029 1.495 . S
C1026 C1025 1.392 . S
C1026 C1027 1.385 . S
C1026 C1028 1.478 . S
C1027 H1021 0.930 1_565 S
C1027 C1023 1.402 . S
C1027 C1026 1.385 . S
C1028 C1026 1.478 . S
C1028 C1030 1.381 . S
C1028 C1034 1.383 1_565 S
C1029 C1025 1.495 . S
C1029 H1035 0.959 . S
C1029 H1036 0.961 . S
C1029 H1037 0.960 . S
C1030 C1028 1.381 . S
C1030 C1031 1.394 . S
C1030 H1038 0.930 . S
C1031 C1030 1.394 . S
C1031 C1032 1.383 . S
C1031 H1039 0.929 . S
C1032 C1031 1.383 . S
C1032 C1033 1.377 1_565 S
C1033 H1017 0.930 . S
C1033 C1032 1.377 1_545 S
C1033 C1034 1.379 . S
C1034 H1018 0.931 . S
C1034 C1028 1.383 1_545 S
C1034 C1033 1.379 . S
H1035 C1029 0.959 . S
H1036 C1029 0.961 . S
H1037 C1029 0.960 . S
H1038 C1030 0.930 . S
H1039 C1031 0.929 . S
H1040 C1048 0.929 . S
H1041 C1050 0.930 . S
H1042 C1052 0.930 . S
H1043 C1055 0.929 . S
H1044 C1058 0.930 . S
H1045 C1060 0.960 . S
H1046 C1060 0.960 . S
H1047 C1060 0.960 . S
C1048 H1040 0.929 . S
C1048 C1049 1.377 . S
C1048 C1050 1.384 . S
C1049 C1048 1.377 . S
C1049 C1055 1.390 . S
C1050 H1041 0.930 . S
C1050 C1048 1.384 . S
C1050 C1051 1.372 . S
C1051 C1050 1.372 . S
C1051 C1052 1.400 . S
C1051 C1056 1.490 . S
C1052 H1042 0.930 . S
C1052 C1051 1.400 . S
C1052 C1055 1.386 . S
H1053 C1069 0.930 . S
H1054 C1070 0.931 . S
C1055 H1043 0.929 . S
C1055 C1049 1.390 . S
C1055 C1052 1.386 . S
C1056 C1051 1.490 . S
C1056 C1058 1.395 . S
C1056 C1059 1.403 . S
H1057 C1063 0.930 . S
C1058 H1044 0.930 . S
C1058 C1056 1.395 . S
C1058 C1061 1.403 . S
C1059 C1056 1.403 . S
C1059 C1060 1.524 . S
C1059 C1063 1.400 . S
C1060 H1045 0.960 . S
C1060 H1046 0.960 . S
C1060 H1047 0.960 . S
C1060 C1059 1.524 . S
C1061 C1058 1.403 . S
C1061 C1062 1.392 . S
C1061 C1065 1.495 . S
C1062 C1061 1.392 . S
C1062 C1063 1.385 . S
C1062 C1064 1.478 . S
C1063 H1057 0.930 . S
C1063 C1059 1.400 . S
C1063 C1062 1.385 . S
C1064 C1062 1.478 . S
C1064 C1066 1.381 . S
C1064 C1070 1.383 . S
C1065 C1061 1.495 . S
C1065 H1071 0.959 . S
C1065 H1072 0.961 . S
C1065 H1073 0.960 . S
C1066 C1064 1.381 . S
C1066 C1067 1.394 . S
C1066 H1074 0.930 . S
C1067 C1066 1.394 . S
C1067 C1068 1.383 . S
C1067 H1075 0.929 . S
C1068 C1067 1.383 . S
C1068 C1069 1.377 . S
C1069 H1053 0.930 . S
C1069 C1068 1.377 . S
C1069 C1070 1.379 . S
C1070 H1054 0.931 . S
C1070 C1064 1.383 . S
C1070 C1069 1.379 . S
H1071 C1065 0.959 . S
H1072 C1065 0.961 . S
H1073 C1065 0.960 . S
H1074 C1066 0.930 . S
H1075 C1067 0.929 . S
H1076 C1084 0.929 . S
H1077 C1086 0.930 . S
H1078 C1088 0.930 . S
H1079 C1091 0.929 . S
H1080 C1094 0.930 . S
H1081 C1096 0.960 . S
H1082 C1096 0.960 . S
H1083 C1096 0.960 . S
C1084 H1076 0.929 . S
C1084 C1085 1.377 . S
C1084 C1086 1.384 . S
C1085 C1084 1.377 . S
C1085 C1091 1.390 . S
C1086 H1077 0.930 . S
C1086 C1084 1.384 . S
C1086 C1087 1.372 . S
C1087 C1086 1.372 . S
C1087 C1088 1.400 . S
C1087 C1092 1.490 . S
C1088 H1078 0.930 . S
C1088 C1087 1.400 . S
C1088 C1091 1.386 . S
H1089 C1105 0.930 . S
H1090 C1106 0.931 . S
C1091 H1079 0.929 . S
C1091 C1085 1.390 . S
C1091 C1088 1.386 . S
C1092 C1087 1.490 . S
C1092 C1094 1.395 . S
C1092 C1095 1.403 . S
H1093 C1099 0.930 . S
C1094 H1080 0.930 . S
C1094 C1092 1.395 . S
C1094 C1097 1.403 . S
C1095 C1092 1.403 . S
C1095 C1096 1.524 . S
C1095 C1099 1.400 . S
C1096 H1081 0.960 . S
C1096 H1082 0.960 . S
C1096 H1083 0.960 . S
C1096 C1095 1.524 . S
C1097 C1094 1.403 . S
C1097 C1098 1.392 . S
C1097 C1101 1.495 . S
C1098 C1097 1.392 . S
C1098 C1099 1.385 . S
C1098 C1100 1.478 . S
C1099 H1093 0.930 . S
C1099 C1095 1.400 . S
C1099 C1098 1.385 . S
C1100 C1098 1.478 . S
C1100 C1102 1.381 . S
C1100 C1106 1.383 . S
C1101 C1097 1.495 . S
C1101 H1107 0.959 . S
C1101 H1108 0.961 . S
C1101 H1109 0.960 . S
C1102 C1100 1.381 . S
C1102 C1103 1.394 . S
C1102 H1110 0.930 . S
C1103 C1102 1.394 . S
C1103 C1104 1.383 . S
C1103 H1111 0.929 . S
C1104 C1103 1.383 . S
C1104 C1105 1.377 . S
C1105 H1089 0.930 . S
C1105 C1104 1.377 . S
C1105 C1106 1.379 . S
C1106 H1090 0.931 . S
C1106 C1100 1.383 . S
C1106 C1105 1.379 . S
H1107 C1101 0.959 . S
H1108 C1101 0.961 . S
H1109 C1101 0.960 . S
H1110 C1102 0.930 . S
H1111 C1103 0.929 . S
C257 C76 1.728 . S
C276 C98 1.814 . S
C312 C138 1.803 . S
C293 C87 1.734 . S
C348 C178 1.819 . S
C329 C54 1.724 . S
C384 C218 1.807 . S
C365 C65 1.731 . S
C420 C107 1.800 . S
C401 C32 1.729 . S
C437 C43 1.725 . S
C456 C147 1.810 . S
C473 C10 1.727 . S
C492 C187 1.816 . S
C509 C21 1.724 . S
C528 C227 1.804 . S
C564 C104 0.268 . S
C545 C60 0.372 . S
C600 C144 0.292 . S
C581 C71 0.376 . S
C636 C184 0.396 . S
C617 C82 0.405 . S
C653 C49 0.390 . S
C672 C224 0.322 . S
C689 C16 0.397 1_655 S
C708 C95 0.397 . S
C744 C135 0.311 . S
C725 C27 0.419 . S
C780 C175 0.401 . S
C761 C38 0.392 . S
C797 C5 0.404 . S
C816 C215 0.272 . S
C833 C59 1.865 . S
C852 C99 2.053 . S
C869 C70 1.860 . S
C888 C139 2.056 . S
C924 C179 2.051 . S
C905 C81 1.857 . S
C960 C219 2.045 . S
C941 C48 1.861 . S
C977 C15 1.860 1_655 S
C996 C90 2.049 . S
C1032 C130 2.054 . S
C1013 C26 1.858 1_565 S
C1068 C170 2.063 . S
C1049 C37 1.856 . S
C1085 C4 1.868 . S
C1104 C210 2.039 . S
