# Generated by pormake.
# Topology zzz, (3,6)-cn, num edge types: 1
# Building blocks:
#     Node 0, Type 0, BuildingBlock: BETDIP_clean_linker_0, # of connection points: 3
#     Node 1, Type 0, BuildingBlock: BETDIP_clean_linker_0, # of connection points: 3
#     Node 2, Type 0, BuildingBlock: BETDIP_clean_linker_0, # of connection points: 3
#     Node 3, Type 0, BuildingBlock: BETDIP_clean_linker_0, # of connection points: 3
#     Node 4, Type 0, BuildingBlock: BETDIP_clean_linker_0, # of connection points: 3
#     Node 5, Type 0, BuildingBlock: BETDIP_clean_linker_0, # of connection points: 3
#     Node 6, Type 0, BuildingBlock: BETDIP_clean_linker_0, # of connection points: 3
#     Node 7, Type 0, BuildingBlock: BETDIP_clean_linker_0, # of connection points: 3
#     Node 8, Type 1, BuildingBlock: KUMJIN_clean_sbu_1, # of connection points: 6
#     Node 9, Type 1, BuildingBlock: KUMJIN_clean_sbu_1, # of connection points: 6
#     Node 10, Type 1, BuildingBlock: KUMJIN_clean_sbu_1, # of connection points: 6
#     Node 11, Type 1, BuildingBlock: KUMJIN_clean_sbu_1, # of connection points: 6
#     Edge 12, Type (0, 1), BuildingBlock: AJUNOK_clean_linker_0, # of connection points: 2
#     Edge 13, Type (0, 1), BuildingBlock: AJUNOK_clean_linker_0, # of connection points: 2
#     Edge 14, Type (0, 1), BuildingBlock: AJUNOK_clean_linker_0, # of connection points: 2
#     Edge 15, Type (0, 1), BuildingBlock: AJUNOK_clean_linker_0, # of connection points: 2
#     Edge 16, Type (0, 1), BuildingBlock: AJUNOK_clean_linker_0, # of connection points: 2
#     Edge 17, Type (0, 1), BuildingBlock: AJUNOK_clean_linker_0, # of connection points: 2
#     Edge 18, Type (0, 1), BuildingBlock: AJUNOK_clean_linker_0, # of connection points: 2
#     Edge 19, Type (0, 1), BuildingBlock: AJUNOK_clean_linker_0, # of connection points: 2
#     Edge 20, Type (0, 1), BuildingBlock: AJUNOK_clean_linker_0, # of connection points: 2
#     Edge 21, Type (0, 1), BuildingBlock: AJUNOK_clean_linker_0, # of connection points: 2
#     Edge 22, Type (0, 1), BuildingBlock: AJUNOK_clean_linker_0, # of connection points: 2
#     Edge 23, Type (0, 1), BuildingBlock: AJUNOK_clean_linker_0, # of connection points: 2
#     Edge 24, Type (0, 1), BuildingBlock: AJUNOK_clean_linker_0, # of connection points: 2
#     Edge 25, Type (0, 1), BuildingBlock: AJUNOK_clean_linker_0, # of connection points: 2
#     Edge 26, Type (0, 1), BuildingBlock: AJUNOK_clean_linker_0, # of connection points: 2
#     Edge 27, Type (0, 1), BuildingBlock: AJUNOK_clean_linker_0, # of connection points: 2
#     Edge 28, Type (0, 1), BuildingBlock: AJUNOK_clean_linker_0, # of connection points: 2
#     Edge 29, Type (0, 1), BuildingBlock: AJUNOK_clean_linker_0, # of connection points: 2
#     Edge 30, Type (0, 1), BuildingBlock: AJUNOK_clean_linker_0, # of connection points: 2
#     Edge 31, Type (0, 1), BuildingBlock: AJUNOK_clean_linker_0, # of connection points: 2
#     Edge 32, Type (0, 1), BuildingBlock: AJUNOK_clean_linker_0, # of connection points: 2
#     Edge 33, Type (0, 1), BuildingBlock: AJUNOK_clean_linker_0, # of connection points: 2
#     Edge 34, Type (0, 1), BuildingBlock: AJUNOK_clean_linker_0, # of connection points: 2
#     Edge 35, Type (0, 1), BuildingBlock: AJUNOK_clean_linker_0, # of connection points: 2
# Relax obj value: 0.243
# Max RMSD: 0.124
# Mean RMSD: 0.084
data_MOF--net-zzz--node1-KUMJIN_clean_sbu_1--node2-BETDIP_clean_linker_0--edge1-AJUNOK_clean_linker_0
_symmetry_space_group_name_H-M    P1
_symmetry_Int_Tables_number       1
_symmetry_cell_setting            triclinic
loop_
_symmetry_equiv_pos_as_xyz
'x, y, z'
_cell_length_a     36.673047
_cell_length_b     36.78739
_cell_length_c     11.544269
_cell_angle_alpha  90.202315
_cell_angle_beta   90.426439
_cell_angle_gamma 90.240005
loop_
_atom_site_label
_atom_site_type_symbol
_atom_site_fract_x
_atom_site_fract_y
_atom_site_fract_z
_atom_type_partial_charge
H0 H 0.78545 0.52444 0.49851 0.0
H1 H 0.75467 0.59575 0.22149 0.0
H2 H 0.86249 0.60198 0.3673 0.0
H3 H 0.69704 0.58979 0.34474 0.0
C4 C 0.69874 0.56272 0.30702 0.0
C5 C 0.79215 0.54643 0.44026 0.0
C6 C 0.82725 0.56364 0.44808 0.0
C7 C 0.7654 0.55885 0.35823 0.0
C8 C 0.77493 0.58692 0.28291 0.0
C9 C 0.81073 0.59988 0.27478 0.0
C10 C 0.83546 0.59042 0.36503 0.0
N11 N 0.73026 0.54168 0.34053 0.0
H12 H 1.02079 0.78408 0.53503 0.0
H13 H 0.97487 0.75363 0.20321 0.0
H14 H 0.98633 0.86599 0.29279 0.0
H15 H 0.95904 0.70083 0.33404 0.0
C16 C 0.98831 0.69717 0.32695 0.0
C17 C 1.00777 0.79145 0.45404 0.0
C18 C 0.99999 0.82911 0.43029 0.0
C19 C 0.99859 0.76356 0.37058 0.0
C20 C 0.98143 0.77403 0.2681 0.0
C21 C 0.9802 0.81028 0.23537 0.0
C22 C 0.98748 0.83767 0.31815 0.0
N23 N 1.01003 0.72602 0.37839 0.0
H24 H 0.77327 0.03424 0.45519 0.0
H25 H 0.78576 0.96356 0.15822 0.0
H26 H 0.68794 0.9596 0.35696 0.0
H27 H 0.84473 0.9621 0.22016 0.0
C28 C 0.8491 0.99132 0.22406 0.0
C29 C 0.76345 1.01213 0.40113 0.0
C30 C 0.72778 0.9971 0.4208 0.0
C31 C 0.78621 0.99822 0.31014 0.0
C32 C 0.77127 0.97158 0.23552 0.0
C33 C 0.736 0.95793 0.25062 0.0
C34 C 0.71572 0.96926 0.34703 0.0
N35 N 0.82229 1.0126 0.28564 0.0
H36 H 0.50913 0.77644 0.41485 0.0
H37 H 0.58579 0.81876 0.17149 0.0
H38 H 0.60826 0.71865 0.34726 0.0
H39 H 0.56381 0.87529 0.28828 0.0
C40 C 0.53921 0.86821 0.24103 0.0
C41 C 0.53516 0.77445 0.37183 0.0
C42 C 0.55868 0.74442 0.39632 0.0
C43 C 0.5462 0.80238 0.29328 0.0
C44 C 0.57902 0.79826 0.23416 0.0
C45 C 0.59982 0.76643 0.24218 0.0
C46 C 0.59122 0.74189 0.3325 0.0
N47 N 0.52353 0.83284 0.26213 0.0
H48 H 0.28155 0.52894 0.07484 0.0
H49 H 0.29995 0.46628 0.3841 0.0
H50 H 0.19206 0.47625 0.24406 0.0
H51 H 0.35567 0.45882 0.29681 0.0
C52 C 0.36064 0.48792 0.30091 0.0
C53 C 0.27143 0.51149 0.14283 0.0
C54 C 0.23345 0.5015 0.1445 0.0
C55 C 0.29604 0.49865 0.23137 0.0
C56 C 0.28175 0.47655 0.31873 0.0
C57 C 0.24424 0.47186 0.33305 0.0
C58 C 0.22104 0.48152 0.23976 0.0
N59 N 0.33376 0.51044 0.24327 0.0
H60 H 0.02821 0.27949 0.09723 0.0
H61 H 0.09322 0.30161 0.39945 0.0
H62 H 0.10336 0.19911 0.22256 0.0
H63 H 0.09564 0.35981 0.29343 0.0
C64 C 0.06675 0.3611 0.31309 0.0
C65 C 0.04907 0.27117 0.15831 0.0
C66 C 0.06577 0.2361 0.14625 0.0
C67 C 0.06059 0.29574 0.24864 0.0
C68 C 0.08651 0.28353 0.32909 0.0
C69 C 0.10025 0.24792 0.32781 0.0
C70 C 0.09182 0.22597 0.23018 0.0
N71 N 0.0448 0.33138 0.26779 0.0
H72 H 0.27907 1.01951 0.09216 0.0
H73 H 0.25662 0.1145 0.30298 0.0
H74 H 0.35455 0.10891 0.10429 0.0
H75 H 0.23803 0.06897 0.42478 0.0
C76 C 0.21803 0.05717 0.36559 0.0
C77 C 0.28614 0.04659 0.12189 0.0
C78 C 0.31929 0.06333 0.08324 0.0
C79 C 0.26289 0.06498 0.20289 0.0
C80 C 0.27342 0.09985 0.24201 0.0
C81 C 0.30665 0.11537 0.20998 0.0
C82 C 0.32827 0.09755 0.12756 0.0
N83 N 0.23015 0.0486 0.24976 0.0
H84 H 0.50472 0.30184 0.07238 0.0
H85 H 0.58026 0.26444 0.33407 0.0
H86 H 0.59695 0.36787 0.17825 0.0
H87 H 0.56021 0.20797 0.19925 0.0
C88 C 0.53636 0.21298 0.25236 0.0
C89 C 0.52912 0.30621 0.12383 0.0
C90 C 0.55127 0.33811 0.10607 0.0
C91 C 0.53975 0.27919 0.2073 0.0
C92 C 0.57209 0.28438 0.27011 0.0
C93 C 0.59289 0.31576 0.25807 0.0
C94 C 0.58192 0.34246 0.17916 0.0
N95 N 0.51845 0.24729 0.23379 0.0
Eu96 Eu 0.99156 0.05401 0.67629 0.0
C97 C 0.12941 0.06569 0.99487 0.0
N98 N 0.1238 0.04538 0.89763 0.0
C99 C 0.18478 0.05808 0.83508 0.0
C100 C 0.16306 0.08351 1.01488 0.0
C101 C 0.15103 0.04092 0.81885 0.0
C102 C 0.19082 0.07954 0.93333 0.0
C103 C 0.10617 0.09047 0.17486 0.0
C104 C 0.10125 0.06908 0.07414 0.0
C105 C 0.13957 0.1083 0.19457 0.0
C106 C 0.16794 0.10478 0.11501 0.0
Eu107 Eu 0.06601 1.01693 0.87872 0.0
N108 N 0.069 0.05171 0.05236 0.0
C109 C 0.07742 0.09324 0.25318 0.0
C110 C 0.04169 0.05282 0.13181 0.0
C111 C 0.0451 0.07425 0.23163 0.0
H112 H 0.14715 1.02344 0.74455 0.0
H113 H 1.02294 0.0757 0.29279 0.0
H114 H 0.90969 0.05442 0.80692 0.0
H115 H 0.03386 0.98363 0.28013 0.0
H116 H 1.01755 0.03661 0.12077 0.0
H117 H 0.08012 0.10944 0.33131 0.0
H118 H 0.04025 0.02609 0.44357 0.0
H119 H 0.2062 0.05454 0.77206 0.0
H120 H 0.14388 0.12465 0.2716 0.0
H121 H 0.19359 0.11864 0.13176 0.0
H122 H 0.84992 1.02412 0.78671 0.0
H123 H 0.21703 0.09275 0.94574 0.0
H124 H 0.97601 0.95008 0.24976 0.0
N125 N 0.93289 0.02726 0.66223 0.0
C126 C 0.92698 1.00434 0.57116 0.0
C127 C 0.87144 1.01811 0.72601 0.0
C128 C 0.89317 0.98643 0.55646 0.0
C129 C 0.90552 0.03493 0.73788 0.0
C130 C 0.86529 0.99357 0.63537 0.0
N131 N 0.98767 1.01532 0.51123 0.0
C132 C 1.01536 1.01099 0.43422 0.0
C133 C 0.95002 0.97397 0.39958 0.0
C134 C 0.95507 0.99829 0.49325 0.0
C135 C 0.97884 0.9685 0.32282 0.0
C136 C 1.01156 0.98727 0.33993 0.0
H137 H 0.83887 0.98049 0.62664 0.0
H138 H 0.86255 0.94771 0.45211 0.0
H139 H 0.91236 0.93673 0.31499 0.0
O140 O 0.99311 0.09077 0.52915 0.0
O141 O 0.99205 0.99101 0.70035 0.0
O142 O 0.05266 0.98049 0.72192 0.0
O143 O 0.94927 0.09525 0.65191 0.0
O144 O 0.0517 0.06548 0.62307 0.0
O145 O 0.0822 1.01557 0.68926 0.0
O146 O 0.06143 0.9728 1.00298 0.0
O147 O 0.06619 0.07948 0.85813 0.0
O148 O 1.00608 0.09231 0.82896 0.0
O149 O 0.11192 0.98055 0.9116 0.0
O150 O 1.00556 1.00686 0.93283 0.0
O151 O 0.9746 0.05639 0.86479 0.0
C152 C 1.02016 0.96893 0.68951 0.0
C153 C 0.97804 0.14911 0.59429 0.0
C154 C 0.02728 0.19305 0.62406 0.0
C155 C 1.00124 0.22118 0.62158 0.0
C156 C 0.95254 0.17725 0.59133 0.0
C157 C 0.96408 0.21314 0.60821 0.0
C158 C 1.0147 0.15708 0.61963 0.0
C159 C 0.07996 0.04328 0.61865 0.0
C160 C 0.96732 0.1113 0.57029 0.0
C161 C 0.88826 0.9619 0.46415 0.0
C162 C 0.91662 0.95565 0.38604 0.0
C163 C 0.03865 0.10227 0.86648 0.0
C164 C 0.08709 0.92148 0.9127 0.0
C165 C 0.04608 0.87074 0.86949 0.0
C166 C 0.0697 0.85896 0.78209 0.0
C167 C 0.11061 0.90932 0.82508 0.0
C168 C 0.05556 0.90142 0.9357 0.0
C169 C 0.10202 0.87804 0.76101 0.0
C170 C 0.97724 0.02918 0.93711 0.0
C171 C 0.0915 0.95766 0.96718 0.0
H172 H 1.00943 0.24946 0.62201 0.0
H173 H 0.92396 0.17151 0.57482 0.0
H174 H 0.94443 0.23498 0.60464 0.0
H175 H 0.03409 0.13513 0.62702 0.0
H176 H 0.06357 0.83467 0.73223 0.0
H177 H 0.13511 0.92439 0.80409 0.0
H178 H 0.03837 0.90973 1.00698 0.0
H179 H 0.12026 0.86878 0.69395 0.0
Eu180 Eu 0.53874 0.07237 0.85538 0.0
C181 C 0.50941 0.92325 0.56944 0.0
N182 N 0.53001 0.95387 0.55678 0.0
C183 C 0.58105 0.91704 0.50037 0.0
C184 C 0.52391 0.88843 0.5469 0.0
C185 C 0.56521 0.95095 0.51963 0.0
C186 C 0.56046 0.88559 0.51552 0.0
C187 C 0.45192 0.89534 0.62345 0.0
C188 C 0.47414 0.9265 0.61006 0.0
C189 C 0.46577 0.86092 0.59587 0.0
C190 C 0.50183 0.85744 0.55899 0.0
Eu191 Eu 0.5014 1.0099 0.60965 0.0
N192 N 0.46191 0.95991 0.64041 0.0
C193 C 0.41659 0.89965 0.66605 0.0
C194 C 0.42721 0.96431 0.68006 0.0
C195 C 0.40417 0.93432 0.69415 0.0
H196 H 0.58192 0.97423 0.50491 0.0
H197 H 0.37675 0.93804 0.72605 0.0
H198 H 0.46188 0.09772 0.99678 0.0
H199 H 0.63766 0.15553 0.62215 0.0
H200 H 0.41678 0.99095 0.69888 0.0
H201 H 0.39873 0.87642 0.67754 0.0
H202 H 0.61298 0.09944 0.70848 0.0
H203 H 0.60918 0.91524 0.47339 0.0
H204 H 0.44915 0.83672 0.60582 0.0
H205 H 0.51259 0.83062 0.54211 0.0
H206 H 0.42529 0.15256 1.02226 0.0
H207 H 0.57282 0.85931 0.50034 0.0
H208 H 0.60479 0.2136 0.64645 0.0
N209 N 0.5029 0.12406 0.89738 0.0
C210 C 0.51578 0.15635 0.85651 0.0
C211 C 0.45083 0.15414 0.97655 0.0
C212 C 0.4963 0.18887 0.87427 0.0
C213 C 0.47135 0.12275 0.95917 0.0
C214 C 0.46341 0.1874 0.93475 0.0
N215 N 0.56542 0.12472 0.77273 0.0
C216 C 0.59779 0.12422 0.71567 0.0
C217 C 0.56133 0.18958 0.74697 0.0
C218 C 0.5479 0.15667 0.79279 0.0
C219 C 0.59365 0.18892 0.68328 0.0
C220 C 0.61216 0.15616 0.66871 0.0
H221 H 0.44746 0.2117 0.94912 0.0
H222 H 0.49514 0.24686 0.84206 0.0
H223 H 0.55204 0.24749 0.73089 0.0
O224 O 0.59112 0.08337 0.93908 0.0
O225 O 0.50698 0.09833 0.70338 0.0
O226 O 0.52938 0.06317 0.56237 0.0
O227 O 0.54171 0.08347 0.03986 0.0
O228 O 0.58419 0.03988 0.76473 0.0
O229 O 0.56129 0.02812 0.58266 0.0
O230 O 0.49325 1.00541 0.4212 0.0
O231 O 0.51191 0.97463 0.77171 0.0
O232 O 0.53245 1.01365 0.91604 0.0
O233 O 0.45054 0.02661 0.53 0.0
O234 O 0.46085 0.04117 0.72605 0.0
O235 O 0.48564 0.04429 0.90699 0.0
C236 C 0.5168 0.09482 0.59514 0.0
C237 C 0.5911 0.051 0.11311 0.0
C238 C 0.61867 0.99081 0.13063 0.0
C239 C 0.61049 0.9915 0.24982 0.0
C240 C 0.58426 0.05128 0.23124 0.0
C241 C 0.59305 1.02138 0.29843 0.0
C242 C 0.60768 1.0204 0.06231 0.0
C243 C 0.58928 0.03116 0.65531 0.0
C244 C 0.57707 0.08072 0.04184 0.0
C245 C 0.50975 0.22165 0.82915 0.0
C246 C 0.54214 0.22199 0.76566 0.0
C247 C 0.5233 0.98082 0.879 0.0
C248 C 0.46013 0.05802 0.35787 0.0
C249 C 0.43049 0.1176 0.33613 0.0
C250 C 0.4602 0.12904 0.26924 0.0
C251 C 0.48854 0.06986 0.28711 0.0
C252 C 0.43051 0.08139 0.3771 0.0
C253 C 0.48852 0.10524 0.24384 0.0
C254 C 0.45697 0.03957 0.8395 0.0
C255 C 0.46278 1.02379 0.4249 0.0
H256 H 0.61933 0.97012 0.30748 0.0
H257 H 0.5712 0.07438 0.27028 0.0
H258 H 0.58721 1.02204 0.38909 0.0
H259 H 0.61295 1.01989 0.97018 0.0
H260 H 0.4619 0.15641 0.23604 0.0
H261 H 0.51112 0.05215 0.26843 0.0
H262 H 0.40748 0.07067 0.42398 0.0
H263 H 0.51114 0.11505 0.1937 0.0
Eu264 Eu 0.57833 0.5305 0.64673 0.0
C265 C 0.43078 0.51588 0.94439 0.0
N266 N 0.44024 0.54134 0.86517 0.0
C267 C 0.37829 0.54467 0.79853 0.0
C268 C 0.39467 0.50299 0.95151 0.0
C269 C 0.41468 0.55599 0.79288 0.0
C270 C 0.36825 0.51791 0.87799 0.0
C271 C 0.4488 0.47604 0.10124 0.0
C272 C 0.45739 0.50276 1.01856 0.0
C273 C 0.41327 0.46183 0.10484 0.0
C274 C 0.38616 0.47546 0.03088 0.0
Eu275 Eu 0.50259 0.55709 0.85574 0.0
N276 N 0.49199 0.51531 1.00742 0.0
C277 C 0.4765 0.46364 0.17507 0.0
C278 C 0.51878 0.50455 0.08253 0.0
C279 C 0.5115 0.47838 0.16687 0.0
H280 H 0.42233 0.57675 0.73139 0.0
H281 H 0.533 0.4693 0.22453 0.0
H282 H 0.64915 0.57186 0.78087 0.0
H283 H 0.5108 0.56248 0.23213 0.0
H284 H 0.5459 0.51556 0.07614 0.0
H285 H 0.47119 0.44266 0.23828 0.0
H286 H 0.52574 0.52343 0.39723 0.0
H287 H 0.35806 0.55652 0.74154 0.0
H288 H 0.40652 0.44013 0.1641 0.0
H289 H 0.35873 0.46455 0.0358 0.0
H290 H 0.69152 0.62287 0.74384 0.0
H291 H 0.34013 0.50911 0.88267 0.0
H292 H 0.54667 0.61821 0.19704 0.0
N293 N 0.61893 0.57963 0.62496 0.0
C294 C 0.61537 0.59847 0.52422 0.0
C295 C 0.67012 0.61642 0.68195 0.0
C296 C 0.63858 0.62816 0.50122 0.0
C297 C 0.64598 0.58779 0.7031 0.0
C298 C 0.66637 0.63675 0.58072 0.0
N299 N 0.5649 0.56033 0.46991 0.0
C300 C 0.53981 0.54902 0.38919 0.0
C301 C 0.58088 0.61102 0.34854 0.0
C302 C 0.58696 0.58943 0.44734 0.0
C303 C 0.55248 0.60177 0.27258 0.0
C304 C 0.53218 0.57037 0.2922 0.0
H305 H 0.68477 0.65932 0.56546 0.0
H306 H 0.65024 0.67202 0.38341 0.0
H307 H 0.59811 0.65814 0.25395 0.0
O308 O 0.59241 0.48376 0.5364 0.0
O309 O 0.56901 0.59073 0.70171 0.0
O310 O 0.50822 0.59416 0.6981 0.0
O311 O 0.6344 0.51982 0.59856 0.0
O312 O 0.51988 0.51045 0.59582 0.0
O313 O 0.48468 0.55645 0.66653 0.0
O314 O 0.52179 0.59477 0.98708 0.0
O315 O 0.50871 0.49448 0.84091 0.0
O316 O 0.56781 0.48605 0.78086 0.0
O317 O 0.46703 0.6007 0.91841 0.0
O318 O 0.56219 0.56446 0.92244 0.0
O319 O 0.59908 0.52334 0.83116 0.0
C320 C 0.53958 0.60921 0.67372 0.0
C321 C 0.64895 0.45824 0.59481 0.0
C322 C 0.67047 0.39648 0.56905 0.0
C323 C 0.68563 0.39692 0.6808 0.0
C324 C 0.66463 0.45879 0.70666 0.0
C325 C 0.68318 0.42834 0.74869 0.0
C326 C 0.65267 0.42737 0.52611 0.0
C327 C 0.48863 0.52862 0.59655 0.0
C328 C 0.62736 0.48888 0.55044 0.0
C329 C 0.63259 0.64917 0.40218 0.0
C330 C 0.60319 0.64122 0.32822 0.0
C331 C 0.53767 0.47354 0.82853 0.0
C332 C 0.50271 0.65439 0.94443 0.0
C333 C 0.54832 0.70324 0.92664 0.0
C334 C 0.51954 0.72753 0.90197 0.0
C335 C 0.47489 0.67919 0.91983 0.0
C336 C 0.5393 0.66626 0.94134 0.0
C337 C 0.48343 0.71536 0.89614 0.0
C338 C 0.5919 0.54415 0.92052 0.0
C339 C 0.49389 0.61628 0.97459 0.0
H340 H 0.69837 0.37284 0.71612 0.0
H341 H 0.66212 0.48242 0.7622 0.0
H342 H 0.69474 0.42876 0.83523 0.0
H343 H 0.63967 0.42658 0.44132 0.0
H344 H 0.52408 0.75641 0.89364 0.0
H345 H 0.44657 0.67069 0.91989 0.0
H346 H 0.56068 0.64665 0.95501 0.0
H347 H 0.46176 0.73449 0.87836 0.0
Eu348 Eu 0.04471 0.56684 0.70383 0.0
C349 C 0.06852 0.43156 0.98504 0.0
N350 N 0.04086 0.43768 0.90881 0.0
C351 C 0.04979 0.3784 0.82572 0.0
C352 C 0.08918 0.39931 0.98067 0.0
C353 C 0.02993 0.41068 0.83439 0.0
C354 C 0.07999 0.37298 0.89772 0.0
C355 C 0.10179 0.45051 0.15714 0.0
C356 C 0.07461 0.45653 0.07256 0.0
C357 C 0.12376 0.41945 0.1497 0.0
C358 C 0.11742 0.39384 0.06161 0.0
Eu359 Eu 1.01101 0.49507 0.92182 0.0
N360 N 0.05328 0.4865 0.07649 0.0
C361 C 0.1058 0.47576 0.24721 0.0
C362 C 0.05603 0.51038 0.16745 0.0
C363 C 0.08294 0.50586 0.25228 0.0
H364 H 1.00581 0.41381 0.78117 0.0
H365 H 0.08636 0.52577 0.32071 0.0
H366 H 1.02066 0.64748 0.81013 0.0
H367 H 0.99759 0.49725 0.3066 0.0
H368 H 0.03884 0.53416 0.16954 0.0
H369 H 0.12611 0.47217 0.31384 0.0
H370 H 0.0411 0.51034 0.4627 0.0
H371 H 0.04156 0.3576 0.76422 0.0
H372 H 0.14507 0.41455 0.21322 0.0
H373 H 0.13381 0.36942 0.05885 0.0
H374 H 0.97754 0.69704 0.76512 0.0
H375 H 0.09514 0.34784 0.89178 0.0
H376 H 0.95023 0.54215 0.2573 0.0
N377 N 1.0041 0.61491 0.66674 0.0
C378 C 0.98359 0.61256 0.56858 0.0
C379 C 0.97872 0.67328 0.70973 0.0
C380 C 0.95811 0.63983 0.54076 0.0
C381 C 1.00292 0.6451 0.73543 0.0
C382 C 0.95595 0.67049 0.61255 0.0
N383 N 1.01253 0.55651 0.52606 0.0
C384 C 1.01814 0.52795 0.45256 0.0
C385 C 0.96467 0.57801 0.39951 0.0
C386 C 0.9872 0.5821 0.49818 0.0
C387 C 0.96784 0.54671 0.33178 0.0
C388 C 0.99453 0.5214 0.35926 0.0
H389 H 0.93693 0.69216 0.59347 0.0
H390 H 0.91557 0.65597 0.42036 0.0
H391 H 0.92265 0.60202 0.2955 0.0
O392 O 0.0744 0.59146 0.56101 0.0
O393 O 0.98337 0.56595 0.7511 0.0
O394 O 0.97253 0.50579 0.76644 0.0
O395 O 0.08411 0.61036 0.73579 0.0
O396 O 0.05968 0.50723 0.65738 0.0
O397 O 1.01054 0.47705 0.73104 0.0
O398 O 0.97411 0.5027 0.06569 0.0
O399 O 0.06744 0.52216 0.94993 0.0
O400 O 0.09003 0.5287 0.77072 0.0
O401 O 0.97128 0.45276 0.96887 0.0
O402 O 0.99809 0.55447 0.97261 0.0
O403 O 0.04471 0.58786 0.89265 0.0
C404 C 0.96138 0.53805 0.73318 0.0
C405 C 0.13423 0.60556 0.61525 0.0
C406 C 0.18456 0.56301 0.59777 0.0
C407 C 0.2088 0.59284 0.59168 0.0
C408 C 0.15851 0.63491 0.61136 0.0
C409 C 0.19581 0.62847 0.59972 0.0
C410 C 0.14738 0.56999 0.61002 0.0
C411 C 0.03833 0.47807 0.6599 0.0
C412 C 0.09514 0.61109 0.629 0.0
C413 C 0.93564 0.63558 0.44276 0.0
C414 C 0.93929 0.60491 0.37203 0.0
C415 C 0.09574 0.52257 0.88126 0.0
C416 C 0.91591 0.4816 1.01549 0.0
C417 C 0.8678 0.52652 0.98712 0.0
C418 C 0.84184 0.49812 0.99269 0.0
C419 C 0.88982 0.45384 1.02093 0.0
C420 C 0.90481 0.51727 0.99023 0.0
C421 C 0.85294 0.46204 1.00644 0.0
C422 C 1.01982 0.5833 0.97362 0.0
C423 C 0.95459 0.47425 0.04019 0.0
H424 H 0.2376 0.58894 0.57652 0.0
H425 H 0.14865 0.66258 0.61674 0.0
H426 H 0.21465 0.65113 0.59485 0.0
H427 H 0.12824 0.54773 0.61312 0.0
H428 H 0.81291 0.50364 0.99392 0.0
H429 H 0.89791 0.42607 0.03807 0.0
H430 H 0.92511 0.53845 0.98073 0.0
H431 H 0.83271 0.44062 1.01216 0.0
C432 C 0.15524 0.0268 0.39178 0.0
C433 C 0.17935 0.05624 0.41059 0.0
C434 C 0.12228 1.02345 0.45542 0.0
C435 C 0.11138 0.04997 0.53741 0.0
H436 H 0.16284 1.00517 0.33302 0.0
H437 H 0.10565 0.99937 0.44255 0.0
S438 S 0.16415 0.1326 0.61607 0.0
N439 N 0.18931 0.11253 0.51686 0.0
N440 N 0.12746 0.10687 0.63055 0.0
C441 C 0.13441 0.08021 0.55222 0.0
C442 C 0.16823 0.08312 0.49053 0.0
C443 C 0.55385 0.15593 0.35508 0.0
C444 C 0.53002 0.18587 0.34913 0.0
C445 C 0.54933 0.12781 0.43599 0.0
C446 C 0.52115 0.12765 0.51732 0.0
H447 H 0.57595 0.15348 0.29381 0.0
H448 H 0.56793 0.10542 0.43375 0.0
S449 S 0.4527 0.20112 0.54941 0.0
N450 N 0.47798 0.2149 0.43973 0.0
N451 N 0.4699 0.1619 0.59249 0.0
C452 C 0.498 0.15834 0.5176 0.0
C453 C 0.50236 0.18735 0.43369 0.0
C454 C 0.40289 0.53621 0.39762 0.0
C455 C 0.39416 0.49973 0.37082 0.0
C456 C 0.43346 0.54537 0.46927 0.0
C457 C 0.4573 0.51864 0.51536 0.0
H458 H 0.38569 0.55779 0.36513 0.0
H459 H 0.43843 0.57376 0.48885 0.0
S460 S 0.44593 0.41919 0.47647 0.0
N461 N 0.41163 0.43672 0.40231 0.0
N462 N 0.46892 0.45414 0.52997 0.0
C463 C 0.449 0.48231 0.48805 0.0
C464 C 0.41761 0.4729 0.4181 0.0
C465 C 1.02238 0.40516 0.41797 0.0
C466 C 0.05676 0.38823 0.40794 0.0
C467 C 1.01622 0.43353 0.5005 0.0
C468 C 0.04427 0.44679 0.57513 0.0
H469 H 1.00043 0.3972 0.35991 0.0
H470 H 0.98952 0.44595 0.50355 0.0
S471 S 0.13676 0.40732 0.5983 0.0
N472 N 0.11753 0.38426 0.49125 0.0
N473 N 0.10614 0.43716 0.6411 0.0
C474 C 0.07803 0.42908 0.56828 0.0
C475 C 0.08415 0.4001 0.48639 0.0
C476 C 0.89133 0.98316 0.05593 0.0
C477 C 0.88052 1.00489 0.15084 0.0
C478 C 0.92248 0.99116 0.98921 0.0
C479 C 0.94502 1.02114 1.01409 0.0
H480 H 0.87538 0.95933 0.0327 0.0
H481 H 0.92872 0.97396 0.91573 0.0
S482 S 0.9295 0.08773 0.25155 0.0
N483 N 0.89548 0.05843 0.26535 0.0
N484 N 0.95338 0.07399 0.13872 0.0
C485 C 0.93422 0.0439 0.10683 0.0
C486 C 0.90233 0.03562 0.17556 0.0
C487 C 0.53103 0.93248 0.17436 0.0
C488 C 0.52808 0.89508 0.14897 0.0
C489 C 0.52841 0.95932 0.08758 0.0
C490 C 0.52369 0.95046 0.96892 0.0
H491 H 0.53641 0.94118 0.26266 0.0
H492 H 0.53088 0.98745 0.11452 0.0
S493 S 0.51575 0.85589 0.85544 0.0
N494 N 0.52031 0.85034 0.99661 0.0
N495 N 0.51639 0.90024 0.83286 0.0
C496 C 0.52026 0.91292 0.9426 0.0
C497 C 0.52229 0.8855 0.03222 0.0
C498 C 0.65226 0.58486 0.16257 0.0
C499 C 0.67308 0.55549 0.2053 0.0
C500 C 0.62594 0.58076 0.07344 0.0
C501 C 0.6198 0.5472 1.01788 0.0
H502 H 0.65665 0.61176 0.19802 0.0
H503 H 0.61075 0.60441 0.04613 0.0
S504 S 0.66758 0.4612 0.09113 0.0
N505 N 0.68558 0.49113 0.18244 0.0
N506 N 0.63766 0.48365 1.01138 0.0
C507 C 0.64116 0.51756 0.0568 0.0
C508 C 0.66743 0.52161 0.15052 0.0
C509 C 0.0316 0.64934 0.23623 0.0
C510 C 0.99975 0.67086 0.23148 0.0
C511 C 0.03837 0.62146 0.15251 0.0
C512 C 1.01344 0.61353 0.06118 0.0
H513 H 0.05083 0.65324 0.30683 0.0
H514 H 0.06293 0.60542 0.16096 0.0
S515 S 0.92831 0.66432 1.00195 0.0
N516 N 0.94471 0.68352 0.12088 0.0
N517 N 0.95707 0.6316 0.96842 0.0
C518 C 0.98217 0.63538 0.05469 0.0
C519 C 0.97548 0.66374 0.13823 0.0
C520 C 0.11154 0.19301 0.44662 0.0
C521 C 0.11473 0.23106 0.43878 0.0
C522 C 0.085 0.17829 0.51934 0.0
C523 C 0.06637 0.20081 0.59869 0.0
H524 H 0.12288 0.1755 0.38102 0.0
H525 H 0.07657 0.15061 0.50218 0.0
S526 S 0.10132 0.29057 0.69486 0.0
N527 N 0.12305 0.28217 0.57269 0.0
N528 N 0.07407 0.25536 0.71675 0.0
C529 C 0.0825 0.23467 0.62318 0.0
C530 C 0.10852 0.24925 0.54479 0.0
C531 C 0.34958 0.16674 0.22668 0.0
C532 C 0.32411 0.1442 0.28243 0.0
C533 C 0.38658 0.16385 0.25689 0.0
C534 C 0.39735 0.14097 0.34895 0.0
H535 H 0.34282 0.17841 0.14322 0.0
H536 H 0.40614 0.17508 0.19749 0.0
S537 S 0.33569 0.1092 0.58057 0.0
N538 N 0.30832 0.12058 0.47236 0.0
N539 N 0.37749 0.11879 0.53731 0.0
C540 C 0.37028 0.13241 0.43034 0.0
C541 C 0.33298 0.13402 0.3963 0.0
C542 C 0.61636 0.32021 0.46027 0.0
C543 C 0.62293 0.3236 0.34076 0.0
C544 C 0.63767 0.33929 0.5409 0.0
C545 C 0.66553 0.36261 0.50363 0.0
H546 H 0.59216 0.30643 0.49113 0.0
H547 H 0.62878 0.34001 0.63024 0.0
S548 S 0.70093 0.37114 0.20577 0.0
N549 N 0.66525 0.34382 0.19281 0.0
N550 N 0.7044 0.38112 0.3451 0.0
C551 C 0.67619 0.36125 0.38736 0.0
C552 C 0.65485 0.34149 0.30529 0.0
C553 C 0.19109 0.46927 0.46341 0.0
C554 C 0.22913 0.46767 0.45362 0.0
C555 C 0.17531 0.49991 0.51474 0.0
C556 C 0.19724 0.52518 0.5767 0.0
H557 H 0.17429 0.45164 0.41019 0.0
H558 H 0.14681 0.50483 0.49663 0.0
S559 S 0.29065 0.50549 0.68115 0.0
N560 N 0.28268 0.47478 0.57943 0.0
N561 N 0.25359 0.53069 0.68807 0.0
C562 C 0.23269 0.51416 0.60559 0.0
C563 C 0.2484 0.48414 0.54645 0.0
C564 C 1.0092 0.7981 0.04555 0.0
C565 C 0.98347 0.81808 0.11013 0.0
C566 C 0.02485 0.81263 0.94641 0.0
C567 C 1.01578 0.84781 0.91091 0.0
H568 H 1.02114 0.77338 0.07924 0.0
H569 H 0.04823 0.79883 0.91033 0.0
S570 S 0.93859 0.90264 1.01777 0.0
N571 N 0.94098 0.86825 0.10868 0.0
N572 N 0.97076 0.89606 0.9206 0.0
C573 C 0.98455 0.86402 0.95857 0.0
C574 C 0.96863 0.84926 0.06023 0.0
C575 C 0.71128 0.96676 0.05747 0.0
C576 C 0.7157 0.94233 0.15004 0.0
C577 C 0.67622 0.9785 0.0276 0.0
C578 C 0.64574 0.96422 0.08599 0.0
H579 H 0.73405 0.98322 0.02886 0.0
H580 H 0.67411 1.00307 0.97669 0.0
S581 S 0.64512 0.87899 0.25495 0.0
N582 N 0.68874 0.88961 0.24225 0.0
N583 N 0.6223 0.91025 0.18207 0.0
C584 C 0.65038 0.9305 0.14112 0.0
C585 C 0.68615 0.91912 0.17247 0.0
C586 C 0.62764 0.71691 0.1274 0.0
C587 C 0.62257 0.75458 0.13945 0.0
C588 C 0.6066 0.69797 0.04472 0.0
C589 C 0.58536 0.71726 0.96256 0.0
H590 H 0.64103 0.70167 0.19509 0.0
H591 H 0.60454 0.66896 0.05464 0.0
S592 S 0.60775 0.81211 0.88043 0.0
N593 N 0.62601 0.80708 1.01081 0.0
N594 N 0.58792 0.77289 0.84772 0.0
C595 C 0.59607 0.75361 0.94451 0.0
C596 C 0.61652 0.77206 0.03243 0.0
C597 C 0.862 0.61526 0.14592 0.0
C598 C 0.82406 0.61437 0.15954 0.0
C599 C 0.87841 0.58796 0.07923 0.0
C600 C 0.85675 0.56507 1.00734 0.0
H601 H 0.87854 0.63108 0.20533 0.0
H602 H 0.90704 0.58288 0.09437 0.0
S603 S 0.76305 0.58877 0.91394 0.0
N604 N 0.77072 0.61401 0.03052 0.0
N605 N 0.80046 0.56469 0.89384 0.0
C606 C 0.82125 0.57718 0.98341 0.0
C607 C 0.80516 0.60347 0.05784 0.0
C608 C 1.02185 0.1899 0.04968 0.0
C609 C 0.05633 0.20731 0.05432 0.0
C610 C 1.01591 0.15702 0.98586 0.0
C611 C 0.04427 0.13931 0.92496 0.0
H612 H 0.9997 0.20069 0.10069 0.0
H613 H 0.98917 0.14448 0.98882 0.0
S614 S 0.13867 0.17528 0.89877 0.0
N615 N 0.11833 0.20524 0.98292 0.0
N616 N 0.10752 0.14424 0.8669 0.0
C617 C 0.07833 0.15734 0.92513 0.0
C618 C 0.0842 0.19088 0.98833 0.0
C619 C 0.3552 0.06076 0.89631 0.0
C620 C 0.34859 0.04642 1.00798 0.0
C621 C 0.38933 0.05688 0.83997 0.0
C622 C 0.41922 0.03941 0.89369 0.0
H623 H 0.33448 0.07727 0.85511 0.0
H624 H 0.39295 0.0696 0.75638 0.0
S625 S 0.41603 0.99412 0.18055 0.0
N626 N 0.37488 1.01169 0.1656 0.0
N627 N 0.43849 1.00486 0.06191 0.0
C628 C 0.41253 1.02355 1.00281 0.0
C629 C 0.37759 0.02694 0.05906 0.0
C630 C 0.57548 0.38666 0.96904 0.0
C631 C 0.54489 0.36844 1.01687 0.0
C632 C 0.57253 0.41938 0.90641 0.0
C633 C 0.53866 0.43595 0.88399 0.0
H634 H 0.6027 0.37615 0.98306 0.0
H635 H 0.5975 0.43223 0.87792 0.0
S636 S 0.44897 0.39368 0.95173 0.0
N637 N 0.47868 0.36636 1.0147 0.0
N638 N 0.47303 0.42639 0.89038 0.0
C639 C 0.50741 0.41604 0.91872 0.0
C640 C 0.5105 0.38275 0.98557 0.0
C641 C 0.17599 0.53727 0.09696 0.0
C642 C 0.20387 0.51361 0.05886 0.0
C643 C 0.14224 0.54097 0.03677 0.0
C644 C 0.13411 0.52139 0.93409 0.0
H645 H 0.17944 0.55156 0.17853 0.0
H646 H 0.12175 0.55863 0.07346 0.0
S647 S 0.19603 0.45379 0.80048 0.0
N648 N 0.21964 0.46902 0.91308 0.0
N649 N 0.1573 0.47662 0.79917 0.0
C650 C 0.16201 0.49834 0.8932 0.0
C651 C 0.19633 0.49425 0.9555 0.0
C652 C 0.97928 0.87707 0.57749 0.0
C653 C 1.00764 0.86116 0.51201 0.0
C654 C 0.98332 0.91142 0.63422 0.0
C655 C 1.01602 0.93193 0.62913 0.0
H656 H 0.95313 0.86339 0.58169 0.0
H657 H 0.96038 0.92214 0.68175 0.0
S658 S 0.09717 0.90519 0.45769 0.0
N659 N 0.06857 0.87085 0.43842 0.0
N660 N 0.07644 0.93408 0.54475 0.0
C661 C 0.04434 0.91651 0.56259 0.0
C662 C 0.04009 0.88176 0.50432 0.0
C663 C 0.68336 0.9883 0.58792 0.0
C664 C 0.69904 1.01156 0.50383 0.0
C665 C 0.64917 0.99573 0.64068 0.0
C666 C 0.6281 0.02633 0.61003 0.0
H667 H 0.69675 0.96292 0.60847 0.0
H668 H 0.63824 0.97621 0.70141 0.0
S669 S 0.65674 0.09674 0.39829 0.0
N670 N 0.69064 0.06736 0.39674 0.0
N671 N 0.62726 0.08105 0.49346 0.0
C672 C 0.64414 0.05041 0.52951 0.0
C673 C 0.67912 0.04312 0.47722 0.0
C674 C 0.57487 0.70282 0.56644 0.0
C675 C 0.54966 0.71326 0.4791 0.0
C676 C 0.57088 0.67018 0.63095 0.0
C677 C 0.54165 0.64573 0.61131 0.0
H678 H 0.59871 0.71958 0.58279 0.0
H679 H 0.59148 0.66364 0.69519 0.0
S680 S 0.46837 0.659 0.39139 0.0
N681 N 0.49436 0.69549 0.37708 0.0
N682 N 0.48682 0.63493 0.49702 0.0
C683 C 0.51574 0.65626 0.52651 0.0
C684 C 0.51979 0.68955 0.46085 0.0
C685 C 0.87861 0.52212 0.52435 0.0
C686 C 0.85734 0.55396 0.53553 0.0
C687 C 0.91116 0.51656 0.59072 0.0
C688 C 0.92471 0.54283 0.67053 0.0
H689 H 0.87087 0.50191 0.46023 0.0
H690 H 0.9267 0.49206 0.57559 0.0
S691 S 0.87792 0.62947 0.74057 0.0
N692 N 0.85173 0.61105 0.63904 0.0
N693 N 0.91185 0.60079 0.76175 0.0
C694 C 0.90302 0.57414 0.68485 0.0
C695 C 0.86991 0.57965 0.61812 0.0
loop_
_geom_bond_atom_site_label_1
_geom_bond_atom_site_label_2
_geom_bond_distance
_geom_bond_site_symmetry_2
_ccdc_geom_bond_type
H0 C5 0.930 . S
H1 C8 0.930 . S
H2 C10 0.930 . S
H3 C4 1.016 . S
C4 H3 1.016 . S
C4 N11 1.286 . S
C5 H0 0.930 . S
C5 C6 1.397 . S
C5 C7 1.361 . S
C6 C5 1.397 . S
C6 C10 1.390 . S
C7 C5 1.361 . S
C7 C8 1.393 . S
C7 N11 1.413 . S
C8 H1 0.930 . S
C8 C7 1.393 . S
C8 C9 1.399 . S
C9 C8 1.399 . S
C9 C10 1.381 . S
C10 H2 0.930 . S
C10 C6 1.390 . S
C10 C9 1.381 . S
N11 C4 1.286 . S
N11 C7 1.413 . S
H12 C17 0.930 . S
H13 C20 0.930 . S
H14 C22 0.930 . S
H15 C16 1.016 . S
C16 H15 1.016 . S
C16 N23 1.283 1_655 S
C17 H12 0.930 . S
C17 C18 1.397 . S
C17 C19 1.361 . S
C18 C17 1.397 . S
C18 C22 1.390 . S
C19 C17 1.361 . S
C19 C20 1.393 . S
C19 N23 1.412 1_655 S
C20 H13 0.930 . S
C20 C19 1.393 . S
C20 C21 1.399 . S
C21 C20 1.399 . S
C21 C22 1.381 . S
C22 H14 0.930 . S
C22 C18 1.390 . S
C22 C21 1.381 . S
N23 C16 1.283 1_455 S
N23 C19 1.412 1_455 S
H24 C29 0.931 . S
H25 C32 0.930 . S
H26 C34 0.930 . S
H27 C28 1.016 . S
C28 H27 1.016 . S
C28 N35 1.286 1_565 S
C29 H24 0.931 . S
C29 C30 1.397 . S
C29 C31 1.361 . S
C30 C29 1.397 . S
C30 C34 1.390 . S
C31 C29 1.361 . S
C31 C32 1.393 . S
C31 N35 1.413 1_565 S
C32 H25 0.930 . S
C32 C31 1.393 . S
C32 C33 1.399 . S
C33 C32 1.399 . S
C33 C34 1.381 . S
C34 H26 0.930 . S
C34 C30 1.390 . S
C34 C33 1.381 . S
N35 C28 1.286 1_545 S
N35 C31 1.413 1_545 S
H36 C41 0.930 . S
H37 C44 0.930 . S
H38 C46 0.930 . S
H39 C40 1.016 . S
C40 H39 1.016 . S
C40 N47 1.286 . S
C41 H36 0.930 . S
C41 C42 1.397 . S
C41 C43 1.361 . S
C42 C41 1.397 . S
C42 C46 1.390 . S
C43 C41 1.361 . S
C43 C44 1.393 . S
C43 N47 1.413 . S
C44 H37 0.930 . S
C44 C43 1.393 . S
C44 C45 1.399 . S
C45 C44 1.399 . S
C45 C46 1.381 . S
C46 H38 0.930 . S
C46 C42 1.390 . S
C46 C45 1.381 . S
N47 C40 1.286 . S
N47 C43 1.413 . S
H48 C53 0.930 . S
H49 C56 0.930 . S
H50 C58 0.930 . S
H51 C52 1.016 . S
C52 H51 1.016 . S
C52 N59 1.286 . S
C53 H48 0.930 . S
C53 C54 1.397 . S
C53 C55 1.361 1_556 S
C54 C53 1.397 . S
C54 C58 1.390 1_556 S
C55 C53 1.361 1_554 S
C55 C56 1.393 . S
C55 N59 1.413 . S
C56 H49 0.930 . S
C56 C55 1.393 . S
C56 C57 1.399 . S
C57 C56 1.399 . S
C57 C58 1.381 . S
C58 H50 0.930 . S
C58 C54 1.390 1_554 S
C58 C57 1.381 . S
N59 C52 1.286 . S
N59 C55 1.413 . S
H60 C65 0.930 . S
H61 C68 0.930 . S
H62 C70 0.930 . S
H63 C64 1.016 . S
C64 H63 1.016 . S
C64 N71 1.286 . S
C65 H60 0.930 . S
C65 C66 1.397 . S
C65 C67 1.361 1_556 S
C66 C65 1.397 . S
C66 C70 1.390 1_556 S
C67 C65 1.361 1_554 S
C67 C68 1.393 . S
C67 N71 1.413 . S
C68 H61 0.930 . S
C68 C67 1.393 . S
C68 C69 1.399 . S
C69 C68 1.399 . S
C69 C70 1.381 . S
C70 H62 0.930 . S
C70 C66 1.390 1_554 S
C70 C69 1.381 . S
N71 C64 1.286 . S
N71 C67 1.413 . S
H72 C77 0.930 . S
H73 C80 0.930 . S
H74 C82 0.930 . S
H75 C76 1.016 . S
C76 H75 1.016 . S
C76 N83 1.286 . S
C77 H72 0.930 . S
C77 C78 1.397 . S
C77 C79 1.361 1_556 S
C78 C77 1.397 . S
C78 C82 1.390 1_556 S
C79 C77 1.361 1_554 S
C79 C80 1.393 . S
C79 N83 1.413 . S
C80 H73 0.930 . S
C80 C79 1.393 . S
C80 C81 1.399 . S
C81 C80 1.399 . S
C81 C82 1.381 . S
C82 H74 0.930 . S
C82 C78 1.390 1_554 S
C82 C81 1.381 . S
N83 C76 1.286 . S
N83 C79 1.413 . S
H84 C89 0.930 . S
H85 C92 0.930 . S
H86 C94 0.930 . S
H87 C88 1.016 . S
C88 H87 1.016 . S
C88 N95 1.286 . S
C89 H84 0.930 . S
C89 C90 1.397 . S
C89 C91 1.361 1_556 S
C90 C89 1.397 . S
C90 C94 1.390 1_556 S
C91 C89 1.361 1_554 S
C91 C92 1.393 . S
C91 N95 1.413 . S
C92 H85 0.930 . S
C92 C91 1.393 . S
C92 C93 1.399 . S
C93 C92 1.399 . S
C93 C94 1.381 . S
C94 H86 0.930 . S
C94 C90 1.390 1_554 S
C94 C93 1.381 . S
N95 C88 1.286 . S
N95 C91 1.413 . S
Eu96 N125 2.600 . S
Eu96 N131 2.562 . S
Eu96 O140 2.462 . S
Eu96 O141 2.373 1_545 S
Eu96 O143 2.432 . S
Eu96 O144 2.291 1_655 S
Eu96 O148 2.335 1_655 S
Eu96 O151 2.372 . S
Eu96 C160 2.787 . S
C97 N98 1.365 1_554 S
C97 C100 1.405 . S
C97 C104 1.448 . S
N98 C97 1.365 1_556 S
N98 C101 1.319 . S
N98 Eu107 2.600 1_545 S
C99 C101 1.397 . S
C99 C102 1.367 . S
C99 H119 0.931 . S
C100 C97 1.405 . S
C100 C102 1.403 1_554 S
C100 C106 1.439 . S
C101 N98 1.319 . S
C101 C99 1.397 . S
C101 H112 0.930 1_545 S
C102 C99 1.367 . S
C102 C100 1.403 1_556 S
C102 H123 0.929 . S
C103 C104 1.430 . S
C103 C105 1.387 . S
C103 C109 1.404 . S
C104 C97 1.448 . S
C104 C103 1.430 . S
C104 N108 1.351 . S
C105 C103 1.387 . S
C105 C106 1.374 . S
C105 H120 0.931 . S
C106 C100 1.439 . S
C106 C105 1.374 . S
C106 H121 0.931 . S
Eu107 N98 2.600 1_565 S
Eu107 N108 2.562 1_566 S
Eu107 O142 2.335 . S
Eu107 O145 2.372 . S
Eu107 O146 2.462 . S
Eu107 O147 2.373 1_565 S
Eu107 O149 2.432 . S
Eu107 O150 2.291 1_465 S
Eu107 C171 2.787 . S
N108 C104 1.351 . S
N108 Eu107 2.562 1_544 S
N108 C110 1.325 . S
C109 C103 1.404 . S
C109 C111 1.366 . S
C109 H117 0.930 . S
C110 N108 1.325 . S
C110 C111 1.416 . S
C110 H116 0.953 . S
C111 C109 1.366 . S
C111 C110 1.416 . S
C111 H113 0.930 . S
H112 C101 0.930 1_565 S
H113 C111 0.930 . S
H114 C129 0.930 . S
H115 C136 0.930 1_455 S
H116 C110 0.953 . S
H117 C109 0.930 . S
H118 C132 0.929 1_455 S
H119 C99 0.931 . S
H120 C105 0.931 . S
H121 C106 0.931 . S
H122 C127 0.931 . S
H123 C102 0.929 . S
H124 C135 0.930 . S
N125 Eu96 2.600 . S
N125 C126 1.365 1_545 S
N125 C129 1.319 . S
C126 N125 1.365 1_565 S
C126 C128 1.405 . S
C126 C134 1.448 . S
C127 H122 0.931 . S
C127 C129 1.397 . S
C127 C130 1.367 1_545 S
C128 C126 1.405 . S
C128 C130 1.403 . S
C128 C161 1.439 . S
C129 H114 0.930 . S
C129 N125 1.319 . S
C129 C127 1.397 . S
C130 C127 1.367 1_565 S
C130 C128 1.403 . S
C130 H137 0.929 . S
N131 Eu96 2.562 . S
N131 C132 1.325 . S
N131 C134 1.351 1_545 S
C132 H118 0.929 1_655 S
C132 N131 1.325 . S
C132 C136 1.416 1_545 S
C133 C134 1.430 . S
C133 C135 1.404 . S
C133 C162 1.387 . S
C134 C126 1.448 . S
C134 N131 1.351 1_565 S
C134 C133 1.430 . S
C135 H124 0.930 . S
C135 C133 1.404 . S
C135 C136 1.366 . S
C136 H115 0.930 1_655 S
C136 C132 1.416 1_565 S
C136 C135 1.366 . S
H137 C130 0.929 . S
H138 C161 0.931 . S
H139 C162 0.931 . S
O140 Eu96 2.462 . S
O140 C160 1.252 . S
O141 Eu96 2.373 1_565 S
O141 C152 1.249 . S
O142 Eu107 2.335 . S
O142 C152 1.264 1_455 S
O143 Eu96 2.432 . S
O143 C160 1.268 . S
O144 Eu96 2.291 1_455 S
O144 C159 1.255 . S
O145 Eu107 2.372 . S
O145 C159 1.257 1_565 S
O146 Eu107 2.462 . S
O146 C171 1.252 . S
O147 Eu107 2.373 1_545 S
O147 C163 1.249 . S
O148 Eu96 2.335 1_455 S
O148 C163 1.264 . S
O149 Eu107 2.432 . S
O149 C171 1.268 . S
O150 Eu107 2.291 1_645 S
O150 C170 1.255 . S
O151 Eu96 2.372 . S
O151 C170 1.257 . S
C152 O141 1.249 . S
C152 O142 1.264 1_655 S
C153 C156 1.382 . S
C153 C158 1.390 . S
C153 C160 1.506 . S
C154 C155 1.398 . S
C154 C158 1.392 . S
C155 C154 1.398 . S
C155 C157 1.372 . S
C155 H172 0.931 . S
C156 C153 1.382 . S
C156 C157 1.390 . S
C156 H173 0.931 . S
C157 C155 1.372 . S
C157 C156 1.390 . S
C157 H174 0.929 . S
C158 C153 1.390 . S
C158 C154 1.392 . S
C158 H175 0.930 1_655 S
C159 O144 1.255 . S
C159 O145 1.257 1_545 S
C160 Eu96 2.787 . S
C160 O140 1.252 . S
C160 O143 1.268 . S
C160 C153 1.506 . S
C161 C128 1.439 . S
C161 H138 0.931 . S
C161 C162 1.374 . S
C162 C133 1.387 . S
C162 H139 0.931 . S
C162 C161 1.374 . S
C163 O147 1.249 . S
C163 O148 1.264 . S
C164 C167 1.382 . S
C164 C168 1.390 . S
C164 C171 1.506 1_554 S
C165 C166 1.398 . S
C165 C168 1.392 . S
C166 C165 1.398 . S
C166 C169 1.372 . S
C166 H176 0.931 . S
C167 C164 1.382 . S
C167 C169 1.390 . S
C167 H177 0.931 1_554 S
C168 C164 1.390 . S
C168 C165 1.392 . S
C168 H178 0.930 . S
C169 C166 1.372 . S
C169 C167 1.390 . S
C169 H179 0.929 . S
C170 O150 1.255 . S
C170 O151 1.257 . S
C171 Eu107 2.787 . S
C171 O146 1.252 . S
C171 O149 1.268 . S
C171 C164 1.506 1_556 S
H172 C155 0.931 . S
H173 C156 0.931 . S
H174 C157 0.929 . S
H175 C158 0.930 1_455 S
H176 C166 0.931 . S
H177 C167 0.931 1_556 S
H178 C168 0.930 . S
H179 C169 0.929 . S
Eu180 N209 2.600 . S
Eu180 N215 2.562 . S
Eu180 O224 2.462 . S
Eu180 O225 2.373 . S
Eu180 O227 2.432 1_556 S
Eu180 O228 2.291 . S
Eu180 O232 2.335 1_545 S
Eu180 O235 2.372 . S
Eu180 C244 2.787 1_556 S
C181 N182 1.365 . S
C181 C184 1.405 . S
C181 C188 1.448 . S
N182 C181 1.365 . S
N182 C185 1.319 . S
N182 Eu191 2.600 . S
C183 C185 1.397 . S
C183 C186 1.367 . S
C183 H203 0.931 . S
C184 C181 1.405 . S
C184 C186 1.403 . S
C184 C190 1.439 . S
C185 N182 1.319 . S
C185 C183 1.397 . S
C185 H196 0.930 . S
C186 C183 1.367 . S
C186 C184 1.403 . S
C186 H207 0.929 . S
C187 C188 1.430 . S
C187 C189 1.387 . S
C187 C193 1.404 . S
C188 C181 1.448 . S
C188 C187 1.430 . S
C188 N192 1.351 . S
C189 C187 1.387 . S
C189 C190 1.374 . S
C189 H204 0.931 . S
C190 C184 1.439 . S
C190 C189 1.374 . S
C190 H205 0.931 . S
Eu191 N182 2.600 . S
Eu191 N192 2.562 . S
Eu191 O226 2.335 1_565 S
Eu191 O229 2.372 . S
Eu191 O230 2.462 . S
Eu191 O231 2.373 . S
Eu191 O233 2.432 . S
Eu191 O234 2.291 1_565 S
Eu191 C255 2.787 . S
N192 C188 1.351 . S
N192 Eu191 2.562 . S
N192 C194 1.325 . S
C193 C187 1.404 . S
C193 C195 1.366 . S
C193 H201 0.930 . S
C194 N192 1.325 . S
C194 C195 1.416 . S
C194 H200 0.929 . S
C195 C193 1.366 . S
C195 C194 1.416 . S
C195 H197 0.930 . S
H196 C185 0.930 . S
H197 C195 0.930 . S
H198 C213 0.932 . S
H199 C220 0.930 . S
H200 C194 0.929 . S
H201 C193 0.930 . S
H202 C216 0.929 . S
H203 C183 0.931 . S
H204 C189 0.931 . S
H205 C190 0.931 . S
H206 C211 0.931 . S
H207 C186 0.929 . S
H208 C219 0.930 . S
N209 Eu180 2.600 . S
N209 C210 1.365 . S
N209 C213 1.314 1_556 S
C210 N209 1.365 . S
C210 C212 1.405 . S
C210 C218 1.448 . S
C211 H206 0.931 . S
C211 C213 1.399 . S
C211 C214 1.367 1_554 S
C212 C210 1.405 . S
C212 C214 1.403 . S
C212 C245 1.439 . S
C213 H198 0.932 . S
C213 N209 1.314 1_554 S
C213 C211 1.399 . S
C214 C211 1.367 1_556 S
C214 C212 1.403 . S
C214 H221 0.929 1_556 S
N215 Eu180 2.562 . S
N215 C216 1.325 . S
N215 C218 1.351 . S
C216 H202 0.929 . S
C216 N215 1.325 . S
C216 C220 1.416 . S
C217 C218 1.430 . S
C217 C219 1.404 . S
C217 C246 1.387 . S
C218 C210 1.448 . S
C218 N215 1.351 . S
C218 C217 1.430 . S
C219 H208 0.930 . S
C219 C217 1.404 . S
C219 C220 1.366 . S
C220 H199 0.930 . S
C220 C216 1.416 . S
C220 C219 1.366 . S
H221 C214 0.929 1_554 S
H222 C245 0.931 . S
H223 C246 0.931 . S
O224 Eu180 2.462 . S
O224 C244 1.252 1_556 S
O225 Eu180 2.373 . S
O225 C236 1.249 . S
O226 Eu191 2.335 1_545 S
O226 C236 1.264 . S
O227 Eu180 2.432 1_554 S
O227 C244 1.268 . S
O228 Eu180 2.291 . S
O228 C243 1.272 . S
O229 Eu191 2.372 . S
O229 C243 1.246 1_565 S
O230 Eu191 2.462 . S
O230 C255 1.252 . S
O231 Eu191 2.373 . S
O231 C247 1.249 . S
O232 Eu180 2.335 1_565 S
O232 C247 1.264 . S
O233 Eu191 2.432 . S
O233 C255 1.268 . S
O234 Eu191 2.291 1_545 S
O234 C254 1.255 . S
O235 Eu180 2.372 . S
O235 C254 1.257 . S
C236 O225 1.249 . S
C236 O226 1.264 . S
C237 C240 1.382 . S
C237 C242 1.390 . S
C237 C244 1.506 . S
C238 C239 1.398 . S
C238 C242 1.392 . S
C239 C238 1.398 . S
C239 C241 1.372 . S
C239 H256 0.931 . S
C240 C237 1.382 . S
C240 C241 1.390 . S
C240 H257 0.931 . S
C241 C239 1.372 . S
C241 C240 1.390 . S
C241 H258 0.929 . S
C242 C237 1.390 . S
C242 C238 1.392 . S
C242 H259 0.930 . S
C243 O228 1.272 . S
C243 O229 1.246 1_545 S
C244 Eu180 2.787 1_554 S
C244 O224 1.252 1_554 S
C244 O227 1.268 . S
C244 C237 1.506 . S
C245 C212 1.439 . S
C245 H222 0.931 . S
C245 C246 1.374 . S
C246 C217 1.387 . S
C246 H223 0.931 . S
C246 C245 1.374 . S
C247 O231 1.249 . S
C247 O232 1.264 . S
C248 C251 1.382 . S
C248 C252 1.390 . S
C248 C255 1.506 . S
C249 C250 1.398 . S
C249 C252 1.392 . S
C250 C249 1.398 . S
C250 C253 1.372 . S
C250 H260 0.931 . S
C251 C248 1.382 . S
C251 C253 1.390 . S
C251 H261 0.931 . S
C252 C248 1.390 . S
C252 C249 1.392 . S
C252 H262 0.930 1_565 S
C253 C250 1.372 . S
C253 C251 1.390 . S
C253 H263 0.929 . S
C254 O234 1.255 . S
C254 O235 1.257 . S
C255 Eu191 2.787 . S
C255 O230 1.252 . S
C255 O233 1.268 . S
C255 C248 1.506 . S
H256 C239 0.931 . S
H257 C240 0.931 . S
H258 C241 0.929 . S
H259 C242 0.930 . S
H260 C250 0.931 . S
H261 C251 0.931 . S
H262 C252 0.930 1_545 S
H263 C253 0.929 . S
Eu264 N293 2.600 . S
Eu264 N299 2.562 . S
Eu264 O308 2.462 . S
Eu264 O309 2.373 . S
Eu264 O311 2.432 . S
Eu264 O312 2.291 . S
Eu264 O316 2.335 . S
Eu264 O319 2.372 . S
Eu264 C328 2.787 . S
C265 N266 1.365 1_554 S
C265 C268 1.405 . S
C265 C272 1.448 . S
N266 C265 1.365 1_556 S
N266 C269 1.319 . S
N266 Eu275 2.600 . S
C267 C269 1.397 . S
C267 C270 1.367 . S
C267 H287 0.931 . S
C268 C265 1.405 . S
C268 C270 1.403 1_554 S
C268 C274 1.439 . S
C269 N266 1.319 . S
C269 C267 1.397 . S
C269 H280 0.930 . S
C270 C267 1.367 . S
C270 C268 1.403 1_556 S
C270 H291 0.929 . S
C271 C272 1.430 . S
C271 C273 1.387 . S
C271 C277 1.404 . S
C272 C265 1.448 . S
C272 C271 1.430 . S
C272 N276 1.351 . S
C273 C271 1.387 . S
C273 C274 1.374 . S
C273 H288 0.931 . S
C274 C268 1.439 . S
C274 C273 1.374 . S
C274 H289 0.931 . S
Eu275 N266 2.600 . S
Eu275 N276 2.562 1_556 S
Eu275 O310 2.335 . S
Eu275 O313 2.372 . S
Eu275 O314 2.462 . S
Eu275 O315 2.373 . S
Eu275 O317 2.432 . S
Eu275 O318 2.291 . S
Eu275 C339 2.787 . S
N276 C272 1.351 . S
N276 Eu275 2.562 1_554 S
N276 C278 1.325 . S
C277 C271 1.404 . S
C277 C279 1.366 . S
C277 H285 0.930 . S
C278 N276 1.325 . S
C278 C279 1.416 . S
C278 H284 0.929 . S
C279 C277 1.366 . S
C279 C278 1.416 . S
C279 H281 0.930 . S
H280 C269 0.930 . S
H281 C279 0.930 . S
H282 C297 0.930 . S
H283 C304 0.930 . S
H284 C278 0.929 . S
H285 C277 0.930 . S
H286 C300 0.929 . S
H287 C267 0.931 . S
H288 C273 0.931 . S
H289 C274 0.931 . S
H290 C295 0.931 . S
H291 C270 0.929 . S
H292 C303 0.930 . S
N293 Eu264 2.600 . S
N293 C294 1.365 . S
N293 C297 1.319 . S
C294 N293 1.365 . S
C294 C296 1.405 . S
C294 C302 1.448 . S
C295 H290 0.931 . S
C295 C297 1.397 . S
C295 C298 1.367 . S
C296 C294 1.405 . S
C296 C298 1.403 . S
C296 C329 1.439 . S
C297 H282 0.930 . S
C297 N293 1.319 . S
C297 C295 1.397 . S
C298 C295 1.367 . S
C298 C296 1.403 . S
C298 H305 0.929 . S
N299 Eu264 2.562 . S
N299 C300 1.325 . S
N299 C302 1.351 . S
C300 H286 0.929 . S
C300 N299 1.325 . S
C300 C304 1.416 . S
C301 C302 1.430 . S
C301 C303 1.404 . S
C301 C330 1.387 . S
C302 C294 1.448 . S
C302 N299 1.351 . S
C302 C301 1.430 . S
C303 H292 0.930 . S
C303 C301 1.404 . S
C303 C304 1.366 . S
C304 H283 0.930 . S
C304 C300 1.416 . S
C304 C303 1.366 . S
H305 C298 0.929 . S
H306 C329 0.931 . S
H307 C330 0.931 . S
O308 Eu264 2.462 . S
O308 C328 1.252 . S
O309 Eu264 2.373 . S
O309 C320 1.249 . S
O310 Eu275 2.335 . S
O310 C320 1.264 . S
O311 Eu264 2.432 . S
O311 C328 1.268 . S
O312 Eu264 2.291 . S
O312 C327 1.255 . S
O313 Eu275 2.372 . S
O313 C327 1.257 . S
O314 Eu275 2.462 . S
O314 C339 1.252 . S
O315 Eu275 2.373 . S
O315 C331 1.249 . S
O316 Eu264 2.335 . S
O316 C331 1.264 . S
O317 Eu275 2.432 . S
O317 C339 1.268 . S
O318 Eu275 2.291 . S
O318 C338 1.255 . S
O319 Eu264 2.372 . S
O319 C338 1.257 . S
C320 O309 1.249 . S
C320 O310 1.264 . S
C321 C324 1.382 . S
C321 C326 1.390 . S
C321 C328 1.506 . S
C322 C323 1.398 . S
C322 C326 1.392 . S
C323 C322 1.398 . S
C323 C325 1.372 . S
C323 H340 0.931 . S
C324 C321 1.382 . S
C324 C325 1.390 . S
C324 H341 0.931 . S
C325 C323 1.372 . S
C325 C324 1.390 . S
C325 H342 0.929 . S
C326 C321 1.390 . S
C326 C322 1.392 . S
C326 H343 0.930 . S
C327 O312 1.255 . S
C327 O313 1.257 . S
C328 Eu264 2.787 . S
C328 O308 1.252 . S
C328 O311 1.268 . S
C328 C321 1.506 . S
C329 C296 1.439 . S
C329 H306 0.931 . S
C329 C330 1.374 . S
C330 C301 1.387 . S
C330 H307 0.931 . S
C330 C329 1.374 . S
C331 O315 1.249 . S
C331 O316 1.264 . S
C332 C335 1.382 . S
C332 C336 1.390 . S
C332 C339 1.506 1_554 S
C333 C334 1.398 . S
C333 C336 1.392 . S
C334 C333 1.398 . S
C334 C337 1.372 . S
C334 H344 0.931 . S
C335 C332 1.382 . S
C335 C337 1.390 . S
C335 H345 0.931 1_554 S
C336 C332 1.390 . S
C336 C333 1.392 . S
C336 H346 0.930 . S
C337 C334 1.372 . S
C337 C335 1.390 . S
C337 H347 0.929 . S
C338 O318 1.255 . S
C338 O319 1.257 . S
C339 Eu275 2.787 . S
C339 O314 1.252 . S
C339 O317 1.268 . S
C339 C332 1.506 1_556 S
H340 C323 0.931 . S
H341 C324 0.931 . S
H342 C325 0.929 . S
H343 C326 0.930 . S
H344 C334 0.931 . S
H345 C335 0.931 1_556 S
H346 C336 0.930 . S
H347 C337 0.929 . S
Eu348 N377 2.600 . S
Eu348 N383 2.562 . S
Eu348 O392 2.462 . S
Eu348 O393 2.373 1_455 S
Eu348 O395 2.432 . S
Eu348 O396 2.291 . S
Eu348 O400 2.335 . S
Eu348 O403 2.372 . S
Eu348 C412 2.787 . S
C349 N350 1.365 1_554 S
C349 C352 1.405 . S
C349 C356 1.448 . S
N350 C349 1.365 1_556 S
N350 C353 1.321 . S
N350 Eu359 2.600 1_455 S
C351 C353 1.404 . S
C351 C354 1.367 . S
C351 H371 0.931 . S
C352 C349 1.405 . S
C352 C354 1.403 1_554 S
C352 C358 1.439 . S
C353 N350 1.321 . S
C353 C351 1.404 . S
C353 H364 0.920 1_455 S
C354 C351 1.367 . S
C354 C352 1.403 1_556 S
C354 H375 0.929 . S
C355 C356 1.430 . S
C355 C357 1.387 . S
C355 C361 1.404 . S
C356 C349 1.448 . S
C356 C355 1.430 . S
C356 N360 1.351 . S
C357 C355 1.387 . S
C357 C358 1.374 . S
C357 H372 0.931 . S
C358 C352 1.439 . S
C358 C357 1.374 . S
C358 H373 0.931 . S
Eu359 N350 2.600 1_655 S
Eu359 N360 2.562 1_656 S
Eu359 O394 2.335 . S
Eu359 O397 2.372 . S
Eu359 O398 2.462 . S
Eu359 O399 2.373 1_655 S
Eu359 O401 2.432 . S
Eu359 O402 2.291 1_655 S
Eu359 C423 2.787 . S
N360 C356 1.351 . S
N360 Eu359 2.562 1_454 S
N360 C362 1.325 . S
C361 C355 1.404 . S
C361 C363 1.366 . S
C361 H369 0.930 . S
C362 N360 1.325 . S
C362 C363 1.416 . S
C362 H368 0.929 . S
C363 C361 1.366 . S
C363 C362 1.416 . S
C363 H365 0.930 . S
H364 C353 0.920 1_655 S
H365 C363 0.930 . S
H366 C381 0.930 . S
H367 C388 0.930 . S
H368 C362 0.929 . S
H369 C361 0.930 . S
H370 C384 0.929 . S
H371 C351 0.931 . S
H372 C357 0.931 . S
H373 C358 0.931 . S
H374 C379 0.931 . S
H375 C354 0.929 . S
H376 C387 0.930 . S
N377 Eu348 2.600 . S
N377 C378 1.365 1_455 S
N377 C381 1.319 . S
C378 N377 1.365 1_655 S
C378 C380 1.405 . S
C378 C386 1.448 . S
C379 H374 0.931 . S
C379 C381 1.397 . S
C379 C382 1.367 1_455 S
C380 C378 1.405 . S
C380 C382 1.403 . S
C380 C413 1.439 . S
C381 H366 0.930 . S
C381 N377 1.319 . S
C381 C379 1.397 . S
C382 C379 1.367 1_655 S
C382 C380 1.403 . S
C382 H389 0.929 . S
N383 Eu348 2.562 . S
N383 C384 1.325 . S
N383 C386 1.351 1_455 S
C384 H370 0.929 . S
C384 N383 1.325 . S
C384 C388 1.416 1_455 S
C385 C386 1.430 . S
C385 C387 1.404 . S
C385 C414 1.387 . S
C386 C378 1.448 . S
C386 N383 1.351 1_655 S
C386 C385 1.430 . S
C387 H376 0.930 . S
C387 C385 1.404 . S
C387 C388 1.366 . S
C388 H367 0.930 . S
C388 C384 1.416 1_655 S
C388 C387 1.366 . S
H389 C382 0.929 . S
H390 C413 0.931 . S
H391 C414 0.931 . S
O392 Eu348 2.462 . S
O392 C412 1.252 . S
O393 Eu348 2.373 1_655 S
O393 C404 1.249 . S
O394 Eu359 2.335 . S
O394 C404 1.264 . S
O395 Eu348 2.432 . S
O395 C412 1.268 . S
O396 Eu348 2.291 . S
O396 C411 1.255 . S
O397 Eu359 2.372 . S
O397 C411 1.257 1_655 S
O398 Eu359 2.462 . S
O398 C423 1.252 . S
O399 Eu359 2.373 1_455 S
O399 C415 1.249 . S
O400 Eu348 2.335 . S
O400 C415 1.264 . S
O401 Eu359 2.432 . S
O401 C423 1.268 . S
O402 Eu359 2.291 1_455 S
O402 C422 1.255 . S
O403 Eu348 2.372 . S
O403 C422 1.257 . S
C404 O393 1.249 . S
C404 O394 1.264 . S
C405 C408 1.382 . S
C405 C410 1.390 . S
C405 C412 1.506 . S
C406 C407 1.398 . S
C406 C410 1.392 . S
C407 C406 1.398 . S
C407 C409 1.372 . S
C407 H424 0.931 . S
C408 C405 1.382 . S
C408 C409 1.390 . S
C408 H425 0.931 . S
C409 C407 1.372 . S
C409 C408 1.390 . S
C409 H426 0.929 . S
C410 C405 1.390 . S
C410 C406 1.392 . S
C410 H427 0.930 . S
C411 O396 1.255 . S
C411 O397 1.257 1_455 S
C412 Eu348 2.787 . S
C412 O392 1.252 . S
C412 O395 1.268 . S
C412 C405 1.506 . S
C413 C380 1.439 . S
C413 H390 0.931 . S
C413 C414 1.374 . S
C414 C385 1.387 . S
C414 H391 0.931 . S
C414 C413 1.374 . S
C415 O399 1.249 . S
C415 O400 1.264 . S
C416 C419 1.382 . S
C416 C420 1.390 . S
C416 C423 1.506 1_554 S
C417 C418 1.398 . S
C417 C420 1.392 . S
C418 C417 1.398 . S
C418 C421 1.372 . S
C418 H428 0.931 . S
C419 C416 1.382 . S
C419 C421 1.390 . S
C419 H429 0.931 1_554 S
C420 C416 1.390 . S
C420 C417 1.392 . S
C420 H430 0.930 . S
C421 C418 1.372 . S
C421 C419 1.390 . S
C421 H431 0.929 . S
C422 O402 1.255 . S
C422 O403 1.257 . S
C423 Eu359 2.787 . S
C423 O398 1.252 . S
C423 O401 1.268 . S
C423 C416 1.506 1_556 S
H424 C407 0.931 . S
H425 C408 0.931 . S
H426 C409 0.929 . S
H427 C410 0.930 . S
H428 C418 0.931 . S
H429 C419 0.931 1_556 S
H430 C420 0.930 . S
H431 C421 0.929 . S
C432 C433 1.369 . S
C432 C434 1.419 1_545 S
C432 H436 0.930 1_545 S
C433 C432 1.369 . S
C433 C442 1.429 . S
C434 C432 1.419 1_565 S
C434 C435 1.363 1_565 S
C434 H437 0.929 . S
C435 C434 1.363 1_545 S
C435 C441 1.428 . S
H436 C432 0.930 1_565 S
H437 C434 0.929 . S
S438 N439 1.613 . S
S438 N440 1.610 . S
N439 S438 1.613 . S
N439 C442 1.350 . S
N440 S438 1.610 . S
N440 C441 1.351 . S
C441 C435 1.428 . S
C441 N440 1.351 . S
C441 C442 1.434 . S
C442 C433 1.429 . S
C442 N439 1.350 . S
C442 C441 1.434 . S
C443 C444 1.369 . S
C443 C445 1.419 . S
C443 H447 0.930 . S
C444 C443 1.369 . S
C444 C453 1.429 . S
C445 C443 1.419 . S
C445 C446 1.363 . S
C445 H448 0.929 . S
C446 C445 1.363 . S
C446 C452 1.428 . S
H447 C443 0.930 . S
H448 C445 0.929 . S
S449 N450 1.613 . S
S449 N451 1.610 . S
N450 S449 1.613 . S
N450 C453 1.350 . S
N451 S449 1.610 . S
N451 C452 1.351 . S
C452 C446 1.428 . S
C452 N451 1.351 . S
C452 C453 1.434 . S
C453 C444 1.429 . S
C453 N450 1.350 . S
C453 C452 1.434 . S
C454 C455 1.369 . S
C454 C456 1.419 . S
C454 H458 0.930 . S
C455 C454 1.369 . S
C455 C464 1.429 . S
C456 C454 1.419 . S
C456 C457 1.363 . S
C456 H459 0.929 . S
C457 C456 1.363 . S
C457 C463 1.428 . S
H458 C454 0.930 . S
H459 C456 0.929 . S
S460 N461 1.613 . S
S460 N462 1.610 . S
N461 S460 1.613 . S
N461 C464 1.350 . S
N462 S460 1.610 . S
N462 C463 1.351 . S
C463 C457 1.428 . S
C463 N462 1.351 . S
C463 C464 1.434 . S
C464 C455 1.429 . S
C464 N461 1.350 . S
C464 C463 1.434 . S
C465 C466 1.369 . S
C465 C467 1.419 . S
C465 H469 0.930 1_455 S
C466 C465 1.369 . S
C466 C475 1.429 . S
C467 C465 1.419 . S
C467 C468 1.363 . S
C467 H470 0.929 1_455 S
C468 C467 1.363 . S
C468 C474 1.428 . S
H469 C465 0.930 1_655 S
H470 C467 0.929 1_655 S
S471 N472 1.613 . S
S471 N473 1.610 . S
N472 S471 1.613 . S
N472 C475 1.350 . S
N473 S471 1.610 . S
N473 C474 1.351 . S
C474 C468 1.428 . S
C474 N473 1.351 . S
C474 C475 1.434 . S
C475 C466 1.429 . S
C475 N472 1.350 . S
C475 C474 1.434 . S
C476 C477 1.369 . S
C476 C478 1.419 . S
C476 H480 0.930 . S
C477 C476 1.369 . S
C477 C486 1.429 1_565 S
C478 C476 1.419 . S
C478 C479 1.363 . S
C478 H481 0.929 1_554 S
C479 C478 1.363 . S
C479 C485 1.428 1_565 S
H480 C476 0.930 . S
H481 C478 0.929 1_556 S
S482 N483 1.613 . S
S482 N484 1.610 . S
N483 S482 1.613 . S
N483 C486 1.350 . S
N484 S482 1.610 . S
N484 C485 1.351 . S
C485 C479 1.428 1_545 S
C485 N484 1.351 . S
C485 C486 1.434 . S
C486 C477 1.429 1_545 S
C486 N483 1.350 . S
C486 C485 1.434 . S
C487 C488 1.369 . S
C487 C489 1.419 . S
C487 H491 0.930 . S
C488 C487 1.369 . S
C488 C497 1.429 . S
C489 C487 1.419 . S
C489 C490 1.363 . S
C489 H492 0.929 . S
C490 C489 1.363 . S
C490 C496 1.428 . S
H491 C487 0.930 . S
H492 C489 0.929 . S
S493 N494 1.613 . S
S493 N495 1.610 1_554 S
N494 S493 1.613 . S
N494 C497 1.350 . S
N495 S493 1.610 1_556 S
N495 C496 1.351 1_556 S
C496 C490 1.428 . S
C496 N495 1.351 1_554 S
C496 C497 1.434 . S
C497 C488 1.429 . S
C497 N494 1.350 . S
C497 C496 1.434 . S
C498 C499 1.369 . S
C498 C500 1.419 . S
C498 H502 0.930 . S
C499 C498 1.369 . S
C499 C508 1.429 . S
C500 C498 1.419 . S
C500 C501 1.363 . S
C500 H503 0.929 1_554 S
C501 C500 1.363 . S
C501 C507 1.428 . S
H502 C498 0.930 . S
H503 C500 0.929 1_556 S
S504 N505 1.613 . S
S504 N506 1.610 . S
N505 S504 1.613 . S
N505 C508 1.350 . S
N506 S504 1.610 . S
N506 C507 1.351 . S
C507 C501 1.428 . S
C507 N506 1.351 . S
C507 C508 1.434 . S
C508 C499 1.429 . S
C508 N505 1.350 . S
C508 C507 1.434 . S
C509 C510 1.369 1_455 S
C509 C511 1.419 . S
C509 H513 0.930 . S
C510 C509 1.369 1_655 S
C510 C519 1.429 . S
C511 C509 1.419 . S
C511 C512 1.363 1_455 S
C511 H514 0.929 . S
C512 C511 1.363 1_655 S
C512 C518 1.428 . S
H513 C509 0.930 . S
H514 C511 0.929 . S
S515 N516 1.613 . S
S515 N517 1.610 . S
N516 S515 1.613 . S
N516 C519 1.350 . S
N517 S515 1.610 . S
N517 C518 1.351 . S
C518 C512 1.428 . S
C518 N517 1.351 . S
C518 C519 1.434 . S
C519 C510 1.429 . S
C519 N516 1.350 . S
C519 C518 1.434 . S
C520 C521 1.369 . S
C520 C522 1.419 . S
C520 H524 0.930 . S
C521 C520 1.369 . S
C521 C530 1.429 . S
C522 C520 1.419 . S
C522 C523 1.363 1_455 S
C522 H525 0.929 . S
C523 C522 1.363 1_655 S
C523 C529 1.428 . S
H524 C520 0.930 . S
H525 C522 0.929 . S
S526 N527 1.613 1_655 S
S526 N528 1.610 . S
N527 S526 1.613 1_455 S
N527 C530 1.350 . S
N528 S526 1.610 . S
N528 C529 1.351 . S
C529 C523 1.428 . S
C529 N528 1.351 . S
C529 C530 1.434 1_655 S
C530 C521 1.429 . S
C530 N527 1.350 . S
C530 C529 1.434 1_455 S
C531 C532 1.369 . S
C531 C533 1.419 . S
C531 H535 0.930 . S
C532 C531 1.369 . S
C532 C541 1.429 . S
C533 C531 1.419 . S
C533 C534 1.363 . S
C533 H536 0.929 . S
C534 C533 1.363 . S
C534 C540 1.428 1_545 S
H535 C531 0.930 . S
H536 C533 0.929 . S
S537 N538 1.613 1_565 S
S537 N539 1.610 . S
N538 S537 1.613 1_545 S
N538 C541 1.350 . S
N539 S537 1.610 . S
N539 C540 1.351 . S
C540 C534 1.428 1_565 S
C540 N539 1.351 . S
C540 C541 1.434 1_565 S
C541 C532 1.429 . S
C541 N538 1.350 . S
C541 C540 1.434 1_545 S
C542 C543 1.369 . S
C542 C544 1.419 . S
C542 H546 0.930 . S
C543 C542 1.369 . S
C543 C552 1.429 . S
C544 C542 1.419 . S
C544 C545 1.363 . S
C544 H547 0.929 . S
C545 C544 1.363 . S
C545 C551 1.428 . S
H546 C542 0.930 . S
H547 C544 0.929 . S
S548 N549 1.613 . S
S548 N550 1.610 . S
N549 S548 1.613 . S
N549 C552 1.350 . S
N550 S548 1.610 . S
N550 C551 1.351 . S
C551 C545 1.428 . S
C551 N550 1.351 . S
C551 C552 1.434 . S
C552 C543 1.429 . S
C552 N549 1.350 . S
C552 C551 1.434 . S
C553 C554 1.369 . S
C553 C555 1.419 . S
C553 H557 0.930 . S
C554 C553 1.369 . S
C554 C563 1.429 . S
C555 C553 1.419 . S
C555 C556 1.363 . S
C555 H558 0.929 . S
C556 C555 1.363 . S
C556 C562 1.428 . S
H557 C553 0.930 . S
H558 C555 0.929 . S
S559 N560 1.613 . S
S559 N561 1.610 . S
N560 S559 1.613 . S
N560 C563 1.350 . S
N561 S559 1.610 . S
N561 C562 1.351 . S
C562 C556 1.428 . S
C562 N561 1.351 . S
C562 C563 1.434 . S
C563 C554 1.429 . S
C563 N560 1.350 . S
C563 C562 1.434 . S
C564 C565 1.369 1_455 S
C564 C566 1.419 . S
C564 H568 0.930 . S
C565 C564 1.369 1_655 S
C565 C574 1.429 . S
C566 C564 1.419 . S
C566 C567 1.363 . S
C566 H569 0.929 . S
C567 C566 1.363 . S
C567 C573 1.428 . S
H568 C564 0.930 . S
H569 C566 0.929 . S
S570 N571 1.613 . S
S570 N572 1.610 . S
N571 S570 1.613 . S
N571 C574 1.350 . S
N572 S570 1.610 . S
N572 C573 1.351 1_655 S
C573 C567 1.428 . S
C573 N572 1.351 1_455 S
C573 C574 1.434 1_455 S
C574 C565 1.429 . S
C574 N571 1.350 . S
C574 C573 1.434 1_655 S
C575 C576 1.369 1_545 S
C575 C577 1.419 . S
C575 H579 0.930 . S
C576 C575 1.369 1_565 S
C576 C585 1.429 . S
C577 C575 1.419 . S
C577 C578 1.363 . S
C577 H580 0.929 . S
C578 C577 1.363 . S
C578 C584 1.428 1_545 S
H579 C575 0.930 . S
H580 C577 0.929 . S
S581 N582 1.613 . S
S581 N583 1.610 . S
N582 S581 1.613 . S
N582 C585 1.350 . S
N583 S581 1.610 . S
N583 C584 1.351 . S
C584 C578 1.428 1_565 S
C584 N583 1.351 . S
C584 C585 1.434 . S
C585 C576 1.429 . S
C585 N582 1.350 . S
C585 C584 1.434 . S
C586 C587 1.369 . S
C586 C588 1.419 . S
C586 H590 0.930 . S
C587 C586 1.369 . S
C587 C596 1.429 . S
C588 C586 1.419 . S
C588 C589 1.363 . S
C588 H591 0.929 . S
C589 C588 1.363 . S
C589 C595 1.428 . S
H590 C586 0.930 . S
H591 C588 0.929 . S
S592 N593 1.620 . S
S592 N594 1.612 . S
N593 S592 1.620 . S
N593 C596 1.350 . S
N594 S592 1.612 . S
N594 C595 1.351 . S
C595 C589 1.428 . S
C595 N594 1.351 . S
C595 C596 1.434 . S
C596 C587 1.429 . S
C596 N593 1.350 . S
C596 C595 1.434 . S
C597 C598 1.369 . S
C597 C599 1.419 . S
C597 H601 0.930 . S
C598 C597 1.369 . S
C598 C607 1.429 . S
C599 C597 1.419 . S
C599 C600 1.363 . S
C599 H602 0.929 . S
C600 C599 1.363 . S
C600 C606 1.428 . S
H601 C597 0.930 . S
H602 C599 0.929 . S
S603 N604 1.613 . S
S603 N605 1.610 . S
N604 S603 1.613 . S
N604 C607 1.350 . S
N605 S603 1.610 . S
N605 C606 1.351 . S
C606 C600 1.428 . S
C606 N605 1.351 . S
C606 C607 1.434 . S
C607 C598 1.429 . S
C607 N604 1.350 . S
C607 C606 1.434 . S
C608 C609 1.369 . S
C608 C610 1.419 1_455 S
C608 H612 0.930 1_455 S
C609 C608 1.369 . S
C609 C618 1.429 . S
C610 C608 1.419 1_655 S
C610 C611 1.363 1_655 S
C610 H613 0.929 . S
C611 C610 1.363 1_455 S
C611 C617 1.428 . S
H612 C608 0.930 1_655 S
H613 C610 0.929 . S
S614 N615 1.613 . S
S614 N616 1.610 . S
N615 S614 1.613 . S
N615 C618 1.350 . S
N616 S614 1.610 . S
N616 C617 1.351 . S
C617 C611 1.428 . S
C617 N616 1.351 . S
C617 C618 1.434 . S
C618 C609 1.429 . S
C618 N615 1.350 . S
C618 C617 1.434 . S
C619 C620 1.369 . S
C619 C621 1.419 . S
C619 H623 0.930 . S
C620 C619 1.369 . S
C620 C629 1.429 . S
C621 C619 1.419 . S
C621 C622 1.363 . S
C621 H624 0.929 . S
C622 C621 1.363 . S
C622 C628 1.428 . S
H623 C619 0.930 . S
H624 C621 0.929 . S
S625 N626 1.613 1_554 S
S625 N627 1.610 1_554 S
N626 S625 1.613 1_556 S
N626 C629 1.350 1_565 S
N627 S625 1.610 1_556 S
N627 C628 1.351 1_565 S
C628 C622 1.428 . S
C628 N627 1.351 1_545 S
C628 C629 1.434 . S
C629 C620 1.429 . S
C629 N626 1.350 1_545 S
C629 C628 1.434 . S
C630 C631 1.369 . S
C630 C632 1.419 . S
C630 H634 0.930 . S
C631 C630 1.369 . S
C631 C640 1.429 . S
C632 C630 1.419 . S
C632 C633 1.363 . S
C632 H635 0.929 . S
C633 C632 1.363 . S
C633 C639 1.428 . S
H634 C630 0.930 . S
H635 C632 0.929 . S
S636 N637 1.613 . S
S636 N638 1.610 . S
N637 S636 1.613 . S
N637 C640 1.350 1_554 S
N638 S636 1.610 . S
N638 C639 1.351 1_554 S
C639 C633 1.428 . S
C639 N638 1.351 1_556 S
C639 C640 1.434 . S
C640 C631 1.429 . S
C640 N637 1.350 1_556 S
C640 C639 1.434 . S
C641 C642 1.369 . S
C641 C643 1.419 . S
C641 H645 0.930 1_556 S
C642 C641 1.369 . S
C642 C651 1.429 . S
C643 C641 1.419 . S
C643 C644 1.363 . S
C643 H646 0.929 1_556 S
C644 C643 1.363 . S
C644 C650 1.428 . S
H645 C641 0.930 1_554 S
H646 C643 0.929 1_554 S
S647 N648 1.613 . S
S647 N649 1.610 . S
N648 S647 1.613 . S
N648 C651 1.350 . S
N649 S647 1.610 . S
N649 C650 1.351 . S
C650 C644 1.428 . S
C650 N649 1.351 . S
C650 C651 1.434 . S
C651 C642 1.429 . S
C651 N648 1.350 . S
C651 C650 1.434 . S
C652 C653 1.369 . S
C652 C654 1.419 . S
C652 H656 0.930 . S
C653 C652 1.369 . S
C653 C662 1.429 1_655 S
C654 C652 1.419 . S
C654 C655 1.363 . S
C654 H657 0.929 . S
C655 C654 1.363 . S
C655 C661 1.428 1_655 S
H656 C652 0.930 . S
H657 C654 0.929 . S
S658 N659 1.613 . S
S658 N660 1.610 . S
N659 S658 1.613 . S
N659 C662 1.350 . S
N660 S658 1.610 . S
N660 C661 1.351 . S
C661 C655 1.428 1_455 S
C661 N660 1.351 . S
C661 C662 1.434 . S
C662 C653 1.429 1_455 S
C662 N659 1.350 . S
C662 C661 1.434 . S
C663 C664 1.369 . S
C663 C665 1.419 . S
C663 H667 0.930 . S
C664 C663 1.369 . S
C664 C673 1.429 1_565 S
C665 C663 1.419 . S
C665 C666 1.363 . S
C665 H668 0.929 . S
C666 C665 1.363 . S
C666 C672 1.428 1_565 S
H667 C663 0.930 . S
H668 C665 0.929 . S
S669 N670 1.613 . S
S669 N671 1.610 . S
N670 S669 1.613 . S
N670 C673 1.350 . S
N671 S669 1.610 . S
N671 C672 1.351 . S
C672 C666 1.428 1_545 S
C672 N671 1.351 . S
C672 C673 1.434 . S
C673 C664 1.429 1_545 S
C673 N670 1.350 . S
C673 C672 1.434 . S
C674 C675 1.369 . S
C674 C676 1.419 . S
C674 H678 0.930 . S
C675 C674 1.369 . S
C675 C684 1.429 . S
C676 C674 1.419 . S
C676 C677 1.363 . S
C676 H679 0.929 . S
C677 C676 1.363 . S
C677 C683 1.428 . S
H678 C674 0.930 . S
H679 C676 0.929 . S
S680 N681 1.613 . S
S680 N682 1.610 . S
N681 S680 1.613 . S
N681 C684 1.350 . S
N682 S680 1.610 . S
N682 C683 1.351 . S
C683 C677 1.428 . S
C683 N682 1.351 . S
C683 C684 1.434 . S
C684 C675 1.429 . S
C684 N681 1.350 . S
C684 C683 1.434 . S
C685 C686 1.369 . S
C685 C687 1.419 . S
C685 H689 0.930 . S
C686 C685 1.369 . S
C686 C695 1.429 . S
C687 C685 1.419 . S
C687 C688 1.363 . S
C687 H690 0.929 . S
C688 C687 1.363 . S
C688 C694 1.428 . S
H689 C685 0.930 . S
H690 C687 0.929 . S
S691 N692 1.613 . S
S691 N693 1.610 . S
N692 S691 1.613 . S
N692 C695 1.350 . S
N693 S691 1.610 . S
N693 C694 1.351 . S
C694 C688 1.428 . S
C694 N693 1.351 . S
C694 C695 1.434 . S
C695 C686 1.429 . S
C695 N692 1.350 . S
C695 C694 1.434 . S
C433 C76 1.951 . S
C435 C159 2.189 . S
C446 C236 2.192 . S
C444 C88 1.942 . S
C457 C327 2.187 . S
C455 C52 1.955 . S
C468 C411 2.177 . S
C466 C64 1.938 . S
C479 C170 2.184 1_564 S
C477 C28 1.963 . S
C488 C40 1.950 . S
C490 C247 2.193 1_554 S
C499 C4 1.960 . S
C501 C338 2.185 1_554 S
C510 C16 1.955 . S
C512 C422 2.176 1_654 S
C523 C154 0.746 . S
C521 C69 0.757 . S
C534 C249 0.746 1_545 S
C532 C81 0.746 . S
C545 C322 0.749 . S
C543 C93 0.753 . S
C554 C57 0.737 . S
C556 C406 0.731 . S
C565 C21 0.752 . S
C567 C165 0.757 . S
C578 C238 0.735 . S
C576 C33 0.746 . S
C589 C333 0.751 . S
C587 C45 0.762 . S
C598 C9 0.732 . S
C600 C417 0.731 . S
C609 C66 2.041 . S
C611 C163 2.296 . S
C620 C78 2.046 . S
C622 C254 2.345 . S
C633 C331 2.311 . S
C631 C90 2.046 . S
C644 C415 2.312 . S
C642 C54 2.062 . S
C653 C18 2.033 . S
C655 C152 2.297 . S
C666 C243 2.342 1_565 S
C664 C30 2.051 . S
C677 C320 2.310 . S
C675 C42 2.044 . S
C686 C6 2.051 . S
C688 C404 2.314 . S
