# Generated by pormake.
# Topology csq, (4,8)-cn, num edge types: 1
# Building blocks:
#     Node 0, Type 0, BuildingBlock: MIFKUJ_clean_linker_1, # of connection points: 4
#     Node 1, Type 0, BuildingBlock: MIFKUJ_clean_linker_1, # of connection points: 4
#     Node 2, Type 0, BuildingBlock: MIFKUJ_clean_linker_1, # of connection points: 4
#     Node 3, Type 0, BuildingBlock: MIFKUJ_clean_linker_1, # of connection points: 4
#     Node 4, Type 0, BuildingBlock: MIFKUJ_clean_linker_1, # of connection points: 4
#     Node 5, Type 0, BuildingBlock: MIFKUJ_clean_linker_1, # of connection points: 4
#     Node 6, Type 1, BuildingBlock: TAGTUT_clean_sbu_1, # of connection points: 8
#     Node 7, Type 1, BuildingBlock: TAGTUT_clean_sbu_1, # of connection points: 8
#     Node 8, Type 1, BuildingBlock: TAGTUT_clean_sbu_1, # of connection points: 8
#     Edge 9, Type (0, 1), BuildingBlock: TEMPAE_clean_linker_10, # of connection points: 2
#     Edge 10, Type (0, 1), BuildingBlock: TEMPAE_clean_linker_10, # of connection points: 2
#     Edge 11, Type (0, 1), BuildingBlock: TEMPAE_clean_linker_10, # of connection points: 2
#     Edge 12, Type (0, 1), BuildingBlock: TEMPAE_clean_linker_10, # of connection points: 2
#     Edge 13, Type (0, 1), BuildingBlock: TEMPAE_clean_linker_10, # of connection points: 2
#     Edge 14, Type (0, 1), BuildingBlock: TEMPAE_clean_linker_10, # of connection points: 2
#     Edge 15, Type (0, 1), BuildingBlock: TEMPAE_clean_linker_10, # of connection points: 2
#     Edge 16, Type (0, 1), BuildingBlock: TEMPAE_clean_linker_10, # of connection points: 2
#     Edge 17, Type (0, 1), BuildingBlock: TEMPAE_clean_linker_10, # of connection points: 2
#     Edge 18, Type (0, 1), BuildingBlock: TEMPAE_clean_linker_10, # of connection points: 2
#     Edge 19, Type (0, 1), BuildingBlock: TEMPAE_clean_linker_10, # of connection points: 2
#     Edge 20, Type (0, 1), BuildingBlock: TEMPAE_clean_linker_10, # of connection points: 2
#     Edge 21, Type (0, 1), BuildingBlock: TEMPAE_clean_linker_10, # of connection points: 2
#     Edge 22, Type (0, 1), BuildingBlock: TEMPAE_clean_linker_10, # of connection points: 2
#     Edge 23, Type (0, 1), BuildingBlock: TEMPAE_clean_linker_10, # of connection points: 2
#     Edge 24, Type (0, 1), BuildingBlock: TEMPAE_clean_linker_10, # of connection points: 2
#     Edge 25, Type (0, 1), BuildingBlock: TEMPAE_clean_linker_10, # of connection points: 2
#     Edge 26, Type (0, 1), BuildingBlock: TEMPAE_clean_linker_10, # of connection points: 2
#     Edge 27, Type (0, 1), BuildingBlock: TEMPAE_clean_linker_10, # of connection points: 2
#     Edge 28, Type (0, 1), BuildingBlock: TEMPAE_clean_linker_10, # of connection points: 2
#     Edge 29, Type (0, 1), BuildingBlock: TEMPAE_clean_linker_10, # of connection points: 2
#     Edge 30, Type (0, 1), BuildingBlock: TEMPAE_clean_linker_10, # of connection points: 2
#     Edge 31, Type (0, 1), BuildingBlock: TEMPAE_clean_linker_10, # of connection points: 2
#     Edge 32, Type (0, 1), BuildingBlock: TEMPAE_clean_linker_10, # of connection points: 2
# Relax obj value: 0.033
# Max RMSD: 0.127
# Mean RMSD: 0.058
data_MOF--net-csq--node1-TAGTUT_clean_sbu_1--node2-MIFKUJ_clean_linker_1--edge1-TEMPAE_clean_linker_10
_symmetry_space_group_name_H-M    P1
_symmetry_Int_Tables_number       1
_symmetry_cell_setting            triclinic
loop_
_symmetry_equiv_pos_as_xyz
'x, y, z'
_cell_length_a     63.003737
_cell_length_b     62.251374
_cell_length_c     22.179912
_cell_angle_alpha  92.795831
_cell_angle_beta   91.877687
_cell_angle_gamma 119.83037
loop_
_atom_site_label
_atom_site_type_symbol
_atom_site_fract_x
_atom_site_fract_y
_atom_site_fract_z
_atom_type_partial_charge
H0 H 0.25735 0.46274 0.26115 0.0
H1 H 0.28665 0.46051 0.33214 0.0
H2 H 0.34581 0.52517 0.26163 0.0
H3 H 0.31644 0.52827 0.19272 0.0
H4 H 0.24565 0.49577 0.26265 0.0
H5 H 0.28396 0.46892 0.11561 0.0
H6 H 0.31292 0.4673 0.04803 0.0
H7 H 0.32278 0.53403 0.97123 0.0
H8 H 0.29614 0.53697 0.0432 0.0
H9 H 0.24085 0.54686 0.05797 0.0
H10 H 0.21342 0.54791 0.97907 0.0
H11 H 0.1555 0.47662 0.02586 0.0
H12 H 0.18299 0.47572 0.10475 0.0
H13 H 0.2519 0.51032 0.04497 0.0
H14 H 0.22518 0.54334 0.21713 0.0
H15 H 0.19637 0.54534 0.28515 0.0
H16 H 0.16204 0.46601 0.29939 0.0
H17 H 0.19197 0.46468 0.23447 0.0
C18 C 0.28467 0.4956 0.22118 0.0
C19 C 0.27664 0.47641 0.26066 0.0
C20 C 0.2933 0.47511 0.30119 0.0
C21 C 0.31831 0.49269 0.30209 0.0
C22 C 0.32654 0.51133 0.26123 0.0
C23 C 0.30981 0.51296 0.22157 0.0
C24 C 0.26644 0.49882 0.18463 0.0
C25 C 0.24701 0.49866 0.21475 0.0
C26 C 0.26856 0.50343 0.12242 0.0
C27 C 0.28784 0.50318 0.08529 0.0
C28 C 0.29297 0.48365 0.08561 0.0
C29 C 0.30922 0.48246 0.04566 0.0
C30 C 0.32022 0.50037 0.003 0.0
C31 C 0.31523 0.52005 0.00359 0.0
C32 C 0.2996 0.52159 0.04457 0.0
C33 C 0.2139 0.51126 0.08731 0.0
C34 C 0.22202 0.53179 0.05227 0.0
C35 C 0.20645 0.53225 0.00687 0.0
C36 C 0.18248 0.51218 0.99576 0.0
C37 C 0.17386 0.49242 0.03364 0.0
C38 C 0.18948 0.49195 0.07902 0.0
C39 C 0.23201 0.50792 0.12345 0.0
C40 C 0.2511 0.50775 0.09305 0.0
C41 C 0.22982 0.50319 0.18505 0.0
C42 C 0.2106 0.50386 0.22059 0.0
C43 C 0.21129 0.5264 0.23468 0.0
C44 C 0.19469 0.52744 0.27356 0.0
C45 C 0.17677 0.50585 0.29848 0.0
C46 C 0.17585 0.48317 0.28266 0.0
C47 C 0.19276 0.48227 0.24479 0.0
H48 H 0.78736 0.27753 0.98634 0.0
H49 H 0.82227 0.30577 0.9314 0.0
H50 H 0.87158 0.3026 0.06645 0.0
H51 H 0.83657 0.2728 0.11796 0.0
H52 H 0.76684 0.23298 0.01558 0.0
H53 H 0.80246 0.3097 0.12509 0.0
H54 H 0.83562 0.34889 0.17357 0.0
H55 H 0.85021 0.30835 0.3057 0.0
H56 H 0.81748 0.26921 0.25642 0.0
H57 H 0.75943 0.20421 0.25703 0.0
H58 H 0.73149 0.1795 0.33171 0.0
H59 H 0.67135 0.17874 0.23087 0.0
H60 H 0.6996 0.20439 0.15687 0.0
H61 H 0.77058 0.24953 0.23763 0.0
H62 H 0.72925 0.16976 0.09564 0.0
H63 H 0.6954 0.13782 0.02763 0.0
H64 H 0.68523 0.19477 0.95059 0.0
H65 H 0.71854 0.22624 0.01873 0.0
C66 C 0.80929 0.27334 0.05694 0.0
C67 C 0.80567 0.28256 0.00345 0.0
C68 C 0.82574 0.29904 0.97257 0.0
C69 C 0.84989 0.30689 0.9949 0.0
C70 C 0.85335 0.29693 0.04744 0.0
C71 C 0.83328 0.28009 0.07753 0.0
C72 C 0.7882 0.2575 0.09283 0.0
C73 C 0.76763 0.23663 0.06418 0.0
C74 C 0.78854 0.26278 0.15565 0.0
C75 C 0.80771 0.28653 0.18682 0.0
C76 C 0.8129 0.30926 0.16431 0.0
C77 C 0.83179 0.33159 0.19189 0.0
C78 C 0.84538 0.33154 0.24317 0.0
C79 C 0.8398 0.30885 0.26646 0.0
C80 C 0.82112 0.28652 0.23847 0.0
C81 C 0.73169 0.20612 0.20088 0.0
C82 C 0.7402 0.19866 0.25059 0.0
C83 C 0.72428 0.18464 0.29346 0.0
C84 C 0.69935 0.17744 0.28733 0.0
C85 C 0.69052 0.18403 0.23648 0.0
C86 C 0.70661 0.19848 0.19388 0.0
C87 C 0.74986 0.22392 0.16113 0.0
C88 C 0.76987 0.24562 0.18916 0.0
C89 C 0.74813 0.22017 0.09725 0.0
C90 C 0.72619 0.20026 0.06235 0.0
C91 C 0.71939 0.17519 0.06475 0.0
C92 C 0.70029 0.15707 0.02551 0.0
C93 C 0.68775 0.16384 0.98367 0.0
C94 C 0.69434 0.18893 0.98267 0.0
C95 C 0.71339 0.20693 0.02149 0.0
H96 H 0.54563 0.73871 0.93062 0.0
H97 H 0.54251 0.69992 0.89056 0.0
H98 H 0.49548 0.66117 0.03178 0.0
H99 H 0.49793 0.70001 0.07079 0.0
H100 H 0.51308 0.7541 0.94806 0.0
H101 H 0.5658 0.73543 0.07545 0.0
H102 H 0.569 0.70552 0.13677 0.0
H103 H 0.52231 0.71304 0.26471 0.0
H104 H 0.51773 0.7414 0.20078 0.0
H105 H 0.51732 0.80282 0.17898 0.0
H106 H 0.52211 0.84237 0.21756 0.0
H107 H 0.56552 0.87792 0.06774 0.0
H108 H 0.562 0.83844 0.03163 0.0
H109 H 0.5472 0.78533 0.15934 0.0
H110 H 0.49143 0.79963 0.03893 0.0
H111 H 0.48485 0.82897 0.98283 0.0
H112 H 0.53365 0.82927 0.85017 0.0
H113 H 0.54055 0.80031 0.907 0.0
C114 C 0.52226 0.7223 0.00403 0.0
C115 C 0.53429 0.72181 0.95237 0.0
C116 C 0.53256 0.6997 0.92968 0.0
C117 C 0.51888 0.6777 0.95846 0.0
C118 C 0.50633 0.678 0.00932 0.0
C119 C 0.5077 0.7001 0.03144 0.0
C120 C 0.52621 0.74639 0.03064 0.0
C121 C 0.52069 0.76098 0.9941 0.0
C122 C 0.5357 0.75516 0.09117 0.0
C123 C 0.54099 0.74015 0.13268 0.0
C124 C 0.55623 0.73058 0.11669 0.0
C125 C 0.55824 0.71364 0.1522 0.0
C126 C 0.54556 0.70647 0.20528 0.0
C127 C 0.53173 0.71751 0.22322 0.0
C128 C 0.52937 0.73405 0.18715 0.0
C129 C 0.53902 0.81761 0.10207 0.0
C130 C 0.52818 0.8192 0.15495 0.0
C131 C 0.53059 0.84177 0.17631 0.0
C132 C 0.54371 0.86322 0.14489 0.0
C133 C 0.55525 0.86177 0.09293 0.0
C134 C 0.55313 0.8392 0.07207 0.0
C135 C 0.53427 0.79306 0.07661 0.0
C136 C 0.53962 0.77841 0.11329 0.0
C137 C 0.52412 0.78396 0.01675 0.0
C138 C 0.51683 0.79816 0.97763 0.0
C139 C 0.50049 0.80581 0.99738 0.0
C140 C 0.49679 0.82259 0.96549 0.0
C141 C 0.50893 0.83155 0.91257 0.0
C142 C 0.52397 0.82256 0.89069 0.0
C143 C 0.5279 0.806 0.92301 0.0
H144 H 0.76748 0.47686 0.16882 0.0
H145 H 0.79469 0.47546 0.24773 0.0
H146 H 0.85323 0.54633 0.2008 0.0
H147 H 0.82592 0.54772 0.1221 0.0
H148 H 0.75536 0.51145 0.18 0.0
H149 H 0.79004 0.48416 0.02568 0.0
H150 H 0.81912 0.48212 0.95841 0.0
H151 H 0.84093 0.55598 0.90701 0.0
H152 H 0.81225 0.55814 0.97528 0.0
H153 H 0.75247 0.56346 0.96892 0.0
H154 H 0.72359 0.56528 0.89528 0.0
H155 H 0.66441 0.49913 0.96017 0.0
H156 H 0.69327 0.49637 0.03138 0.0
H157 H 0.76448 0.53052 0.9652 0.0
H158 H 0.73034 0.55789 0.12801 0.0
H159 H 0.70177 0.55849 0.1995 0.0
H160 H 0.67738 0.48195 0.23164 0.0
H161 H 0.70637 0.48178 0.16167 0.0
C162 C 0.79469 0.51239 0.13961 0.0
C163 C 0.78636 0.49182 0.1746 0.0
C164 C 0.80181 0.49113 0.21996 0.0
C165 C 0.8259 0.51097 0.23095 0.0
C166 C 0.83475 0.53075 0.19314 0.0
C167 C 0.81921 0.53149 0.14789 0.0
C168 C 0.77676 0.51589 0.10296 0.0
C169 C 0.75711 0.51523 0.13261 0.0
C170 C 0.77968 0.52178 0.04194 0.0
C171 C 0.79907 0.52139 0.00607 0.0
C172 C 0.8014 0.5001 0.00083 0.0
C173 C 0.81778 0.49882 0.96163 0.0
C174 C 0.8322 0.51881 0.92687 0.0
C175 C 0.83022 0.54031 0.93329 0.0
C176 C 0.81378 0.54154 0.97225 0.0
C177 C 0.72506 0.52989 0.00624 0.0
C178 C 0.73323 0.54949 0.9679 0.0
C179 C 0.71685 0.55057 0.92595 0.0
C180 C 0.69202 0.53235 0.92265 0.0
C181 C 0.68356 0.51345 0.96266 0.0
C182 C 0.7 0.51206 0.00376 0.0
C183 C 0.74311 0.52629 0.04237 0.0
C184 C 0.7628 0.52693 0.01268 0.0
C185 C 0.74021 0.52028 0.10339 0.0
C186 C 0.7205 0.51979 0.13944 0.0
C187 C 0.71853 0.54114 0.14975 0.0
C188 C 0.70219 0.54144 0.19076 0.0
C189 C 0.68745 0.52035 0.22212 0.0
C190 C 0.68883 0.49872 0.20961 0.0
C191 C 0.70524 0.4985 0.16907 0.0
H192 H 0.27063 0.83637 0.04181 0.0
H193 H 0.29762 0.86141 0.96557 0.0
H194 H 0.30588 0.79941 0.90232 0.0
H195 H 0.27915 0.77455 0.97887 0.0
H196 H 0.23417 0.75858 0.98719 0.0
H197 H 0.25596 0.83133 0.19456 0.0
H198 H 0.29001 0.86199 0.26277 0.0
H199 H 0.3375 0.83782 0.18596 0.0
H200 H 0.30316 0.8065 0.11983 0.0
H201 H 0.208 0.71109 0.16519 0.0
H202 H 0.17383 0.68188 0.22113 0.0
H203 H 0.14968 0.73552 0.24456 0.0
H204 H 0.18381 0.76458 0.18765 0.0
H205 H 0.23695 0.78446 0.20367 0.0
H206 H 0.22207 0.71162 0.01705 0.0
H207 H 0.18966 0.67059 0.97519 0.0
H208 H 0.13496 0.6898 0.02329 0.0
H209 H 0.16734 0.73086 0.06389 0.0
C210 C 0.27288 0.80355 0.01646 0.0
C211 C 0.27862 0.8283 0.01238 0.0
C212 C 0.29395 0.84256 0.96853 0.0
C213 C 0.30368 0.8323 0.92753 0.0
C214 C 0.29831 0.8077 0.93249 0.0
C215 C 0.28313 0.79353 0.9765 0.0
C216 C 0.25454 0.78742 0.05842 0.0
C217 C 0.23515 0.76431 0.03466 0.0
C218 C 0.25535 0.79474 0.12044 0.0
C219 C 0.27697 0.81662 0.15193 0.0
C220 C 0.27382 0.83293 0.19173 0.0
C221 C 0.29331 0.85049 0.23063 0.0
C222 C 0.31636 0.85208 0.23043 0.0
C223 C 0.31982 0.8367 0.18808 0.0
C224 C 0.3003 0.81907 0.14942 0.0
C225 C 0.19829 0.73989 0.17212 0.0
C226 C 0.19549 0.71663 0.183 0.0
C227 C 0.17601 0.70001 0.21504 0.0
C228 C 0.15901 0.70638 0.23687 0.0
C229 C 0.16233 0.73002 0.22758 0.0
C230 C 0.18192 0.74671 0.19573 0.0
C231 C 0.21711 0.75623 0.13199 0.0
C232 C 0.23626 0.77923 0.15595 0.0
C233 C 0.21667 0.74858 0.07081 0.0
C234 C 0.19707 0.72418 0.0438 0.0
C235 C 0.20309 0.70699 0.01828 0.0
C236 C 0.18462 0.68356 0.99487 0.0
C237 C 0.15986 0.67698 0.99687 0.0
C238 C 0.15389 0.69422 0.02246 0.0
C239 C 0.17235 0.71771 0.04524 0.0
H240 H 0.49605 0.20832 0.04928 0.0
H241 H 0.49225 0.16925 0.01034 0.0
H242 H 0.44642 0.13205 0.15526 0.0
H243 H 0.44888 0.171 0.19135 0.0
H244 H 0.4657 0.2248 0.06247 0.0
H245 H 0.51982 0.21298 0.19285 0.0
H246 H 0.52648 0.18373 0.24908 0.0
H247 H 0.47319 0.17879 0.37353 0.0
H248 H 0.46618 0.20764 0.31639 0.0
H249 H 0.44299 0.27184 0.18752 0.0
H250 H 0.44355 0.30968 0.22491 0.0
H251 H 0.51865 0.3404 0.29455 0.0
H252 H 0.5181 0.30249 0.25622 0.0
H253 H 0.49169 0.25435 0.27871 0.0
H254 H 0.43296 0.24369 0.06151 0.0
H255 H 0.42799 0.2716 0.99515 0.0
H256 H 0.50369 0.32762 0.03877 0.0
H257 H 0.50853 0.29975 0.10454 0.0
C258 C 0.47297 0.19266 0.12353 0.0
C259 C 0.48494 0.1917 0.07223 0.0
C260 C 0.48309 0.16938 0.0507 0.0
C261 C 0.46941 0.14754 0.08039 0.0
C262 C 0.45706 0.14846 0.13125 0.0
C263 C 0.45861 0.17076 0.15219 0.0
C264 C 0.4763 0.21678 0.14824 0.0
C265 C 0.47131 0.23117 0.10974 0.0
C266 C 0.48471 0.22574 0.20926 0.0
C267 C 0.49218 0.21211 0.24987 0.0
C268 C 0.50983 0.20586 0.23275 0.0
C269 C 0.51357 0.18913 0.26469 0.0
C270 C 0.50013 0.17883 0.31512 0.0
C271 C 0.48384 0.18655 0.33489 0.0
C272 C 0.47986 0.20305 0.30243 0.0
C273 C 0.48058 0.28445 0.21867 0.0
C274 C 0.45966 0.28681 0.21036 0.0
C275 C 0.46003 0.30847 0.23143 0.0
C276 C 0.48122 0.32805 0.26206 0.0
C277 C 0.50206 0.32554 0.27116 0.0
C278 C 0.50174 0.3039 0.24959 0.0
C279 C 0.48037 0.26189 0.19324 0.0
C280 C 0.48609 0.24791 0.23148 0.0
C281 C 0.47385 0.25387 0.13129 0.0
C282 C 0.47107 0.26976 0.08794 0.0
C283 C 0.4485 0.26189 0.05612 0.0
C284 C 0.44565 0.27787 0.01875 0.0
C285 C 0.46546 0.30173 0.01198 0.0
C286 C 0.48819 0.30925 0.04276 0.0
C287 C 0.49095 0.29341 0.08046 0.0
C288 C 0.9831 0.43662 0.76493 0.0
C289 C 0.05453 0.4879 0.69689 0.0
C290 C 0.02763 0.55522 0.7127 0.0
Mg291 Mg 0.00261 0.45475 0.63957 0.0
O292 O 0.99389 0.47848 0.66566 0.0
Mg293 Mg 0.00976 0.49808 0.74451 0.0
Mg294 Mg 0.00215 0.50673 0.61498 0.0
O295 O 0.01082 0.53486 0.56354 0.0
Mg296 Mg 0.00398 0.56008 0.58753 0.0
Mg297 Mg 0.9954 0.51526 0.48429 0.0
C298 C 0.97795 0.45902 0.51565 0.0
C299 C 0.04153 0.50803 0.51989 0.0
O300 O 0.99194 0.45937 0.78548 0.0
O301 O 0.98484 0.4306 0.70991 0.0
O302 O 0.04502 0.49744 0.731 0.0
O303 O 0.04189 0.47107 0.65487 0.0
O304 O 0.98559 0.44712 0.54739 0.0
O305 O 0.9799 0.47966 0.5357 0.0
C306 C 0.96228 0.50355 0.7113 0.0
O307 O 0.9684 0.50721 0.65621 0.0
O308 O 0.97501 0.49959 0.75066 0.0
O309 O 0.01462 0.5537 0.44239 0.0
O310 O 0.02249 0.58334 0.51618 0.0
O311 O 0.96083 0.5177 0.49598 0.0
C312 C 0.02402 0.57668 0.46159 0.0
O313 O 0.96507 0.54527 0.57046 0.0
O314 O 0.02102 0.56766 0.67984 0.0
C315 C 0.95203 0.5284 0.5288 0.0
O316 O 0.02427 0.53386 0.6938 0.0
O317 O 0.03576 0.50607 0.57524 0.0
O318 O 0.02924 0.5117 0.4787 0.0
C319 C 0.45898 0.01702 0.79202 0.0
C320 C 0.429 0.95024 0.67504 0.0
C321 C 0.52278 0.96974 0.67346 0.0
Mg322 Mg 0.45469 0.00565 0.65252 0.0
O323 O 0.48546 0.00916 0.67308 0.0
Mg324 Mg 0.4873 0.9874 0.73429 0.0
Mg325 Mg 0.50386 0.0038 0.60886 0.0
O326 O 0.52252 -0.00139 0.54498 0.0
Mg327 Mg 0.55358 0.0032 0.56771 0.0
Mg328 Mg 0.52088 0.02068 0.48438 0.0
C329 C 0.48507 0.03821 0.54526 0.0
C330 C 0.46616 0.97355 0.4915 0.0
O331 O 0.47071 0.00517 0.79902 0.0
O332 O 0.4518 0.01986 0.73974 0.0
O333 O 0.44853 0.95553 0.70663 0.0
O334 O 0.42735 0.96653 0.64553 0.0
O335 O 0.46571 0.02926 0.57552 0.0
O336 O 0.50225 0.03317 0.55565 0.0
C337 C 0.54233 0.03359 0.72525 0.0
O338 O 0.53884 0.03214 0.66746 0.0
O339 O 0.52557 0.019 0.75821 0.0
O340 O 0.53869 0.004 0.42053 0.0
O341 O 0.558 0.99002 0.48081 0.0
O342 O 0.5591 0.05308 0.51363 0.0
C343 C 0.55106 0.99284 0.4282 0.0
O344 O 0.5802 0.04261 0.57657 0.0
O345 O 0.54237 0.9792 0.64403 0.0
C346 C 0.5784 0.05871 0.54658 0.0
O347 O 0.50535 0.97436 0.66239 0.0
O348 O 0.46901 0.97539 0.54955 0.0
O349 O 0.4831 0.98834 0.45921 0.0
C350 C 0.53912 0.57331 0.45847 0.0
C351 C 0.56654 0.52448 0.50102 0.0
C352 C 0.47122 0.45522 0.51697 0.0
Mg353 Mg 0.55017 0.5557 0.57823 0.0
O354 O 0.51711 0.53126 0.56143 0.0
Mg355 Mg 0.50766 0.51195 0.48085 0.0
Mg356 Mg 0.50161 0.50304 0.61397 0.0
O357 O 0.48593 0.4748 0.66671 0.0
Mg358 Mg 0.45217 0.45207 0.65131 0.0
Mg359 Mg 0.49624 0.49398 0.74753 0.0
C360 C 0.53093 0.55119 0.71211 0.0
C361 C 0.54488 0.49967 0.6876 0.0
O362 O 0.52441 0.55048 0.43973 0.0
O363 O 0.55028 0.57968 0.51127 0.0
O364 O 0.54497 0.51355 0.47476 0.0
O365 O 0.57251 0.54059 0.54576 0.0
O366 O 0.54739 0.56342 0.67502 0.0
O367 O 0.51208 0.52995 0.69612 0.0
C368 C 0.45878 0.50656 0.53909 0.0
O369 O 0.46562 0.5026 0.59041 0.0
O370 O 0.4715 0.51071 0.49275 0.0
O371 O 0.47959 0.45546 0.78717 0.0
O372 O 0.45121 0.42733 0.7177 0.0
O373 O 0.45956 0.49254 0.75753 0.0
C374 C 0.46355 0.43296 0.76891 0.0
O375 O 0.43109 0.46887 0.68458 0.0
O376 O 0.45456 0.44412 0.55454 0.0
C377 C 0.43803 0.48356 0.73249 0.0
O378 O 0.49097 0.47589 0.53222 0.0
O379 O 0.53779 0.50375 0.6368 0.0
O380 O 0.5322 0.49519 0.73401 0.0
C381 C 0.15052 0.49099 0.38787 0.0
C382 C 0.15908 0.50687 0.34049 0.0
C383 C 0.13271 0.49065 0.42511 0.0
C384 C 0.12356 0.50697 0.41586 0.0
C385 C 0.13296 0.52388 0.37022 0.0
C386 C 0.15029 0.52342 0.33273 0.0
C387 C 0.12295 0.47209 0.47264 0.0
C388 C 0.12397 0.54188 0.35937 0.0
C389 C 0.0586 0.49015 0.44736 0.0
C390 C 0.06209 0.50491 0.50058 0.0
C391 C 0.07829 0.48953 0.4216 0.0
C392 C 0.10229 0.5046 0.4488 0.0
C393 C 0.10579 0.51867 0.50433 0.0
C394 C 0.08551 0.51844 0.53005 0.0
C395 C 0.07351 0.47361 0.36357 0.0
C396 C 0.13107 0.53519 0.53449 0.0
H397 H 0.15753 0.47856 0.39568 0.0
H398 H 0.15637 0.53559 0.29609 0.0
H399 H 0.12361 0.48145 0.51708 0.0
H400 H 0.10345 0.45819 0.46016 0.0
H401 H 0.13338 0.46214 0.47768 0.0
H402 H 0.13506 0.5557 0.32714 0.0
H403 H 0.10463 0.53152 0.34072 0.0
H404 H 0.1245 0.55193 0.40261 0.0
H405 H 0.04038 0.47949 0.42495 0.0
H406 H 0.08818 0.52993 0.5711 0.0
H407 H 0.08254 0.46226 0.36719 0.0
H408 H 0.08139 0.48565 0.32575 0.0
H409 H 0.05361 0.46097 0.35201 0.0
H410 H 0.14167 0.52534 0.53566 0.0
H411 H 0.13036 0.54181 0.58143 0.0
H412 H 0.14118 0.5516 0.50795 0.0
C413 C 0.68937 0.1718 0.39587 0.0
C414 C 0.68285 0.16336 0.33459 0.0
C415 C 0.67439 0.15822 0.44139 0.0
C416 C 0.65266 0.13543 0.42524 0.0
C417 C 0.64594 0.12694 0.3633 0.0
C418 C 0.661 0.14115 0.31872 0.0
C419 C 0.68182 0.16821 0.50664 0.0
C420 C 0.62303 0.1026 0.34413 0.0
C421 C 0.62266 0.0829 0.52823 0.0
C422 C 0.60051 0.08249 0.53661 0.0
C423 C 0.64086 0.1013 0.49573 0.0
C424 C 0.63697 0.11997 0.47252 0.0
C425 C 0.61603 0.12139 0.48779 0.0
C426 C 0.59793 0.10248 0.51925 0.0
C427 C 0.66288 0.09904 0.48052 0.0
C428 C 0.61148 0.1414 0.46582 0.0
H429 H 0.70616 0.18914 0.40814 0.0
H430 H 0.65605 0.13454 0.27143 0.0
H431 H 0.66681 0.16978 0.52739 0.0
H432 H 0.68497 0.15516 0.53263 0.0
H433 H 0.69875 0.18671 0.51147 0.0
H434 H 0.62062 0.09846 0.29427 0.0
H435 H 0.62374 0.0872 0.36552 0.0
H436 H 0.60667 0.103 0.35968 0.0
H437 H 0.6247 0.06743 0.5412 0.0
H438 H 0.58088 0.10231 0.5261 0.0
H439 H 0.6799 0.11739 0.48613 0.0
H440 H 0.66065 0.09202 0.43244 0.0
H441 H 0.66511 0.08604 0.50912 0.0
H442 H 0.62871 0.15959 0.46826 0.0
H443 H 0.59784 0.14334 0.49255 0.0
H444 H 0.60425 0.13656 0.41784 0.0
C445 C 0.56719 0.68516 0.24793 0.0
C446 C 0.54586 0.68686 0.2406 0.0
C447 C 0.56742 0.66655 0.28083 0.0
C448 C 0.54594 0.6495 0.30787 0.0
C449 C 0.52437 0.65105 0.30055 0.0
C450 C 0.52452 0.66951 0.26653 0.0
C451 C 0.59067 0.66524 0.28706 0.0
C452 C 0.50114 0.63335 0.32916 0.0
C453 C 0.53639 0.58779 0.35648 0.0
C454 C 0.54242 0.59311 0.41893 0.0
C455 C 0.53835 0.60624 0.31928 0.0
C456 C 0.54606 0.63041 0.34539 0.0
C457 C 0.55256 0.63599 0.40819 0.0
C458 C 0.55087 0.61734 0.44409 0.0
C459 C 0.5317 0.59974 0.25227 0.0
C460 C 0.56047 0.66143 0.43789 0.0
H461 H 0.58384 0.69858 0.22863 0.0
H462 H 0.50776 0.67019 0.25992 0.0
H463 H 0.59744 0.66863 0.33531 0.0
H464 H 0.58695 0.64639 0.27153 0.0
H465 H 0.60541 0.67904 0.26065 0.0
H466 H 0.48599 0.6372 0.31955 0.0
H467 H 0.49503 0.61395 0.31227 0.0
H468 H 0.50469 0.63467 0.37892 0.0
H469 H 0.53005 0.56917 0.33665 0.0
H470 H 0.55544 0.62158 0.49234 0.0
H471 H 0.5468 0.61317 0.22615 0.0
H472 H 0.5152 0.60103 0.23984 0.0
H473 H 0.52789 0.5807 0.23836 0.0
H474 H 0.57623 0.67585 0.41542 0.0
H475 H 0.56578 0.66302 0.48686 0.0
H476 H 0.54526 0.66549 0.43276 0.0
C477 C 0.83144 0.50651 0.34094 0.0
C478 C 0.84122 0.51181 0.28403 0.0
C479 C 0.84597 0.50809 0.39214 0.0
C480 C 0.87081 0.51511 0.38602 0.0
C481 C 0.88072 0.52035 0.32856 0.0
C482 C 0.86581 0.5187 0.2783 0.0
C483 C 0.83485 0.50245 0.45267 0.0
C484 C 0.9071 0.52761 0.32005 0.0
C485 C 0.92225 0.54266 0.5078 0.0
C486 C 0.92712 0.52311 0.51099 0.0
C487 C 0.90217 0.53967 0.47147 0.0
C488 C 0.88666 0.51653 0.43876 0.0
C489 C 0.88966 0.49591 0.4488 0.0
C490 C 0.91005 0.49951 0.48451 0.0
C491 C 0.89935 0.56203 0.46262 0.0
C492 C 0.87305 0.47071 0.41643 0.0
H493 H 0.81249 0.50155 0.34563 0.0
H494 H 0.87332 0.52261 0.23427 0.0
H495 H 0.83745 0.48785 0.47259 0.0
H496 H 0.84429 0.51927 0.48452 0.0
H497 H 0.81494 0.49616 0.44921 0.0
H498 H 0.91203 0.53146 0.27258 0.0
H499 H 0.91955 0.54442 0.34991 0.0
H500 H 0.91041 0.51247 0.333 0.0
H501 H 0.93544 0.56091 0.52846 0.0
H502 H 0.91367 0.48428 0.48782 0.0
H503 H 0.87976 0.55688 0.46042 0.0
H504 H 0.90684 0.56965 0.41908 0.0
H505 H 0.90939 0.57688 0.4995 0.0
H506 H 0.85366 0.46626 0.41441 0.0
H507 H 0.87439 0.45582 0.43885 0.0
H508 H 0.8784 0.47075 0.36924 0.0
C509 C 0.34094 0.89292 0.29147 0.0
C510 C 0.33639 0.86881 0.27603 0.0
C511 C 0.36038 0.90906 0.33301 0.0
C512 C 0.37569 0.90093 0.35937 0.0
C513 C 0.3706 0.87632 0.34577 0.0
C514 C 0.35098 0.86055 0.3044 0.0
C515 C 0.36522 0.93518 0.34652 0.0
C516 C 0.38654 0.86699 0.37279 0.0
C517 C 0.44194 0.95005 0.3963 0.0
C518 C 0.44294 0.95414 0.45941 0.0
C519 C 0.42022 0.93267 0.36366 0.0
C520 C 0.39876 0.91902 0.39467 0.0
C521 C 0.39956 0.92273 0.45844 0.0
C522 C 0.42174 0.9402 0.49018 0.0
C523 C 0.42026 0.92905 0.29575 0.0
C524 C 0.37697 0.90853 0.49293 0.0
H525 H 0.32978 0.89945 0.26967 0.0
H526 H 0.34717 0.84173 0.29389 0.0
H527 H 0.36781 0.93999 0.39605 0.0
H528 H 0.3824 0.94849 0.32644 0.0
H529 H 0.35007 0.9377 0.32799 0.0
H530 H 0.37873 0.84672 0.36228 0.0
H531 H 0.40499 0.87687 0.3548 0.0
H532 H 0.38903 0.87092 0.42263 0.0
H533 H 0.45824 0.96049 0.37194 0.0
H534 H 0.42237 0.94317 0.53881 0.0
H535 H 0.4071 0.93351 0.27315 0.0
H536 H 0.41421 0.90936 0.2822 0.0
H537 H 0.43864 0.9409 0.27872 0.0
H538 H 0.36272 0.91301 0.47801 0.0
H539 H 0.38086 0.91295 0.54258 0.0
H540 H 0.36919 0.88827 0.48311 0.0
C541 C 0.47088 0.36185 0.2529 0.0
C542 C 0.48099 0.3504 0.2873 0.0
C543 C 0.46879 0.38177 0.27835 0.0
C544 C 0.47667 0.39007 0.33978 0.0
C545 C 0.48762 0.37907 0.37401 0.0
C546 C 0.48973 0.35943 0.34726 0.0
C547 C 0.4575 0.39338 0.24014 0.0
C548 C 0.49626 0.38735 0.43977 0.0
C549 C 0.48948 0.45005 0.4225 0.0
C550 C 0.46944 0.4414 0.45894 0.0
C551 C 0.49094 0.43409 0.37806 0.0
C552 C 0.47206 0.40895 0.37054 0.0
C553 C 0.45051 0.40101 0.40193 0.0
C554 C 0.44937 0.41741 0.44547 0.0
C555 C 0.51386 0.44347 0.34399 0.0
C556 C 0.42978 0.37442 0.3947 0.0
H557 H 0.46439 0.35506 0.20622 0.0
H558 H 0.49733 0.35047 0.37409 0.0
H559 H 0.43893 0.38792 0.25485 0.0
H560 H 0.46858 0.41394 0.24604 0.0
H561 H 0.4558 0.38743 0.19133 0.0
H562 H 0.50507 0.37739 0.45934 0.0
H563 H 0.50961 0.40757 0.44476 0.0
H564 H 0.48047 0.38404 0.46655 0.0
H565 H 0.5049 0.46869 0.4316 0.0
H566 H 0.43352 0.41067 0.47233 0.0
H567 H 0.50962 0.43509 0.29676 0.0
H568 H 0.52634 0.43813 0.36658 0.0
H569 H 0.52364 0.46401 0.34323 0.0
H570 H 0.42529 0.36763 0.34628 0.0
H571 H 0.41294 0.37219 0.41484 0.0
H572 H 0.43549 0.36246 0.41754 0.0
C573 C 0.51107 0.87278 0.91651 0.0
C574 C 0.50734 0.85146 0.88242 0.0
C575 C 0.5121 0.89292 0.88814 0.0
C576 C 0.5092 0.89158 0.82429 0.0
C577 C 0.50435 0.86965 0.7899 0.0
C578 C 0.50363 0.8499 0.81939 0.0
C579 C 0.51721 0.91595 0.92626 0.0
C580 C 0.50072 0.86737 0.72177 0.0
C581 C 0.49678 0.93638 0.74053 0.0
C582 C 0.51987 0.95204 0.71914 0.0
C583 C 0.49316 0.91724 0.77726 0.0
C584 C 0.51312 0.91369 0.7928 0.0
C585 C 0.53673 0.9303 0.77421 0.0
C586 C 0.53981 0.94923 0.73756 0.0
C587 C 0.46768 0.90004 0.79623 0.0
C588 C 0.55858 0.92739 0.79071 0.0
H589 H 0.51417 0.87412 0.96527 0.0
H590 H 0.50046 0.83331 0.79309 0.0
H591 H 0.5353 0.93167 0.91649 0.0
H592 H 0.50323 0.92123 0.91471 0.0
H593 H 0.51731 0.91338 0.97546 0.0
H594 H 0.49554 0.84852 0.70206 0.0
H595 H 0.4862 0.87161 0.70779 0.0
H596 H 0.51789 0.88107 0.70239 0.0
H597 H 0.48122 0.93833 0.72649 0.0
H598 H 0.55778 0.9614 0.72187 0.0
H599 H 0.46813 0.89437 0.84267 0.0
H600 H 0.45891 0.88299 0.76503 0.0
H601 H 0.45604 0.9088 0.79447 0.0
H602 H 0.56024 0.92616 0.8402 0.0
H603 H 0.57601 0.94303 0.77698 0.0
H604 H 0.55599 0.90986 0.76816 0.0
C605 C 0.65679 0.53729 0.89039 0.0
C606 C 0.67501 0.53186 0.87509 0.0
C607 C 0.63834 0.53357 0.84724 0.0
C608 C 0.6379 0.5236 0.78803 0.0
C609 C 0.65705 0.51928 0.77168 0.0
C610 C 0.67555 0.52361 0.81562 0.0
C611 C 0.61849 0.53889 0.86613 0.0
C612 C 0.65712 0.50854 0.70926 0.0
C613 C 0.57209 0.48541 0.72926 0.0
C614 C 0.56932 0.50253 0.69632 0.0
C615 C 0.59513 0.49109 0.75412 0.0
C616 C 0.61566 0.51472 0.74692 0.0
C617 C 0.61331 0.53108 0.70865 0.0
C618 C 0.59 0.52469 0.68343 0.0
C619 C 0.59697 0.47281 0.79322 0.0
C620 C 0.63473 0.55636 0.69953 0.0
H621 H 0.6566 0.54372 0.9366 0.0
H622 H 0.68974 0.51934 0.80439 0.0
H623 H 0.61545 0.54992 0.83263 0.0
H624 H 0.60099 0.52115 0.86781 0.0
H625 H 0.62304 0.54918 0.91136 0.0
H626 H 0.6752 0.51036 0.70067 0.0
H627 H 0.64306 0.48852 0.70461 0.0
H628 H 0.65235 0.51773 0.67398 0.0
H629 H 0.55597 0.46823 0.73891 0.0
H630 H 0.58771 0.53806 0.65863 0.0
H631 H 0.59896 0.47943 0.84156 0.0
H632 H 0.61336 0.47131 0.78348 0.0
H633 H 0.58045 0.45403 0.78638 0.0
H634 H 0.63735 0.56931 0.73897 0.0
H635 H 0.63151 0.56398 0.65813 0.0
H636 H 0.65193 0.55571 0.69624 0.0
C637 C 0.11871 0.63863 0.99669 0.0
C638 C 0.14028 0.65307 0.96771 0.0
C639 C 0.09855 0.61806 0.96554 0.0
C640 C 0.09997 0.61233 0.90383 0.0
C641 C 0.12234 0.62579 0.87583 0.0
C642 C 0.14228 0.64596 0.9083 0.0
C643 C 0.07532 0.60356 0.99751 0.0
C644 C 0.12464 0.62021 0.81006 0.0
C645 C 0.05357 0.55671 0.80284 0.0
C646 C 0.04189 0.56728 0.77079 0.0
C647 C 0.07133 0.57049 0.85017 0.0
C648 C 0.07746 0.59533 0.86544 0.0
C649 C 0.0642 0.60528 0.83682 0.0
C650 C 0.04645 0.59106 0.79017 0.0
C651 C 0.08442 0.55897 0.88161 0.0
C652 C 0.07022 0.63176 0.85163 0.0
H653 H 0.11734 0.64391 0.04309 0.0
H654 H 0.15894 0.65715 0.88582 0.0
H655 H 0.06204 0.60956 0.98431 0.0
H656 H 0.06664 0.5834 0.98438 0.0
H657 H 0.07881 0.60661 0.04747 0.0
H658 H 0.14383 0.63092 0.79679 0.0
H659 H 0.11803 0.60013 0.80059 0.0
H660 H 0.11303 0.62491 0.78114 0.0
H661 H 0.04988 0.53821 0.78894 0.0
H662 H 0.03723 0.59925 0.76646 0.0
H663 H 0.08074 0.55807 0.93026 0.0
H664 H 0.10453 0.57064 0.87898 0.0
H665 H 0.07852 0.53993 0.8619 0.0
H666 H 0.07042 0.63548 0.90109 0.0
H667 H 0.05692 0.63598 0.82868 0.0
H668 H 0.0888 0.6447 0.83726 0.0
C669 C 0.44497 0.1015 0.05396 0.0
C670 C 0.46743 0.12387 0.05632 0.0
C671 C 0.44201 0.08 0.02236 0.0
C672 C 0.46175 0.08115 0.99124 0.0
C673 C 0.48499 0.10302 0.99791 0.0
C674 C 0.48761 0.12401 0.03106 0.0
C675 C 0.41723 0.05667 0.01832 0.0
C676 C 0.50657 0.10504 0.96552 0.0
C677 C 0.46209 0.02726 0.90427 0.0
C678 C 0.45596 0.03038 0.84516 0.0
C679 C 0.46243 0.04256 0.95354 0.0
C680 C 0.45717 0.06172 0.94294 0.0
C681 C 0.44976 0.06406 0.88387 0.0
C682 C 0.44896 0.04819 0.83598 0.0
C683 C 0.46957 0.03893 0.01622 0.0
C684 C 0.44418 0.08439 0.87036 0.0
H685 H 0.42926 0.10108 0.07365 0.0
H686 H 0.50527 0.14095 0.03468 0.0
H687 H 0.40745 0.0549 0.97423 0.0
H688 H 0.4192 0.03998 0.02087 0.0
H689 H 0.40573 0.05697 0.05493 0.0
H690 H 0.5239 0.12239 0.98022 0.0
H691 H 0.50906 0.08897 0.97343 0.0
H692 H 0.50303 0.10481 0.91607 0.0
H693 H 0.46726 0.01336 0.91193 0.0
H694 H 0.44405 0.05072 0.79065 0.0
H695 H 0.45872 0.04199 0.0505 0.0
H696 H 0.4892 0.05259 0.02782 0.0
H697 H 0.46699 0.02002 0.0192 0.0
H698 H 0.42976 0.08354 0.89914 0.0
H699 H 0.43792 0.08313 0.82224 0.0
H700 H 0.46086 0.1028 0.88096 0.0
C701 C 0.35571 0.51976 0.93549 0.0
C702 C 0.33638 0.49836 0.95741 0.0
C703 C 0.37085 0.51814 0.89247 0.0
C704 C 0.36734 0.49461 0.87231 0.0
C705 C 0.34786 0.47293 0.89368 0.0
C706 C 0.33242 0.47504 0.93501 0.0
C707 C 0.39109 0.54172 0.86995 0.0
C708 C 0.34388 0.44749 0.87469 0.0
C709 C 0.39921 0.48597 0.73697 0.0
C710 C 0.42023 0.48778 0.76585 0.0
C711 C 0.38208 0.48889 0.77067 0.0
C712 C 0.38571 0.49284 0.83468 0.0
C713 C 0.40692 0.49466 0.86371 0.0
C714 C 0.42398 0.49244 0.829 0.0
C715 C 0.36011 0.4877 0.73793 0.0
C716 C 0.41137 0.49829 0.9318 0.0
H717 H 0.35948 0.53797 0.95272 0.0
H718 H 0.31727 0.45827 0.94986 0.0
H719 H 0.40913 0.54515 0.88876 0.0
H720 H 0.3911 0.53991 0.81993 0.0
H721 H 0.38928 0.55814 0.88324 0.0
H722 H 0.32737 0.43239 0.89351 0.0
H723 H 0.34192 0.44441 0.82468 0.0
H724 H 0.3601 0.44621 0.89033 0.0
H725 H 0.39626 0.48244 0.68821 0.0
H726 H 0.43998 0.49352 0.85191 0.0
H727 H 0.35884 0.50439 0.75174 0.0
H728 H 0.34308 0.47128 0.75043 0.0
H729 H 0.36092 0.48649 0.68798 0.0
H730 H 0.41245 0.51589 0.9486 0.0
H731 H 0.42857 0.4988 0.94732 0.0
H732 H 0.39582 0.48298 0.95292 0.0
C733 C 0.89299 0.32459 0.96196 0.0
C734 C 0.87134 0.32581 0.96441 0.0
C735 C 0.91335 0.34252 0.93398 0.0
C736 C 0.91187 0.3618 0.90646 0.0
C737 C 0.89017 0.3632 0.9088 0.0
C738 C 0.87032 0.3454 0.93833 0.0
C739 C 0.93635 0.34067 0.93325 0.0
C740 C 0.88774 0.38331 0.87926 0.0
C741 C 0.96742 0.42138 0.86589 0.0
C742 C 0.96757 0.41649 0.80353 0.0
C743 C 0.95021 0.40323 0.90086 0.0
C744 C 0.93246 0.37988 0.87249 0.0
C745 C 0.93321 0.3745 0.81016 0.0
C746 C 0.95089 0.39275 0.77662 0.0
C747 C 0.95037 0.4094 0.9676 0.0
C748 C 0.91439 0.34997 0.77797 0.0
H749 H 0.89396 0.30941 0.98118 0.0
H750 H 0.854 0.34697 0.94116 0.0
H751 H 0.93959 0.33684 0.8861 0.0
H752 H 0.95247 0.35858 0.95081 0.0
H753 H 0.93524 0.32575 0.96076 0.0
H754 H 0.86958 0.38175 0.88502 0.0
H755 H 0.90222 0.40186 0.89874 0.0
H756 H 0.89031 0.38232 0.83015 0.0
H757 H 0.98033 0.4396 0.88714 0.0
H758 H 0.95076 0.38876 0.72845 0.0
H759 H 0.94928 0.39424 0.99405 0.0
H760 H 0.93406 0.41115 0.97663 0.0
H761 H 0.96706 0.42706 0.98412 0.0
H762 H 0.91349 0.33431 0.80175 0.0
H763 H 0.91844 0.34811 0.73024 0.0
H764 H 0.89599 0.34823 0.77835 0.0
C765 C 0.87306 0.53734 0.88118 0.0
C766 C 0.84924 0.51723 0.88417 0.0
C767 C 0.88988 0.5355 0.84427 0.0
C768 C 0.88275 0.51301 0.80934 0.0
C769 C 0.85835 0.49311 0.80967 0.0
C770 C 0.84193 0.49542 0.84723 0.0
C771 C 0.91574 0.55713 0.84558 0.0
C772 C 0.84992 0.46891 0.77272 0.0
C773 C 0.92751 0.51267 0.69724 0.0
C774 C 0.94048 0.50433 0.73253 0.0
C775 C 0.90817 0.51507 0.72071 0.0
C776 C 0.90176 0.50901 0.78081 0.0
C777 C 0.91425 0.4998 0.81565 0.0
C778 C 0.93327 0.49752 0.79115 0.0
C779 C 0.89511 0.52471 0.68187 0.0
C780 C 0.90801 0.49292 0.87975 0.0
H781 H 0.8789 0.55423 0.90967 0.0
H782 H 0.8234 0.47998 0.84827 0.0
H783 H 0.92842 0.5523 0.86927 0.0
H784 H 0.92164 0.5612 0.79892 0.0
H785 H 0.9176 0.57419 0.8692 0.0
H786 H 0.82969 0.45666 0.77114 0.0
H787 H 0.85568 0.47239 0.72578 0.0
H788 H 0.85858 0.45892 0.79273 0.0
H789 H 0.93276 0.51781 0.6519 0.0
H790 H 0.94282 0.4907 0.81886 0.0
H791 H 0.90012 0.54371 0.69975 0.0
H792 H 0.87495 0.51289 0.68332 0.0
H793 H 0.89996 0.52544 0.634 0.0
H794 H 0.91126 0.50952 0.90846 0.0
H795 H 0.91905 0.48539 0.90017 0.0
H796 H 0.88832 0.47882 0.88074 0.0
C797 C 0.31597 0.83664 0.82015 0.0
C798 C 0.31939 0.84713 0.87969 0.0
C799 C 0.33112 0.85031 0.77496 0.0
C800 C 0.35026 0.87497 0.78982 0.0
C801 C 0.35357 0.88573 0.84968 0.0
C802 C 0.33806 0.87172 0.89374 0.0
C803 C 0.32691 0.83828 0.71165 0.0
C804 C 0.37388 0.91193 0.8676 0.0
C805 C 0.40919 0.90768 0.71093 0.0
C806 C 0.40669 0.92646 0.68484 0.0
C807 C 0.39002 0.88922 0.74083 0.0
C808 C 0.36773 0.88945 0.74423 0.0
C809 C 0.36405 0.9064 0.71131 0.0
C810 C 0.38363 0.92475 0.68183 0.0
C811 C 0.39473 0.87131 0.77435 0.0
C812 C 0.34036 0.90688 0.71241 0.0
H813 H 0.30134 0.81773 0.80882 0.0
H814 H 0.34093 0.87984 0.93973 0.0
H815 H 0.32496 0.85008 0.6785 0.0
H816 H 0.34299 0.83652 0.70003 0.0
H817 H 0.31029 0.81954 0.7065 0.0
H818 H 0.37363 0.91774 0.91562 0.0
H819 H 0.39193 0.91344 0.86074 0.0
H820 H 0.37224 0.92511 0.83851 0.0
H821 H 0.42684 0.90859 0.7124 0.0
H822 H 0.38144 0.93906 0.66136 0.0
H823 H 0.37826 0.85253 0.77134 0.0
H824 H 0.39932 0.87798 0.8229 0.0
H825 H 0.41028 0.86984 0.75663 0.0
H826 H 0.32434 0.88777 0.70821 0.0
H827 H 0.33854 0.91742 0.67554 0.0
H828 H 0.33985 0.91591 0.75631 0.0
C829 C 0.44281 0.32333 0.98076 0.0
C830 C 0.46252 0.31911 0.97406 0.0
C831 C 0.44082 0.34107 0.94807 0.0
C832 C 0.45888 0.35469 0.9075 0.0
C833 C 0.47846 0.35002 0.8995 0.0
C834 C 0.48009 0.33234 0.93308 0.0
C835 C 0.41981 0.34571 0.95808 0.0
C836 C 0.49794 0.36399 0.85618 0.0
C837 C 0.44684 0.3878 0.78331 0.0
C838 C 0.46028 0.41267 0.80675 0.0
C839 C 0.44556 0.3686 0.81643 0.0
C840 C 0.45786 0.37438 0.87451 0.0
C841 C 0.47058 0.39928 0.8995 0.0
C842 C 0.47171 0.41814 0.86525 0.0
C843 C 0.43188 0.34226 0.78827 0.0
C844 C 0.48372 0.40612 0.96161 0.0
H845 H 0.42935 0.31327 0.01294 0.0
H846 H 0.49519 0.32889 0.92745 0.0
H847 H 0.42702 0.36503 0.97743 0.0
H848 H 0.40969 0.34369 0.91435 0.0
H849 H 0.40673 0.33279 0.9892 0.0
H850 H 0.51143 0.35746 0.85357 0.0
H851 H 0.48933 0.36184 0.81019 0.0
H852 H 0.50794 0.3841 0.8707 0.0
H853 H 0.43793 0.38335 0.73821 0.0
H854 H 0.48197 0.43724 0.884 0.0
H855 H 0.41857 0.32977 0.81951 0.0
H856 H 0.44499 0.3356 0.78012 0.0
H857 H 0.42185 0.34063 0.74459 0.0
H858 H 0.4711 0.39463 0.99539 0.0
H859 H 0.49117 0.42603 0.97633 0.0
H860 H 0.49912 0.40227 0.96149 0.0
C861 C 0.14226 0.50307 0.94727 0.0
C862 C 0.16712 0.51098 0.94232 0.0
C863 C 0.12724 0.50069 0.8965 0.0
C864 C 0.13736 0.50634 0.83934 0.0
C865 C 0.16251 0.51459 0.83406 0.0
C866 C 0.17711 0.51676 0.88571 0.0
C867 C 0.1005 0.49213 0.90414 0.0
C868 C 0.17388 0.5207 0.7739 0.0
C869 C 0.08626 0.47617 0.71703 0.0
C870 C 0.07999 0.49472 0.71338 0.0
C871 C 0.10682 0.48048 0.75353 0.0
C872 C 0.1213 0.5039 0.786 0.0
C873 C 0.1169 0.52361 0.77541 0.0
C874 C 0.09613 0.51872 0.73933 0.0
C875 C 0.11114 0.45909 0.76308 0.0
C876 C 0.13239 0.54905 0.80768 0.0
H877 H 0.13457 0.49882 0.99104 0.0
H878 H 0.19627 0.52248 0.88154 0.0
H879 H 0.0963 0.50663 0.89073 0.0
H880 H 0.08875 0.47511 0.87419 0.0
H881 H 0.09547 0.4881 0.95148 0.0
H882 H 0.19413 0.52916 0.77856 0.0
H883 H 0.16622 0.50351 0.74338 0.0
H884 H 0.16937 0.53365 0.75171 0.0
H885 H 0.07376 0.45762 0.69686 0.0
H886 H 0.09137 0.53315 0.73569 0.0
H887 H 0.10393 0.45135 0.80673 0.0
H888 H 0.131 0.46535 0.76548 0.0
H889 H 0.10173 0.444 0.72644 0.0
H890 H 0.12863 0.54818 0.85629 0.0
H891 H 0.12853 0.56303 0.78864 0.0
H892 H 0.15217 0.55539 0.80491 0.0
C893 C 0.64633 0.14568 0.92978 0.0
C894 C 0.66807 0.14505 0.94032 0.0
C895 C 0.62757 0.12824 0.88871 0.0
C896 C 0.63058 0.10967 0.85742 0.0
C897 C 0.6527 0.10924 0.86677 0.0
C898 C 0.67118 0.12691 0.90835 0.0
C899 C 0.60414 0.12916 0.88049 0.0
C900 C 0.65657 0.08974 0.83408 0.0
C901 C 0.57109 0.05005 0.81698 0.0
C902 C 0.56611 0.0523 0.75617 0.0
C903 C 0.59246 0.06816 0.84951 0.0
C904 C 0.60945 0.08914 0.82064 0.0
C905 C 0.60516 0.09112 0.75853 0.0
C906 C 0.58345 0.07262 0.72691 0.0
C907 C 0.59637 0.06525 0.91556 0.0
C908 C 0.62301 0.11316 0.72614 0.0
H909 H 0.64377 0.15955 0.95473 0.0
H910 H 0.68814 0.12663 0.91562 0.0
H911 H 0.5995 0.12905 0.83176 0.0
H912 H 0.58879 0.11242 0.8979 0.0
H913 H 0.60544 0.14588 0.90462 0.0
H914 H 0.67561 0.09335 0.84203 0.0
H915 H 0.64376 0.07122 0.84964 0.0
H916 H 0.65248 0.0889 0.78471 0.0
H917 H 0.55801 0.03422 0.83984 0.0
H918 H 0.57976 0.07446 0.67996 0.0
H919 H 0.59607 0.08027 0.94391 0.0
H920 H 0.61458 0.06693 0.9245 0.0
H921 H 0.58209 0.0471 0.93018 0.0
H922 H 0.62264 0.12996 0.74366 0.0
H923 H 0.61854 0.11044 0.67648 0.0
H924 H 0.64197 0.11674 0.7349 0.0
C925 C 0.52468 0.64133 0.9735 0.0
C926 C 0.51821 0.65473 0.93525 0.0
C927 C 0.52691 0.62122 0.95 0.0
C928 C 0.52243 0.61449 0.88706 0.0
C929 C 0.51467 0.62725 0.84897 0.0
C930 C 0.51277 0.64728 0.87356 0.0
C931 C 0.5351 0.608 0.99197 0.0
C932 C 0.50926 0.62038 0.78169 0.0
C933 C 0.55188 0.58717 0.78937 0.0
C934 C 0.53153 0.56397 0.77075 0.0
C935 C 0.55004 0.60298 0.83343 0.0
C936 C 0.52729 0.59536 0.85905 0.0
C937 C 0.50777 0.57075 0.84637 0.0
C938 C 0.51017 0.55528 0.80238 0.0
C939 C 0.57155 0.62887 0.84706 0.0
C940 C 0.48334 0.56164 0.87352 0.0
H941 H 0.529 0.64724 0.02128 0.0
H942 H 0.50746 0.65751 0.84428 0.0
H943 H 0.52401 0.58758 0.98207 0.0
H944 H 0.55448 0.61357 0.98496 0.0
H945 H 0.53377 0.61257 0.04024 0.0
H946 H 0.50217 0.63132 0.75916 0.0
H947 H 0.52621 0.62364 0.76042 0.0
H948 H 0.49552 0.60037 0.77307 0.0
H949 H 0.56868 0.59383 0.76624 0.0
H950 H 0.49445 0.53725 0.78914 0.0
H951 H 0.57375 0.63454 0.89608 0.0
H952 H 0.56823 0.64216 0.82254 0.0
H953 H 0.58893 0.63037 0.83269 0.0
H954 H 0.48563 0.56945 0.92085 0.0
H955 H 0.47287 0.54105 0.87265 0.0
H956 H 0.47228 0.56766 0.84677 0.0
C957 C 0.49903 0.13811 0.3088 0.0
C958 C 0.50162 0.15867 0.34424 0.0
C959 C 0.49788 0.11767 0.33577 0.0
C960 C 0.49954 0.11793 0.39961 0.0
C961 C 0.50323 0.13912 0.43549 0.0
C962 C 0.50404 0.15918 0.40734 0.0
C963 C 0.49391 0.09541 0.29609 0.0
C964 C 0.50551 0.14026 0.50371 0.0
C965 C 0.46832 0.05873 0.48039 0.0
C966 C 0.48828 0.05621 0.50023 0.0
C967 C 0.47163 0.07807 0.44495 0.0
C968 C 0.49551 0.09543 0.42931 0.0
C969 C 0.51554 0.0922 0.44626 0.0
C970 C 0.51167 0.07258 0.48151 0.0
C971 C 0.44971 0.0806 0.42674 0.0
C972 C 0.54131 0.11024 0.43055 0.0
H973 H 0.49691 0.1376 0.25994 0.0
H974 H 0.50627 0.17518 0.43468 0.0
H975 H 0.50789 0.09024 0.30864 0.0
H976 H 0.47569 0.07926 0.30312 0.0
H977 H 0.49477 0.09885 0.2473 0.0
H978 H 0.51003 0.15872 0.52482 0.0
H979 H 0.48801 0.12597 0.52058 0.0
H980 H 0.51997 0.13611 0.51879 0.0
H981 H 0.45014 0.04601 0.4941 0.0
H982 H 0.52723 0.07087 0.49682 0.0
H983 H 0.44896 0.08272 0.37746 0.0
H984 H 0.45142 0.09754 0.45055 0.0
H985 H 0.43216 0.06436 0.43777 0.0
H986 H 0.54156 0.11595 0.38386 0.0
H987 H 0.55355 0.10223 0.43477 0.0
H988 H 0.5489 0.12721 0.46189 0.0
C989 C 0.33286 0.49423 0.40896 0.0
C990 C 0.33579 0.49218 0.34695 0.0
C991 C 0.35046 0.49575 0.45209 0.0
C992 C 0.37109 0.49475 0.43233 0.0
C993 C 0.37349 0.49161 0.36964 0.0
C994 C 0.35592 0.49068 0.32765 0.0
C995 C 0.34756 0.49957 0.51839 0.0
C996 C 0.395 0.48995 0.34675 0.0
C997 C 0.43396 0.52552 0.51157 0.0
C998 C 0.43492 0.50492 0.53039 0.0
C999 C 0.41218 0.52283 0.48535 0.0
C1000 C 0.3913 0.49881 0.47602 0.0
C1001 C 0.39168 0.47829 0.49985 0.0
C1002 C 0.41361 0.48167 0.52739 0.0
C1003 C 0.41231 0.54531 0.46224 0.0
C1004 C 0.36989 0.45237 0.49046 0.0
H1005 H 0.31726 0.49554 0.42357 0.0
H1006 H 0.35795 0.48891 0.27959 0.0
H1007 H 0.35048 0.48652 0.545 0.0
H1008 H 0.36167 0.51866 0.53564 0.0
H1009 H 0.32918 0.49704 0.52661 0.0
H1010 H 0.39298 0.48537 0.2971 0.0
H1011 H 0.41214 0.50795 0.35739 0.0
H1012 H 0.39706 0.47558 0.36967 0.0
H1013 H 0.45063 0.54345 0.51388 0.0
H1014 H 0.41465 0.46574 0.54143 0.0
H1015 H 0.39518 0.5453 0.47237 0.0
H1016 H 0.41333 0.54482 0.41238 0.0
H1017 H 0.42822 0.56291 0.48235 0.0
H1018 H 0.35256 0.45237 0.4978 0.0
H1019 H 0.37144 0.43956 0.52112 0.0
H1020 H 0.36872 0.44507 0.44306 0.0
C1021 C 0.88387 0.37237 0.2387 0.0
C1022 C 0.86549 0.35501 0.27263 0.0
C1023 C 0.90432 0.39345 0.2674 0.0
C1024 C 0.90624 0.39705 0.33127 0.0
C1025 C 0.88702 0.38022 0.36527 0.0
C1026 C 0.8669 0.35937 0.33546 0.0
C1027 C 0.92436 0.41101 0.2296 0.0
C1028 C 0.88817 0.38358 0.43348 0.0
C1029 C 0.96425 0.4261 0.43139 0.0
C1030 C 0.96424 0.44711 0.45706 0.0
C1031 C 0.94685 0.41083 0.38502 0.0
C1032 C 0.92908 0.41678 0.3641 0.0
C1033 C 0.93084 0.43951 0.38467 0.0
C1034 C 0.94847 0.45448 0.43113 0.0
C1035 C 0.94593 0.38701 0.36313 0.0
C1036 C 0.91263 0.44679 0.36204 0.0
H1037 H 0.88276 0.36892 0.18998 0.0
H1038 H 0.85243 0.34614 0.36146 0.0
H1039 H 0.93203 0.43058 0.24749 0.0
H1040 H 0.93952 0.40678 0.23099 0.0
H1041 H 0.91766 0.40909 0.18159 0.0
H1042 H 0.87101 0.36965 0.45263 0.0
H1043 H 0.90362 0.38183 0.45314 0.0
H1044 H 0.89158 0.4024 0.44796 0.0
H1045 H 0.97682 0.42064 0.45018 0.0
H1046 H 0.94857 0.4709 0.45008 0.0
H1047 H 0.94283 0.38395 0.31319 0.0
H1048 H 0.93037 0.37112 0.38271 0.0
H1049 H 0.96306 0.387 0.37662 0.0
H1050 H 0.90938 0.44336 0.31215 0.0
H1051 H 0.9189 0.46664 0.3746 0.0
H1052 H 0.89483 0.43522 0.38192 0.0
C1053 C 0.52543 0.88679 0.19319 0.0
C1054 C 0.54559 0.88696 0.16772 0.0
C1055 C 0.52794 0.90794 0.22516 0.0
C1056 C 0.55104 0.93 0.23042 0.0
C1057 C 0.57069 0.93113 0.19889 0.0
C1058 C 0.56785 0.90946 0.16845 0.0
C1059 C 0.50644 0.90593 0.25791 0.0
C1060 C 0.59525 0.95467 0.20119 0.0
C1061 C 0.54903 0.98312 0.31602 0.0
C1062 C 0.55521 0.98026 0.37531 0.0
C1063 C 0.54948 0.96821 0.26695 0.0
C1064 C 0.5556 0.94968 0.27796 0.0
C1065 C 0.56332 0.94781 0.33714 0.0
C1066 C 0.56332 0.96332 0.38483 0.0
C1067 C 0.5421 0.97143 0.20412 0.0
C1068 C 0.56982 0.92816 0.3511 0.0
H1069 H 0.50791 0.86971 0.19068 0.0
H1070 H 0.58349 0.90989 0.14836 0.0
H1071 H 0.5104 0.90696 0.30744 0.0
H1072 H 0.50345 0.92159 0.24856 0.0
H1073 H 0.48922 0.88823 0.24475 0.0
H1074 H 0.60644 0.95426 0.16394 0.0
H1075 H 0.59293 0.97114 0.19836 0.0
H1076 H 0.60553 0.95692 0.2448 0.0
H1077 H 0.54309 0.99642 0.30806 0.0
H1078 H 0.56837 0.96106 0.43029 0.0
H1079 H 0.52239 0.95785 0.19333 0.0
H1080 H 0.5527 0.96804 0.1697 0.0
H1081 H 0.54479 0.99036 0.20053 0.0
H1082 H 0.55345 0.90945 0.34141 0.0
H1083 H 0.57645 0.92993 0.39911 0.0
H1084 H 0.58425 0.9293 0.32194 0.0
C1085 C 0.66862 0.50897 0.32236 0.0
C1086 C 0.67112 0.52095 0.26873 0.0
C1087 C 0.65284 0.50875 0.36599 0.0
C1088 C 0.63932 0.52098 0.35621 0.0
C1089 C 0.64211 0.53354 0.30287 0.0
C1090 C 0.65789 0.53331 0.25977 0.0
C1091 C 0.6503 0.49504 0.42204 0.0
C1092 C 0.62807 0.54687 0.29076 0.0
C1093 C 0.579 0.50158 0.42762 0.0
C1094 C 0.58573 0.52093 0.47258 0.0
C1095 C 0.59649 0.50072 0.39148 0.0
C1096 C 0.62134 0.51973 0.40013 0.0
C1097 C 0.62853 0.53839 0.44801 0.0
C1098 C 0.61065 0.53871 0.48389 0.0
C1099 C 0.58809 0.48023 0.34166 0.0
C1100 C 0.65485 0.55892 0.45903 0.0
H1101 H 0.67911 0.49978 0.33045 0.0
H1102 H 0.65945 0.54241 0.21838 0.0
H1103 H 0.65432 0.50767 0.46316 0.0
H1104 H 0.63113 0.47964 0.42329 0.0
H1105 H 0.66273 0.48719 0.42395 0.0
H1106 H 0.63318 0.55678 0.24866 0.0
H1107 H 0.6081 0.53334 0.28668 0.0
H1108 H 0.63148 0.56053 0.3292 0.0
H1109 H 0.55986 0.48758 0.419 0.0
H1110 H 0.61609 0.55372 0.51851 0.0
H1111 H 0.60045 0.47231 0.34118 0.0
H1112 H 0.58869 0.48792 0.29726 0.0
H1113 H 0.56912 0.465 0.34647 0.0
H1114 H 0.66733 0.55116 0.4603 0.0
H1115 H 0.65794 0.5703 0.50203 0.0
H1116 H 0.65992 0.57126 0.42123 0.0
C1117 C 0.14062 0.67422 0.31178 0.0
C1118 C 0.13759 0.68812 0.26798 0.0
C1119 C 0.12048 0.65635 0.34033 0.0
C1120 C 0.09671 0.65222 0.32453 0.0
C1121 C 0.09351 0.66624 0.28046 0.0
C1122 C 0.11403 0.68409 0.25277 0.0
C1123 C 0.12467 0.6419 0.38747 0.0
C1124 C 0.06843 0.66224 0.26225 0.0
C1125 C 0.04523 0.58992 0.36521 0.0
C1126 C 0.03956 0.59626 0.42165 0.0
C1127 C 0.06298 0.60815 0.33152 0.0
C1128 C 0.07534 0.63329 0.35481 0.0
C1129 C 0.06868 0.63999 0.4099 0.0
C1130 C 0.05086 0.62142 0.44257 0.0
C1131 C 0.06945 0.60032 0.27262 0.0
C1132 C 0.08137 0.66662 0.43609 0.0
H1133 H 0.15883 0.67747 0.32408 0.0
H1134 H 0.11158 0.69458 0.21832 0.0
H1135 H 0.11809 0.64482 0.43122 0.0
H1136 H 0.11401 0.62173 0.37363 0.0
H1137 H 0.14432 0.6474 0.39463 0.0
H1138 H 0.0691 0.67482 0.22761 0.0
H1139 H 0.05628 0.64275 0.24388 0.0
H1140 H 0.05996 0.66531 0.30241 0.0
H1141 H 0.03657 0.57059 0.34839 0.0
H1142 H 0.04652 0.62661 0.48584 0.0
H1143 H 0.08813 0.60282 0.27815 0.0
H1144 H 0.06967 0.61215 0.23653 0.0
H1145 H 0.0564 0.58059 0.25754 0.0
H1146 H 0.10076 0.67274 0.44982 0.0
H1147 H 0.07248 0.66907 0.47624 0.0
H1148 H 0.08148 0.67899 0.40163 0.0
loop_
_geom_bond_atom_site_label_1
_geom_bond_atom_site_label_2
_geom_bond_distance
_geom_bond_site_symmetry_2
_ccdc_geom_bond_type
H0 C19 0.949 . S
H1 C20 0.950 . S
H2 C22 0.950 . S
H3 C23 0.950 . S
H4 C25 0.950 . S
H5 C28 0.950 . S
H6 C29 0.950 . S
H7 C31 0.951 1_556 S
H8 C32 0.949 . S
H9 C34 0.949 . S
H10 C35 0.950 . S
H11 C37 0.950 . S
H12 C38 0.950 . S
H13 C40 0.950 . S
H14 C43 0.950 . S
H15 C44 0.950 . S
H16 C46 0.951 . S
H17 C47 0.949 . S
C18 C19 1.376 . S
C18 C23 1.386 . S
C18 C24 1.483 . S
C19 H0 0.949 . S
C19 C18 1.376 . S
C19 C20 1.397 . S
C20 H1 0.950 . S
C20 C19 1.397 . S
C20 C21 1.391 . S
C21 C20 1.391 . S
C21 C22 1.405 . S
C22 H2 0.950 . S
C22 C21 1.405 . S
C22 C23 1.367 . S
C23 H3 0.950 . S
C23 C18 1.386 . S
C23 C22 1.367 . S
C24 C18 1.483 . S
C24 C25 1.382 . S
C24 C26 1.403 . S
C25 H4 0.950 . S
C25 C24 1.382 . S
C25 C41 1.411 . S
C26 C24 1.403 . S
C26 C27 1.489 . S
C26 C40 1.411 . S
C27 C26 1.489 . S
C27 C28 1.383 . S
C27 C32 1.382 . S
C28 H5 0.950 . S
C28 C27 1.383 . S
C28 C29 1.395 . S
C29 H6 0.950 . S
C29 C28 1.395 . S
C29 C30 1.288 . S
C30 C29 1.288 . S
C30 C31 1.392 . S
C31 H7 0.951 1_554 S
C31 C30 1.392 . S
C31 C32 1.392 . S
C32 H8 0.949 . S
C32 C27 1.382 . S
C32 C31 1.392 . S
C33 C34 1.376 . S
C33 C38 1.386 . S
C33 C39 1.483 . S
C34 H9 0.949 . S
C34 C33 1.376 . S
C34 C35 1.397 . S
C35 H10 0.950 . S
C35 C34 1.397 . S
C35 C36 1.391 . S
C36 C35 1.391 . S
C36 C37 1.405 . S
C37 H11 0.950 . S
C37 C36 1.405 . S
C37 C38 1.367 . S
C38 H12 0.950 . S
C38 C33 1.386 . S
C38 C37 1.367 . S
C39 C33 1.483 . S
C39 C40 1.382 . S
C39 C41 1.403 . S
C40 H13 0.950 . S
C40 C26 1.411 . S
C40 C39 1.382 . S
C41 C25 1.411 . S
C41 C39 1.403 . S
C41 C42 1.489 . S
C42 C41 1.489 . S
C42 C43 1.383 . S
C42 C47 1.382 . S
C43 H14 0.950 . S
C43 C42 1.383 . S
C43 C44 1.395 . S
C44 H15 0.950 . S
C44 C43 1.395 . S
C44 C45 1.288 . S
C45 C44 1.288 . S
C45 C46 1.392 . S
C46 H16 0.951 . S
C46 C45 1.392 . S
C46 C47 1.392 . S
C47 H17 0.949 . S
C47 C42 1.382 . S
C47 C46 1.392 . S
H48 C67 0.949 . S
H49 C68 0.950 . S
H50 C70 0.950 . S
H51 C71 0.950 . S
H52 C73 0.950 . S
H53 C76 0.950 . S
H54 C77 0.950 . S
H55 C79 0.951 . S
H56 C80 0.949 . S
H57 C82 0.949 . S
H58 C83 0.950 . S
H59 C85 0.950 . S
H60 C86 0.950 . S
H61 C88 0.950 . S
H62 C91 0.950 . S
H63 C92 0.950 . S
H64 C94 0.951 . S
H65 C95 0.949 . S
C66 C67 1.376 . S
C66 C71 1.386 . S
C66 C72 1.483 . S
C67 H48 0.949 . S
C67 C66 1.376 . S
C67 C68 1.397 1_554 S
C68 H49 0.950 . S
C68 C67 1.397 1_556 S
C68 C69 1.391 1_556 S
C69 C68 1.391 1_554 S
C69 C70 1.404 . S
C70 H50 0.950 . S
C70 C69 1.404 . S
C70 C71 1.367 . S
C71 H51 0.950 . S
C71 C66 1.386 . S
C71 C70 1.367 . S
C72 C66 1.483 . S
C72 C73 1.382 . S
C72 C74 1.403 . S
C73 H52 0.950 . S
C73 C72 1.382 . S
C73 C89 1.411 . S
C74 C72 1.403 . S
C74 C75 1.489 . S
C74 C88 1.411 . S
C75 C74 1.489 . S
C75 C76 1.383 . S
C75 C80 1.382 . S
C76 H53 0.950 . S
C76 C75 1.383 . S
C76 C77 1.395 . S
C77 H54 0.950 . S
C77 C76 1.395 . S
C77 C78 1.288 . S
C78 C77 1.288 . S
C78 C79 1.392 . S
C79 H55 0.951 . S
C79 C78 1.392 . S
C79 C80 1.392 . S
C80 H56 0.949 . S
C80 C75 1.382 . S
C80 C79 1.392 . S
C81 C82 1.376 . S
C81 C86 1.386 . S
C81 C87 1.483 . S
C82 H57 0.949 . S
C82 C81 1.376 . S
C82 C83 1.397 . S
C83 H58 0.950 . S
C83 C82 1.397 . S
C83 C84 1.391 . S
C84 C83 1.391 . S
C84 C85 1.405 . S
C85 H59 0.950 . S
C85 C84 1.405 . S
C85 C86 1.367 . S
C86 H60 0.950 . S
C86 C81 1.386 . S
C86 C85 1.367 . S
C87 C81 1.483 . S
C87 C88 1.382 . S
C87 C89 1.403 . S
C88 H61 0.950 . S
C88 C74 1.411 . S
C88 C87 1.382 . S
C89 C73 1.411 . S
C89 C87 1.403 . S
C89 C90 1.489 . S
C90 C89 1.489 . S
C90 C91 1.383 . S
C90 C95 1.382 . S
C91 H62 0.950 . S
C91 C90 1.383 . S
C91 C92 1.395 . S
C92 H63 0.950 . S
C92 C91 1.395 . S
C92 C93 1.288 1_554 S
C93 C92 1.288 1_556 S
C93 C94 1.392 . S
C94 H64 0.951 . S
C94 C93 1.392 . S
C94 C95 1.392 1_556 S
C95 H65 0.949 . S
C95 C90 1.382 . S
C95 C94 1.392 1_554 S
H96 C115 0.949 . S
H97 C116 0.950 . S
H98 C118 0.950 . S
H99 C119 0.950 . S
H100 C121 0.950 . S
H101 C124 0.950 . S
H102 C125 0.950 . S
H103 C127 0.951 . S
H104 C128 0.949 . S
H105 C130 0.949 . S
H106 C131 0.950 . S
H107 C133 0.950 . S
H108 C134 0.950 . S
H109 C136 0.950 . S
H110 C139 0.950 . S
H111 C140 0.950 . S
H112 C142 0.951 . S
H113 C143 0.949 . S
C114 C115 1.376 . S
C114 C119 1.386 . S
C114 C120 1.483 . S
C115 H96 0.949 . S
C115 C114 1.376 . S
C115 C116 1.397 . S
C116 H97 0.950 . S
C116 C115 1.397 . S
C116 C117 1.391 . S
C117 C116 1.391 . S
C117 C118 1.405 . S
C118 H98 0.950 . S
C118 C117 1.405 . S
C118 C119 1.367 . S
C119 H99 0.950 . S
C119 C114 1.386 . S
C119 C118 1.367 . S
C120 C114 1.483 . S
C120 C121 1.382 . S
C120 C122 1.403 1_556 S
C121 H100 0.950 . S
C121 C120 1.382 . S
C121 C137 1.411 . S
C122 C120 1.403 1_554 S
C122 C123 1.489 . S
C122 C136 1.411 . S
C123 C122 1.489 . S
C123 C124 1.383 . S
C123 C128 1.382 . S
C124 H101 0.950 . S
C124 C123 1.383 . S
C124 C125 1.395 . S
C125 H102 0.950 . S
C125 C124 1.395 . S
C125 C126 1.288 . S
C126 C125 1.288 . S
C126 C127 1.392 . S
C127 H103 0.951 . S
C127 C126 1.392 . S
C127 C128 1.392 . S
C128 H104 0.949 . S
C128 C123 1.382 . S
C128 C127 1.392 . S
C129 C130 1.376 . S
C129 C134 1.386 . S
C129 C135 1.483 . S
C130 H105 0.949 . S
C130 C129 1.376 . S
C130 C131 1.397 . S
C131 H106 0.950 . S
C131 C130 1.397 . S
C131 C132 1.391 . S
C132 C131 1.391 . S
C132 C133 1.405 . S
C133 H107 0.950 . S
C133 C132 1.405 . S
C133 C134 1.367 . S
C134 H108 0.950 . S
C134 C129 1.386 . S
C134 C133 1.367 . S
C135 C129 1.483 . S
C135 C136 1.382 . S
C135 C137 1.403 1_554 S
C136 H109 0.950 . S
C136 C122 1.411 . S
C136 C135 1.382 . S
C137 C121 1.411 . S
C137 C135 1.403 1_556 S
C137 C138 1.489 . S
C138 C137 1.489 . S
C138 C139 1.383 . S
C138 C143 1.382 . S
C139 H110 0.950 . S
C139 C138 1.383 . S
C139 C140 1.395 . S
C140 H111 0.950 . S
C140 C139 1.395 . S
C140 C141 1.288 . S
C141 C140 1.288 . S
C141 C142 1.392 . S
C142 H112 0.951 . S
C142 C141 1.392 . S
C142 C143 1.392 . S
C143 H113 0.949 . S
C143 C138 1.382 . S
C143 C142 1.392 . S
H144 C163 0.949 . S
H145 C164 0.950 . S
H146 C166 0.950 . S
H147 C167 0.950 . S
H148 C169 0.950 . S
H149 C172 0.950 1_554 S
H150 C173 0.950 . S
H151 C175 0.951 . S
H152 C176 0.949 . S
H153 C178 0.949 . S
H154 C179 0.950 . S
H155 C181 0.950 . S
H156 C182 0.950 1_554 S
H157 C184 0.948 1_556 S
H158 C187 0.950 . S
H159 C188 0.950 . S
H160 C190 0.951 . S
H161 C191 0.949 . S
C162 C163 1.376 . S
C162 C167 1.386 . S
C162 C168 1.483 . S
C163 H144 0.949 . S
C163 C162 1.376 . S
C163 C164 1.397 . S
C164 H145 0.950 . S
C164 C163 1.397 . S
C164 C165 1.391 . S
C165 C164 1.391 . S
C165 C166 1.405 . S
C166 H146 0.950 . S
C166 C165 1.405 . S
C166 C167 1.367 . S
C167 H147 0.950 . S
C167 C162 1.386 . S
C167 C166 1.367 . S
C168 C162 1.483 . S
C168 C169 1.382 . S
C168 C170 1.403 . S
C169 H148 0.950 . S
C169 C168 1.382 . S
C169 C185 1.411 . S
C170 C168 1.403 . S
C170 C171 1.489 1_554 S
C170 C184 1.412 . S
C171 C170 1.489 1_556 S
C171 C172 1.383 . S
C171 C176 1.382 . S
C172 H149 0.950 1_556 S
C172 C171 1.383 . S
C172 C173 1.395 . S
C173 H150 0.950 . S
C173 C172 1.395 . S
C173 C174 1.288 . S
C174 C173 1.288 . S
C174 C175 1.392 . S
C175 H151 0.951 . S
C175 C174 1.392 . S
C175 C176 1.392 . S
C176 H152 0.949 . S
C176 C171 1.382 . S
C176 C175 1.392 . S
C177 C178 1.376 . S
C177 C182 1.386 . S
C177 C183 1.483 1_556 S
C178 H153 0.949 . S
C178 C177 1.376 . S
C178 C179 1.397 . S
C179 H154 0.950 . S
C179 C178 1.397 . S
C179 C180 1.391 . S
C180 C179 1.391 . S
C180 C181 1.405 . S
C181 H155 0.950 . S
C181 C180 1.405 . S
C181 C182 1.367 . S
C182 H156 0.950 1_556 S
C182 C177 1.386 . S
C182 C181 1.367 . S
C183 C177 1.483 1_554 S
C183 C184 1.383 . S
C183 C185 1.403 . S
C184 H157 0.948 1_554 S
C184 C170 1.412 . S
C184 C183 1.383 . S
C185 C169 1.411 . S
C185 C183 1.403 . S
C185 C186 1.489 . S
C186 C185 1.489 . S
C186 C187 1.383 . S
C186 C191 1.382 . S
C187 H158 0.950 . S
C187 C186 1.383 . S
C187 C188 1.395 . S
C188 H159 0.950 . S
C188 C187 1.395 . S
C188 C189 1.288 . S
C189 C188 1.288 . S
C189 C190 1.392 . S
C190 H160 0.951 . S
C190 C189 1.392 . S
C190 C191 1.392 . S
C191 H161 0.949 . S
C191 C186 1.382 . S
C191 C190 1.392 . S
H192 C211 0.949 . S
H193 C212 0.950 . S
H194 C214 0.950 . S
H195 C215 0.950 . S
H196 C217 0.950 1_556 S
H197 C220 0.950 . S
H198 C221 0.950 . S
H199 C223 0.951 . S
H200 C224 0.949 . S
H201 C226 0.949 . S
H202 C227 0.950 . S
H203 C229 0.950 . S
H204 C230 0.950 . S
H205 C232 0.950 . S
H206 C235 0.950 . S
H207 C236 0.950 . S
H208 C238 0.951 . S
H209 C239 0.949 . S
C210 C211 1.376 1_554 S
C210 C215 1.386 . S
C210 C216 1.483 . S
C211 H192 0.949 . S
C211 C210 1.376 1_556 S
C211 C212 1.397 . S
C212 H193 0.950 . S
C212 C211 1.397 . S
C212 C213 1.391 . S
C213 C212 1.391 . S
C213 C214 1.405 . S
C214 H194 0.950 . S
C214 C213 1.405 . S
C214 C215 1.367 1_556 S
C215 H195 0.950 . S
C215 C210 1.386 . S
C215 C214 1.367 1_554 S
C216 C210 1.483 . S
C216 C217 1.382 . S
C216 C218 1.403 . S
C217 H196 0.950 1_554 S
C217 C216 1.382 . S
C217 C233 1.411 . S
C218 C216 1.403 . S
C218 C219 1.489 . S
C218 C232 1.411 . S
C219 C218 1.489 . S
C219 C220 1.383 . S
C219 C224 1.382 . S
C220 H197 0.950 . S
C220 C219 1.383 . S
C220 C221 1.395 . S
C221 H198 0.950 . S
C221 C220 1.395 . S
C221 C222 1.288 . S
C222 C221 1.288 . S
C222 C223 1.392 . S
C223 H199 0.951 . S
C223 C222 1.392 . S
C223 C224 1.392 . S
C224 H200 0.949 . S
C224 C219 1.382 . S
C224 C223 1.392 . S
C225 C226 1.376 . S
C225 C230 1.386 . S
C225 C231 1.483 . S
C226 H201 0.949 . S
C226 C225 1.376 . S
C226 C227 1.397 . S
C227 H202 0.950 . S
C227 C226 1.397 . S
C227 C228 1.391 . S
C228 C227 1.391 . S
C228 C229 1.405 . S
C229 H203 0.950 . S
C229 C228 1.405 . S
C229 C230 1.367 . S
C230 H204 0.950 . S
C230 C225 1.386 . S
C230 C229 1.367 . S
C231 C225 1.483 . S
C231 C232 1.382 . S
C231 C233 1.403 . S
C232 H205 0.950 . S
C232 C218 1.411 . S
C232 C231 1.382 . S
C233 C217 1.411 . S
C233 C231 1.403 . S
C233 C234 1.489 . S
C234 C233 1.489 . S
C234 C235 1.383 . S
C234 C239 1.382 1_554 S
C235 H206 0.950 . S
C235 C234 1.383 . S
C235 C236 1.395 1_554 S
C236 H207 0.950 . S
C236 C235 1.395 1_556 S
C236 C237 1.288 . S
C237 C236 1.288 . S
C237 C238 1.392 . S
C238 H208 0.951 . S
C238 C237 1.392 . S
C238 C239 1.392 . S
C239 H209 0.949 . S
C239 C234 1.382 1_556 S
C239 C238 1.392 . S
H240 C259 0.949 . S
H241 C260 0.950 . S
H242 C262 0.950 . S
H243 C263 0.950 . S
H244 C265 0.950 . S
H245 C268 0.950 . S
H246 C269 0.950 . S
H247 C271 0.951 . S
H248 C272 0.949 . S
H249 C274 0.949 . S
H250 C275 0.950 . S
H251 C277 0.950 . S
H252 C278 0.950 . S
H253 C280 0.950 . S
H254 C283 0.950 . S
H255 C284 0.950 . S
H256 C286 0.951 . S
H257 C287 0.949 . S
C258 C259 1.376 . S
C258 C263 1.386 . S
C258 C264 1.483 . S
C259 H240 0.949 . S
C259 C258 1.376 . S
C259 C260 1.397 . S
C260 H241 0.950 . S
C260 C259 1.397 . S
C260 C261 1.391 . S
C261 C260 1.391 . S
C261 C262 1.405 . S
C262 H242 0.950 . S
C262 C261 1.405 . S
C262 C263 1.367 . S
C263 H243 0.950 . S
C263 C258 1.386 . S
C263 C262 1.367 . S
C264 C258 1.483 . S
C264 C265 1.382 . S
C264 C266 1.403 . S
C265 H244 0.950 . S
C265 C264 1.382 . S
C265 C281 1.411 . S
C266 C264 1.403 . S
C266 C267 1.489 . S
C266 C280 1.411 . S
C267 C266 1.489 . S
C267 C268 1.383 . S
C267 C272 1.382 . S
C268 H245 0.950 . S
C268 C267 1.383 . S
C268 C269 1.395 . S
C269 H246 0.950 . S
C269 C268 1.395 . S
C269 C270 1.288 . S
C270 C269 1.288 . S
C270 C271 1.392 . S
C271 H247 0.951 . S
C271 C270 1.392 . S
C271 C272 1.392 . S
C272 H248 0.949 . S
C272 C267 1.382 . S
C272 C271 1.392 . S
C273 C274 1.376 . S
C273 C278 1.386 . S
C273 C279 1.483 . S
C274 H249 0.949 . S
C274 C273 1.376 . S
C274 C275 1.397 . S
C275 H250 0.950 . S
C275 C274 1.397 . S
C275 C276 1.391 . S
C276 C275 1.391 . S
C276 C277 1.405 . S
C277 H251 0.950 . S
C277 C276 1.405 . S
C277 C278 1.367 . S
C278 H252 0.950 . S
C278 C273 1.386 . S
C278 C277 1.367 . S
C279 C273 1.483 . S
C279 C280 1.382 . S
C279 C281 1.403 . S
C280 H253 0.950 . S
C280 C266 1.411 . S
C280 C279 1.382 . S
C281 C265 1.411 . S
C281 C279 1.403 . S
C281 C282 1.489 . S
C282 C281 1.489 . S
C282 C283 1.383 . S
C282 C287 1.382 . S
C283 H254 0.950 . S
C283 C282 1.383 . S
C283 C284 1.395 . S
C284 H255 0.950 . S
C284 C283 1.395 . S
C284 C285 1.288 . S
C285 C284 1.288 . S
C285 C286 1.392 . S
C286 H256 0.951 . S
C286 C285 1.392 . S
C286 C287 1.392 . S
C287 H257 0.949 . S
C287 C282 1.382 . S
C287 C286 1.392 . S
C288 O300 1.241 . S
C288 O301 1.280 . S
C289 O302 1.277 . S
C289 O303 1.245 . S
C290 O314 1.247 . S
C290 O316 1.289 . S
Mg291 O292 1.926 . S
Mg291 O301 1.984 . S
Mg291 O303 1.988 1_655 S
Mg291 O304 2.061 . S
O292 Mg291 1.926 . S
O292 Mg293 1.986 1_655 S
O292 Mg294 1.917 1_655 S
Mg293 O292 1.986 1_455 S
Mg293 O300 2.042 1_455 S
Mg293 O302 2.041 . S
Mg293 O308 2.038 1_455 S
Mg293 O316 2.238 . S
Mg294 O292 1.917 1_455 S
Mg294 O295 1.917 . S
Mg294 O305 2.106 1_455 S
Mg294 O307 2.079 1_455 S
Mg294 O316 2.106 . S
Mg294 O317 2.079 . S
O295 Mg294 1.917 . S
O295 Mg296 1.926 . S
O295 Mg297 1.986 . S
Mg296 O295 1.926 . S
Mg296 O310 1.984 . S
Mg296 O313 1.988 1_455 S
Mg296 O314 2.061 . S
Mg297 O295 1.986 . S
Mg297 O305 2.238 1_455 S
Mg297 O309 2.042 . S
Mg297 O311 2.041 1_455 S
Mg297 O318 2.038 . S
C298 O304 1.247 . S
C298 O305 1.289 . S
C299 O317 1.245 . S
C299 O318 1.274 . S
O300 C288 1.241 . S
O300 Mg293 2.042 1_655 S
O301 C288 1.280 . S
O301 Mg291 1.984 . S
O302 C289 1.277 . S
O302 Mg293 2.041 . S
O303 C289 1.245 . S
O303 Mg291 1.988 1_455 S
O304 Mg291 2.061 . S
O304 C298 1.247 . S
O305 Mg294 2.106 1_655 S
O305 Mg297 2.238 1_655 S
O305 C298 1.289 . S
C306 O307 1.245 . S
C306 O308 1.274 . S
O307 Mg294 2.079 1_655 S
O307 C306 1.245 . S
O308 Mg293 2.038 1_655 S
O308 C306 1.274 . S
O309 Mg297 2.042 . S
O309 C312 1.241 . S
O310 Mg296 1.984 . S
O310 C312 1.280 . S
O311 Mg297 2.041 1_655 S
O311 C315 1.277 . S
C312 O309 1.241 . S
C312 O310 1.280 . S
O313 Mg296 1.988 1_655 S
O313 C315 1.245 . S
O314 C290 1.247 . S
O314 Mg296 2.061 . S
C315 O311 1.277 . S
C315 O313 1.245 . S
O316 C290 1.289 . S
O316 Mg293 2.238 . S
O316 Mg294 2.106 . S
O317 Mg294 2.079 . S
O317 C299 1.245 . S
O318 Mg297 2.038 . S
O318 C299 1.274 . S
C319 O331 1.241 . S
C319 O332 1.280 . S
C320 O333 1.277 . S
C320 O334 1.245 . S
C321 O345 1.247 . S
C321 O347 1.289 . S
Mg322 O323 1.926 . S
Mg322 O332 1.984 . S
Mg322 O334 1.988 1_545 S
Mg322 O335 2.061 . S
O323 Mg322 1.926 . S
O323 Mg324 1.986 . S
O323 Mg325 1.917 . S
Mg324 O323 1.986 . S
Mg324 O331 2.042 . S
Mg324 O333 2.041 1_545 S
Mg324 O339 2.038 . S
Mg324 O347 2.238 1_545 S
Mg325 O323 1.917 . S
Mg325 O326 1.917 1_545 S
Mg325 O336 2.106 . S
Mg325 O338 2.079 . S
Mg325 O347 2.106 1_545 S
Mg325 O348 2.079 1_545 S
O326 Mg325 1.917 1_565 S
O326 Mg327 1.926 . S
O326 Mg328 1.986 1_565 S
Mg327 O326 1.926 . S
Mg327 O341 1.984 . S
Mg327 O344 1.988 1_565 S
Mg327 O345 2.061 . S
Mg328 O326 1.986 1_545 S
Mg328 O336 2.238 . S
Mg328 O340 2.042 1_545 S
Mg328 O342 2.041 . S
Mg328 O349 2.038 1_545 S
C329 O335 1.247 . S
C329 O336 1.289 . S
C330 O348 1.245 . S
C330 O349 1.274 . S
O331 C319 1.241 . S
O331 Mg324 2.042 . S
O332 C319 1.280 . S
O332 Mg322 1.984 . S
O333 C320 1.277 . S
O333 Mg324 2.041 1_565 S
O334 C320 1.245 . S
O334 Mg322 1.988 1_565 S
O335 Mg322 2.061 . S
O335 C329 1.247 . S
O336 Mg325 2.106 . S
O336 Mg328 2.238 . S
O336 C329 1.289 . S
C337 O338 1.245 . S
C337 O339 1.274 . S
O338 Mg325 2.079 . S
O338 C337 1.245 . S
O339 Mg324 2.038 . S
O339 C337 1.274 . S
O340 Mg328 2.042 1_565 S
O340 C343 1.241 . S
O341 Mg327 1.984 . S
O341 C343 1.280 . S
O342 Mg328 2.041 . S
O342 C346 1.277 . S
C343 O340 1.241 . S
C343 O341 1.280 . S
O344 Mg327 1.988 1_545 S
O344 C346 1.245 . S
O345 C321 1.247 . S
O345 Mg327 2.061 . S
C346 O342 1.277 . S
C346 O344 1.245 . S
O347 C321 1.289 . S
O347 Mg324 2.238 1_565 S
O347 Mg325 2.106 1_565 S
O348 Mg325 2.079 1_565 S
O348 C330 1.245 . S
O349 Mg328 2.038 1_565 S
O349 C330 1.274 . S
C350 O362 1.241 . S
C350 O363 1.280 . S
C351 O364 1.277 . S
C351 O365 1.245 . S
C352 O376 1.247 . S
C352 O378 1.289 . S
Mg353 O354 1.926 . S
Mg353 O363 1.984 . S
Mg353 O365 1.988 . S
Mg353 O366 2.061 . S
O354 Mg353 1.926 . S
O354 Mg355 1.986 . S
O354 Mg356 1.917 . S
Mg355 O354 1.986 . S
Mg355 O362 2.042 . S
Mg355 O364 2.041 . S
Mg355 O370 2.038 . S
Mg355 O378 2.238 . S
Mg356 O354 1.917 . S
Mg356 O357 1.917 . S
Mg356 O367 2.106 . S
Mg356 O369 2.079 . S
Mg356 O378 2.106 . S
Mg356 O379 2.079 . S
O357 Mg356 1.917 . S
O357 Mg358 1.926 . S
O357 Mg359 1.986 . S
Mg358 O357 1.926 . S
Mg358 O372 1.984 . S
Mg358 O375 1.988 . S
Mg358 O376 2.061 . S
Mg359 O357 1.986 . S
Mg359 O367 2.238 . S
Mg359 O371 2.042 . S
Mg359 O373 2.041 . S
Mg359 O380 2.038 . S
C360 O366 1.247 . S
C360 O367 1.289 . S
C361 O379 1.245 . S
C361 O380 1.274 . S
O362 C350 1.241 . S
O362 Mg355 2.042 . S
O363 C350 1.280 . S
O363 Mg353 1.984 . S
O364 C351 1.277 . S
O364 Mg355 2.041 . S
O365 C351 1.245 . S
O365 Mg353 1.988 . S
O366 Mg353 2.061 . S
O366 C360 1.247 . S
O367 Mg356 2.106 . S
O367 Mg359 2.238 . S
O367 C360 1.289 . S
C368 O369 1.245 . S
C368 O370 1.274 . S
O369 Mg356 2.079 . S
O369 C368 1.245 . S
O370 Mg355 2.038 . S
O370 C368 1.274 . S
O371 Mg359 2.042 . S
O371 C374 1.241 . S
O372 Mg358 1.984 . S
O372 C374 1.280 . S
O373 Mg359 2.041 . S
O373 C377 1.277 . S
C374 O371 1.241 . S
C374 O372 1.280 . S
O375 Mg358 1.988 . S
O375 C377 1.245 . S
O376 C352 1.247 . S
O376 Mg358 2.061 . S
C377 O373 1.277 . S
C377 O375 1.245 . S
O378 C352 1.289 . S
O378 Mg355 2.238 . S
O378 Mg356 2.106 . S
O379 Mg356 2.079 . S
O379 C361 1.245 . S
O380 Mg359 2.038 . S
O380 C361 1.274 . S
C381 C382 1.391 . S
C381 C383 1.394 . S
C381 H397 0.931 . S
C382 C381 1.391 . S
C382 C386 1.376 . S
C383 C381 1.394 . S
C383 C384 1.369 . S
C383 C387 1.531 . S
C384 C383 1.369 . S
C384 C385 1.410 . S
C384 C392 1.503 . S
C385 C384 1.410 . S
C385 C386 1.392 . S
C385 C388 1.511 . S
C386 C382 1.376 . S
C386 C385 1.392 . S
C386 H398 0.929 . S
C387 C383 1.531 . S
C387 H399 0.960 . S
C387 H400 0.962 . S
C387 H401 0.960 . S
C388 C385 1.511 . S
C388 H402 0.961 . S
C388 H403 0.961 . S
C388 H404 0.961 . S
C389 C390 1.370 . S
C389 C391 1.363 . S
C389 H405 0.931 . S
C390 C389 1.370 . S
C390 C394 1.408 . S
C391 C389 1.363 . S
C391 C392 1.370 . S
C391 C395 1.524 . S
C392 C384 1.503 . S
C392 C391 1.370 . S
C392 C393 1.403 . S
C393 C392 1.403 . S
C393 C394 1.404 . S
C393 C396 1.539 . S
C394 C390 1.408 . S
C394 C393 1.404 . S
C394 H406 0.930 . S
C395 C391 1.524 . S
C395 H407 0.956 . S
C395 H408 0.961 . S
C395 H409 0.961 . S
C396 C393 1.539 . S
C396 H410 0.958 . S
C396 H411 0.961 . S
C396 H412 0.960 . S
H397 C381 0.931 . S
H398 C386 0.929 . S
H399 C387 0.960 . S
H400 C387 0.962 . S
H401 C387 0.960 . S
H402 C388 0.961 . S
H403 C388 0.961 . S
H404 C388 0.961 . S
H405 C389 0.931 . S
H406 C394 0.930 . S
H407 C395 0.956 . S
H408 C395 0.961 . S
H409 C395 0.961 . S
H410 C396 0.958 . S
H411 C396 0.961 . S
H412 C396 0.960 . S
C413 C414 1.391 . S
C413 C415 1.394 . S
C413 H429 0.931 . S
C414 C413 1.391 . S
C414 C418 1.376 . S
C415 C413 1.394 . S
C415 C416 1.369 . S
C415 C419 1.531 . S
C416 C415 1.369 . S
C416 C417 1.410 . S
C416 C424 1.503 . S
C417 C416 1.410 . S
C417 C418 1.392 . S
C417 C420 1.511 . S
C418 C414 1.376 . S
C418 C417 1.392 . S
C418 H430 0.929 . S
C419 C415 1.531 . S
C419 H431 0.960 . S
C419 H432 0.962 . S
C419 H433 0.960 . S
C420 C417 1.511 . S
C420 H434 0.961 . S
C420 H435 0.961 . S
C420 H436 0.961 . S
C421 C422 1.370 . S
C421 C423 1.363 . S
C421 H437 0.931 . S
C422 C421 1.370 . S
C422 C426 1.408 . S
C423 C421 1.363 . S
C423 C424 1.370 . S
C423 C427 1.524 . S
C424 C416 1.503 . S
C424 C423 1.370 . S
C424 C425 1.403 . S
C425 C424 1.403 . S
C425 C426 1.404 . S
C425 C428 1.539 . S
C426 C422 1.408 . S
C426 C425 1.404 . S
C426 H438 0.930 . S
C427 C423 1.524 . S
C427 H439 0.956 . S
C427 H440 0.961 . S
C427 H441 0.961 . S
C428 C425 1.539 . S
C428 H442 0.958 . S
C428 H443 0.961 . S
C428 H444 0.960 . S
H429 C413 0.931 . S
H430 C418 0.929 . S
H431 C419 0.960 . S
H432 C419 0.962 . S
H433 C419 0.960 . S
H434 C420 0.961 . S
H435 C420 0.961 . S
H436 C420 0.961 . S
H437 C421 0.931 . S
H438 C426 0.930 . S
H439 C427 0.956 . S
H440 C427 0.961 . S
H441 C427 0.961 . S
H442 C428 0.958 . S
H443 C428 0.961 . S
H444 C428 0.960 . S
C445 C446 1.391 . S
C445 C447 1.394 . S
C445 H461 0.931 . S
C446 C445 1.391 . S
C446 C450 1.376 . S
C447 C445 1.394 . S
C447 C448 1.369 . S
C447 C451 1.531 . S
C448 C447 1.369 . S
C448 C449 1.410 . S
C448 C456 1.503 . S
C449 C448 1.410 . S
C449 C450 1.392 . S
C449 C452 1.511 . S
C450 C446 1.376 . S
C450 C449 1.392 . S
C450 H462 0.929 . S
C451 C447 1.531 . S
C451 H463 0.960 . S
C451 H464 0.962 . S
C451 H465 0.960 . S
C452 C449 1.511 . S
C452 H466 0.961 . S
C452 H467 0.961 . S
C452 H468 0.961 . S
C453 C454 1.370 . S
C453 C455 1.363 . S
C453 H469 0.931 . S
C454 C453 1.370 . S
C454 C458 1.408 . S
C455 C453 1.363 . S
C455 C456 1.370 . S
C455 C459 1.524 . S
C456 C448 1.503 . S
C456 C455 1.370 . S
C456 C457 1.403 . S
C457 C456 1.403 . S
C457 C458 1.404 . S
C457 C460 1.539 . S
C458 C454 1.408 . S
C458 C457 1.404 . S
C458 H470 0.930 . S
C459 C455 1.524 . S
C459 H471 0.956 . S
C459 H472 0.961 . S
C459 H473 0.961 . S
C460 C457 1.539 . S
C460 H474 0.958 . S
C460 H475 0.961 . S
C460 H476 0.960 . S
H461 C445 0.931 . S
H462 C450 0.929 . S
H463 C451 0.960 . S
H464 C451 0.962 . S
H465 C451 0.960 . S
H466 C452 0.961 . S
H467 C452 0.961 . S
H468 C452 0.961 . S
H469 C453 0.931 . S
H470 C458 0.930 . S
H471 C459 0.956 . S
H472 C459 0.961 . S
H473 C459 0.961 . S
H474 C460 0.958 . S
H475 C460 0.961 . S
H476 C460 0.960 . S
C477 C478 1.391 . S
C477 C479 1.394 . S
C477 H493 0.931 . S
C478 C477 1.391 . S
C478 C482 1.376 . S
C479 C477 1.394 . S
C479 C480 1.369 . S
C479 C483 1.531 . S
C480 C479 1.369 . S
C480 C481 1.410 . S
C480 C488 1.503 . S
C481 C480 1.410 . S
C481 C482 1.392 . S
C481 C484 1.511 . S
C482 C478 1.376 . S
C482 C481 1.392 . S
C482 H494 0.929 . S
C483 C479 1.531 . S
C483 H495 0.960 . S
C483 H496 0.962 . S
C483 H497 0.960 . S
C484 C481 1.511 . S
C484 H498 0.961 . S
C484 H499 0.961 . S
C484 H500 0.961 . S
C485 C486 1.370 . S
C485 C487 1.363 . S
C485 H501 0.931 . S
C486 C485 1.370 . S
C486 C490 1.408 . S
C487 C485 1.363 . S
C487 C488 1.370 . S
C487 C491 1.524 . S
C488 C480 1.503 . S
C488 C487 1.370 . S
C488 C489 1.403 . S
C489 C488 1.403 . S
C489 C490 1.404 . S
C489 C492 1.539 . S
C490 C486 1.408 . S
C490 C489 1.404 . S
C490 H502 0.930 . S
C491 C487 1.524 . S
C491 H503 0.956 . S
C491 H504 0.961 . S
C491 H505 0.961 . S
C492 C489 1.539 . S
C492 H506 0.958 . S
C492 H507 0.961 . S
C492 H508 0.960 . S
H493 C477 0.931 . S
H494 C482 0.929 . S
H495 C483 0.960 . S
H496 C483 0.962 . S
H497 C483 0.960 . S
H498 C484 0.961 . S
H499 C484 0.961 . S
H500 C484 0.961 . S
H501 C485 0.931 . S
H502 C490 0.930 . S
H503 C491 0.956 . S
H504 C491 0.961 . S
H505 C491 0.961 . S
H506 C492 0.958 . S
H507 C492 0.961 . S
H508 C492 0.960 . S
C509 C510 1.391 . S
C509 C511 1.394 . S
C509 H525 0.931 . S
C510 C509 1.391 . S
C510 C514 1.376 . S
C511 C509 1.394 . S
C511 C512 1.369 . S
C511 C515 1.531 . S
C512 C511 1.369 . S
C512 C513 1.410 . S
C512 C520 1.503 . S
C513 C512 1.410 . S
C513 C514 1.392 . S
C513 C516 1.511 . S
C514 C510 1.376 . S
C514 C513 1.392 . S
C514 H526 0.929 . S
C515 C511 1.531 . S
C515 H527 0.960 . S
C515 H528 0.962 . S
C515 H529 0.960 . S
C516 C513 1.511 . S
C516 H530 0.961 . S
C516 H531 0.961 . S
C516 H532 0.961 . S
C517 C518 1.370 . S
C517 C519 1.363 . S
C517 H533 0.931 . S
C518 C517 1.370 . S
C518 C522 1.408 . S
C519 C517 1.363 . S
C519 C520 1.370 . S
C519 C523 1.524 . S
C520 C512 1.503 . S
C520 C519 1.370 . S
C520 C521 1.403 . S
C521 C520 1.403 . S
C521 C522 1.404 . S
C521 C524 1.539 . S
C522 C518 1.408 . S
C522 C521 1.404 . S
C522 H534 0.930 . S
C523 C519 1.524 . S
C523 H535 0.956 . S
C523 H536 0.961 . S
C523 H537 0.961 . S
C524 C521 1.539 . S
C524 H538 0.958 . S
C524 H539 0.961 . S
C524 H540 0.960 . S
H525 C509 0.931 . S
H526 C514 0.929 . S
H527 C515 0.960 . S
H528 C515 0.962 . S
H529 C515 0.960 . S
H530 C516 0.961 . S
H531 C516 0.961 . S
H532 C516 0.961 . S
H533 C517 0.931 . S
H534 C522 0.930 . S
H535 C523 0.956 . S
H536 C523 0.961 . S
H537 C523 0.961 . S
H538 C524 0.958 . S
H539 C524 0.961 . S
H540 C524 0.960 . S
C541 C542 1.391 . S
C541 C543 1.394 . S
C541 H557 0.931 . S
C542 C541 1.391 . S
C542 C546 1.376 . S
C543 C541 1.394 . S
C543 C544 1.369 . S
C543 C547 1.531 . S
C544 C543 1.369 . S
C544 C545 1.410 . S
C544 C552 1.503 . S
C545 C544 1.410 . S
C545 C546 1.392 . S
C545 C548 1.511 . S
C546 C542 1.376 . S
C546 C545 1.392 . S
C546 H558 0.929 . S
C547 C543 1.531 . S
C547 H559 0.960 . S
C547 H560 0.962 . S
C547 H561 0.960 . S
C548 C545 1.511 . S
C548 H562 0.961 . S
C548 H563 0.961 . S
C548 H564 0.961 . S
C549 C550 1.370 . S
C549 C551 1.363 . S
C549 H565 0.931 . S
C550 C549 1.370 . S
C550 C554 1.408 . S
C551 C549 1.363 . S
C551 C552 1.370 . S
C551 C555 1.524 . S
C552 C544 1.503 . S
C552 C551 1.370 . S
C552 C553 1.403 . S
C553 C552 1.403 . S
C553 C554 1.404 . S
C553 C556 1.539 . S
C554 C550 1.408 . S
C554 C553 1.404 . S
C554 H566 0.930 . S
C555 C551 1.524 . S
C555 H567 0.956 . S
C555 H568 0.961 . S
C555 H569 0.961 . S
C556 C553 1.539 . S
C556 H570 0.958 . S
C556 H571 0.961 . S
C556 H572 0.960 . S
H557 C541 0.931 . S
H558 C546 0.929 . S
H559 C547 0.960 . S
H560 C547 0.962 . S
H561 C547 0.960 . S
H562 C548 0.961 . S
H563 C548 0.961 . S
H564 C548 0.961 . S
H565 C549 0.931 . S
H566 C554 0.930 . S
H567 C555 0.956 . S
H568 C555 0.961 . S
H569 C555 0.961 . S
H570 C556 0.958 . S
H571 C556 0.961 . S
H572 C556 0.960 . S
C573 C574 1.391 . S
C573 C575 1.394 . S
C573 H589 0.931 . S
C574 C573 1.391 . S
C574 C578 1.376 . S
C575 C573 1.394 . S
C575 C576 1.369 . S
C575 C579 1.531 . S
C576 C575 1.369 . S
C576 C577 1.410 . S
C576 C584 1.503 . S
C577 C576 1.410 . S
C577 C578 1.392 . S
C577 C580 1.511 . S
C578 C574 1.376 . S
C578 C577 1.392 . S
C578 H590 0.929 . S
C579 C575 1.531 . S
C579 H591 0.960 . S
C579 H592 0.962 . S
C579 H593 0.960 . S
C580 C577 1.511 . S
C580 H594 0.961 . S
C580 H595 0.961 . S
C580 H596 0.961 . S
C581 C582 1.370 . S
C581 C583 1.363 . S
C581 H597 0.931 . S
C582 C581 1.370 . S
C582 C586 1.408 . S
C583 C581 1.363 . S
C583 C584 1.370 . S
C583 C587 1.524 . S
C584 C576 1.503 . S
C584 C583 1.370 . S
C584 C585 1.403 . S
C585 C584 1.403 . S
C585 C586 1.404 . S
C585 C588 1.539 . S
C586 C582 1.408 . S
C586 C585 1.404 . S
C586 H598 0.930 . S
C587 C583 1.524 . S
C587 H599 0.956 . S
C587 H600 0.961 . S
C587 H601 0.961 . S
C588 C585 1.539 . S
C588 H602 0.958 . S
C588 H603 0.961 . S
C588 H604 0.960 . S
H589 C573 0.931 . S
H590 C578 0.929 . S
H591 C579 0.960 . S
H592 C579 0.962 . S
H593 C579 0.960 . S
H594 C580 0.961 . S
H595 C580 0.961 . S
H596 C580 0.961 . S
H597 C581 0.931 . S
H598 C586 0.930 . S
H599 C587 0.956 . S
H600 C587 0.961 . S
H601 C587 0.961 . S
H602 C588 0.958 . S
H603 C588 0.961 . S
H604 C588 0.960 . S
C605 C606 1.391 . S
C605 C607 1.394 . S
C605 H621 0.931 . S
C606 C605 1.391 . S
C606 C610 1.376 . S
C607 C605 1.394 . S
C607 C608 1.369 . S
C607 C611 1.531 . S
C608 C607 1.369 . S
C608 C609 1.410 . S
C608 C616 1.503 . S
C609 C608 1.410 . S
C609 C610 1.392 . S
C609 C612 1.511 . S
C610 C606 1.376 . S
C610 C609 1.392 . S
C610 H622 0.929 . S
C611 C607 1.531 . S
C611 H623 0.960 . S
C611 H624 0.962 . S
C611 H625 0.960 . S
C612 C609 1.511 . S
C612 H626 0.961 . S
C612 H627 0.961 . S
C612 H628 0.961 . S
C613 C614 1.370 . S
C613 C615 1.363 . S
C613 H629 0.931 . S
C614 C613 1.370 . S
C614 C618 1.408 . S
C615 C613 1.363 . S
C615 C616 1.370 . S
C615 C619 1.524 . S
C616 C608 1.503 . S
C616 C615 1.370 . S
C616 C617 1.403 . S
C617 C616 1.403 . S
C617 C618 1.404 . S
C617 C620 1.539 . S
C618 C614 1.408 . S
C618 C617 1.404 . S
C618 H630 0.930 . S
C619 C615 1.524 . S
C619 H631 0.956 . S
C619 H632 0.961 . S
C619 H633 0.961 . S
C620 C617 1.539 . S
C620 H634 0.958 . S
C620 H635 0.961 . S
C620 H636 0.960 . S
H621 C605 0.931 . S
H622 C610 0.929 . S
H623 C611 0.960 . S
H624 C611 0.962 . S
H625 C611 0.960 . S
H626 C612 0.961 . S
H627 C612 0.961 . S
H628 C612 0.961 . S
H629 C613 0.931 . S
H630 C618 0.930 . S
H631 C619 0.956 . S
H632 C619 0.961 . S
H633 C619 0.961 . S
H634 C620 0.958 . S
H635 C620 0.961 . S
H636 C620 0.960 . S
C637 C638 1.391 . S
C637 C639 1.394 . S
C637 H653 0.931 . S
C638 C637 1.391 . S
C638 C642 1.376 . S
C639 C637 1.394 . S
C639 C640 1.369 . S
C639 C643 1.531 . S
C640 C639 1.369 . S
C640 C641 1.410 . S
C640 C648 1.503 . S
C641 C640 1.410 . S
C641 C642 1.392 . S
C641 C644 1.511 . S
C642 C638 1.376 . S
C642 C641 1.392 . S
C642 H654 0.929 . S
C643 C639 1.531 . S
C643 H655 0.960 . S
C643 H656 0.962 . S
C643 H657 0.960 . S
C644 C641 1.511 . S
C644 H658 0.961 . S
C644 H659 0.961 . S
C644 H660 0.961 . S
C645 C646 1.370 . S
C645 C647 1.363 . S
C645 H661 0.931 . S
C646 C645 1.370 . S
C646 C650 1.408 . S
C647 C645 1.363 . S
C647 C648 1.370 . S
C647 C651 1.524 . S
C648 C640 1.503 . S
C648 C647 1.370 . S
C648 C649 1.403 . S
C649 C648 1.403 . S
C649 C650 1.404 . S
C649 C652 1.539 . S
C650 C646 1.408 . S
C650 C649 1.404 . S
C650 H662 0.930 . S
C651 C647 1.524 . S
C651 H663 0.956 . S
C651 H664 0.961 . S
C651 H665 0.961 . S
C652 C649 1.539 . S
C652 H666 0.958 . S
C652 H667 0.961 . S
C652 H668 0.960 . S
H653 C637 0.931 . S
H654 C642 0.929 . S
H655 C643 0.960 . S
H656 C643 0.962 . S
H657 C643 0.960 . S
H658 C644 0.961 . S
H659 C644 0.961 . S
H660 C644 0.961 . S
H661 C645 0.931 . S
H662 C650 0.930 . S
H663 C651 0.956 . S
H664 C651 0.961 . S
H665 C651 0.961 . S
H666 C652 0.958 . S
H667 C652 0.961 . S
H668 C652 0.960 . S
C669 C670 1.391 1_556 S
C669 C671 1.394 . S
C669 H685 0.931 . S
C670 C669 1.391 1_554 S
C670 C674 1.376 . S
C671 C669 1.394 . S
C671 C672 1.369 . S
C671 C675 1.531 . S
C672 C671 1.369 . S
C672 C673 1.410 . S
C672 C680 1.503 . S
C673 C672 1.410 . S
C673 C674 1.392 1_556 S
C673 C676 1.511 . S
C674 C670 1.376 . S
C674 C673 1.392 1_554 S
C674 H686 0.929 . S
C675 C671 1.531 . S
C675 H687 0.960 . S
C675 H688 0.962 . S
C675 H689 0.960 . S
C676 C673 1.511 . S
C676 H690 0.961 1_556 S
C676 H691 0.961 . S
C676 H692 0.961 . S
C677 C678 1.370 . S
C677 C679 1.363 . S
C677 H693 0.931 . S
C678 C677 1.370 . S
C678 C682 1.408 . S
C679 C677 1.363 . S
C679 C680 1.370 . S
C679 C683 1.524 . S
C680 C672 1.503 . S
C680 C679 1.370 . S
C680 C681 1.403 . S
C681 C680 1.403 . S
C681 C682 1.404 . S
C681 C684 1.539 . S
C682 C678 1.408 . S
C682 C681 1.404 . S
C682 H694 0.930 . S
C683 C679 1.524 . S
C683 H695 0.956 . S
C683 H696 0.961 1_556 S
C683 H697 0.961 . S
C684 C681 1.539 . S
C684 H698 0.958 . S
C684 H699 0.961 . S
C684 H700 0.960 . S
H685 C669 0.931 . S
H686 C674 0.929 . S
H687 C675 0.960 . S
H688 C675 0.962 . S
H689 C675 0.960 . S
H690 C676 0.961 1_554 S
H691 C676 0.961 . S
H692 C676 0.961 . S
H693 C677 0.931 . S
H694 C682 0.930 . S
H695 C683 0.956 . S
H696 C683 0.961 1_554 S
H697 C683 0.961 . S
H698 C684 0.958 . S
H699 C684 0.961 . S
H700 C684 0.960 . S
C701 C702 1.391 . S
C701 C703 1.394 . S
C701 H717 0.931 . S
C702 C701 1.391 . S
C702 C706 1.376 . S
C703 C701 1.394 . S
C703 C704 1.369 . S
C703 C707 1.531 . S
C704 C703 1.369 . S
C704 C705 1.410 . S
C704 C712 1.503 . S
C705 C704 1.410 . S
C705 C706 1.392 . S
C705 C708 1.511 . S
C706 C702 1.376 . S
C706 C705 1.392 . S
C706 H718 0.929 . S
C707 C703 1.531 . S
C707 H719 0.960 . S
C707 H720 0.962 . S
C707 H721 0.960 . S
C708 C705 1.511 . S
C708 H722 0.961 . S
C708 H723 0.961 . S
C708 H724 0.961 . S
C709 C710 1.370 . S
C709 C711 1.363 . S
C709 H725 0.931 . S
C710 C709 1.370 . S
C710 C714 1.408 . S
C711 C709 1.363 . S
C711 C712 1.370 . S
C711 C715 1.524 . S
C712 C704 1.503 . S
C712 C711 1.370 . S
C712 C713 1.403 . S
C713 C712 1.403 . S
C713 C714 1.404 . S
C713 C716 1.539 . S
C714 C710 1.408 . S
C714 C713 1.404 . S
C714 H726 0.930 . S
C715 C711 1.524 . S
C715 H727 0.956 . S
C715 H728 0.961 . S
C715 H729 0.961 . S
C716 C713 1.539 . S
C716 H730 0.958 . S
C716 H731 0.961 . S
C716 H732 0.960 . S
H717 C701 0.931 . S
H718 C706 0.929 . S
H719 C707 0.960 . S
H720 C707 0.962 . S
H721 C707 0.960 . S
H722 C708 0.961 . S
H723 C708 0.961 . S
H724 C708 0.961 . S
H725 C709 0.931 . S
H726 C714 0.930 . S
H727 C715 0.956 . S
H728 C715 0.961 . S
H729 C715 0.961 . S
H730 C716 0.958 . S
H731 C716 0.961 . S
H732 C716 0.960 . S
C733 C734 1.391 . S
C733 C735 1.394 . S
C733 H749 0.931 . S
C734 C733 1.391 . S
C734 C738 1.376 . S
C735 C733 1.394 . S
C735 C736 1.369 . S
C735 C739 1.531 . S
C736 C735 1.369 . S
C736 C737 1.410 . S
C736 C744 1.503 . S
C737 C736 1.410 . S
C737 C738 1.392 . S
C737 C740 1.511 . S
C738 C734 1.376 . S
C738 C737 1.392 . S
C738 H750 0.929 . S
C739 C735 1.531 . S
C739 H751 0.960 . S
C739 H752 0.962 . S
C739 H753 0.960 . S
C740 C737 1.511 . S
C740 H754 0.961 . S
C740 H755 0.961 . S
C740 H756 0.961 . S
C741 C742 1.370 . S
C741 C743 1.363 . S
C741 H757 0.931 . S
C742 C741 1.370 . S
C742 C746 1.408 . S
C743 C741 1.363 . S
C743 C744 1.370 . S
C743 C747 1.524 . S
C744 C736 1.503 . S
C744 C743 1.370 . S
C744 C745 1.403 . S
C745 C744 1.403 . S
C745 C746 1.404 . S
C745 C748 1.539 . S
C746 C742 1.408 . S
C746 C745 1.404 . S
C746 H758 0.930 . S
C747 C743 1.524 . S
C747 H759 0.956 . S
C747 H760 0.961 . S
C747 H761 0.961 . S
C748 C745 1.539 . S
C748 H762 0.958 . S
C748 H763 0.961 . S
C748 H764 0.960 . S
H749 C733 0.931 . S
H750 C738 0.929 . S
H751 C739 0.960 . S
H752 C739 0.962 . S
H753 C739 0.960 . S
H754 C740 0.961 . S
H755 C740 0.961 . S
H756 C740 0.961 . S
H757 C741 0.931 . S
H758 C746 0.930 . S
H759 C747 0.956 . S
H760 C747 0.961 . S
H761 C747 0.961 . S
H762 C748 0.958 . S
H763 C748 0.961 . S
H764 C748 0.960 . S
C765 C766 1.391 . S
C765 C767 1.394 . S
C765 H781 0.931 . S
C766 C765 1.391 . S
C766 C770 1.376 . S
C767 C765 1.394 . S
C767 C768 1.369 . S
C767 C771 1.531 . S
C768 C767 1.369 . S
C768 C769 1.410 . S
C768 C776 1.503 . S
C769 C768 1.410 . S
C769 C770 1.392 . S
C769 C772 1.511 . S
C770 C766 1.376 . S
C770 C769 1.392 . S
C770 H782 0.929 . S
C771 C767 1.531 . S
C771 H783 0.960 . S
C771 H784 0.962 . S
C771 H785 0.960 . S
C772 C769 1.511 . S
C772 H786 0.961 . S
C772 H787 0.961 . S
C772 H788 0.961 . S
C773 C774 1.370 . S
C773 C775 1.363 . S
C773 H789 0.931 . S
C774 C773 1.370 . S
C774 C778 1.408 . S
C775 C773 1.363 . S
C775 C776 1.370 . S
C775 C779 1.524 . S
C776 C768 1.503 . S
C776 C775 1.370 . S
C776 C777 1.403 . S
C777 C776 1.403 . S
C777 C778 1.404 . S
C777 C780 1.539 . S
C778 C774 1.408 . S
C778 C777 1.404 . S
C778 H790 0.930 . S
C779 C775 1.524 . S
C779 H791 0.956 . S
C779 H792 0.961 . S
C779 H793 0.961 . S
C780 C777 1.539 . S
C780 H794 0.958 . S
C780 H795 0.961 . S
C780 H796 0.960 . S
H781 C765 0.931 . S
H782 C770 0.929 . S
H783 C771 0.960 . S
H784 C771 0.962 . S
H785 C771 0.960 . S
H786 C772 0.961 . S
H787 C772 0.961 . S
H788 C772 0.961 . S
H789 C773 0.931 . S
H790 C778 0.930 . S
H791 C779 0.956 . S
H792 C779 0.961 . S
H793 C779 0.961 . S
H794 C780 0.958 . S
H795 C780 0.961 . S
H796 C780 0.960 . S
C797 C798 1.391 . S
C797 C799 1.394 . S
C797 H813 0.931 . S
C798 C797 1.391 . S
C798 C802 1.376 . S
C799 C797 1.394 . S
C799 C800 1.369 . S
C799 C803 1.531 . S
C800 C799 1.369 . S
C800 C801 1.410 . S
C800 C808 1.503 . S
C801 C800 1.410 . S
C801 C802 1.392 . S
C801 C804 1.511 . S
C802 C798 1.376 . S
C802 C801 1.392 . S
C802 H814 0.929 . S
C803 C799 1.531 . S
C803 H815 0.960 . S
C803 H816 0.962 . S
C803 H817 0.960 . S
C804 C801 1.511 . S
C804 H818 0.961 . S
C804 H819 0.961 . S
C804 H820 0.961 . S
C805 C806 1.370 . S
C805 C807 1.363 . S
C805 H821 0.931 . S
C806 C805 1.370 . S
C806 C810 1.408 . S
C807 C805 1.363 . S
C807 C808 1.370 . S
C807 C811 1.524 . S
C808 C800 1.503 . S
C808 C807 1.370 . S
C808 C809 1.403 . S
C809 C808 1.403 . S
C809 C810 1.404 . S
C809 C812 1.539 . S
C810 C806 1.408 . S
C810 C809 1.404 . S
C810 H822 0.930 . S
C811 C807 1.524 . S
C811 H823 0.956 . S
C811 H824 0.961 . S
C811 H825 0.961 . S
C812 C809 1.539 . S
C812 H826 0.958 . S
C812 H827 0.961 . S
C812 H828 0.960 . S
H813 C797 0.931 . S
H814 C802 0.929 . S
H815 C803 0.960 . S
H816 C803 0.962 . S
H817 C803 0.960 . S
H818 C804 0.961 . S
H819 C804 0.961 . S
H820 C804 0.961 . S
H821 C805 0.931 . S
H822 C810 0.930 . S
H823 C811 0.956 . S
H824 C811 0.961 . S
H825 C811 0.961 . S
H826 C812 0.958 . S
H827 C812 0.961 . S
H828 C812 0.960 . S
C829 C830 1.391 . S
C829 C831 1.394 1_554 S
C829 H845 0.931 . S
C830 C829 1.391 . S
C830 C834 1.376 1_554 S
C831 C829 1.394 1_556 S
C831 C832 1.369 . S
C831 C835 1.531 1_556 S
C832 C831 1.369 . S
C832 C833 1.410 . S
C832 C840 1.503 . S
C833 C832 1.410 . S
C833 C834 1.392 . S
C833 C836 1.511 . S
C834 C830 1.376 1_556 S
C834 C833 1.392 . S
C834 H846 0.929 . S
C835 C831 1.531 1_554 S
C835 H847 0.960 1_554 S
C835 H848 0.962 1_554 S
C835 H849 0.960 . S
C836 C833 1.511 . S
C836 H850 0.961 . S
C836 H851 0.961 . S
C836 H852 0.961 . S
C837 C838 1.370 . S
C837 C839 1.363 . S
C837 H853 0.931 . S
C838 C837 1.370 . S
C838 C842 1.408 . S
C839 C837 1.363 . S
C839 C840 1.370 . S
C839 C843 1.524 . S
C840 C832 1.503 . S
C840 C839 1.370 . S
C840 C841 1.403 . S
C841 C840 1.403 . S
C841 C842 1.404 . S
C841 C844 1.539 . S
C842 C838 1.408 . S
C842 C841 1.404 . S
C842 H854 0.930 . S
C843 C839 1.524 . S
C843 H855 0.956 . S
C843 H856 0.961 . S
C843 H857 0.961 . S
C844 C841 1.539 . S
C844 H858 0.958 1_556 S
C844 H859 0.961 . S
C844 H860 0.960 . S
H845 C829 0.931 . S
H846 C834 0.929 . S
H847 C835 0.960 1_556 S
H848 C835 0.962 1_556 S
H849 C835 0.960 . S
H850 C836 0.961 . S
H851 C836 0.961 . S
H852 C836 0.961 . S
H853 C837 0.931 . S
H854 C842 0.930 . S
H855 C843 0.956 . S
H856 C843 0.961 . S
H857 C843 0.961 . S
H858 C844 0.958 1_554 S
H859 C844 0.961 . S
H860 C844 0.960 . S
C861 C862 1.391 . S
C861 C863 1.394 . S
C861 H877 0.931 1_556 S
C862 C861 1.391 . S
C862 C866 1.376 . S
C863 C861 1.394 . S
C863 C864 1.369 . S
C863 C867 1.531 . S
C864 C863 1.369 . S
C864 C865 1.410 . S
C864 C872 1.503 . S
C865 C864 1.410 . S
C865 C866 1.392 . S
C865 C868 1.511 . S
C866 C862 1.376 . S
C866 C865 1.392 . S
C866 H878 0.929 . S
C867 C863 1.531 . S
C867 H879 0.960 . S
C867 H880 0.962 . S
C867 H881 0.960 1_556 S
C868 C865 1.511 . S
C868 H882 0.961 . S
C868 H883 0.961 . S
C868 H884 0.961 . S
C869 C870 1.370 . S
C869 C871 1.363 . S
C869 H885 0.931 . S
C870 C869 1.370 . S
C870 C874 1.408 . S
C871 C869 1.363 . S
C871 C872 1.370 . S
C871 C875 1.524 . S
C872 C864 1.503 . S
C872 C871 1.370 . S
C872 C873 1.403 . S
C873 C872 1.403 . S
C873 C874 1.404 . S
C873 C876 1.539 . S
C874 C870 1.408 . S
C874 C873 1.404 . S
C874 H886 0.930 . S
C875 C871 1.524 . S
C875 H887 0.956 . S
C875 H888 0.961 . S
C875 H889 0.961 . S
C876 C873 1.539 . S
C876 H890 0.958 . S
C876 H891 0.961 . S
C876 H892 0.960 . S
H877 C861 0.931 1_554 S
H878 C866 0.929 . S
H879 C867 0.960 . S
H880 C867 0.962 . S
H881 C867 0.960 1_554 S
H882 C868 0.961 . S
H883 C868 0.961 . S
H884 C868 0.961 . S
H885 C869 0.931 . S
H886 C874 0.930 . S
H887 C875 0.956 . S
H888 C875 0.961 . S
H889 C875 0.961 . S
H890 C876 0.958 . S
H891 C876 0.961 . S
H892 C876 0.960 . S
C893 C894 1.391 . S
C893 C895 1.394 . S
C893 H909 0.931 . S
C894 C893 1.391 . S
C894 C898 1.376 . S
C895 C893 1.394 . S
C895 C896 1.369 . S
C895 C899 1.531 . S
C896 C895 1.369 . S
C896 C897 1.410 . S
C896 C904 1.503 . S
C897 C896 1.410 . S
C897 C898 1.392 . S
C897 C900 1.511 . S
C898 C894 1.376 . S
C898 C897 1.392 . S
C898 H910 0.929 . S
C899 C895 1.531 . S
C899 H911 0.960 . S
C899 H912 0.962 . S
C899 H913 0.960 . S
C900 C897 1.511 . S
C900 H914 0.961 . S
C900 H915 0.961 . S
C900 H916 0.961 . S
C901 C902 1.370 . S
C901 C903 1.363 . S
C901 H917 0.931 . S
C902 C901 1.370 . S
C902 C906 1.408 . S
C903 C901 1.363 . S
C903 C904 1.370 . S
C903 C907 1.524 . S
C904 C896 1.503 . S
C904 C903 1.370 . S
C904 C905 1.403 . S
C905 C904 1.403 . S
C905 C906 1.404 . S
C905 C908 1.539 . S
C906 C902 1.408 . S
C906 C905 1.404 . S
C906 H918 0.930 . S
C907 C903 1.524 . S
C907 H919 0.956 . S
C907 H920 0.961 . S
C907 H921 0.961 . S
C908 C905 1.539 . S
C908 H922 0.958 . S
C908 H923 0.961 . S
C908 H924 0.960 . S
H909 C893 0.931 . S
H910 C898 0.929 . S
H911 C899 0.960 . S
H912 C899 0.962 . S
H913 C899 0.960 . S
H914 C900 0.961 . S
H915 C900 0.961 . S
H916 C900 0.961 . S
H917 C901 0.931 . S
H918 C906 0.930 . S
H919 C907 0.956 . S
H920 C907 0.961 . S
H921 C907 0.961 . S
H922 C908 0.958 . S
H923 C908 0.961 . S
H924 C908 0.960 . S
C925 C926 1.391 . S
C925 C927 1.394 . S
C925 H941 0.931 . S
C926 C925 1.391 . S
C926 C930 1.376 . S
C927 C925 1.394 . S
C927 C928 1.369 . S
C927 C931 1.531 . S
C928 C927 1.369 . S
C928 C929 1.410 . S
C928 C936 1.503 . S
C929 C928 1.410 . S
C929 C930 1.392 . S
C929 C932 1.511 . S
C930 C926 1.376 . S
C930 C929 1.392 . S
C930 H942 0.929 . S
C931 C927 1.531 . S
C931 H943 0.960 . S
C931 H944 0.962 . S
C931 H945 0.960 . S
C932 C929 1.511 . S
C932 H946 0.961 . S
C932 H947 0.961 . S
C932 H948 0.961 . S
C933 C934 1.370 . S
C933 C935 1.363 . S
C933 H949 0.931 . S
C934 C933 1.370 . S
C934 C938 1.408 . S
C935 C933 1.363 . S
C935 C936 1.370 . S
C935 C939 1.524 . S
C936 C928 1.503 . S
C936 C935 1.370 . S
C936 C937 1.403 . S
C937 C936 1.403 . S
C937 C938 1.404 . S
C937 C940 1.539 . S
C938 C934 1.408 . S
C938 C937 1.404 . S
C938 H950 0.930 . S
C939 C935 1.524 . S
C939 H951 0.956 . S
C939 H952 0.961 . S
C939 H953 0.961 . S
C940 C937 1.539 . S
C940 H954 0.958 . S
C940 H955 0.961 . S
C940 H956 0.960 . S
H941 C925 0.931 . S
H942 C930 0.929 . S
H943 C931 0.960 . S
H944 C931 0.962 . S
H945 C931 0.960 . S
H946 C932 0.961 . S
H947 C932 0.961 . S
H948 C932 0.961 . S
H949 C933 0.931 . S
H950 C938 0.930 . S
H951 C939 0.956 . S
H952 C939 0.961 . S
H953 C939 0.961 . S
H954 C940 0.958 . S
H955 C940 0.961 . S
H956 C940 0.960 . S
C957 C958 1.391 . S
C957 C959 1.394 . S
C957 H973 0.931 . S
C958 C957 1.391 . S
C958 C962 1.376 . S
C959 C957 1.394 . S
C959 C960 1.369 . S
C959 C963 1.531 . S
C960 C959 1.369 . S
C960 C961 1.410 . S
C960 C968 1.503 . S
C961 C960 1.410 . S
C961 C962 1.392 . S
C961 C964 1.511 . S
C962 C958 1.376 . S
C962 C961 1.392 . S
C962 H974 0.929 . S
C963 C959 1.531 . S
C963 H975 0.960 . S
C963 H976 0.962 . S
C963 H977 0.960 . S
C964 C961 1.511 . S
C964 H978 0.961 . S
C964 H979 0.961 . S
C964 H980 0.961 . S
C965 C966 1.370 . S
C965 C967 1.363 . S
C965 H981 0.931 . S
C966 C965 1.370 . S
C966 C970 1.408 . S
C967 C965 1.363 . S
C967 C968 1.370 . S
C967 C971 1.524 . S
C968 C960 1.503 . S
C968 C967 1.370 . S
C968 C969 1.403 . S
C969 C968 1.403 . S
C969 C970 1.404 . S
C969 C972 1.539 . S
C970 C966 1.408 . S
C970 C969 1.404 . S
C970 H982 0.930 . S
C971 C967 1.524 . S
C971 H983 0.956 . S
C971 H984 0.961 . S
C971 H985 0.961 . S
C972 C969 1.539 . S
C972 H986 0.958 . S
C972 H987 0.961 . S
C972 H988 0.960 . S
H973 C957 0.931 . S
H974 C962 0.929 . S
H975 C963 0.960 . S
H976 C963 0.962 . S
H977 C963 0.960 . S
H978 C964 0.961 . S
H979 C964 0.961 . S
H980 C964 0.961 . S
H981 C965 0.931 . S
H982 C970 0.930 . S
H983 C971 0.956 . S
H984 C971 0.961 . S
H985 C971 0.961 . S
H986 C972 0.958 . S
H987 C972 0.961 . S
H988 C972 0.960 . S
C989 C990 1.391 . S
C989 C991 1.394 . S
C989 H1005 0.931 . S
C990 C989 1.391 . S
C990 C994 1.376 . S
C991 C989 1.394 . S
C991 C992 1.369 . S
C991 C995 1.531 . S
C992 C991 1.369 . S
C992 C993 1.410 . S
C992 C1000 1.503 . S
C993 C992 1.410 . S
C993 C994 1.392 . S
C993 C996 1.511 . S
C994 C990 1.376 . S
C994 C993 1.392 . S
C994 H1006 0.929 . S
C995 C991 1.531 . S
C995 H1007 0.960 . S
C995 H1008 0.962 . S
C995 H1009 0.960 . S
C996 C993 1.511 . S
C996 H1010 0.961 . S
C996 H1011 0.961 . S
C996 H1012 0.961 . S
C997 C998 1.370 . S
C997 C999 1.363 . S
C997 H1013 0.931 . S
C998 C997 1.370 . S
C998 C1002 1.408 . S
C999 C997 1.363 . S
C999 C1000 1.370 . S
C999 C1003 1.524 . S
C1000 C992 1.503 . S
C1000 C999 1.370 . S
C1000 C1001 1.403 . S
C1001 C1000 1.403 . S
C1001 C1002 1.404 . S
C1001 C1004 1.539 . S
C1002 C998 1.408 . S
C1002 C1001 1.404 . S
C1002 H1014 0.930 . S
C1003 C999 1.524 . S
C1003 H1015 0.956 . S
C1003 H1016 0.961 . S
C1003 H1017 0.961 . S
C1004 C1001 1.539 . S
C1004 H1018 0.958 . S
C1004 H1019 0.961 . S
C1004 H1020 0.960 . S
H1005 C989 0.931 . S
H1006 C994 0.929 . S
H1007 C995 0.960 . S
H1008 C995 0.962 . S
H1009 C995 0.960 . S
H1010 C996 0.961 . S
H1011 C996 0.961 . S
H1012 C996 0.961 . S
H1013 C997 0.931 . S
H1014 C1002 0.930 . S
H1015 C1003 0.956 . S
H1016 C1003 0.961 . S
H1017 C1003 0.961 . S
H1018 C1004 0.958 . S
H1019 C1004 0.961 . S
H1020 C1004 0.960 . S
C1021 C1022 1.391 . S
C1021 C1023 1.394 . S
C1021 H1037 0.931 . S
C1022 C1021 1.391 . S
C1022 C1026 1.376 . S
C1023 C1021 1.394 . S
C1023 C1024 1.369 . S
C1023 C1027 1.531 . S
C1024 C1023 1.369 . S
C1024 C1025 1.410 . S
C1024 C1032 1.503 . S
C1025 C1024 1.410 . S
C1025 C1026 1.392 . S
C1025 C1028 1.511 . S
C1026 C1022 1.376 . S
C1026 C1025 1.392 . S
C1026 H1038 0.929 . S
C1027 C1023 1.531 . S
C1027 H1039 0.960 . S
C1027 H1040 0.962 . S
C1027 H1041 0.960 . S
C1028 C1025 1.511 . S
C1028 H1042 0.961 . S
C1028 H1043 0.961 . S
C1028 H1044 0.961 . S
C1029 C1030 1.370 . S
C1029 C1031 1.363 . S
C1029 H1045 0.931 . S
C1030 C1029 1.370 . S
C1030 C1034 1.408 . S
C1031 C1029 1.363 . S
C1031 C1032 1.370 . S
C1031 C1035 1.524 . S
C1032 C1024 1.503 . S
C1032 C1031 1.370 . S
C1032 C1033 1.403 . S
C1033 C1032 1.403 . S
C1033 C1034 1.404 . S
C1033 C1036 1.539 . S
C1034 C1030 1.408 . S
C1034 C1033 1.404 . S
C1034 H1046 0.930 . S
C1035 C1031 1.524 . S
C1035 H1047 0.956 . S
C1035 H1048 0.961 . S
C1035 H1049 0.961 . S
C1036 C1033 1.539 . S
C1036 H1050 0.958 . S
C1036 H1051 0.961 . S
C1036 H1052 0.960 . S
H1037 C1021 0.931 . S
H1038 C1026 0.929 . S
H1039 C1027 0.960 . S
H1040 C1027 0.962 . S
H1041 C1027 0.960 . S
H1042 C1028 0.961 . S
H1043 C1028 0.961 . S
H1044 C1028 0.961 . S
H1045 C1029 0.931 . S
H1046 C1034 0.930 . S
H1047 C1035 0.956 . S
H1048 C1035 0.961 . S
H1049 C1035 0.961 . S
H1050 C1036 0.958 . S
H1051 C1036 0.961 . S
H1052 C1036 0.960 . S
C1053 C1054 1.391 . S
C1053 C1055 1.394 . S
C1053 H1069 0.931 . S
C1054 C1053 1.391 . S
C1054 C1058 1.376 . S
C1055 C1053 1.394 . S
C1055 C1056 1.369 . S
C1055 C1059 1.531 . S
C1056 C1055 1.369 . S
C1056 C1057 1.410 . S
C1056 C1064 1.503 . S
C1057 C1056 1.410 . S
C1057 C1058 1.392 . S
C1057 C1060 1.511 . S
C1058 C1054 1.376 . S
C1058 C1057 1.392 . S
C1058 H1070 0.929 . S
C1059 C1055 1.531 . S
C1059 H1071 0.960 . S
C1059 H1072 0.962 . S
C1059 H1073 0.960 . S
C1060 C1057 1.511 . S
C1060 H1074 0.961 . S
C1060 H1075 0.961 . S
C1060 H1076 0.961 . S
C1061 C1062 1.370 . S
C1061 C1063 1.363 . S
C1061 H1077 0.931 . S
C1062 C1061 1.370 . S
C1062 C1066 1.408 . S
C1063 C1061 1.363 . S
C1063 C1064 1.370 . S
C1063 C1067 1.524 . S
C1064 C1056 1.503 . S
C1064 C1063 1.370 . S
C1064 C1065 1.403 . S
C1065 C1064 1.403 . S
C1065 C1066 1.404 . S
C1065 C1068 1.539 . S
C1066 C1062 1.408 . S
C1066 C1065 1.404 . S
C1066 H1078 0.930 . S
C1067 C1063 1.524 . S
C1067 H1079 0.956 . S
C1067 H1080 0.961 . S
C1067 H1081 0.961 . S
C1068 C1065 1.539 . S
C1068 H1082 0.958 . S
C1068 H1083 0.961 . S
C1068 H1084 0.960 . S
H1069 C1053 0.931 . S
H1070 C1058 0.929 . S
H1071 C1059 0.960 . S
H1072 C1059 0.962 . S
H1073 C1059 0.960 . S
H1074 C1060 0.961 . S
H1075 C1060 0.961 . S
H1076 C1060 0.961 . S
H1077 C1061 0.931 . S
H1078 C1066 0.930 . S
H1079 C1067 0.956 . S
H1080 C1067 0.961 . S
H1081 C1067 0.961 . S
H1082 C1068 0.958 . S
H1083 C1068 0.961 . S
H1084 C1068 0.960 . S
C1085 C1086 1.391 . S
C1085 C1087 1.394 . S
C1085 H1101 0.931 . S
C1086 C1085 1.391 . S
C1086 C1090 1.376 . S
C1087 C1085 1.394 . S
C1087 C1088 1.369 . S
C1087 C1091 1.531 . S
C1088 C1087 1.369 . S
C1088 C1089 1.410 . S
C1088 C1096 1.503 . S
C1089 C1088 1.410 . S
C1089 C1090 1.392 . S
C1089 C1092 1.511 . S
C1090 C1086 1.376 . S
C1090 C1089 1.392 . S
C1090 H1102 0.929 . S
C1091 C1087 1.531 . S
C1091 H1103 0.960 . S
C1091 H1104 0.962 . S
C1091 H1105 0.960 . S
C1092 C1089 1.511 . S
C1092 H1106 0.961 . S
C1092 H1107 0.961 . S
C1092 H1108 0.961 . S
C1093 C1094 1.370 . S
C1093 C1095 1.363 . S
C1093 H1109 0.931 . S
C1094 C1093 1.370 . S
C1094 C1098 1.408 . S
C1095 C1093 1.363 . S
C1095 C1096 1.370 . S
C1095 C1099 1.524 . S
C1096 C1088 1.503 . S
C1096 C1095 1.370 . S
C1096 C1097 1.403 . S
C1097 C1096 1.403 . S
C1097 C1098 1.404 . S
C1097 C1100 1.539 . S
C1098 C1094 1.408 . S
C1098 C1097 1.404 . S
C1098 H1110 0.930 . S
C1099 C1095 1.524 . S
C1099 H1111 0.956 . S
C1099 H1112 0.961 . S
C1099 H1113 0.961 . S
C1100 C1097 1.539 . S
C1100 H1114 0.958 . S
C1100 H1115 0.961 . S
C1100 H1116 0.960 . S
H1101 C1085 0.931 . S
H1102 C1090 0.929 . S
H1103 C1091 0.960 . S
H1104 C1091 0.962 . S
H1105 C1091 0.960 . S
H1106 C1092 0.961 . S
H1107 C1092 0.961 . S
H1108 C1092 0.961 . S
H1109 C1093 0.931 . S
H1110 C1098 0.930 . S
H1111 C1099 0.956 . S
H1112 C1099 0.961 . S
H1113 C1099 0.961 . S
H1114 C1100 0.958 . S
H1115 C1100 0.961 . S
H1116 C1100 0.960 . S
C1117 C1118 1.391 . S
C1117 C1119 1.394 . S
C1117 H1133 0.931 . S
C1118 C1117 1.391 . S
C1118 C1122 1.376 . S
C1119 C1117 1.394 . S
C1119 C1120 1.369 . S
C1119 C1123 1.531 . S
C1120 C1119 1.369 . S
C1120 C1121 1.410 . S
C1120 C1128 1.503 . S
C1121 C1120 1.410 . S
C1121 C1122 1.392 . S
C1121 C1124 1.511 . S
C1122 C1118 1.376 . S
C1122 C1121 1.392 . S
C1122 H1134 0.929 . S
C1123 C1119 1.531 . S
C1123 H1135 0.960 . S
C1123 H1136 0.962 . S
C1123 H1137 0.960 . S
C1124 C1121 1.511 . S
C1124 H1138 0.961 . S
C1124 H1139 0.961 . S
C1124 H1140 0.961 . S
C1125 C1126 1.370 . S
C1125 C1127 1.363 . S
C1125 H1141 0.931 . S
C1126 C1125 1.370 . S
C1126 C1130 1.408 . S
C1127 C1125 1.363 . S
C1127 C1128 1.370 . S
C1127 C1131 1.524 . S
C1128 C1120 1.503 . S
C1128 C1127 1.370 . S
C1128 C1129 1.403 . S
C1129 C1128 1.403 . S
C1129 C1130 1.404 . S
C1129 C1132 1.539 . S
C1130 C1126 1.408 . S
C1130 C1129 1.404 . S
C1130 H1142 0.930 . S
C1131 C1127 1.524 . S
C1131 H1143 0.956 . S
C1131 H1144 0.961 . S
C1131 H1145 0.961 . S
C1132 C1129 1.539 . S
C1132 H1146 0.958 . S
C1132 H1147 0.961 . S
C1132 H1148 0.960 . S
H1133 C1117 0.931 . S
H1134 C1122 0.929 . S
H1135 C1123 0.960 . S
H1136 C1123 0.962 . S
H1137 C1123 0.960 . S
H1138 C1124 0.961 . S
H1139 C1124 0.961 . S
H1140 C1124 0.961 . S
H1141 C1125 0.931 . S
H1142 C1130 0.930 . S
H1143 C1131 0.956 . S
H1144 C1131 0.961 . S
H1145 C1131 0.961 . S
H1146 C1132 0.958 . S
H1147 C1132 0.961 . S
H1148 C1132 0.960 . S
C382 C45 1.902 . S
C390 C299 1.838 . S
C414 C84 1.667 . S
C422 C346 1.645 . S
C454 C350 1.833 . S
C446 C126 1.866 . S
C486 C315 1.559 . S
C478 C165 1.570 . S
C510 C222 1.788 . S
C518 C330 1.749 . S
C550 C352 1.033 . S
C542 C276 1.094 . S
C582 C321 1.442 . S
C574 C141 1.517 . S
C606 C180 1.478 . S
C614 C361 1.411 . S
C646 C290 1.335 . S
C638 C237 1.404 . S
C670 C261 1.499 . S
C678 C319 1.471 . S
C702 C30 1.949 1_556 S
C710 C377 1.914 . S
C742 C288 1.555 . S
C734 C69 1.585 1_556 S
C774 C306 1.829 . S
C766 C174 1.903 . S
C806 C320 1.638 . S
C798 C213 1.674 . S
C838 C374 1.840 . S
C830 C285 1.855 . S
C870 C289 1.551 . S
C862 C36 1.568 1_556 S
C902 C337 1.754 . S
C894 C93 1.755 . S
C926 C117 1.048 . S
C934 C360 1.059 . S
C966 C329 1.451 . S
C958 C270 1.509 . S
C998 C368 1.406 . S
C990 C21 1.465 . S
C1030 C298 1.351 . S
C1022 C78 1.398 . S
C1062 C343 1.463 . S
C1054 C132 1.504 . S
C1086 C189 1.956 . S
C1094 C351 1.918 . S
C1118 C228 1.597 . S
C1126 C312 1.536 . S
