# Generated by pormake.
# Topology pyr, (3,6)-cn, num edge types: 1
# Building blocks:
#     Node 0, Type 0, BuildingBlock: KAKCAD_clean_linker_0, # of connection points: 3
#     Node 1, Type 0, BuildingBlock: KAKCAD_clean_linker_0, # of connection points: 3
#     Node 2, Type 0, BuildingBlock: KAKCAD_clean_linker_0, # of connection points: 3
#     Node 3, Type 0, BuildingBlock: KAKCAD_clean_linker_0, # of connection points: 3
#     Node 4, Type 0, BuildingBlock: KAKCAD_clean_linker_0, # of connection points: 3
#     Node 5, Type 0, BuildingBlock: KAKCAD_clean_linker_0, # of connection points: 3
#     Node 6, Type 0, BuildingBlock: KAKCAD_clean_linker_0, # of connection points: 3
#     Node 7, Type 0, BuildingBlock: KAKCAD_clean_linker_0, # of connection points: 3
#     Node 8, Type 1, BuildingBlock: BETDIP_clean_sbu_0, # of connection points: 6
#     Node 9, Type 1, BuildingBlock: BETDIP_clean_sbu_0, # of connection points: 6
#     Node 10, Type 1, BuildingBlock: BETDIP_clean_sbu_0, # of connection points: 6
#     Node 11, Type 1, BuildingBlock: BETDIP_clean_sbu_0, # of connection points: 6
#     Edge 12, Type (0, 1), BuildingBlock: ZUJKAS_clean_linker_0, # of connection points: 2
#     Edge 13, Type (0, 1), BuildingBlock: ZUJKAS_clean_linker_0, # of connection points: 2
#     Edge 14, Type (0, 1), BuildingBlock: ZUJKAS_clean_linker_0, # of connection points: 2
#     Edge 15, Type (0, 1), BuildingBlock: ZUJKAS_clean_linker_0, # of connection points: 2
#     Edge 16, Type (0, 1), BuildingBlock: ZUJKAS_clean_linker_0, # of connection points: 2
#     Edge 17, Type (0, 1), BuildingBlock: ZUJKAS_clean_linker_0, # of connection points: 2
#     Edge 18, Type (0, 1), BuildingBlock: ZUJKAS_clean_linker_0, # of connection points: 2
#     Edge 19, Type (0, 1), BuildingBlock: ZUJKAS_clean_linker_0, # of connection points: 2
#     Edge 20, Type (0, 1), BuildingBlock: ZUJKAS_clean_linker_0, # of connection points: 2
#     Edge 21, Type (0, 1), BuildingBlock: ZUJKAS_clean_linker_0, # of connection points: 2
#     Edge 22, Type (0, 1), BuildingBlock: ZUJKAS_clean_linker_0, # of connection points: 2
#     Edge 23, Type (0, 1), BuildingBlock: ZUJKAS_clean_linker_0, # of connection points: 2
#     Edge 24, Type (0, 1), BuildingBlock: ZUJKAS_clean_linker_0, # of connection points: 2
#     Edge 25, Type (0, 1), BuildingBlock: ZUJKAS_clean_linker_0, # of connection points: 2
#     Edge 26, Type (0, 1), BuildingBlock: ZUJKAS_clean_linker_0, # of connection points: 2
#     Edge 27, Type (0, 1), BuildingBlock: ZUJKAS_clean_linker_0, # of connection points: 2
#     Edge 28, Type (0, 1), BuildingBlock: ZUJKAS_clean_linker_0, # of connection points: 2
#     Edge 29, Type (0, 1), BuildingBlock: ZUJKAS_clean_linker_0, # of connection points: 2
#     Edge 30, Type (0, 1), BuildingBlock: ZUJKAS_clean_linker_0, # of connection points: 2
#     Edge 31, Type (0, 1), BuildingBlock: ZUJKAS_clean_linker_0, # of connection points: 2
#     Edge 32, Type (0, 1), BuildingBlock: ZUJKAS_clean_linker_0, # of connection points: 2
#     Edge 33, Type (0, 1), BuildingBlock: ZUJKAS_clean_linker_0, # of connection points: 2
#     Edge 34, Type (0, 1), BuildingBlock: ZUJKAS_clean_linker_0, # of connection points: 2
#     Edge 35, Type (0, 1), BuildingBlock: ZUJKAS_clean_linker_0, # of connection points: 2
# Relax obj value: 0.098
# Max RMSD: 0.183
# Mean RMSD: 0.083
data_MOF--net-pyr--node1-BETDIP_clean_sbu_0--node2-KAKCAD_clean_linker_0--edge1-ZUJKAS_clean_linker_0
_symmetry_space_group_name_H-M    P1
_symmetry_Int_Tables_number       1
_symmetry_cell_setting            triclinic
loop_
_symmetry_equiv_pos_as_xyz
'x, y, z'
_cell_length_a     54.090454
_cell_length_b     59.173506
_cell_length_c     58.37253
_cell_angle_alpha  88.997366
_cell_angle_beta   92.547981
_cell_angle_gamma 102.51765
loop_
_atom_site_label
_atom_site_type_symbol
_atom_site_fract_x
_atom_site_fract_y
_atom_site_fract_z
_atom_type_partial_charge
C0 C 0.25249 0.2148 0.26249 0.0
C1 C 0.26655 0.20992 0.28204 0.0
C2 C 0.26471 0.22621 0.24365 0.0
C3 C 0.2913 0.23321 0.24399 0.0
C4 C 0.30535 0.22843 0.26365 0.0
C5 C 0.2931 0.21681 0.28245 0.0
C6 C 0.3042 0.24487 0.22362 0.0
C7 C 0.29342 0.26067 0.21052 0.0
C8 C 0.30413 0.27018 0.1901 0.0
C9 C 0.32658 0.26452 0.18325 0.0
C10 C 0.33778 0.24881 0.19617 0.0
C11 C 0.32645 0.23912 0.21634 0.0
C12 C 0.35979 0.24068 0.18758 0.0
C13 C 0.36068 0.23568 0.16421 0.0
C14 C 0.37902 0.23613 0.20285 0.0
C15 C 0.39799 0.22579 0.1951 0.0
C16 C 0.39822 0.21996 0.17189 0.0
C17 C 0.29064 0.28448 0.17508 0.0
C18 C 0.26434 0.2774 0.17091 0.0
C19 C 0.30373 0.30486 0.16455 0.0
C20 C 0.29063 0.31806 0.15037 0.0
C21 C 0.26429 0.31095 0.14628 0.0
C22 C 0.25133 0.29047 0.15671 0.0
C23 C 0.37971 0.22551 0.15646 0.0
H24 H 0.23202 0.20936 0.26156 0.0
H25 H 0.25329 0.22909 0.22862 0.0
H26 H 0.32583 0.2338 0.2646 0.0
H27 H 0.30438 0.21345 0.29741 0.0
H28 H 0.2764 0.26544 0.21609 0.0
H29 H 0.33419 0.2261 0.22572 0.0
H30 H 0.33481 0.27172 0.16742 0.0
H31 H 0.34596 0.23857 0.15202 0.0
H32 H 0.3791 0.24011 0.22089 0.0
H33 H 0.41219 0.22194 0.20733 0.0
H34 H 0.25378 0.2616 0.17849 0.0
H35 H 0.324 0.31074 0.1675 0.0
H36 H 0.37913 0.22089 0.13853 0.0
H37 H 0.23099 0.28469 0.1542 0.0
H38 H 0.30112 0.33372 0.14249 0.0
C39 C 0.22846 0.80025 0.78893 0.0
C40 C 0.25503 0.80385 0.78912 0.0
C41 C 0.21362 0.78903 0.77053 0.0
C42 C 0.22505 0.78115 0.75197 0.0
C43 C 0.25158 0.78419 0.75251 0.0
C44 C 0.26638 0.79535 0.77088 0.0
C45 C 0.20968 0.77113 0.7314 0.0
C46 C 0.19055 0.78159 0.72197 0.0
C47 C 0.17804 0.77417 0.70091 0.0
C48 C 0.18489 0.75597 0.68927 0.0
C49 C 0.20378 0.74519 0.69863 0.0
C50 C 0.21575 0.75259 0.71984 0.0
C51 C 0.21341 0.72813 0.6853 0.0
C52 C 0.21726 0.70751 0.69564 0.0
C53 C 0.22182 0.7338 0.66311 0.0
C54 C 0.23537 0.71991 0.65207 0.0
C55 C 0.24055 0.69989 0.66289 0.0
C56 C 0.15948 0.78689 0.69035 0.0
C57 C 0.14225 0.79469 0.70396 0.0
C58 C 0.16006 0.79274 0.6669 0.0
C59 C 0.14447 0.80679 0.65749 0.0
C60 C 0.12801 0.81537 0.67132 0.0
C61 C 0.12673 0.80882 0.69456 0.0
C62 C 0.23049 0.69342 0.68446 0.0
H63 H 0.21915 0.80674 0.80265 0.0
H64 H 0.19322 0.7868 0.77069 0.0
H65 H 0.26106 0.77862 0.73837 0.0
H66 H 0.28678 0.79759 0.77065 0.0
H67 H 0.18649 0.7965 0.73034 0.0
H68 H 0.23071 0.74459 0.72682 0.0
H69 H 0.17576 0.75032 0.67282 0.0
H70 H 0.21075 0.7027 0.71269 0.0
H71 H 0.21934 0.74976 0.65489 0.0
H72 H 0.24304 0.72567 0.63562 0.0
H73 H 0.14105 0.79017 0.722 0.0
H74 H 0.17336 0.78732 0.656 0.0
H75 H 0.23354 0.67784 0.69309 0.0
H76 H 0.11396 0.81488 0.70556 0.0
H77 H 0.14611 0.81176 0.63958 0.0
C78 C 0.72122 0.41512 0.87869 0.0
C79 C 0.7409 0.40404 0.88569 0.0
C80 C 0.69959 0.40306 0.86649 0.0
C81 C 0.697 0.37957 0.86109 0.0
C82 C 0.71682 0.36859 0.86776 0.0
C83 C 0.73847 0.38066 0.87981 0.0
C84 C 0.67352 0.3663 0.84908 0.0
C85 C 0.66225 0.37584 0.83017 0.0
C86 C 0.64017 0.36326 0.81869 0.0
C87 C 0.62927 0.34074 0.82662 0.0
C88 C 0.64028 0.33089 0.84563 0.0
C89 C 0.66234 0.34389 0.85663 0.0
C90 C 0.62895 0.30723 0.85458 0.0
C91 C 0.60279 0.30019 0.85788 0.0
C92 C 0.64468 0.29203 0.86141 0.0
C93 C 0.63475 0.27082 0.87204 0.0
C94 C 0.60876 0.26411 0.87624 0.0
C95 C 0.62898 0.37377 0.79828 0.0
C96 C 0.62743 0.39721 0.79832 0.0
C97 C 0.62076 0.36085 0.77828 0.0
C98 C 0.61177 0.37126 0.75872 0.0
C99 C 0.61053 0.3948 0.7587 0.0
C100 C 0.61831 0.40755 0.77887 0.0
C101 C 0.59282 0.27892 0.86862 0.0
H102 H 0.72221 0.433 0.8831 0.0
H103 H 0.68458 0.41197 0.8618 0.0
H104 H 0.71565 0.35063 0.86353 0.0
H105 H 0.7534 0.37163 0.88439 0.0
H106 H 0.67114 0.39291 0.82397 0.0
H107 H 0.67055 0.33674 0.87161 0.0
H108 H 0.61226 0.3309 0.81803 0.0
H109 H 0.59015 0.31153 0.853 0.0
H110 H 0.66485 0.29667 0.85875 0.0
H111 H 0.64757 0.25971 0.87707 0.0
H112 H 0.63336 0.40766 0.81345 0.0
H113 H 0.62184 0.34282 0.77754 0.0
H114 H 0.57274 0.27448 0.87166 0.0
H115 H 0.61788 0.42574 0.77951 0.0
H116 H 0.60573 0.36082 0.7436 0.0
C117 C 0.87554 0.65394 0.26067 0.0
C118 C 0.90156 0.65686 0.25676 0.0
C119 C 0.8672 0.66377 0.27981 0.0
C120 C 0.88456 0.67689 0.29582 0.0
C121 C 0.91059 0.6802 0.29172 0.0
C122 C 0.91895 0.67034 0.27252 0.0
C123 C 0.87539 0.68647 0.31684 0.0
C124 C 0.85449 0.67334 0.32835 0.0
C125 C 0.84529 0.68188 0.3479 0.0
C126 C 0.85713 0.70405 0.35582 0.0
C127 C 0.87793 0.7177 0.34484 0.0
C128 C 0.88716 0.70863 0.32548 0.0
C129 C 0.88943 0.74141 0.35392 0.0
C130 C 0.87371 0.75589 0.36094 0.0
C131 C 0.91583 0.74922 0.35717 0.0
C132 C 0.9261 0.77047 0.36801 0.0
C133 C 0.91024 0.78453 0.37582 0.0
C134 C 0.82322 0.66792 0.36016 0.0
C135 C 0.80163 0.65549 0.34799 0.0
C136 C 0.82319 0.66765 0.38429 0.0
C137 C 0.80206 0.65577 0.39589 0.0
C138 C 0.78025 0.64371 0.38375 0.0
C139 C 0.78042 0.64361 0.35961 0.0
C140 C 0.88392 0.77705 0.37168 0.0
H141 H 0.86145 0.64418 0.24877 0.0
H142 H 0.847 0.66119 0.28194 0.0
H143 H 0.92461 0.68994 0.30368 0.0
H144 H 0.93914 0.67285 0.27036 0.0
H145 H 0.84571 0.65609 0.32244 0.0
H146 H 0.90294 0.71914 0.31674 0.0
H147 H 0.85001 0.71082 0.37072 0.0
H148 H 0.85333 0.75074 0.35832 0.0
H149 H 0.92851 0.73849 0.35213 0.0
H150 H 0.94645 0.7755 0.37094 0.0
H151 H 0.80086 0.65539 0.32942 0.0
H152 H 0.83955 0.67675 0.3943 0.0
H153 H 0.87105 0.78756 0.37679 0.0
H154 H 0.76414 0.63431 0.34965 0.0
H155 H 0.80267 0.6565 0.41443 0.0
C156 C 0.74293 0.78892 0.76785 0.0
C157 C 0.75206 0.81272 0.76409 0.0
C158 C 0.72765 0.78119 0.78637 0.0
C159 C 0.72091 0.79717 0.80115 0.0
C160 C 0.72949 0.82096 0.79694 0.0
C161 C 0.74501 0.82865 0.77868 0.0
C162 C 0.70639 0.78931 0.82182 0.0
C163 C 0.71411 0.77323 0.83689 0.0
C164 C 0.70282 0.76803 0.85808 0.0
C165 C 0.68332 0.77883 0.86399 0.0
C166 C 0.67488 0.79461 0.84884 0.0
C167 C 0.68645 0.79953 0.82767 0.0
C168 C 0.65516 0.807 0.85566 0.0
C169 C 0.63494 0.79592 0.86905 0.0
C170 C 0.65692 0.83039 0.84948 0.0
C171 C 0.63918 0.84241 0.85668 0.0
C172 C 0.61949 0.83149 0.87056 0.0
C173 C 0.71304 0.75276 0.87465 0.0
C174 C 0.71807 0.73178 0.86737 0.0
C175 C 0.71977 0.75996 0.89732 0.0
C176 C 0.73241 0.74696 0.91209 0.0
C177 C 0.73832 0.72642 0.90451 0.0
C178 C 0.73048 0.71868 0.88218 0.0
C179 C 0.61743 0.80811 0.87659 0.0
H180 H 0.74816 0.77631 0.75685 0.0
H181 H 0.72124 0.76276 0.78925 0.0
H182 H 0.72483 0.83365 0.80821 0.0
H183 H 0.7516 0.8471 0.776 0.0
H184 H 0.73 0.76582 0.83274 0.0
H185 H 0.6802 0.81156 0.81572 0.0
H186 H 0.67521 0.77531 0.88066 0.0
H187 H 0.63269 0.77785 0.87382 0.0
H188 H 0.67248 0.83973 0.83968 0.0
H189 H 0.64143 0.86056 0.85214 0.0
H190 H 0.71297 0.7258 0.85001 0.0
H191 H 0.71628 0.77616 0.90332 0.0
H192 H 0.60231 0.79931 0.88722 0.0
H193 H 0.735 0.70304 0.87578 0.0
H194 H 0.73811 0.75325 0.92925 0.0
C195 C 0.76305 0.23435 0.27188 0.0
C196 C 0.75707 0.2511 0.25652 0.0
C197 C 0.77785 0.24094 0.29179 0.0
C198 C 0.78705 0.26447 0.29685 0.0
C199 C 0.78139 0.28129 0.28136 0.0
C200 C 0.76664 0.27465 0.26129 0.0
C201 C 0.80132 0.27117 0.31886 0.0
C202 C 0.81953 0.25909 0.32716 0.0
C203 C 0.83058 0.26295 0.34937 0.0
C204 C 0.82392 0.27988 0.36303 0.0
C205 C 0.8059 0.29236 0.35488 0.0
C206 C 0.79486 0.28796 0.3327 0.0
C207 C 0.79631 0.30806 0.3702 0.0
C208 C 0.79082 0.30151 0.393 0.0
C209 C 0.79027 0.3286 0.36153 0.0
C210 C 0.77773 0.34158 0.37489 0.0
C211 C 0.77103 0.33435 0.39728 0.0
C212 C 0.84707 0.24771 0.35897 0.0
C213 C 0.84042 0.22375 0.35497 0.0
C214 C 0.86887 0.25664 0.37276 0.0
C215 C 0.88352 0.24185 0.38252 0.0
C216 C 0.87654 0.21784 0.37878 0.0
C217 C 0.855 0.20904 0.36469 0.0
C218 C 0.77839 0.31454 0.4064 0.0
H219 H 0.75627 0.21606 0.2685 0.0
H220 H 0.78158 0.22757 0.30352 0.0
H221 H 0.7883 0.29954 0.2848 0.0
H222 H 0.76228 0.28793 0.24976 0.0
H223 H 0.82468 0.2462 0.31644 0.0
H224 H 0.77993 0.29651 0.32673 0.0
H225 H 0.83201 0.28268 0.38033 0.0
H226 H 0.795 0.28569 0.40019 0.0
H227 H 0.79453 0.33427 0.34412 0.0
H228 H 0.77224 0.35666 0.36725 0.0
H229 H 0.82355 0.21622 0.34473 0.0
H230 H 0.87455 0.27503 0.37604 0.0
H231 H 0.7739 0.30871 0.42371 0.0
H232 H 0.84928 0.19067 0.36124 0.0
H233 H 0.89993 0.24913 0.39342 0.0
C234 C 0.28011 0.64382 0.1925 0.0
C235 C 0.27987 0.64086 0.16858 0.0
C236 C 0.30205 0.65561 0.20449 0.0
C237 C 0.32421 0.66492 0.19283 0.0
C238 C 0.32411 0.66166 0.16903 0.0
C239 C 0.30232 0.64971 0.1571 0.0
C240 C 0.34718 0.67858 0.2052 0.0
C241 C 0.35632 0.67066 0.22607 0.0
C242 C 0.37832 0.68337 0.23757 0.0
C243 C 0.39107 0.70451 0.2278 0.0
C244 C 0.38213 0.71279 0.20687 0.0
C245 C 0.36012 0.69964 0.19589 0.0
C246 C 0.39528 0.73514 0.1962 0.0
C247 C 0.40462 0.75505 0.20948 0.0
C248 C 0.39731 0.737 0.17224 0.0
C249 C 0.40737 0.75826 0.16178 0.0
C250 C 0.41591 0.77834 0.17492 0.0
C251 C 0.38806 0.6741 0.25944 0.0
C252 C 0.37118 0.66299 0.27589 0.0
C253 C 0.41415 0.67539 0.26369 0.0
C254 C 0.42302 0.6654 0.28354 0.0
C255 C 0.40607 0.6539 0.29978 0.0
C256 C 0.38004 0.65306 0.29574 0.0
C257 C 0.41485 0.77638 0.19897 0.0
H258 H 0.26318 0.63756 0.20196 0.0
H259 H 0.30145 0.658 0.22279 0.0
H260 H 0.34101 0.66828 0.1596 0.0
H261 H 0.30317 0.64735 0.13882 0.0
H262 H 0.34668 0.65413 0.23297 0.0
H263 H 0.35261 0.70609 0.18017 0.0
H264 H 0.40798 0.71446 0.23642 0.0
H265 H 0.40323 0.75435 0.22794 0.0
H266 H 0.39091 0.72198 0.16145 0.0
H267 H 0.40844 0.75895 0.14329 0.0
H268 H 0.35099 0.66188 0.27341 0.0
H269 H 0.42773 0.68362 0.25138 0.0
H270 H 0.42116 0.7915 0.20963 0.0
H271 H 0.36633 0.64422 0.30765 0.0
H272 H 0.44322 0.66671 0.28615 0.0
C273 C 0.1356 0.27396 0.68732 0.0
C274 C 0.10918 0.26654 0.68381 0.0
C275 C 0.14621 0.29512 0.69789 0.0
C276 C 0.13085 0.30981 0.70519 0.0
C277 C 0.10438 0.30217 0.70239 0.0
C278 C 0.0937 0.28086 0.69182 0.0
C279 C 0.14274 0.33354 0.71411 0.0
C280 C 0.1642 0.34654 0.70355 0.0
C281 C 0.17631 0.36867 0.71128 0.0
C282 C 0.1664 0.37818 0.72984 0.0
C283 C 0.145 0.36562 0.74115 0.0
C284 C 0.13319 0.34329 0.73289 0.0
C285 C 0.13556 0.37574 0.76178 0.0
C286 C 0.15264 0.38971 0.7774 0.0
C287 C 0.10952 0.3718 0.76606 0.0
C288 C 0.10091 0.38165 0.78514 0.0
C289 C 0.11802 0.39584 0.80062 0.0
C290 C 0.19957 0.38142 0.69989 0.0
C291 C 0.21876 0.36985 0.69478 0.0
C292 C 0.20243 0.40477 0.69323 0.0
C293 C 0.22361 0.41603 0.68116 0.0
C294 C 0.2426 0.40427 0.6756 0.0
C295 C 0.23997 0.3811 0.68294 0.0
C296 C 0.14405 0.39965 0.79635 0.0
H297 H 0.14832 0.26375 0.68129 0.0
H298 H 0.16665 0.30013 0.70005 0.0
H299 H 0.09192 0.31298 0.70771 0.0
H300 H 0.07327 0.2757 0.68984 0.0
H301 H 0.17135 0.33956 0.68877 0.0
H302 H 0.11709 0.33316 0.7415 0.0
H303 H 0.17561 0.39537 0.73558 0.0
H304 H 0.17287 0.39293 0.77516 0.0
H305 H 0.09563 0.36135 0.75448 0.0
H306 H 0.08075 0.37792 0.78782 0.0
H307 H 0.21739 0.35197 0.69999 0.0
H308 H 0.18792 0.41415 0.69675 0.0
H309 H 0.15797 0.41064 0.80748 0.0
H310 H 0.25437 0.37155 0.67963 0.0
H311 H 0.2247 0.43377 0.67567 0.0
Tb312 Tb 0.98039 1.01645 0.53857 0.0
Tb313 Tb 0.03644 0.03387 0.52524 0.0
C314 C 0.93766 0.99431 0.54984 0.0
C315 C 0.92665 0.97207 0.56091 0.0
C316 C 0.90323 0.9592 0.55258 0.0
C317 C 0.89052 0.93999 0.56485 0.0
C318 C 0.90089 0.9335 0.58587 0.0
C319 C 0.92517 0.94562 0.59338 0.0
C320 C 0.93798 0.96465 0.58096 0.0
C321 C 1.0049 0.05672 0.55568 0.0
C322 C 0.02407 0.99483 0.56233 0.0
C323 C 0.07989 0.05889 0.5221 0.0
C324 C 0.09585 0.06931 0.50327 0.0
C325 C 0.10972 0.09216 0.50531 0.0
C326 C 0.12433 0.10274 0.48736 0.0
C327 C 0.12543 0.09058 0.4671 0.0
C328 C 0.11169 0.06758 0.46516 0.0
C329 C 0.09689 0.05707 0.48305 0.0
C330 C 0.0134 0.99773 0.49942 0.0
C331 C 0.99142 0.05095 0.49761 0.0
O332 O 0.94605 0.99355 0.52919 0.0
O333 O 0.95264 1.00971 0.56291 0.0
O334 O 0.01393 0.03901 0.55311 0.0
O335 O 0.98109 0.05183 0.54942 0.0
O336 O 0.99975 0.99187 0.5561 0.0
O337 O 0.04136 1.01252 0.55496 0.0
O338 O 0.0596 0.06719 0.52479 0.0
O339 O 0.07552 0.03625 0.52414 0.0
O340 O 1.00489 1.00789 0.51498 0.0
O341 O 0.03665 1.00887 0.49726 0.0
O342 O 0.01585 0.05514 0.50395 0.0
O343 O 0.9744 0.03409 0.50673 0.0
H344 H 0.89429 0.96453 0.53704 0.0
H345 H 0.87216 0.93074 0.55825 0.0
H346 H 0.93373 0.9413 0.60952 0.0
H347 H 0.95618 0.97417 0.58766 0.0
H348 H 0.1091 0.10188 0.52075 0.0
H349 H 0.1349 0.12042 0.48939 0.0
H350 H 0.11197 0.0579 0.44963 0.0
H351 H 0.0861 0.03948 0.48097 0.0
Tb352 Tb 0.54039 0.03054 0.03397 0.0
Tb353 Tb 0.48481 1.01577 1.02385 0.0
C354 C 0.58534 0.0525 0.04105 0.0
C355 C 0.59853 0.07338 0.05331 0.0
C356 C 0.58622 0.09125 0.058 0.0
C357 C 0.59869 0.11018 0.07118 0.0
C358 C 0.62369 0.1115 0.07977 0.0
C359 C 0.63612 0.09384 0.07433 0.0
C360 C 0.6236 0.07493 0.0613 0.0
C361 C 0.51825 0.99149 0.05401 0.0
C362 C 0.50174 0.05163 0.06199 0.0
C363 C 0.44012 0.993 1.01722 0.0
C364 C 0.42641 0.97755 0.99933 0.0
C365 C 0.40275 0.96349 1.00381 0.0
C366 C 0.38945 0.94864 0.98696 0.0
C367 C 0.39969 0.94758 0.96536 0.0
C368 C 0.42357 0.96163 0.96103 0.0
C369 C 0.4368 0.97653 0.97788 0.0
C370 C 0.50684 0.05467 1.00341 0.0
C371 C 0.52362 0.99469 0.99517 0.0
O372 O 0.57127 0.0556 1.02293 0.0
O373 O 0.57423 0.03536 0.05398 0.0
O374 O 0.50937 1.00945 0.05149 0.0
O375 O 0.54086 0.99549 0.04626 0.0
O376 O 0.52455 0.05511 0.05348 0.0
O377 O 0.48365 0.03387 0.0555 0.0
O378 O 0.45761 0.9852 0.0291 0.0
O379 O 0.44772 1.01472 1.01125 0.0
O380 O 0.51575 0.03678 1.00627 0.0
O381 O 0.48403 0.05052 1.01073 0.0
O382 O 0.49997 0.99332 1.00107 0.0
O383 O 0.54277 1.01008 1.00424 0.0
H384 H 0.56689 0.09039 0.05178 0.0
H385 H 0.58852 0.1234 0.07517 0.0
H386 H 0.65553 0.09455 0.08028 0.0
H387 H 0.63341 0.06132 0.05772 0.0
H388 H 0.39456 0.964 1.02035 0.0
H389 H 0.37126 0.93781 0.99091 0.0
H390 H 0.43183 0.96139 0.9445 0.0
H391 H 0.45505 0.98737 0.97414 0.0
Tb392 Tb 0.50831 0.54745 0.53583 0.0
Tb393 Tb 0.51229 0.50082 0.52027 0.0
C394 C 0.50311 0.5883 0.53959 0.0
C395 C 0.48396 0.59825 0.55053 0.0
C396 C 0.47381 0.61529 0.53891 0.0
C397 C 0.45381 0.62328 0.54794 0.0
C398 C 0.44366 0.61443 0.56888 0.0
C399 C 0.45429 0.59765 0.58071 0.0
C400 C 0.47411 0.58951 0.57154 0.0
C401 C 0.52544 0.5218 0.5676 0.0
C402 C 0.4636 0.50667 0.54751 0.0
C403 C 0.51749 0.45989 0.51664 0.0
C404 C 0.53878 0.45022 0.50959 0.0
C405 C 0.56381 0.46291 0.51261 0.0
C406 C 0.5839 0.45424 0.50477 0.0
C407 C 0.57936 0.43276 0.49366 0.0
C408 C 0.55424 0.41999 0.49086 0.0
C409 C 0.53412 0.42869 0.49875 0.0
C410 C 0.495 0.52655 0.48863 0.0
C411 C 0.55677 0.54164 0.50875 0.0
O412 O 0.49463 0.57541 0.52175 0.0
O413 O 0.51816 0.57906 0.55321 0.0
O414 O 0.53099 0.52321 0.54674 0.0
O415 O 0.51113 0.53615 0.57147 0.0
O416 O 0.47078 0.52939 0.54539 0.0
O417 O 0.47746 0.49262 0.53991 0.0
O418 O 0.5211 0.47128 0.53595 0.0
O419 O 0.50694 0.47069 0.50052 0.0
O420 O 0.48958 0.52494 0.50948 0.0
O421 O 0.50942 0.51234 0.48463 0.0
O422 O 0.55049 0.51909 0.51262 0.0
O423 O 0.54187 0.55547 0.51463 0.0
H424 H 0.48091 0.62198 0.5225 0.0
H425 H 0.44586 0.63591 0.53816 0.0
H426 H 0.44726 0.59069 0.59703 0.0
H427 H 0.4814 0.5761 0.58072 0.0
H428 H 0.56785 0.47962 0.5209 0.0
H429 H 0.60302 0.46436 0.5075 0.0
H430 H 0.55006 0.40353 0.48212 0.0
H431 H 0.5149 0.41876 0.4961 0.0
Tb432 Tb 1.00781 0.54671 1.01291 0.0
Tb433 Tb 0.0091 0.50582 0.04289 0.0
C434 C 0.99427 0.57841 0.98974 0.0
C435 C 0.97367 0.59106 0.99014 0.0
C436 C 0.94852 0.57946 0.99347 0.0
C437 C 0.92897 0.59153 0.99183 0.0
C438 C 0.93423 0.61545 0.98704 0.0
C439 C 0.95962 0.62713 0.98479 0.0
C440 C 0.97911 0.61501 0.98622 0.0
C441 C 0.05218 0.54757 0.03412 0.0
C442 C 0.98653 0.54461 0.06368 0.0
C443 C 0.02227 0.47377 0.06582 0.0
C444 C 0.04284 0.46123 0.06483 0.0
C445 C 0.06673 0.4722 0.05705 0.0
C446 C 0.08652 0.46042 0.05755 0.0
C447 C 0.08265 0.43744 0.06558 0.0
C448 C 0.05847 0.42633 0.07264 0.0
C449 C 0.03876 0.43817 0.07232 0.0
C450 C 0.96483 0.50516 1.02144 0.0
C451 C 0.03079 0.50805 0.99229 0.0
O452 O 0.98761 0.55646 0.98447 0.0
O453 O 0.01125 0.58234 1.00669 0.0
O454 O 0.03065 0.54042 0.0422 0.0
O455 O 0.04928 0.55613 1.01383 0.0
O456 O 0.98567 0.55281 0.04239 0.0
O457 O 0.99721 0.52693 0.06858 0.0
O458 O 0.02917 0.49566 0.07123 0.0
O459 O 1.0052 0.47012 0.04894 0.0
O460 O 0.98645 0.51207 1.01355 0.0
O461 O 0.96752 0.49681 0.04185 0.0
O462 O 0.03136 0.49972 1.01354 0.0
O463 O 0.02021 0.52578 0.98733 0.0
H464 H 0.94385 0.56097 0.99673 0.0
H465 H 0.90966 0.58192 0.99345 0.0
H466 H 0.96442 0.64561 0.98157 0.0
H467 H 0.99843 0.62429 0.98382 0.0
H468 H 0.07019 0.48997 0.05097 0.0
H469 H 0.10489 0.46932 0.05181 0.0
H470 H 0.05502 0.40871 0.07914 0.0
H471 H 0.02044 0.42945 0.07833 0.0
H472 H 0.22496 0.2182 0.30233 0.0
H473 H 0.20244 0.19691 0.33419 0.0
H474 H 0.25542 0.15183 0.33772 0.0
H475 H 0.27829 0.17334 0.30608 0.0
H476 H 0.17865 0.15174 0.33639 0.0
H477 H 0.25565 0.17054 0.40397 0.0
H478 H 0.25731 0.18595 0.37694 0.0
H479 H 0.26425 0.15757 0.37879 0.0
C480 C 0.23184 0.20379 0.30997 0.0
C481 C 0.25343 0.19747 0.30181 0.0
C482 C 0.219 0.19168 0.32817 0.0
C483 C 0.22746 0.17299 0.33854 0.0
C484 C 0.24894 0.16655 0.33036 0.0
H485 H 0.15815 0.07321 0.44159 0.0
H486 H 0.18307 0.09237 0.4098 0.0
C487 C 0.26195 0.17881 0.31227 0.0
C488 C 0.21317 0.15983 0.35737 0.0
H489 H 0.21837 0.14321 0.41342 0.0
C490 C 0.18735 0.14992 0.35323 0.0
C491 C 0.22456 0.15746 0.37935 0.0
C492 C 0.2519 0.16861 0.38516 0.0
C493 C 0.17261 0.13773 0.37048 0.0
C494 C 0.18401 0.13541 0.39236 0.0
C495 C 0.20984 0.145 0.3965 0.0
C496 C 0.16906 0.12383 0.41142 0.0
C497 C 0.14494 0.12738 0.36533 0.0
C498 C 0.15315 0.13534 0.42277 0.0
C499 C 0.13904 0.12455 0.44091 0.0
C500 C 0.14053 0.10201 0.4479 0.0
C501 C 0.15649 0.09051 0.43642 0.0
C502 C 0.17078 0.10142 0.41838 0.0
H503 H 0.13976 0.12806 0.34674 0.0
H504 H 0.1402 0.10908 0.37129 0.0
H505 H 0.13322 0.13705 0.37477 0.0
H506 H 0.15169 0.15269 0.41757 0.0
H507 H 0.12672 0.13372 0.44929 0.0
H508 H 0.29847 0.83691 0.78481 0.0
H509 H 0.32432 0.85983 0.81511 0.0
H510 H 0.27303 0.82521 0.86551 0.0
H511 H 0.24741 0.80164 0.83533 0.0
H512 H 0.30863 0.88991 0.84454 0.0
H513 H 0.3431 0.82031 0.89285 0.0
H514 H 0.32928 0.8164 0.86407 0.0
H515 H 0.3093 0.81499 0.88807 0.0
C516 C 0.29292 0.83385 0.80238 0.0
C517 C 0.27097 0.81733 0.80769 0.0
C518 C 0.30762 0.84708 0.81964 0.0
C519 C 0.30075 0.844 0.84255 0.0
C520 C 0.27889 0.82755 0.84797 0.0
H521 H 0.34907 0.94029 0.95386 0.0
H522 H 0.32541 0.91491 0.92405 0.0
C523 C 0.26413 0.81429 0.83069 0.0
C524 C 0.31589 0.8588 0.86056 0.0
H525 H 0.35139 0.8574 0.9102 0.0
C526 C 0.31804 0.88283 0.85887 0.0
C527 C 0.32838 0.84949 0.87905 0.0
C528 C 0.32765 0.82391 0.8811 0.0
C529 C 0.33203 0.89781 0.87542 0.0
C530 C 0.34384 0.88845 0.89429 0.0
C531 C 0.34209 0.86446 0.89578 0.0
C532 C 0.35809 0.90333 0.91266 0.0
C533 C 0.33432 0.92356 0.87242 0.0
C534 C 0.38416 0.90476 0.91644 0.0
C535 C 0.39771 0.91911 0.93358 0.0
C536 C 0.38533 0.93212 0.94733 0.0
C537 C 0.35911 0.93035 0.94368 0.0
C538 C 0.34561 0.91605 0.92652 0.0
H539 H 0.3296 0.92821 0.85447 0.0
H540 H 0.32096 0.92931 0.88373 0.0
H541 H 0.35379 0.93319 0.87726 0.0
H542 H 0.39407 0.89494 0.90598 0.0
H543 H 0.41783 0.91986 0.93619 0.0
H544 H 0.57979 0.42622 0.75613 0.0
H545 H 0.56658 0.44605 0.72215 0.0
H546 H 0.60802 0.40961 0.67972 0.0
H547 H 0.6212 0.38958 0.71366 0.0
H548 H 0.59508 0.47517 0.69267 0.0
H549 H 0.54072 0.39915 0.64444 0.0
H550 H 0.55065 0.3973 0.67421 0.0
H551 H 0.57279 0.39748 0.65207 0.0
C552 C 0.58611 0.42237 0.73958 0.0
C553 C 0.60157 0.40621 0.73773 0.0
C554 C 0.57845 0.4337 0.72011 0.0
C555 C 0.58595 0.42917 0.6982 0.0
C556 C 0.60138 0.41304 0.69626 0.0
H557 H 0.56006 0.49403 0.56415 0.0
H558 H 0.57584 0.47119 0.59496 0.0
C559 C 0.60896 0.40159 0.71575 0.0
C560 C 0.5784 0.44208 0.67769 0.0
H561 H 0.54713 0.4354 0.62506 0.0
C562 C 0.58458 0.46641 0.67793 0.0
C563 C 0.5648 0.43077 0.65828 0.0
C564 C 0.55662 0.40475 0.65723 0.0
C565 C 0.57751 0.47965 0.6595 0.0
C566 C 0.5636 0.46837 0.64028 0.0
C567 C 0.55785 0.44406 0.63975 0.0
C568 C 0.55371 0.4816 0.62125 0.0
C569 C 0.5851 0.5057 0.6607 0.0
C570 C 0.53573 0.49471 0.62564 0.0
C571 C 0.52659 0.50755 0.60811 0.0
C572 C 0.53517 0.50759 0.58571 0.0
C573 C 0.55298 0.49425 0.58119 0.0
C574 C 0.56204 0.48124 0.59879 0.0
H575 H 0.60103 0.51151 0.67341 0.0
H576 H 0.59076 0.51332 0.64369 0.0
H577 H 0.56871 0.51257 0.66598 0.0
H578 H 0.5287 0.495 0.64269 0.0
H579 H 0.51278 0.51752 0.61216 0.0
H580 H 0.88136 0.61402 0.23795 0.0
H581 H 0.89543 0.59595 0.20502 0.0
H582 H 0.95577 0.65591 0.19632 0.0
H583 H 0.94176 0.6742 0.22922 0.0
H584 H 0.89933 0.60869 0.16001 0.0
H585 H 0.99446 0.6045 0.19683 0.0
H586 H 0.97005 0.61121 0.21392 0.0
H587 H 0.98845 0.63317 0.19617 0.0
C588 C 0.89754 0.62353 0.22901 0.0
C589 C 0.91038 0.64569 0.2365 0.0
C590 C 0.90566 0.61306 0.21014 0.0
C591 C 0.92695 0.6243 0.19821 0.0
C592 C 0.93967 0.64651 0.20545 0.0
H593 H 0.96541 0.58316 0.06173 0.0
H594 H 0.95071 0.60264 0.09353 0.0
C595 C 0.93159 0.65701 0.22437 0.0
C596 C 0.93554 0.61284 0.17812 0.0
H597 H 0.98619 0.59444 0.15767 0.0
C598 C 0.91834 0.60559 0.15953 0.0
C599 C 0.96024 0.60842 0.17744 0.0
C600 C 0.97932 0.61451 0.19723 0.0
C601 C 0.92514 0.59436 0.14038 0.0
C602 C 0.95005 0.59047 0.13944 0.0
C603 C 0.96717 0.59754 0.15813 0.0
C604 C 0.95854 0.57845 0.11969 0.0
C605 C 0.90531 0.5862 0.12159 0.0
C606 C 0.96837 0.55851 0.12356 0.0
C607 C 0.97696 0.5474 0.1054 0.0
C608 C 0.97611 0.55594 0.08275 0.0
C609 C 0.96621 0.5759 0.07884 0.0
C610 C 0.95764 0.58704 0.09708 0.0
H611 H 0.88583 0.58474 0.12763 0.0
H612 H 0.90803 0.59889 0.10721 0.0
H613 H 0.90689 0.56913 0.11494 0.0
H614 H 0.9694 0.55147 0.14075 0.0
H615 H 0.9845 0.53217 0.10923 0.0
H616 H 0.4252 0.22618 0.13284 0.0
H617 H 0.44887 0.19959 0.11699 0.0
H618 H 0.43473 0.15591 0.17698 0.0
H619 H 0.41112 0.18238 0.19296 0.0
H620 H 0.48431 0.16004 0.15962 0.0
H621 H 0.40691 0.13724 0.09261 0.0
H622 H 0.42169 0.16748 0.09411 0.0
H623 H 0.40392 0.15364 0.11772 0.0
C624 C 0.42744 0.21107 0.14277 0.0
C625 C 0.41607 0.20622 0.16401 0.0
C626 C 0.44096 0.19593 0.13372 0.0
C627 C 0.44312 0.17562 0.14566 0.0
C628 C 0.43323 0.1715 0.16751 0.0
H629 H 0.45886 0.04797 0.08598 0.0
H630 H 0.44678 0.0779 0.10852 0.0
C631 C 0.4198 0.18668 0.17663 0.0
C632 C 0.45346 0.15761 0.13453 0.0
H633 H 0.44177 0.11963 0.09007 0.0
C634 C 0.47511 0.1512 0.14437 0.0
C635 C 0.44109 0.14589 0.1149 0.0
C636 C 0.41699 0.1512 0.10428 0.0
C637 C 0.48487 0.13343 0.13492 0.0
C638 C 0.47273 0.12204 0.11504 0.0
C639 C 0.45106 0.12845 0.10529 0.0
C640 C 0.48174 0.10314 0.10402 0.0
C641 C 0.50768 0.12664 0.14654 0.0
C642 C 0.50561 0.1073 0.09436 0.0
C643 C 0.51264 0.09016 0.08151 0.0
C644 C 0.49578 0.06869 0.07791 0.0
C645 C 0.47226 0.06434 0.08831 0.0
C646 C 0.46531 0.08142 0.10122 0.0
H647 H 0.51082 0.1329 0.16449 0.0
H648 H 0.50557 0.10755 0.14661 0.0
H649 H 0.5248 0.13442 0.137 0.0
H650 H 0.51838 0.12409 0.09594 0.0
H651 H 0.53083 0.09411 0.07366 0.0
H652 H 0.10153 0.8139 0.63006 0.0
H653 H 0.08085 0.84363 0.61328 0.0
H654 H 0.10149 0.88485 0.67417 0.0
H655 H 0.12205 0.8552 0.6911 0.0
H656 H 0.05239 0.88425 0.65761 0.0
H657 H 0.1213 0.90487 0.58851 0.0
H658 H 0.105 0.87504 0.58961 0.0
H659 H 0.12616 0.88713 0.61304 0.0
C660 C 0.10159 0.82928 0.63988 0.0
C661 C 0.11354 0.83228 0.66184 0.0
C662 C 0.08981 0.84624 0.63027 0.0
C663 C 0.09005 0.8666 0.64234 0.0
C664 C 0.10114 0.86927 0.66457 0.0
H665 H 0.0712 0.99649 0.58213 0.0
H666 H 0.08599 0.9657 0.60334 0.0
C667 C 0.11279 0.85227 0.67424 0.0
C668 C 0.0796 0.88556 0.63152 0.0
H669 H 0.0868 0.92357 0.58645 0.0
C670 C 0.05988 0.89288 0.64205 0.0
C671 C 0.08972 0.89701 0.61144 0.0
C672 C 0.11187 0.8908 0.60007 0.0
C673 C 0.04982 0.91125 0.63288 0.0
C674 C 0.0595 0.92227 0.61246 0.0
C675 C 0.07933 0.91502 0.60205 0.0
C676 C 0.04966 0.94155 0.60157 0.0
C677 C 0.02934 0.919 0.64541 0.0
C678 C 0.02423 0.93828 0.59375 0.0
C679 C 0.01565 0.95594 0.58174 0.0
C680 C 0.03244 0.97707 0.57706 0.0
C681 C 0.05777 0.98043 0.58537 0.0
C682 C 0.06627 0.96284 0.59749 0.0
H683 H 0.02905 0.91329 0.66365 0.0
H684 H 0.03192 0.93813 0.64477 0.0
H685 H 0.01062 0.9113 0.63713 0.0
H686 H 0.01121 0.92183 0.59628 0.0
H687 H 0.99606 0.9527 0.57547 0.0
H688 H 0.76653 0.44947 0.88136 0.0
H689 H 0.80416 0.4696 0.90352 0.0
H690 H 0.80494 0.40733 0.94267 0.0
H691 H 0.76706 0.38722 0.92112 0.0
H692 H 0.81175 0.47571 0.95301 0.0
H693 H 0.87717 0.42645 0.91679 0.0
H694 H 0.84665 0.42728 0.90336 0.0
H695 H 0.84876 0.40892 0.92788 0.0
C696 C 0.7745 0.44008 0.89484 0.0
C697 C 0.76373 0.41659 0.89926 0.0
C698 C 0.79611 0.45161 0.90741 0.0
C699 C 0.80756 0.43988 0.92453 0.0
C700 C 0.7967 0.41661 0.92925 0.0
H701 H 0.91727 0.48622 0.0354 0.0
H702 H 0.87881 0.47276 1.01125 0.0
C703 C 0.77506 0.4051 0.9168 0.0
C704 C 0.83086 0.45188 0.93753 0.0
H705 H 0.89304 0.45036 0.94873 0.0
C706 C 0.82957 0.47028 0.95199 0.0
C707 C 0.85419 0.44496 0.93598 0.0
C708 C 0.85697 0.42596 0.92003 0.0
C709 C 0.8508 0.48146 0.96546 0.0
C710 C 0.87386 0.47396 0.96453 0.0
C711 C 0.87532 0.45602 0.94955 0.0
C712 C 0.89658 0.48403 0.97931 0.0
C713 C 0.84844 0.50127 0.98052 0.0
C714 C 0.91938 0.49488 0.96942 0.0
C715 C 0.94137 0.50261 0.9832 0.0
C716 C 0.94104 0.49936 1.00711 0.0
C717 C 0.91808 0.489 1.01703 0.0
C718 C 0.89606 0.48139 1.00326 0.0
H719 H 0.83187 0.50865 0.97507 0.0
H720 H 0.84588 0.49493 0.99844 0.0
H721 H 0.86584 0.51525 0.98029 0.0
H722 H 0.92025 0.49701 0.95098 0.0
H723 H 0.9588 0.51046 0.97505 0.0
H724 H 0.72992 0.64134 0.37176 0.0
H725 H 0.69271 0.62328 0.39312 0.0
H726 H 0.74112 0.60114 0.44554 0.0
H727 H 0.77841 0.61896 0.42425 0.0
H728 H 0.67455 0.57782 0.40727 0.0
H729 H 0.6988 0.63565 0.48248 0.0
H730 H 0.71444 0.6418 0.45569 0.0
H731 H 0.72331 0.62106 0.47552 0.0
C732 C 0.73271 0.63243 0.38771 0.0
C733 C 0.75733 0.63182 0.39629 0.0
C734 C 0.71136 0.62219 0.39999 0.0
C735 C 0.71404 0.61118 0.42119 0.0
C736 C 0.73851 0.61002 0.42953 0.0
H737 H 0.59199 0.51892 0.49315 0.0
H738 H 0.63007 0.53528 0.47219 0.0
C739 C 0.75987 0.62025 0.41729 0.0
C740 C 0.69128 0.60092 0.43453 0.0
H741 H 0.66397 0.60378 0.48588 0.0
C742 C 0.67224 0.5835 0.42446 0.0
C743 C 0.68803 0.6085 0.45687 0.0
C744 C 0.70708 0.62793 0.46825 0.0
C745 C 0.6503 0.57331 0.43617 0.0
C746 C 0.64738 0.58046 0.45875 0.0
C747 C 0.66627 0.59808 0.4687 0.0
C748 C 0.62453 0.57043 0.47207 0.0
C749 C 0.63017 0.55532 0.42403 0.0
C750 C 0.60903 0.58476 0.47969 0.0
C751 C 0.58731 0.57548 0.49184 0.0
C752 C 0.58059 0.55162 0.49683 0.0
C753 C 0.59644 0.53735 0.48958 0.0
C754 C 0.61818 0.54666 0.47741 0.0
H755 H 0.63216 0.55607 0.40515 0.0
H756 H 0.63192 0.53784 0.4301 0.0
H757 H 0.61091 0.55759 0.42777 0.0
H758 H 0.61354 0.60315 0.47591 0.0
H759 H 0.57564 0.58705 0.4971 0.0
H760 H 0.22657 0.29564 0.11396 0.0
H761 H 0.1989 0.31806 0.09426 0.0
H762 H 0.24159 0.38034 0.12639 0.0
H763 H 0.26924 0.35798 0.14636 0.0
H764 H 0.17014 0.34264 0.11949 0.0
H765 H 0.23129 0.40044 0.05891 0.0
H766 H 0.23921 0.37436 0.07076 0.0
H767 H 0.24422 0.40007 0.08779 0.0
C768 C 0.23024 0.31416 0.11664 0.0
C769 C 0.24993 0.32502 0.13188 0.0
C770 C 0.21453 0.32694 0.10526 0.0
C771 C 0.21833 0.35085 0.10875 0.0
C772 C 0.23865 0.36196 0.12313 0.0
H773 H 0.13041 0.45453 0.08343 0.0
H774 H 0.16396 0.43327 0.09152 0.0
C775 C 0.25441 0.34916 0.13455 0.0
C776 C 0.19926 0.36354 0.09956 0.0
H777 H 0.19087 0.40861 0.06496 0.0
C778 C 0.17457 0.35692 0.10738 0.0
C779 C 0.20526 0.38227 0.08398 0.0
C780 C 0.23138 0.38966 0.07468 0.0
C781 C 0.15577 0.36885 0.10044 0.0
C782 C 0.16169 0.38758 0.08478 0.0
C783 C 0.18637 0.39416 0.07684 0.0
C784 C 0.14262 0.40102 0.07728 0.0
C785 C 0.13 0.36178 0.11059 0.0
C786 C 0.11988 0.39011 0.06589 0.0
C787 C 0.10064 0.40216 0.06138 0.0
C788 C 0.10399 0.42541 0.0679 0.0
C789 C 0.12735 0.43666 0.0781 0.0
C790 C 0.1465 0.42454 0.08277 0.0
H791 H 0.13055 0.35119 0.12643 0.0
H792 H 0.12247 0.37719 0.11474 0.0
H793 H 0.11661 0.35123 0.09796 0.0
H794 H 0.11675 0.3721 0.06104 0.0
H795 H 0.08299 0.39319 0.05314 0.0
H796 H 0.63106 0.24568 0.91315 0.0
H797 H 0.61506 0.20974 0.93401 0.0
H798 H 0.54702 0.19716 0.89056 0.0
H799 H 0.56331 0.23275 0.86899 0.0
H800 H 0.57289 0.19695 0.95885 0.0
H801 H 0.56847 0.13562 0.88731 0.0
H802 H 0.58507 0.16551 0.88559 0.0
H803 H 0.55117 0.15786 0.88122 0.0
C804 C 0.61286 0.23513 0.9077 0.0
C805 C 0.59865 0.24214 0.88912 0.0
C806 C 0.60363 0.21462 0.91983 0.0
C807 C 0.57998 0.20045 0.9137 0.0
C808 C 0.56556 0.20748 0.89537 0.0
H809 H 0.48952 0.09437 0.9985 0.0
H810 H 0.50804 0.12949 0.97722 0.0
C811 C 0.57479 0.22804 0.8832 0.0
C812 C 0.57027 0.17871 0.92694 0.0
H813 H 0.54924 0.12008 0.92171 0.0
C814 C 0.56779 0.18015 0.95071 0.0
C815 C 0.56397 0.15666 0.91647 0.0
C816 C 0.56752 0.15369 0.89129 0.0
C817 C 0.55875 0.16033 0.96414 0.0
C818 C 0.55154 0.1384 0.95352 0.0
C819 C 0.55453 0.13687 0.92985 0.0
C820 C 0.54046 0.11696 0.96663 0.0
C821 C 0.55733 0.16304 0.98968 0.0
C822 C 0.55215 0.09789 0.96743 0.0
C823 C 0.54147 0.07767 0.97955 0.0
C824 C 0.51879 0.07607 0.99095 0.0
C825 C 0.50707 0.09509 0.98999 0.0
C826 C 0.51774 0.11527 0.97794 0.0
H827 H 0.57003 0.17931 0.99591 0.0
H828 H 0.53764 0.16367 0.99372 0.0
H829 H 0.56252 0.14821 0.9992 0.0
H830 H 0.5696 0.09869 0.95873 0.0
H831 H 0.5508 0.06321 0.97977 0.0
H832 H 0.89046 0.80199 0.41258 0.0
H833 H 0.90677 0.83827 0.43288 0.0
H834 H 0.97093 0.85317 0.38963 0.0
H835 H 0.95426 0.81723 0.36863 0.0
H836 H 0.95106 0.85357 0.45781 0.0
H837 H 0.94592 0.91297 0.38413 0.0
H838 H 0.93067 0.88266 0.38325 0.0
H839 H 0.96412 0.89168 0.37904 0.0
C840 C 0.90786 0.81309 0.40707 0.0
C841 C 0.9208 0.80661 0.38864 0.0
C842 C 0.9173 0.83382 0.41889 0.0
C843 C 0.9399 0.84882 0.41263 0.0
C844 C 0.95316 0.84225 0.39455 0.0
H845 H 0.03072 0.97968 0.4625 0.0
H846 H 0.01216 0.94378 0.44221 0.0
C847 C 0.94373 0.82147 0.38269 0.0
C848 C 0.94968 0.87103 0.42528 0.0
H849 H 0.96717 0.92984 0.41818 0.0
C850 C 0.95444 0.87025 0.44914 0.0
C851 C 0.95409 0.89291 0.41409 0.0
C852 C 0.94822 0.89523 0.38876 0.0
C853 C 0.96405 0.89052 0.46193 0.0
C854 C 0.96863 0.91239 0.45071 0.0
C855 C 0.9637 0.91317 0.42687 0.0
C856 C 0.97941 0.93456 0.46314 0.0
C857 C 0.96995 0.88822 0.48726 0.0
C858 C 0.96712 0.94176 0.4816 0.0
C859 C 0.9778 0.96241 0.4933 0.0
C860 C 1.00087 0.97641 0.48669 0.0
C861 C 0.01289 0.96935 0.46803 0.0
C862 C 1.00226 0.94878 0.45637 0.0
H863 H 0.97164 0.87034 0.49202 0.0
H864 H 0.98786 0.90039 0.49261 0.0
H865 H 0.95439 0.89238 0.49702 0.0
H866 H 0.94925 0.9314 0.48699 0.0
H867 H 0.96826 0.96715 0.50776 0.0
H868 H 0.27616 0.68008 0.68543 0.0
H869 H 0.30832 0.66308 0.66882 0.0
H870 H 0.27922 0.67551 0.60088 0.0
H871 H 0.24578 0.69122 0.61735 0.0
H872 H 0.29329 0.63441 0.60361 0.0
H873 H 0.36989 0.70308 0.64122 0.0
H874 H 0.35015 0.68709 0.66249 0.0
H875 H 0.33692 0.70437 0.64159 0.0
C876 C 0.27606 0.6787 0.66695 0.0
C877 C 0.25839 0.68726 0.65275 0.0
C878 C 0.2948 0.6693 0.65748 0.0
C879 C 0.29664 0.66868 0.63363 0.0
C880 C 0.27835 0.67612 0.61936 0.0
H881 H 0.43412 0.65814 0.56748 0.0
H882 H 0.39752 0.67063 0.58169 0.0
C883 C 0.25937 0.68528 0.62882 0.0
C884 C 0.31808 0.66094 0.62359 0.0
H885 H 0.38269 0.67155 0.62409 0.0
C886 C 0.31285 0.64256 0.608 0.0
C887 C 0.34358 0.67193 0.62899 0.0
C888 C 0.35052 0.69286 0.6443 0.0
C889 C 0.33245 0.63459 0.59796 0.0
C890 C 0.35795 0.64489 0.60419 0.0
C891 C 0.36314 0.6635 0.61951 0.0
C892 C 0.37964 0.63691 0.59488 0.0
C893 C 0.3256 0.61557 0.58043 0.0
C894 C 0.38189 0.61384 0.59772 0.0
C895 C 0.40256 0.60653 0.58921 0.0
C896 C 0.4217 0.62225 0.57806 0.0
C897 C 0.41957 0.64545 0.57559 0.0
C898 C 0.39873 0.65268 0.58388 0.0
H899 H 0.30634 0.61465 0.57253 0.0
H900 H 0.3394 0.61811 0.56659 0.0
H901 H 0.32568 0.59868 0.58896 0.0
H902 H 0.36773 0.60148 0.60666 0.0
H903 H 0.40338 0.58847 0.59121 0.0
H904 H 0.74607 0.80032 0.71895 0.0
H905 H 0.77306 0.81692 0.68753 0.0
H906 H 0.82406 0.86036 0.73575 0.0
H907 H 0.79681 0.84428 0.767 0.0
H908 H 0.81138 0.88492 0.70085 0.0
H909 H 0.84046 0.80817 0.66704 0.0
H910 H 0.8067 0.80439 0.668 0.0
H911 H 0.82581 0.80783 0.69427 0.0
C912 C 0.76326 0.81315 0.72281 0.0
C913 C 0.76932 0.82114 0.74532 0.0
C914 C 0.77875 0.82252 0.7049 0.0
C915 C 0.80077 0.83968 0.70931 0.0
C916 C 0.80718 0.84713 0.73193 0.0
H917 H 0.91678 0.90126 0.61427 0.0
H918 H 0.89242 0.87727 0.64364 0.0
C919 C 0.79158 0.838 0.74975 0.0
C920 C 0.81598 0.85142 0.69027 0.0
H921 H 0.84837 0.84234 0.64355 0.0
C922 C 0.81958 0.87559 0.68842 0.0
C923 C 0.82693 0.83929 0.6742 0.0
C924 C 0.82502 0.81351 0.67607 0.0
C925 C 0.83351 0.88793 0.67083 0.0
C926 C 0.84348 0.87572 0.65414 0.0
C927 C 0.84035 0.8516 0.65617 0.0
C928 C 0.8574 0.88794 0.63467 0.0
C929 C 0.83777 0.91402 0.67054 0.0
C930 C 0.84552 0.90117 0.61937 0.0
C931 C 0.85943 0.91518 0.60289 0.0
C932 C 0.88548 0.91598 0.60109 0.0
C933 C 0.8969 0.90145 0.61547 0.0
C934 C 0.88298 0.88758 0.63214 0.0
H935 H 0.83525 0.92087 0.68768 0.0
H936 H 0.85709 0.9221 0.665 0.0
H937 H 0.82378 0.91938 0.65831 0.0
H938 H 0.82565 0.90132 0.62075 0.0
H939 H 0.84995 0.92623 0.59234 0.0
H940 H 0.76419 0.26737 0.21253 0.0
H941 H 0.73937 0.2522 0.17778 0.0
H942 H 0.68919 0.20262 0.21888 0.0
H943 H 0.71341 0.218 0.25352 0.0
H944 H 0.73412 0.20787 0.16314 0.0
H945 H 0.63932 0.22539 0.17515 0.0
H946 H 0.66726 0.24014 0.19132 0.0
H947 H 0.65048 0.21182 0.20007 0.0
C948 C 0.74749 0.25362 0.21415 0.0
C949 C 0.74082 0.24374 0.2357 0.0
C950 C 0.73339 0.24495 0.19432 0.0
C951 C 0.71223 0.22651 0.19578 0.0
C952 C 0.70509 0.21719 0.21737 0.0
H953 H 0.65319 0.10852 0.11832 0.0
H954 H 0.67516 0.13979 0.14322 0.0
C955 C 0.71917 0.22578 0.23713 0.0
C956 C 0.69936 0.215 0.17483 0.0
H957 H 0.64067 0.19296 0.15056 0.0
C958 C 0.71375 0.20507 0.16007 0.0
C959 C 0.67284 0.21156 0.17066 0.0
C960 C 0.65663 0.22302 0.18502 0.0
C961 C 0.70211 0.19041 0.14229 0.0
C962 C 0.6754 0.18536 0.13941 0.0
C963 C 0.66114 0.19662 0.15304 0.0
C964 C 0.66195 0.16676 0.12396 0.0
C965 C 0.71842 0.17981 0.1272 0.0
C966 C 0.64671 0.17152 0.10521 0.0
C967 C 0.63417 0.15362 0.09078 0.0
C968 C 0.63658 0.13069 0.09504 0.0
C969 C 0.65145 0.12604 0.11418 0.0
C970 C 0.66398 0.14388 0.12848 0.0
H971 H 0.73807 0.19041 0.12697 0.0
H972 H 0.71942 0.16237 0.13397 0.0
H973 H 0.71035 0.17788 0.10933 0.0
H974 H 0.64478 0.18909 0.1016 0.0
H975 H 0.62293 0.15778 0.07613 0.0
H976 H 0.44402 0.6295 0.30305 0.0
H977 H 0.45833 0.60984 0.33669 0.0
H978 H 0.4036 0.63222 0.3773 0.0
H979 H 0.38928 0.6521 0.34381 0.0
H980 H 0.47853 0.62697 0.37916 0.0
H981 H 0.38826 0.56263 0.38967 0.0
H982 H 0.39465 0.58003 0.36403 0.0
H983 H 0.38529 0.59228 0.38935 0.0
C984 C 0.43513 0.63047 0.31916 0.0
C985 C 0.41535 0.64238 0.32055 0.0
C986 C 0.44327 0.61907 0.3384 0.0
C987 C 0.43179 0.61915 0.35951 0.0
C988 C 0.41237 0.63137 0.36111 0.0
H989 H 0.45798 0.55174 0.49169 0.0
H990 H 0.44291 0.57568 0.46152 0.0
C991 C 0.4042 0.64277 0.34188 0.0
C992 C 0.44039 0.60666 0.37981 0.0
H993 H 0.4207 0.56273 0.41823 0.0
C994 C 0.46586 0.61292 0.38768 0.0
C995 C 0.42388 0.58839 0.39111 0.0
C996 C 0.39655 0.58024 0.38305 0.0
C997 C 0.47523 0.60151 0.40642 0.0
C998 C 0.45885 0.58295 0.41744 0.0
C999 C 0.43327 0.57695 0.40986 0.0
C1000 C 0.46821 0.56885 0.43605 0.0
C1001 C 0.50258 0.60964 0.41442 0.0
C1002 C 0.48719 0.55679 0.43179 0.0
C1003 C 0.49583 0.54323 0.44897 0.0
C1004 C 0.48564 0.54129 0.47083 0.0
C1005 C 0.46644 0.55315 0.47511 0.0
C1006 C 0.45774 0.56674 0.45784 0.0
H1007 H 0.51023 0.62785 0.40912 0.0
H1008 H 0.50487 0.6083 0.43337 0.0
H1009 H 0.51413 0.59866 0.40662 0.0
H1010 H 0.49518 0.55764 0.41503 0.0
H1011 H 0.51053 0.53421 0.44507 0.0
H1012 H 0.0739 0.41192 0.80419 0.0
H1013 H 0.05979 0.4302 0.83704 0.0
H1014 H 0.12732 0.42359 0.87608 0.0
H1015 H 0.14128 0.40464 0.84371 0.0
H1016 H 0.05144 0.41319 0.88376 0.0
H1017 H 0.12643 0.49368 0.88013 0.0
H1018 H 0.11857 0.47395 0.85633 0.0
H1019 H 0.13742 0.46709 0.88048 0.0
C1020 C 0.0857 0.41401 0.8198 0.0
C1021 C 0.10894 0.40676 0.82095 0.0
C1022 C 0.07761 0.42467 0.8386 0.0
C1023 C 0.0926 0.42864 0.85903 0.0
C1024 C 0.11558 0.42118 0.86042 0.0
H1025 H 0.04821 0.46751 0.99376 0.0
H1026 H 0.06326 0.44812 0.96204 0.0
C1027 C 0.1236 0.41037 0.84172 0.0
C1028 C 0.08422 0.44052 0.87887 0.0
H1029 H 0.09974 0.48944 0.91167 0.0
C1030 C 0.06203 0.42984 0.88987 0.0
C1031 C 0.09784 0.46238 0.88681 0.0
C1032 C 0.12129 0.47513 0.87528 0.0
C1033 C 0.05334 0.44024 0.90865 0.0
C1034 C 0.0672 0.46193 0.91683 0.0
C1035 C 0.08919 0.47275 0.90563 0.0
C1036 C 0.0587 0.47399 0.93648 0.0
C1037 C 0.02909 0.42812 0.91935 0.0
C1038 C 0.05165 0.49534 0.93299 0.0
C1039 C 0.04297 0.50647 0.95111 0.0
C1040 C 0.04139 0.49672 0.97335 0.0
C1041 C 0.04909 0.4756 0.97694 0.0
C1042 C 0.05758 0.46437 0.95873 0.0
H1043 H 0.01796 0.41416 0.90823 0.0
H1044 H 0.03371 0.42021 0.93593 0.0
H1045 H 0.01711 0.44061 0.92284 0.0
H1046 H 0.05243 0.50323 0.91608 0.0
H1047 H 0.03732 0.5227 0.94758 0.0
H1048 H 0.59279 0.85947 0.84724 0.0
H1049 H 0.56867 0.88547 0.86362 0.0
H1050 H 0.5849 0.86096 0.93153 0.0
H1051 H 0.6081 0.83438 0.91514 0.0
H1052 H 0.53772 0.86815 0.92783 0.0
H1053 H 0.60497 0.94457 0.89349 0.0
H1054 H 0.58841 0.92507 0.87196 0.0
H1055 H 0.61038 0.91566 0.89205 0.0
C1056 C 0.59087 0.85948 0.86563 0.0
C1057 C 0.60241 0.8451 0.87998 0.0
C1058 C 0.57724 0.8744 0.87498 0.0
C1059 C 0.57553 0.87559 0.89884 0.0
C1060 C 0.58603 0.8604 0.91307 0.0
H1061 H 0.56971 0.98659 0.98567 0.0
H1062 H 0.57886 0.9576 0.96024 0.0
C1063 C 0.59927 0.84521 0.90371 0.0
C1064 C 0.5643 0.8935 0.9093 0.0
H1065 H 0.57214 0.95195 0.91518 0.0
C1066 C 0.54508 0.88649 0.92496 0.0
C1067 C 0.57411 0.91743 0.90564 0.0
C1068 C 0.59575 0.9262 0.89005 0.0
C1069 C 0.53604 0.90271 0.93769 0.0
C1070 C 0.54601 0.92662 0.93413 0.0
C1071 C 0.56446 0.93362 0.91778 0.0
C1072 C 0.53978 0.94462 0.94885 0.0
C1073 C 0.51697 0.89404 0.95568 0.0
C1074 C 0.51476 0.94723 0.95071 0.0
C1075 C 0.50939 0.96369 0.96557 0.0
C1076 C 0.52904 0.97809 0.97846 0.0
C1077 C 0.55412 0.97587 0.97596 0.0
C1078 C 0.5594 0.95928 0.9614 0.0
H1079 H 0.51562 0.87541 0.95975 0.0
H1080 H 0.52195 0.90406 0.97176 0.0
H1081 H 0.49798 0.89616 0.94926 0.0
H1082 H 0.49938 0.93649 0.94078 0.0
H1083 H 0.48988 0.96507 0.967 0.0
H1084 H 0.92821 0.2231 0.38395 0.0
H1085 H 0.95163 0.19614 0.40258 0.0
H1086 H 0.88103 0.14941 0.4173 0.0
H1087 H 0.85759 0.1764 0.39939 0.0
H1088 H 0.91592 0.15818 0.45491 0.0
H1089 H 0.96001 0.13343 0.37743 0.0
H1090 H 0.96486 0.16393 0.38291 0.0
H1091 H 0.93356 0.14759 0.37563 0.0
C1092 C 0.91772 0.20712 0.39126 0.0
C1093 C 0.89105 0.20179 0.39005 0.0
C1094 C 0.93111 0.19165 0.40166 0.0
C1095 C 0.91803 0.17064 0.41097 0.0
C1096 C 0.89146 0.16545 0.41003 0.0
H1097 H 0.94284 0.04906 0.48127 0.0
H1098 H 0.927 0.0787 0.45913 0.0
C1099 C 0.87811 0.18083 0.39966 0.0
C1100 C 0.93175 0.15419 0.42241 0.0
H1101 H 0.9699 0.11656 0.41269 0.0
C1102 C 0.92781 0.14915 0.44571 0.0
C1103 C 0.94732 0.14254 0.41034 0.0
C1104 C 0.95164 0.14694 0.38515 0.0
C1105 C 0.93874 0.13253 0.45722 0.0
C1106 C 0.95368 0.12039 0.44501 0.0
C1107 C 0.9583 0.12586 0.42189 0.0
C1108 C 0.96385 0.10142 0.45598 0.0
C1109 C 0.93415 0.12799 0.48237 0.0
C1110 C 0.98995 0.10402 0.46068 0.0
C1111 C 0.99914 0.08707 0.47334 0.0
C1112 C 0.98233 0.06722 0.48141 0.0
C1113 C 0.95633 0.06417 0.47551 0.0
C1114 C 0.9472 0.08112 0.46291 0.0
H1115 H 0.92742 0.14232 0.4904 0.0
H1116 H 0.91944 0.11187 0.48431 0.0
H1117 H 0.9517 0.1256 0.4918 0.0
H1118 H 1.00307 0.11956 0.45533 0.0
H1119 H 0.01929 0.08996 0.47749 0.0
H1120 H 0.26272 0.65138 0.12548 0.0
H1121 H 0.22446 0.63191 0.10403 0.0
H1122 H 0.20444 0.58467 0.16054 0.0
H1123 H 0.24321 0.60346 0.18196 0.0
H1124 H 0.2086 0.57912 0.09464 0.0
H1125 H 0.14156 0.61695 0.14375 0.0
H1126 H 0.17466 0.63088 0.14223 0.0
H1127 H 0.16549 0.6053 0.15944 0.0
C1128 C 0.25047 0.63664 0.13333 0.0
C1129 C 0.25628 0.62902 0.15554 0.0
C1130 C 0.22848 0.62563 0.12104 0.0
C1131 C 0.21159 0.60693 0.13073 0.0
C1132 C 0.21716 0.59921 0.15283 0.0
H1133 H 0.05994 0.53756 0.07948 0.0
H1134 H 0.09907 0.54923 0.10316 0.0
C1135 C 0.23929 0.61009 0.1651 0.0
C1136 C 0.18814 0.59562 0.11762 0.0
H1137 H 0.12422 0.592 0.1135 0.0
C1138 C 0.19011 0.58182 0.09878 0.0
C1139 C 0.16406 0.59903 0.12321 0.0
C1140 C 0.16108 0.61391 0.14319 0.0
C1141 C 0.1686 0.57137 0.08528 0.0
C1142 C 0.14455 0.57542 0.09035 0.0
C1143 C 0.14259 0.58889 0.10953 0.0
C1144 C 0.12135 0.56667 0.07556 0.0
C1145 C 0.17187 0.55583 0.06594 0.0
C1146 C 0.12074 0.57243 0.05211 0.0
C1147 C 0.09849 0.56551 0.03851 0.0
C1148 C 0.07622 0.55298 0.04813 0.0
C1149 C 0.07685 0.54701 0.07153 0.0
C1150 C 0.09918 0.55378 0.0851 0.0
H1151 H 0.18891 0.54839 0.0691 0.0
H1152 H 0.15505 0.5414 0.06348 0.0
H1153 H 0.17447 0.56612 0.04981 0.0
H1154 H 0.1373 0.58287 0.0444 0.0
H1155 H 0.09855 0.57053 1.02057 0.0
H1156 H 0.26697 0.38506 0.64307 0.0
H1157 H 0.30395 0.40334 0.62184 0.0
H1158 H 0.30495 0.46839 0.65435 0.0
H1159 H 0.26878 0.44993 0.67672 0.0
H1160 H 0.31115 0.43746 0.59101 0.0
H1161 H 0.37751 0.46452 0.6655 0.0
H1162 H 0.34709 0.44513 0.66838 0.0
H1163 H 0.3494 0.47589 0.66608 0.0
C1164 C 0.27526 0.40316 0.64613 0.0
C1165 C 0.26487 0.41584 0.662 0.0
C1166 C 0.29636 0.41369 0.63372 0.0
C1167 C 0.30771 0.43721 0.63672 0.0
C1168 C 0.29706 0.45009 0.65209 0.0
H1169 H 0.43405 0.52969 0.57126 0.0
H1170 H 0.39595 0.51317 0.59213 0.0
C1171 C 0.27604 0.43953 0.66467 0.0
C1172 C 0.33034 0.44816 0.62342 0.0
H1173 H 0.39183 0.47856 0.62897 0.0
C1174 C 0.32879 0.44636 0.59937 0.0
C1175 C 0.35351 0.45981 0.63421 0.0
C1176 C 0.35714 0.46129 0.65996 0.0
C1177 C 0.34951 0.456 0.58591 0.0
C1178 C 0.37256 0.46769 0.5967 0.0
C1179 C 0.37412 0.46968 0.62069 0.0
C1180 C 0.39539 0.47769 0.58343 0.0
C1181 C 0.34651 0.45389 0.56018 0.0
C1182 C 0.40791 0.46326 0.57163 0.0
C1183 C 0.42983 0.47263 0.55974 0.0
C1184 C 0.43969 0.4967 0.5593 0.0
C1185 C 0.42697 0.51111 0.57104 0.0
C1186 C 0.40519 0.50169 0.58307 0.0
H1187 H 0.32628 0.4489 0.55426 0.0
H1188 H 0.35533 0.47046 0.55172 0.0
H1189 H 0.35626 0.4404 0.55453 0.0
H1190 H 0.40093 0.44467 0.5719 0.0
H1191 H 0.43912 0.46098 0.55102 0.0
H1192 H 0.7818 0.74541 0.92886 0.0
H1193 H 0.81202 0.72512 0.94775 0.0
H1194 H 0.76209 0.65954 0.93154 0.0
H1195 H 0.73186 0.67978 0.9123 0.0
H1196 H 0.81083 0.69276 0.98303 0.0
H1197 H 0.82638 0.65633 0.89907 0.0
H1198 H 0.80879 0.67874 0.90151 0.0
H1199 H 0.79416 0.64911 0.90773 0.0
C1200 C 0.777 0.72668 0.92975 0.0
C1201 C 0.7546 0.71415 0.91891 0.0
C1202 C 0.79432 0.71511 0.94049 0.0
C1203 C 0.78951 0.69084 0.94063 0.0
C1204 C 0.7664 0.67829 0.93116 0.0
H1205 H 0.88956 0.60982 1.00947 0.0
H1206 H 0.85369 0.62782 0.99982 0.0
C1207 C 0.74916 0.68985 0.92022 0.0
C1208 C 0.80957 0.67887 0.94905 0.0
H1209 H 0.84873 0.64516 0.9313 0.0
C1210 C 0.81907 0.68224 0.9718 0.0
C1211 C 0.82053 0.66549 0.9342 0.0
C1212 C 0.81216 0.66233 0.90921 0.0
C1213 C 0.83938 0.67265 0.98008 0.0
C1214 C 0.85009 0.65905 0.96528 0.0
C1215 C 0.84039 0.65552 0.94263 0.0
C1216 C 0.87219 0.64915 0.97238 0.0
C1217 C 0.84971 0.67777 1.00431 0.0
C1218 C 0.89436 0.65497 0.96001 0.0
C1219 C 0.91464 0.64443 0.96516 0.0
C1220 C 0.91326 0.62783 0.98288 0.0
C1221 C 0.89119 0.62238 0.99559 0.0
C1222 C 0.87078 0.63286 0.9903 0.0
H1223 H 0.84355 0.69284 1.01146 0.0
H1224 H 0.84266 0.6625 1.01538 0.0
H1225 H 0.87074 0.6813 1.00512 0.0
H1226 H 0.89578 0.6674 0.94601 0.0
H1227 H 0.93108 0.64876 0.95471 0.0
H1228 H 0.45729 0.81267 0.18719 0.0
H1229 H 0.47309 0.84944 0.16729 0.0
H1230 H 0.41146 0.83259 0.11676 0.0
H1231 H 0.39578 0.7958 0.13638 0.0
H1232 H 0.45499 0.84823 0.09647 0.0
H1233 H 0.44751 0.90849 0.16606 0.0
H1234 H 0.46639 0.88805 0.17451 0.0
H1235 H 0.43314 0.87801 0.16734 0.0
C1236 C 0.44693 0.81692 0.172 0.0
C1237 C 0.42528 0.80119 0.16339 0.0
C1238 C 0.45595 0.83803 0.16065 0.0
C1239 C 0.4433 0.84407 0.14064 0.0
C1240 C 0.4216 0.82843 0.13213 0.0
H1241 H 0.47297 0.98195 0.07564 0.0
H1242 H 0.45381 0.94615 0.09598 0.0
C1243 C 0.4127 0.80731 0.14335 0.0
C1244 C 0.45316 0.86614 0.12795 0.0
H1245 H 0.47064 0.92499 0.13374 0.0
C1246 C 0.45828 0.865 0.10464 0.0
C1247 C 0.45712 0.88816 0.13838 0.0
C1248 C 0.45051 0.89085 0.16288 0.0
C1249 C 0.46768 0.88507 0.09169 0.0
C1250 C 0.47273 0.90699 0.10239 0.0
C1251 C 0.46707 0.90822 0.12555 0.0
C1252 C 0.48421 0.92875 0.08992 0.0
C1253 C 0.4717 0.88255 0.06652 0.0
C1254 C 0.50781 0.9311 0.07994 0.0
C1255 C 0.51863 0.95141 0.06819 0.0
C1256 C 0.50628 0.97 0.06633 0.0
C1257 C 0.48284 0.96785 0.07659 0.0
C1258 C 0.47193 0.94743 0.08831 0.0
H1259 H 0.45989 0.86617 0.05956 0.0
H1260 H 0.46713 0.89726 0.05635 0.0
H1261 H 0.49185 0.88218 0.06418 0.0
H1262 H 0.51801 0.91725 0.08139 0.0
H1263 H 0.53681 0.95259 0.06063 0.0
H1264 H 0.12574 0.22551 0.6852 0.0
H1265 H 0.10975 0.19063 0.66265 0.0
H1266 H 0.05067 0.22139 0.63227 0.0
H1267 H 0.06735 0.25686 0.65379 0.0
H1268 H 0.06606 0.1597 0.66108 0.0
H1269 H 0.07859 0.20137 0.57551 0.0
H1270 H 0.09163 0.21625 0.60148 0.0
H1271 H 0.05879 0.21404 0.59293 0.0
C1272 C 0.10955 0.2251 0.67349 0.0
C1273 C 0.09815 0.24438 0.67125 0.0
C1274 C 0.10027 0.20495 0.66069 0.0
C1275 C 0.0793 0.20338 0.64524 0.0
C1276 C 0.06731 0.22225 0.64352 0.0
H1277 H 0.98705 0.09595 0.55984 0.0
H1278 H 1.00633 0.13105 0.58122 0.0
C1279 C 0.07667 0.24249 0.65621 0.0
C1280 C 0.06984 0.18194 0.63127 0.0
H1281 H 0.05465 0.16248 0.57639 0.0
C1282 C 0.06379 0.16035 0.64255 0.0
C1283 C 0.06692 0.18255 0.60699 0.0
C1284 C 0.07456 0.20475 0.59349 0.0
C1285 C 0.05431 0.13965 0.63041 0.0
C1286 C 0.05093 0.14037 0.60623 0.0
C1287 C 0.05717 0.16187 0.59491 0.0
C1288 C 0.03998 0.11914 0.5925 0.0
C1289 C 0.0473 0.1172 0.64362 0.0
C1290 C 0.05267 0.10081 0.59122 0.0
C1291 C 0.0417 0.08069 0.5788 0.0
C1292 C 0.01778 0.07847 0.56752 0.0
C1293 C 1.00544 0.09705 0.56842 0.0
C1294 C 0.01646 0.11716 0.58064 0.0
H1295 H 0.04636 0.12008 0.66228 0.0
H1296 H 0.0287 0.1069 0.63717 0.0
H1297 H 0.06177 0.10682 0.6412 0.0
H1298 H 0.07102 0.10203 0.5999 0.0
H1299 H 0.05173 0.06672 0.57837 0.0
H1300 H 0.77312 0.38108 0.39996 0.0
H1301 H 0.74334 0.40005 0.41848 0.0
H1302 H 0.70208 0.33372 0.44218 0.0
H1303 H 0.73132 0.31461 0.42349 0.0
H1304 H 0.69038 0.39093 0.40833 0.0
H1305 H 0.71163 0.37396 0.50007 0.0
H1306 H 0.73315 0.37178 0.47782 0.0
H1307 H 0.70611 0.34869 0.48236 0.0
C1308 C 0.75779 0.37054 0.40922 0.0
C1309 C 0.75468 0.34631 0.4103 0.0
C1310 C 0.74088 0.38142 0.41987 0.0
C1311 C 0.72075 0.3683 0.43194 0.0
C1312 C 0.71785 0.34421 0.4334 0.0
H1313 H 0.5865 0.3883 0.49536 0.0
H1314 H 0.6214 0.37376 0.48 0.0
C1315 C 0.73465 0.33332 0.42273 0.0
C1316 C 0.70162 0.37948 0.44162 0.0
H1317 H 0.67336 0.38673 0.49129 0.0
C1318 C 0.68682 0.39028 0.42649 0.0
C1319 C 0.69698 0.37844 0.4653 0.0
C1320 C 0.71294 0.36778 0.48239 0.0
C1321 C 0.66689 0.39943 0.43433 0.0
C1322 C 0.66202 0.39811 0.45798 0.0
C1323 C 0.67711 0.38764 0.47316 0.0
C1324 C 0.64103 0.40709 0.46726 0.0
C1325 C 0.65067 0.40968 0.4171 0.0
C1326 C 0.64066 0.43067 0.46536 0.0
C1327 C 0.62065 0.43899 0.47391 0.0
C1328 C 0.60071 0.4239 0.48471 0.0
C1329 C 0.60135 0.40031 0.48684 0.0
C1330 C 0.62136 0.39201 0.47824 0.0
H1331 H 0.65287 0.4042 0.39933 0.0
H1332 H 0.63034 0.40457 0.42114 0.0
H1333 H 0.65642 0.42884 0.41769 0.0
H1334 H 0.65588 0.44266 0.45728 0.0
H1335 H 0.62064 0.45721 0.47179 0.0
loop_
_geom_bond_atom_site_label_1
_geom_bond_atom_site_label_2
_geom_bond_distance
_geom_bond_site_symmetry_2
_ccdc_geom_bond_type
C0 C1 1.386 . S
C0 C2 1.397 . S
C0 H24 0.931 . S
C1 C0 1.386 . S
C1 C5 1.397 . S
C2 C0 1.397 . S
C2 C3 1.384 . S
C2 H25 0.930 . S
C3 C2 1.384 . S
C3 C4 1.377 . S
C3 C6 1.481 . S
C4 C3 1.377 . S
C4 C5 1.389 . S
C4 H26 0.929 . S
C5 C1 1.397 . S
C5 C4 1.389 . S
C5 H27 0.931 . S
C6 C3 1.481 . S
C6 C7 1.387 . S
C6 C11 1.390 . S
C7 C6 1.387 . S
C7 C8 1.401 . S
C7 H28 0.930 . S
C8 C7 1.401 . S
C8 C9 1.376 . S
C8 C17 1.511 . S
C9 C8 1.376 . S
C9 C10 1.392 . S
C9 H30 0.931 . S
C10 C9 1.392 . S
C10 C11 1.361 . S
C10 C12 1.500 . S
C11 C6 1.390 . S
C11 C10 1.361 . S
C11 H29 0.931 . S
C12 C10 1.500 . S
C12 C13 1.371 . S
C12 C14 1.365 . S
C13 C12 1.371 . S
C13 C23 1.386 . S
C13 H31 0.931 . S
C14 C12 1.365 . S
C14 C15 1.409 . S
C14 H32 0.929 . S
C15 C14 1.409 . S
C15 C16 1.380 . S
C15 H33 0.930 . S
C16 C15 1.380 . S
C16 C23 1.357 . S
C17 C8 1.511 . S
C17 C18 1.341 . S
C17 C19 1.371 . S
C18 C17 1.341 . S
C18 C22 1.394 . S
C18 H34 0.930 . S
C19 C17 1.371 . S
C19 C20 1.392 . S
C19 H35 0.931 . S
C20 C19 1.392 . S
C20 C21 1.331 . S
C20 H38 0.932 . S
C21 C20 1.331 . S
C21 C22 1.336 . S
C22 C18 1.394 . S
C22 C21 1.336 . S
C22 H37 0.929 . S
C23 C13 1.386 . S
C23 C16 1.357 . S
C23 H36 0.928 . S
H24 C0 0.931 . S
H25 C2 0.930 . S
H26 C4 0.929 . S
H27 C5 0.931 . S
H28 C7 0.930 . S
H29 C11 0.931 . S
H30 C9 0.931 . S
H31 C13 0.931 . S
H32 C14 0.929 . S
H33 C15 0.930 . S
H34 C18 0.930 . S
H35 C19 0.931 . S
H36 C23 0.928 . S
H37 C22 0.929 . S
H38 C20 0.932 . S
C39 C40 1.386 . S
C39 C41 1.397 . S
C39 H63 0.931 . S
C40 C39 1.386 . S
C40 C44 1.397 . S
C41 C39 1.397 . S
C41 C42 1.384 . S
C41 H64 0.930 . S
C42 C41 1.384 . S
C42 C43 1.377 . S
C42 C45 1.481 . S
C43 C42 1.377 . S
C43 C44 1.389 . S
C43 H65 0.929 . S
C44 C40 1.397 . S
C44 C43 1.389 . S
C44 H66 0.931 . S
C45 C42 1.481 . S
C45 C46 1.387 . S
C45 C50 1.390 . S
C46 C45 1.387 . S
C46 C47 1.401 . S
C46 H67 0.930 . S
C47 C46 1.401 . S
C47 C48 1.376 . S
C47 C56 1.511 . S
C48 C47 1.376 . S
C48 C49 1.392 . S
C48 H69 0.931 . S
C49 C48 1.392 . S
C49 C50 1.361 . S
C49 C51 1.500 . S
C50 C45 1.390 . S
C50 C49 1.361 . S
C50 H68 0.931 . S
C51 C49 1.500 . S
C51 C52 1.371 . S
C51 C53 1.365 . S
C52 C51 1.371 . S
C52 C62 1.386 . S
C52 H70 0.931 . S
C53 C51 1.365 . S
C53 C54 1.409 . S
C53 H71 0.929 . S
C54 C53 1.409 . S
C54 C55 1.380 . S
C54 H72 0.930 . S
C55 C54 1.380 . S
C55 C62 1.357 . S
C56 C47 1.511 . S
C56 C57 1.341 . S
C56 C58 1.371 . S
C57 C56 1.341 . S
C57 C61 1.394 . S
C57 H73 0.930 . S
C58 C56 1.371 . S
C58 C59 1.392 . S
C58 H74 0.931 . S
C59 C58 1.392 . S
C59 C60 1.331 . S
C59 H77 0.932 . S
C60 C59 1.331 . S
C60 C61 1.336 . S
C61 C57 1.394 . S
C61 C60 1.336 . S
C61 H76 0.929 . S
C62 C52 1.386 . S
C62 C55 1.357 . S
C62 H75 0.928 . S
H63 C39 0.931 . S
H64 C41 0.930 . S
H65 C43 0.929 . S
H66 C44 0.931 . S
H67 C46 0.930 . S
H68 C50 0.931 . S
H69 C48 0.931 . S
H70 C52 0.931 . S
H71 C53 0.929 . S
H72 C54 0.930 . S
H73 C57 0.930 . S
H74 C58 0.931 . S
H75 C62 0.928 . S
H76 C61 0.929 . S
H77 C59 0.932 . S
C78 C79 1.386 . S
C78 C80 1.397 . S
C78 H102 0.931 . S
C79 C78 1.386 . S
C79 C83 1.397 . S
C80 C78 1.397 . S
C80 C81 1.384 . S
C80 H103 0.930 . S
C81 C80 1.384 . S
C81 C82 1.377 . S
C81 C84 1.481 . S
C82 C81 1.377 . S
C82 C83 1.389 . S
C82 H104 0.929 . S
C83 C79 1.397 . S
C83 C82 1.389 . S
C83 H105 0.931 . S
C84 C81 1.481 . S
C84 C85 1.387 . S
C84 C89 1.390 . S
C85 C84 1.387 . S
C85 C86 1.401 . S
C85 H106 0.930 . S
C86 C85 1.401 . S
C86 C87 1.376 . S
C86 C95 1.511 . S
C87 C86 1.376 . S
C87 C88 1.392 . S
C87 H108 0.931 . S
C88 C87 1.392 . S
C88 C89 1.361 . S
C88 C90 1.500 . S
C89 C84 1.390 . S
C89 C88 1.361 . S
C89 H107 0.931 . S
C90 C88 1.500 . S
C90 C91 1.371 . S
C90 C92 1.365 . S
C91 C90 1.371 . S
C91 C101 1.386 . S
C91 H109 0.931 . S
C92 C90 1.365 . S
C92 C93 1.409 . S
C92 H110 0.929 . S
C93 C92 1.409 . S
C93 C94 1.380 . S
C93 H111 0.930 . S
C94 C93 1.380 . S
C94 C101 1.357 . S
C95 C86 1.511 . S
C95 C96 1.341 . S
C95 C97 1.371 . S
C96 C95 1.341 . S
C96 C100 1.394 . S
C96 H112 0.930 . S
C97 C95 1.371 . S
C97 C98 1.392 . S
C97 H113 0.931 . S
C98 C97 1.392 . S
C98 C99 1.331 . S
C98 H116 0.932 . S
C99 C98 1.331 . S
C99 C100 1.336 . S
C100 C96 1.394 . S
C100 C99 1.336 . S
C100 H115 0.929 . S
C101 C91 1.386 . S
C101 C94 1.357 . S
C101 H114 0.928 . S
H102 C78 0.931 . S
H103 C80 0.930 . S
H104 C82 0.929 . S
H105 C83 0.931 . S
H106 C85 0.930 . S
H107 C89 0.931 . S
H108 C87 0.931 . S
H109 C91 0.931 . S
H110 C92 0.929 . S
H111 C93 0.930 . S
H112 C96 0.930 . S
H113 C97 0.931 . S
H114 C101 0.928 . S
H115 C100 0.929 . S
H116 C98 0.932 . S
C117 C118 1.386 . S
C117 C119 1.397 . S
C117 H141 0.931 . S
C118 C117 1.386 . S
C118 C122 1.397 . S
C119 C117 1.397 . S
C119 C120 1.384 . S
C119 H142 0.930 . S
C120 C119 1.384 . S
C120 C121 1.377 . S
C120 C123 1.481 . S
C121 C120 1.377 . S
C121 C122 1.389 . S
C121 H143 0.929 . S
C122 C118 1.397 . S
C122 C121 1.389 . S
C122 H144 0.931 . S
C123 C120 1.481 . S
C123 C124 1.387 . S
C123 C128 1.390 . S
C124 C123 1.387 . S
C124 C125 1.401 . S
C124 H145 0.930 . S
C125 C124 1.401 . S
C125 C126 1.376 . S
C125 C134 1.511 . S
C126 C125 1.376 . S
C126 C127 1.392 . S
C126 H147 0.931 . S
C127 C126 1.392 . S
C127 C128 1.361 . S
C127 C129 1.500 . S
C128 C123 1.390 . S
C128 C127 1.361 . S
C128 H146 0.931 . S
C129 C127 1.500 . S
C129 C130 1.371 . S
C129 C131 1.365 . S
C130 C129 1.371 . S
C130 C140 1.386 . S
C130 H148 0.931 . S
C131 C129 1.365 . S
C131 C132 1.409 . S
C131 H149 0.929 . S
C132 C131 1.409 . S
C132 C133 1.380 . S
C132 H150 0.930 . S
C133 C132 1.380 . S
C133 C140 1.357 . S
C134 C125 1.511 . S
C134 C135 1.341 . S
C134 C136 1.371 . S
C135 C134 1.341 . S
C135 C139 1.394 . S
C135 H151 0.930 . S
C136 C134 1.371 . S
C136 C137 1.392 . S
C136 H152 0.931 . S
C137 C136 1.392 . S
C137 C138 1.331 . S
C137 H155 0.932 . S
C138 C137 1.331 . S
C138 C139 1.336 . S
C139 C135 1.394 . S
C139 C138 1.336 . S
C139 H154 0.929 . S
C140 C130 1.386 . S
C140 C133 1.357 . S
C140 H153 0.928 . S
H141 C117 0.931 . S
H142 C119 0.930 . S
H143 C121 0.929 . S
H144 C122 0.931 . S
H145 C124 0.930 . S
H146 C128 0.931 . S
H147 C126 0.931 . S
H148 C130 0.931 . S
H149 C131 0.929 . S
H150 C132 0.930 . S
H151 C135 0.930 . S
H152 C136 0.931 . S
H153 C140 0.928 . S
H154 C139 0.929 . S
H155 C137 0.932 . S
C156 C157 1.386 . S
C156 C158 1.397 . S
C156 H180 0.931 . S
C157 C156 1.386 . S
C157 C161 1.397 . S
C158 C156 1.397 . S
C158 C159 1.384 . S
C158 H181 0.930 . S
C159 C158 1.384 . S
C159 C160 1.377 . S
C159 C162 1.481 . S
C160 C159 1.377 . S
C160 C161 1.389 . S
C160 H182 0.929 . S
C161 C157 1.397 . S
C161 C160 1.389 . S
C161 H183 0.931 . S
C162 C159 1.481 . S
C162 C163 1.387 . S
C162 C167 1.390 . S
C163 C162 1.387 . S
C163 C164 1.401 . S
C163 H184 0.930 . S
C164 C163 1.401 . S
C164 C165 1.376 . S
C164 C173 1.511 . S
C165 C164 1.376 . S
C165 C166 1.392 . S
C165 H186 0.931 . S
C166 C165 1.392 . S
C166 C167 1.361 . S
C166 C168 1.500 . S
C167 C162 1.390 . S
C167 C166 1.361 . S
C167 H185 0.931 . S
C168 C166 1.500 . S
C168 C169 1.371 . S
C168 C170 1.365 . S
C169 C168 1.371 . S
C169 C179 1.386 . S
C169 H187 0.931 . S
C170 C168 1.365 . S
C170 C171 1.409 . S
C170 H188 0.929 . S
C171 C170 1.409 . S
C171 C172 1.380 . S
C171 H189 0.930 . S
C172 C171 1.380 . S
C172 C179 1.357 . S
C173 C164 1.511 . S
C173 C174 1.341 . S
C173 C175 1.371 . S
C174 C173 1.341 . S
C174 C178 1.394 . S
C174 H190 0.930 . S
C175 C173 1.371 . S
C175 C176 1.392 . S
C175 H191 0.931 . S
C176 C175 1.392 . S
C176 C177 1.331 . S
C176 H194 0.932 . S
C177 C176 1.331 . S
C177 C178 1.336 . S
C178 C174 1.394 . S
C178 C177 1.336 . S
C178 H193 0.929 . S
C179 C169 1.386 . S
C179 C172 1.357 . S
C179 H192 0.928 . S
H180 C156 0.931 . S
H181 C158 0.930 . S
H182 C160 0.929 . S
H183 C161 0.931 . S
H184 C163 0.930 . S
H185 C167 0.931 . S
H186 C165 0.931 . S
H187 C169 0.931 . S
H188 C170 0.929 . S
H189 C171 0.930 . S
H190 C174 0.930 . S
H191 C175 0.931 . S
H192 C179 0.928 . S
H193 C178 0.929 . S
H194 C176 0.932 . S
C195 C196 1.386 . S
C195 C197 1.397 . S
C195 H219 0.931 . S
C196 C195 1.386 . S
C196 C200 1.397 . S
C197 C195 1.397 . S
C197 C198 1.384 . S
C197 H220 0.930 . S
C198 C197 1.384 . S
C198 C199 1.377 . S
C198 C201 1.481 . S
C199 C198 1.377 . S
C199 C200 1.389 . S
C199 H221 0.929 . S
C200 C196 1.397 . S
C200 C199 1.389 . S
C200 H222 0.931 . S
C201 C198 1.481 . S
C201 C202 1.387 . S
C201 C206 1.390 . S
C202 C201 1.387 . S
C202 C203 1.401 . S
C202 H223 0.930 . S
C203 C202 1.401 . S
C203 C204 1.376 . S
C203 C212 1.511 . S
C204 C203 1.376 . S
C204 C205 1.392 . S
C204 H225 0.931 . S
C205 C204 1.392 . S
C205 C206 1.361 . S
C205 C207 1.500 . S
C206 C201 1.390 . S
C206 C205 1.361 . S
C206 H224 0.931 . S
C207 C205 1.500 . S
C207 C208 1.371 . S
C207 C209 1.365 . S
C208 C207 1.371 . S
C208 C218 1.386 . S
C208 H226 0.931 . S
C209 C207 1.365 . S
C209 C210 1.409 . S
C209 H227 0.929 . S
C210 C209 1.409 . S
C210 C211 1.380 . S
C210 H228 0.930 . S
C211 C210 1.380 . S
C211 C218 1.357 . S
C212 C203 1.511 . S
C212 C213 1.341 . S
C212 C214 1.371 . S
C213 C212 1.341 . S
C213 C217 1.394 . S
C213 H229 0.930 . S
C214 C212 1.371 . S
C214 C215 1.392 . S
C214 H230 0.931 . S
C215 C214 1.392 . S
C215 C216 1.331 . S
C215 H233 0.932 . S
C216 C215 1.331 . S
C216 C217 1.336 . S
C217 C213 1.394 . S
C217 C216 1.336 . S
C217 H232 0.929 . S
C218 C208 1.386 . S
C218 C211 1.357 . S
C218 H231 0.928 . S
H219 C195 0.931 . S
H220 C197 0.930 . S
H221 C199 0.929 . S
H222 C200 0.931 . S
H223 C202 0.930 . S
H224 C206 0.931 . S
H225 C204 0.931 . S
H226 C208 0.931 . S
H227 C209 0.929 . S
H228 C210 0.930 . S
H229 C213 0.930 . S
H230 C214 0.931 . S
H231 C218 0.928 . S
H232 C217 0.929 . S
H233 C215 0.932 . S
C234 C235 1.386 . S
C234 C236 1.397 . S
C234 H258 0.931 . S
C235 C234 1.386 . S
C235 C239 1.397 . S
C236 C234 1.397 . S
C236 C237 1.384 . S
C236 H259 0.930 . S
C237 C236 1.384 . S
C237 C238 1.377 . S
C237 C240 1.481 . S
C238 C237 1.377 . S
C238 C239 1.389 . S
C238 H260 0.929 . S
C239 C235 1.397 . S
C239 C238 1.389 . S
C239 H261 0.931 . S
C240 C237 1.481 . S
C240 C241 1.387 . S
C240 C245 1.390 . S
C241 C240 1.387 . S
C241 C242 1.401 . S
C241 H262 0.930 . S
C242 C241 1.401 . S
C242 C243 1.376 . S
C242 C251 1.511 . S
C243 C242 1.376 . S
C243 C244 1.392 . S
C243 H264 0.931 . S
C244 C243 1.392 . S
C244 C245 1.361 . S
C244 C246 1.500 . S
C245 C240 1.390 . S
C245 C244 1.361 . S
C245 H263 0.931 . S
C246 C244 1.500 . S
C246 C247 1.371 . S
C246 C248 1.365 . S
C247 C246 1.371 . S
C247 C257 1.386 . S
C247 H265 0.931 . S
C248 C246 1.365 . S
C248 C249 1.409 . S
C248 H266 0.929 . S
C249 C248 1.409 . S
C249 C250 1.380 . S
C249 H267 0.930 . S
C250 C249 1.380 . S
C250 C257 1.357 . S
C251 C242 1.511 . S
C251 C252 1.341 . S
C251 C253 1.371 . S
C252 C251 1.341 . S
C252 C256 1.394 . S
C252 H268 0.930 . S
C253 C251 1.371 . S
C253 C254 1.392 . S
C253 H269 0.931 . S
C254 C253 1.392 . S
C254 C255 1.331 . S
C254 H272 0.932 . S
C255 C254 1.331 . S
C255 C256 1.336 . S
C256 C252 1.394 . S
C256 C255 1.336 . S
C256 H271 0.929 . S
C257 C247 1.386 . S
C257 C250 1.357 . S
C257 H270 0.928 . S
H258 C234 0.931 . S
H259 C236 0.930 . S
H260 C238 0.929 . S
H261 C239 0.931 . S
H262 C241 0.930 . S
H263 C245 0.931 . S
H264 C243 0.931 . S
H265 C247 0.931 . S
H266 C248 0.929 . S
H267 C249 0.930 . S
H268 C252 0.930 . S
H269 C253 0.931 . S
H270 C257 0.928 . S
H271 C256 0.929 . S
H272 C254 0.932 . S
C273 C274 1.386 . S
C273 C275 1.397 . S
C273 H297 0.931 . S
C274 C273 1.386 . S
C274 C278 1.397 . S
C275 C273 1.397 . S
C275 C276 1.384 . S
C275 H298 0.930 . S
C276 C275 1.384 . S
C276 C277 1.377 . S
C276 C279 1.481 . S
C277 C276 1.377 . S
C277 C278 1.389 . S
C277 H299 0.929 . S
C278 C274 1.397 . S
C278 C277 1.389 . S
C278 H300 0.931 . S
C279 C276 1.481 . S
C279 C280 1.387 . S
C279 C284 1.390 . S
C280 C279 1.387 . S
C280 C281 1.401 . S
C280 H301 0.930 . S
C281 C280 1.401 . S
C281 C282 1.376 . S
C281 C290 1.511 . S
C282 C281 1.376 . S
C282 C283 1.392 . S
C282 H303 0.931 . S
C283 C282 1.392 . S
C283 C284 1.361 . S
C283 C285 1.500 . S
C284 C279 1.390 . S
C284 C283 1.361 . S
C284 H302 0.931 . S
C285 C283 1.500 . S
C285 C286 1.371 . S
C285 C287 1.365 . S
C286 C285 1.371 . S
C286 C296 1.386 . S
C286 H304 0.931 . S
C287 C285 1.365 . S
C287 C288 1.409 . S
C287 H305 0.929 . S
C288 C287 1.409 . S
C288 C289 1.380 . S
C288 H306 0.930 . S
C289 C288 1.380 . S
C289 C296 1.357 . S
C290 C281 1.511 . S
C290 C291 1.341 . S
C290 C292 1.371 . S
C291 C290 1.341 . S
C291 C295 1.394 . S
C291 H307 0.930 . S
C292 C290 1.371 . S
C292 C293 1.392 . S
C292 H308 0.931 . S
C293 C292 1.392 . S
C293 C294 1.331 . S
C293 H311 0.932 . S
C294 C293 1.331 . S
C294 C295 1.336 . S
C295 C291 1.394 . S
C295 C294 1.336 . S
C295 H310 0.929 . S
C296 C286 1.386 . S
C296 C289 1.357 . S
C296 H309 0.928 . S
H297 C273 0.931 . S
H298 C275 0.930 . S
H299 C277 0.929 . S
H300 C278 0.931 . S
H301 C280 0.930 . S
H302 C284 0.931 . S
H303 C282 0.931 . S
H304 C286 0.931 . S
H305 C287 0.929 . S
H306 C288 0.930 . S
H307 C291 0.930 . S
H308 C292 0.931 . S
H309 C296 0.928 . S
H310 C295 0.929 . S
H311 C293 0.932 . S
Tb312 C314 2.811 1_545 S
Tb312 O332 2.488 1_545 S
Tb312 O333 2.441 1_545 S
Tb312 O334 2.657 1_655 S
Tb312 O335 2.406 . S
Tb312 O336 2.380 1_645 S
Tb312 O340 2.327 1_545 S
Tb312 O343 2.339 . S
Tb313 C323 2.809 . S
Tb313 O334 2.325 . S
Tb313 O337 2.341 1_545 S
Tb313 O338 2.484 . S
Tb313 O339 2.440 . S
Tb313 O340 2.658 1_445 S
Tb313 O341 2.409 1_545 S
Tb313 O342 2.378 1_455 S
C314 Tb312 2.811 1_565 S
C314 C315 1.514 . S
C314 O332 1.248 . S
C314 O333 1.266 . S
C315 C314 1.514 . S
C315 C316 1.359 . S
C315 C320 1.348 . S
C316 C315 1.359 . S
C316 C317 1.380 . S
C316 H344 0.929 . S
C317 C316 1.380 . S
C317 C318 1.347 . S
C317 H345 0.931 . S
C318 C317 1.347 . S
C318 C319 1.369 . S
C319 C318 1.369 . S
C319 C320 1.408 . S
C319 H346 0.930 . S
C320 C315 1.348 . S
C320 C319 1.408 . S
C320 H347 0.930 . S
C321 O334 1.281 . S
C321 O335 1.254 1_455 S
C322 O336 1.236 . S
C322 O337 1.266 . S
C323 Tb313 2.809 . S
C323 C324 1.514 . S
C323 O338 1.248 . S
C323 O339 1.266 . S
C324 C323 1.514 . S
C324 C325 1.359 . S
C324 C329 1.348 . S
C325 C324 1.359 . S
C325 C326 1.380 . S
C325 H348 0.929 . S
C326 C325 1.380 . S
C326 C327 1.347 . S
C326 H349 0.931 . S
C327 C326 1.347 . S
C327 C328 1.369 . S
C328 C327 1.369 . S
C328 C329 1.408 . S
C328 H350 0.930 . S
C329 C324 1.348 . S
C329 C328 1.408 . S
C329 H351 0.930 . S
C330 O340 1.281 . S
C330 O341 1.254 1_655 S
C331 O342 1.236 . S
C331 O343 1.266 . S
O332 Tb312 2.488 1_565 S
O332 C314 1.248 . S
O333 Tb312 2.441 1_565 S
O333 C314 1.266 . S
O334 Tb312 2.657 1_455 S
O334 Tb313 2.325 . S
O334 C321 1.281 . S
O335 Tb312 2.406 . S
O335 C321 1.254 1_655 S
O336 Tb312 2.380 1_465 S
O336 C322 1.236 . S
O337 Tb313 2.341 1_565 S
O337 C322 1.266 . S
O338 Tb313 2.484 . S
O338 C323 1.248 . S
O339 Tb313 2.440 . S
O339 C323 1.266 . S
O340 Tb312 2.327 1_565 S
O340 Tb313 2.658 1_665 S
O340 C330 1.281 . S
O341 Tb313 2.409 1_565 S
O341 C330 1.254 1_455 S
O342 Tb313 2.378 1_655 S
O342 C331 1.236 . S
O343 Tb312 2.339 . S
O343 C331 1.266 . S
H344 C316 0.929 . S
H345 C317 0.931 . S
H346 C319 0.930 . S
H347 C320 0.930 . S
H348 C325 0.929 . S
H349 C326 0.931 . S
H350 C328 0.930 . S
H351 C329 0.930 . S
Tb352 C354 2.809 . S
Tb352 O372 2.484 . S
Tb352 O373 2.440 . S
Tb352 O374 2.658 1_545 S
Tb352 O375 2.409 1_545 S
Tb352 O376 2.378 . S
Tb352 O380 2.325 1_554 S
Tb352 O383 2.341 1_544 S
Tb353 C363 2.809 . S
Tb353 O374 2.325 1_556 S
Tb353 O377 2.341 1_566 S
Tb353 O378 2.484 . S
Tb353 O379 2.440 . S
Tb353 O380 2.658 1_565 S
Tb353 O381 2.409 1_565 S
Tb353 O382 2.378 . S
C354 Tb352 2.809 . S
C354 C355 1.514 . S
C354 O372 1.248 . S
C354 O373 1.266 . S
C355 C354 1.514 . S
C355 C356 1.359 . S
C355 C360 1.348 . S
C356 C355 1.359 . S
C356 C357 1.380 . S
C356 H384 0.929 . S
C357 C356 1.380 . S
C357 C358 1.347 . S
C357 H385 0.931 . S
C358 C357 1.347 . S
C358 C359 1.369 . S
C359 C358 1.369 . S
C359 C360 1.408 . S
C359 H386 0.930 . S
C360 C355 1.348 . S
C360 C359 1.408 . S
C360 H387 0.930 . S
C361 O374 1.281 . S
C361 O375 1.254 . S
C362 O376 1.236 . S
C362 O377 1.266 . S
C363 Tb353 2.809 . S
C363 C364 1.514 . S
C363 O378 1.248 . S
C363 O379 1.266 . S
C364 C363 1.514 . S
C364 C365 1.359 . S
C364 C369 1.348 . S
C365 C364 1.359 . S
C365 C366 1.380 . S
C365 H388 0.929 . S
C366 C365 1.380 . S
C366 C367 1.347 . S
C366 H389 0.931 . S
C367 C366 1.347 . S
C367 C368 1.369 . S
C368 C367 1.369 . S
C368 C369 1.408 . S
C368 H390 0.930 . S
C369 C364 1.348 . S
C369 C368 1.408 . S
C369 H391 0.930 . S
C370 O380 1.281 . S
C370 O381 1.254 . S
C371 O382 1.236 . S
C371 O383 1.266 . S
O372 Tb352 2.484 . S
O372 C354 1.248 . S
O373 Tb352 2.440 . S
O373 C354 1.266 . S
O374 Tb352 2.658 1_565 S
O374 Tb353 2.325 1_554 S
O374 C361 1.281 . S
O375 Tb352 2.409 1_565 S
O375 C361 1.254 . S
O376 Tb352 2.378 . S
O376 C362 1.236 . S
O377 Tb353 2.341 1_544 S
O377 C362 1.266 . S
O378 Tb353 2.484 . S
O378 C363 1.248 . S
O379 Tb353 2.440 . S
O379 C363 1.266 . S
O380 Tb352 2.325 1_556 S
O380 Tb353 2.658 1_545 S
O380 C370 1.281 . S
O381 Tb353 2.409 1_545 S
O381 C370 1.254 . S
O382 Tb353 2.378 . S
O382 C371 1.236 . S
O383 Tb352 2.341 1_566 S
O383 C371 1.266 . S
H384 C356 0.929 . S
H385 C357 0.931 . S
H386 C359 0.930 . S
H387 C360 0.930 . S
H388 C365 0.929 . S
H389 C366 0.931 . S
H390 C368 0.930 . S
H391 C369 0.930 . S
Tb392 C394 2.809 . S
Tb392 O412 2.484 . S
Tb392 O413 2.440 . S
Tb392 O414 2.658 . S
Tb392 O415 2.409 . S
Tb392 O416 2.378 . S
Tb392 O420 2.325 . S
Tb392 O423 2.341 . S
Tb393 C403 2.809 . S
Tb393 O414 2.325 . S
Tb393 O417 2.341 . S
Tb393 O418 2.484 . S
Tb393 O419 2.440 . S
Tb393 O420 2.658 . S
Tb393 O421 2.409 . S
Tb393 O422 2.378 . S
C394 Tb392 2.809 . S
C394 C395 1.514 . S
C394 O412 1.248 . S
C394 O413 1.266 . S
C395 C394 1.514 . S
C395 C396 1.359 . S
C395 C400 1.348 . S
C396 C395 1.359 . S
C396 C397 1.380 . S
C396 H424 0.929 . S
C397 C396 1.380 . S
C397 C398 1.347 . S
C397 H425 0.931 . S
C398 C397 1.347 . S
C398 C399 1.369 . S
C399 C398 1.369 . S
C399 C400 1.408 . S
C399 H426 0.930 . S
C400 C395 1.348 . S
C400 C399 1.408 . S
C400 H427 0.930 . S
C401 O414 1.281 . S
C401 O415 1.254 . S
C402 O416 1.236 . S
C402 O417 1.266 . S
C403 Tb393 2.809 . S
C403 C404 1.514 . S
C403 O418 1.248 . S
C403 O419 1.266 . S
C404 C403 1.514 . S
C404 C405 1.359 . S
C404 C409 1.348 . S
C405 C404 1.359 . S
C405 C406 1.380 . S
C405 H428 0.929 . S
C406 C405 1.380 . S
C406 C407 1.347 . S
C406 H429 0.931 . S
C407 C406 1.347 . S
C407 C408 1.369 . S
C408 C407 1.369 . S
C408 C409 1.408 . S
C408 H430 0.930 . S
C409 C404 1.348 . S
C409 C408 1.408 . S
C409 H431 0.930 . S
C410 O420 1.281 . S
C410 O421 1.254 . S
C411 O422 1.236 . S
C411 O423 1.266 . S
O412 Tb392 2.484 . S
O412 C394 1.248 . S
O413 Tb392 2.440 . S
O413 C394 1.266 . S
O414 Tb392 2.658 . S
O414 Tb393 2.325 . S
O414 C401 1.281 . S
O415 Tb392 2.409 . S
O415 C401 1.254 . S
O416 Tb392 2.378 . S
O416 C402 1.236 . S
O417 Tb393 2.341 . S
O417 C402 1.266 . S
O418 Tb393 2.484 . S
O418 C403 1.248 . S
O419 Tb393 2.440 . S
O419 C403 1.266 . S
O420 Tb392 2.325 . S
O420 Tb393 2.658 . S
O420 C410 1.281 . S
O421 Tb393 2.409 . S
O421 C410 1.254 . S
O422 Tb393 2.378 . S
O422 C411 1.236 . S
O423 Tb392 2.341 . S
O423 C411 1.266 . S
H424 C396 0.929 . S
H425 C397 0.931 . S
H426 C399 0.930 . S
H427 C400 0.930 . S
H428 C405 0.929 . S
H429 C406 0.931 . S
H430 C408 0.930 . S
H431 C409 0.930 . S
Tb432 C434 2.832 . S
Tb432 O452 2.515 . S
Tb432 O453 2.452 . S
Tb432 O454 2.640 1_656 S
Tb432 O455 2.364 1_656 S
Tb432 O456 2.392 1_556 S
Tb432 O460 2.338 . S
Tb432 O463 2.320 1_655 S
Tb433 C443 2.809 . S
Tb433 O454 2.325 . S
Tb433 O457 2.341 1_455 S
Tb433 O458 2.484 . S
Tb433 O459 2.440 . S
Tb433 O460 2.658 1_454 S
Tb433 O461 2.432 1_455 S
Tb433 O462 2.378 1_554 S
C434 Tb432 2.832 . S
C434 C435 1.514 . S
C434 O452 1.248 . S
C434 O453 1.266 . S
C435 C434 1.514 . S
C435 C436 1.359 . S
C435 C440 1.348 . S
C436 C435 1.359 . S
C436 C437 1.380 . S
C436 H464 0.929 . S
C437 C436 1.380 . S
C437 C438 1.347 . S
C437 H465 0.931 . S
C438 C437 1.347 . S
C438 C439 1.369 . S
C439 C438 1.369 . S
C439 C440 1.408 . S
C439 H466 0.930 . S
C440 C435 1.348 . S
C440 C439 1.408 . S
C440 H467 0.930 . S
C441 O454 1.281 . S
C441 O455 1.280 . S
C442 O456 1.236 . S
C442 O457 1.266 . S
C443 Tb433 2.809 . S
C443 C444 1.514 . S
C443 O458 1.248 . S
C443 O459 1.266 . S
C444 C443 1.514 . S
C444 C445 1.359 . S
C444 C449 1.348 . S
C445 C444 1.359 . S
C445 C446 1.380 . S
C445 H468 0.929 . S
C446 C445 1.380 . S
C446 C447 1.347 . S
C446 H469 0.931 . S
C447 C446 1.347 . S
C447 C448 1.369 . S
C448 C447 1.369 . S
C448 C449 1.408 . S
C448 H470 0.930 . S
C449 C444 1.348 . S
C449 C448 1.408 . S
C449 H471 0.930 . S
C450 O460 1.281 . S
C450 O461 1.228 1_556 S
C451 O462 1.236 . S
C451 O463 1.266 . S
O452 Tb432 2.515 . S
O452 C434 1.248 . S
O453 Tb432 2.452 . S
O453 C434 1.266 . S
O454 Tb432 2.640 1_454 S
O454 Tb433 2.325 . S
O454 C441 1.281 . S
O455 Tb432 2.364 1_454 S
O455 C441 1.280 . S
O456 Tb432 2.392 1_554 S
O456 C442 1.236 . S
O457 Tb433 2.341 1_655 S
O457 C442 1.266 . S
O458 Tb433 2.484 . S
O458 C443 1.248 . S
O459 Tb433 2.440 . S
O459 C443 1.266 . S
O460 Tb432 2.338 . S
O460 Tb433 2.658 1_656 S
O460 C450 1.281 . S
O461 Tb433 2.432 1_655 S
O461 C450 1.228 1_554 S
O462 Tb433 2.378 1_556 S
O462 C451 1.236 . S
O463 Tb432 2.320 1_455 S
O463 C451 1.266 . S
H464 C436 0.929 . S
H465 C437 0.931 . S
H466 C439 0.930 . S
H467 C440 0.930 . S
H468 C445 0.929 . S
H469 C446 0.931 . S
H470 C448 0.930 . S
H471 C449 0.930 . S
H472 C480 0.929 . S
H473 C482 0.930 . S
H474 C484 0.930 . S
H475 C487 0.929 . S
H476 C490 0.930 . S
H477 C492 0.960 . S
H478 C492 0.960 . S
H479 C492 0.960 . S
C480 H472 0.929 . S
C480 C481 1.377 . S
C480 C482 1.384 . S
C481 C480 1.377 . S
C481 C487 1.390 . S
C482 H473 0.930 . S
C482 C480 1.384 . S
C482 C483 1.372 . S
C483 C482 1.372 . S
C483 C484 1.400 . S
C483 C488 1.490 . S
C484 H474 0.930 . S
C484 C483 1.400 . S
C484 C487 1.386 . S
H485 C501 0.930 . S
H486 C502 0.931 . S
C487 H475 0.929 . S
C487 C481 1.390 . S
C487 C484 1.386 . S
C488 C483 1.490 . S
C488 C490 1.395 . S
C488 C491 1.403 . S
H489 C495 0.930 . S
C490 H476 0.930 . S
C490 C488 1.395 . S
C490 C493 1.403 . S
C491 C488 1.403 . S
C491 C492 1.524 . S
C491 C495 1.400 . S
C492 H477 0.960 . S
C492 H478 0.960 . S
C492 H479 0.960 . S
C492 C491 1.524 . S
C493 C490 1.403 . S
C493 C494 1.392 . S
C493 C497 1.495 . S
C494 C493 1.392 . S
C494 C495 1.385 . S
C494 C496 1.478 . S
C495 H489 0.930 . S
C495 C491 1.400 . S
C495 C494 1.385 . S
C496 C494 1.478 . S
C496 C498 1.381 . S
C496 C502 1.383 . S
C497 C493 1.495 . S
C497 H503 0.959 . S
C497 H504 0.961 . S
C497 H505 0.960 . S
C498 C496 1.381 . S
C498 C499 1.394 . S
C498 H506 0.930 . S
C499 C498 1.394 . S
C499 C500 1.383 . S
C499 H507 0.929 . S
C500 C499 1.383 . S
C500 C501 1.377 . S
C501 H485 0.930 . S
C501 C500 1.377 . S
C501 C502 1.379 . S
C502 H486 0.931 . S
C502 C496 1.383 . S
C502 C501 1.379 . S
H503 C497 0.959 . S
H504 C497 0.961 . S
H505 C497 0.960 . S
H506 C498 0.930 . S
H507 C499 0.929 . S
H508 C516 0.929 . S
H509 C518 0.930 . S
H510 C520 0.930 . S
H511 C523 0.929 . S
H512 C526 0.930 . S
H513 C528 0.960 . S
H514 C528 0.960 . S
H515 C528 0.960 . S
C516 H508 0.929 . S
C516 C517 1.377 . S
C516 C518 1.384 . S
C517 C516 1.377 . S
C517 C523 1.390 . S
C518 H509 0.930 . S
C518 C516 1.384 . S
C518 C519 1.372 . S
C519 C518 1.372 . S
C519 C520 1.400 . S
C519 C524 1.490 . S
C520 H510 0.930 . S
C520 C519 1.400 . S
C520 C523 1.386 . S
H521 C537 0.930 . S
H522 C538 0.931 . S
C523 H511 0.929 . S
C523 C517 1.390 . S
C523 C520 1.386 . S
C524 C519 1.490 . S
C524 C526 1.395 . S
C524 C527 1.403 . S
H525 C531 0.930 . S
C526 H512 0.930 . S
C526 C524 1.395 . S
C526 C529 1.403 . S
C527 C524 1.403 . S
C527 C528 1.524 . S
C527 C531 1.400 . S
C528 H513 0.960 . S
C528 H514 0.960 . S
C528 H515 0.960 . S
C528 C527 1.524 . S
C529 C526 1.403 . S
C529 C530 1.392 . S
C529 C533 1.495 . S
C530 C529 1.392 . S
C530 C531 1.385 . S
C530 C532 1.478 . S
C531 H525 0.930 . S
C531 C527 1.400 . S
C531 C530 1.385 . S
C532 C530 1.478 . S
C532 C534 1.381 . S
C532 C538 1.383 . S
C533 C529 1.495 . S
C533 H539 0.959 . S
C533 H540 0.961 . S
C533 H541 0.960 . S
C534 C532 1.381 . S
C534 C535 1.394 . S
C534 H542 0.930 . S
C535 C534 1.394 . S
C535 C536 1.383 . S
C535 H543 0.929 . S
C536 C535 1.383 . S
C536 C537 1.377 . S
C537 H521 0.930 . S
C537 C536 1.377 . S
C537 C538 1.379 . S
C538 H522 0.931 . S
C538 C532 1.383 . S
C538 C537 1.379 . S
H539 C533 0.959 . S
H540 C533 0.961 . S
H541 C533 0.960 . S
H542 C534 0.930 . S
H543 C535 0.929 . S
H544 C552 0.929 . S
H545 C554 0.930 . S
H546 C556 0.930 . S
H547 C559 0.929 . S
H548 C562 0.930 . S
H549 C564 0.960 . S
H550 C564 0.960 . S
H551 C564 0.960 . S
C552 H544 0.929 . S
C552 C553 1.377 . S
C552 C554 1.384 . S
C553 C552 1.377 . S
C553 C559 1.390 . S
C554 H545 0.930 . S
C554 C552 1.384 . S
C554 C555 1.372 . S
C555 C554 1.372 . S
C555 C556 1.400 . S
C555 C560 1.490 . S
C556 H546 0.930 . S
C556 C555 1.400 . S
C556 C559 1.386 . S
H557 C573 0.930 . S
H558 C574 0.931 . S
C559 H547 0.929 . S
C559 C553 1.390 . S
C559 C556 1.386 . S
C560 C555 1.490 . S
C560 C562 1.395 . S
C560 C563 1.403 . S
H561 C567 0.930 . S
C562 H548 0.930 . S
C562 C560 1.395 . S
C562 C565 1.403 . S
C563 C560 1.403 . S
C563 C564 1.524 . S
C563 C567 1.400 . S
C564 H549 0.960 . S
C564 H550 0.960 . S
C564 H551 0.960 . S
C564 C563 1.524 . S
C565 C562 1.403 . S
C565 C566 1.392 . S
C565 C569 1.495 . S
C566 C565 1.392 . S
C566 C567 1.385 . S
C566 C568 1.478 . S
C567 H561 0.930 . S
C567 C563 1.400 . S
C567 C566 1.385 . S
C568 C566 1.478 . S
C568 C570 1.381 . S
C568 C574 1.383 . S
C569 C565 1.495 . S
C569 H575 0.959 . S
C569 H576 0.961 . S
C569 H577 0.960 . S
C570 C568 1.381 . S
C570 C571 1.394 . S
C570 H578 0.930 . S
C571 C570 1.394 . S
C571 C572 1.383 . S
C571 H579 0.929 . S
C572 C571 1.383 . S
C572 C573 1.377 . S
C573 H557 0.930 . S
C573 C572 1.377 . S
C573 C574 1.379 . S
C574 H558 0.931 . S
C574 C568 1.383 . S
C574 C573 1.379 . S
H575 C569 0.959 . S
H576 C569 0.961 . S
H577 C569 0.960 . S
H578 C570 0.930 . S
H579 C571 0.929 . S
H580 C588 0.929 . S
H581 C590 0.930 . S
H582 C592 0.930 . S
H583 C595 0.929 . S
H584 C598 0.930 . S
H585 C600 0.960 . S
H586 C600 0.960 . S
H587 C600 0.960 . S
C588 H580 0.929 . S
C588 C589 1.377 . S
C588 C590 1.384 . S
C589 C588 1.377 . S
C589 C595 1.390 . S
C590 H581 0.930 . S
C590 C588 1.384 . S
C590 C591 1.372 . S
C591 C590 1.372 . S
C591 C592 1.400 . S
C591 C596 1.490 . S
C592 H582 0.930 . S
C592 C591 1.400 . S
C592 C595 1.386 . S
H593 C609 0.930 . S
H594 C610 0.931 . S
C595 H583 0.929 . S
C595 C589 1.390 . S
C595 C592 1.386 . S
C596 C591 1.490 . S
C596 C598 1.395 . S
C596 C599 1.403 . S
H597 C603 0.930 . S
C598 H584 0.930 . S
C598 C596 1.395 . S
C598 C601 1.403 . S
C599 C596 1.403 . S
C599 C600 1.524 . S
C599 C603 1.400 . S
C600 H585 0.960 . S
C600 H586 0.960 . S
C600 H587 0.960 . S
C600 C599 1.524 . S
C601 C598 1.403 . S
C601 C602 1.392 . S
C601 C605 1.495 . S
C602 C601 1.392 . S
C602 C603 1.385 . S
C602 C604 1.478 . S
C603 H597 0.930 . S
C603 C599 1.400 . S
C603 C602 1.385 . S
C604 C602 1.478 . S
C604 C606 1.381 . S
C604 C610 1.383 . S
C605 C601 1.495 . S
C605 H611 0.959 . S
C605 H612 0.961 . S
C605 H613 0.960 . S
C606 C604 1.381 . S
C606 C607 1.394 . S
C606 H614 0.930 . S
C607 C606 1.394 . S
C607 C608 1.383 . S
C607 H615 0.929 . S
C608 C607 1.383 . S
C608 C609 1.377 . S
C609 H593 0.930 . S
C609 C608 1.377 . S
C609 C610 1.379 . S
C610 H594 0.931 . S
C610 C604 1.383 . S
C610 C609 1.379 . S
H611 C605 0.959 . S
H612 C605 0.961 . S
H613 C605 0.960 . S
H614 C606 0.930 . S
H615 C607 0.929 . S
H616 C624 0.929 . S
H617 C626 0.930 . S
H618 C628 0.930 . S
H619 C631 0.929 . S
H620 C634 0.930 . S
H621 C636 0.960 . S
H622 C636 0.960 . S
H623 C636 0.960 . S
C624 H616 0.929 . S
C624 C625 1.377 . S
C624 C626 1.384 . S
C625 C624 1.377 . S
C625 C631 1.390 . S
C626 H617 0.930 . S
C626 C624 1.384 . S
C626 C627 1.372 . S
C627 C626 1.372 . S
C627 C628 1.400 . S
C627 C632 1.490 . S
C628 H618 0.930 . S
C628 C627 1.400 . S
C628 C631 1.386 . S
H629 C645 0.930 . S
H630 C646 0.931 . S
C631 H619 0.929 . S
C631 C625 1.390 . S
C631 C628 1.386 . S
C632 C627 1.490 . S
C632 C634 1.395 . S
C632 C635 1.403 . S
H633 C639 0.930 . S
C634 H620 0.930 . S
C634 C632 1.395 . S
C634 C637 1.403 . S
C635 C632 1.403 . S
C635 C636 1.524 . S
C635 C639 1.400 . S
C636 H621 0.960 . S
C636 H622 0.960 . S
C636 H623 0.960 . S
C636 C635 1.524 . S
C637 C634 1.403 . S
C637 C638 1.392 . S
C637 C641 1.495 . S
C638 C637 1.392 . S
C638 C639 1.385 . S
C638 C640 1.478 . S
C639 H633 0.930 . S
C639 C635 1.400 . S
C639 C638 1.385 . S
C640 C638 1.478 . S
C640 C642 1.381 . S
C640 C646 1.383 . S
C641 C637 1.495 . S
C641 H647 0.959 . S
C641 H648 0.961 . S
C641 H649 0.960 . S
C642 C640 1.381 . S
C642 C643 1.394 . S
C642 H650 0.930 . S
C643 C642 1.394 . S
C643 C644 1.383 . S
C643 H651 0.929 . S
C644 C643 1.383 . S
C644 C645 1.377 . S
C645 H629 0.930 . S
C645 C644 1.377 . S
C645 C646 1.379 . S
C646 H630 0.931 . S
C646 C640 1.383 . S
C646 C645 1.379 . S
H647 C641 0.959 . S
H648 C641 0.961 . S
H649 C641 0.960 . S
H650 C642 0.930 . S
H651 C643 0.929 . S
H652 C660 0.929 . S
H653 C662 0.930 . S
H654 C664 0.930 . S
H655 C667 0.929 . S
H656 C670 0.930 . S
H657 C672 0.960 . S
H658 C672 0.960 . S
H659 C672 0.960 . S
C660 H652 0.929 . S
C660 C661 1.377 . S
C660 C662 1.384 . S
C661 C660 1.377 . S
C661 C667 1.390 . S
C662 H653 0.930 . S
C662 C660 1.384 . S
C662 C663 1.372 . S
C663 C662 1.372 . S
C663 C664 1.400 . S
C663 C668 1.490 . S
C664 H654 0.930 . S
C664 C663 1.400 . S
C664 C667 1.386 . S
H665 C681 0.930 . S
H666 C682 0.931 . S
C667 H655 0.929 . S
C667 C661 1.390 . S
C667 C664 1.386 . S
C668 C663 1.490 . S
C668 C670 1.395 . S
C668 C671 1.403 . S
H669 C675 0.930 . S
C670 H656 0.930 . S
C670 C668 1.395 . S
C670 C673 1.403 . S
C671 C668 1.403 . S
C671 C672 1.524 . S
C671 C675 1.400 . S
C672 H657 0.960 . S
C672 H658 0.960 . S
C672 H659 0.960 . S
C672 C671 1.524 . S
C673 C670 1.403 . S
C673 C674 1.392 . S
C673 C677 1.495 . S
C674 C673 1.392 . S
C674 C675 1.385 . S
C674 C676 1.478 . S
C675 H669 0.930 . S
C675 C671 1.400 . S
C675 C674 1.385 . S
C676 C674 1.478 . S
C676 C678 1.381 . S
C676 C682 1.383 . S
C677 C673 1.495 . S
C677 H683 0.973 . S
C677 H684 0.961 . S
C677 H685 0.960 1_455 S
C678 C676 1.381 . S
C678 C679 1.394 . S
C678 H686 0.930 . S
C679 C678 1.394 . S
C679 C680 1.383 . S
C679 H687 0.929 . S
C680 C679 1.383 . S
C680 C681 1.377 . S
C681 H665 0.930 . S
C681 C680 1.377 . S
C681 C682 1.379 . S
C682 H666 0.931 . S
C682 C676 1.383 . S
C682 C681 1.379 . S
H683 C677 0.973 . S
H684 C677 0.961 . S
H685 C677 0.960 1_655 S
H686 C678 0.930 . S
H687 C679 0.929 . S
H688 C696 0.929 . S
H689 C698 0.930 . S
H690 C700 0.930 . S
H691 C703 0.929 . S
H692 C706 0.930 . S
H693 C708 0.960 . S
H694 C708 0.960 . S
H695 C708 0.960 . S
C696 H688 0.929 . S
C696 C697 1.377 . S
C696 C698 1.384 . S
C697 C696 1.377 . S
C697 C703 1.390 . S
C698 H689 0.930 . S
C698 C696 1.384 . S
C698 C699 1.372 . S
C699 C698 1.372 . S
C699 C700 1.400 . S
C699 C704 1.490 . S
C700 H690 0.930 . S
C700 C699 1.400 . S
C700 C703 1.386 . S
H701 C717 0.930 . S
H702 C718 0.931 . S
C703 H691 0.929 . S
C703 C697 1.390 . S
C703 C700 1.386 . S
C704 C699 1.490 . S
C704 C706 1.395 . S
C704 C707 1.403 . S
H705 C711 0.930 . S
C706 H692 0.930 . S
C706 C704 1.395 . S
C706 C709 1.403 . S
C707 C704 1.403 . S
C707 C708 1.524 . S
C707 C711 1.400 . S
C708 H693 0.960 . S
C708 H694 0.960 . S
C708 H695 0.960 . S
C708 C707 1.524 . S
C709 C706 1.403 . S
C709 C710 1.392 . S
C709 C713 1.495 . S
C710 C709 1.392 . S
C710 C711 1.385 . S
C710 C712 1.478 . S
C711 H705 0.930 . S
C711 C707 1.400 . S
C711 C710 1.385 . S
C712 C710 1.478 . S
C712 C714 1.381 . S
C712 C718 1.383 . S
C713 C709 1.495 . S
C713 H719 0.959 . S
C713 H720 0.961 . S
C713 H721 0.960 . S
C714 C712 1.381 . S
C714 C715 1.394 . S
C714 H722 0.930 . S
C715 C714 1.394 . S
C715 C716 1.383 . S
C715 H723 0.929 . S
C716 C715 1.383 . S
C716 C717 1.377 . S
C717 H701 0.930 . S
C717 C716 1.377 . S
C717 C718 1.379 . S
C718 H702 0.931 . S
C718 C712 1.383 . S
C718 C717 1.379 . S
H719 C713 0.959 . S
H720 C713 0.961 . S
H721 C713 0.960 . S
H722 C714 0.930 . S
H723 C715 0.929 . S
H724 C732 0.929 . S
H725 C734 0.930 . S
H726 C736 0.930 . S
H727 C739 0.929 . S
H728 C742 0.930 . S
H729 C744 0.960 . S
H730 C744 0.960 . S
H731 C744 0.960 . S
C732 H724 0.929 . S
C732 C733 1.377 . S
C732 C734 1.384 . S
C733 C732 1.377 . S
C733 C739 1.390 . S
C734 H725 0.930 . S
C734 C732 1.384 . S
C734 C735 1.372 . S
C735 C734 1.372 . S
C735 C736 1.400 . S
C735 C740 1.490 . S
C736 H726 0.930 . S
C736 C735 1.400 . S
C736 C739 1.386 . S
H737 C753 0.930 . S
H738 C754 0.931 . S
C739 H727 0.929 . S
C739 C733 1.390 . S
C739 C736 1.386 . S
C740 C735 1.490 . S
C740 C742 1.395 . S
C740 C743 1.403 . S
H741 C747 0.930 . S
C742 H728 0.930 . S
C742 C740 1.395 . S
C742 C745 1.403 . S
C743 C740 1.403 . S
C743 C744 1.524 . S
C743 C747 1.400 . S
C744 H729 0.960 . S
C744 H730 0.960 . S
C744 H731 0.960 . S
C744 C743 1.524 . S
C745 C742 1.403 . S
C745 C746 1.392 . S
C745 C749 1.495 . S
C746 C745 1.392 . S
C746 C747 1.385 . S
C746 C748 1.478 . S
C747 H741 0.930 . S
C747 C743 1.400 . S
C747 C746 1.385 . S
C748 C746 1.478 . S
C748 C750 1.381 . S
C748 C754 1.383 . S
C749 C745 1.495 . S
C749 H755 0.959 . S
C749 H756 0.961 . S
C749 H757 0.960 . S
C750 C748 1.381 . S
C750 C751 1.394 . S
C750 H758 0.930 . S
C751 C750 1.394 . S
C751 C752 1.383 . S
C751 H759 0.929 . S
C752 C751 1.383 . S
C752 C753 1.377 . S
C753 H737 0.930 . S
C753 C752 1.377 . S
C753 C754 1.379 . S
C754 H738 0.931 . S
C754 C748 1.383 . S
C754 C753 1.379 . S
H755 C749 0.959 . S
H756 C749 0.961 . S
H757 C749 0.960 . S
H758 C750 0.930 . S
H759 C751 0.929 . S
H760 C768 0.929 . S
H761 C770 0.930 . S
H762 C772 0.930 . S
H763 C775 0.929 . S
H764 C778 0.930 . S
H765 C780 0.960 . S
H766 C780 0.960 . S
H767 C780 0.960 . S
C768 H760 0.929 . S
C768 C769 1.377 . S
C768 C770 1.384 . S
C769 C768 1.377 . S
C769 C775 1.390 . S
C770 H761 0.930 . S
C770 C768 1.384 . S
C770 C771 1.372 . S
C771 C770 1.372 . S
C771 C772 1.400 . S
C771 C776 1.490 . S
C772 H762 0.930 . S
C772 C771 1.400 . S
C772 C775 1.386 . S
H773 C789 0.930 . S
H774 C790 0.931 . S
C775 H763 0.929 . S
C775 C769 1.390 . S
C775 C772 1.386 . S
C776 C771 1.490 . S
C776 C778 1.395 . S
C776 C779 1.403 . S
H777 C783 0.930 . S
C778 H764 0.930 . S
C778 C776 1.395 . S
C778 C781 1.403 . S
C779 C776 1.403 . S
C779 C780 1.524 . S
C779 C783 1.400 . S
C780 H765 0.960 . S
C780 H766 0.960 . S
C780 H767 0.960 . S
C780 C779 1.524 . S
C781 C778 1.403 . S
C781 C782 1.392 . S
C781 C785 1.495 . S
C782 C781 1.392 . S
C782 C783 1.385 . S
C782 C784 1.478 . S
C783 H777 0.930 . S
C783 C779 1.400 . S
C783 C782 1.385 . S
C784 C782 1.478 . S
C784 C786 1.381 . S
C784 C790 1.383 . S
C785 C781 1.495 . S
C785 H791 0.959 . S
C785 H792 0.961 . S
C785 H793 0.960 . S
C786 C784 1.381 . S
C786 C787 1.394 . S
C786 H794 0.930 . S
C787 C786 1.394 . S
C787 C788 1.383 . S
C787 H795 0.929 . S
C788 C787 1.383 . S
C788 C789 1.377 . S
C789 H773 0.930 . S
C789 C788 1.377 . S
C789 C790 1.379 . S
C790 H774 0.931 . S
C790 C784 1.383 . S
C790 C789 1.379 . S
H791 C785 0.959 . S
H792 C785 0.961 . S
H793 C785 0.960 . S
H794 C786 0.930 . S
H795 C787 0.929 . S
H796 C804 0.929 . S
H797 C806 0.930 . S
H798 C808 0.930 . S
H799 C811 0.929 . S
H800 C814 0.930 . S
H801 C816 0.960 . S
H802 C816 0.960 . S
H803 C816 0.960 . S
C804 H796 0.929 . S
C804 C805 1.377 . S
C804 C806 1.384 . S
C805 C804 1.377 . S
C805 C811 1.390 . S
C806 H797 0.930 . S
C806 C804 1.384 . S
C806 C807 1.372 . S
C807 C806 1.372 . S
C807 C808 1.400 . S
C807 C812 1.490 . S
C808 H798 0.930 . S
C808 C807 1.400 . S
C808 C811 1.386 . S
H809 C825 0.930 . S
H810 C826 0.931 . S
C811 H799 0.929 . S
C811 C805 1.390 . S
C811 C808 1.386 . S
C812 C807 1.490 . S
C812 C814 1.395 . S
C812 C815 1.403 . S
H813 C819 0.930 . S
C814 H800 0.930 . S
C814 C812 1.395 . S
C814 C817 1.403 . S
C815 C812 1.403 . S
C815 C816 1.524 . S
C815 C819 1.400 . S
C816 H801 0.960 . S
C816 H802 0.960 . S
C816 H803 0.960 . S
C816 C815 1.524 . S
C817 C814 1.403 . S
C817 C818 1.392 . S
C817 C821 1.495 . S
C818 C817 1.392 . S
C818 C819 1.385 . S
C818 C820 1.478 . S
C819 H813 0.930 . S
C819 C815 1.400 . S
C819 C818 1.385 . S
C820 C818 1.478 . S
C820 C822 1.381 . S
C820 C826 1.383 . S
C821 C817 1.495 . S
C821 H827 0.959 . S
C821 H828 0.961 . S
C821 H829 0.960 . S
C822 C820 1.381 . S
C822 C823 1.394 . S
C822 H830 0.930 . S
C823 C822 1.394 . S
C823 C824 1.383 . S
C823 H831 0.929 . S
C824 C823 1.383 . S
C824 C825 1.377 . S
C825 H809 0.930 . S
C825 C824 1.377 . S
C825 C826 1.379 . S
C826 H810 0.931 . S
C826 C820 1.383 . S
C826 C825 1.379 . S
H827 C821 0.959 . S
H828 C821 0.961 . S
H829 C821 0.960 . S
H830 C822 0.930 . S
H831 C823 0.929 . S
H832 C840 0.929 . S
H833 C842 0.930 . S
H834 C844 0.930 . S
H835 C847 0.929 . S
H836 C850 0.930 . S
H837 C852 0.960 . S
H838 C852 0.960 . S
H839 C852 0.960 . S
C840 H832 0.929 . S
C840 C841 1.377 . S
C840 C842 1.384 . S
C841 C840 1.377 . S
C841 C847 1.390 . S
C842 H833 0.930 . S
C842 C840 1.384 . S
C842 C843 1.372 . S
C843 C842 1.372 . S
C843 C844 1.400 . S
C843 C848 1.490 . S
C844 H834 0.930 . S
C844 C843 1.400 . S
C844 C847 1.386 . S
H845 C861 0.930 . S
H846 C862 0.931 . S
C847 H835 0.929 . S
C847 C841 1.390 . S
C847 C844 1.386 . S
C848 C843 1.490 . S
C848 C850 1.395 . S
C848 C851 1.403 . S
H849 C855 0.930 . S
C850 H836 0.930 . S
C850 C848 1.395 . S
C850 C853 1.403 . S
C851 C848 1.403 . S
C851 C852 1.524 . S
C851 C855 1.400 . S
C852 H837 0.960 . S
C852 H838 0.960 . S
C852 H839 0.960 . S
C852 C851 1.524 . S
C853 C850 1.403 . S
C853 C854 1.392 . S
C853 C857 1.495 . S
C854 C853 1.392 . S
C854 C855 1.385 . S
C854 C856 1.478 . S
C855 H849 0.930 . S
C855 C851 1.400 . S
C855 C854 1.385 . S
C856 C854 1.478 . S
C856 C858 1.381 . S
C856 C862 1.383 . S
C857 C853 1.495 . S
C857 H863 0.959 . S
C857 H864 0.961 . S
C857 H865 0.960 . S
C858 C856 1.381 . S
C858 C859 1.394 . S
C858 H866 0.930 . S
C859 C858 1.394 . S
C859 C860 1.383 . S
C859 H867 0.929 . S
C860 C859 1.383 . S
C860 C861 1.377 . S
C861 H845 0.930 . S
C861 C860 1.377 . S
C861 C862 1.379 . S
C862 H846 0.931 . S
C862 C856 1.383 . S
C862 C861 1.379 . S
H863 C857 0.959 . S
H864 C857 0.961 . S
H865 C857 0.960 . S
H866 C858 0.930 . S
H867 C859 0.929 . S
H868 C876 0.929 . S
H869 C878 0.930 . S
H870 C880 0.930 . S
H871 C883 0.929 . S
H872 C886 0.930 . S
H873 C888 0.960 . S
H874 C888 0.960 . S
H875 C888 0.960 . S
C876 H868 0.929 . S
C876 C877 1.377 . S
C876 C878 1.384 . S
C877 C876 1.377 . S
C877 C883 1.390 . S
C878 H869 0.930 . S
C878 C876 1.384 . S
C878 C879 1.372 . S
C879 C878 1.372 . S
C879 C880 1.400 . S
C879 C884 1.490 . S
C880 H870 0.930 . S
C880 C879 1.400 . S
C880 C883 1.386 . S
H881 C897 0.930 . S
H882 C898 0.931 . S
C883 H871 0.929 . S
C883 C877 1.390 . S
C883 C880 1.386 . S
C884 C879 1.490 . S
C884 C886 1.395 . S
C884 C887 1.403 . S
H885 C891 0.930 . S
C886 H872 0.930 . S
C886 C884 1.395 . S
C886 C889 1.403 . S
C887 C884 1.403 . S
C887 C888 1.524 . S
C887 C891 1.400 . S
C888 H873 0.960 . S
C888 H874 0.960 . S
C888 H875 0.960 . S
C888 C887 1.524 . S
C889 C886 1.403 . S
C889 C890 1.392 . S
C889 C893 1.495 . S
C890 C889 1.392 . S
C890 C891 1.385 . S
C890 C892 1.478 . S
C891 H885 0.930 . S
C891 C887 1.400 . S
C891 C890 1.385 . S
C892 C890 1.478 . S
C892 C894 1.381 . S
C892 C898 1.383 . S
C893 C889 1.495 . S
C893 H899 0.959 . S
C893 H900 0.961 . S
C893 H901 0.960 . S
C894 C892 1.381 . S
C894 C895 1.394 . S
C894 H902 0.930 . S
C895 C894 1.394 . S
C895 C896 1.383 . S
C895 H903 0.929 . S
C896 C895 1.383 . S
C896 C897 1.377 . S
C897 H881 0.930 . S
C897 C896 1.377 . S
C897 C898 1.379 . S
C898 H882 0.931 . S
C898 C892 1.383 . S
C898 C897 1.379 . S
H899 C893 0.959 . S
H900 C893 0.961 . S
H901 C893 0.960 . S
H902 C894 0.930 . S
H903 C895 0.929 . S
H904 C912 0.929 . S
H905 C914 0.930 . S
H906 C916 0.930 . S
H907 C919 0.929 . S
H908 C922 0.930 . S
H909 C924 0.960 . S
H910 C924 0.960 . S
H911 C924 0.960 . S
C912 H904 0.929 . S
C912 C913 1.377 . S
C912 C914 1.384 . S
C913 C912 1.377 . S
C913 C919 1.390 . S
C914 H905 0.930 . S
C914 C912 1.384 . S
C914 C915 1.372 . S
C915 C914 1.372 . S
C915 C916 1.400 . S
C915 C920 1.490 . S
C916 H906 0.930 . S
C916 C915 1.400 . S
C916 C919 1.386 . S
H917 C933 0.930 . S
H918 C934 0.931 . S
C919 H907 0.929 . S
C919 C913 1.390 . S
C919 C916 1.386 . S
C920 C915 1.490 . S
C920 C922 1.395 . S
C920 C923 1.403 . S
H921 C927 0.930 . S
C922 H908 0.930 . S
C922 C920 1.395 . S
C922 C925 1.403 . S
C923 C920 1.403 . S
C923 C924 1.524 . S
C923 C927 1.400 . S
C924 H909 0.960 . S
C924 H910 0.960 . S
C924 H911 0.960 . S
C924 C923 1.524 . S
C925 C922 1.403 . S
C925 C926 1.392 . S
C925 C929 1.495 . S
C926 C925 1.392 . S
C926 C927 1.385 . S
C926 C928 1.478 . S
C927 H921 0.930 . S
C927 C923 1.400 . S
C927 C926 1.385 . S
C928 C926 1.478 . S
C928 C930 1.381 . S
C928 C934 1.383 . S
C929 C925 1.495 . S
C929 H935 0.959 . S
C929 H936 0.961 . S
C929 H937 0.960 . S
C930 C928 1.381 . S
C930 C931 1.394 . S
C930 H938 0.930 . S
C931 C930 1.394 . S
C931 C932 1.383 . S
C931 H939 0.929 . S
C932 C931 1.383 . S
C932 C933 1.377 . S
C933 H917 0.930 . S
C933 C932 1.377 . S
C933 C934 1.379 . S
C934 H918 0.931 . S
C934 C928 1.383 . S
C934 C933 1.379 . S
H935 C929 0.959 . S
H936 C929 0.961 . S
H937 C929 0.960 . S
H938 C930 0.930 . S
H939 C931 0.929 . S
H940 C948 0.929 . S
H941 C950 0.930 . S
H942 C952 0.930 . S
H943 C955 0.929 . S
H944 C958 0.930 . S
H945 C960 0.960 . S
H946 C960 0.960 . S
H947 C960 0.960 . S
C948 H940 0.929 . S
C948 C949 1.377 . S
C948 C950 1.384 . S
C949 C948 1.377 . S
C949 C955 1.390 . S
C950 H941 0.930 . S
C950 C948 1.384 . S
C950 C951 1.372 . S
C951 C950 1.372 . S
C951 C952 1.400 . S
C951 C956 1.490 . S
C952 H942 0.930 . S
C952 C951 1.400 . S
C952 C955 1.386 . S
H953 C969 0.930 . S
H954 C970 0.931 . S
C955 H943 0.929 . S
C955 C949 1.390 . S
C955 C952 1.386 . S
C956 C951 1.490 . S
C956 C958 1.395 . S
C956 C959 1.403 . S
H957 C963 0.930 . S
C958 H944 0.930 . S
C958 C956 1.395 . S
C958 C961 1.403 . S
C959 C956 1.403 . S
C959 C960 1.524 . S
C959 C963 1.400 . S
C960 H945 0.960 . S
C960 H946 0.960 . S
C960 H947 0.960 . S
C960 C959 1.524 . S
C961 C958 1.403 . S
C961 C962 1.392 . S
C961 C965 1.495 . S
C962 C961 1.392 . S
C962 C963 1.385 . S
C962 C964 1.478 . S
C963 H957 0.930 . S
C963 C959 1.400 . S
C963 C962 1.385 . S
C964 C962 1.478 . S
C964 C966 1.381 . S
C964 C970 1.383 . S
C965 C961 1.495 . S
C965 H971 0.959 . S
C965 H972 0.961 . S
C965 H973 0.960 . S
C966 C964 1.381 . S
C966 C967 1.394 . S
C966 H974 0.930 . S
C967 C966 1.394 . S
C967 C968 1.383 . S
C967 H975 0.929 . S
C968 C967 1.383 . S
C968 C969 1.377 . S
C969 H953 0.930 . S
C969 C968 1.377 . S
C969 C970 1.379 . S
C970 H954 0.931 . S
C970 C964 1.383 . S
C970 C969 1.379 . S
H971 C965 0.959 . S
H972 C965 0.961 . S
H973 C965 0.960 . S
H974 C966 0.930 . S
H975 C967 0.929 . S
H976 C984 0.929 . S
H977 C986 0.930 . S
H978 C988 0.930 . S
H979 C991 0.929 . S
H980 C994 0.930 . S
H981 C996 0.960 . S
H982 C996 0.960 . S
H983 C996 0.960 . S
C984 H976 0.929 . S
C984 C985 1.377 . S
C984 C986 1.384 . S
C985 C984 1.377 . S
C985 C991 1.390 . S
C986 H977 0.930 . S
C986 C984 1.384 . S
C986 C987 1.372 . S
C987 C986 1.372 . S
C987 C988 1.400 . S
C987 C992 1.490 . S
C988 H978 0.930 . S
C988 C987 1.400 . S
C988 C991 1.386 . S
H989 C1005 0.930 . S
H990 C1006 0.931 . S
C991 H979 0.929 . S
C991 C985 1.390 . S
C991 C988 1.386 . S
C992 C987 1.490 . S
C992 C994 1.395 . S
C992 C995 1.403 . S
H993 C999 0.930 . S
C994 H980 0.930 . S
C994 C992 1.395 . S
C994 C997 1.403 . S
C995 C992 1.403 . S
C995 C996 1.524 . S
C995 C999 1.400 . S
C996 H981 0.960 . S
C996 H982 0.960 . S
C996 H983 0.960 . S
C996 C995 1.524 . S
C997 C994 1.403 . S
C997 C998 1.392 . S
C997 C1001 1.495 . S
C998 C997 1.392 . S
C998 C999 1.385 . S
C998 C1000 1.478 . S
C999 H993 0.930 . S
C999 C995 1.400 . S
C999 C998 1.385 . S
C1000 C998 1.478 . S
C1000 C1002 1.381 . S
C1000 C1006 1.383 . S
C1001 C997 1.495 . S
C1001 H1007 0.959 . S
C1001 H1008 0.961 . S
C1001 H1009 0.960 . S
C1002 C1000 1.381 . S
C1002 C1003 1.394 . S
C1002 H1010 0.930 . S
C1003 C1002 1.394 . S
C1003 C1004 1.383 . S
C1003 H1011 0.929 . S
C1004 C1003 1.383 . S
C1004 C1005 1.377 . S
C1005 H989 0.930 . S
C1005 C1004 1.377 . S
C1005 C1006 1.379 . S
C1006 H990 0.931 . S
C1006 C1000 1.383 . S
C1006 C1005 1.379 . S
H1007 C1001 0.959 . S
H1008 C1001 0.961 . S
H1009 C1001 0.960 . S
H1010 C1002 0.930 . S
H1011 C1003 0.929 . S
H1012 C1020 0.929 . S
H1013 C1022 0.930 . S
H1014 C1024 0.930 . S
H1015 C1027 0.929 . S
H1016 C1030 0.930 . S
H1017 C1032 0.960 . S
H1018 C1032 0.960 . S
H1019 C1032 0.960 . S
C1020 H1012 0.929 . S
C1020 C1021 1.377 . S
C1020 C1022 1.384 . S
C1021 C1020 1.377 . S
C1021 C1027 1.390 . S
C1022 H1013 0.930 . S
C1022 C1020 1.384 . S
C1022 C1023 1.372 . S
C1023 C1022 1.372 . S
C1023 C1024 1.400 . S
C1023 C1028 1.490 . S
C1024 H1014 0.930 . S
C1024 C1023 1.400 . S
C1024 C1027 1.386 . S
H1025 C1041 0.930 . S
H1026 C1042 0.931 . S
C1027 H1015 0.929 . S
C1027 C1021 1.390 . S
C1027 C1024 1.386 . S
C1028 C1023 1.490 . S
C1028 C1030 1.395 . S
C1028 C1031 1.403 . S
H1029 C1035 0.930 . S
C1030 H1016 0.930 . S
C1030 C1028 1.395 . S
C1030 C1033 1.403 . S
C1031 C1028 1.403 . S
C1031 C1032 1.524 . S
C1031 C1035 1.400 . S
C1032 H1017 0.960 . S
C1032 H1018 0.960 . S
C1032 H1019 0.960 . S
C1032 C1031 1.524 . S
C1033 C1030 1.403 . S
C1033 C1034 1.392 . S
C1033 C1037 1.495 . S
C1034 C1033 1.392 . S
C1034 C1035 1.385 . S
C1034 C1036 1.478 . S
C1035 H1029 0.930 . S
C1035 C1031 1.400 . S
C1035 C1034 1.385 . S
C1036 C1034 1.478 . S
C1036 C1038 1.381 . S
C1036 C1042 1.383 . S
C1037 C1033 1.495 . S
C1037 H1043 0.959 . S
C1037 H1044 0.961 . S
C1037 H1045 0.960 . S
C1038 C1036 1.381 . S
C1038 C1039 1.394 . S
C1038 H1046 0.930 . S
C1039 C1038 1.394 . S
C1039 C1040 1.383 . S
C1039 H1047 0.929 . S
C1040 C1039 1.383 . S
C1040 C1041 1.377 . S
C1041 H1025 0.930 . S
C1041 C1040 1.377 . S
C1041 C1042 1.379 . S
C1042 H1026 0.931 . S
C1042 C1036 1.383 . S
C1042 C1041 1.379 . S
H1043 C1037 0.959 . S
H1044 C1037 0.961 . S
H1045 C1037 0.960 . S
H1046 C1038 0.930 . S
H1047 C1039 0.929 . S
H1048 C1056 0.929 . S
H1049 C1058 0.930 . S
H1050 C1060 0.930 . S
H1051 C1063 0.929 . S
H1052 C1066 0.930 . S
H1053 C1068 0.960 . S
H1054 C1068 0.960 . S
H1055 C1068 0.960 . S
C1056 H1048 0.929 . S
C1056 C1057 1.377 . S
C1056 C1058 1.384 . S
C1057 C1056 1.377 . S
C1057 C1063 1.390 . S
C1058 H1049 0.930 . S
C1058 C1056 1.384 . S
C1058 C1059 1.372 . S
C1059 C1058 1.372 . S
C1059 C1060 1.400 . S
C1059 C1064 1.490 . S
C1060 H1050 0.930 . S
C1060 C1059 1.400 . S
C1060 C1063 1.386 . S
H1061 C1077 0.930 . S
H1062 C1078 0.931 . S
C1063 H1051 0.929 . S
C1063 C1057 1.390 . S
C1063 C1060 1.386 . S
C1064 C1059 1.490 . S
C1064 C1066 1.395 . S
C1064 C1067 1.403 . S
H1065 C1071 0.930 . S
C1066 H1052 0.930 . S
C1066 C1064 1.395 . S
C1066 C1069 1.403 . S
C1067 C1064 1.403 . S
C1067 C1068 1.524 . S
C1067 C1071 1.400 . S
C1068 H1053 0.960 . S
C1068 H1054 0.960 . S
C1068 H1055 0.960 . S
C1068 C1067 1.524 . S
C1069 C1066 1.403 . S
C1069 C1070 1.392 . S
C1069 C1073 1.495 . S
C1070 C1069 1.392 . S
C1070 C1071 1.385 . S
C1070 C1072 1.478 . S
C1071 H1065 0.930 . S
C1071 C1067 1.400 . S
C1071 C1070 1.385 . S
C1072 C1070 1.478 . S
C1072 C1074 1.381 . S
C1072 C1078 1.383 . S
C1073 C1069 1.495 . S
C1073 H1079 0.959 . S
C1073 H1080 0.961 . S
C1073 H1081 0.960 . S
C1074 C1072 1.381 . S
C1074 C1075 1.394 . S
C1074 H1082 0.930 . S
C1075 C1074 1.394 . S
C1075 C1076 1.383 . S
C1075 H1083 0.929 . S
C1076 C1075 1.383 . S
C1076 C1077 1.377 . S
C1077 H1061 0.930 . S
C1077 C1076 1.377 . S
C1077 C1078 1.379 . S
C1078 H1062 0.931 . S
C1078 C1072 1.383 . S
C1078 C1077 1.379 . S
H1079 C1073 0.959 . S
H1080 C1073 0.961 . S
H1081 C1073 0.960 . S
H1082 C1074 0.930 . S
H1083 C1075 0.929 . S
H1084 C1092 0.929 . S
H1085 C1094 0.930 . S
H1086 C1096 0.930 . S
H1087 C1099 0.929 . S
H1088 C1102 0.930 . S
H1089 C1104 0.960 . S
H1090 C1104 0.960 . S
H1091 C1104 0.960 . S
C1092 H1084 0.929 . S
C1092 C1093 1.377 . S
C1092 C1094 1.384 . S
C1093 C1092 1.377 . S
C1093 C1099 1.390 . S
C1094 H1085 0.930 . S
C1094 C1092 1.384 . S
C1094 C1095 1.372 . S
C1095 C1094 1.372 . S
C1095 C1096 1.400 . S
C1095 C1100 1.490 . S
C1096 H1086 0.930 . S
C1096 C1095 1.400 . S
C1096 C1099 1.386 . S
H1097 C1113 0.930 . S
H1098 C1114 0.931 . S
C1099 H1087 0.929 . S
C1099 C1093 1.390 . S
C1099 C1096 1.386 . S
C1100 C1095 1.490 . S
C1100 C1102 1.395 . S
C1100 C1103 1.403 . S
H1101 C1107 0.930 . S
C1102 H1088 0.930 . S
C1102 C1100 1.395 . S
C1102 C1105 1.403 . S
C1103 C1100 1.403 . S
C1103 C1104 1.524 . S
C1103 C1107 1.400 . S
C1104 H1089 0.960 . S
C1104 H1090 0.960 . S
C1104 H1091 0.960 . S
C1104 C1103 1.524 . S
C1105 C1102 1.403 . S
C1105 C1106 1.392 . S
C1105 C1109 1.495 . S
C1106 C1105 1.392 . S
C1106 C1107 1.385 . S
C1106 C1108 1.478 . S
C1107 H1101 0.930 . S
C1107 C1103 1.400 . S
C1107 C1106 1.385 . S
C1108 C1106 1.478 . S
C1108 C1110 1.381 . S
C1108 C1114 1.383 . S
C1109 C1105 1.495 . S
C1109 H1115 0.959 . S
C1109 H1116 0.961 . S
C1109 H1117 0.960 . S
C1110 C1108 1.381 . S
C1110 C1111 1.394 . S
C1110 H1118 0.930 . S
C1111 C1110 1.394 . S
C1111 C1112 1.383 . S
C1111 H1119 0.929 . S
C1112 C1111 1.383 . S
C1112 C1113 1.377 . S
C1113 H1097 0.930 . S
C1113 C1112 1.377 . S
C1113 C1114 1.379 . S
C1114 H1098 0.931 . S
C1114 C1108 1.383 . S
C1114 C1113 1.379 . S
H1115 C1109 0.959 . S
H1116 C1109 0.961 . S
H1117 C1109 0.960 . S
H1118 C1110 0.930 . S
H1119 C1111 0.929 . S
H1120 C1128 0.929 . S
H1121 C1130 0.930 . S
H1122 C1132 0.930 . S
H1123 C1135 0.929 . S
H1124 C1138 0.930 . S
H1125 C1140 0.960 . S
H1126 C1140 0.960 . S
H1127 C1140 0.960 . S
C1128 H1120 0.929 . S
C1128 C1129 1.377 . S
C1128 C1130 1.384 . S
C1129 C1128 1.377 . S
C1129 C1135 1.390 . S
C1130 H1121 0.930 . S
C1130 C1128 1.384 . S
C1130 C1131 1.372 . S
C1131 C1130 1.372 . S
C1131 C1132 1.400 . S
C1131 C1136 1.490 . S
C1132 H1122 0.930 . S
C1132 C1131 1.400 . S
C1132 C1135 1.386 . S
H1133 C1149 0.930 . S
H1134 C1150 0.931 . S
C1135 H1123 0.929 . S
C1135 C1129 1.390 . S
C1135 C1132 1.386 . S
C1136 C1131 1.490 . S
C1136 C1138 1.395 . S
C1136 C1139 1.403 . S
H1137 C1143 0.930 . S
C1138 H1124 0.930 . S
C1138 C1136 1.395 . S
C1138 C1141 1.403 . S
C1139 C1136 1.403 . S
C1139 C1140 1.524 . S
C1139 C1143 1.400 . S
C1140 H1125 0.960 . S
C1140 H1126 0.960 . S
C1140 H1127 0.960 . S
C1140 C1139 1.524 . S
C1141 C1138 1.403 . S
C1141 C1142 1.392 . S
C1141 C1145 1.495 . S
C1142 C1141 1.392 . S
C1142 C1143 1.385 . S
C1142 C1144 1.478 . S
C1143 H1137 0.930 . S
C1143 C1139 1.400 . S
C1143 C1142 1.385 . S
C1144 C1142 1.478 . S
C1144 C1146 1.381 . S
C1144 C1150 1.383 . S
C1145 C1141 1.495 . S
C1145 H1151 0.959 . S
C1145 H1152 0.961 . S
C1145 H1153 0.960 . S
C1146 C1144 1.381 . S
C1146 C1147 1.394 . S
C1146 H1154 0.930 . S
C1147 C1146 1.394 . S
C1147 C1148 1.383 . S
C1147 H1155 0.929 . S
C1148 C1147 1.383 . S
C1148 C1149 1.377 . S
C1149 H1133 0.930 . S
C1149 C1148 1.377 . S
C1149 C1150 1.379 . S
C1150 H1134 0.931 . S
C1150 C1144 1.383 . S
C1150 C1149 1.379 . S
H1151 C1145 0.959 . S
H1152 C1145 0.961 . S
H1153 C1145 0.960 . S
H1154 C1146 0.930 . S
H1155 C1147 0.929 . S
H1156 C1164 0.929 . S
H1157 C1166 0.930 . S
H1158 C1168 0.930 . S
H1159 C1171 0.929 . S
H1160 C1174 0.930 . S
H1161 C1176 0.960 . S
H1162 C1176 0.960 . S
H1163 C1176 0.960 . S
C1164 H1156 0.929 . S
C1164 C1165 1.377 . S
C1164 C1166 1.384 . S
C1165 C1164 1.377 . S
C1165 C1171 1.390 . S
C1166 H1157 0.930 . S
C1166 C1164 1.384 . S
C1166 C1167 1.372 . S
C1167 C1166 1.372 . S
C1167 C1168 1.400 . S
C1167 C1172 1.490 . S
C1168 H1158 0.930 . S
C1168 C1167 1.400 . S
C1168 C1171 1.386 . S
H1169 C1185 0.930 . S
H1170 C1186 0.931 . S
C1171 H1159 0.929 . S
C1171 C1165 1.390 . S
C1171 C1168 1.386 . S
C1172 C1167 1.490 . S
C1172 C1174 1.395 . S
C1172 C1175 1.403 . S
H1173 C1179 0.930 . S
C1174 H1160 0.930 . S
C1174 C1172 1.395 . S
C1174 C1177 1.403 . S
C1175 C1172 1.403 . S
C1175 C1176 1.524 . S
C1175 C1179 1.400 . S
C1176 H1161 0.960 . S
C1176 H1162 0.960 . S
C1176 H1163 0.960 . S
C1176 C1175 1.524 . S
C1177 C1174 1.403 . S
C1177 C1178 1.392 . S
C1177 C1181 1.495 . S
C1178 C1177 1.392 . S
C1178 C1179 1.385 . S
C1178 C1180 1.478 . S
C1179 H1173 0.930 . S
C1179 C1175 1.400 . S
C1179 C1178 1.385 . S
C1180 C1178 1.478 . S
C1180 C1182 1.381 . S
C1180 C1186 1.383 . S
C1181 C1177 1.495 . S
C1181 H1187 0.959 . S
C1181 H1188 0.961 . S
C1181 H1189 0.960 . S
C1182 C1180 1.381 . S
C1182 C1183 1.394 . S
C1182 H1190 0.930 . S
C1183 C1182 1.394 . S
C1183 C1184 1.383 . S
C1183 H1191 0.929 . S
C1184 C1183 1.383 . S
C1184 C1185 1.377 . S
C1185 H1169 0.930 . S
C1185 C1184 1.377 . S
C1185 C1186 1.379 . S
C1186 H1170 0.931 . S
C1186 C1180 1.383 . S
C1186 C1185 1.379 . S
H1187 C1181 0.959 . S
H1188 C1181 0.961 . S
H1189 C1181 0.960 . S
H1190 C1182 0.930 . S
H1191 C1183 0.929 . S
H1192 C1200 0.929 . S
H1193 C1202 0.930 . S
H1194 C1204 0.930 . S
H1195 C1207 0.929 . S
H1196 C1210 0.930 . S
H1197 C1212 0.960 . S
H1198 C1212 0.960 . S
H1199 C1212 0.960 . S
C1200 H1192 0.929 . S
C1200 C1201 1.377 . S
C1200 C1202 1.384 . S
C1201 C1200 1.377 . S
C1201 C1207 1.390 . S
C1202 H1193 0.930 . S
C1202 C1200 1.384 . S
C1202 C1203 1.372 . S
C1203 C1202 1.372 . S
C1203 C1204 1.400 . S
C1203 C1208 1.490 . S
C1204 H1194 0.930 . S
C1204 C1203 1.400 . S
C1204 C1207 1.386 . S
H1205 C1221 0.930 . S
H1206 C1222 0.931 . S
C1207 H1195 0.929 . S
C1207 C1201 1.390 . S
C1207 C1204 1.386 . S
C1208 C1203 1.490 . S
C1208 C1210 1.395 . S
C1208 C1211 1.403 . S
H1209 C1215 0.930 . S
C1210 H1196 0.930 . S
C1210 C1208 1.395 . S
C1210 C1213 1.403 . S
C1211 C1208 1.403 . S
C1211 C1212 1.524 . S
C1211 C1215 1.400 . S
C1212 H1197 0.960 . S
C1212 H1198 0.960 . S
C1212 H1199 0.960 . S
C1212 C1211 1.524 . S
C1213 C1210 1.403 . S
C1213 C1214 1.392 . S
C1213 C1217 1.495 . S
C1214 C1213 1.392 . S
C1214 C1215 1.385 . S
C1214 C1216 1.478 . S
C1215 H1209 0.930 . S
C1215 C1211 1.400 . S
C1215 C1214 1.385 . S
C1216 C1214 1.478 . S
C1216 C1218 1.381 . S
C1216 C1222 1.383 . S
C1217 C1213 1.495 . S
C1217 H1223 0.959 . S
C1217 H1224 0.961 . S
C1217 H1225 0.960 . S
C1218 C1216 1.381 . S
C1218 C1219 1.394 . S
C1218 H1226 0.930 . S
C1219 C1218 1.394 . S
C1219 C1220 1.383 . S
C1219 H1227 0.929 . S
C1220 C1219 1.383 . S
C1220 C1221 1.377 . S
C1221 H1205 0.930 . S
C1221 C1220 1.377 . S
C1221 C1222 1.379 . S
C1222 H1206 0.931 . S
C1222 C1216 1.383 . S
C1222 C1221 1.379 . S
H1223 C1217 0.959 . S
H1224 C1217 0.961 . S
H1225 C1217 0.960 . S
H1226 C1218 0.930 . S
H1227 C1219 0.929 . S
H1228 C1236 0.929 . S
H1229 C1238 0.930 . S
H1230 C1240 0.930 . S
H1231 C1243 0.929 . S
H1232 C1246 0.930 . S
H1233 C1248 0.960 . S
H1234 C1248 0.960 . S
H1235 C1248 0.960 . S
C1236 H1228 0.929 . S
C1236 C1237 1.377 . S
C1236 C1238 1.384 . S
C1237 C1236 1.377 . S
C1237 C1243 1.390 . S
C1238 H1229 0.930 . S
C1238 C1236 1.384 . S
C1238 C1239 1.372 . S
C1239 C1238 1.372 . S
C1239 C1240 1.400 . S
C1239 C1244 1.490 . S
C1240 H1230 0.930 . S
C1240 C1239 1.400 . S
C1240 C1243 1.386 . S
H1241 C1257 0.930 . S
H1242 C1258 0.931 . S
C1243 H1231 0.929 . S
C1243 C1237 1.390 . S
C1243 C1240 1.386 . S
C1244 C1239 1.490 . S
C1244 C1246 1.395 . S
C1244 C1247 1.403 . S
H1245 C1251 0.930 . S
C1246 H1232 0.930 . S
C1246 C1244 1.395 . S
C1246 C1249 1.403 . S
C1247 C1244 1.403 . S
C1247 C1248 1.524 . S
C1247 C1251 1.400 . S
C1248 H1233 0.960 . S
C1248 H1234 0.960 . S
C1248 H1235 0.960 . S
C1248 C1247 1.524 . S
C1249 C1246 1.403 . S
C1249 C1250 1.392 . S
C1249 C1253 1.495 . S
C1250 C1249 1.392 . S
C1250 C1251 1.385 . S
C1250 C1252 1.478 . S
C1251 H1245 0.930 . S
C1251 C1247 1.400 . S
C1251 C1250 1.385 . S
C1252 C1250 1.478 . S
C1252 C1254 1.381 . S
C1252 C1258 1.383 . S
C1253 C1249 1.495 . S
C1253 H1259 0.959 . S
C1253 H1260 0.961 . S
C1253 H1261 0.960 . S
C1254 C1252 1.381 . S
C1254 C1255 1.394 . S
C1254 H1262 0.930 . S
C1255 C1254 1.394 . S
C1255 C1256 1.383 . S
C1255 H1263 0.929 . S
C1256 C1255 1.383 . S
C1256 C1257 1.377 . S
C1257 H1241 0.930 . S
C1257 C1256 1.377 . S
C1257 C1258 1.379 . S
C1258 H1242 0.931 . S
C1258 C1252 1.383 . S
C1258 C1257 1.379 . S
H1259 C1253 0.959 . S
H1260 C1253 0.961 . S
H1261 C1253 0.960 . S
H1262 C1254 0.930 . S
H1263 C1255 0.929 . S
H1264 C1272 0.929 . S
H1265 C1274 0.930 . S
H1266 C1276 0.930 . S
H1267 C1279 0.929 . S
H1268 C1282 0.930 . S
H1269 C1284 0.960 . S
H1270 C1284 0.960 . S
H1271 C1284 0.960 . S
C1272 H1264 0.929 . S
C1272 C1273 1.377 . S
C1272 C1274 1.384 . S
C1273 C1272 1.377 . S
C1273 C1279 1.390 . S
C1274 H1265 0.930 . S
C1274 C1272 1.384 . S
C1274 C1275 1.372 . S
C1275 C1274 1.372 . S
C1275 C1276 1.400 . S
C1275 C1280 1.490 . S
C1276 H1266 0.930 . S
C1276 C1275 1.400 . S
C1276 C1279 1.386 . S
H1277 C1293 0.930 . S
H1278 C1294 0.931 . S
C1279 H1267 0.929 . S
C1279 C1273 1.390 . S
C1279 C1276 1.386 . S
C1280 C1275 1.490 . S
C1280 C1282 1.395 . S
C1280 C1283 1.403 . S
H1281 C1287 0.930 . S
C1282 H1268 0.930 . S
C1282 C1280 1.395 . S
C1282 C1285 1.403 . S
C1283 C1280 1.403 . S
C1283 C1284 1.524 . S
C1283 C1287 1.400 . S
C1284 H1269 0.960 . S
C1284 H1270 0.960 . S
C1284 H1271 0.960 . S
C1284 C1283 1.524 . S
C1285 C1282 1.403 . S
C1285 C1286 1.392 . S
C1285 C1289 1.495 . S
C1286 C1285 1.392 . S
C1286 C1287 1.385 . S
C1286 C1288 1.478 . S
C1287 H1281 0.930 . S
C1287 C1283 1.400 . S
C1287 C1286 1.385 . S
C1288 C1286 1.478 . S
C1288 C1290 1.381 . S
C1288 C1294 1.383 . S
C1289 C1285 1.495 . S
C1289 H1295 0.959 . S
C1289 H1296 0.961 . S
C1289 H1297 0.960 . S
C1290 C1288 1.381 . S
C1290 C1291 1.394 . S
C1290 H1298 0.930 . S
C1291 C1290 1.394 . S
C1291 C1292 1.383 . S
C1291 H1299 0.929 . S
C1292 C1291 1.383 . S
C1292 C1293 1.377 . S
C1293 H1277 0.930 . S
C1293 C1292 1.377 . S
C1293 C1294 1.379 . S
C1294 H1278 0.931 . S
C1294 C1288 1.383 . S
C1294 C1293 1.379 . S
H1295 C1289 0.959 . S
H1296 C1289 0.961 . S
H1297 C1289 0.960 . S
H1298 C1290 0.930 . S
H1299 C1291 0.929 . S
H1300 C1308 0.929 . S
H1301 C1310 0.930 . S
H1302 C1312 0.930 . S
H1303 C1315 0.929 . S
H1304 C1318 0.930 . S
H1305 C1320 0.960 . S
H1306 C1320 0.960 . S
H1307 C1320 0.960 . S
C1308 H1300 0.929 . S
C1308 C1309 1.377 . S
C1308 C1310 1.384 . S
C1309 C1308 1.377 . S
C1309 C1315 1.390 . S
C1310 H1301 0.930 . S
C1310 C1308 1.384 . S
C1310 C1311 1.372 . S
C1311 C1310 1.372 . S
C1311 C1312 1.400 . S
C1311 C1316 1.490 . S
C1312 H1302 0.930 . S
C1312 C1311 1.400 . S
C1312 C1315 1.386 . S
H1313 C1329 0.930 . S
H1314 C1330 0.931 . S
C1315 H1303 0.929 . S
C1315 C1309 1.390 . S
C1315 C1312 1.386 . S
C1316 C1311 1.490 . S
C1316 C1318 1.395 . S
C1316 C1319 1.403 . S
H1317 C1323 0.930 . S
C1318 H1304 0.930 . S
C1318 C1316 1.395 . S
C1318 C1321 1.403 . S
C1319 C1316 1.403 . S
C1319 C1320 1.524 . S
C1319 C1323 1.400 . S
C1320 H1305 0.960 . S
C1320 H1306 0.960 . S
C1320 H1307 0.960 . S
C1320 C1319 1.524 . S
C1321 C1318 1.403 . S
C1321 C1322 1.392 . S
C1321 C1325 1.495 . S
C1322 C1321 1.392 . S
C1322 C1323 1.385 . S
C1322 C1324 1.478 . S
C1323 H1317 0.930 . S
C1323 C1319 1.400 . S
C1323 C1322 1.385 . S
C1324 C1322 1.478 . S
C1324 C1326 1.381 . S
C1324 C1330 1.383 . S
C1325 C1321 1.495 . S
C1325 H1331 0.959 . S
C1325 H1332 0.961 . S
C1325 H1333 0.960 . S
C1326 C1324 1.381 . S
C1326 C1327 1.394 . S
C1326 H1334 0.930 . S
C1327 C1326 1.394 . S
C1327 C1328 1.383 . S
C1327 H1335 0.929 . S
C1328 C1327 1.383 . S
C1328 C1329 1.377 . S
C1329 H1313 0.930 . S
C1329 C1328 1.377 . S
C1329 C1330 1.379 . S
C1330 H1314 0.931 . S
C1330 C1324 1.383 . S
C1330 C1329 1.379 . S
H1331 C1325 0.959 . S
H1332 C1325 0.961 . S
H1333 C1325 0.960 . S
H1334 C1326 0.930 . S
H1335 C1327 0.929 . S
C481 C1 1.315 . S
C500 C327 1.332 . S
C517 C40 1.244 . S
C536 C367 1.265 . S
C572 C401 2.142 . S
C553 C99 2.182 . S
C589 C118 2.641 . S
C608 C442 2.601 . S
C644 C362 1.430 . S
C625 C16 1.411 . S
C680 C322 2.197 . S
C661 C60 2.135 . S
C716 C450 1.458 . S
C697 C79 1.468 . S
C752 C411 1.725 . S
C733 C138 1.795 . S
C769 C21 1.188 . S
C788 C447 1.210 . S
C824 C370 1.929 . S
C805 C94 1.980 . S
C841 C133 2.465 . S
C860 C330 2.402 . S
C877 C55 1.549 . S
C896 C398 1.580 . S
C932 C318 1.311 . S
C913 C157 1.325 . S
C949 C196 1.244 . S
C968 C358 1.239 . S
C985 C255 2.185 . S
C1004 C410 2.161 . S
C1021 C289 2.635 . S
C1040 C451 2.581 . S
C1057 C172 1.403 . S
C1076 C371 1.431 . S
C1112 C331 2.194 . S
C1093 C216 2.119 . S
C1148 C441 1.446 . S
C1129 C235 1.469 . S
C1184 C402 1.761 . S
C1165 C294 1.798 . S
C1201 C177 1.195 . S
C1220 C438 1.223 . S
C1256 C361 1.918 . S
C1237 C250 1.982 . S
C1292 C321 2.383 . S
C1273 C274 2.468 . S
C1309 C211 1.555 . S
C1328 C407 1.591 . S
