# Generated by pormake.
# Topology apo, (3,6)-cn, num edge types: 1
# Building blocks:
#     Node 0, Type 0, BuildingBlock: ESEHIV_clean_linker_0, # of connection points: 3
#     Node 1, Type 0, BuildingBlock: ESEHIV_clean_linker_0, # of connection points: 3
#     Node 2, Type 0, BuildingBlock: ESEHIV_clean_linker_0, # of connection points: 3
#     Node 3, Type 0, BuildingBlock: ESEHIV_clean_linker_0, # of connection points: 3
#     Node 4, Type 0, BuildingBlock: ESEHIV_clean_linker_0, # of connection points: 3
#     Node 5, Type 0, BuildingBlock: ESEHIV_clean_linker_0, # of connection points: 3
#     Node 6, Type 0, BuildingBlock: ESEHIV_clean_linker_0, # of connection points: 3
#     Node 7, Type 0, BuildingBlock: ESEHIV_clean_linker_0, # of connection points: 3
#     Node 8, Type 1, BuildingBlock: KUMBUR_clean_sbu_1, # of connection points: 6
#     Node 9, Type 1, BuildingBlock: KUMBUR_clean_sbu_1, # of connection points: 6
#     Node 10, Type 1, BuildingBlock: KUMBUR_clean_sbu_1, # of connection points: 6
#     Node 11, Type 1, BuildingBlock: KUMBUR_clean_sbu_1, # of connection points: 6
#     Edge 12, Type (0, 1), BuildingBlock: XUDNAN_clean_linker_2, # of connection points: 2
#     Edge 13, Type (0, 1), BuildingBlock: XUDNAN_clean_linker_2, # of connection points: 2
#     Edge 14, Type (0, 1), BuildingBlock: XUDNAN_clean_linker_2, # of connection points: 2
#     Edge 15, Type (0, 1), BuildingBlock: XUDNAN_clean_linker_2, # of connection points: 2
#     Edge 16, Type (0, 1), BuildingBlock: XUDNAN_clean_linker_2, # of connection points: 2
#     Edge 17, Type (0, 1), BuildingBlock: XUDNAN_clean_linker_2, # of connection points: 2
#     Edge 18, Type (0, 1), BuildingBlock: XUDNAN_clean_linker_2, # of connection points: 2
#     Edge 19, Type (0, 1), BuildingBlock: XUDNAN_clean_linker_2, # of connection points: 2
#     Edge 20, Type (0, 1), BuildingBlock: XUDNAN_clean_linker_2, # of connection points: 2
#     Edge 21, Type (0, 1), BuildingBlock: XUDNAN_clean_linker_2, # of connection points: 2
#     Edge 22, Type (0, 1), BuildingBlock: XUDNAN_clean_linker_2, # of connection points: 2
#     Edge 23, Type (0, 1), BuildingBlock: XUDNAN_clean_linker_2, # of connection points: 2
#     Edge 24, Type (0, 1), BuildingBlock: XUDNAN_clean_linker_2, # of connection points: 2
#     Edge 25, Type (0, 1), BuildingBlock: XUDNAN_clean_linker_2, # of connection points: 2
#     Edge 26, Type (0, 1), BuildingBlock: XUDNAN_clean_linker_2, # of connection points: 2
#     Edge 27, Type (0, 1), BuildingBlock: XUDNAN_clean_linker_2, # of connection points: 2
#     Edge 28, Type (0, 1), BuildingBlock: XUDNAN_clean_linker_2, # of connection points: 2
#     Edge 29, Type (0, 1), BuildingBlock: XUDNAN_clean_linker_2, # of connection points: 2
#     Edge 30, Type (0, 1), BuildingBlock: XUDNAN_clean_linker_2, # of connection points: 2
#     Edge 31, Type (0, 1), BuildingBlock: XUDNAN_clean_linker_2, # of connection points: 2
#     Edge 32, Type (0, 1), BuildingBlock: XUDNAN_clean_linker_2, # of connection points: 2
#     Edge 33, Type (0, 1), BuildingBlock: XUDNAN_clean_linker_2, # of connection points: 2
#     Edge 34, Type (0, 1), BuildingBlock: XUDNAN_clean_linker_2, # of connection points: 2
#     Edge 35, Type (0, 1), BuildingBlock: XUDNAN_clean_linker_2, # of connection points: 2
# Relax obj value: 0.008
# Max RMSD: 0.114
# Mean RMSD: 0.087
data_MOF--net-apo--node1-KUMBUR_clean_sbu_1--node2-ESEHIV_clean_linker_0--edge1-XUDNAN_clean_linker_2
_symmetry_space_group_name_H-M    P1
_symmetry_Int_Tables_number       1
_symmetry_cell_setting            triclinic
loop_
_symmetry_equiv_pos_as_xyz
'x, y, z'
_cell_length_a     22.747653
_cell_length_b     39.861961
_cell_length_c     50.774155
_cell_angle_alpha  90.04013
_cell_angle_beta   90.010833
_cell_angle_gamma 90.205053
loop_
_atom_site_label
_atom_site_type_symbol
_atom_site_fract_x
_atom_site_fract_y
_atom_site_fract_z
_atom_type_partial_charge
H0 H 0.32988 0.42751 0.4309 0.0
H1 H 0.23855 0.3882 0.36363 0.0
H2 H 0.25164 0.3294 0.43473 0.0
C3 C 0.30572 0.40721 0.4216 0.0
C4 C 0.29187 0.3782 0.43602 0.0
C5 C 0.28754 0.41037 0.39534 0.0
C6 C 0.25439 0.38468 0.38355 0.0
C7 C 0.24097 0.35506 0.39743 0.0
C8 C 0.26099 0.35197 0.42362 0.0
H9 H 0.1557 0.09188 0.91921 0.0
H10 H 0.23084 0.14024 0.85173 0.0
H11 H 0.25945 0.18244 0.92818 0.0
C12 C 0.18336 0.11158 0.91132 0.0
C13 C 0.20606 0.13705 0.9279 0.0
C14 C 0.19312 0.11243 0.88398 0.0
C15 C 0.22529 0.13894 0.87293 0.0
C16 C 0.24801 0.16453 0.88885 0.0
C17 C 0.23961 0.163 0.91621 0.0
H18 H 0.82969 0.07708 0.59009 0.0
H19 H 0.77739 0.12181 0.66344 0.0
H20 H 0.78362 0.18118 0.59263 0.0
C21 C 0.81491 0.09864 0.6012 0.0
C22 C 0.8081 0.12945 0.58818 0.0
C23 C 0.80345 0.09537 0.62829 0.0
C24 C 0.7856 0.1239 0.64252 0.0
C25 C 0.77875 0.15518 0.62998 0.0
C26 C 0.78939 0.15746 0.60267 0.0
H27 H 0.62923 0.40703 0.09976 0.0
H28 H 0.68256 0.36618 0.17459 0.0
H29 H 0.70889 0.31033 0.10274 0.0
C30 C 0.64777 0.38697 0.11146 0.0
C31 C 0.66581 0.35785 0.09849 0.0
C32 C 0.65194 0.39023 0.13898 0.0
C33 C 0.67981 0.36454 0.15334 0.0
C34 C 0.70129 0.33569 0.14041 0.0
C35 C 0.69394 0.33263 0.1129 0.0
H36 H 0.67984 0.57927 0.59893 0.0
H37 H 0.77312 0.67142 0.58242 0.0
H38 H 0.75297 0.63769 0.66201 0.0
C39 C 0.70351 0.60128 0.60555 0.0
C40 C 0.71553 0.60498 0.63256 0.0
C41 C 0.72336 0.62521 0.58704 0.0
C42 C 0.75534 0.65333 0.59621 0.0
C43 C 0.76538 0.65807 0.62327 0.0
C44 C 0.74453 0.63412 0.64118 0.0
H45 H 0.84623 0.92492 0.09987 0.0
H46 H 0.74766 0.8824 0.16395 0.0
H47 H 0.75736 0.83032 0.08974 0.0
C48 C 0.81998 0.90458 0.10786 0.0
C49 C 0.80388 0.87748 0.09167 0.0
C50 C 0.79924 0.90657 0.13385 0.0
C51 C 0.76394 0.88063 0.14393 0.0
C52 C 0.74894 0.85276 0.1283 0.0
C53 C 0.76862 0.85162 0.10205 0.0
H54 H 0.13627 0.91977 0.42623 0.0
H55 H 0.24185 0.83128 0.43803 0.0
H56 H 0.20439 0.86584 0.35982 0.0
C57 C 0.16218 0.89926 0.4185 0.0
C58 C 0.16844 0.89585 0.39103 0.0
C59 C 0.18733 0.87556 0.43581 0.0
C60 C 0.22017 0.84887 0.42504 0.0
C61 C 0.2265 0.84505 0.39764 0.0
C62 C 0.20024 0.86865 0.38096 0.0
H63 H 0.36249 0.58439 0.92247 0.0
H64 H 0.29197 0.63775 0.85589 0.0
H65 H 0.2971 0.68449 0.93213 0.0
C66 C 0.34377 0.60682 0.91391 0.0
C67 C 0.3324 0.63459 0.93024 0.0
C68 C 0.33008 0.60773 0.88684 0.0
C69 C 0.30348 0.63686 0.87653 0.0
C70 C 0.28976 0.66445 0.89266 0.0
C71 C 0.30629 0.66334 0.91938 0.0
Tb72 Tb 0.07159 0.14131 0.23344 0.0
C73 C 0.83609 0.09144 0.28628 0.0
N74 N 0.85597 0.12277 0.28086 0.0
C75 C 0.76157 0.13752 0.26338 0.0
C76 C 0.77868 0.08132 0.27949 0.0
C77 C 0.81912 0.14624 0.27044 0.0
C78 C 0.74143 0.10478 0.26763 0.0
C79 C 0.85437 0.03747 0.30621 0.0
C80 C 0.87331 0.07 0.29933 0.0
C81 C 0.79821 0.02645 0.2984 0.0
C82 C 0.76033 0.0484 0.28511 0.0
Tb83 Tb 0.95026 0.13506 0.29294 0.0
N84 N 0.92653 0.08199 0.30694 0.0
C85 C 0.89147 0.01761 0.32163 0.0
C86 C 0.96 0.06398 0.32418 0.0
C87 C 0.94402 0.03121 0.33112 0.0
H88 H 0.83402 0.17172 0.26775 0.0
H89 H 0.97168 0.01671 0.34414 0.0
H90 H 0.16809 0.08484 0.25912 0.0
H91 H 0.09755 0.27041 0.20534 0.0
H92 H 0.9986 0.07505 0.33299 0.0
H93 H 0.87873 0.99242 0.32732 0.0
H94 H 0.04411 0.21649 0.21007 0.0
H95 H 0.73276 0.15608 0.25477 0.0
H96 H 0.78302 1.00142 0.30326 0.0
H97 H 0.71662 0.03992 0.27977 0.0
H98 H 0.26632 0.08654 0.27819 0.0
H99 H 0.6969 0.09806 0.26213 0.0
H100 H 0.19931 0.27586 0.22215 0.0
N101 N 0.16312 0.1378 0.25238 0.0
C102 C 0.1951 0.1668 0.25117 0.0
C103 C 0.2464 0.10944 0.2711 0.0
C104 C 0.25353 0.16826 0.26047 0.0
C105 C 0.18929 0.10889 0.26092 0.0
C106 C 0.27845 0.13931 0.27115 0.0
N107 N 0.11377 0.19281 0.23076 0.0
C108 C 0.08803 0.21905 0.21795 0.0
C109 C 0.20275 0.22479 0.2366 0.0
C110 C 0.17022 0.19487 0.2394 0.0
C111 C 0.17586 0.25235 0.22452 0.0
C112 C 0.11832 0.24942 0.21508 0.0
H113 H 0.32313 0.13943 0.27856 0.0
H114 H 0.33089 0.19967 0.26498 0.0
H115 H 0.28667 0.24897 0.24382 0.0
O116 O 0.05338 0.14589 0.19269 0.0
O117 O 0.06567 0.18203 0.26302 0.0
O118 O 0.04203 0.14869 0.29693 0.0
O119 O 0.13588 0.12669 0.20629 0.0
O120 O 0.9854 0.16342 0.22621 0.0
O121 O 0.94787 0.17968 0.2671 0.0
O122 O 0.93886 0.13485 0.33384 0.0
O123 O 0.92525 0.1152 0.25397 0.0
O124 O 0.01143 0.098 0.23329 0.0
O125 O 0.91509 0.17825 0.31135 0.0
O126 O 0.03622 0.10988 0.29631 0.0
O127 O 0.06754 0.09323 0.25507 0.0
C128 C 0.06129 0.17742 0.28845 0.0
C129 C 0.10499 0.10848 0.16439 0.0
C130 C 0.12338 0.09748 0.11742 0.0
C131 C 0.12867 0.06307 0.12361 0.0
C132 C 0.10905 0.07411 0.16973 0.0
C133 C 0.12058 0.05159 0.14937 0.0
C134 C 0.10994 0.11982 0.13828 0.0
C135 C 0.94923 0.18099 0.24107 0.0
C136 C 0.10377 0.13337 0.18586 0.0
C137 C 0.28595 0.19817 0.25799 0.0
C138 C 0.26086 0.22621 0.24583 0.0
C139 C 0.95399 0.09624 0.23702 0.0
C140 C 0.86227 0.16668 0.35122 0.0
C141 C 0.82006 0.16026 0.39533 0.0
C142 C 0.76374 0.16501 0.38447 0.0
C143 C 0.80586 0.17146 0.3408 0.0
C144 C 0.86907 0.16183 0.37842 0.0
C145 C 0.75692 0.17082 0.35745 0.0
C146 C 0.05816 0.08709 0.2803 0.0
C147 C 0.91503 0.16427 0.33452 0.0
H148 H 0.14066 0.04472 0.10892 0.0
H149 H 0.10531 0.06485 0.18973 0.0
H150 H 0.12509 0.02513 0.15369 0.0
H151 H 0.1046 0.14636 0.13472 0.0
H152 H 0.72479 0.16352 0.39666 0.0
H153 H 0.79948 0.17535 0.31993 0.0
H154 H 0.91304 0.15885 0.38629 0.0
H155 H 0.71337 0.17426 0.34932 0.0
Tb156 Tb 0.46102 0.36901 0.72892 0.0
C157 C 0.71908 0.36134 0.77516 0.0
N158 N 0.67351 0.33945 0.77636 0.0
C159 C 0.73834 0.2944 0.76453 0.0
C160 C 0.77588 0.35095 0.76773 0.0
C161 C 0.68336 0.3059 0.77289 0.0
C162 C 0.78461 0.31716 0.76141 0.0
C163 C 0.75731 0.4159 0.78723 0.0
C164 C 0.70992 0.39331 0.78436 0.0
C165 C 0.81338 0.40654 0.77833 0.0
C166 C 0.82259 0.37412 0.76841 0.0
Tb167 Tb 0.5841 0.36086 0.78891 0.0
N168 N 0.65532 0.40106 0.79305 0.0
C169 C 0.74717 0.44657 0.79989 0.0
C170 C 0.64588 0.43009 0.80676 0.0
C171 C 0.69133 0.45349 0.81002 0.0
H172 H 0.64847 0.28791 0.77625 0.0
H173 H 0.68336 0.47672 0.82044 0.0
H174 H 0.33823 0.40091 0.75193 0.0
H175 H 0.4987 0.24681 0.6846 0.0
H176 H 0.603 0.43519 0.8149 0.0
H177 H 0.7824 0.46461 0.80258 0.0
H178 H 0.51497 0.30721 0.69038 0.0
H179 H 0.74517 0.26794 0.76088 0.0
H180 H 0.85024 0.42371 0.77991 0.0
H181 H 0.86647 0.36675 0.76253 0.0
H182 H 0.24309 0.38012 0.76933 0.0
H183 H 0.82747 0.30814 0.75547 0.0
H184 H 0.41722 0.21834 0.70796 0.0
N185 N 0.36983 0.35232 0.74266 0.0
C186 C 0.35756 0.31907 0.74127 0.0
C187 C 0.27506 0.36265 0.76162 0.0
C188 C 0.30445 0.30593 0.75115 0.0
C189 C 0.3287 0.3744 0.75169 0.0
C190 C 0.26323 0.32819 0.76173 0.0
N191 N 0.44782 0.31288 0.71941 0.0
C192 C 0.48121 0.29509 0.70192 0.0
C193 C 0.38653 0.26402 0.72639 0.0
C194 C 0.39855 0.2985 0.72959 0.0
C195 C 0.42498 0.24487 0.71111 0.0
C196 C 0.47133 0.26077 0.69808 0.0
H197 H 0.22181 0.31913 0.76955 0.0
H198 H 0.25389 0.26046 0.75756 0.0
H199 H 0.32552 0.22372 0.73547 0.0
O200 O 0.43925 0.36619 0.68882 0.0
O201 O 0.43685 0.35576 0.7695 0.0
O202 O 0.51583 0.32422 0.78004 0.0
O203 O 0.41843 0.41023 0.71107 0.0
O204 O 0.54883 0.35005 0.71975 0.0
O205 O 0.56842 0.32306 0.75821 0.0
O206 O 0.55655 0.36738 0.82853 0.0
O207 O 0.59225 0.40526 0.76308 0.0
O208 O 0.54667 0.39311 0.72294 0.0
O209 O 0.62011 0.33042 0.81846 0.0
O210 O 0.5133 0.39823 0.79546 0.0
O211 O 0.46245 0.41173 0.75613 0.0
C212 C 0.4608 0.332 0.78356 0.0
C213 C 0.36085 0.39845 0.67256 0.0
C214 C 0.31446 0.39486 0.62914 0.0
C215 C 0.26192 0.40689 0.64016 0.0
C216 C 0.30794 0.41026 0.68325 0.0
C217 C 0.25873 0.41434 0.66706 0.0
C218 C 0.36364 0.39069 0.64557 0.0
C219 C 0.58058 0.32894 0.73342 0.0
C220 C 0.4151 0.39553 0.68827 0.0
C221 C 0.29407 0.27121 0.74976 0.0
C222 C 0.33502 0.25027 0.73731 0.0
C223 C 0.57956 0.41224 0.73823 0.0
C224 C 0.6338 0.35722 0.8591 0.0
C225 C 0.65746 0.36212 0.90602 0.0
C226 C 0.71193 0.37657 0.89922 0.0
C227 C 0.68969 0.37019 0.8531 0.0
C228 C 0.61785 0.35306 0.88571 0.0
C229 C 0.72789 0.38037 0.87295 0.0
C230 C 0.47728 0.41721 0.7811 0.0
C231 C 0.59436 0.34593 0.83762 0.0
H232 H 0.22318 0.41018 0.62803 0.0
H233 H 0.30472 0.41662 0.70393 0.0
H234 H 0.218 0.42349 0.67537 0.0
H235 H 0.40481 0.38211 0.6372 0.0
H236 H 0.74255 0.38485 0.91423 0.0
H237 H 0.70466 0.3718 0.83309 0.0
H238 H 0.57572 0.34186 0.8905 0.0
H239 H 0.77046 0.39079 0.86795 0.0
Tb240 Tb 0.07491 0.87237 0.73867 0.0
C241 C 0.80602 0.84421 0.77046 0.0
N242 N 0.8372 0.87332 0.77079 0.0
C243 C 0.75375 0.90312 0.75406 0.0
C244 C 0.74701 0.84343 0.76206 0.0
C245 C 0.81193 0.90272 0.76298 0.0
C246 C 0.72113 0.87336 0.75358 0.0
C247 C 0.80207 0.78456 0.77977 0.0
C248 C 0.83336 0.81509 0.77892 0.0
C249 C 0.74306 0.78368 0.7716 0.0
C250 C 0.71573 0.81298 0.7626 0.0
Tb251 Tb 0.93125 0.8693 0.78593 0.0
N252 N 0.89084 0.81684 0.78624 0.0
C253 C 0.83116 0.75588 0.78874 0.0
C254 C 0.91891 0.78916 0.79569 0.0
C255 C 0.88977 0.75823 0.79679 0.0
H256 H 0.8361 0.92605 0.76413 0.0
H257 H 0.91237 0.73627 0.80408 0.0
H258 H 0.18326 0.84259 0.77506 0.0
H259 H 0.04407 0.9939 0.69266 0.0
H260 H 0.96344 0.79074 0.80265 0.0
H261 H 0.80873 0.73188 0.78965 0.0
H262 H 0.02683 0.93371 0.69843 0.0
H263 H 0.73391 0.92645 0.74785 0.0
H264 H 0.7183 0.76041 0.77202 0.0
H265 H 0.67029 0.81187 0.75625 0.0
H266 H 0.27136 0.86468 0.79772 0.0
H267 H 0.6759 0.87381 0.74689 0.0
H268 H 0.12296 0.02236 0.71776 0.0
N269 N 0.1589 0.88981 0.75918 0.0
C270 C 0.17321 0.92273 0.75633 0.0
C271 C 0.24397 0.88131 0.78623 0.0
C272 C 0.22296 0.93648 0.76891 0.0
C273 C 0.19388 0.86888 0.77351 0.0
C274 C 0.25842 0.91531 0.78406 0.0
N275 N 0.08865 0.92839 0.72972 0.0
C276 C 0.05818 0.94595 0.7111 0.0
C277 C 0.14971 0.97705 0.73788 0.0
C278 C 0.13646 0.94275 0.74137 0.0
C279 C 0.11424 0.99596 0.72105 0.0
C280 C 0.06924 0.98009 0.70708 0.0
H281 H 0.29704 0.92491 0.79406 0.0
H282 H 0.27344 0.9819 0.77559 0.0
H283 H 0.20936 0.01744 0.74838 0.0
O284 O 0.08501 0.87205 0.69709 0.0
O285 O 0.0748 0.89684 0.7778 0.0
O286 O 0.98072 0.91603 0.78223 0.0
O287 O 0.14758 0.84683 0.72256 0.0
O288 O 0.98835 0.88682 0.72243 0.0
O289 O 0.94002 0.91026 0.75778 0.0
O290 O 0.94579 0.86594 0.82683 0.0
O291 O 0.92773 0.83765 0.75029 0.0
O292 O 0.02403 0.82582 0.73939 0.0
O293 O 0.87048 0.89186 0.8117 0.0
O294 O 0.01331 0.84694 0.80038 0.0
O295 O 0.07492 0.82981 0.76619 0.0
C296 C 0.03746 0.91956 0.78595 0.0
C297 C 0.16691 0.84324 0.67536 0.0
C298 C 0.18582 0.84306 0.62776 0.0
C299 C 0.23024 0.81915 0.63179 0.0
C300 C 0.21176 0.8195 0.67868 0.0
C301 C 0.2431 0.8076 0.65704 0.0
C302 C 0.15431 0.85521 0.64976 0.0
C303 C 0.94684 0.90609 0.73232 0.0
C304 C 0.13256 0.85423 0.6986 0.0
C305 C 0.23539 0.97082 0.76609 0.0
C306 C 0.19879 0.99108 0.75066 0.0
C307 C 0.96725 0.8217 0.73606 0.0
C308 C 0.85987 0.86454 0.85286 0.0
C309 C 0.83536 0.85478 0.89925 0.0
C310 C 0.7921 0.83158 0.89115 0.0
C311 C 0.81491 0.8423 0.8455 0.0
C312 C 0.86972 0.87091 0.87979 0.0
C313 C 0.78176 0.82567 0.8645 0.0
C314 C 0.05712 0.82883 0.791 0.0
C315 C 0.89688 0.88104 0.83274 0.0
H316 H 0.25575 0.8097 0.61539 0.0
H317 H 0.22233 0.8098 0.69803 0.0
H318 H 0.27753 0.78927 0.65985 0.0
H319 H 0.11969 0.87345 0.6469 0.0
H320 H 0.76612 0.81779 0.90538 0.0
H321 H 0.80504 0.83783 0.82511 0.0
H322 H 0.90335 0.88884 0.88545 0.0
H323 H 0.74779 0.80816 0.85854 0.0
Tb324 Tb 0.42099 0.64749 0.23809 0.0
C325 C 0.68199 0.6696 0.27228 0.0
N326 N 0.65321 0.64013 0.26815 0.0
C327 C 0.73702 0.61802 0.24552 0.0
C328 C 0.74022 0.67418 0.26351 0.0
C329 C 0.67968 0.61439 0.25505 0.0
C330 C 0.76752 0.64801 0.24984 0.0
C331 C 0.68237 0.72551 0.29114 0.0
C332 C 0.65301 0.695 0.2858 0.0
C333 C 0.74055 0.73012 0.28257 0.0
C334 C 0.7695 0.70445 0.26895 0.0
Tb335 Tb 0.5624 0.63624 0.28656 0.0
N336 N 0.59686 0.68949 0.29422 0.0
C337 C 0.65287 0.75025 0.30543 0.0
C338 C 0.5701 0.7126 0.31007 0.0
C339 C 0.59674 0.74359 0.31517 0.0
H340 H 0.65718 0.59084 0.25244 0.0
H341 H 0.57466 0.76195 0.32735 0.0
H342 H 0.35125 0.71798 0.25423 0.0
H343 H 0.34915 0.51843 0.23158 0.0
H344 H 0.52958 0.70713 0.32004 0.0
H345 H 0.67378 0.77407 0.30981 0.0
H346 H 0.42017 0.56508 0.22801 0.0
H347 H 0.75795 0.59752 0.23519 0.0
H348 H 0.76372 0.75338 0.28652 0.0
H349 H 0.81443 0.70836 0.26254 0.0
H350 H 0.25332 0.73358 0.27113 0.0
H351 H 0.8122 0.6506 0.24271 0.0
H352 H 0.24803 0.5294 0.24728 0.0
N353 N 0.33197 0.66571 0.25294 0.0
C354 C 0.29019 0.6415 0.25572 0.0
C355 C 0.26327 0.70756 0.26705 0.0
C356 C 0.23327 0.64937 0.26469 0.0
C357 C 0.31898 0.69858 0.25786 0.0
C358 C 0.2203 0.68285 0.27062 0.0
N359 N 0.36069 0.60186 0.24184 0.0
C360 C 0.37641 0.57013 0.2347 0.0
C361 C 0.26251 0.5828 0.25193 0.0
C362 C 0.30456 0.60863 0.24941 0.0
C363 C 0.27902 0.54998 0.24556 0.0
C364 C 0.33612 0.54367 0.23676 0.0
H365 H 0.1771 0.68992 0.27763 0.0
H366 H 0.14723 0.62924 0.27425 0.0
H367 H 0.17285 0.57098 0.26309 0.0
O368 O 0.42931 0.63665 0.19743 0.0
O369 O 0.40956 0.61678 0.27378 0.0
O370 O 0.49936 0.59459 0.28651 0.0
O371 O 0.36518 0.67178 0.21135 0.0
O372 O 0.49704 0.6181 0.22476 0.0
O373 O 0.54826 0.59379 0.25958 0.0
O374 O 0.56161 0.63558 0.32798 0.0
O375 O 0.57512 0.66195 0.24828 0.0
O376 O 0.48639 0.68755 0.2394 0.0
O377 O 0.62566 0.60717 0.30665 0.0
O378 O 0.48134 0.65955 0.30091 0.0
O379 O 0.44348 0.68792 0.26534 0.0
C380 C 0.44164 0.5959 0.28782 0.0
C381 C 0.39592 0.6782 0.16701 0.0
C382 C 0.39337 0.68268 0.11869 0.0
C383 C 0.39853 0.71781 0.12134 0.0
C384 C 0.40119 0.7132 0.16888 0.0
C385 C 0.40317 0.73274 0.14615 0.0
C386 C 0.3931 0.66308 0.14194 0.0
C387 C 0.52823 0.59356 0.23509 0.0
C388 C 0.38768 0.65732 0.19081 0.0
C389 C 0.1912 0.62369 0.26734 0.0
C390 C 0.20575 0.59051 0.26094 0.0
C391 C 0.54293 0.68367 0.23511 0.0
C392 C 0.65319 0.62885 0.34867 0.0
C393 C 0.68559 0.63579 0.3943 0.0
C394 C 0.73333 0.65517 0.38547 0.0
C395 C 0.70252 0.64719 0.3403 0.0
C396 C 0.64538 0.62281 0.37577 0.0
C397 C 0.74188 0.66058 0.3586 0.0
C398 C 0.44655 0.68242 0.2908 0.0
C399 C 0.60823 0.61701 0.32977 0.0
H400 H 0.39733 0.73417 0.10437 0.0
H401 H 0.40337 0.72545 0.18791 0.0
H402 H 0.40693 0.75974 0.14777 0.0
H403 H 0.38973 0.63602 0.14079 0.0
H404 H 0.76505 0.66526 0.39932 0.0
H405 H 0.711 0.65109 0.31971 0.0
H406 H 0.60788 0.60825 0.38243 0.0
H407 H 0.77948 0.67495 0.35191 0.0
H408 H 0.17276 0.96488 0.39338 0.0
H409 H 0.10687 0.88224 0.34602 0.0
H410 H 0.07621 0.92209 0.31156 0.0
H411 H 0.05588 0.02369 0.37611 0.0
H412 H 0.1044 0.0595 0.37549 0.0
H413 H 0.1201 0.02462 0.39687 0.0
H414 H 0.22325 0.01891 0.37593 0.0
H415 H 0.20805 0.05359 0.35428 0.0
H416 H 0.22978 0.01368 0.34078 0.0
H417 H 0.05713 0.97047 0.28115 0.0
H418 H 0.03998 0.02519 0.25937 0.0
H419 H 0.11641 0.07642 0.32654 0.0
C420 C 0.15083 0.95527 0.37599 0.0
C421 C 0.14266 0.92042 0.3723 0.0
C422 C 0.11434 0.90881 0.34911 0.0
C423 C 0.09675 0.93123 0.32942 0.0
C424 C 0.10732 0.96528 0.33323 0.0
C425 C 0.1328 0.97737 0.3561 0.0
C426 C 0.13894 0.01523 0.35521 0.0
C427 C 0.10266 0.03173 0.37722 0.0
C428 C 0.20387 0.02596 0.35663 0.0
C429 C 0.11316 0.02241 0.32828 0.0
C430 C 0.09558 0.99323 0.31583 0.0
C431 C 0.07052 0.99351 0.29074 0.0
C432 C 0.06146 0.02457 0.27841 0.0
C433 C 0.07682 0.05473 0.29138 0.0
C434 C 0.1043 0.05356 0.3163 0.0
H435 H 0.42161 0.5615 0.88904 0.0
H436 H 0.26316 0.58563 0.84506 0.0
H437 H 0.28541 0.54076 0.81366 0.0
H438 H 0.51287 0.53915 0.83544 0.0
H439 H 0.54671 0.50372 0.85136 0.0
H440 H 0.51976 0.53821 0.87081 0.0
H441 H 0.45456 0.49742 0.8978 0.0
H442 H 0.48183 0.46275 0.87862 0.0
H443 H 0.40384 0.47005 0.88087 0.0
H444 H 0.3284 0.49733 0.78475 0.0
H445 H 0.38172 0.45173 0.76317 0.0
H446 H 0.50516 0.44866 0.82848 0.0
C447 C 0.39099 0.55714 0.87308 0.0
C448 C 0.34142 0.57818 0.8693 0.0
C449 C 0.3028 0.57118 0.848 0.0
C450 C 0.31465 0.54538 0.8301 0.0
C451 C 0.36444 0.52589 0.83403 0.0
C452 C 0.40131 0.53077 0.85528 0.0
C453 C 0.45085 0.50522 0.85514 0.0
C454 C 0.51111 0.52263 0.85306 0.0
C455 C 0.44755 0.48251 0.87956 0.0
C456 C 0.43646 0.48579 0.83018 0.0
C457 C 0.38678 0.49855 0.81826 0.0
C458 C 0.36658 0.48656 0.79419 0.0
C459 C 0.39738 0.46047 0.78208 0.0
C460 C 0.4473 0.44585 0.79423 0.0
C461 C 0.46695 0.45886 0.81871 0.0
H462 H 0.61961 0.56141 0.6337 0.0
H463 H 0.78313 0.58497 0.67423 0.0
H464 H 0.76356 0.54003 0.70596 0.0
H465 H 0.53437 0.53813 0.69091 0.0
H466 H 0.49768 0.50353 0.67491 0.0
H467 H 0.52198 0.53907 0.65584 0.0
H468 H 0.58182 0.49958 0.62552 0.0
H469 H 0.55761 0.46395 0.6445 0.0
H470 H 0.63507 0.47162 0.63987 0.0
H471 H 0.72777 0.49328 0.73342 0.0
H472 H 0.67979 0.44469 0.75359 0.0
H473 H 0.54287 0.44725 0.69446 0.0
C474 C 0.65145 0.55711 0.64917 0.0
C475 C 0.70238 0.57749 0.65164 0.0
C476 C 0.74275 0.57075 0.67228 0.0
C477 C 0.73239 0.54497 0.69034 0.0
C478 C 0.68191 0.52561 0.68739 0.0
C479 C 0.64228 0.531 0.66725 0.0
C480 C 0.59271 0.50538 0.66816 0.0
C481 C 0.53316 0.52257 0.67273 0.0
C482 C 0.59178 0.48386 0.64302 0.0
C483 C 0.61099 0.48489 0.69196 0.0
C484 C 0.66229 0.49732 0.70279 0.0
C485 C 0.68764 0.48322 0.72506 0.0
C486 C 0.65993 0.45555 0.73655 0.0
C487 C 0.60787 0.44184 0.72581 0.0
C488 C 0.58309 0.45684 0.7031 0.0
H489 H 0.90668 0.93277 0.14751 0.0
H490 H 0.71916 0.94787 0.15661 0.0
H491 H 0.73833 0.99889 0.18311 0.0
H492 H 0.94521 0.95826 0.2138 0.0
H493 H 0.013 0.97826 0.20408 0.0
H494 H 0.98451 0.94351 0.18523 0.0
H495 H 0.98699 0.9801 0.14306 0.0
H496 H 0.01486 0.01497 0.16191 0.0
H497 H 0.94883 0.01968 0.14271 0.0
H498 H 0.77789 0.0495 0.20671 0.0
H499 H 0.83497 0.09345 0.22938 0.0
H500 H 0.99694 0.04283 0.20857 0.0
C501 C 0.86984 0.94697 0.15508 0.0
C502 C 0.81146 0.93668 0.15002 0.0
C503 C 0.76415 0.95546 0.1604 0.0
C504 C 0.77462 0.98446 0.17535 0.0
C505 C 0.83268 0.99402 0.18 0.0
C506 C 0.87955 0.97565 0.17048 0.0
C507 C 0.93762 0.99081 0.17915 0.0
C508 C 0.9721 0.96624 0.1966 0.0
C509 C 0.9742 1.00205 0.15526 0.0
C510 C 0.91609 0.02065 0.19487 0.0
C511 C 0.85543 0.02221 0.19487 0.0
C512 C 0.82537 0.04813 0.2073 0.0
C513 C 0.85816 0.0728 0.22045 0.0
C514 C 0.92025 0.07102 0.22171 0.0
C515 C 0.94947 0.04476 0.20834 0.0
H516 H 0.84456 0.08309 0.67866 0.0
H517 H 0.78201 0.0322 0.60821 0.0
H518 H 0.80773 0.97785 0.62791 0.0
H519 H 0.96259 0.03353 0.69194 0.0
H520 H 0.95464 0.03136 0.72724 0.0
H521 H 0.92717 0.06709 0.7095 0.0
H522 H 0.82264 0.05855 0.72777 0.0
H523 H 0.84909 0.02373 0.74701 0.0
H524 H 0.78763 0.01805 0.72501 0.0
H525 H 0.85191 0.92959 0.65301 0.0
H526 H 0.90096 0.89069 0.68411 0.0
H527 H 0.92255 0.97209 0.73989 0.0
C528 C 0.83455 0.06061 0.66755 0.0
C529 C 0.81213 0.0623 0.64157 0.0
C530 C 0.80086 0.03193 0.62778 0.0
C531 C 0.81471 1.00078 0.63891 0.0
C532 C 0.83821 1.00018 0.6642 0.0
C533 C 0.84665 0.02922 0.67862 0.0
C534 C 0.87323 0.02167 0.70531 0.0
C535 C 0.93295 0.03944 0.70869 0.0
C536 C 0.83059 0.03106 0.72759 0.0
C537 C 0.88027 0.98402 0.70322 0.0
C538 C 0.86003 0.97206 0.67933 0.0
C539 C 0.8666 0.93851 0.67205 0.0
C540 C 0.89457 0.91666 0.6897 0.0
C541 C 0.91448 0.92842 0.71441 0.0
C542 C 0.90648 0.96238 0.72133 0.0
H543 H 0.68468 0.42385 0.18526 0.0
H544 H 0.55188 0.42283 0.12349 0.0
H545 H 0.51161 0.47518 0.14038 0.0
H546 H 0.57893 0.45336 0.23568 0.0
H547 H 0.63321 0.47803 0.25293 0.0
H548 H 0.65495 0.44071 0.23546 0.0
H549 H 0.73088 0.47564 0.20904 0.0
H550 H 0.70869 0.51317 0.22612 0.0
H551 H 0.70654 0.5117 0.19066 0.0
H552 H 0.49275 0.53022 0.15969 0.0
H553 H 0.47877 0.57958 0.18742 0.0
H554 H 0.60781 0.54135 0.24297 0.0
C555 C 0.64675 0.43434 0.17544 0.0
C556 C 0.62379 0.41975 0.15205 0.0
C557 C 0.57314 0.43425 0.14034 0.0
C558 C 0.54918 0.46394 0.14998 0.0
C559 C 0.57435 0.47834 0.17216 0.0
C560 C 0.62041 0.46358 0.18546 0.0
C561 C 0.63565 0.48365 0.21005 0.0
C562 C 0.62504 0.46269 0.23502 0.0
C563 C 0.69922 0.49681 0.20889 0.0
C564 C 0.59171 0.5122 0.2079 0.0
C565 C 0.55799 0.50876 0.18548 0.0
C566 C 0.51769 0.53287 0.17773 0.0
C567 C 0.51036 0.56103 0.19368 0.0
C568 C 0.5415 0.5645 0.21774 0.0
C569 C 0.58299 0.53961 0.22486 0.0
H570 H 0.39435 0.43148 0.37675 0.0
H571 H 0.20987 0.45784 0.37994 0.0
H572 H 0.23028 0.50915 0.35396 0.0
H573 H 0.45413 0.51604 0.38061 0.0
H574 H 0.51239 0.50815 0.35739 0.0
H575 H 0.48402 0.47442 0.37734 0.0
H576 H 0.46175 0.43983 0.33525 0.0
H577 H 0.49008 0.47344 0.31519 0.0
H578 H 0.41662 0.45782 0.30974 0.0
H579 H 0.27062 0.55758 0.32872 0.0
H580 H 0.32658 0.59869 0.30285 0.0
H581 H 0.4846 0.53907 0.31242 0.0
C582 C 0.3586 0.44835 0.3721 0.0
C583 C 0.30066 0.44123 0.38042 0.0
C584 C 0.25449 0.46325 0.37375 0.0
C585 C 0.26572 0.49234 0.35909 0.0
C586 C 0.32328 0.49871 0.35104 0.0
C587 C 0.36895 0.47727 0.35708 0.0
C588 C 0.4262 0.48935 0.34492 0.0
C589 C 0.47188 0.49747 0.36635 0.0
C590 C 0.45005 0.46357 0.3251 0.0
C591 C 0.40551 0.52093 0.33115 0.0
C592 C 0.34611 0.52593 0.33521 0.0
C593 C 0.31696 0.55366 0.32506 0.0
C594 C 0.34915 0.57672 0.3101 0.0
C595 C 0.40967 0.57165 0.30477 0.0
C596 C 0.43828 0.54351 0.31581 0.0
H597 H 0.21146 0.04429 0.88207 0.0
H598 H 0.11256 0.12492 0.84607 0.0
H599 H 0.06621 0.08446 0.81548 0.0
H600 H 0.23868 0.99937 0.821 0.0
H601 H 0.23143 0.95806 0.8351 0.0
H602 H 0.25751 0.9925 0.85501 0.0
H603 H 0.17532 0.98272 0.88916 0.0
H604 H 0.14964 0.94739 0.87021 0.0
H605 H 0.09983 0.98088 0.87842 0.0
H606 H 0.02658 0.03567 0.79085 0.0
H607 H 0.99692 0.98085 0.7726 0.0
H608 H 0.12591 0.93127 0.82175 0.0
C609 C 0.1799 0.05321 0.86774 0.0
C610 C 0.1651 0.08755 0.86635 0.0
C611 C 0.12423 0.09864 0.84729 0.0
C612 C 0.09788 0.0759 0.82987 0.0
C613 C 0.11359 0.04223 0.83152 0.0
C614 C 0.15385 0.03083 0.84981 0.0
C615 C 0.16284 0.99325 0.84718 0.0
C616 C 0.2264 0.98531 0.83908 0.0
C617 C 0.14587 0.97499 0.87276 0.0
C618 C 0.12008 0.98526 0.82509 0.0
C619 C 0.0923 0.01399 0.81638 0.0
C620 C 0.0484 0.01303 0.7973 0.0
C621 C 0.03164 0.98182 0.78715 0.0
C622 C 0.05917 0.95205 0.79581 0.0
C623 C 0.10475 0.95382 0.81464 0.0
H624 H 0.17863 0.08357 0.96147 0.0
H625 H 0.2001 0.19222 0.96113 0.0
H626 H 0.18416 0.1933 1.00868 0.0
H627 H 0.05566 0.08606 1.00789 0.0
H628 H 0.07592 0.04708 0.02334 0.0
H629 H 0.09306 0.05418 0.98915 0.0
H630 H 0.2028 0.04196 0.99869 0.0
H631 H 0.18608 0.03512 0.03294 0.0
H632 H 0.24066 0.06581 0.0237 0.0
H633 H 0.17423 0.18235 0.05699 0.0
H634 H 0.15685 0.16171 0.10146 0.0
H635 H 0.11916 0.06232 0.06952 0.0
C636 C 0.17931 0.1078 0.97104 0.0
C637 C 0.19291 0.13764 0.95696 0.0
C638 C 0.19309 0.16855 0.97102 0.0
C639 C 0.18313 0.16962 0.99823 0.0
C640 C 0.17079 0.13981 1.0113 0.0
C641 C 0.16721 0.1096 0.99812 0.0
C642 C 0.14966 0.08154 0.01676 0.0
C643 C 0.09002 0.06633 1.00881 0.0
C644 C 0.19767 0.05452 0.01809 0.0
C645 C 0.14521 0.10072 0.04253 0.0
C646 C 0.15851 0.13416 0.03893 0.0
C647 C 0.16187 0.15638 0.05998 0.0
C648 C 0.15093 0.14424 0.08542 0.0
C649 C 0.13469 0.11017 0.08986 0.0
C650 C 0.13163 0.08838 0.06767 0.0
H651 H 0.26753 0.42402 0.4746 0.0
H652 H 0.34682 0.32666 0.46166 0.0
H653 H 0.36402 0.321 0.50961 0.0
H654 H 0.36264 0.45079 0.5289 0.0
H655 H 0.30355 0.47105 0.54633 0.0
H656 H 0.30173 0.46833 0.51091 0.0
H657 H 0.19967 0.43944 0.51335 0.0
H658 H 0.20135 0.44179 0.54876 0.0
H659 H 0.19099 0.40185 0.53272 0.0
H660 H 0.36995 0.32543 0.55912 0.0
H661 H 0.36227 0.33892 0.60654 0.0
H662 H 0.27601 0.43263 0.58727 0.0
C663 C 0.28953 0.40181 0.48186 0.0
C664 C 0.30642 0.37588 0.46447 0.0
C665 C 0.33371 0.3468 0.4747 0.0
C666 C 0.34372 0.34343 0.50186 0.0
C667 C 0.32576 0.36925 0.51853 0.0
C668 C 0.29918 0.39788 0.50893 0.0
C669 C 0.28134 0.42117 0.53112 0.0
C670 C 0.3143 0.45483 0.5292 0.0
C671 C 0.21436 0.42635 0.5315 0.0
C672 C 0.30158 0.40108 0.55475 0.0
C673 C 0.32761 0.37136 0.54705 0.0
C674 C 0.34979 0.34867 0.56536 0.0
C675 C 0.34535 0.35657 0.59223 0.0
C676 C 0.31845 0.38677 0.60059 0.0
C677 C 0.29625 0.4092 0.5815 0.0
H678 H 0.73872 0.33925 0.05763 0.0
H679 H 0.55926 0.36757 0.07561 0.0
H680 H 0.53468 0.36637 0.0283 0.0
H681 H 0.75364 0.38942 1.0018 0.0
H682 H 0.797 0.36011 0.98308 0.0
H683 H 0.79903 0.35914 0.01849 0.0
H684 H 0.76865 0.29642 0.01798 0.0
H685 H 0.7668 0.29716 0.98249 0.0
H686 H 0.70293 0.28376 1.00072 0.0
H687 H 0.53185 0.36775 0.97898 0.0
H688 H 0.55168 0.37166 0.93121 0.0
H689 H 0.73187 0.34074 0.94509 0.0
C690 C 0.694 0.34438 0.05158 0.0
C691 C 0.6509 0.35354 0.07021 0.0
C692 C 0.59303 0.36073 0.06157 0.0
C693 C 0.57854 0.35993 0.03477 0.0
C694 C 0.62229 0.35167 0.01679 0.0
C695 C 0.67877 0.3438 0.02479 0.0
C696 C 0.71847 0.33808 1.00128 0.0
C697 C 0.77006 0.36319 1.00117 0.0
C698 C 0.7405 0.30168 1.00058 0.0
C699 C 0.67593 0.34491 0.97895 0.0
C700 C 0.62052 0.35235 0.98827 0.0
C701 C 0.57486 0.36144 0.97138 0.0
C702 C 0.58643 0.36346 0.94425 0.0
C703 C 0.6433 0.3566 0.93432 0.0
C704 C 0.68803 0.34649 0.952 0.0
H705 H 0.74754 0.16475 0.55001 0.0
H706 H 0.89922 0.10041 0.56128 0.0
H707 H 0.91807 0.10138 0.51355 0.0
H708 H 0.69884 0.13001 0.48948 0.0
H709 H 0.67812 0.16952 0.475 0.0
H710 H 0.67641 0.16438 0.51023 0.0
H711 H 0.74554 0.21568 0.51586 0.0
H712 H 0.74703 0.22119 0.48064 0.0
H713 H 0.81484 0.21663 0.49865 0.0
H714 H 0.91713 0.10624 0.46463 0.0
H715 H 0.90147 0.11818 0.41773 0.0
H716 H 0.75583 0.18369 0.43797 0.0
C717 C 0.78524 0.15126 0.54253 0.0
C718 C 0.82137 0.1321 0.55949 0.0
C719 C 0.86995 0.11459 0.54872 0.0
C720 C 0.88134 0.11517 0.52162 0.0
C721 C 0.84429 0.13376 0.50547 0.0
C722 C 0.7977 0.15186 0.51549 0.0
C723 C 0.76491 0.16988 0.49368 0.0
C724 C 0.70077 0.15771 0.49201 0.0
C725 C 0.7683 0.20811 0.49743 0.0
C726 C 0.80001 0.15871 0.46986 0.0
C727 C 0.84539 0.13777 0.47716 0.0
C728 C 0.88246 0.12314 0.45869 0.0
C729 C 0.8734 0.13037 0.43201 0.0
C730 C 0.82808 0.15249 0.4239 0.0
C731 C 0.79083 0.16666 0.44328 0.0
H732 H 0.73287 0.86739 0.04913 0.0
H733 H 0.91416 0.88654 0.07088 0.0
H734 H 0.9428 0.88463 0.02375 0.0
H735 H 0.76023 0.81009 0.9969 0.0
H736 H 0.70175 0.82563 0.97635 0.0
H737 H 0.69626 0.82899 1.01162 0.0
H738 H 0.68089 0.89319 1.00753 0.0
H739 H 0.6863 0.89003 0.97222 0.0
H740 H 0.73426 0.91815 0.98998 0.0
H741 H 0.95137 0.87754 0.97386 0.0
H742 H 0.93881 0.86798 0.92608 0.0
H743 H 0.75041 0.85769 0.93768 0.0
C744 C 0.77863 0.87106 0.04395 0.0
C745 C 0.82148 0.87682 0.06355 0.0
C746 C 0.88076 0.88211 0.05606 0.0
C747 C 0.89736 0.88101 0.0294 0.0
C748 C 0.85394 0.8751 1.01052 0.0
C749 C 0.79571 0.87055 0.01751 0.0
C750 C 0.75729 0.86494 0.99359 0.0
C751 C 0.72713 0.83036 0.99469 0.0
C752 C 0.71203 0.89327 0.99066 0.0
C753 C 0.80305 0.86639 0.97202 0.0
C754 C 0.85858 0.87222 0.98206 0.0
C755 C 0.90794 0.87334 0.96578 0.0
C756 C 0.90029 0.8681 0.93859 0.0
C757 C 0.84361 0.86197 0.9279 0.0
C758 C 0.79455 0.86168 0.94503 0.0
H759 H 0.70614 0.67335 0.54839 0.0
H760 H 0.71778 0.5654 0.55957 0.0
H761 H 0.69817 0.55687 0.51252 0.0
H762 H 0.59555 0.67366 0.49691 0.0
H763 H 0.63067 0.70688 0.47862 0.0
H764 H 0.63889 0.70485 0.51389 0.0
H765 H 0.75223 0.70464 0.50885 0.0
H766 H 0.74438 0.70696 0.47363 0.0
H767 H 0.78636 0.67349 0.48819 0.0
H768 H 0.67945 0.5596 0.46388 0.0
H769 H 0.67525 0.57387 0.41649 0.0
H770 H 0.6859 0.67962 0.43602 0.0
C771 C 0.70487 0.64785 0.5411 0.0
C772 C 0.71241 0.62011 0.55821 0.0
C773 C 0.71007 0.58723 0.54742 0.0
C774 C 0.69934 0.58202 0.52053 0.0
C775 C 0.69194 0.60988 0.50439 0.0
C776 C 0.69549 0.64216 0.51417 0.0
C777 C 0.69082 0.66779 0.49222 0.0
C778 C 0.63569 0.68957 0.49562 0.0
C779 C 0.74678 0.68949 0.49063 0.0
C780 C 0.68511 0.6448 0.46854 0.0
C781 C 0.6845 0.6115 0.47608 0.0
C782 C 0.67986 0.58559 0.45773 0.0
C783 C 0.67718 0.59389 0.4309 0.0
C784 C 0.68024 0.62777 0.4227 0.0
C785 C 0.6835 0.65351 0.44183 0.0
H786 H 0.39325 0.67973 0.96083 0.0
H787 H 0.29526 0.58642 0.96473 0.0
H788 H 0.30486 0.58651 0.01331 0.0
H789 H 0.49569 0.65976 0.01507 0.0
H790 H 0.49766 0.70251 0.02665 0.0
H791 H 0.4858 0.69386 0.99221 0.0
H792 H 0.38961 0.72844 0.99355 0.0
H793 H 0.40091 0.73698 0.02799 0.0
H794 H 0.33337 0.71767 0.01712 0.0
H795 H 0.31556 0.60053 0.06174 0.0
H796 H 0.33286 0.62443 0.10565 0.0
H797 H 0.43354 0.70562 0.07011 0.0
C798 C 0.37456 0.6591 0.97194 0.0
C799 C 0.34361 0.633 0.95908 0.0
C800 C 0.31966 0.60644 0.97421 0.0
C801 C 0.3247 0.60638 1.0018 0.0
C802 C 0.35473 0.63276 0.01394 0.0
C803 C 0.38015 0.65834 0.99945 0.0
C804 C 0.40939 0.68395 0.0173 0.0
C805 C 0.4761 0.68507 0.01252 0.0
C806 C 0.38165 0.71881 0.01377 0.0
C807 C 0.39508 0.6693 0.04411 0.0
C808 C 0.36337 0.63987 0.04176 0.0
C809 C 0.34162 0.62315 0.06381 0.0
C810 C 0.35229 0.63691 0.08886 0.0
C811 C 0.38529 0.66702 0.09194 0.0
C812 C 0.40757 0.6829 0.06897 0.0
H813 H 0.17398 0.82426 0.47179 0.0
H814 H 0.18314 0.93288 0.4665 0.0
H815 H 0.17336 0.93674 0.51486 0.0
H816 H 0.07203 0.81892 0.52686 0.0
H817 H 0.1093 0.78362 0.54135 0.0
H818 H 0.11085 0.78964 0.50618 0.0
H819 H 0.22476 0.7888 0.50687 0.0
H820 H 0.22356 0.78259 0.54196 0.0
H821 H 0.26382 0.81742 0.52817 0.0
H822 H 0.16804 0.9283 0.56473 0.0
H823 H 0.17405 0.9082 0.61086 0.0
H824 H 0.17299 0.80539 0.58296 0.0
C825 C 0.17412 0.84896 0.48065 0.0
C826 C 0.17931 0.87827 0.46504 0.0
C827 C 0.17826 0.91 0.47776 0.0
C828 C 0.17295 0.91246 0.50531 0.0
C829 C 0.16873 0.88299 0.52003 0.0
C830 C 0.16948 0.85186 0.50807 0.0
C831 C 0.16806 0.8239 0.52825 0.0
C832 C 0.1117 0.80278 0.52549 0.0
C833 C 0.22334 0.8019 0.52619 0.0
C834 C 0.16771 0.8441 0.55352 0.0
C835 C 0.16713 0.87816 0.54846 0.0
C836 C 0.16818 0.90167 0.56887 0.0
C837 C 0.17127 0.89005 0.59502 0.0
C838 C 0.17409 0.85526 0.60052 0.0
C839 C 0.17114 0.83215 0.5794 0.0
H840 H 0.23757 0.33582 0.34489 0.0
H841 H 0.16128 0.31249 0.4213 0.0
H842 H 0.10599 0.26598 0.40133 0.0
H843 H 0.10176 0.31919 0.3075 0.0
H844 H 0.14101 0.30211 0.27974 0.0
H845 H 0.17486 0.33394 0.29996 0.0
H846 H 0.2641 0.29486 0.30851 0.0
H847 H 0.23002 0.2638 0.28788 0.0
H848 H 0.25121 0.25309 0.32098 0.0
H849 H 0.06541 0.21929 0.37413 0.0
H850 H 0.03572 0.17799 0.34075 0.0
H851 H 0.12665 0.23544 0.28061 0.0
C852 C 0.20846 0.32149 0.35747 0.0
C853 C 0.20503 0.32783 0.38492 0.0
C854 C 0.1667 0.30778 0.40045 0.0
C855 C 0.13431 0.28144 0.38922 0.0
C856 C 0.13936 0.27581 0.36227 0.0
C857 C 0.17458 0.29559 0.34648 0.0
C858 C 0.17194 0.28408 0.31801 0.0
C859 C 0.14582 0.31147 0.30026 0.0
C860 C 0.23301 0.2733 0.30832 0.0
C861 C 0.1306 0.25428 0.32037 0.0
C862 C 0.11272 0.24994 0.34616 0.0
C863 C 0.07802 0.22286 0.35377 0.0
C864 C 0.06119 0.19954 0.33456 0.0
C865 C 0.07789 0.20364 0.30785 0.0
C866 C 0.1126 0.23169 0.3007 0.0
H867 H 0.33825 0.16614 0.85284 0.0
H868 H 0.21966 0.22999 0.89691 0.0
H869 H 0.26073 0.27992 0.87452 0.0
H870 H 0.46309 0.22269 0.85494 0.0
H871 H 0.48748 0.21243 0.82214 0.0
H872 H 0.44816 0.18173 0.84136 0.0
H873 H 0.37173 0.17552 0.80382 0.0
H874 H 0.41014 0.20656 0.78455 0.0
H875 H 0.3334 0.2121 0.79213 0.0
H876 H 0.30991 0.32235 0.84511 0.0
H877 H 0.37257 0.35521 0.81461 0.0
H878 H 0.46452 0.26448 0.7923 0.0
C879 C 0.32126 0.19069 0.85781 0.0
C880 C 0.27593 0.19435 0.87661 0.0
C881 C 0.2548 0.22679 0.88274 0.0
C882 C 0.27755 0.25521 0.87001 0.0
C883 C 0.3219 0.25078 0.85143 0.0
C884 C 0.34419 0.21941 0.8456 0.0
C885 C 0.39292 0.22171 0.82531 0.0
C886 C 0.45137 0.20889 0.83662 0.0
C887 C 0.37603 0.20285 0.79996 0.0
C888 C 0.39473 0.25925 0.82078 0.0
C889 C 0.35262 0.27549 0.83564 0.0
C890 C 0.3437 0.30999 0.83372 0.0
C891 C 0.37931 0.32841 0.81638 0.0
C892 C 0.42393 0.31236 0.80171 0.0
C893 C 0.43163 0.27738 0.8039 0.0
H894 H 0.70213 0.1591 0.67225 0.0
H895 H 0.81546 0.22044 0.62279 0.0
H896 H 0.78127 0.27101 0.64586 0.0
H897 H 0.58409 0.21176 0.6758 0.0
H898 H 0.56686 0.20535 0.71015 0.0
H899 H 0.60324 0.17296 0.69172 0.0
H900 H 0.68882 0.17181 0.72493 0.0
H901 H 0.65276 0.20365 0.74424 0.0
H902 H 0.72707 0.21014 0.73299 0.0
H903 H 0.72829 0.3153 0.67121 0.0
H904 H 0.66287 0.35014 0.69885 0.0
H905 H 0.58986 0.26035 0.73429 0.0
C906 C 0.72102 0.18298 0.6666 0.0
C907 C 0.76106 0.18554 0.64531 0.0
C908 C 0.78356 0.21763 0.63845 0.0
C909 C 0.76499 0.24657 0.65169 0.0
C910 C 0.7249 0.24312 0.67222 0.0
C911 C 0.70391 0.21211 0.67998 0.0
C912 C 0.65994 0.21548 0.70227 0.0
C913 C 0.59995 0.20054 0.69452 0.0
C914 C 0.68357 0.19931 0.72761 0.0
C915 C 0.65739 0.25332 0.70492 0.0
C916 C 0.69575 0.26875 0.68757 0.0
C917 C 0.69889 0.30354 0.68521 0.0
C918 C 0.66157 0.32308 0.70086 0.0
C919 C 0.62231 0.30781 0.71881 0.0
C920 C 0.62058 0.27252 0.72106 0.0
H921 H 0.78202 0.33965 0.18104 0.0
H922 H 0.6817 0.26847 0.1342 0.0
H923 H 0.73037 0.22171 0.15701 0.0
H924 H 0.91533 0.29424 0.18159 0.0
H925 H 0.93462 0.30439 0.2151 0.0
H926 H 0.88965 0.33269 0.19628 0.0
H927 H 0.80922 0.33019 0.23235 0.0
H928 H 0.85406 0.3019 0.25132 0.0
H929 H 0.78011 0.29007 0.24242 0.0
H930 H 0.7948 0.18286 0.18161 0.0
H931 H 0.86972 0.15375 0.20825 0.0
H932 H 0.9256 0.24873 0.24164 0.0
C933 C 0.76963 0.31422 0.17592 0.0
C934 C 0.72838 0.30777 0.15561 0.0
C935 C 0.71392 0.2741 0.14929 0.0
C936 C 0.74097 0.24733 0.1623 0.0
C937 C 0.78206 0.2545 0.18183 0.0
C938 C 0.79616 0.28705 0.18884 0.0
C939 C 0.84352 0.28757 0.20996 0.0
C940 C 0.89906 0.3058 0.20013 0.0
C941 C 0.82032 0.30337 0.23553 0.0
C942 C 0.85438 0.25026 0.21335 0.0
C943 C 0.81829 0.23174 0.19686 0.0
C944 C 0.8226 0.197 0.19492 0.0
C945 C 0.86526 0.18071 0.21003 0.0
C946 C 0.90238 0.19905 0.22715 0.0
C947 C 0.89656 0.23421 0.22911 0.0
H948 H 0.73872 0.70052 0.66377 0.0
H949 H 0.87401 0.67856 0.60626 0.0
H950 H 0.94031 0.71959 0.62794 0.0
H951 H 0.77103 0.79072 0.67168 0.0
H952 H 0.75633 0.78957 0.70655 0.0
H953 H 0.7183 0.76122 0.68472 0.0
H954 H 0.75438 0.71108 0.71261 0.0
H955 H 0.79412 0.73884 0.73415 0.0
H956 H 0.83214 0.70531 0.71778 0.0
H957 H 0.99535 0.75843 0.65936 0.0
H958 H 0.03063 0.7961 0.69474 0.0
H959 H 0.85724 0.79376 0.73019 0.0
C960 C 0.78186 0.70493 0.6554 0.0
C961 C 0.80126 0.68654 0.63329 0.0
C962 C 0.85809 0.69276 0.62297 0.0
C963 C 0.89612 0.71583 0.63528 0.0
C964 C 0.87628 0.7327 0.65765 0.0
C965 C 0.82002 0.72798 0.66728 0.0
C966 C 0.8101 0.74788 0.69226 0.0
C967 C 0.76103 0.7739 0.68857 0.0
C968 C 0.7969 0.72437 0.71556 0.0
C969 C 0.86954 0.76456 0.69527 0.0
C970 C 0.90742 0.75528 0.67531 0.0
C971 C 0.96574 0.76617 0.67488 0.0
C972 C 0.98548 0.78739 0.69519 0.0
C973 C 0.94686 0.79781 0.71553 0.0
C974 C 0.88812 0.78625 0.71527 0.0
H975 H 0.75796 0.82382 0.17716 0.0
H976 H 0.65764 0.81891 0.10454 0.0
H977 H 0.59741 0.77293 0.12315 0.0
H978 H 0.75829 0.73491 0.18906 0.0
H979 H 0.75186 0.73902 0.22417 0.0
H980 H 0.78792 0.77139 0.20549 0.0
H981 H 0.71723 0.81604 0.22433 0.0
H982 H 0.6817 0.78418 0.24382 0.0
H983 H 0.63894 0.80965 0.22167 0.0
H984 H 0.54655 0.72809 0.15038 0.0
H985 H 0.5087 0.6891 0.18444 0.0
H986 H 0.64007 0.72483 0.2391 0.0
C987 C 0.72301 0.8133 0.16521 0.0
C988 C 0.71255 0.82503 0.13937 0.0
C989 C 0.66701 0.8101 0.12426 0.0
C990 C 0.63238 0.78406 0.13471 0.0
C991 C 0.64396 0.77315 0.16026 0.0
C992 C 0.68812 0.78736 0.1753 0.0
C993 C 0.69186 0.77104 0.20216 0.0
C994 C 0.75102 0.75304 0.20539 0.0
C995 C 0.68181 0.79677 0.22429 0.0
C996 C 0.64155 0.74618 0.2003 0.0
C997 C 0.61487 0.74751 0.17585 0.0
C998 C 0.56695 0.72711 0.16962 0.0
C999 C 0.54518 0.7054 0.18909 0.0
C1000 C 0.57057 0.70447 0.21445 0.0
C1001 C 0.62007 0.72469 0.21991 0.0
H1002 H 0.29762 0.84449 0.3536 0.0
H1003 H 0.22851 0.77973 0.41514 0.0
H1004 H 0.27735 0.73126 0.39442 0.0
H1005 H 0.27422 0.78607 0.30104 0.0
H1006 H 0.33981 0.79769 0.2833 0.0
H1007 H 0.30307 0.8281 0.3037 0.0
H1008 H 0.39895 0.83862 0.32999 0.0
H1009 H 0.43655 0.80875 0.30944 0.0
H1010 H 0.43668 0.80361 0.3447 0.0
H1011 H 0.3328 0.68971 0.36671 0.0
H1012 H 0.39142 0.65815 0.3341 0.0
H1013 H 0.41869 0.7493 0.28913 0.0
C1014 C 0.29229 0.82014 0.36273 0.0
C1015 C 0.25903 0.8161 0.38612 0.0
C1016 C 0.25443 0.78374 0.39754 0.0
C1017 C 0.28159 0.75595 0.38576 0.0
C1018 C 0.31285 0.76082 0.36246 0.0
C1019 C 0.31831 0.7921 0.35106 0.0
C1020 C 0.35315 0.79047 0.32564 0.0
C1021 C 0.3153 0.80122 0.30202 0.0
C1022 C 0.40969 0.81161 0.32757 0.0
C1023 C 0.36677 0.75337 0.32458 0.0
C1024 C 0.34325 0.73674 0.34606 0.0
C1025 C 0.3512 0.70245 0.34979 0.0
C1026 C 0.38457 0.68479 0.33122 0.0
C1027 C 0.40897 0.70136 0.30911 0.0
C1028 C 0.39962 0.73602 0.30567 0.0
H1029 H 0.29029 0.69246 0.8423 0.0
H1030 H 0.20495 0.70046 0.9187 0.0
H1031 H 0.14086 0.74455 0.9013 0.0
H1032 H 0.28081 0.78059 0.82371 0.0
H1033 H 0.264 0.77162 0.78974 0.0
H1034 H 0.30784 0.74271 0.8086 0.0
H1035 H 0.23485 0.69471 0.79744 0.0
H1036 H 0.19082 0.72347 0.77857 0.0
H1037 H 0.15794 0.69976 0.80499 0.0
H1038 H 0.08301 0.78594 0.87578 0.0
H1039 H 0.03385 0.82193 0.84356 0.0
H1040 H 0.14987 0.7848 0.78212 0.0
C1041 C 0.25825 0.70339 0.85548 0.0
C1042 C 0.25376 0.69293 0.88216 0.0
C1043 C 0.21109 0.7084 0.89851 0.0
C1044 C 0.17381 0.73335 0.88872 0.0
C1045 C 0.17893 0.74256 0.86238 0.0
C1046 C 0.21988 0.72808 0.84591 0.0
C1047 C 0.21388 0.74151 0.81801 0.0
C1048 C 0.26998 0.76022 0.80952 0.0
C1049 C 0.19845 0.71317 0.79861 0.0
C1050 C 0.16281 0.76556 0.82142 0.0
C1051 C 0.14388 0.7659 0.84727 0.0
C1052 C 0.0975 0.78595 0.85548 0.0
C1053 C 0.06973 0.80635 0.83687 0.0
C1054 C 0.08787 0.80655 0.8101 0.0
C1055 C 0.13503 0.78559 0.80236 0.0
loop_
_geom_bond_atom_site_label_1
_geom_bond_atom_site_label_2
_geom_bond_distance
_geom_bond_site_symmetry_2
_ccdc_geom_bond_type
H0 C3 0.931 . S
H1 C6 0.928 . S
H2 C8 0.930 . S
C3 H0 0.931 . S
C3 C4 1.413 . S
C3 C5 1.360 . S
C4 C3 1.413 . S
C4 C8 1.429 . S
C5 C3 1.360 . S
C5 C6 1.372 . S
C6 H1 0.928 . S
C6 C5 1.372 . S
C6 C7 1.404 . S
C7 C6 1.404 . S
C7 C8 1.391 . S
C8 H2 0.930 . S
C8 C4 1.429 . S
C8 C7 1.391 . S
H9 C12 0.931 . S
H10 C15 0.928 . S
H11 C17 0.930 . S
C12 H9 0.931 . S
C12 C13 1.413 . S
C12 C14 1.360 . S
C13 C12 1.413 . S
C13 C17 1.429 . S
C14 C12 1.360 . S
C14 C15 1.372 . S
C15 H10 0.928 . S
C15 C14 1.372 . S
C15 C16 1.404 . S
C16 C15 1.404 . S
C16 C17 1.391 . S
C17 H11 0.930 . S
C17 C13 1.429 . S
C17 C16 1.391 . S
H18 C21 0.931 . S
H19 C24 0.928 . S
H20 C26 0.930 . S
C21 H18 0.931 . S
C21 C22 1.413 . S
C21 C23 1.360 . S
C22 C21 1.413 . S
C22 C26 1.429 . S
C23 C21 1.360 . S
C23 C24 1.372 . S
C24 H19 0.928 . S
C24 C23 1.372 . S
C24 C25 1.404 . S
C25 C24 1.404 . S
C25 C26 1.391 . S
C26 H20 0.930 . S
C26 C22 1.429 . S
C26 C25 1.391 . S
H27 C30 0.931 . S
H28 C33 0.928 . S
H29 C35 0.930 . S
C30 H27 0.931 . S
C30 C31 1.413 . S
C30 C32 1.360 . S
C31 C30 1.413 . S
C31 C35 1.429 . S
C32 C30 1.360 . S
C32 C33 1.372 . S
C33 H28 0.928 . S
C33 C32 1.372 . S
C33 C34 1.404 . S
C34 C33 1.404 . S
C34 C35 1.391 . S
C35 H29 0.930 . S
C35 C31 1.429 . S
C35 C34 1.391 . S
H36 C39 0.931 . S
H37 C42 0.928 . S
H38 C44 0.930 . S
C39 H36 0.931 . S
C39 C40 1.413 . S
C39 C41 1.360 . S
C40 C39 1.413 . S
C40 C44 1.429 . S
C41 C39 1.360 . S
C41 C42 1.372 . S
C42 H37 0.928 . S
C42 C41 1.372 . S
C42 C43 1.404 . S
C43 C42 1.404 . S
C43 C44 1.391 . S
C44 H38 0.930 . S
C44 C40 1.429 . S
C44 C43 1.391 . S
H45 C48 0.931 . S
H46 C51 0.928 . S
H47 C53 0.930 . S
C48 H45 0.931 . S
C48 C49 1.413 . S
C48 C50 1.360 . S
C49 C48 1.413 . S
C49 C53 1.429 . S
C50 C48 1.360 . S
C50 C51 1.372 . S
C51 H46 0.928 . S
C51 C50 1.372 . S
C51 C52 1.404 . S
C52 C51 1.404 . S
C52 C53 1.391 . S
C53 H47 0.930 . S
C53 C49 1.429 . S
C53 C52 1.391 . S
H54 C57 0.931 . S
H55 C60 0.928 . S
H56 C62 0.930 . S
C57 H54 0.931 . S
C57 C58 1.413 . S
C57 C59 1.360 . S
C58 C57 1.413 . S
C58 C62 1.429 . S
C59 C57 1.360 . S
C59 C60 1.372 . S
C60 H55 0.928 . S
C60 C59 1.372 . S
C60 C61 1.404 . S
C61 C60 1.404 . S
C61 C62 1.391 . S
C62 H56 0.930 . S
C62 C58 1.429 . S
C62 C61 1.391 . S
H63 C66 0.931 . S
H64 C69 0.928 . S
H65 C71 0.930 . S
C66 H63 0.931 . S
C66 C67 1.413 . S
C66 C68 1.360 . S
C67 C66 1.413 . S
C67 C71 1.429 . S
C68 C66 1.360 . S
C68 C69 1.372 . S
C69 H64 0.928 . S
C69 C68 1.372 . S
C69 C70 1.404 . S
C70 C69 1.404 . S
C70 C71 1.391 . S
C71 H65 0.930 . S
C71 C67 1.429 . S
C71 C70 1.391 . S
Tb72 N101 2.617 . S
Tb72 N107 2.572 . S
Tb72 O116 2.465 . S
Tb72 O117 2.387 . S
Tb72 O119 2.428 . S
Tb72 O120 2.296 1_455 S
Tb72 O124 2.359 . S
Tb72 O127 2.393 . S
Tb72 C136 2.802 . S
C73 N74 1.379 . S
C73 C76 1.416 . S
C73 C80 1.424 . S
N74 C73 1.379 . S
N74 C77 1.334 . S
N74 Tb83 2.617 . S
C75 C77 1.390 . S
C75 C78 1.339 . S
C75 H95 0.930 . S
C76 C73 1.416 . S
C76 C78 1.416 . S
C76 C82 1.448 . S
C77 N74 1.334 . S
C77 C75 1.390 . S
C77 H88 0.930 . S
C78 C75 1.339 . S
C78 C76 1.416 . S
C78 H99 0.930 . S
C79 C80 1.413 . S
C79 C81 1.427 . S
C79 C85 1.416 . S
C80 C73 1.424 . S
C80 C79 1.413 . S
C80 N84 1.361 . S
C81 C79 1.427 . S
C81 C82 1.328 . S
C81 H96 0.929 . S
C82 C76 1.448 . S
C82 C81 1.328 . S
C82 H97 0.930 . S
Tb83 N74 2.617 . S
Tb83 N84 2.572 . S
Tb83 O118 2.337 1_655 S
Tb83 O121 2.393 . S
Tb83 O122 2.465 . S
Tb83 O123 2.387 . S
Tb83 O125 2.428 . S
Tb83 O126 2.308 1_655 S
Tb83 C147 2.802 . S
N84 C80 1.361 . S
N84 Tb83 2.572 . S
N84 C86 1.340 . S
C85 C79 1.416 . S
C85 C87 1.332 . S
C85 H93 0.931 . S
C86 N84 1.340 . S
C86 C87 1.407 . S
C86 H92 0.930 . S
C87 C85 1.332 . S
C87 C86 1.407 . S
C87 H89 0.929 . S
H88 C77 0.930 . S
H89 C87 0.929 . S
H90 C105 0.930 . S
H91 C112 0.929 . S
H92 C86 0.930 . S
H93 C85 0.931 . S
H94 C108 0.930 . S
H95 C75 0.930 . S
H96 C81 0.929 . S
H97 C82 0.930 . S
H98 C103 0.930 . S
H99 C78 0.930 . S
H100 C111 0.931 . S
N101 Tb72 2.617 . S
N101 C102 1.379 . S
N101 C105 1.334 . S
C102 N101 1.379 . S
C102 C104 1.416 . S
C102 C110 1.424 . S
C103 H98 0.930 . S
C103 C105 1.390 . S
C103 C106 1.339 . S
C104 C102 1.416 . S
C104 C106 1.416 . S
C104 C137 1.448 . S
C105 H90 0.930 . S
C105 N101 1.334 . S
C105 C103 1.390 . S
C106 C103 1.339 . S
C106 C104 1.416 . S
C106 H113 0.930 . S
N107 Tb72 2.572 . S
N107 C108 1.340 . S
N107 C110 1.361 . S
C108 H94 0.930 . S
C108 N107 1.340 . S
C108 C112 1.407 . S
C109 C110 1.413 . S
C109 C111 1.416 . S
C109 C138 1.427 . S
C110 C102 1.424 . S
C110 N107 1.361 . S
C110 C109 1.413 . S
C111 H100 0.931 . S
C111 C109 1.416 . S
C111 C112 1.332 . S
C112 H91 0.929 . S
C112 C108 1.407 . S
C112 C111 1.332 . S
H113 C106 0.930 . S
H114 C137 0.930 . S
H115 C138 0.929 . S
O116 Tb72 2.465 . S
O116 C136 1.264 . S
O117 Tb72 2.387 . S
O117 C128 1.264 . S
O118 Tb83 2.337 1_455 S
O118 C128 1.258 . S
O119 Tb72 2.428 . S
O119 C136 1.256 . S
O120 Tb72 2.296 1_655 S
O120 C135 1.281 . S
O121 Tb83 2.393 . S
O121 C135 1.248 . S
O122 Tb83 2.465 . S
O122 C147 1.264 . S
O123 Tb83 2.387 . S
O123 C139 1.264 . S
O124 Tb72 2.359 . S
O124 C139 1.231 1_455 S
O125 Tb83 2.428 . S
O125 C147 1.256 . S
O126 Tb83 2.308 1_455 S
O126 C146 1.266 . S
O127 Tb72 2.393 . S
O127 C146 1.248 . S
C128 O117 1.264 . S
C128 O118 1.258 . S
C129 C132 1.399 . S
C129 C134 1.383 . S
C129 C136 1.496 . S
C130 C131 1.399 . S
C130 C134 1.389 . S
C131 C130 1.399 . S
C131 C133 1.380 . S
C131 H148 0.929 . S
C132 C129 1.399 . S
C132 C133 1.392 . S
C132 H149 0.929 . S
C133 C131 1.380 . S
C133 C132 1.392 . S
C133 H150 0.929 . S
C134 C129 1.383 . S
C134 C130 1.389 . S
C134 H151 0.931 . S
C135 O120 1.281 . S
C135 O121 1.248 . S
C136 Tb72 2.802 . S
C136 O116 1.264 . S
C136 O119 1.256 . S
C136 C129 1.496 . S
C137 C104 1.448 . S
C137 H114 0.930 . S
C137 C138 1.328 . S
C138 C109 1.427 . S
C138 H115 0.929 . S
C138 C137 1.328 . S
C139 O123 1.264 . S
C139 O124 1.231 1_655 S
C140 C143 1.399 . S
C140 C144 1.383 . S
C140 C147 1.496 . S
C141 C142 1.399 . S
C141 C144 1.389 . S
C142 C141 1.399 . S
C142 C145 1.380 . S
C142 H152 0.929 . S
C143 C140 1.399 . S
C143 C145 1.392 . S
C143 H153 0.929 . S
C144 C140 1.383 . S
C144 C141 1.389 . S
C144 H154 0.931 . S
C145 C142 1.380 . S
C145 C143 1.392 . S
C145 H155 0.929 . S
C146 O126 1.266 . S
C146 O127 1.248 . S
C147 Tb83 2.802 . S
C147 O122 1.264 . S
C147 O125 1.256 . S
C147 C140 1.496 . S
H148 C131 0.929 . S
H149 C132 0.929 . S
H150 C133 0.929 . S
H151 C134 0.931 . S
H152 C142 0.929 . S
H153 C143 0.929 . S
H154 C144 0.931 . S
H155 C145 0.929 . S
Tb156 N185 2.617 . S
Tb156 N191 2.572 . S
Tb156 O200 2.465 . S
Tb156 O201 2.387 . S
Tb156 O203 2.428 . S
Tb156 O204 2.308 . S
Tb156 O208 2.349 . S
Tb156 O211 2.393 . S
Tb156 C220 2.802 . S
C157 N158 1.379 . S
C157 C160 1.416 . S
C157 C164 1.424 . S
N158 C157 1.379 . S
N158 C161 1.334 . S
N158 Tb167 2.617 . S
C159 C161 1.390 . S
C159 C162 1.339 . S
C159 H179 0.930 . S
C160 C157 1.416 . S
C160 C162 1.416 . S
C160 C166 1.448 . S
C161 N158 1.334 . S
C161 C159 1.390 . S
C161 H172 0.930 . S
C162 C159 1.339 . S
C162 C160 1.416 . S
C162 H183 0.930 . S
C163 C164 1.413 . S
C163 C165 1.427 . S
C163 C169 1.416 . S
C164 C157 1.424 . S
C164 C163 1.413 . S
C164 N168 1.361 . S
C165 C163 1.427 . S
C165 C166 1.328 . S
C165 H180 0.929 . S
C166 C160 1.448 . S
C166 C165 1.328 . S
C166 H181 0.930 . S
Tb167 N158 2.617 . S
Tb167 N168 2.572 . S
Tb167 O202 2.349 . S
Tb167 O205 2.393 . S
Tb167 O206 2.465 . S
Tb167 O207 2.387 . S
Tb167 O209 2.428 . S
Tb167 O210 2.308 . S
Tb167 C231 2.802 . S
N168 C164 1.361 . S
N168 Tb167 2.572 . S
N168 C170 1.340 . S
C169 C163 1.416 . S
C169 C171 1.332 . S
C169 H177 0.931 . S
C170 N168 1.340 . S
C170 C171 1.407 . S
C170 H176 0.930 . S
C171 C169 1.332 . S
C171 C170 1.407 . S
C171 H173 0.929 . S
H172 C161 0.930 . S
H173 C171 0.929 . S
H174 C189 0.930 . S
H175 C196 0.929 . S
H176 C170 0.930 . S
H177 C169 0.931 . S
H178 C192 0.930 . S
H179 C159 0.930 . S
H180 C165 0.929 . S
H181 C166 0.930 . S
H182 C187 0.930 . S
H183 C162 0.930 . S
H184 C195 0.931 . S
N185 Tb156 2.617 . S
N185 C186 1.379 . S
N185 C189 1.334 . S
C186 N185 1.379 . S
C186 C188 1.416 . S
C186 C194 1.424 . S
C187 H182 0.930 . S
C187 C189 1.390 . S
C187 C190 1.339 . S
C188 C186 1.416 . S
C188 C190 1.416 . S
C188 C221 1.448 . S
C189 H174 0.930 . S
C189 N185 1.334 . S
C189 C187 1.390 . S
C190 C187 1.339 . S
C190 C188 1.416 . S
C190 H197 0.930 . S
N191 Tb156 2.572 . S
N191 C192 1.340 . S
N191 C194 1.361 . S
C192 H178 0.930 . S
C192 N191 1.340 . S
C192 C196 1.407 . S
C193 C194 1.413 . S
C193 C195 1.416 . S
C193 C222 1.427 . S
C194 C186 1.424 . S
C194 N191 1.361 . S
C194 C193 1.413 . S
C195 H184 0.931 . S
C195 C193 1.416 . S
C195 C196 1.332 . S
C196 H175 0.929 . S
C196 C192 1.407 . S
C196 C195 1.332 . S
H197 C190 0.930 . S
H198 C221 0.930 . S
H199 C222 0.929 . S
O200 Tb156 2.465 . S
O200 C220 1.264 . S
O201 Tb156 2.387 . S
O201 C212 1.264 . S
O202 Tb167 2.349 . S
O202 C212 1.243 . S
O203 Tb156 2.428 . S
O203 C220 1.256 . S
O204 Tb156 2.308 . S
O204 C219 1.266 . S
O205 Tb167 2.393 . S
O205 C219 1.248 . S
O206 Tb167 2.465 . S
O206 C231 1.264 . S
O207 Tb167 2.387 . S
O207 C223 1.264 . S
O208 Tb156 2.349 . S
O208 C223 1.243 . S
O209 Tb167 2.428 . S
O209 C231 1.256 . S
O210 Tb167 2.308 . S
O210 C230 1.266 . S
O211 Tb156 2.393 . S
O211 C230 1.248 . S
C212 O201 1.264 . S
C212 O202 1.243 . S
C213 C216 1.399 . S
C213 C218 1.383 . S
C213 C220 1.496 . S
C214 C215 1.399 . S
C214 C218 1.389 . S
C215 C214 1.399 . S
C215 C217 1.380 . S
C215 H232 0.929 . S
C216 C213 1.399 . S
C216 C217 1.392 . S
C216 H233 0.929 . S
C217 C215 1.380 . S
C217 C216 1.392 . S
C217 H234 0.929 . S
C218 C213 1.383 . S
C218 C214 1.389 . S
C218 H235 0.931 . S
C219 O204 1.266 . S
C219 O205 1.248 . S
C220 Tb156 2.802 . S
C220 O200 1.264 . S
C220 O203 1.256 . S
C220 C213 1.496 . S
C221 C188 1.448 . S
C221 H198 0.930 . S
C221 C222 1.328 . S
C222 C193 1.427 . S
C222 H199 0.929 . S
C222 C221 1.328 . S
C223 O207 1.264 . S
C223 O208 1.243 . S
C224 C227 1.399 . S
C224 C228 1.383 . S
C224 C231 1.496 . S
C225 C226 1.399 . S
C225 C228 1.389 . S
C226 C225 1.399 . S
C226 C229 1.380 . S
C226 H236 0.929 . S
C227 C224 1.399 . S
C227 C229 1.392 . S
C227 H237 0.929 . S
C228 C224 1.383 . S
C228 C225 1.389 . S
C228 H238 0.931 . S
C229 C226 1.380 . S
C229 C227 1.392 . S
C229 H239 0.929 . S
C230 O210 1.266 . S
C230 O211 1.248 . S
C231 Tb167 2.802 . S
C231 O206 1.264 . S
C231 O209 1.256 . S
C231 C224 1.496 . S
H232 C215 0.929 . S
H233 C216 0.929 . S
H234 C217 0.929 . S
H235 C218 0.931 . S
H236 C226 0.929 . S
H237 C227 0.929 . S
H238 C228 0.931 . S
H239 C229 0.929 . S
Tb240 N269 2.617 . S
Tb240 N275 2.572 . S
Tb240 O284 2.465 . S
Tb240 O285 2.387 . S
Tb240 O287 2.428 . S
Tb240 O288 2.308 . S
Tb240 O292 2.349 . S
Tb240 O295 2.393 . S
Tb240 C304 2.802 . S
C241 N242 1.379 . S
C241 C244 1.416 . S
C241 C248 1.424 . S
N242 C241 1.379 . S
N242 C245 1.334 . S
N242 Tb251 2.617 . S
C243 C245 1.390 . S
C243 C246 1.339 . S
C243 H263 0.930 . S
C244 C241 1.416 . S
C244 C246 1.416 . S
C244 C250 1.448 . S
C245 N242 1.334 . S
C245 C243 1.390 . S
C245 H256 0.930 . S
C246 C243 1.339 . S
C246 C244 1.416 . S
C246 H267 0.930 . S
C247 C248 1.413 . S
C247 C249 1.427 . S
C247 C253 1.416 . S
C248 C241 1.424 . S
C248 C247 1.413 . S
C248 N252 1.361 . S
C249 C247 1.427 . S
C249 C250 1.328 . S
C249 H264 0.929 . S
C250 C244 1.448 . S
C250 C249 1.328 . S
C250 H265 0.930 . S
Tb251 N242 2.617 . S
Tb251 N252 2.572 . S
Tb251 O286 2.349 1_655 S
Tb251 O289 2.393 . S
Tb251 O290 2.465 . S
Tb251 O291 2.387 . S
Tb251 O293 2.428 . S
Tb251 O294 2.308 1_655 S
Tb251 C315 2.802 . S
N252 C248 1.361 . S
N252 Tb251 2.572 . S
N252 C254 1.340 . S
C253 C247 1.416 . S
C253 C255 1.332 . S
C253 H261 0.931 . S
C254 N252 1.340 . S
C254 C255 1.407 . S
C254 H260 0.930 . S
C255 C253 1.332 . S
C255 C254 1.407 . S
C255 H257 0.929 . S
H256 C245 0.930 . S
H257 C255 0.929 . S
H258 C273 0.930 . S
H259 C280 0.929 . S
H260 C254 0.930 . S
H261 C253 0.931 . S
H262 C276 0.930 . S
H263 C243 0.930 . S
H264 C249 0.929 . S
H265 C250 0.930 . S
H266 C271 0.930 . S
H267 C246 0.930 . S
H268 C279 0.931 . S
N269 Tb240 2.617 . S
N269 C270 1.379 . S
N269 C273 1.334 . S
C270 N269 1.379 . S
C270 C272 1.416 . S
C270 C278 1.424 . S
C271 H266 0.930 . S
C271 C273 1.390 . S
C271 C274 1.339 . S
C272 C270 1.416 . S
C272 C274 1.416 . S
C272 C305 1.448 . S
C273 H258 0.930 . S
C273 N269 1.334 . S
C273 C271 1.390 . S
C274 C271 1.339 . S
C274 C272 1.416 . S
C274 H281 0.930 . S
N275 Tb240 2.572 . S
N275 C276 1.340 . S
N275 C278 1.361 . S
C276 H262 0.930 . S
C276 N275 1.340 . S
C276 C280 1.407 . S
C277 C278 1.413 . S
C277 C279 1.416 . S
C277 C306 1.427 . S
C278 C270 1.424 . S
C278 N275 1.361 . S
C278 C277 1.413 . S
C279 H268 0.931 . S
C279 C277 1.416 . S
C279 C280 1.332 . S
C280 H259 0.929 . S
C280 C276 1.407 . S
C280 C279 1.332 . S
H281 C274 0.930 . S
H282 C305 0.930 . S
H283 C306 0.929 . S
O284 Tb240 2.465 . S
O284 C304 1.264 . S
O285 Tb240 2.387 . S
O285 C296 1.264 . S
O286 Tb251 2.349 1_455 S
O286 C296 1.243 . S
O287 Tb240 2.428 . S
O287 C304 1.256 . S
O288 Tb240 2.308 . S
O288 C303 1.266 1_455 S
O289 Tb251 2.393 . S
O289 C303 1.248 . S
O290 Tb251 2.465 . S
O290 C315 1.264 . S
O291 Tb251 2.387 . S
O291 C307 1.264 . S
O292 Tb240 2.349 . S
O292 C307 1.243 1_455 S
O293 Tb251 2.428 . S
O293 C315 1.256 . S
O294 Tb251 2.308 1_455 S
O294 C314 1.266 . S
O295 Tb240 2.393 . S
O295 C314 1.248 . S
C296 O285 1.264 . S
C296 O286 1.243 . S
C297 C300 1.399 . S
C297 C302 1.383 . S
C297 C304 1.496 . S
C298 C299 1.399 . S
C298 C302 1.389 . S
C299 C298 1.399 . S
C299 C301 1.380 . S
C299 H316 0.929 . S
C300 C297 1.399 . S
C300 C301 1.392 . S
C300 H317 0.929 . S
C301 C299 1.380 . S
C301 C300 1.392 . S
C301 H318 0.929 . S
C302 C297 1.383 . S
C302 C298 1.389 . S
C302 H319 0.931 . S
C303 O288 1.266 1_655 S
C303 O289 1.248 . S
C304 Tb240 2.802 . S
C304 O284 1.264 . S
C304 O287 1.256 . S
C304 C297 1.496 . S
C305 C272 1.448 . S
C305 H282 0.930 . S
C305 C306 1.328 . S
C306 C277 1.427 . S
C306 H283 0.929 . S
C306 C305 1.328 . S
C307 O291 1.264 . S
C307 O292 1.243 1_655 S
C308 C311 1.399 . S
C308 C312 1.383 . S
C308 C315 1.496 . S
C309 C310 1.399 . S
C309 C312 1.389 . S
C310 C309 1.399 . S
C310 C313 1.380 . S
C310 H320 0.929 . S
C311 C308 1.399 . S
C311 C313 1.392 . S
C311 H321 0.929 . S
C312 C308 1.383 . S
C312 C309 1.389 . S
C312 H322 0.931 . S
C313 C310 1.380 . S
C313 C311 1.392 . S
C313 H323 0.929 . S
C314 O294 1.266 . S
C314 O295 1.248 . S
C315 Tb251 2.802 . S
C315 O290 1.264 . S
C315 O293 1.256 . S
C315 C308 1.496 . S
H316 C299 0.929 . S
H317 C300 0.929 . S
H318 C301 0.929 . S
H319 C302 0.931 . S
H320 C310 0.929 . S
H321 C311 0.929 . S
H322 C312 0.931 . S
H323 C313 0.929 . S
Tb324 N353 2.617 . S
Tb324 N359 2.572 . S
Tb324 O368 2.465 . S
Tb324 O369 2.387 . S
Tb324 O371 2.428 . S
Tb324 O372 2.308 . S
Tb324 O376 2.349 . S
Tb324 O379 2.393 . S
Tb324 C388 2.802 . S
C325 N326 1.379 . S
C325 C328 1.416 . S
C325 C332 1.424 . S
N326 C325 1.379 . S
N326 C329 1.334 . S
N326 Tb335 2.617 . S
C327 C329 1.390 . S
C327 C330 1.339 . S
C327 H347 0.930 . S
C328 C325 1.416 . S
C328 C330 1.416 . S
C328 C334 1.448 . S
C329 N326 1.334 . S
C329 C327 1.390 . S
C329 H340 0.930 . S
C330 C327 1.339 . S
C330 C328 1.416 . S
C330 H351 0.930 . S
C331 C332 1.413 . S
C331 C333 1.427 . S
C331 C337 1.416 . S
C332 C325 1.424 . S
C332 C331 1.413 . S
C332 N336 1.361 . S
C333 C331 1.427 . S
C333 C334 1.328 . S
C333 H348 0.929 . S
C334 C328 1.448 . S
C334 C333 1.328 . S
C334 H349 0.930 . S
Tb335 N326 2.617 . S
Tb335 N336 2.572 . S
Tb335 O370 2.349 . S
Tb335 O373 2.393 . S
Tb335 O374 2.465 . S
Tb335 O375 2.387 . S
Tb335 O377 2.428 . S
Tb335 O378 2.308 . S
Tb335 C399 2.802 . S
N336 C332 1.361 . S
N336 Tb335 2.572 . S
N336 C338 1.340 . S
C337 C331 1.416 . S
C337 C339 1.332 . S
C337 H345 0.931 . S
C338 N336 1.340 . S
C338 C339 1.407 . S
C338 H344 0.930 . S
C339 C337 1.332 . S
C339 C338 1.407 . S
C339 H341 0.929 . S
H340 C329 0.930 . S
H341 C339 0.929 . S
H342 C357 0.930 . S
H343 C364 0.929 . S
H344 C338 0.930 . S
H345 C337 0.931 . S
H346 C360 0.930 . S
H347 C327 0.930 . S
H348 C333 0.929 . S
H349 C334 0.930 . S
H350 C355 0.930 . S
H351 C330 0.930 . S
H352 C363 0.931 . S
N353 Tb324 2.617 . S
N353 C354 1.379 . S
N353 C357 1.334 . S
C354 N353 1.379 . S
C354 C356 1.416 . S
C354 C362 1.424 . S
C355 H350 0.930 . S
C355 C357 1.390 . S
C355 C358 1.339 . S
C356 C354 1.416 . S
C356 C358 1.416 . S
C356 C389 1.448 . S
C357 H342 0.930 . S
C357 N353 1.334 . S
C357 C355 1.390 . S
C358 C355 1.339 . S
C358 C356 1.416 . S
C358 H365 0.930 . S
N359 Tb324 2.572 . S
N359 C360 1.340 . S
N359 C362 1.361 . S
C360 H346 0.930 . S
C360 N359 1.340 . S
C360 C364 1.407 . S
C361 C362 1.413 . S
C361 C363 1.416 . S
C361 C390 1.427 . S
C362 C354 1.424 . S
C362 N359 1.361 . S
C362 C361 1.413 . S
C363 H352 0.931 . S
C363 C361 1.416 . S
C363 C364 1.332 . S
C364 H343 0.929 . S
C364 C360 1.407 . S
C364 C363 1.332 . S
H365 C358 0.930 . S
H366 C389 0.930 . S
H367 C390 0.929 . S
O368 Tb324 2.465 . S
O368 C388 1.264 . S
O369 Tb324 2.387 . S
O369 C380 1.264 . S
O370 Tb335 2.349 . S
O370 C380 1.243 . S
O371 Tb324 2.428 . S
O371 C388 1.256 . S
O372 Tb324 2.308 . S
O372 C387 1.266 . S
O373 Tb335 2.393 . S
O373 C387 1.248 . S
O374 Tb335 2.465 . S
O374 C399 1.264 . S
O375 Tb335 2.387 . S
O375 C391 1.264 . S
O376 Tb324 2.349 . S
O376 C391 1.243 . S
O377 Tb335 2.428 . S
O377 C399 1.256 . S
O378 Tb335 2.308 . S
O378 C398 1.266 . S
O379 Tb324 2.393 . S
O379 C398 1.248 . S
C380 O369 1.264 . S
C380 O370 1.243 . S
C381 C384 1.399 . S
C381 C386 1.383 . S
C381 C388 1.496 . S
C382 C383 1.399 . S
C382 C386 1.389 . S
C383 C382 1.399 . S
C383 C385 1.380 . S
C383 H400 0.929 . S
C384 C381 1.399 . S
C384 C385 1.392 . S
C384 H401 0.929 . S
C385 C383 1.380 . S
C385 C384 1.392 . S
C385 H402 0.929 . S
C386 C381 1.383 . S
C386 C382 1.389 . S
C386 H403 0.931 . S
C387 O372 1.266 . S
C387 O373 1.248 . S
C388 Tb324 2.802 . S
C388 O368 1.264 . S
C388 O371 1.256 . S
C388 C381 1.496 . S
C389 C356 1.448 . S
C389 H366 0.930 . S
C389 C390 1.328 . S
C390 C361 1.427 . S
C390 H367 0.929 . S
C390 C389 1.328 . S
C391 O375 1.264 . S
C391 O376 1.243 . S
C392 C395 1.399 . S
C392 C396 1.383 . S
C392 C399 1.496 . S
C393 C394 1.399 . S
C393 C396 1.389 . S
C394 C393 1.399 . S
C394 C397 1.380 . S
C394 H404 0.929 . S
C395 C392 1.399 . S
C395 C397 1.392 . S
C395 H405 0.929 . S
C396 C392 1.383 . S
C396 C393 1.389 . S
C396 H406 0.931 . S
C397 C394 1.380 . S
C397 C395 1.392 . S
C397 H407 0.929 . S
C398 O378 1.266 . S
C398 O379 1.248 . S
C399 Tb335 2.802 . S
C399 O374 1.264 . S
C399 O377 1.256 . S
C399 C392 1.496 . S
H400 C383 0.929 . S
H401 C384 0.929 . S
H402 C385 0.929 . S
H403 C386 0.931 . S
H404 C394 0.929 . S
H405 C395 0.929 . S
H406 C396 0.931 . S
H407 C397 0.929 . S
H408 C420 0.930 . S
H409 C422 0.930 . S
H410 C423 0.930 . S
H411 C427 0.959 . S
H412 C427 0.959 . S
H413 C427 0.961 . S
H414 C428 0.960 . S
H415 C428 0.961 . S
H416 C428 0.959 . S
H417 C431 0.929 1_565 S
H418 C432 0.940 . S
H419 C434 0.930 . S
C420 H408 0.930 . S
C420 C421 1.399 . S
C420 C425 1.399 . S
C421 C420 1.399 . S
C421 C422 1.376 . S
C422 H409 0.930 . S
C422 C421 1.376 . S
C422 C423 1.388 . S
C423 H410 0.930 . S
C423 C422 1.388 . S
C423 C424 1.390 . S
C424 C423 1.390 . S
C424 C425 1.394 . S
C424 C430 1.465 1_565 S
C425 C420 1.399 . S
C425 C424 1.394 . S
C425 C426 1.516 1_565 S
C426 C425 1.516 1_545 S
C426 C427 1.502 . S
C426 C428 1.561 . S
C426 C429 1.526 . S
C427 H411 0.959 . S
C427 H412 0.959 . S
C427 H413 0.961 . S
C427 C426 1.502 . S
C428 H414 0.960 . S
C428 H415 0.961 . S
C428 H416 0.959 . S
C428 C426 1.561 . S
C429 C426 1.526 . S
C429 C430 1.396 . S
C429 C434 1.390 . S
C430 C424 1.465 1_545 S
C430 C429 1.396 . S
C430 C431 1.399 . S
C431 H417 0.929 1_545 S
C431 C430 1.399 . S
C431 C432 1.385 . S
C432 H418 0.940 . S
C432 C431 1.385 . S
C432 C433 1.389 . S
C433 C432 1.389 . S
C433 C434 1.387 . S
C434 H419 0.930 . S
C434 C429 1.390 . S
C434 C433 1.387 . S
H435 C447 0.930 . S
H436 C449 0.930 . S
H437 C450 0.930 . S
H438 C454 0.959 . S
H439 C454 0.959 . S
H440 C454 0.961 . S
H441 C455 0.960 . S
H442 C455 0.961 . S
H443 C455 0.959 . S
H444 C458 0.929 . S
H445 C459 0.931 . S
H446 C461 0.930 . S
C447 H435 0.930 . S
C447 C448 1.399 . S
C447 C452 1.399 . S
C448 C447 1.399 . S
C448 C449 1.376 . S
C449 H436 0.930 . S
C449 C448 1.376 . S
C449 C450 1.388 . S
C450 H437 0.930 . S
C450 C449 1.388 . S
C450 C451 1.390 . S
C451 C450 1.390 . S
C451 C452 1.394 . S
C451 C457 1.465 . S
C452 C447 1.399 . S
C452 C451 1.394 . S
C452 C453 1.516 . S
C453 C452 1.516 . S
C453 C454 1.502 . S
C453 C455 1.561 . S
C453 C456 1.526 . S
C454 H438 0.959 . S
C454 H439 0.959 . S
C454 H440 0.961 . S
C454 C453 1.502 . S
C455 H441 0.960 . S
C455 H442 0.961 . S
C455 H443 0.959 . S
C455 C453 1.561 . S
C456 C453 1.526 . S
C456 C457 1.396 . S
C456 C461 1.390 . S
C457 C451 1.465 . S
C457 C456 1.396 . S
C457 C458 1.399 . S
C458 H444 0.929 . S
C458 C457 1.399 . S
C458 C459 1.385 . S
C459 H445 0.931 . S
C459 C458 1.385 . S
C459 C460 1.389 . S
C460 C459 1.389 . S
C460 C461 1.387 . S
C461 H446 0.930 . S
C461 C456 1.390 . S
C461 C460 1.387 . S
H462 C474 0.930 . S
H463 C476 0.930 . S
H464 C477 0.930 . S
H465 C481 0.959 . S
H466 C481 0.959 . S
H467 C481 0.961 . S
H468 C482 0.960 . S
H469 C482 0.961 . S
H470 C482 0.959 . S
H471 C485 0.929 . S
H472 C486 0.931 . S
H473 C488 0.930 . S
C474 H462 0.930 . S
C474 C475 1.399 . S
C474 C479 1.399 . S
C475 C474 1.399 . S
C475 C476 1.376 . S
C476 H463 0.930 . S
C476 C475 1.376 . S
C476 C477 1.388 . S
C477 H464 0.930 . S
C477 C476 1.388 . S
C477 C478 1.390 . S
C478 C477 1.390 . S
C478 C479 1.394 . S
C478 C484 1.465 . S
C479 C474 1.399 . S
C479 C478 1.394 . S
C479 C480 1.516 . S
C480 C479 1.516 . S
C480 C481 1.502 . S
C480 C482 1.561 . S
C480 C483 1.526 . S
C481 H465 0.959 . S
C481 H466 0.959 . S
C481 H467 0.961 . S
C481 C480 1.502 . S
C482 H468 0.960 . S
C482 H469 0.961 . S
C482 H470 0.959 . S
C482 C480 1.561 . S
C483 C480 1.526 . S
C483 C484 1.396 . S
C483 C488 1.390 . S
C484 C478 1.465 . S
C484 C483 1.396 . S
C484 C485 1.399 . S
C485 H471 0.929 . S
C485 C484 1.399 . S
C485 C486 1.385 . S
C486 H472 0.931 . S
C486 C485 1.385 . S
C486 C487 1.389 . S
C487 C486 1.389 . S
C487 C488 1.387 . S
C488 H473 0.930 . S
C488 C483 1.390 . S
C488 C487 1.387 . S
H489 C501 0.930 . S
H490 C503 0.930 . S
H491 C504 0.930 . S
H492 C508 0.959 . S
H493 C508 0.959 . S
H494 C508 0.961 . S
H495 C509 0.960 . S
H496 C509 0.961 . S
H497 C509 0.959 . S
H498 C512 0.929 . S
H499 C513 0.931 . S
H500 C515 0.930 . S
C501 H489 0.930 . S
C501 C502 1.399 . S
C501 C506 1.399 . S
C502 C501 1.399 . S
C502 C503 1.376 . S
C503 H490 0.930 . S
C503 C502 1.376 . S
C503 C504 1.388 . S
C504 H491 0.930 . S
C504 C503 1.388 . S
C504 C505 1.390 . S
C505 C504 1.390 . S
C505 C506 1.394 . S
C505 C511 1.465 1_565 S
C506 C501 1.399 . S
C506 C505 1.394 . S
C506 C507 1.516 1_565 S
C507 C506 1.516 1_545 S
C507 C508 1.502 . S
C507 C509 1.561 . S
C507 C510 1.526 . S
C508 H492 0.959 . S
C508 H493 0.959 . S
C508 H494 0.961 . S
C508 C507 1.502 . S
C509 H495 0.960 . S
C509 H496 0.961 . S
C509 H497 0.959 . S
C509 C507 1.561 . S
C510 C507 1.526 . S
C510 C511 1.396 . S
C510 C515 1.390 . S
C511 C505 1.465 1_545 S
C511 C510 1.396 . S
C511 C512 1.399 . S
C512 H498 0.929 . S
C512 C511 1.399 . S
C512 C513 1.385 . S
C513 H499 0.931 . S
C513 C512 1.385 . S
C513 C514 1.389 . S
C514 C513 1.389 . S
C514 C515 1.387 . S
C515 H500 0.930 . S
C515 C510 1.390 . S
C515 C514 1.387 . S
H516 C528 0.930 . S
H517 C530 0.930 . S
H518 C531 0.930 1_565 S
H519 C535 0.959 . S
H520 C535 0.959 . S
H521 C535 0.961 . S
H522 C536 0.960 . S
H523 C536 0.970 . S
H524 C536 0.959 1_565 S
H525 C539 0.929 . S
H526 C540 0.931 . S
H527 C542 0.930 . S
C528 H516 0.930 . S
C528 C529 1.399 . S
C528 C533 1.399 . S
C529 C528 1.399 . S
C529 C530 1.376 . S
C530 H517 0.930 . S
C530 C529 1.376 . S
C530 C531 1.388 . S
C531 H518 0.930 1_545 S
C531 C530 1.388 . S
C531 C532 1.390 . S
C532 C531 1.390 . S
C532 C533 1.394 . S
C532 C538 1.465 1_545 S
C533 C528 1.399 . S
C533 C532 1.394 . S
C533 C534 1.516 . S
C534 C533 1.516 . S
C534 C535 1.502 . S
C534 C536 1.561 . S
C534 C537 1.526 1_545 S
C535 H519 0.959 . S
C535 H520 0.959 . S
C535 H521 0.961 . S
C535 C534 1.502 . S
C536 H522 0.960 . S
C536 H523 0.970 . S
C536 H524 0.959 1_545 S
C536 C534 1.561 . S
C537 C534 1.526 1_565 S
C537 C538 1.396 . S
C537 C542 1.390 . S
C538 C532 1.465 1_565 S
C538 C537 1.396 . S
C538 C539 1.399 . S
C539 H525 0.929 . S
C539 C538 1.399 . S
C539 C540 1.385 . S
C540 H526 0.931 . S
C540 C539 1.385 . S
C540 C541 1.389 . S
C541 C540 1.389 . S
C541 C542 1.387 . S
C542 H527 0.930 . S
C542 C537 1.390 . S
C542 C541 1.387 . S
H543 C555 0.930 . S
H544 C557 0.930 . S
H545 C558 0.930 . S
H546 C562 0.959 . S
H547 C562 0.959 . S
H548 C562 0.961 . S
H549 C563 0.960 . S
H550 C563 0.961 . S
H551 C563 0.959 . S
H552 C566 0.929 . S
H553 C567 0.931 . S
H554 C569 0.930 . S
C555 H543 0.930 . S
C555 C556 1.399 . S
C555 C560 1.399 . S
C556 C555 1.399 . S
C556 C557 1.376 . S
C557 H544 0.930 . S
C557 C556 1.376 . S
C557 C558 1.388 . S
C558 H545 0.930 . S
C558 C557 1.388 . S
C558 C559 1.390 . S
C559 C558 1.390 . S
C559 C560 1.394 . S
C559 C565 1.465 . S
C560 C555 1.399 . S
C560 C559 1.394 . S
C560 C561 1.516 . S
C561 C560 1.516 . S
C561 C562 1.502 . S
C561 C563 1.561 . S
C561 C564 1.526 . S
C562 H546 0.959 . S
C562 H547 0.959 . S
C562 H548 0.961 . S
C562 C561 1.502 . S
C563 H549 0.960 . S
C563 H550 0.961 . S
C563 H551 0.959 . S
C563 C561 1.561 . S
C564 C561 1.526 . S
C564 C565 1.396 . S
C564 C569 1.390 . S
C565 C559 1.465 . S
C565 C564 1.396 . S
C565 C566 1.399 . S
C566 H552 0.929 . S
C566 C565 1.399 . S
C566 C567 1.385 . S
C567 H553 0.931 . S
C567 C566 1.385 . S
C567 C568 1.389 . S
C568 C567 1.389 . S
C568 C569 1.387 . S
C569 H554 0.930 . S
C569 C564 1.390 . S
C569 C568 1.387 . S
H570 C582 0.930 . S
H571 C584 0.930 . S
H572 C585 0.930 . S
H573 C589 0.959 . S
H574 C589 0.959 . S
H575 C589 0.961 . S
H576 C590 0.960 . S
H577 C590 0.961 . S
H578 C590 0.959 . S
H579 C593 0.929 . S
H580 C594 0.931 . S
H581 C596 0.930 . S
C582 H570 0.930 . S
C582 C583 1.399 . S
C582 C587 1.399 . S
C583 C582 1.399 . S
C583 C584 1.376 . S
C584 H571 0.930 . S
C584 C583 1.376 . S
C584 C585 1.388 . S
C585 H572 0.930 . S
C585 C584 1.388 . S
C585 C586 1.390 . S
C586 C585 1.390 . S
C586 C587 1.394 . S
C586 C592 1.465 . S
C587 C582 1.399 . S
C587 C586 1.394 . S
C587 C588 1.516 . S
C588 C587 1.516 . S
C588 C589 1.502 . S
C588 C590 1.561 . S
C588 C591 1.526 . S
C589 H573 0.959 . S
C589 H574 0.959 . S
C589 H575 0.961 . S
C589 C588 1.502 . S
C590 H576 0.960 . S
C590 H577 0.961 . S
C590 H578 0.959 . S
C590 C588 1.561 . S
C591 C588 1.526 . S
C591 C592 1.396 . S
C591 C596 1.390 . S
C592 C586 1.465 . S
C592 C591 1.396 . S
C592 C593 1.399 . S
C593 H579 0.929 . S
C593 C592 1.399 . S
C593 C594 1.385 . S
C594 H580 0.931 . S
C594 C593 1.385 . S
C594 C595 1.389 . S
C595 C594 1.389 . S
C595 C596 1.387 . S
C596 H581 0.930 . S
C596 C591 1.390 . S
C596 C595 1.387 . S
H597 C609 0.930 . S
H598 C611 0.930 . S
H599 C612 0.930 . S
H600 C616 0.959 . S
H601 C616 0.959 . S
H602 C616 0.961 . S
H603 C617 0.960 . S
H604 C617 0.961 . S
H605 C617 0.959 . S
H606 C620 0.929 1_545 S
H607 C621 0.931 . S
H608 C623 0.930 . S
C609 H597 0.930 . S
C609 C610 1.399 . S
C609 C614 1.399 . S
C610 C609 1.399 . S
C610 C611 1.376 . S
C611 H598 0.930 . S
C611 C610 1.376 . S
C611 C612 1.388 . S
C612 H599 0.930 . S
C612 C611 1.388 . S
C612 C613 1.390 . S
C613 C612 1.390 . S
C613 C614 1.394 . S
C613 C619 1.465 1_545 S
C614 C609 1.399 . S
C614 C613 1.394 . S
C614 C615 1.516 1_545 S
C615 C614 1.516 1_565 S
C615 C616 1.502 . S
C615 C617 1.561 . S
C615 C618 1.526 . S
C616 H600 0.959 . S
C616 H601 0.959 . S
C616 H602 0.961 . S
C616 C615 1.502 . S
C617 H603 0.960 . S
C617 H604 0.961 . S
C617 H605 0.959 . S
C617 C615 1.561 . S
C618 C615 1.526 . S
C618 C619 1.396 . S
C618 C623 1.390 . S
C619 C613 1.465 1_565 S
C619 C618 1.396 . S
C619 C620 1.399 . S
C620 H606 0.929 1_565 S
C620 C619 1.399 . S
C620 C621 1.385 . S
C621 H607 0.931 . S
C621 C620 1.385 . S
C621 C622 1.389 . S
C622 C621 1.389 . S
C622 C623 1.387 . S
C623 H608 0.930 . S
C623 C618 1.390 . S
C623 C622 1.387 . S
H624 C636 0.930 . S
H625 C638 0.930 . S
H626 C639 0.930 . S
H627 C643 0.959 . S
H628 C643 0.959 . S
H629 C643 0.961 1_556 S
H630 C644 0.960 . S
H631 C644 0.961 . S
H632 C644 0.959 . S
H633 C647 0.929 . S
H634 C648 0.931 . S
H635 C650 0.930 . S
C636 H624 0.930 . S
C636 C637 1.399 . S
C636 C641 1.399 . S
C637 C636 1.399 . S
C637 C638 1.376 . S
C638 H625 0.930 . S
C638 C637 1.376 . S
C638 C639 1.388 . S
C639 H626 0.930 . S
C639 C638 1.388 . S
C639 C640 1.390 1_556 S
C640 C639 1.390 1_554 S
C640 C641 1.394 1_554 S
C640 C646 1.465 . S
C641 C636 1.399 . S
C641 C640 1.394 1_556 S
C641 C642 1.516 1_556 S
C642 C641 1.516 1_554 S
C642 C643 1.502 . S
C642 C644 1.561 . S
C642 C645 1.526 . S
C643 H627 0.959 . S
C643 H628 0.959 . S
C643 H629 0.961 1_554 S
C643 C642 1.502 . S
C644 H630 0.960 . S
C644 H631 0.961 . S
C644 H632 0.959 . S
C644 C642 1.561 . S
C645 C642 1.526 . S
C645 C646 1.396 . S
C645 C650 1.390 . S
C646 C640 1.465 . S
C646 C645 1.396 . S
C646 C647 1.399 . S
C647 H633 0.929 . S
C647 C646 1.399 . S
C647 C648 1.385 . S
C648 H634 0.931 . S
C648 C647 1.385 . S
C648 C649 1.389 . S
C649 C648 1.389 . S
C649 C650 1.387 . S
C650 H635 0.930 . S
C650 C645 1.390 . S
C650 C649 1.387 . S
H651 C663 0.930 . S
H652 C665 0.930 . S
H653 C666 0.930 . S
H654 C670 0.959 . S
H655 C670 0.959 . S
H656 C670 0.961 . S
H657 C671 0.960 . S
H658 C671 0.961 . S
H659 C671 0.959 . S
H660 C674 0.929 . S
H661 C675 0.931 . S
H662 C677 0.930 . S
C663 H651 0.930 . S
C663 C664 1.399 . S
C663 C668 1.399 . S
C664 C663 1.399 . S
C664 C665 1.376 . S
C665 H652 0.930 . S
C665 C664 1.376 . S
C665 C666 1.388 . S
C666 H653 0.930 . S
C666 C665 1.388 . S
C666 C667 1.390 . S
C667 C666 1.390 . S
C667 C668 1.394 . S
C667 C673 1.465 . S
C668 C663 1.399 . S
C668 C667 1.394 . S
C668 C669 1.516 . S
C669 C668 1.516 . S
C669 C670 1.502 . S
C669 C671 1.561 . S
C669 C672 1.526 . S
C670 H654 0.959 . S
C670 H655 0.959 . S
C670 H656 0.961 . S
C670 C669 1.502 . S
C671 H657 0.960 . S
C671 H658 0.961 . S
C671 H659 0.959 . S
C671 C669 1.561 . S
C672 C669 1.526 . S
C672 C673 1.396 . S
C672 C677 1.390 . S
C673 C667 1.465 . S
C673 C672 1.396 . S
C673 C674 1.399 . S
C674 H660 0.929 . S
C674 C673 1.399 . S
C674 C675 1.385 . S
C675 H661 0.931 . S
C675 C674 1.385 . S
C675 C676 1.389 . S
C676 C675 1.389 . S
C676 C677 1.387 . S
C677 H662 0.930 . S
C677 C672 1.390 . S
C677 C676 1.387 . S
H678 C690 0.930 . S
H679 C692 0.930 . S
H680 C693 0.930 . S
H681 C697 0.959 . S
H682 C697 0.959 . S
H683 C697 0.961 . S
H684 C698 0.960 1_554 S
H685 C698 0.961 . S
H686 C698 0.959 . S
H687 C701 0.929 . S
H688 C702 0.931 . S
H689 C704 0.930 . S
C690 H678 0.930 . S
C690 C691 1.399 . S
C690 C695 1.399 . S
C691 C690 1.399 . S
C691 C692 1.376 . S
C692 H679 0.930 . S
C692 C691 1.376 . S
C692 C693 1.388 . S
C693 H680 0.930 . S
C693 C692 1.388 . S
C693 C694 1.390 . S
C694 C693 1.390 . S
C694 C695 1.394 . S
C694 C700 1.465 1_554 S
C695 C690 1.399 . S
C695 C694 1.394 . S
C695 C696 1.516 1_554 S
C696 C695 1.516 1_556 S
C696 C697 1.502 . S
C696 C698 1.561 . S
C696 C699 1.526 . S
C697 H681 0.959 . S
C697 H682 0.959 . S
C697 H683 0.961 . S
C697 C696 1.502 . S
C698 H684 0.960 1_556 S
C698 H685 0.961 . S
C698 H686 0.959 . S
C698 C696 1.561 . S
C699 C696 1.526 . S
C699 C700 1.396 . S
C699 C704 1.390 . S
C700 C694 1.465 1_556 S
C700 C699 1.396 . S
C700 C701 1.399 . S
C701 H687 0.929 . S
C701 C700 1.399 . S
C701 C702 1.385 . S
C702 H688 0.931 . S
C702 C701 1.385 . S
C702 C703 1.389 . S
C703 C702 1.389 . S
C703 C704 1.387 . S
C704 H689 0.930 . S
C704 C699 1.390 . S
C704 C703 1.387 . S
H705 C717 0.930 . S
H706 C719 0.930 . S
H707 C720 0.930 . S
H708 C724 0.959 . S
H709 C724 0.959 . S
H710 C724 0.961 . S
H711 C725 0.960 . S
H712 C725 0.961 . S
H713 C725 0.959 . S
H714 C728 0.929 . S
H715 C729 0.931 . S
H716 C731 0.930 . S
C717 H705 0.930 . S
C717 C718 1.399 . S
C717 C722 1.399 . S
C718 C717 1.399 . S
C718 C719 1.376 . S
C719 H706 0.930 . S
C719 C718 1.376 . S
C719 C720 1.388 . S
C720 H707 0.930 . S
C720 C719 1.388 . S
C720 C721 1.390 . S
C721 C720 1.390 . S
C721 C722 1.394 . S
C721 C727 1.465 . S
C722 C717 1.399 . S
C722 C721 1.394 . S
C722 C723 1.516 . S
C723 C722 1.516 . S
C723 C724 1.502 . S
C723 C725 1.561 . S
C723 C726 1.526 . S
C724 H708 0.959 . S
C724 H709 0.959 . S
C724 H710 0.961 . S
C724 C723 1.502 . S
C725 H711 0.960 . S
C725 H712 0.961 . S
C725 H713 0.959 . S
C725 C723 1.561 . S
C726 C723 1.526 . S
C726 C727 1.396 . S
C726 C731 1.390 . S
C727 C721 1.465 . S
C727 C726 1.396 . S
C727 C728 1.399 . S
C728 H714 0.929 . S
C728 C727 1.399 . S
C728 C729 1.385 . S
C729 H715 0.931 . S
C729 C728 1.385 . S
C729 C730 1.389 . S
C730 C729 1.389 . S
C730 C731 1.387 . S
C731 H716 0.930 . S
C731 C726 1.390 . S
C731 C730 1.387 . S
H732 C744 0.930 . S
H733 C746 0.930 . S
H734 C747 0.930 . S
H735 C751 0.959 . S
H736 C751 0.959 . S
H737 C751 0.961 . S
H738 C752 0.960 . S
H739 C752 0.961 . S
H740 C752 0.959 . S
H741 C755 0.929 . S
H742 C756 0.931 . S
H743 C758 0.930 . S
C744 H732 0.930 . S
C744 C745 1.399 . S
C744 C749 1.399 . S
C745 C744 1.399 . S
C745 C746 1.376 . S
C746 H733 0.930 . S
C746 C745 1.376 . S
C746 C747 1.388 . S
C747 H734 0.930 . S
C747 C746 1.388 . S
C747 C748 1.424 . S
C748 C747 1.424 . S
C748 C749 1.399 . S
C748 C754 1.424 1_554 S
C749 C744 1.399 . S
C749 C748 1.399 . S
C749 C750 1.516 1_554 S
C750 C749 1.516 1_556 S
C750 C751 1.502 . S
C750 C752 1.561 . S
C750 C753 1.526 . S
C751 H735 0.959 . S
C751 H736 0.959 . S
C751 H737 0.961 . S
C751 C750 1.502 . S
C752 H738 0.960 . S
C752 H739 0.961 . S
C752 H740 0.959 . S
C752 C750 1.561 . S
C753 C750 1.526 . S
C753 C754 1.396 . S
C753 C758 1.390 . S
C754 C748 1.424 1_556 S
C754 C753 1.396 . S
C754 C755 1.399 . S
C755 H741 0.929 . S
C755 C754 1.399 . S
C755 C756 1.385 . S
C756 H742 0.931 . S
C756 C755 1.385 . S
C756 C757 1.389 . S
C757 C756 1.389 . S
C757 C758 1.387 . S
C758 H743 0.930 . S
C758 C753 1.390 . S
C758 C757 1.387 . S
H759 C771 0.930 . S
H760 C773 0.930 . S
H761 C774 0.930 . S
H762 C778 0.959 . S
H763 C778 0.959 . S
H764 C778 0.961 . S
H765 C779 0.960 . S
H766 C779 0.961 . S
H767 C779 0.959 . S
H768 C782 0.929 . S
H769 C783 0.931 . S
H770 C785 0.930 . S
C771 H759 0.930 . S
C771 C772 1.399 . S
C771 C776 1.399 . S
C772 C771 1.399 . S
C772 C773 1.376 . S
C773 H760 0.930 . S
C773 C772 1.376 . S
C773 C774 1.388 . S
C774 H761 0.930 . S
C774 C773 1.388 . S
C774 C775 1.390 . S
C775 C774 1.390 . S
C775 C776 1.394 . S
C775 C781 1.465 . S
C776 C771 1.399 . S
C776 C775 1.394 . S
C776 C777 1.516 . S
C777 C776 1.516 . S
C777 C778 1.502 . S
C777 C779 1.561 . S
C777 C780 1.526 . S
C778 H762 0.959 . S
C778 H763 0.959 . S
C778 H764 0.961 . S
C778 C777 1.502 . S
C779 H765 0.960 . S
C779 H766 0.961 . S
C779 H767 0.959 . S
C779 C777 1.561 . S
C780 C777 1.526 . S
C780 C781 1.396 . S
C780 C785 1.390 . S
C781 C775 1.465 . S
C781 C780 1.396 . S
C781 C782 1.399 . S
C782 H768 0.929 . S
C782 C781 1.399 . S
C782 C783 1.385 . S
C783 H769 0.931 . S
C783 C782 1.385 . S
C783 C784 1.389 . S
C784 C783 1.389 . S
C784 C785 1.387 . S
C785 H770 0.930 . S
C785 C780 1.390 . S
C785 C784 1.387 . S
H786 C798 0.930 . S
H787 C800 0.930 . S
H788 C801 0.930 . S
H789 C805 0.960 . S
H790 C805 0.959 . S
H791 C805 0.961 1_556 S
H792 C806 0.960 1_556 S
H793 C806 0.961 . S
H794 C806 0.959 . S
H795 C809 0.929 . S
H796 C810 0.931 . S
H797 C812 0.930 . S
C798 H786 0.930 . S
C798 C799 1.399 . S
C798 C803 1.399 . S
C799 C798 1.399 . S
C799 C800 1.376 . S
C800 H787 0.930 . S
C800 C799 1.376 . S
C800 C801 1.388 . S
C801 H788 0.930 . S
C801 C800 1.388 . S
C801 C802 1.390 1_556 S
C802 C801 1.390 1_554 S
C802 C803 1.394 1_554 S
C802 C808 1.465 . S
C803 C798 1.399 . S
C803 C802 1.394 1_556 S
C803 C804 1.516 1_556 S
C804 C803 1.516 1_554 S
C804 C805 1.502 . S
C804 C806 1.561 . S
C804 C807 1.526 . S
C805 H789 0.960 . S
C805 H790 0.959 . S
C805 H791 0.961 1_554 S
C805 C804 1.502 . S
C806 H792 0.960 1_554 S
C806 H793 0.961 . S
C806 H794 0.959 . S
C806 C804 1.561 . S
C807 C804 1.526 . S
C807 C808 1.396 . S
C807 C812 1.390 . S
C808 C802 1.465 . S
C808 C807 1.396 . S
C808 C809 1.399 . S
C809 H795 0.929 . S
C809 C808 1.399 . S
C809 C810 1.385 . S
C810 H796 0.931 . S
C810 C809 1.385 . S
C810 C811 1.389 . S
C811 C810 1.389 . S
C811 C812 1.387 . S
C812 H797 0.930 . S
C812 C807 1.390 . S
C812 C811 1.387 . S
H813 C825 0.930 . S
H814 C827 0.930 . S
H815 C828 0.930 . S
H816 C832 0.959 . S
H817 C832 0.959 . S
H818 C832 0.961 . S
H819 C833 0.960 . S
H820 C833 0.961 . S
H821 C833 0.959 . S
H822 C836 0.929 . S
H823 C837 0.931 . S
H824 C839 0.930 . S
C825 H813 0.930 . S
C825 C826 1.399 . S
C825 C830 1.399 . S
C826 C825 1.399 . S
C826 C827 1.376 . S
C827 H814 0.930 . S
C827 C826 1.376 . S
C827 C828 1.388 . S
C828 H815 0.930 . S
C828 C827 1.388 . S
C828 C829 1.390 . S
C829 C828 1.390 . S
C829 C830 1.394 . S
C829 C835 1.465 . S
C830 C825 1.399 . S
C830 C829 1.394 . S
C830 C831 1.516 . S
C831 C830 1.516 . S
C831 C832 1.502 . S
C831 C833 1.561 . S
C831 C834 1.526 . S
C832 H816 0.959 . S
C832 H817 0.959 . S
C832 H818 0.961 . S
C832 C831 1.502 . S
C833 H819 0.960 . S
C833 H820 0.961 . S
C833 H821 0.959 . S
C833 C831 1.561 . S
C834 C831 1.526 . S
C834 C835 1.396 . S
C834 C839 1.390 . S
C835 C829 1.465 . S
C835 C834 1.396 . S
C835 C836 1.399 . S
C836 H822 0.929 . S
C836 C835 1.399 . S
C836 C837 1.385 . S
C837 H823 0.931 . S
C837 C836 1.385 . S
C837 C838 1.389 . S
C838 C837 1.389 . S
C838 C839 1.387 . S
C839 H824 0.930 . S
C839 C834 1.390 . S
C839 C838 1.387 . S
H840 C852 0.930 . S
H841 C854 0.930 . S
H842 C855 0.930 . S
H843 C859 0.959 . S
H844 C859 0.959 . S
H845 C859 0.961 . S
H846 C860 0.960 . S
H847 C860 0.961 . S
H848 C860 0.959 . S
H849 C863 0.929 . S
H850 C864 0.931 . S
H851 C866 0.930 . S
C852 H840 0.930 . S
C852 C853 1.399 . S
C852 C857 1.399 . S
C853 C852 1.399 . S
C853 C854 1.376 . S
C854 H841 0.930 . S
C854 C853 1.376 . S
C854 C855 1.388 . S
C855 H842 0.930 . S
C855 C854 1.388 . S
C855 C856 1.390 . S
C856 C855 1.390 . S
C856 C857 1.394 . S
C856 C862 1.465 . S
C857 C852 1.399 . S
C857 C856 1.394 . S
C857 C858 1.516 . S
C858 C857 1.516 . S
C858 C859 1.502 . S
C858 C860 1.561 . S
C858 C861 1.526 . S
C859 H843 0.959 . S
C859 H844 0.959 . S
C859 H845 0.961 . S
C859 C858 1.502 . S
C860 H846 0.960 . S
C860 H847 0.961 . S
C860 H848 0.959 . S
C860 C858 1.561 . S
C861 C858 1.526 . S
C861 C862 1.396 . S
C861 C866 1.390 . S
C862 C856 1.465 . S
C862 C861 1.396 . S
C862 C863 1.399 . S
C863 H849 0.929 . S
C863 C862 1.399 . S
C863 C864 1.385 . S
C864 H850 0.931 . S
C864 C863 1.385 . S
C864 C865 1.389 . S
C865 C864 1.389 . S
C865 C866 1.387 . S
C866 H851 0.930 . S
C866 C861 1.390 . S
C866 C865 1.387 . S
H867 C879 0.930 . S
H868 C881 0.930 . S
H869 C882 0.930 . S
H870 C886 0.959 . S
H871 C886 0.959 . S
H872 C886 0.961 . S
H873 C887 0.960 . S
H874 C887 0.961 . S
H875 C887 0.959 . S
H876 C890 0.929 . S
H877 C891 0.931 . S
H878 C893 0.930 . S
C879 H867 0.930 . S
C879 C880 1.399 . S
C879 C884 1.399 . S
C880 C879 1.399 . S
C880 C881 1.376 . S
C881 H868 0.930 . S
C881 C880 1.376 . S
C881 C882 1.388 . S
C882 H869 0.930 . S
C882 C881 1.388 . S
C882 C883 1.390 . S
C883 C882 1.390 . S
C883 C884 1.394 . S
C883 C889 1.465 . S
C884 C879 1.399 . S
C884 C883 1.394 . S
C884 C885 1.516 . S
C885 C884 1.516 . S
C885 C886 1.502 . S
C885 C887 1.561 . S
C885 C888 1.526 . S
C886 H870 0.959 . S
C886 H871 0.959 . S
C886 H872 0.961 . S
C886 C885 1.502 . S
C887 H873 0.960 . S
C887 H874 0.961 . S
C887 H875 0.959 . S
C887 C885 1.561 . S
C888 C885 1.526 . S
C888 C889 1.396 . S
C888 C893 1.390 . S
C889 C883 1.465 . S
C889 C888 1.396 . S
C889 C890 1.399 . S
C890 H876 0.929 . S
C890 C889 1.399 . S
C890 C891 1.385 . S
C891 H877 0.931 . S
C891 C890 1.385 . S
C891 C892 1.389 . S
C892 C891 1.389 . S
C892 C893 1.387 . S
C893 H878 0.930 . S
C893 C888 1.390 . S
C893 C892 1.387 . S
H894 C906 0.930 . S
H895 C908 0.930 . S
H896 C909 0.930 . S
H897 C913 0.959 . S
H898 C913 0.959 . S
H899 C913 0.961 . S
H900 C914 0.960 . S
H901 C914 0.961 . S
H902 C914 0.959 . S
H903 C917 0.929 . S
H904 C918 0.931 . S
H905 C920 0.930 . S
C906 H894 0.930 . S
C906 C907 1.399 . S
C906 C911 1.399 . S
C907 C906 1.399 . S
C907 C908 1.376 . S
C908 H895 0.930 . S
C908 C907 1.376 . S
C908 C909 1.388 . S
C909 H896 0.930 . S
C909 C908 1.388 . S
C909 C910 1.390 . S
C910 C909 1.390 . S
C910 C911 1.394 . S
C910 C916 1.465 . S
C911 C906 1.399 . S
C911 C910 1.394 . S
C911 C912 1.516 . S
C912 C911 1.516 . S
C912 C913 1.502 . S
C912 C914 1.561 . S
C912 C915 1.526 . S
C913 H897 0.959 . S
C913 H898 0.959 . S
C913 H899 0.961 . S
C913 C912 1.502 . S
C914 H900 0.960 . S
C914 H901 0.961 . S
C914 H902 0.959 . S
C914 C912 1.561 . S
C915 C912 1.526 . S
C915 C916 1.396 . S
C915 C920 1.390 . S
C916 C910 1.465 . S
C916 C915 1.396 . S
C916 C917 1.399 . S
C917 H903 0.929 . S
C917 C916 1.399 . S
C917 C918 1.385 . S
C918 H904 0.931 . S
C918 C917 1.385 . S
C918 C919 1.389 . S
C919 C918 1.389 . S
C919 C920 1.387 . S
C920 H905 0.930 . S
C920 C915 1.390 . S
C920 C919 1.387 . S
H921 C933 0.930 . S
H922 C935 0.930 . S
H923 C936 0.930 . S
H924 C940 0.959 . S
H925 C940 0.959 1_455 S
H926 C940 0.961 . S
H927 C941 0.960 . S
H928 C941 0.961 . S
H929 C941 0.959 . S
H930 C944 0.929 . S
H931 C945 0.931 . S
H932 C947 0.930 . S
C933 H921 0.930 . S
C933 C934 1.399 . S
C933 C938 1.399 . S
C934 C933 1.399 . S
C934 C935 1.376 . S
C935 H922 0.930 . S
C935 C934 1.376 . S
C935 C936 1.388 . S
C936 H923 0.930 . S
C936 C935 1.388 . S
C936 C937 1.390 . S
C937 C936 1.390 . S
C937 C938 1.394 . S
C937 C943 1.465 . S
C938 C933 1.399 . S
C938 C937 1.394 . S
C938 C939 1.516 . S
C939 C938 1.516 . S
C939 C940 1.502 . S
C939 C941 1.561 . S
C939 C942 1.526 . S
C940 H924 0.959 . S
C940 H925 0.959 1_655 S
C940 H926 0.961 . S
C940 C939 1.502 . S
C941 H927 0.960 . S
C941 H928 0.961 . S
C941 H929 0.959 . S
C941 C939 1.561 . S
C942 C939 1.526 . S
C942 C943 1.396 . S
C942 C947 1.390 . S
C943 C937 1.465 . S
C943 C942 1.396 . S
C943 C944 1.399 . S
C944 H930 0.929 . S
C944 C943 1.399 . S
C944 C945 1.385 . S
C945 H931 0.931 . S
C945 C944 1.385 . S
C945 C946 1.389 . S
C946 C945 1.389 . S
C946 C947 1.387 . S
C947 H932 0.930 . S
C947 C942 1.390 . S
C947 C946 1.387 . S
H948 C960 0.930 . S
H949 C962 0.930 . S
H950 C963 0.930 . S
H951 C967 0.959 . S
H952 C967 0.959 . S
H953 C967 0.961 . S
H954 C968 0.960 . S
H955 C968 0.961 . S
H956 C968 0.959 . S
H957 C971 0.929 . S
H958 C972 0.931 1_455 S
H959 C974 0.930 . S
C960 H948 0.930 . S
C960 C961 1.399 . S
C960 C965 1.399 . S
C961 C960 1.399 . S
C961 C962 1.376 . S
C962 H949 0.930 . S
C962 C961 1.376 . S
C962 C963 1.388 . S
C963 H950 0.930 . S
C963 C962 1.388 . S
C963 C964 1.390 . S
C964 C963 1.390 . S
C964 C965 1.394 . S
C964 C970 1.465 . S
C965 C960 1.399 . S
C965 C964 1.394 . S
C965 C966 1.516 . S
C966 C965 1.516 . S
C966 C967 1.502 . S
C966 C968 1.561 . S
C966 C969 1.526 . S
C967 H951 0.959 . S
C967 H952 0.959 . S
C967 H953 0.961 . S
C967 C966 1.502 . S
C968 H954 0.960 . S
C968 H955 0.961 . S
C968 H956 0.959 . S
C968 C966 1.561 . S
C969 C966 1.526 . S
C969 C970 1.396 . S
C969 C974 1.390 . S
C970 C964 1.465 . S
C970 C969 1.396 . S
C970 C971 1.399 . S
C971 H957 0.929 . S
C971 C970 1.399 . S
C971 C972 1.385 . S
C972 H958 0.931 1_655 S
C972 C971 1.385 . S
C972 C973 1.389 . S
C973 C972 1.389 . S
C973 C974 1.387 . S
C974 H959 0.930 . S
C974 C969 1.390 . S
C974 C973 1.387 . S
H975 C987 0.930 . S
H976 C989 0.930 . S
H977 C990 0.930 . S
H978 C994 0.959 . S
H979 C994 0.959 . S
H980 C994 0.961 . S
H981 C995 0.960 . S
H982 C995 0.961 . S
H983 C995 0.959 . S
H984 C998 0.929 . S
H985 C999 0.931 . S
H986 C1001 0.930 . S
C987 H975 0.930 . S
C987 C988 1.399 . S
C987 C992 1.399 . S
C988 C987 1.399 . S
C988 C989 1.376 . S
C989 H976 0.930 . S
C989 C988 1.376 . S
C989 C990 1.388 . S
C990 H977 0.930 . S
C990 C989 1.388 . S
C990 C991 1.390 . S
C991 C990 1.390 . S
C991 C992 1.394 . S
C991 C997 1.465 . S
C992 C987 1.399 . S
C992 C991 1.394 . S
C992 C993 1.516 . S
C993 C992 1.516 . S
C993 C994 1.502 . S
C993 C995 1.561 . S
C993 C996 1.526 . S
C994 H978 0.959 . S
C994 H979 0.959 . S
C994 H980 0.961 . S
C994 C993 1.502 . S
C995 H981 0.960 . S
C995 H982 0.961 . S
C995 H983 0.959 . S
C995 C993 1.561 . S
C996 C993 1.526 . S
C996 C997 1.396 . S
C996 C1001 1.390 . S
C997 C991 1.465 . S
C997 C996 1.396 . S
C997 C998 1.399 . S
C998 H984 0.929 . S
C998 C997 1.399 . S
C998 C999 1.385 . S
C999 H985 0.931 . S
C999 C998 1.385 . S
C999 C1000 1.389 . S
C1000 C999 1.389 . S
C1000 C1001 1.387 . S
C1001 H986 0.930 . S
C1001 C996 1.390 . S
C1001 C1000 1.387 . S
H1002 C1014 0.930 . S
H1003 C1016 0.930 . S
H1004 C1017 0.930 . S
H1005 C1021 0.959 . S
H1006 C1021 0.959 . S
H1007 C1021 0.961 . S
H1008 C1022 0.960 . S
H1009 C1022 0.961 . S
H1010 C1022 0.959 . S
H1011 C1025 0.929 . S
H1012 C1026 0.931 . S
H1013 C1028 0.930 . S
C1014 H1002 0.930 . S
C1014 C1015 1.399 . S
C1014 C1019 1.399 . S
C1015 C1014 1.399 . S
C1015 C1016 1.376 . S
C1016 H1003 0.930 . S
C1016 C1015 1.376 . S
C1016 C1017 1.388 . S
C1017 H1004 0.930 . S
C1017 C1016 1.388 . S
C1017 C1018 1.390 . S
C1018 C1017 1.390 . S
C1018 C1019 1.394 . S
C1018 C1024 1.465 . S
C1019 C1014 1.399 . S
C1019 C1018 1.394 . S
C1019 C1020 1.516 . S
C1020 C1019 1.516 . S
C1020 C1021 1.502 . S
C1020 C1022 1.561 . S
C1020 C1023 1.526 . S
C1021 H1005 0.959 . S
C1021 H1006 0.959 . S
C1021 H1007 0.961 . S
C1021 C1020 1.502 . S
C1022 H1008 0.960 . S
C1022 H1009 0.961 . S
C1022 H1010 0.959 . S
C1022 C1020 1.561 . S
C1023 C1020 1.526 . S
C1023 C1024 1.396 . S
C1023 C1028 1.390 . S
C1024 C1018 1.465 . S
C1024 C1023 1.396 . S
C1024 C1025 1.399 . S
C1025 H1011 0.929 . S
C1025 C1024 1.399 . S
C1025 C1026 1.385 . S
C1026 H1012 0.931 . S
C1026 C1025 1.385 . S
C1026 C1027 1.389 . S
C1027 C1026 1.389 . S
C1027 C1028 1.387 . S
C1028 H1013 0.930 . S
C1028 C1023 1.390 . S
C1028 C1027 1.387 . S
H1029 C1041 0.930 . S
H1030 C1043 0.930 . S
H1031 C1044 0.930 . S
H1032 C1048 0.959 . S
H1033 C1048 0.959 . S
H1034 C1048 0.961 . S
H1035 C1049 0.960 . S
H1036 C1049 0.961 . S
H1037 C1049 0.959 . S
H1038 C1052 0.929 . S
H1039 C1053 0.931 . S
H1040 C1055 0.930 . S
C1041 H1029 0.930 . S
C1041 C1042 1.399 . S
C1041 C1046 1.399 . S
C1042 C1041 1.399 . S
C1042 C1043 1.376 . S
C1043 H1030 0.930 . S
C1043 C1042 1.376 . S
C1043 C1044 1.388 . S
C1044 H1031 0.930 . S
C1044 C1043 1.388 . S
C1044 C1045 1.390 . S
C1045 C1044 1.390 . S
C1045 C1046 1.394 . S
C1045 C1051 1.465 . S
C1046 C1041 1.399 . S
C1046 C1045 1.394 . S
C1046 C1047 1.516 . S
C1047 C1046 1.516 . S
C1047 C1048 1.502 . S
C1047 C1049 1.561 . S
C1047 C1050 1.526 . S
C1048 H1032 0.959 . S
C1048 H1033 0.959 . S
C1048 H1034 0.961 . S
C1048 C1047 1.502 . S
C1049 H1035 0.960 . S
C1049 H1036 0.961 . S
C1049 H1037 0.959 . S
C1049 C1047 1.561 . S
C1050 C1047 1.526 . S
C1050 C1051 1.396 . S
C1050 C1055 1.390 . S
C1051 C1045 1.465 . S
C1051 C1050 1.396 . S
C1051 C1052 1.399 . S
C1052 H1038 0.929 . S
C1052 C1051 1.399 . S
C1052 C1053 1.385 . S
C1053 H1039 0.931 . S
C1053 C1052 1.385 . S
C1053 C1054 1.389 . S
C1054 C1053 1.389 . S
C1054 C1055 1.387 . S
C1055 H1040 0.930 . S
C1055 C1050 1.390 . S
C1055 C1054 1.387 . S
C421 C58 1.459 . S
C433 C146 1.430 . S
C460 C230 1.423 . S
C448 C68 1.467 . S
C487 C223 1.458 . S
C475 C40 1.454 . S
C502 C50 1.455 . S
C514 C139 1.461 . S
C541 C303 1.471 . S
C529 C23 1.472 . S
C568 C387 1.469 . S
C556 C32 1.470 . S
C583 C5 1.457 . S
C595 C380 1.455 . S
C610 C14 1.449 . S
C622 C296 1.464 . S
C649 C130 1.340 . S
C637 C13 1.497 . S
C676 C214 1.360 . S
C664 C4 1.494 . S
C703 C225 1.447 . S
C691 C31 1.512 . S
C730 C141 1.447 . S
C718 C22 1.511 . S
C757 C309 1.392 . S
C745 C49 1.485 . S
C772 C41 1.501 . S
C784 C393 1.261 . S
C811 C382 1.407 . S
C799 C67 1.524 . S
C826 C59 1.521 . S
C838 C298 1.401 . S
C865 C128 1.516 . S
C853 C7 1.527 . S
C892 C212 1.520 . S
C880 C16 1.509 . S
C907 C25 1.518 . S
C919 C219 1.518 . S
C946 C135 1.492 . S
C934 C34 1.507 . S
C973 C307 1.524 . S
C961 C43 1.532 . S
C988 C52 1.534 . S
C1000 C391 1.525 . S
C1015 C61 1.528 . S
C1027 C398 1.525 . S
C1042 C70 1.531 . S
C1054 C314 1.525 . S
