# Generated by pormake.
# Topology rtl, (3,6)-cn, num edge types: 1
# Building blocks:
#     Node 0, Type 0, BuildingBlock: CUQRIR_clean_linker_1, # of connection points: 3
#     Node 1, Type 0, BuildingBlock: CUQRIR_clean_linker_1, # of connection points: 3
#     Node 2, Type 0, BuildingBlock: CUQRIR_clean_linker_1, # of connection points: 3
#     Node 3, Type 0, BuildingBlock: CUQRIR_clean_linker_1, # of connection points: 3
#     Node 4, Type 1, BuildingBlock: CIFDUS_clean_sbu_1, # of connection points: 6
#     Node 5, Type 1, BuildingBlock: CIFDUS_clean_sbu_1, # of connection points: 6
#     Edge 6, Type (0, 1), BuildingBlock: MIFKUJ_clean_linker_0, # of connection points: 2
#     Edge 7, Type (0, 1), BuildingBlock: MIFKUJ_clean_linker_0, # of connection points: 2
#     Edge 8, Type (0, 1), BuildingBlock: MIFKUJ_clean_linker_0, # of connection points: 2
#     Edge 9, Type (0, 1), BuildingBlock: MIFKUJ_clean_linker_0, # of connection points: 2
#     Edge 10, Type (0, 1), BuildingBlock: MIFKUJ_clean_linker_0, # of connection points: 2
#     Edge 11, Type (0, 1), BuildingBlock: MIFKUJ_clean_linker_0, # of connection points: 2
#     Edge 12, Type (0, 1), BuildingBlock: MIFKUJ_clean_linker_0, # of connection points: 2
#     Edge 13, Type (0, 1), BuildingBlock: MIFKUJ_clean_linker_0, # of connection points: 2
#     Edge 14, Type (0, 1), BuildingBlock: MIFKUJ_clean_linker_0, # of connection points: 2
#     Edge 15, Type (0, 1), BuildingBlock: MIFKUJ_clean_linker_0, # of connection points: 2
#     Edge 16, Type (0, 1), BuildingBlock: MIFKUJ_clean_linker_0, # of connection points: 2
#     Edge 17, Type (0, 1), BuildingBlock: MIFKUJ_clean_linker_0, # of connection points: 2
# Relax obj value: 0.023
# Max RMSD: 0.124
# Mean RMSD: 0.103
data_MOF--net-rtl--node1-CIFDUS_clean_sbu_1--node2-CUQRIR_clean_linker_1--edge1-MIFKUJ_clean_linker_0
_symmetry_space_group_name_H-M    P1
_symmetry_Int_Tables_number       1
_symmetry_cell_setting            triclinic
loop_
_symmetry_equiv_pos_as_xyz
'x, y, z'
_cell_length_a     43.79442
_cell_length_b     43.897892
_cell_length_c     27.005188
_cell_angle_alpha  90.118221
_cell_angle_beta   97.286952
_cell_angle_gamma 90.050021
loop_
_atom_site_label
_atom_site_type_symbol
_atom_site_fract_x
_atom_site_fract_y
_atom_site_fract_z
_atom_type_partial_charge
C0 C 0.23085 0.81297 0.04862 0.0
N1 N 0.21131 0.83464 0.06185 0.0
N2 N 0.24596 0.79944 0.08943 0.0
C3 C 0.23532 0.80492 0.99582 0.0
C4 C 0.2349 0.81334 0.12814 0.0
N5 N 0.21374 0.83473 0.11156 0.0
C6 C 0.24482 0.80605 0.18212 0.0
H7 H 0.24235 0.78077 0.99303 0.0
H8 H 0.25387 0.81941 0.98409 0.0
H9 H 0.2139 0.80893 0.96999 0.0
H10 H 0.26293 0.82247 0.19724 0.0
H11 H 0.25442 0.78268 0.18644 0.0
H12 H 0.22518 0.80834 0.20409 0.0
C13 C 0.71687 0.72784 0.61867 0.0
N14 N 0.69639 0.70568 0.60225 0.0
N15 N 0.72907 0.74065 0.57995 0.0
C16 C 0.72533 0.73699 0.67237 0.0
C17 C 0.71534 0.72548 0.53944 0.0
N18 N 0.69549 0.70432 0.55292 0.0
C19 C 0.72075 0.7318 0.48653 0.0
H20 H 0.71515 0.75962 0.67838 0.0
H21 H 0.75071 0.73922 0.68082 0.0
H22 H 0.71675 0.72067 0.69863 0.0
H23 H 0.73896 0.71626 0.47641 0.0
H24 H 0.72843 0.75565 0.48235 0.0
H25 H 0.69952 0.72755 0.46033 0.0
C26 C 0.81424 0.22904 0.04751 0.0
N27 N 0.83371 0.20734 0.03415 0.0
N28 N 0.79614 0.23987 0.00687 0.0
C29 C 0.81186 0.23885 0.10052 0.0
C30 C 0.8053 0.22381 0.96828 0.0
N31 N 0.82792 0.20372 0.98492 0.0
C32 C 0.79301 0.22904 0.91425 0.0
H33 H 0.79566 0.22338 0.11661 0.0
H34 H 0.80319 0.26252 0.10182 0.0
H35 H 0.83409 0.23773 0.12478 0.0
H36 H 0.80574 0.24832 0.89998 0.0
H37 H 0.76823 0.23505 0.91048 0.0
H38 H 0.79592 0.20918 0.89018 0.0
C39 C 0.28887 0.31265 0.46171 0.0
N40 N 0.31019 0.33434 0.47731 0.0
N41 N 0.27612 0.30092 0.50079 0.0
C42 C 0.28321 0.30016 0.40938 0.0
C43 C 0.29064 0.31597 0.54081 0.0
N44 N 0.31148 0.33596 0.5268 0.0
C45 C 0.28349 0.31234 0.59358 0.0
H46 H 0.26355 0.31239 0.38837 0.0
H47 H 0.27734 0.27557 0.40977 0.0
H48 H 0.30376 0.30315 0.3897 0.0
H49 H 0.29906 0.29494 0.61281 0.0
H50 H 0.25933 0.30488 0.59419 0.0
H51 H 0.28732 0.33408 0.61452 0.0
O52 O 0.99322 0.04002 0.48586 0.0
Mn53 Mn 0.01428 0.01241 0.54583 0.0
O54 O 0.96168 0.00872 0.43916 0.0
Mn55 Mn 0.9771 0.97531 0.47252 0.0
O56 O 0.03687 0.98541 0.60576 0.0
O57 O 0.0495 0.04434 0.55468 0.0
Mn58 Mn 0.05572 0.04555 0.62132 0.0
O59 O 0.9869 0.03477 0.59444 0.0
O60 O 0.07884 0.01167 0.63679 0.0
O61 O 0.04216 0.99054 0.49689 0.0
O62 O 0.01102 0.959 0.44994 0.0
O63 O 0.06594 0.083 0.60231 0.0
O64 O 0.02252 0.04802 0.65628 0.0
C65 C 0.95801 0.95726 0.52959 0.0
C66 C 0.97318 0.0348 0.44758 0.0
C67 C 0.06357 0.98701 0.63253 0.0
C68 C 0.05742 0.07315 0.55749 0.0
C69 C 0.99458 0.04543 0.6386 0.0
C70 C 0.03742 0.97025 0.46227 0.0
O71 O 0.97977 0.97839 0.5386 0.0
O72 O 0.94881 0.94892 0.48399 0.0
O73 O 0.53366 0.54388 0.09517 0.0
Mn74 Mn 0.51075 0.51438 0.04073 0.0
O75 O 0.5546 0.51299 0.15436 0.0
Mn76 Mn 0.54221 0.4796 0.11712 0.0
O77 O 0.48643 0.48704 0.98343 0.0
O78 O 0.4781 0.5491 0.03131 0.0
Mn79 Mn 0.47754 0.55542 0.96687 0.0
O80 O 0.53906 0.53212 0.98805 0.0
O81 O 0.46401 0.52198 0.93042 0.0
O82 O 0.48143 0.49648 0.09207 0.0
O83 O 0.50844 0.46045 0.13418 0.0
O84 O 0.44915 0.58169 0.9808 0.0
O85 O 0.51351 0.57195 0.95357 0.0
C86 C 0.5664 0.45918 0.06885 0.0
C87 C 0.549 0.53939 0.13803 0.0
C88 C 0.46924 0.49446 0.94276 0.0
C89 C 0.45744 0.57107 0.02527 0.0
C90 C 0.53731 0.55562 0.95925 0.0
C91 C 0.48335 0.47408 0.1231 0.0
O92 O 0.54485 0.47922 0.05102 0.0
O93 O 0.57304 0.45507 0.11655 0.0
H94 H 0.27961 0.25023 0.5579 0.0
H95 H 0.24091 0.20985 0.55754 0.0
H96 H 0.18322 0.25642 0.44012 0.0
H97 H 0.22136 0.29762 0.4425 0.0
H98 H 0.14999 0.23496 0.51052 0.0
H99 H 0.23016 0.19209 0.41825 0.0
H100 H 0.28415 0.17763 0.41323 0.0
H101 H 0.28381 0.12038 0.54193 0.0
H102 H 0.22994 0.1347 0.5479 0.0
H103 H 0.04119 0.11767 0.48747 0.0
H104 H 0.07785 0.15447 0.46059 0.0
H105 H 0.15289 0.10057 0.53397 0.0
H106 H 0.1167 0.06205 0.55248 0.0
H107 H 0.17766 0.12786 0.47911 0.0
H108 H 0.1077 0.17003 0.58653 0.0
H109 H 0.05761 0.18579 0.61097 0.0
H110 H 0.0425 0.24438 0.48305 0.0
H111 H 0.09236 0.22872 0.45765 0.0
C112 C 0.2585 0.25193 0.53247 0.0
C113 C 0.25343 0.27698 0.50018 0.0
C114 C 0.23653 0.2287 0.53183 0.0
C115 C 0.2093 0.22971 0.4981 0.0
C116 C 0.20409 0.25497 0.46624 0.0
C117 C 0.22594 0.27836 0.46728 0.0
C118 C 0.18621 0.20455 0.49592 0.0
C119 C 0.15586 0.21151 0.50318 0.0
C120 C 0.19408 0.17379 0.4884 0.0
C121 C 0.22608 0.16448 0.48349 0.0
C122 C 0.24162 0.17641 0.44541 0.0
C123 C 0.2722 0.16826 0.44245 0.0
C124 C 0.2874 0.1481 0.47723 0.0
C125 C 0.27201 0.13595 0.51496 0.0
C126 C 0.24145 0.14401 0.51807 0.0
C127 C 0.06561 0.11287 0.49459 0.0
C128 C 0.07608 0.08682 0.52154 0.0
C129 C 0.08672 0.13454 0.48104 0.0
C130 C 0.11851 0.13173 0.49778 0.0
C131 C 0.12882 0.1041 0.52044 0.0
C132 C 0.10795 0.08164 0.53077 0.0
C133 C 0.1409 0.1577 0.49532 0.0
C134 C 0.17131 0.15109 0.48679 0.0
C135 C 0.13348 0.1886 0.50472 0.0
C136 C 0.1035 0.1979 0.51987 0.0
C137 C 0.09359 0.18614 0.56352 0.0
C138 C 0.06526 0.19507 0.57753 0.0
C139 C 0.04684 0.21598 0.54848 0.0
C140 C 0.05675 0.22811 0.50544 0.0
C141 C 0.08502 0.21923 0.49122 0.0
H142 H 0.02491 0.22286 0.55938 0.0
H143 H 0.31109 0.14189 0.47494 0.0
H144 H 0.23658 0.73929 0.07956 0.0
H145 H 0.27609 0.69946 0.08005 0.0
H146 H 0.3471 0.76819 0.10259 0.0
H147 H 0.30723 0.80789 0.1016 0.0
H148 H 0.35887 0.72653 0.03235 0.0
H149 H 0.3316 0.72303 0.19938 0.0
H150 H 0.2965 0.71887 0.26361 0.0
H151 H 0.26584 0.63133 0.20574 0.0
H152 H 0.30046 0.63518 0.14075 0.0
H153 H 0.47948 0.62071 0.07602 0.0
H154 H 0.44532 0.66146 0.09738 0.0
H155 H 0.36858 0.5991 0.07769 0.0
H156 H 0.40277 0.55852 0.05624 0.0
H157 H 0.36189 0.63948 0.14978 0.0
H158 H 0.38636 0.64199 0.9824 0.0
H159 H 0.41842 0.64519 0.91387 0.0
H160 H 0.45138 0.73316 0.96607 0.0
H161 H 0.41996 0.73023 0.03556 0.0
C162 C 0.26068 0.74561 0.08486 0.0
C163 C 0.26918 0.77627 0.09098 0.0
C164 C 0.28321 0.72301 0.08524 0.0
C165 C 0.31464 0.73076 0.09202 0.0
C166 C 0.32305 0.76163 0.09752 0.0
C167 C 0.30044 0.78421 0.09721 0.0
C168 C 0.33861 0.70663 0.09324 0.0
C169 C 0.35996 0.70781 0.05867 0.0
C170 C 0.33946 0.68167 0.12648 0.0
C171 C 0.31841 0.6795 0.16507 0.0
C172 C 0.31717 0.70302 0.20013 0.0
C173 C 0.2974 0.7007 0.2367 0.0
C174 C 0.27892 0.67487 0.23871 0.0
C175 C 0.28015 0.65132 0.20413 0.0
C176 C 0.29985 0.65355 0.16745 0.0
C177 C 0.45573 0.61522 0.07964 0.0
C178 C 0.44388 0.58629 0.06547 0.0
C179 C 0.43604 0.63875 0.09046 0.0
C180 C 0.40423 0.63357 0.08769 0.0
C181 C 0.39301 0.60372 0.07973 0.0
C182 C 0.4127 0.58029 0.06861 0.0
C183 C 0.38229 0.65935 0.08908 0.0
C184 C 0.36118 0.65841 0.1239 0.0
C185 C 0.38147 0.6843 0.05555 0.0
C186 C 0.4012 0.68564 0.01477 0.0
C187 C 0.40081 0.66181 0.97977 0.0
C188 C 0.41878 0.66363 0.94062 0.0
C189 C 0.43702 0.68931 0.93574 0.0
C190 C 0.43733 0.71323 0.97001 0.0
C191 C 0.41948 0.71148 0.00933 0.0
H192 H 0.45083 0.69072 0.9053 0.0
H193 H 0.26367 0.67309 0.26713 0.0
H194 H 0.72744 0.79783 0.61655 0.0
H195 H 0.7682 0.8366 0.61953 0.0
H196 H 0.82471 0.77364 0.54859 0.0
H197 H 0.78412 0.73486 0.54666 0.0
H198 H 0.85768 0.80157 0.62577 0.0
H199 H 0.78801 0.83161 0.48415 0.0
H200 H 0.7377 0.84573 0.43852 0.0
H201 H 0.73358 0.92373 0.53361 0.0
H202 H 0.78368 0.90978 0.58046 0.0
H203 H 0.9703 0.89928 0.54985 0.0
H204 H 0.93105 0.86326 0.56493 0.0
H205 H 0.87427 0.93669 0.6079 0.0
H206 H 0.91255 0.97338 0.58541 0.0
H207 H 0.84 0.90402 0.55068 0.0
H208 H 0.91372 0.87221 0.69108 0.0
H209 H 0.96587 0.85713 0.72841 0.0
H210 H 0.96331 0.7806 0.62863 0.0
H211 H 0.91135 0.79541 0.59037 0.0
C212 C 0.74871 0.79237 0.60205 0.0
C213 C 0.75287 0.76347 0.58163 0.0
C214 C 0.77185 0.81453 0.6033 0.0
C215 C 0.79953 0.80815 0.58402 0.0
C216 C 0.80363 0.77914 0.56374 0.0
C217 C 0.78047 0.75707 0.5624 0.0
C218 C 0.82446 0.83145 0.58563 0.0
C219 C 0.85385 0.82397 0.60923 0.0
C220 C 0.81945 0.86082 0.56462 0.0
C221 C 0.78945 0.86945 0.53621 0.0
C222 C 0.77627 0.85164 0.49564 0.0
C223 C 0.7478 0.85962 0.4695 0.0
C224 C 0.73241 0.88556 0.48325 0.0
C225 C 0.74551 0.90361 0.52308 0.0
C226 C 0.77395 0.89568 0.54943 0.0
C227 C 0.95028 0.90773 0.56541 0.0
C228 C 0.94499 0.93922 0.56767 0.0
C229 C 0.92746 0.88689 0.57391 0.0
C230 C 0.89947 0.8967 0.58894 0.0
C231 C 0.89552 0.92821 0.59648 0.0
C232 C 0.91787 0.94929 0.58524 0.0
C233 C 0.87356 0.87447 0.59168 0.0
C234 C 0.84387 0.88198 0.56842 0.0
C235 C 0.87833 0.84491 0.61265 0.0
C236 C 0.90868 0.83494 0.63793 0.0
C237 C 0.92425 0.85209 0.67731 0.0
C238 C 0.95381 0.84364 0.6985 0.0
C239 C 0.96789 0.81793 0.6809 0.0
C240 C 0.95236 0.80047 0.6423 0.0
C241 C 0.92283 0.80883 0.62097 0.0
H242 H 0.99084 0.81153 0.69717 0.0
H243 H 0.71037 0.89171 0.46297 0.0
H244 H 0.74992 0.2421 0.06456 0.0
H245 H 0.71156 0.28189 0.06653 0.0
H246 H 0.74609 0.32658 0.94252 0.0
H247 H 0.78805 0.2896 0.947 0.0
H248 H 0.72937 0.36775 0.99472 0.0
H249 H 0.67286 0.27154 0.942 0.0
H250 H 0.65749 0.21855 0.95745 0.0
H251 H 0.62618 0.24616 0.09511 0.0
H252 H 0.64143 0.29913 0.08055 0.0
H253 H 0.59844 0.46879 0.98649 0.0
H254 H 0.63562 0.43245 0.95783 0.0
H255 H 0.61067 0.36689 0.06531 0.0
H256 H 0.57137 0.40025 0.08664 0.0
H257 H 0.62144 0.33623 1.00094 0.0
H258 H 0.68223 0.42574 0.07145 0.0
H259 H 0.69969 0.47924 0.0703 0.0
H260 H 0.72451 0.46652 0.92281 0.0
H261 H 0.70708 0.41305 0.9231 0.0
C262 C 0.74978 0.2608 0.0385 0.0
C263 C 0.77205 0.26255 1.00549 0.0
C264 C 0.72716 0.28323 0.03861 0.0
C265 C 0.7246 0.30678 1.003 0.0
C266 C 0.74699 0.30857 0.97001 0.0
C267 C 0.77072 0.28704 0.97187 0.0
C268 C 0.69893 0.32958 1.00018 0.0
C269 C 0.70571 0.36079 0.99602 0.0
C270 C 0.66792 0.32105 1.00251 0.0
C271 C 0.65832 0.2892 0.01015 0.0
C272 C 0.66266 0.26625 0.97546 0.0
C273 C 0.654 0.23623 0.98413 0.0
C274 C 0.64088 0.229 0.02722 0.0
C275 C 0.63629 0.25176 0.06171 0.0
C276 C 0.64486 0.28177 0.05321 0.0
C277 C 0.59994 0.4459 1.00149 0.0
C278 C 0.58172 0.43726 0.0384 0.0
C279 C 0.62194 0.42539 0.98643 0.0
C280 C 0.62694 0.39668 0.00997 0.0
C281 C 0.60757 0.38824 0.04527 0.0
C282 C 0.58484 0.40762 0.05778 0.0
C283 C 0.65201 0.37481 1.00033 0.0
C284 C 0.64509 0.34349 1.00042 0.0
C285 C 0.68296 0.38344 0.99717 0.0
C286 C 0.69295 0.41563 0.99702 0.0
C287 C 0.69123 0.43446 0.03871 0.0
C288 C 0.70117 0.46474 0.03823 0.0
C289 C 0.71309 0.4763 0.99644 0.0
C290 C 0.7152 0.45758 0.9551 0.0
C291 C 0.7053 0.42731 0.9554 0.0
H292 H 0.72078 0.49973 0.99614 0.0
H293 H 0.63426 0.20575 0.03388 0.0
H294 H 0.15453 0.83092 0.1283 0.0
H295 H 0.12965 0.8601 0.18979 0.0
H296 H 0.21485 0.90766 0.23451 0.0
H297 H 0.239 0.87995 0.1702 0.0
H298 H 0.16938 0.86752 0.31029 0.0
H299 H 0.18407 0.95425 0.19846 0.0
H300 H 0.17886 0.97644 0.11399 0.0
H301 H 0.08148 0.95955 0.09706 0.0
H302 H 0.0863 0.93659 0.18107 0.0
H303 H 0.10112 0.96382 0.48584 0.0
H304 H 0.13731 0.94541 0.42907 0.0
H305 H 0.06236 0.93939 0.30924 0.0
H306 H 0.027 0.95765 0.36437 0.0
H307 H 0.10934 0.96239 0.27414 0.0
H308 H 0.0898 0.87702 0.37567 0.0
H309 H 0.08886 0.8474 0.45293 0.0
H310 H 0.18725 0.85433 0.48409 0.0
H311 H 0.1887 0.88446 0.40736 0.0
C312 C 0.16733 0.84881 0.1493 0.0
C313 C 0.19809 0.85449 0.14275 0.0
C314 C 0.1534 0.86492 0.18522 0.0
C315 C 0.17036 0.88622 0.21633 0.0
C316 C 0.20126 0.89161 0.21039 0.0
C317 C 0.21493 0.87605 0.17357 0.0
C318 C 0.15582 0.90218 0.2558 0.0
C319 C 0.15684 0.88868 0.303 0.0
C320 C 0.13861 0.92908 0.24555 0.0
C321 C 0.13563 0.94337 0.19563 0.0
C322 C 0.16163 0.95494 0.17645 0.0
C323 C 0.15873 0.96771 0.12873 0.0
C324 C 0.12987 0.9693 0.10009 0.0
C325 C 0.10383 0.95823 0.11922 0.0
C326 C 0.10664 0.94533 0.16686 0.0
C327 C 0.09264 0.95884 0.44724 0.0
C328 C 0.06114 0.96185 0.42984 0.0
C329 C 0.11322 0.94816 0.4149 0.0
C330 C 0.10254 0.94077 0.36476 0.0
C331 C 0.07132 0.94489 0.34747 0.0
C332 C 0.05101 0.95519 0.3794 0.0
C333 C 0.12298 0.92803 0.32958 0.0
C334 C 0.1227 0.94182 0.28253 0.0
C335 C 0.14021 0.90093 0.33971 0.0
C336 C 0.13931 0.88347 0.38634 0.0
C337 C 0.11119 0.87259 0.39937 0.0
C338 C 0.11057 0.85563 0.44297 0.0
C339 C 0.13796 0.84912 0.47354 0.0
C340 C 0.16603 0.85951 0.4605 0.0
C341 C 0.16677 0.87655 0.417 0.0
H342 H 0.13744 0.83592 0.50723 0.0
H343 H 0.12767 0.9792 0.06314 0.0
H344 H 0.63587 0.7035 0.61218 0.0
H345 H 0.61142 0.67207 0.67102 0.0
H346 H 0.69966 0.63223 0.72386 0.0
H347 H 0.72339 0.66222 0.66228 0.0
H348 H 0.65887 0.59056 0.72507 0.0
H349 H 0.66458 0.69484 0.7844 0.0
H350 H 0.65493 0.7502 0.78068 0.0
H351 H 0.55743 0.73397 0.75949 0.0
H352 H 0.5665 0.67852 0.76243 0.0
H353 H 0.60182 0.5551 0.97041 0.0
H354 H 0.63412 0.57514 0.90861 0.0
H355 H 0.55265 0.59 0.80412 0.0
H356 H 0.52105 0.5695 0.8634 0.0
H357 H 0.59411 0.64395 0.83569 0.0
H358 H 0.58746 0.54163 0.76814 0.0
H359 H 0.59495 0.48603 0.773 0.0
H360 H 0.69238 0.49895 0.81039 0.0
H361 H 0.68533 0.55475 0.80652 0.0
C362 C 0.64969 0.68731 0.63532 0.0
C363 C 0.68136 0.68499 0.63272 0.0
C364 C 0.63591 0.66975 0.66966 0.0
C365 C 0.6538 0.65029 0.70314 0.0
C366 C 0.6853 0.64712 0.69887 0.0
C367 C 0.69889 0.66421 0.66383 0.0
C368 C 0.64006 0.63398 0.74352 0.0
C369 C 0.64516 0.60246 0.74972 0.0
C370 C 0.6217 0.64916 0.77556 0.0
C371 C 0.61625 0.68252 0.77326 0.0
C372 C 0.6411 0.70308 0.7786 0.0
C373 C 0.63572 0.73448 0.77667 0.0
C374 C 0.60559 0.74559 0.76978 0.0
C375 C 0.58076 0.72534 0.76479 0.0
C376 C 0.58601 0.69393 0.76661 0.0
C377 C 0.5911 0.56188 0.93376 0.0
C378 C 0.55889 0.56125 0.92213 0.0
C379 C 0.60943 0.57346 0.89868 0.0
C380 C 0.59558 0.58444 0.85214 0.0
C381 C 0.56375 0.58196 0.83987 0.0
C382 C 0.54575 0.57023 0.87403 0.0
C383 C 0.61307 0.6009 0.81695 0.0
C384 C 0.60841 0.63237 0.81155 0.0
C385 C 0.63156 0.58573 0.78558 0.0
C386 C 0.63582 0.55231 0.78791 0.0
C387 C 0.61042 0.53262 0.77806 0.0
C388 C 0.6146 0.50108 0.78045 0.0
C389 C 0.64411 0.48896 0.79222 0.0
C390 C 0.66952 0.50838 0.80143 0.0
C391 C 0.66545 0.53996 0.79915 0.0
H392 H 0.64731 0.46452 0.79403 0.0
H393 H 0.60148 0.76991 0.76839 0.0
H394 H 0.88252 0.22883 0.09409 0.0
H395 H 0.90899 0.20324 0.16718 0.0
H396 H 0.86124 0.11964 0.12124 0.0
H397 H 0.83199 0.14687 0.05123 0.0
H398 H 0.85886 0.124 0.211 0.0
H399 H 0.94527 0.13602 0.12069 0.0
H400 H 0.98053 0.16413 0.07289 0.0
H401 H 0.00658 0.22263 0.19888 0.0
H402 H 0.97117 0.19509 0.24721 0.0
H403 H 0.95347 0.02205 0.35151 0.0
H404 H 0.93339 0.05593 0.28529 0.0
H405 H 0.95312 0.13324 0.38281 0.0
H406 H 0.9735 0.09861 0.45164 0.0
H407 H 0.96948 0.13616 0.27517 0.0
H408 H 0.88351 0.11511 0.36633 0.0
H409 H 0.85021 0.08102 0.40842 0.0
H410 H 0.82641 0.03124 0.27193 0.0
H411 H 0.85993 0.06473 0.2292 0.0
C412 C 0.87811 0.20487 0.0995 0.0
C413 C 0.85496 0.18988 0.06794 0.0
C414 C 0.89348 0.19005 0.14106 0.0
C415 C 0.88755 0.1592 0.15013 0.0
C416 C 0.86615 0.1435 0.11576 0.0
C417 C 0.84979 0.1588 0.07527 0.0
C418 C 0.90195 0.14405 0.19696 0.0
C419 C 0.88314 0.12651 0.2244 0.0
C420 C 0.93353 0.14765 0.21587 0.0
C421 C 0.95543 0.16366 0.18738 0.0
C422 C 0.95846 0.15494 0.13812 0.0
C423 C 0.97846 0.17077 0.11094 0.0
C424 C 0.99573 0.19519 0.1328 0.0
C425 C 0.99317 0.20373 0.18199 0.0
C426 C 0.97319 0.18799 0.20932 0.0
C427 C 0.9536 0.04624 0.35964 0.0
C428 C 0.96443 0.05753 0.40763 0.0
C429 C 0.94213 0.06559 0.32131 0.0
C430 C 0.94114 0.09694 0.32939 0.0
C431 C 0.95342 0.10891 0.37621 0.0
C432 C 0.96505 0.08923 0.41536 0.0
C433 C 0.92641 0.11622 0.28812 0.0
C434 C 0.94513 0.13425 0.26167 0.0
C435 C 0.89501 0.11222 0.26917 0.0
C436 C 0.87435 0.09239 0.29463 0.0
C437 C 0.87131 0.09679 0.34536 0.0
C438 C 0.85238 0.07758 0.36932 0.0
C439 C 0.83623 0.05396 0.34288 0.0
C440 C 0.83892 0.04955 0.29237 0.0
C441 C 0.85784 0.06868 0.26824 0.0
H442 H 0.8216 0.0391 0.36152 0.0
H443 H 0.01115 0.20748 0.11165 0.0
H444 H 0.35723 0.31083 0.58749 0.0
H445 H 0.3875 0.33509 0.65946 0.0
H446 H 0.34441 0.42124 0.61771 0.0
H447 H 0.31406 0.39656 0.5453 0.0
H448 H 0.40526 0.42807 0.65088 0.0
H449 H 0.31919 0.37934 0.70665 0.0
H450 H 0.28288 0.33807 0.71966 0.0
H451 H 0.35598 0.28721 0.80228 0.0
H452 H 0.39291 0.32791 0.78891 0.0
H453 H 0.41801 0.5039 0.87849 0.0
H454 H 0.39732 0.4734 0.80764 0.0
H455 H 0.46339 0.40278 0.85204 0.0
H456 H 0.48571 0.43436 0.92385 0.0
H457 H 0.39512 0.38563 0.81829 0.0
H458 H 0.48052 0.43979 0.76356 0.0
H459 H 0.51285 0.48448 0.75131 0.0
H460 H 0.43544 0.52912 0.66852 0.0
H461 H 0.40251 0.4849 0.68096 0.0
C462 C 0.35498 0.33512 0.59314 0.0
C463 C 0.33373 0.35201 0.56101 0.0
C464 C 0.37191 0.34887 0.63445 0.0
C465 C 0.3678 0.37983 0.64457 0.0
C466 C 0.34784 0.39725 0.61074 0.0
C467 C 0.33076 0.38334 0.56927 0.0
C468 C 0.38375 0.39361 0.69119 0.0
C469 C 0.4029 0.41886 0.68745 0.0
C470 C 0.38097 0.38136 0.73901 0.0
C471 C 0.35894 0.35651 0.74613 0.0
C472 C 0.32764 0.35918 0.72701 0.0
C473 C 0.30691 0.33592 0.73458 0.0
C474 C 0.31714 0.30999 0.76163 0.0
C475 C 0.34811 0.30727 0.78119 0.0
C476 C 0.36895 0.33042 0.7736 0.0
C477 C 0.42834 0.48182 0.87384 0.0
C478 C 0.45401 0.47184 0.90667 0.0
C479 C 0.41634 0.46443 0.83302 0.0
C480 C 0.42919 0.4362 0.82399 0.0
C481 C 0.45343 0.42481 0.85827 0.0
C482 C 0.46599 0.44268 0.8994 0.0
C483 C 0.41698 0.41965 0.77775 0.0
C484 C 0.39805 0.39425 0.78157 0.0
C485 C 0.41943 0.43212 0.73005 0.0
C486 C 0.439 0.45909 0.72358 0.0
C487 C 0.47029 0.45928 0.74327 0.0
C488 C 0.48875 0.4845 0.73616 0.0
C489 C 0.4762 0.50965 0.70924 0.0
C490 C 0.44514 0.50964 0.68941 0.0
C491 C 0.42657 0.48449 0.69646 0.0
H492 H 0.49055 0.52911 0.70365 0.0
H493 H 0.30104 0.29204 0.76758 0.0
H494 H 0.63445 0.70613 0.52435 0.0
H495 H 0.60614 0.67788 0.45451 0.0
H496 H 0.68944 0.63008 0.43253 0.0
H497 H 0.7174 0.65807 0.50312 0.0
H498 H 0.66277 0.65742 0.34777 0.0
H499 H 0.63169 0.59244 0.47357 0.0
H500 H 0.61019 0.58063 0.55136 0.0
H501 H 0.52303 0.61798 0.48967 0.0
H502 H 0.54421 0.63055 0.41177 0.0
H503 H 0.60849 0.54686 0.17113 0.0
H504 H 0.63011 0.57645 0.24338 0.0
H505 H 0.54084 0.61576 0.25395 0.0
H506 H 0.51879 0.58492 0.1816 0.0
H507 H 0.56771 0.5954 0.34405 0.0
H508 H 0.60012 0.65893 0.21594 0.0
H509 H 0.62285 0.66824 0.13835 0.0
H510 H 0.70898 0.63123 0.20551 0.0
H511 H 0.68663 0.62132 0.28329 0.0
C512 C 0.6462 0.68856 0.50599 0.0
C513 C 0.67775 0.68352 0.51962 0.0
C514 C 0.6302 0.6727 0.4658 0.0
C515 C 0.64568 0.65182 0.43837 0.0
C516 C 0.67703 0.64603 0.45323 0.0
C517 C 0.69291 0.66172 0.49362 0.0
C518 C 0.62994 0.63803 0.39174 0.0
C519 C 0.64215 0.64362 0.34708 0.0
C520 C 0.60259 0.62071 0.39062 0.0
C521 C 0.58964 0.61277 0.43706 0.0
C522 C 0.60801 0.59838 0.47674 0.0
C523 C 0.59588 0.59152 0.52084 0.0
C524 C 0.56529 0.59864 0.52552 0.0
C525 C 0.54674 0.61253 0.48602 0.0
C526 C 0.5588 0.61953 0.44188 0.0
C527 C 0.59372 0.5627 0.18771 0.0
C528 C 0.56224 0.56433 0.1701 0.0
C529 C 0.60603 0.57947 0.22924 0.0
C530 C 0.58723 0.59868 0.25385 0.0
C531 C 0.55582 0.60124 0.2353 0.0
C532 C 0.54336 0.58416 0.1935 0.0
C533 C 0.60063 0.61476 0.30008 0.0
C534 C 0.58808 0.60955 0.34469 0.0
C535 C 0.62783 0.63234 0.30135 0.0
C536 C 0.64168 0.63934 0.25535 0.0
C537 C 0.6239 0.65276 0.21411 0.0
C538 C 0.6367 0.6581 0.17009 0.0
C539 C 0.66733 0.65031 0.16699 0.0
C540 C 0.68527 0.63728 0.20799 0.0
C541 C 0.67257 0.63186 0.25209 0.0
H542 H 0.67718 0.6544 0.13282 0.0
H543 H 0.55594 0.59333 0.55971 0.0
H544 H 0.88903 0.20164 0.97849 0.0
H545 H 0.91468 0.17146 0.91919 0.0
H546 H 0.82728 0.13112 0.86175 0.0
H547 H 0.80267 0.159 0.92445 0.0
H548 H 0.86548 0.09115 0.85552 0.0
H549 H 0.86696 0.19703 0.80596 0.0
H550 H 0.87937 0.25172 0.81597 0.0
H551 H 0.97575 0.23057 0.84322 0.0
H552 H 0.9639 0.17576 0.83402 0.0
H553 H 0.93048 0.05326 0.61874 0.0
H554 H 0.89682 0.07737 0.67483 0.0
H555 H 0.97486 0.08879 0.78755 0.0
H556 H 0.00771 0.06448 0.73439 0.0
H557 H 0.93702 0.14434 0.75645 0.0
H558 H 0.93497 0.03959 0.81375 0.0
H559 H 0.92349 0.98474 0.8046 0.0
H560 H 0.82788 0.00484 0.76137 0.0
H561 H 0.83896 0.05991 0.76938 0.0
C562 C 0.8756 0.18581 0.95376 0.0
C563 C 0.84376 0.18324 0.95483 0.0
C564 C 0.89009 0.16894 0.91916 0.0
C565 C 0.87281 0.14987 0.88391 0.0
C566 C 0.84128 0.14593 0.88755 0.0
C567 C 0.8271 0.16201 0.92316 0.0
C568 C 0.88719 0.13417 0.84315 0.0
C569 C 0.88059 0.10316 0.83333 0.0
C570 C 0.90741 0.1493 0.81406 0.0
C571 C 0.9145 0.18228 0.81966 0.0
C572 C 0.89078 0.20404 0.81436 0.0
C573 C 0.89772 0.23506 0.81987 0.0
C574 C 0.92832 0.2446 0.83031 0.0
C575 C 0.95206 0.22315 0.83518 0.0
C576 C 0.94524 0.19212 0.82979 0.0
C577 C 0.94026 0.06053 0.65572 0.0
C578 C 0.972 0.05705 0.6714 0.0
C579 C 0.92108 0.07438 0.68764 0.0
C580 C 0.93351 0.08514 0.73522 0.0
C581 C 0.9648 0.08095 0.75098 0.0
C582 C 0.9836 0.0669 0.72004 0.0
C583 C 0.91502 0.10179 0.76917 0.0
C584 C 0.92115 0.13284 0.77796 0.0
C585 C 0.89438 0.08682 0.79713 0.0
C586 C 0.88789 0.05384 0.79117 0.0
C587 C 0.9116 0.03234 0.80145 0.0
C588 C 0.90514 0.0012 0.79669 0.0
C589 C 0.875 0.99131 0.78214 0.0
C590 C 0.85124 0.01254 0.77241 0.0
C591 C 0.8576 0.0437 0.777 0.0
H592 H 0.87003 0.96719 0.77863 0.0
H593 H 0.93365 0.26862 0.83453 0.0
H594 H 0.37182 0.34704 0.48701 0.0
H595 H 0.39918 0.37526 0.42723 0.0
H596 H 0.31324 0.39044 0.33395 0.0
H597 H 0.28573 0.36443 0.39506 0.0
H598 H 0.37065 0.36031 0.28978 0.0
H599 H 0.33198 0.44706 0.37607 0.0
H600 H 0.32561 0.47696 0.45146 0.0
H601 H 0.42379 0.48435 0.48618 0.0
H602 H 0.4307 0.45399 0.41135 0.0
H603 H 0.42315 0.45367 0.09989 0.0
H604 H 0.39063 0.43254 0.15991 0.0
H605 H 0.46056 0.45603 0.28138 0.0
H606 H 0.49194 0.47779 0.2224 0.0
H607 H 0.40946 0.46628 0.31135 0.0
H608 H 0.45078 0.38146 0.22981 0.0
H609 H 0.46099 0.34799 0.16031 0.0
H610 H 0.36395 0.33322 0.12156 0.0
H611 H 0.35316 0.36688 0.19053 0.0
C612 C 0.35872 0.35712 0.4545 0.0
C613 C 0.32659 0.35328 0.44554 0.0
C614 C 0.37439 0.3729 0.42008 0.0
C615 C 0.35823 0.38458 0.37585 0.0
C616 C 0.32618 0.38135 0.36753 0.0
C617 C 0.31052 0.36641 0.40239 0.0
C618 C 0.37457 0.39972 0.33754 0.0
C619 C 0.37888 0.38361 0.29407 0.0
C620 C 0.38591 0.42976 0.34375 0.0
C621 C 0.38183 0.4479 0.38864 0.0
C622 C 0.35219 0.45473 0.40016 0.0
C623 C 0.34849 0.47183 0.44268 0.0
C624 C 0.37428 0.48244 0.47371 0.0
C625 C 0.40383 0.47604 0.46219 0.0
C626 C 0.40766 0.45889 0.41974 0.0
C627 C 0.43089 0.45519 0.13953 0.0
C628 C 0.45982 0.46779 0.15658 0.0
C629 C 0.41264 0.44262 0.17382 0.0
C630 C 0.42326 0.44219 0.22546 0.0
C631 C 0.45159 0.45603 0.2421 0.0
C632 C 0.46951 0.46864 0.20824 0.0
C633 C 0.40573 0.427 0.26275 0.0
C634 C 0.40121 0.44302 0.30643 0.0
C635 C 0.39477 0.39659 0.25706 0.0
C636 C 0.40116 0.37705 0.2148 0.0
C637 C 0.43162 0.37136 0.20608 0.0
C638 C 0.43751 0.35228 0.16689 0.0
C639 C 0.41313 0.33859 0.1364 0.0
C640 C 0.38281 0.34391 0.14509 0.0
C641 C 0.37679 0.36299 0.18422 0.0
H642 H 0.41774 0.32378 0.10614 0.0
H643 H 0.37136 0.49571 0.5066 0.0
H644 H 0.14925 0.84212 0.04591 0.0
H645 H 0.12029 0.87069 0.97819 0.0
H646 H 0.20574 0.89752 0.92638 0.0
H647 H 0.2343 0.8728 0.9986 0.0
H648 H 0.1712 0.93875 0.90248 0.0
H649 H 0.15349 0.83007 0.88055 0.0
H650 H 0.13629 0.77915 0.90405 0.0
H651 H 0.04522 0.81379 0.91085 0.0
H652 H 0.06198 0.86495 0.88776 0.0
H653 H 0.12112 0.96406 0.65039 0.0
H654 H 0.14335 0.93725 0.72564 0.0
H655 H 0.05369 0.93268 0.77558 0.0
H656 H 0.03119 0.95855 0.69897 0.0
H657 H 0.08637 0.88247 0.80257 0.0
H658 H 0.10728 0.99143 0.8158 0.0
H659 H 0.12745 0.04029 0.78846 0.0
H660 H 0.21741 0.00091 0.79178 0.0
H661 H 0.19773 0.95181 0.81885 0.0
C662 C 0.16175 0.85555 0.0218 0.0
C663 C 0.19404 0.85557 0.02796 0.0
C664 C 0.14518 0.87107 0.98177 0.0
C665 C 0.16059 0.88533 0.94535 0.0
C666 C 0.19295 0.88664 0.95326 0.0
C667 C 0.20939 0.87239 0.99451 0.0
C668 C 0.14356 0.89791 0.89818 0.0
C669 C 0.15295 0.92607 0.88056 0.0
C670 C 0.11911 0.88206 0.86936 0.0
C671 C 0.10905 0.85132 0.88292 0.0
C672 C 0.12984 0.82681 0.88725 0.0
C673 C 0.12016 0.79792 0.90048 0.0
C674 C 0.0897 0.79326 0.90906 0.0
C675 C 0.06881 0.81744 0.90426 0.0
C676 C 0.07837 0.84637 0.89105 0.0
C677 C 0.106 0.95625 0.67655 0.0
C678 C 0.07442 0.96303 0.66867 0.0
C679 C 0.11878 0.94141 0.71997 0.0
C680 C 0.1004 0.93385 0.75714 0.0
C681 C 0.06841 0.93853 0.74765 0.0
C682 C 0.05548 0.95298 0.70362 0.0
C683 C 0.11481 0.92257 0.80666 0.0
C684 C 0.10471 0.8949 0.82474 0.0
C685 C 0.13922 0.9384 0.83524 0.0
C686 C 0.15098 0.96796 0.81904 0.0
C687 C 0.13132 0.99319 0.81047 0.0
C688 C 0.14268 0.02092 0.79508 0.0
C689 C 0.17368 0.02369 0.78831 0.0
C690 C 0.19341 0.99875 0.79703 0.0
C691 C 0.18218 0.971 0.81249 0.0
H692 H 0.18242 0.04517 0.77638 0.0
H693 H 0.08226 0.77088 0.91934 0.0
loop_
_geom_bond_atom_site_label_1
_geom_bond_atom_site_label_2
_geom_bond_distance
_geom_bond_site_symmetry_2
_ccdc_geom_bond_type
C0 N1 1.317 . S
C0 N2 1.348 . S
C0 C3 1.485 1_554 S
N1 C0 1.317 . S
N1 N5 1.370 . S
N2 C0 1.348 . S
N2 C4 1.346 . S
C3 C0 1.485 1_556 S
C3 H7 0.960 . S
C3 H8 0.961 . S
C3 H9 0.960 . S
C4 N2 1.346 . S
C4 N5 1.307 . S
C4 C6 1.486 . S
N5 N1 1.370 . S
N5 C4 1.307 . S
C6 C4 1.486 . S
C6 H10 0.960 . S
C6 H11 0.960 . S
C6 H12 0.959 . S
H7 C3 0.960 . S
H8 C3 0.961 . S
H9 C3 0.960 . S
H10 C6 0.960 . S
H11 C6 0.960 . S
H12 C6 0.959 . S
C13 N14 1.317 . S
C13 N15 1.348 . S
C13 C16 1.485 . S
N14 C13 1.317 . S
N14 N18 1.370 . S
N15 C13 1.348 . S
N15 C17 1.346 . S
C16 C13 1.485 . S
C16 H20 0.960 . S
C16 H21 0.961 . S
C16 H22 0.960 . S
C17 N15 1.346 . S
C17 N18 1.307 . S
C17 C19 1.486 . S
N18 N14 1.370 . S
N18 C17 1.307 . S
C19 C17 1.486 . S
C19 H23 0.960 . S
C19 H24 0.960 . S
C19 H25 0.959 . S
H20 C16 0.960 . S
H21 C16 0.961 . S
H22 C16 0.960 . S
H23 C19 0.960 . S
H24 C19 0.960 . S
H25 C19 0.959 . S
C26 N27 1.317 . S
C26 N28 1.348 . S
C26 C29 1.485 . S
N27 C26 1.317 . S
N27 N31 1.370 1_554 S
N28 C26 1.348 . S
N28 C30 1.346 1_554 S
C29 C26 1.485 . S
C29 H33 0.960 . S
C29 H34 0.961 . S
C29 H35 0.960 . S
C30 N28 1.346 1_556 S
C30 N31 1.307 . S
C30 C32 1.486 . S
N31 N27 1.370 1_556 S
N31 C30 1.307 . S
C32 C30 1.486 . S
C32 H36 0.960 . S
C32 H37 0.960 . S
C32 H38 0.959 . S
H33 C29 0.960 . S
H34 C29 0.961 . S
H35 C29 0.960 . S
H36 C32 0.960 . S
H37 C32 0.960 . S
H38 C32 0.959 . S
C39 N40 1.317 . S
C39 N41 1.348 . S
C39 C42 1.485 . S
N40 C39 1.317 . S
N40 N44 1.370 . S
N41 C39 1.348 . S
N41 C43 1.346 . S
C42 C39 1.485 . S
C42 H46 0.960 . S
C42 H47 0.961 . S
C42 H48 0.960 . S
C43 N41 1.346 . S
C43 N44 1.307 . S
C43 C45 1.486 . S
N44 N40 1.370 . S
N44 C43 1.307 . S
C45 C43 1.486 . S
C45 H49 0.960 . S
C45 H50 0.960 . S
C45 H51 0.959 . S
H46 C42 0.960 . S
H47 C42 0.961 . S
H48 C42 0.960 . S
H49 C45 0.960 . S
H50 C45 0.960 . S
H51 C45 0.959 . S
O52 Mn53 2.158 1_655 S
O52 C66 1.254 . S
Mn53 O52 2.158 1_455 S
Mn53 O56 2.160 1_545 S
Mn53 O57 2.221 . S
Mn53 O59 2.163 1_455 S
Mn53 O61 2.160 1_545 S
Mn53 O71 2.221 1_445 S
O54 Mn55 2.087 1_545 S
O54 C66 1.256 . S
Mn55 O54 2.087 1_565 S
Mn55 O62 2.089 1_655 S
Mn55 O71 2.290 . S
Mn55 O72 2.251 . S
O56 Mn53 2.160 1_565 S
O56 C67 1.239 . S
O57 Mn53 2.221 . S
O57 Mn58 2.290 . S
O57 C68 1.278 . S
Mn58 O57 2.290 . S
Mn58 O60 2.089 . S
Mn58 O63 2.251 . S
Mn58 O64 2.087 . S
O59 Mn53 2.163 1_655 S
O59 C69 1.244 . S
O60 Mn58 2.089 . S
O60 C67 1.256 1_545 S
O61 Mn53 2.160 1_565 S
O61 C70 1.239 . S
O62 Mn55 2.089 1_455 S
O62 C70 1.256 . S
O63 Mn58 2.251 . S
O63 C68 1.241 . S
O64 Mn58 2.087 . S
O64 C69 1.256 1_455 S
C65 O71 1.278 . S
C65 O72 1.241 . S
C66 O52 1.254 . S
C66 O54 1.256 . S
C67 O56 1.239 . S
C67 O60 1.256 1_565 S
C68 O57 1.278 . S
C68 O63 1.241 . S
C69 O59 1.244 . S
C69 O64 1.256 1_655 S
C70 O61 1.239 . S
C70 O62 1.256 . S
O71 Mn53 2.221 1_665 S
O71 Mn55 2.290 . S
O71 C65 1.278 . S
O72 Mn55 2.251 . S
O72 C65 1.241 . S
O73 Mn74 2.163 . S
O73 C87 1.244 . S
Mn74 O73 2.163 . S
Mn74 O77 2.160 1_554 S
Mn74 O78 2.221 . S
Mn74 O80 2.163 1_554 S
Mn74 O82 2.160 . S
Mn74 O92 2.221 . S
O75 Mn76 2.087 . S
O75 C87 1.256 . S
Mn76 O75 2.087 . S
Mn76 O83 2.089 . S
Mn76 O92 2.290 . S
Mn76 O93 2.251 . S
O77 Mn74 2.160 1_556 S
O77 C88 1.239 . S
O78 Mn74 2.221 . S
O78 Mn79 2.290 1_554 S
O78 C89 1.278 . S
Mn79 O78 2.290 1_556 S
Mn79 O81 2.089 . S
Mn79 O84 2.251 . S
Mn79 O85 2.087 . S
O80 Mn74 2.163 1_556 S
O80 C90 1.244 . S
O81 Mn79 2.089 . S
O81 C88 1.256 . S
O82 Mn74 2.160 . S
O82 C91 1.239 . S
O83 Mn76 2.089 . S
O83 C91 1.256 . S
O84 Mn79 2.251 . S
O84 C89 1.241 1_556 S
O85 Mn79 2.087 . S
O85 C90 1.256 . S
C86 O92 1.278 . S
C86 O93 1.241 . S
C87 O73 1.244 . S
C87 O75 1.256 . S
C88 O77 1.239 . S
C88 O81 1.256 . S
C89 O78 1.278 . S
C89 O84 1.241 1_554 S
C90 O80 1.244 . S
C90 O85 1.256 . S
C91 O82 1.239 . S
C91 O83 1.256 . S
O92 Mn74 2.221 . S
O92 Mn76 2.290 . S
O92 C86 1.278 . S
O93 Mn76 2.251 . S
O93 C86 1.241 . S
H94 C112 0.951 . S
H95 C114 0.951 . S
H96 C116 0.950 . S
H97 C117 0.950 . S
H98 C119 0.950 . S
H99 C122 0.950 . S
H100 C123 0.950 . S
H101 C125 0.950 . S
H102 C126 0.950 . S
H103 C127 0.951 . S
H104 C129 0.951 . S
H105 C131 0.950 . S
H106 C132 0.950 . S
H107 C134 0.950 . S
H108 C137 0.950 . S
H109 C138 0.950 . S
H110 C140 0.950 . S
H111 C141 0.950 . S
C112 H94 0.951 . S
C112 C113 1.366 . S
C112 C114 1.388 . S
C113 C112 1.366 . S
C113 C117 1.385 . S
C114 H95 0.951 . S
C114 C112 1.388 . S
C114 C115 1.366 . S
C115 C114 1.366 . S
C115 C116 1.414 . S
C115 C118 1.499 . S
C116 H96 0.950 . S
C116 C115 1.414 . S
C116 C117 1.374 . S
C117 H97 0.950 . S
C117 C113 1.385 . S
C117 C116 1.374 . S
C118 C115 1.499 . S
C118 C119 1.373 . S
C118 C120 1.389 . S
C119 H98 0.950 . S
C119 C118 1.373 . S
C119 C135 1.377 . S
C120 C118 1.389 . S
C120 C121 1.524 . S
C120 C134 1.377 . S
C121 C120 1.524 . S
C121 C122 1.397 . S
C121 C126 1.363 . S
C122 H99 0.950 . S
C122 C121 1.397 . S
C122 C123 1.334 . S
C123 H100 0.950 . S
C123 C122 1.334 . S
C123 C124 1.287 . S
C124 C123 1.287 . S
C124 C125 1.524 . S
C124 H143 0.913 . S
C125 H101 0.950 . S
C125 C124 1.524 . S
C125 C126 1.415 . S
C126 H102 0.950 . S
C126 C121 1.363 . S
C126 C125 1.415 . S
C127 H103 0.951 . S
C127 C128 1.366 . S
C127 C129 1.388 . S
C128 C127 1.366 . S
C128 C132 1.385 . S
C129 H104 0.951 . S
C129 C127 1.388 . S
C129 C130 1.366 . S
C130 C129 1.366 . S
C130 C131 1.414 . S
C130 C133 1.499 . S
C131 H105 0.950 . S
C131 C130 1.414 . S
C131 C132 1.374 . S
C132 H106 0.950 . S
C132 C128 1.385 . S
C132 C131 1.374 . S
C133 C130 1.499 . S
C133 C134 1.373 . S
C133 C135 1.389 . S
C134 H107 0.950 . S
C134 C120 1.377 . S
C134 C133 1.373 . S
C135 C119 1.377 . S
C135 C133 1.389 . S
C135 C136 1.524 . S
C136 C135 1.524 . S
C136 C137 1.397 . S
C136 C141 1.363 . S
C137 H108 0.950 . S
C137 C136 1.397 . S
C137 C138 1.334 . S
C138 H109 0.950 . S
C138 C137 1.334 . S
C138 C139 1.287 . S
C139 C138 1.287 . S
C139 C140 1.524 . S
C139 H142 0.999 . S
C140 H110 0.950 . S
C140 C139 1.524 . S
C140 C141 1.415 . S
C141 H111 0.950 . S
C141 C136 1.363 . S
C141 C140 1.415 . S
H142 C139 0.999 . S
H143 C124 0.913 . S
H144 C162 0.951 . S
H145 C164 0.951 . S
H146 C166 0.950 . S
H147 C167 0.950 . S
H148 C169 0.950 . S
H149 C172 0.950 . S
H150 C173 0.950 . S
H151 C175 0.950 . S
H152 C176 0.950 . S
H153 C177 0.951 . S
H154 C179 0.951 . S
H155 C181 0.950 . S
H156 C182 0.950 . S
H157 C184 0.950 . S
H158 C187 0.950 . S
H159 C188 0.950 . S
H160 C190 0.950 . S
H161 C191 0.950 1_554 S
C162 H144 0.951 . S
C162 C163 1.366 . S
C162 C164 1.388 . S
C163 C162 1.366 . S
C163 C167 1.385 . S
C164 H145 0.951 . S
C164 C162 1.388 . S
C164 C165 1.366 . S
C165 C164 1.366 . S
C165 C166 1.414 . S
C165 C168 1.499 . S
C166 H146 0.950 . S
C166 C165 1.414 . S
C166 C167 1.374 . S
C167 H147 0.950 . S
C167 C163 1.385 . S
C167 C166 1.374 . S
C168 C165 1.499 . S
C168 C169 1.373 . S
C168 C170 1.389 . S
C169 H148 0.950 . S
C169 C168 1.373 . S
C169 C185 1.377 . S
C170 C168 1.389 . S
C170 C171 1.524 . S
C170 C184 1.377 . S
C171 C170 1.524 . S
C171 C172 1.397 . S
C171 C176 1.363 . S
C172 H149 0.950 . S
C172 C171 1.397 . S
C172 C173 1.334 . S
C173 H150 0.950 . S
C173 C172 1.334 . S
C173 C174 1.287 . S
C174 C173 1.287 . S
C174 C175 1.524 . S
C174 H193 0.913 . S
C175 H151 0.950 . S
C175 C174 1.524 . S
C175 C176 1.415 . S
C176 H152 0.950 . S
C176 C171 1.363 . S
C176 C175 1.415 . S
C177 H153 0.951 . S
C177 C178 1.366 . S
C177 C179 1.388 . S
C178 C177 1.366 . S
C178 C182 1.385 . S
C179 H154 0.951 . S
C179 C177 1.388 . S
C179 C180 1.366 . S
C180 C179 1.366 . S
C180 C181 1.414 . S
C180 C183 1.499 . S
C181 H155 0.950 . S
C181 C180 1.414 . S
C181 C182 1.374 . S
C182 H156 0.950 . S
C182 C178 1.385 . S
C182 C181 1.374 . S
C183 C180 1.499 . S
C183 C184 1.373 . S
C183 C185 1.389 . S
C184 H157 0.950 . S
C184 C170 1.377 . S
C184 C183 1.373 . S
C185 C169 1.377 . S
C185 C183 1.389 . S
C185 C186 1.524 1_554 S
C186 C185 1.524 1_556 S
C186 C187 1.397 . S
C186 C191 1.363 . S
C187 H158 0.950 . S
C187 C186 1.397 . S
C187 C188 1.334 . S
C188 H159 0.950 . S
C188 C187 1.334 . S
C188 C189 1.287 . S
C189 C188 1.287 . S
C189 C190 1.524 . S
C189 H192 0.999 . S
C190 H160 0.950 . S
C190 C189 1.524 . S
C190 C191 1.415 . S
C191 H161 0.950 1_556 S
C191 C186 1.363 . S
C191 C190 1.415 . S
H192 C189 0.999 . S
H193 C174 0.913 . S
H194 C212 0.951 . S
H195 C214 0.951 . S
H196 C216 0.950 . S
H197 C217 0.950 . S
H198 C219 0.950 . S
H199 C222 0.950 . S
H200 C223 0.950 . S
H201 C225 0.950 . S
H202 C226 0.950 . S
H203 C227 0.951 . S
H204 C229 0.951 . S
H205 C231 0.950 . S
H206 C232 0.950 . S
H207 C234 0.950 . S
H208 C237 0.950 . S
H209 C238 0.950 . S
H210 C240 0.950 . S
H211 C241 0.950 . S
C212 H194 0.951 . S
C212 C213 1.366 . S
C212 C214 1.388 . S
C213 C212 1.366 . S
C213 C217 1.385 . S
C214 H195 0.951 . S
C214 C212 1.388 . S
C214 C215 1.366 . S
C215 C214 1.366 . S
C215 C216 1.414 . S
C215 C218 1.499 . S
C216 H196 0.950 . S
C216 C215 1.414 . S
C216 C217 1.374 . S
C217 H197 0.950 . S
C217 C213 1.385 . S
C217 C216 1.374 . S
C218 C215 1.499 . S
C218 C219 1.373 . S
C218 C220 1.389 . S
C219 H198 0.950 . S
C219 C218 1.373 . S
C219 C235 1.377 . S
C220 C218 1.389 . S
C220 C221 1.524 . S
C220 C234 1.377 . S
C221 C220 1.524 . S
C221 C222 1.397 . S
C221 C226 1.363 . S
C222 H199 0.950 . S
C222 C221 1.397 . S
C222 C223 1.334 . S
C223 H200 0.950 . S
C223 C222 1.334 . S
C223 C224 1.287 . S
C224 C223 1.287 . S
C224 C225 1.524 . S
C224 H243 0.913 . S
C225 H201 0.950 . S
C225 C224 1.524 . S
C225 C226 1.415 . S
C226 H202 0.950 . S
C226 C221 1.363 . S
C226 C225 1.415 . S
C227 H203 0.951 . S
C227 C228 1.366 . S
C227 C229 1.388 . S
C228 C227 1.366 . S
C228 C232 1.385 . S
C229 H204 0.951 . S
C229 C227 1.388 . S
C229 C230 1.366 . S
C230 C229 1.366 . S
C230 C231 1.414 . S
C230 C233 1.499 . S
C231 H205 0.950 . S
C231 C230 1.414 . S
C231 C232 1.374 . S
C232 H206 0.950 . S
C232 C228 1.385 . S
C232 C231 1.374 . S
C233 C230 1.499 . S
C233 C234 1.373 . S
C233 C235 1.389 . S
C234 H207 0.950 . S
C234 C220 1.377 . S
C234 C233 1.373 . S
C235 C219 1.377 . S
C235 C233 1.389 . S
C235 C236 1.524 . S
C236 C235 1.524 . S
C236 C237 1.397 . S
C236 C241 1.363 . S
C237 H208 0.950 . S
C237 C236 1.397 . S
C237 C238 1.334 . S
C238 H209 0.950 . S
C238 C237 1.334 . S
C238 C239 1.287 . S
C239 C238 1.287 . S
C239 C240 1.524 . S
C239 H242 0.999 . S
C240 H210 0.950 . S
C240 C239 1.524 . S
C240 C241 1.415 . S
C241 H211 0.950 . S
C241 C236 1.363 . S
C241 C240 1.415 . S
H242 C239 0.999 . S
H243 C224 0.913 . S
H244 C262 0.951 . S
H245 C264 0.951 . S
H246 C266 0.950 . S
H247 C267 0.950 . S
H248 C269 0.950 . S
H249 C272 0.950 . S
H250 C273 0.950 . S
H251 C275 0.950 . S
H252 C276 0.950 . S
H253 C277 0.951 . S
H254 C279 0.951 . S
H255 C281 0.950 . S
H256 C282 0.950 . S
H257 C284 0.950 . S
H258 C287 0.950 . S
H259 C288 0.950 . S
H260 C290 0.950 . S
H261 C291 0.950 . S
C262 H244 0.951 . S
C262 C263 1.387 . S
C262 C264 1.388 . S
C263 C262 1.387 . S
C263 C267 1.366 1_554 S
C264 H245 0.951 . S
C264 C262 1.388 . S
C264 C265 1.366 . S
C265 C264 1.366 . S
C265 C266 1.414 1_554 S
C265 C268 1.499 . S
C266 H246 0.950 . S
C266 C265 1.414 1_556 S
C266 C267 1.374 . S
C267 H247 0.950 . S
C267 C263 1.366 1_556 S
C267 C266 1.374 . S
C268 C265 1.499 . S
C268 C269 1.373 1_554 S
C268 C270 1.389 . S
C269 H248 0.950 . S
C269 C268 1.373 1_556 S
C269 C285 1.377 1_556 S
C270 C268 1.389 . S
C270 C271 1.524 . S
C270 C284 1.377 . S
C271 C270 1.524 . S
C271 C272 1.397 1_554 S
C271 C276 1.363 . S
C272 H249 0.950 . S
C272 C271 1.397 1_556 S
C272 C273 1.334 . S
C273 H250 0.950 . S
C273 C272 1.334 . S
C273 C274 1.287 1_556 S
C274 C273 1.287 1_554 S
C274 C275 1.524 . S
C274 H293 0.913 . S
C275 H251 0.950 . S
C275 C274 1.524 . S
C275 C276 1.415 . S
C276 H252 0.950 . S
C276 C271 1.363 . S
C276 C275 1.415 . S
C277 H253 0.951 . S
C277 C278 1.366 1_556 S
C277 C279 1.388 . S
C278 C277 1.366 1_554 S
C278 C282 1.385 . S
C279 H254 0.951 . S
C279 C277 1.388 . S
C279 C280 1.366 1_556 S
C280 C279 1.366 1_554 S
C280 C281 1.414 . S
C280 C283 1.499 . S
C281 H255 0.950 . S
C281 C280 1.414 . S
C281 C282 1.374 . S
C282 H256 0.950 . S
C282 C278 1.385 . S
C282 C281 1.374 . S
C283 C280 1.499 . S
C283 C284 1.373 . S
C283 C285 1.389 . S
C284 H257 0.950 . S
C284 C270 1.377 . S
C284 C283 1.373 . S
C285 C269 1.377 1_554 S
C285 C283 1.389 . S
C285 C286 1.524 1_554 S
C286 C285 1.524 1_556 S
C286 C287 1.397 1_556 S
C286 C291 1.363 . S
C287 H258 0.950 . S
C287 C286 1.397 1_554 S
C287 C288 1.334 . S
C288 H259 0.950 . S
C288 C287 1.334 . S
C288 C289 1.287 1_554 S
C289 C288 1.287 1_556 S
C289 C290 1.524 . S
C289 H292 0.999 . S
C290 H260 0.950 . S
C290 C289 1.524 . S
C290 C291 1.415 . S
C291 H261 0.950 . S
C291 C286 1.363 . S
C291 C290 1.415 . S
H292 C289 0.999 . S
H293 C274 0.913 . S
H294 C312 0.951 . S
H295 C314 0.951 . S
H296 C316 0.950 . S
H297 C317 0.950 . S
H298 C319 0.950 . S
H299 C322 0.950 . S
H300 C323 0.950 . S
H301 C325 0.950 . S
H302 C326 0.950 . S
H303 C327 0.951 . S
H304 C329 0.951 . S
H305 C331 0.950 . S
H306 C332 0.950 . S
H307 C334 0.950 . S
H308 C337 0.950 . S
H309 C338 0.950 . S
H310 C340 0.950 . S
H311 C341 0.950 . S
C312 H294 0.951 . S
C312 C313 1.366 . S
C312 C314 1.388 . S
C313 C312 1.366 . S
C313 C317 1.385 . S
C314 H295 0.951 . S
C314 C312 1.388 . S
C314 C315 1.366 . S
C315 C314 1.366 . S
C315 C316 1.414 . S
C315 C318 1.499 . S
C316 H296 0.950 . S
C316 C315 1.414 . S
C316 C317 1.374 . S
C317 H297 0.950 . S
C317 C313 1.385 . S
C317 C316 1.374 . S
C318 C315 1.499 . S
C318 C319 1.373 . S
C318 C320 1.389 . S
C319 H298 0.950 . S
C319 C318 1.373 . S
C319 C335 1.377 . S
C320 C318 1.389 . S
C320 C321 1.524 . S
C320 C334 1.377 . S
C321 C320 1.524 . S
C321 C322 1.397 . S
C321 C326 1.363 . S
C322 H299 0.950 . S
C322 C321 1.397 . S
C322 C323 1.334 . S
C323 H300 0.950 . S
C323 C322 1.334 . S
C323 C324 1.287 . S
C324 C323 1.287 . S
C324 C325 1.524 . S
C324 H343 0.913 . S
C325 H301 0.950 . S
C325 C324 1.524 . S
C325 C326 1.415 . S
C326 H302 0.950 . S
C326 C321 1.363 . S
C326 C325 1.415 . S
C327 H303 0.951 . S
C327 C328 1.366 . S
C327 C329 1.388 . S
C328 C327 1.366 . S
C328 C332 1.385 . S
C329 H304 0.951 . S
C329 C327 1.388 . S
C329 C330 1.366 . S
C330 C329 1.366 . S
C330 C331 1.414 . S
C330 C333 1.499 . S
C331 H305 0.950 . S
C331 C330 1.414 . S
C331 C332 1.374 . S
C332 H306 0.950 . S
C332 C328 1.385 . S
C332 C331 1.374 . S
C333 C330 1.499 . S
C333 C334 1.373 . S
C333 C335 1.389 . S
C334 H307 0.950 . S
C334 C320 1.377 . S
C334 C333 1.373 . S
C335 C319 1.377 . S
C335 C333 1.389 . S
C335 C336 1.524 . S
C336 C335 1.524 . S
C336 C337 1.397 . S
C336 C341 1.363 . S
C337 H308 0.950 . S
C337 C336 1.397 . S
C337 C338 1.334 . S
C338 H309 0.950 . S
C338 C337 1.334 . S
C338 C339 1.287 . S
C339 C338 1.287 . S
C339 C340 1.524 . S
C339 H342 0.999 . S
C340 H310 0.950 . S
C340 C339 1.524 . S
C340 C341 1.415 . S
C341 H311 0.950 . S
C341 C336 1.363 . S
C341 C340 1.415 . S
H342 C339 0.999 . S
H343 C324 0.913 . S
H344 C362 0.951 . S
H345 C364 0.951 . S
H346 C366 0.950 . S
H347 C367 0.950 . S
H348 C369 0.950 . S
H349 C372 0.950 . S
H350 C373 0.950 . S
H351 C375 0.950 . S
H352 C376 0.950 . S
H353 C377 0.951 . S
H354 C379 0.951 . S
H355 C381 0.950 . S
H356 C382 0.950 . S
H357 C384 0.950 . S
H358 C387 0.950 . S
H359 C388 0.950 . S
H360 C390 0.950 . S
H361 C391 0.950 . S
C362 H344 0.951 . S
C362 C363 1.366 . S
C362 C364 1.388 . S
C363 C362 1.366 . S
C363 C367 1.385 . S
C364 H345 0.951 . S
C364 C362 1.388 . S
C364 C365 1.366 . S
C365 C364 1.366 . S
C365 C366 1.414 . S
C365 C368 1.499 . S
C366 H346 0.950 . S
C366 C365 1.414 . S
C366 C367 1.374 . S
C367 H347 0.950 . S
C367 C363 1.385 . S
C367 C366 1.374 . S
C368 C365 1.499 . S
C368 C369 1.373 . S
C368 C370 1.389 . S
C369 H348 0.950 . S
C369 C368 1.373 . S
C369 C385 1.377 . S
C370 C368 1.389 . S
C370 C371 1.524 . S
C370 C384 1.377 . S
C371 C370 1.524 . S
C371 C372 1.397 . S
C371 C376 1.363 . S
C372 H349 0.950 . S
C372 C371 1.397 . S
C372 C373 1.334 . S
C373 H350 0.950 . S
C373 C372 1.334 . S
C373 C374 1.287 . S
C374 C373 1.287 . S
C374 C375 1.524 . S
C374 H393 0.913 . S
C375 H351 0.950 . S
C375 C374 1.524 . S
C375 C376 1.415 . S
C376 H352 0.950 . S
C376 C371 1.363 . S
C376 C375 1.415 . S
C377 H353 0.951 . S
C377 C378 1.366 . S
C377 C379 1.388 . S
C378 C377 1.366 . S
C378 C382 1.385 . S
C379 H354 0.951 . S
C379 C377 1.388 . S
C379 C380 1.366 . S
C380 C379 1.366 . S
C380 C381 1.414 . S
C380 C383 1.499 . S
C381 H355 0.950 . S
C381 C380 1.414 . S
C381 C382 1.374 . S
C382 H356 0.950 . S
C382 C378 1.385 . S
C382 C381 1.374 . S
C383 C380 1.499 . S
C383 C384 1.373 . S
C383 C385 1.389 . S
C384 H357 0.950 . S
C384 C370 1.377 . S
C384 C383 1.373 . S
C385 C369 1.377 . S
C385 C383 1.389 . S
C385 C386 1.524 . S
C386 C385 1.524 . S
C386 C387 1.397 . S
C386 C391 1.363 . S
C387 H358 0.950 . S
C387 C386 1.397 . S
C387 C388 1.334 . S
C388 H359 0.950 . S
C388 C387 1.334 . S
C388 C389 1.287 . S
C389 C388 1.287 . S
C389 C390 1.524 . S
C389 H392 0.999 . S
C390 H360 0.950 . S
C390 C389 1.524 . S
C390 C391 1.415 . S
C391 H361 0.950 . S
C391 C386 1.363 . S
C391 C390 1.415 . S
H392 C389 0.999 . S
H393 C374 0.913 . S
H394 C412 0.951 . S
H395 C414 0.951 . S
H396 C416 0.950 . S
H397 C417 0.950 . S
H398 C419 0.950 . S
H399 C422 0.950 . S
H400 C423 0.950 . S
H401 C425 0.950 . S
H402 C426 0.950 . S
H403 C427 0.951 . S
H404 C429 0.951 . S
H405 C431 0.950 . S
H406 C432 0.950 . S
H407 C434 0.950 . S
H408 C437 0.950 . S
H409 C438 0.950 . S
H410 C440 0.950 . S
H411 C441 0.950 . S
C412 H394 0.951 . S
C412 C413 1.366 . S
C412 C414 1.388 . S
C413 C412 1.366 . S
C413 C417 1.385 . S
C414 H395 0.951 . S
C414 C412 1.388 . S
C414 C415 1.366 . S
C415 C414 1.366 . S
C415 C416 1.414 . S
C415 C418 1.499 . S
C416 H396 0.950 . S
C416 C415 1.414 . S
C416 C417 1.374 . S
C417 H397 0.950 . S
C417 C413 1.385 . S
C417 C416 1.374 . S
C418 C415 1.499 . S
C418 C419 1.373 . S
C418 C420 1.389 . S
C419 H398 0.950 . S
C419 C418 1.373 . S
C419 C435 1.377 . S
C420 C418 1.389 . S
C420 C421 1.524 . S
C420 C434 1.377 . S
C421 C420 1.524 . S
C421 C422 1.397 . S
C421 C426 1.363 . S
C422 H399 0.950 . S
C422 C421 1.397 . S
C422 C423 1.334 . S
C423 H400 0.950 . S
C423 C422 1.334 . S
C423 C424 1.287 . S
C424 C423 1.287 . S
C424 C425 1.524 . S
C424 H443 0.913 . S
C425 H401 0.950 . S
C425 C424 1.524 . S
C425 C426 1.415 . S
C426 H402 0.950 . S
C426 C421 1.363 . S
C426 C425 1.415 . S
C427 H403 0.951 . S
C427 C428 1.366 . S
C427 C429 1.388 . S
C428 C427 1.366 . S
C428 C432 1.385 . S
C429 H404 0.951 . S
C429 C427 1.388 . S
C429 C430 1.366 . S
C430 C429 1.366 . S
C430 C431 1.414 . S
C430 C433 1.499 . S
C431 H405 0.950 . S
C431 C430 1.414 . S
C431 C432 1.374 . S
C432 H406 0.950 . S
C432 C428 1.385 . S
C432 C431 1.374 . S
C433 C430 1.499 . S
C433 C434 1.373 . S
C433 C435 1.389 . S
C434 H407 0.950 . S
C434 C420 1.377 . S
C434 C433 1.373 . S
C435 C419 1.377 . S
C435 C433 1.389 . S
C435 C436 1.524 . S
C436 C435 1.524 . S
C436 C437 1.397 . S
C436 C441 1.363 . S
C437 H408 0.950 . S
C437 C436 1.397 . S
C437 C438 1.334 . S
C438 H409 0.950 . S
C438 C437 1.334 . S
C438 C439 1.287 . S
C439 C438 1.287 . S
C439 C440 1.524 . S
C439 H442 0.999 . S
C440 H410 0.950 . S
C440 C439 1.524 . S
C440 C441 1.415 . S
C441 H411 0.950 . S
C441 C436 1.363 . S
C441 C440 1.415 . S
H442 C439 0.999 . S
H443 C424 0.913 . S
H444 C462 0.951 . S
H445 C464 0.951 . S
H446 C466 0.950 . S
H447 C467 0.950 . S
H448 C469 0.950 . S
H449 C472 0.950 . S
H450 C473 0.950 . S
H451 C475 0.950 . S
H452 C476 0.950 . S
H453 C477 0.951 . S
H454 C479 0.951 . S
H455 C481 0.950 . S
H456 C482 0.950 . S
H457 C484 0.950 . S
H458 C487 0.950 . S
H459 C488 0.950 . S
H460 C490 0.950 . S
H461 C491 0.950 . S
C462 H444 0.951 . S
C462 C463 1.366 . S
C462 C464 1.388 . S
C463 C462 1.366 . S
C463 C467 1.385 . S
C464 H445 0.951 . S
C464 C462 1.388 . S
C464 C465 1.366 . S
C465 C464 1.366 . S
C465 C466 1.414 . S
C465 C468 1.499 . S
C466 H446 0.950 . S
C466 C465 1.414 . S
C466 C467 1.374 . S
C467 H447 0.950 . S
C467 C463 1.385 . S
C467 C466 1.374 . S
C468 C465 1.499 . S
C468 C469 1.373 . S
C468 C470 1.389 . S
C469 H448 0.950 . S
C469 C468 1.373 . S
C469 C485 1.377 . S
C470 C468 1.389 . S
C470 C471 1.524 . S
C470 C484 1.377 . S
C471 C470 1.524 . S
C471 C472 1.397 . S
C471 C476 1.363 . S
C472 H449 0.950 . S
C472 C471 1.397 . S
C472 C473 1.334 . S
C473 H450 0.950 . S
C473 C472 1.334 . S
C473 C474 1.287 . S
C474 C473 1.287 . S
C474 C475 1.524 . S
C474 H493 0.913 . S
C475 H451 0.950 . S
C475 C474 1.524 . S
C475 C476 1.415 . S
C476 H452 0.950 . S
C476 C471 1.363 . S
C476 C475 1.415 . S
C477 H453 0.951 . S
C477 C478 1.366 . S
C477 C479 1.388 . S
C478 C477 1.366 . S
C478 C482 1.385 . S
C479 H454 0.951 . S
C479 C477 1.388 . S
C479 C480 1.366 . S
C480 C479 1.366 . S
C480 C481 1.414 . S
C480 C483 1.499 . S
C481 H455 0.950 . S
C481 C480 1.414 . S
C481 C482 1.374 . S
C482 H456 0.950 . S
C482 C478 1.385 . S
C482 C481 1.374 . S
C483 C480 1.499 . S
C483 C484 1.373 . S
C483 C485 1.389 . S
C484 H457 0.950 . S
C484 C470 1.377 . S
C484 C483 1.373 . S
C485 C469 1.377 . S
C485 C483 1.389 . S
C485 C486 1.524 . S
C486 C485 1.524 . S
C486 C487 1.397 . S
C486 C491 1.363 . S
C487 H458 0.950 . S
C487 C486 1.397 . S
C487 C488 1.334 . S
C488 H459 0.950 . S
C488 C487 1.334 . S
C488 C489 1.287 . S
C489 C488 1.287 . S
C489 C490 1.524 . S
C489 H492 0.999 . S
C490 H460 0.950 . S
C490 C489 1.524 . S
C490 C491 1.415 . S
C491 H461 0.950 . S
C491 C486 1.363 . S
C491 C490 1.415 . S
H492 C489 0.999 . S
H493 C474 0.913 . S
H494 C512 0.951 . S
H495 C514 0.951 . S
H496 C516 0.950 . S
H497 C517 0.950 . S
H498 C519 0.950 . S
H499 C522 0.950 . S
H500 C523 0.950 . S
H501 C525 0.950 . S
H502 C526 0.950 . S
H503 C527 0.951 . S
H504 C529 0.951 . S
H505 C531 0.950 . S
H506 C532 0.950 . S
H507 C534 0.950 . S
H508 C537 0.950 . S
H509 C538 0.950 . S
H510 C540 0.950 . S
H511 C541 0.950 . S
C512 H494 0.951 . S
C512 C513 1.366 . S
C512 C514 1.388 . S
C513 C512 1.366 . S
C513 C517 1.385 . S
C514 H495 0.951 . S
C514 C512 1.388 . S
C514 C515 1.366 . S
C515 C514 1.366 . S
C515 C516 1.414 . S
C515 C518 1.499 . S
C516 H496 0.950 . S
C516 C515 1.414 . S
C516 C517 1.374 . S
C517 H497 0.950 . S
C517 C513 1.385 . S
C517 C516 1.374 . S
C518 C515 1.499 . S
C518 C519 1.373 . S
C518 C520 1.389 . S
C519 H498 0.950 . S
C519 C518 1.373 . S
C519 C535 1.377 . S
C520 C518 1.389 . S
C520 C521 1.524 . S
C520 C534 1.377 . S
C521 C520 1.524 . S
C521 C522 1.397 . S
C521 C526 1.363 . S
C522 H499 0.950 . S
C522 C521 1.397 . S
C522 C523 1.334 . S
C523 H500 0.950 . S
C523 C522 1.334 . S
C523 C524 1.287 . S
C524 C523 1.287 . S
C524 C525 1.524 . S
C524 H543 0.913 . S
C525 H501 0.950 . S
C525 C524 1.524 . S
C525 C526 1.415 . S
C526 H502 0.950 . S
C526 C521 1.363 . S
C526 C525 1.415 . S
C527 H503 0.951 . S
C527 C528 1.366 . S
C527 C529 1.388 . S
C528 C527 1.366 . S
C528 C532 1.385 . S
C529 H504 0.951 . S
C529 C527 1.388 . S
C529 C530 1.366 . S
C530 C529 1.366 . S
C530 C531 1.414 . S
C530 C533 1.499 . S
C531 H505 0.950 . S
C531 C530 1.414 . S
C531 C532 1.374 . S
C532 H506 0.950 . S
C532 C528 1.385 . S
C532 C531 1.374 . S
C533 C530 1.499 . S
C533 C534 1.373 . S
C533 C535 1.389 . S
C534 H507 0.950 . S
C534 C520 1.377 . S
C534 C533 1.373 . S
C535 C519 1.377 . S
C535 C533 1.389 . S
C535 C536 1.524 . S
C536 C535 1.524 . S
C536 C537 1.397 . S
C536 C541 1.363 . S
C537 H508 0.950 . S
C537 C536 1.397 . S
C537 C538 1.334 . S
C538 H509 0.950 . S
C538 C537 1.334 . S
C538 C539 1.287 . S
C539 C538 1.287 . S
C539 C540 1.524 . S
C539 H542 0.999 . S
C540 H510 0.950 . S
C540 C539 1.524 . S
C540 C541 1.415 . S
C541 H511 0.950 . S
C541 C536 1.363 . S
C541 C540 1.415 . S
H542 C539 0.999 . S
H543 C524 0.913 . S
H544 C562 0.951 . S
H545 C564 0.951 . S
H546 C566 0.950 . S
H547 C567 0.950 . S
H548 C569 0.950 . S
H549 C572 0.950 . S
H550 C573 0.950 . S
H551 C575 0.950 . S
H552 C576 0.950 . S
H553 C577 0.951 . S
H554 C579 0.951 . S
H555 C581 0.950 . S
H556 C582 0.950 1_455 S
H557 C584 0.950 . S
H558 C587 0.950 . S
H559 C588 0.950 1_565 S
H560 C590 0.950 . S
H561 C591 0.950 . S
C562 H544 0.951 . S
C562 C563 1.366 . S
C562 C564 1.388 . S
C563 C562 1.366 . S
C563 C567 1.385 . S
C564 H545 0.951 . S
C564 C562 1.388 . S
C564 C565 1.366 . S
C565 C564 1.366 . S
C565 C566 1.414 . S
C565 C568 1.499 . S
C566 H546 0.950 . S
C566 C565 1.414 . S
C566 C567 1.374 . S
C567 H547 0.950 . S
C567 C563 1.385 . S
C567 C566 1.374 . S
C568 C565 1.499 . S
C568 C569 1.373 . S
C568 C570 1.389 . S
C569 H548 0.950 . S
C569 C568 1.373 . S
C569 C585 1.377 . S
C570 C568 1.389 . S
C570 C571 1.524 . S
C570 C584 1.377 . S
C571 C570 1.524 . S
C571 C572 1.397 . S
C571 C576 1.363 . S
C572 H549 0.950 . S
C572 C571 1.397 . S
C572 C573 1.334 . S
C573 H550 0.950 . S
C573 C572 1.334 . S
C573 C574 1.287 . S
C574 C573 1.287 . S
C574 C575 1.524 . S
C574 H593 0.913 . S
C575 H551 0.950 . S
C575 C574 1.524 . S
C575 C576 1.415 . S
C576 H552 0.950 . S
C576 C571 1.363 . S
C576 C575 1.415 . S
C577 H553 0.951 . S
C577 C578 1.366 . S
C577 C579 1.388 . S
C578 C577 1.366 . S
C578 C582 1.385 . S
C579 H554 0.951 . S
C579 C577 1.388 . S
C579 C580 1.366 . S
C580 C579 1.366 . S
C580 C581 1.414 . S
C580 C583 1.499 . S
C581 H555 0.950 . S
C581 C580 1.414 . S
C581 C582 1.374 . S
C582 H556 0.950 1_655 S
C582 C578 1.385 . S
C582 C581 1.374 . S
C583 C580 1.499 . S
C583 C584 1.373 . S
C583 C585 1.389 . S
C584 H557 0.950 . S
C584 C570 1.377 . S
C584 C583 1.373 . S
C585 C569 1.377 . S
C585 C583 1.389 . S
C585 C586 1.524 . S
C586 C585 1.524 . S
C586 C587 1.397 . S
C586 C591 1.363 . S
C587 H558 0.950 . S
C587 C586 1.397 . S
C587 C588 1.334 . S
C588 H559 0.950 1_545 S
C588 C587 1.334 . S
C588 C589 1.287 1_545 S
C589 C588 1.287 1_565 S
C589 C590 1.524 1_565 S
C589 H592 0.999 . S
C590 H560 0.950 . S
C590 C589 1.524 1_545 S
C590 C591 1.415 . S
C591 H561 0.950 . S
C591 C586 1.363 . S
C591 C590 1.415 . S
H592 C589 0.999 . S
H593 C574 0.913 . S
H594 C612 0.951 . S
H595 C614 0.951 . S
H596 C616 0.950 . S
H597 C617 0.950 . S
H598 C619 0.950 . S
H599 C622 0.950 . S
H600 C623 0.950 . S
H601 C625 0.950 . S
H602 C626 0.950 . S
H603 C627 0.951 . S
H604 C629 0.951 . S
H605 C631 0.950 . S
H606 C632 0.950 . S
H607 C634 0.950 . S
H608 C637 0.950 . S
H609 C638 0.950 . S
H610 C640 0.950 . S
H611 C641 0.950 . S
C612 H594 0.951 . S
C612 C613 1.366 . S
C612 C614 1.388 . S
C613 C612 1.366 . S
C613 C617 1.385 . S
C614 H595 0.951 . S
C614 C612 1.388 . S
C614 C615 1.366 . S
C615 C614 1.366 . S
C615 C616 1.414 . S
C615 C618 1.499 . S
C616 H596 0.950 . S
C616 C615 1.414 . S
C616 C617 1.374 . S
C617 H597 0.950 . S
C617 C613 1.385 . S
C617 C616 1.374 . S
C618 C615 1.499 . S
C618 C619 1.373 . S
C618 C620 1.389 . S
C619 H598 0.950 . S
C619 C618 1.373 . S
C619 C635 1.377 . S
C620 C618 1.389 . S
C620 C621 1.524 . S
C620 C634 1.377 . S
C621 C620 1.524 . S
C621 C622 1.397 . S
C621 C626 1.363 . S
C622 H599 0.950 . S
C622 C621 1.397 . S
C622 C623 1.334 . S
C623 H600 0.950 . S
C623 C622 1.334 . S
C623 C624 1.287 . S
C624 C623 1.287 . S
C624 C625 1.524 . S
C624 H643 0.913 . S
C625 H601 0.950 . S
C625 C624 1.524 . S
C625 C626 1.415 . S
C626 H602 0.950 . S
C626 C621 1.363 . S
C626 C625 1.415 . S
C627 H603 0.951 . S
C627 C628 1.366 . S
C627 C629 1.388 . S
C628 C627 1.366 . S
C628 C632 1.385 . S
C629 H604 0.951 . S
C629 C627 1.388 . S
C629 C630 1.366 . S
C630 C629 1.366 . S
C630 C631 1.414 . S
C630 C633 1.499 . S
C631 H605 0.950 . S
C631 C630 1.414 . S
C631 C632 1.374 . S
C632 H606 0.950 . S
C632 C628 1.385 . S
C632 C631 1.374 . S
C633 C630 1.499 . S
C633 C634 1.373 . S
C633 C635 1.389 . S
C634 H607 0.950 . S
C634 C620 1.377 . S
C634 C633 1.373 . S
C635 C619 1.377 . S
C635 C633 1.389 . S
C635 C636 1.524 . S
C636 C635 1.524 . S
C636 C637 1.397 . S
C636 C641 1.363 . S
C637 H608 0.950 . S
C637 C636 1.397 . S
C637 C638 1.334 . S
C638 H609 0.950 . S
C638 C637 1.334 . S
C638 C639 1.287 . S
C639 C638 1.287 . S
C639 C640 1.524 . S
C639 H642 0.999 . S
C640 H610 0.950 . S
C640 C639 1.524 . S
C640 C641 1.415 . S
C641 H611 0.950 . S
C641 C636 1.363 . S
C641 C640 1.415 . S
H642 C639 0.999 . S
H643 C624 0.913 . S
H644 C662 0.951 . S
H645 C664 0.951 . S
H646 C666 0.950 . S
H647 C667 0.950 . S
H648 C669 0.950 . S
H649 C672 0.950 . S
H650 C673 0.950 . S
H651 C675 0.950 . S
H652 C676 0.950 . S
H653 C677 0.951 . S
H654 C679 0.951 . S
H655 C681 0.950 . S
H656 C682 0.950 . S
H657 C684 0.950 . S
H658 C687 0.950 . S
H659 C688 0.950 . S
H660 C690 0.950 . S
H661 C691 0.950 . S
C662 H644 0.951 . S
C662 C663 1.366 . S
C662 C664 1.388 1_554 S
C663 C662 1.366 . S
C663 C667 1.385 1_554 S
C664 H645 0.951 . S
C664 C662 1.388 1_556 S
C664 C665 1.366 . S
C665 C664 1.366 . S
C665 C666 1.414 . S
C665 C668 1.499 . S
C666 H646 0.950 . S
C666 C665 1.414 . S
C666 C667 1.374 . S
C667 H647 0.950 . S
C667 C663 1.385 1_556 S
C667 C666 1.374 . S
C668 C665 1.499 . S
C668 C669 1.373 . S
C668 C670 1.389 . S
C669 H648 0.950 . S
C669 C668 1.373 . S
C669 C685 1.377 . S
C670 C668 1.389 . S
C670 C671 1.524 . S
C670 C684 1.377 . S
C671 C670 1.524 . S
C671 C672 1.397 . S
C671 C676 1.363 . S
C672 H649 0.950 . S
C672 C671 1.397 . S
C672 C673 1.334 . S
C673 H650 0.950 . S
C673 C672 1.334 . S
C673 C674 1.287 . S
C674 C673 1.287 . S
C674 C675 1.524 . S
C674 H693 0.913 . S
C675 H651 0.950 . S
C675 C674 1.524 . S
C675 C676 1.415 . S
C676 H652 0.950 . S
C676 C671 1.363 . S
C676 C675 1.415 . S
C677 H653 0.951 . S
C677 C678 1.366 . S
C677 C679 1.388 . S
C678 C677 1.366 . S
C678 C682 1.385 . S
C679 H654 0.951 . S
C679 C677 1.388 . S
C679 C680 1.366 . S
C680 C679 1.366 . S
C680 C681 1.414 . S
C680 C683 1.499 . S
C681 H655 0.950 . S
C681 C680 1.414 . S
C681 C682 1.374 . S
C682 H656 0.950 . S
C682 C678 1.385 . S
C682 C681 1.374 . S
C683 C680 1.499 . S
C683 C684 1.373 . S
C683 C685 1.389 . S
C684 H657 0.950 . S
C684 C670 1.377 . S
C684 C683 1.373 . S
C685 C669 1.377 . S
C685 C683 1.389 . S
C685 C686 1.524 . S
C686 C685 1.524 . S
C686 C687 1.397 . S
C686 C691 1.363 . S
C687 H658 0.950 . S
C687 C686 1.397 . S
C687 C688 1.334 1_565 S
C688 H659 0.950 . S
C688 C687 1.334 1_545 S
C688 C689 1.287 . S
C689 C688 1.287 . S
C689 C690 1.524 1_545 S
C689 H692 0.999 . S
C690 H660 0.950 . S
C690 C689 1.524 1_565 S
C690 C691 1.415 . S
C691 H661 0.950 . S
C691 C686 1.363 . S
C691 C690 1.415 . S
H692 C689 0.999 . S
H693 C674 0.913 . S
C128 C68 1.260 . S
C113 N41 1.453 . S
C163 N2 1.451 . S
C178 C89 1.260 . S
C213 N15 1.648 . S
C228 C65 1.423 . S
C263 N28 1.644 . S
C278 C86 1.423 . S
C328 C70 1.466 . S
C313 N5 1.502 . S
C378 C90 1.531 . S
C363 N14 1.588 . S
C413 N27 1.549 . S
C428 C66 1.515 . S
C463 N44 1.498 . S
C478 C88 1.457 . S
C528 C87 1.515 . S
C513 N18 1.550 . S
C578 C69 1.531 . S
C563 N31 1.590 . S
C628 C91 1.466 . S
C613 N40 1.499 . S
C663 N1 1.499 . S
C678 C67 1.457 . S
