# Generated by pormake.
# Topology pth, (4,4)-cn, num edge types: 1
# Building blocks:
#     Node 0, Type 0, BuildingBlock: CEKHIL_clean_sbu_0, # of connection points: 4
#     Node 1, Type 0, BuildingBlock: CEKHIL_clean_sbu_0, # of connection points: 4
#     Node 2, Type 0, BuildingBlock: CEKHIL_clean_sbu_0, # of connection points: 4
#     Node 3, Type 1, BuildingBlock: MIFKUJ_clean_linker_1, # of connection points: 4
#     Node 4, Type 1, BuildingBlock: MIFKUJ_clean_linker_1, # of connection points: 4
#     Node 5, Type 1, BuildingBlock: MIFKUJ_clean_linker_1, # of connection points: 4
#     Edge 6, Type (0, 1), BuildingBlock: FUNLAD_clean_linker_0, # of connection points: 2
#     Edge 7, Type (0, 1), BuildingBlock: FUNLAD_clean_linker_0, # of connection points: 2
#     Edge 8, Type (0, 1), BuildingBlock: FUNLAD_clean_linker_0, # of connection points: 2
#     Edge 9, Type (0, 1), BuildingBlock: FUNLAD_clean_linker_0, # of connection points: 2
#     Edge 10, Type (0, 1), BuildingBlock: FUNLAD_clean_linker_0, # of connection points: 2
#     Edge 11, Type (0, 1), BuildingBlock: FUNLAD_clean_linker_0, # of connection points: 2
#     Edge 12, Type (0, 1), BuildingBlock: FUNLAD_clean_linker_0, # of connection points: 2
#     Edge 13, Type (0, 1), BuildingBlock: FUNLAD_clean_linker_0, # of connection points: 2
#     Edge 14, Type (0, 1), BuildingBlock: FUNLAD_clean_linker_0, # of connection points: 2
#     Edge 15, Type (0, 1), BuildingBlock: FUNLAD_clean_linker_0, # of connection points: 2
#     Edge 16, Type (0, 1), BuildingBlock: FUNLAD_clean_linker_0, # of connection points: 2
#     Edge 17, Type (0, 1), BuildingBlock: FUNLAD_clean_linker_0, # of connection points: 2
# Relax obj value: 0.014
# Max RMSD: 0.063
# Mean RMSD: 0.055
data_MOF--net-pth--node1-CEKHIL_clean_sbu_0--node2-MIFKUJ_clean_linker_1--edge1-FUNLAD_clean_linker_0
_symmetry_space_group_name_H-M    P1
_symmetry_Int_Tables_number       1
_symmetry_cell_setting            triclinic
loop_
_symmetry_equiv_pos_as_xyz
'x, y, z'
_cell_length_a     33.15381
_cell_length_b     33.245656
_cell_length_c     73.178125
_cell_angle_alpha  90.635838
_cell_angle_beta   90.062342
_cell_angle_gamma 120.28847
loop_
_atom_site_label
_atom_site_type_symbol
_atom_site_fract_x
_atom_site_fract_y
_atom_site_fract_z
_atom_type_partial_charge
Co0 Co 0.00989 0.02147 0.06045 0.0
O1 O 0.97541 0.96993 0.07651 0.0
O2 O 0.03605 0.98082 0.0601 0.0
C3 C 0.01674 0.07677 0.08048 0.0
O4 O 0.05539 0.07144 0.04301 0.0
Co5 Co 0.96897 0.08227 0.04782 0.0
O6 O 0.03309 0.12433 0.03892 0.0
C7 C 0.934 0.98909 0.03109 0.0
C8 C 0.00428 0.95601 0.07204 0.0
C9 C 0.06238 0.11057 0.03677 0.0
O10 O 0.96585 0.98523 0.03963 0.0
O11 O 0.92748 0.02361 0.03353 0.0
O12 O 0.04536 0.06092 0.08118 0.0
O13 O 0.98292 0.05626 0.06876 0.0
Co14 Co 0.00363 0.02679 0.37856 0.0
O15 O 0.97261 0.04264 0.36023 0.0
O16 O 0.03121 0.09393 0.37754 0.0
C17 C 0.01164 0.9752 0.36082 0.0
O18 O 0.04591 0.02348 0.39818 0.0
Co19 Co 0.95866 0.92566 0.39285 0.0
O20 O 0.02116 0.94824 0.40385 0.0
C21 C 0.92312 0.9867 0.40562 0.0
C22 C 0.00169 0.08594 0.36431 0.0
C23 C 0.05097 0.99146 0.40579 0.0
O24 O 0.95688 0.02179 0.39753 0.0
O25 O 0.91612 0.94522 0.40418 0.0
O26 O 0.04134 0.01952 0.3597 0.0
O27 O 0.97652 0.96405 0.3714 0.0
Co28 Co 0.00211 0.01569 0.71351 0.0
O29 O 0.04899 0.04312 0.69499 0.0
O30 O 0.03889 0.98514 0.7126 0.0
C31 C 0.94297 0.00938 0.69601 0.0
O32 O 0.95602 0.97721 0.7335 0.0
Co33 Co 0.95302 0.06794 0.72787 0.0
O34 O 0.91133 0.00843 0.74023 0.0
C35 C 0.04959 0.09924 0.7396 0.0
C36 C 0.06167 0.01342 0.69938 0.0
C37 C 0.92142 0.97637 0.7419 0.0
O38 O 0.04665 0.06265 0.73208 0.0
O39 O 0.01742 0.10964 0.73815 0.0
O40 O 0.95516 0.97792 0.69505 0.0
O41 O 0.96914 0.04517 0.70626 0.0
H42 H 0.10667 0.51034 0.18585 0.0
H43 H 0.1021 0.44766 0.16659 0.0
H44 H 0.9746 0.34904 0.19338 0.0
H45 H 0.97875 0.4121 0.21245 0.0
H46 H 0.04878 0.54091 0.18554 0.0
H47 H 0.09887 0.47193 0.2312 0.0
H48 H 0.09745 0.41498 0.25253 0.0
H49 H 0.9742 0.40273 0.27781 0.0
H50 H 0.97506 0.45877 0.25628 0.0
H51 H 0.97664 0.57588 0.25223 0.0
H52 H 0.97881 0.63951 0.27006 0.0
H53 H 0.10673 0.73758 0.24331 0.0
H54 H 0.10466 0.67369 0.22559 0.0
H55 H 0.0352 0.54534 0.25284 0.0
H56 H 0.97951 0.6065 0.20596 0.0
H57 H 0.97873 0.66273 0.18484 0.0
H58 H 0.10978 0.68806 0.16228 0.0
H59 H 0.11076 0.63249 0.18364 0.0
C60 C 0.04316 0.46602 0.20066 0.0
C61 C 0.07788 0.47518 0.18769 0.0
C62 C 0.07519 0.4394 0.17666 0.0
C63 C 0.03784 0.39358 0.17841 0.0
C64 C 0.00397 0.384 0.19185 0.0
C65 C 0.00641 0.41999 0.20279 0.0
C66 C 0.0435 0.50533 0.21066 0.0
C67 C 0.04655 0.54214 0.20031 0.0
C68 C 0.03887 0.50618 0.22989 0.0
C69 C 0.03683 0.46948 0.24198 0.0
C70 C 0.07099 0.45634 0.24108 0.0
C71 C 0.07029 0.42393 0.25333 0.0
C72 C 0.03587 0.40462 0.26691 0.0
C73 C 0.00152 0.41749 0.26767 0.0
C74 C 0.00193 0.44942 0.25532 0.0
C75 C 0.04031 0.61995 0.23748 0.0
C76 C 0.00509 0.61109 0.25014 0.0
C77 C 0.00644 0.64746 0.26037 0.0
C78 C 0.04306 0.69351 0.25815 0.0
C79 C 0.07781 0.70253 0.24518 0.0
C80 C 0.0766 0.66603 0.23502 0.0
C81 C 0.04035 0.58058 0.2277 0.0
C82 C 0.03742 0.54389 0.23808 0.0
C83 C 0.04474 0.57954 0.20851 0.0
C84 C 0.04538 0.61555 0.19648 0.0
C85 C 0.00838 0.62465 0.19664 0.0
C86 C 0.00775 0.65645 0.18444 0.0
C87 C 0.04416 0.67979 0.17186 0.0
C88 C 0.08148 0.67106 0.17192 0.0
C89 C 0.08195 0.63911 0.18405 0.0
H90 H 0.61518 0.11952 0.52029 0.0
H91 H 0.6747 0.12057 0.50014 0.0
H92 H 0.64075 0.98477 0.51943 0.0
H93 H 0.58098 0.98366 0.53933 0.0
H94 H 0.52126 0.05731 0.51911 0.0
H95 H 0.64613 0.10653 0.56313 0.0
H96 H 0.70663 0.10421 0.58148 0.0
H97 H 0.6033 0.97072 0.60272 0.0
H98 H 0.54331 0.97263 0.58395 0.0
H99 H 0.42399 0.97256 0.58675 0.0
H100 H 0.36526 0.97088 0.60737 0.0
H101 H 0.38611 0.09893 0.58416 0.0
H102 H 0.44605 0.10133 0.56407 0.0
H103 H 0.51275 0.03248 0.58599 0.0
H104 H 0.3889 0.97886 0.54286 0.0
H105 H 0.32631 0.97311 0.52338 0.0
H106 H 0.42282 0.10563 0.49948 0.0
H107 H 0.48505 0.11188 0.51945 0.0
C108 C 0.59384 0.05165 0.53139 0.0
C109 C 0.62083 0.09014 0.52025 0.0
C110 C 0.65498 0.09081 0.50884 0.0
C111 C 0.66232 0.0527 0.50817 0.0
C112 C 0.63561 0.01446 0.51952 0.0
C113 C 0.60173 0.01395 0.53101 0.0
C114 C 0.5557 0.04973 0.54265 0.0
C115 C 0.51976 0.0528 0.5338 0.0
C116 C 0.55288 0.04183 0.56168 0.0
C117 C 0.59021 0.0396 0.57206 0.0
C118 C 0.63666 0.07643 0.57152 0.0
C119 C 0.67112 0.07529 0.58216 0.0
C120 C 0.65977 0.03733 0.59361 0.0
C121 C 0.61334 0.00021 0.59391 0.0
C122 C 0.57893 0.00141 0.58328 0.0
C123 C 0.43939 0.03697 0.57378 0.0
C124 C 0.41578 0.0002 0.58605 0.0
C125 C 0.38193 0.99909 0.59775 0.0
C126 C 0.37106 0.03487 0.59749 0.0
C127 C 0.39408 0.07115 0.58491 0.0
C128 C 0.42797 0.07227 0.57323 0.0
C129 C 0.47803 0.03996 0.56247 0.0
C130 C 0.51418 0.0372 0.57131 0.0
C131 C 0.48062 0.0474 0.54338 0.0
C132 C 0.44168 0.04597 0.53274 0.0
C133 C 0.3964 0.00718 0.53372 0.0
C134 C 0.36075 0.00369 0.52241 0.0
C135 C 0.36963 0.03876 0.50977 0.0
C136 C 0.41468 0.07821 0.50917 0.0
C137 C 0.45036 0.08168 0.52049 0.0
H138 H 0.48399 0.41116 0.8516 0.0
H139 H 0.41807 0.35646 0.83244 0.0
H140 H 0.32852 0.39534 0.86105 0.0
H141 H 0.39494 0.4516 0.87938 0.0
H142 H 0.52461 0.50192 0.85315 0.0
H143 H 0.44755 0.381 0.898 0.0
H144 H 0.38318 0.32507 0.91702 0.0
H145 H 0.37051 0.43775 0.94076 0.0
H146 H 0.43386 0.4931 0.92147 0.0
H147 H 0.55161 0.60678 0.91928 0.0
H148 H 0.61208 0.67004 0.93773 0.0
H149 H 0.71568 0.6425 0.91447 0.0
H150 H 0.65447 0.57799 0.89642 0.0
H151 H 0.52201 0.51688 0.92055 0.0
H152 H 0.58998 0.63549 0.87492 0.0
H153 H 0.64949 0.69384 0.85513 0.0
H154 H 0.67797 0.58957 0.83309 0.0
H155 H 0.61779 0.53122 0.85278 0.0
C156 C 0.44446 0.43522 0.8671 0.0
C157 C 0.45009 0.40775 0.85377 0.0
C158 C 0.41223 0.37619 0.84292 0.0
C159 C 0.36789 0.37147 0.84514 0.0
C160 C 0.36223 0.39846 0.85875 0.0
C161 C 0.40013 0.43022 0.86947 0.0
C162 C 0.4854 0.47132 0.87764 0.0
C163 C 0.52445 0.50457 0.86794 0.0
C164 C 0.48471 0.47563 0.8969 0.0
C165 C 0.44536 0.44125 0.9082 0.0
C166 C 0.4306 0.39354 0.90719 0.0
C167 C 0.39411 0.36168 0.91819 0.0
C168 C 0.37164 0.37694 0.93038 0.0
C169 C 0.38661 0.42473 0.93135 0.0
C170 C 0.4231 0.4565 0.92043 0.0
C171 C 0.59847 0.58772 0.9064 0.0
C172 C 0.58736 0.61437 0.91812 0.0
C173 C 0.62208 0.65084 0.92855 0.0
C174 C 0.66881 0.66151 0.92753 0.0
C175 C 0.67998 0.63497 0.91568 0.0
C176 C 0.64512 0.59838 0.90522 0.0
C177 C 0.56068 0.54777 0.89602 0.0
C178 C 0.52238 0.51376 0.90578 0.0
C179 C 0.56185 0.54303 0.87682 0.0
C180 C 0.59974 0.57906 0.86548 0.0
C181 C 0.60948 0.62534 0.866 0.0
C182 C 0.64362 0.65871 0.85467 0.0
C183 C 0.66868 0.6465 0.84249 0.0
C184 C 0.65899 0.60012 0.8421 0.0
C185 C 0.62476 0.56675 0.85342 0.0
C186 C 0.99168 0.13275 0.09095 0.0
C187 C 0.02126 0.11422 0.09289 0.0
C188 C 0.99472 0.1668 0.1032 0.0
C189 C 0.02746 0.18295 0.11766 0.0
C190 C 0.05685 0.16424 0.11959 0.0
C191 C 0.05408 0.13051 0.10726 0.0
C192 C 0.03076 0.21793 0.13131 0.0
C193 C 0.01986 0.25083 0.12742 0.0
C194 C 0.0246 0.28672 0.1409 0.0
C195 C 0.03419 0.33029 0.13453 0.0
C196 C 0.03885 0.36497 0.14674 0.0
C197 C 0.03319 0.35655 0.16561 0.0
H198 H 0.0098 0.2444 0.16512 0.0
C199 C 0.02259 0.31262 0.172 0.0
C200 C 0.01849 0.27804 0.15978 0.0
H201 H 0.01789 0.30516 0.18647 0.0
H202 H 0.9658 0.12062 0.08008 0.0
H203 H 0.97061 0.17945 0.10155 0.0
H204 H 0.08215 0.17583 0.13066 0.0
H205 H 0.07717 0.11668 0.10917 0.0
H206 H 0.04517 0.21813 0.14468 0.0
H207 H 0.00994 0.25361 0.11354 0.0
H208 H 0.03852 0.3377 0.12005 0.0
H209 H 0.04626 0.39825 0.14139 0.0
C210 C 0.89407 0.03762 0.41922 0.0
C211 C 0.89102 0.99396 0.41756 0.0
C212 C 0.86347 0.04357 0.43068 0.0
C213 C 0.82936 0.00591 0.44081 0.0
C214 C 0.8265 0.96247 0.43904 0.0
C215 C 0.85676 0.95654 0.42763 0.0
C216 C 0.79517 0.00908 0.4531 0.0
C217 C 0.79628 0.04879 0.45815 0.0
C218 C 0.7611 0.04932 0.4707 0.0
C219 C 0.77296 0.08994 0.48088 0.0
C220 C 0.74101 0.09126 0.49302 0.0
C221 C 0.69643 0.05192 0.49522 0.0
H222 H 0.70433 0.97912 0.46439 0.0
C223 C 0.68416 0.01167 0.48474 0.0
C224 C 0.71587 0.01045 0.47253 0.0
H225 H 0.64963 0.98123 0.48576 0.0
H226 H 0.9199 0.06717 0.41161 0.0
H227 H 0.86662 0.07752 0.43132 0.0
H228 H 0.80062 0.93271 0.44656 0.0
H229 H 0.85319 0.92234 0.4268 0.0
H230 H 0.76836 0.97646 0.45878 0.0
H231 H 0.82469 0.08216 0.45377 0.0
H232 H 0.80729 0.12057 0.47962 0.0
H233 H 0.75146 0.12282 0.50091 0.0
C234 C 0.89833 0.89863 0.75595 0.0
C235 C 0.8928 0.93778 0.75461 0.0
C236 C 0.87152 0.86307 0.76831 0.0
C237 C 0.83874 0.86611 0.77961 0.0
C238 C 0.83355 0.9053 0.77829 0.0
C239 C 0.8599 0.94046 0.76591 0.0
C240 C 0.81029 0.83033 0.79337 0.0
C241 C 0.79878 0.78528 0.7922 0.0
C242 C 0.76729 0.74992 0.80558 0.0
C243 C 0.73905 0.70344 0.79977 0.0
C244 C 0.70748 0.66981 0.81176 0.0
C245 C 0.70382 0.68178 0.82995 0.0
H246 H 0.78715 0.79672 0.82911 0.0
C247 C 0.73332 0.72802 0.83592 0.0
C248 C 0.76473 0.76166 0.82392 0.0
H249 H 0.73233 0.73824 0.84994 0.0
H250 H 0.92349 0.89552 0.74753 0.0
H251 H 0.87732 0.83391 0.76921 0.0
H252 H 0.80881 0.90876 0.78687 0.0
H253 H 0.85471 0.97009 0.7654 0.0
H254 H 0.79558 0.84118 0.80431 0.0
H255 H 0.80956 0.77305 0.78039 0.0
H256 H 0.74052 0.69333 0.78577 0.0
H257 H 0.68509 0.63467 0.80662 0.0
C258 C 0.03903 0.90606 0.0794 0.0
C259 C 0.00252 0.91568 0.0812 0.0
C260 C 0.03907 0.87067 0.08963 0.0
C261 C 0.0025 0.84423 0.10185 0.0
C262 C 0.96512 0.85263 0.10295 0.0
C263 C 0.96523 0.88806 0.09286 0.0
C264 C 0.0018 0.80785 0.11376 0.0
C265 C 0.04057 0.80766 0.11924 0.0
C266 C 0.04023 0.77382 0.13256 0.0
C267 C 0.08193 0.78515 0.14176 0.0
C268 C 0.08322 0.75485 0.15455 0.0
C269 C 0.04276 0.71232 0.15842 0.0
H270 H 0.96733 0.7197 0.12903 0.0
C271 C 0.00112 0.70061 0.14907 0.0
C272 C -0.00014 0.73079 0.13621 0.0
H273 H 0.96962 0.66761 0.15144 0.0
H274 H 0.06811 0.92657 0.07043 0.0
H275 H 0.06778 0.86428 0.08791 0.0
H276 H 0.93621 0.83252 0.11206 0.0
H277 H 0.93637 0.89432 0.09447 0.0
H278 H 0.96822 0.78271 0.11937 0.0
H279 H 0.07448 0.8353 0.11482 0.0
H280 H 0.11363 0.81785 0.1392 0.0
H281 H 0.11581 0.76501 0.16158 0.0
C282 C 0.09609 0.96983 0.427 0.0
C283 C 0.09214 0.00463 0.41779 0.0
C284 C 0.13391 0.9813 0.43858 0.0
C285 C 0.16941 0.02798 0.44114 0.0
C286 C 0.16535 0.06292 0.43213 0.0
C287 C 0.12724 0.05141 0.42051 0.0
C288 C 0.20974 0.04108 0.45372 0.0
C289 C 0.2255 0.01171 0.45755 0.0
C290 C 0.26314 0.02088 0.471 0.0
C291 C 0.26991 0.98366 0.47542 0.0
C292 C 0.30409 0.9895 0.48804 0.0
C293 C 0.33273 0.03288 0.4966 0.0
H294 H 0.28865 0.09446 0.47646 0.0
C295 C 0.32645 0.07043 0.49213 0.0
C296 C 0.292 0.06456 0.4795 0.0
H297 H 0.34791 0.1043 0.49853 0.0
H298 H 0.06957 0.93344 0.42549 0.0
H299 H 0.1344 0.95334 0.44581 0.0
H300 H 0.19184 0.09922 0.43402 0.0
H301 H 0.12525 0.07916 0.41373 0.0
H302 H 0.22636 0.07567 0.45982 0.0
H303 H 0.20943 0.9781 0.45058 0.0
H304 H 0.24852 0.94966 0.46909 0.0
H305 H 0.30853 0.96005 0.49086 0.0
C306 C 0.09814 0.17313 0.75757 0.0
C307 C 0.09138 0.1303 0.75092 0.0
C308 C 0.13643 0.20189 0.76875 0.0
C309 C 0.16879 0.18829 0.7738 0.0
C310 C 0.1627 0.14605 0.76677 0.0
C311 C 0.12444 0.11733 0.75548 0.0
C312 C 0.20965 0.2175 0.786 0.0
C313 C 0.21181 0.25054 0.79752 0.0
C314 C 0.25266 0.28065 0.80949 0.0
C315 C 0.2591 0.32388 0.8153 0.0
C316 C 0.29645 0.35325 0.82675 0.0
C317 C 0.32808 0.33984 0.83294 0.0
H318 H 0.2796 0.23334 0.81199 0.0
C319 C 0.32142 0.2963 0.82727 0.0
C320 C 0.28413 0.26697 0.81568 0.0
H321 H 0.34458 0.28446 0.83203 0.0
H322 H 0.07386 0.18469 0.75412 0.0
H323 H 0.14053 0.2349 0.77314 0.0
H324 H 0.18731 0.13489 0.77021 0.0
H325 H 0.12052 0.0847 0.75055 0.0
H326 H 0.23863 0.21106 0.78549 0.0
H327 H 0.18283 0.25692 0.79813 0.0
H328 H 0.23536 0.33528 0.8108 0.0
H329 H 0.30082 0.3868 0.83055 0.0
C330 C 0.89492 0.04312 0.68502 0.0
C331 C 0.90385 0.00607 0.68508 0.0
C332 C 0.85996 0.04138 0.67376 0.0
C333 C 0.83323 0.00248 0.66226 0.0
C334 C 0.84107 0.96477 0.66286 0.0
C335 C 0.87621 0.96662 0.67405 0.0
C336 C 0.79656 0.99973 0.64971 0.0
C337 C 0.79821 0.03765 0.64243 0.0
C338 C 0.76238 0.03608 0.62966 0.0
C339 C 0.76115 0.0772 0.62693 0.0
C340 C 0.72824 0.07772 0.61513 0.0
C341 C 0.69579 0.03708 0.60567 0.0
H342 H 0.73088 0.96337 0.62105 0.0
C343 C 0.69742 0.99603 0.60813 0.0
C344 C 0.7304 0.9955 0.61991 0.0
H345 H 0.67347 0.96435 0.60076 0.0
H346 H 0.91534 0.0738 0.69351 0.0
H347 H 0.85385 0.07041 0.67422 0.0
H348 H 0.82062 0.93414 0.65434 0.0
H349 H 0.88207 0.93738 0.67389 0.0
H350 H 0.76829 0.96517 0.64609 0.0
H351 H 0.82717 0.07194 0.64602 0.0
H352 H 0.78544 0.10906 0.63413 0.0
H353 H 0.72767 0.10982 0.61372 0.0
C354 C 0.9075 0.91255 0.01473 0.0
C355 C 0.90393 0.9526 0.01748 0.0
C356 C 0.87937 0.87868 1.00169 0.0
C357 C 0.84692 0.88413 0.99112 0.0
C358 C 0.84379 0.92432 0.99379 0.0
C359 C 0.87167 0.95798 0.00682 0.0
C360 C 0.81618 0.8496 0.97698 0.0
C361 C 0.80468 0.80446 0.97655 0.0
C362 C 0.77117 0.76966 0.96305 0.0
C363 C 0.77177 0.72815 0.96003 0.0
C364 C 0.73937 0.69353 0.94818 0.0
C365 C 0.70526 0.69945 0.93919 0.0
H366 H 0.73431 0.80632 0.95614 0.0
C367 C 0.70491 0.74114 0.94206 0.0
C368 C 0.73722 0.7757 0.95389 0.0
H369 H 0.6793 0.74697 0.93526 0.0
H370 H 0.93219 0.90738 0.02259 0.0
H371 H 0.88391 0.84891 0.99978 0.0
H372 H 0.81936 0.92966 0.98581 0.0
H373 H 0.868 0.9884 0.00843 0.0
H374 H 0.80147 0.86214 0.96681 0.0
H375 H 0.8197 0.79186 0.98656 0.0
H376 H 0.79715 0.72225 0.967 0.0
H377 H 0.74022 0.66156 0.94649 0.0
C378 C 0.05444 0.95283 0.33847 0.0
C379 C 0.01699 0.93973 0.35051 0.0
C380 C 0.05816 0.91913 0.32816 0.0
C381 C 0.02423 0.87159 0.32966 0.0
C382 C 0.98755 0.85864 0.34207 0.0
C383 C 0.98384 0.89227 0.35232 0.0
C384 C 0.02591 0.83429 0.31884 0.0
C385 C 0.0492 0.84156 0.30299 0.0
C386 C 0.04834 0.80333 0.29188 0.0
C387 C 0.05834 0.81019 0.27313 0.0
C388 C 0.05691 0.77475 0.26216 0.0
C389 C 0.04553 0.73167 0.26972 0.0
H390 H 0.03228 0.75436 0.31401 0.0
C391 C 0.03663 0.72515 0.28855 0.0
C392 C 0.0383 0.76059 0.29953 0.0
H393 H 0.02896 0.69275 0.29486 0.0
H394 H 0.08076 0.98916 0.33691 0.0
H395 H 0.08783 0.93057 0.31923 0.0
H396 H 0.96119 0.82232 0.34366 0.0
H397 H 0.95468 0.88102 0.36156 0.0
H398 H 0.00446 0.79897 0.32368 0.0
H399 H 0.06727 0.87623 0.29727 0.0
H400 H 0.06662 0.84285 0.26689 0.0
H401 H 0.06389 0.78079 0.24769 0.0
C402 C 0.12242 0.0434 0.67513 0.0
C403 C 0.09934 0.0116 0.68921 0.0
C404 C 0.15663 0.04122 0.6648 0.0
C405 C 0.16906 0.00736 0.66839 0.0
C406 C 0.1459 0.97543 0.68244 0.0
C407 C 0.11152 0.97764 0.69283 0.0
C408 C 0.20419 0.00322 0.65708 0.0
C409 C 0.23859 0.03956 0.6481 0.0
C410 C 0.27255 0.0364 0.63572 0.0
C411 C 0.31383 0.07763 0.63137 0.0
C412 C 0.34573 0.07704 0.61907 0.0
C413 C 0.33699 0.03516 0.61066 0.0
H414 H 0.23177 0.96198 0.62989 0.0
C415 C 0.2957 0.99376 0.61502 0.0
C416 C 0.26374 0.99433 0.62737 0.0
H417 H 0.28754 0.961 0.60858 0.0
H418 H 0.1136 0.06973 0.67184 0.0
H419 H 0.17221 0.06543 0.65371 0.0
H420 H 0.15437 0.94866 0.68538 0.0
H421 H 0.09414 0.95246 0.70352 0.0
H422 H 0.20205 0.96956 0.65655 0.0
H423 H 0.24307 0.07398 0.65014 0.0
H424 H 0.3215 0.11058 0.63751 0.0
H425 H 0.37749 0.10947 0.61628 0.0
C426 C 0.11433 0.18432 0.0201 0.0
C427 C 0.10475 0.14009 0.02581 0.0
C428 C 0.15217 0.21129 0.00879 0.0
C429 C 0.18136 0.19462 1.00269 0.0
C430 C 0.17302 0.15127 0.00895 0.0
C431 C 0.13501 0.12415 0.02032 0.0
C432 C 0.22111 0.22216 0.99014 0.0
C433 C 0.2207 0.25216 0.97795 0.0
C434 C 0.25988 0.28235 0.96554 0.0
C435 C 0.25721 0.3176 0.95616 0.0
C436 C 0.29311 0.34778 0.94465 0.0
C437 C 0.33273 0.34344 0.94211 0.0
H438 H 0.30266 0.25036 0.96937 0.0
C439 C 0.33518 0.30758 0.95114 0.0
C440 C 0.29922 0.27736 0.96275 0.0
H441 H 0.36535 0.30343 0.94952 0.0
H442 H 0.09237 0.19821 0.02428 0.0
H443 H 0.15854 0.24536 0.005 0.0
H444 H 0.19538 0.13789 0.0047 0.0
H445 H 0.12889 0.0904 0.02452 0.0
H446 H 0.2506 0.21663 0.99092 0.0
H447 H 0.18983 0.25552 0.97705 0.0
H448 H 0.22731 0.3222 0.95786 0.0
H449 H 0.28972 0.3745 0.93767 0.0
C450 C 0.03586 0.1708 0.35688 0.0
C451 C 0.00304 0.12371 0.35328 0.0
C452 C 0.03929 0.20566 0.34525 0.0
C453 C 0.00994 0.19393 0.32978 0.0
C454 C 0.97676 0.14696 0.32643 0.0
C455 C 0.97311 0.11234 0.33807 0.0
C456 C 0.01429 0.2289 0.31621 0.0
C457 C 0.03162 0.27442 0.32011 0.0
C458 C 0.03382 0.30788 0.30624 0.0
C459 C 0.02874 0.34554 0.31188 0.0
C460 C 0.02938 0.37687 0.29912 0.0
C461 C 0.03602 0.37171 0.28046 0.0
H462 H 0.04672 0.2753 0.28281 0.0
C463 C 0.04251 0.33481 0.27486 0.0
C464 C 0.04133 0.30315 0.28759 0.0
H465 H 0.04777 0.32999 0.26057 0.0
H466 H 0.05964 0.18063 0.36842 0.0
H467 H 0.06597 0.24139 0.34809 0.0
H468 H 0.95379 0.13686 0.31461 0.0
H469 H 0.94749 0.07643 0.33483 0.0
H470 H 0.00029 0.21589 0.3026 0.0
H471 H 0.04152 0.28706 0.33407 0.0
H472 H 0.02345 0.35031 0.32617 0.0
H473 H 0.02502 0.4054 0.30389 0.0
loop_
_geom_bond_atom_site_label_1
_geom_bond_atom_site_label_2
_geom_bond_distance
_geom_bond_site_symmetry_2
_ccdc_geom_bond_type
Co0 O1 2.216 1_445 S
Co0 O2 2.091 1_545 S
Co0 O4 2.004 . S
Co0 O10 2.021 1_445 S
Co0 O12 2.137 . S
Co0 O13 2.244 1_455 S
O1 Co0 2.216 1_665 S
O1 C8 1.247 1_655 S
O2 Co0 2.091 1_565 S
O2 C8 1.261 . S
C3 O12 1.247 . S
C3 O13 1.272 1_455 S
O4 Co0 2.004 . S
O4 C9 1.259 . S
Co5 O6 2.061 1_655 S
Co5 O11 2.052 . S
Co5 O13 2.135 . S
O6 Co5 2.061 1_455 S
O6 C9 1.235 . S
C7 O10 1.238 . S
C7 O11 1.241 1_565 S
C8 O1 1.247 1_455 S
C8 O2 1.261 . S
C9 O4 1.259 . S
C9 O6 1.235 . S
O10 Co0 2.021 1_665 S
O10 C7 1.238 . S
O11 Co5 2.052 . S
O11 C7 1.241 1_545 S
O12 Co0 2.137 . S
O12 C3 1.247 . S
O13 Co0 2.244 1_655 S
O13 C3 1.272 1_655 S
O13 Co5 2.135 . S
Co14 O15 2.216 1_455 S
Co14 O16 2.091 . S
Co14 O18 2.004 . S
Co14 O24 2.021 1_455 S
Co14 O26 2.137 . S
Co14 O27 2.244 1_445 S
O15 Co14 2.216 1_655 S
O15 C22 1.247 1_655 S
O16 Co14 2.091 . S
O16 C22 1.261 . S
C17 O26 1.247 1_565 S
C17 O27 1.272 1_455 S
O18 Co14 2.004 . S
O18 C23 1.259 . S
Co19 O20 2.061 1_655 S
Co19 O25 2.052 . S
Co19 O27 2.135 . S
O20 Co19 2.061 1_455 S
O20 C23 1.235 1_565 S
C21 O24 1.238 . S
C21 O25 1.241 1_545 S
C22 O15 1.247 1_455 S
C22 O16 1.261 . S
C23 O18 1.259 . S
C23 O20 1.235 1_545 S
O24 Co14 2.021 1_655 S
O24 C21 1.238 . S
O25 Co19 2.052 . S
O25 C21 1.241 1_565 S
O26 Co14 2.137 . S
O26 C17 1.247 1_545 S
O27 Co14 2.244 1_665 S
O27 C17 1.272 1_655 S
O27 Co19 2.135 . S
Co28 O29 2.216 . S
Co28 O30 2.091 1_545 S
Co28 O32 2.004 1_445 S
Co28 O38 2.021 . S
Co28 O40 2.137 1_445 S
Co28 O41 2.244 1_455 S
O29 Co28 2.216 . S
O29 C36 1.247 . S
O30 Co28 2.091 1_565 S
O30 C36 1.261 1_565 S
C31 O40 1.247 1_545 S
C31 O41 1.272 . S
O32 Co28 2.004 1_665 S
O32 C37 1.259 . S
Co33 O34 2.061 1_545 S
Co33 O39 2.052 1_655 S
Co33 O41 2.135 . S
O34 Co33 2.061 1_565 S
O34 C37 1.235 . S
C35 O38 1.238 . S
C35 O39 1.241 . S
C36 O29 1.247 . S
C36 O30 1.261 1_545 S
C37 O32 1.259 . S
C37 O34 1.235 . S
O38 Co28 2.021 . S
O38 C35 1.238 . S
O39 Co33 2.052 1_455 S
O39 C35 1.241 . S
O40 Co28 2.137 1_665 S
O40 C31 1.247 1_565 S
O41 Co28 2.244 1_655 S
O41 C31 1.272 . S
O41 Co33 2.135 . S
H42 C61 0.949 . S
H43 C62 0.950 . S
H44 C64 0.950 . S
H45 C65 0.950 . S
H46 C67 0.950 . S
H47 C70 0.950 . S
H48 C71 0.950 . S
H49 C73 0.951 . S
H50 C74 0.949 . S
H51 C76 0.949 . S
H52 C77 0.950 . S
H53 C79 0.950 . S
H54 C80 0.950 . S
H55 C82 0.946 1_655 S
H56 C85 0.950 . S
H57 C86 0.950 . S
H58 C88 0.951 . S
H59 C89 0.949 . S
C60 C61 1.376 . S
C60 C65 1.386 1_455 S
C60 C66 1.483 . S
C61 H42 0.949 . S
C61 C60 1.376 . S
C61 C62 1.397 . S
C62 H43 0.950 . S
C62 C61 1.397 . S
C62 C63 1.391 . S
C63 C62 1.391 . S
C63 C64 1.405 1_455 S
C64 H44 0.950 . S
C64 C63 1.405 1_655 S
C64 C65 1.367 . S
C65 H45 0.950 . S
C65 C60 1.386 1_655 S
C65 C64 1.367 . S
C66 C60 1.483 . S
C66 C67 1.382 . S
C66 C68 1.403 . S
C67 H46 0.950 . S
C67 C66 1.382 . S
C67 C83 1.411 . S
C68 C66 1.403 . S
C68 C69 1.489 . S
C68 C82 1.411 . S
C69 C68 1.489 . S
C69 C70 1.383 . S
C69 C74 1.382 1_455 S
C70 H47 0.950 . S
C70 C69 1.383 . S
C70 C71 1.395 . S
C71 H48 0.950 . S
C71 C70 1.395 . S
C71 C72 1.288 . S
C72 C71 1.288 . S
C72 C73 1.392 1_455 S
C73 H49 0.951 . S
C73 C72 1.392 1_655 S
C73 C74 1.392 . S
C74 H50 0.949 . S
C74 C69 1.382 1_655 S
C74 C73 1.392 . S
C75 C76 1.376 1_455 S
C75 C80 1.386 . S
C75 C81 1.483 . S
C76 H51 0.949 . S
C76 C75 1.376 1_655 S
C76 C77 1.397 . S
C77 H52 0.950 . S
C77 C76 1.397 . S
C77 C78 1.391 1_655 S
C78 C77 1.391 1_455 S
C78 C79 1.405 . S
C79 H53 0.950 . S
C79 C78 1.405 . S
C79 C80 1.367 . S
C80 H54 0.950 . S
C80 C75 1.386 . S
C80 C79 1.367 . S
C81 C75 1.483 . S
C81 C82 1.382 . S
C81 C83 1.403 . S
C82 H55 0.946 1_455 S
C82 C68 1.411 . S
C82 C81 1.382 . S
C83 C67 1.411 . S
C83 C81 1.403 . S
C83 C84 1.489 . S
C84 C83 1.489 . S
C84 C85 1.383 1_455 S
C84 C89 1.382 . S
C85 H56 0.950 . S
C85 C84 1.383 1_655 S
C85 C86 1.395 . S
C86 H57 0.950 . S
C86 C85 1.395 . S
C86 C87 1.288 1_655 S
C87 C86 1.288 1_455 S
C87 C88 1.392 . S
C88 H58 0.951 . S
C88 C87 1.392 . S
C88 C89 1.392 . S
C89 H59 0.949 . S
C89 C84 1.382 . S
C89 C88 1.392 . S
H90 C109 0.949 . S
H91 C110 0.950 . S
H92 C112 0.950 . S
H93 C113 0.950 . S
H94 C115 0.950 . S
H95 C118 0.950 . S
H96 C119 0.950 . S
H97 C121 0.951 . S
H98 C122 0.949 . S
H99 C124 0.949 . S
H100 C125 0.950 . S
H101 C127 0.950 . S
H102 C128 0.950 . S
H103 C130 0.950 . S
H104 C133 0.950 . S
H105 C134 0.950 . S
H106 C136 0.951 . S
H107 C137 0.949 . S
C108 C109 1.376 . S
C108 C113 1.386 1_545 S
C108 C114 1.483 . S
C109 H90 0.949 . S
C109 C108 1.376 . S
C109 C110 1.397 . S
C110 H91 0.950 . S
C110 C109 1.397 . S
C110 C111 1.391 . S
C111 C110 1.391 . S
C111 C112 1.405 1_545 S
C112 H92 0.950 . S
C112 C111 1.405 1_565 S
C112 C113 1.367 . S
C113 H93 0.950 . S
C113 C108 1.386 1_565 S
C113 C112 1.367 . S
C114 C108 1.483 . S
C114 C115 1.382 . S
C114 C116 1.403 . S
C115 H94 0.950 . S
C115 C114 1.382 . S
C115 C131 1.411 . S
C116 C114 1.403 . S
C116 C117 1.489 . S
C116 C130 1.411 . S
C117 C116 1.489 . S
C117 C118 1.383 . S
C117 C122 1.382 1_545 S
C118 H95 0.950 . S
C118 C117 1.383 . S
C118 C119 1.395 . S
C119 H96 0.950 . S
C119 C118 1.395 . S
C119 C120 1.288 . S
C120 C119 1.288 . S
C120 C121 1.392 1_545 S
C121 H97 0.951 . S
C121 C120 1.392 1_565 S
C121 C122 1.392 . S
C122 H98 0.949 . S
C122 C117 1.382 1_565 S
C122 C121 1.392 . S
C123 C124 1.376 1_545 S
C123 C128 1.386 . S
C123 C129 1.483 . S
C124 H99 0.949 . S
C124 C123 1.376 1_565 S
C124 C125 1.397 . S
C125 H100 0.950 . S
C125 C124 1.397 . S
C125 C126 1.391 1_565 S
C126 C125 1.391 1_545 S
C126 C127 1.405 . S
C127 H101 0.950 . S
C127 C126 1.405 . S
C127 C128 1.367 . S
C128 H102 0.950 . S
C128 C123 1.386 . S
C128 C127 1.367 . S
C129 C123 1.483 . S
C129 C130 1.382 . S
C129 C131 1.403 . S
C130 H103 0.950 . S
C130 C116 1.411 . S
C130 C129 1.382 . S
C131 C115 1.411 . S
C131 C129 1.403 . S
C131 C132 1.489 . S
C132 C131 1.489 . S
C132 C133 1.383 1_545 S
C132 C137 1.382 . S
C133 H104 0.950 . S
C133 C132 1.383 1_565 S
C133 C134 1.395 . S
C134 H105 0.950 . S
C134 C133 1.395 . S
C134 C135 1.288 1_565 S
C135 C134 1.288 1_545 S
C135 C136 1.392 . S
C136 H106 0.951 . S
C136 C135 1.392 . S
C136 C137 1.392 . S
C137 H107 0.949 . S
C137 C132 1.382 . S
C137 C136 1.392 . S
H138 C157 0.949 . S
H139 C158 0.950 . S
H140 C160 0.950 . S
H141 C161 0.950 . S
H142 C163 0.950 . S
H143 C166 0.950 . S
H144 C167 0.950 . S
H145 C169 0.951 . S
H146 C170 0.949 . S
H147 C172 0.949 . S
H148 C173 0.950 . S
H149 C175 0.950 . S
H150 C176 0.950 . S
H151 C178 0.950 . S
H152 C181 0.950 . S
H153 C182 0.950 . S
H154 C184 0.951 . S
H155 C185 0.949 . S
C156 C157 1.376 . S
C156 C161 1.386 . S
C156 C162 1.483 . S
C157 H138 0.949 . S
C157 C156 1.376 . S
C157 C158 1.397 . S
C158 H139 0.950 . S
C158 C157 1.397 . S
C158 C159 1.391 . S
C159 C158 1.391 . S
C159 C160 1.405 . S
C160 H140 0.950 . S
C160 C159 1.405 . S
C160 C161 1.367 . S
C161 H141 0.950 . S
C161 C156 1.386 . S
C161 C160 1.367 . S
C162 C156 1.483 . S
C162 C163 1.382 . S
C162 C164 1.403 . S
C163 H142 0.950 . S
C163 C162 1.382 . S
C163 C179 1.411 . S
C164 C162 1.403 . S
C164 C165 1.489 . S
C164 C178 1.411 . S
C165 C164 1.489 . S
C165 C166 1.383 . S
C165 C170 1.382 . S
C166 H143 0.950 . S
C166 C165 1.383 . S
C166 C167 1.395 . S
C167 H144 0.950 . S
C167 C166 1.395 . S
C167 C168 1.288 . S
C168 C167 1.288 . S
C168 C169 1.392 . S
C169 H145 0.951 . S
C169 C168 1.392 . S
C169 C170 1.392 . S
C170 H146 0.949 . S
C170 C165 1.382 . S
C170 C169 1.392 . S
C171 C172 1.376 . S
C171 C176 1.386 . S
C171 C177 1.483 . S
C172 H147 0.949 . S
C172 C171 1.376 . S
C172 C173 1.397 . S
C173 H148 0.950 . S
C173 C172 1.397 . S
C173 C174 1.391 . S
C174 C173 1.391 . S
C174 C175 1.405 . S
C175 H149 0.950 . S
C175 C174 1.405 . S
C175 C176 1.367 . S
C176 H150 0.950 . S
C176 C171 1.386 . S
C176 C175 1.367 . S
C177 C171 1.483 . S
C177 C178 1.382 . S
C177 C179 1.403 . S
C178 H151 0.950 . S
C178 C164 1.411 . S
C178 C177 1.382 . S
C179 C163 1.411 . S
C179 C177 1.403 . S
C179 C180 1.489 . S
C180 C179 1.489 . S
C180 C181 1.383 . S
C180 C185 1.382 . S
C181 H152 0.950 . S
C181 C180 1.383 . S
C181 C182 1.395 . S
C182 H153 0.950 . S
C182 C181 1.395 . S
C182 C183 1.288 . S
C183 C182 1.288 . S
C183 C184 1.392 . S
C184 H154 0.951 . S
C184 C183 1.392 . S
C184 C185 1.392 . S
C185 H155 0.949 . S
C185 C180 1.382 . S
C185 C184 1.392 . S
C186 C187 1.386 . S
C186 C188 1.383 . S
C186 H202 0.951 . S
C187 C186 1.386 . S
C187 C191 1.383 . S
C188 C186 1.383 . S
C188 C189 1.402 1_455 S
C188 H203 0.951 . S
C189 C188 1.402 1_655 S
C189 C190 1.380 . S
C189 C192 1.481 . S
C190 C189 1.380 . S
C190 C191 1.362 1_655 S
C190 H204 0.951 . S
C191 C187 1.383 . S
C191 C190 1.362 1_455 S
C191 H205 0.950 . S
C192 C189 1.481 . S
C192 C193 1.297 . S
C192 H206 0.950 . S
C193 C192 1.297 . S
C193 C194 1.479 . S
C193 H207 0.950 . S
C194 C193 1.479 . S
C194 C195 1.375 . S
C194 C200 1.404 . S
C195 C194 1.375 . S
C195 C196 1.369 1_655 S
C195 H208 0.950 . S
C196 C195 1.369 1_455 S
C196 C197 1.392 . S
C196 H209 0.951 . S
C197 C196 1.392 . S
C197 C199 1.384 1_455 S
H198 C200 0.949 . S
C199 C197 1.384 1_655 S
C199 C200 1.385 . S
C199 H201 0.950 . S
C200 C194 1.404 . S
C200 H198 0.949 . S
C200 C199 1.385 . S
H201 C199 0.950 . S
H202 C186 0.951 . S
H203 C188 0.951 . S
H204 C190 0.951 . S
H205 C191 0.950 . S
H206 C192 0.950 . S
H207 C193 0.950 . S
H208 C195 0.950 . S
H209 C196 0.951 . S
C210 C211 1.386 . S
C210 C212 1.383 . S
C210 H226 0.951 . S
C211 C210 1.386 . S
C211 C215 1.383 1_545 S
C212 C210 1.383 . S
C212 C213 1.402 . S
C212 H227 0.951 . S
C213 C212 1.402 . S
C213 C214 1.375 1_545 S
C213 C216 1.480 . S
C214 C213 1.375 1_565 S
C214 C215 1.367 . S
C214 H228 0.951 . S
C215 C211 1.383 1_565 S
C215 C214 1.367 . S
C215 H229 0.950 . S
C216 C213 1.480 . S
C216 C217 1.302 . S
C216 H230 0.946 1_545 S
C217 C216 1.302 . S
C217 C218 1.479 . S
C217 H231 0.950 . S
C218 C217 1.479 . S
C218 C219 1.375 . S
C218 C224 1.404 1_545 S
C219 C218 1.375 . S
C219 C220 1.369 . S
C219 H232 0.950 . S
C220 C219 1.369 . S
C220 C221 1.392 . S
C220 H233 0.951 . S
C221 C220 1.392 . S
C221 C223 1.384 1_545 S
H222 C224 0.949 . S
C223 C221 1.384 1_565 S
C223 C224 1.385 . S
C223 H225 0.950 . S
C224 C218 1.404 1_565 S
C224 H222 0.949 . S
C224 C223 1.385 . S
H225 C223 0.950 . S
H226 C210 0.951 . S
H227 C212 0.951 . S
H228 C214 0.951 . S
H229 C215 0.950 . S
H230 C216 0.946 1_565 S
H231 C217 0.950 . S
H232 C219 0.950 . S
H233 C220 0.951 . S
C234 C235 1.386 . S
C234 C236 1.383 . S
C234 H250 0.951 . S
C235 C234 1.386 . S
C235 C239 1.383 . S
C236 C234 1.383 . S
C236 C237 1.402 . S
C236 H251 0.951 . S
C237 C236 1.402 . S
C237 C238 1.375 . S
C237 C240 1.481 . S
C238 C237 1.375 . S
C238 C239 1.367 . S
C238 H252 0.951 . S
C239 C235 1.383 . S
C239 C238 1.367 . S
C239 H253 0.950 . S
C240 C237 1.481 . S
C240 C241 1.297 . S
C240 H254 0.950 . S
C241 C240 1.297 . S
C241 C242 1.479 . S
C241 H255 0.950 . S
C242 C241 1.479 . S
C242 C243 1.375 . S
C242 C248 1.404 . S
C243 C242 1.375 . S
C243 C244 1.369 . S
C243 H256 0.950 . S
C244 C243 1.369 . S
C244 C245 1.392 . S
C244 H257 0.951 . S
C245 C244 1.392 . S
C245 C247 1.384 . S
H246 C248 0.949 . S
C247 C245 1.384 . S
C247 C248 1.385 . S
C247 H249 0.950 . S
C248 C242 1.404 . S
C248 H246 0.949 . S
C248 C247 1.385 . S
H249 C247 0.950 . S
H250 C234 0.951 . S
H251 C236 0.951 . S
H252 C238 0.951 . S
H253 C239 0.950 . S
H254 C240 0.950 . S
H255 C241 0.950 . S
H256 C243 0.950 . S
H257 C244 0.951 . S
C258 C259 1.386 . S
C258 C260 1.383 . S
C258 H274 0.951 . S
C259 C258 1.386 . S
C259 C263 1.383 1_455 S
C260 C258 1.383 . S
C260 C261 1.402 . S
C260 H275 0.951 . S
C261 C260 1.402 . S
C261 C262 1.375 1_455 S
C261 C264 1.483 1_455 S
C262 C261 1.375 1_655 S
C262 C263 1.367 . S
C262 H276 0.951 . S
C263 C259 1.383 1_655 S
C263 C262 1.367 . S
C263 H277 0.950 . S
C264 C261 1.483 1_655 S
C264 C265 1.288 1_655 S
C264 H278 0.958 . S
C265 C264 1.288 1_455 S
C265 C266 1.479 . S
C265 H279 0.950 . S
C266 C265 1.479 . S
C266 C267 1.375 . S
C266 C272 1.404 1_455 S
C267 C266 1.375 . S
C267 C268 1.369 . S
C267 H280 0.950 . S
C268 C267 1.369 . S
C268 C269 1.392 . S
C268 H281 0.951 . S
C269 C268 1.392 . S
C269 C271 1.384 1_455 S
H270 C272 0.949 . S
C271 C269 1.384 1_655 S
C271 C272 1.385 . S
C271 H273 0.950 . S
C272 C266 1.404 1_655 S
C272 H270 0.949 . S
C272 C271 1.385 . S
H273 C271 0.950 . S
H274 C258 0.951 . S
H275 C260 0.951 . S
H276 C262 0.951 . S
H277 C263 0.950 . S
H278 C264 0.958 . S
H279 C265 0.950 . S
H280 C267 0.950 . S
H281 C268 0.951 . S
C282 C283 1.386 . S
C282 C284 1.383 . S
C282 H298 0.951 1_545 S
C283 C282 1.386 . S
C283 C287 1.383 . S
C284 C282 1.383 . S
C284 C285 1.402 . S
C284 H299 0.951 1_545 S
C285 C284 1.402 . S
C285 C286 1.375 . S
C285 C288 1.481 . S
C286 C285 1.375 . S
C286 C287 1.367 . S
C286 H300 0.951 . S
C287 C283 1.383 . S
C287 C286 1.367 . S
C287 H301 0.950 . S
C288 C285 1.481 . S
C288 C289 1.297 . S
C288 H302 0.950 . S
C289 C288 1.297 . S
C289 C290 1.479 . S
C289 H303 0.950 . S
C290 C289 1.479 . S
C290 C291 1.375 . S
C290 C296 1.404 . S
C291 C290 1.375 . S
C291 C292 1.369 1_545 S
C291 H304 0.950 1_545 S
C292 C291 1.369 1_565 S
C292 C293 1.392 1_565 S
C292 H305 0.951 . S
C293 C292 1.392 1_545 S
C293 C295 1.384 . S
H294 C296 0.949 . S
C295 C293 1.384 . S
C295 C296 1.385 . S
C295 H297 0.950 . S
C296 C290 1.404 . S
C296 H294 0.949 . S
C296 C295 1.385 . S
H297 C295 0.950 . S
H298 C282 0.951 1_565 S
H299 C284 0.951 1_565 S
H300 C286 0.951 . S
H301 C287 0.950 . S
H302 C288 0.950 . S
H303 C289 0.950 . S
H304 C291 0.950 1_565 S
H305 C292 0.951 . S
C306 C307 1.386 . S
C306 C308 1.383 . S
C306 H322 0.951 . S
C307 C306 1.386 . S
C307 C311 1.383 . S
C308 C306 1.383 . S
C308 C309 1.402 . S
C308 H323 0.951 . S
C309 C308 1.402 . S
C309 C310 1.375 . S
C309 C312 1.481 . S
C310 C309 1.375 . S
C310 C311 1.367 . S
C310 H324 0.951 . S
C311 C307 1.383 . S
C311 C310 1.367 . S
C311 H325 0.950 . S
C312 C309 1.481 . S
C312 C313 1.297 . S
C312 H326 0.950 . S
C313 C312 1.297 . S
C313 C314 1.479 . S
C313 H327 0.950 . S
C314 C313 1.479 . S
C314 C315 1.375 . S
C314 C320 1.404 . S
C315 C314 1.375 . S
C315 C316 1.369 . S
C315 H328 0.950 . S
C316 C315 1.369 . S
C316 C317 1.392 . S
C316 H329 0.951 . S
C317 C316 1.392 . S
C317 C319 1.384 . S
H318 C320 0.949 . S
C319 C317 1.384 . S
C319 C320 1.385 . S
C319 H321 0.950 . S
C320 C314 1.404 . S
C320 H318 0.949 . S
C320 C319 1.385 . S
H321 C319 0.950 . S
H322 C306 0.951 . S
H323 C308 0.951 . S
H324 C310 0.951 . S
H325 C311 0.950 . S
H326 C312 0.950 . S
H327 C313 0.950 . S
H328 C315 0.950 . S
H329 C316 0.951 . S
C330 C331 1.386 . S
C330 C332 1.383 . S
C330 H346 0.951 . S
C331 C330 1.386 . S
C331 C335 1.383 1_545 S
C332 C330 1.383 . S
C332 C333 1.402 . S
C332 H347 0.951 . S
C333 C332 1.402 . S
C333 C334 1.375 1_545 S
C333 C336 1.476 . S
C334 C333 1.375 1_565 S
C334 C335 1.367 . S
C334 H348 0.951 . S
C335 C331 1.383 1_565 S
C335 C334 1.367 . S
C335 H349 0.950 . S
C336 C333 1.476 . S
C336 C337 1.314 . S
C336 H350 0.937 1_545 S
C337 C336 1.314 . S
C337 C338 1.479 . S
C337 H351 0.950 . S
C338 C337 1.479 . S
C338 C339 1.375 . S
C338 C344 1.404 1_545 S
C339 C338 1.375 . S
C339 C340 1.369 . S
C339 H352 0.950 . S
C340 C339 1.369 . S
C340 C341 1.392 . S
C340 H353 0.951 . S
C341 C340 1.392 . S
C341 C343 1.384 1_545 S
H342 C344 0.949 . S
C343 C341 1.384 1_565 S
C343 C344 1.385 . S
C343 H345 0.950 . S
C344 C338 1.404 1_565 S
C344 H342 0.949 . S
C344 C343 1.385 . S
H345 C343 0.950 . S
H346 C330 0.951 . S
H347 C332 0.951 . S
H348 C334 0.951 . S
H349 C335 0.950 . S
H350 C336 0.937 1_565 S
H351 C337 0.950 . S
H352 C339 0.950 . S
H353 C340 0.951 . S
C354 C355 1.386 . S
C354 C356 1.383 . S
C354 H370 0.951 . S
C355 C354 1.386 . S
C355 C359 1.383 . S
C356 C354 1.383 . S
C356 C357 1.402 1_554 S
C356 H371 0.951 . S
C357 C356 1.402 1_556 S
C357 C358 1.375 . S
C357 C360 1.481 . S
C358 C357 1.375 . S
C358 C359 1.367 1_556 S
C358 H372 0.951 . S
C359 C355 1.383 . S
C359 C358 1.367 1_554 S
C359 H373 0.950 . S
C360 C357 1.481 . S
C360 C361 1.297 . S
C360 H374 0.950 . S
C361 C360 1.297 . S
C361 C362 1.479 . S
C361 H375 0.950 . S
C362 C361 1.479 . S
C362 C363 1.375 . S
C362 C368 1.404 . S
C363 C362 1.375 . S
C363 C364 1.369 . S
C363 H376 0.950 . S
C364 C363 1.369 . S
C364 C365 1.392 . S
C364 H377 0.951 . S
C365 C364 1.392 . S
C365 C367 1.384 . S
H366 C368 0.949 . S
C367 C365 1.384 . S
C367 C368 1.385 . S
C367 H369 0.950 . S
C368 C362 1.404 . S
C368 H366 0.949 . S
C368 C367 1.385 . S
H369 C367 0.950 . S
H370 C354 0.951 . S
H371 C356 0.951 . S
H372 C358 0.951 . S
H373 C359 0.950 . S
H374 C360 0.950 . S
H375 C361 0.950 . S
H376 C363 0.950 . S
H377 C364 0.951 . S
C378 C379 1.386 . S
C378 C380 1.383 . S
C378 H394 0.951 . S
C379 C378 1.386 . S
C379 C383 1.383 . S
C380 C378 1.383 . S
C380 C381 1.402 . S
C380 H395 0.951 . S
C381 C380 1.402 . S
C381 C382 1.375 . S
C381 C384 1.481 . S
C382 C381 1.375 . S
C382 C383 1.367 . S
C382 H396 0.951 . S
C383 C379 1.383 . S
C383 C382 1.367 . S
C383 H397 0.950 . S
C384 C381 1.481 . S
C384 C385 1.297 . S
C384 H398 0.950 . S
C385 C384 1.297 . S
C385 C386 1.479 . S
C385 H399 0.950 . S
C386 C385 1.479 . S
C386 C387 1.375 . S
C386 C392 1.404 . S
C387 C386 1.375 . S
C387 C388 1.369 . S
C387 H400 0.950 . S
C388 C387 1.369 . S
C388 C389 1.392 . S
C388 H401 0.951 . S
C389 C388 1.392 . S
C389 C391 1.384 . S
H390 C392 0.949 . S
C391 C389 1.384 . S
C391 C392 1.385 . S
C391 H393 0.950 . S
C392 C386 1.404 . S
C392 H390 0.949 . S
C392 C391 1.385 . S
H393 C391 0.950 . S
H394 C378 0.951 . S
H395 C380 0.951 . S
H396 C382 0.951 . S
H397 C383 0.950 . S
H398 C384 0.950 . S
H399 C385 0.950 . S
H400 C387 0.950 . S
H401 C388 0.951 . S
C402 C403 1.386 . S
C402 C404 1.383 . S
C402 H418 0.951 . S
C403 C402 1.386 . S
C403 C407 1.383 1_545 S
C404 C402 1.383 . S
C404 C405 1.402 . S
C404 H419 0.951 . S
C405 C404 1.402 . S
C405 C406 1.375 1_545 S
C405 C408 1.481 1_545 S
C406 C405 1.375 1_565 S
C406 C407 1.367 . S
C406 H420 0.951 . S
C407 C403 1.383 1_565 S
C407 C406 1.367 . S
C407 H421 0.950 . S
C408 C405 1.481 1_565 S
C408 C409 1.297 1_565 S
C408 H422 0.950 . S
C409 C408 1.297 1_545 S
C409 C410 1.479 . S
C409 H423 0.950 . S
C410 C409 1.479 . S
C410 C411 1.375 . S
C410 C416 1.404 1_545 S
C411 C410 1.375 . S
C411 C412 1.369 . S
C411 H424 0.950 . S
C412 C411 1.369 . S
C412 C413 1.392 . S
C412 H425 0.951 . S
C413 C412 1.392 . S
C413 C415 1.384 1_545 S
H414 C416 0.949 . S
C415 C413 1.384 1_565 S
C415 C416 1.385 . S
C415 H417 0.950 . S
C416 C410 1.404 1_565 S
C416 H414 0.949 . S
C416 C415 1.385 . S
H417 C415 0.950 . S
H418 C402 0.951 . S
H419 C404 0.951 . S
H420 C406 0.951 . S
H421 C407 0.950 . S
H422 C408 0.950 . S
H423 C409 0.950 . S
H424 C411 0.950 . S
H425 C412 0.951 . S
C426 C427 1.386 . S
C426 C428 1.383 . S
C426 H442 0.951 . S
C427 C426 1.386 . S
C427 C431 1.383 . S
C428 C426 1.383 . S
C428 C429 1.402 1_554 S
C428 H443 0.951 . S
C429 C428 1.402 1_556 S
C429 C430 1.375 . S
C429 C432 1.481 . S
C430 C429 1.375 . S
C430 C431 1.367 1_556 S
C430 H444 0.951 . S
C431 C427 1.383 . S
C431 C430 1.367 1_554 S
C431 H445 0.950 . S
C432 C429 1.481 . S
C432 C433 1.297 . S
C432 H446 0.950 . S
C433 C432 1.297 . S
C433 C434 1.479 . S
C433 H447 0.950 . S
C434 C433 1.479 . S
C434 C435 1.375 . S
C434 C440 1.404 . S
C435 C434 1.375 . S
C435 C436 1.369 . S
C435 H448 0.950 . S
C436 C435 1.369 . S
C436 C437 1.392 . S
C436 H449 0.951 . S
C437 C436 1.392 . S
C437 C439 1.384 . S
H438 C440 0.949 . S
C439 C437 1.384 . S
C439 C440 1.385 . S
C439 H441 0.950 . S
C440 C434 1.404 . S
C440 H438 0.949 . S
C440 C439 1.385 . S
H441 C439 0.950 . S
H442 C426 0.951 . S
H443 C428 0.951 . S
H444 C430 0.951 . S
H445 C431 0.950 . S
H446 C432 0.950 . S
H447 C433 0.950 . S
H448 C435 0.950 . S
H449 C436 0.951 . S
C450 C451 1.386 . S
C450 C452 1.383 . S
C450 H466 0.951 . S
C451 C450 1.386 . S
C451 C455 1.383 . S
C452 C450 1.383 . S
C452 C453 1.402 . S
C452 H467 0.951 . S
C453 C452 1.402 . S
C453 C454 1.375 . S
C453 C456 1.481 . S
C454 C453 1.375 . S
C454 C455 1.367 . S
C454 H468 0.952 . S
C455 C451 1.383 . S
C455 C454 1.367 . S
C455 H469 0.950 . S
C456 C453 1.481 . S
C456 C457 1.297 . S
C456 H470 0.950 . S
C457 C456 1.297 . S
C457 C458 1.479 . S
C457 H471 0.950 . S
C458 C457 1.479 . S
C458 C459 1.375 . S
C458 C464 1.404 . S
C459 C458 1.375 . S
C459 C460 1.369 . S
C459 H472 0.950 . S
C460 C459 1.369 . S
C460 C461 1.392 . S
C460 H473 0.951 . S
C461 C460 1.392 . S
C461 C463 1.384 . S
H462 C464 0.949 . S
C463 C461 1.384 . S
C463 C464 1.385 . S
C463 H465 0.950 . S
C464 C458 1.404 . S
C464 H462 0.949 . S
C464 C463 1.385 . S
H465 C463 0.950 . S
H466 C450 0.951 . S
H467 C452 0.951 . S
H468 C454 0.952 . S
H469 C455 0.950 . S
H470 C456 0.950 . S
H471 C457 0.950 . S
H472 C459 0.950 . S
H473 C460 0.951 . S
C197 C63 1.507 . S
C187 C3 1.509 . S
C211 C21 1.514 . S
C221 C111 1.538 . S
C235 C37 1.500 . S
C245 C183 1.497 . S
C259 C8 1.515 . S
C269 C87 1.499 . S
C293 C135 1.500 . S
C283 C23 1.529 . S
C307 C35 1.518 . S
C317 C159 1.513 . S
C341 C120 1.495 . S
C331 C31 1.486 . S
C355 C7 1.489 . S
C365 C174 1.520 . S
C389 C78 1.506 . S
C379 C17 1.504 . S
C413 C126 1.486 . S
C403 C36 1.491 . S
C437 C168 1.512 . S
C427 C9 1.522 . S
C451 C22 1.515 . S
C461 C72 1.517 . S
