# Generated by pormake.
# Topology zzz, (3,6)-cn, num edge types: 1
# Building blocks:
#     Node 0, Type 0, BuildingBlock: QEWDON_clean_linker_0, # of connection points: 3
#     Node 1, Type 0, BuildingBlock: QEWDON_clean_linker_0, # of connection points: 3
#     Node 2, Type 0, BuildingBlock: QEWDON_clean_linker_0, # of connection points: 3
#     Node 3, Type 0, BuildingBlock: QEWDON_clean_linker_0, # of connection points: 3
#     Node 4, Type 0, BuildingBlock: QEWDON_clean_linker_0, # of connection points: 3
#     Node 5, Type 0, BuildingBlock: QEWDON_clean_linker_0, # of connection points: 3
#     Node 6, Type 0, BuildingBlock: QEWDON_clean_linker_0, # of connection points: 3
#     Node 7, Type 0, BuildingBlock: QEWDON_clean_linker_0, # of connection points: 3
#     Node 8, Type 1, BuildingBlock: PAMTOO_clean_sbu_0, # of connection points: 6
#     Node 9, Type 1, BuildingBlock: PAMTOO_clean_sbu_0, # of connection points: 6
#     Node 10, Type 1, BuildingBlock: PAMTOO_clean_sbu_0, # of connection points: 6
#     Node 11, Type 1, BuildingBlock: PAMTOO_clean_sbu_0, # of connection points: 6
#     Edge 12, Type (0, 1), BuildingBlock: CIFDUS_clean_linker_0, # of connection points: 2
#     Edge 13, Type (0, 1), BuildingBlock: CIFDUS_clean_linker_0, # of connection points: 2
#     Edge 14, Type (0, 1), BuildingBlock: CIFDUS_clean_linker_0, # of connection points: 2
#     Edge 15, Type (0, 1), BuildingBlock: CIFDUS_clean_linker_0, # of connection points: 2
#     Edge 16, Type (0, 1), BuildingBlock: CIFDUS_clean_linker_0, # of connection points: 2
#     Edge 17, Type (0, 1), BuildingBlock: CIFDUS_clean_linker_0, # of connection points: 2
#     Edge 18, Type (0, 1), BuildingBlock: CIFDUS_clean_linker_0, # of connection points: 2
#     Edge 19, Type (0, 1), BuildingBlock: CIFDUS_clean_linker_0, # of connection points: 2
#     Edge 20, Type (0, 1), BuildingBlock: CIFDUS_clean_linker_0, # of connection points: 2
#     Edge 21, Type (0, 1), BuildingBlock: CIFDUS_clean_linker_0, # of connection points: 2
#     Edge 22, Type (0, 1), BuildingBlock: CIFDUS_clean_linker_0, # of connection points: 2
#     Edge 23, Type (0, 1), BuildingBlock: CIFDUS_clean_linker_0, # of connection points: 2
#     Edge 24, Type (0, 1), BuildingBlock: CIFDUS_clean_linker_0, # of connection points: 2
#     Edge 25, Type (0, 1), BuildingBlock: CIFDUS_clean_linker_0, # of connection points: 2
#     Edge 26, Type (0, 1), BuildingBlock: CIFDUS_clean_linker_0, # of connection points: 2
#     Edge 27, Type (0, 1), BuildingBlock: CIFDUS_clean_linker_0, # of connection points: 2
#     Edge 28, Type (0, 1), BuildingBlock: CIFDUS_clean_linker_0, # of connection points: 2
#     Edge 29, Type (0, 1), BuildingBlock: CIFDUS_clean_linker_0, # of connection points: 2
#     Edge 30, Type (0, 1), BuildingBlock: CIFDUS_clean_linker_0, # of connection points: 2
#     Edge 31, Type (0, 1), BuildingBlock: CIFDUS_clean_linker_0, # of connection points: 2
#     Edge 32, Type (0, 1), BuildingBlock: CIFDUS_clean_linker_0, # of connection points: 2
#     Edge 33, Type (0, 1), BuildingBlock: CIFDUS_clean_linker_0, # of connection points: 2
#     Edge 34, Type (0, 1), BuildingBlock: CIFDUS_clean_linker_0, # of connection points: 2
#     Edge 35, Type (0, 1), BuildingBlock: CIFDUS_clean_linker_0, # of connection points: 2
# Relax obj value: 0.172
# Max RMSD: 0.257
# Mean RMSD: 0.089
data_MOF--net-zzz--node1-PAMTOO_clean_sbu_0--node2-QEWDON_clean_linker_0--edge1-CIFDUS_clean_linker_0
_symmetry_space_group_name_H-M    P1
_symmetry_Int_Tables_number       1
_symmetry_cell_setting            triclinic
loop_
_symmetry_equiv_pos_as_xyz
'x, y, z'
_cell_length_a     53.965662
_cell_length_b     46.601442
_cell_length_c     13.510358
_cell_angle_alpha  91.68854
_cell_angle_beta   78.244957
_cell_angle_gamma 85.972093
loop_
_atom_site_label
_atom_site_type_symbol
_atom_site_fract_x
_atom_site_fract_y
_atom_site_fract_z
_atom_type_partial_charge
H0 H 0.80968 0.4932 0.43681 0.0
C1 C 0.81993 0.49504 0.49727 0.0
C2 C 0.84159 0.47629 0.49275 0.0
C3 C 0.81238 0.5167 0.57465 0.0
H4 H 0.87367 0.46532 0.56028 0.0
C5 C 0.85629 0.47904 0.56638 0.0
C6 C 0.85019 0.50082 0.64285 0.0
C7 C 0.82807 0.51954 0.64749 0.0
C8 C 0.78922 0.537 0.57338 0.0
H9 H 0.8233 0.53595 0.70794 0.0
C10 C 0.76967 0.52936 0.52246 0.0
C11 C 0.74903 0.54921 0.5163 0.0
C12 C 0.78696 0.56493 0.61882 0.0
H13 H 0.80145 0.57243 0.65566 0.0
C14 C 0.7662 0.58424 0.61511 0.0
H15 H 0.76998 0.50801 0.48852 0.0
C16 C 0.74742 0.57651 0.56443 0.0
H17 H 0.73173 0.59208 0.56154 0.0
H18 H 0.76486 0.60558 0.65061 0.0
H19 H 0.06332 0.73516 0.3805 0.0
C20 C 0.05488 0.75195 0.43681 0.0
C21 C 0.06492 0.77896 0.4307 0.0
C22 C 0.03421 0.74681 0.51556 0.0
H23 H 0.0616 0.82203 0.49648 0.0
C24 C 0.05446 0.8008 0.50338 0.0
C25 C 0.03344 0.79681 0.57914 0.0
C26 C 1.02314 0.76989 0.58518 0.0
C27 C 1.02444 0.71748 0.526 0.0
H28 H 1.00645 0.76715 0.643 0.0
C29 C 1.0245 0.69907 0.44054 0.0
C30 C 1.01616 0.67101 0.45194 0.0
C31 C 1.01569 0.70729 0.62296 0.0
H32 H 1.01588 0.72033 0.69043 0.0
C33 C 1.00708 0.67984 0.63464 0.0
H34 H 0.03115 0.70644 0.36523 0.0
C35 C 1.00727 0.66184 0.55022 0.0
H36 H 1.00019 0.64078 0.56214 0.0
H37 H 1.00033 0.67239 0.70979 0.0
H38 H 0.78053 0.01493 0.25293 0.0
C39 C 0.76546 0.01366 0.31846 0.0
C40 C 0.74074 0.02091 0.30677 0.0
C41 C 0.77028 1.00391 0.41143 0.0
H42 H 0.70106 0.02265 0.37316 0.0
C43 C 0.72013 0.01743 0.38521 0.0
C44 C 0.72335 1.00647 0.47684 0.0
C45 C 0.74857 1.00066 0.49163 0.0
C46 C 0.79765 0.99575 0.42043 0.0
H47 H 0.75087 0.9933 0.56447 0.0
C48 C 0.81921 1.00438 0.34966 0.0
C49 C 0.84454 0.99474 0.35453 0.0
C50 C 0.80265 0.97789 0.49758 0.0
H51 H 0.78754 0.96977 0.55205 0.0
C52 C 0.82748 0.96917 0.50477 0.0
H53 H 0.81673 0.01879 0.29075 0.0
C54 C 0.84813 0.97728 0.43414 0.0
H55 H 0.86699 0.96903 0.44038 0.0
H56 H 0.83073 0.95532 0.56454 0.0
H57 H 0.52835 0.74076 0.15226 0.0
C58 C 0.53104 0.72869 0.21706 0.0
C59 C 0.51992 0.70225 0.23396 0.0
C60 C 0.54704 0.73857 0.27953 0.0
H61 H 0.51728 0.66519 0.3264 0.0
C62 C 0.52449 0.68626 0.31564 0.0
C63 C 0.54008 0.69541 0.37919 0.0
C64 C 0.55135 0.72158 0.36108 0.0
C65 C 0.56143 0.76476 0.2537 0.0
H66 H 0.56354 0.72853 0.41019 0.0
C67 C 0.55058 0.79017 0.21786 0.0
C68 C 0.565 0.81441 0.19622 0.0
C69 C 0.58696 0.76396 0.26331 0.0
H70 H 0.59626 0.74477 0.28691 0.0
C71 C 0.60115 0.78762 0.24093 0.0
H72 H 0.53098 0.79143 0.20973 0.0
C73 C 0.59028 0.81263 0.20836 0.0
H74 H 0.60179 0.83072 0.19184 0.0
H75 H 0.62075 0.78656 0.24885 0.0
H76 H 0.26698 0.46277 0.17384 0.0
C77 C 0.25408 0.46927 0.12548 0.0
C78 C 0.22835 0.46586 0.15994 0.0
C79 C 0.2628 0.48327 0.03565 0.0
H80 H 0.1915 0.46933 0.1205 0.0
C81 C 0.21162 0.47141 0.09443 0.0
C82 C 0.21958 0.4829 0.99966 0.0
C83 C 0.24524 0.48994 0.9716 0.0
C84 C 0.28993 0.49141 0.0148 0.0
H85 H 0.25125 0.50075 0.90194 0.0
C86 C 0.30244 0.49731 0.09574 0.0
C87 C 0.32869 0.50146 0.07852 0.0
C88 C 0.30406 0.49165 0.91541 0.0
H89 H 0.29548 0.48711 0.85147 0.0
C90 C 0.32981 0.49679 0.89731 0.0
H91 H 0.29191 0.49807 0.17306 0.0
C92 C 0.34208 0.50133 0.97765 0.0
H93 H 0.36206 0.50501 0.96048 0.0
H94 H 0.34048 0.49677 0.82021 0.0
H95 H 0.99562 0.29049 0.30469 0.0
C96 C 1.00413 0.27422 0.2465 0.0
C97 C 0.99512 0.24672 0.25299 0.0
C98 C 1.02368 0.28066 0.16513 0.0
H99 H 0.99918 0.20398 0.18382 0.0
C100 C 1.00543 0.22562 0.17735 0.0
C101 C 1.02486 0.23104 0.09667 0.0
C102 C 0.03427 0.25851 0.09071 0.0
C103 C 0.03236 0.31057 0.15771 0.0
H104 H 0.04976 0.26241 0.02907 0.0
C105 C 0.03204 0.32808 0.24552 0.0
C106 C 0.03791 0.35717 0.23906 0.0
C107 C 0.03969 0.32246 0.06266 0.0
H108 H 0.03968 0.31013 0.99351 0.0
C109 C 0.0463 0.35086 0.05542 0.0
H110 H 1.0273 0.31907 0.31928 0.0
C111 C 0.04535 0.36812 0.14249 0.0
H112 H 0.04962 0.39037 0.13375 0.0
H113 H 0.05162 0.35979 0.98172 0.0
H114 H 0.26787 0.01802 0.42161 0.0
C115 C 0.28262 0.02121 0.35654 0.0
C116 C 0.30597 0.02855 0.37459 0.0
C117 C 0.27879 0.01693 0.25689 0.0
H118 H 0.3444 0.036 0.30911 0.0
C119 C 0.32633 0.03056 0.29336 0.0
C120 C 0.32495 0.02283 0.1941 0.0
C121 C 0.30064 0.01732 0.17505 0.0
C122 C 0.25249 0.01012 0.24205 0.0
H123 H 0.29921 0.01281 0.09766 0.0
C124 C 0.23001 0.01658 0.31916 0.0
C125 C 0.20585 1.00821 0.30777 0.0
C126 C 0.24958 0.9959 0.15218 0.0
H127 H 0.26566 0.98967 0.09174 0.0
C128 C 0.22578 0.98849 0.13916 0.0
H129 H 0.23091 0.02835 0.38823 0.0
C130 C 0.20424 0.99437 0.21583 0.0
H131 H 0.18637 0.9872 0.2039 0.0
H132 H 0.22411 0.97741 0.06954 0.0
H133 H 0.52786 0.28765 0.54115 0.0
C134 C 0.5198 0.30133 0.49046 0.0
C135 C 0.51748 0.33121 0.50986 0.0
C136 C 0.51318 0.2895 0.40247 0.0
H137 H 0.50554 0.37229 0.46221 0.0
C138 C 0.50788 0.34928 0.44396 0.0
C139 C 0.50451 0.33904 0.34996 0.0
C140 C 0.50586 0.30892 0.33141 0.0
C141 C 0.51645 0.25734 0.38023 0.0
H142 H 0.50195 0.30094 0.26067 0.0
C143 C 0.51389 0.23707 0.45828 0.0
C144 C 0.51821 0.20698 0.43458 0.0
C145 C 0.5232 0.24659 0.279 0.0
H146 H 0.52651 0.26082 0.21671 0.0
C147 C 0.52651 0.21712 0.25553 0.0
H148 H 0.50892 0.24454 0.53693 0.0
C149 C 0.52395 0.19756 0.332 0.0
H150 H 0.52656 0.17481 0.3103 0.0
H151 H 0.53142 0.20936 0.17714 0.0
Dy152 Dy 1.00645 0.0202 0.75866 0.0
Dy153 Dy 0.04251 1.00873 0.92279 0.0
C154 C 0.06774 0.01704 0.68739 0.0
O155 O 1.01679 0.9728 0.73722 0.0
O156 O 0.0297 0.96569 0.88724 0.0
O157 O 0.99859 0.02328 0.60834 0.0
O158 O 0.96867 0.03355 0.74017 0.0
O159 O 1.00262 0.01992 0.01307 0.0
O160 O 0.98137 1.00389 0.89567 0.0
O161 O 0.0444 0.05609 0.90267 0.0
O162 O 1.00904 0.06312 0.83355 0.0
O163 O 0.04721 1.00388 0.07698 0.0
O164 O 0.07946 0.99593 0.95325 0.0
C165 C 1.02329 0.95569 0.80484 0.0
O166 O 0.04571 0.02829 0.67288 0.0
O167 O 0.06947 1.00437 0.77158 0.0
C168 C 0.96933 0.06313 0.60456 0.0
C169 C 0.95584 0.11911 0.55001 0.0
C170 C 0.98003 0.11201 0.57063 0.0
C171 C 0.98661 0.08441 0.59834 0.0
C172 C 0.94515 0.06995 0.58474 0.0
C173 C 0.93844 0.09774 0.55758 0.0
C174 C 0.9756 0.03497 0.64256 0.0
C175 C 0.98161 0.01158 0.98962 0.0
C176 C 1.02714 0.07326 0.87337 0.0
C177 C 0.07421 0.96162 0.07672 0.0
C178 C 0.08241 0.90182 0.09873 0.0
C179 C 0.05773 0.9148 0.10658 0.0
C180 C 0.05369 0.94423 0.0952 0.0
C181 C 0.0989 0.94897 0.07092 0.0
C182 C 0.10298 0.91929 0.08224 0.0
C183 C 0.07011 0.99156 0.04763 0.0
H184 H 0.99421 0.12757 0.56321 0.0
H185 H 1.00521 0.07971 0.6154 0.0
H186 H 0.93139 0.0539 0.59149 0.0
H187 H 0.91963 0.10249 0.54281 0.0
H188 H 0.04134 0.90224 0.1221 0.0
H189 H 0.03446 0.95319 0.09833 0.0
H190 H 0.11505 0.96188 0.05467 0.0
H191 H 0.12221 0.90997 0.07611 0.0
Dy192 Dy 0.51634 0.9937 0.72917 0.0
Dy193 Dy 0.53242 0.02522 0.91778 0.0
C194 C 0.52244 0.06097 0.73494 0.0
O195 O 0.55869 0.9822 0.69575 0.0
O196 O 0.56854 0.0178 0.79858 0.0
O197 O 0.51387 0.99331 0.57125 0.0
O198 O 0.4948 0.9624 0.66972 0.0
O199 O 0.54181 0.97817 0.93924 0.0
O200 O 0.52023 0.95721 0.8299 0.0
O201 O 0.49182 0.0165 0.97831 0.0
O202 O 0.47978 0.01432 0.8265 0.0
O203 O 0.53776 0.02787 0.07215 0.0
O204 O 0.54834 0.06233 0.97251 0.0
C205 C 0.57564 0.99753 0.72643 0.0
O206 O 0.52908 0.0367 0.68196 0.0
O207 O 0.51584 0.06055 0.83385 0.0
C208 C 0.47077 0.98851 0.57416 0.0
C209 C 0.42011 0.01043 0.58799 0.0
C210 C 0.43746 0.02718 0.62277 0.0
C211 C 0.46253 0.01646 0.61498 0.0
C212 C 0.45368 0.97164 0.53877 0.0
C213 C 0.42858 0.98263 0.5446 0.0
C214 C 0.49562 0.97601 0.58648 0.0
C215 C 0.53262 0.95544 0.90392 0.0
C216 C 0.47384 0.01572 0.92584 0.0
C217 C 0.57795 0.04473 0.06264 0.0
C218 C 0.63041 0.03596 0.05715 0.0
C219 C 0.61861 0.01815 0.99826 0.0
C220 C 0.59267 0.02215 0.00266 0.0
C221 C 0.58945 0.06303 0.12044 0.0
C222 C 0.61548 0.05846 0.11879 0.0
C223 C 0.55135 0.04995 0.05484 0.0
H224 H 0.43164 0.04848 0.65754 0.0
H225 H 0.4753 0.02977 0.64423 0.0
H226 H 0.45958 0.94987 0.50871 0.0
H227 H 0.41589 0.96938 0.51465 0.0
H228 H 0.62934 1.00099 0.94849 0.0
H229 H 0.58413 1.00764 0.9579 0.0
H230 H 0.57837 0.08069 0.16668 0.0
H231 H 0.62371 0.07223 0.16726 0.0
Dy232 Dy 0.54961 0.52224 0.90461 0.0
Dy233 Dy 0.49419 0.51095 0.82447 0.0
C234 C 0.50995 0.47864 0.01146 0.0
O235 O 0.55245 0.47859 0.82904 0.0
O236 O 0.52788 0.49037 0.71533 0.0
O237 O 0.56562 0.53356 0.03319 0.0
O238 O 0.59098 0.51887 0.88931 0.0
O239 O 0.51054 0.54702 0.73579 0.0
O240 O 0.55046 0.5518 0.77288 0.0
O241 O 0.48506 0.54405 0.95527 0.0
O242 O 0.52435 0.56217 0.93919 0.0
O243 O 0.45638 0.52538 0.80398 0.0
O244 O 0.4723 0.48243 0.75309 0.0
C245 C 0.54463 0.47284 0.74565 0.0
O246 O 0.52309 0.50072 0.0243 0.0
O247 O 0.49871 0.47663 0.93421 0.0
C248 C 0.61102 0.53066 0.03406 0.0
C249 C 0.65187 0.53317 0.13925 0.0
C250 C 0.62766 0.54689 0.18015 0.0
C251 C 0.60758 0.54553 0.12871 0.0
C252 C 0.63524 0.51743 0.9918 0.0
C253 C 0.65532 0.51857 0.04366 0.0
C254 C 0.58895 0.52718 0.98443 0.0
C255 C 0.53186 0.5599 0.7261 0.0
C256 C 0.49954 0.56509 0.96702 0.0
C257 C 0.44103 0.50322 0.66808 0.0
C258 C 0.41667 0.503 0.49908 0.0
C259 C 0.44321 0.50466 0.48579 0.0
C260 C 0.45523 0.50473 0.56914 0.0
C261 C 0.4146 0.50209 0.68187 0.0
C262 C 0.40259 0.50197 0.59885 0.0
C263 C 0.45313 0.50142 0.75776 0.0
H264 H 0.62412 0.55891 0.25206 0.0
H265 H 0.5892 0.55601 0.16378 0.0
H266 H 0.63853 0.50549 0.91971 0.0
H267 H 0.67342 0.50734 0.00951 0.0
H268 H 0.45479 0.50592 0.41078 0.0
H269 H 0.47563 0.50568 0.55621 0.0
H270 H 0.40319 0.50073 0.75728 0.0
H271 H 0.38228 0.50023 0.61305 0.0
Dy272 Dy 0.03745 0.53646 0.79482 0.0
Dy273 Dy 1.02306 0.48127 0.92798 0.0
C274 C 0.03638 0.47428 0.69075 0.0
O275 O 0.99697 0.53243 0.78446 0.0
O276 O 0.98461 0.49849 0.90182 0.0
O277 O 0.03972 0.55877 0.65591 0.0
O278 O 0.05253 0.57831 0.78182 0.0
O279 O 0.03053 0.51715 0.03045 0.0
O280 O 1.01676 0.55429 0.9459 0.0
O281 O 0.06567 0.47657 0.88006 0.0
O282 O 0.07323 0.52342 0.85036 0.0
O283 O 1.00634 0.46418 0.07036 0.0
O284 O 0.02764 0.43551 0.9482 0.0
C285 C 0.9794 0.51726 0.83583 0.0
O286 O 0.04981 0.49672 0.69258 0.0
O287 O 1.02007 0.46808 0.77156 0.0
C288 C 0.08053 0.57459 0.62269 0.0
C289 C 0.12274 0.53846 0.52776 0.0
C290 C 0.12178 0.55041 0.62486 0.0
C291 C 0.10089 0.56868 0.67182 0.0
C292 C 0.08389 0.56692 0.51932 0.0
C293 C 0.10475 0.54859 0.47243 0.0
C294 C 0.05448 0.57713 0.6838 0.0
C295 C 1.02223 0.54426 0.02887 0.0
C296 C 0.08139 0.49713 0.86719 0.0
C297 C 0.99346 0.41756 0.0613 0.0
C298 C 0.94737 0.39314 0.13067 0.0
C299 C 0.96558 0.39406 0.1919 0.0
C300 C 0.98831 0.40645 0.15764 0.0
C301 C 0.97705 0.41325 0.99492 0.0
C302 C 0.95423 0.40074 0.0291 0.0
C303 C 1.01339 0.43753 0.03891 0.0
H304 H 0.13584 0.54354 0.66796 0.0
H305 H 0.09929 0.5749 0.7509 0.0
H306 H 0.06876 0.57166 0.47901 0.0
H307 H 0.10578 0.54058 0.39548 0.0
H308 H 0.96115 0.38858 0.27055 0.0
H309 H 1.00075 0.40977 0.20989 0.0
H310 H 0.98085 0.42163 0.91981 0.0
H311 H 0.94086 0.39979 0.9794 0.0
H312 H 0.15607 0.02354 0.2965 0.0
H313 H 0.20259 1.00086 0.51126 0.0
H314 H 0.16461 1.00183 0.64608 0.0
H315 H 0.11776 1.00685 0.70279 0.0
H316 H 0.07136 0.03016 0.48821 0.0
H317 H 0.10944 0.03079 0.3547 0.0
C318 C 0.15801 0.01882 0.37275 0.0
C319 C 0.18253 0.01202 0.39251 0.0
C320 C 0.13591 0.01924 0.45051 0.0
C321 C 0.18429 1.00649 0.4929 0.0
C322 C 0.16243 1.00678 0.5703 0.0
C323 C 0.11589 0.01211 0.62688 0.0
C324 C 0.09138 0.01824 0.60634 0.0
C325 C 0.13808 0.01276 0.54995 0.0
C326 C 0.08971 0.0253 0.50716 0.0
C327 C 0.1116 0.02565 0.43036 0.0
H328 H 0.55047 0.15931 0.4305 0.0
H329 H 0.48396 0.20422 0.61726 0.0
H330 H 0.48022 0.16425 0.73293 0.0
H331 H 0.49409 0.11395 0.77282 0.0
H332 H 0.55907 0.06947 0.57374 0.0
H333 H 0.56482 0.11139 0.47128 0.0
C334 C 0.53502 0.16047 0.49625 0.0
C335 C 0.5173 0.18474 0.51364 0.0
C336 C 0.53256 0.13712 0.56028 0.0
C337 C 0.49794 0.18596 0.60146 0.0
C338 C 0.49568 0.16292 0.66732 0.0
C339 C 0.50963 0.11366 0.70767 0.0
C340 C 0.52604 0.08837 0.68095 0.0
C341 C 0.5126 0.138 0.64647 0.0
C342 C 0.54598 0.08837 0.59574 0.0
C343 C 0.54936 0.11243 0.53693 0.0
H344 H 0.3768 0.4803 0.09269 0.0
H345 H 0.31108 0.53132 0.26153 0.0
H346 H 0.33215 0.53635 0.40403 0.0
H347 H 0.36928 0.52644 0.48212 0.0
H348 H 0.43493 0.4753 0.31299 0.0
H349 H 0.41418 0.47112 0.16949 0.0
C350 C 0.3671 0.49285 0.16 0.0
C351 C 0.34213 0.50527 0.16527 0.0
C352 C 0.37946 0.49588 0.24222 0.0
C353 C 0.33001 0.52103 0.25475 0.0
C354 C 0.34217 0.52411 0.33653 0.0
C355 C 0.37908 0.51418 0.41432 0.0
C356 C 0.40387 0.50129 0.4097 0.0
C357 C 0.36686 0.51153 0.33151 0.0
C358 C 0.41614 0.48594 0.3195 0.0
C359 C 0.40415 0.48329 0.23711 0.0
H360 H 0.06671 0.4015 0.27411 0.0
H361 H 1.00191 0.35702 0.41457 0.0
H362 H 0.99623 0.38859 0.56548 0.0
H363 H 1.00897 0.42928 0.65758 0.0
H364 H 0.07181 0.47604 0.51477 0.0
H365 H 0.07855 0.44356 0.36433 0.0
C366 C 0.05119 0.39877 0.33717 0.0
C367 C 0.03499 0.37643 0.33236 0.0
C368 C 0.04755 0.41759 0.42349 0.0
C369 C 1.01518 0.37333 0.41615 0.0
C370 C 1.0117 0.39165 0.5025 0.0
C371 C 1.02418 0.43243 0.59368 0.0
C372 C 0.04004 0.45503 0.59807 0.0
C373 C 0.02773 0.41386 0.50705 0.0
C374 C 0.05946 0.45878 0.51383 0.0
C375 C 0.06329 0.44018 0.42772 0.0
H376 H 0.89239 1.00723 0.37838 0.0
H377 H 0.8486 0.99571 0.14824 0.0
H378 H 0.88648 1.00015 0.01669 0.0
H379 H 0.93279 1.00484 0.9655 0.0
H380 H 0.97643 0.01658 0.19606 0.0
H381 H 0.93818 0.01414 0.32751 0.0
C382 C 0.89101 1.00569 0.29949 0.0
C383 C 0.86732 1.00097 0.27432 0.0
C384 C 0.91309 1.00801 0.22356 0.0
C385 C 0.86622 0.99963 0.17101 0.0
C386 C 0.88805 1.00189 0.0953 0.0
C387 C 0.93401 1.00687 0.04447 0.0
C388 C 0.95781 0.01067 0.06998 0.0
C389 C 0.91171 1.00567 0.12043 0.0
C390 C 0.95864 0.01357 0.17327 0.0
C391 C 0.93666 0.01216 0.24888 0.0
H392 H 0.54689 0.82495 0.02371 0.0
H393 H 0.56133 0.86679 0.29256 0.0
H394 H 0.55276 0.914 0.22712 0.0
H395 H 0.54397 0.94374 0.08835 0.0
H396 H 0.52913 0.90219 0.81919 0.0
H397 H 0.53516 0.85503 0.88886 0.0
C398 C 0.54752 0.84443 0.0688 0.0
C399 C 0.55456 0.8423 0.16334 0.0
C400 C 0.54299 0.87173 0.02959 0.0
C401 C 0.55579 0.86781 0.21997 0.0
C402 C 0.55109 0.89486 0.18216 0.0
C403 C 0.54206 0.92439 0.04482 0.0
C404 C 0.53632 0.92672 0.94799 0.0
C405 C 0.54524 0.89715 0.08603 0.0
C406 C 0.5336 0.90125 0.8937 0.0
C407 C 0.53701 0.87414 0.93363 0.0
H408 H 0.75321 0.54126 0.31182 0.0
H409 H 0.6993 0.54296 0.59519 0.0
H410 H 0.66477 0.53718 0.50503 0.0
H411 H 0.64955 0.53346 0.34553 0.0
H412 H 0.70309 0.53532 0.06112 0.0
H413 H 0.7378 0.5374 0.1511 0.0
C414 C 0.73394 0.53986 0.35354 0.0
C415 C 0.72888 0.54211 0.46022 0.0
C416 C 0.71398 0.53734 0.30079 0.0
C417 C 0.70373 0.54094 0.51326 0.0
C418 C 0.68395 0.5378 0.46159 0.0
C419 C 0.66872 0.5346 0.30268 0.0
C420 C 0.67332 0.53419 0.19566 0.0
C421 C 0.68876 0.53639 0.35525 0.0
C422 C 0.69865 0.5351 0.1429 0.0
C423 C 0.71865 0.53651 0.19456 0.0
H424 H 0.02884 0.61295 0.43263 0.0
H425 H 1.00434 0.68415 0.26913 0.0
H426 H 1.00386 0.6514 0.12507 0.0
H427 H 1.00981 0.6024 0.04597 0.0
H428 H 0.0333 0.5312 0.2119 0.0
H429 H 0.03411 0.56404 0.3551 0.0
C430 C 1.02311 0.62136 0.36602 0.0
C431 C 1.01657 0.65112 0.36243 0.0
C432 C 1.02249 0.60233 0.28389 0.0
C433 C 1.00979 0.66151 0.27407 0.0
C434 C 1.00929 0.64272 0.19177 0.0
C435 C 1.01497 0.59399 0.1136 0.0
C436 C 1.02142 0.56424 0.11778 0.0
C437 C 1.01551 0.61306 0.19593 0.0
C438 C 0.02818 0.55389 0.20621 0.0
C439 C 0.02872 0.5727 0.28826 0.0
H440 H 0.95289 0.21839 0.25868 0.0
H441 H 0.99928 0.2533 0.44992 0.0
H442 H 0.98474 0.21903 0.57852 0.0
H443 H 0.96922 0.1712 0.61097 0.0
H444 H 0.92956 0.13187 0.40159 0.0
H445 H 0.93049 0.1756 0.30765 0.0
C446 C 0.95893 0.21919 0.33053 0.0
C447 C 0.97767 0.2376 0.34386 0.0
C448 C 0.95228 0.19783 0.39963 0.0
C449 C 0.98504 0.23908 0.43758 0.0
C450 C 0.97709 0.2191 0.51029 0.0
C451 C 0.96044 0.17236 0.54562 0.0
C452 C 0.95012 0.14789 0.51153 0.0
C453 C 0.96243 0.19697 0.48807 0.0
C454 C 0.93786 0.15017 0.42934 0.0
C455 C 0.93857 0.17517 0.37482 0.0
H456 H 0.32548 0.07079 0.4682 0.0
H457 H 0.30121 0.98509 0.50534 0.0
H458 H 0.33362 0.97343 0.60322 0.0
H459 H 0.37642 0.98273 0.62624 0.0
H460 H 0.40445 0.06592 0.55624 0.0
H461 H 0.36354 0.08346 0.52458 0.0
C462 C 0.32649 0.05012 0.50276 0.0
C463 C 0.31184 0.02848 0.4767 0.0
C464 C 0.34686 0.04268 0.54899 0.0
C465 C 0.31267 1.00195 0.52306 0.0
C466 C 0.33165 0.99505 0.57687 0.0
C467 C 0.37346 1.0048 0.60525 0.0
C468 C 0.39379 0.02261 0.59054 0.0
C469 C 0.35024 0.01436 0.58148 0.0
C470 C 0.38932 0.05153 0.56747 0.0
C471 C 0.36587 0.06163 0.54875 0.0
H472 H 0.55899 0.3599 0.47496 0.0
H473 H 0.49874 0.33734 0.71413 0.0
H474 H 0.50556 0.3788 0.81903 0.0
H475 H 0.52187 0.42693 0.82447 0.0
H476 H 0.57613 0.45326 0.56998 0.0
H477 H 0.57838 0.40529 0.48741 0.0
C478 C 0.54821 0.36341 0.55204 0.0
C479 C 0.52851 0.3457 0.58747 0.0
C480 C 0.55054 0.3887 0.60679 0.0
C481 C 0.51422 0.3505 0.68625 0.0
C482 C 0.51777 0.37456 0.74501 0.0
C483 C 0.53455 0.4218 0.75189 0.0
C484 C 0.54883 0.44326 0.70252 0.0
C485 C 0.53475 0.39471 0.70333 0.0
C486 C 0.56503 0.43687 0.60846 0.0
C487 C 0.5663 0.40952 0.5617 0.0
H488 H 0.18673 0.43965 0.25576 0.0
H489 H 0.24612 0.49051 0.31709 0.0
H490 H 0.21739 0.51417 0.46186 0.0
H491 H 0.17318 0.53283 0.52667 0.0
H492 H 0.11276 0.48853 0.44086 0.0
H493 H 0.14331 0.45131 0.34795 0.0
C494 C 0.19352 0.45536 0.30272 0.0
C495 C 0.21782 0.46495 0.27043 0.0
C496 C 0.17612 0.4715 0.37825 0.0
C497 C 0.22711 0.48347 0.33652 0.0
C498 C 0.21047 0.49765 0.41867 0.0
C499 C 0.16675 0.51461 0.48976 0.0
C500 C 0.14098 0.51385 0.48707 0.0
C501 C 0.1845 0.49399 0.43286 0.0
C502 C 0.13268 0.48997 0.44067 0.0
C503 C 0.15011 0.46857 0.3883 0.0
H504 H 0.05714 0.78103 0.24102 0.0
H505 H 0.11166 0.79845 0.42288 0.0
H506 H 0.12666 0.83731 0.31445 0.0
H507 H 0.11433 0.87465 0.20516 0.0
H508 H 0.05838 0.85828 0.02757 0.0
H509 H 0.0539 0.81075 0.09649 0.0
C510 C 0.07335 0.79219 0.25296 0.0
C511 C 0.08289 0.78753 0.34078 0.0
C512 C 0.08077 0.8156 0.19384 0.0
C513 C 0.10395 0.80195 0.35578 0.0
C514 C 0.11214 0.82458 0.29502 0.0
C515 C 0.10191 0.86029 0.17834 0.0
C516 C 0.0859 0.87048 0.1148 0.0
C517 C 0.09916 0.83306 0.21941 0.0
C518 C 0.07016 0.85137 0.07981 0.0
C519 C 0.06766 0.82411 0.11882 0.0
H520 H 0.73053 0.98551 0.16561 0.0
H521 H 0.73512 0.075 0.2405 0.0
H522 H 0.70275 0.0886 0.14371 0.0
H523 H 0.66561 0.07379 0.08169 0.0
H524 H 0.65674 0.98294 0.04082 0.0
H525 H 0.69816 0.97117 0.07713 0.0
C526 C 0.7254 1.00802 0.1554 0.0
C527 C 0.73481 0.02926 0.20989 0.0
C528 C 0.70512 0.01533 0.1087 0.0
C529 C 0.72808 0.05839 0.19818 0.0
C530 C 0.70915 0.06606 0.14493 0.0
C531 C 0.67279 0.05142 0.07998 0.0
C532 C 0.65759 0.02941 0.06076 0.0
C533 C 0.69615 0.04454 0.10732 0.0
C534 C 0.66776 1.00056 0.055 0.0
C535 C 0.69152 0.99366 0.07664 0.0
H536 H 0.47902 0.66945 0.26997 0.0
H537 H 0.53339 0.7019 0.02715 0.0
H538 H 0.52518 0.66442 0.91161 0.0
H539 H 0.51264 0.61555 0.89394 0.0
H540 H 0.46407 0.57837 0.14252 0.0
H541 H 0.45993 0.62414 0.24168 0.0
C542 C 0.48866 0.6687 0.19111 0.0
C543 C 0.50754 0.68791 0.15852 0.0
C544 C 0.48538 0.64561 0.12692 0.0
C545 C 0.519 0.68739 0.05521 0.0
C546 C 0.5146 0.66558 0.98918 0.0
C547 C 0.50036 0.61785 0.96851 0.0
C548 C 0.48894 0.59367 0.01181 0.0
C549 C 0.49935 0.64349 0.02629 0.0
C550 C 0.47298 0.59675 0.1079 0.0
C551 C 0.47092 0.62281 0.1648 0.0
H552 H 0.85975 0.42012 0.48847 0.0
H553 H 0.84563 0.48884 0.29507 0.0
H554 H 0.87233 0.46232 0.14984 0.0
H555 H 0.90812 0.42739 0.0921 0.0
H556 H 0.92532 0.36012 0.28618 0.0
H557 H 0.88844 0.37776 0.41574 0.0
C558 C 0.86202 0.42884 0.41385 0.0
C559 C 0.8513 0.45666 0.40288 0.0
C560 C 0.87822 0.41393 0.33109 0.0
C561 C 0.85379 0.46753 0.30571 0.0
C562 C 0.86924 0.45246 0.22258 0.0
C563 C 0.90326 0.41555 0.16038 0.0
C564 C 0.92018 0.39327 0.18133 0.0
C565 C 0.88283 0.42663 0.23603 0.0
C566 C 0.91309 0.37801 0.26975 0.0
C567 C 0.89213 0.38826 0.34428 0.0
H568 H 1.00194 0.20701 0.95947 0.0
H569 H 0.06918 0.19804 0.0842 0.0
H570 H 0.0772 0.14779 0.01933 0.0
H571 H 0.06106 0.10448 0.95058 0.0
H572 H 0.99269 0.11425 0.8308 0.0
H573 H 0.98918 0.16576 0.87009 0.0
C574 C 1.01897 0.19437 0.96828 0.0
C575 C 0.03519 0.2063 0.02496 0.0
C576 C 1.02278 0.16524 0.93454 0.0
C577 C 0.05679 0.18953 0.03862 0.0
C578 C 0.06106 0.16062 0.00324 0.0
C579 C 0.04554 0.11789 0.93214 0.0
C580 C 1.02689 0.10513 0.8897 0.0
C581 C 0.04353 0.14787 0.95505 0.0
C582 C 1.00714 0.12312 0.86501 0.0
C583 C 1.00512 0.15275 0.88711 0.0
H584 H 0.36965 0.9972 0.22218 0.0
H585 H 0.33753 0.03981 0.99329 0.0
H586 H 0.38046 0.04014 0.88631 0.0
H587 H 0.42824 0.03186 0.86533 0.0
H588 H 0.45806 0.99502 0.11082 0.0
H589 H 0.41525 0.99015 0.20469 0.0
C590 C 0.3718 1.00691 0.14921 0.0
C591 C 0.35001 0.01904 0.11766 0.0
C592 C 0.3965 1.00865 0.09161 0.0
C593 C 0.35363 0.03033 0.02059 0.0
C594 C 0.37834 0.03084 0.95986 0.0
C595 C 0.42532 0.02283 0.93944 0.0
C596 C 0.44674 0.01403 0.98078 0.0
C597 C 0.4001 0.02072 0.99569 0.0
C598 C 0.44231 1.00236 0.07706 0.0
C599 C 0.41769 0.99935 0.13088 0.0
H600 H 0.53182 0.38542 0.31631 0.0
H601 H 0.47477 0.34174 0.20272 0.0
H602 H 0.47119 0.38098 0.08659 0.0
H603 H 0.48344 0.42931 0.02318 0.0
H604 H 0.53752 0.47299 0.15733 0.0
H605 H 0.54199 0.43274 0.26299 0.0
C606 C 0.51809 0.3845 0.26795 0.0
C607 C 0.50309 0.3608 0.27081 0.0
C608 C 0.51528 0.40756 0.20601 0.0
C609 C 0.48649 0.35966 0.20306 0.0
C610 C 0.48428 0.38228 0.13734 0.0
C611 C 0.49597 0.43012 0.07635 0.0
C612 C 0.51003 0.45451 0.08188 0.0
C613 C 0.49834 0.40666 0.13928 0.0
C614 C 0.52627 0.45491 0.15111 0.0
C615 C 0.52903 0.43171 0.21151 0.0
H616 H 0.18769 0.44613 0.94376 0.0
H617 H 0.20404 0.53517 0.93131 0.0
H618 H 0.1632 0.54767 0.88278 0.0
H619 H 0.12018 0.5338 0.86501 0.0
H620 H 0.10454 0.44428 0.88592 0.0
H621 H 0.14722 0.43176 0.9109 0.0
C622 C 0.18266 0.4682 0.92757 0.0
C623 C 0.19918 0.4896 0.94055 0.0
C624 C 0.15874 0.47532 0.90378 0.0
C625 C 0.19209 0.51812 0.92028 0.0
C626 C 0.16845 0.52533 0.89416 0.0
C627 C 0.12618 0.51151 0.87388 0.0
C628 C 0.10866 0.49013 0.87444 0.0
C629 C 0.15116 0.50423 0.88908 0.0
C630 C 0.11713 0.46138 0.88596 0.0
C631 C 0.14174 0.45408 0.90008 0.0
H632 H 0.05055 0.82193 0.73225 0.0
H633 H 0.99209 0.8307 0.5586 0.0
H634 H 0.98268 0.88136 0.61662 0.0
H635 H 0.99546 0.92475 0.69768 0.0
H636 H 0.05358 0.91529 0.874 0.0
H637 H 0.05878 0.86354 0.83434 0.0
C638 C 0.03501 0.83468 0.71091 0.0
C639 C 1.02172 0.82259 0.64273 0.0
C640 C 0.03018 0.86393 0.74275 0.0
C641 C 1.00211 0.83943 0.61304 0.0
C642 C 0.99707 0.86852 0.64479 0.0
C643 C 1.00907 0.91128 0.7281 0.0
C644 C 1.0244 0.92398 0.78724 0.0
C645 C 1.0117 0.8813 0.70633 0.0
C646 C 0.04163 0.90615 0.8278 0.0
C647 C 0.04462 0.8765 0.80522 0.0
H648 H 0.68593 0.97308 0.44719 0.0
H649 H 0.70569 0.03008 0.6706 0.0
H650 H 0.66192 0.03167 0.76956 0.0
H651 H 0.61674 0.02117 0.78174 0.0
H652 H 0.59764 0.96386 0.55666 0.0
H653 H 0.6421 0.95862 0.46861 0.0
C654 C 0.68085 0.98527 0.51902 0.0
C655 C 0.69935 1.00128 0.5515 0.0
C656 C 0.65545 0.98667 0.57389 0.0
C657 C 0.6922 0.01717 0.64429 0.0
C658 C 0.66697 0.01842 0.70008 0.0
C659 C 0.62226 1.00717 0.71429 0.0
C660 C 0.60341 0.99302 0.67633 0.0
C661 C 0.6482 1.00396 0.66402 0.0
C662 C 0.61134 0.97512 0.5882 0.0
C663 C 0.63691 0.97207 0.5376 0.0
H664 H 0.50518 0.67521 0.52549 0.0
H665 H 0.58571 0.66988 0.40731 0.0
H666 H 0.59138 0.62788 0.50926 0.0
H667 H 0.5721 0.5889 0.61866 0.0
H668 H 0.49059 0.59517 0.72335 0.0
H669 H 0.48678 0.63989 0.64052 0.0
C670 C 0.52407 0.66528 0.52405 0.0
C671 C 0.54495 0.67571 0.45944 0.0
C672 C 0.52696 0.64061 0.57896 0.0
C673 C 0.56932 0.66253 0.45766 0.0
C674 C 0.57249 0.63821 0.51486 0.0
C675 C 0.5536 0.60016 0.62335 0.0
C676 C 0.53165 0.58795 0.67525 0.0
C677 C 0.55128 0.62638 0.57348 0.0
C678 C 0.50784 0.60323 0.68147 0.0
C679 C 0.50554 0.62916 0.63486 0.0
H680 H 0.88149 0.54407 0.65043 0.0
H681 H 0.86208 0.46338 0.78037 0.0
H682 H 0.89908 0.46216 0.85997 0.0
H683 H 0.93994 0.4814 0.87673 0.0
H684 H 0.9599 0.56126 0.73898 0.0
H685 H 0.9202 0.56539 0.67965 0.0
C686 C 0.88492 0.52674 0.69896 0.0
C687 C 0.86867 0.50413 0.71093 0.0
C688 C 0.90684 0.5257 0.74178 0.0
C689 C 0.87395 0.48132 0.77143 0.0
C690 C 0.89533 0.48047 0.8161 0.0
C691 C 0.93543 0.49996 0.83531 0.0
C692 C 0.95329 0.52085 0.81226 0.0
C693 C 0.91239 0.50212 0.79951 0.0
C694 C 0.94689 0.54462 0.75761 0.0
C695 C 0.92404 0.54708 0.72338 0.0
loop_
_geom_bond_atom_site_label_1
_geom_bond_atom_site_label_2
_geom_bond_distance
_geom_bond_site_symmetry_2
_ccdc_geom_bond_type
H0 C1 0.949 . S
C1 H0 0.949 . S
C1 C2 1.395 . S
C1 C3 1.391 . S
C2 C1 1.395 . S
C2 C5 1.390 . S
C3 C1 1.391 . S
C3 C7 1.387 . S
C3 C8 1.491 . S
H4 C5 0.950 . S
C5 C2 1.390 . S
C5 H4 0.950 . S
C5 C6 1.378 . S
C6 C5 1.378 . S
C6 C7 1.409 . S
C7 C3 1.387 . S
C7 C6 1.409 . S
C7 H9 0.951 . S
C8 C3 1.491 . S
C8 C10 1.382 . S
C8 C12 1.404 . S
H9 C7 0.951 . S
C10 C8 1.382 . S
C10 C11 1.390 . S
C10 H15 0.949 . S
C11 C10 1.390 . S
C11 C16 1.399 . S
C12 C8 1.404 . S
C12 H13 0.950 . S
C12 C14 1.375 . S
H13 C12 0.950 . S
C14 C12 1.375 . S
C14 C16 1.382 . S
C14 H18 0.950 . S
H15 C10 0.949 . S
C16 C11 1.399 . S
C16 C14 1.382 . S
C16 H17 0.952 . S
H17 C16 0.952 . S
H18 C14 0.950 . S
H19 C20 0.949 . S
C20 H19 0.949 . S
C20 C21 1.395 . S
C20 C22 1.391 . S
C21 C20 1.395 . S
C21 C24 1.390 . S
C22 C20 1.391 . S
C22 C26 1.387 . S
C22 C27 1.491 . S
H23 C24 0.950 . S
C24 C21 1.390 . S
C24 H23 0.950 . S
C24 C25 1.378 . S
C25 C24 1.378 . S
C25 C26 1.409 . S
C26 C22 1.387 . S
C26 C25 1.409 . S
C26 H28 0.951 . S
C27 C22 1.491 . S
C27 C29 1.382 . S
C27 C31 1.404 . S
H28 C26 0.951 . S
C29 C27 1.382 . S
C29 C30 1.390 . S
C29 H34 0.949 1_655 S
C30 C29 1.390 . S
C30 C35 1.399 . S
C31 C27 1.404 . S
C31 H32 0.950 . S
C31 C33 1.375 . S
H32 C31 0.950 . S
C33 C31 1.375 . S
C33 C35 1.382 . S
C33 H37 0.950 . S
H34 C29 0.949 1_455 S
C35 C30 1.399 . S
C35 C33 1.382 . S
C35 H36 0.952 . S
H36 C35 0.952 . S
H37 C33 0.950 . S
H38 C39 0.949 . S
C39 H38 0.949 . S
C39 C40 1.395 . S
C39 C41 1.391 . S
C40 C39 1.395 . S
C40 C43 1.390 1_565 S
C41 C39 1.391 . S
C41 C45 1.387 . S
C41 C46 1.491 . S
H42 C43 0.950 . S
C43 C40 1.390 1_545 S
C43 H42 0.950 . S
C43 C44 1.376 1_545 S
C44 C43 1.376 1_565 S
C44 C45 1.411 . S
C45 C41 1.387 . S
C45 C44 1.411 . S
C45 H47 0.951 . S
C46 C41 1.491 . S
C46 C48 1.382 . S
C46 C50 1.404 . S
H47 C45 0.951 . S
C48 C46 1.382 . S
C48 C49 1.390 . S
C48 H53 0.949 1_565 S
C49 C48 1.390 . S
C49 C54 1.399 . S
C50 C46 1.404 . S
C50 H51 0.950 . S
C50 C52 1.375 . S
H51 C50 0.950 . S
C52 C50 1.375 . S
C52 C54 1.382 . S
C52 H56 0.950 . S
H53 C48 0.949 1_545 S
C54 C49 1.399 . S
C54 C52 1.382 . S
C54 H55 0.952 . S
H55 C54 0.952 . S
H56 C52 0.950 . S
H57 C58 0.949 . S
C58 H57 0.949 . S
C58 C59 1.395 . S
C58 C60 1.391 . S
C59 C58 1.395 . S
C59 C62 1.390 . S
C60 C58 1.391 . S
C60 C64 1.387 . S
C60 C65 1.491 . S
H61 C62 0.950 . S
C62 C59 1.390 . S
C62 H61 0.950 . S
C62 C63 1.378 . S
C63 C62 1.378 . S
C63 C64 1.409 . S
C64 C60 1.387 . S
C64 C63 1.409 . S
C64 H66 0.951 . S
C65 C60 1.491 . S
C65 C67 1.382 . S
C65 C69 1.404 . S
H66 C64 0.951 . S
C67 C65 1.382 . S
C67 C68 1.390 . S
C67 H72 0.949 . S
C68 C67 1.390 . S
C68 C73 1.399 . S
C69 C65 1.404 . S
C69 H70 0.950 . S
C69 C71 1.375 . S
H70 C69 0.950 . S
C71 C69 1.375 . S
C71 C73 1.382 . S
C71 H75 0.950 . S
H72 C67 0.949 . S
C73 C68 1.399 . S
C73 C71 1.382 . S
C73 H74 0.952 . S
H74 C73 0.952 . S
H75 C71 0.950 . S
H76 C77 0.949 . S
C77 H76 0.949 . S
C77 C78 1.395 . S
C77 C79 1.391 1_554 S
C78 C77 1.395 . S
C78 C81 1.390 1_554 S
C79 C77 1.391 1_556 S
C79 C83 1.387 . S
C79 C84 1.491 . S
H80 C81 0.950 . S
C81 C78 1.390 1_556 S
C81 H80 0.950 . S
C81 C82 1.378 . S
C82 C81 1.378 . S
C82 C83 1.409 . S
C83 C79 1.387 . S
C83 C82 1.409 . S
C83 H85 0.951 . S
C84 C79 1.491 . S
C84 C86 1.382 1_556 S
C84 C88 1.404 . S
H85 C83 0.951 . S
C86 C84 1.382 1_554 S
C86 C87 1.390 . S
C86 H91 0.949 . S
C87 C86 1.390 . S
C87 C92 1.399 1_554 S
C88 C84 1.404 . S
C88 H89 0.950 . S
C88 C90 1.375 . S
H89 C88 0.950 . S
C90 C88 1.375 . S
C90 C92 1.382 . S
C90 H94 0.950 . S
H91 C86 0.949 . S
C92 C87 1.399 1_556 S
C92 C90 1.382 . S
C92 H93 0.952 . S
H93 C92 0.952 . S
H94 C90 0.950 . S
H95 C96 0.949 . S
C96 H95 0.949 . S
C96 C97 1.395 . S
C96 C98 1.391 . S
C97 C96 1.395 . S
C97 C100 1.390 . S
C98 C96 1.391 . S
C98 C102 1.387 . S
C98 C103 1.491 1_455 S
H99 C100 0.950 . S
C100 C97 1.390 . S
C100 H99 0.950 . S
C100 C101 1.378 . S
C101 C100 1.378 . S
C101 C102 1.409 . S
C102 C98 1.387 . S
C102 C101 1.409 . S
C102 H104 0.951 1_554 S
C103 C98 1.491 1_655 S
C103 C105 1.382 1_655 S
C103 C107 1.404 . S
H104 C102 0.951 1_556 S
C105 C103 1.382 1_455 S
C105 C106 1.390 . S
C105 H110 0.949 . S
C106 C105 1.390 . S
C106 C111 1.399 1_455 S
C107 C103 1.404 . S
C107 H108 0.950 . S
C107 C109 1.375 . S
H108 C107 0.950 . S
C109 C107 1.375 . S
C109 C111 1.382 . S
C109 H113 0.950 . S
H110 C105 0.949 . S
C111 C106 1.399 1_655 S
C111 C109 1.382 . S
C111 H112 0.952 . S
H112 C111 0.952 . S
H113 C109 0.950 . S
H114 C115 0.949 . S
C115 H114 0.949 . S
C115 C116 1.394 . S
C115 C117 1.391 . S
C116 C115 1.394 . S
C116 C119 1.391 1_565 S
C117 C115 1.391 . S
C117 C121 1.387 . S
C117 C122 1.491 . S
H118 C119 0.950 . S
C119 C116 1.391 1_545 S
C119 H118 0.950 . S
C119 C120 1.377 1_545 S
C120 C119 1.377 1_565 S
C120 C121 1.412 . S
C121 C117 1.387 . S
C121 C120 1.412 . S
C121 H123 0.951 . S
C122 C117 1.491 . S
C122 C124 1.382 . S
C122 C126 1.404 . S
H123 C121 0.951 . S
C124 C122 1.382 . S
C124 C125 1.390 . S
C124 H129 0.949 1_565 S
C125 C124 1.390 . S
C125 C130 1.399 . S
C126 C122 1.404 . S
C126 H127 0.950 . S
C126 C128 1.375 . S
H127 C126 0.950 . S
C128 C126 1.375 . S
C128 C130 1.382 . S
C128 H132 0.950 . S
H129 C124 0.949 1_545 S
C130 C125 1.399 . S
C130 C128 1.382 . S
C130 H131 0.952 . S
H131 C130 0.952 . S
H132 C128 0.950 . S
H133 C134 0.949 . S
C134 H133 0.949 . S
C134 C135 1.395 . S
C134 C136 1.391 . S
C135 C134 1.395 . S
C135 C138 1.390 . S
C136 C134 1.391 . S
C136 C140 1.387 . S
C136 C141 1.491 . S
H137 C138 0.950 . S
C138 C135 1.390 . S
C138 H137 0.950 . S
C138 C139 1.378 . S
C139 C138 1.378 . S
C139 C140 1.409 . S
C140 C136 1.387 . S
C140 C139 1.409 . S
C140 H142 0.951 . S
C141 C136 1.491 . S
C141 C143 1.382 . S
C141 C145 1.404 . S
H142 C140 0.951 . S
C143 C141 1.382 . S
C143 C144 1.390 . S
C143 H148 0.949 . S
C144 C143 1.390 . S
C144 C149 1.399 . S
C145 C141 1.404 . S
C145 H146 0.950 . S
C145 C147 1.375 . S
H146 C145 0.950 . S
C147 C145 1.375 . S
C147 C149 1.382 . S
C147 H151 0.950 . S
H148 C143 0.949 . S
C149 C144 1.399 . S
C149 C147 1.382 . S
C149 H150 0.952 . S
H150 C149 0.952 . S
H151 C147 0.950 . S
Dy152 O155 2.307 1_545 S
Dy152 O157 2.395 1_655 S
Dy152 O158 2.379 . S
Dy152 O160 2.339 . S
Dy152 O162 2.298 . S
Dy152 O166 2.275 1_655 S
Dy152 C174 2.738 . S
Dy153 O156 2.298 . S
Dy153 O159 2.275 1_455 S
Dy153 O161 2.307 1_565 S
Dy153 O163 2.395 1_456 S
Dy153 O164 2.379 1_556 S
Dy153 O167 2.339 . S
Dy153 C183 2.738 1_556 S
C154 O166 1.254 1_565 S
C154 O167 1.257 . S
O155 Dy152 2.307 1_565 S
O155 C165 1.266 . S
O156 Dy153 2.298 . S
O156 C165 1.236 1_455 S
O157 Dy152 2.395 1_455 S
O157 C174 1.255 1_455 S
O158 Dy152 2.379 . S
O158 C174 1.249 . S
O159 Dy153 2.275 1_655 S
O159 C175 1.254 1_565 S
O160 Dy152 2.339 . S
O160 C175 1.257 . S
O161 Dy153 2.307 1_545 S
O161 C176 1.266 . S
O162 Dy152 2.298 . S
O162 C176 1.236 1_655 S
O163 Dy153 2.395 1_654 S
O163 C183 1.255 1_655 S
O164 Dy153 2.379 1_554 S
O164 C183 1.249 . S
C165 O155 1.266 . S
C165 O156 1.236 1_655 S
O166 Dy152 2.275 1_455 S
O166 C154 1.254 1_545 S
O167 Dy153 2.339 . S
O167 C154 1.257 . S
C168 C171 1.344 1_655 S
C168 C172 1.328 . S
C168 C174 1.516 . S
C169 C170 1.304 1_655 S
C169 C173 1.323 . S
C170 C169 1.304 1_455 S
C170 C171 1.371 . S
C170 H184 0.930 . S
C171 C168 1.344 1_455 S
C171 C170 1.371 . S
C171 H185 0.931 . S
C172 C168 1.328 . S
C172 C173 1.433 . S
C172 H186 0.931 . S
C173 C169 1.323 . S
C173 C172 1.433 . S
C173 H187 0.933 . S
C174 Dy152 2.738 . S
C174 O157 1.255 1_655 S
C174 O158 1.249 . S
C174 C168 1.516 . S
C175 O159 1.254 1_545 S
C175 O160 1.257 . S
C176 O161 1.266 . S
C176 O162 1.236 1_455 S
C177 C180 1.344 1_455 S
C177 C181 1.328 . S
C177 C183 1.516 . S
C178 C179 1.304 1_455 S
C178 C182 1.323 . S
C179 C178 1.304 1_655 S
C179 C180 1.371 . S
C179 H188 0.930 . S
C180 C177 1.344 1_655 S
C180 C179 1.371 . S
C180 H189 0.931 . S
C181 C177 1.328 . S
C181 C182 1.433 . S
C181 H190 0.931 . S
C182 C178 1.323 . S
C182 C181 1.433 . S
C182 H191 0.933 . S
C183 Dy153 2.738 1_554 S
C183 O163 1.255 1_455 S
C183 O164 1.249 . S
C183 C177 1.516 . S
H184 C170 0.930 . S
H185 C171 0.931 . S
H186 C172 0.931 . S
H187 C173 0.933 . S
H188 C179 0.930 . S
H189 C180 0.931 . S
H190 C181 0.931 . S
H191 C182 0.933 . S
Dy192 O195 2.307 . S
Dy192 O197 2.395 1_565 S
Dy192 O198 2.379 . S
Dy192 O200 2.339 . S
Dy192 O202 2.298 . S
Dy192 O206 2.275 1_565 S
Dy192 C214 2.738 . S
Dy193 O196 2.298 . S
Dy193 O199 2.275 1_545 S
Dy193 O201 2.307 . S
Dy193 O203 2.395 1_546 S
Dy193 O204 2.379 1_556 S
Dy193 O207 2.339 . S
Dy193 C223 2.738 1_556 S
C194 O206 1.254 . S
C194 O207 1.257 . S
O195 Dy192 2.307 . S
O195 C205 1.266 . S
O196 Dy193 2.298 . S
O196 C205 1.236 1_545 S
O197 Dy192 2.395 1_545 S
O197 C214 1.255 1_545 S
O198 Dy192 2.379 . S
O198 C214 1.249 . S
O199 Dy193 2.275 1_565 S
O199 C215 1.254 . S
O200 Dy192 2.339 . S
O200 C215 1.257 . S
O201 Dy193 2.307 . S
O201 C216 1.266 . S
O202 Dy192 2.298 . S
O202 C216 1.236 1_565 S
O203 Dy193 2.395 1_564 S
O203 C223 1.255 1_565 S
O204 Dy193 2.379 1_554 S
O204 C223 1.249 . S
C205 O195 1.266 . S
C205 O196 1.236 1_565 S
O206 Dy192 2.275 1_545 S
O206 C194 1.254 . S
O207 Dy193 2.339 . S
O207 C194 1.257 . S
C208 C211 1.344 1_565 S
C208 C212 1.328 . S
C208 C214 1.516 . S
C209 C210 1.304 1_565 S
C209 C213 1.323 . S
C210 C209 1.304 1_545 S
C210 C211 1.371 . S
C210 H224 0.930 . S
C211 C208 1.344 1_545 S
C211 C210 1.371 . S
C211 H225 0.931 . S
C212 C208 1.328 . S
C212 C213 1.433 . S
C212 H226 0.931 . S
C213 C209 1.323 . S
C213 C212 1.433 . S
C213 H227 0.933 . S
C214 Dy192 2.738 . S
C214 O197 1.255 1_565 S
C214 O198 1.249 . S
C214 C208 1.516 . S
C215 O199 1.254 . S
C215 O200 1.257 . S
C216 O201 1.266 . S
C216 O202 1.236 1_545 S
C217 C220 1.344 1_545 S
C217 C221 1.328 . S
C217 C223 1.516 . S
C218 C219 1.304 1_545 S
C218 C222 1.323 . S
C219 C218 1.304 1_565 S
C219 C220 1.371 . S
C219 H228 0.930 . S
C220 C217 1.344 1_565 S
C220 C219 1.371 . S
C220 H229 0.931 . S
C221 C217 1.328 . S
C221 C222 1.433 . S
C221 H230 0.931 . S
C222 C218 1.323 . S
C222 C221 1.433 . S
C222 H231 0.933 . S
C223 Dy193 2.738 1_554 S
C223 O203 1.255 1_545 S
C223 O204 1.249 . S
C223 C217 1.516 . S
H224 C210 0.930 . S
H225 C211 0.931 . S
H226 C212 0.931 . S
H227 C213 0.933 . S
H228 C219 0.930 . S
H229 C220 0.931 . S
H230 C221 0.931 . S
H231 C222 0.933 . S
Dy232 O235 2.307 . S
Dy232 O237 2.395 . S
Dy232 O238 2.379 . S
Dy232 O240 2.339 . S
Dy232 O242 2.298 . S
Dy232 O246 2.275 . S
Dy232 C254 2.738 . S
Dy233 O236 2.298 . S
Dy233 O239 2.275 . S
Dy233 O241 2.307 . S
Dy233 O243 2.395 . S
Dy233 O244 2.379 . S
Dy233 O247 2.339 . S
Dy233 C263 2.738 . S
C234 O246 1.254 . S
C234 O247 1.257 . S
O235 Dy232 2.307 . S
O235 C245 1.266 . S
O236 Dy233 2.298 . S
O236 C245 1.236 . S
O237 Dy232 2.395 . S
O237 C254 1.255 . S
O238 Dy232 2.379 . S
O238 C254 1.249 . S
O239 Dy233 2.275 . S
O239 C255 1.254 . S
O240 Dy232 2.339 . S
O240 C255 1.257 . S
O241 Dy233 2.307 . S
O241 C256 1.266 . S
O242 Dy232 2.298 . S
O242 C256 1.236 . S
O243 Dy233 2.395 . S
O243 C263 1.255 . S
O244 Dy233 2.379 . S
O244 C263 1.249 . S
C245 O235 1.266 . S
C245 O236 1.236 . S
O246 Dy232 2.275 . S
O246 C234 1.254 . S
O247 Dy233 2.339 . S
O247 C234 1.257 . S
C248 C251 1.344 1_556 S
C248 C252 1.328 . S
C248 C254 1.516 . S
C249 C250 1.304 . S
C249 C253 1.323 . S
C250 C249 1.304 . S
C250 C251 1.371 . S
C250 H264 0.930 . S
C251 C248 1.344 1_554 S
C251 C250 1.371 . S
C251 H265 0.931 . S
C252 C248 1.328 . S
C252 C253 1.433 1_556 S
C252 H266 0.931 . S
C253 C249 1.323 . S
C253 C252 1.433 1_554 S
C253 H267 0.933 1_554 S
C254 Dy232 2.738 . S
C254 O237 1.255 . S
C254 O238 1.249 . S
C254 C248 1.516 . S
C255 O239 1.254 . S
C255 O240 1.257 . S
C256 O241 1.266 . S
C256 O242 1.236 . S
C257 C260 1.344 . S
C257 C261 1.328 . S
C257 C263 1.516 . S
C258 C259 1.304 . S
C258 C262 1.323 . S
C259 C258 1.304 . S
C259 C260 1.371 . S
C259 H268 0.930 . S
C260 C257 1.344 . S
C260 C259 1.371 . S
C260 H269 0.931 . S
C261 C257 1.328 . S
C261 C262 1.433 . S
C261 H270 0.931 . S
C262 C258 1.323 . S
C262 C261 1.433 . S
C262 H271 0.933 . S
C263 Dy233 2.738 . S
C263 O243 1.255 . S
C263 O244 1.249 . S
C263 C257 1.516 . S
H264 C250 0.930 . S
H265 C251 0.931 . S
H266 C252 0.931 . S
H267 C253 0.933 1_556 S
H268 C259 0.930 . S
H269 C260 0.931 . S
H270 C261 0.931 . S
H271 C262 0.933 . S
Dy272 O275 2.307 1_455 S
Dy272 O277 2.395 . S
Dy272 O278 2.379 . S
Dy272 O280 2.339 . S
Dy272 O282 2.298 . S
Dy272 O286 2.275 . S
Dy272 C294 2.738 . S
Dy273 O276 2.298 . S
Dy273 O279 2.275 . S
Dy273 O281 2.307 1_655 S
Dy273 O283 2.395 1_556 S
Dy273 O284 2.379 1_556 S
Dy273 O287 2.339 . S
Dy273 C303 2.738 1_556 S
C274 O286 1.254 . S
C274 O287 1.258 1_455 S
O275 Dy272 2.307 1_655 S
O275 C285 1.266 . S
O276 Dy273 2.298 . S
O276 C285 1.236 . S
O277 Dy272 2.395 . S
O277 C294 1.255 . S
O278 Dy272 2.379 . S
O278 C294 1.249 . S
O279 Dy273 2.275 . S
O279 C295 1.254 1_655 S
O280 Dy272 2.339 . S
O280 C295 1.257 . S
O281 Dy273 2.307 1_455 S
O281 C296 1.266 . S
O282 Dy272 2.298 . S
O282 C296 1.236 . S
O283 Dy273 2.395 1_554 S
O283 C303 1.255 . S
O284 Dy273 2.379 1_554 S
O284 C303 1.249 . S
C285 O275 1.266 . S
C285 O276 1.236 . S
O286 Dy272 2.275 . S
O286 C274 1.254 . S
O287 Dy273 2.339 . S
O287 C274 1.258 1_655 S
C288 C291 1.344 . S
C288 C292 1.328 . S
C288 C294 1.516 . S
C289 C290 1.304 . S
C289 C293 1.323 . S
C290 C289 1.304 . S
C290 C291 1.371 . S
C290 H304 0.930 . S
C291 C288 1.344 . S
C291 C290 1.371 . S
C291 H305 0.931 . S
C292 C288 1.328 . S
C292 C293 1.433 . S
C292 H306 0.931 . S
C293 C289 1.323 . S
C293 C292 1.433 . S
C293 H307 0.933 . S
C294 Dy272 2.738 . S
C294 O277 1.255 . S
C294 O278 1.249 . S
C294 C288 1.516 . S
C295 O279 1.254 1_455 S
C295 O280 1.257 . S
C296 O281 1.266 . S
C296 O282 1.236 . S
C297 C300 1.344 . S
C297 C301 1.328 . S
C297 C303 1.516 . S
C298 C299 1.304 . S
C298 C302 1.323 . S
C299 C298 1.304 . S
C299 C300 1.371 . S
C299 H308 0.930 . S
C300 C297 1.344 . S
C300 C299 1.371 . S
C300 H309 0.931 . S
C301 C297 1.328 . S
C301 C302 1.433 . S
C301 H310 0.931 . S
C302 C298 1.323 . S
C302 C301 1.433 . S
C302 H311 0.933 . S
C303 Dy273 2.738 1_554 S
C303 O283 1.255 . S
C303 O284 1.249 . S
C303 C297 1.516 . S
H304 C290 0.930 . S
H305 C291 0.931 . S
H306 C292 0.931 . S
H307 C293 0.933 . S
H308 C299 0.930 . S
H309 C300 0.931 . S
H310 C301 0.931 . S
H311 C302 0.933 . S
H312 C318 0.930 . S
H313 C321 0.930 . S
H314 C322 0.930 . S
H315 C323 0.930 . S
H316 C326 0.930 . S
H317 C327 0.930 . S
C318 H312 0.930 . S
C318 C319 1.355 1_565 S
C318 C320 1.415 . S
C319 C318 1.355 1_545 S
C319 C321 1.419 . S
C320 C318 1.415 . S
C320 C325 1.425 1_565 S
C320 C327 1.409 . S
C321 H313 0.930 . S
C321 C319 1.419 . S
C321 C322 1.362 . S
C322 H314 0.930 . S
C322 C321 1.362 . S
C322 C325 1.409 . S
C323 H315 0.930 . S
C323 C324 1.355 1_545 S
C323 C325 1.415 . S
C324 C323 1.355 1_565 S
C324 C326 1.419 . S
C325 C320 1.425 1_545 S
C325 C322 1.409 . S
C325 C323 1.415 . S
C326 H316 0.930 . S
C326 C324 1.419 . S
C326 C327 1.362 . S
C327 H317 0.930 . S
C327 C320 1.409 . S
C327 C326 1.362 . S
H328 C334 0.930 . S
H329 C337 0.930 . S
H330 C338 0.930 . S
H331 C339 0.930 . S
H332 C342 0.930 . S
H333 C343 0.930 . S
C334 H328 0.930 . S
C334 C335 1.355 . S
C334 C336 1.415 . S
C335 C334 1.355 . S
C335 C337 1.419 . S
C336 C334 1.415 . S
C336 C341 1.425 . S
C336 C343 1.409 . S
C337 H329 0.930 . S
C337 C335 1.419 . S
C337 C338 1.362 . S
C338 H330 0.930 . S
C338 C337 1.362 . S
C338 C341 1.409 . S
C339 H331 0.930 . S
C339 C340 1.355 . S
C339 C341 1.415 . S
C340 C339 1.355 . S
C340 C342 1.419 . S
C341 C336 1.425 . S
C341 C338 1.409 . S
C341 C339 1.415 . S
C342 H332 0.930 . S
C342 C340 1.419 . S
C342 C343 1.362 . S
C343 H333 0.930 . S
C343 C336 1.409 . S
C343 C342 1.362 . S
H344 C350 0.930 . S
H345 C353 0.930 . S
H346 C354 0.930 . S
H347 C355 0.930 . S
H348 C358 0.930 . S
H349 C359 0.930 . S
C350 H344 0.930 . S
C350 C351 1.355 . S
C350 C352 1.415 . S
C351 C350 1.355 . S
C351 C353 1.419 . S
C352 C350 1.415 . S
C352 C357 1.425 . S
C352 C359 1.409 . S
C353 H345 0.930 . S
C353 C351 1.419 . S
C353 C354 1.362 . S
C354 H346 0.930 . S
C354 C353 1.362 . S
C354 C357 1.409 . S
C355 H347 0.930 . S
C355 C356 1.355 . S
C355 C357 1.415 . S
C356 C355 1.355 . S
C356 C358 1.419 . S
C357 C352 1.425 . S
C357 C354 1.409 . S
C357 C355 1.415 . S
C358 H348 0.930 . S
C358 C356 1.419 . S
C358 C359 1.362 . S
C359 H349 0.930 . S
C359 C352 1.409 . S
C359 C358 1.362 . S
H360 C366 0.930 . S
H361 C369 0.930 . S
H362 C370 0.930 . S
H363 C371 0.930 . S
H364 C374 0.930 . S
H365 C375 0.930 . S
C366 H360 0.930 . S
C366 C367 1.355 . S
C366 C368 1.415 . S
C367 C366 1.355 . S
C367 C369 1.419 1_455 S
C368 C366 1.415 . S
C368 C373 1.425 1_455 S
C368 C375 1.409 . S
C369 H361 0.930 . S
C369 C367 1.419 1_655 S
C369 C370 1.362 . S
C370 H362 0.930 . S
C370 C369 1.362 . S
C370 C373 1.409 . S
C371 H363 0.930 . S
C371 C372 1.355 1_655 S
C371 C373 1.415 . S
C372 C371 1.355 1_455 S
C372 C374 1.419 . S
C373 C368 1.425 1_655 S
C373 C370 1.409 . S
C373 C371 1.415 . S
C374 H364 0.930 . S
C374 C372 1.419 . S
C374 C375 1.362 . S
C375 H365 0.930 . S
C375 C368 1.409 . S
C375 C374 1.362 . S
H376 C382 0.930 . S
H377 C385 0.930 . S
H378 C386 0.930 1_556 S
H379 C387 0.930 . S
H380 C390 0.930 . S
H381 C391 0.930 . S
C382 H376 0.930 . S
C382 C383 1.356 1_545 S
C382 C384 1.415 . S
C383 C382 1.356 1_565 S
C383 C385 1.418 . S
C384 C382 1.415 . S
C384 C389 1.425 1_545 S
C384 C391 1.409 . S
C385 H377 0.930 . S
C385 C383 1.418 . S
C385 C386 1.362 . S
C386 H378 0.930 1_554 S
C386 C385 1.362 . S
C386 C389 1.409 . S
C387 H379 0.930 . S
C387 C388 1.367 1_556 S
C387 C389 1.415 1_556 S
C388 C387 1.367 1_554 S
C388 C390 1.409 1_565 S
C389 C384 1.425 1_565 S
C389 C386 1.409 . S
C389 C387 1.415 1_554 S
C390 H380 0.930 . S
C390 C388 1.409 1_545 S
C390 C391 1.362 . S
C391 H381 0.930 . S
C391 C384 1.409 . S
C391 C390 1.362 . S
H392 C398 0.930 . S
H393 C401 0.930 . S
H394 C402 0.930 . S
H395 C403 0.930 . S
H396 C406 0.930 . S
H397 C407 0.930 . S
C398 H392 0.930 . S
C398 C399 1.355 1_556 S
C398 C400 1.415 . S
C399 C398 1.355 1_554 S
C399 C401 1.419 . S
C400 C398 1.415 . S
C400 C405 1.425 1_556 S
C400 C407 1.409 . S
C401 H393 0.930 . S
C401 C399 1.419 . S
C401 C402 1.362 . S
C402 H394 0.930 . S
C402 C401 1.362 . S
C402 C405 1.409 . S
C403 H395 0.930 . S
C403 C404 1.355 1_554 S
C403 C405 1.415 . S
C404 C403 1.355 1_556 S
C404 C406 1.419 . S
C405 C400 1.425 1_554 S
C405 C402 1.409 . S
C405 C403 1.415 . S
C406 H396 0.930 . S
C406 C404 1.419 . S
C406 C407 1.362 . S
C407 H397 0.930 . S
C407 C400 1.409 . S
C407 C406 1.362 . S
H408 C414 0.930 . S
H409 C417 0.930 . S
H410 C418 0.930 . S
H411 C419 0.930 . S
H412 C422 0.930 . S
H413 C423 0.930 . S
C414 H408 0.930 . S
C414 C415 1.355 . S
C414 C416 1.415 . S
C415 C414 1.355 . S
C415 C417 1.419 . S
C416 C414 1.415 . S
C416 C421 1.425 . S
C416 C423 1.409 . S
C417 H409 0.930 . S
C417 C415 1.419 . S
C417 C418 1.362 . S
C418 H410 0.930 . S
C418 C417 1.362 . S
C418 C421 1.409 . S
C419 H411 0.930 . S
C419 C420 1.355 . S
C419 C421 1.415 . S
C420 C419 1.355 . S
C420 C422 1.419 . S
C421 C416 1.425 . S
C421 C418 1.409 . S
C421 C419 1.415 . S
C422 H412 0.930 . S
C422 C420 1.419 . S
C422 C423 1.362 . S
C423 H413 0.930 . S
C423 C416 1.409 . S
C423 C422 1.362 . S
H424 C430 0.932 . S
H425 C433 0.930 . S
H426 C434 0.930 . S
H427 C435 0.930 . S
H428 C438 0.930 . S
H429 C439 0.930 . S
C430 H424 0.932 . S
C430 C431 1.354 1_455 S
C430 C432 1.413 1_455 S
C431 C430 1.354 1_655 S
C431 C433 1.419 . S
C432 C430 1.413 1_655 S
C432 C437 1.425 . S
C432 C439 1.409 1_655 S
C433 H425 0.930 . S
C433 C431 1.419 . S
C433 C434 1.362 . S
C434 H426 0.930 . S
C434 C433 1.362 . S
C434 C437 1.409 . S
C435 H427 0.930 . S
C435 C436 1.355 . S
C435 C437 1.415 . S
C436 C435 1.355 . S
C436 C438 1.419 1_655 S
C437 C432 1.425 . S
C437 C434 1.409 . S
C437 C435 1.415 . S
C438 H428 0.930 . S
C438 C436 1.419 1_455 S
C438 C439 1.362 . S
C439 H429 0.930 . S
C439 C432 1.409 1_455 S
C439 C438 1.362 . S
H440 C446 0.930 . S
H441 C449 0.930 . S
H442 C450 0.930 . S
H443 C451 0.930 . S
H444 C454 0.930 . S
H445 C455 0.930 . S
C446 H440 0.930 . S
C446 C447 1.355 1_655 S
C446 C448 1.415 . S
C447 C446 1.355 1_455 S
C447 C449 1.419 . S
C448 C446 1.415 . S
C448 C453 1.425 1_655 S
C448 C455 1.409 . S
C449 H441 0.930 . S
C449 C447 1.419 . S
C449 C450 1.362 . S
C450 H442 0.930 . S
C450 C449 1.362 . S
C450 C453 1.409 . S
C451 H443 0.930 . S
C451 C452 1.355 1_455 S
C451 C453 1.415 . S
C452 C451 1.355 1_655 S
C452 C454 1.419 . S
C453 C448 1.425 1_455 S
C453 C450 1.409 . S
C453 C451 1.415 . S
C454 H444 0.930 . S
C454 C452 1.419 . S
C454 C455 1.362 . S
C455 H445 0.930 . S
C455 C448 1.409 . S
C455 C454 1.362 . S
H456 C462 0.930 . S
H457 C465 0.930 . S
H458 C466 0.930 . S
H459 C467 0.930 . S
H460 C470 0.930 1_545 S
H461 C471 0.930 . S
C462 H456 0.930 . S
C462 C463 1.355 1_545 S
C462 C464 1.415 1_545 S
C463 C462 1.355 1_565 S
C463 C465 1.419 . S
C464 C462 1.415 1_565 S
C464 C469 1.425 . S
C464 C471 1.409 1_565 S
C465 H457 0.930 . S
C465 C463 1.419 . S
C465 C466 1.362 . S
C466 H458 0.930 . S
C466 C465 1.362 . S
C466 C469 1.409 . S
C467 H459 0.930 . S
C467 C468 1.355 . S
C467 C469 1.415 . S
C468 C467 1.355 . S
C468 C470 1.419 . S
C469 C464 1.425 . S
C469 C466 1.409 . S
C469 C467 1.415 . S
C470 H460 0.930 1_565 S
C470 C468 1.419 . S
C470 C471 1.362 1_565 S
C471 H461 0.930 . S
C471 C464 1.409 1_545 S
C471 C470 1.362 1_545 S
H472 C478 0.930 . S
H473 C481 0.930 . S
H474 C482 0.930 . S
H475 C483 0.930 . S
H476 C486 0.930 . S
H477 C487 0.930 . S
C478 H472 0.930 . S
C478 C479 1.355 . S
C478 C480 1.415 . S
C479 C478 1.355 . S
C479 C481 1.419 . S
C480 C478 1.415 . S
C480 C485 1.425 . S
C480 C487 1.409 . S
C481 H473 0.930 . S
C481 C479 1.419 . S
C481 C482 1.362 . S
C482 H474 0.930 . S
C482 C481 1.362 . S
C482 C485 1.409 . S
C483 H475 0.930 . S
C483 C484 1.355 . S
C483 C485 1.415 . S
C484 C483 1.355 . S
C484 C486 1.419 . S
C485 C480 1.425 . S
C485 C482 1.409 . S
C485 C483 1.415 . S
C486 H476 0.930 . S
C486 C484 1.419 . S
C486 C487 1.362 . S
C487 H477 0.930 . S
C487 C480 1.409 . S
C487 C486 1.362 . S
H488 C494 0.930 . S
H489 C497 0.930 . S
H490 C498 0.930 . S
H491 C499 0.930 . S
H492 C502 0.930 . S
H493 C503 0.930 . S
C494 H488 0.930 . S
C494 C495 1.355 . S
C494 C496 1.415 . S
C495 C494 1.355 . S
C495 C497 1.419 . S
C496 C494 1.415 . S
C496 C501 1.425 . S
C496 C503 1.409 . S
C497 H489 0.930 . S
C497 C495 1.419 . S
C497 C498 1.362 . S
C498 H490 0.930 . S
C498 C497 1.362 . S
C498 C501 1.409 . S
C499 H491 0.930 . S
C499 C500 1.355 . S
C499 C501 1.415 . S
C500 C499 1.355 . S
C500 C502 1.419 . S
C501 C496 1.425 . S
C501 C498 1.409 . S
C501 C499 1.415 . S
C502 H492 0.930 . S
C502 C500 1.419 . S
C502 C503 1.362 . S
C503 H493 0.930 . S
C503 C496 1.409 . S
C503 C502 1.362 . S
H504 C510 0.930 . S
H505 C513 0.930 . S
H506 C514 0.930 . S
H507 C515 0.930 . S
H508 C518 0.930 . S
H509 C519 0.930 . S
C510 H504 0.930 . S
C510 C511 1.355 . S
C510 C512 1.415 . S
C511 C510 1.355 . S
C511 C513 1.419 1_655 S
C512 C510 1.415 . S
C512 C517 1.425 1_655 S
C512 C519 1.409 . S
C513 H505 0.930 . S
C513 C511 1.419 1_455 S
C513 C514 1.362 . S
C514 H506 0.930 . S
C514 C513 1.362 . S
C514 C517 1.409 . S
C515 H507 0.930 . S
C515 C516 1.355 . S
C515 C517 1.415 . S
C516 C515 1.355 . S
C516 C518 1.419 1_455 S
C517 C512 1.425 1_455 S
C517 C514 1.409 . S
C517 C515 1.415 . S
C518 H508 0.930 . S
C518 C516 1.419 1_655 S
C518 C519 1.362 . S
C519 H509 0.930 . S
C519 C512 1.409 . S
C519 C518 1.362 . S
H520 C526 0.930 . S
H521 C529 0.930 . S
H522 C530 0.930 . S
H523 C531 0.930 . S
H524 C534 0.930 . S
H525 C535 0.930 . S
C526 H520 0.930 . S
C526 C527 1.355 1_565 S
C526 C528 1.415 1_565 S
C527 C526 1.355 1_545 S
C527 C529 1.419 . S
C528 C526 1.415 1_545 S
C528 C533 1.425 . S
C528 C535 1.409 1_545 S
C529 H521 0.930 . S
C529 C527 1.419 . S
C529 C530 1.362 . S
C530 H522 0.930 . S
C530 C529 1.362 . S
C530 C533 1.409 . S
C531 H523 0.930 . S
C531 C532 1.355 . S
C531 C533 1.415 . S
C532 C531 1.355 . S
C532 C534 1.419 . S
C533 C528 1.425 . S
C533 C530 1.409 . S
C533 C531 1.415 . S
C534 H524 0.930 . S
C534 C532 1.419 . S
C534 C535 1.362 1_545 S
C535 H525 0.930 . S
C535 C528 1.409 1_565 S
C535 C534 1.362 1_565 S
H536 C542 0.930 . S
H537 C545 0.930 . S
H538 C546 0.930 . S
H539 C547 0.930 . S
H540 C550 0.930 . S
H541 C551 0.930 1_556 S
C542 H536 0.930 . S
C542 C543 1.355 . S
C542 C544 1.415 . S
C543 C542 1.355 . S
C543 C545 1.419 . S
C544 C542 1.415 . S
C544 C549 1.425 . S
C544 C551 1.409 . S
C545 H537 0.930 . S
C545 C543 1.419 . S
C545 C546 1.362 . S
C546 H538 0.930 . S
C546 C545 1.362 . S
C546 C549 1.409 . S
C547 H539 0.930 . S
C547 C548 1.355 . S
C547 C549 1.415 . S
C548 C547 1.355 . S
C548 C550 1.419 1_554 S
C549 C544 1.425 . S
C549 C546 1.409 . S
C549 C547 1.415 . S
C550 H540 0.930 . S
C550 C548 1.419 1_556 S
C550 C551 1.362 1_556 S
C551 H541 0.930 1_554 S
C551 C544 1.409 . S
C551 C550 1.362 1_554 S
H552 C558 0.930 . S
H553 C561 0.930 . S
H554 C562 0.930 . S
H555 C563 0.930 . S
H556 C566 0.930 . S
H557 C567 0.930 . S
C558 H552 0.930 . S
C558 C559 1.355 . S
C558 C560 1.415 . S
C559 C558 1.355 . S
C559 C561 1.419 . S
C560 C558 1.415 . S
C560 C565 1.425 . S
C560 C567 1.409 . S
C561 H553 0.930 . S
C561 C559 1.419 . S
C561 C562 1.362 . S
C562 H554 0.930 . S
C562 C561 1.362 . S
C562 C565 1.409 . S
C563 H555 0.930 . S
C563 C564 1.355 . S
C563 C565 1.415 . S
C564 C563 1.355 . S
C564 C566 1.419 . S
C565 C560 1.425 . S
C565 C562 1.409 . S
C565 C563 1.415 . S
C566 H556 0.930 . S
C566 C564 1.419 . S
C566 C567 1.362 . S
C567 H557 0.930 . S
C567 C560 1.409 . S
C567 C566 1.362 . S
H568 C574 0.930 . S
H569 C577 0.930 . S
H570 C578 0.930 . S
H571 C579 0.930 . S
H572 C582 0.930 . S
H573 C583 0.930 . S
C574 H568 0.930 . S
C574 C575 1.355 1_655 S
C574 C576 1.415 . S
C575 C574 1.355 1_455 S
C575 C577 1.419 . S
C576 C574 1.415 . S
C576 C581 1.425 1_655 S
C576 C583 1.409 . S
C577 H569 0.930 . S
C577 C575 1.419 . S
C577 C578 1.362 . S
C578 H570 0.930 . S
C578 C577 1.362 . S
C578 C581 1.409 . S
C579 H571 0.930 . S
C579 C580 1.355 . S
C579 C581 1.415 . S
C580 C579 1.355 . S
C580 C582 1.419 1_455 S
C581 C576 1.425 1_455 S
C581 C578 1.409 . S
C581 C579 1.415 . S
C582 H572 0.930 . S
C582 C580 1.419 1_655 S
C582 C583 1.362 . S
C583 H573 0.930 . S
C583 C576 1.409 . S
C583 C582 1.362 . S
H584 C590 0.930 . S
H585 C593 0.930 . S
H586 C594 0.930 . S
H587 C595 0.930 . S
H588 C598 0.930 . S
H589 C599 0.930 . S
C590 H584 0.930 . S
C590 C591 1.355 1_565 S
C590 C592 1.415 . S
C591 C590 1.355 1_545 S
C591 C593 1.419 1_554 S
C592 C590 1.415 . S
C592 C597 1.425 1_564 S
C592 C599 1.409 . S
C593 H585 0.930 . S
C593 C591 1.419 1_556 S
C593 C594 1.362 . S
C594 H586 0.930 . S
C594 C593 1.362 . S
C594 C597 1.409 . S
C595 H587 0.930 . S
C595 C596 1.355 . S
C595 C597 1.415 . S
C596 C595 1.355 . S
C596 C598 1.419 1_546 S
C597 C592 1.425 1_546 S
C597 C594 1.409 . S
C597 C595 1.415 . S
C598 H588 0.930 . S
C598 C596 1.419 1_564 S
C598 C599 1.362 . S
C599 H589 0.930 . S
C599 C592 1.409 . S
C599 C598 1.362 . S
H600 C606 0.930 . S
H601 C609 0.930 . S
H602 C610 0.930 . S
H603 C611 0.930 . S
H604 C614 0.930 . S
H605 C615 0.930 1_556 S
C606 H600 0.930 . S
C606 C607 1.355 . S
C606 C608 1.415 . S
C607 C606 1.355 . S
C607 C609 1.419 . S
C608 C606 1.415 . S
C608 C613 1.425 . S
C608 C615 1.409 . S
C609 H601 0.930 . S
C609 C607 1.419 . S
C609 C610 1.362 . S
C610 H602 0.930 . S
C610 C609 1.362 . S
C610 C613 1.409 . S
C611 H603 0.930 . S
C611 C612 1.355 . S
C611 C613 1.415 . S
C612 C611 1.355 . S
C612 C614 1.419 1_554 S
C613 C608 1.425 . S
C613 C610 1.409 . S
C613 C611 1.415 . S
C614 H604 0.930 . S
C614 C612 1.419 1_556 S
C614 C615 1.362 1_556 S
C615 H605 0.930 1_554 S
C615 C608 1.409 . S
C615 C614 1.362 1_554 S
H616 C622 0.930 . S
H617 C625 0.930 . S
H618 C626 0.930 . S
H619 C627 0.930 . S
H620 C630 0.930 . S
H621 C631 0.930 . S
C622 H616 0.930 . S
C622 C623 1.355 . S
C622 C624 1.415 . S
C623 C622 1.355 . S
C623 C625 1.419 . S
C624 C622 1.415 . S
C624 C629 1.425 . S
C624 C631 1.409 . S
C625 H617 0.930 . S
C625 C623 1.419 . S
C625 C626 1.362 . S
C626 H618 0.930 . S
C626 C625 1.362 . S
C626 C629 1.409 . S
C627 H619 0.930 . S
C627 C628 1.355 . S
C627 C629 1.415 . S
C628 C627 1.355 . S
C628 C630 1.419 . S
C629 C624 1.425 . S
C629 C626 1.409 . S
C629 C627 1.415 . S
C630 H620 0.930 . S
C630 C628 1.419 . S
C630 C631 1.362 . S
C631 H621 0.930 . S
C631 C624 1.409 . S
C631 C630 1.362 . S
H632 C638 0.930 1_455 S
H633 C641 0.930 . S
H634 C642 0.930 . S
H635 C643 0.930 . S
H636 C646 0.930 . S
H637 C647 0.930 . S
C638 H632 0.930 1_655 S
C638 C639 1.355 . S
C638 C640 1.415 . S
C639 C638 1.355 . S
C639 C641 1.419 . S
C640 C638 1.415 . S
C640 C645 1.425 . S
C640 C647 1.409 1_655 S
C641 H633 0.930 . S
C641 C639 1.419 . S
C641 C642 1.362 . S
C642 H634 0.930 . S
C642 C641 1.362 . S
C642 C645 1.409 . S
C643 H635 0.930 . S
C643 C644 1.355 . S
C643 C645 1.415 . S
C644 C643 1.355 . S
C644 C646 1.419 1_655 S
C645 C640 1.425 . S
C645 C642 1.409 . S
C645 C643 1.415 . S
C646 H636 0.930 . S
C646 C644 1.419 1_455 S
C646 C647 1.362 . S
C647 H637 0.930 . S
C647 C640 1.409 1_455 S
C647 C646 1.362 . S
H648 C654 0.926 1_545 S
H649 C657 0.930 . S
H650 C658 0.930 . S
H651 C659 0.930 . S
H652 C662 0.930 . S
H653 C663 0.930 . S
C654 H648 0.926 1_565 S
C654 C655 1.356 . S
C654 C656 1.415 . S
C655 C654 1.356 . S
C655 C657 1.424 . S
C656 C654 1.415 . S
C656 C661 1.425 . S
C656 C663 1.409 . S
C657 H649 0.930 . S
C657 C655 1.424 . S
C657 C658 1.362 . S
C658 H650 0.930 . S
C658 C657 1.362 . S
C658 C661 1.409 . S
C659 H651 0.930 . S
C659 C660 1.355 . S
C659 C661 1.415 . S
C660 C659 1.355 . S
C660 C662 1.419 . S
C661 C656 1.425 . S
C661 C658 1.409 . S
C661 C659 1.415 . S
C662 H652 0.930 . S
C662 C660 1.419 . S
C662 C663 1.362 . S
C663 H653 0.930 . S
C663 C656 1.409 . S
C663 C662 1.362 . S
H664 C670 0.930 . S
H665 C673 0.930 . S
H666 C674 0.930 . S
H667 C675 0.930 . S
H668 C678 0.930 . S
H669 C679 0.930 . S
C670 H664 0.930 . S
C670 C671 1.355 . S
C670 C672 1.415 . S
C671 C670 1.355 . S
C671 C673 1.419 . S
C672 C670 1.415 . S
C672 C677 1.425 . S
C672 C679 1.409 . S
C673 H665 0.930 . S
C673 C671 1.419 . S
C673 C674 1.362 . S
C674 H666 0.930 . S
C674 C673 1.362 . S
C674 C677 1.409 . S
C675 H667 0.930 . S
C675 C676 1.355 . S
C675 C677 1.415 . S
C676 C675 1.355 . S
C676 C678 1.419 . S
C677 C672 1.425 . S
C677 C674 1.409 . S
C677 C675 1.415 . S
C678 H668 0.930 . S
C678 C676 1.419 . S
C678 C679 1.362 . S
C679 H669 0.930 . S
C679 C672 1.409 . S
C679 C678 1.362 . S
H680 C686 0.930 . S
H681 C689 0.930 . S
H682 C690 0.930 . S
H683 C691 0.930 . S
H684 C694 0.930 . S
H685 C695 0.930 . S
C686 H680 0.930 . S
C686 C687 1.355 . S
C686 C688 1.415 . S
C687 C686 1.355 . S
C687 C689 1.419 . S
C688 C686 1.415 . S
C688 C693 1.425 . S
C688 C695 1.409 . S
C689 H681 0.930 . S
C689 C687 1.419 . S
C689 C690 1.362 . S
C690 H682 0.930 . S
C690 C689 1.362 . S
C690 C693 1.409 . S
C691 H683 0.930 . S
C691 C692 1.355 . S
C691 C693 1.415 . S
C692 C691 1.355 . S
C692 C694 1.419 . S
C693 C688 1.425 . S
C693 C690 1.409 . S
C693 C691 1.415 . S
C694 H684 0.930 . S
C694 C692 1.419 . S
C694 C695 1.362 . S
C695 H685 0.930 . S
C695 C688 1.409 . S
C695 C694 1.362 . S
C319 C125 2.085 1_545 S
C324 C154 2.098 . S
C340 C194 2.057 . S
C335 C144 1.979 . S
C356 C258 1.899 . S
C351 C87 1.910 . S
C372 C274 1.753 . S
C367 C106 1.678 . S
C388 C175 2.104 1_564 S
C383 C49 2.070 . S
C399 C68 2.009 . S
C404 C215 2.061 . S
C415 C11 2.012 . S
C420 C249 1.952 . S
C431 C30 1.712 . S
C436 C295 1.730 1_654 S
C452 C169 0.617 . S
C447 C97 0.649 . S
C468 C209 0.860 . S
C463 C116 0.893 . S
C484 C245 0.954 . S
C479 C135 0.932 . S
C495 C78 0.651 . S
C500 C289 0.616 . S
C511 C21 0.477 . S
C516 C178 0.473 . S
C532 C218 0.898 . S
C527 C40 0.930 1_545 S
C548 C256 0.969 1_554 S
C543 C59 0.966 . S
C559 C2 0.667 . S
C564 C298 0.714 . S
C575 C101 1.837 1_556 S
C580 C176 2.051 . S
C591 C120 1.982 1_545 S
C596 C216 2.115 . S
C612 C234 1.618 1_554 S
C607 C139 1.611 . S
C628 C296 2.547 . S
C623 C82 2.265 . S
C639 C25 1.815 . S
C644 C165 2.058 . S
C660 C205 2.132 . S
C655 C44 1.993 . S
C676 C255 1.678 . S
C671 C63 1.671 . S
C687 C6 2.251 . S
C692 C285 2.541 . S
