# Generated by pormake.
# Topology zzz, (3,6)-cn, num edge types: 1
# Building blocks:
#     Node 0, Type 0, BuildingBlock: QEWDON_clean_linker_0, # of connection points: 3
#     Node 1, Type 0, BuildingBlock: QEWDON_clean_linker_0, # of connection points: 3
#     Node 2, Type 0, BuildingBlock: QEWDON_clean_linker_0, # of connection points: 3
#     Node 3, Type 0, BuildingBlock: QEWDON_clean_linker_0, # of connection points: 3
#     Node 4, Type 0, BuildingBlock: QEWDON_clean_linker_0, # of connection points: 3
#     Node 5, Type 0, BuildingBlock: QEWDON_clean_linker_0, # of connection points: 3
#     Node 6, Type 0, BuildingBlock: QEWDON_clean_linker_0, # of connection points: 3
#     Node 7, Type 0, BuildingBlock: QEWDON_clean_linker_0, # of connection points: 3
#     Node 8, Type 1, BuildingBlock: KUMJIN_clean_sbu_1, # of connection points: 6
#     Node 9, Type 1, BuildingBlock: KUMJIN_clean_sbu_1, # of connection points: 6
#     Node 10, Type 1, BuildingBlock: KUMJIN_clean_sbu_1, # of connection points: 6
#     Node 11, Type 1, BuildingBlock: KUMJIN_clean_sbu_1, # of connection points: 6
#     Edge 12, Type (0, 1), BuildingBlock: KIFKEQ_clean_linker_1, # of connection points: 2
#     Edge 13, Type (0, 1), BuildingBlock: KIFKEQ_clean_linker_1, # of connection points: 2
#     Edge 14, Type (0, 1), BuildingBlock: KIFKEQ_clean_linker_1, # of connection points: 2
#     Edge 15, Type (0, 1), BuildingBlock: KIFKEQ_clean_linker_1, # of connection points: 2
#     Edge 16, Type (0, 1), BuildingBlock: KIFKEQ_clean_linker_1, # of connection points: 2
#     Edge 17, Type (0, 1), BuildingBlock: KIFKEQ_clean_linker_1, # of connection points: 2
#     Edge 18, Type (0, 1), BuildingBlock: KIFKEQ_clean_linker_1, # of connection points: 2
#     Edge 19, Type (0, 1), BuildingBlock: KIFKEQ_clean_linker_1, # of connection points: 2
#     Edge 20, Type (0, 1), BuildingBlock: KIFKEQ_clean_linker_1, # of connection points: 2
#     Edge 21, Type (0, 1), BuildingBlock: KIFKEQ_clean_linker_1, # of connection points: 2
#     Edge 22, Type (0, 1), BuildingBlock: KIFKEQ_clean_linker_1, # of connection points: 2
#     Edge 23, Type (0, 1), BuildingBlock: KIFKEQ_clean_linker_1, # of connection points: 2
#     Edge 24, Type (0, 1), BuildingBlock: KIFKEQ_clean_linker_1, # of connection points: 2
#     Edge 25, Type (0, 1), BuildingBlock: KIFKEQ_clean_linker_1, # of connection points: 2
#     Edge 26, Type (0, 1), BuildingBlock: KIFKEQ_clean_linker_1, # of connection points: 2
#     Edge 27, Type (0, 1), BuildingBlock: KIFKEQ_clean_linker_1, # of connection points: 2
#     Edge 28, Type (0, 1), BuildingBlock: KIFKEQ_clean_linker_1, # of connection points: 2
#     Edge 29, Type (0, 1), BuildingBlock: KIFKEQ_clean_linker_1, # of connection points: 2
#     Edge 30, Type (0, 1), BuildingBlock: KIFKEQ_clean_linker_1, # of connection points: 2
#     Edge 31, Type (0, 1), BuildingBlock: KIFKEQ_clean_linker_1, # of connection points: 2
#     Edge 32, Type (0, 1), BuildingBlock: KIFKEQ_clean_linker_1, # of connection points: 2
#     Edge 33, Type (0, 1), BuildingBlock: KIFKEQ_clean_linker_1, # of connection points: 2
#     Edge 34, Type (0, 1), BuildingBlock: KIFKEQ_clean_linker_1, # of connection points: 2
#     Edge 35, Type (0, 1), BuildingBlock: KIFKEQ_clean_linker_1, # of connection points: 2
# Relax obj value: 0.113
# Max RMSD: 0.093
# Mean RMSD: 0.037
data_MOF--net-zzz--node1-KUMJIN_clean_sbu_1--node2-QEWDON_clean_linker_0--edge1-KIFKEQ_clean_linker_1
_symmetry_space_group_name_H-M    P1
_symmetry_Int_Tables_number       1
_symmetry_cell_setting            triclinic
loop_
_symmetry_equiv_pos_as_xyz
'x, y, z'
_cell_length_a     53.812758
_cell_length_b     53.81474
_cell_length_c     15.664857
_cell_angle_alpha  89.63842
_cell_angle_beta   90.215982
_cell_angle_gamma 90.122887
loop_
_atom_site_label
_atom_site_type_symbol
_atom_site_fract_x
_atom_site_fract_y
_atom_site_fract_z
_atom_type_partial_charge
H0 H 0.76856 0.59023 0.18741 0.0
C1 C 0.78138 0.58328 0.2352 0.0
C2 C 0.80631 0.59057 0.22971 0.0
C3 C 0.77318 0.56751 0.30179 0.0
H4 H 0.84285 0.58765 0.2849 0.0
C5 C 0.82342 0.58245 0.29112 0.0
C6 C 0.8165 0.56627 0.35666 0.0
C7 C 0.79131 0.55861 0.36192 0.0
C8 C 0.74574 0.56159 0.30975 0.0
H9 H 0.78605 0.54578 0.41218 0.0
C10 C 0.72917 0.56161 0.23802 0.0
C11 C 0.70309 0.55875 0.24864 0.0
C12 C 0.73546 0.55768 0.39125 0.0
H13 H 0.74695 0.55811 0.44804 0.0
C14 C 0.70998 0.55407 0.40166 0.0
H15 H 0.73632 0.56427 0.17416 0.0
C16 C 0.69397 0.55472 0.33154 0.0
H17 H 0.67429 0.55188 0.34237 0.0
H18 H 0.70248 0.55114 0.46499 0.0
H19 H 0.98728 0.77646 0.155 0.0
C20 C 0.99348 0.78955 0.20241 0.0
C21 C 0.98141 0.81262 0.20422 0.0
C22 C 1.01336 0.78403 0.25881 0.0
H23 H 0.97917 0.84825 0.26505 0.0
C24 C 0.98818 0.83022 0.26537 0.0
C25 C 1.00814 0.82622 0.32071 0.0
C26 C 1.02109 0.80339 0.31606 0.0
C27 C 1.02594 0.75857 0.25707 0.0
H28 H 0.0371 0.80127 0.35704 0.0
C29 C 1.02184 0.7406 0.19082 0.0
C30 C 0.03332 0.71676 0.19295 0.0
C31 C 0.0419 0.75151 0.32464 0.0
H32 H 0.04513 0.76322 0.37916 0.0
C33 C 0.05406 0.72872 0.32493 0.0
H34 H 1.00961 0.74461 0.13795 0.0
C35 C 0.05008 0.71171 0.25994 0.0
H36 H 0.0603 0.69443 0.26277 0.0
H37 H 0.06659 0.72407 0.37686 0.0
H38 H 0.78982 0.99748 0.14521 0.0
C39 C 0.77859 1.00455 0.19675 0.0
C40 C 0.7527 1.00187 0.19135 0.0
C41 C 0.78968 1.01554 0.26947 0.0
H42 H 0.71761 1.00745 0.25332 0.0
C43 C 0.73762 1.00981 0.25814 0.0
C44 C 0.74765 1.02062 0.33092 0.0
C45 C 0.77366 1.02384 0.33634 0.0
C46 C 0.81772 1.01716 0.27748 0.0
H47 H 0.78111 0.03292 0.39229 0.0
C48 C 0.83392 1.01788 0.20526 0.0
C49 C 0.86022 1.01817 0.21557 0.0
C50 C 0.82868 1.01693 0.35932 0.0
H51 H 0.81757 1.01532 0.41645 0.0
C52 C 0.85434 1.01818 0.36969 0.0
H53 H 0.82628 1.01795 0.14134 0.0
C54 C 0.86991 1.01892 0.29908 0.0
H55 H 0.88974 1.02011 0.31038 0.0
H56 H 0.86228 1.0183 0.4333 0.0
H57 H 0.5725 0.79461 0.11753 0.0
C58 C 0.5695 0.78142 0.16874 0.0
C59 C 0.57143 0.75626 0.14899 0.0
C60 C 0.56368 0.78936 0.25182 0.0
H61 H 0.57001 0.71892 0.19686 0.0
C62 C 0.56928 0.73841 0.21378 0.0
C63 C 0.56473 0.74502 0.29876 0.0
C64 C 0.56118 0.77066 0.31717 0.0
C65 C 0.56077 0.81705 0.26805 0.0
H66 H 0.55658 0.77574 0.38183 0.0
C67 C 0.5557 0.83446 0.20059 0.0
C68 C 0.55472 0.86041 0.21528 0.0
C69 C 0.56411 0.82664 0.35073 0.0
H70 H 0.56865 0.81467 0.40417 0.0
C71 C 0.5624 0.85214 0.36598 0.0
H72 H 0.55206 0.8282 0.13637 0.0
C73 C 0.55785 0.86885 0.29925 0.0
H74 H 0.55736 0.88853 0.31321 0.0
H75 H 0.56511 0.85908 0.43008 0.0
H76 H 0.28844 0.50634 0.2089 0.0
C77 C 0.27661 0.51016 0.15441 0.0
C78 C 0.251 0.51203 0.16809 0.0
C79 C 0.28675 0.5125 0.07188 0.0
H80 H 0.21518 0.51786 0.11 0.0
C81 C 0.23498 0.51598 0.09879 0.0
C82 C 0.24395 0.51834 0.01551 0.0
C83 C 0.26995 0.51659 1.00193 0.0
C84 C 0.31454 0.50944 0.06021 0.0
H85 H 0.2769 0.51896 0.93767 0.0
C86 C 0.33206 0.51445 0.12703 0.0
C87 C 0.35763 0.50855 0.1182 0.0
C88 C 0.3237 0.49961 0.98349 0.0
H89 H 0.31134 0.49492 0.93143 0.0
C90 C 0.34897 0.4947 0.97344 0.0
H91 H 0.32595 0.52238 0.18664 0.0
C92 C 0.3657 0.49887 0.04004 0.0
H93 H 0.38512 0.49449 0.03026 0.0
H94 H 0.35558 0.48707 0.91394 0.0
H95 H 0.06353 0.29539 0.20456 0.0
C96 C 0.06178 0.28312 0.15071 0.0
C97 C 0.06217 0.25757 0.16795 0.0
C98 C 0.05945 0.29242 0.06655 0.0
H99 H 0.06139 0.22093 0.11456 0.0
C100 C 0.06155 0.2407 0.10054 0.0
C101 C 0.05994 0.24864 0.01556 0.0
C102 C 0.05806 0.27453 0.99878 0.0
C103 C 0.05909 0.32049 0.05093 0.0
H104 H 0.05573 0.28026 0.93311 0.0
C105 C 0.05533 0.33824 0.11786 0.0
C106 C 0.05663 0.36432 0.10258 0.0
C107 C 0.06353 0.33002 0.96837 0.0
H108 H 0.0674 0.31807 0.91504 0.0
C109 C 0.06359 0.3555 0.95223 0.0
H110 H 0.05168 0.3322 0.18229 0.0
C111 C 0.06014 0.37242 0.01797 0.0
H112 H 0.06021 0.39201 1.00196 0.0
H113 H 0.06669 0.36219 0.88788 0.0
H114 H 0.26879 0.08195 0.14527 0.0
C115 C 0.28159 0.07553 0.09725 0.0
C116 C 0.30583 0.08509 0.09875 0.0
C117 C 0.27437 0.05759 0.0364 0.0
H118 H 0.34192 0.08449 0.03963 0.0
C119 C 0.32292 0.07771 0.03671 0.0
C120 C 0.31702 0.05962 0.97687 0.0
C121 C 0.2928 0.04928 0.97716 0.0
C122 C 0.24796 0.04753 0.03585 0.0
H123 H 0.28882 0.03449 0.93278 0.0
C124 C 0.23195 0.04858 0.10864 0.0
C125 C 0.2072 0.03941 0.10526 0.0
C126 C 0.23817 0.03718 0.96043 0.0
H127 H 0.24884 0.03668 0.90217 0.0
C128 C 0.21407 1.02766 0.9576 0.0
H129 H 0.23857 0.05586 0.1687 0.0
C130 C 0.19874 0.02878 0.02886 0.0
H131 H 0.17994 1.02167 0.02363 0.0
H132 H 0.2071 1.01962 0.89901 0.0
H133 H 0.48531 0.27039 0.17126 0.0
C134 C 0.49196 0.28479 0.12854 0.0
C135 C 0.48471 0.30925 0.14457 0.0
C136 C 0.5087 0.27912 0.06291 0.0
H137 H 0.48651 0.34727 0.10028 0.0
C138 C 0.49165 0.32819 0.08735 0.0
C139 C 0.507 0.32335 0.01748 0.0
C140 C 0.51597 0.29878 1.00614 0.0
C141 C 0.51854 0.25281 0.05694 0.0
H142 H 0.52905 0.29536 0.95529 0.0
C143 C 0.51982 0.23659 0.12977 0.0
C144 C 0.52681 0.21129 0.1221 0.0
C145 C 0.52567 0.24323 0.97748 0.0
H146 H 0.52467 0.25447 0.92009 0.0
C147 C 0.53358 0.21866 0.97008 0.0
H148 H 0.51501 0.24332 0.19242 0.0
C149 C 0.53404 0.20286 0.04107 0.0
H150 H 0.54018 0.1839 0.03224 0.0
H151 H 0.53904 0.21164 0.9083 0.0
Eu152 Eu 1.00909 0.05276 0.58468 0.0
C153 C 0.11221 0.03395 0.81002 0.0
N154 N 0.09862 1.01942 0.75724 0.0
C155 C 0.13586 1.0005 0.70521 0.0
C156 C 0.13837 0.03316 0.81012 0.0
C157 C 0.1099 1.00186 0.70846 0.0
C158 C 0.1502 1.01658 0.7551 0.0
C159 C 0.11292 0.06138 0.93166 0.0
C160 C 0.09974 0.04788 0.86929 0.0
C161 C 0.13902 0.06207 0.92882 0.0
C162 C 0.15172 0.04811 0.86759 0.0
Eu163 Eu 0.05497 1.02484 0.75745 0.0
N164 N 0.07466 0.04632 0.87065 0.0
C165 C 0.09949 0.07286 0.9968 0.0
C166 C 0.06158 0.05605 0.93693 0.0
C167 C 0.07371 0.06978 1.0003 0.0
H168 H 0.09878 0.98934 0.67037 0.0
H169 H 0.06318 0.07796 0.05167 0.0
H170 H 0.96153 1.01301 0.57176 0.0
H171 H 0.04504 0.11403 0.33449 0.0
H172 H 0.04165 0.05367 0.93975 0.0
H173 H 0.10889 0.08336 0.04614 0.0
H174 H 0.03727 0.09987 0.48252 0.0
H175 H 0.14477 0.98704 0.66447 0.0
H176 H 0.14954 0.07264 0.97527 0.0
H177 H 0.17182 0.04833 0.86712 0.0
H178 H 0.93758 0.99052 0.46114 0.0
H179 H 0.17029 1.01536 0.75317 0.0
H180 H 0.02719 0.09065 0.21305 0.0
N181 N 0.98422 0.03214 0.48217 0.0
C182 C 0.98852 0.03736 0.39886 0.0
C183 C 0.952 1.00351 0.44266 0.0
C184 C 0.97531 1.02514 0.33346 0.0
C185 C 0.96558 1.01624 0.50508 0.0
C186 C 0.95715 1.00768 0.35638 0.0
N187 N 1.01566 0.06867 0.44502 0.0
C188 C 0.02927 0.08968 0.42989 0.0
C189 C 1.00868 0.06366 0.29405 0.0
C190 C 1.00485 0.0563 0.37957 0.0
C191 C 1.02375 0.08438 0.27782 0.0
C192 C 0.03379 0.09767 0.34618 0.0
H193 H 0.94654 0.99793 0.3081 0.0
H194 H 0.97031 1.02195 0.19665 0.0
H195 H 0.99962 0.05576 0.16184 0.0
O196 O 0.97674 0.076 0.5568 0.0
O197 O 1.011 1.01031 0.59345 0.0
O198 O 0.05145 1.00294 0.6331 0.0
O199 O 0.99245 0.07574 0.68364 0.0
O200 O 0.04925 0.05367 0.53507 0.0
O201 O 0.07514 0.03277 0.63175 0.0
O202 O 0.03148 0.99199 0.77339 0.0
O203 O 0.04212 0.06498 0.77327 0.0
O204 O 0.0393 0.0789 0.63576 0.0
O205 O 0.062 0.99834 0.86081 0.0
O206 O 1.01794 0.04134 0.795 0.0
O207 O 0.99445 1.02635 0.68755 0.0
C208 C 0.03088 0.99599 0.59396 0.0
C209 C 0.97308 0.11233 0.63909 0.0
C210 C 0.98828 0.15405 0.60672 0.0
C211 C 0.96786 0.16393 0.65106 0.0
C212 C 0.95295 0.12243 0.68314 0.0
C213 C 0.95044 0.14817 0.68941 0.0
C214 C 0.99085 0.12807 0.60254 0.0
C215 C 0.07103 0.04427 0.55802 0.0
C216 C 0.97581 0.08536 0.6333 0.0
C217 C 0.98 0.03139 0.2478 0.0
C218 C 0.99669 0.05063 0.22806 0.0
C219 C 0.04341 0.08326 0.7172 0.0
C220 C 1.02477 0.98078 0.91656 0.0
C221 C 0.98968 0.95684 0.97409 0.0
C222 C 0.99269 0.96977 0.05191 0.0
C223 C 0.02727 0.9932 0.99454 0.0
C224 C 1.00551 0.96344 0.90585 0.0
C225 C 1.01102 0.98796 0.06122 0.0
C226 C 0.99698 0.03146 0.76899 0.0
C227 C 0.04191 0.98554 0.84509 0.0
H228 H 0.96492 0.18379 0.65438 0.0
H229 H 0.93921 0.11042 0.71259 0.0
H230 H 0.93478 0.15594 0.72308 0.0
H231 H 1.00662 0.1199 0.57081 0.0
H232 H 0.98174 0.96546 0.10768 0.0
H233 H 0.0417 1.00696 1.0041 0.0
H234 H 1.00348 0.95497 0.84389 0.0
H235 H 1.01306 0.99756 0.12138 0.0
Eu236 Eu 0.54809 0.0569 0.78001 0.0
C237 C 0.54339 0.96112 0.57673 0.0
N238 N 0.55103 0.98377 0.54807 0.0
C239 C 0.58678 0.9651 0.4837 0.0
C240 C 0.55779 0.93965 0.56287 0.0
C241 C 0.57174 0.98579 0.49829 0.0
C242 C 0.58 0.94199 0.51738 0.0
C243 C 0.51107 0.93577 0.64129 0.0
C244 C 0.52029 0.95912 0.61505 0.0
C245 C 0.52587 0.91453 0.63136 0.0
C246 C 0.54917 0.91646 0.59215 0.0
Eu247 Eu 0.52509 1.01786 0.58255 0.0
N248 N 0.50642 0.97997 0.62401 0.0
C249 C 0.48699 0.93441 0.67475 0.0
C250 C 0.4824 0.97861 0.65154 0.0
C251 C 0.47247 0.95588 0.67868 0.0
H252 H 0.57661 1.00323 0.46835 0.0
H253 H 0.45365 0.95492 0.70262 0.0
H254 H 0.49741 0.09106 0.81391 0.0
H255 H 0.64525 0.08704 0.76485 0.0
H256 H 0.47123 0.99523 0.65458 0.0
H257 H 0.47924 0.91682 0.69571 0.0
H258 H 0.61102 0.05729 0.78707 0.0
H259 H 0.60341 0.96693 0.44551 0.0
H260 H 0.51921 0.89644 0.65181 0.0
H261 H 0.56008 0.89981 0.58271 0.0
H262 H 0.48514 0.13537 0.81448 0.0
H263 H 0.59156 0.92594 0.50523 0.0
H264 H 0.63612 0.13169 0.74339 0.0
N265 N 0.53499 0.09872 0.78188 0.0
C266 C 0.55274 0.11633 0.76988 0.0
C267 C 0.50417 0.13026 0.80117 0.0
C268 C 0.54664 0.1418 0.76975 0.0
C269 C 0.51112 0.10523 0.80065 0.0
C270 C 0.52194 0.14863 0.78467 0.0
N271 N 0.58256 0.08422 0.7684 0.0
C272 C 0.60668 0.07647 0.7733 0.0
C273 C 0.59627 0.12667 0.75219 0.0
C274 C 0.57721 0.10882 0.76157 0.0
C275 C 0.62096 0.11857 0.75058 0.0
C276 C 0.62619 0.09339 0.76254 0.0
H277 H 0.51652 0.16801 0.78538 0.0
H278 H 0.56106 0.17923 0.75582 0.0
H279 H 0.60454 0.16598 0.74003 0.0
O280 O 0.56615 0.06382 0.90298 0.0
O281 O 0.53035 0.07836 0.66648 0.0
O282 O 0.54385 0.0547 0.55654 0.0
O283 O 0.52953 0.04745 0.89942 0.0
O284 O 0.579 0.03544 0.71108 0.0
O285 O 0.5648 0.03326 0.57248 0.0
O286 O 0.49407 0.03235 0.51023 0.0
O287 O 0.52319 1.00184 0.71833 0.0
O288 O 0.5595 1.01641 0.76989 0.0
O289 O 0.5189 1.00562 0.4494 0.0
O290 O 0.49426 0.03966 0.64778 0.0
O291 O 0.5076 0.04422 0.78682 0.0
C292 C 0.53585 0.07604 0.58498 0.0
C293 C 0.55746 0.03045 0.9987 0.0
C294 C 0.5889 0.99925 0.03498 0.0
C295 C 0.57108 0.98651 0.08435 0.0
C296 C 0.54013 1.01756 0.04915 0.0
C297 C 0.54694 0.99571 0.09152 0.0
C298 C 0.58184 1.02129 0.99255 0.0
C299 C 0.58324 0.03381 0.62839 0.0
C300 C 0.54919 0.05171 0.94567 0.0
C301 C 0.56541 0.15958 0.75691 0.0
C302 C 0.59017 0.15203 0.74785 0.0
C303 C 0.54256 0.99896 0.7683 0.0
C304 C 0.48453 1.02268 0.3638 0.0
C305 C 0.45062 0.04352 0.28844 0.0
C306 C 0.45599 0.0294 0.21542 0.0
C307 C 0.48968 1.00878 0.29055 0.0
C308 C 0.46518 0.04012 0.36191 0.0
C309 C 0.47546 1.01222 0.21661 0.0
C310 C 0.48968 0.04277 0.72952 0.0
C311 C 0.49972 1.02019 0.44155 0.0
H312 H 0.57566 0.96925 0.11657 0.0
H313 H 0.52116 1.02409 0.05409 0.0
H314 H 0.53336 0.98568 0.12925 0.0
H315 H 0.59534 0.03136 0.95464 0.0
H316 H 0.44492 0.03128 0.15788 0.0
H317 H 0.50472 0.99543 0.29024 0.0
H318 H 0.46159 0.05137 0.41765 0.0
H319 H 0.47947 1.00146 0.16016 0.0
Eu320 Eu 0.55686 0.52263 0.60047 0.0
C321 C 0.48387 0.51206 0.89006 0.0
N322 N 0.48022 0.52015 0.80875 0.0
C323 C 0.44412 0.49425 0.79571 0.0
C324 C 0.46844 0.49357 0.92594 0.0
C325 C 0.46002 0.51249 0.76271 0.0
C326 C 0.4486 0.48442 0.87715 0.0
C327 C 0.50585 0.516 0.02456 0.0
C328 C 0.50227 0.52325 0.93864 0.0
C329 C 0.49151 0.49657 0.05915 0.0
C330 C 0.47279 0.48543 1.01002 0.0
Eu331 Eu 0.50757 0.55113 0.75729 0.0
N332 N 0.51528 0.54251 0.9041 0.0
C333 C 0.52296 0.5292 0.07427 0.0
C334 C 0.53025 0.55679 0.95471 0.0
C335 C 0.53485 0.54999 0.03962 0.0
H336 H 0.45665 0.52011 0.69973 0.0
H337 H 0.54722 0.56104 0.07871 0.0
H338 H 0.61271 0.52255 0.70119 0.0
H339 H 0.53657 0.55146 0.2734 0.0
H340 H 0.53843 0.57373 0.93043 0.0
H341 H 0.52628 0.52417 0.14041 0.0
H342 H 0.52932 0.5297 0.41051 0.0
H343 H 0.42848 0.48774 0.75834 0.0
H344 H 0.49415 0.49062 0.12478 0.0
H345 H 0.46132 0.47104 0.03844 0.0
H346 H 0.65323 0.54354 0.68913 0.0
H347 H 0.43627 0.47028 0.90258 0.0
H348 H 0.57508 0.57594 0.25243 0.0
N349 N 0.59735 0.54004 0.59091 0.0
C350 C 0.60225 0.55384 0.52 0.0
C351 C 0.63893 0.54693 0.64173 0.0
C352 C 0.62554 0.56551 0.50867 0.0
C353 C 0.61568 0.53547 0.64941 0.0
C354 C 0.64376 0.56234 0.57171 0.0
N355 N 0.56288 0.54239 0.46708 0.0
C356 C 0.54605 0.54045 0.40206 0.0
C357 C 0.58958 0.56749 0.37852 0.0
C358 C 0.58457 0.55483 0.45572 0.0
C359 C 0.5719 0.56652 0.31278 0.0
C360 C 0.55016 0.55269 0.3243 0.0
H361 H 0.6619 0.57093 0.56532 0.0
H362 H 0.64789 0.5884 0.42414 0.0
H363 H 0.61628 0.59024 0.31028 0.0
O364 O 0.54459 0.48706 0.55562 0.0
O365 O 0.54116 0.56118 0.56763 0.0
O366 O 0.53509 0.57873 0.69859 0.0
O367 O 0.58456 0.49536 0.55421 0.0
O368 O 0.51631 0.51623 0.56001 0.0
O369 O 0.49424 0.54834 0.61993 0.0
O370 O 0.48802 0.57745 0.83876 0.0
O371 O 0.50947 0.50887 0.73334 0.0
O372 O 0.55094 0.50427 0.7293 0.0
O373 O 0.47582 0.57212 0.70902 0.0
O374 O 0.54812 0.56232 0.7873 0.0
O375 O 0.56981 0.52859 0.73798 0.0
C376 C 0.5401 0.58097 0.61666 0.0
C377 C 0.57078 0.45364 0.51092 0.0
C378 C 0.55307 0.41272 0.48601 0.0
C379 C 0.57707 0.40295 0.47667 0.0
C380 C 0.59472 0.44388 0.50014 0.0
C381 C 0.59779 0.41858 0.48302 0.0
C382 C 0.55009 0.43797 0.50273 0.0
C383 C 0.49639 0.53046 0.56366 0.0
C384 C 0.56702 0.47897 0.54224 0.0
C385 C 0.6302 0.57915 0.4336 0.0
C386 C 0.61225 0.58014 0.36866 0.0
C387 C 0.52915 0.49513 0.74859 0.0
C388 C 0.47205 0.61212 0.76352 0.0
C389 C 0.49197 0.65289 0.76335 0.0
C390 C 0.46943 0.66349 0.73532 0.0
C391 C 0.44979 0.62294 0.73564 0.0
C392 C 0.49316 0.62698 0.77491 0.0
C393 C 0.44859 0.64853 0.72091 0.0
C394 C 0.56791 0.54781 0.78924 0.0
C395 C 0.47341 0.58521 0.77774 0.0
H396 H 0.57971 0.38345 0.46265 0.0
H397 H 0.61099 0.45557 0.50739 0.0
H398 H 0.61628 0.41105 0.47534 0.0
H399 H 0.53147 0.4452 0.5113 0.0
H400 H 0.46756 0.68339 0.72725 0.0
H401 H 0.43341 0.61161 0.72524 0.0
H402 H 0.51042 0.61824 0.79412 0.0
H403 H 0.43132 0.65686 0.69985 0.0
Eu404 Eu 0.04705 0.56291 0.57759 0.0
C405 C 0.04253 0.45935 0.78475 0.0
N406 N 1.02442 0.47066 0.73869 0.0
C407 C 1.012 0.43134 0.68084 0.0
C408 C 0.0469 0.43363 0.77795 0.0
C409 C 1.00822 0.45687 0.69109 0.0
C410 C 0.03178 0.41973 0.72314 0.0
C411 C 0.07203 0.46181 0.90125 0.0
C412 C 0.05491 0.47316 0.84503 0.0
C413 C 0.07786 0.43657 0.89096 0.0
C414 C 0.06535 0.42251 0.82905 0.0
Eu415 Eu 1.02144 0.51459 0.74944 0.0
N416 N 0.04831 0.49722 0.85406 0.0
C417 C 0.08185 0.4759 0.96829 0.0
C418 C 0.05639 0.51052 0.92279 0.0
C419 C 0.07361 0.50024 0.98006 0.0
H420 H 0.99276 0.46578 0.65902 0.0
H421 H 0.08047 0.51109 0.03315 0.0
H422 H 1.00633 0.60952 0.56455 0.0
H423 H 0.1046 0.52704 0.31913 0.0
H424 H 0.05 0.52936 0.93199 0.0
H425 H 0.09502 0.46788 0.01306 0.0
H426 H 0.09386 0.53696 0.46827 0.0
H427 H 0.99963 0.42063 0.64067 0.0
H428 H 0.09125 0.42754 0.93259 0.0
H429 H 0.06938 0.40289 0.82349 0.0
H430 H 0.98 0.63039 0.45586 0.0
H431 H 0.03452 0.39991 0.71594 0.0
H432 H 0.07706 0.54078 0.20095 0.0
N433 N 1.02359 0.58564 0.4752 0.0
C434 C 0.02666 0.57994 0.39191 0.0
C435 C 0.99293 0.61609 0.43695 0.0
C436 C 1.01225 0.5914 0.32746 0.0
C437 C 1.00785 0.60427 0.49827 0.0
C438 C 0.99482 0.60931 0.35124 0.0
N439 N 0.06027 0.55546 0.4352 0.0
C440 C 0.08178 0.54313 0.41716 0.0
C441 C 0.05114 0.5592 0.28486 0.0
C442 C 0.04573 0.56421 0.37108 0.0
C443 C 0.07225 0.54511 0.2663 0.0
C444 C 0.08787 0.53741 0.33277 0.0
H445 H 0.98337 0.61858 0.30376 0.0
H446 H 1.00529 0.59359 0.19114 0.0
H447 H 0.03946 0.56531 0.15363 0.0
O448 O 0.07076 0.59463 0.54486 0.0
O449 O 1.00458 0.55995 0.58951 0.0
O450 O 0.99783 0.51931 0.6288 0.0
O451 O 0.06816 0.58247 0.67578 0.0
O452 O 0.05408 0.522 0.5438 0.0
O453 O 1.02403 0.49903 0.61388 0.0
O454 O 0.98693 0.53348 0.78003 0.0
O455 O 0.05967 0.53268 0.76474 0.0
O456 O 0.0742 0.53385 0.62946 0.0
O457 O 0.99737 0.50052 0.851 0.0
O458 O 0.03365 0.55295 0.79263 0.0
O459 O 1.02061 0.57673 0.68096 0.0
C460 C 0.9899 0.54033 0.59506 0.0
C461 C 0.10615 0.59886 0.6329 0.0
C462 C 0.14732 0.58167 0.60721 0.0
C463 C 0.15778 0.60129 0.65444 0.0
C464 C 0.11679 0.61826 0.67967 0.0
C465 C 0.14254 0.61933 0.69088 0.0
C466 C 0.12133 0.58037 0.59891 0.0
C467 C 0.04035 0.50178 0.55201 0.0
C468 C 0.07915 0.59733 0.62246 0.0
C469 C 1.01643 0.58532 0.24157 0.0
C470 C 0.03587 0.56921 0.22025 0.0
C471 C 0.07829 0.53068 0.7114 0.0
C472 C 0.97638 0.53276 0.92492 0.0
C473 C 0.95102 0.5642 0.99546 0.0
C474 C 0.96316 0.5583 0.07311 0.0
C475 C 0.98828 0.52735 1.00267 0.0
C476 C 0.95844 0.5516 0.9214 0.0
C477 C 0.98183 0.5403 0.07611 0.0
C478 C 1.0245 0.57393 0.7634 0.0
C479 C 0.98235 0.51943 0.8459 0.0
H480 H 0.17772 0.60318 0.66121 0.0
H481 H 0.10521 0.63249 0.70756 0.0
H482 H 0.15074 0.63442 0.72672 0.0
H483 H 0.11275 0.56504 0.56555 0.0
H484 H 0.95787 0.56684 0.13258 0.0
H485 H 1.00251 0.51319 1.00684 0.0
H486 H 0.95025 0.55616 0.86012 0.0
H487 H 0.99093 0.53599 0.13613 0.0
H488 H 0.19541 0.07959 0.20652 0.0
H489 H 0.17843 1.00202 0.17064 0.0
H490 H 0.1631 0.08194 0.31697 0.0
H491 H 0.14634 1.0043 0.27962 0.0
H492 H 0.1068 1.00917 0.53372 0.0
H493 H 0.1409 1.00908 0.43243 0.0
H494 H 0.11646 0.07986 0.3325 0.0
H495 H 0.08248 0.08021 0.4369 0.0
C496 C 0.18507 0.06296 0.22304 0.0
C497 C 0.18967 0.04059 0.17973 0.0
C498 C 0.16631 0.06437 0.28564 0.0
C499 C 0.15193 0.04333 0.30762 0.0
C500 C 0.15706 1.02087 0.26551 0.0
C501 C 0.17548 1.01956 0.20255 0.0
C502 C 0.10891 1.02501 0.49172 0.0
C503 C 0.09195 0.04484 0.4949 0.0
C504 C 0.12836 1.02479 0.43232 0.0
C505 C 0.13163 0.04445 0.37363 0.0
C506 C 0.11478 0.06449 0.37702 0.0
C507 C 0.09509 0.06458 0.43639 0.0
H508 H 0.54012 0.21829 0.2926 0.0
H509 H 0.51114 0.16276 0.12114 0.0
H510 H 0.54139 0.18714 0.408 0.0
H511 H 0.51253 0.13201 0.23494 0.0
H512 H 0.54676 0.07573 0.41504 0.0
H513 H 0.54372 0.10897 0.31078 0.0
H514 H 0.5174 0.1587 0.50547 0.0
H515 H 0.52047 0.1249 0.61143 0.0
C516 C 0.53379 0.19959 0.27942 0.0
C517 C 0.52599 0.19314 0.19629 0.0
C518 C 0.53452 0.18166 0.34583 0.0
C519 C 0.52751 0.15674 0.33107 0.0
C520 C 0.51878 0.15069 0.24887 0.0
C521 C 0.51801 0.16848 0.18306 0.0
C522 C 0.54029 0.09367 0.43649 0.0
C523 C 0.53391 0.09739 0.52268 0.0
C524 C 0.53839 0.11287 0.37592 0.0
C525 C 0.53006 0.13671 0.39865 0.0
C526 C 0.52401 0.1407 0.48518 0.0
C527 C 0.52575 0.12127 0.5462 0.0
H528 H 0.39143 0.47448 0.17612 0.0
H529 H 0.36636 0.54919 0.22166 0.0
H530 H 0.42368 0.47925 0.28368 0.0
H531 H 0.39949 0.55466 0.32732 0.0
H532 H 0.45029 0.55254 0.56101 0.0
H533 H 0.41646 0.54692 0.45982 0.0
H534 H 0.46164 0.49556 0.31726 0.0
H535 H 0.49484 0.50006 0.42188 0.0
C536 C 0.39289 0.49206 0.20904 0.0
C537 C 0.3762 0.51145 0.18971 0.0
C538 C 0.4117 0.49495 0.27067 0.0
C539 C 0.41486 0.51751 0.31482 0.0
C540 C 0.39779 0.53682 0.29636 0.0
C541 C 0.37867 0.53376 0.23532 0.0
C542 C 0.45306 0.53996 0.50825 0.0
C543 C 0.47562 0.52689 0.50013 0.0
C544 C 0.43354 0.53686 0.44919 0.0
C545 C 0.43586 0.52078 0.37886 0.0
C546 C 0.45855 0.50778 0.37074 0.0
C547 C 0.47792 0.51058 0.43069 0.0
H548 H 0.02868 0.36325 0.25231 0.0
H549 H 0.08104 0.40931 0.11508 0.0
H550 H 1.02569 0.39502 0.36237 0.0
H551 H 0.07665 0.44152 0.22056 0.0
H552 H 0.08137 0.48953 0.45663 0.0
H553 H 0.08596 0.45589 0.35456 0.0
H554 H 1.00988 0.43367 0.39976 0.0
H555 H 1.00571 0.46699 0.50331 0.0
C556 C 0.0396 0.38005 0.24516 0.0
C557 C 0.05495 0.38342 0.17322 0.0
C558 C 0.0376 0.39861 0.30813 0.0
C559 C 0.0508 0.4213 0.30144 0.0
C560 C 0.06634 0.42444 0.22995 0.0
C561 C 0.06852 0.40588 0.16779 0.0
C562 C 0.06557 0.47756 0.44446 0.0
C563 C 0.04317 0.48114 0.48864 0.0
C564 C 0.06814 0.45813 0.38534 0.0
C565 C 0.04829 0.44169 0.36738 0.0
C566 C 1.02587 0.44537 0.41203 0.0
C567 C 1.0234 0.46467 0.4717 0.0
H568 H 0.90479 0.99352 0.20618 0.0
H569 H 0.85669 0.04096 0.05593 0.0
H570 H 0.93652 0.99631 0.09667 0.0
H571 H 0.88851 0.04291 0.94394 0.0
H572 H 0.94788 1.01992 0.7343 0.0
H573 H 0.9135 1.01559 0.83622 0.0
H574 H 0.96392 0.03162 0.0434 0.0
H575 H 0.99789 0.03647 0.94244 0.0
C576 C 0.90086 1.00462 0.14987 0.0
C577 C 0.87813 1.01751 0.14162 0.0
C578 C 0.91916 1.0061 0.08666 0.0
C579 C 0.91529 1.02012 0.01185 0.0
C580 C 0.89212 0.03193 1.00081 0.0
C581 C 0.8738 0.03073 0.06502 0.0
C582 C 0.95162 1.0225 0.80163 0.0
C583 C 0.97581 0.02837 0.82993 0.0
C584 C 0.93187 1.02013 0.86 0.0
C585 C 0.93591 1.02311 0.94825 0.0
C586 C 0.96012 0.02889 0.97621 0.0
C587 C 0.97966 0.03171 0.91802 0.0
H588 H 0.5237 0.90095 0.20965 0.0
H589 H 0.57852 0.86264 0.05984 0.0
H590 H 0.52069 0.93329 0.09958 0.0
H591 H 0.57562 0.89519 0.94967 0.0
H592 H 0.50414 0.97311 0.84171 0.0
H593 H 0.50636 0.93892 0.9455 0.0
H594 H 0.58642 0.94162 0.93596 0.0
H595 H 0.58413 0.97622 0.83344 0.0
C596 C 0.53501 0.89931 0.15293 0.0
C597 C 0.5513 0.87901 0.14385 0.0
C598 C 0.5332 0.91785 0.08952 0.0
C599 C 0.54791 0.91696 0.01544 0.0
C600 C 0.5641 0.8966 1.00595 0.0
C601 C 0.56558 0.87778 0.0688 0.0
C602 C 0.52222 0.96637 0.86152 0.0
C603 C 0.54397 0.97753 0.82943 0.0
C604 C 0.5235 0.94681 0.92141 0.0
C605 C 0.54658 0.9374 0.94945 0.0
C606 C 0.56833 0.94816 0.91546 0.0
C607 C 0.56703 0.96814 0.85715 0.0
H608 H 0.70618 0.53743 0.08865 0.0
H609 H 0.65836 0.58309 0.24222 0.0
H610 H 0.67434 0.5365 0.97641 0.0
H611 H 0.62635 0.58163 0.1317 0.0
H612 H 0.58036 0.58988 0.88217 0.0
H613 H 0.61374 0.59443 0.98834 0.0
H614 H 0.63402 0.51765 0.95259 0.0
H615 H 0.60077 0.51308 0.84861 0.0
C616 C 0.68901 0.54749 0.09826 0.0
C617 C 0.68488 0.56011 0.17529 0.0
C618 C 0.67055 0.54675 0.03417 0.0
C619 C 0.64746 0.5588 0.04468 0.0
C620 C 0.64379 0.57222 0.12043 0.0
C621 C 0.66214 0.57283 0.18449 0.0
C622 C 0.59187 0.57396 0.89735 0.0
C623 C 0.58784 0.55118 0.85573 0.0
C624 C 0.6111 0.57654 0.95832 0.0
C625 C 0.62699 0.55648 0.97894 0.0
C626 C 0.62273 0.53374 0.93749 0.0
C627 C 0.60348 0.53111 0.87753 0.0
H628 H 0.03194 0.66608 0.21839 0.0
H629 H 1.02239 0.72092 0.0187 0.0
H630 H 0.02933 0.63341 0.11574 0.0
H631 H 1.01675 0.6877 0.91532 0.0
H632 H 0.03171 0.62373 0.72892 0.0
H633 H 0.03197 0.65817 0.82929 0.0
H634 H 1.01011 0.60738 0.03122 0.0
H635 H 1.01264 0.57314 0.93237 0.0
C636 C 0.02916 0.67134 0.15225 0.0
C637 C 0.02817 0.69662 0.12778 0.0
C638 C 0.02699 0.6522 0.09241 0.0
C639 C 1.02277 0.65723 1.00503 0.0
C640 C 1.02057 0.68256 0.98088 0.0
C641 C 1.02338 0.70187 0.04098 0.0
C642 C 0.02698 0.62006 0.79496 0.0
C643 C 1.02225 0.59557 0.82249 0.0
C644 C 0.02692 0.63996 0.85315 0.0
C645 C 1.02139 0.63618 0.94058 0.0
C646 C 1.01548 0.6116 0.96633 0.0
C647 C 1.01647 0.5917 0.90889 0.0
H648 H 0.08926 0.22007 0.24084 0.0
H649 H 0.03117 0.27296 0.29394 0.0
H650 H 0.07796 0.1965 0.36871 0.0
H651 H 1.02 0.24951 0.42178 0.0
H652 H 1.01151 0.14503 0.45504 0.0
H653 H 0.03749 0.17273 0.37287 0.0
H654 H 0.03025 0.22914 0.56589 0.0
H655 H 1.00484 0.20078 0.65154 0.0
C656 C 0.0746 0.22706 0.28134 0.0
C657 C 0.06069 0.24797 0.25659 0.0
C658 C 0.06819 0.21362 0.35444 0.0
C659 C 0.04782 0.22095 0.40399 0.0
C660 C 0.03584 0.24349 0.38485 0.0
C661 C 0.04222 0.25691 0.31154 0.0
C662 C 1.01608 0.16291 0.4822 0.0
C663 C 1.00595 0.17055 0.56039 0.0
C664 C 0.03105 0.17887 0.43469 0.0
C665 C 0.036 0.20304 0.46325 0.0
C666 C 0.02666 0.21057 0.5425 0.0
C667 C 1.01191 0.1944 0.59097 0.0
H668 H 0.30532 0.06744 0.26021 0.0
H669 H 0.33105 0.12938 0.1088 0.0
H670 H 0.34313 0.0685 0.34303 0.0
H671 H 0.36899 0.13116 0.19382 0.0
H672 H 0.43534 0.07488 0.16058 0.0
H673 H 0.3974 0.09892 0.15444 0.0
H674 H 0.38073 0.07786 0.41494 0.0
H675 H 0.41806 0.05249 0.41913 0.0
C676 C 0.31823 0.08258 0.24888 0.0
C677 C 0.31607 0.09739 0.17525 0.0
C678 C 0.34022 0.08312 0.29628 0.0
C679 C 0.35982 0.09887 0.271 0.0
C680 C 0.35467 0.11799 0.21193 0.0
C681 C 0.33273 0.11728 0.16404 0.0
C682 C 0.42368 0.07548 0.21674 0.0
C683 C 0.42946 0.06122 0.28937 0.0
C684 C 0.40212 0.08981 0.21413 0.0
C685 C 0.38582 0.09032 0.28433 0.0
C686 C 0.39272 0.07774 0.35957 0.0
C687 C 0.41421 0.06322 0.3619 0.0
H688 H 0.44859 0.34311 0.18968 0.0
H689 H 0.50117 0.29086 0.29631 0.0
H690 H 0.45047 0.36705 0.32111 0.0
H691 H 0.50419 0.31492 0.42315 0.0
H692 H 0.51594 0.42137 0.37431 0.0
H693 H 0.48335 0.39333 0.33222 0.0
H694 H 0.50582 0.34187 0.5321 0.0
H695 H 0.53991 0.36991 0.56965 0.0
C696 C 0.45982 0.33625 0.24225 0.0
C697 C 0.47588 0.31603 0.23082 0.0
C698 C 0.46109 0.35002 0.31748 0.0
C699 C 0.47925 0.34428 0.37962 0.0
C700 C 0.49074 0.32084 0.37582 0.0
C701 C 0.48904 0.30681 0.30182 0.0
C702 C 0.51361 0.4042 0.40994 0.0
C703 C 0.53088 0.39719 0.47255 0.0
C704 C 0.49454 0.3881 0.38693 0.0
C705 C 0.4922 0.36461 0.42661 0.0
C706 C 0.50762 0.35923 0.49741 0.0
C707 C 0.52719 0.37517 0.51893 0.0
H708 H 0.2669 0.53914 0.30394 0.0
H709 H 0.21141 0.48553 0.22797 0.0
H710 H 0.24294 0.54846 0.43162 0.0
H711 H 0.18749 0.4947 0.3561 0.0
H712 H 0.13849 0.56102 0.45125 0.0
H713 H 0.16565 0.53534 0.36798 0.0
H714 H 0.22063 0.53689 0.56943 0.0
H715 H 0.19262 0.56203 0.6563 0.0
C716 C 0.25011 0.52861 0.31646 0.0
C717 C 0.24066 0.51206 0.25542 0.0
C718 C 0.23642 0.53389 0.38971 0.0
C719 C 0.21313 0.52265 0.40272 0.0
C720 C 0.2052 0.50393 0.3467 0.0
C721 C 0.21883 0.49871 0.27348 0.0
C722 C 0.15589 0.55524 0.47992 0.0
C723 C 0.1633 0.56378 0.56079 0.0
C724 C 0.17155 0.54042 0.43175 0.0
C725 C 0.19524 0.53402 0.46231 0.0
C726 C 0.20246 0.54166 0.54435 0.0
C727 C 0.18653 0.55627 0.59349 0.0
H728 H 0.99459 0.81414 0.0388 0.0
H729 H 0.9342 0.83196 0.20714 0.0
H730 H 0.98257 0.84706 0.94418 0.0
H731 H 0.92034 0.86421 0.10849 0.0
H732 H 0.94911 0.94405 0.07622 0.0
H733 H 0.93382 0.90289 0.09935 0.0
H734 H 0.96981 0.87874 0.86791 0.0
H735 H 0.98885 0.91849 0.85329 0.0
C736 C 0.97765 0.82418 0.05267 0.0
C737 C 0.96598 0.82131 0.1318 0.0
C738 C 0.9706 0.84348 0.99806 0.0
C739 C 0.95145 0.86003 0.02133 0.0
C740 C 0.93634 0.85324 0.09115 0.0
C741 C 0.94388 0.83432 0.14709 0.0
C742 C 0.95457 0.92995 0.03124 0.0
C743 C 0.9726 0.93467 0.96811 0.0
C744 C 0.94495 0.90605 0.04305 0.0
C745 C 0.95214 0.8864 0.98937 0.0
C746 C 0.96549 0.89261 0.91522 0.0
C747 C 0.97622 0.91611 0.906 0.0
H748 H 0.73784 1.02596 0.04851 0.0
H749 H 0.73627 0.95463 0.17458 0.0
H750 H 0.69829 1.01676 0.97975 0.0
H751 H 0.69673 0.94509 0.10518 0.0
H752 H 0.62091 1.00102 0.89766 0.0
H753 H 0.66557 0.99297 0.89917 0.0
H754 H 0.66047 0.96844 0.16154 0.0
H755 H 0.61642 0.9772 0.16141 0.0
C756 C 0.72991 1.00756 0.05644 0.0
C757 C 0.73986 0.99108 0.11718 0.0
C758 C 0.70709 1.00231 0.0176 0.0
C759 C 0.69404 0.98052 0.03939 0.0
C760 C 0.70617 0.96225 0.08862 0.0
C761 C 0.729 0.96752 0.12735 0.0
C762 C 0.62928 0.99372 0.95554 0.0
C763 C 0.61504 0.99026 0.03008 0.0
C764 C 0.65482 0.98885 0.95588 0.0
C765 C 0.66656 0.98002 0.03028 0.0
C766 C 0.65197 0.97477 0.10252 0.0
C767 C 0.62659 0.9799 0.10255 0.0
H768 H 0.60174 0.72143 0.07712 0.0
H769 H 0.54194 0.77219 0.01894 0.0
H770 H 0.59234 0.69825 0.94738 0.0
H771 H 0.53221 0.74892 0.89105 0.0
H772 H 0.52487 0.64463 0.89371 0.0
H773 H 0.55486 0.67284 0.95183 0.0
H774 H 0.53744 0.72667 0.75486 0.0
H775 H 0.5075 0.69756 0.69309 0.0
C776 C 0.58722 0.72814 0.03486 0.0
C777 C 0.57206 0.74807 0.05906 0.0
C778 C 0.58186 0.71494 0.96063 0.0
C779 C 0.56102 0.72128 0.91065 0.0
C780 C 0.54833 0.74346 0.92821 0.0
C781 C 0.55384 0.75678 1.00198 0.0
C782 C 0.52798 0.66193 0.85978 0.0
C783 C 0.51331 0.66883 0.78909 0.0
C784 C 0.54544 0.67824 0.89339 0.0
C785 C 0.5485 0.70211 0.85827 0.0
C786 C 0.53529 0.70845 0.78372 0.0
C787 C 0.51791 0.69191 0.74918 0.0
H788 H 0.8066 0.57187 0.07129 0.0
H789 H 0.83011 0.6354 0.21676 0.0
H790 H 0.8411 0.57739 0.97641 0.0
H791 H 0.86411 0.64259 0.11735 0.0
H792 H 0.94044 0.60339 0.10305 0.0
H793 H 0.90051 0.62211 0.12435 0.0
H794 H 0.87316 0.58747 0.89374 0.0
H795 H 0.91157 0.56551 0.88038 0.0
C796 C 0.81827 0.58814 0.07921 0.0
C797 C 0.81636 0.60266 0.15262 0.0
C798 C 0.8384 0.59141 0.02459 0.0
C799 C 0.85668 0.60957 0.04212 0.0
C800 C 0.85139 0.62744 0.10485 0.0
C801 C 0.83157 0.62371 0.16094 0.0
C802 C 0.92588 0.59934 0.05737 0.0
C803 C 0.92923 0.58149 0.99325 0.0
C804 C 0.90287 0.61082 0.06812 0.0
C805 C 0.88279 0.60547 0.01301 0.0
C806 C 0.88757 0.59105 0.94045 0.0
C807 C 0.91016 0.57866 0.93194 0.0
H808 H 0.0264 0.23994 0.88313 0.0
H809 H 0.09345 0.2113 0.99838 0.0
H810 H 1.02249 0.20147 0.79878 0.0
H811 H 0.0892 0.17312 0.91643 0.0
H812 H 0.04117 0.09954 0.88221 0.0
H813 H 0.04667 0.14128 0.9374 0.0
H814 H 0.0548 0.16969 0.68137 0.0
H815 H 0.05047 0.12718 0.62511 0.0
C816 C 0.04071 0.2259 0.88848 0.0
C817 C 0.0602 0.22879 0.94801 0.0
C818 C 0.03841 0.2038 0.84042 0.0
C819 C 0.05548 0.18416 0.85127 0.0
C820 C 0.0757 0.18779 0.90673 0.0
C821 C 0.07814 0.20977 0.95361 0.0
C822 C 0.04457 0.11439 0.8371 0.0
C823 C 0.04589 0.10953 0.74896 0.0
C824 C 0.04743 0.13851 0.869 0.0
C825 C 0.05112 0.15888 0.81396 0.0
C826 C 0.05177 0.15442 0.72547 0.0
C827 C 0.04937 0.13001 0.69336 0.0
H828 H 0.33241 0.07804 0.82256 0.0
H829 H 0.35064 1.02354 0.01489 0.0
H830 H 0.37347 0.0726 0.75786 0.0
H831 H 0.39164 1.01791 0.9508 0.0
H832 H 0.47224 0.04195 0.89432 0.0
H833 H 0.42939 0.0427 0.9438 0.0
H834 H 0.40349 0.04596 0.6829 0.0
H835 H 0.44657 0.0453 0.63305 0.0
C836 C 0.34481 0.06408 0.84873 0.0
C837 C 0.33792 0.05067 0.92237 0.0
C838 C 0.36852 0.06111 0.8122 0.0
C839 C 0.38622 0.04499 0.84935 0.0
C840 C 0.37879 0.03075 0.92077 0.0
C841 C 0.35505 0.03358 0.9567 0.0
C842 C 0.4575 0.04284 0.84713 0.0
C843 C 0.46314 0.04362 0.75937 0.0
C844 C 0.43276 0.04304 0.87569 0.0
C845 C 0.41269 0.0442 0.81764 0.0
C846 C 0.41831 0.04518 0.72979 0.0
C847 C 0.44312 0.04474 0.70111 0.0
H848 H 0.48799 0.33884 0.86309 0.0
H849 H 0.5416 0.35868 0.05555 0.0
H850 H 0.49403 0.37935 0.79304 0.0
H851 H 0.54754 0.3992 0.98723 0.0
H852 H 0.56598 0.46538 0.81473 0.0
H853 H 0.56291 0.4229 0.86942 0.0
H854 H 0.48432 0.42258 0.81317 0.0
H855 H 0.48771 0.46481 0.75589 0.0
C856 C 0.50163 0.35159 0.88897 0.0
C857 C 0.51481 0.34519 0.96365 0.0
C858 C 0.50481 0.37508 0.84974 0.0
C859 C 0.52122 0.39298 0.88421 0.0
C860 C 0.53499 0.38608 0.95746 0.0
C861 C 0.53171 0.36269 0.9967 0.0
C862 C 0.54802 0.45626 0.81373 0.0
C863 C 0.52701 0.46889 0.78177 0.0
C864 C 0.54621 0.4318 0.84576 0.0
C865 C 0.52332 0.41894 0.8466 0.0
C866 C 0.50236 0.4315 0.81329 0.0
C867 C 0.5042 0.45601 0.78142 0.0
H868 H 0.22827 0.48765 0.88533 0.0
H869 H 0.21534 0.5595 0.99588 0.0
H870 H 0.18952 0.49155 0.80243 0.0
H871 H 0.17701 0.56364 0.91326 0.0
H872 H 0.09486 0.54545 0.86827 0.0
H873 H 0.13672 0.54391 0.92685 0.0
H874 H 0.16361 0.51322 0.69077 0.0
H875 H 0.1212 0.51479 0.63168 0.0
C876 C 0.21768 0.50469 0.88936 0.0
C877 C 0.22511 0.52338 0.94661 0.0
C878 C 0.19531 0.50689 0.8423 0.0
C879 C 0.17967 0.52773 0.85208 0.0
C880 C 0.18812 0.54707 0.90511 0.0
C881 C 0.21036 0.54489 0.95167 0.0
C882 C 0.10958 0.53824 0.82863 0.0
C883 C 0.10442 0.53 0.74536 0.0
C884 C 0.13381 0.53764 0.86202 0.0
C885 C 0.15388 0.52862 0.81368 0.0
C886 C 0.14875 0.52025 0.73023 0.0
C887 C 0.12441 0.5212 0.6962 0.0
H888 H 0.98006 0.84775 0.44371 0.0
H889 H 0.05159 0.85356 0.32285 0.0
H890 H 0.98686 0.88748 0.51397 0.0
H891 H 0.05836 0.89396 0.39141 0.0
H892 H 0.98957 0.97141 0.53402 0.0
H893 H 0.9864 0.92983 0.47608 0.0
H894 H 0.06509 0.91919 0.51639 0.0
H895 H 0.06835 0.9615 0.57201 0.0
C896 C 0.99755 0.85733 0.43369 0.0
C897 C 1.01538 0.84726 0.37834 0.0
C898 C 1.00132 0.88042 0.47292 0.0
C899 C 1.02298 0.89453 0.45746 0.0
C900 C 0.04147 0.8838 0.40556 0.0
C901 C 0.0377 0.8605 0.36648 0.0
C902 C 1.00631 0.96045 0.5299 0.0
C903 C 0.02923 0.97021 0.55753 0.0
C904 C 1.00444 0.93623 0.49754 0.0
C905 C 1.02542 0.92065 0.49188 0.0
C906 C 0.04847 0.93046 0.51894 0.0
C907 C 0.05033 0.9548 0.55142 0.0
H908 H 0.73387 0.99372 0.47131 0.0
H909 H 0.71893 0.06206 0.3366 0.0
H910 H 0.6953 0.99852 0.55223 0.0
H911 H 0.68066 0.06732 0.41807 0.0
H912 H 0.62664 1.02019 0.71163 0.0
H913 H 0.66907 1.02035 0.65468 0.0
H914 H 0.64101 0.0471 0.41245 0.0
H915 H 0.59911 0.04751 0.4697 0.0
C916 C 0.72291 1.01039 0.462 0.0
C917 C 0.72976 1.02781 0.39896 0.0
C918 C 0.70063 1.01308 0.50787 0.0
C919 C 0.68445 0.03313 0.4911 0.0
C920 C 0.69226 0.05137 0.43189 0.0
C921 C 0.71449 0.04866 0.38621 0.0
C922 C 0.62962 1.02639 0.64656 0.0
C923 C 0.60935 0.03393 0.59553 0.0
C924 C 0.65397 1.02631 0.61359 0.0
C925 C 0.65874 0.03395 0.52885 0.0
C926 C 0.63837 0.04156 0.47838 0.0
C927 C 0.61415 0.04152 0.51107 0.0
H928 H 0.53067 0.73715 0.43079 0.0
H929 H 0.59542 0.70483 0.314 0.0
H930 H 0.52491 0.69872 0.5156 0.0
H931 H 0.58892 0.6666 0.39463 0.0
H932 H 0.54383 0.59362 0.44698 0.0
H933 H 0.55091 0.63436 0.38264 0.0
H934 H 0.55062 0.66775 0.63174 0.0
H935 H 0.54464 0.62653 0.69722 0.0
C936 C 0.54392 0.72218 0.42414 0.0
C937 C 0.56328 0.72417 0.36395 0.0
C938 C 0.54051 0.70006 0.47233 0.0
C939 C 0.55616 0.67932 0.46057 0.0
C940 C 0.57623 0.68193 0.40423 0.0
C941 C 0.57992 0.70398 0.35784 0.0
C942 C 0.54553 0.60945 0.48861 0.0
C943 C 0.54374 0.60641 0.57774 0.0
C944 C 0.54942 0.63297 0.45146 0.0
C945 C 0.55113 0.65448 0.50188 0.0
C946 C 0.54893 0.65168 0.59094 0.0
C947 C 0.54552 0.62797 0.6284 0.0
H948 H 0.83755 0.59114 0.48943 0.0
H949 H 0.84356 0.52339 0.34665 0.0
H950 H 0.87836 0.58362 0.55352 0.0
H951 H 0.88473 0.51589 0.40893 0.0
H952 H 0.9553 0.5029 0.57201 0.0
H953 H 0.91175 0.50659 0.52803 0.0
H954 H 0.92037 0.58621 0.509 0.0
H955 H 0.96337 0.58252 0.55522 0.0
C956 C 0.84724 0.57412 0.47419 0.0
C957 C 0.83691 0.55752 0.41476 0.0
C958 C 0.87097 0.57001 0.50953 0.0
C959 C 0.88537 0.54929 0.48579 0.0
C960 C 0.87437 0.53195 0.42977 0.0
C961 C 0.85056 0.53609 0.39448 0.0
C962 C 0.94791 0.52122 0.55855 0.0
C963 C 0.96322 0.54239 0.56652 0.0
C964 C 0.92283 0.52334 0.53284 0.0
C965 C 0.91213 0.54673 0.51492 0.0
C966 C 0.92751 0.56786 0.5233 0.0
C967 C 0.95252 0.56572 0.54868 0.0
loop_
_geom_bond_atom_site_label_1
_geom_bond_atom_site_label_2
_geom_bond_distance
_geom_bond_site_symmetry_2
_ccdc_geom_bond_type
H0 C1 0.949 . S
C1 H0 0.949 . S
C1 C2 1.395 . S
C1 C3 1.391 . S
C2 C1 1.395 . S
C2 C5 1.390 . S
C3 C1 1.391 . S
C3 C7 1.387 . S
C3 C8 1.491 . S
H4 C5 0.950 . S
C5 C2 1.390 . S
C5 H4 0.950 . S
C5 C6 1.378 . S
C6 C5 1.378 . S
C6 C7 1.409 . S
C7 C3 1.387 . S
C7 C6 1.409 . S
C7 H9 0.951 . S
C8 C3 1.491 . S
C8 C10 1.382 . S
C8 C12 1.404 . S
H9 C7 0.951 . S
C10 C8 1.382 . S
C10 C11 1.390 . S
C10 H15 0.949 . S
C11 C10 1.390 . S
C11 C16 1.399 . S
C12 C8 1.404 . S
C12 H13 0.950 . S
C12 C14 1.375 . S
H13 C12 0.950 . S
C14 C12 1.375 . S
C14 C16 1.382 . S
C14 H18 0.950 . S
H15 C10 0.949 . S
C16 C11 1.399 . S
C16 C14 1.382 . S
C16 H17 0.952 . S
H17 C16 0.952 . S
H18 C14 0.950 . S
H19 C20 0.949 . S
C20 H19 0.949 . S
C20 C21 1.395 . S
C20 C22 1.391 . S
C21 C20 1.395 . S
C21 C24 1.390 . S
C22 C20 1.391 . S
C22 C26 1.387 . S
C22 C27 1.491 . S
H23 C24 0.950 . S
C24 C21 1.390 . S
C24 H23 0.950 . S
C24 C25 1.378 . S
C25 C24 1.378 . S
C25 C26 1.409 . S
C26 C22 1.387 . S
C26 C25 1.409 . S
C26 H28 0.951 . S
C27 C22 1.491 . S
C27 C29 1.382 . S
C27 C31 1.404 . S
H28 C26 0.951 . S
C29 C27 1.382 . S
C29 C30 1.390 . S
C29 H34 0.949 . S
C30 C29 1.390 . S
C30 C35 1.399 . S
C31 C27 1.404 . S
C31 H32 0.950 . S
C31 C33 1.375 . S
H32 C31 0.950 . S
C33 C31 1.375 . S
C33 C35 1.382 . S
C33 H37 0.950 . S
H34 C29 0.949 . S
C35 C30 1.399 . S
C35 C33 1.382 . S
C35 H36 0.952 . S
H36 C35 0.952 . S
H37 C33 0.950 . S
H38 C39 0.949 . S
C39 H38 0.949 . S
C39 C40 1.395 . S
C39 C41 1.391 . S
C40 C39 1.395 . S
C40 C43 1.390 . S
C41 C39 1.391 . S
C41 C45 1.387 . S
C41 C46 1.491 . S
H42 C43 0.950 . S
C43 C40 1.390 . S
C43 H42 0.950 . S
C43 C44 1.378 . S
C44 C43 1.378 . S
C44 C45 1.409 . S
C45 C41 1.387 . S
C45 C44 1.409 . S
C45 H47 0.951 . S
C46 C41 1.491 . S
C46 C48 1.382 . S
C46 C50 1.404 . S
H47 C45 0.951 . S
C48 C46 1.382 . S
C48 C49 1.390 . S
C48 H53 0.949 . S
C49 C48 1.390 . S
C49 C54 1.399 . S
C50 C46 1.404 . S
C50 H51 0.950 . S
C50 C52 1.375 . S
H51 C50 0.950 . S
C52 C50 1.375 . S
C52 C54 1.382 . S
C52 H56 0.950 . S
H53 C48 0.949 . S
C54 C49 1.399 . S
C54 C52 1.382 . S
C54 H55 0.952 . S
H55 C54 0.952 . S
H56 C52 0.950 . S
H57 C58 0.949 . S
C58 H57 0.949 . S
C58 C59 1.395 . S
C58 C60 1.391 . S
C59 C58 1.395 . S
C59 C62 1.390 . S
C60 C58 1.391 . S
C60 C64 1.387 . S
C60 C65 1.491 . S
H61 C62 0.950 . S
C62 C59 1.390 . S
C62 H61 0.950 . S
C62 C63 1.378 . S
C63 C62 1.378 . S
C63 C64 1.409 . S
C64 C60 1.387 . S
C64 C63 1.409 . S
C64 H66 0.951 . S
C65 C60 1.491 . S
C65 C67 1.382 . S
C65 C69 1.404 . S
H66 C64 0.951 . S
C67 C65 1.382 . S
C67 C68 1.390 . S
C67 H72 0.949 . S
C68 C67 1.390 . S
C68 C73 1.399 . S
C69 C65 1.404 . S
C69 H70 0.950 . S
C69 C71 1.375 . S
H70 C69 0.950 . S
C71 C69 1.375 . S
C71 C73 1.382 . S
C71 H75 0.950 . S
H72 C67 0.949 . S
C73 C68 1.399 . S
C73 C71 1.382 . S
C73 H74 0.952 . S
H74 C73 0.952 . S
H75 C71 0.950 . S
H76 C77 0.949 . S
C77 H76 0.949 . S
C77 C78 1.395 . S
C77 C79 1.391 . S
C78 C77 1.395 . S
C78 C81 1.390 1_554 S
C79 C77 1.391 . S
C79 C83 1.387 1_554 S
C79 C84 1.491 . S
H80 C81 0.950 . S
C81 C78 1.390 1_556 S
C81 H80 0.950 . S
C81 C82 1.378 . S
C82 C81 1.378 . S
C82 C83 1.409 . S
C83 C79 1.387 1_556 S
C83 C82 1.409 . S
C83 H85 0.951 . S
C84 C79 1.491 . S
C84 C86 1.382 . S
C84 C88 1.404 1_554 S
H85 C83 0.951 . S
C86 C84 1.382 . S
C86 C87 1.390 . S
C86 H91 0.949 . S
C87 C86 1.390 . S
C87 C92 1.399 . S
C88 C84 1.404 1_556 S
C88 H89 0.950 . S
C88 C90 1.375 . S
H89 C88 0.950 . S
C90 C88 1.375 . S
C90 C92 1.382 1_556 S
C90 H94 0.950 . S
H91 C86 0.949 . S
C92 C87 1.399 . S
C92 C90 1.382 1_554 S
C92 H93 0.952 . S
H93 C92 0.952 . S
H94 C90 0.950 . S
H95 C96 0.949 . S
C96 H95 0.949 . S
C96 C97 1.395 . S
C96 C98 1.391 . S
C97 C96 1.395 . S
C97 C100 1.386 1_554 S
C98 C96 1.391 . S
C98 C102 1.387 1_554 S
C98 C103 1.491 . S
H99 C100 0.950 . S
C100 C97 1.386 1_556 S
C100 H99 0.950 . S
C100 C101 1.382 . S
C101 C100 1.382 . S
C101 C102 1.409 . S
C102 C98 1.387 1_556 S
C102 C101 1.409 . S
C102 H104 0.951 . S
C103 C98 1.491 . S
C103 C105 1.382 . S
C103 C107 1.404 1_554 S
H104 C102 0.951 . S
C105 C103 1.382 . S
C105 C106 1.390 . S
C105 H110 0.949 . S
C106 C105 1.390 . S
C106 C111 1.399 . S
C107 C103 1.404 1_556 S
C107 H108 0.973 . S
C107 C109 1.375 . S
H108 C107 0.973 . S
C109 C107 1.375 . S
C109 C111 1.382 1_556 S
C109 H113 0.950 1_455 S
H110 C105 0.949 . S
C111 C106 1.399 . S
C111 C109 1.382 1_554 S
C111 H112 0.952 . S
H112 C111 0.952 . S
H113 C109 0.950 1_655 S
H114 C115 0.949 . S
C115 H114 0.949 . S
C115 C116 1.395 . S
C115 C117 1.391 . S
C116 C115 1.395 . S
C116 C119 1.390 1_554 S
C117 C115 1.391 . S
C117 C121 1.387 1_554 S
C117 C122 1.491 . S
H118 C119 0.950 . S
C119 C116 1.390 1_556 S
C119 H118 0.950 . S
C119 C120 1.378 . S
C120 C119 1.378 . S
C120 C121 1.409 . S
C121 C117 1.387 1_556 S
C121 C120 1.409 . S
C121 H123 0.951 . S
C122 C117 1.491 . S
C122 C124 1.382 . S
C122 C126 1.404 1_554 S
H123 C121 0.951 . S
C124 C122 1.382 . S
C124 C125 1.390 . S
C124 H129 0.949 . S
C125 C124 1.390 . S
C125 C130 1.399 . S
C126 C122 1.404 1_556 S
C126 H127 0.950 . S
C126 C128 1.375 . S
H127 C126 0.950 . S
C128 C126 1.375 . S
C128 C130 1.382 1_556 S
C128 H132 0.950 1_545 S
H129 C124 0.949 . S
C130 C125 1.399 . S
C130 C128 1.382 1_554 S
C130 H131 0.952 . S
H131 C130 0.952 . S
H132 C128 0.950 1_565 S
H133 C134 0.949 . S
C134 H133 0.949 . S
C134 C135 1.395 . S
C134 C136 1.391 . S
C135 C134 1.395 . S
C135 C138 1.390 1_554 S
C136 C134 1.391 . S
C136 C140 1.387 1_554 S
C136 C141 1.491 . S
H137 C138 0.950 . S
C138 C135 1.390 1_556 S
C138 H137 0.950 . S
C138 C139 1.378 . S
C139 C138 1.378 . S
C139 C140 1.409 . S
C140 C136 1.387 1_556 S
C140 C139 1.409 . S
C140 H142 0.951 . S
C141 C136 1.491 . S
C141 C143 1.382 . S
C141 C145 1.404 1_554 S
H142 C140 0.951 . S
C143 C141 1.382 . S
C143 C144 1.390 . S
C143 H148 0.949 . S
C144 C143 1.390 . S
C144 C149 1.399 . S
C145 C141 1.404 1_556 S
C145 H146 0.950 . S
C145 C147 1.375 . S
H146 C145 0.950 . S
C147 C145 1.375 . S
C147 C149 1.382 1_556 S
C147 H151 0.950 . S
H148 C143 0.949 . S
C149 C144 1.399 . S
C149 C147 1.382 1_554 S
C149 H150 0.952 . S
H150 C149 0.952 . S
H151 C147 0.950 . S
Eu152 N181 2.600 . S
Eu152 N187 2.562 . S
Eu152 O196 2.462 1_655 S
Eu152 O197 2.373 1_545 S
Eu152 O199 2.432 . S
Eu152 O200 2.291 1_655 S
Eu152 O204 2.335 1_655 S
Eu152 O207 2.372 . S
Eu152 C216 2.787 . S
C153 N154 1.365 . S
C153 C156 1.405 . S
C153 C160 1.448 . S
N154 C153 1.365 . S
N154 C157 1.319 . S
N154 Eu163 2.600 1_545 S
C155 C157 1.397 . S
C155 C158 1.367 . S
C155 H175 0.931 . S
C156 C153 1.405 . S
C156 C158 1.403 . S
C156 C162 1.439 1_556 S
C157 N154 1.319 . S
C157 C155 1.397 . S
C157 H168 0.930 1_545 S
C158 C155 1.367 . S
C158 C156 1.403 . S
C158 H179 0.929 . S
C159 C160 1.430 1_554 S
C159 C161 1.387 . S
C159 C165 1.404 . S
C160 C153 1.448 . S
C160 C159 1.430 1_556 S
C160 N164 1.351 . S
C161 C159 1.387 . S
C161 C162 1.374 . S
C161 H176 0.931 . S
C162 C156 1.439 1_554 S
C162 C161 1.374 . S
C162 H177 0.931 . S
Eu163 N154 2.600 1_565 S
Eu163 N164 2.562 1_565 S
Eu163 O198 2.335 . S
Eu163 O201 2.376 . S
Eu163 O202 2.462 . S
Eu163 O203 2.373 1_565 S
Eu163 O205 2.432 . S
Eu163 O206 2.291 1_465 S
Eu163 C227 2.787 . S
N164 C160 1.351 . S
N164 Eu163 2.562 1_545 S
N164 C166 1.325 . S
C165 C159 1.404 . S
C165 C167 1.366 . S
C165 H173 0.930 . S
C166 N164 1.325 . S
C166 C167 1.416 1_556 S
C166 H172 0.929 1_455 S
C167 C165 1.366 . S
C167 C166 1.416 1_554 S
C167 H169 0.930 1_455 S
H168 C157 0.930 1_565 S
H169 C167 0.930 1_655 S
H170 C185 0.930 . S
H171 C192 0.930 . S
H172 C166 0.929 1_655 S
H173 C165 0.930 . S
H174 C188 0.929 . S
H175 C155 0.931 . S
H176 C161 0.931 . S
H177 C162 0.931 . S
H178 C183 0.931 . S
H179 C158 0.929 . S
H180 C191 0.930 . S
N181 Eu152 2.600 . S
N181 C182 1.365 . S
N181 C185 1.319 . S
C182 N181 1.365 . S
C182 C184 1.405 1_545 S
C182 C190 1.448 . S
C183 H178 0.931 . S
C183 C185 1.397 . S
C183 C186 1.367 1_545 S
C184 C182 1.405 1_565 S
C184 C186 1.403 . S
C184 C217 1.439 . S
C185 H170 0.930 . S
C185 N181 1.319 . S
C185 C183 1.397 . S
C186 C183 1.367 1_565 S
C186 C184 1.403 . S
C186 H193 0.929 . S
N187 Eu152 2.562 . S
N187 C188 1.325 1_655 S
N187 C190 1.351 . S
C188 H174 0.929 . S
C188 N187 1.325 1_455 S
C188 C192 1.416 1_545 S
C189 C190 1.430 1_565 S
C189 C191 1.404 . S
C189 C218 1.387 . S
C190 C182 1.448 . S
C190 N187 1.351 . S
C190 C189 1.430 1_545 S
C191 H180 0.930 . S
C191 C189 1.404 . S
C191 C192 1.366 1_655 S
C192 H171 0.930 . S
C192 C188 1.416 1_565 S
C192 C191 1.366 1_455 S
H193 C186 0.929 . S
H194 C217 0.931 . S
H195 C218 0.931 . S
O196 Eu152 2.462 1_455 S
O196 C216 1.252 1_455 S
O197 Eu152 2.373 1_565 S
O197 C208 1.249 . S
O198 Eu163 2.335 . S
O198 C208 1.264 1_455 S
O199 Eu152 2.432 . S
O199 C216 1.268 . S
O200 Eu152 2.291 1_455 S
O200 C215 1.255 . S
O201 Eu163 2.376 . S
O201 C215 1.239 1_565 S
O202 Eu163 2.462 . S
O202 C227 1.252 . S
O203 Eu163 2.373 1_545 S
O203 C219 1.249 . S
O204 Eu152 2.335 1_455 S
O204 C219 1.264 . S
O205 Eu163 2.432 . S
O205 C227 1.268 . S
O206 Eu163 2.291 1_645 S
O206 C226 1.255 . S
O207 Eu152 2.372 . S
O207 C226 1.257 . S
C208 O197 1.249 . S
C208 O198 1.264 1_655 S
C209 C212 1.382 . S
C209 C214 1.390 1_655 S
C209 C216 1.506 . S
C210 C211 1.424 . S
C210 C214 1.389 1_655 S
C211 C210 1.424 . S
C211 C213 1.372 . S
C211 H228 0.931 . S
C212 C209 1.382 . S
C212 C213 1.390 . S
C212 H229 0.931 . S
C213 C211 1.372 . S
C213 C212 1.390 . S
C213 H230 0.929 . S
C214 C209 1.390 1_455 S
C214 C210 1.389 1_455 S
C214 H231 0.930 . S
C215 O200 1.255 . S
C215 O201 1.239 1_545 S
C216 Eu152 2.787 . S
C216 O196 1.252 1_655 S
C216 O199 1.268 . S
C216 C209 1.506 . S
C217 C184 1.439 . S
C217 H194 0.931 . S
C217 C218 1.374 . S
C218 C189 1.387 . S
C218 H195 0.931 . S
C218 C217 1.374 . S
C219 O203 1.249 . S
C219 O204 1.264 . S
C220 C223 1.382 . S
C220 C224 1.390 . S
C220 C227 1.506 . S
C221 C222 1.398 . S
C221 C224 1.392 . S
C222 C221 1.398 . S
C222 C225 1.372 . S
C222 H232 0.931 . S
C223 C220 1.382 . S
C223 C225 1.390 . S
C223 H233 0.931 . S
C224 C220 1.390 . S
C224 C221 1.392 . S
C224 H234 0.930 1_455 S
C225 C222 1.372 . S
C225 C223 1.390 . S
C225 H235 0.929 . S
C226 O206 1.255 . S
C226 O207 1.257 . S
C227 Eu163 2.787 . S
C227 O202 1.252 . S
C227 O205 1.268 . S
C227 C220 1.506 . S
H228 C211 0.931 . S
H229 C212 0.931 . S
H230 C213 0.929 . S
H231 C214 0.930 . S
H232 C222 0.931 . S
H233 C223 0.931 . S
H234 C224 0.930 1_655 S
H235 C225 0.929 . S
Eu236 N265 2.600 . S
Eu236 N271 2.562 . S
Eu236 O280 2.462 . S
Eu236 O281 2.373 . S
Eu236 O283 2.432 . S
Eu236 O284 2.291 . S
Eu236 O288 2.335 1_545 S
Eu236 O291 2.372 . S
Eu236 C300 2.787 . S
C237 N238 1.365 . S
C237 C240 1.405 . S
C237 C244 1.448 . S
N238 C237 1.365 . S
N238 C241 1.319 . S
N238 Eu247 2.600 . S
C239 C241 1.397 . S
C239 C242 1.367 . S
C239 H259 0.931 . S
C240 C237 1.405 . S
C240 C242 1.403 . S
C240 C246 1.439 . S
C241 N238 1.319 . S
C241 C239 1.397 . S
C241 H252 0.930 . S
C242 C239 1.367 . S
C242 C240 1.403 . S
C242 H263 0.929 . S
C243 C244 1.430 . S
C243 C245 1.387 . S
C243 C249 1.404 . S
C244 C237 1.448 . S
C244 C243 1.430 . S
C244 N248 1.351 . S
C245 C243 1.387 . S
C245 C246 1.374 . S
C245 H260 0.931 . S
C246 C240 1.439 . S
C246 C245 1.374 . S
C246 H261 0.931 . S
Eu247 N238 2.600 . S
Eu247 N248 2.562 . S
Eu247 O282 2.335 1_565 S
Eu247 O285 2.372 . S
Eu247 O286 2.461 . S
Eu247 O287 2.373 . S
Eu247 O289 2.432 . S
Eu247 O290 2.291 1_565 S
Eu247 C311 2.787 . S
N248 C244 1.351 . S
N248 Eu247 2.562 . S
N248 C250 1.325 . S
C249 C243 1.404 . S
C249 C251 1.366 . S
C249 H257 0.930 . S
C250 N248 1.325 . S
C250 C251 1.416 . S
C250 H256 0.929 . S
C251 C249 1.366 . S
C251 C250 1.416 . S
C251 H253 0.930 . S
H252 C241 0.930 . S
H253 C251 0.930 . S
H254 C269 0.930 . S
H255 C276 0.930 . S
H256 C250 0.929 . S
H257 C249 0.930 . S
H258 C272 0.929 . S
H259 C239 0.931 . S
H260 C245 0.931 . S
H261 C246 0.931 . S
H262 C267 0.931 . S
H263 C242 0.929 . S
H264 C275 0.930 . S
N265 Eu236 2.600 . S
N265 C266 1.365 . S
N265 C269 1.319 . S
C266 N265 1.365 . S
C266 C268 1.405 . S
C266 C274 1.448 . S
C267 H262 0.931 . S
C267 C269 1.397 . S
C267 C270 1.367 . S
C268 C266 1.405 . S
C268 C270 1.403 . S
C268 C301 1.439 . S
C269 H254 0.930 . S
C269 N265 1.319 . S
C269 C267 1.397 . S
C270 C267 1.367 . S
C270 C268 1.403 . S
C270 H277 0.929 . S
N271 Eu236 2.562 . S
N271 C272 1.325 . S
N271 C274 1.351 . S
C272 H258 0.929 . S
C272 N271 1.325 . S
C272 C276 1.416 . S
C273 C274 1.430 . S
C273 C275 1.404 . S
C273 C302 1.387 . S
C274 C266 1.448 . S
C274 N271 1.351 . S
C274 C273 1.430 . S
C275 H264 0.930 . S
C275 C273 1.404 . S
C275 C276 1.366 . S
C276 H255 0.930 . S
C276 C272 1.416 . S
C276 C275 1.366 . S
H277 C270 0.929 . S
H278 C301 0.931 . S
H279 C302 0.931 . S
O280 Eu236 2.462 . S
O280 C300 1.252 . S
O281 Eu236 2.373 . S
O281 C292 1.249 . S
O282 Eu247 2.335 1_545 S
O282 C292 1.264 . S
O283 Eu236 2.432 . S
O283 C300 1.268 . S
O284 Eu236 2.291 . S
O284 C299 1.255 . S
O285 Eu247 2.372 . S
O285 C299 1.257 1_565 S
O286 Eu247 2.461 . S
O286 C311 1.252 . S
O287 Eu247 2.373 . S
O287 C303 1.249 . S
O288 Eu236 2.335 1_565 S
O288 C303 1.264 . S
O289 Eu247 2.432 . S
O289 C311 1.268 . S
O290 Eu247 2.291 1_545 S
O290 C310 1.255 . S
O291 Eu236 2.372 . S
O291 C310 1.257 . S
C292 O281 1.249 . S
C292 O282 1.264 . S
C293 C296 1.382 1_556 S
C293 C298 1.390 . S
C293 C300 1.506 . S
C294 C295 1.398 . S
C294 C298 1.392 1_554 S
C295 C294 1.398 . S
C295 C297 1.372 . S
C295 H312 0.931 . S
C296 C293 1.382 1_554 S
C296 C297 1.390 . S
C296 H313 0.931 . S
C297 C295 1.372 . S
C297 C296 1.390 . S
C297 H314 0.929 . S
C298 C293 1.390 . S
C298 C294 1.392 1_556 S
C298 H315 0.930 . S
C299 O284 1.255 . S
C299 O285 1.257 1_545 S
C300 Eu236 2.787 . S
C300 O280 1.252 . S
C300 O283 1.268 . S
C300 C293 1.506 . S
C301 C268 1.439 . S
C301 H278 0.931 . S
C301 C302 1.374 . S
C302 C273 1.387 . S
C302 H279 0.931 . S
C302 C301 1.374 . S
C303 O287 1.249 . S
C303 O288 1.264 . S
C304 C307 1.379 1_545 S
C304 C308 1.395 . S
C304 C311 1.505 1_545 S
C305 C306 1.398 . S
C305 C308 1.392 . S
C306 C305 1.398 . S
C306 C309 1.372 1_545 S
C306 H316 0.931 . S
C307 C304 1.379 1_565 S
C307 C309 1.390 . S
C307 H317 0.931 . S
C308 C304 1.395 . S
C308 C305 1.392 . S
C308 H318 0.930 . S
C309 C306 1.372 1_565 S
C309 C307 1.390 . S
C309 H319 0.929 . S
C310 O290 1.255 . S
C310 O291 1.257 . S
C311 Eu247 2.787 . S
C311 O286 1.252 . S
C311 O289 1.268 . S
C311 C304 1.505 1_565 S
H312 C295 0.931 . S
H313 C296 0.931 . S
H314 C297 0.929 . S
H315 C298 0.930 . S
H316 C306 0.931 . S
H317 C307 0.931 . S
H318 C308 0.930 . S
H319 C309 0.929 . S
Eu320 N349 2.600 . S
Eu320 N355 2.562 . S
Eu320 O364 2.462 . S
Eu320 O365 2.373 . S
Eu320 O367 2.432 . S
Eu320 O368 2.291 . S
Eu320 O372 2.335 . S
Eu320 O375 2.372 . S
Eu320 C384 2.787 . S
C321 N322 1.365 . S
C321 C324 1.405 . S
C321 C328 1.448 . S
N322 C321 1.365 . S
N322 C325 1.319 . S
N322 Eu331 2.600 . S
C323 C325 1.397 . S
C323 C326 1.367 . S
C323 H343 0.931 . S
C324 C321 1.405 . S
C324 C326 1.403 . S
C324 C330 1.439 1_556 S
C325 N322 1.319 . S
C325 C323 1.397 . S
C325 H336 0.930 . S
C326 C323 1.367 . S
C326 C324 1.403 . S
C326 H347 0.929 . S
C327 C328 1.430 1_554 S
C327 C329 1.387 . S
C327 C333 1.404 . S
C328 C321 1.448 . S
C328 C327 1.430 1_556 S
C328 N332 1.351 . S
C329 C327 1.387 . S
C329 C330 1.374 . S
C329 H344 0.931 . S
C330 C324 1.439 1_554 S
C330 C329 1.374 . S
C330 H345 0.931 . S
Eu331 N322 2.600 . S
Eu331 N332 2.562 . S
Eu331 O366 2.335 . S
Eu331 O369 2.372 . S
Eu331 O370 2.462 . S
Eu331 O371 2.373 . S
Eu331 O373 2.432 . S
Eu331 O374 2.291 . S
Eu331 C395 2.787 . S
N332 C328 1.351 . S
N332 Eu331 2.562 . S
N332 C334 1.325 . S
C333 C327 1.404 . S
C333 C335 1.366 . S
C333 H341 0.930 . S
C334 N332 1.325 . S
C334 C335 1.416 1_556 S
C334 H340 0.929 . S
C335 C333 1.366 . S
C335 C334 1.416 1_554 S
C335 H337 0.930 . S
H336 C325 0.930 . S
H337 C335 0.930 . S
H338 C353 0.930 . S
H339 C360 0.930 . S
H340 C334 0.929 . S
H341 C333 0.930 . S
H342 C356 0.929 . S
H343 C323 0.931 . S
H344 C329 0.931 . S
H345 C330 0.931 . S
H346 C351 0.931 . S
H347 C326 0.929 . S
H348 C359 0.930 . S
N349 Eu320 2.600 . S
N349 C350 1.365 . S
N349 C353 1.319 . S
C350 N349 1.365 . S
C350 C352 1.405 . S
C350 C358 1.448 . S
C351 H346 0.931 . S
C351 C353 1.397 . S
C351 C354 1.367 . S
C352 C350 1.405 . S
C352 C354 1.403 . S
C352 C385 1.439 . S
C353 H338 0.930 . S
C353 N349 1.319 . S
C353 C351 1.397 . S
C354 C351 1.367 . S
C354 C352 1.403 . S
C354 H361 0.929 . S
N355 Eu320 2.562 . S
N355 C356 1.325 . S
N355 C358 1.351 . S
C356 H342 0.929 . S
C356 N355 1.325 . S
C356 C360 1.416 . S
C357 C358 1.430 . S
C357 C359 1.404 . S
C357 C386 1.387 . S
C358 C350 1.448 . S
C358 N355 1.351 . S
C358 C357 1.430 . S
C359 H348 0.930 . S
C359 C357 1.404 . S
C359 C360 1.366 . S
C360 H339 0.930 . S
C360 C356 1.416 . S
C360 C359 1.366 . S
H361 C354 0.929 . S
H362 C385 0.931 . S
H363 C386 0.931 . S
O364 Eu320 2.462 . S
O364 C384 1.252 . S
O365 Eu320 2.373 . S
O365 C376 1.249 . S
O366 Eu331 2.335 . S
O366 C376 1.264 . S
O367 Eu320 2.432 . S
O367 C384 1.268 . S
O368 Eu320 2.291 . S
O368 C383 1.255 . S
O369 Eu331 2.372 . S
O369 C383 1.257 . S
O370 Eu331 2.462 . S
O370 C395 1.252 . S
O371 Eu331 2.373 . S
O371 C387 1.249 . S
O372 Eu320 2.335 . S
O372 C387 1.264 . S
O373 Eu331 2.432 . S
O373 C395 1.268 . S
O374 Eu331 2.291 . S
O374 C394 1.255 . S
O375 Eu320 2.372 . S
O375 C394 1.257 . S
C376 O365 1.249 . S
C376 O366 1.264 . S
C377 C380 1.382 . S
C377 C382 1.390 . S
C377 C384 1.506 . S
C378 C379 1.398 . S
C378 C382 1.392 . S
C379 C378 1.398 . S
C379 C381 1.372 . S
C379 H396 0.931 . S
C380 C377 1.382 . S
C380 C381 1.390 . S
C380 H397 0.931 . S
C381 C379 1.372 . S
C381 C380 1.390 . S
C381 H398 0.929 . S
C382 C377 1.390 . S
C382 C378 1.392 . S
C382 H399 0.930 . S
C383 O368 1.255 . S
C383 O369 1.257 . S
C384 Eu320 2.787 . S
C384 O364 1.252 . S
C384 O367 1.268 . S
C384 C377 1.506 . S
C385 C352 1.439 . S
C385 H362 0.931 . S
C385 C386 1.374 . S
C386 C357 1.387 . S
C386 H363 0.931 . S
C386 C385 1.374 . S
C387 O371 1.249 . S
C387 O372 1.264 . S
C388 C391 1.382 . S
C388 C392 1.390 . S
C388 C395 1.506 . S
C389 C390 1.398 . S
C389 C392 1.392 . S
C390 C389 1.398 . S
C390 C393 1.372 . S
C390 H400 0.925 1_556 S
C391 C388 1.382 . S
C391 C393 1.390 . S
C391 H401 0.931 . S
C392 C388 1.390 . S
C392 C389 1.392 . S
C392 H402 0.930 . S
C393 C390 1.372 . S
C393 C391 1.390 . S
C393 H403 0.929 . S
C394 O374 1.255 . S
C394 O375 1.257 . S
C395 Eu331 2.787 . S
C395 O370 1.252 . S
C395 O373 1.268 . S
C395 C388 1.506 . S
H396 C379 0.931 . S
H397 C380 0.931 . S
H398 C381 0.929 . S
H399 C382 0.930 . S
H400 C390 0.925 1_554 S
H401 C391 0.931 . S
H402 C392 0.930 . S
H403 C393 0.929 . S
Eu404 N433 2.600 . S
Eu404 N439 2.562 . S
Eu404 O448 2.462 . S
Eu404 O449 2.373 1_455 S
Eu404 O451 2.432 . S
Eu404 O452 2.291 . S
Eu404 O456 2.335 . S
Eu404 O459 2.372 . S
Eu404 C468 2.787 . S
C405 N406 1.365 . S
C405 C408 1.405 . S
C405 C412 1.448 . S
N406 C405 1.365 . S
N406 C409 1.319 1_455 S
N406 Eu415 2.600 1_455 S
C407 C409 1.397 1_455 S
C407 C410 1.367 . S
C407 H427 0.931 . S
C408 C405 1.405 . S
C408 C410 1.403 . S
C408 C414 1.439 1_556 S
C409 N406 1.319 1_655 S
C409 C407 1.397 1_655 S
C409 H420 0.930 . S
C410 C407 1.367 . S
C410 C408 1.403 . S
C410 H431 0.929 . S
C411 C412 1.430 1_554 S
C411 C413 1.387 . S
C411 C417 1.404 . S
C412 C405 1.448 . S
C412 C411 1.430 1_556 S
C412 N416 1.351 . S
C413 C411 1.387 . S
C413 C414 1.374 . S
C413 H428 0.931 . S
C414 C408 1.439 1_554 S
C414 C413 1.374 . S
C414 H429 0.931 . S
Eu415 N406 2.600 1_655 S
Eu415 N416 2.562 1_655 S
Eu415 O450 2.335 . S
Eu415 O453 2.372 . S
Eu415 O454 2.462 . S
Eu415 O455 2.373 1_655 S
Eu415 O457 2.432 . S
Eu415 O458 2.291 1_655 S
Eu415 C479 2.787 . S
N416 C412 1.351 . S
N416 Eu415 2.562 1_455 S
N416 C418 1.325 . S
C417 C411 1.404 . S
C417 C419 1.366 . S
C417 H425 0.930 . S
C418 N416 1.325 . S
C418 C419 1.416 1_556 S
C418 H424 0.929 . S
C419 C417 1.366 . S
C419 C418 1.416 1_554 S
C419 H421 0.930 . S
H420 C409 0.930 . S
H421 C419 0.930 . S
H422 C437 0.930 . S
H423 C444 0.930 . S
H424 C418 0.929 . S
H425 C417 0.930 . S
H426 C440 0.929 . S
H427 C407 0.931 . S
H428 C413 0.931 . S
H429 C414 0.931 . S
H430 C435 0.931 . S
H431 C410 0.929 . S
H432 C443 0.930 . S
N433 Eu404 2.600 . S
N433 C434 1.365 . S
N433 C437 1.319 . S
C434 N433 1.365 . S
C434 C436 1.405 1_455 S
C434 C442 1.448 . S
C435 H430 0.931 . S
C435 C437 1.397 . S
C435 C438 1.367 1_455 S
C436 C434 1.405 1_655 S
C436 C438 1.403 . S
C436 C469 1.439 . S
C437 H422 0.930 . S
C437 N433 1.319 . S
C437 C435 1.397 . S
C438 C435 1.367 1_655 S
C438 C436 1.403 . S
C438 H445 0.929 . S
N439 Eu404 2.562 . S
N439 C440 1.325 . S
N439 C442 1.353 . S
C440 H426 0.929 . S
C440 N439 1.325 . S
C440 C444 1.416 1_455 S
C441 C442 1.428 1_655 S
C441 C443 1.404 . S
C441 C470 1.387 . S
C442 C434 1.448 . S
C442 N439 1.353 . S
C442 C441 1.428 1_455 S
C443 H432 0.930 . S
C443 C441 1.404 . S
C443 C444 1.366 . S
C444 H423 0.930 . S
C444 C440 1.416 1_655 S
C444 C443 1.366 . S
H445 C438 0.929 . S
H446 C469 0.931 . S
H447 C470 0.931 . S
O448 Eu404 2.462 . S
O448 C468 1.252 . S
O449 Eu404 2.373 1_655 S
O449 C460 1.249 . S
O450 Eu415 2.335 . S
O450 C460 1.264 . S
O451 Eu404 2.432 . S
O451 C468 1.268 . S
O452 Eu404 2.291 . S
O452 C467 1.255 . S
O453 Eu415 2.372 . S
O453 C467 1.257 1_655 S
O454 Eu415 2.462 . S
O454 C479 1.252 . S
O455 Eu415 2.373 1_455 S
O455 C471 1.249 . S
O456 Eu404 2.335 . S
O456 C471 1.264 . S
O457 Eu415 2.432 . S
O457 C479 1.268 . S
O458 Eu415 2.291 1_455 S
O458 C478 1.255 . S
O459 Eu404 2.372 . S
O459 C478 1.257 . S
C460 O449 1.249 . S
C460 O450 1.264 . S
C461 C464 1.382 . S
C461 C466 1.390 . S
C461 C468 1.506 . S
C462 C463 1.398 . S
C462 C466 1.392 . S
C463 C462 1.398 . S
C463 C465 1.372 . S
C463 H480 0.931 . S
C464 C461 1.382 . S
C464 C465 1.390 . S
C464 H481 0.931 . S
C465 C463 1.372 . S
C465 C464 1.390 . S
C465 H482 0.929 . S
C466 C461 1.390 . S
C466 C462 1.392 . S
C466 H483 0.930 . S
C467 O452 1.255 . S
C467 O453 1.257 1_455 S
C468 Eu404 2.787 . S
C468 O448 1.252 . S
C468 O451 1.268 . S
C468 C461 1.506 . S
C469 C436 1.439 . S
C469 H446 0.931 . S
C469 C470 1.374 . S
C470 C441 1.387 . S
C470 H447 0.931 . S
C470 C469 1.374 . S
C471 O455 1.249 . S
C471 O456 1.264 . S
C472 C475 1.382 . S
C472 C476 1.390 . S
C472 C479 1.506 . S
C473 C474 1.398 . S
C473 C476 1.392 . S
C474 C473 1.398 . S
C474 C477 1.372 . S
C474 H484 0.935 . S
C475 C472 1.382 . S
C475 C477 1.390 . S
C475 H485 0.931 . S
C476 C472 1.390 . S
C476 C473 1.392 . S
C476 H486 0.930 . S
C477 C474 1.372 . S
C477 C475 1.390 . S
C477 H487 0.929 . S
C478 O458 1.255 . S
C478 O459 1.257 . S
C479 Eu415 2.787 . S
C479 O454 1.252 . S
C479 O457 1.268 . S
C479 C472 1.506 . S
H480 C463 0.931 . S
H481 C464 0.931 . S
H482 C465 0.929 . S
H483 C466 0.930 . S
H484 C474 0.935 . S
H485 C475 0.931 . S
H486 C476 0.930 . S
H487 C477 0.929 . S
H488 C496 0.950 . S
H489 C501 0.950 . S
H490 C498 0.950 . S
H491 C500 0.950 . S
H492 C502 0.950 1_565 S
H493 C504 0.950 1_565 S
H494 C506 0.950 . S
H495 C507 0.950 . S
C496 H488 0.950 . S
C496 C497 1.386 . S
C496 C498 1.391 . S
C497 C496 1.386 . S
C497 C501 1.393 . S
C498 H490 0.950 . S
C498 C496 1.391 . S
C498 C499 1.400 . S
C499 C498 1.400 . S
C499 C500 1.398 . S
C499 C505 1.491 . S
C500 H491 0.950 . S
C500 C499 1.398 . S
C500 C501 1.391 . S
C501 H489 0.950 . S
C501 C497 1.393 . S
C501 C500 1.391 . S
C502 H492 0.950 1_545 S
C502 C503 1.386 . S
C502 C504 1.391 . S
C503 C502 1.386 . S
C503 C507 1.393 . S
C504 H493 0.950 1_545 S
C504 C502 1.391 . S
C504 C505 1.400 . S
C505 C499 1.491 . S
C505 C504 1.400 . S
C505 C506 1.398 . S
C506 H494 0.950 . S
C506 C505 1.398 . S
C506 C507 1.391 . S
C507 H495 0.950 . S
C507 C503 1.393 . S
C507 C506 1.391 . S
H508 C516 0.950 . S
H509 C521 0.950 . S
H510 C518 0.950 . S
H511 C520 0.950 . S
H512 C522 0.950 . S
H513 C524 0.950 . S
H514 C526 0.950 . S
H515 C527 0.950 . S
C516 H508 0.950 . S
C516 C517 1.386 . S
C516 C518 1.391 . S
C517 C516 1.386 . S
C517 C521 1.393 . S
C518 H510 0.950 . S
C518 C516 1.391 . S
C518 C519 1.400 . S
C519 C518 1.400 . S
C519 C520 1.398 . S
C519 C525 1.491 . S
C520 H511 0.950 . S
C520 C519 1.398 . S
C520 C521 1.391 . S
C521 H509 0.950 . S
C521 C517 1.393 . S
C521 C520 1.391 . S
C522 H512 0.950 . S
C522 C523 1.386 . S
C522 C524 1.391 . S
C523 C522 1.386 . S
C523 C527 1.393 . S
C524 H513 0.950 . S
C524 C522 1.391 . S
C524 C525 1.400 . S
C525 C519 1.491 . S
C525 C524 1.400 . S
C525 C526 1.398 . S
C526 H514 0.950 . S
C526 C525 1.398 . S
C526 C527 1.391 . S
C527 H515 0.950 . S
C527 C523 1.393 . S
C527 C526 1.391 . S
H528 C536 0.950 . S
H529 C541 0.950 . S
H530 C538 0.950 . S
H531 C540 0.950 . S
H532 C542 0.950 . S
H533 C544 0.950 . S
H534 C546 0.950 . S
H535 C547 0.950 . S
C536 H528 0.950 . S
C536 C537 1.386 . S
C536 C538 1.391 . S
C537 C536 1.386 . S
C537 C541 1.393 . S
C538 H530 0.950 . S
C538 C536 1.391 . S
C538 C539 1.400 . S
C539 C538 1.400 . S
C539 C540 1.398 . S
C539 C545 1.491 . S
C540 H531 0.950 . S
C540 C539 1.398 . S
C540 C541 1.391 . S
C541 H529 0.950 . S
C541 C537 1.393 . S
C541 C540 1.391 . S
C542 H532 0.950 . S
C542 C543 1.386 . S
C542 C544 1.391 . S
C543 C542 1.386 . S
C543 C547 1.393 . S
C544 H533 0.950 . S
C544 C542 1.391 . S
C544 C545 1.400 . S
C545 C539 1.491 . S
C545 C544 1.400 . S
C545 C546 1.398 . S
C546 H534 0.950 . S
C546 C545 1.398 . S
C546 C547 1.391 . S
C547 H535 0.950 . S
C547 C543 1.393 . S
C547 C546 1.391 . S
H548 C556 0.950 . S
H549 C561 0.950 . S
H550 C558 0.950 . S
H551 C560 0.950 . S
H552 C562 0.950 . S
H553 C564 0.950 . S
H554 C566 0.936 1_655 S
H555 C567 0.950 1_655 S
C556 H548 0.950 . S
C556 C557 1.386 . S
C556 C558 1.391 . S
C557 C556 1.386 . S
C557 C561 1.393 . S
C558 H550 0.950 . S
C558 C556 1.391 . S
C558 C559 1.400 . S
C559 C558 1.400 . S
C559 C560 1.398 . S
C559 C565 1.491 . S
C560 H551 0.950 . S
C560 C559 1.398 . S
C560 C561 1.391 . S
C561 H549 0.950 . S
C561 C557 1.393 . S
C561 C560 1.391 . S
C562 H552 0.950 . S
C562 C563 1.386 . S
C562 C564 1.391 . S
C563 C562 1.386 . S
C563 C567 1.393 . S
C564 H553 0.950 . S
C564 C562 1.391 . S
C564 C565 1.400 . S
C565 C559 1.491 . S
C565 C564 1.400 . S
C565 C566 1.398 . S
C566 H554 0.936 1_455 S
C566 C565 1.398 . S
C566 C567 1.391 . S
C567 H555 0.950 1_455 S
C567 C563 1.393 . S
C567 C566 1.391 . S
H568 C576 0.950 . S
H569 C581 0.950 1_545 S
H570 C578 0.950 . S
H571 C580 0.950 1_556 S
H572 C582 0.950 . S
H573 C584 0.950 . S
H574 C586 0.950 1_554 S
H575 C587 0.950 . S
C576 H568 0.950 . S
C576 C577 1.386 . S
C576 C578 1.391 . S
C577 C576 1.386 . S
C577 C581 1.393 . S
C578 H570 0.950 . S
C578 C576 1.391 . S
C578 C579 1.400 . S
C579 C578 1.400 . S
C579 C580 1.398 1_565 S
C579 C585 1.491 1_554 S
C580 H571 0.950 1_554 S
C580 C579 1.398 1_545 S
C580 C581 1.391 1_545 S
C581 H569 0.950 1_565 S
C581 C577 1.393 . S
C581 C580 1.391 1_565 S
C582 H572 0.950 . S
C582 C583 1.386 . S
C582 C584 1.391 . S
C583 C582 1.386 . S
C583 C587 1.393 1_545 S
C584 H573 0.950 . S
C584 C582 1.391 . S
C584 C585 1.400 1_545 S
C585 C579 1.491 1_556 S
C585 C584 1.400 1_565 S
C585 C586 1.398 . S
C586 H574 0.950 1_556 S
C586 C585 1.398 . S
C586 C587 1.391 . S
C587 H575 0.950 . S
C587 C583 1.393 1_565 S
C587 C586 1.391 . S
H588 C596 0.950 . S
H589 C601 0.950 . S
H590 C598 0.950 . S
H591 C600 0.950 1_556 S
H592 C602 0.950 . S
H593 C604 0.950 . S
H594 C606 0.950 1_554 S
H595 C607 0.950 . S
C596 H588 0.950 . S
C596 C597 1.386 . S
C596 C598 1.391 . S
C597 C596 1.386 . S
C597 C601 1.393 . S
C598 H590 0.950 . S
C598 C596 1.391 . S
C598 C599 1.400 . S
C599 C598 1.400 . S
C599 C600 1.398 . S
C599 C605 1.491 1_554 S
C600 H591 0.950 1_554 S
C600 C599 1.398 . S
C600 C601 1.391 . S
C601 H589 0.950 . S
C601 C597 1.393 . S
C601 C600 1.391 . S
C602 H592 0.950 . S
C602 C603 1.386 . S
C602 C604 1.391 . S
C603 C602 1.386 . S
C603 C607 1.393 . S
C604 H593 0.950 . S
C604 C602 1.391 . S
C604 C605 1.400 . S
C605 C599 1.491 1_556 S
C605 C604 1.400 . S
C605 C606 1.398 . S
C606 H594 0.950 1_556 S
C606 C605 1.398 . S
C606 C607 1.391 . S
C607 H595 0.950 . S
C607 C603 1.393 . S
C607 C606 1.391 . S
H608 C616 0.950 . S
H609 C621 0.950 . S
H610 C618 0.950 . S
H611 C620 0.950 . S
H612 C622 0.950 . S
H613 C624 0.950 . S
H614 C626 0.950 . S
H615 C627 0.950 . S
C616 H608 0.950 . S
C616 C617 1.386 . S
C616 C618 1.391 . S
C617 C616 1.386 . S
C617 C621 1.393 . S
C618 H610 0.950 . S
C618 C616 1.391 . S
C618 C619 1.400 . S
C619 C618 1.400 . S
C619 C620 1.398 . S
C619 C625 1.491 1_554 S
C620 H611 0.950 . S
C620 C619 1.398 . S
C620 C621 1.391 . S
C621 H609 0.950 . S
C621 C617 1.393 . S
C621 C620 1.391 . S
C622 H612 0.950 . S
C622 C623 1.386 . S
C622 C624 1.391 . S
C623 C622 1.386 . S
C623 C627 1.393 . S
C624 H613 0.950 . S
C624 C622 1.391 . S
C624 C625 1.400 . S
C625 C619 1.491 1_556 S
C625 C624 1.400 . S
C625 C626 1.398 . S
C626 H614 0.950 . S
C626 C625 1.398 . S
C626 C627 1.391 . S
C627 H615 0.950 . S
C627 C623 1.393 . S
C627 C626 1.391 . S
H628 C636 0.950 . S
H629 C641 0.950 . S
H630 C638 0.950 1_556 S
H631 C640 0.950 . S
H632 C642 0.951 . S
H633 C644 0.953 1_554 S
H634 C646 0.950 . S
H635 C647 0.950 . S
C636 H628 0.950 . S
C636 C637 1.386 . S
C636 C638 1.391 . S
C637 C636 1.386 . S
C637 C641 1.393 . S
C638 H630 0.950 1_554 S
C638 C636 1.391 . S
C638 C639 1.400 . S
C639 C638 1.400 . S
C639 C640 1.398 . S
C639 C645 1.491 1_554 S
C640 H631 0.950 . S
C640 C639 1.398 . S
C640 C641 1.391 . S
C641 H629 0.950 . S
C641 C637 1.393 . S
C641 C640 1.391 . S
C642 H632 0.951 . S
C642 C643 1.385 1_455 S
C642 C644 1.390 1_455 S
C643 C642 1.385 1_655 S
C643 C647 1.393 . S
C644 H633 0.953 1_556 S
C644 C642 1.390 1_655 S
C644 C645 1.400 . S
C645 C639 1.491 1_556 S
C645 C644 1.400 . S
C645 C646 1.398 . S
C646 H634 0.950 . S
C646 C645 1.398 . S
C646 C647 1.391 . S
C647 H635 0.950 . S
C647 C643 1.393 . S
C647 C646 1.391 . S
H648 C656 0.950 . S
H649 C661 0.950 . S
H650 C658 0.950 . S
H651 C660 0.950 . S
H652 C662 0.950 1_655 S
H653 C664 0.950 . S
H654 C666 0.950 . S
H655 C667 0.950 . S
C656 H648 0.950 . S
C656 C657 1.386 . S
C656 C658 1.391 . S
C657 C656 1.386 . S
C657 C661 1.393 . S
C658 H650 0.950 . S
C658 C656 1.391 . S
C658 C659 1.400 . S
C659 C658 1.400 . S
C659 C660 1.398 . S
C659 C665 1.491 . S
C660 H651 0.950 . S
C660 C659 1.398 . S
C660 C661 1.391 . S
C661 H649 0.950 . S
C661 C657 1.393 . S
C661 C660 1.391 . S
C662 H652 0.950 1_455 S
C662 C663 1.386 . S
C662 C664 1.391 . S
C663 C662 1.386 . S
C663 C667 1.393 . S
C664 H653 0.950 . S
C664 C662 1.391 . S
C664 C665 1.400 . S
C665 C659 1.491 . S
C665 C664 1.400 . S
C665 C666 1.398 . S
C666 H654 0.950 . S
C666 C665 1.398 . S
C666 C667 1.391 . S
C667 H655 0.950 . S
C667 C663 1.393 . S
C667 C666 1.391 . S
H668 C676 0.950 . S
H669 C681 0.950 . S
H670 C678 0.950 . S
H671 C680 0.950 . S
H672 C682 0.950 . S
H673 C684 0.950 . S
H674 C686 0.950 1_565 S
H675 C687 0.966 . S
C676 H668 0.950 . S
C676 C677 1.386 . S
C676 C678 1.391 . S
C677 C676 1.386 . S
C677 C681 1.393 . S
C678 H670 0.950 . S
C678 C676 1.391 . S
C678 C679 1.400 . S
C679 C678 1.400 . S
C679 C680 1.398 . S
C679 C685 1.491 . S
C680 H671 0.950 . S
C680 C679 1.398 . S
C680 C681 1.391 . S
C681 H669 0.950 . S
C681 C677 1.393 . S
C681 C680 1.391 . S
C682 H672 0.950 . S
C682 C683 1.386 . S
C682 C684 1.391 . S
C683 C682 1.386 . S
C683 C687 1.381 1_545 S
C684 H673 0.950 . S
C684 C682 1.391 . S
C684 C685 1.400 . S
C685 C679 1.491 . S
C685 C684 1.400 . S
C685 C686 1.398 . S
C686 H674 0.950 1_545 S
C686 C685 1.398 . S
C686 C687 1.386 1_545 S
C687 H675 0.966 . S
C687 C683 1.381 1_565 S
C687 C686 1.386 1_565 S
H688 C696 0.950 . S
H689 C701 0.950 . S
H690 C698 0.950 . S
H691 C700 0.950 . S
H692 C702 0.950 . S
H693 C704 0.950 . S
H694 C706 0.950 . S
H695 C707 0.950 . S
C696 H688 0.950 . S
C696 C697 1.386 . S
C696 C698 1.391 . S
C697 C696 1.386 . S
C697 C701 1.393 . S
C698 H690 0.950 . S
C698 C696 1.391 . S
C698 C699 1.400 . S
C699 C698 1.400 . S
C699 C700 1.398 . S
C699 C705 1.491 . S
C700 H691 0.950 . S
C700 C699 1.398 . S
C700 C701 1.391 . S
C701 H689 0.950 . S
C701 C697 1.393 . S
C701 C700 1.391 . S
C702 H692 0.950 . S
C702 C703 1.386 . S
C702 C704 1.391 . S
C703 C702 1.386 . S
C703 C707 1.393 . S
C704 H693 0.950 . S
C704 C702 1.391 . S
C704 C705 1.400 . S
C705 C699 1.491 . S
C705 C704 1.400 . S
C705 C706 1.398 . S
C706 H694 0.950 . S
C706 C705 1.398 . S
C706 C707 1.391 . S
C707 H695 0.950 . S
C707 C703 1.393 . S
C707 C706 1.391 . S
H708 C716 0.950 . S
H709 C721 0.950 . S
H710 C718 0.950 . S
H711 C720 0.950 . S
H712 C722 0.950 . S
H713 C724 0.950 . S
H714 C726 0.950 . S
H715 C727 0.950 . S
C716 H708 0.950 . S
C716 C717 1.386 . S
C716 C718 1.391 . S
C717 C716 1.386 . S
C717 C721 1.393 . S
C718 H710 0.950 . S
C718 C716 1.391 . S
C718 C719 1.400 . S
C719 C718 1.400 . S
C719 C720 1.398 . S
C719 C725 1.491 . S
C720 H711 0.950 . S
C720 C719 1.398 . S
C720 C721 1.391 . S
C721 H709 0.950 . S
C721 C717 1.393 . S
C721 C720 1.391 . S
C722 H712 0.950 . S
C722 C723 1.386 . S
C722 C724 1.391 . S
C723 C722 1.386 . S
C723 C727 1.393 . S
C724 H713 0.950 . S
C724 C722 1.391 . S
C724 C725 1.400 . S
C725 C719 1.491 . S
C725 C724 1.400 . S
C725 C726 1.398 . S
C726 H714 0.950 . S
C726 C725 1.398 . S
C726 C727 1.391 . S
C727 H715 0.950 . S
C727 C723 1.393 . S
C727 C726 1.391 . S
H728 C736 0.950 1_455 S
H729 C741 0.950 . S
H730 C738 0.950 . S
H731 C740 0.950 . S
H732 C742 0.950 . S
H733 C744 0.950 . S
H734 C746 0.950 . S
H735 C747 0.950 . S
C736 H728 0.950 1_655 S
C736 C737 1.386 . S
C736 C738 1.391 1_655 S
C737 C736 1.386 . S
C737 C741 1.393 . S
C738 H730 0.950 . S
C738 C736 1.391 1_455 S
C738 C739 1.400 1_455 S
C739 C738 1.400 1_655 S
C739 C740 1.398 . S
C739 C745 1.491 . S
C740 H731 0.950 . S
C740 C739 1.398 . S
C740 C741 1.391 . S
C741 H729 0.950 . S
C741 C737 1.393 . S
C741 C740 1.391 . S
C742 H732 0.950 . S
C742 C743 1.386 1_654 S
C742 C744 1.391 . S
C743 C742 1.386 1_456 S
C743 C747 1.393 . S
C744 H733 0.950 . S
C744 C742 1.391 . S
C744 C745 1.400 . S
C745 C739 1.491 . S
C745 C744 1.400 . S
C745 C746 1.398 1_655 S
C746 H734 0.950 . S
C746 C745 1.398 1_455 S
C746 C747 1.391 1_554 S
C747 H735 0.950 . S
C747 C743 1.393 . S
C747 C746 1.391 1_556 S
H748 C756 0.950 . S
H749 C761 0.950 . S
H750 C758 0.950 . S
H751 C760 0.950 . S
H752 C762 0.950 . S
H753 C764 0.950 . S
H754 C766 0.950 . S
H755 C767 0.950 . S
C756 H748 0.950 . S
C756 C757 1.386 1_545 S
C756 C758 1.391 . S
C757 C756 1.386 1_565 S
C757 C761 1.393 . S
C758 H750 0.950 . S
C758 C756 1.391 . S
C758 C759 1.400 1_545 S
C759 C758 1.400 1_565 S
C759 C760 1.398 . S
C759 C765 1.491 . S
C760 H751 0.950 . S
C760 C759 1.398 . S
C760 C761 1.391 . S
C761 H749 0.950 . S
C761 C757 1.393 . S
C761 C760 1.391 . S
C762 H752 0.950 . S
C762 C763 1.386 1_565 S
C762 C764 1.391 1_556 S
C763 C762 1.386 1_545 S
C763 C767 1.393 1_556 S
C764 H753 0.950 . S
C764 C762 1.391 1_554 S
C764 C765 1.400 . S
C765 C759 1.491 . S
C765 C764 1.400 . S
C765 C766 1.398 1_565 S
C766 H754 0.950 . S
C766 C765 1.398 1_545 S
C766 C767 1.391 . S
C767 H755 0.950 . S
C767 C763 1.393 1_554 S
C767 C766 1.391 . S
H768 C776 0.950 . S
H769 C781 0.950 . S
H770 C778 0.950 . S
H771 C780 0.950 . S
H772 C782 0.950 . S
H773 C784 0.950 . S
H774 C786 0.950 . S
H775 C787 0.950 . S
C776 H768 0.950 . S
C776 C777 1.386 . S
C776 C778 1.391 . S
C777 C776 1.386 . S
C777 C781 1.393 . S
C778 H770 0.950 . S
C778 C776 1.391 . S
C778 C779 1.400 . S
C779 C778 1.400 . S
C779 C780 1.398 . S
C779 C785 1.491 . S
C780 H771 0.950 . S
C780 C779 1.398 . S
C780 C781 1.391 . S
C781 H769 0.950 . S
C781 C777 1.393 . S
C781 C780 1.391 . S
C782 H772 0.950 . S
C782 C783 1.386 1_554 S
C782 C784 1.391 . S
C783 C782 1.386 1_556 S
C783 C787 1.393 . S
C784 H773 0.950 . S
C784 C782 1.391 . S
C784 C785 1.400 . S
C785 C779 1.491 . S
C785 C784 1.400 . S
C785 C786 1.398 . S
C786 H774 0.950 . S
C786 C785 1.398 . S
C786 C787 1.391 1_554 S
C787 H775 0.950 . S
C787 C783 1.393 . S
C787 C786 1.391 1_556 S
H788 C796 0.950 . S
H789 C801 0.950 . S
H790 C798 0.950 . S
H791 C800 0.950 . S
H792 C802 0.950 . S
H793 C804 0.950 . S
H794 C806 0.950 . S
H795 C807 0.950 . S
C796 H788 0.950 . S
C796 C797 1.386 . S
C796 C798 1.391 . S
C797 C796 1.386 . S
C797 C801 1.393 . S
C798 H790 0.950 . S
C798 C796 1.391 . S
C798 C799 1.400 . S
C799 C798 1.400 . S
C799 C800 1.398 . S
C799 C805 1.491 . S
C800 H791 0.950 . S
C800 C799 1.398 . S
C800 C801 1.391 . S
C801 H789 0.950 . S
C801 C797 1.393 . S
C801 C800 1.391 . S
C802 H792 0.950 . S
C802 C803 1.386 1_554 S
C802 C804 1.391 . S
C803 C802 1.386 1_556 S
C803 C807 1.393 . S
C804 H793 0.950 . S
C804 C802 1.391 . S
C804 C805 1.400 . S
C805 C799 1.491 . S
C805 C804 1.400 . S
C805 C806 1.398 . S
C806 H794 0.950 . S
C806 C805 1.398 . S
C806 C807 1.391 1_554 S
C807 H795 0.950 . S
C807 C803 1.393 . S
C807 C806 1.391 1_556 S
H808 C816 0.950 1_655 S
H809 C821 0.950 . S
H810 C818 0.950 1_655 S
H811 C820 0.950 . S
H812 C822 0.950 . S
H813 C824 0.950 . S
H814 C826 0.950 1_655 S
H815 C827 0.933 1_655 S
C816 H808 0.950 1_455 S
C816 C817 1.386 . S
C816 C818 1.391 . S
C817 C816 1.386 . S
C817 C821 1.393 . S
C818 H810 0.950 1_455 S
C818 C816 1.391 . S
C818 C819 1.400 . S
C819 C818 1.400 . S
C819 C820 1.398 . S
C819 C825 1.491 . S
C820 H811 0.950 . S
C820 C819 1.398 . S
C820 C821 1.391 . S
C821 H809 0.950 . S
C821 C817 1.393 . S
C821 C820 1.391 . S
C822 H812 0.950 . S
C822 C823 1.386 . S
C822 C824 1.391 . S
C823 C822 1.386 . S
C823 C827 1.408 . S
C824 H813 0.950 . S
C824 C822 1.391 . S
C824 C825 1.400 . S
C825 C819 1.491 . S
C825 C824 1.400 . S
C825 C826 1.398 . S
C826 H814 0.950 1_455 S
C826 C825 1.398 . S
C826 C827 1.393 . S
C827 H815 0.933 1_455 S
C827 C823 1.408 . S
C827 C826 1.393 . S
H828 C836 0.950 . S
H829 C841 0.950 . S
H830 C838 0.950 . S
H831 C840 0.950 1_565 S
H832 C842 0.950 1_565 S
H833 C844 0.950 1_565 S
H834 C846 0.950 . S
H835 C847 0.950 . S
C836 H828 0.950 . S
C836 C837 1.386 . S
C836 C838 1.391 . S
C837 C836 1.386 . S
C837 C841 1.393 . S
C838 H830 0.950 . S
C838 C836 1.391 . S
C838 C839 1.400 . S
C839 C838 1.400 . S
C839 C840 1.398 . S
C839 C845 1.491 . S
C840 H831 0.950 1_545 S
C840 C839 1.398 . S
C840 C841 1.391 . S
C841 H829 0.950 . S
C841 C837 1.393 . S
C841 C840 1.391 . S
C842 H832 0.950 1_545 S
C842 C843 1.386 . S
C842 C844 1.391 . S
C843 C842 1.386 . S
C843 C847 1.393 . S
C844 H833 0.950 1_545 S
C844 C842 1.391 . S
C844 C845 1.400 . S
C845 C839 1.491 . S
C845 C844 1.400 . S
C845 C846 1.398 . S
C846 H834 0.950 . S
C846 C845 1.398 . S
C846 C847 1.391 . S
C847 H835 0.950 . S
C847 C843 1.393 . S
C847 C846 1.391 . S
H848 C856 0.950 . S
H849 C861 0.950 . S
H850 C858 0.950 . S
H851 C860 0.950 . S
H852 C862 0.950 . S
H853 C864 0.950 . S
H854 C866 0.950 . S
H855 C867 0.950 . S
C856 H848 0.950 . S
C856 C857 1.386 . S
C856 C858 1.391 . S
C857 C856 1.386 . S
C857 C861 1.393 . S
C858 H850 0.950 . S
C858 C856 1.391 . S
C858 C859 1.400 . S
C859 C858 1.400 . S
C859 C860 1.398 . S
C859 C865 1.491 . S
C860 H851 0.950 . S
C860 C859 1.398 . S
C860 C861 1.391 . S
C861 H849 0.950 . S
C861 C857 1.393 . S
C861 C860 1.391 . S
C862 H852 0.950 . S
C862 C863 1.386 . S
C862 C864 1.391 . S
C863 C862 1.386 . S
C863 C867 1.393 . S
C864 H853 0.950 . S
C864 C862 1.391 . S
C864 C865 1.400 . S
C865 C859 1.491 . S
C865 C864 1.400 . S
C865 C866 1.398 . S
C866 H854 0.950 . S
C866 C865 1.398 . S
C866 C867 1.391 . S
C867 H855 0.950 . S
C867 C863 1.393 . S
C867 C866 1.391 . S
H868 C876 0.950 . S
H869 C881 0.950 . S
H870 C878 0.950 . S
H871 C880 0.950 . S
H872 C882 0.950 . S
H873 C884 0.950 . S
H874 C886 0.950 . S
H875 C887 0.950 . S
C876 H868 0.950 . S
C876 C877 1.386 . S
C876 C878 1.391 . S
C877 C876 1.386 . S
C877 C881 1.393 . S
C878 H870 0.950 . S
C878 C876 1.391 . S
C878 C879 1.400 . S
C879 C878 1.400 . S
C879 C880 1.398 . S
C879 C885 1.491 . S
C880 H871 0.950 . S
C880 C879 1.398 . S
C880 C881 1.391 . S
C881 H869 0.950 . S
C881 C877 1.393 . S
C881 C880 1.391 . S
C882 H872 0.950 . S
C882 C883 1.386 . S
C882 C884 1.391 . S
C883 C882 1.386 . S
C883 C887 1.393 . S
C884 H873 0.950 . S
C884 C882 1.391 . S
C884 C885 1.400 . S
C885 C879 1.491 . S
C885 C884 1.400 . S
C885 C886 1.398 . S
C886 H874 0.950 . S
C886 C885 1.398 . S
C886 C887 1.391 . S
C887 H875 0.950 . S
C887 C883 1.393 . S
C887 C886 1.391 . S
H888 C896 0.950 . S
H889 C901 0.950 . S
H890 C898 0.950 . S
H891 C900 0.950 . S
H892 C902 0.950 . S
H893 C904 0.950 . S
H894 C906 0.950 . S
H895 C907 0.950 . S
C896 H888 0.950 . S
C896 C897 1.386 . S
C896 C898 1.391 . S
C897 C896 1.386 . S
C897 C901 1.393 . S
C898 H890 0.950 . S
C898 C896 1.391 . S
C898 C899 1.400 . S
C899 C898 1.400 . S
C899 C900 1.398 . S
C899 C905 1.491 . S
C900 H891 0.950 . S
C900 C899 1.398 . S
C900 C901 1.391 . S
C901 H889 0.950 . S
C901 C897 1.393 . S
C901 C900 1.391 . S
C902 H892 0.950 . S
C902 C903 1.386 . S
C902 C904 1.391 . S
C903 C902 1.386 . S
C903 C907 1.393 . S
C904 H893 0.950 . S
C904 C902 1.391 . S
C904 C905 1.400 . S
C905 C899 1.491 . S
C905 C904 1.400 . S
C905 C906 1.398 . S
C906 H894 0.950 . S
C906 C905 1.398 . S
C906 C907 1.391 . S
C907 H895 0.950 . S
C907 C903 1.393 . S
C907 C906 1.391 . S
H908 C916 0.950 . S
H909 C921 0.950 . S
H910 C918 0.950 . S
H911 C920 0.954 . S
H912 C922 0.950 . S
H913 C924 0.950 . S
H914 C926 0.950 . S
H915 C927 0.950 . S
C916 H908 0.950 . S
C916 C917 1.386 . S
C916 C918 1.391 . S
C917 C916 1.386 . S
C917 C921 1.393 . S
C918 H910 0.950 . S
C918 C916 1.391 . S
C918 C919 1.400 . S
C919 C918 1.400 . S
C919 C920 1.398 . S
C919 C925 1.491 . S
C920 H911 0.954 . S
C920 C919 1.398 . S
C920 C921 1.391 . S
C921 H909 0.950 . S
C921 C917 1.393 . S
C921 C920 1.391 . S
C922 H912 0.950 . S
C922 C923 1.386 1_545 S
C922 C924 1.391 . S
C923 C922 1.386 1_565 S
C923 C927 1.393 . S
C924 H913 0.950 . S
C924 C922 1.391 . S
C924 C925 1.400 1_545 S
C925 C919 1.491 . S
C925 C924 1.400 1_565 S
C925 C926 1.398 . S
C926 H914 0.950 . S
C926 C925 1.398 . S
C926 C927 1.391 . S
C927 H915 0.950 . S
C927 C923 1.393 . S
C927 C926 1.391 . S
H928 C936 0.950 . S
H929 C941 0.950 . S
H930 C938 0.950 . S
H931 C940 0.950 . S
H932 C942 0.950 . S
H933 C944 0.950 . S
H934 C946 0.950 . S
H935 C947 0.950 . S
C936 H928 0.950 . S
C936 C937 1.386 . S
C936 C938 1.391 . S
C937 C936 1.386 . S
C937 C941 1.393 . S
C938 H930 0.950 . S
C938 C936 1.391 . S
C938 C939 1.400 . S
C939 C938 1.400 . S
C939 C940 1.398 . S
C939 C945 1.491 . S
C940 H931 0.950 . S
C940 C939 1.398 . S
C940 C941 1.391 . S
C941 H929 0.950 . S
C941 C937 1.393 . S
C941 C940 1.391 . S
C942 H932 0.950 . S
C942 C943 1.386 . S
C942 C944 1.391 . S
C943 C942 1.386 . S
C943 C947 1.393 . S
C944 H933 0.950 . S
C944 C942 1.391 . S
C944 C945 1.400 . S
C945 C939 1.491 . S
C945 C944 1.400 . S
C945 C946 1.398 . S
C946 H934 0.950 . S
C946 C945 1.398 . S
C946 C947 1.391 . S
C947 H935 0.950 . S
C947 C943 1.393 . S
C947 C946 1.391 . S
H948 C956 0.950 . S
H949 C961 0.950 . S
H950 C958 0.950 . S
H951 C960 0.950 . S
H952 C962 0.950 . S
H953 C964 0.950 . S
H954 C966 0.950 . S
H955 C967 0.950 . S
C956 H948 0.950 . S
C956 C957 1.386 . S
C956 C958 1.391 . S
C957 C956 1.386 . S
C957 C961 1.393 . S
C958 H950 0.950 . S
C958 C956 1.391 . S
C958 C959 1.400 . S
C959 C958 1.400 . S
C959 C960 1.398 . S
C959 C965 1.491 . S
C960 H951 0.950 . S
C960 C959 1.398 . S
C960 C961 1.391 . S
C961 H949 0.950 . S
C961 C957 1.393 . S
C961 C960 1.391 . S
C962 H952 0.950 . S
C962 C963 1.386 . S
C962 C964 1.391 . S
C963 C962 1.386 . S
C963 C967 1.393 . S
C964 H953 0.950 . S
C964 C962 1.391 . S
C964 C965 1.400 . S
C965 C959 1.491 . S
C965 C964 1.400 . S
C965 C966 1.398 . S
C966 H954 0.950 . S
C966 C965 1.398 . S
C966 C967 1.391 . S
C967 H955 0.950 . S
C967 C963 1.393 . S
C967 C966 1.391 . S
C497 C125 1.957 . S
C503 C215 2.017 . S
C523 C292 2.028 . S
C517 C144 1.962 . S
C543 C383 2.017 . S
C537 C87 1.940 . S
C563 C467 1.998 . S
C557 C106 1.952 . S
C583 C226 2.012 . S
C577 C49 2.011 . S
C597 C68 2.011 . S
C603 C303 2.029 . S
C617 C11 2.008 . S
C623 C394 2.015 . S
C637 C30 2.006 . S
C643 C478 2.008 1_655 S
C663 C210 0.685 1_455 S
C657 C97 0.660 . S
C683 C305 0.688 . S
C677 C116 0.613 . S
C703 C378 0.702 . S
C697 C135 0.643 . S
C717 C78 0.620 . S
C723 C462 0.680 . S
C737 C21 0.685 . S
C743 C221 0.663 . S
C763 C294 0.625 1_556 S
C757 C40 0.660 . S
C783 C389 0.654 . S
C777 C59 0.635 . S
C797 C2 0.670 . S
C803 C473 0.652 . S
C817 C101 1.957 . S
C823 C219 2.111 . S
C837 C120 1.933 . S
C843 C310 2.132 . S
C863 C387 2.117 . S
C857 C139 1.945 . S
C883 C471 2.125 . S
C877 C82 1.957 . S
C897 C25 1.945 . S
C903 C208 2.104 . S
C923 C299 2.128 1_565 S
C917 C44 1.959 . S
C943 C376 2.117 . S
C937 C63 1.947 . S
C957 C6 1.974 . S
C963 C460 2.130 . S
