# Generated by pormake.
# Topology nom, (4,4)-cn, num edge types: 1
# Building blocks:
#     Node 0, Type 0, BuildingBlock: NAHDIM_clean_linker_0, # of connection points: 4
#     Node 1, Type 0, BuildingBlock: NAHDIM_clean_linker_0, # of connection points: 4
#     Node 2, Type 0, BuildingBlock: NAHDIM_clean_linker_0, # of connection points: 4
#     Node 3, Type 0, BuildingBlock: NAHDIM_clean_linker_0, # of connection points: 4
#     Node 4, Type 0, BuildingBlock: NAHDIM_clean_linker_0, # of connection points: 4
#     Node 5, Type 0, BuildingBlock: NAHDIM_clean_linker_0, # of connection points: 4
#     Node 6, Type 1, BuildingBlock: NAHDIM_clean_sbu_0, # of connection points: 4
#     Node 7, Type 1, BuildingBlock: NAHDIM_clean_sbu_0, # of connection points: 4
#     Node 8, Type 1, BuildingBlock: NAHDIM_clean_sbu_0, # of connection points: 4
#     Node 9, Type 1, BuildingBlock: NAHDIM_clean_sbu_0, # of connection points: 4
#     Node 10, Type 1, BuildingBlock: NAHDIM_clean_sbu_0, # of connection points: 4
#     Node 11, Type 1, BuildingBlock: NAHDIM_clean_sbu_0, # of connection points: 4
#     Edge 12, Type (0, 1), BuildingBlock: TEMPAE_clean_linker_10, # of connection points: 2
#     Edge 13, Type (0, 1), BuildingBlock: TEMPAE_clean_linker_10, # of connection points: 2
#     Edge 14, Type (0, 1), BuildingBlock: TEMPAE_clean_linker_10, # of connection points: 2
#     Edge 15, Type (0, 1), BuildingBlock: TEMPAE_clean_linker_10, # of connection points: 2
#     Edge 16, Type (0, 1), BuildingBlock: TEMPAE_clean_linker_10, # of connection points: 2
#     Edge 17, Type (0, 1), BuildingBlock: TEMPAE_clean_linker_10, # of connection points: 2
#     Edge 18, Type (0, 1), BuildingBlock: TEMPAE_clean_linker_10, # of connection points: 2
#     Edge 19, Type (0, 1), BuildingBlock: TEMPAE_clean_linker_10, # of connection points: 2
#     Edge 20, Type (0, 1), BuildingBlock: TEMPAE_clean_linker_10, # of connection points: 2
#     Edge 21, Type (0, 1), BuildingBlock: TEMPAE_clean_linker_10, # of connection points: 2
#     Edge 22, Type (0, 1), BuildingBlock: TEMPAE_clean_linker_10, # of connection points: 2
#     Edge 23, Type (0, 1), BuildingBlock: TEMPAE_clean_linker_10, # of connection points: 2
#     Edge 24, Type (0, 1), BuildingBlock: TEMPAE_clean_linker_10, # of connection points: 2
#     Edge 25, Type (0, 1), BuildingBlock: TEMPAE_clean_linker_10, # of connection points: 2
#     Edge 26, Type (0, 1), BuildingBlock: TEMPAE_clean_linker_10, # of connection points: 2
#     Edge 27, Type (0, 1), BuildingBlock: TEMPAE_clean_linker_10, # of connection points: 2
#     Edge 28, Type (0, 1), BuildingBlock: TEMPAE_clean_linker_10, # of connection points: 2
#     Edge 29, Type (0, 1), BuildingBlock: TEMPAE_clean_linker_10, # of connection points: 2
#     Edge 30, Type (0, 1), BuildingBlock: TEMPAE_clean_linker_10, # of connection points: 2
#     Edge 31, Type (0, 1), BuildingBlock: TEMPAE_clean_linker_10, # of connection points: 2
#     Edge 32, Type (0, 1), BuildingBlock: TEMPAE_clean_linker_10, # of connection points: 2
#     Edge 33, Type (0, 1), BuildingBlock: TEMPAE_clean_linker_10, # of connection points: 2
#     Edge 34, Type (0, 1), BuildingBlock: TEMPAE_clean_linker_10, # of connection points: 2
#     Edge 35, Type (0, 1), BuildingBlock: TEMPAE_clean_linker_10, # of connection points: 2
# Relax obj value: 0.064
# Max RMSD: 0.130
# Mean RMSD: 0.124
data_MOF--net-nom--node1-NAHDIM_clean_sbu_0--node2-NAHDIM_clean_linker_0--edge1-TEMPAE_clean_linker_10
_symmetry_space_group_name_H-M    P1
_symmetry_Int_Tables_number       1
_symmetry_cell_setting            triclinic
loop_
_symmetry_equiv_pos_as_xyz
'x, y, z'
_cell_length_a     57.27706
_cell_length_b     59.096339
_cell_length_c     70.588559
_cell_angle_alpha  90.15123
_cell_angle_beta   90.634217
_cell_angle_gamma 121.05047
loop_
_atom_site_label
_atom_site_type_symbol
_atom_site_fract_x
_atom_site_fract_y
_atom_site_fract_z
_atom_type_partial_charge
C0 C 0.18053 0.59442 0.24961 0.0
C1 C 0.18256 0.61034 0.26741 0.0
C2 C 0.13425 0.59391 0.27397 0.0
C3 C 0.1277 0.56877 0.28033 0.0
C4 C 0.10083 0.54972 0.28496 0.0
C5 C 0.08014 0.55592 0.2833 0.0
C6 C 0.0867 0.58129 0.27723 0.0
C7 C 0.11373 0.59997 0.27267 0.0
C8 C 0.09446 0.52283 0.2915 0.0
C9 C 0.0651 0.58856 0.2754 0.0
C10 C 0.9916 0.45484 0.18095 0.0
C11 C 0.96948 0.4583 0.19008 0.0
C12 C 0.97001 0.45644 0.22434 0.0
C13 C 0.96877 0.47885 0.2291 0.0
C14 C 0.97994 0.49234 0.24627 0.0
C15 C 0.99245 0.48308 0.25892 0.0
C16 C 0.99217 0.45953 0.25465 0.0
C17 C 0.98063 0.4463 0.23743 0.0
C18 C 0.97926 0.517 0.25063 0.0
C19 C 0.00508 0.44899 0.26793 0.0
C20 C 0.87905 0.42751 0.35548 0.0
C21 C 0.88635 0.45294 0.34945 0.0
C22 C 0.91384 0.47282 0.34795 0.0
C23 C 0.93435 0.46706 0.35245 0.0
C24 C 0.92704 0.44187 0.35944 0.0
C25 C 0.89938 0.42246 0.36105 0.0
C26 C 0.92097 0.49978 0.34106 0.0
C27 C 0.94843 0.43521 0.36459 0.0
C28 C 0.12828 0.63182 0.41029 0.0
C29 C 0.10981 0.60205 0.41313 0.0
C30 C 0.06252 0.57612 0.40259 0.0
C31 C 0.04274 0.58044 0.39464 0.0
C32 C 0.02333 0.56232 0.38164 0.0
C33 C 0.0235 0.53912 0.37693 0.0
C34 C 0.04193 0.53354 0.38627 0.0
C35 C 0.0614 0.55221 0.39896 0.0
C36 C 0.00365 0.56864 0.37218 0.0
C37 C 0.04194 0.50849 0.38214 0.0
C38 C 0.05151 0.53563 0.2875 0.0
C39 C 0.03529 0.51911 0.27269 0.0
C40 C 0.00816 0.49945 0.27556 0.0
C41 C 0.99674 0.49602 0.29373 0.0
C42 C 0.96952 0.47646 0.29712 0.0
C43 C 0.95853 0.47331 0.31509 0.0
C44 C 0.97432 0.48967 0.33034 0.0
C45 C 0.96329 0.48681 0.34864 0.0
C46 C 0.97967 0.50306 0.36356 0.0
C47 C 0.00689 0.52246 0.36065 0.0
C48 C 0.01815 0.52598 0.34239 0.0
C49 C 0.04534 0.54574 0.33891 0.0
C50 C 0.05631 0.54893 0.32096 0.0
C51 C 0.04053 0.53257 0.30577 0.0
C52 C 0.01304 0.51265 0.3089 0.0
C53 C 0.00183 0.50941 0.32723 0.0
C54 C 0.81401 0.37591 0.33789 0.0
C55 C 0.83186 0.40479 0.34415 0.0
O56 O 0.15982 0.61277 0.26875 0.0
O57 O 0.08288 0.59567 0.41316 0.0
O58 O 0.85271 0.40734 0.35581 0.0
O59 O 0.9618 0.44473 0.20704 0.0
H60 H 0.18416 0.60019 0.28018 0.0
H61 H 0.1626 0.57407 0.25026 0.0
H62 H 0.17844 0.60398 0.23669 0.0
H63 H 0.19904 0.59295 0.2484 0.0
H64 H 0.14326 0.56368 0.2816 0.0
H65 H 0.11895 0.61941 0.26785 0.0
H66 H 0.07955 0.50742 0.28155 0.0
H67 H 0.11291 0.5212 0.29239 0.0
H68 H 0.08491 0.51869 0.30566 0.0
H69 H 0.0736 0.60928 0.27078 0.0
H70 H 0.04927 0.57516 0.26497 0.0
H71 H 0.05495 0.58589 0.28921 0.0
H72 H 0.97898 0.47995 0.19251 0.0
H73 H 0.99716 0.46468 0.16695 0.0
H74 H 0.01013 0.46405 0.19018 0.0
H75 H 0.98472 0.43363 0.17906 0.0
H76 H 0.95949 0.48604 0.21923 0.0
H77 H 0.98104 0.42871 0.2337 0.0
H78 H 0.97115 0.51581 0.26504 0.0
H79 H 0.00031 0.5344 0.25045 0.0
H80 H 0.96657 0.52021 0.24023 0.0
H81 H 0.00208 0.4298 0.26296 0.0
H82 H 0.02729 0.46349 0.26922 0.0
H83 H 0.99633 0.4464 0.28227 0.0
H84 H 0.84039 0.41627 0.33091 0.0
H85 H 0.87067 0.45727 0.34577 0.0
H86 H 0.89349 0.40289 0.36598 0.0
H87 H 0.93005 0.50307 0.32678 0.0
H88 H 0.90286 0.50198 0.34016 0.0
H89 H 0.93642 0.51535 0.35067 0.0
H90 H 0.93938 0.41468 0.36979 0.0
H91 H 0.96099 0.43767 0.35201 0.0
H92 H 0.96227 0.44906 0.37575 0.0
H93 H 0.11353 0.59246 0.40085 0.0
H94 H 0.15002 0.6374 0.41034 0.0
H95 H 0.12348 0.63742 0.39641 0.0
H96 H 0.12525 0.6431 0.42163 0.0
H97 H 0.0435 0.59875 0.39787 0.0
H98 H 0.07608 0.54839 0.40572 0.0
H99 H 0.00723 0.57063 0.35668 0.0
H100 H 0.98241 0.55219 0.37432 0.0
H101 H 0.00571 0.58719 0.37775 0.0
H102 H 0.05448 0.50517 0.39261 0.0
H103 H 0.0208 0.49121 0.38216 0.0
H104 H 0.05032 0.50969 0.36783 0.0
H105 H 0.04391 0.52162 0.25869 0.0
H106 H 0.95643 0.46337 0.2859 0.0
H107 H 0.93747 0.45786 0.31685 0.0
H108 H 0.97111 0.50064 0.37756 0.0
H109 H 0.0585 0.55903 0.35 0.0
H110 H 0.07735 0.56441 0.31915 0.0
H111 H 0.80534 0.36279 0.35033 0.0
H112 H 0.79707 0.37337 0.32854 0.0
H113 H 0.82642 0.36975 0.32984 0.0
C114 C 0.41284 0.87574 0.57298 0.0
C115 C 0.41215 0.8632 0.5538 0.0
C116 C 0.42719 0.90071 0.53261 0.0
C117 C 0.45426 0.90756 0.52963 0.0
C118 C 0.47365 0.93284 0.52328 0.0
C119 C 0.46583 0.95165 0.52 0.0
C120 C 0.43837 0.94451 0.52245 0.0
C121 C 0.4193 0.91891 0.52843 0.0
C122 C 0.50258 0.93956 0.52028 0.0
C123 C 0.42933 0.9641 0.51925 0.0
C124 C 0.58468 0.04291 0.61967 0.0
C125 C 0.5719 0.05798 0.61134 0.0
C126 C 0.56977 0.05968 0.57712 0.0
C127 C 0.5444 0.05744 0.57432 0.0
C128 C 0.52953 0.0467 0.55741 0.0
C129 C 0.54017 0.03772 0.54319 0.0
C130 C 0.56634 0.04103 0.54572 0.0
C131 C 0.58105 0.0525 0.56258 0.0
C132 C 0.50206 0.04415 0.555 0.0
C133 C 0.57824 0.03134 0.53106 0.0
C134 C 0.59533 0.14511 0.44568 0.0
C135 C 0.56848 0.13689 0.4507 0.0
C136 C 0.54875 0.10993 0.45193 0.0
C137 C 0.5562 0.09094 0.44827 0.0
C138 C 0.58286 0.09921 0.44214 0.0
C139 C 0.60202 0.1263 0.44069 0.0
C140 C 0.52022 0.10178 0.45776 0.0
C141 C 0.59138 0.07948 0.43788 0.0
C142 C 0.40488 0.8972 0.39893 0.0
C143 C 0.43407 0.91312 0.39165 0.0
C144 C 0.45744 0.96011 0.39809 0.0
C145 C 0.44875 0.97709 0.40404 0.0
C146 C 0.46434 0.99753 0.41712 0.0
C147 C 0.48938 0.00118 0.42398 0.0
C148 C 0.49935 0.9855 0.41664 0.0
C149 C 0.48318 0.96503 0.40378 0.0
C150 C 0.45339 0.01422 0.42442 0.0
C151 C 0.52643 0.9895 0.42312 0.0
C152 C 0.4867 0.97923 0.5152 0.0
C153 C 0.50291 0.99584 0.52998 0.0
C154 C 0.52276 0.02219 0.52678 0.0
C155 C 0.5262 0.03262 0.50834 0.0
C156 C 0.54516 0.05931 0.50472 0.0
C157 C 0.54868 0.06923 0.48644 0.0
C158 C 0.53334 0.05283 0.47106 0.0
C159 C 0.53684 0.06268 0.45239 0.0
C160 C 0.52202 0.04561 0.43734 0.0
C161 C 0.50339 0.01886 0.44049 0.0
C162 C 0.49888 0.00886 0.45914 0.0
C163 C 0.47965 0.98219 0.46284 0.0
C164 C 0.47557 0.97245 0.48118 0.0
C165 C 0.49063 0.98894 0.49652 0.0
C166 C 0.51026 0.01582 0.49311 0.0
C167 C 0.51411 0.02587 0.47443 0.0
C168 C 0.6469 0.20333 0.46768 0.0
C169 C 0.61796 0.18937 0.45933 0.0
O170 O 0.40814 0.87674 0.53934 0.0
O171 O 0.44029 0.93855 0.38747 0.0
O172 O 0.61529 0.17097 0.44592 0.0
O173 O 0.58341 0.06808 0.59389 0.0
H174 H 0.43184 0.86408 0.55205 0.0
H175 H 0.43017 0.89649 0.57356 0.0
H176 H 0.39362 0.87568 0.57516 0.0
H177 H 0.41562 0.86474 0.58467 0.0
H178 H 0.46033 0.89324 0.532 0.0
H179 H 0.39825 0.91326 0.53051 0.0
H180 H 0.51607 0.9539 0.53134 0.0
H181 H 0.50459 0.92186 0.52101 0.0
H182 H 0.50987 0.94904 0.50629 0.0
H183 H 0.40765 0.95596 0.52301 0.0
H184 H 0.44223 0.98227 0.52783 0.0
H185 H 0.43191 0.9699 0.50414 0.0
H186 H 0.54963 0.04347 0.60972 0.0
H187 H 0.57569 0.03457 0.63365 0.0
H188 H 0.58065 0.02635 0.61003 0.0
H189 H 0.60709 0.05611 0.62144 0.0
H190 H 0.53613 0.06379 0.58547 0.0
H191 H 0.60084 0.05465 0.56489 0.0
H192 H 0.49995 0.05051 0.54061 0.0
H193 H 0.48579 0.02312 0.55654 0.0
H194 H 0.4988 0.05604 0.56571 0.0
H195 H 0.59794 0.03372 0.53582 0.0
H196 H 0.56373 0.01014 0.52777 0.0
H197 H 0.58164 0.04249 0.51775 0.0
H198 H 0.60408 0.17938 0.47142 0.0
H199 H 0.56303 0.15151 0.45387 0.0
H200 H 0.62272 0.13294 0.4365 0.0
H201 H 0.51675 0.09397 0.47239 0.0
H202 H 0.51665 0.11856 0.45741 0.0
H203 H 0.50503 0.08576 0.4483 0.0
H204 H 0.61305 0.08916 0.43364 0.0
H205 H 0.58836 0.06721 0.45056 0.0
H206 H 0.57838 0.06601 0.42627 0.0
H207 H 0.44739 0.91331 0.40336 0.0
H208 H 0.3993 0.87656 0.40193 0.0
H209 H 0.40328 0.90627 0.41228 0.0
H210 H 0.39012 0.89693 0.38845 0.0
H211 H 0.42902 0.97336 0.39924 0.0
H212 H 0.49028 0.9524 0.39853 0.0
H213 H 0.44924 0.01065 0.43979 0.0
H214 H 0.46887 0.03548 0.42271 0.0
H215 H 0.4343 0.00983 0.41695 0.0
H216 H 0.53297 0.9783 0.41419 0.0
H217 H 0.54237 0.0108 0.42281 0.0
H218 H 0.52482 0.98279 0.43797 0.0
H219 H 0.50017 0.98804 0.54422 0.0
H220 H 0.55749 0.07281 0.516 0.0
H221 H 0.56372 0.08991 0.48452 0.0
H222 H 0.52517 0.05318 0.42303 0.0
H223 H 0.46742 0.96851 0.45162 0.0
H224 H 0.46056 0.95177 0.48317 0.0
H225 H 0.64956 0.21828 0.47843 0.0
H226 H 0.65065 0.18867 0.4747 0.0
H227 H 0.66226 0.21325 0.45643 0.0
C228 C 0.58297 0.44285 0.72637 0.0
C229 C 0.58436 0.43424 0.70611 0.0
C230 C 0.55923 0.45161 0.68913 0.0
C231 C 0.58094 0.47774 0.68702 0.0
C232 C 0.57617 0.49756 0.68082 0.0
C233 C 0.54913 0.49128 0.67709 0.0
C234 C 0.52725 0.46498 0.67921 0.0
C235 C 0.53272 0.44541 0.68482 0.0
C236 C 0.60005 0.52529 0.67839 0.0
C237 C 0.49805 0.45757 0.67591 0.0
C238 C 0.58208 0.61468 0.77805 0.0
C239 C 0.55567 0.60047 0.7663 0.0
C240 C 0.55356 0.59737 0.73191 0.0
C241 C 0.52892 0.57324 0.72975 0.0
C242 C 0.52319 0.55805 0.71315 0.0
C243 C 0.54272 0.56706 0.69859 0.0
C244 C 0.56707 0.59198 0.70045 0.0
C245 C 0.57188 0.60707 0.71699 0.0
C246 C 0.49669 0.53196 0.71145 0.0
C247 C 0.5886 0.60212 0.68539 0.0
C248 C 0.47793 0.61217 0.59734 0.0
C249 C 0.46103 0.58788 0.60617 0.0
C250 C 0.46998 0.57015 0.60938 0.0
C251 C 0.49665 0.57716 0.60408 0.0
C252 C 0.5135 0.60138 0.59481 0.0
C253 C 0.50368 0.61839 0.59128 0.0
C254 C 0.45091 0.54393 0.61847 0.0
C255 C 0.54197 0.60946 0.58887 0.0
C256 C 0.51971 0.41902 0.54875 0.0
C257 C 0.53578 0.44835 0.54379 0.0
C258 C 0.51729 0.47515 0.55387 0.0
C259 C 0.49234 0.46961 0.56116 0.0
C260 C 0.49114 0.48614 0.57493 0.0
C261 C 0.51549 0.5091 0.58104 0.0
C262 C 0.54055 0.51578 0.57261 0.0
C263 C 0.5412 0.49858 0.55919 0.0
C264 C 0.46404 0.47857 0.58345 0.0
C265 C 0.56674 0.54066 0.5782 0.0
C266 C 0.54363 0.51241 0.67184 0.0
C267 C 0.54493 0.52929 0.68622 0.0
C268 C 0.53923 0.54919 0.68258 0.0
C269 C 0.53124 0.55198 0.66413 0.0
C270 C 0.52415 0.57098 0.66012 0.0
C271 C 0.51636 0.57354 0.64188 0.0
C272 C 0.5153 0.55716 0.62696 0.0
C273 C 0.50689 0.55923 0.60844 0.0
C274 C 0.50719 0.5434 0.5938 0.0
C275 C 0.51512 0.52503 0.5972 0.0
C276 C 0.52247 0.52187 0.61578 0.0
C277 C 0.52948 0.5028 0.61984 0.0
C278 C 0.53662 0.49979 0.63814 0.0
C279 C 0.5369 0.51564 0.65312 0.0
C280 C 0.5303 0.53526 0.64932 0.0
C281 C 0.52273 0.53814 0.63067 0.0
C282 C 0.4734 0.66393 0.6135 0.0
C283 C 0.45473 0.63555 0.60622 0.0
O284 O 0.5628 0.43182 0.69531 0.0
O285 O 0.51784 0.45741 0.54198 0.0
O286 O 0.46982 0.62973 0.59404 0.0
O287 O 0.56053 0.61139 0.74838 0.0
H288 H 0.60403 0.44906 0.69972 0.0
H289 H 0.5845 0.46236 0.72628 0.0
H290 H 0.5634 0.42821 0.73297 0.0
H291 H 0.60013 0.44477 0.73516 0.0
H292 H 0.60165 0.48288 0.69005 0.0
H293 H 0.51614 0.42519 0.68643 0.0
H294 H 0.59996 0.53818 0.68982 0.0
H295 H 0.61987 0.52612 0.67903 0.0
H296 H 0.59835 0.53344 0.66463 0.0
H297 H 0.48334 0.43722 0.6807 0.0
H298 H 0.49388 0.47159 0.68348 0.0
H299 H 0.49443 0.45875 0.66057 0.0
H300 H 0.54986 0.57934 0.76541 0.0
H301 H 0.57872 0.60616 0.79248 0.0
H302 H 0.598 0.61226 0.77115 0.0
H303 H 0.5896 0.63613 0.77927 0.0
H304 H 0.51432 0.56614 0.74112 0.0
H305 H 0.59069 0.6259 0.71878 0.0
H306 H 0.48743 0.52971 0.69714 0.0
H307 H 0.50071 0.51562 0.71332 0.0
H308 H 0.48183 0.52995 0.72228 0.0
H309 H 0.6071 0.62113 0.68955 0.0
H310 H 0.59462 0.58735 0.6825 0.0
H311 H 0.58024 0.60509 0.67201 0.0
H312 H 0.44848 0.6228 0.61896 0.0
H313 H 0.44068 0.58249 0.61032 0.0
H314 H 0.51639 0.63701 0.58421 0.0
H315 H 0.45791 0.54404 0.63321 0.0
H316 H 0.42965 0.53974 0.61893 0.0
H317 H 0.45099 0.52764 0.61065 0.0
H318 H 0.55336 0.62998 0.58344 0.0
H319 H 0.55351 0.6079 0.60103 0.0
H320 H 0.54092 0.59587 0.57755 0.0
H321 H 0.55055 0.4587 0.55569 0.0
H322 H 0.53367 0.4113 0.55037 0.0
H323 H 0.50903 0.41628 0.56236 0.0
H324 H 0.50425 0.4074 0.53755 0.0
H325 H 0.47396 0.45163 0.55667 0.0
H326 H 0.56038 0.50324 0.55297 0.0
H327 H 0.46505 0.47671 0.59905 0.0
H328 H 0.45939 0.49434 0.58074 0.0
H329 H 0.44711 0.45964 0.57756 0.0
H330 H 0.58355 0.54502 0.56837 0.0
H331 H 0.56371 0.55777 0.57849 0.0
H332 H 0.573 0.53843 0.59268 0.0
H333 H 0.55059 0.52697 0.70049 0.0
H334 H 0.52446 0.584 0.67108 0.0
H335 H 0.51119 0.58857 0.63961 0.0
H336 H 0.50097 0.54527 0.57959 0.0
H337 H 0.52942 0.48985 0.60894 0.0
H338 H 0.5419 0.48485 0.64041 0.0
H339 H 0.4786 0.67829 0.60183 0.0
H340 H 0.46363 0.66851 0.6252 0.0
H341 H 0.49263 0.66622 0.61928 0.0
C342 C 0.1438 0.51933 0.90115 0.0
C343 C 0.15805 0.53729 0.88427 0.0
C344 C 0.12161 0.52016 0.86056 0.0
C345 C 0.11609 0.54067 0.85964 0.0
C346 C 0.09066 0.5358 0.85312 0.0
C347 C 0.07039 0.50988 0.84755 0.0
C348 C 0.07624 0.48934 0.84794 0.0
C349 C 0.10204 0.49492 0.85415 0.0
C350 C 0.0853 0.55825 0.85242 0.0
C351 C 0.05507 0.46138 0.84229 0.0
C352 C 0.9222 0.45432 0.95145 0.0
C353 C 0.94323 0.46558 0.93648 0.0
C354 C 0.94799 0.47335 0.90301 0.0
C355 C 0.9518 0.45419 0.89436 0.0
C356 C 0.96755 0.46003 0.87807 0.0
C357 C 0.97978 0.48566 0.87033 0.0
C358 C 0.97548 0.50492 0.87881 0.0
C359 C 0.95934 0.4984 0.89504 0.0
C360 C 0.97145 0.43891 0.86927 0.0
C361 C 0.98823 0.53239 0.87086 0.0
C362 C 0.87316 0.44918 0.77286 0.0
C363 C 0.88115 0.43061 0.77571 0.0
C364 C 0.90881 0.4385 0.77617 0.0
C365 C 0.92877 0.46548 0.77383 0.0
C366 C 0.92068 0.48385 0.76955 0.0
C367 C 0.89284 0.47534 0.76893 0.0
C368 C 0.91674 0.41823 0.78008 0.0
C369 C 0.94146 0.51267 0.76667 0.0
C370 C 0.12282 0.50283 0.72822 0.0
C371 C 0.10807 0.51533 0.7187 0.0
C372 C 0.05996 0.49339 0.72566 0.0
C373 C 0.04108 0.46854 0.73265 0.0
C374 C 0.021 0.46549 0.74535 0.0
C375 C 0.01964 0.48786 0.75078 0.0
C376 C 0.03722 0.51261 0.74241 0.0
C377 C 0.05729 0.51514 0.72993 0.0
C378 C 0.00224 0.43872 0.75376 0.0
C379 C 0.03568 0.53664 0.74743 0.0
C380 C 0.04255 0.50388 0.84247 0.0
C381 C 0.02495 0.49994 0.8573 0.0
C382 C 0.99783 0.49235 0.85379 0.0
C383 C 0.9879 0.48891 0.83495 0.0
C384 C 0.9607 0.48122 0.83095 0.0
C385 C 0.9509 0.47707 0.81238 0.0
C386 C 0.96785 0.48012 0.79709 0.0
C387 C 0.95778 0.47492 0.7782 0.0
C388 C 0.97507 0.47793 0.76334 0.0
C389 C 0.00238 0.48604 0.76688 0.0
C390 C 0.01286 0.49145 0.78567 0.0
C391 C 0.04027 0.49967 0.78971 0.0
C392 C 0.0502 0.50427 0.80826 0.0
C393 C 0.03304 0.5005 0.82351 0.0
C394 C 0.00554 0.4928 0.81976 0.0
C395 C 0.99546 0.48829 0.80081 0.0
C396 C 0.81392 0.43639 0.79726 0.0
C397 C 0.82818 0.42427 0.7868 0.0
O398 O 0.1456 0.52408 0.8675 0.0
O399 O 0.08103 0.49606 0.71535 0.0
O400 O 0.84681 0.44267 0.77435 0.0
O401 O 0.93328 0.46777 0.91902 0.0
H402 H 0.1566 0.55525 0.8858 0.0
H403 H 0.12219 0.51409 0.90152 0.0
H404 H 0.1443 0.50082 0.90002 0.0
H405 H 0.1539 0.52962 0.91465 0.0
H406 H 0.13164 0.56052 0.86382 0.0
H407 H 0.10673 0.47936 0.8547 0.0
H408 H 0.0701 0.55519 0.86329 0.0
H409 H 0.10408 0.57772 0.85511 0.0
H410 H 0.07659 0.55862 0.83837 0.0
H411 H 0.06212 0.44733 0.84499 0.0
H412 H 0.03599 0.45477 0.8502 0.0
H413 H 0.05012 0.46058 0.82697 0.0
H414 H 0.96279 0.4838 0.94059 0.0
H415 H 0.91954 0.41843 0.95812 0.0
H416 H 0.92885 0.47081 0.96211 0.0
H417 H 0.90425 0.45544 0.94599 0.0
H418 H 0.94252 0.43464 0.90034 0.0
H419 H 0.956 0.51297 0.90179 0.0
H420 H 0.96597 0.43668 0.85396 0.0
H421 H 0.99323 0.44486 0.87048 0.0
H422 H 0.95895 0.41946 0.87619 0.0
H423 H 0.98297 0.54513 0.87913 0.0
H424 H 0.01075 0.54175 0.8708 0.0
H425 H 0.98133 0.53131 0.85595 0.0
H426 H 0.83884 0.41947 0.79796 0.0
H427 H 0.86584 0.41008 0.77797 0.0
H428 H 0.88637 0.48938 0.76637 0.0
H429 H 0.92558 0.4214 0.7946 0.0
H430 H 0.89903 0.39772 0.77897 0.0
H431 H 0.93257 0.42053 0.77001 0.0
H432 H 0.93187 0.52421 0.76256 0.0
H433 H 0.95344 0.52122 0.77997 0.0
H434 H 0.95593 0.51476 0.7555 0.0
H435 H 0.10976 0.53062 0.72883 0.0
H436 H 0.14472 0.51788 0.73053 0.0
H437 H 0.11362 0.49482 0.74222 0.0
H438 H 0.12109 0.48636 0.71948 0.0
H439 H 0.04305 0.4518 0.72893 0.0
H440 H 0.07129 0.53418 0.72383 0.0
H441 H 0.00613 0.43951 0.76927 0.0
H442 H 0.9807 0.43323 0.75164 0.0
H443 H 0.00503 0.42307 0.7474 0.0
H444 H 0.04835 0.55354 0.73799 0.0
H445 H 0.01423 0.53187 0.74653 0.0
H446 H 0.04292 0.54274 0.76226 0.0
H447 H 0.03224 0.50199 0.87183 0.0
H448 H 0.94664 0.47826 0.84214 0.0
H449 H 0.92976 0.47118 0.81021 0.0
H450 H 0.96713 0.47361 0.74892 0.0
H451 H 0.05438 0.50253 0.77859 0.0
H452 H 0.07143 0.51053 0.81051 0.0
H453 H 0.79866 0.42184 0.80719 0.0
H454 H 0.82916 0.45391 0.80561 0.0
H455 H 0.80351 0.44281 0.78715 0.0
C456 C 0.43143 0.86795 0.90103 0.0
C457 C 0.42902 0.85617 0.92077 0.0
C458 C 0.45565 0.8975 0.93908 0.0
C459 C 0.43562 0.90448 0.93968 0.0
C460 C 0.44226 0.92981 0.94567 0.0
C461 C 0.46947 0.94857 0.95098 0.0
C462 C 0.48949 0.94133 0.95093 0.0
C463 C 0.48214 0.9157 0.94524 0.0
C464 C 0.42033 0.93674 0.94589 0.0
C465 C 0.51881 0.96087 0.95626 0.0
C466 C 0.55068 0.11437 0.85288 0.0
C467 C 0.5473 0.09502 0.8676 0.0
C468 C 0.51484 0.06675 0.89138 0.0
C469 C 0.53366 0.06245 0.90126 0.0
C470 C 0.52616 0.0472 0.9177 0.0
C471 C 0.49927 0.03589 0.9244 0.0
C472 C 0.4802 0.04001 0.91451 0.0
C473 C 0.48829 0.05548 0.8981 0.0
C474 C 0.54699 0.04307 0.92788 0.0
C475 C 0.45137 0.02811 0.92132 0.0
C476 C 0.53907 0.1461 0.0213 0.0
C477 C 0.55771 0.13831 0.0167 0.0
C478 C 0.5494 0.11147 0.01558 0.0
C479 C 0.5218 0.09211 0.01883 0.0
C480 C 0.50331 0.09995 0.02433 0.0
C481 C 0.51234 0.12694 0.02573 0.0
C482 C 0.56995 0.10381 0.01048 0.0
C483 C 0.47384 0.07984 0.02815 0.0
C484 C 0.47929 0.91116 0.07657 0.0
C485 C 0.47118 0.92776 0.08834 0.0
C486 C 0.49395 0.97162 0.07482 0.0
C487 C 0.51882 0.98709 0.06585 0.0
C488 C 0.52138 0.00406 0.05111 0.0
C489 C 0.49854 0.00581 0.04558 0.0
C490 C 0.4738 0.99144 0.05547 0.0
C491 C 0.47177 0.97446 0.07005 0.0
C492 C 0.54817 0.01944 0.04102 0.0
C493 C 0.44935 0.99351 0.05027 0.0
C494 C 0.47748 0.97637 0.95488 0.0
C495 C 0.48215 0.99258 0.93927 0.0
C496 C 0.49124 0.01934 0.94159 0.0
C497 C 0.49527 0.03033 0.95999 0.0
C498 C 0.50391 0.0571 0.9628 0.0
C499 C 0.5088 0.06797 0.98095 0.0
C500 C 0.50579 0.05261 0.99696 0.0
C501 C 0.51194 0.06376 0.01543 0.0
C502 C 0.50912 0.04802 0.031 0.0
C503 C 0.50002 0.02122 0.02865 0.0
C504 C 0.49332 0.00959 0.01035 0.0
C505 C 0.4837 0.98256 0.00755 0.0
C506 C 0.47789 0.97147 0.98943 0.0
C507 C 0.48193 0.98707 0.97341 0.0
C508 C 0.49101 0.01422 0.97595 0.0
C509 C 0.49656 0.02545 0.99444 0.0
C510 C 0.5543 0.20855 0.00272 0.0
C511 C 0.56519 0.19119 0.0097 0.0
O512 O 0.45055 0.87375 0.93239 0.0
O513 O 0.49189 0.95405 0.08798 0.0
O514 O 0.54607 0.17181 0.02136 0.0
O515 O 0.52159 0.08169 0.87549 0.0
H516 H 0.40943 0.85161 0.92719 0.0
H517 H 0.43014 0.88602 0.90191 0.0
H518 H 0.45121 0.87321 0.8946 0.0
H519 H 0.41456 0.85354 0.89161 0.0
H520 H 0.41487 0.89047 0.93531 0.0
H521 H 0.49737 0.91004 0.94489 0.0
H522 H 0.42395 0.95084 0.93433 0.0
H523 H 0.39962 0.91909 0.94389 0.0
H524 H 0.42108 0.94659 0.9595 0.0
H525 H 0.53221 0.95264 0.95416 0.0
H526 H 0.5266 0.97901 0.94765 0.0
H527 H 0.52019 0.96674 0.97136 0.0
H528 H 0.55483 0.08163 0.86364 0.0
H529 H 0.55439 0.10655 0.8394 0.0
H530 H 0.52954 0.10942 0.84857 0.0
H531 H 0.57968 0.15093 0.86492 0.0
H532 H 0.55427 0.0709 0.89624 0.0
H533 H 0.4739 0.05888 0.89042 0.0
H534 H 0.54925 0.04982 0.94284 0.0
H535 H 0.53989 0.02169 0.928 0.0
H536 H 0.56729 0.05383 0.92113 0.0
H537 H 0.43897 0.03322 0.91206 0.0
H538 H 0.44144 0.00627 0.9218 0.0
H539 H 0.45158 0.03517 0.93595 0.0
H540 H 0.56801 0.18198 0.99679 0.0
H541 H 0.57871 0.15313 0.01389 0.0
H542 H 0.49826 0.13322 0.02957 0.0
H543 H 0.56566 0.09549 0.99588 0.0
H544 H 0.59118 0.12095 0.01111 0.0
H545 H 0.5683 0.08831 0.02019 0.0
H546 H 0.46184 0.0892 0.03165 0.0
H547 H 0.46441 0.0668 0.01554 0.0
H548 H 0.4726 0.06718 0.04015 0.0
H549 H 0.45208 0.92511 0.08193 0.0
H550 H 0.46304 0.88996 0.07696 0.0
H551 H 0.48217 0.91766 0.06158 0.0
H552 H 0.49868 0.91342 0.082 0.0
H553 H 0.53594 0.98506 0.06993 0.0
H554 H 0.45286 0.96339 0.07764 0.0
H555 H 0.54535 0.01305 0.02594 0.0
H556 H 0.5552 0.04082 0.04129 0.0
H557 H 0.56427 0.01666 0.04749 0.0
H558 H 0.43215 0.98233 0.06009 0.0
H559 H 0.45508 0.01455 0.05039 0.0
H560 H 0.44236 0.98572 0.03567 0.0
H561 H 0.47952 0.98443 0.92507 0.0
H562 H 0.50701 0.06996 0.95098 0.0
H563 H 0.51535 0.08868 0.98222 0.0
H564 H 0.51426 0.05677 0.04509 0.0
H565 H 0.48063 0.96965 0.01933 0.0
H566 H 0.47058 0.95059 0.98811 0.0
H567 H 0.56929 0.22423 0.99328 0.0
H568 H 0.53502 0.19632 0.99456 0.0
H569 H 0.55012 0.21794 0.01483 0.0
C570 C 0.59925 0.46097 0.06417 0.0
C571 C 0.60315 0.45278 0.084 0.0
C572 C 0.58784 0.4773 0.10326 0.0
C573 C 0.55965 0.45922 0.10168 0.0
C574 C 0.54086 0.46628 0.10742 0.0
C575 C 0.55044 0.49207 0.1145 0.0
C576 C 0.57882 0.51019 0.11633 0.0
C577 C 0.59711 0.50232 0.11103 0.0
C578 C 0.51075 0.44631 0.10557 0.0
C579 C 0.58989 0.53812 0.12336 0.0
C580 C 0.47945 0.57611 0.01091 0.0
C581 C 0.4916 0.57355 0.02887 0.0
C582 C 0.48253 0.54226 0.05424 0.0
C583 C 0.50423 0.56057 0.06592 0.0
C584 C 0.51053 0.5527 0.08297 0.0
C585 C 0.4947 0.52603 0.08858 0.0
C586 C 0.47237 0.50771 0.07718 0.0
C587 C 0.46657 0.5161 0.06012 0.0
C588 C 0.53453 0.57277 0.0948 0.0
C589 C 0.45501 0.47918 0.08287 0.0
C590 C 0.42529 0.56451 0.18347 0.0
C591 C 0.45344 0.58158 0.1813 0.0
C592 C 0.47112 0.57178 0.1814 0.0
C593 C 0.4603 0.54434 0.18354 0.0
C594 C 0.4322 0.52742 0.18706 0.0
C595 C 0.41506 0.53785 0.18719 0.0
C596 C 0.50116 0.59054 0.17837 0.0
C597 C 0.42011 0.49815 0.18975 0.0
C598 C 0.58532 0.47519 0.23655 0.0
C599 C 0.56076 0.47022 0.24826 0.0
C600 C 0.54549 0.49949 0.23744 0.0
C601 C 0.55823 0.52484 0.22985 0.0
C602 C 0.54508 0.53142 0.21596 0.0
C603 C 0.51846 0.51217 0.20979 0.0
C604 C 0.50471 0.48714 0.2185 0.0
C605 C 0.51835 0.4811 0.23234 0.0
C606 C 0.56007 0.55849 0.20724 0.0
C607 C 0.47602 0.46647 0.21262 0.0
C608 C 0.53085 0.50072 0.11855 0.0
C609 C 0.52027 0.50743 0.10311 0.0
C610 C 0.50285 0.5171 0.10566 0.0
C611 C 0.49551 0.52008 0.12413 0.0
C612 C 0.47786 0.52958 0.12718 0.0
C613 C 0.47164 0.53344 0.14545 0.0
C614 C 0.48303 0.52815 0.16138 0.0
C615 C 0.47775 0.53304 0.18003 0.0
C616 C 0.48943 0.52763 0.19553 0.0
C617 C 0.50621 0.51718 0.19291 0.0
C618 C 0.5116 0.51199 0.1744 0.0
C619 C 0.52818 0.50122 0.17129 0.0
C620 C 0.53407 0.49698 0.15302 0.0
C621 C 0.52387 0.50363 0.13716 0.0
C622 C 0.50638 0.51366 0.13995 0.0
C623 C 0.50023 0.51782 0.15859 0.0
C624 C 0.3833 0.58127 0.15761 0.0
C625 C 0.41006 0.59193 0.16877 0.0
O626 O 0.60678 0.47167 0.0973 0.0
O627 O 0.55993 0.49321 0.24942 0.0
O628 O 0.40745 0.57299 0.18151 0.0
O629 O 0.47662 0.54899 0.03722 0.0
H630 H 0.585 0.43341 0.08758 0.0
H631 H 0.58066 0.46238 0.06363 0.0
H632 H 0.61708 0.48049 0.06044 0.0
H633 H 0.59677 0.44607 0.05344 0.0
H634 H 0.55205 0.43961 0.09599 0.0
H635 H 0.61888 0.51605 0.11228 0.0
H636 H 0.50197 0.45202 0.09373 0.0
H637 H 0.50662 0.42607 0.10268 0.0
H638 H 0.50012 0.44602 0.11872 0.0
H639 H 0.61234 0.55059 0.12177 0.0
H640 H 0.58013 0.54741 0.11551 0.0
H641 H 0.5851 0.53786 0.13857 0.0
H642 H 0.51382 0.58073 0.02823 0.0
H643 H 0.49461 0.57916 -0.00031 0.0
H644 H 0.46388 0.55544 0.00609 0.0
H645 H 0.46927 0.6046 0.01742 0.0
H646 H 0.51658 0.581 0.06172 0.0
H647 H 0.44976 0.50215 0.05113 0.0
H648 H 0.52754 0.57431 0.10909 0.0
H649 H 0.54944 0.56625 0.09668 0.0
H650 H 0.54506 0.59268 0.08832 0.0
H651 H 0.43705 0.4679 0.0733 0.0
H652 H 0.46746 0.46971 0.08259 0.0
H653 H 0.44785 0.47795 0.09759 0.0
H654 H 0.42582 0.59577 0.15806 0.0
H655 H 0.46155 0.60248 0.17919 0.0
H656 H 0.39335 0.52497 0.18923 0.0
H657 H 0.50654 0.58745 0.16392 0.0
H658 H 0.5069 0.61153 0.17982 0.0
H659 H 0.51338 0.58657 0.18867 0.0
H660 H 0.39793 0.48772 0.19263 0.0
H661 H 0.42335 0.48939 0.17684 0.0
H662 H 0.43061 0.49475 0.20174 0.0
H663 H 0.54245 0.4543 0.2407 0.0
H664 H 0.58695 0.45725 0.23623 0.0
H665 H 0.58274 0.48 0.22176 0.0
H666 H 0.60457 0.49202 0.24243 0.0
H667 H 0.57898 0.53907 0.23423 0.0
H668 H 0.50793 0.46191 0.23898 0.0
H669 H 0.56459 0.55673 0.19223 0.0
H670 H 0.54708 0.56738 0.20732 0.0
H671 H 0.57955 0.572 0.21481 0.0
H672 H 0.4676 0.4485 0.22149 0.0
H673 H 0.46253 0.47475 0.21362 0.0
H674 H 0.47578 0.46069 0.1976 0.0
H675 H 0.52624 0.50572 0.08888 0.0
H676 H 0.46878 0.53427 0.11546 0.0
H677 H 0.45799 0.54088 0.14689 0.0
H678 H 0.4855 0.53166 0.20977 0.0
H679 H 0.53694 0.49606 0.18294 0.0
H680 H 0.54701 0.48874 0.15148 0.0
H681 H 0.38485 0.59628 0.14742 0.0
H682 H 0.37889 0.56333 0.14948 0.0
H683 H 0.36603 0.57588 0.16725 0.0
C684 C 0.61838 0.35167 0.41746 0.0
O685 O 0.63743 0.3732 0.42607 0.0
O686 O 0.65869 0.40593 0.39136 0.0
Zn687 Zn 0.61974 0.39235 0.39805 0.0
O688 O 0.61468 0.40867 0.42149 0.0
C689 C 0.58604 0.40637 0.37494 0.0
O690 O 0.57856 0.41159 0.3911 0.0
O691 O 0.60514 0.35403 0.4038 0.0
C692 C 0.62105 0.43234 0.42478 0.0
O693 O 0.63367 0.4504 0.41179 0.0
C694 C 0.68159 0.42324 0.3984 0.0
O695 O 0.68261 0.4376 0.41298 0.0
O696 O 0.60189 0.39729 0.37503 0.0
C697 C 0.26629 0.66941 0.55068 0.0
O698 O 0.26054 0.65646 0.53451 0.0
O699 O 0.2605 0.60425 0.5666 0.0
Zn700 Zn 0.23393 0.61676 0.56433 0.0
O701 O 0.21373 0.60653 0.53943 0.0
C702 C 0.21847 0.60247 0.60228 0.0
O703 O 0.2449 0.61236 0.60374 0.0
O704 O 0.2563 0.65657 0.56584 0.0
C705 C 0.19031 0.58655 0.5359 0.0
O706 O 0.1773 0.56929 0.54929 0.0
C707 C 0.27764 0.60792 0.55392 0.0
O708 O 0.27636 0.61784 0.53758 0.0
O709 O 0.20823 0.60243 0.58621 0.0
C710 C 0.593 0.26821 0.71386 0.0
O711 O 0.60818 0.26529 0.70143 0.0
O712 O 0.64167 0.25767 0.74075 0.0
Zn713 Zn 0.6025 0.23215 0.73395 0.0
O714 O 0.59863 0.20954 0.71143 0.0
C715 C 0.59167 0.22103 0.77287 0.0
O716 O 0.60754 0.24686 0.77369 0.0
O717 O 0.58627 0.25451 0.72883 0.0
C718 C 0.6043 0.19154 0.71349 0.0
O719 O 0.61293 0.18871 0.73014 0.0
C720 C 0.66328 0.26366 0.73192 0.0
O721 O 0.66166 0.25167 0.71583 0.0
O722 O 0.58537 0.2096 0.75676 0.0
C723 C 0.41952 0.68156 0.90471 0.0
O724 O 0.40992 0.66482 0.9188 0.0
O725 O 0.37472 0.61385 0.88198 0.0
Zn726 Zn 0.41508 0.63634 0.88726 0.0
O727 O 0.42456 0.62713 0.91242 0.0
C728 C 0.42821 0.62396 0.85025 0.0
O729 O 0.40352 0.61824 0.8454 0.0
O730 O 0.42402 0.67401 0.889 0.0
C731 C 0.42886 0.60839 0.91539 0.0
O732 O 0.42752 0.5934 0.90115 0.0
C733 C 0.35817 0.59962 0.89473 0.0
O734 O 0.36775 0.59827 0.91141 0.0
O735 O 0.43698 0.63209 0.867 0.0
C736 C 0.75469 0.41383 0.08117 0.0
O737 O 0.75425 0.39787 0.09428 0.0
O738 O 0.75074 0.35726 0.05756 0.0
Zn739 Zn 0.78322 0.39329 0.06275 0.0
O740 O 0.80501 0.39516 0.08607 0.0
C741 C 0.81662 0.38981 0.03504 0.0
O742 O 0.80985 0.36842 0.04478 0.0
O743 O 0.7678 0.41665 0.0661 0.0
C744 C 0.83042 0.41212 0.08598 0.0
O745 O 0.84088 0.4272 0.0711 0.0
C746 C 0.74424 0.33468 0.06388 0.0
O747 O 0.76055 0.33246 0.07596 0.0
O748 O 0.80713 0.40419 0.03991 0.0
C749 C 0.42332 0.75727 0.21829 0.0
O750 O 0.40757 0.76333 0.20862 0.0
O751 O 0.38096 0.7723 0.24099 0.0
Zn752 Zn 0.42167 0.79528 0.23909 0.0
O753 O 0.43083 0.81885 0.21662 0.0
C754 C 0.42853 0.8056 0.27896 0.0
O755 O 0.41141 0.77996 0.2794 0.0
O756 O 0.43434 0.76987 0.23361 0.0
C757 C 0.4324 0.84107 0.21629 0.0
O758 O 0.42804 0.8505 0.23186 0.0
C759 C 0.36477 0.77628 0.2506 0.0
O760 O 0.3743 0.79835 0.26036 0.0
O761 O 0.43722 0.81661 0.26305 0.0
C762 C 0.20859 0.65713 0.25497 0.0
C763 C 0.20796 0.63751 0.2665 0.0
C764 C 0.23279 0.68151 0.25266 0.0
C765 C 0.25697 0.68622 0.2619 0.0
C766 C 0.25633 0.66669 0.27385 0.0
C767 C 0.23186 0.64254 0.27592 0.0
C768 C 0.23272 0.70181 0.23976 0.0
C769 C 0.28172 0.67092 0.28388 0.0
C770 C 0.32573 0.73241 0.24039 0.0
C771 C 0.33605 0.75466 0.25232 0.0
C772 C 0.29964 0.71039 0.24298 0.0
C773 C 0.28344 0.71055 0.25791 0.0
C774 C 0.29327 0.73331 0.26956 0.0
C775 C 0.31949 0.75518 0.2666 0.0
C776 C 0.28984 0.68656 0.23016 0.0
C777 C 0.27652 0.73416 0.2856 0.0
H778 H 0.19025 0.65314 0.24741 0.0
H779 H 0.23153 0.62727 0.2846 0.0
H780 H 0.24216 0.72127 0.24707 0.0
H781 H 0.24508 0.70432 0.22708 0.0
H782 H 0.21181 0.69608 0.23498 0.0
H783 H 0.27738 0.65457 0.29368 0.0
H784 H 0.29664 0.67247 0.27329 0.0
H785 H 0.29151 0.68973 0.29207 0.0
H786 H 0.33831 0.73192 0.22922 0.0
H787 H 0.32735 0.77228 0.27588 0.0
H788 H 0.26967 0.68075 0.22385 0.0
H789 H 0.28727 0.66958 0.23854 0.0
H790 H 0.30425 0.69023 0.21852 0.0
H791 H 0.25587 0.72858 0.28038 0.0
H792 H 0.28615 0.75401 0.29241 0.0
H793 H 0.27393 0.71959 0.29651 0.0
C794 C 0.59541 0.21649 0.45989 0.0
C795 C 0.61205 0.20923 0.45051 0.0
C796 C 0.59264 0.23738 0.45332 0.0
C797 C 0.60717 0.25156 0.43716 0.0
C798 C 0.62288 0.24343 0.42707 0.0
C799 C 0.62509 0.22231 0.43385 0.0
C800 C 0.57549 0.24529 0.46438 0.0
C801 C 0.63881 0.25812 0.40983 0.0
C802 C 0.59359 0.30215 0.41445 0.0
C803 C 0.61426 0.32568 0.42286 0.0
C804 C 0.59066 0.27769 0.41913 0.0
C805 C 0.60899 0.27689 0.43236 0.0
C806 C 0.62968 0.30056 0.441 0.0
C807 C 0.63196 0.32458 0.43621 0.0
C808 C 0.56819 0.25279 0.40982 0.0
C809 C 0.64975 0.3006 0.45511 0.0
H810 H 0.5853 0.20641 0.47276 0.0
H811 H 0.63799 0.21673 0.42661 0.0
H812 H 0.58899 0.26417 0.47201 0.0
H813 H 0.56216 0.24857 0.45468 0.0
H814 H 0.56257 0.23016 0.47492 0.0
H815 H 0.64743 0.24753 0.40238 0.0
H816 H 0.62569 0.26112 0.39974 0.0
H817 H 0.65584 0.27794 0.41419 0.0
H818 H 0.57981 0.30286 0.40415 0.0
H819 H 0.64804 0.34263 0.44277 0.0
H820 H 0.55534 0.23842 0.42077 0.0
H821 H 0.57711 0.24335 0.40132 0.0
H822 H 0.55498 0.25664 0.40039 0.0
H823 H 0.63872 0.28786 0.46729 0.0
H824 H 0.66459 0.32074 0.46057 0.0
H825 H 0.66121 0.29233 0.4484 0.0
C826 C 0.41886 0.64789 0.59787 0.0
C827 C 0.4287 0.63052 0.59618 0.0
C828 C 0.39395 0.64191 0.58956 0.0
C829 C 0.37803 0.61776 0.57959 0.0
C830 C 0.3876 0.6001 0.5778 0.0
C831 C 0.41273 0.60668 0.58611 0.0
C832 C 0.38441 0.66133 0.59174 0.0
C833 C 0.37104 0.57403 0.56744 0.0
C834 C 0.30332 0.59616 0.57672 0.0
C835 C 0.30167 0.60593 0.55897 0.0
C836 C 0.3277 0.59845 0.58317 0.0
C837 C 0.35101 0.61089 0.57161 0.0
C838 C 0.34898 0.61917 0.55318 0.0
C839 C 0.32428 0.61652 0.54705 0.0
C840 C 0.32893 0.58906 0.60283 0.0
C841 C 0.37336 0.63241 0.54041 0.0
H842 H 0.4303 0.66618 0.60578 0.0
H843 H 0.41976 0.5929 0.58487 0.0
H844 H 0.38012 0.66668 0.57761 0.0
H845 H 0.36514 0.6521 0.59976 0.0
H846 H 0.39965 0.67972 0.59927 0.0
H847 H 0.38185 0.56295 0.56666 0.0
H848 H 0.35141 0.5616 0.57473 0.0
H849 H 0.36612 0.57729 0.55283 0.0
H850 H 0.28586 0.5877 0.58596 0.0
H851 H 0.32317 0.62401 0.53328 0.0
H852 H 0.34147 0.60637 0.61224 0.0
H853 H 0.3388 0.57711 0.60257 0.0
H854 H 0.30839 0.57705 0.60907 0.0
H855 H 0.38832 0.65224 0.54624 0.0
H856 H 0.36767 0.63479 0.52577 0.0
H857 H 0.38368 0.62089 0.5398 0.0
C858 C 0.80173 0.37465 0.78254 0.0
C859 C 0.80763 0.39949 0.77619 0.0
C860 C 0.78061 0.35137 0.77417 0.0
C861 C 0.76478 0.35304 0.75931 0.0
C862 C 0.77148 0.37807 0.75226 0.0
C863 C 0.79295 0.401 0.76072 0.0
C864 C 0.77434 0.32504 0.78191 0.0
C865 C 0.75495 0.38069 0.73655 0.0
C866 C 0.71425 0.29269 0.73023 0.0
C867 C 0.68974 0.28542 0.73935 0.0
C868 C 0.73909 0.31429 0.73683 0.0
C869 C 0.73926 0.329 0.75276 0.0
C870 C 0.71467 0.32138 0.76222 0.0
C871 C 0.69029 0.29966 0.75547 0.0
C872 C 0.76503 0.32166 0.72659 0.0
C873 C 0.71395 0.33657 0.77924 0.0
H874 H 0.81315 0.37343 0.79444 0.0
H875 H 0.79759 0.42021 0.75575 0.0
H876 H 0.75509 0.31608 0.78994 0.0
H877 H 0.77135 0.31121 0.77019 0.0
H878 H 0.79078 0.32699 0.79152 0.0
H879 H 0.76431 0.40135 0.73153 0.0
H880 H 0.75268 0.3678 0.72436 0.0
H881 H 0.73418 0.37415 0.74169 0.0
H882 H 0.71401 0.28171 0.71784 0.0
H883 H 0.67151 0.29418 0.76267 0.0
H884 H 0.78062 0.32298 0.73676 0.0
H885 H 0.77344 0.34141 0.72013 0.0
H886 H 0.76174 0.30718 0.71526 0.0
H887 H 0.7279 0.33721 0.79053 0.0
H888 H 0.69318 0.32776 0.78517 0.0
H889 H 0.72113 0.35728 0.77523 0.0
C890 C 0.45358 0.8307 0.91859 0.0
C891 C 0.42904 0.83064 0.91894 0.0
C892 C 0.45361 0.80712 0.91627 0.0
C893 C 0.42855 0.78304 0.91375 0.0
C894 C 0.40378 0.78294 0.91364 0.0
C895 C 0.40434 0.80674 0.91623 0.0
C896 C 0.48041 0.80796 0.91658 0.0
C897 C 0.37667 0.75768 0.91073 0.0
C898 C 0.42738 0.72403 0.89117 0.0
C899 C 0.42366 0.70828 0.907 0.0
C900 C 0.42946 0.74866 0.89317 0.0
C901 C 0.4281 0.75781 0.91145 0.0
C902 C 0.42521 0.74236 0.92752 0.0
C903 C 0.42287 0.71772 0.92509 0.0
C904 C 0.43234 0.76453 0.8757 0.0
C905 C 0.42407 0.75163 0.94726 0.0
H906 H 0.47279 0.84921 0.92016 0.0
H907 H 0.38541 0.80676 0.91604 0.0
H908 H 0.48045 0.79514 0.92802 0.0
H909 H 0.48312 0.80015 0.90301 0.0
H910 H 0.49808 0.82828 0.91888 0.0
H911 H 0.35932 0.76108 0.91063 0.0
H912 H 0.37652 0.74819 0.8971 0.0
H913 H 0.3735 0.74356 0.92216 0.0
H914 H 0.42796 0.71683 0.87715 0.0
H915 H 0.42023 0.70574 0.9374 0.0
H916 H 0.45053 0.78468 0.8771 0.0
H917 H 0.41432 0.76674 0.87413 0.0
H918 H 0.4342 0.75514 0.8626 0.0
H919 H 0.44214 0.77152 0.95005 0.0
H920 H 0.4233 0.73795 0.95834 0.0
H921 H 0.40576 0.75335 0.94854 0.0
C922 C 0.65386 0.47073 0.08876 0.0
C923 C 0.62767 0.4495 0.08421 0.0
C924 C 0.67652 0.46756 0.08878 0.0
C925 C 0.67299 0.44282 0.08361 0.0
C926 C 0.64677 0.4216 0.07842 0.0
C927 C 0.62444 0.4252 0.07881 0.0
C928 C 0.70417 0.49059 0.09445 0.0
C929 C 0.64228 0.39504 0.07248 0.0
C930 C 0.73195 0.43635 0.06684 0.0
C931 C 0.7367 0.42483 0.08264 0.0
C932 C 0.71195 0.4433 0.06719 0.0
C933 C 0.69655 0.43883 0.08377 0.0
C934 C 0.70231 0.42861 0.1001 0.0
C935 C 0.72228 0.42166 0.09932 0.0
C936 C 0.70633 0.4541 0.04948 0.0
C937 C 0.68651 0.42387 0.11812 0.0
H938 H 0.65663 0.48979 0.09245 0.0
H939 H 0.60434 0.40899 0.07485 0.0
H940 H 0.71229 0.48521 0.10687 0.0
H941 H 0.71874 0.49541 0.08275 0.0
H942 H 0.70346 0.50852 0.09808 0.0
H943 H 0.62072 0.38081 0.06841 0.0
H944 H 0.65538 0.39739 0.06029 0.0
H945 H 0.64817 0.38651 0.08426 0.0
H946 H 0.74303 0.4389 0.0539 0.0
H947 H 0.72597 0.41295 0.11163 0.0
H948 H 0.70603 0.4723 0.0528 0.0
H949 H 0.68592 0.43941 0.04363 0.0
H950 H 0.72171 0.45868 0.03838 0.0
H951 H 0.68634 0.44189 0.1223 0.0
H952 H 0.69513 0.4181 0.13004 0.0
H953 H 0.66502 0.4079 0.1157 0.0
C954 C 0.36243 0.82745 0.54947 0.0
C955 C 0.38946 0.83451 0.55338 0.0
C956 C 0.34131 0.80088 0.54929 0.0
C957 C 0.34732 0.78098 0.55343 0.0
C958 C 0.37443 0.78804 0.55787 0.0
C959 C 0.39515 0.81474 0.55785 0.0
C960 C 0.31263 0.79408 0.54452 0.0
C961 C 0.3816 0.76738 0.56248 0.0
C962 C 0.29105 0.71269 0.5682 0.0
C963 C 0.28581 0.69826 0.55128 0.0
C964 C 0.31063 0.7398 0.56904 0.0
C965 C 0.32542 0.75267 0.55259 0.0
C966 C 0.31991 0.7383 0.53541 0.0
C967 C 0.3001 0.71131 0.53494 0.0
C968 C 0.31585 0.75457 0.58758 0.0
C969 C 0.33537 0.75131 0.5176 0.0
H970 H 0.35786 0.84274 0.54645 0.0
H971 H 0.41592 0.8202 0.56128 0.0
H972 H 0.30515 0.78138 0.53162 0.0
H973 H 0.29876 0.78265 0.5562 0.0
H974 H 0.31128 0.81192 0.54201 0.0
H975 H 0.40357 0.77621 0.56605 0.0
H976 H 0.36943 0.75535 0.57462 0.0
H977 H 0.37645 0.75375 0.55022 0.0
H978 H 0.28003 0.70276 0.58087 0.0
H979 H 0.29624 0.70032 0.52181 0.0
H980 H 0.31351 0.77192 0.58562 0.0
H981 H 0.33712 0.76213 0.59246 0.0
H982 H 0.30181 0.74195 0.59884 0.0
H983 H 0.33332 0.76849 0.51409 0.0
H984 H 0.32809 0.73752 0.50526 0.0
H985 H 0.35739 0.75886 0.51993 0.0
C986 C 0.60732 0.40807 0.71104 0.0
C987 C 0.58351 0.40818 0.70647 0.0
C988 C 0.60727 0.38436 0.7121 0.0
C989 C 0.58283 0.36014 0.70826 0.0
C990 C 0.55865 0.36003 0.70371 0.0
C991 C 0.55916 0.38401 0.70316 0.0
C992 C 0.63333 0.38523 0.71744 0.0
C993 C 0.5323 0.33458 0.69934 0.0
C994 C 0.59227 0.30327 0.6946 0.0
C995 C 0.58731 0.28982 0.71179 0.0
C996 C 0.58986 0.32565 0.69305 0.0
C997 C 0.58269 0.33496 0.70915 0.0
C998 C 0.57682 0.32099 0.72639 0.0
C999 C 0.579 0.29845 0.72746 0.0
C1000 C 0.59583 0.33981 0.67435 0.0
C1001 C 0.56944 0.3305 0.74393 0.0
H1002 H 0.62602 0.42666 0.71394 0.0
H1003 H 0.54048 0.38379 0.70004 0.0
H1004 H 0.63011 0.37309 0.73021 0.0
H1005 H 0.63935 0.37669 0.70582 0.0
H1006 H 0.65042 0.40566 0.7204 0.0
H1007 H 0.51545 0.33795 0.69557 0.0
H1008 H 0.53521 0.32408 0.6874 0.0
H1009 H 0.52613 0.32136 0.71176 0.0
H1010 H 0.59856 0.29662 0.68242 0.0
H1011 H 0.57524 0.28822 0.74083 0.0
H1012 H 0.61443 0.35969 0.67581 0.0
H1013 H 0.57882 0.34269 0.67016 0.0
H1014 H 0.59903 0.32888 0.66283 0.0
H1015 H 0.5869 0.35002 0.7484 0.0
H1016 H 0.56405 0.3166 0.75592 0.0
H1017 H 0.55199 0.33319 0.74089 0.0
C1018 C 0.19608 0.52865 0.8771 0.0
C1019 C 0.18781 0.54554 0.88433 0.0
C1020 C 0.22357 0.53585 0.87778 0.0
C1021 C 0.24311 0.56027 0.88619 0.0
C1022 C 0.23483 0.57724 0.8937 0.0
C1023 C 0.20726 0.56962 0.89272 0.0
C1024 C 0.23167 0.51725 0.86967 0.0
C1025 C 0.25505 0.60336 0.90293 0.0
C1026 C 0.31022 0.57128 0.90558 0.0
C1027 C 0.32844 0.58721 0.89158 0.0
C1028 C 0.28221 0.56159 0.90369 0.0
C1029 C 0.27223 0.56807 0.88744 0.0
C1030 C 0.29035 0.58331 0.87293 0.0
C1031 C 0.31826 0.59265 0.87515 0.0
C1032 C 0.26344 0.54523 0.91942 0.0
C1033 C 0.28042 0.59059 0.8554 0.0
H1034 H 0.18099 0.50975 0.87097 0.0
H1035 H 0.20082 0.58244 0.89865 0.0
H1036 H 0.24736 0.52745 0.85868 0.0
H1037 H 0.24086 0.51115 0.88096 0.0
H1038 H 0.21407 0.49926 0.86324 0.0
H1039 H 0.24532 0.61437 0.90789 0.0
H1040 H 0.26511 0.60003 0.91523 0.0
H1041 H 0.27125 0.61587 0.89277 0.0
H1042 H 0.31789 0.56686 0.91827 0.0
H1043 H 0.3322 0.60491 0.86424 0.0
H1044 H 0.24613 0.52653 0.9136 0.0
H1045 H 0.25476 0.55617 0.92621 0.0
H1046 H 0.27411 0.54039 0.93046 0.0
H1047 H 0.26336 0.57262 0.84858 0.0
H1048 H 0.29681 0.60108 0.84488 0.0
H1049 H 0.27251 0.60355 0.85939 0.0
C1050 C 0.59291 0.21834 0.03815 0.0
C1051 C 0.59206 0.2078 0.02016 0.0
C1052 C 0.61785 0.23658 0.04686 0.0
C1053 C 0.64248 0.24446 0.03731 0.0
C1054 C 0.64177 0.23279 0.01961 0.0
C1055 C 0.61654 0.21472 0.01119 0.0
C1056 C 0.61774 0.24863 0.06572 0.0
C1057 C 0.66756 0.24057 0.00901 0.0
C1058 C 0.70075 0.31467 0.04523 0.0
C1059 C 0.7182 0.31127 0.05745 0.0
C1060 C 0.67607 0.29308 0.03874 0.0
C1061 C 0.66852 0.26732 0.04455 0.0
C1062 C 0.68589 0.26364 0.05693 0.0
C1063 C 0.71058 0.28571 0.06327 0.0
C1064 C 0.65811 0.29789 0.02557 0.0
C1065 C 0.67845 0.23641 0.06336 0.0
H1066 H 0.57398 0.21307 0.04507 0.0
H1067 H 0.61592 0.20664 0.99726 0.0
H1068 H 0.63275 0.24839 0.07565 0.0
H1069 H 0.62383 0.26959 0.06371 0.0
H1070 H 0.59733 0.23812 0.07232 0.0
H1071 H 0.66378 0.22732 0.99668 0.0
H1072 H 0.6765 0.26106 0.00378 0.0
H1073 H 0.6829 0.24023 0.01854 0.0
H1074 H 0.70636 0.33432 0.04066 0.0
H1075 H 0.72392 0.28291 0.0727 0.0
H1076 H 0.63769 0.28998 0.03183 0.0
H1077 H 0.65519 0.28734 0.01192 0.0
H1078 H 0.66681 0.3192 0.02261 0.0
H1079 H 0.65855 0.2268 0.07061 0.0
H1080 H 0.69402 0.2369 0.07317 0.0
H1081 H 0.67614 0.22389 0.05091 0.0
C1082 C 0.43892 0.64148 0.17289 0.0
C1083 C 0.41729 0.61723 0.1791 0.0
C1084 C 0.44379 0.66538 0.18078 0.0
C1085 C 0.42632 0.66496 0.19498 0.0
C1086 C 0.40535 0.64047 0.202 0.0
C1087 C 0.40118 0.61688 0.19404 0.0
C1088 C 0.4666 0.69107 0.1731 0.0
C1089 C 0.38614 0.63917 0.21702 0.0
C1090 C 0.44184 0.72708 0.22214 0.0
C1091 C 0.42602 0.73485 0.21192 0.0
C1092 C 0.44281 0.7047 0.21655 0.0
C1093 C 0.42739 0.68975 0.20054 0.0
C1094 C 0.4119 0.69789 0.18998 0.0
C1095 C 0.41152 0.72035 0.19575 0.0
C1096 C 0.45984 0.69677 0.22796 0.0
C1097 C 0.39511 0.68246 0.17283 0.0
H1098 H 0.4515 0.6418 0.16142 0.0
H1099 H 0.38454 0.59812 0.19891 0.0
H1100 H 0.4579 0.70047 0.16421 0.0
H1101 H 0.47836 0.70503 0.18483 0.0
H1102 H 0.48078 0.68809 0.16431 0.0
H1103 H 0.37283 0.61879 0.22235 0.0
H1104 H 0.39772 0.65233 0.22916 0.0
H1105 H 0.37299 0.64617 0.21105 0.0
H1106 H 0.45317 0.73825 0.23461 0.0
H1107 H 0.39929 0.72621 0.18771 0.0
H1108 H 0.47371 0.69422 0.21854 0.0
H1109 H 0.4464 0.67747 0.23478 0.0
H1110 H 0.4722 0.71154 0.23915 0.0
H1111 H 0.4083 0.68086 0.16219 0.0
H1112 H 0.38454 0.69172 0.16601 0.0
H1113 H 0.37955 0.66209 0.17701 0.0
C1114 C 0.80762 0.43035 0.34524 0.0
C1115 C 0.81498 0.41386 0.35437 0.0
C1116 C 0.78907 0.43613 0.35345 0.0
C1117 C 0.7773 0.42478 0.37105 0.0
C1118 C 0.78582 0.4093 0.38081 0.0
C1119 C 0.80463 0.40408 0.37237 0.0
C1120 C 0.78074 0.45296 0.34268 0.0
C1121 C 0.77362 0.39666 0.39953 0.0
C1122 C 0.73264 0.44472 0.39715 0.0
C1123 C 0.70655 0.42493 0.39101 0.0
C1124 C 0.75607 0.44535 0.39054 0.0
C1125 C 0.7532 0.42554 0.37773 0.0
C1126 C 0.72693 0.40572 0.37139 0.0
C1127 C 0.70403 0.40576 0.378 0.0
C1128 C 0.78382 0.46698 0.39737 0.0
C1129 C 0.72291 0.38409 0.35784 0.0
H1130 H 0.81565 0.43798 0.33135 0.0
H1131 H 0.81034 0.39134 0.37944 0.0
H1132 H 0.75988 0.44022 0.33671 0.0
H1133 H 0.78025 0.46761 0.35227 0.0
H1134 H 0.79473 0.4636 0.33084 0.0
H1135 H 0.7848 0.38804 0.40637 0.0
H1136 H 0.7736 0.4113 0.40939 0.0
H1137 H 0.7521 0.38068 0.39722 0.0
H1138 H 0.73475 0.45964 0.40715 0.0
H1139 H 0.684 0.39031 0.37318 0.0
H1140 H 0.79685 0.47744 0.38509 0.0
H1141 H 0.79401 0.45829 0.40541 0.0
H1142 H 0.78267 0.48161 0.40661 0.0
H1143 H 0.73392 0.39282 0.3445 0.0
H1144 H 0.70108 0.37015 0.35429 0.0
H1145 H 0.73151 0.37271 0.36415 0.0
C1146 C 0.13084 0.57998 0.43124 0.0
C1147 C 0.11698 0.59379 0.4315 0.0
C1148 C 0.14045 0.57486 0.44809 0.0
C1149 C 0.13644 0.58415 0.46554 0.0
C1150 C 0.12136 0.59703 0.46595 0.0
C1151 C 0.11171 0.60161 0.44891 0.0
C1152 C 0.15614 0.56076 0.44711 0.0
C1153 C 0.11679 0.60738 0.48425 0.0
C1154 C 0.15096 0.56304 0.51294 0.0
C1155 C 0.17706 0.58448 0.51731 0.0
C1156 C 0.13768 0.56217 0.49584 0.0
C1157 C 0.15074 0.58335 0.48298 0.0
C1158 C 0.17734 0.60466 0.48712 0.0
C1159 C 0.1902 0.60489 0.50415 0.0
C1160 C 0.10947 0.53896 0.49173 0.0
C1161 C 0.19197 0.62769 0.4738 0.0
H1162 H 0.13487 0.57386 0.41779 0.0
H1163 H 0.10096 0.61225 0.44911 0.0
H1164 H 0.17804 0.57501 0.45011 0.0
H1165 H 0.14891 0.54513 0.45799 0.0
H1166 H 0.15424 0.55166 0.43295 0.0
H1167 H 0.10257 0.61476 0.48238 0.0
H1168 H 0.10849 0.59171 0.49512 0.0
H1169 H 0.13655 0.62383 0.48979 0.0
H1170 H 0.14073 0.54713 0.52298 0.0
H1171 H 0.2104 0.62152 0.50734 0.0
H1172 H 0.10867 0.53052 0.47751 0.0
H1173 H 0.09456 0.54563 0.49157 0.0
H1174 H 0.10302 0.52314 0.50243 0.0
H1175 H 0.19342 0.62056 0.45956 0.0
H1176 H 0.21286 0.6424 0.47892 0.0
H1177 H 0.18023 0.63776 0.47215 0.0
C1178 C 0.60199 0.10326 0.62618 0.0
C1179 C 0.57639 0.08 0.62466 0.0
C1180 C 0.60699 0.12272 0.63975 0.0
C1181 C 0.58596 0.11868 0.65218 0.0
C1182 C 0.55994 0.09546 0.65046 0.0
C1183 C 0.55551 0.07636 0.63676 0.0
C1184 C 0.635 0.14721 0.64117 0.0
C1185 C 0.53701 0.09042 0.66346 0.0
C1186 C 0.60529 0.15276 0.70029 0.0
C1187 C 0.60046 0.1735 0.69757 0.0
C1188 C 0.60092 0.13496 0.68556 0.0
C1189 C 0.59154 0.13801 0.66765 0.0
C1190 C 0.58696 0.1591 0.66472 0.0
C1191 C 0.59145 0.1766 0.67973 0.0
C1192 C 0.60599 0.11266 0.68923 0.0
C1193 C 0.57702 0.16298 0.6458 0.0
H1194 H 0.61826 0.10594 0.61701 0.0
H1195 H 0.53581 0.05825 0.63576 0.0
H1196 H 0.63347 0.16516 0.64055 0.0
H1197 H 0.6446 0.14764 0.65501 0.0
H1198 H 0.64857 0.14813 0.62969 0.0
H1199 H 0.51759 0.07209 0.65958 0.0
H1200 H 0.54255 0.08866 0.67826 0.0
H1201 H 0.53364 0.10729 0.6631 0.0
H1202 H 0.61226 0.15021 0.71401 0.0
H1203 H 0.58772 0.19261 0.67749 0.0
H1204 H 0.62094 0.11343 0.67901 0.0
H1205 H 0.58679 0.09341 0.6871 0.0
H1206 H 0.6138 0.11338 0.70383 0.0
H1207 H 0.59117 0.16482 0.63448 0.0
H1208 H 0.57521 0.18082 0.64567 0.0
H1209 H 0.55679 0.14547 0.64226 0.0
C1210 C 0.53387 0.62669 0.77572 0.0
C1211 C 0.53351 0.60279 0.77592 0.0
C1212 C 0.51529 0.62996 0.78642 0.0
C1213 C 0.49605 0.60887 0.79766 0.0
C1214 C 0.495 0.58441 0.7974 0.0
C1215 C 0.51385 0.58171 0.7866 0.0
C1216 C 0.51705 0.65634 0.78635 0.0
C1217 C 0.47476 0.56144 0.80917 0.0
C1218 C 0.47157 0.62592 0.84215 0.0
C1219 C 0.44557 0.62047 0.83657 0.0
C1220 C 0.48818 0.62233 0.82957 0.0
C1221 C 0.47861 0.61308 0.81092 0.0
C1222 C 0.45246 0.60766 0.80513 0.0
C1223 C 0.43623 0.61142 0.81804 0.0
C1224 C 0.51595 0.62829 0.8363 0.0
C1225 C 0.44161 0.59776 0.78535 0.0
H1226 H 0.54925 0.64308 0.76763 0.0
H1227 H 0.5137 0.56329 0.78689 0.0
H1228 H 0.49668 0.65364 0.78345 0.0
H1229 H 0.5239 0.66586 0.80052 0.0
H1230 H 0.5315 0.6699 0.77561 0.0
H1231 H 0.47503 0.54312 0.80612 0.0
H1232 H 0.47954 0.5664 0.82444 0.0
H1233 H 0.45384 0.55748 0.80655 0.0
H1234 H 0.47898 0.6329 0.85643 0.0
H1235 H 0.41616 0.60715 0.81361 0.0
H1236 H 0.53197 0.64338 0.8271 0.0
H1237 H 0.51722 0.61022 0.83526 0.0
H1238 H 0.52047 0.63561 0.85118 0.0
H1239 H 0.45568 0.61195 0.77476 0.0
H1240 H 0.42103 0.59486 0.78297 0.0
H1241 H 0.44049 0.5787 0.78274 0.0
C1242 C 0.95592 0.44778 0.96369 0.0
C1243 C 0.94265 0.44174 0.93888 0.0
C1244 C 0.93046 0.43936 0.98144 0.0
C1245 C 0.8947 0.42152 0.97506 0.0
C1246 C 0.88275 0.40974 0.95124 0.0
C1247 C 0.90653 0.41711 0.93246 0.0
C1248 C 0.93902 0.44729 0.00156 0.0
C1249 C 0.85293 0.39365 0.94709 0.0
C1250 C 0.84671 0.38187 0.01421 0.0
C1251 C 0.83614 0.39775 0.01934 0.0
C1252 C 0.86582 0.38946 -0.00028 0.0
C1253 C 0.87455 0.41345 0.99018 0.0
C1254 C 0.86391 0.4295 0.99515 0.0
C1255 C 0.84478 0.42147 0.00969 0.0
C1256 C 0.87675 0.37184 0.99466 0.0
C1257 C 0.87288 0.45521 0.98518 0.0
H1258 H 0.97739 0.46046 0.96701 0.0
H1259 H 0.89966 0.41187 0.91791 0.0
H1260 H 0.9302 0.459 0.00673 0.0
H1261 H 0.93078 0.42934 0.01039 0.0
H1262 H 0.96157 0.45902 0.00291 0.0
H1263 H 0.84907 0.38874 0.93176 0.0
H1264 H 0.84385 0.37525 0.95547 0.0
H1265 H 0.84319 0.40483 0.95158 0.0
H1266 H 0.84017 0.36352 0.02157 0.0
H1267 H 0.83676 0.43389 0.01357 0.0
H1268 H 0.89922 0.3828 0.9967 0.0
H1269 H 0.87243 0.36601 0.97948 0.0
H1270 H 0.86774 0.35367 0.00335 0.0
H1271 H 0.89524 0.46853 0.987 0.0
H1272 H 0.86257 0.46542 0.99065 0.0
H1273 H 0.86844 0.45145 0.96977 0.0
C1274 C 0.48756 0.92339 0.1208 0.0
C1275 C 0.46587 0.91825 0.10856 0.0
C1276 C 0.48273 0.91284 0.13909 0.0
C1277 C 0.45556 0.89666 0.14521 0.0
C1278 C 0.43362 0.89196 0.1331 0.0
C1279 C 0.43904 0.90271 0.11487 0.0
C1280 C 0.50664 0.91817 0.15159 0.0
C1281 C 0.40437 0.87477 0.13912 0.0
C1282 C 0.44151 0.84438 0.18164 0.0
C1283 C 0.43866 0.85572 0.19828 0.0
C1284 C 0.44711 0.85758 0.16433 0.0
C1285 C 0.45002 0.88283 0.16362 0.0
C1286 C 0.44734 0.89453 0.18034 0.0
C1287 C 0.44164 0.8808 0.19751 0.0
C1288 C 0.44976 0.84441 0.14678 0.0
C1289 C 0.45039 0.92147 0.18006 0.0
H1290 H 0.5083 0.9352 0.11587 0.0
H1291 H 0.42224 0.89854 0.10538 0.0
H1292 H 0.50507 0.92561 0.16568 0.0
H1293 H 0.50645 0.89951 0.15391 0.0
H1294 H 0.52647 0.9328 0.1453 0.0
H1295 H 0.38978 0.87478 0.12862 0.0
H1296 H 0.39955 0.85415 0.1409 0.0
H1297 H 0.40127 0.88159 0.15301 0.0
H1298 H 0.43922 0.82499 0.18206 0.0
H1299 H 0.4395 0.8897 0.21031 0.0
H1300 H 0.4701 0.85709 0.14047 0.0
H1301 H 0.4343 0.84183 0.136 0.0
H1302 H 0.44707 0.82477 0.14979 0.0
H1303 H 0.47078 0.93629 0.17468 0.0
H1304 H 0.44791 0.92791 0.19431 0.0
H1305 H 0.43502 0.92128 0.17025 0.0
C1306 C 0.58408 0.47699 0.28024 0.0
C1307 C 0.56212 0.461 0.268 0.0
C1308 C 0.58639 0.46789 0.29809 0.0
C1309 C 0.56591 0.44244 0.30399 0.0
C1310 C 0.54306 0.42672 0.29206 0.0
C1311 C 0.54152 0.43614 0.27416 0.0
C1312 C 0.61117 0.48516 0.31036 0.0
C1313 C 0.5206 0.39968 0.29801 0.0
C1314 C 0.58748 0.4086 0.33961 0.0
C1315 C 0.57871 0.41367 0.35673 0.0
C1316 C 0.58299 0.41746 0.32234 0.0
C1317 C 0.56929 0.43168 0.32213 0.0
C1318 C 0.55964 0.43621 0.33925 0.0
C1319 C 0.56448 0.42716 0.35638 0.0
C1320 C 0.59359 0.41223 0.30436 0.0
C1321 C 0.54481 0.45118 0.33953 0.0
H1322 H 0.59977 0.49642 0.27566 0.0
H1323 H 0.52431 0.42387 0.26484 0.0
H1324 H 0.60487 0.48807 0.32452 0.0
H1325 H 0.62304 0.47531 0.31254 0.0
H1326 H 0.62472 0.50483 0.304 0.0
H1327 H 0.50324 0.39084 0.28773 0.0
H1328 H 0.52872 0.38628 0.2993 0.0
H1329 H 0.51291 0.40082 0.31212 0.0
H1330 H 0.59842 0.39813 0.33971 0.0
H1331 H 0.55764 0.43118 0.36953 0.0
H1332 H 0.60897 0.43124 0.29798 0.0
H1333 H 0.57675 0.40178 0.29383 0.0
H1334 H 0.6031 0.40018 0.30687 0.0
H1335 H 0.55872 0.47182 0.33498 0.0
H1336 H 0.53711 0.4516 0.35382 0.0
H1337 H 0.52736 0.44213 0.32936 0.0
C1338 C 0.42286 0.8975 0.35753 0.0
C1339 C 0.4375 0.90012 0.37426 0.0
C1340 C 0.42382 0.88322 0.34196 0.0
C1341 C 0.44021 0.87171 0.34304 0.0
C1342 C 0.45607 0.8754 0.35956 0.0
C1343 C 0.45437 0.88942 0.37503 0.0
C1344 C 0.40648 0.87959 0.32463 0.0
C1345 C 0.47418 0.86387 0.3611 0.0
C1346 C 0.41744 0.81109 0.31212 0.0
C1347 C 0.43387 0.82197 0.29619 0.0
C1348 C 0.41976 0.827 0.32765 0.0
C1349 C 0.43928 0.8544 0.32737 0.0
C1350 C 0.45682 0.8653 0.31174 0.0
C1351 C 0.45377 0.84898 0.29625 0.0
C1352 C 0.40052 0.81467 0.344 0.0
C1353 C 0.47822 0.89432 0.31111 0.0
H1354 H 0.41003 0.906 0.35685 0.0
H1355 H 0.46589 0.89159 0.38789 0.0
H1356 H 0.41925 0.88619 0.3118 0.0
H1357 H 0.39105 0.85832 0.3226 0.0
H1358 H 0.39574 0.89071 0.32574 0.0
H1359 H 0.48712 0.87063 0.37414 0.0
H1360 H 0.46146 0.84199 0.36126 0.0
H1361 H 0.48757 0.86937 0.34861 0.0
H1362 H 0.40195 0.79027 0.31216 0.0
H1363 H 0.46663 0.85749 0.28402 0.0
H1364 H 0.38741 0.82335 0.34512 0.0
H1365 H 0.41217 0.819 0.35751 0.0
H1366 H 0.3872 0.79291 0.34236 0.0
H1367 H 0.4682 0.90611 0.31015 0.0
H1368 H 0.49191 0.89919 0.29881 0.0
H1369 H 0.49075 0.9005 0.32432 0.0
C1370 C 0.57859 0.45955 0.52634 0.0
C1371 C 0.55113 0.45238 0.5256 0.0
C1372 C 0.59227 0.45992 0.50988 0.0
C1373 C 0.57805 0.45268 0.49229 0.0
C1374 C 0.55067 0.44651 0.49133 0.0
C1375 C 0.53748 0.4463 0.50802 0.0
C1376 C 0.62146 0.46657 0.5115 0.0
C1377 C 0.53479 0.43865 0.47285 0.0
C1378 C 0.61584 0.46368 0.44599 0.0
C1379 C 0.61184 0.43851 0.44257 0.0
C1380 C 0.60539 0.46884 0.46231 0.0
C1381 C 0.5906 0.44833 0.47541 0.0
C1382 C 0.58706 0.42309 0.47221 0.0
C1383 C 0.59776 0.41853 0.45589 0.0
C1384 C 0.6097 0.49603 0.46536 0.0
C1385 C 0.57143 0.40067 0.48584 0.0
H1386 H 0.5891 0.46399 0.53994 0.0
H1387 H 0.51616 0.44042 0.50744 0.0
H1388 H 0.62231 0.44845 0.50911 0.0
H1389 H 0.63407 0.48098 0.50051 0.0
H1390 H 0.63059 0.47489 0.52566 0.0
H1391 H 0.51478 0.43727 0.47414 0.0
H1392 H 0.54661 0.45308 0.46165 0.0
H1393 H 0.53113 0.41914 0.46813 0.0
H1394 H 0.62671 0.47923 0.43579 0.0
H1395 H 0.59464 0.39903 0.45345 0.0
H1396 H 0.61911 0.50385 0.47952 0.0
H1397 H 0.58975 0.4949 0.46506 0.0
H1398 H 0.6229 0.5102 0.45441 0.0
H1399 H 0.58066 0.40649 0.50024 0.0
H1400 H 0.57107 0.3824 0.48149 0.0
H1401 H 0.55011 0.39611 0.48677 0.0
C1402 C 0.1221 0.51317 0.68518 0.0
C1403 C 0.12144 0.5283 0.70028 0.0
C1404 C 0.13644 0.52526 0.66865 0.0
C1405 C 0.15 0.55308 0.66707 0.0
C1406 C 0.14832 0.56833 0.68189 0.0
C1407 C 0.13419 0.55576 0.69838 0.0
C1408 C 0.13794 0.50835 0.6532 0.0
C1409 C 0.16215 0.598 0.68059 0.0
C1410 C 0.21183 0.58643 0.63557 0.0
C1411 C 0.20094 0.59052 0.61894 0.0
C1412 C 0.19544 0.57431 0.65132 0.0
C1413 C 0.16752 0.56635 0.65051 0.0
C1414 C 0.15645 0.5708 0.63389 0.0
C1415 C 0.17328 0.58271 0.61824 0.0
C1416 C 0.20794 0.56972 0.66875 0.0
C1417 C 0.12685 0.56287 0.63264 0.0
H1418 H 0.11197 0.49191 0.68655 0.0
H1419 H 0.13351 0.56748 0.70996 0.0
H1420 H 0.13132 0.51234 0.63943 0.0
H1421 H 0.15936 0.51339 0.65164 0.0
H1422 H 0.12511 0.48691 0.6562 0.0
H1423 H 0.15684 0.60668 0.69256 0.0
H1424 H 0.18458 0.60688 0.68062 0.0
H1425 H 0.1564 0.60359 0.6671 0.0
H1426 H 0.23315 0.59233 0.63622 0.0
H1427 H 0.16475 0.58591 0.60545 0.0
H1428 H 0.19725 0.5483 0.67187 0.0
H1429 H 0.20546 0.57975 0.6812 0.0
H1430 H 0.22999 0.57709 0.66708 0.0
H1431 H 0.11366 0.54119 0.63431 0.0
H1432 H 0.12162 0.56851 0.61894 0.0
H1433 H 0.12201 0.5723 0.64433 0.0
C1434 C 0.59525 0.12879 0.86196 0.0
C1435 C 0.56567 0.11802 0.87775 0.0
C1436 C 0.59553 0.14728 0.84167 0.0
C1437 C 0.5717 0.15855 0.83966 0.0
C1438 C 0.54811 0.15363 0.85823 0.0
C1439 C 0.54625 0.13535 0.87913 0.0
C1440 C 0.61565 0.15332 0.82641 0.0
C1441 C 0.52992 0.1646 0.85623 0.0
C1442 C 0.59678 0.2174 0.80771 0.0
C1443 C 0.584 0.20534 0.79043 0.0
C1444 C 0.59211 0.20238 0.82409 0.0
C1445 C 0.57396 0.17476 0.82323 0.0
C1446 C 0.56001 0.16262 0.80611 0.0
C1447 C 0.5653 0.17804 0.78984 0.0
C1448 C 0.60759 0.21588 0.84211 0.0
C1449 C 0.5402 0.13325 0.80485 0.0
H1450 H 0.60774 0.11997 0.86255 0.0
H1451 H 0.53084 0.13046 0.88969 0.0
H1452 H 0.60461 0.14518 0.81275 0.0
H1453 H 0.62864 0.17505 0.82488 0.0
H1454 H 0.62849 0.14479 0.82973 0.0
H1455 H 0.51518 0.15788 0.86799 0.0
H1456 H 0.54246 0.18648 0.8563 0.0
H1457 H 0.51895 0.15826 0.84239 0.0
H1458 H 0.61128 0.23848 0.8083 0.0
H1459 H 0.55519 0.16861 0.77657 0.0
H1460 H 0.62158 0.20875 0.84583 0.0
H1461 H 0.59324 0.21076 0.854 0.0
H1462 H 0.61976 0.23771 0.84077 0.0
H1463 H 0.55142 0.12268 0.8067 0.0
H1464 H 0.52909 0.12719 0.79102 0.0
H1465 H 0.52514 0.12699 0.81639 0.0
C1466 C 0.447 0.57285 0.03181 0.0
C1467 C 0.48469 0.5917 0.03551 0.0
C1468 C 0.43595 0.57372 0.00795 0.0
C1469 C 0.46 0.59579 0.99074 0.0
C1470 C 0.49524 0.61904 0.99683 0.0
C1471 C 0.50826 0.61968 0.02027 0.0
C1472 C 0.40676 0.55611 0.0024 0.0
C1473 C 0.51375 0.63783 0.98233 0.0
C1474 C 0.44345 0.58545 0.93826 0.0
C1475 C 0.43549 0.60391 0.93482 0.0
C1476 C 0.45084 0.58204 0.9566 0.0
C1477 C 0.45013 0.59734 0.97175 0.0
C1478 C 0.44146 0.61545 0.96849 0.0
C1479 C 0.43428 0.61856 0.95006 0.0
C1480 C 0.45996 0.5625 0.95971 0.0
C1481 C 0.44028 0.63192 0.98441 0.0
H1482 H 0.43336 0.55841 0.04187 0.0
H1483 H 0.52978 0.63187 0.02361 0.0
H1484 H 0.39812 0.56835 0.99802 0.0
H1485 H 0.40533 0.54386 0.99001 0.0
H1486 H 0.39501 0.54327 0.01436 0.0
H1487 H 0.5348 0.64996 0.98813 0.0
H1488 H 0.51356 0.62656 0.96968 0.0
H1489 H 0.50607 0.65081 0.97782 0.0
H1490 H 0.44436 0.57399 0.92658 0.0
H1491 H 0.42793 0.63272 0.9476 0.0
H1492 H 0.44775 0.54855 0.97107 0.0
H1493 H 0.48162 0.57319 0.96446 0.0
H1494 H 0.45792 0.55103 0.94667 0.0
H1495 H 0.42755 0.61893 0.99602 0.0
H1496 H 0.43179 0.6442 0.97969 0.0
H1497 H 0.46108 0.64516 0.99034 0.0
C1498 C 0.93064 0.42245 0.17031 0.0
C1499 C 0.94489 0.44861 0.17707 0.0
C1500 C 0.90975 0.4142 0.15665 0.0
C1501 C 0.9025 0.43237 0.14998 0.0
C1502 C 0.91552 0.45824 0.15774 0.0
C1503 C 0.93668 0.46609 0.17111 0.0
C1504 C 0.89649 0.38651 0.14861 0.0
C1505 C 0.90798 0.47803 0.1513 0.0
C1506 C 0.87624 0.42671 0.09969 0.0
C1507 C 0.8482 0.41545 0.10235 0.0
C1508 C 0.89393 0.43147 0.11505 0.0
C1509 C 0.8834 0.42532 0.13359 0.0
C1510 C 0.85502 0.41358 0.13637 0.0
C1511 C 0.83766 0.40851 0.12065 0.0
C1512 C 0.924 0.44356 0.11143 0.0
C1513 C 0.84315 0.40722 0.15598 0.0
H1514 H 0.9365 0.4087 0.17523 0.0
H1515 H 0.94729 0.48618 0.17656 0.0
H1516 H 0.87397 0.37678 0.1489 0.0
H1517 H 0.90231 0.38736 0.13357 0.0
H1518 H 0.90265 0.37412 0.15648 0.0
H1519 H 0.91777 0.49621 0.16024 0.0
H1520 H 0.91444 0.4837 0.13645 0.0
H1521 H 0.88556 0.46917 0.15162 0.0
H1522 H 0.88442 0.43186 0.08553 0.0
H1523 H 0.81598 0.39993 0.12274 0.0
H1524 H 0.93143 0.43128 0.11789 0.0
H1525 H 0.9356 0.46342 0.11816 0.0
H1526 H 0.92863 0.44558 0.09607 0.0
H1527 H 0.84949 0.39479 0.16354 0.0
H1528 H 0.82053 0.39678 0.15565 0.0
H1529 H 0.8511 0.42577 0.16432 0.0
loop_
_geom_bond_atom_site_label_1
_geom_bond_atom_site_label_2
_geom_bond_distance
_geom_bond_site_symmetry_2
_ccdc_geom_bond_type
C0 C1 1.560 . S
C0 H61 0.959 . S
C0 H62 0.959 . S
C0 H63 0.960 . S
C1 C0 1.560 . S
C1 O56 1.426 . S
C1 H60 0.980 . S
C2 C3 1.407 . S
C2 C7 1.418 . S
C2 O56 1.334 . S
C3 C2 1.407 . S
C3 C4 1.360 . S
C3 H64 0.929 . S
C4 C3 1.360 . S
C4 C5 1.401 . S
C4 C8 1.527 . S
C5 C4 1.401 . S
C5 C6 1.405 . S
C5 C38 1.587 . S
C6 C5 1.405 . S
C6 C7 1.332 . S
C6 C9 1.496 . S
C7 C2 1.418 . S
C7 C6 1.332 . S
C7 H65 0.929 . S
C8 C4 1.527 . S
C8 H66 0.959 . S
C8 H67 0.961 . S
C8 H68 0.961 . S
C9 C6 1.496 . S
C9 H69 0.960 . S
C9 H70 0.960 . S
C9 H71 0.961 . S
C10 C11 1.517 . S
C10 H73 0.961 . S
C10 H74 0.960 . S
C10 H75 0.959 . S
C11 C10 1.517 . S
C11 O59 1.468 . S
C11 H72 0.980 . S
C12 C13 1.349 . S
C12 C17 1.367 . S
C12 O59 1.408 . S
C13 C12 1.349 . S
C13 C14 1.407 . S
C13 H76 0.930 . S
C14 C13 1.407 . S
C14 C15 1.449 . S
C14 C18 1.535 . S
C15 C14 1.449 . S
C15 C16 1.384 . S
C15 C40 1.553 1_655 S
C16 C15 1.384 . S
C16 C17 1.364 . S
C16 C19 1.450 . S
C17 C12 1.367 . S
C17 C16 1.364 . S
C17 H77 0.931 . S
C18 C14 1.535 . S
C18 H78 0.959 1_655 S
C18 H79 0.961 1_655 S
C18 H80 0.959 . S
C19 C16 1.450 . S
C19 H81 0.960 . S
C19 H82 0.960 1_655 S
C19 H83 0.960 . S
C20 C21 1.309 . S
C20 C25 1.304 . S
C20 O58 1.435 . S
C21 C20 1.309 . S
C21 C22 1.476 . S
C21 H85 0.930 . S
C22 C21 1.476 . S
C22 C23 1.400 . S
C22 C26 1.567 . S
C23 C22 1.400 . S
C23 C24 1.373 . S
C23 C45 1.432 . S
C24 C23 1.373 . S
C24 C25 1.339 . S
C24 C27 1.530 . S
C25 C20 1.304 . S
C25 C24 1.339 . S
C25 H86 0.930 . S
C26 C22 1.567 . S
C26 H87 0.961 . S
C26 H88 0.960 . S
C26 H89 0.958 . S
C27 C24 1.530 . S
C27 H90 0.961 . S
C27 H91 0.960 . S
C27 H92 0.960 . S
C28 C29 1.530 . S
C28 H94 0.961 . S
C28 H95 0.961 . S
C28 H96 0.959 . S
C29 C28 1.530 . S
C29 O57 1.412 . S
C29 H93 0.980 . S
C30 C31 1.288 . S
C30 C35 1.377 . S
C30 O57 1.393 . S
C31 C30 1.288 . S
C31 C32 1.369 . S
C31 H97 0.932 . S
C32 C31 1.369 . S
C32 C33 1.398 . S
C32 C36 1.527 . S
C33 C32 1.398 . S
C33 C34 1.380 . S
C33 C47 1.497 . S
C34 C33 1.380 . S
C34 C35 1.383 . S
C34 C37 1.603 . S
C35 C30 1.377 . S
C35 C34 1.383 . S
C35 H98 0.929 . S
C36 C32 1.527 . S
C36 H99 0.961 . S
C36 H100 0.959 . S
C36 H101 0.959 . S
C37 C34 1.603 . S
C37 H102 0.960 . S
C37 H103 0.962 . S
C37 H104 0.961 . S
C38 C5 1.587 . S
C38 C39 1.360 . S
C38 C51 1.412 . S
C39 C38 1.360 . S
C39 C40 1.365 . S
C39 H105 0.929 . S
C40 C15 1.553 1_455 S
C40 C39 1.365 . S
C40 C41 1.404 . S
C41 C40 1.404 . S
C41 C42 1.395 1_455 S
C41 C52 1.451 . S
C42 C41 1.395 1_655 S
C42 C43 1.322 . S
C42 H106 0.930 . S
C43 C42 1.322 . S
C43 C44 1.459 . S
C43 H107 0.929 . S
C44 C43 1.459 . S
C44 C45 1.445 . S
C44 C53 1.395 1_655 S
C45 C23 1.432 . S
C45 C44 1.445 . S
C45 C46 1.370 . S
C46 C45 1.370 . S
C46 C47 1.438 1_655 S
C46 H108 0.930 . S
C47 C33 1.497 . S
C47 C46 1.438 1_455 S
C47 C48 1.360 . S
C48 C47 1.360 . S
C48 C49 1.401 . S
C48 C53 1.446 . S
C49 C48 1.401 . S
C49 C50 1.347 . S
C49 H109 0.929 . S
C50 C49 1.347 . S
C50 C51 1.455 . S
C50 H110 0.930 . S
C51 C38 1.412 . S
C51 C50 1.455 . S
C51 C52 1.331 . S
C52 C41 1.451 . S
C52 C51 1.331 . S
C52 C53 1.497 . S
C53 C44 1.395 1_455 S
C53 C48 1.446 . S
C53 C52 1.497 . S
C54 C55 1.582 . S
C54 H111 0.962 . S
C54 H112 0.959 . S
C54 H113 0.958 . S
C55 C54 1.582 . S
C55 O58 1.458 . S
C55 H84 0.980 . S
O56 C1 1.426 . S
O56 C2 1.334 . S
O57 C29 1.412 . S
O57 C30 1.393 . S
O58 C20 1.435 . S
O58 C55 1.458 . S
O59 C11 1.468 . S
O59 C12 1.408 . S
H60 C1 0.980 . S
H61 C0 0.959 . S
H62 C0 0.959 . S
H63 C0 0.960 . S
H64 C3 0.929 . S
H65 C7 0.929 . S
H66 C8 0.959 . S
H67 C8 0.961 . S
H68 C8 0.961 . S
H69 C9 0.960 . S
H70 C9 0.960 . S
H71 C9 0.961 . S
H72 C11 0.980 . S
H73 C10 0.961 . S
H74 C10 0.960 . S
H75 C10 0.959 . S
H76 C13 0.930 . S
H77 C17 0.931 . S
H78 C18 0.959 1_455 S
H79 C18 0.961 1_455 S
H80 C18 0.959 . S
H81 C19 0.960 . S
H82 C19 0.960 1_455 S
H83 C19 0.960 . S
H84 C55 0.980 . S
H85 C21 0.930 . S
H86 C25 0.930 . S
H87 C26 0.961 . S
H88 C26 0.960 . S
H89 C26 0.958 . S
H90 C27 0.961 . S
H91 C27 0.960 . S
H92 C27 0.960 . S
H93 C29 0.980 . S
H94 C28 0.961 . S
H95 C28 0.961 . S
H96 C28 0.959 . S
H97 C31 0.932 . S
H98 C35 0.929 . S
H99 C36 0.961 . S
H100 C36 0.959 . S
H101 C36 0.959 . S
H102 C37 0.960 . S
H103 C37 0.962 . S
H104 C37 0.961 . S
H105 C39 0.929 . S
H106 C42 0.930 . S
H107 C43 0.929 . S
H108 C46 0.930 . S
H109 C49 0.929 . S
H110 C50 0.930 . S
H111 C54 0.962 . S
H112 C54 0.959 . S
H113 C54 0.958 . S
C114 C115 1.560 . S
C114 H175 0.959 . S
C114 H176 0.959 . S
C114 H177 0.960 . S
C115 C114 1.560 . S
C115 O170 1.426 . S
C115 H174 0.980 . S
C116 C117 1.407 . S
C116 C121 1.418 . S
C116 O170 1.334 . S
C117 C116 1.407 . S
C117 C118 1.360 . S
C117 H178 0.929 . S
C118 C117 1.360 . S
C118 C119 1.401 . S
C118 C122 1.527 . S
C119 C118 1.401 . S
C119 C120 1.405 . S
C119 C152 1.587 . S
C120 C119 1.405 . S
C120 C121 1.332 . S
C120 C123 1.496 . S
C121 C116 1.418 . S
C121 C120 1.332 . S
C121 H179 0.929 . S
C122 C118 1.527 . S
C122 H180 0.959 . S
C122 H181 0.961 . S
C122 H182 0.961 . S
C123 C120 1.496 . S
C123 H183 0.960 . S
C123 H184 0.960 . S
C123 H185 0.961 . S
C124 C125 1.517 . S
C124 H187 0.961 . S
C124 H188 0.960 . S
C124 H189 0.959 . S
C125 C124 1.517 . S
C125 O173 1.468 . S
C125 H186 0.980 . S
C126 C127 1.349 . S
C126 C131 1.367 . S
C126 O173 1.408 . S
C127 C126 1.349 . S
C127 C128 1.407 . S
C127 H190 0.930 . S
C128 C127 1.407 . S
C128 C129 1.449 . S
C128 C132 1.535 . S
C129 C128 1.449 . S
C129 C130 1.384 . S
C129 C154 1.553 . S
C130 C129 1.384 . S
C130 C131 1.364 . S
C130 C133 1.450 . S
C131 C126 1.367 . S
C131 C130 1.364 . S
C131 H191 0.931 . S
C132 C128 1.535 . S
C132 H192 0.959 . S
C132 H193 0.961 . S
C132 H194 0.959 . S
C133 C130 1.450 . S
C133 H195 0.960 . S
C133 H196 0.960 . S
C133 H197 0.960 . S
C134 C135 1.309 . S
C134 C139 1.304 . S
C134 O172 1.435 . S
C135 C134 1.309 . S
C135 C136 1.476 . S
C135 H199 0.930 . S
C136 C135 1.476 . S
C136 C137 1.400 . S
C136 C140 1.567 . S
C137 C136 1.400 . S
C137 C138 1.373 . S
C137 C159 1.432 . S
C138 C137 1.373 . S
C138 C139 1.339 . S
C138 C141 1.530 . S
C139 C134 1.304 . S
C139 C138 1.339 . S
C139 H200 0.930 . S
C140 C136 1.567 . S
C140 H201 0.961 . S
C140 H202 0.960 . S
C140 H203 0.958 . S
C141 C138 1.530 . S
C141 H204 0.961 . S
C141 H205 0.960 . S
C141 H206 0.960 . S
C142 C143 1.530 . S
C142 H208 0.961 . S
C142 H209 0.961 . S
C142 H210 0.959 . S
C143 C142 1.530 . S
C143 O171 1.412 . S
C143 H207 0.980 . S
C144 C145 1.288 . S
C144 C149 1.377 . S
C144 O171 1.393 . S
C145 C144 1.288 . S
C145 C146 1.369 . S
C145 H211 0.932 . S
C146 C145 1.369 . S
C146 C147 1.398 . S
C146 C150 1.527 1_565 S
C147 C146 1.398 . S
C147 C148 1.380 . S
C147 C161 1.497 1_565 S
C148 C147 1.380 . S
C148 C149 1.383 . S
C148 C151 1.603 . S
C149 C144 1.377 . S
C149 C148 1.383 . S
C149 H212 0.929 . S
C150 C146 1.527 1_545 S
C150 H213 0.961 . S
C150 H214 0.959 . S
C150 H215 0.959 1_545 S
C151 C148 1.603 . S
C151 H216 0.960 . S
C151 H217 0.962 1_565 S
C151 H218 0.961 . S
C152 C119 1.587 . S
C152 C153 1.360 . S
C152 C165 1.412 . S
C153 C152 1.360 . S
C153 C154 1.365 1_565 S
C153 H219 0.929 . S
C154 C129 1.553 . S
C154 C153 1.365 1_545 S
C154 C155 1.404 . S
C155 C154 1.404 . S
C155 C156 1.395 . S
C155 C166 1.451 . S
C156 C155 1.395 . S
C156 C157 1.322 . S
C156 H220 0.930 . S
C157 C156 1.322 . S
C157 C158 1.459 . S
C157 H221 0.929 . S
C158 C157 1.459 . S
C158 C159 1.445 . S
C158 C167 1.395 . S
C159 C137 1.432 . S
C159 C158 1.445 . S
C159 C160 1.370 . S
C160 C159 1.370 . S
C160 C161 1.438 . S
C160 H222 0.930 . S
C161 C147 1.497 1_545 S
C161 C160 1.438 . S
C161 C162 1.360 . S
C162 C161 1.360 . S
C162 C163 1.401 1_545 S
C162 C167 1.446 . S
C163 C162 1.401 1_565 S
C163 C164 1.347 . S
C163 H223 0.929 . S
C164 C163 1.347 . S
C164 C165 1.455 . S
C164 H224 0.930 . S
C165 C152 1.412 . S
C165 C164 1.455 . S
C165 C166 1.331 1_565 S
C166 C155 1.451 . S
C166 C165 1.331 1_545 S
C166 C167 1.497 . S
C167 C158 1.395 . S
C167 C162 1.446 . S
C167 C166 1.497 . S
C168 C169 1.582 . S
C168 H225 0.962 . S
C168 H226 0.959 . S
C168 H227 0.958 . S
C169 C168 1.582 . S
C169 O172 1.458 . S
C169 H198 0.980 . S
O170 C115 1.426 . S
O170 C116 1.334 . S
O171 C143 1.412 . S
O171 C144 1.393 . S
O172 C134 1.435 . S
O172 C169 1.458 . S
O173 C125 1.468 . S
O173 C126 1.408 . S
H174 C115 0.980 . S
H175 C114 0.959 . S
H176 C114 0.959 . S
H177 C114 0.960 . S
H178 C117 0.929 . S
H179 C121 0.929 . S
H180 C122 0.959 . S
H181 C122 0.961 . S
H182 C122 0.961 . S
H183 C123 0.960 . S
H184 C123 0.960 . S
H185 C123 0.961 . S
H186 C125 0.980 . S
H187 C124 0.961 . S
H188 C124 0.960 . S
H189 C124 0.959 . S
H190 C127 0.930 . S
H191 C131 0.931 . S
H192 C132 0.959 . S
H193 C132 0.961 . S
H194 C132 0.959 . S
H195 C133 0.960 . S
H196 C133 0.960 . S
H197 C133 0.960 . S
H198 C169 0.980 . S
H199 C135 0.930 . S
H200 C139 0.930 . S
H201 C140 0.961 . S
H202 C140 0.960 . S
H203 C140 0.958 . S
H204 C141 0.961 . S
H205 C141 0.960 . S
H206 C141 0.960 . S
H207 C143 0.980 . S
H208 C142 0.961 . S
H209 C142 0.961 . S
H210 C142 0.959 . S
H211 C145 0.932 . S
H212 C149 0.929 . S
H213 C150 0.961 . S
H214 C150 0.959 . S
H215 C150 0.959 1_565 S
H216 C151 0.960 . S
H217 C151 0.962 1_545 S
H218 C151 0.961 . S
H219 C153 0.929 . S
H220 C156 0.930 . S
H221 C157 0.929 . S
H222 C160 0.930 . S
H223 C163 0.929 . S
H224 C164 0.930 . S
H225 C168 0.962 . S
H226 C168 0.959 . S
H227 C168 0.958 . S
C228 C229 1.560 . S
C228 H289 0.959 . S
C228 H290 0.959 . S
C228 H291 0.960 . S
C229 C228 1.560 . S
C229 O284 1.426 . S
C229 H288 0.980 . S
C230 C231 1.407 . S
C230 C235 1.418 . S
C230 O284 1.334 . S
C231 C230 1.407 . S
C231 C232 1.360 . S
C231 H292 0.929 . S
C232 C231 1.360 . S
C232 C233 1.401 . S
C232 C236 1.527 . S
C233 C232 1.401 . S
C233 C234 1.405 . S
C233 C266 1.587 . S
C234 C233 1.405 . S
C234 C235 1.332 . S
C234 C237 1.496 . S
C235 C230 1.418 . S
C235 C234 1.332 . S
C235 H293 0.929 . S
C236 C232 1.527 . S
C236 H294 0.959 . S
C236 H295 0.961 . S
C236 H296 0.961 . S
C237 C234 1.496 . S
C237 H297 0.960 . S
C237 H298 0.960 . S
C237 H299 0.961 . S
C238 C239 1.517 . S
C238 H301 0.961 . S
C238 H302 0.960 . S
C238 H303 0.959 . S
C239 C238 1.517 . S
C239 O287 1.468 . S
C239 H300 0.980 . S
C240 C241 1.349 . S
C240 C245 1.367 . S
C240 O287 1.408 . S
C241 C240 1.349 . S
C241 C242 1.407 . S
C241 H304 0.930 . S
C242 C241 1.407 . S
C242 C243 1.449 . S
C242 C246 1.535 . S
C243 C242 1.449 . S
C243 C244 1.384 . S
C243 C268 1.553 . S
C244 C243 1.384 . S
C244 C245 1.364 . S
C244 C247 1.450 . S
C245 C240 1.367 . S
C245 C244 1.364 . S
C245 H305 0.931 . S
C246 C242 1.535 . S
C246 H306 0.959 . S
C246 H307 0.961 . S
C246 H308 0.959 . S
C247 C244 1.450 . S
C247 H309 0.960 . S
C247 H310 0.960 . S
C247 H311 0.960 . S
C248 C249 1.309 . S
C248 C253 1.304 . S
C248 O286 1.435 . S
C249 C248 1.309 . S
C249 C250 1.476 . S
C249 H313 0.930 . S
C250 C249 1.476 . S
C250 C251 1.400 . S
C250 C254 1.567 . S
C251 C250 1.400 . S
C251 C252 1.373 . S
C251 C273 1.432 . S
C252 C251 1.373 . S
C252 C253 1.339 . S
C252 C255 1.530 . S
C253 C248 1.304 . S
C253 C252 1.339 . S
C253 H314 0.930 . S
C254 C250 1.567 . S
C254 H315 0.961 . S
C254 H316 0.960 . S
C254 H317 0.958 . S
C255 C252 1.530 . S
C255 H318 0.961 . S
C255 H319 0.960 . S
C255 H320 0.960 . S
C256 C257 1.530 . S
C256 H322 0.961 . S
C256 H323 0.961 . S
C256 H324 0.959 . S
C257 C256 1.530 . S
C257 O285 1.412 . S
C257 H321 0.980 . S
C258 C259 1.288 . S
C258 C263 1.377 . S
C258 O285 1.393 . S
C259 C258 1.288 . S
C259 C260 1.369 . S
C259 H325 0.932 . S
C260 C259 1.369 . S
C260 C261 1.398 . S
C260 C264 1.527 . S
C261 C260 1.398 . S
C261 C262 1.380 . S
C261 C275 1.497 . S
C262 C261 1.380 . S
C262 C263 1.383 . S
C262 C265 1.603 . S
C263 C258 1.377 . S
C263 C262 1.383 . S
C263 H326 0.929 . S
C264 C260 1.527 . S
C264 H327 0.961 . S
C264 H328 0.959 . S
C264 H329 0.959 . S
C265 C262 1.603 . S
C265 H330 0.960 . S
C265 H331 0.962 . S
C265 H332 0.961 . S
C266 C233 1.587 . S
C266 C267 1.360 . S
C266 C279 1.412 . S
C267 C266 1.360 . S
C267 C268 1.365 . S
C267 H333 0.929 . S
C268 C243 1.553 . S
C268 C267 1.365 . S
C268 C269 1.404 . S
C269 C268 1.404 . S
C269 C270 1.395 . S
C269 C280 1.451 . S
C270 C269 1.395 . S
C270 C271 1.322 . S
C270 H334 0.930 . S
C271 C270 1.322 . S
C271 C272 1.459 . S
C271 H335 0.929 . S
C272 C271 1.459 . S
C272 C273 1.445 . S
C272 C281 1.395 . S
C273 C251 1.432 . S
C273 C272 1.445 . S
C273 C274 1.370 . S
C274 C273 1.370 . S
C274 C275 1.438 . S
C274 H336 0.930 . S
C275 C261 1.497 . S
C275 C274 1.438 . S
C275 C276 1.360 . S
C276 C275 1.360 . S
C276 C277 1.401 . S
C276 C281 1.446 . S
C277 C276 1.401 . S
C277 C278 1.347 . S
C277 H337 0.929 . S
C278 C277 1.347 . S
C278 C279 1.455 . S
C278 H338 0.930 . S
C279 C266 1.412 . S
C279 C278 1.455 . S
C279 C280 1.331 . S
C280 C269 1.451 . S
C280 C279 1.331 . S
C280 C281 1.497 . S
C281 C272 1.395 . S
C281 C276 1.446 . S
C281 C280 1.497 . S
C282 C283 1.582 . S
C282 H339 0.962 . S
C282 H340 0.959 . S
C282 H341 0.958 . S
C283 C282 1.582 . S
C283 O286 1.458 . S
C283 H312 0.980 . S
O284 C229 1.426 . S
O284 C230 1.334 . S
O285 C257 1.412 . S
O285 C258 1.393 . S
O286 C248 1.435 . S
O286 C283 1.458 . S
O287 C239 1.468 . S
O287 C240 1.408 . S
H288 C229 0.980 . S
H289 C228 0.959 . S
H290 C228 0.959 . S
H291 C228 0.960 . S
H292 C231 0.929 . S
H293 C235 0.929 . S
H294 C236 0.959 . S
H295 C236 0.961 . S
H296 C236 0.961 . S
H297 C237 0.960 . S
H298 C237 0.960 . S
H299 C237 0.961 . S
H300 C239 0.980 . S
H301 C238 0.961 . S
H302 C238 0.960 . S
H303 C238 0.959 . S
H304 C241 0.930 . S
H305 C245 0.931 . S
H306 C246 0.959 . S
H307 C246 0.961 . S
H308 C246 0.959 . S
H309 C247 0.960 . S
H310 C247 0.960 . S
H311 C247 0.960 . S
H312 C283 0.980 . S
H313 C249 0.930 . S
H314 C253 0.930 . S
H315 C254 0.961 . S
H316 C254 0.960 . S
H317 C254 0.958 . S
H318 C255 0.961 . S
H319 C255 0.960 . S
H320 C255 0.960 . S
H321 C257 0.980 . S
H322 C256 0.961 . S
H323 C256 0.961 . S
H324 C256 0.959 . S
H325 C259 0.932 . S
H326 C263 0.929 . S
H327 C264 0.961 . S
H328 C264 0.959 . S
H329 C264 0.959 . S
H330 C265 0.960 . S
H331 C265 0.962 . S
H332 C265 0.961 . S
H333 C267 0.929 . S
H334 C270 0.930 . S
H335 C271 0.929 . S
H336 C274 0.930 . S
H337 C277 0.929 . S
H338 C278 0.930 . S
H339 C282 0.962 . S
H340 C282 0.959 . S
H341 C282 0.958 . S
C342 C343 1.560 . S
C342 H403 0.959 . S
C342 H404 0.959 . S
C342 H405 0.960 . S
C343 C342 1.560 . S
C343 O398 1.426 . S
C343 H402 0.980 . S
C344 C345 1.407 . S
C344 C349 1.418 . S
C344 O398 1.334 . S
C345 C344 1.407 . S
C345 C346 1.360 . S
C345 H406 0.929 . S
C346 C345 1.360 . S
C346 C347 1.401 . S
C346 C350 1.527 . S
C347 C346 1.401 . S
C347 C348 1.405 . S
C347 C380 1.587 . S
C348 C347 1.405 . S
C348 C349 1.332 . S
C348 C351 1.496 . S
C349 C344 1.418 . S
C349 C348 1.332 . S
C349 H407 0.929 . S
C350 C346 1.527 . S
C350 H408 0.959 . S
C350 H409 0.961 . S
C350 H410 0.961 . S
C351 C348 1.496 . S
C351 H411 0.960 . S
C351 H412 0.960 . S
C351 H413 0.961 . S
C352 C353 1.517 . S
C352 H415 0.961 . S
C352 H416 0.960 . S
C352 H417 0.959 . S
C353 C352 1.517 . S
C353 O401 1.468 . S
C353 H414 0.980 . S
C354 C355 1.349 . S
C354 C359 1.367 . S
C354 O401 1.408 . S
C355 C354 1.349 . S
C355 C356 1.407 . S
C355 H418 0.930 . S
C356 C355 1.407 . S
C356 C357 1.449 . S
C356 C360 1.534 . S
C357 C356 1.449 . S
C357 C358 1.384 . S
C357 C382 1.553 1_655 S
C358 C357 1.384 . S
C358 C359 1.364 . S
C358 C361 1.450 . S
C359 C354 1.367 . S
C359 C358 1.364 . S
C359 H419 0.931 . S
C360 C356 1.534 . S
C360 H420 0.961 1_655 S
C360 H421 0.962 1_655 S
C360 H422 0.958 . S
C361 C358 1.450 . S
C361 H423 0.960 . S
C361 H424 0.960 1_655 S
C361 H425 0.960 . S
C362 C363 1.309 . S
C362 C367 1.304 . S
C362 O400 1.435 . S
C363 C362 1.309 . S
C363 C364 1.476 . S
C363 H427 0.930 . S
C364 C363 1.476 . S
C364 C365 1.400 . S
C364 C368 1.567 . S
C365 C364 1.400 . S
C365 C366 1.373 . S
C365 C387 1.432 . S
C366 C365 1.373 . S
C366 C367 1.339 . S
C366 C369 1.530 . S
C367 C362 1.304 . S
C367 C366 1.339 . S
C367 H428 0.930 . S
C368 C364 1.567 . S
C368 H429 0.961 . S
C368 H430 0.960 . S
C368 H431 0.958 . S
C369 C366 1.530 . S
C369 H432 0.961 . S
C369 H433 0.960 . S
C369 H434 0.960 . S
C370 C371 1.530 . S
C370 H436 0.961 . S
C370 H437 0.961 . S
C370 H438 0.959 . S
C371 C370 1.530 . S
C371 O399 1.412 . S
C371 H435 0.980 . S
C372 C373 1.288 . S
C372 C377 1.377 . S
C372 O399 1.393 . S
C373 C372 1.288 . S
C373 C374 1.369 . S
C373 H439 0.932 . S
C374 C373 1.369 . S
C374 C375 1.398 . S
C374 C378 1.527 . S
C375 C374 1.398 . S
C375 C376 1.380 . S
C375 C389 1.497 . S
C376 C375 1.380 . S
C376 C377 1.383 . S
C376 C379 1.603 . S
C377 C372 1.377 . S
C377 C376 1.383 . S
C377 H440 0.929 . S
C378 C374 1.527 . S
C378 H441 0.961 . S
C378 H442 0.995 . S
C378 H443 0.959 . S
C379 C376 1.603 . S
C379 H444 0.960 . S
C379 H445 0.962 . S
C379 H446 0.961 . S
C380 C347 1.587 . S
C380 C381 1.360 . S
C380 C393 1.412 . S
C381 C380 1.360 . S
C381 C382 1.365 . S
C381 H447 0.929 . S
C382 C357 1.553 1_455 S
C382 C381 1.365 . S
C382 C383 1.404 . S
C383 C382 1.404 . S
C383 C384 1.395 1_455 S
C383 C394 1.451 . S
C384 C383 1.395 1_655 S
C384 C385 1.322 . S
C384 H448 0.930 . S
C385 C384 1.322 . S
C385 C386 1.459 . S
C385 H449 0.929 . S
C386 C385 1.459 . S
C386 C387 1.445 . S
C386 C395 1.395 1_655 S
C387 C365 1.432 . S
C387 C386 1.445 . S
C387 C388 1.370 . S
C388 C387 1.370 . S
C388 C389 1.438 1_655 S
C388 H450 0.930 . S
C389 C375 1.497 . S
C389 C388 1.438 1_455 S
C389 C390 1.360 . S
C390 C389 1.360 . S
C390 C391 1.401 . S
C390 C395 1.446 . S
C391 C390 1.401 . S
C391 C392 1.347 . S
C391 H451 0.929 . S
C392 C391 1.347 . S
C392 C393 1.455 . S
C392 H452 0.930 . S
C393 C380 1.412 . S
C393 C392 1.455 . S
C393 C394 1.331 . S
C394 C383 1.451 . S
C394 C393 1.331 . S
C394 C395 1.497 . S
C395 C386 1.395 1_455 S
C395 C390 1.446 . S
C395 C394 1.497 . S
C396 C397 1.582 . S
C396 H453 0.962 . S
C396 H454 0.959 . S
C396 H455 0.958 . S
C397 C396 1.582 . S
C397 O400 1.458 . S
C397 H426 0.980 . S
O398 C343 1.426 . S
O398 C344 1.334 . S
O399 C371 1.412 . S
O399 C372 1.393 . S
O400 C362 1.435 . S
O400 C397 1.458 . S
O401 C353 1.468 . S
O401 C354 1.408 . S
H402 C343 0.980 . S
H403 C342 0.959 . S
H404 C342 0.959 . S
H405 C342 0.960 . S
H406 C345 0.929 . S
H407 C349 0.929 . S
H408 C350 0.959 . S
H409 C350 0.961 . S
H410 C350 0.961 . S
H411 C351 0.960 . S
H412 C351 0.960 . S
H413 C351 0.961 . S
H414 C353 0.980 . S
H415 C352 0.961 . S
H416 C352 0.960 . S
H417 C352 0.959 . S
H418 C355 0.930 . S
H419 C359 0.931 . S
H420 C360 0.961 1_455 S
H421 C360 0.962 1_455 S
H422 C360 0.958 . S
H423 C361 0.960 . S
H424 C361 0.960 1_455 S
H425 C361 0.960 . S
H426 C397 0.980 . S
H427 C363 0.930 . S
H428 C367 0.930 . S
H429 C368 0.961 . S
H430 C368 0.960 . S
H431 C368 0.958 . S
H432 C369 0.961 . S
H433 C369 0.960 . S
H434 C369 0.960 . S
H435 C371 0.980 . S
H436 C370 0.961 . S
H437 C370 0.961 . S
H438 C370 0.959 . S
H439 C373 0.932 . S
H440 C377 0.929 . S
H441 C378 0.961 . S
H442 C378 0.995 . S
H443 C378 0.959 . S
H444 C379 0.960 . S
H445 C379 0.962 . S
H446 C379 0.961 . S
H447 C381 0.929 . S
H448 C384 0.930 . S
H449 C385 0.929 . S
H450 C388 0.930 . S
H451 C391 0.929 . S
H452 C392 0.930 . S
H453 C396 0.962 . S
H454 C396 0.959 . S
H455 C396 0.958 . S
C456 C457 1.560 . S
C456 H517 0.959 . S
C456 H518 0.959 . S
C456 H519 0.960 . S
C457 C456 1.560 . S
C457 O512 1.426 . S
C457 H516 0.980 . S
C458 C459 1.407 . S
C458 C463 1.418 . S
C458 O512 1.334 . S
C459 C458 1.407 . S
C459 C460 1.360 . S
C459 H520 0.929 . S
C460 C459 1.360 . S
C460 C461 1.401 . S
C460 C464 1.527 . S
C461 C460 1.401 . S
C461 C462 1.405 . S
C461 C494 1.587 . S
C462 C461 1.405 . S
C462 C463 1.332 . S
C462 C465 1.496 . S
C463 C458 1.418 . S
C463 C462 1.332 . S
C463 H521 0.929 . S
C464 C460 1.527 . S
C464 H522 0.959 . S
C464 H523 0.961 . S
C464 H524 0.961 . S
C465 C462 1.496 . S
C465 H525 0.960 . S
C465 H526 0.960 . S
C465 H527 0.961 . S
C466 C467 1.517 . S
C466 H529 0.961 . S
C466 H530 0.960 . S
C466 H531 0.959 . S
C467 C466 1.517 . S
C467 O515 1.468 . S
C467 H528 0.980 . S
C468 C469 1.349 . S
C468 C473 1.367 . S
C468 O515 1.408 . S
C469 C468 1.349 . S
C469 C470 1.407 . S
C469 H532 0.930 . S
C470 C469 1.407 . S
C470 C471 1.449 . S
C470 C474 1.535 . S
C471 C470 1.449 . S
C471 C472 1.384 . S
C471 C496 1.553 . S
C472 C471 1.384 . S
C472 C473 1.364 . S
C472 C475 1.450 . S
C473 C468 1.367 . S
C473 C472 1.364 . S
C473 H533 0.931 . S
C474 C470 1.535 . S
C474 H534 0.959 . S
C474 H535 0.961 . S
C474 H536 0.959 . S
C475 C472 1.450 . S
C475 H537 0.960 . S
C475 H538 0.960 . S
C475 H539 0.960 . S
C476 C477 1.309 . S
C476 C481 1.304 . S
C476 O514 1.435 . S
C477 C476 1.309 . S
C477 C478 1.476 . S
C477 H541 0.930 . S
C478 C477 1.476 . S
C478 C479 1.400 . S
C478 C482 1.567 . S
C479 C478 1.400 . S
C479 C480 1.373 . S
C479 C501 1.432 . S
C480 C479 1.373 . S
C480 C481 1.339 . S
C480 C483 1.530 . S
C481 C476 1.304 . S
C481 C480 1.339 . S
C481 H542 0.930 . S
C482 C478 1.567 . S
C482 H543 0.961 . S
C482 H544 0.960 . S
C482 H545 0.958 . S
C483 C480 1.530 . S
C483 H546 0.961 . S
C483 H547 0.960 . S
C483 H548 0.960 . S
C484 C485 1.530 . S
C484 H550 0.961 . S
C484 H551 0.961 . S
C484 H552 0.959 . S
C485 C484 1.530 . S
C485 O513 1.412 . S
C485 H549 0.980 . S
C486 C487 1.288 . S
C486 C491 1.377 . S
C486 O513 1.393 . S
C487 C486 1.288 . S
C487 C488 1.369 . S
C487 H553 0.932 . S
C488 C487 1.369 . S
C488 C489 1.398 . S
C488 C492 1.527 1_565 S
C489 C488 1.398 . S
C489 C490 1.380 . S
C489 C503 1.497 1_565 S
C490 C489 1.380 . S
C490 C491 1.383 . S
C490 C493 1.603 . S
C491 C486 1.377 . S
C491 C490 1.383 . S
C491 H554 0.929 . S
C492 C488 1.527 1_545 S
C492 H555 0.961 . S
C492 H556 0.959 . S
C492 H557 0.959 . S
C493 C490 1.603 . S
C493 H558 0.960 . S
C493 H559 0.962 . S
C493 H560 0.961 . S
C494 C461 1.587 . S
C494 C495 1.360 . S
C494 C507 1.412 . S
C495 C494 1.360 . S
C495 C496 1.365 1_565 S
C495 H561 0.929 . S
C496 C471 1.553 . S
C496 C495 1.365 1_545 S
C496 C497 1.404 . S
C497 C496 1.404 . S
C497 C498 1.395 . S
C497 C508 1.451 . S
C498 C497 1.395 . S
C498 C499 1.322 . S
C498 H562 0.930 . S
C499 C498 1.322 . S
C499 C500 1.459 . S
C499 H563 0.929 . S
C500 C499 1.459 . S
C500 C501 1.445 1_556 S
C500 C509 1.395 . S
C501 C479 1.432 . S
C501 C500 1.445 1_554 S
C501 C502 1.370 . S
C502 C501 1.370 . S
C502 C503 1.438 . S
C502 H564 0.930 . S
C503 C489 1.497 1_545 S
C503 C502 1.438 . S
C503 C504 1.360 . S
C504 C503 1.360 . S
C504 C505 1.401 1_545 S
C504 C509 1.446 1_554 S
C505 C504 1.401 1_565 S
C505 C506 1.347 1_554 S
C505 H565 0.929 . S
C506 C505 1.347 1_556 S
C506 C507 1.455 . S
C506 H566 0.930 . S
C507 C494 1.412 . S
C507 C506 1.455 . S
C507 C508 1.331 1_565 S
C508 C497 1.451 . S
C508 C507 1.331 1_545 S
C508 C509 1.497 . S
C509 C500 1.395 . S
C509 C504 1.446 1_556 S
C509 C508 1.497 . S
C510 C511 1.582 . S
C510 H567 0.962 . S
C510 H568 0.959 . S
C510 H569 0.958 . S
C511 C510 1.582 . S
C511 O514 1.458 . S
C511 H540 0.980 . S
O512 C457 1.426 . S
O512 C458 1.334 . S
O513 C485 1.412 . S
O513 C486 1.393 . S
O514 C476 1.435 . S
O514 C511 1.458 . S
O515 C467 1.468 . S
O515 C468 1.408 . S
H516 C457 0.980 . S
H517 C456 0.959 . S
H518 C456 0.959 . S
H519 C456 0.960 . S
H520 C459 0.929 . S
H521 C463 0.929 . S
H522 C464 0.959 . S
H523 C464 0.961 . S
H524 C464 0.961 . S
H525 C465 0.960 . S
H526 C465 0.960 . S
H527 C465 0.961 . S
H528 C467 0.980 . S
H529 C466 0.961 . S
H530 C466 0.960 . S
H531 C466 0.959 . S
H532 C469 0.930 . S
H533 C473 0.931 . S
H534 C474 0.959 . S
H535 C474 0.961 . S
H536 C474 0.959 . S
H537 C475 0.960 . S
H538 C475 0.960 . S
H539 C475 0.960 . S
H540 C511 0.980 . S
H541 C477 0.930 . S
H542 C481 0.930 . S
H543 C482 0.961 . S
H544 C482 0.960 . S
H545 C482 0.958 . S
H546 C483 0.961 . S
H547 C483 0.960 . S
H548 C483 0.960 . S
H549 C485 0.980 . S
H550 C484 0.961 . S
H551 C484 0.961 . S
H552 C484 0.959 . S
H553 C487 0.932 . S
H554 C491 0.929 . S
H555 C492 0.961 . S
H556 C492 0.959 . S
H557 C492 0.959 . S
H558 C493 0.960 . S
H559 C493 0.962 . S
H560 C493 0.961 . S
H561 C495 0.929 . S
H562 C498 0.930 . S
H563 C499 0.929 . S
H564 C502 0.930 . S
H565 C505 0.929 . S
H566 C506 0.930 . S
H567 C510 0.962 . S
H568 C510 0.959 . S
H569 C510 0.958 . S
C570 C571 1.560 . S
C570 H631 0.959 . S
C570 H632 0.959 . S
C570 H633 0.960 . S
C571 C570 1.560 . S
C571 O626 1.426 . S
C571 H630 0.980 . S
C572 C573 1.407 . S
C572 C577 1.418 . S
C572 O626 1.334 . S
C573 C572 1.407 . S
C573 C574 1.360 . S
C573 H634 0.929 . S
C574 C573 1.360 . S
C574 C575 1.401 . S
C574 C578 1.527 . S
C575 C574 1.401 . S
C575 C576 1.405 . S
C575 C608 1.587 . S
C576 C575 1.405 . S
C576 C577 1.332 . S
C576 C579 1.496 . S
C577 C572 1.418 . S
C577 C576 1.332 . S
C577 H635 0.929 . S
C578 C574 1.527 . S
C578 H636 0.959 . S
C578 H637 0.961 . S
C578 H638 0.961 . S
C579 C576 1.496 . S
C579 H639 0.960 . S
C579 H640 0.960 . S
C579 H641 0.961 . S
C580 C581 1.517 . S
C580 H643 0.961 . S
C580 H644 0.960 . S
C580 H645 0.959 . S
C581 C580 1.517 . S
C581 O629 1.468 . S
C581 H642 0.980 . S
C582 C583 1.349 . S
C582 C587 1.367 . S
C582 O629 1.408 . S
C583 C582 1.349 . S
C583 C584 1.407 . S
C583 H646 0.930 . S
C584 C583 1.407 . S
C584 C585 1.449 . S
C584 C588 1.535 . S
C585 C584 1.449 . S
C585 C586 1.384 . S
C585 C610 1.553 . S
C586 C585 1.384 . S
C586 C587 1.364 . S
C586 C589 1.450 . S
C587 C582 1.367 . S
C587 C586 1.364 . S
C587 H647 0.931 . S
C588 C584 1.535 . S
C588 H648 0.959 . S
C588 H649 0.961 . S
C588 H650 0.959 . S
C589 C586 1.450 . S
C589 H651 0.960 . S
C589 H652 0.960 . S
C589 H653 0.960 . S
C590 C591 1.309 . S
C590 C595 1.304 . S
C590 O628 1.435 . S
C591 C590 1.309 . S
C591 C592 1.476 . S
C591 H655 0.930 . S
C592 C591 1.476 . S
C592 C593 1.400 . S
C592 C596 1.567 . S
C593 C592 1.400 . S
C593 C594 1.373 . S
C593 C615 1.432 . S
C594 C593 1.373 . S
C594 C595 1.339 . S
C594 C597 1.530 . S
C595 C590 1.304 . S
C595 C594 1.339 . S
C595 H656 0.930 . S
C596 C592 1.567 . S
C596 H657 0.961 . S
C596 H658 0.960 . S
C596 H659 0.958 . S
C597 C594 1.530 . S
C597 H660 0.961 . S
C597 H661 0.960 . S
C597 H662 0.960 . S
C598 C599 1.530 . S
C598 H664 0.961 . S
C598 H665 0.961 . S
C598 H666 0.959 . S
C599 C598 1.530 . S
C599 O627 1.412 . S
C599 H663 0.980 . S
C600 C601 1.288 . S
C600 C605 1.377 . S
C600 O627 1.393 . S
C601 C600 1.288 . S
C601 C602 1.369 . S
C601 H667 0.932 . S
C602 C601 1.369 . S
C602 C603 1.398 . S
C602 C606 1.527 . S
C603 C602 1.398 . S
C603 C604 1.380 . S
C603 C617 1.497 . S
C604 C603 1.380 . S
C604 C605 1.383 . S
C604 C607 1.603 . S
C605 C600 1.377 . S
C605 C604 1.383 . S
C605 H668 0.929 . S
C606 C602 1.527 . S
C606 H669 0.961 . S
C606 H670 0.959 . S
C606 H671 0.959 . S
C607 C604 1.603 . S
C607 H672 0.960 . S
C607 H673 0.962 . S
C607 H674 0.961 . S
C608 C575 1.587 . S
C608 C609 1.360 . S
C608 C621 1.412 . S
C609 C608 1.360 . S
C609 C610 1.365 . S
C609 H675 0.929 . S
C610 C585 1.553 . S
C610 C609 1.365 . S
C610 C611 1.404 . S
C611 C610 1.404 . S
C611 C612 1.395 . S
C611 C622 1.451 . S
C612 C611 1.395 . S
C612 C613 1.322 . S
C612 H676 0.930 . S
C613 C612 1.322 . S
C613 C614 1.459 . S
C613 H677 0.929 . S
C614 C613 1.459 . S
C614 C615 1.445 . S
C614 C623 1.395 . S
C615 C593 1.432 . S
C615 C614 1.445 . S
C615 C616 1.370 . S
C616 C615 1.370 . S
C616 C617 1.438 . S
C616 H678 0.930 . S
C617 C603 1.497 . S
C617 C616 1.438 . S
C617 C618 1.360 . S
C618 C617 1.360 . S
C618 C619 1.401 . S
C618 C623 1.446 . S
C619 C618 1.401 . S
C619 C620 1.347 . S
C619 H679 0.929 . S
C620 C619 1.347 . S
C620 C621 1.455 . S
C620 H680 0.930 . S
C621 C608 1.412 . S
C621 C620 1.455 . S
C621 C622 1.331 . S
C622 C611 1.451 . S
C622 C621 1.331 . S
C622 C623 1.497 . S
C623 C614 1.395 . S
C623 C618 1.446 . S
C623 C622 1.497 . S
C624 C625 1.582 . S
C624 H681 0.962 . S
C624 H682 0.959 . S
C624 H683 0.958 . S
C625 C624 1.582 . S
C625 O628 1.458 . S
C625 H654 0.980 . S
O626 C571 1.426 . S
O626 C572 1.334 . S
O627 C599 1.412 . S
O627 C600 1.393 . S
O628 C590 1.435 . S
O628 C625 1.458 . S
O629 C581 1.468 . S
O629 C582 1.408 . S
H630 C571 0.980 . S
H631 C570 0.959 . S
H632 C570 0.959 . S
H633 C570 0.960 . S
H634 C573 0.929 . S
H635 C577 0.929 . S
H636 C578 0.959 . S
H637 C578 0.961 . S
H638 C578 0.961 . S
H639 C579 0.960 . S
H640 C579 0.960 . S
H641 C579 0.961 . S
H642 C581 0.980 . S
H643 C580 0.961 . S
H644 C580 0.960 . S
H645 C580 0.959 . S
H646 C583 0.930 . S
H647 C587 0.931 . S
H648 C588 0.959 . S
H649 C588 0.961 . S
H650 C588 0.959 . S
H651 C589 0.960 . S
H652 C589 0.960 . S
H653 C589 0.960 . S
H654 C625 0.980 . S
H655 C591 0.930 . S
H656 C595 0.930 . S
H657 C596 0.961 . S
H658 C596 0.960 . S
H659 C596 0.958 . S
H660 C597 0.961 . S
H661 C597 0.960 . S
H662 C597 0.960 . S
H663 C599 0.980 . S
H664 C598 0.961 . S
H665 C598 0.961 . S
H666 C598 0.959 . S
H667 C601 0.932 . S
H668 C605 0.929 . S
H669 C606 0.961 . S
H670 C606 0.959 . S
H671 C606 0.959 . S
H672 C607 0.960 . S
H673 C607 0.962 . S
H674 C607 0.961 . S
H675 C609 0.929 . S
H676 C612 0.930 . S
H677 C613 0.929 . S
H678 C616 0.930 . S
H679 C619 0.929 . S
H680 C620 0.930 . S
H681 C624 0.962 . S
H682 C624 0.959 . S
H683 C624 0.958 . S
C684 O685 1.160 . S
C684 O691 1.185 . S
O685 C684 1.160 . S
O686 Zn687 1.899 . S
O686 C694 1.284 . S
Zn687 O686 1.899 . S
Zn687 O688 2.032 . S
Zn687 O691 2.086 . S
Zn687 O696 1.977 . S
O688 Zn687 2.032 . S
O688 C692 1.278 . S
C689 O690 1.203 . S
C689 O696 1.267 . S
O690 C689 1.203 . S
O691 C684 1.185 . S
O691 Zn687 2.086 . S
C692 O688 1.278 . S
C692 O693 1.211 . S
O693 C692 1.211 . S
C694 O686 1.284 . S
C694 O695 1.273 . S
O695 C694 1.273 . S
O696 Zn687 1.977 . S
O696 C689 1.267 . S
C697 O698 1.160 . S
C697 O704 1.185 . S
O698 C697 1.160 . S
O699 Zn700 1.899 . S
O699 C707 1.284 . S
Zn700 O699 1.899 . S
Zn700 O701 2.032 . S
Zn700 O704 2.086 . S
Zn700 O709 1.977 . S
O701 Zn700 2.032 . S
O701 C705 1.278 . S
C702 O703 1.203 . S
C702 O709 1.267 . S
O703 C702 1.203 . S
O704 C697 1.185 . S
O704 Zn700 2.086 . S
C705 O701 1.278 . S
C705 O706 1.211 . S
O706 C705 1.211 . S
C707 O699 1.284 . S
C707 O708 1.273 . S
O708 C707 1.273 . S
O709 Zn700 1.977 . S
O709 C702 1.267 . S
C710 O711 1.160 . S
C710 O717 1.185 . S
O711 C710 1.160 . S
O712 Zn713 1.899 . S
O712 C720 1.284 . S
Zn713 O712 1.899 . S
Zn713 O714 2.032 . S
Zn713 O717 2.086 . S
Zn713 O722 1.977 . S
O714 Zn713 2.032 . S
O714 C718 1.278 . S
C715 O716 1.203 . S
C715 O722 1.267 . S
O716 C715 1.203 . S
O717 C710 1.185 . S
O717 Zn713 2.086 . S
C718 O714 1.278 . S
C718 O719 1.211 . S
O719 C718 1.211 . S
C720 O712 1.284 . S
C720 O721 1.273 . S
O721 C720 1.273 . S
O722 Zn713 1.977 . S
O722 C715 1.267 . S
C723 O724 1.160 . S
C723 O730 1.185 . S
O724 C723 1.160 . S
O725 Zn726 1.899 . S
O725 C733 1.284 . S
Zn726 O725 1.899 . S
Zn726 O727 2.032 . S
Zn726 O730 2.086 . S
Zn726 O735 1.977 . S
O727 Zn726 2.032 . S
O727 C731 1.278 . S
C728 O729 1.203 . S
C728 O735 1.267 . S
O729 C728 1.203 . S
O730 C723 1.185 . S
O730 Zn726 2.086 . S
C731 O727 1.278 . S
C731 O732 1.211 . S
O732 C731 1.211 . S
C733 O725 1.284 . S
C733 O734 1.273 . S
O734 C733 1.273 . S
O735 Zn726 1.977 . S
O735 C728 1.267 . S
C736 O737 1.160 . S
C736 O743 1.185 . S
O737 C736 1.160 . S
O738 Zn739 1.899 . S
O738 C746 1.284 . S
Zn739 O738 1.899 . S
Zn739 O740 2.032 . S
Zn739 O743 2.086 . S
Zn739 O748 1.977 . S
O740 Zn739 2.032 . S
O740 C744 1.278 . S
C741 O742 1.203 . S
C741 O748 1.267 . S
O742 C741 1.203 . S
O743 C736 1.185 . S
O743 Zn739 2.086 . S
C744 O740 1.278 . S
C744 O745 1.211 . S
O745 C744 1.211 . S
C746 O738 1.284 . S
C746 O747 1.273 . S
O747 C746 1.273 . S
O748 Zn739 1.977 . S
O748 C741 1.267 . S
C749 O750 1.160 . S
C749 O756 1.185 . S
O750 C749 1.160 . S
O751 Zn752 1.899 . S
O751 C759 1.284 . S
Zn752 O751 1.899 . S
Zn752 O753 2.032 . S
Zn752 O756 2.086 . S
Zn752 O761 1.977 . S
O753 Zn752 2.032 . S
O753 C757 1.278 . S
C754 O755 1.203 . S
C754 O761 1.267 . S
O755 C754 1.203 . S
O756 C749 1.185 . S
O756 Zn752 2.086 . S
C757 O753 1.278 . S
C757 O758 1.211 . S
O758 C757 1.211 . S
C759 O751 1.284 . S
C759 O760 1.273 . S
O760 C759 1.273 . S
O761 Zn752 1.977 . S
O761 C754 1.267 . S
C762 C763 1.391 . S
C762 C764 1.394 . S
C762 H778 0.931 . S
C763 C762 1.391 . S
C763 C767 1.376 . S
C764 C762 1.394 . S
C764 C765 1.369 . S
C764 C768 1.531 . S
C765 C764 1.369 . S
C765 C766 1.410 . S
C765 C773 1.503 . S
C766 C765 1.410 . S
C766 C767 1.392 . S
C766 C769 1.511 . S
C767 C763 1.376 . S
C767 C766 1.392 . S
C767 H779 0.929 . S
C768 C764 1.531 . S
C768 H780 0.960 . S
C768 H781 0.962 . S
C768 H782 0.960 . S
C769 C766 1.511 . S
C769 H783 0.961 . S
C769 H784 0.961 . S
C769 H785 0.961 . S
C770 C771 1.370 . S
C770 C772 1.363 . S
C770 H786 0.931 . S
C771 C770 1.370 . S
C771 C775 1.408 . S
C772 C770 1.363 . S
C772 C773 1.370 . S
C772 C776 1.524 . S
C773 C765 1.503 . S
C773 C772 1.370 . S
C773 C774 1.403 . S
C774 C773 1.403 . S
C774 C775 1.404 . S
C774 C777 1.539 . S
C775 C771 1.408 . S
C775 C774 1.404 . S
C775 H787 0.930 . S
C776 C772 1.524 . S
C776 H788 0.956 . S
C776 H789 0.961 . S
C776 H790 0.961 . S
C777 C774 1.539 . S
C777 H791 0.958 . S
C777 H792 0.961 . S
C777 H793 0.960 . S
H778 C762 0.931 . S
H779 C767 0.929 . S
H780 C768 0.960 . S
H781 C768 0.962 . S
H782 C768 0.960 . S
H783 C769 0.961 . S
H784 C769 0.961 . S
H785 C769 0.961 . S
H786 C770 0.931 . S
H787 C775 0.930 . S
H788 C776 0.956 . S
H789 C776 0.961 . S
H790 C776 0.961 . S
H791 C777 0.958 . S
H792 C777 0.961 . S
H793 C777 0.960 . S
C794 C795 1.391 . S
C794 C796 1.394 . S
C794 H810 0.931 . S
C795 C794 1.391 . S
C795 C799 1.376 . S
C796 C794 1.394 . S
C796 C797 1.369 . S
C796 C800 1.531 . S
C797 C796 1.369 . S
C797 C798 1.410 . S
C797 C805 1.503 . S
C798 C797 1.410 . S
C798 C799 1.392 . S
C798 C801 1.511 . S
C799 C795 1.376 . S
C799 C798 1.392 . S
C799 H811 0.929 . S
C800 C796 1.531 . S
C800 H812 0.960 . S
C800 H813 0.962 . S
C800 H814 0.960 . S
C801 C798 1.511 . S
C801 H815 0.961 . S
C801 H816 0.961 . S
C801 H817 0.961 . S
C802 C803 1.370 . S
C802 C804 1.363 . S
C802 H818 0.931 . S
C803 C802 1.370 . S
C803 C807 1.408 . S
C804 C802 1.363 . S
C804 C805 1.370 . S
C804 C808 1.524 . S
C805 C797 1.503 . S
C805 C804 1.370 . S
C805 C806 1.403 . S
C806 C805 1.403 . S
C806 C807 1.404 . S
C806 C809 1.539 . S
C807 C803 1.408 . S
C807 C806 1.404 . S
C807 H819 0.930 . S
C808 C804 1.524 . S
C808 H820 0.956 . S
C808 H821 0.961 . S
C808 H822 0.961 . S
C809 C806 1.539 . S
C809 H823 0.958 . S
C809 H824 0.961 . S
C809 H825 0.960 . S
H810 C794 0.931 . S
H811 C799 0.929 . S
H812 C800 0.960 . S
H813 C800 0.962 . S
H814 C800 0.960 . S
H815 C801 0.961 . S
H816 C801 0.961 . S
H817 C801 0.961 . S
H818 C802 0.931 . S
H819 C807 0.930 . S
H820 C808 0.956 . S
H821 C808 0.961 . S
H822 C808 0.961 . S
H823 C809 0.958 . S
H824 C809 0.961 . S
H825 C809 0.960 . S
C826 C827 1.391 . S
C826 C828 1.394 . S
C826 H842 0.931 . S
C827 C826 1.391 . S
C827 C831 1.376 . S
C828 C826 1.394 . S
C828 C829 1.369 . S
C828 C832 1.531 . S
C829 C828 1.369 . S
C829 C830 1.410 . S
C829 C837 1.503 . S
C830 C829 1.410 . S
C830 C831 1.392 . S
C830 C833 1.511 . S
C831 C827 1.376 . S
C831 C830 1.392 . S
C831 H843 0.929 . S
C832 C828 1.531 . S
C832 H844 0.960 . S
C832 H845 0.962 . S
C832 H846 0.960 . S
C833 C830 1.511 . S
C833 H847 0.961 . S
C833 H848 0.961 . S
C833 H849 0.961 . S
C834 C835 1.370 . S
C834 C836 1.363 . S
C834 H850 0.931 . S
C835 C834 1.370 . S
C835 C839 1.408 . S
C836 C834 1.363 . S
C836 C837 1.370 . S
C836 C840 1.524 . S
C837 C829 1.503 . S
C837 C836 1.370 . S
C837 C838 1.403 . S
C838 C837 1.403 . S
C838 C839 1.404 . S
C838 C841 1.539 . S
C839 C835 1.408 . S
C839 C838 1.404 . S
C839 H851 0.930 . S
C840 C836 1.524 . S
C840 H852 0.956 . S
C840 H853 0.961 . S
C840 H854 0.961 . S
C841 C838 1.539 . S
C841 H855 0.958 . S
C841 H856 0.961 . S
C841 H857 0.960 . S
H842 C826 0.931 . S
H843 C831 0.929 . S
H844 C832 0.960 . S
H845 C832 0.962 . S
H846 C832 0.960 . S
H847 C833 0.961 . S
H848 C833 0.961 . S
H849 C833 0.961 . S
H850 C834 0.931 . S
H851 C839 0.930 . S
H852 C840 0.956 . S
H853 C840 0.961 . S
H854 C840 0.961 . S
H855 C841 0.958 . S
H856 C841 0.961 . S
H857 C841 0.960 . S
C858 C859 1.391 . S
C858 C860 1.394 . S
C858 H874 0.931 . S
C859 C858 1.391 . S
C859 C863 1.376 . S
C860 C858 1.394 . S
C860 C861 1.369 . S
C860 C864 1.531 . S
C861 C860 1.369 . S
C861 C862 1.410 . S
C861 C869 1.503 . S
C862 C861 1.410 . S
C862 C863 1.392 . S
C862 C865 1.511 . S
C863 C859 1.376 . S
C863 C862 1.392 . S
C863 H875 0.929 . S
C864 C860 1.531 . S
C864 H876 0.960 . S
C864 H877 0.962 . S
C864 H878 0.960 . S
C865 C862 1.511 . S
C865 H879 0.961 . S
C865 H880 0.961 . S
C865 H881 0.961 . S
C866 C867 1.370 . S
C866 C868 1.363 . S
C866 H882 0.931 . S
C867 C866 1.370 . S
C867 C871 1.408 . S
C868 C866 1.363 . S
C868 C869 1.370 . S
C868 C872 1.524 . S
C869 C861 1.503 . S
C869 C868 1.370 . S
C869 C870 1.403 . S
C870 C869 1.403 . S
C870 C871 1.404 . S
C870 C873 1.539 . S
C871 C867 1.408 . S
C871 C870 1.404 . S
C871 H883 0.930 . S
C872 C868 1.524 . S
C872 H884 0.956 . S
C872 H885 0.961 . S
C872 H886 0.961 . S
C873 C870 1.539 . S
C873 H887 0.958 . S
C873 H888 0.961 . S
C873 H889 0.960 . S
H874 C858 0.931 . S
H875 C863 0.929 . S
H876 C864 0.960 . S
H877 C864 0.962 . S
H878 C864 0.960 . S
H879 C865 0.961 . S
H880 C865 0.961 . S
H881 C865 0.961 . S
H882 C866 0.931 . S
H883 C871 0.930 . S
H884 C872 0.956 . S
H885 C872 0.961 . S
H886 C872 0.961 . S
H887 C873 0.958 . S
H888 C873 0.961 . S
H889 C873 0.960 . S
C890 C891 1.391 . S
C890 C892 1.394 . S
C890 H906 0.931 . S
C891 C890 1.391 . S
C891 C895 1.376 . S
C892 C890 1.394 . S
C892 C893 1.369 . S
C892 C896 1.531 . S
C893 C892 1.369 . S
C893 C894 1.410 . S
C893 C901 1.503 . S
C894 C893 1.410 . S
C894 C895 1.392 . S
C894 C897 1.511 . S
C895 C891 1.376 . S
C895 C894 1.392 . S
C895 H907 0.929 . S
C896 C892 1.531 . S
C896 H908 0.960 . S
C896 H909 0.962 . S
C896 H910 0.960 . S
C897 C894 1.511 . S
C897 H911 0.961 . S
C897 H912 0.961 . S
C897 H913 0.961 . S
C898 C899 1.370 . S
C898 C900 1.363 . S
C898 H914 0.931 . S
C899 C898 1.370 . S
C899 C903 1.408 . S
C900 C898 1.363 . S
C900 C901 1.370 . S
C900 C904 1.524 . S
C901 C893 1.503 . S
C901 C900 1.370 . S
C901 C902 1.403 . S
C902 C901 1.403 . S
C902 C903 1.404 . S
C902 C905 1.539 . S
C903 C899 1.408 . S
C903 C902 1.404 . S
C903 H915 0.930 . S
C904 C900 1.524 . S
C904 H916 0.956 . S
C904 H917 0.961 . S
C904 H918 0.961 . S
C905 C902 1.539 . S
C905 H919 0.958 . S
C905 H920 0.961 . S
C905 H921 0.960 . S
H906 C890 0.931 . S
H907 C895 0.929 . S
H908 C896 0.960 . S
H909 C896 0.962 . S
H910 C896 0.960 . S
H911 C897 0.961 . S
H912 C897 0.961 . S
H913 C897 0.961 . S
H914 C898 0.931 . S
H915 C903 0.930 . S
H916 C904 0.956 . S
H917 C904 0.961 . S
H918 C904 0.961 . S
H919 C905 0.958 . S
H920 C905 0.961 . S
H921 C905 0.960 . S
C922 C923 1.391 . S
C922 C924 1.394 . S
C922 H938 0.931 . S
C923 C922 1.391 . S
C923 C927 1.376 . S
C924 C922 1.394 . S
C924 C925 1.369 . S
C924 C928 1.531 . S
C925 C924 1.369 . S
C925 C926 1.410 . S
C925 C933 1.503 . S
C926 C925 1.410 . S
C926 C927 1.392 . S
C926 C929 1.511 . S
C927 C923 1.376 . S
C927 C926 1.392 . S
C927 H939 0.929 . S
C928 C924 1.531 . S
C928 H940 0.960 . S
C928 H941 0.962 . S
C928 H942 0.960 . S
C929 C926 1.511 . S
C929 H943 0.961 . S
C929 H944 0.961 . S
C929 H945 0.961 . S
C930 C931 1.370 . S
C930 C932 1.363 . S
C930 H946 0.931 . S
C931 C930 1.370 . S
C931 C935 1.408 . S
C932 C930 1.363 . S
C932 C933 1.370 . S
C932 C936 1.524 . S
C933 C925 1.503 . S
C933 C932 1.370 . S
C933 C934 1.403 . S
C934 C933 1.403 . S
C934 C935 1.404 . S
C934 C937 1.539 . S
C935 C931 1.408 . S
C935 C934 1.404 . S
C935 H947 0.930 . S
C936 C932 1.524 . S
C936 H948 0.956 . S
C936 H949 0.961 . S
C936 H950 0.961 . S
C937 C934 1.539 . S
C937 H951 0.958 . S
C937 H952 0.961 . S
C937 H953 0.960 . S
H938 C922 0.931 . S
H939 C927 0.929 . S
H940 C928 0.960 . S
H941 C928 0.962 . S
H942 C928 0.960 . S
H943 C929 0.961 . S
H944 C929 0.961 . S
H945 C929 0.961 . S
H946 C930 0.931 . S
H947 C935 0.930 . S
H948 C936 0.956 . S
H949 C936 0.961 . S
H950 C936 0.961 . S
H951 C937 0.958 . S
H952 C937 0.961 . S
H953 C937 0.960 . S
C954 C955 1.391 . S
C954 C956 1.394 . S
C954 H970 0.931 . S
C955 C954 1.391 . S
C955 C959 1.376 . S
C956 C954 1.394 . S
C956 C957 1.369 . S
C956 C960 1.531 . S
C957 C956 1.369 . S
C957 C958 1.410 . S
C957 C965 1.503 . S
C958 C957 1.410 . S
C958 C959 1.392 . S
C958 C961 1.511 . S
C959 C955 1.376 . S
C959 C958 1.392 . S
C959 H971 0.929 . S
C960 C956 1.531 . S
C960 H972 0.960 . S
C960 H973 0.962 . S
C960 H974 0.960 . S
C961 C958 1.511 . S
C961 H975 0.961 . S
C961 H976 0.961 . S
C961 H977 0.961 . S
C962 C963 1.370 . S
C962 C964 1.363 . S
C962 H978 0.931 . S
C963 C962 1.370 . S
C963 C967 1.408 . S
C964 C962 1.363 . S
C964 C965 1.370 . S
C964 C968 1.524 . S
C965 C957 1.503 . S
C965 C964 1.370 . S
C965 C966 1.403 . S
C966 C965 1.403 . S
C966 C967 1.404 . S
C966 C969 1.539 . S
C967 C963 1.408 . S
C967 C966 1.404 . S
C967 H979 0.930 . S
C968 C964 1.524 . S
C968 H980 0.956 . S
C968 H981 0.961 . S
C968 H982 0.961 . S
C969 C966 1.539 . S
C969 H983 0.958 . S
C969 H984 0.961 . S
C969 H985 0.960 . S
H970 C954 0.931 . S
H971 C959 0.929 . S
H972 C960 0.960 . S
H973 C960 0.962 . S
H974 C960 0.960 . S
H975 C961 0.961 . S
H976 C961 0.961 . S
H977 C961 0.961 . S
H978 C962 0.931 . S
H979 C967 0.930 . S
H980 C968 0.956 . S
H981 C968 0.961 . S
H982 C968 0.961 . S
H983 C969 0.958 . S
H984 C969 0.961 . S
H985 C969 0.960 . S
C986 C987 1.391 . S
C986 C988 1.394 . S
C986 H1002 0.931 . S
C987 C986 1.391 . S
C987 C991 1.376 . S
C988 C986 1.394 . S
C988 C989 1.369 . S
C988 C992 1.531 . S
C989 C988 1.369 . S
C989 C990 1.410 . S
C989 C997 1.503 . S
C990 C989 1.410 . S
C990 C991 1.392 . S
C990 C993 1.511 . S
C991 C987 1.376 . S
C991 C990 1.392 . S
C991 H1003 0.929 . S
C992 C988 1.531 . S
C992 H1004 0.960 . S
C992 H1005 0.962 . S
C992 H1006 0.960 . S
C993 C990 1.511 . S
C993 H1007 0.961 . S
C993 H1008 0.961 . S
C993 H1009 0.961 . S
C994 C995 1.370 . S
C994 C996 1.363 . S
C994 H1010 0.931 . S
C995 C994 1.370 . S
C995 C999 1.408 . S
C996 C994 1.363 . S
C996 C997 1.370 . S
C996 C1000 1.524 . S
C997 C989 1.503 . S
C997 C996 1.370 . S
C997 C998 1.403 . S
C998 C997 1.403 . S
C998 C999 1.404 . S
C998 C1001 1.539 . S
C999 C995 1.408 . S
C999 C998 1.404 . S
C999 H1011 0.930 . S
C1000 C996 1.524 . S
C1000 H1012 0.956 . S
C1000 H1013 0.961 . S
C1000 H1014 0.961 . S
C1001 C998 1.539 . S
C1001 H1015 0.958 . S
C1001 H1016 0.961 . S
C1001 H1017 0.960 . S
H1002 C986 0.931 . S
H1003 C991 0.929 . S
H1004 C992 0.960 . S
H1005 C992 0.962 . S
H1006 C992 0.960 . S
H1007 C993 0.961 . S
H1008 C993 0.961 . S
H1009 C993 0.961 . S
H1010 C994 0.931 . S
H1011 C999 0.930 . S
H1012 C1000 0.956 . S
H1013 C1000 0.961 . S
H1014 C1000 0.961 . S
H1015 C1001 0.958 . S
H1016 C1001 0.961 . S
H1017 C1001 0.960 . S
C1018 C1019 1.391 . S
C1018 C1020 1.394 . S
C1018 H1034 0.931 . S
C1019 C1018 1.391 . S
C1019 C1023 1.376 . S
C1020 C1018 1.394 . S
C1020 C1021 1.369 . S
C1020 C1024 1.531 . S
C1021 C1020 1.369 . S
C1021 C1022 1.410 . S
C1021 C1029 1.503 . S
C1022 C1021 1.410 . S
C1022 C1023 1.392 . S
C1022 C1025 1.511 . S
C1023 C1019 1.376 . S
C1023 C1022 1.392 . S
C1023 H1035 0.929 . S
C1024 C1020 1.531 . S
C1024 H1036 0.960 . S
C1024 H1037 0.962 . S
C1024 H1038 0.960 . S
C1025 C1022 1.511 . S
C1025 H1039 0.961 . S
C1025 H1040 0.961 . S
C1025 H1041 0.961 . S
C1026 C1027 1.370 . S
C1026 C1028 1.363 . S
C1026 H1042 0.931 . S
C1027 C1026 1.370 . S
C1027 C1031 1.408 . S
C1028 C1026 1.363 . S
C1028 C1029 1.370 . S
C1028 C1032 1.524 . S
C1029 C1021 1.503 . S
C1029 C1028 1.370 . S
C1029 C1030 1.403 . S
C1030 C1029 1.403 . S
C1030 C1031 1.404 . S
C1030 C1033 1.539 . S
C1031 C1027 1.408 . S
C1031 C1030 1.404 . S
C1031 H1043 0.930 . S
C1032 C1028 1.524 . S
C1032 H1044 0.956 . S
C1032 H1045 0.961 . S
C1032 H1046 0.961 . S
C1033 C1030 1.539 . S
C1033 H1047 0.958 . S
C1033 H1048 0.961 . S
C1033 H1049 0.960 . S
H1034 C1018 0.931 . S
H1035 C1023 0.929 . S
H1036 C1024 0.960 . S
H1037 C1024 0.962 . S
H1038 C1024 0.960 . S
H1039 C1025 0.961 . S
H1040 C1025 0.961 . S
H1041 C1025 0.961 . S
H1042 C1026 0.931 . S
H1043 C1031 0.930 . S
H1044 C1032 0.956 . S
H1045 C1032 0.961 . S
H1046 C1032 0.961 . S
H1047 C1033 0.958 . S
H1048 C1033 0.961 . S
H1049 C1033 0.960 . S
C1050 C1051 1.391 . S
C1050 C1052 1.394 . S
C1050 H1066 0.931 . S
C1051 C1050 1.391 . S
C1051 C1055 1.376 . S
C1052 C1050 1.394 . S
C1052 C1053 1.369 . S
C1052 C1056 1.531 . S
C1053 C1052 1.369 . S
C1053 C1054 1.410 . S
C1053 C1061 1.503 . S
C1054 C1053 1.410 . S
C1054 C1055 1.392 . S
C1054 C1057 1.511 . S
C1055 C1051 1.376 . S
C1055 C1054 1.392 . S
C1055 H1067 0.929 . S
C1056 C1052 1.531 . S
C1056 H1068 0.960 . S
C1056 H1069 0.962 . S
C1056 H1070 0.960 . S
C1057 C1054 1.511 . S
C1057 H1071 0.961 . S
C1057 H1072 0.961 . S
C1057 H1073 0.961 . S
C1058 C1059 1.370 . S
C1058 C1060 1.363 . S
C1058 H1074 0.931 . S
C1059 C1058 1.370 . S
C1059 C1063 1.408 . S
C1060 C1058 1.363 . S
C1060 C1061 1.370 . S
C1060 C1064 1.524 . S
C1061 C1053 1.503 . S
C1061 C1060 1.370 . S
C1061 C1062 1.403 . S
C1062 C1061 1.403 . S
C1062 C1063 1.404 . S
C1062 C1065 1.539 . S
C1063 C1059 1.408 . S
C1063 C1062 1.404 . S
C1063 H1075 0.930 . S
C1064 C1060 1.524 . S
C1064 H1076 0.956 . S
C1064 H1077 0.961 . S
C1064 H1078 0.961 . S
C1065 C1062 1.539 . S
C1065 H1079 0.958 . S
C1065 H1080 0.961 . S
C1065 H1081 0.960 . S
H1066 C1050 0.931 . S
H1067 C1055 0.929 . S
H1068 C1056 0.960 . S
H1069 C1056 0.962 . S
H1070 C1056 0.960 . S
H1071 C1057 0.961 . S
H1072 C1057 0.961 . S
H1073 C1057 0.961 . S
H1074 C1058 0.931 . S
H1075 C1063 0.930 . S
H1076 C1064 0.956 . S
H1077 C1064 0.961 . S
H1078 C1064 0.961 . S
H1079 C1065 0.958 . S
H1080 C1065 0.961 . S
H1081 C1065 0.960 . S
C1082 C1083 1.391 . S
C1082 C1084 1.394 . S
C1082 H1098 0.931 . S
C1083 C1082 1.391 . S
C1083 C1087 1.376 . S
C1084 C1082 1.394 . S
C1084 C1085 1.369 . S
C1084 C1088 1.531 . S
C1085 C1084 1.369 . S
C1085 C1086 1.410 . S
C1085 C1093 1.503 . S
C1086 C1085 1.410 . S
C1086 C1087 1.392 . S
C1086 C1089 1.511 . S
C1087 C1083 1.376 . S
C1087 C1086 1.392 . S
C1087 H1099 0.929 . S
C1088 C1084 1.531 . S
C1088 H1100 0.960 . S
C1088 H1101 0.962 . S
C1088 H1102 0.960 . S
C1089 C1086 1.511 . S
C1089 H1103 0.961 . S
C1089 H1104 0.961 . S
C1089 H1105 0.961 . S
C1090 C1091 1.370 . S
C1090 C1092 1.363 . S
C1090 H1106 0.931 . S
C1091 C1090 1.370 . S
C1091 C1095 1.408 . S
C1092 C1090 1.363 . S
C1092 C1093 1.370 . S
C1092 C1096 1.524 . S
C1093 C1085 1.503 . S
C1093 C1092 1.370 . S
C1093 C1094 1.403 . S
C1094 C1093 1.403 . S
C1094 C1095 1.404 . S
C1094 C1097 1.539 . S
C1095 C1091 1.408 . S
C1095 C1094 1.404 . S
C1095 H1107 0.930 . S
C1096 C1092 1.524 . S
C1096 H1108 0.956 . S
C1096 H1109 0.961 . S
C1096 H1110 0.961 . S
C1097 C1094 1.539 . S
C1097 H1111 0.958 . S
C1097 H1112 0.961 . S
C1097 H1113 0.960 . S
H1098 C1082 0.931 . S
H1099 C1087 0.929 . S
H1100 C1088 0.960 . S
H1101 C1088 0.962 . S
H1102 C1088 0.960 . S
H1103 C1089 0.961 . S
H1104 C1089 0.961 . S
H1105 C1089 0.961 . S
H1106 C1090 0.931 . S
H1107 C1095 0.930 . S
H1108 C1096 0.956 . S
H1109 C1096 0.961 . S
H1110 C1096 0.961 . S
H1111 C1097 0.958 . S
H1112 C1097 0.961 . S
H1113 C1097 0.960 . S
C1114 C1115 1.391 . S
C1114 C1116 1.394 . S
C1114 H1130 0.931 . S
C1115 C1114 1.391 . S
C1115 C1119 1.376 . S
C1116 C1114 1.394 . S
C1116 C1117 1.369 . S
C1116 C1120 1.531 . S
C1117 C1116 1.369 . S
C1117 C1118 1.410 . S
C1117 C1125 1.503 . S
C1118 C1117 1.410 . S
C1118 C1119 1.392 . S
C1118 C1121 1.511 . S
C1119 C1115 1.376 . S
C1119 C1118 1.392 . S
C1119 H1131 0.929 . S
C1120 C1116 1.531 . S
C1120 H1132 0.960 . S
C1120 H1133 0.962 . S
C1120 H1134 0.960 . S
C1121 C1118 1.511 . S
C1121 H1135 0.961 . S
C1121 H1136 0.961 . S
C1121 H1137 0.961 . S
C1122 C1123 1.370 . S
C1122 C1124 1.363 . S
C1122 H1138 0.931 . S
C1123 C1122 1.370 . S
C1123 C1127 1.408 . S
C1124 C1122 1.363 . S
C1124 C1125 1.370 . S
C1124 C1128 1.524 . S
C1125 C1117 1.503 . S
C1125 C1124 1.370 . S
C1125 C1126 1.403 . S
C1126 C1125 1.403 . S
C1126 C1127 1.404 . S
C1126 C1129 1.539 . S
C1127 C1123 1.408 . S
C1127 C1126 1.404 . S
C1127 H1139 0.930 . S
C1128 C1124 1.524 . S
C1128 H1140 0.956 . S
C1128 H1141 0.961 . S
C1128 H1142 0.961 . S
C1129 C1126 1.539 . S
C1129 H1143 0.958 . S
C1129 H1144 0.961 . S
C1129 H1145 0.960 . S
H1130 C1114 0.931 . S
H1131 C1119 0.929 . S
H1132 C1120 0.960 . S
H1133 C1120 0.962 . S
H1134 C1120 0.960 . S
H1135 C1121 0.961 . S
H1136 C1121 0.961 . S
H1137 C1121 0.961 . S
H1138 C1122 0.931 . S
H1139 C1127 0.930 . S
H1140 C1128 0.956 . S
H1141 C1128 0.961 . S
H1142 C1128 0.961 . S
H1143 C1129 0.958 . S
H1144 C1129 0.961 . S
H1145 C1129 0.960 . S
C1146 C1147 1.391 . S
C1146 C1148 1.394 . S
C1146 H1162 0.931 . S
C1147 C1146 1.391 . S
C1147 C1151 1.376 . S
C1148 C1146 1.394 . S
C1148 C1149 1.369 . S
C1148 C1152 1.531 . S
C1149 C1148 1.369 . S
C1149 C1150 1.410 . S
C1149 C1157 1.503 . S
C1150 C1149 1.410 . S
C1150 C1151 1.392 . S
C1150 C1153 1.511 . S
C1151 C1147 1.376 . S
C1151 C1150 1.392 . S
C1151 H1163 0.929 . S
C1152 C1148 1.531 . S
C1152 H1164 0.960 . S
C1152 H1165 0.962 . S
C1152 H1166 0.960 . S
C1153 C1150 1.511 . S
C1153 H1167 0.961 . S
C1153 H1168 0.961 . S
C1153 H1169 0.961 . S
C1154 C1155 1.370 . S
C1154 C1156 1.363 . S
C1154 H1170 0.931 . S
C1155 C1154 1.370 . S
C1155 C1159 1.408 . S
C1156 C1154 1.363 . S
C1156 C1157 1.370 . S
C1156 C1160 1.524 . S
C1157 C1149 1.503 . S
C1157 C1156 1.370 . S
C1157 C1158 1.403 . S
C1158 C1157 1.403 . S
C1158 C1159 1.404 . S
C1158 C1161 1.539 . S
C1159 C1155 1.408 . S
C1159 C1158 1.404 . S
C1159 H1171 0.930 . S
C1160 C1156 1.524 . S
C1160 H1172 0.956 . S
C1160 H1173 0.961 . S
C1160 H1174 0.961 . S
C1161 C1158 1.539 . S
C1161 H1175 0.958 . S
C1161 H1176 0.961 . S
C1161 H1177 0.960 . S
H1162 C1146 0.931 . S
H1163 C1151 0.929 . S
H1164 C1152 0.960 . S
H1165 C1152 0.962 . S
H1166 C1152 0.960 . S
H1167 C1153 0.961 . S
H1168 C1153 0.961 . S
H1169 C1153 0.961 . S
H1170 C1154 0.931 . S
H1171 C1159 0.930 . S
H1172 C1160 0.956 . S
H1173 C1160 0.961 . S
H1174 C1160 0.961 . S
H1175 C1161 0.958 . S
H1176 C1161 0.961 . S
H1177 C1161 0.960 . S
C1178 C1179 1.391 . S
C1178 C1180 1.394 . S
C1178 H1194 0.931 . S
C1179 C1178 1.391 . S
C1179 C1183 1.376 . S
C1180 C1178 1.394 . S
C1180 C1181 1.369 . S
C1180 C1184 1.531 . S
C1181 C1180 1.369 . S
C1181 C1182 1.410 . S
C1181 C1189 1.503 . S
C1182 C1181 1.410 . S
C1182 C1183 1.392 . S
C1182 C1185 1.511 . S
C1183 C1179 1.376 . S
C1183 C1182 1.392 . S
C1183 H1195 0.929 . S
C1184 C1180 1.531 . S
C1184 H1196 0.960 . S
C1184 H1197 0.962 . S
C1184 H1198 0.960 . S
C1185 C1182 1.511 . S
C1185 H1199 0.961 . S
C1185 H1200 0.961 . S
C1185 H1201 0.961 . S
C1186 C1187 1.370 . S
C1186 C1188 1.363 . S
C1186 H1202 0.931 . S
C1187 C1186 1.370 . S
C1187 C1191 1.408 . S
C1188 C1186 1.363 . S
C1188 C1189 1.370 . S
C1188 C1192 1.524 . S
C1189 C1181 1.503 . S
C1189 C1188 1.370 . S
C1189 C1190 1.403 . S
C1190 C1189 1.403 . S
C1190 C1191 1.404 . S
C1190 C1193 1.539 . S
C1191 C1187 1.408 . S
C1191 C1190 1.404 . S
C1191 H1203 0.930 . S
C1192 C1188 1.524 . S
C1192 H1204 0.956 . S
C1192 H1205 0.961 . S
C1192 H1206 0.961 . S
C1193 C1190 1.539 . S
C1193 H1207 0.958 . S
C1193 H1208 0.961 . S
C1193 H1209 0.960 . S
H1194 C1178 0.931 . S
H1195 C1183 0.929 . S
H1196 C1184 0.960 . S
H1197 C1184 0.962 . S
H1198 C1184 0.960 . S
H1199 C1185 0.961 . S
H1200 C1185 0.961 . S
H1201 C1185 0.961 . S
H1202 C1186 0.931 . S
H1203 C1191 0.930 . S
H1204 C1192 0.956 . S
H1205 C1192 0.961 . S
H1206 C1192 0.961 . S
H1207 C1193 0.958 . S
H1208 C1193 0.961 . S
H1209 C1193 0.960 . S
C1210 C1211 1.391 . S
C1210 C1212 1.394 . S
C1210 H1226 0.931 . S
C1211 C1210 1.391 . S
C1211 C1215 1.376 . S
C1212 C1210 1.394 . S
C1212 C1213 1.369 . S
C1212 C1216 1.531 . S
C1213 C1212 1.369 . S
C1213 C1214 1.410 . S
C1213 C1221 1.503 . S
C1214 C1213 1.410 . S
C1214 C1215 1.392 . S
C1214 C1217 1.511 . S
C1215 C1211 1.376 . S
C1215 C1214 1.392 . S
C1215 H1227 0.929 . S
C1216 C1212 1.531 . S
C1216 H1228 0.960 . S
C1216 H1229 0.962 . S
C1216 H1230 0.960 . S
C1217 C1214 1.511 . S
C1217 H1231 0.961 . S
C1217 H1232 0.961 . S
C1217 H1233 0.961 . S
C1218 C1219 1.370 . S
C1218 C1220 1.363 . S
C1218 H1234 0.931 . S
C1219 C1218 1.370 . S
C1219 C1223 1.408 . S
C1220 C1218 1.363 . S
C1220 C1221 1.370 . S
C1220 C1224 1.524 . S
C1221 C1213 1.503 . S
C1221 C1220 1.370 . S
C1221 C1222 1.403 . S
C1222 C1221 1.403 . S
C1222 C1223 1.404 . S
C1222 C1225 1.539 . S
C1223 C1219 1.408 . S
C1223 C1222 1.404 . S
C1223 H1235 0.930 . S
C1224 C1220 1.524 . S
C1224 H1236 0.956 . S
C1224 H1237 0.961 . S
C1224 H1238 0.961 . S
C1225 C1222 1.539 . S
C1225 H1239 0.958 . S
C1225 H1240 0.961 . S
C1225 H1241 0.960 . S
H1226 C1210 0.931 . S
H1227 C1215 0.929 . S
H1228 C1216 0.960 . S
H1229 C1216 0.962 . S
H1230 C1216 0.960 . S
H1231 C1217 0.961 . S
H1232 C1217 0.961 . S
H1233 C1217 0.961 . S
H1234 C1218 0.931 . S
H1235 C1223 0.930 . S
H1236 C1224 0.956 . S
H1237 C1224 0.961 . S
H1238 C1224 0.961 . S
H1239 C1225 0.958 . S
H1240 C1225 0.961 . S
H1241 C1225 0.960 . S
C1242 C1243 1.391 . S
C1242 C1244 1.394 . S
C1242 H1258 0.931 . S
C1243 C1242 1.391 . S
C1243 C1247 1.376 . S
C1244 C1242 1.394 . S
C1244 C1245 1.369 . S
C1244 C1248 1.531 . S
C1245 C1244 1.369 . S
C1245 C1246 1.410 . S
C1245 C1253 1.503 . S
C1246 C1245 1.410 . S
C1246 C1247 1.392 . S
C1246 C1249 1.511 . S
C1247 C1243 1.376 . S
C1247 C1246 1.392 . S
C1247 H1259 0.929 . S
C1248 C1244 1.531 . S
C1248 H1260 0.960 . S
C1248 H1261 0.962 . S
C1248 H1262 0.960 . S
C1249 C1246 1.511 . S
C1249 H1263 0.961 . S
C1249 H1264 0.961 . S
C1249 H1265 0.961 . S
C1250 C1251 1.370 . S
C1250 C1252 1.363 1_554 S
C1250 H1266 0.931 . S
C1251 C1250 1.370 . S
C1251 C1255 1.408 . S
C1252 C1250 1.363 1_556 S
C1252 C1253 1.370 . S
C1252 C1256 1.524 . S
C1253 C1245 1.503 . S
C1253 C1252 1.370 . S
C1253 C1254 1.403 . S
C1254 C1253 1.403 . S
C1254 C1255 1.404 1_556 S
C1254 C1257 1.539 . S
C1255 C1251 1.408 . S
C1255 C1254 1.404 1_554 S
C1255 H1267 0.930 . S
C1256 C1252 1.524 . S
C1256 H1268 0.956 . S
C1256 H1269 0.961 . S
C1256 H1270 0.933 1_556 S
C1257 C1254 1.539 . S
C1257 H1271 0.958 . S
C1257 H1272 0.961 . S
C1257 H1273 0.960 . S
H1258 C1242 0.931 . S
H1259 C1247 0.929 . S
H1260 C1248 0.960 . S
H1261 C1248 0.962 . S
H1262 C1248 0.960 . S
H1263 C1249 0.961 . S
H1264 C1249 0.961 . S
H1265 C1249 0.961 . S
H1266 C1250 0.931 . S
H1267 C1255 0.930 . S
H1268 C1256 0.956 . S
H1269 C1256 0.961 . S
H1270 C1256 0.933 1_554 S
H1271 C1257 0.958 . S
H1272 C1257 0.961 . S
H1273 C1257 0.960 . S
C1274 C1275 1.391 . S
C1274 C1276 1.394 . S
C1274 H1290 0.931 . S
C1275 C1274 1.391 . S
C1275 C1279 1.376 . S
C1276 C1274 1.394 . S
C1276 C1277 1.369 . S
C1276 C1280 1.531 . S
C1277 C1276 1.369 . S
C1277 C1278 1.410 . S
C1277 C1285 1.503 . S
C1278 C1277 1.410 . S
C1278 C1279 1.392 . S
C1278 C1281 1.511 . S
C1279 C1275 1.376 . S
C1279 C1278 1.392 . S
C1279 H1291 0.929 . S
C1280 C1276 1.531 . S
C1280 H1292 0.960 . S
C1280 H1293 0.962 . S
C1280 H1294 0.960 . S
C1281 C1278 1.511 . S
C1281 H1295 0.961 . S
C1281 H1296 0.961 . S
C1281 H1297 0.961 . S
C1282 C1283 1.370 . S
C1282 C1284 1.363 . S
C1282 H1298 0.931 . S
C1283 C1282 1.370 . S
C1283 C1287 1.408 . S
C1284 C1282 1.363 . S
C1284 C1285 1.370 . S
C1284 C1288 1.524 . S
C1285 C1277 1.503 . S
C1285 C1284 1.370 . S
C1285 C1286 1.403 . S
C1286 C1285 1.403 . S
C1286 C1287 1.404 . S
C1286 C1289 1.539 . S
C1287 C1283 1.408 . S
C1287 C1286 1.404 . S
C1287 H1299 0.930 . S
C1288 C1284 1.524 . S
C1288 H1300 0.956 . S
C1288 H1301 0.961 . S
C1288 H1302 0.961 . S
C1289 C1286 1.539 . S
C1289 H1303 0.958 . S
C1289 H1304 0.961 . S
C1289 H1305 0.960 . S
H1290 C1274 0.931 . S
H1291 C1279 0.929 . S
H1292 C1280 0.960 . S
H1293 C1280 0.962 . S
H1294 C1280 0.960 . S
H1295 C1281 0.961 . S
H1296 C1281 0.961 . S
H1297 C1281 0.961 . S
H1298 C1282 0.931 . S
H1299 C1287 0.930 . S
H1300 C1288 0.956 . S
H1301 C1288 0.961 . S
H1302 C1288 0.961 . S
H1303 C1289 0.958 . S
H1304 C1289 0.961 . S
H1305 C1289 0.960 . S
C1306 C1307 1.391 . S
C1306 C1308 1.394 . S
C1306 H1322 0.931 . S
C1307 C1306 1.391 . S
C1307 C1311 1.376 . S
C1308 C1306 1.394 . S
C1308 C1309 1.369 . S
C1308 C1312 1.531 . S
C1309 C1308 1.369 . S
C1309 C1310 1.410 . S
C1309 C1317 1.503 . S
C1310 C1309 1.410 . S
C1310 C1311 1.392 . S
C1310 C1313 1.511 . S
C1311 C1307 1.376 . S
C1311 C1310 1.392 . S
C1311 H1323 0.929 . S
C1312 C1308 1.531 . S
C1312 H1324 0.960 . S
C1312 H1325 0.962 . S
C1312 H1326 0.960 . S
C1313 C1310 1.511 . S
C1313 H1327 0.961 . S
C1313 H1328 0.961 . S
C1313 H1329 0.961 . S
C1314 C1315 1.370 . S
C1314 C1316 1.363 . S
C1314 H1330 0.931 . S
C1315 C1314 1.370 . S
C1315 C1319 1.408 . S
C1316 C1314 1.363 . S
C1316 C1317 1.370 . S
C1316 C1320 1.524 . S
C1317 C1309 1.503 . S
C1317 C1316 1.370 . S
C1317 C1318 1.403 . S
C1318 C1317 1.403 . S
C1318 C1319 1.404 . S
C1318 C1321 1.539 . S
C1319 C1315 1.408 . S
C1319 C1318 1.404 . S
C1319 H1331 0.930 . S
C1320 C1316 1.524 . S
C1320 H1332 0.956 . S
C1320 H1333 0.961 . S
C1320 H1334 0.961 . S
C1321 C1318 1.539 . S
C1321 H1335 0.958 . S
C1321 H1336 0.961 . S
C1321 H1337 0.960 . S
H1322 C1306 0.931 . S
H1323 C1311 0.929 . S
H1324 C1312 0.960 . S
H1325 C1312 0.962 . S
H1326 C1312 0.960 . S
H1327 C1313 0.961 . S
H1328 C1313 0.961 . S
H1329 C1313 0.961 . S
H1330 C1314 0.931 . S
H1331 C1319 0.930 . S
H1332 C1320 0.956 . S
H1333 C1320 0.961 . S
H1334 C1320 0.961 . S
H1335 C1321 0.958 . S
H1336 C1321 0.961 . S
H1337 C1321 0.960 . S
C1338 C1339 1.391 . S
C1338 C1340 1.394 . S
C1338 H1354 0.931 . S
C1339 C1338 1.391 . S
C1339 C1343 1.376 . S
C1340 C1338 1.394 . S
C1340 C1341 1.369 . S
C1340 C1344 1.531 . S
C1341 C1340 1.369 . S
C1341 C1342 1.410 . S
C1341 C1349 1.503 . S
C1342 C1341 1.410 . S
C1342 C1343 1.392 . S
C1342 C1345 1.511 . S
C1343 C1339 1.376 . S
C1343 C1342 1.392 . S
C1343 H1355 0.929 . S
C1344 C1340 1.531 . S
C1344 H1356 0.960 . S
C1344 H1357 0.962 . S
C1344 H1358 0.960 . S
C1345 C1342 1.511 . S
C1345 H1359 0.961 . S
C1345 H1360 0.961 . S
C1345 H1361 0.961 . S
C1346 C1347 1.370 . S
C1346 C1348 1.363 . S
C1346 H1362 0.931 . S
C1347 C1346 1.370 . S
C1347 C1351 1.408 . S
C1348 C1346 1.363 . S
C1348 C1349 1.370 . S
C1348 C1352 1.524 . S
C1349 C1341 1.503 . S
C1349 C1348 1.370 . S
C1349 C1350 1.403 . S
C1350 C1349 1.403 . S
C1350 C1351 1.404 . S
C1350 C1353 1.539 . S
C1351 C1347 1.408 . S
C1351 C1350 1.404 . S
C1351 H1363 0.930 . S
C1352 C1348 1.524 . S
C1352 H1364 0.956 . S
C1352 H1365 0.961 . S
C1352 H1366 0.961 . S
C1353 C1350 1.539 . S
C1353 H1367 0.958 . S
C1353 H1368 0.961 . S
C1353 H1369 0.960 . S
H1354 C1338 0.931 . S
H1355 C1343 0.929 . S
H1356 C1344 0.960 . S
H1357 C1344 0.962 . S
H1358 C1344 0.960 . S
H1359 C1345 0.961 . S
H1360 C1345 0.961 . S
H1361 C1345 0.961 . S
H1362 C1346 0.931 . S
H1363 C1351 0.930 . S
H1364 C1352 0.956 . S
H1365 C1352 0.961 . S
H1366 C1352 0.961 . S
H1367 C1353 0.958 . S
H1368 C1353 0.961 . S
H1369 C1353 0.960 . S
C1370 C1371 1.391 . S
C1370 C1372 1.394 . S
C1370 H1386 0.931 . S
C1371 C1370 1.391 . S
C1371 C1375 1.376 . S
C1372 C1370 1.394 . S
C1372 C1373 1.369 . S
C1372 C1376 1.531 . S
C1373 C1372 1.369 . S
C1373 C1374 1.410 . S
C1373 C1381 1.503 . S
C1374 C1373 1.410 . S
C1374 C1375 1.392 . S
C1374 C1377 1.511 . S
C1375 C1371 1.376 . S
C1375 C1374 1.392 . S
C1375 H1387 0.929 . S
C1376 C1372 1.531 . S
C1376 H1388 0.960 . S
C1376 H1389 0.962 . S
C1376 H1390 0.960 . S
C1377 C1374 1.511 . S
C1377 H1391 0.961 . S
C1377 H1392 0.961 . S
C1377 H1393 0.961 . S
C1378 C1379 1.370 . S
C1378 C1380 1.363 . S
C1378 H1394 0.931 . S
C1379 C1378 1.370 . S
C1379 C1383 1.408 . S
C1380 C1378 1.363 . S
C1380 C1381 1.370 . S
C1380 C1384 1.524 . S
C1381 C1373 1.503 . S
C1381 C1380 1.370 . S
C1381 C1382 1.403 . S
C1382 C1381 1.403 . S
C1382 C1383 1.404 . S
C1382 C1385 1.539 . S
C1383 C1379 1.408 . S
C1383 C1382 1.404 . S
C1383 H1395 0.930 . S
C1384 C1380 1.524 . S
C1384 H1396 0.956 . S
C1384 H1397 0.961 . S
C1384 H1398 0.961 . S
C1385 C1382 1.539 . S
C1385 H1399 0.958 . S
C1385 H1400 0.961 . S
C1385 H1401 0.960 . S
H1386 C1370 0.931 . S
H1387 C1375 0.929 . S
H1388 C1376 0.960 . S
H1389 C1376 0.962 . S
H1390 C1376 0.960 . S
H1391 C1377 0.961 . S
H1392 C1377 0.961 . S
H1393 C1377 0.961 . S
H1394 C1378 0.931 . S
H1395 C1383 0.930 . S
H1396 C1384 0.956 . S
H1397 C1384 0.961 . S
H1398 C1384 0.961 . S
H1399 C1385 0.958 . S
H1400 C1385 0.961 . S
H1401 C1385 0.960 . S
C1402 C1403 1.391 . S
C1402 C1404 1.394 . S
C1402 H1418 0.931 . S
C1403 C1402 1.391 . S
C1403 C1407 1.376 . S
C1404 C1402 1.394 . S
C1404 C1405 1.369 . S
C1404 C1408 1.531 . S
C1405 C1404 1.369 . S
C1405 C1406 1.410 . S
C1405 C1413 1.503 . S
C1406 C1405 1.410 . S
C1406 C1407 1.392 . S
C1406 C1409 1.511 . S
C1407 C1403 1.376 . S
C1407 C1406 1.392 . S
C1407 H1419 0.929 . S
C1408 C1404 1.531 . S
C1408 H1420 0.960 . S
C1408 H1421 0.962 . S
C1408 H1422 0.960 . S
C1409 C1406 1.511 . S
C1409 H1423 0.961 . S
C1409 H1424 0.961 . S
C1409 H1425 0.961 . S
C1410 C1411 1.370 . S
C1410 C1412 1.363 . S
C1410 H1426 0.931 . S
C1411 C1410 1.370 . S
C1411 C1415 1.408 . S
C1412 C1410 1.363 . S
C1412 C1413 1.370 . S
C1412 C1416 1.524 . S
C1413 C1405 1.503 . S
C1413 C1412 1.370 . S
C1413 C1414 1.403 . S
C1414 C1413 1.403 . S
C1414 C1415 1.404 . S
C1414 C1417 1.539 . S
C1415 C1411 1.408 . S
C1415 C1414 1.404 . S
C1415 H1427 0.930 . S
C1416 C1412 1.524 . S
C1416 H1428 0.956 . S
C1416 H1429 0.961 . S
C1416 H1430 0.961 . S
C1417 C1414 1.539 . S
C1417 H1431 0.958 . S
C1417 H1432 0.961 . S
C1417 H1433 0.960 . S
H1418 C1402 0.931 . S
H1419 C1407 0.929 . S
H1420 C1408 0.960 . S
H1421 C1408 0.962 . S
H1422 C1408 0.960 . S
H1423 C1409 0.961 . S
H1424 C1409 0.961 . S
H1425 C1409 0.961 . S
H1426 C1410 0.931 . S
H1427 C1415 0.930 . S
H1428 C1416 0.956 . S
H1429 C1416 0.961 . S
H1430 C1416 0.961 . S
H1431 C1417 0.958 . S
H1432 C1417 0.961 . S
H1433 C1417 0.960 . S
C1434 C1435 1.391 . S
C1434 C1436 1.394 . S
C1434 H1450 0.931 . S
C1435 C1434 1.391 . S
C1435 C1439 1.376 . S
C1436 C1434 1.394 . S
C1436 C1437 1.369 . S
C1436 C1440 1.531 . S
C1437 C1436 1.369 . S
C1437 C1438 1.410 . S
C1437 C1445 1.503 . S
C1438 C1437 1.410 . S
C1438 C1439 1.392 . S
C1438 C1441 1.511 . S
C1439 C1435 1.376 . S
C1439 C1438 1.392 . S
C1439 H1451 0.929 . S
C1440 C1436 1.531 . S
C1440 H1452 0.960 . S
C1440 H1453 0.962 . S
C1440 H1454 0.960 . S
C1441 C1438 1.511 . S
C1441 H1455 0.961 . S
C1441 H1456 0.961 . S
C1441 H1457 0.961 . S
C1442 C1443 1.370 . S
C1442 C1444 1.363 . S
C1442 H1458 0.931 . S
C1443 C1442 1.370 . S
C1443 C1447 1.408 . S
C1444 C1442 1.363 . S
C1444 C1445 1.370 . S
C1444 C1448 1.524 . S
C1445 C1437 1.503 . S
C1445 C1444 1.370 . S
C1445 C1446 1.403 . S
C1446 C1445 1.403 . S
C1446 C1447 1.404 . S
C1446 C1449 1.539 . S
C1447 C1443 1.408 . S
C1447 C1446 1.404 . S
C1447 H1459 0.930 . S
C1448 C1444 1.524 . S
C1448 H1460 0.956 . S
C1448 H1461 0.961 . S
C1448 H1462 0.961 . S
C1449 C1446 1.539 . S
C1449 H1463 0.958 . S
C1449 H1464 0.961 . S
C1449 H1465 0.960 . S
H1450 C1434 0.931 . S
H1451 C1439 0.929 . S
H1452 C1440 0.960 . S
H1453 C1440 0.962 . S
H1454 C1440 0.960 . S
H1455 C1441 0.961 . S
H1456 C1441 0.961 . S
H1457 C1441 0.961 . S
H1458 C1442 0.931 . S
H1459 C1447 0.930 . S
H1460 C1448 0.956 . S
H1461 C1448 0.961 . S
H1462 C1448 0.961 . S
H1463 C1449 0.958 . S
H1464 C1449 0.961 . S
H1465 C1449 0.960 . S
C1466 C1467 1.391 . S
C1466 C1468 1.394 . S
C1466 H1482 0.931 . S
C1467 C1466 1.391 . S
C1467 C1471 1.376 . S
C1468 C1466 1.394 . S
C1468 C1469 1.369 1_554 S
C1468 C1472 1.531 1_554 S
C1469 C1468 1.369 1_556 S
C1469 C1470 1.410 1_556 S
C1469 C1477 1.503 . S
C1470 C1469 1.410 1_554 S
C1470 C1471 1.392 . S
C1470 C1473 1.511 1_554 S
C1471 C1467 1.376 . S
C1471 C1470 1.392 . S
C1471 H1483 0.929 . S
C1472 C1468 1.531 1_556 S
C1472 H1484 0.960 . S
C1472 H1485 0.962 . S
C1472 H1486 0.960 1_556 S
C1473 C1470 1.511 1_556 S
C1473 H1487 0.961 . S
C1473 H1488 0.961 . S
C1473 H1489 0.979 . S
C1474 C1475 1.370 . S
C1474 C1476 1.363 . S
C1474 H1490 0.931 . S
C1475 C1474 1.370 . S
C1475 C1479 1.408 . S
C1476 C1474 1.363 . S
C1476 C1477 1.370 . S
C1476 C1480 1.524 . S
C1477 C1469 1.503 . S
C1477 C1476 1.370 . S
C1477 C1478 1.403 . S
C1478 C1477 1.403 . S
C1478 C1479 1.404 . S
C1478 C1481 1.539 . S
C1479 C1475 1.408 . S
C1479 C1478 1.404 . S
C1479 H1491 0.930 . S
C1480 C1476 1.524 . S
C1480 H1492 0.956 . S
C1480 H1493 0.961 . S
C1480 H1494 0.961 . S
C1481 C1478 1.539 . S
C1481 H1495 0.971 . S
C1481 H1496 0.961 . S
C1481 H1497 0.960 1_556 S
H1482 C1466 0.931 . S
H1483 C1471 0.929 . S
H1484 C1472 0.960 . S
H1485 C1472 0.962 . S
H1486 C1472 0.960 1_554 S
H1487 C1473 0.961 . S
H1488 C1473 0.961 . S
H1489 C1473 0.979 . S
H1490 C1474 0.931 . S
H1491 C1479 0.930 . S
H1492 C1480 0.956 . S
H1493 C1480 0.961 . S
H1494 C1480 0.961 . S
H1495 C1481 0.971 . S
H1496 C1481 0.961 . S
H1497 C1481 0.960 1_554 S
C1498 C1499 1.391 . S
C1498 C1500 1.394 . S
C1498 H1514 0.931 . S
C1499 C1498 1.391 . S
C1499 C1503 1.376 . S
C1500 C1498 1.394 . S
C1500 C1501 1.369 . S
C1500 C1504 1.531 . S
C1501 C1500 1.369 . S
C1501 C1502 1.410 . S
C1501 C1509 1.503 . S
C1502 C1501 1.410 . S
C1502 C1503 1.392 . S
C1502 C1505 1.511 . S
C1503 C1499 1.376 . S
C1503 C1502 1.392 . S
C1503 H1515 0.929 . S
C1504 C1500 1.531 . S
C1504 H1516 0.960 . S
C1504 H1517 0.962 . S
C1504 H1518 0.960 . S
C1505 C1502 1.511 . S
C1505 H1519 0.961 . S
C1505 H1520 0.961 . S
C1505 H1521 0.961 . S
C1506 C1507 1.370 . S
C1506 C1508 1.363 . S
C1506 H1522 0.931 . S
C1507 C1506 1.370 . S
C1507 C1511 1.408 . S
C1508 C1506 1.363 . S
C1508 C1509 1.370 . S
C1508 C1512 1.524 . S
C1509 C1501 1.503 . S
C1509 C1508 1.370 . S
C1509 C1510 1.403 . S
C1510 C1509 1.403 . S
C1510 C1511 1.404 . S
C1510 C1513 1.539 . S
C1511 C1507 1.408 . S
C1511 C1510 1.404 . S
C1511 H1523 0.930 . S
C1512 C1508 1.524 . S
C1512 H1524 0.956 . S
C1512 H1525 0.961 . S
C1512 H1526 0.961 . S
C1513 C1510 1.539 . S
C1513 H1527 0.958 . S
C1513 H1528 0.961 . S
C1513 H1529 0.960 . S
H1514 C1498 0.931 . S
H1515 C1503 0.929 . S
H1516 C1504 0.960 . S
H1517 C1504 0.962 . S
H1518 C1504 0.960 . S
H1519 C1505 0.961 . S
H1520 C1505 0.961 . S
H1521 C1505 0.961 . S
H1522 C1506 0.931 . S
H1523 C1511 0.930 . S
H1524 C1512 0.956 . S
H1525 C1512 0.961 . S
H1526 C1512 0.961 . S
H1527 C1513 0.958 . S
H1528 C1513 0.961 . S
H1529 C1513 0.960 . S
C771 C759 1.737 . S
C763 C1 1.271 . S
C795 C169 1.446 . S
C803 C684 1.630 . S
C827 C283 1.614 . S
C835 C707 1.876 . S
C859 C397 1.060 . S
C867 C720 1.413 . S
C899 C723 1.498 . S
C891 C457 1.210 . S
C923 C571 1.114 . S
C931 C736 1.323 . S
C955 C115 1.205 . S
C963 C697 1.432 . S
C987 C229 1.080 . S
C995 C710 1.538 . S
C1019 C343 1.078 . S
C1027 C733 1.287 . S
C1059 C746 1.757 . S
C1051 C511 1.548 . S
C1091 C749 1.600 . S
C1083 C625 1.411 . S
C1123 C694 1.862 . S
C1115 C55 1.552 . S
C1147 C29 1.037 . S
C1155 C705 1.377 . S
C1179 C125 0.997 . S
C1187 C718 1.455 . S
C1219 C728 1.404 . S
C1211 C239 1.008 . S
C1243 C353 0.816 . S
C1251 C741 1.372 . S
C1283 C757 1.355 . S
C1275 C485 1.138 . S
C1315 C689 1.352 . S
C1307 C599 1.133 . S
C1347 C754 1.365 . S
C1339 C143 1.193 . S
C1371 C257 1.065 . S
C1379 C692 1.423 . S
C1411 C702 1.296 . S
C1403 C371 1.162 . S
C1435 C467 0.833 . S
C1443 C715 1.420 . S
C1467 C581 0.954 . S
C1475 C731 1.398 . S
C1499 C11 1.003 . S
C1507 C744 1.465 . S
