# Generated by pormake.
# Topology cml, (3,6)-cn, num edge types: 1
# Building blocks:
#     Node 0, Type 0, BuildingBlock: ESEHIV_clean_linker_0, # of connection points: 3
#     Node 1, Type 0, BuildingBlock: ESEHIV_clean_linker_0, # of connection points: 3
#     Node 2, Type 0, BuildingBlock: ESEHIV_clean_linker_0, # of connection points: 3
#     Node 3, Type 0, BuildingBlock: ESEHIV_clean_linker_0, # of connection points: 3
#     Node 4, Type 0, BuildingBlock: ESEHIV_clean_linker_0, # of connection points: 3
#     Node 5, Type 0, BuildingBlock: ESEHIV_clean_linker_0, # of connection points: 3
#     Node 6, Type 0, BuildingBlock: ESEHIV_clean_linker_0, # of connection points: 3
#     Node 7, Type 0, BuildingBlock: ESEHIV_clean_linker_0, # of connection points: 3
#     Node 8, Type 1, BuildingBlock: IZENUY_clean_sbu_0, # of connection points: 6
#     Node 9, Type 1, BuildingBlock: IZENUY_clean_sbu_0, # of connection points: 6
#     Node 10, Type 1, BuildingBlock: IZENUY_clean_sbu_0, # of connection points: 6
#     Node 11, Type 1, BuildingBlock: IZENUY_clean_sbu_0, # of connection points: 6
#     Edge 12, Type (0, 1), BuildingBlock: EZIPEK_clean_linker_0, # of connection points: 2
#     Edge 13, Type (0, 1), BuildingBlock: EZIPEK_clean_linker_0, # of connection points: 2
#     Edge 14, Type (0, 1), BuildingBlock: EZIPEK_clean_linker_0, # of connection points: 2
#     Edge 15, Type (0, 1), BuildingBlock: EZIPEK_clean_linker_0, # of connection points: 2
#     Edge 16, Type (0, 1), BuildingBlock: EZIPEK_clean_linker_0, # of connection points: 2
#     Edge 17, Type (0, 1), BuildingBlock: EZIPEK_clean_linker_0, # of connection points: 2
#     Edge 18, Type (0, 1), BuildingBlock: EZIPEK_clean_linker_0, # of connection points: 2
#     Edge 19, Type (0, 1), BuildingBlock: EZIPEK_clean_linker_0, # of connection points: 2
#     Edge 20, Type (0, 1), BuildingBlock: EZIPEK_clean_linker_0, # of connection points: 2
#     Edge 21, Type (0, 1), BuildingBlock: EZIPEK_clean_linker_0, # of connection points: 2
#     Edge 22, Type (0, 1), BuildingBlock: EZIPEK_clean_linker_0, # of connection points: 2
#     Edge 23, Type (0, 1), BuildingBlock: EZIPEK_clean_linker_0, # of connection points: 2
#     Edge 24, Type (0, 1), BuildingBlock: EZIPEK_clean_linker_0, # of connection points: 2
#     Edge 25, Type (0, 1), BuildingBlock: EZIPEK_clean_linker_0, # of connection points: 2
#     Edge 26, Type (0, 1), BuildingBlock: EZIPEK_clean_linker_0, # of connection points: 2
#     Edge 27, Type (0, 1), BuildingBlock: EZIPEK_clean_linker_0, # of connection points: 2
#     Edge 28, Type (0, 1), BuildingBlock: EZIPEK_clean_linker_0, # of connection points: 2
#     Edge 29, Type (0, 1), BuildingBlock: EZIPEK_clean_linker_0, # of connection points: 2
#     Edge 30, Type (0, 1), BuildingBlock: EZIPEK_clean_linker_0, # of connection points: 2
#     Edge 31, Type (0, 1), BuildingBlock: EZIPEK_clean_linker_0, # of connection points: 2
#     Edge 32, Type (0, 1), BuildingBlock: EZIPEK_clean_linker_0, # of connection points: 2
#     Edge 33, Type (0, 1), BuildingBlock: EZIPEK_clean_linker_0, # of connection points: 2
#     Edge 34, Type (0, 1), BuildingBlock: EZIPEK_clean_linker_0, # of connection points: 2
#     Edge 35, Type (0, 1), BuildingBlock: EZIPEK_clean_linker_0, # of connection points: 2
# Relax obj value: 0.055
# Max RMSD: 0.070
# Mean RMSD: 0.067
data_MOF--net-cml--node1-IZENUY_clean_sbu_0--node2-ESEHIV_clean_linker_0--edge1-EZIPEK_clean_linker_0
_symmetry_space_group_name_H-M    P1
_symmetry_Int_Tables_number       1
_symmetry_cell_setting            triclinic
loop_
_symmetry_equiv_pos_as_xyz
'x, y, z'
_cell_length_a     24.046757
_cell_length_b     27.561101
_cell_length_c     25.596326
_cell_angle_alpha  89.955883
_cell_angle_beta   89.899607
_cell_angle_gamma 90.117125
loop_
_atom_site_label
_atom_site_type_symbol
_atom_site_fract_x
_atom_site_fract_y
_atom_site_fract_z
_atom_type_partial_charge
H0 H 0.35285 0.43913 0.04913 0.0
H1 H 0.23885 0.40196 0.9263 0.0
H2 H 0.24304 0.31694 0.06763 0.0
C3 C 0.31888 0.41694 0.0347 0.0
C4 C 0.29912 0.37814 0.06497 0.0
C5 C 0.29741 0.42565 0.98478 0.0
C6 C 0.25484 0.39589 0.96533 0.0
C7 C 0.23516 0.35663 0.99514 0.0
C8 C 0.25706 0.34801 0.04517 0.0
H9 H 0.64543 0.58594 0.53685 0.0
H10 H 0.7642 0.6248 0.41871 0.0
H11 H 0.7674 0.69704 0.56787 0.0
C12 C 0.68045 0.608 0.52442 0.0
C13 C 0.70377 0.64199 0.55901 0.0
C14 C 0.70321 0.60055 0.47471 0.0
C15 C 0.74746 0.62968 0.45771 0.0
C16 C 0.7692 0.66588 0.49044 0.0
C17 C 0.74897 0.6705 0.54187 0.0
H18 H 0.64149 0.42215 0.05835 0.0
H19 H 0.76614 0.31105 0.06487 0.0
H20 H 0.75942 0.40735 0.9325 0.0
C21 C 0.67703 0.40415 0.04089 0.0
C22 C 0.69806 0.42043 0.99271 0.0
C23 C 0.70236 0.36577 0.06761 0.0
C24 C 0.74746 0.34162 0.04486 0.0
C25 C 0.76667 0.35536 0.99517 0.0
C26 C 0.74345 0.39595 0.9702 0.0
H27 H 0.35648 0.58329 0.55108 0.0
H28 H 0.24924 0.62295 0.42367 0.0
H29 H 0.24644 0.70494 0.56697 0.0
C30 C 0.32324 0.60556 0.53551 0.0
C31 C 0.30291 0.64431 0.56516 0.0
C32 C 0.30423 0.59762 0.48445 0.0
C33 C 0.26308 0.62804 0.46358 0.0
C34 C 0.24147 0.6663 0.4937 0.0
C35 C 0.26155 0.67438 0.54443 0.0
H36 H 0.84368 0.94367 0.06264 0.0
H37 H 0.73224 0.91231 0.93641 0.0
H38 H 0.7507 0.81107 0.06421 0.0
C39 C 0.81134 0.92106 0.0458 0.0
C40 C 0.7964 0.87786 0.07073 0.0
C41 C 0.79032 0.93237 0.99634 0.0
C42 C 0.74904 0.90284 0.97433 0.0
C43 C 0.73396 0.85862 0.99843 0.0
C44 C 0.75909 0.84601 0.04638 0.0
H45 H 0.14677 0.0849 0.54813 0.0
H46 H 0.25973 0.12506 0.4251 0.0
H47 H 0.25675 0.20685 0.56849 0.0
C48 C 0.17991 0.10801 0.53358 0.0
C49 C 0.19938 0.14659 0.56425 0.0
C50 C 0.20199 0.09992 0.48364 0.0
C51 C 0.24351 0.13075 0.46417 0.0
C52 C 0.26347 0.1694 0.49456 0.0
C53 C 0.24186 0.17681 0.54501 0.0
H54 H 0.14557 0.92817 0.05127 0.0
H55 H 0.26315 0.81088 0.0601 0.0
H56 H 0.25275 0.89781 0.92061 0.0
C57 C 0.17873 0.90703 0.03382 0.0
C58 C 0.19737 0.9182 0.98325 0.0
C59 C 0.20211 0.86817 0.06161 0.0
C60 C 0.24494 0.8409 0.03879 0.0
C61 C 0.26274 0.85118 0.98773 0.0
C62 C 0.23909 0.88994 0.96011 0.0
H63 H 0.86205 0.08684 0.5433 0.0
H64 H 0.75138 0.12685 0.41927 0.0
H65 H 0.73691 0.19549 0.57004 0.0
C66 C 0.82704 0.10809 0.52959 0.0
C67 C 0.8019 0.14185 0.56314 0.0
C68 C 0.80789 0.10124 0.47852 0.0
C69 C 0.7647 0.1304 0.45952 0.0
C70 C 0.73961 0.16497 0.49234 0.0
C71 C 0.75695 0.16939 0.54458 0.0
Fe72 Fe 0.00768 0.80707 0.31824 0.0
Fe73 Fe 0.00784 0.87445 0.4145 0.0
O74 O 0.00933 0.86638 0.34564 0.0
Fe75 Fe 0.01329 0.91779 0.30393 0.0
O76 O 0.94803 0.90205 0.27237 0.0
O77 O 0.96817 0.82497 0.25974 0.0
O78 O 0.94159 0.79314 0.34933 0.0
C79 C 0.93278 0.79541 0.39787 0.0
C80 C 0.08351 0.84971 0.25334 0.0
O81 O 0.96281 0.82151 0.42731 0.0
C82 C 0.08533 0.94619 0.37996 0.0
O83 O 0.04686 0.77852 0.37133 0.0
O84 O 0.0705 0.83874 0.42318 0.0
O85 O 0.05405 0.88763 0.253 0.0
O86 O 0.07399 0.81594 0.28528 0.0
C87 C 0.94116 0.9502 0.38517 0.0
O88 O 0.05286 0.92848 0.41411 0.0
O89 O 0.07895 0.93672 0.33225 0.0
C90 C 0.07766 0.79627 0.40637 0.0
O91 O 0.94515 0.91149 0.41134 0.0
O92 O 0.97349 0.95839 0.34708 0.0
C93 C 0.93903 0.8621 0.24976 0.0
Fe94 Fe 1.00181 0.14992 0.91869 0.0
Fe95 Fe 1.00111 0.10033 0.81177 0.0
O96 O 1.00157 0.15393 0.84964 0.0
Fe97 Fe 1.00081 0.21115 0.81769 0.0
O98 O 0.04222 0.24242 0.86802 0.0
O99 O 0.0656 0.18472 0.92334 0.0
O100 O 0.0453 0.0948 0.92032 0.0
C101 C 0.07536 0.074 0.88612 0.0
C102 C 0.92837 0.22884 0.89774 0.0
O103 O 0.06752 0.08123 0.83805 0.0
C104 C 0.9275 0.15327 0.75587 0.0
O105 O 0.93768 0.11466 0.9199 0.0
O106 O 0.96274 0.06315 0.85923 0.0
O107 O 0.93612 0.22826 0.84902 0.0
O108 O 0.95856 0.20429 0.92854 0.0
C109 C 0.07202 0.16292 0.75378 0.0
O110 O 0.93428 0.11657 0.78433 0.0
O111 O 0.95921 0.18981 0.76133 0.0
C112 C 0.93101 0.07495 0.89641 0.0
O113 O 0.03988 0.12657 0.75637 0.0
O114 O 0.06576 0.19853 0.78403 0.0
C115 C 0.07287 0.2264 0.90429 0.0
Fe116 Fe 0.50265 0.30558 0.31973 0.0
Fe117 Fe 0.50568 0.37335 0.41525 0.0
O118 O 0.50521 0.36512 0.34646 0.0
Fe119 Fe 0.50806 0.41612 0.30414 0.0
O120 O 0.44274 0.39969 0.2732 0.0
O121 O 0.46361 0.32298 0.26059 0.0
O122 O 0.43647 0.2931 0.35109 0.0
C123 C 0.42863 0.2956 0.39977 0.0
C124 C 0.57906 0.34742 0.25522 0.0
O125 O 0.46045 0.32055 0.42884 0.0
C126 C 0.58138 0.44589 0.37852 0.0
O127 O 0.54141 0.27683 0.37316 0.0
O128 O 0.56853 0.33759 0.42242 0.0
O129 O 0.54929 0.38529 0.25377 0.0
O130 O 0.56899 0.31376 0.28711 0.0
C131 C 0.43749 0.44854 0.38696 0.0
O132 O 0.55089 0.42733 0.41376 0.0
O133 O 0.57359 0.43638 0.33111 0.0
C134 C 0.57407 0.29462 0.40665 0.0
O135 O 0.44313 0.41038 0.41369 0.0
O136 O 0.46798 0.4566 0.34746 0.0
C137 C 0.43457 0.36001 0.24993 0.0
Fe138 Fe 0.49941 0.65141 0.91515 0.0
Fe139 Fe 0.50344 0.59907 0.81018 0.0
O140 O 0.5023 0.65332 0.84642 0.0
Fe141 Fe 0.50696 0.70982 0.81418 0.0
O142 O 0.57247 0.72314 0.84712 0.0
O143 O 0.5401 0.70721 0.92465 0.0
O144 O 0.56459 0.61805 0.91823 0.0
C145 C 0.57135 0.57687 0.89785 0.0
C146 C 0.43037 0.72709 0.89647 0.0
O147 O 0.54105 0.56386 0.85994 0.0
C148 C 0.43461 0.66238 0.75069 0.0
O149 O 0.45753 0.59524 0.91818 0.0
O150 O 0.43676 0.57988 0.83614 0.0
O151 O 0.46553 0.74283 0.86349 0.0
O152 O 0.43477 0.68509 0.9157 0.0
C153 C 0.57858 0.65049 0.75315 0.0
O154 O 0.46502 0.62489 0.75432 0.0
O155 O 0.44239 0.69886 0.7796 0.0
C156 C 0.42776 0.57402 0.88425 0.0
O157 O 0.57085 0.61442 0.78235 0.0
O158 O 0.5479 0.68743 0.75821 0.0
C159 C 0.57669 0.72687 0.89605 0.0
C160 C 0.21192 0.28293 0.94167 0.0
C161 C 0.19372 0.32273 0.97247 0.0
C162 C 0.09708 0.29609 0.96317 0.0
C163 C 0.11465 0.25899 0.9284 0.0
N164 N 0.18757 0.21958 0.87978 0.0
N165 N 0.11933 0.37154 1.00716 0.0
C166 C 0.17183 0.25298 0.91641 0.0
C167 C 0.13635 0.33059 0.98163 0.0
N168 N 0.26752 0.27329 0.93748 0.0
N169 N 0.04331 0.29708 0.98045 0.0
H170 H 0.147 0.39693 0.02264 0.0
H171 H 0.07792 0.3823 0.00959 0.0
H172 H 0.0137 0.27181 0.96874 0.0
H173 H 0.02918 0.32003 0.00988 0.0
H174 H 0.28338 0.24193 0.92048 0.0
H175 H 0.29807 0.29506 0.95444 0.0
H176 H 0.22778 0.2169 0.86497 0.0
H177 H 0.15942 0.19646 0.86126 0.0
C178 C 0.79811 0.749 0.45945 0.0
C179 C 0.81205 0.69984 0.46955 0.0
C180 C 0.90263 0.7121 0.42745 0.0
C181 C 0.89089 0.76243 0.42199 0.0
N182 N 0.83119 0.83031 0.44134 0.0
N183 N 0.88145 0.63703 0.47284 0.0
C184 C 0.83985 0.78138 0.44089 0.0
C185 C 0.86552 0.6821 0.45636 0.0
N186 N 0.74437 0.76428 0.46497 0.0
N187 N 0.94862 0.69256 0.40429 0.0
H188 H 0.85552 0.61431 0.49463 0.0
H189 H 0.92196 0.6241 0.46935 0.0
H190 H 0.97724 0.71302 0.38319 0.0
H191 H 0.95596 0.65538 0.40223 0.0
H192 H 0.73063 0.79828 0.45285 0.0
H193 H 0.71219 0.74144 0.477 0.0
H194 H 0.79736 0.84657 0.45977 0.0
H195 H 0.86027 0.85494 0.42699 0.0
C196 C 0.79236 0.27622 0.95374 0.0
C197 C 0.80763 0.32429 0.96746 0.0
C198 C 0.89861 0.31222 0.92634 0.0
C199 C 0.88615 0.26214 0.91997 0.0
N200 N 0.82381 0.19495 0.93499 0.0
N201 N 0.8783 0.38623 0.97371 0.0
C202 C 0.8338 0.24367 0.93597 0.0
C203 C 0.86158 0.34196 0.95549 0.0
N204 N 0.73782 0.2622 0.95557 0.0
N205 N 0.94527 0.3316 0.90406 0.0
H206 H 0.85254 0.40877 0.99572 0.0
H207 H 0.91914 0.39866 0.971 0.0
H208 H 0.97341 0.31106 0.8825 0.0
H209 H 0.95351 0.36871 0.9031 0.0
H210 H 0.72373 0.22896 0.94139 0.0
H211 H 0.70578 0.28582 0.96582 0.0
H212 H 0.78861 0.17899 0.95152 0.0
H213 H 0.85312 0.17023 0.92164 0.0
C214 C 0.21735 0.73981 0.44037 0.0
C215 C 0.19965 0.69984 0.47128 0.0
C216 C 0.10306 0.72742 0.4655 0.0
C217 C 0.12008 0.7648 0.43077 0.0
N218 N 0.19172 0.80354 0.37953 0.0
N219 N 0.12583 0.65136 0.50808 0.0
C220 C 0.17685 0.77032 0.41677 0.0
C221 C 0.14249 0.69244 0.48239 0.0
N222 N 0.2729 0.74916 0.43456 0.0
N223 N 0.0496 0.72641 0.48371 0.0
H224 H 0.15368 0.62537 0.52188 0.0
H225 H 0.08439 0.64106 0.51223 0.0
H226 H 0.0199 0.75192 0.47277 0.0
H227 H 0.03581 0.7031 0.51303 0.0
H228 H 0.28849 0.78069 0.41752 0.0
H229 H 0.30377 0.72696 0.45021 0.0
H230 H 0.23133 0.80565 0.36322 0.0
H231 H 0.16332 0.82705 0.36207 0.0
C232 C 0.69974 0.8144 0.91737 0.0
C233 C 0.69513 0.82395 0.97175 0.0
C234 C 0.62613 0.75934 0.9765 0.0
C235 C 0.62005 0.759 0.92096 0.0
N236 N 0.64449 0.80273 0.84066 0.0
N237 N 0.63846 0.81323 0.04942 0.0
C238 C 0.65489 0.79115 0.89156 0.0
C239 C 0.65342 0.799 1.00034 0.0
N240 N 0.74696 0.82576 0.89035 0.0
N241 N 0.60967 0.72113 1.00681 0.0
H242 H 0.65383 0.84472 0.0668 0.0
H243 H 0.60575 0.79676 0.06964 0.0
H244 H 0.59903 0.68741 0.99141 0.0
H245 H 0.61595 0.72063 0.04714 0.0
H246 H 0.75224 0.81638 0.85116 0.0
H247 H 0.78289 0.83848 0.90859 0.0
H248 H 0.669 0.82764 0.82022 0.0
H249 H 0.60751 0.79477 0.82159 0.0
C250 C 0.35988 0.18428 0.4604 0.0
C251 C 0.30635 0.20259 0.47246 0.0
C252 C 0.33525 0.28328 0.44228 0.0
C253 C 0.38627 0.26355 0.42434 0.0
N254 N 0.44282 0.1927 0.40783 0.0
N255 N 0.23925 0.2673 0.46521 0.0
C256 C 0.3973 0.21325 0.43079 0.0
C257 C 0.29293 0.25158 0.46092 0.0
N258 N 0.37568 0.13978 0.47868 0.0
N259 N 0.32721 0.33228 0.44178 0.0
H260 H 0.20668 0.24482 0.47705 0.0
H261 H 0.22607 0.30118 0.45215 0.0
H262 H 0.35694 0.35638 0.42757 0.0
H263 H 0.29326 0.34911 0.45939 0.0
H264 H 0.41622 0.12678 0.47582 0.0
H265 H 0.34975 0.11785 0.50139 0.0
H266 H 0.44956 0.15539 0.40674 0.0
H267 H 0.47136 0.21234 0.38575 0.0
C268 C 0.28941 0.77913 0.93338 0.0
C269 C 0.30569 0.82047 0.96268 0.0
C270 C 0.40386 0.80029 0.94955 0.0
C271 C 0.3877 0.76036 0.91781 0.0
N272 N 0.31624 0.71688 0.8713 0.0
N273 N 0.37712 0.87536 0.99211 0.0
C274 C 0.33072 0.75114 0.90747 0.0
C275 C 0.36259 0.83256 0.96872 0.0
N276 N 0.23455 0.76614 0.9312 0.0
N277 N 0.45835 0.80621 0.96332 0.0
H278 H 0.34808 0.89923 1.00804 0.0
H279 H 0.41749 0.88908 0.9923 0.0
H280 H 0.49007 0.78404 0.94959 0.0
H281 H 0.47181 0.83083 0.99143 0.0
H282 H 0.22061 0.7334 0.91572 0.0
H283 H 0.20292 0.78669 0.94817 0.0
H284 H 0.2758 0.71174 0.85794 0.0
H285 H 0.34547 0.6961 0.85116 0.0
C286 C 0.71428 0.23914 0.44068 0.0
C287 C 0.69714 0.19868 0.47114 0.0
C288 C 0.60021 0.22539 0.4653 0.0
C289 C 0.61672 0.26294 0.43054 0.0
N290 N 0.68799 0.30163 0.37877 0.0
N291 N 0.62378 0.14904 0.50692 0.0
C292 C 0.67343 0.26888 0.41657 0.0
C293 C 0.64003 0.1906 0.48195 0.0
N294 N 0.76962 0.24984 0.4359 0.0
N295 N 0.54688 0.224 0.4838 0.0
H296 H 0.65191 0.12305 0.5202 0.0
H297 H 0.5824 0.1384 0.5108 0.0
H298 H 0.51697 0.24945 0.4732 0.0
H299 H 0.53352 0.20047 0.5131 0.0
H300 H 0.78445 0.28177 0.41911 0.0
H301 H 0.80085 0.22867 0.45254 0.0
H302 H 0.7277 0.30388 0.36265 0.0
H303 H 0.65924 0.32418 0.36041 0.0
C304 C 0.3109 0.51309 0.95974 0.0
C305 C 0.32388 0.46347 0.95163 0.0
C306 C 0.40058 0.48609 0.89315 0.0
C307 C 0.38814 0.53591 0.9018 0.0
N308 N 0.32492 0.59689 0.9331 0.0
N309 N 0.37353 0.40183 0.90379 0.0
C310 C 0.34117 0.5494 0.93204 0.0
C311 C 0.36612 0.44975 0.91585 0.0
N312 N 0.27059 0.52539 0.99505 0.0
N313 N 0.44725 0.47333 0.86587 0.0
H314 H 0.35148 0.3738 0.92172 0.0
H315 H 0.39864 0.38978 0.87331 0.0
H316 H 0.472 0.49806 0.84582 0.0
H317 H 0.4634 0.43833 0.86507 0.0
H318 H 0.26344 0.56071 1.00769 0.0
H319 H 0.24569 0.49968 0.01384 0.0
H320 H 0.28827 0.60896 0.95035 0.0
H321 H 0.34595 0.62395 0.91253 0.0
C322 C 0.64447 0.57152 0.39981 0.0
C323 C 0.68092 0.56068 0.44166 0.0
C324 C 0.66429 0.47351 0.42928 0.0
C325 C 0.62143 0.48467 0.39334 0.0
N326 N 0.57104 0.54412 0.34228 0.0
N327 N 0.72938 0.50228 0.49476 0.0
C328 C 0.61259 0.53352 0.3769 0.0
C329 C 0.6924 0.51181 0.45555 0.0
N330 N 0.63974 0.61832 0.38252 0.0
N331 N 0.67887 0.42612 0.43703 0.0
H332 H 0.75406 0.52912 0.51177 0.0
H333 H 0.73455 0.46829 0.51175 0.0
H334 H 0.65967 0.39761 0.41723 0.0
H335 H 0.71276 0.41505 0.45921 0.0
H336 H 0.61952 0.62813 0.34821 0.0
H337 H 0.65936 0.6476 0.40052 0.0
H338 H 0.55707 0.57906 0.33448 0.0
H339 H 0.5474 0.51799 0.32322 0.0
C340 C 0.66166 0.5061 0.99524 0.0
C341 C 0.67169 0.46302 0.96642 0.0
C342 C 0.63236 0.50287 0.88973 0.0
C343 C 0.61017 0.54055 0.92157 0.0
N344 N 0.59408 0.56842 0.01084 0.0
N345 N 0.65307 0.41745 0.88736 0.0
C346 C 0.62238 0.54002 0.97612 0.0
C347 C 0.65343 0.46044 0.91382 0.0
N348 N 0.68952 0.5149 0.04069 0.0
N349 N 0.63515 0.50781 0.83673 0.0
H350 H 0.66375 0.38449 0.90455 0.0
H351 H 0.63577 0.414 0.8502 0.0
H352 H 0.62566 0.54018 0.81774 0.0
H353 H 0.65425 0.4821 0.81283 0.0
H354 H 0.6861 0.54766 0.06081 0.0
H355 H 0.72066 0.49199 0.05462 0.0
H356 H 0.60001 0.56574 0.0511 0.0
H357 H 0.55959 0.58923 1.00118 0.0
C358 C 0.39066 0.57136 0.43931 0.0
C359 C 0.33427 0.56194 0.45131 0.0
C360 C 0.34265 0.4818 0.41034 0.0
C361 C 0.4012 0.48816 0.40723 0.0
N362 N 0.48152 0.53655 0.43002 0.0
N363 N 0.25642 0.50671 0.45184 0.0
C364 C 0.42539 0.53249 0.42426 0.0
C365 C 0.30992 0.51681 0.43749 0.0
N366 N 0.41117 0.61755 0.44253 0.0
N367 N 0.31824 0.44319 0.3861 0.0
H368 H 0.23117 0.53181 0.47097 0.0
H369 H 0.23849 0.47248 0.44788 0.0
H370 H 0.34116 0.41792 0.36485 0.0
H371 H 0.27534 0.43884 0.38299 0.0
H372 H 0.45088 0.62705 0.42964 0.0
H373 H 0.38645 0.64717 0.45268 0.0
H374 H 0.50081 0.56643 0.4472 0.0
H375 H 0.50815 0.50772 0.42348 0.0
C376 C 0.80001 0.01264 0.94819 0.0
C377 C 0.8222 0.96726 0.96362 0.0
C378 C 0.91491 0.9933 0.93714 0.0
C379 C 0.89286 0.03777 0.91857 0.0
N380 N 0.81185 0.08272 0.89183 0.0
N381 N 0.89623 0.90884 0.95435 0.0
C382 C 0.8345 0.04555 0.9198 0.0
C383 C 0.8782 0.95577 0.95188 0.0
N384 N 0.74686 0.02475 0.96151 0.0
N385 N 0.97077 0.98756 0.94375 0.0
H386 H 0.86957 0.87995 0.96268 0.0
H387 H 0.93572 0.89822 0.94203 0.0
H388 H 0.99892 0.01547 0.93724 0.0
H389 H 0.98823 0.95722 0.96164 0.0
H390 H 0.73055 0.05934 0.95571 0.0
H391 H 0.72052 1.00109 0.98163 0.0
H392 H 0.76913 0.08782 0.88805 0.0
H393 H 0.83586 0.10514 0.86784 0.0
C394 C 0.1396 0.07161 0.41143 0.0
C395 C 0.17914 0.06044 0.45059 0.0
C396 C 0.16562 0.97343 0.43511 0.0
C397 C 0.12516 0.98456 0.39657 0.0
N398 N 0.08495 0.0441 0.33802 0.0
N399 N 0.23922 1.00245 0.49224 0.0
C400 C 0.11638 0.03355 0.38101 0.0
C401 C 0.19521 0.01176 0.46001 0.0
N402 N 0.12154 0.11835 0.4055 0.0
N403 N 0.175 0.9261 0.44833 0.0
H404 H 0.26143 0.02985 0.51112 0.0
H405 H 0.25657 0.96822 0.49728 0.0
H406 H 0.15781 0.89725 0.42754 0.0
H407 H 0.19838 0.91531 0.48046 0.0
H408 H 0.08739 0.1279 0.38278 0.0
H409 H 0.13776 0.14747 0.42658 0.0
H410 H 0.08274 0.07865 0.32167 0.0
H411 H 0.06446 0.01818 0.31571 0.0
C412 C 0.18853 1.00668 0.96096 0.0
C413 C 0.17074 0.95809 0.95341 0.0
C414 C 0.10065 0.9853 0.89048 0.0
C415 C 0.11323 0.03443 0.90333 0.0
N416 N 0.16954 0.0926 0.94957 0.0
N417 N 0.10711 0.90059 0.91533 0.0
C418 C 0.15755 0.04528 0.9381 0.0
C419 C 0.12649 0.9472 0.91889 0.0
N420 N 0.23558 0.01565 0.98934 0.0
N421 N 0.06363 0.97467 0.85161 0.0
H422 H 0.12566 0.87137 0.93445 0.0
H423 H 0.07016 0.89118 0.89674 0.0
H424 H 0.0407 1.00052 0.8315 0.0
H425 H 0.0584 0.93997 0.83631 0.0
H426 H 0.25418 0.04963 0.99242 0.0
H427 H 0.25863 0.98818 1.00708 0.0
H428 H 0.19632 0.10334 0.97929 0.0
H429 H 0.15106 0.12164 0.93011 0.0
C430 C 0.8134 0.01949 0.4339 0.0
C431 C 0.83727 0.0655 0.44493 0.0
C432 C 0.92844 0.03565 0.41848 0.0
C433 C 0.90465 0.99022 0.40437 0.0
N434 N 0.82192 0.94373 0.3864 0.0
N435 N 0.91334 0.12132 0.43317 0.0
C436 C 0.84622 0.98355 0.40836 0.0
C437 C 0.89337 0.07487 0.43192 0.0
N438 N 0.76032 1.0094 0.44959 0.0
N439 N 0.9846 0.04052 0.42331 0.0
H440 H 0.88834 0.15095 0.44272 0.0
H441 H 0.95275 0.1308 0.41948 0.0
H442 H 0.01144 0.01154 0.4185 0.0
H443 H 0.00377 0.0714 0.43842 0.0
H444 H 0.743 0.97476 0.44792 0.0
H445 H 0.7348 0.03505 0.4675 0.0
H446 H 0.77902 0.93898 0.3839 0.0
H447 H 0.8448 0.91774 0.36615 0.0
C448 C 0.3071 0.37864 0.16346 0.0
C449 C 0.32898 0.36573 0.1139 0.0
C450 C 0.41925 0.34883 0.15315 0.0
C451 C 0.3972 0.35926 0.20352 0.0
N452 N 0.31684 0.37323 0.25774 0.0
N453 N 0.4002 0.32554 0.06388 0.0
C454 C 0.33997 0.37091 0.20905 0.0
C455 C 0.38311 0.34624 0.1097 0.0
N456 N 0.25583 0.39967 0.16678 0.0
N457 N 0.47525 0.34523 0.14573 0.0
H458 H 0.3747 0.32313 0.03103 0.0
H459 H 0.43738 0.30646 0.06027 0.0
H460 H 0.50356 0.35029 0.17566 0.0
H461 H 0.49381 0.34285 0.109 0.0
H462 H 0.24017 0.41483 0.20101 0.0
H463 H 0.23029 0.40461 0.1343 0.0
H464 H 0.27439 0.37752 0.26434 0.0
H465 H 0.33957 0.36603 0.29153 0.0
C466 C 0.67181 0.60272 0.64249 0.0
C467 C 0.68057 0.64577 0.61322 0.0
C468 C 0.64016 0.69129 0.6859 0.0
C469 C 0.61825 0.64773 0.70786 0.0
N470 N 0.60425 0.56071 0.69462 0.0
N471 N 0.66189 0.73184 0.60492 0.0
C472 C 0.63192 0.60278 0.68328 0.0
C473 C 0.66199 0.69053 0.63433 0.0
N474 N 0.70095 0.56161 0.63111 0.0
N475 N 0.64181 0.7331 0.71438 0.0
H476 H 0.67356 0.7326 0.56576 0.0
H477 H 0.64417 0.76412 0.6181 0.0
H478 H 0.63156 0.73408 0.75392 0.0
H479 H 0.66067 0.76473 0.70057 0.0
H480 H 0.69828 0.53033 0.65397 0.0
H481 H 0.7323 0.56097 0.60288 0.0
H482 H 0.61158 0.52856 0.67428 0.0
H483 H 0.56885 0.55875 0.71786 0.0
C484 C 0.69377 0.38271 0.16331 0.0
C485 C 0.68145 0.35218 0.12023 0.0
C486 C 0.61296 0.30746 0.17267 0.0
C487 C 0.62173 0.34104 0.214 0.0
N488 N 0.68119 0.39921 0.25583 0.0
N489 N 0.63981 0.27911 0.08635 0.0
C490 C 0.6658 0.37504 0.21152 0.0
C491 C 0.64481 0.31208 0.12597 0.0
N492 N 0.73089 0.41998 0.15739 0.0
N493 N 0.57184 0.27329 0.17678 0.0
H494 H 0.66037 0.28276 0.05073 0.0
H495 H 0.61836 0.24644 0.08955 0.0
H496 H 0.54889 0.26765 0.21076 0.0
H497 H 0.5582 0.25179 0.14598 0.0
H498 H 0.73671 0.44732 0.18487 0.0
H499 H 0.75476 0.42466 0.12366 0.0
H500 H 0.71561 0.42203 0.25825 0.0
H501 H 0.66236 0.39255 0.29189 0.0
C502 C 0.37961 0.68522 0.61427 0.0
C503 C 0.33061 0.65644 0.61523 0.0
C504 C 0.34495 0.63827 0.70803 0.0
C505 C 0.39501 0.66566 0.70656 0.0
N506 N 0.45386 0.72404 0.6628 0.0
N507 N 0.26041 0.61301 0.66334 0.0
C508 C 0.41024 0.69215 0.66112 0.0
C509 C 0.31121 0.6354 0.66241 0.0
N510 N 0.39808 0.70418 0.56793 0.0
N511 N 0.33041 0.61448 0.75293 0.0
H512 H 0.23526 0.61009 0.6303 0.0
H513 H 0.24125 0.60013 0.69707 0.0
H514 H 0.35182 0.61917 0.78797 0.0
H515 H 0.29822 0.58934 0.7556 0.0
H516 H 0.43717 0.71974 0.56277 0.0
H517 H 0.37532 0.70221 0.53335 0.0
H518 H 0.46358 0.74814 0.63283 0.0
H519 H 0.47801 0.72955 0.69597 0.0
C520 C 0.88282 0.84707 0.11176 0.0
C521 C 0.82767 0.86359 0.11819 0.0
C522 C 0.84226 0.86874 0.21283 0.0
C523 C 0.89996 0.86067 0.20487 0.0
N524 N 0.97643 0.85103 0.14433 0.0
N525 N 0.75408 0.89209 0.17409 0.0
C526 C 0.92059 0.85163 0.15375 0.0
C527 C 0.80689 0.87466 0.16865 0.0
N528 N 0.89921 0.82743 0.06524 0.0
N529 N 0.82123 0.86945 0.26241 0.0
H530 H 0.72665 0.8949 0.14268 0.0
H531 H 0.7386 0.90605 0.20899 0.0
H532 H 0.84603 0.86363 0.29521 0.0
H533 H 0.77888 0.87116 0.27074 0.0
H534 H 0.93771 0.81088 0.0598 0.0
H535 H 0.87197 0.82289 0.03394 0.0
H536 H 0.99362 0.84959 0.10697 0.0
H537 H 0.00557 0.85753 0.17332 0.0
C538 C 0.12852 0.19091 0.61799 0.0
C539 C 0.1724 0.15661 0.61542 0.0
C540 C 0.15903 0.1369 0.70819 0.0
C541 C 0.1109 0.16649 0.70887 0.0
N542 N 0.04884 0.222 0.66535 0.0
N543 N 0.22973 0.0961 0.65653 0.0
C544 C 0.09589 0.19424 0.66427 0.0
C545 C 0.18808 0.12963 0.66028 0.0
N546 N 0.118 0.22021 0.57601 0.0
N547 N 0.17742 0.11671 0.7538 0.0
H548 H 0.25351 0.09149 0.62276 0.0
H549 H 0.2391 0.07115 0.68573 0.0
H550 H 0.15742 0.12237 0.78948 0.0
H551 H 0.21479 0.09806 0.75742 0.0
H552 H 0.09131 0.24986 0.57714 0.0
H553 H 0.13865 0.2169 0.54038 0.0
H554 H 0.0307 0.23731 0.63237 0.0
H555 H 0.02629 0.22848 0.69933 0.0
C556 C 0.19473 0.88575 0.15763 0.0
C557 C 0.18051 0.85588 0.1145 0.0
C558 C 0.11333 0.8111 0.16868 0.0
C559 C 0.12459 0.84356 0.21051 0.0
N560 N 0.18584 0.90119 0.25082 0.0
N561 N 0.13517 0.78442 0.08052 0.0
C562 C 0.16864 0.87754 0.20677 0.0
C563 C 0.14304 0.81634 0.12077 0.0
N564 N 0.23202 0.92279 0.15102 0.0
N565 N 0.07175 0.77745 0.17362 0.0
H566 H 0.15315 0.78884 0.04375 0.0
H567 H 0.11347 0.7519 0.08398 0.0
H568 H 0.05056 0.77118 0.20848 0.0
H569 H 0.05605 0.75701 0.14285 0.0
H570 H 0.23943 0.94958 0.17878 0.0
H571 H 0.25433 0.92799 0.11645 0.0
H572 H 0.22037 0.92394 0.25238 0.0
H573 H 0.16831 0.89427 0.28742 0.0
C574 C 0.84324 0.19233 0.63713 0.0
C575 C 0.82408 0.14712 0.61738 0.0
C576 C 0.87435 0.10545 0.68663 0.0
C577 C 0.88837 0.15071 0.71039 0.0
N578 N 0.86613 0.2364 0.71568 0.0
N579 N 0.80429 0.06314 0.63689 0.0
C580 C 0.86642 0.19401 0.68815 0.0
C581 C 0.8333 0.10464 0.6472 0.0
N582 N 0.84275 0.23312 0.60685 0.0
N583 N 0.90322 0.06387 0.69696 0.0
H584 H 0.77271 0.06183 0.60897 0.0
H585 H 0.80761 0.03218 0.66015 0.0
H586 H 0.94024 0.06293 0.71786 0.0
H587 H 0.89526 0.03141 0.6774 0.0
H588 H 0.86103 0.26559 0.61885 0.0
H589 H 0.82979 0.23333 0.56806 0.0
H590 H 0.84718 0.26781 0.70166 0.0
H591 H 0.87779 0.23837 0.75482 0.0
loop_
_geom_bond_atom_site_label_1
_geom_bond_atom_site_label_2
_geom_bond_distance
_geom_bond_site_symmetry_2
_ccdc_geom_bond_type
H0 C3 0.931 . S
H1 C6 0.928 . S
H2 C8 0.930 . S
C3 H0 0.931 . S
C3 C4 1.413 . S
C3 C5 1.360 1_554 S
C4 C3 1.413 . S
C4 C8 1.429 . S
C5 C3 1.360 1_556 S
C5 C6 1.372 . S
C6 H1 0.928 . S
C6 C5 1.372 . S
C6 C7 1.404 . S
C7 C6 1.404 . S
C7 C8 1.391 1_556 S
C8 H2 0.930 . S
C8 C4 1.429 . S
C8 C7 1.391 1_554 S
H9 C12 0.931 . S
H10 C15 0.928 . S
H11 C17 0.930 . S
C12 H9 0.931 . S
C12 C13 1.413 . S
C12 C14 1.360 . S
C13 C12 1.413 . S
C13 C17 1.429 . S
C14 C12 1.360 . S
C14 C15 1.372 . S
C15 H10 0.928 . S
C15 C14 1.372 . S
C15 C16 1.404 . S
C16 C15 1.404 . S
C16 C17 1.391 . S
C17 H11 0.930 . S
C17 C13 1.429 . S
C17 C16 1.391 . S
H18 C21 0.931 . S
H19 C24 0.928 . S
H20 C26 0.930 . S
C21 H18 0.931 . S
C21 C22 1.413 1_554 S
C21 C23 1.360 . S
C22 C21 1.413 1_556 S
C22 C26 1.429 . S
C23 C21 1.360 . S
C23 C24 1.372 . S
C24 H19 0.928 . S
C24 C23 1.372 . S
C24 C25 1.404 1_554 S
C25 C24 1.404 1_556 S
C25 C26 1.391 . S
C26 H20 0.930 . S
C26 C22 1.429 . S
C26 C25 1.391 . S
H27 C30 0.931 . S
H28 C33 0.928 . S
H29 C35 0.930 . S
C30 H27 0.931 . S
C30 C31 1.413 . S
C30 C32 1.360 . S
C31 C30 1.413 . S
C31 C35 1.429 . S
C32 C30 1.360 . S
C32 C33 1.372 . S
C33 H28 0.928 . S
C33 C32 1.372 . S
C33 C34 1.404 . S
C34 C33 1.404 . S
C34 C35 1.391 . S
C35 H29 0.930 . S
C35 C31 1.429 . S
C35 C34 1.391 . S
H36 C39 0.931 . S
H37 C42 0.928 . S
H38 C44 0.930 . S
C39 H36 0.931 . S
C39 C40 1.413 . S
C39 C41 1.360 1_554 S
C40 C39 1.413 . S
C40 C44 1.429 . S
C41 C39 1.360 1_556 S
C41 C42 1.372 . S
C42 H37 0.928 . S
C42 C41 1.372 . S
C42 C43 1.404 . S
C43 C42 1.404 . S
C43 C44 1.391 1_556 S
C44 H38 0.930 . S
C44 C40 1.429 . S
C44 C43 1.391 1_554 S
H45 C48 0.931 . S
H46 C51 0.928 . S
H47 C53 0.930 . S
C48 H45 0.931 . S
C48 C49 1.413 . S
C48 C50 1.360 . S
C49 C48 1.413 . S
C49 C53 1.429 . S
C50 C48 1.360 . S
C50 C51 1.372 . S
C51 H46 0.928 . S
C51 C50 1.372 . S
C51 C52 1.404 . S
C52 C51 1.404 . S
C52 C53 1.391 . S
C53 H47 0.930 . S
C53 C49 1.429 . S
C53 C52 1.391 . S
H54 C57 0.931 . S
H55 C60 0.928 . S
H56 C62 0.930 . S
C57 H54 0.931 . S
C57 C58 1.413 1_554 S
C57 C59 1.360 . S
C58 C57 1.413 1_556 S
C58 C62 1.429 . S
C59 C57 1.360 . S
C59 C60 1.372 . S
C60 H55 0.928 . S
C60 C59 1.372 . S
C60 C61 1.404 1_554 S
C61 C60 1.404 1_556 S
C61 C62 1.391 . S
C62 H56 0.930 . S
C62 C58 1.429 . S
C62 C61 1.391 . S
H63 C66 0.931 . S
H64 C69 0.928 . S
H65 C71 0.930 . S
C66 H63 0.931 . S
C66 C67 1.413 . S
C66 C68 1.360 . S
C67 C66 1.413 . S
C67 C71 1.429 . S
C68 C66 1.360 . S
C68 C69 1.372 . S
C69 H64 0.928 . S
C69 C68 1.372 . S
C69 C70 1.404 . S
C70 C69 1.404 . S
C70 C71 1.391 . S
C71 H65 0.930 . S
C71 C67 1.429 . S
C71 C70 1.391 . S
Fe72 O74 1.918 . S
Fe72 O77 1.997 1_455 S
Fe72 O78 2.002 1_455 S
Fe72 O83 1.976 . S
Fe72 O86 1.996 . S
Fe73 O74 1.918 . S
Fe73 O81 1.997 1_455 S
Fe73 O84 1.996 . S
Fe73 O88 1.976 . S
Fe73 O91 2.002 1_455 S
O74 Fe72 1.918 . S
O74 Fe73 1.918 . S
O74 Fe75 1.918 . S
Fe75 O74 1.918 . S
Fe75 O76 2.002 1_455 S
Fe75 O85 1.976 . S
Fe75 O89 1.996 . S
Fe75 O92 1.997 1_455 S
O76 Fe75 2.002 1_655 S
O76 C93 1.295 . S
O77 Fe72 1.997 1_655 S
O77 C93 1.235 . S
O78 Fe72 2.002 1_655 S
O78 C79 1.295 . S
C79 O78 1.295 . S
C79 O81 1.235 . S
C80 O85 1.287 . S
C80 O86 1.255 . S
O81 Fe73 1.997 1_655 S
O81 C79 1.235 . S
C82 O88 1.287 . S
C82 O89 1.255 . S
O83 Fe72 1.976 . S
O83 C90 1.287 . S
O84 Fe73 1.996 . S
O84 C90 1.255 . S
O85 Fe75 1.976 . S
O85 C80 1.287 . S
O86 Fe72 1.996 . S
O86 C80 1.255 . S
C87 O91 1.295 . S
C87 O92 1.235 . S
O88 Fe73 1.976 . S
O88 C82 1.287 . S
O89 Fe75 1.996 . S
O89 C82 1.255 . S
C90 O83 1.287 . S
C90 O84 1.255 . S
O91 Fe73 2.002 1_655 S
O91 C87 1.295 . S
O92 Fe75 1.997 1_655 S
O92 C87 1.235 . S
C93 O76 1.295 . S
C93 O77 1.235 . S
Fe94 O96 1.918 . S
Fe94 O99 1.997 1_655 S
Fe94 O100 2.002 1_655 S
Fe94 O105 1.976 . S
Fe94 O108 1.996 . S
Fe95 O96 1.918 . S
Fe95 O103 1.997 1_655 S
Fe95 O106 1.996 . S
Fe95 O110 1.976 . S
Fe95 O113 2.002 1_655 S
O96 Fe94 1.918 . S
O96 Fe95 1.918 . S
O96 Fe97 1.918 . S
Fe97 O96 1.918 . S
Fe97 O98 2.002 1_655 S
Fe97 O107 1.976 . S
Fe97 O111 1.996 . S
Fe97 O114 1.997 1_655 S
O98 Fe97 2.002 1_455 S
O98 C115 1.295 . S
O99 Fe94 1.997 1_455 S
O99 C115 1.235 . S
O100 Fe94 2.002 1_455 S
O100 C101 1.295 . S
C101 O100 1.295 . S
C101 O103 1.235 . S
C102 O107 1.287 . S
C102 O108 1.255 . S
O103 Fe95 1.997 1_455 S
O103 C101 1.235 . S
C104 O110 1.287 . S
C104 O111 1.255 . S
O105 Fe94 1.976 . S
O105 C112 1.287 . S
O106 Fe95 1.996 . S
O106 C112 1.255 . S
O107 Fe97 1.976 . S
O107 C102 1.287 . S
O108 Fe94 1.996 . S
O108 C102 1.255 . S
C109 O113 1.295 . S
C109 O114 1.235 . S
O110 Fe95 1.976 . S
O110 C104 1.287 . S
O111 Fe97 1.996 . S
O111 C104 1.255 . S
C112 O105 1.287 . S
C112 O106 1.255 . S
O113 Fe95 2.002 1_455 S
O113 C109 1.295 . S
O114 Fe97 1.997 1_455 S
O114 C109 1.235 . S
C115 O98 1.295 . S
C115 O99 1.235 . S
Fe116 O118 1.918 . S
Fe116 O121 1.997 . S
Fe116 O122 2.002 . S
Fe116 O127 1.976 . S
Fe116 O130 1.996 . S
Fe117 O118 1.918 . S
Fe117 O125 1.997 . S
Fe117 O128 1.996 . S
Fe117 O132 1.976 . S
Fe117 O135 2.002 . S
O118 Fe116 1.918 . S
O118 Fe117 1.918 . S
O118 Fe119 1.918 . S
Fe119 O118 1.918 . S
Fe119 O120 2.002 . S
Fe119 O129 1.976 . S
Fe119 O133 1.996 . S
Fe119 O136 1.997 . S
O120 Fe119 2.002 . S
O120 C137 1.295 . S
O121 Fe116 1.997 . S
O121 C137 1.235 . S
O122 Fe116 2.002 . S
O122 C123 1.295 . S
C123 O122 1.295 . S
C123 O125 1.235 . S
C124 O129 1.287 . S
C124 O130 1.255 . S
O125 Fe117 1.997 . S
O125 C123 1.235 . S
C126 O132 1.287 . S
C126 O133 1.255 . S
O127 Fe116 1.976 . S
O127 C134 1.287 . S
O128 Fe117 1.996 . S
O128 C134 1.255 . S
O129 Fe119 1.976 . S
O129 C124 1.287 . S
O130 Fe116 1.996 . S
O130 C124 1.255 . S
C131 O135 1.295 . S
C131 O136 1.235 . S
O132 Fe117 1.976 . S
O132 C126 1.287 . S
O133 Fe119 1.996 . S
O133 C126 1.255 . S
C134 O127 1.287 . S
C134 O128 1.255 . S
O135 Fe117 2.002 . S
O135 C131 1.295 . S
O136 Fe119 1.997 . S
O136 C131 1.235 . S
C137 O120 1.295 . S
C137 O121 1.235 . S
Fe138 O140 1.918 . S
Fe138 O143 1.997 . S
Fe138 O144 2.002 . S
Fe138 O149 1.976 . S
Fe138 O152 1.996 . S
Fe139 O140 1.918 . S
Fe139 O147 1.997 . S
Fe139 O150 1.996 . S
Fe139 O154 1.976 . S
Fe139 O157 2.002 . S
O140 Fe138 1.918 . S
O140 Fe139 1.918 . S
O140 Fe141 1.918 . S
Fe141 O140 1.918 . S
Fe141 O142 2.002 . S
Fe141 O151 1.976 . S
Fe141 O155 1.996 . S
Fe141 O158 1.997 . S
O142 Fe141 2.002 . S
O142 C159 1.295 . S
O143 Fe138 1.997 . S
O143 C159 1.235 . S
O144 Fe138 2.002 . S
O144 C145 1.295 . S
C145 O144 1.295 . S
C145 O147 1.235 . S
C146 O151 1.287 . S
C146 O152 1.255 . S
O147 Fe139 1.997 . S
O147 C145 1.235 . S
C148 O154 1.287 . S
C148 O155 1.255 . S
O149 Fe138 1.976 . S
O149 C156 1.287 . S
O150 Fe139 1.996 . S
O150 C156 1.255 . S
O151 Fe141 1.976 . S
O151 C146 1.287 . S
O152 Fe138 1.996 . S
O152 C146 1.255 . S
C153 O157 1.295 . S
C153 O158 1.235 . S
O154 Fe139 1.976 . S
O154 C148 1.287 . S
O155 Fe141 1.996 . S
O155 C148 1.255 . S
C156 O149 1.287 . S
C156 O150 1.255 . S
O157 Fe139 2.002 . S
O157 C153 1.295 . S
O158 Fe141 1.997 . S
O158 C153 1.235 . S
C159 O142 1.295 . S
C159 O143 1.235 . S
C160 C161 1.363 . S
C160 C166 1.379 . S
C160 N168 1.356 1_556 S
C161 C160 1.363 . S
C161 C167 1.363 . S
C162 C163 1.363 . S
C162 C167 1.379 . S
C162 N169 1.356 . S
C163 C162 1.363 . S
C163 C166 1.363 . S
N164 C166 1.356 . S
N164 H176 0.984 . S
N164 H177 0.985 . S
N165 C167 1.356 . S
N165 H170 0.984 . S
N165 H171 0.985 . S
C166 C160 1.379 . S
C166 C163 1.363 . S
C166 N164 1.356 . S
C167 C161 1.363 . S
C167 C162 1.379 . S
C167 N165 1.356 . S
N168 C160 1.356 1_554 S
N168 H174 0.984 . S
N168 H175 0.984 . S
N169 C162 1.356 . S
N169 H172 0.984 . S
N169 H173 0.985 . S
H170 N165 0.984 . S
H171 N165 0.985 . S
H172 N169 0.984 . S
H173 N169 0.985 . S
H174 N168 0.984 . S
H175 N168 0.984 . S
H176 N164 0.984 . S
H177 N164 0.985 . S
C178 C179 1.363 . S
C178 C184 1.379 . S
C178 N186 1.356 . S
C179 C178 1.363 . S
C179 C185 1.363 . S
C180 C181 1.363 . S
C180 C185 1.379 . S
C180 N187 1.356 . S
C181 C180 1.363 . S
C181 C184 1.363 . S
N182 C184 1.356 . S
N182 H194 0.984 . S
N182 H195 0.985 . S
N183 C185 1.356 . S
N183 H188 0.984 . S
N183 H189 0.985 . S
C184 C178 1.379 . S
C184 C181 1.363 . S
C184 N182 1.356 . S
C185 C179 1.363 . S
C185 C180 1.379 . S
C185 N183 1.356 . S
N186 C178 1.356 . S
N186 H192 0.984 . S
N186 H193 0.984 . S
N187 C180 1.356 . S
N187 H190 0.984 . S
N187 H191 0.985 . S
H188 N183 0.984 . S
H189 N183 0.985 . S
H190 N187 0.984 . S
H191 N187 0.985 . S
H192 N186 0.984 . S
H193 N186 0.984 . S
H194 N182 0.984 . S
H195 N182 0.985 . S
C196 C197 1.363 . S
C196 C202 1.379 . S
C196 N204 1.356 1_556 S
C197 C196 1.363 . S
C197 C203 1.363 . S
C198 C199 1.363 . S
C198 C203 1.379 . S
C198 N205 1.356 . S
C199 C198 1.363 . S
C199 C202 1.363 . S
N200 C202 1.356 . S
N200 H212 0.984 . S
N200 H213 0.985 . S
N201 C203 1.356 . S
N201 H206 0.984 . S
N201 H207 0.985 . S
C202 C196 1.379 . S
C202 C199 1.363 . S
C202 N200 1.356 . S
C203 C197 1.363 . S
C203 C198 1.379 . S
C203 N201 1.356 . S
N204 C196 1.356 1_554 S
N204 H210 0.984 . S
N204 H211 0.984 . S
N205 C198 1.356 . S
N205 H208 0.984 . S
N205 H209 0.985 . S
H206 N201 0.984 . S
H207 N201 0.985 . S
H208 N205 0.984 . S
H209 N205 0.985 . S
H210 N204 0.984 . S
H211 N204 0.984 . S
H212 N200 0.984 . S
H213 N200 0.985 . S
C214 C215 1.363 . S
C214 C220 1.379 . S
C214 N222 1.356 . S
C215 C214 1.363 . S
C215 C221 1.363 . S
C216 C217 1.363 . S
C216 C221 1.379 . S
C216 N223 1.356 . S
C217 C216 1.363 . S
C217 C220 1.363 . S
N218 C220 1.356 . S
N218 H230 0.984 . S
N218 H231 0.985 . S
N219 C221 1.356 . S
N219 H224 0.984 . S
N219 H225 0.985 . S
C220 C214 1.379 . S
C220 C217 1.363 . S
C220 N218 1.356 . S
C221 C215 1.363 . S
C221 C216 1.379 . S
C221 N219 1.356 . S
N222 C214 1.356 . S
N222 H228 0.984 . S
N222 H229 0.984 . S
N223 C216 1.356 . S
N223 H226 0.984 . S
N223 H227 0.985 . S
H224 N219 0.984 . S
H225 N219 0.985 . S
H226 N223 0.984 . S
H227 N223 0.985 . S
H228 N222 0.984 . S
H229 N222 0.984 . S
H230 N218 0.984 . S
H231 N218 0.985 . S
C232 C233 1.363 . S
C232 C238 1.379 . S
C232 N240 1.356 . S
C233 C232 1.363 . S
C233 C239 1.363 . S
C234 C235 1.363 . S
C234 C239 1.379 . S
C234 N241 1.356 . S
C235 C234 1.363 . S
C235 C238 1.363 . S
N236 C238 1.356 . S
N236 H248 0.984 . S
N236 H249 0.985 . S
N237 C239 1.356 1_554 S
N237 H242 0.984 . S
N237 H243 0.985 . S
C238 C232 1.379 . S
C238 C235 1.363 . S
C238 N236 1.356 . S
C239 C233 1.363 . S
C239 C234 1.379 . S
C239 N237 1.356 1_556 S
N240 C232 1.356 . S
N240 H246 0.984 . S
N240 H247 0.984 . S
N241 C234 1.356 . S
N241 H244 0.984 . S
N241 H245 0.985 . S
H242 N237 0.984 . S
H243 N237 0.985 . S
H244 N241 0.984 . S
H245 N241 0.985 . S
H246 N240 0.984 . S
H247 N240 0.984 . S
H248 N236 0.984 . S
H249 N236 0.985 . S
C250 C251 1.363 . S
C250 C256 1.379 . S
C250 N258 1.356 . S
C251 C250 1.363 . S
C251 C257 1.363 . S
C252 C253 1.363 . S
C252 C257 1.379 . S
C252 N259 1.356 . S
C253 C252 1.363 . S
C253 C256 1.363 . S
N254 C256 1.356 . S
N254 H266 0.984 . S
N254 H267 0.985 . S
N255 C257 1.356 . S
N255 H260 0.984 . S
N255 H261 0.985 . S
C256 C250 1.379 . S
C256 C253 1.363 . S
C256 N254 1.356 . S
C257 C251 1.363 . S
C257 C252 1.379 . S
C257 N255 1.356 . S
N258 C250 1.356 . S
N258 H264 0.984 . S
N258 H265 0.984 . S
N259 C252 1.356 . S
N259 H262 0.984 . S
N259 H263 0.985 . S
H260 N255 0.984 . S
H261 N255 0.985 . S
H262 N259 0.984 . S
H263 N259 0.985 . S
H264 N258 0.984 . S
H265 N258 0.984 . S
H266 N254 0.984 . S
H267 N254 0.985 . S
C268 C269 1.363 . S
C268 C274 1.379 . S
C268 N276 1.356 . S
C269 C268 1.363 . S
C269 C275 1.363 . S
C270 C271 1.363 . S
C270 C275 1.379 . S
C270 N277 1.356 . S
C271 C270 1.363 . S
C271 C274 1.363 . S
N272 C274 1.356 . S
N272 H284 0.984 . S
N272 H285 0.985 . S
N273 C275 1.356 1_554 S
N273 H278 0.984 . S
N273 H279 0.985 . S
C274 C268 1.379 . S
C274 C271 1.363 . S
C274 N272 1.356 . S
C275 C269 1.363 . S
C275 C270 1.379 . S
C275 N273 1.356 1_556 S
N276 C268 1.356 . S
N276 H282 0.984 . S
N276 H283 0.984 . S
N277 C270 1.356 . S
N277 H280 0.984 . S
N277 H281 1.000 . S
H278 N273 0.984 . S
H279 N273 0.985 . S
H280 N277 0.984 . S
H281 N277 1.000 . S
H282 N276 0.984 . S
H283 N276 0.984 . S
H284 N272 0.984 . S
H285 N272 0.985 . S
C286 C287 1.363 . S
C286 C292 1.379 . S
C286 N294 1.356 . S
C287 C286 1.363 . S
C287 C293 1.363 . S
C288 C289 1.363 . S
C288 C293 1.379 . S
C288 N295 1.356 . S
C289 C288 1.363 . S
C289 C292 1.363 . S
N290 C292 1.356 . S
N290 H302 0.984 . S
N290 H303 0.985 . S
N291 C293 1.356 . S
N291 H296 0.984 . S
N291 H297 0.985 . S
C292 C286 1.379 . S
C292 C289 1.363 . S
C292 N290 1.356 . S
C293 C287 1.363 . S
C293 C288 1.379 . S
C293 N291 1.356 . S
N294 C286 1.356 . S
N294 H300 0.984 . S
N294 H301 0.984 . S
N295 C288 1.356 . S
N295 H298 0.984 . S
N295 H299 0.985 . S
H296 N291 0.984 . S
H297 N291 0.985 . S
H298 N295 0.984 . S
H299 N295 0.985 . S
H300 N294 0.984 . S
H301 N294 0.984 . S
H302 N290 0.984 . S
H303 N290 0.985 . S
C304 C305 1.363 . S
C304 C310 1.379 . S
C304 N312 1.356 . S
C305 C304 1.363 . S
C305 C311 1.363 . S
C306 C307 1.363 . S
C306 C311 1.379 . S
C306 N313 1.356 . S
C307 C306 1.363 . S
C307 C310 1.363 . S
N308 C310 1.356 . S
N308 H320 0.984 . S
N308 H321 0.985 . S
N309 C311 1.356 . S
N309 H314 0.984 . S
N309 H315 0.985 . S
C310 C304 1.379 . S
C310 C307 1.363 . S
C310 N308 1.356 . S
C311 C305 1.363 . S
C311 C306 1.379 . S
C311 N309 1.356 . S
N312 C304 1.356 . S
N312 H318 0.984 . S
N312 H319 0.984 . S
N313 C306 1.356 . S
N313 H316 0.984 . S
N313 H317 0.985 . S
H314 N309 0.984 . S
H315 N309 0.985 . S
H316 N313 0.984 . S
H317 N313 0.985 . S
H318 N312 0.984 . S
H319 N312 0.984 . S
H320 N308 0.984 . S
H321 N308 0.985 . S
C322 C323 1.363 . S
C322 C328 1.379 . S
C322 N330 1.356 . S
C323 C322 1.363 . S
C323 C329 1.363 . S
C324 C325 1.363 . S
C324 C329 1.379 . S
C324 N331 1.356 . S
C325 C324 1.363 . S
C325 C328 1.363 . S
N326 C328 1.356 . S
N326 H338 0.984 . S
N326 H339 0.985 . S
N327 C329 1.356 . S
N327 H332 0.984 . S
N327 H333 0.985 . S
C328 C322 1.379 . S
C328 C325 1.363 . S
C328 N326 1.356 . S
C329 C323 1.363 . S
C329 C324 1.379 . S
C329 N327 1.356 . S
N330 C322 1.356 . S
N330 H336 0.984 . S
N330 H337 0.984 . S
N331 C324 1.356 . S
N331 H334 0.984 . S
N331 H335 0.985 . S
H332 N327 0.984 . S
H333 N327 0.985 . S
H334 N331 0.984 . S
H335 N331 0.985 . S
H336 N330 0.984 . S
H337 N330 0.984 . S
H338 N326 0.984 . S
H339 N326 0.985 . S
C340 C341 1.363 . S
C340 C346 1.379 . S
C340 N348 1.356 1_556 S
C341 C340 1.363 . S
C341 C347 1.363 . S
C342 C343 1.363 . S
C342 C347 1.379 . S
C342 N349 1.356 . S
C343 C342 1.363 . S
C343 C346 1.363 . S
N344 C346 1.356 . S
N344 H356 0.984 1_556 S
N344 H357 0.985 . S
N345 C347 1.356 . S
N345 H350 0.984 . S
N345 H351 0.985 . S
C346 C340 1.379 . S
C346 C343 1.363 . S
C346 N344 1.356 . S
C347 C341 1.363 . S
C347 C342 1.379 . S
C347 N345 1.356 . S
N348 C340 1.356 1_554 S
N348 H354 0.984 . S
N348 H355 0.984 . S
N349 C342 1.356 . S
N349 H352 0.984 . S
N349 H353 0.985 . S
H350 N345 0.984 . S
H351 N345 0.985 . S
H352 N349 0.984 . S
H353 N349 0.985 . S
H354 N348 0.984 . S
H355 N348 0.984 . S
H356 N344 0.984 1_554 S
H357 N344 0.985 . S
C358 C359 1.363 . S
C358 C364 1.379 . S
C358 N366 1.356 . S
C359 C358 1.363 . S
C359 C365 1.363 . S
C360 C361 1.363 . S
C360 C365 1.379 . S
C360 N367 1.356 . S
C361 C360 1.363 . S
C361 C364 1.363 . S
N362 C364 1.356 . S
N362 H374 0.984 . S
N362 H375 0.985 . S
N363 C365 1.356 . S
N363 H368 0.984 . S
N363 H369 0.985 . S
C364 C358 1.379 . S
C364 C361 1.363 . S
C364 N362 1.356 . S
C365 C359 1.363 . S
C365 C360 1.379 . S
C365 N363 1.356 . S
N366 C358 1.356 . S
N366 H372 0.984 . S
N366 H373 0.984 . S
N367 C360 1.356 . S
N367 H370 0.984 . S
N367 H371 0.985 . S
H368 N363 0.984 . S
H369 N363 0.985 . S
H370 N367 0.984 . S
H371 N367 0.985 . S
H372 N366 0.984 . S
H373 N366 0.984 . S
H374 N362 0.984 . S
H375 N362 0.985 . S
C376 C377 1.363 1_545 S
C376 C382 1.379 . S
C376 N384 1.356 1_545 S
C377 C376 1.363 1_565 S
C377 C383 1.363 . S
C378 C379 1.363 . S
C378 C383 1.379 1_545 S
C378 N385 1.356 . S
C379 C378 1.363 . S
C379 C382 1.363 . S
N380 C382 1.356 . S
N380 H392 0.984 . S
N380 H393 0.985 . S
N381 C383 1.356 . S
N381 H386 0.984 1_556 S
N381 H387 0.985 1_556 S
C382 C376 1.379 . S
C382 C379 1.363 . S
C382 N380 1.356 . S
C383 C377 1.363 . S
C383 C378 1.379 1_565 S
C383 N381 1.356 . S
N384 C376 1.356 1_565 S
N384 H390 0.984 1_565 S
N384 H391 0.984 . S
N385 C378 1.356 . S
N385 H388 0.984 . S
N385 H389 0.985 1_545 S
H386 N381 0.984 1_554 S
H387 N381 0.985 1_554 S
H388 N385 0.984 . S
H389 N385 0.985 1_565 S
H390 N384 0.984 1_545 S
H391 N384 0.984 . S
H392 N380 0.984 . S
H393 N380 0.985 . S
C394 C395 1.363 . S
C394 C400 1.379 . S
C394 N402 1.356 . S
C395 C394 1.363 . S
C395 C401 1.363 1_545 S
C396 C397 1.363 . S
C396 C401 1.379 . S
C396 N403 1.356 . S
C397 C396 1.363 . S
C397 C400 1.363 1_565 S
N398 C400 1.356 . S
N398 H410 0.984 . S
N398 H411 0.985 1_545 S
N399 C401 1.356 . S
N399 H404 0.984 1_565 S
N399 H405 0.985 . S
C400 C394 1.379 . S
C400 C397 1.363 1_545 S
C400 N398 1.356 . S
C401 C395 1.363 1_565 S
C401 C396 1.379 . S
C401 N399 1.356 . S
N402 C394 1.356 . S
N402 H408 0.984 . S
N402 H409 0.984 . S
N403 C396 1.356 . S
N403 H406 0.984 . S
N403 H407 0.985 . S
H404 N399 0.984 1_545 S
H405 N399 0.985 . S
H406 N403 0.984 . S
H407 N403 0.985 . S
H408 N402 0.984 . S
H409 N402 0.984 . S
H410 N398 0.984 . S
H411 N398 0.985 1_565 S
C412 C413 1.363 1_545 S
C412 C418 1.379 . S
C412 N420 1.356 1_556 S
C413 C412 1.363 1_565 S
C413 C419 1.363 . S
C414 C415 1.363 . S
C414 C419 1.379 1_545 S
C414 N421 1.356 . S
C415 C414 1.363 . S
C415 C418 1.363 . S
N416 C418 1.356 . S
N416 H428 0.984 1_556 S
N416 H429 0.985 . S
N417 C419 1.356 . S
N417 H422 0.984 . S
N417 H423 0.985 . S
C418 C412 1.379 . S
C418 C415 1.363 . S
C418 N416 1.356 . S
C419 C413 1.363 . S
C419 C414 1.379 1_565 S
C419 N417 1.356 . S
N420 C412 1.356 1_554 S
N420 H426 0.984 . S
N420 H427 0.984 1_545 S
N421 C414 1.356 . S
N421 H424 0.984 . S
N421 H425 0.985 1_545 S
H422 N417 0.984 . S
H423 N417 0.985 . S
H424 N421 0.984 . S
H425 N421 0.985 1_565 S
H426 N420 0.984 . S
H427 N420 0.984 1_565 S
H428 N416 0.984 1_554 S
H429 N416 0.985 . S
C430 C431 1.363 1_565 S
C430 C436 1.379 . S
C430 N438 1.356 . S
C431 C430 1.363 1_545 S
C431 C437 1.363 . S
C432 C433 1.363 . S
C432 C437 1.379 1_565 S
C432 N439 1.356 . S
C433 C432 1.363 . S
C433 C436 1.363 . S
N434 C436 1.356 . S
N434 H446 0.984 . S
N434 H447 0.985 . S
N435 C437 1.356 . S
N435 H440 0.984 . S
N435 H441 0.985 . S
C436 C430 1.379 . S
C436 C433 1.363 . S
C436 N434 1.356 . S
C437 C431 1.363 . S
C437 C432 1.379 1_545 S
C437 N435 1.356 . S
N438 C430 1.356 . S
N438 H444 0.984 . S
N438 H445 0.984 1_565 S
N439 C432 1.356 . S
N439 H442 0.984 . S
N439 H443 0.985 1_565 S
H440 N435 0.984 . S
H441 N435 0.985 . S
H442 N439 0.984 . S
H443 N439 0.985 1_545 S
H444 N438 0.984 . S
H445 N438 0.984 1_545 S
H446 N434 0.984 . S
H447 N434 0.985 . S
C448 C449 1.363 . S
C448 C454 1.379 . S
C448 N456 1.356 . S
C449 C448 1.363 . S
C449 C455 1.363 . S
C450 C451 1.363 . S
C450 C455 1.379 . S
C450 N457 1.356 . S
C451 C450 1.363 . S
C451 C454 1.363 . S
N452 C454 1.356 . S
N452 H464 0.984 . S
N452 H465 0.985 . S
N453 C455 1.356 . S
N453 H458 0.984 . S
N453 H459 0.985 . S
C454 C448 1.379 . S
C454 C451 1.363 . S
C454 N452 1.356 . S
C455 C449 1.363 . S
C455 C450 1.379 . S
C455 N453 1.356 . S
N456 C448 1.356 . S
N456 H462 0.984 . S
N456 H463 0.984 . S
N457 C450 1.356 . S
N457 H460 0.984 . S
N457 H461 0.985 . S
H458 N453 0.984 . S
H459 N453 0.985 . S
H460 N457 0.984 . S
H461 N457 0.985 . S
H462 N456 0.984 . S
H463 N456 0.984 . S
H464 N452 0.984 . S
H465 N452 0.985 . S
C466 C467 1.363 . S
C466 C472 1.379 . S
C466 N474 1.356 . S
C467 C466 1.363 . S
C467 C473 1.363 . S
C468 C469 1.363 . S
C468 C473 1.379 . S
C468 N475 1.356 . S
C469 C468 1.363 . S
C469 C472 1.363 . S
N470 C472 1.356 . S
N470 H482 0.984 . S
N470 H483 0.985 . S
N471 C473 1.356 . S
N471 H476 0.984 . S
N471 H477 0.985 . S
C472 C466 1.379 . S
C472 C469 1.363 . S
C472 N470 1.356 . S
C473 C467 1.363 . S
C473 C468 1.379 . S
C473 N471 1.356 . S
N474 C466 1.356 . S
N474 H480 0.984 . S
N474 H481 0.984 . S
N475 C468 1.356 . S
N475 H478 0.984 . S
N475 H479 0.985 . S
H476 N471 0.984 . S
H477 N471 0.985 . S
H478 N475 0.984 . S
H479 N475 0.985 . S
H480 N474 0.984 . S
H481 N474 0.984 . S
H482 N470 0.984 . S
H483 N470 0.985 . S
C484 C485 1.363 . S
C484 C490 1.379 . S
C484 N492 1.356 . S
C485 C484 1.363 . S
C485 C491 1.363 . S
C486 C487 1.363 . S
C486 C491 1.379 . S
C486 N493 1.356 . S
C487 C486 1.363 . S
C487 C490 1.363 . S
N488 C490 1.356 . S
N488 H500 0.984 . S
N488 H501 0.985 . S
N489 C491 1.356 . S
N489 H494 0.984 . S
N489 H495 0.985 . S
C490 C484 1.379 . S
C490 C487 1.363 . S
C490 N488 1.356 . S
C491 C485 1.363 . S
C491 C486 1.379 . S
C491 N489 1.356 . S
N492 C484 1.356 . S
N492 H498 0.984 . S
N492 H499 0.984 . S
N493 C486 1.356 . S
N493 H496 0.984 . S
N493 H497 0.985 . S
H494 N489 0.984 . S
H495 N489 0.985 . S
H496 N493 0.984 . S
H497 N493 0.985 . S
H498 N492 0.984 . S
H499 N492 0.984 . S
H500 N488 0.984 . S
H501 N488 0.985 . S
C502 C503 1.363 . S
C502 C508 1.379 . S
C502 N510 1.356 . S
C503 C502 1.363 . S
C503 C509 1.363 . S
C504 C505 1.363 . S
C504 C509 1.379 . S
C504 N511 1.356 . S
C505 C504 1.363 . S
C505 C508 1.363 . S
N506 C508 1.356 . S
N506 H518 0.984 . S
N506 H519 0.985 . S
N507 C509 1.356 . S
N507 H512 0.984 . S
N507 H513 0.985 . S
C508 C502 1.379 . S
C508 C505 1.363 . S
C508 N506 1.356 . S
C509 C503 1.363 . S
C509 C504 1.379 . S
C509 N507 1.356 . S
N510 C502 1.356 . S
N510 H516 0.984 . S
N510 H517 0.984 . S
N511 C504 1.356 . S
N511 H514 0.984 . S
N511 H515 0.985 . S
H512 N507 0.984 . S
H513 N507 0.985 . S
H514 N511 0.984 . S
H515 N511 0.985 . S
H516 N510 0.984 . S
H517 N510 0.984 . S
H518 N506 0.984 . S
H519 N506 0.985 . S
C520 C521 1.363 . S
C520 C526 1.379 . S
C520 N528 1.356 . S
C521 C520 1.363 . S
C521 C527 1.363 . S
C522 C523 1.363 . S
C522 C527 1.379 . S
C522 N529 1.356 . S
C523 C522 1.363 . S
C523 C526 1.363 . S
N524 C526 1.356 . S
N524 H536 0.984 . S
N524 H537 0.985 . S
N525 C527 1.356 . S
N525 H530 0.984 . S
N525 H531 0.985 . S
C526 C520 1.379 . S
C526 C523 1.363 . S
C526 N524 1.356 . S
C527 C521 1.363 . S
C527 C522 1.379 . S
C527 N525 1.356 . S
N528 C520 1.356 . S
N528 H534 0.984 . S
N528 H535 0.984 . S
N529 C522 1.356 . S
N529 H532 0.984 . S
N529 H533 0.985 . S
H530 N525 0.984 . S
H531 N525 0.985 . S
H532 N529 0.984 . S
H533 N529 0.985 . S
H534 N528 0.984 . S
H535 N528 0.984 . S
H536 N524 0.984 . S
H537 N524 0.985 . S
C538 C539 1.363 . S
C538 C544 1.379 . S
C538 N546 1.356 . S
C539 C538 1.363 . S
C539 C545 1.363 . S
C540 C541 1.363 . S
C540 C545 1.379 . S
C540 N547 1.356 . S
C541 C540 1.363 . S
C541 C544 1.363 . S
N542 C544 1.356 . S
N542 H554 0.984 . S
N542 H555 0.985 . S
N543 C545 1.356 . S
N543 H548 0.984 . S
N543 H549 0.985 . S
C544 C538 1.379 . S
C544 C541 1.363 . S
C544 N542 1.356 . S
C545 C539 1.363 . S
C545 C540 1.379 . S
C545 N543 1.356 . S
N546 C538 1.356 . S
N546 H552 0.984 . S
N546 H553 0.984 . S
N547 C540 1.356 . S
N547 H550 0.984 . S
N547 H551 0.985 . S
H548 N543 0.984 . S
H549 N543 0.985 . S
H550 N547 0.984 . S
H551 N547 0.985 . S
H552 N546 0.984 . S
H553 N546 0.984 . S
H554 N542 0.984 . S
H555 N542 0.985 . S
C556 C557 1.363 . S
C556 C562 1.379 . S
C556 N564 1.356 . S
C557 C556 1.363 . S
C557 C563 1.363 . S
C558 C559 1.363 . S
C558 C563 1.379 . S
C558 N565 1.356 . S
C559 C558 1.363 . S
C559 C562 1.363 . S
N560 C562 1.356 . S
N560 H572 0.984 . S
N560 H573 0.985 . S
N561 C563 1.356 . S
N561 H566 0.984 . S
N561 H567 0.985 . S
C562 C556 1.379 . S
C562 C559 1.363 . S
C562 N560 1.356 . S
C563 C557 1.363 . S
C563 C558 1.379 . S
C563 N561 1.356 . S
N564 C556 1.356 . S
N564 H570 0.984 . S
N564 H571 0.984 . S
N565 C558 1.356 . S
N565 H568 0.984 . S
N565 H569 0.985 . S
H566 N561 0.984 . S
H567 N561 0.985 . S
H568 N565 0.984 . S
H569 N565 0.985 . S
H570 N564 0.984 . S
H571 N564 0.984 . S
H572 N560 0.984 . S
H573 N560 0.985 . S
C574 C575 1.363 . S
C574 C580 1.379 . S
C574 N582 1.356 . S
C575 C574 1.363 . S
C575 C581 1.363 . S
C576 C577 1.363 . S
C576 C581 1.379 . S
C576 N583 1.356 . S
C577 C576 1.363 . S
C577 C580 1.363 . S
N578 C580 1.356 . S
N578 H590 0.984 . S
N578 H591 0.985 . S
N579 C581 1.356 . S
N579 H584 0.984 . S
N579 H585 0.985 . S
C580 C574 1.379 . S
C580 C577 1.363 . S
C580 N578 1.356 . S
C581 C575 1.363 . S
C581 C576 1.379 . S
C581 N579 1.356 . S
N582 C574 1.356 . S
N582 H588 0.984 . S
N582 H589 0.984 . S
N583 C576 1.356 . S
N583 H586 0.984 . S
N583 H587 0.985 . S
H584 N579 0.984 . S
H585 N579 0.985 . S
H586 N583 0.984 . S
H587 N583 0.985 . S
H588 N582 0.984 . S
H589 N582 0.984 . S
H590 N578 0.984 . S
H591 N578 0.985 . S
C161 C7 1.525 . S
C163 C115 1.511 . S
C181 C79 1.511 . S
C179 C16 1.525 . S
C199 C102 1.502 . S
C197 C25 1.507 . S
C217 C90 1.504 . S
C215 C34 1.505 . S
C235 C159 1.511 . S
C233 C43 1.525 . S
C253 C123 1.511 . S
C251 C52 1.525 . S
C269 C61 1.507 . S
C271 C146 1.502 . S
C289 C134 1.504 . S
C287 C70 1.506 . S
C305 C5 1.476 . S
C307 C156 1.483 . S
C325 C126 1.483 . S
C323 C14 1.477 . S
C341 C22 1.492 . S
C343 C145 1.489 . S
C359 C32 1.493 . S
C361 C131 1.492 . S
C379 C112 1.482 . S
C377 C41 1.476 . S
C395 C50 1.477 . S
C397 C82 1.483 . S
C415 C101 1.489 . S
C413 C58 1.493 . S
C433 C87 1.492 . S
C431 C68 1.493 . S
C451 C137 1.483 . S
C449 C4 1.494 . S
C469 C153 1.483 . S
C467 C13 1.495 . S
C485 C23 1.474 . S
C487 C124 1.478 . S
C505 C148 1.478 . S
C503 C31 1.471 . S
C523 C93 1.483 . S
C521 C40 1.494 . S
C539 C49 1.495 . S
C541 C109 1.483 . S
C557 C59 1.474 . S
C559 C80 1.478 . S
C575 C67 1.471 . S
C577 C104 1.478 . S
