# Generated by pormake.
# Topology pth, (4,4)-cn, num edge types: 1
# Building blocks:
#     Node 0, Type 0, BuildingBlock: QUQFOY_clean_sbu_3, # of connection points: 4
#     Node 1, Type 0, BuildingBlock: QUQFOY_clean_sbu_3, # of connection points: 4
#     Node 2, Type 0, BuildingBlock: QUQFOY_clean_sbu_3, # of connection points: 4
#     Node 3, Type 1, BuildingBlock: MUDLON_clean_linker_0, # of connection points: 4
#     Node 4, Type 1, BuildingBlock: MUDLON_clean_linker_0, # of connection points: 4
#     Node 5, Type 1, BuildingBlock: MUDLON_clean_linker_0, # of connection points: 4
#     Edge 6, Type (0, 1), BuildingBlock: FUNLAD_clean_linker_1, # of connection points: 2
#     Edge 7, Type (0, 1), BuildingBlock: FUNLAD_clean_linker_1, # of connection points: 2
#     Edge 8, Type (0, 1), BuildingBlock: FUNLAD_clean_linker_1, # of connection points: 2
#     Edge 9, Type (0, 1), BuildingBlock: FUNLAD_clean_linker_1, # of connection points: 2
#     Edge 10, Type (0, 1), BuildingBlock: FUNLAD_clean_linker_1, # of connection points: 2
#     Edge 11, Type (0, 1), BuildingBlock: FUNLAD_clean_linker_1, # of connection points: 2
#     Edge 12, Type (0, 1), BuildingBlock: FUNLAD_clean_linker_1, # of connection points: 2
#     Edge 13, Type (0, 1), BuildingBlock: FUNLAD_clean_linker_1, # of connection points: 2
#     Edge 14, Type (0, 1), BuildingBlock: FUNLAD_clean_linker_1, # of connection points: 2
#     Edge 15, Type (0, 1), BuildingBlock: FUNLAD_clean_linker_1, # of connection points: 2
#     Edge 16, Type (0, 1), BuildingBlock: FUNLAD_clean_linker_1, # of connection points: 2
#     Edge 17, Type (0, 1), BuildingBlock: FUNLAD_clean_linker_1, # of connection points: 2
# Relax obj value: 0.037
# Max RMSD: 0.098
# Mean RMSD: 0.090
data_MOF--net-pth--node1-QUQFOY_clean_sbu_3--node2-MUDLON_clean_linker_0--edge1-FUNLAD_clean_linker_1
_symmetry_space_group_name_H-M    P1
_symmetry_Int_Tables_number       1
_symmetry_cell_setting            triclinic
loop_
_symmetry_equiv_pos_as_xyz
'x, y, z'
_cell_length_a     35.045203
_cell_length_b     34.869996
_cell_length_c     72.543338
_cell_angle_alpha  89.83675
_cell_angle_beta   90.63041
_cell_angle_gamma 120.90949
loop_
_atom_site_label
_atom_site_type_symbol
_atom_site_fract_x
_atom_site_fract_y
_atom_site_fract_z
_atom_type_partial_charge
C0 C 0.99084 0.09721 0.06386 0.0
O1 O 0.96586 0.09493 0.05056 0.0
Cd2 Cd 0.95108 0.0484 0.02399 0.0
O3 O 0.00821 0.07288 0.06411 0.0
Cd4 Cd 0.0088 0.01379 0.04528 0.0
C5 C 0.05954 0.08835 0.01103 0.0
O6 O 0.93116 0.97612 0.03516 0.0
O7 O 0.97249 0.95583 0.02155 0.0
O8 O 0.00154 0.97742 0.07461 0.0
C9 C 0.93416 0.95027 0.02382 0.0
O10 O 0.02157 0.08352 0.00775 0.0
C11 C 0.03099 0.96744 0.07169 0.0
O12 O 0.06584 0.06895 0.02464 0.0
O13 O 0.05166 0.98011 0.05652 0.0
C14 C 0.10388 0.04816 0.39704 0.0
O15 O 0.124 0.06808 0.38244 0.0
Cd16 Cd 0.0858 0.07277 0.3557 0.0
O17 O 0.06205 0.03124 0.39839 0.0
Cd18 Cd -0.0009 0.02476 0.37971 0.0
C19 C 0.01173 0.96085 0.34842 0.0
O20 O 0.03779 0.09907 0.36527 0.0
O21 O 0.97305 0.05097 0.35417 0.0
O22 O 0.97348 0.03866 0.4087 0.0
C23 C 0.00585 0.09063 0.35436 0.0
O24 O 0.04548 -0.00292 0.34299 0.0
C25 C 0.93309 0.00835 0.4064 0.0
O26 O 0.98959 0.96038 0.3623 0.0
O27 O 0.92322 0.98477 0.39186 0.0
C28 C 0.94156 0.06174 0.68899 0.0
O29 O 0.9429 0.08177 0.70377 0.0
Cd30 Cd 0.98861 0.09059 0.72999 0.0
O31 O 0.96644 0.04529 0.68689 0.0
Cd32 Cd 0.02448 0.0401 0.70519 0.0
C33 C 0.94931 0.97934 0.73814 0.0
O34 O 0.06139 0.11479 0.7188 0.0
O35 O 0.07947 0.06915 0.73039 0.0
O36 O 0.07016 0.05537 0.67785 0.0
C37 C 0.086 0.1084 0.72972 0.0
O38 O 0.95294 0.01596 0.74333 0.0
C39 C 0.07355 0.02095 0.67937 0.0
O40 O 0.96991 0.97779 0.72409 0.0
O41 O 0.05281 0.99443 0.6925 0.0
H42 H 0.92495 0.67217 0.21848 0.0
N43 N 0.98405 0.653 0.2059 0.0
H44 H 0.93325 0.72019 0.2445 0.0
H45 H 0.05576 0.694 0.22936 0.0
H46 H 0.06467 0.74255 0.25549 0.0
H47 H 0.07114 0.71333 0.19783 0.0
H48 H 0.09784 0.76379 0.17132 0.0
H49 H 0.9367 0.65302 0.17714 0.0
H50 H 0.96301 0.70194 0.1503 0.0
H51 H 0.9527 0.59416 0.23366 0.0
H52 H 0.02968 0.6251 0.18379 0.0
H53 H 0.95701 0.52734 0.2376 0.0
H54 H 0.03199 0.55739 0.18734 0.0
H55 H 0.92768 0.29273 0.23423 0.0
H56 H 0.95025 0.26299 0.25972 0.0
H57 H 0.08518 0.3744 0.25531 0.0
H58 H 0.06204 0.40349 0.22949 0.0
H59 H 0.05255 0.37221 0.19829 0.0
H60 H 0.05482 0.33769 0.16939 0.0
H61 H 0.91407 0.2848 0.16129 0.0
H62 H 0.91211 0.31925 0.19041 0.0
H63 H 0.9179 0.38383 0.22402 0.0
H64 H 0.92362 0.45657 0.22319 0.0
H65 H 0.05924 0.51705 0.20444 0.0
N66 N 0.97836 0.36435 0.2142 0.0
H67 H 0.05224 0.44346 0.20462 0.0
C68 C 0.98959 0.67963 0.222 0.0
C69 C 0.95524 0.687 0.2267 0.0
C70 C 0.95996 0.71412 0.2417 0.0
C71 C -0.00058 0.73446 0.25233 0.0
C72 C 0.03384 0.72699 0.24762 0.0
C73 C 0.02891 0.69952 0.23266 0.0
C74 C 0.00167 0.67996 0.18957 0.0
C75 C 0.04739 0.71091 0.18757 0.0
C76 C 0.06262 0.73953 0.17236 0.0
C77 C 0.03253 0.73801 0.15902 0.0
C78 C 0.98708 0.70546 0.16064 0.0
C79 C 0.97193 0.67698 0.17584 0.0
C80 C 0.99176 0.61621 0.20875 0.0
C81 C 0.97126 0.58728 0.22372 0.0
C82 C 0.9732 0.54856 0.22584 0.0
C83 C 0.99464 0.53676 0.21273 0.0
C84 C 0.01584 0.5658 0.19788 0.0
C85 C 0.01435 0.60491 0.19585 0.0
C86 C 0.99289 0.35029 0.23008 0.0
C87 C 0.96194 0.31103 0.23901 0.0
C88 C 0.97499 0.29438 0.25373 0.0
C89 C 0.01957 0.31703 0.25992 0.0
C90 C 0.05057 0.35658 0.25098 0.0
C91 C 0.03738 0.37325 0.23623 0.0
C92 C 0.98182 0.34749 0.19662 0.0
C93 C 0.0222 0.35316 0.19033 0.0
C94 C 0.02337 0.33314 0.17383 0.0
C95 C 0.98424 0.30754 0.16332 0.0
C96 C 0.94456 0.30399 0.16921 0.0
C97 C 0.94334 0.32352 0.18579 0.0
C98 C 0.98453 0.40837 0.21451 0.0
C99 C 0.9489 0.41295 0.21987 0.0
C100 C 0.95245 0.45463 0.21951 0.0
C101 C 0.99206 0.49287 0.21387 0.0
C102 C 0.02815 0.48828 0.20871 0.0
C103 C 0.02438 0.44631 0.20897 0.0
H104 H 0.69571 0.04178 0.54342 0.0
N105 N 0.61604 0.96264 0.54158 0.0
H106 H 0.75595 0.06129 0.56561 0.0
H107 H 0.6141 0.91645 0.57121 0.0
H108 H 0.67405 0.93586 0.59362 0.0
H109 H 0.62652 0.8984 0.52753 0.0
H110 H 0.66458 0.90078 0.49906 0.0
H111 H 0.64534 0.02801 0.51517 0.0
H112 H 0.683 0.03034 0.48654 0.0
H113 H 0.62505 0.03484 0.56172 0.0
H114 H 0.53844 0.92951 0.52384 0.0
H115 H 0.57221 0.0594 0.56319 0.0
H116 H 0.48648 0.95625 0.52427 0.0
H117 H 0.40244 0.14272 0.5598 0.0
H118 H 0.35328 0.13922 0.58431 0.0
H119 H 0.29687 0.99621 0.58767 0.0
H120 H 0.34612 0.00032 0.56366 0.0
H121 H 0.32432 0.00362 0.53175 0.0
H122 H 0.28458 -0.00058 0.50336 0.0
H123 H 0.39161 0.13059 0.48799 0.0
H124 H 0.4314 0.13449 0.51664 0.0
H125 H 0.49076 0.12276 0.54819 0.0
H126 H 0.54326 0.09654 0.54752 0.0
H127 H 0.43329 0.96065 0.54108 0.0
N128 N 0.40335 0.07514 0.54374 0.0
H129 H 0.38184 0.98786 0.54029 0.0
C130 C 0.65031 0.97739 0.55565 0.0
C131 C 0.69058 0.01861 0.5544 0.0
C132 C 0.72496 0.02979 0.5671 0.0
C133 C 0.71966 0.0005 0.58148 0.0
C134 C 0.67898 0.95979 0.583 0.0
C135 C 0.64469 0.94846 0.57017 0.0
C136 C 0.633 0.9628 0.52349 0.0
C137 C 0.63825 0.927 0.5185 0.0
C138 C 0.6604 0.92867 0.50237 0.0
C139 C 0.67759 0.96631 0.49085 0.0
C140 C 0.67023 0.00112 0.49528 0.0
C141 C 0.64861 -0.00027 0.51158 0.0
C142 C 0.58623 0.97998 0.54247 0.0
C143 C 0.5951 0.01708 0.55344 0.0
C144 C 0.56464 0.03158 0.5542 0.0
C145 C 0.52485 0.0101 0.5438 0.0
C146 C 0.51621 0.97328 0.53278 0.0
C147 C 0.54622 0.9582 0.53232 0.0
C148 C 0.37838 0.07207 0.55991 0.0
C149 C 0.38013 0.11087 0.5662 0.0
C150 C 0.35188 0.10872 0.58011 0.0
C151 C 0.32119 0.06763 0.58812 0.0
C152 C 0.32038 0.02874 0.5822 0.0
C153 C 0.34874 0.03099 0.56826 0.0
C154 C 0.38068 0.06982 0.52642 0.0
C155 C 0.33938 0.03144 0.52231 0.0
C156 C 0.31643 0.02927 0.50609 0.0
C157 C 0.3345 0.06536 0.49369 0.0
C158 C 0.37677 0.10257 0.49741 0.0
C159 C 0.39948 0.10486 0.5137 0.0
C160 C 0.43246 0.05741 0.54465 0.0
C161 C 0.47818 0.0873 0.54675 0.0
C162 C 0.50808 0.07209 0.54647 0.0
C163 C 0.49278 0.02626 0.54435 0.0
C164 C 0.44662 0.99621 0.54248 0.0
C165 C 0.41684 0.01167 0.54238 0.0
H166 H 0.65115 0.77958 0.8933 0.0
N167 N 0.62432 0.70465 0.87464 0.0
H168 H 0.70321 0.8087 0.91926 0.0
H169 H 0.66072 0.6613 0.89228 0.0
H170 H 0.71303 0.69007 0.91845 0.0
H171 H 0.68712 0.68765 0.86131 0.0
H172 H 0.7337 0.72202 0.83481 0.0
H173 H 0.61702 0.75675 0.84988 0.0
H174 H 0.6644 0.79257 0.82318 0.0
H175 H 0.55086 0.68104 0.89311 0.0
H176 H 0.61073 0.62735 0.85794 0.0
H177 H 0.48462 0.60699 0.89568 0.0
H178 H 0.54378 0.55411 0.85935 0.0
H179 H 0.27573 0.38142 0.89967 0.0
H180 H 0.24616 0.33105 0.92574 0.0
H181 H 0.36047 0.31467 0.92507 0.0
H182 H 0.38916 0.36462 0.89863 0.0
H183 H 0.37384 0.34706 0.86646 0.0
H184 H 0.34273 0.2993 0.83916 0.0
H185 H 0.25879 0.35464 0.82893 0.0
H186 H 0.28918 0.40104 0.85649 0.0
H187 H 0.3545 0.48156 0.88132 0.0
H188 H 0.42204 0.55494 0.87942 0.0
H189 H 0.50048 0.49147 0.87746 0.0
N190 N 0.34746 0.40242 0.88043 0.0
H191 H 0.43243 0.4185 0.87797 0.0
C192 C 0.65205 0.71846 0.89094 0.0
C193 C 0.66398 0.7596 0.89898 0.0
C194 C 0.69349 0.77593 0.91395 0.0
C195 C 0.71162 0.75114 0.92121 0.0
C196 C 0.69925 0.70961 0.91324 0.0
C197 C 0.66947 0.6932 0.8983 0.0
C198 C 0.64853 0.71979 0.85763 0.0
C199 C 0.68144 0.70997 0.85293 0.0
C200 C 0.70853 0.7302 0.83768 0.0
C201 C 0.70364 0.76119 0.82693 0.0
C202 C 0.66927 0.76916 0.83122 0.0
C203 C 0.64209 0.7487 0.84641 0.0
C204 C 0.58563 0.66023 0.8752 0.0
C205 C 0.54942 0.65335 0.88574 0.0
C206 C 0.51143 0.61097 0.88706 0.0
C207 C 0.50839 0.57434 0.87756 0.0
C208 C 0.54495 0.58123 0.86706 0.0
C209 C 0.58336 0.62357 0.86604 0.0
C210 C 0.33465 0.37715 0.89727 0.0
C211 C 0.29479 0.36766 0.90545 0.0
C212 C 0.27812 0.33888 0.92052 0.0
C213 C 0.30138 0.3191 0.92784 0.0
C214 C 0.34199 0.32962 0.91986 0.0
C215 C 0.35852 0.35835 0.90472 0.0
C216 C 0.33318 0.37709 0.86359 0.0
C217 C 0.34883 0.34892 0.85832 0.0
C218 C 0.33103 0.32166 0.84271 0.0
C219 C 0.29727 0.32196 0.8322 0.0
C220 C 0.2834 0.35198 0.83705 0.0
C221 C 0.3011 0.37904 0.85266 0.0
C222 C 0.38842 0.44473 0.88013 0.0
C223 C 0.38641 0.48373 0.88053 0.0
C224 C 0.42516 0.52562 0.87959 0.0
C225 C 0.46707 0.52945 0.87848 0.0
C226 C 0.46893 0.49003 0.87811 0.0
C227 C 0.42994 0.44806 0.87872 0.0
H228 H 0.02123 0.12888 0.09059 0.0
C229 C -0.00014 0.12796 0.0794 0.0
H230 H 0.95965 0.15281 0.06953 0.0
H231 H 0.93415 0.19534 0.15266 0.0
H232 H 0.86581 0.12424 0.14843 0.0
H233 H 0.85285 0.07914 0.12038 0.0
H234 H 0.90855 0.10475 0.09649 0.0
C235 C 0.98208 0.15404 0.08028 0.0
C236 C 0.98948 0.18244 0.0967 0.0
C237 C 0.95602 0.16768 0.11023 0.0
C238 C 0.96298 0.1943 0.12613 0.0
C239 C 0.92998 0.17747 0.13993 0.0
C240 C 0.8907 0.13644 0.13777 0.0
C241 C 0.88344 0.11101 0.122 0.0
C242 C 0.91567 0.12616 0.10838 0.0
H243 H 0.95689 0.27523 0.13632 0.0
C244 C 0.98309 0.28313 0.14644 0.0
H245 H 0.03499 0.27179 0.15416 0.0
H246 H 0.06009 0.22037 0.07322 0.0
H247 H 0.12872 0.29155 0.0774 0.0
H248 H 0.14045 0.33837 0.10478 0.0
H249 H 0.08363 0.3143 0.12815 0.0
C250 C 0.00919 0.2657 0.14416 0.0
C251 C 0.00277 0.23647 0.12809 0.0
C252 C 0.03649 0.25089 0.11468 0.0
C253 C 0.0298 0.22386 0.09892 0.0
C254 C 0.06366 0.23938 0.08555 0.0
C255 C 0.10315 0.28024 0.08775 0.0
C256 C 0.10974 0.3066 0.10316 0.0
C257 C 0.07688 0.29236 0.11648 0.0
H258 H 0.91115 0.0177 0.43346 0.0
C259 C 0.89949 0.00183 0.42005 0.0
H260 H 0.84377 0.9633 0.40276 0.0
H261 H 0.70357 0.87543 0.4664 0.0
H262 H 0.6997 0.8109 0.45196 0.0
H263 H 0.7523 0.82011 0.4276 0.0
H264 H 0.80873 0.89385 0.41739 0.0
C265 C 0.8557 0.97932 0.41612 0.0
C266 C 0.82243 0.97399 0.43011 0.0
C267 C 0.78989 0.93058 0.43604 0.0
C268 C 0.76017 0.92528 0.45037 0.0
C269 C 0.72753 0.88148 0.45581 0.0
C270 C 0.72483 0.84409 0.4476 0.0
C271 C 0.7544 0.84928 0.43387 0.0
C272 C 0.78663 0.89189 0.42812 0.0
H273 H 0.7031 0.98879 0.46263 0.0
C274 C 0.70471 0.97071 0.47456 0.0
H275 H 0.73713 0.94003 0.48693 0.0
H276 H 0.87331 0.06133 0.41912 0.0
H277 H 0.87954 0.1261 0.43436 0.0
H278 H 0.83506 0.11746 0.46187 0.0
H279 H 0.7831 0.0441 0.47386 0.0
C280 C 0.73434 0.9571 0.4749 0.0
C281 C 0.76352 0.96336 0.459 0.0
C282 C 0.79583 0.00685 0.45295 0.0
C283 C 0.82397 0.01204 0.43797 0.0
C284 C 0.85316 0.05559 0.43116 0.0
C285 C 0.85677 0.09307 0.43967 0.0
C286 C 0.83155 0.08819 0.45509 0.0
C287 C 0.80147 0.04572 0.46173 0.0
H288 H 0.91851 0.90713 0.74421 0.0
C289 C 0.92011 0.93785 0.74838 0.0
H290 H 0.8973 0.96802 0.76698 0.0
H291 H 0.73407 0.75963 0.77632 0.0
H292 H 0.71606 0.76346 0.7442 0.0
H293 H 0.76585 0.82868 0.72514 0.0
H294 H 0.8342 0.89001 0.73794 0.0
C295 C 0.8951 0.93728 0.76242 0.0
C296 C 0.86616 0.89624 0.7732 0.0
C297 C 0.82586 0.86116 0.76553 0.0
C298 C 0.79624 0.82437 0.7767 0.0
C299 C 0.75693 0.78905 0.76859 0.0
C300 C 0.74634 0.7907 0.75016 0.0
C301 C 0.77444 0.82736 0.73942 0.0
C302 C 0.81372 0.86231 0.74693 0.0
H303 H 0.72815 0.81124 0.80458 0.0
C304 C 0.7349 0.78811 0.81198 0.0
H305 H 0.78241 0.76805 0.81549 0.0
H306 H 0.94251 0.95584 0.79162 0.0
H307 H 0.96014 0.95222 0.82378 0.0
H308 H 0.90751 0.88994 0.84348 0.0
H309 H 0.83717 0.83082 0.83115 0.0
C310 C 0.77279 0.78886 0.80812 0.0
C311 C 0.80622 0.82361 0.79565 0.0
C312 C 0.84734 0.85776 0.80311 0.0
C313 C 0.87737 0.89404 0.79185 0.0
C314 C 0.91819 0.92782 0.79964 0.0
C315 C 0.9288 0.92611 0.81806 0.0
C316 C 0.8992 0.89102 0.82914 0.0
C317 C 0.8589 0.85722 0.82185 0.0
H318 H 0.01979 0.93201 0.09794 0.0
C319 C 0.03824 0.94009 0.08514 0.0
H320 H 0.07977 0.9274 0.06855 0.0
H321 H 0.07456 0.85497 0.1555 0.0
H322 H 0.11897 0.93352 0.16363 0.0
H323 H 0.13895 0.99191 0.1401 0.0
H324 H 0.11401 0.97192 0.1083 0.0
C325 C 0.06289 0.92162 0.08164 0.0
C326 C 0.06142 0.88756 0.09452 0.0
C327 C 0.07788 0.89968 0.11282 0.0
C328 C 0.06748 0.866 0.12624 0.0
C329 C 0.08225 0.8791 0.14465 0.0
C330 C 0.10772 0.92411 0.14951 0.0
C331 C 0.11888 0.95699 0.13628 0.0
C332 C 0.10418 0.94511 0.11812 0.0
H333 H 0.08442 0.78766 0.14041 0.0
C334 C 0.04939 0.77138 0.14388 0.0
H335 H 0.9893 0.77068 0.13899 0.0
H336 H 0.03045 0.85313 0.05999 0.0
H337 H 0.99009 0.77467 0.05141 0.0
H338 H 0.97348 0.71628 0.07456 0.0
H339 H -0.00295 0.73605 0.10648 0.0
C340 C 0.02401 0.78497 0.13547 0.0
C341 C 0.04173 0.82028 0.12113 0.0
C342 C 0.02872 0.80829 0.10249 0.0
C343 C 0.03865 0.84198 0.08913 0.0
C344 C 0.02404 0.82895 0.0707 0.0
C345 C 0.00085 0.78402 0.06558 0.0
C346 C 0.99147 0.75113 0.07861 0.0
C347 C 0.00508 0.76292 0.09688 0.0
H348 H 0.11026 0.0267 0.42498 0.0
C349 C 0.12865 0.04393 0.41269 0.0
H350 H 0.19193 0.07868 0.40027 0.0
H351 H 0.2881 0.12863 0.47895 0.0
H352 H 0.29641 0.19961 0.47025 0.0
H353 H 0.25973 0.20618 0.44221 0.0
H354 H 0.21411 0.14155 0.42281 0.0
C355 C 0.17267 0.06026 0.41219 0.0
C356 C 0.19683 0.05645 0.42839 0.0
C357 C 0.22448 0.0948 0.43926 0.0
C358 C 0.24649 0.09122 0.45517 0.0
C359 C 0.27193 0.12964 0.46633 0.0
C360 C 0.27668 0.1706 0.46159 0.0
C361 C 0.25597 0.17428 0.44583 0.0
C362 C 0.22996 0.13691 0.43479 0.0
H363 H 0.32907 0.0865 0.46546 0.0
C364 C 0.30992 0.06577 0.47699 0.0
H365 H 0.24512 0.02538 0.48769 0.0
H366 H 0.14847 0.97702 0.40982 0.0
H367 H 0.14035 0.90593 0.41838 0.0
H368 H 0.17857 0.89964 0.44597 0.0
H369 H 0.22525 0.96446 0.46513 0.0
C370 C 0.26532 0.04542 0.47626 0.0
C371 C 0.24189 0.04946 0.45982 0.0
C372 C 0.21427 0.01113 0.44892 0.0
C373 C 0.1919 0.01466 0.43312 0.0
C374 C 0.1655 0.97607 0.42218 0.0
C375 C 0.16074 0.93508 0.42688 0.0
C376 C 0.18229 0.93155 0.4424 0.0
C377 C 0.20891 0.96903 0.45331 0.0
H378 H 0.11791 0.17559 0.74217 0.0
C379 C 0.11668 0.14379 0.74254 0.0
H380 H 0.13951 0.1053 0.75592 0.0
H381 H 0.28065 0.31776 0.78136 0.0
H382 H 0.30501 0.32967 0.74961 0.0
H383 H 0.26809 0.26911 0.7266 0.0
H384 H 0.20608 0.19646 0.73515 0.0
C385 C 0.14152 0.1374 0.75498 0.0
C386 C 0.16797 0.17194 0.76919 0.0
C387 C 0.20527 0.21361 0.7641 0.0
C388 C 0.22767 0.24794 0.77753 0.0
C389 C 0.26332 0.29001 0.77188 0.0
C390 C 0.27753 0.29738 0.75367 0.0
C391 C 0.25666 0.26333 0.74069 0.0
C392 C 0.22094 0.22187 0.74577 0.0
H393 H 0.29481 0.27519 0.81091 0.0
C394 C 0.27668 0.28999 0.8166 0.0
H395 H 0.21481 0.28701 0.81659 0.0
H396 H 0.099 0.09505 0.78367 0.0
H397 H 0.07688 0.08188 0.81569 0.0
H398 H 0.1174 0.14049 0.8392 0.0
H399 H 0.18011 0.21272 0.8308 0.0
C400 C 0.23536 0.27592 0.81021 0.0
C401 C 0.21363 0.23989 0.79613 0.0
C402 C 0.17748 0.1976 0.80134 0.0
C403 C 0.15457 0.1636 0.78785 0.0
C404 C 0.11796 0.12196 0.79337 0.0
C405 C 0.10485 0.11394 0.81172 0.0
C406 C 0.12762 0.14695 0.82495 0.0
C407 C 0.16351 0.18833 0.81991 0.0
H408 H 0.88537 0.06647 0.67806 0.0
C409 C 0.90883 0.05597 0.67469 0.0
H410 H 0.92836 0.02565 0.65474 0.0
H411 H 0.74005 0.91932 0.61564 0.0
H412 H 0.75034 0.85971 0.62689 0.0
H413 H 0.81449 0.87617 0.64683 0.0
H414 H 0.869 0.95233 0.65545 0.0
C415 C 0.90593 0.03737 0.65815 0.0
C416 C 0.86901 0.02804 0.64506 0.0
C417 C 0.83718 0.98319 0.6403 0.0
C418 C 0.79965 0.97361 0.62913 0.0
C419 C 0.76879 0.92854 0.62434 0.0
C420 C 0.77432 0.89394 0.63067 0.0
C421 C 0.81046 0.90321 0.64187 0.0
C422 C 0.84158 0.94718 0.6467 0.0
H423 H 0.79127 0.0345 0.58857 0.0
C424 C 0.75809 0.01232 0.59389 0.0
H425 H 0.72131 0.97639 0.61723 0.0
H426 H 0.9279 0.11806 0.64854 0.0
H427 H 0.91605 0.17762 0.63853 0.0
H428 H 0.84682 0.16054 0.62229 0.0
H429 H 0.78974 0.08401 0.61549 0.0
C430 C 0.75393 -0.00192 0.6114 0.0
C431 C 0.79363 0.0088 0.62296 0.0
C432 C 0.82545 0.0537 0.62775 0.0
C433 C 0.86399 0.0634 0.63821 0.0
C434 C 0.89688 0.10868 0.64155 0.0
C435 C 0.89069 0.14322 0.63574 0.0
C436 C 0.85182 0.13362 0.62651 0.0
C437 C 0.81946 0.08948 0.62255 0.0
H438 H 0.86518 0.91987 0.01355 0.0
C439 C 0.8958 0.91938 0.01224 0.0
H440 H 0.92909 0.89271 -0.00213 0.0
H441 H 0.7131 0.75659 0.97733 0.0
H442 H 0.70463 0.73431 0.00949 0.0
H443 H 0.76799 0.77139 0.0313 0.0
H444 H 0.84007 0.83117 0.02113 0.0
C445 C 0.89824 0.8925 -0.00031 0.0
C446 C 0.86112 0.86654 0.98639 0.0
C447 C 0.81949 0.83108 0.99252 0.0
C448 C 0.78319 0.80913 0.97989 0.0
C449 C 0.74177 0.77427 0.98637 0.0
C450 C 0.7365 0.76111 0.00477 0.0
C451 C 0.77216 0.78203 0.01705 0.0
C452 C 0.81327 0.81652 0.01107 0.0
H453 H 0.76929 0.75748 0.9368 0.0
C454 C 0.74604 0.76935 0.93603 0.0
H455 H 0.72655 0.8114 0.94859 0.0
H456 H 0.93719 0.93163 0.96992 0.0
H457 H 0.9459 0.95248 0.93767 0.0
H458 H 0.8829 0.91428 0.91578 0.0
H459 H 0.81085 0.85497 0.92601 0.0
C460 C 0.75053 0.80058 0.94812 0.0
C461 C 0.7889 0.82201 0.96113 0.0
C462 C 0.83088 0.85648 0.95487 0.0
C463 C 0.86711 0.87862 0.9675 0.0
C464 C 0.90853 0.91343 0.96093 0.0
C465 C 0.914 0.92584 0.94244 0.0
C466 C 0.87854 0.90433 0.93012 0.0
C467 C 0.83737 0.87017 0.93618 0.0
H468 H 0.96738 0.88867 0.34266 0.0
C469 C -0.00248 0.91881 0.33837 0.0
H470 H 0.05069 0.94692 0.31949 0.0
H471 H 0.01508 0.74958 0.30381 0.0
H472 H 0.06268 0.76567 0.33077 0.0
H473 H 0.08465 0.8324 0.34991 0.0
H474 H 0.05874 0.8832 0.34231 0.0
C475 C 0.02043 0.91721 0.32397 0.0
C476 C 0.00488 0.8755 0.31325 0.0
C477 C 0.02082 0.84661 0.31773 0.0
C478 C 0.00901 0.80875 0.30645 0.0
C479 C 0.02421 0.7796 0.31157 0.0
C480 C 0.05128 0.78827 0.32708 0.0
C481 C 0.06359 0.8258 0.33788 0.0
C482 C 0.04857 0.85472 0.33335 0.0
H483 H 0.04085 0.79227 0.27056 0.0
C484 C 0.0068 0.76607 0.2675 0.0
H485 H 0.93934 0.73803 0.27488 0.0
H486 H 0.96657 0.92286 0.30162 0.0
H487 H 0.91822 0.90643 0.27492 0.0
H488 H 0.89864 0.8415 0.25499 0.0
H489 H 0.92717 0.79263 0.26163 0.0
C490 C 0.9736 0.76421 0.27736 0.0
C491 C 0.98219 0.80062 0.29046 0.0
C492 C 0.96469 0.8285 0.28645 0.0
C493 C 0.97613 0.86604 0.29787 0.0
C494 C 0.95891 0.89387 0.2934 0.0
C495 C 0.93114 0.88484 0.27811 0.0
C496 C 0.9201 0.84828 0.2669 0.0
C497 C 0.93668 0.82042 0.27091 0.0
H498 H 0.10361 0.9829 0.66914 0.0
C499 C 0.10228 0.01311 0.66717 0.0
H500 H 0.12931 0.07482 0.65331 0.0
H501 H 0.31287 0.08975 0.63735 0.0
H502 H 0.3339 0.1439 0.66205 0.0
H503 H 0.27697 0.15068 0.67898 0.0
H504 H 0.19867 0.1031 0.67141 0.0
C505 C 0.12885 0.04355 0.65474 0.0
C506 C 0.16272 0.0387 0.6445 0.0
C507 C 0.20843 0.06735 0.64887 0.0
C508 C 0.24133 0.06405 0.63889 0.0
C509 C 0.2866 0.09185 0.64406 0.0
C510 C 0.29912 0.12284 0.65832 0.0
C511 C 0.26707 0.12662 0.66787 0.0
C512 C 0.22222 0.09917 0.66333 0.0
H513 H 0.28609 0.09638 0.60234 0.0
C514 C 0.2889 0.06677 0.60153 0.0
H515 H 0.26399 0.00158 0.61232 0.0
H516 H 0.07807 0.97925 0.63236 0.0
H517 H 0.05705 0.92447 0.60793 0.0
H518 H 0.11407 0.9185 0.5907 0.0
H519 H 0.19247 0.96737 0.59774 0.0
C520 C 0.26273 0.03198 0.61249 0.0
C521 C 0.2285 0.03284 0.62421 0.0
C522 C 0.18273 0.00332 0.62019 0.0
C523 C 0.14979 0.00644 0.63026 0.0
C524 C 0.10443 0.97771 0.62545 0.0
C525 C 0.09189 0.94625 0.61137 0.0
C526 C 0.124 0.94292 0.60166 0.0
C527 C 0.16892 0.97116 0.60588 0.0
H528 H 0.08805 0.13203 0.98705 0.0
C529 C 0.09636 0.1185 -0.00106 0.0
H530 H 0.14882 0.1209 0.01462 0.0
H531 H 0.21579 0.20967 0.92986 0.0
H532 H 0.17353 0.13321 0.91902 0.0
H533 H 0.13268 0.07101 0.94078 0.0
H534 H 0.13331 0.08535 0.97359 0.0
C535 C 0.13921 0.13208 0.00238 0.0
C536 C 0.17418 0.167 0.99045 0.0
C537 C 0.17582 0.158 0.97153 0.0
C538 C 0.20106 0.19373 0.95914 0.0
C539 C 0.19892 0.18392 0.94008 0.0
C540 C 0.17446 0.14006 0.93362 0.0
C541 C 0.15134 0.10506 0.94585 0.0
C542 C 0.15178 0.11374 0.9646 0.0
H543 H 0.29685 0.26347 0.94447 0.0
C544 C 0.28266 0.2846 0.94258 0.0
H545 H 0.23444 0.29856 0.95255 0.0
H546 H 0.18327 0.1946 0.02634 0.0
H547 H 0.22973 0.27049 0.03774 0.0
H548 H 0.27587 0.33224 0.01648 0.0
H549 H 0.27559 0.31852 0.98365 0.0
C550 C 0.24775 0.27656 0.95296 0.0
C551 C 0.2264 0.23823 0.96593 0.0
C552 C 0.22788 0.24658 0.98512 0.0
C553 C 0.20171 0.21091 -0.0026 0.0
C554 C 0.20268 0.22044 0.01642 0.0
C555 C 0.22925 0.26383 0.02314 0.0
C556 C 0.2552 0.29861 0.01117 0.0
C557 C 0.25463 0.2903 0.99237 0.0
H558 H 0.97936 0.11279 0.33186 0.0
C559 C 0.0074 0.12375 0.34133 0.0
H560 H 0.06943 0.17831 0.35014 0.0
H561 H 0.02247 0.21967 0.26499 0.0
H562 H 0.04021 0.16433 0.25527 0.0
H563 H 0.06019 0.12473 0.27807 0.0
H564 H 0.06173 0.13985 0.31081 0.0
C565 C 0.04163 0.16606 0.3405 0.0
C566 C 0.04056 0.19734 0.3268 0.0
C567 C 0.04214 0.1899 0.3077 0.0
C568 C 0.03249 0.21413 0.29455 0.0
C569 C 0.03118 0.20362 0.2756 0.0
C570 C 0.04107 0.17166 0.26981 0.0
C571 C 0.05217 0.14926 0.28264 0.0
C572 C 0.05268 0.15807 0.30138 0.0
H573 H 0.07017 0.30867 0.27504 0.0
C574 C 0.03517 0.29851 0.27468 0.0
H575 H 0.97352 0.26051 0.2882 0.0
H576 H 0.04054 0.22348 0.36231 0.0
H577 H 0.02752 0.28231 0.37213 0.0
H578 H 0.01307 0.32609 0.34932 0.0
H579 H 0.01133 0.3112 0.31653 0.0
C580 C 0.00782 0.26885 0.28719 0.0
C581 C 0.02318 0.24715 0.30058 0.0
C582 C 0.02493 0.25685 0.31964 0.0
C583 C 0.03368 0.23192 0.33278 0.0
C584 C 0.03421 0.24156 0.35175 0.0
C585 C 0.02684 0.27525 0.35757 0.0
C586 C 0.01867 0.29989 0.34472 0.0
C587 C 0.01764 0.29093 0.32596 0.0
loop_
_geom_bond_atom_site_label_1
_geom_bond_atom_site_label_2
_geom_bond_distance
_geom_bond_site_symmetry_2
_ccdc_geom_bond_type
C0 O1 1.306 1_455 S
C0 O3 1.160 . S
O1 C0 1.306 1_655 S
O1 Cd2 2.228 . S
Cd2 O1 2.228 . S
Cd2 O6 2.273 . S
Cd2 O10 2.277 1_655 S
O3 C0 1.160 . S
O3 Cd4 2.203 . S
Cd4 O3 2.203 . S
Cd4 O6 2.411 1_455 S
Cd4 O7 2.333 1_445 S
Cd4 O8 2.352 1_445 S
Cd4 O12 2.277 . S
Cd4 O13 2.356 1_545 S
C5 O10 1.209 . S
C5 O12 1.226 . S
O6 Cd2 2.273 . S
O6 Cd4 2.411 1_655 S
O6 C9 1.320 1_545 S
O7 Cd4 2.333 1_665 S
O7 C9 1.214 . S
O8 Cd4 2.352 1_665 S
O8 C11 1.258 1_655 S
C9 O6 1.320 1_565 S
C9 O7 1.214 . S
O10 Cd2 2.277 1_455 S
O10 C5 1.209 . S
C11 O8 1.258 1_455 S
C11 O13 1.282 . S
O12 Cd4 2.277 . S
O12 C5 1.226 . S
O13 Cd4 2.356 1_565 S
O13 C11 1.282 . S
C14 O15 1.306 . S
C14 O17 1.160 . S
O15 C14 1.306 . S
O15 Cd16 2.228 . S
Cd16 O15 2.228 . S
Cd16 O20 2.273 . S
Cd16 O24 2.277 1_545 S
O17 C14 1.160 . S
O17 Cd18 2.203 1_455 S
Cd18 O17 2.203 1_655 S
Cd18 O20 2.411 1_655 S
Cd18 O21 2.333 . S
Cd18 O22 2.352 . S
Cd18 O26 2.277 1_545 S
Cd18 O27 2.356 1_545 S
C19 O24 1.209 . S
C19 O26 1.226 1_455 S
O20 Cd16 2.273 . S
O20 Cd18 2.411 1_455 S
O20 C23 1.320 . S
O21 Cd18 2.333 . S
O21 C23 1.214 1_655 S
O22 Cd18 2.352 . S
O22 C25 1.258 . S
C23 O20 1.320 . S
C23 O21 1.214 1_455 S
O24 Cd16 2.277 1_565 S
O24 C19 1.209 . S
C25 O22 1.258 . S
C25 O27 1.282 1_545 S
O26 Cd18 2.277 1_565 S
O26 C19 1.226 1_655 S
O27 Cd18 2.356 1_565 S
O27 C25 1.282 1_565 S
C28 O29 1.306 . S
C28 O31 1.160 . S
O29 C28 1.306 . S
O29 Cd30 2.228 . S
Cd30 O29 2.228 . S
Cd30 O34 2.273 1_655 S
Cd30 O38 2.277 . S
O31 C28 1.160 . S
O31 Cd32 2.203 1_655 S
Cd32 O31 2.203 1_455 S
Cd32 O34 2.411 . S
Cd32 O35 2.333 . S
Cd32 O36 2.352 . S
Cd32 O40 2.277 1_445 S
Cd32 O41 2.356 1_545 S
C33 O38 1.209 1_565 S
C33 O40 1.226 . S
O34 Cd30 2.273 1_455 S
O34 Cd32 2.411 . S
O34 C37 1.320 . S
O35 Cd32 2.333 . S
O35 C37 1.214 . S
O36 Cd32 2.352 . S
O36 C39 1.258 . S
C37 O34 1.320 . S
C37 O35 1.214 . S
O38 Cd30 2.277 . S
O38 C33 1.209 1_545 S
C39 O36 1.258 . S
C39 O41 1.282 1_545 S
O40 Cd32 2.277 1_665 S
O40 C33 1.226 . S
O41 Cd32 2.356 1_565 S
O41 C39 1.282 1_565 S
H42 C69 0.945 . S
N43 C68 1.433 . S
N43 C74 1.435 . S
N43 C80 1.423 . S
H44 C70 0.930 1_655 S
H45 C73 0.931 . S
H46 C72 0.929 . S
H47 C75 0.930 . S
H48 C76 0.932 . S
H49 C79 0.929 . S
H50 C78 0.920 1_655 S
H51 C81 0.929 . S
H52 C85 0.932 . S
H53 C82 0.931 . S
H54 C84 0.929 . S
H55 C87 0.933 . S
H56 C88 0.930 1_655 S
H57 C90 0.929 . S
H58 C91 0.931 . S
H59 C93 0.930 . S
H60 C94 0.932 . S
H61 C96 0.916 1_655 S
H62 C97 0.929 . S
H63 C99 0.929 . S
H64 C100 0.931 . S
H65 C102 0.929 . S
N66 C86 1.433 . S
N66 C92 1.435 . S
N66 C98 1.423 . S
H67 C103 0.932 . S
C68 N43 1.433 . S
C68 C69 1.346 1_455 S
C68 C73 1.370 . S
C69 H42 0.945 . S
C69 C68 1.346 1_655 S
C69 C70 1.387 1_655 S
C70 H44 0.930 1_455 S
C70 C69 1.387 1_455 S
C70 C71 1.357 . S
C71 C70 1.357 . S
C71 C72 1.406 . S
C72 H46 0.929 . S
C72 C71 1.406 . S
C72 C73 1.391 . S
C73 H45 0.931 . S
C73 C68 1.370 . S
C73 C72 1.391 . S
C74 N43 1.435 . S
C74 C75 1.358 . S
C74 C79 1.371 1_455 S
C75 H47 0.930 . S
C75 C74 1.358 . S
C75 C76 1.405 . S
C76 H48 0.932 . S
C76 C75 1.405 . S
C76 C77 1.383 . S
C77 C76 1.383 . S
C77 C78 1.399 . S
C78 H50 0.920 1_455 S
C78 C77 1.399 . S
C78 C79 1.388 1_455 S
C79 H49 0.929 . S
C79 C74 1.371 1_655 S
C79 C78 1.388 1_655 S
C80 N43 1.423 . S
C80 C81 1.362 1_455 S
C80 C85 1.388 . S
C81 H51 0.929 . S
C81 C80 1.362 1_655 S
C81 C82 1.376 . S
C82 H53 0.931 . S
C82 C81 1.376 . S
C82 C83 1.379 1_655 S
C83 C82 1.379 1_455 S
C83 C84 1.353 . S
C83 C101 1.472 . S
C84 H54 0.929 . S
C84 C83 1.353 . S
C84 C85 1.443 . S
C85 H52 0.932 . S
C85 C80 1.388 . S
C85 C84 1.443 . S
C86 N66 1.433 . S
C86 C87 1.366 1_455 S
C86 C91 1.370 . S
C87 H55 0.933 . S
C87 C86 1.366 1_655 S
C87 C88 1.380 1_655 S
C88 H56 0.930 1_455 S
C88 C87 1.380 1_455 S
C88 C89 1.357 . S
C89 C88 1.357 . S
C89 C90 1.406 . S
C90 H57 0.929 . S
C90 C89 1.406 . S
C90 C91 1.391 . S
C91 H58 0.931 . S
C91 C86 1.370 . S
C91 C90 1.391 . S
C92 N66 1.435 . S
C92 C93 1.358 . S
C92 C97 1.371 1_455 S
C93 H59 0.930 . S
C93 C92 1.358 . S
C93 C94 1.405 . S
C94 H60 0.932 . S
C94 C93 1.405 . S
C94 C95 1.383 . S
C95 C94 1.383 . S
C95 C96 1.421 . S
C96 H61 0.916 1_455 S
C96 C95 1.421 . S
C96 C97 1.369 1_455 S
C97 H62 0.929 . S
C97 C92 1.371 1_655 S
C97 C96 1.369 1_655 S
C98 N66 1.423 . S
C98 C99 1.362 1_455 S
C98 C103 1.388 . S
C99 H63 0.929 . S
C99 C98 1.362 1_655 S
C99 C100 1.376 . S
C100 H64 0.931 . S
C100 C99 1.376 . S
C100 C101 1.391 1_655 S
C101 C83 1.472 . S
C101 C100 1.391 1_455 S
C101 C102 1.365 . S
C102 H65 0.929 . S
C102 C101 1.365 . S
C102 C103 1.443 . S
C103 H67 0.932 . S
C103 C98 1.388 . S
C103 C102 1.443 . S
H104 C131 0.929 . S
N105 C130 1.433 . S
N105 C136 1.435 . S
N105 C142 1.423 . S
H106 C132 0.930 . S
H107 C135 0.934 1_565 S
H108 C134 0.929 1_565 S
H109 C137 0.930 1_565 S
H110 C138 0.932 . S
H111 C141 0.929 . S
H112 C140 0.931 . S
H113 C143 0.929 . S
H114 C147 0.932 . S
H115 C144 0.931 . S
H116 C146 0.929 . S
H117 C149 0.929 . S
H118 C150 0.930 . S
H119 C152 0.929 1_565 S
H120 C153 0.908 1_565 S
H121 C155 0.930 1_565 S
H122 C156 0.932 . S
H123 C158 0.931 . S
H124 C159 0.929 . S
H125 C161 0.929 . S
H126 C162 0.931 . S
H127 C164 0.929 . S
N128 C148 1.433 . S
N128 C154 1.435 . S
N128 C160 1.423 . S
H129 C165 0.932 . S
C130 N105 1.433 . S
C130 C131 1.363 . S
C130 C135 1.370 . S
C131 H104 0.929 . S
C131 C130 1.363 . S
C131 C132 1.385 . S
C132 H106 0.930 . S
C132 C131 1.385 . S
C132 C133 1.357 . S
C133 C132 1.357 . S
C133 C134 1.406 . S
C134 H108 0.929 1_545 S
C134 C133 1.406 . S
C134 C135 1.391 . S
C135 H107 0.934 1_545 S
C135 C130 1.370 . S
C135 C134 1.391 . S
C136 N105 1.435 . S
C136 C137 1.358 . S
C136 C141 1.371 . S
C137 H109 0.930 1_545 S
C137 C136 1.358 . S
C137 C138 1.405 1_545 S
C138 H110 0.932 . S
C138 C137 1.405 1_565 S
C138 C139 1.383 1_565 S
C139 C138 1.383 1_545 S
C139 C140 1.393 . S
C140 H112 0.931 . S
C140 C139 1.393 . S
C140 C141 1.382 . S
C141 H111 0.929 . S
C141 C136 1.371 . S
C141 C140 1.382 . S
C142 N105 1.423 . S
C142 C143 1.362 . S
C142 C147 1.388 . S
C143 H113 0.929 . S
C143 C142 1.362 . S
C143 C144 1.376 . S
C144 H115 0.931 . S
C144 C143 1.376 . S
C144 C145 1.396 . S
C145 C144 1.396 . S
C145 C146 1.348 . S
C145 C163 1.472 . S
C146 H116 0.929 . S
C146 C145 1.348 . S
C146 C147 1.443 . S
C147 H114 0.932 . S
C147 C142 1.388 . S
C147 C146 1.443 . S
C148 N128 1.433 . S
C148 C149 1.363 . S
C148 C153 1.370 . S
C149 H117 0.929 . S
C149 C148 1.363 . S
C149 C150 1.385 . S
C150 H118 0.930 . S
C150 C149 1.385 . S
C150 C151 1.357 . S
C151 C150 1.357 . S
C151 C152 1.406 . S
C152 H119 0.929 1_545 S
C152 C151 1.406 . S
C152 C153 1.391 . S
C153 H120 0.908 1_545 S
C153 C148 1.370 . S
C153 C152 1.391 . S
C154 N128 1.435 . S
C154 C155 1.358 . S
C154 C159 1.371 . S
C155 H121 0.930 1_545 S
C155 C154 1.358 . S
C155 C156 1.405 1_545 S
C156 H122 0.932 . S
C156 C155 1.405 1_565 S
C156 C157 1.383 1_565 S
C157 C156 1.383 1_545 S
C157 C158 1.393 . S
C158 H123 0.931 . S
C158 C157 1.393 . S
C158 C159 1.382 . S
C159 H124 0.929 . S
C159 C154 1.371 . S
C159 C158 1.382 . S
C160 N128 1.423 . S
C160 C161 1.362 . S
C160 C165 1.388 . S
C161 H125 0.929 . S
C161 C160 1.362 . S
C161 C162 1.376 . S
C162 H126 0.931 . S
C162 C161 1.376 . S
C162 C163 1.396 . S
C163 C145 1.472 . S
C163 C162 1.396 . S
C163 C164 1.348 . S
C164 H127 0.929 . S
C164 C163 1.348 . S
C164 C165 1.443 . S
C165 H129 0.932 . S
C165 C160 1.388 . S
C165 C164 1.443 . S
H166 C193 0.929 . S
N167 C192 1.433 . S
N167 C198 1.435 . S
N167 C204 1.423 . S
H168 C194 0.930 . S
H169 C197 0.931 . S
H170 C196 0.929 . S
H171 C199 0.930 . S
H172 C200 0.932 . S
H173 C203 0.929 . S
H174 C202 0.931 . S
H175 C205 0.929 . S
H176 C209 0.932 . S
H177 C206 0.931 . S
H178 C208 0.929 . S
H179 C211 0.929 . S
H180 C212 0.930 . S
H181 C214 0.929 . S
H182 C215 0.931 . S
H183 C217 0.930 . S
H184 C218 0.932 . S
H185 C220 0.931 . S
H186 C221 0.929 . S
H187 C223 0.929 . S
H188 C224 0.931 . S
H189 C226 0.929 . S
N190 C210 1.433 . S
N190 C216 1.435 . S
N190 C222 1.423 . S
H191 C227 0.932 . S
C192 N167 1.433 . S
C192 C193 1.363 . S
C192 C197 1.370 . S
C193 H166 0.929 . S
C193 C192 1.363 . S
C193 C194 1.385 . S
C194 H168 0.930 . S
C194 C193 1.385 . S
C194 C195 1.357 . S
C195 C194 1.357 . S
C195 C196 1.406 . S
C196 H170 0.929 . S
C196 C195 1.406 . S
C196 C197 1.391 . S
C197 H169 0.931 . S
C197 C192 1.370 . S
C197 C196 1.391 . S
C198 N167 1.435 . S
C198 C199 1.358 . S
C198 C203 1.371 . S
C199 H171 0.930 . S
C199 C198 1.358 . S
C199 C200 1.405 . S
C200 H172 0.932 . S
C200 C199 1.405 . S
C200 C201 1.383 . S
C201 C200 1.383 . S
C201 C202 1.393 . S
C202 H174 0.931 . S
C202 C201 1.393 . S
C202 C203 1.382 . S
C203 H173 0.929 . S
C203 C198 1.371 . S
C203 C202 1.382 . S
C204 N167 1.423 . S
C204 C205 1.362 . S
C204 C209 1.388 . S
C205 H175 0.929 . S
C205 C204 1.362 . S
C205 C206 1.376 . S
C206 H177 0.931 . S
C206 C205 1.376 . S
C206 C207 1.396 . S
C207 C206 1.396 . S
C207 C208 1.348 . S
C207 C225 1.472 . S
C208 H178 0.929 . S
C208 C207 1.348 . S
C208 C209 1.443 . S
C209 H176 0.932 . S
C209 C204 1.388 . S
C209 C208 1.443 . S
C210 N190 1.433 . S
C210 C211 1.363 . S
C210 C215 1.370 . S
C211 H179 0.929 . S
C211 C210 1.363 . S
C211 C212 1.385 . S
C212 H180 0.930 . S
C212 C211 1.385 . S
C212 C213 1.357 . S
C213 C212 1.357 . S
C213 C214 1.406 . S
C214 H181 0.929 . S
C214 C213 1.406 . S
C214 C215 1.391 . S
C215 H182 0.931 . S
C215 C210 1.370 . S
C215 C214 1.391 . S
C216 N190 1.435 . S
C216 C217 1.358 . S
C216 C221 1.371 . S
C217 H183 0.930 . S
C217 C216 1.358 . S
C217 C218 1.405 . S
C218 H184 0.932 . S
C218 C217 1.405 . S
C218 C219 1.383 . S
C219 C218 1.383 . S
C219 C220 1.393 . S
C220 H185 0.931 . S
C220 C219 1.393 . S
C220 C221 1.382 . S
C221 H186 0.929 . S
C221 C216 1.371 . S
C221 C220 1.382 . S
C222 N190 1.423 . S
C222 C223 1.362 . S
C222 C227 1.388 . S
C223 H187 0.929 . S
C223 C222 1.362 . S
C223 C224 1.376 . S
C224 H188 0.931 . S
C224 C223 1.376 . S
C224 C225 1.396 . S
C225 C207 1.472 . S
C225 C224 1.396 . S
C225 C226 1.348 . S
C226 H189 0.929 . S
C226 C225 1.348 . S
C226 C227 1.443 . S
C227 H191 0.932 . S
C227 C222 1.388 . S
C227 C226 1.443 . S
H228 C229 0.951 . S
C229 H228 0.951 . S
C229 C235 1.265 . S
H230 C235 0.950 1_655 S
H231 C239 0.949 . S
H232 C240 0.950 . S
H233 C241 0.951 . S
H234 C242 0.951 . S
C235 C229 1.265 . S
C235 H230 0.950 1_455 S
C235 C236 1.478 . S
C236 C235 1.478 . S
C236 C237 1.397 1_455 S
C236 C253 1.394 . S
C237 C236 1.397 1_655 S
C237 C238 1.438 . S
C237 C242 1.429 . S
C238 C237 1.438 . S
C238 C239 1.428 . S
C238 C251 1.394 1_655 S
C239 H231 0.949 . S
C239 C238 1.428 . S
C239 C240 1.345 . S
C240 H232 0.950 . S
C240 C239 1.345 . S
C240 C241 1.424 . S
C241 H233 0.951 . S
C241 C240 1.424 . S
C241 C242 1.347 . S
C242 H234 0.951 . S
C242 C237 1.429 . S
C242 C241 1.347 . S
H243 C244 0.951 . S
C244 H243 0.951 . S
C244 C250 1.265 . S
H245 C250 0.950 . S
H246 C254 0.949 . S
H247 C255 0.950 . S
H248 C256 0.951 . S
H249 C257 0.951 . S
C250 C244 1.265 . S
C250 H245 0.950 . S
C250 C251 1.478 . S
C251 C238 1.394 1_455 S
C251 C250 1.478 . S
C251 C252 1.397 . S
C252 C251 1.397 . S
C252 C253 1.438 . S
C252 C257 1.429 . S
C253 C236 1.394 . S
C253 C252 1.438 . S
C253 C254 1.428 . S
C254 H246 0.949 . S
C254 C253 1.428 . S
C254 C255 1.345 . S
C255 H247 0.950 . S
C255 C254 1.345 . S
C255 C256 1.424 . S
C256 H248 0.951 . S
C256 C255 1.424 . S
C256 C257 1.347 . S
C257 H249 0.951 . S
C257 C252 1.429 . S
C257 C256 1.347 . S
H258 C259 0.951 . S
C259 H258 0.951 . S
C259 C265 1.265 . S
H260 C265 0.950 . S
H261 C269 0.949 . S
H262 C270 0.950 . S
H263 C271 0.951 . S
H264 C272 0.951 . S
C265 C259 1.265 . S
C265 H260 0.950 . S
C265 C266 1.478 . S
C266 C265 1.478 . S
C266 C267 1.397 1_545 S
C266 C283 1.394 . S
C267 C266 1.397 1_565 S
C267 C268 1.438 . S
C267 C272 1.429 . S
C268 C267 1.438 . S
C268 C269 1.428 . S
C268 C281 1.394 1_565 S
C269 H261 0.949 . S
C269 C268 1.428 . S
C269 C270 1.345 . S
C270 H262 0.950 . S
C270 C269 1.345 . S
C270 C271 1.424 . S
C271 H263 0.951 . S
C271 C270 1.424 . S
C271 C272 1.347 . S
C272 H264 0.951 . S
C272 C267 1.429 . S
C272 C271 1.347 . S
H273 C274 0.951 . S
C274 H273 0.951 . S
C274 C280 1.265 . S
H275 C280 0.950 . S
H276 C284 0.949 . S
H277 C285 0.950 . S
H278 C286 0.951 . S
H279 C287 0.951 . S
C280 C274 1.265 . S
C280 H275 0.950 . S
C280 C281 1.478 . S
C281 C268 1.394 1_545 S
C281 C280 1.478 . S
C281 C282 1.397 . S
C282 C281 1.397 . S
C282 C283 1.438 . S
C282 C287 1.429 . S
C283 C266 1.394 . S
C283 C282 1.438 . S
C283 C284 1.428 . S
C284 H276 0.949 . S
C284 C283 1.428 . S
C284 C285 1.345 . S
C285 H277 0.950 . S
C285 C284 1.345 . S
C285 C286 1.424 . S
C286 H278 0.951 . S
C286 C285 1.424 . S
C286 C287 1.347 . S
C287 H279 0.951 . S
C287 C282 1.429 . S
C287 C286 1.347 . S
H288 C289 0.951 . S
C289 H288 0.951 . S
C289 C295 1.265 . S
H290 C295 0.950 . S
H291 C299 0.949 . S
H292 C300 0.950 . S
H293 C301 0.951 . S
H294 C302 0.951 . S
C295 C289 1.265 . S
C295 H290 0.950 . S
C295 C296 1.478 . S
C296 C295 1.478 . S
C296 C297 1.397 . S
C296 C313 1.394 . S
C297 C296 1.397 . S
C297 C298 1.438 . S
C297 C302 1.429 . S
C298 C297 1.438 . S
C298 C299 1.428 . S
C298 C311 1.394 . S
C299 H291 0.949 . S
C299 C298 1.428 . S
C299 C300 1.345 . S
C300 H292 0.950 . S
C300 C299 1.345 . S
C300 C301 1.424 . S
C301 H293 0.951 . S
C301 C300 1.424 . S
C301 C302 1.347 . S
C302 H294 0.951 . S
C302 C297 1.429 . S
C302 C301 1.347 . S
H303 C304 0.951 . S
C304 H303 0.951 . S
C304 C310 1.265 . S
H305 C310 0.950 . S
H306 C314 0.949 . S
H307 C315 0.950 . S
H308 C316 0.951 . S
H309 C317 0.951 . S
C310 C304 1.265 . S
C310 H305 0.950 . S
C310 C311 1.478 . S
C311 C298 1.394 . S
C311 C310 1.478 . S
C311 C312 1.397 . S
C312 C311 1.397 . S
C312 C313 1.438 . S
C312 C317 1.429 . S
C313 C296 1.394 . S
C313 C312 1.438 . S
C313 C314 1.428 . S
C314 H306 0.949 . S
C314 C313 1.428 . S
C314 C315 1.345 . S
C315 H307 0.950 . S
C315 C314 1.345 . S
C315 C316 1.424 . S
C316 H308 0.951 . S
C316 C315 1.424 . S
C316 C317 1.347 . S
C317 H309 0.951 . S
C317 C312 1.429 . S
C317 C316 1.347 . S
H318 C319 0.951 1_655 S
C319 H318 0.951 1_455 S
C319 C325 1.265 . S
H320 C325 0.950 . S
H321 C329 0.949 . S
H322 C330 0.950 . S
H323 C331 0.951 . S
H324 C332 0.951 . S
C325 C319 1.265 . S
C325 H320 0.950 . S
C325 C326 1.478 . S
C326 C325 1.478 . S
C326 C327 1.397 . S
C326 C343 1.394 . S
C327 C326 1.397 . S
C327 C328 1.438 . S
C327 C332 1.429 . S
C328 C327 1.438 . S
C328 C329 1.428 . S
C328 C341 1.394 . S
C329 H321 0.949 . S
C329 C328 1.428 . S
C329 C330 1.345 . S
C330 H322 0.950 . S
C330 C329 1.345 . S
C330 C331 1.424 . S
C331 H323 0.951 . S
C331 C330 1.424 . S
C331 C332 1.347 . S
C332 H324 0.951 . S
C332 C327 1.429 . S
C332 C331 1.347 . S
H333 C334 0.951 . S
C334 H333 0.951 . S
C334 C340 1.265 . S
H335 C340 0.950 1_655 S
H336 C344 0.949 . S
H337 C345 0.950 . S
H338 C346 0.951 . S
H339 C347 0.951 . S
C340 C334 1.265 . S
C340 H335 0.950 1_455 S
C340 C341 1.478 . S
C341 C328 1.394 . S
C341 C340 1.478 . S
C341 C342 1.397 . S
C342 C341 1.397 . S
C342 C343 1.438 . S
C342 C347 1.429 1_455 S
C343 C326 1.394 . S
C343 C342 1.438 . S
C343 C344 1.428 1_455 S
C344 H336 0.949 . S
C344 C343 1.428 1_655 S
C344 C345 1.345 . S
C345 H337 0.950 . S
C345 C344 1.345 . S
C345 C346 1.424 . S
C346 H338 0.951 . S
C346 C345 1.424 . S
C346 C347 1.347 . S
C347 H339 0.951 . S
C347 C342 1.429 1_655 S
C347 C346 1.347 . S
H348 C349 0.951 . S
C349 H348 0.951 . S
C349 C355 1.265 . S
H350 C355 0.950 . S
H351 C359 0.949 . S
H352 C360 0.950 . S
H353 C361 0.951 . S
H354 C362 0.951 . S
C355 C349 1.265 . S
C355 H350 0.950 . S
C355 C356 1.478 . S
C356 C355 1.478 . S
C356 C357 1.397 . S
C356 C373 1.394 1_545 S
C357 C356 1.397 . S
C357 C358 1.438 . S
C357 C362 1.429 . S
C358 C357 1.438 . S
C358 C359 1.428 . S
C358 C371 1.394 . S
C359 H351 0.949 . S
C359 C358 1.428 . S
C359 C360 1.345 . S
C360 H352 0.950 . S
C360 C359 1.345 . S
C360 C361 1.424 . S
C361 H353 0.951 . S
C361 C360 1.424 . S
C361 C362 1.347 . S
C362 H354 0.951 . S
C362 C357 1.429 . S
C362 C361 1.347 . S
H363 C364 0.951 . S
C364 H363 0.951 . S
C364 C370 1.265 . S
H365 C370 0.950 . S
H366 C374 0.949 . S
H367 C375 0.950 . S
H368 C376 0.951 . S
H369 C377 0.951 . S
C370 C364 1.265 . S
C370 H365 0.950 . S
C370 C371 1.478 . S
C371 C358 1.394 . S
C371 C370 1.478 . S
C371 C372 1.397 1_545 S
C372 C371 1.397 1_565 S
C372 C373 1.438 . S
C372 C377 1.429 . S
C373 C356 1.394 1_565 S
C373 C372 1.438 . S
C373 C374 1.428 . S
C374 H366 0.949 . S
C374 C373 1.428 . S
C374 C375 1.345 . S
C375 H367 0.950 . S
C375 C374 1.345 . S
C375 C376 1.424 . S
C376 H368 0.951 . S
C376 C375 1.424 . S
C376 C377 1.347 . S
C377 H369 0.951 . S
C377 C372 1.429 . S
C377 C376 1.347 . S
H378 C379 0.951 . S
C379 H378 0.951 . S
C379 C385 1.265 . S
H380 C385 0.950 . S
H381 C389 0.949 . S
H382 C390 0.950 . S
H383 C391 0.951 . S
H384 C392 0.951 . S
C385 C379 1.265 . S
C385 H380 0.950 . S
C385 C386 1.478 . S
C386 C385 1.478 . S
C386 C387 1.397 . S
C386 C403 1.394 . S
C387 C386 1.397 . S
C387 C388 1.438 . S
C387 C392 1.429 . S
C388 C387 1.438 . S
C388 C389 1.428 . S
C388 C401 1.394 . S
C389 H381 0.949 . S
C389 C388 1.428 . S
C389 C390 1.345 . S
C390 H382 0.950 . S
C390 C389 1.345 . S
C390 C391 1.424 . S
C391 H383 0.951 . S
C391 C390 1.424 . S
C391 C392 1.347 . S
C392 H384 0.951 . S
C392 C387 1.429 . S
C392 C391 1.347 . S
H393 C394 0.951 . S
C394 H393 0.951 . S
C394 C400 1.265 . S
H395 C400 0.950 . S
H396 C404 0.949 . S
H397 C405 0.950 . S
H398 C406 0.951 . S
H399 C407 0.951 . S
C400 C394 1.265 . S
C400 H395 0.950 . S
C400 C401 1.478 . S
C401 C388 1.394 . S
C401 C400 1.478 . S
C401 C402 1.397 . S
C402 C401 1.397 . S
C402 C403 1.438 . S
C402 C407 1.429 . S
C403 C386 1.394 . S
C403 C402 1.438 . S
C403 C404 1.428 . S
C404 H396 0.949 . S
C404 C403 1.428 . S
C404 C405 1.345 . S
C405 H397 0.950 . S
C405 C404 1.345 . S
C405 C406 1.424 . S
C406 H398 0.951 . S
C406 C405 1.424 . S
C406 C407 1.347 . S
C407 H399 0.951 . S
C407 C402 1.429 . S
C407 C406 1.347 . S
H408 C409 0.951 . S
C409 H408 0.951 . S
C409 C415 1.265 . S
H410 C415 0.950 . S
H411 C419 0.949 . S
H412 C420 0.950 . S
H413 C421 0.951 . S
H414 C422 0.951 . S
C415 C409 1.265 . S
C415 H410 0.950 . S
C415 C416 1.478 . S
C416 C415 1.478 . S
C416 C417 1.397 1_545 S
C416 C433 1.394 . S
C417 C416 1.397 1_565 S
C417 C418 1.438 . S
C417 C422 1.429 . S
C418 C417 1.438 . S
C418 C419 1.428 . S
C418 C431 1.394 1_565 S
C419 H411 0.949 . S
C419 C418 1.428 . S
C419 C420 1.345 . S
C420 H412 0.950 . S
C420 C419 1.345 . S
C420 C421 1.424 . S
C421 H413 0.951 . S
C421 C420 1.424 . S
C421 C422 1.347 . S
C422 H414 0.951 . S
C422 C417 1.429 . S
C422 C421 1.347 . S
H423 C424 0.951 . S
C424 H423 0.951 . S
C424 C430 1.265 . S
H425 C430 0.950 . S
H426 C434 0.949 . S
H427 C435 0.950 . S
H428 C436 0.951 . S
H429 C437 0.951 . S
C430 C424 1.265 . S
C430 H425 0.950 . S
C430 C431 1.478 . S
C431 C418 1.394 1_545 S
C431 C430 1.478 . S
C431 C432 1.397 . S
C432 C431 1.397 . S
C432 C433 1.438 . S
C432 C437 1.429 . S
C433 C416 1.394 . S
C433 C432 1.438 . S
C433 C434 1.428 . S
C434 H426 0.949 . S
C434 C433 1.428 . S
C434 C435 1.345 . S
C435 H427 0.950 . S
C435 C434 1.345 . S
C435 C436 1.424 . S
C436 H428 0.951 . S
C436 C435 1.424 . S
C436 C437 1.347 . S
C437 H429 0.951 . S
C437 C432 1.429 . S
C437 C436 1.347 . S
H438 C439 0.951 . S
C439 H438 0.951 . S
C439 C445 1.265 . S
H440 C445 0.950 . S
H441 C449 0.949 . S
H442 C450 0.950 . S
H443 C451 0.951 . S
H444 C452 0.951 . S
C445 C439 1.265 . S
C445 H440 0.950 . S
C445 C446 1.478 1_554 S
C446 C445 1.478 1_556 S
C446 C447 1.397 . S
C446 C463 1.394 . S
C447 C446 1.397 . S
C447 C448 1.438 . S
C447 C452 1.429 1_556 S
C448 C447 1.438 . S
C448 C449 1.428 . S
C448 C461 1.394 . S
C449 H441 0.949 . S
C449 C448 1.428 . S
C449 C450 1.345 1_556 S
C450 H442 0.950 . S
C450 C449 1.345 1_554 S
C450 C451 1.424 . S
C451 H443 0.951 . S
C451 C450 1.424 . S
C451 C452 1.347 . S
C452 H444 0.951 . S
C452 C447 1.429 1_554 S
C452 C451 1.347 . S
H453 C454 0.951 . S
C454 H453 0.951 . S
C454 C460 1.265 . S
H455 C460 0.950 . S
H456 C464 0.949 . S
H457 C465 0.950 . S
H458 C466 0.951 . S
H459 C467 0.951 . S
C460 C454 1.265 . S
C460 H455 0.950 . S
C460 C461 1.478 . S
C461 C448 1.394 . S
C461 C460 1.478 . S
C461 C462 1.397 . S
C462 C461 1.397 . S
C462 C463 1.438 . S
C462 C467 1.429 . S
C463 C446 1.394 . S
C463 C462 1.438 . S
C463 C464 1.428 . S
C464 H456 0.949 . S
C464 C463 1.428 . S
C464 C465 1.345 . S
C465 H457 0.950 . S
C465 C464 1.345 . S
C465 C466 1.424 . S
C466 H458 0.951 . S
C466 C465 1.424 . S
C466 C467 1.347 . S
C467 H459 0.951 . S
C467 C462 1.429 . S
C467 C466 1.347 . S
H468 C469 0.951 1_655 S
C469 H468 0.951 1_455 S
C469 C475 1.265 . S
H470 C475 0.950 . S
H471 C479 0.949 . S
H472 C480 0.950 . S
H473 C481 0.951 . S
H474 C482 0.951 . S
C475 C469 1.265 . S
C475 H470 0.950 . S
C475 C476 1.478 . S
C476 C475 1.478 . S
C476 C477 1.397 . S
C476 C493 1.394 . S
C477 C476 1.397 . S
C477 C478 1.438 . S
C477 C482 1.429 . S
C478 C477 1.438 . S
C478 C479 1.428 . S
C478 C491 1.394 . S
C479 H471 0.949 . S
C479 C478 1.428 . S
C479 C480 1.345 . S
C480 H472 0.950 . S
C480 C479 1.345 . S
C480 C481 1.424 . S
C481 H473 0.951 . S
C481 C480 1.424 . S
C481 C482 1.347 . S
C482 H474 0.951 . S
C482 C477 1.429 . S
C482 C481 1.347 . S
H483 C484 0.951 . S
C484 H483 0.951 . S
C484 C490 1.265 . S
H485 C490 0.950 1_655 S
H486 C494 0.949 . S
H487 C495 0.950 . S
H488 C496 0.951 . S
H489 C497 0.951 . S
C490 C484 1.265 . S
C490 H485 0.950 1_455 S
C490 C491 1.478 . S
C491 C478 1.394 . S
C491 C490 1.478 . S
C491 C492 1.397 1_455 S
C492 C491 1.397 1_655 S
C492 C493 1.438 1_655 S
C492 C497 1.429 . S
C493 C476 1.394 . S
C493 C492 1.438 1_455 S
C493 C494 1.428 1_455 S
C494 H486 0.949 . S
C494 C493 1.428 1_655 S
C494 C495 1.345 . S
C495 H487 0.950 . S
C495 C494 1.345 . S
C495 C496 1.424 . S
C496 H488 0.951 . S
C496 C495 1.424 . S
C496 C497 1.347 . S
C497 H489 0.951 . S
C497 C492 1.429 . S
C497 C496 1.347 . S
H498 C499 0.951 . S
C499 H498 0.951 . S
C499 C505 1.265 . S
H500 C505 0.950 . S
H501 C509 0.949 . S
H502 C510 0.950 . S
H503 C511 0.951 . S
H504 C512 0.951 . S
C505 C499 1.265 . S
C505 H500 0.950 . S
C505 C506 1.478 . S
C506 C505 1.478 . S
C506 C507 1.397 . S
C506 C523 1.394 1_545 S
C507 C506 1.397 . S
C507 C508 1.438 . S
C507 C512 1.429 . S
C508 C507 1.438 . S
C508 C509 1.428 . S
C508 C521 1.394 . S
C509 H501 0.949 . S
C509 C508 1.428 . S
C509 C510 1.345 . S
C510 H502 0.950 . S
C510 C509 1.345 . S
C510 C511 1.424 . S
C511 H503 0.951 . S
C511 C510 1.424 . S
C511 C512 1.347 . S
C512 H504 0.951 . S
C512 C507 1.429 . S
C512 C511 1.347 . S
H513 C514 0.951 . S
C514 H513 0.951 . S
C514 C520 1.265 . S
H515 C520 0.950 . S
H516 C524 0.949 . S
H517 C525 0.950 . S
H518 C526 0.951 . S
H519 C527 0.951 . S
C520 C514 1.265 . S
C520 H515 0.950 . S
C520 C521 1.478 . S
C521 C508 1.394 . S
C521 C520 1.478 . S
C521 C522 1.397 1_545 S
C522 C521 1.397 1_565 S
C522 C523 1.438 . S
C522 C527 1.429 . S
C523 C506 1.394 1_565 S
C523 C522 1.438 . S
C523 C524 1.428 . S
C524 H516 0.949 . S
C524 C523 1.428 . S
C524 C525 1.345 . S
C525 H517 0.950 . S
C525 C524 1.345 . S
C525 C526 1.424 . S
C526 H518 0.951 . S
C526 C525 1.424 . S
C526 C527 1.347 . S
C527 H519 0.951 . S
C527 C522 1.429 . S
C527 C526 1.347 . S
H528 C529 0.951 . S
C529 H528 0.951 . S
C529 C535 1.265 . S
H530 C535 0.950 . S
H531 C539 0.949 . S
H532 C540 0.950 . S
H533 C541 0.951 . S
H534 C542 0.951 . S
C535 C529 1.265 . S
C535 H530 0.950 . S
C535 C536 1.478 1_554 S
C536 C535 1.478 1_556 S
C536 C537 1.397 . S
C536 C553 1.394 . S
C537 C536 1.397 . S
C537 C538 1.438 . S
C537 C542 1.429 . S
C538 C537 1.438 . S
C538 C539 1.428 . S
C538 C551 1.394 . S
C539 H531 0.949 . S
C539 C538 1.428 . S
C539 C540 1.345 . S
C540 H532 0.950 . S
C540 C539 1.345 . S
C540 C541 1.424 . S
C541 H533 0.951 . S
C541 C540 1.424 . S
C541 C542 1.347 . S
C542 H534 0.951 . S
C542 C537 1.429 . S
C542 C541 1.347 . S
H543 C544 0.951 . S
C544 H543 0.951 . S
C544 C550 1.265 . S
H545 C550 0.950 . S
H546 C554 0.949 . S
H547 C555 0.950 . S
H548 C556 0.951 . S
H549 C557 0.951 . S
C550 C544 1.265 . S
C550 H545 0.950 . S
C550 C551 1.478 . S
C551 C538 1.394 . S
C551 C550 1.478 . S
C551 C552 1.397 . S
C552 C551 1.397 . S
C552 C553 1.438 . S
C552 C557 1.429 . S
C553 C536 1.394 . S
C553 C552 1.438 . S
C553 C554 1.428 1_556 S
C554 H546 0.949 . S
C554 C553 1.428 1_554 S
C554 C555 1.345 . S
C555 H547 0.950 . S
C555 C554 1.345 . S
C555 C556 1.424 . S
C556 H548 0.951 . S
C556 C555 1.424 . S
C556 C557 1.347 1_554 S
C557 H549 0.951 . S
C557 C552 1.429 . S
C557 C556 1.347 1_556 S
H558 C559 0.951 1_655 S
C559 H558 0.951 1_455 S
C559 C565 1.265 . S
H560 C565 0.950 . S
H561 C569 0.949 . S
H562 C570 0.950 . S
H563 C571 0.951 . S
H564 C572 0.951 . S
C565 C559 1.265 . S
C565 H560 0.950 . S
C565 C566 1.478 . S
C566 C565 1.478 . S
C566 C567 1.397 . S
C566 C583 1.394 . S
C567 C566 1.397 . S
C567 C568 1.438 . S
C567 C572 1.429 . S
C568 C567 1.438 . S
C568 C569 1.428 . S
C568 C581 1.394 . S
C569 H561 0.949 . S
C569 C568 1.428 . S
C569 C570 1.345 . S
C570 H562 0.950 . S
C570 C569 1.345 . S
C570 C571 1.424 . S
C571 H563 0.951 . S
C571 C570 1.424 . S
C571 C572 1.347 . S
C572 H564 0.951 . S
C572 C567 1.429 . S
C572 C571 1.347 . S
H573 C574 0.951 . S
C574 H573 0.951 . S
C574 C580 1.265 . S
H575 C580 0.950 1_655 S
H576 C584 0.949 . S
H577 C585 0.948 1_655 S
H578 C586 0.951 . S
H579 C587 0.951 1_655 S
C580 C574 1.265 . S
C580 H575 0.950 1_455 S
C580 C581 1.478 . S
C581 C568 1.394 . S
C581 C580 1.478 . S
C581 C582 1.397 . S
C582 C581 1.397 . S
C582 C583 1.438 . S
C582 C587 1.429 . S
C583 C566 1.394 . S
C583 C582 1.438 . S
C583 C584 1.428 . S
C584 H576 0.949 . S
C584 C583 1.428 . S
C584 C585 1.345 . S
C585 H577 0.948 1_455 S
C585 C584 1.345 . S
C585 C586 1.424 1_455 S
C586 H578 0.951 . S
C586 C585 1.424 1_655 S
C586 C587 1.347 1_655 S
C587 H579 0.951 1_455 S
C587 C582 1.429 . S
C587 C586 1.347 1_455 S
C244 C95 1.346 . S
C229 C0 1.353 . S
C259 C25 1.395 . S
C274 C139 1.404 . S
C289 C33 1.436 . S
C304 C201 1.426 . S
C319 C11 1.357 . S
C334 C77 1.360 . S
C364 C157 1.387 . S
C349 C14 1.387 . S
C379 C37 1.444 . S
C394 C219 1.436 . S
C424 C133 1.539 . S
C409 C28 1.659 . S
C439 C9 1.744 . S
C454 C195 1.664 . S
C484 C71 1.670 . S
C469 C19 1.775 . S
C514 C151 1.553 . S
C499 C39 1.690 . S
C544 C213 1.651 . S
C529 C5 1.717 . S
C559 C23 1.750 . S
C574 C89 1.677 . S
