# Generated by pormake.
# Topology apo, (3,6)-cn, num edge types: 1
# Building blocks:
#     Node 0, Type 0, BuildingBlock: PAMTOO_clean_linker_0, # of connection points: 3
#     Node 1, Type 0, BuildingBlock: PAMTOO_clean_linker_0, # of connection points: 3
#     Node 2, Type 0, BuildingBlock: PAMTOO_clean_linker_0, # of connection points: 3
#     Node 3, Type 0, BuildingBlock: PAMTOO_clean_linker_0, # of connection points: 3
#     Node 4, Type 0, BuildingBlock: PAMTOO_clean_linker_0, # of connection points: 3
#     Node 5, Type 0, BuildingBlock: PAMTOO_clean_linker_0, # of connection points: 3
#     Node 6, Type 0, BuildingBlock: PAMTOO_clean_linker_0, # of connection points: 3
#     Node 7, Type 0, BuildingBlock: PAMTOO_clean_linker_0, # of connection points: 3
#     Node 8, Type 1, BuildingBlock: MIDCAF_clean_sbu_0, # of connection points: 6
#     Node 9, Type 1, BuildingBlock: MIDCAF_clean_sbu_0, # of connection points: 6
#     Node 10, Type 1, BuildingBlock: MIDCAF_clean_sbu_0, # of connection points: 6
#     Node 11, Type 1, BuildingBlock: MIDCAF_clean_sbu_0, # of connection points: 6
#     Edge 12, Type (0, 1), BuildingBlock: XUDNAN_clean_linker_2, # of connection points: 2
#     Edge 13, Type (0, 1), BuildingBlock: XUDNAN_clean_linker_2, # of connection points: 2
#     Edge 14, Type (0, 1), BuildingBlock: XUDNAN_clean_linker_2, # of connection points: 2
#     Edge 15, Type (0, 1), BuildingBlock: XUDNAN_clean_linker_2, # of connection points: 2
#     Edge 16, Type (0, 1), BuildingBlock: XUDNAN_clean_linker_2, # of connection points: 2
#     Edge 17, Type (0, 1), BuildingBlock: XUDNAN_clean_linker_2, # of connection points: 2
#     Edge 18, Type (0, 1), BuildingBlock: XUDNAN_clean_linker_2, # of connection points: 2
#     Edge 19, Type (0, 1), BuildingBlock: XUDNAN_clean_linker_2, # of connection points: 2
#     Edge 20, Type (0, 1), BuildingBlock: XUDNAN_clean_linker_2, # of connection points: 2
#     Edge 21, Type (0, 1), BuildingBlock: XUDNAN_clean_linker_2, # of connection points: 2
#     Edge 22, Type (0, 1), BuildingBlock: XUDNAN_clean_linker_2, # of connection points: 2
#     Edge 23, Type (0, 1), BuildingBlock: XUDNAN_clean_linker_2, # of connection points: 2
#     Edge 24, Type (0, 1), BuildingBlock: XUDNAN_clean_linker_2, # of connection points: 2
#     Edge 25, Type (0, 1), BuildingBlock: XUDNAN_clean_linker_2, # of connection points: 2
#     Edge 26, Type (0, 1), BuildingBlock: XUDNAN_clean_linker_2, # of connection points: 2
#     Edge 27, Type (0, 1), BuildingBlock: XUDNAN_clean_linker_2, # of connection points: 2
#     Edge 28, Type (0, 1), BuildingBlock: XUDNAN_clean_linker_2, # of connection points: 2
#     Edge 29, Type (0, 1), BuildingBlock: XUDNAN_clean_linker_2, # of connection points: 2
#     Edge 30, Type (0, 1), BuildingBlock: XUDNAN_clean_linker_2, # of connection points: 2
#     Edge 31, Type (0, 1), BuildingBlock: XUDNAN_clean_linker_2, # of connection points: 2
#     Edge 32, Type (0, 1), BuildingBlock: XUDNAN_clean_linker_2, # of connection points: 2
#     Edge 33, Type (0, 1), BuildingBlock: XUDNAN_clean_linker_2, # of connection points: 2
#     Edge 34, Type (0, 1), BuildingBlock: XUDNAN_clean_linker_2, # of connection points: 2
#     Edge 35, Type (0, 1), BuildingBlock: XUDNAN_clean_linker_2, # of connection points: 2
# Relax obj value: 0.013
# Max RMSD: 0.060
# Mean RMSD: 0.055
data_MOF--net-apo--node1-MIDCAF_clean_sbu_0--node2-PAMTOO_clean_linker_0--edge1-XUDNAN_clean_linker_2
_symmetry_space_group_name_H-M    P1
_symmetry_Int_Tables_number       1
_symmetry_cell_setting            triclinic
loop_
_symmetry_equiv_pos_as_xyz
'x, y, z'
_cell_length_a     36.863505
_cell_length_b     42.037615
_cell_length_c     34.723256
_cell_angle_alpha  89.742446
_cell_angle_beta   89.931478
_cell_angle_gamma 90.012253
loop_
_atom_site_label
_atom_site_type_symbol
_atom_site_fract_x
_atom_site_fract_y
_atom_site_fract_z
_atom_type_partial_charge
H0 H 0.3982 0.36073 0.41988 0.0
H1 H 0.34535 0.3365 0.31366 0.0
H2 H 0.30946 0.29402 0.41999 0.0
H3 H 0.31272 0.2499 0.35056 0.0
C4 C 0.30597 0.26774 0.32793 0.0
O5 O 0.29907 0.29682 0.34491 0.0
H6 H 0.32965 0.2701 0.30819 0.0
C7 C 0.37766 0.34739 0.40451 0.0
C8 C 0.354 0.32736 0.42518 0.0
C9 C 0.37499 0.35087 0.36438 0.0
C10 C 0.34804 0.33394 0.34459 0.0
C11 C 0.32487 0.31305 0.3645 0.0
C12 C 0.32791 0.30971 0.40475 0.0
H13 H 0.11423 0.128 0.91366 0.0
H14 H 0.19735 0.19951 0.91468 0.0
H15 H 0.15547 0.16711 0.80707 0.0
H16 H 0.22826 0.17061 0.80177 0.0
C17 C 0.23564 0.18706 0.82552 0.0
O18 O 0.20468 0.20162 0.83943 0.0
H19 H 0.24841 0.17255 0.84875 0.0
C20 C 0.13167 0.1441 0.89797 0.0
C21 C 0.13174 0.14399 0.85728 0.0
C22 C 0.15429 0.16462 0.91917 0.0
C23 C 0.17856 0.1845 0.89912 0.0
C24 C 0.17925 0.18459 0.85875 0.0
C25 C 0.15492 0.16556 0.83816 0.0
H26 H 0.88375 0.1226 0.57353 0.0
H27 H 0.82988 0.15663 0.67624 0.0
H28 H 0.80639 0.19841 0.5666 0.0
H29 H 0.80562 0.24329 0.63447 0.0
C30 C 0.79739 0.22591 0.65708 0.0
O31 O 0.78942 0.19703 0.64025 0.0
H32 H 0.82034 0.22288 0.67759 0.0
C33 C 0.86551 0.13858 0.58828 0.0
C34 C 0.84704 0.16137 0.56593 0.0
C35 C 0.86002 0.13603 0.62846 0.0
C36 C 0.83464 0.15683 0.64552 0.0
C37 C 0.81497 0.17872 0.62326 0.0
C38 C 0.82118 0.18101 0.5835 0.0
H39 H 0.62881 0.36432 0.07071 0.0
H40 H 0.71454 0.29508 0.06736 0.0
H41 H 0.69165 0.34435 0.17253 0.0
H42 H 0.76469 0.33513 0.15988 0.0
C43 C 0.76564 0.31127 0.14612 0.0
O44 O 0.73074 0.30003 0.14106 0.0
H45 H 0.77913 0.31391 0.11762 0.0
C46 C 0.65083 0.35198 0.085 0.0
C47 C 0.65806 0.3582 0.12401 0.0
C48 C 0.67151 0.33006 0.0638 0.0
C49 C 0.69838 0.31227 0.08297 0.0
C50 C 0.705 0.31718 0.1224 0.0
C51 C 0.68506 0.34014 0.14261 0.0
H52 H 0.60941 0.63522 0.58333 0.0
H53 H 0.69299 0.7071 0.58061 0.0
H54 H 0.66874 0.65748 0.68608 0.0
H55 H 0.68194 0.72083 0.70046 0.0
C56 C 0.70021 0.72803 0.67641 0.0
O57 O 0.70875 0.70183 0.65436 0.0
H58 H 0.68551 0.74589 0.65851 0.0
C59 C 0.63004 0.6492 0.59773 0.0
C60 C 0.63626 0.64414 0.63707 0.0
C61 C 0.65083 0.67131 0.57662 0.0
C62 C 0.67678 0.68979 0.59617 0.0
C63 C 0.68303 0.68488 0.63572 0.0
C64 C 0.66331 0.66159 0.6558 0.0
H65 H 0.90108 0.85459 0.08098 0.0
H66 H 0.84476 0.83703 0.18763 0.0
H67 H 0.80656 0.79424 0.08309 0.0
H68 H 0.7521 0.82532 0.14314 0.0
C69 C 0.76487 0.81413 0.1689 0.0
O70 O 0.79639 0.7988 0.15804 0.0
H71 H 0.77139 0.83328 0.18976 0.0
C72 C 0.8796 0.84278 0.09691 0.0
C73 C 0.85462 0.82347 0.07719 0.0
C74 C 0.87587 0.84835 0.13658 0.0
C75 C 0.84773 0.83327 0.15693 0.0
C76 C 0.82289 0.81368 0.13777 0.0
C77 C 0.82596 0.80924 0.0978 0.0
H78 H 0.11782 0.8573 0.43281 0.0
H79 H 0.19894 0.78337 0.43225 0.0
H80 H 0.17797 0.83774 0.32948 0.0
H81 H 0.18963 0.77456 0.31202 0.0
C82 C 0.20765 0.76624 0.3357 0.0
O83 O 0.21649 0.7915 0.3592 0.0
H84 H 0.19251 0.74796 0.35257 0.0
C85 C 0.13831 0.84357 0.41781 0.0
C86 C 0.14518 0.84996 0.37882 0.0
C87 C 0.15793 0.82 0.43774 0.0
C88 C 0.18373 0.80182 0.41753 0.0
C89 C 0.19092 0.80826 0.37846 0.0
C90 C 0.17211 0.83271 0.35949 0.0
H91 H 0.38689 0.62785 0.93204 0.0
H92 H 0.32913 0.64675 0.82673 0.0
H93 H 0.29579 0.69203 0.93176 0.0
H94 H 0.2371 0.6672 0.87612 0.0
C95 C 0.25042 0.67537 0.84904 0.0
O96 O 0.28418 0.68783 0.85712 0.0
H97 H 0.25339 0.6544 0.82984 0.0
C98 C 0.36548 0.64015 0.9166 0.0
C99 C 0.34192 0.66048 0.9367 0.0
C100 C 0.3607 0.63461 0.87709 0.0
C101 C 0.33282 0.65048 0.85734 0.0
C102 C 0.30966 0.67137 0.87691 0.0
C103 C 0.31383 0.67595 0.91672 0.0
Zn104 Zn 0.045 0.11473 0.30911 0.0
Zn105 Zn 0.98267 0.10654 0.18696 0.0
Zn106 Zn 0.0134 0.11423 0.24859 0.0
C107 C 0.05143 0.12854 0.16837 0.0
C108 C 0.97985 0.04777 0.2145 0.0
O109 O 0.97487 0.13781 0.28971 0.0
O110 O 0.00336 0.12308 0.34266 0.0
C111 C 0.08352 0.15734 0.26739 0.0
O112 O 0.0509 0.13505 0.20464 0.0
O113 O 0.02578 0.11285 0.15369 0.0
O114 O 0.96227 0.06353 0.18994 0.0
O115 O 0.00258 0.06204 0.23689 0.0
O116 O 0.0771 0.15114 0.30224 0.0
O117 O 0.06492 0.14326 0.24093 0.0
O118 O 0.02561 0.06433 0.26805 0.0
O119 O 0.06799 0.07229 0.31179 0.0
C120 C 0.04995 0.05335 0.29132 0.0
O121 O 0.96191 0.1429 0.25194 0.0
O122 O 0.94713 0.14096 0.19046 0.0
C123 C 0.97634 0.13605 0.3268 0.0
C124 C 0.94127 0.15165 0.22377 0.0
Zn125 Zn 0.53093 0.38039 0.68623 0.0
Zn126 Zn 0.47762 0.37704 0.81171 0.0
Zn127 Zn 0.50418 0.37592 0.74864 0.0
C128 C 0.46769 0.43701 0.78972 0.0
C129 C 0.43829 0.33209 0.77369 0.0
O130 O 0.55627 0.34836 0.75001 0.0
O131 O 0.5618 0.34208 0.68736 0.0
C132 C 0.53878 0.4395 0.71226 0.0
O133 O 0.49183 0.42622 0.76618 0.0
O134 O 0.4512 0.41807 0.81186 0.0
O135 O 0.44817 0.33811 0.80765 0.0
O136 O 0.4535 0.34681 0.74528 0.0
O137 O 0.55608 0.42196 0.68934 0.0
O138 O 0.51455 0.42715 0.73463 0.0
O139 O 0.46456 0.35414 0.70724 0.0
O140 O 0.48581 0.37836 0.65549 0.0
C141 C 0.46144 0.36177 0.67134 0.0
O142 O 0.54479 0.35346 0.78833 0.0
O143 O 0.52312 0.37425 0.84186 0.0
C144 C 0.57216 0.33524 0.72099 0.0
C145 C 0.5479 0.35925 0.82464 0.0
Zn146 Zn 0.02603 0.88412 0.82143 0.0
Zn147 Zn 0.97686 0.8809 0.68392 0.0
Zn148 Zn 0.00057 0.87499 0.75395 0.0
C149 C 0.9774 0.94118 0.70607 0.0
C150 C 0.92566 0.84464 0.72753 0.0
O151 O 0.05249 0.84718 0.75511 0.0
O152 O 0.06958 0.85771 0.81465 0.0
C153 C 0.02326 0.94338 0.79634 0.0
O154 O 0.98877 0.92541 0.73574 0.0
O155 O 0.97051 0.92689 0.67513 0.0
O156 O 0.93274 0.8556 0.69442 0.0
O157 O 0.9479 0.84937 0.75558 0.0
O158 O 0.03183 0.93038 0.82778 0.0
O159 O 0.01153 0.92625 0.76815 0.0
O160 O 0.96081 0.85132 0.79433 0.0
O161 O 0.98688 0.8633 0.84974 0.0
C162 C 0.96153 0.85004 0.8315 0.0
O163 O 0.0409 0.8502 0.71546 0.0
O164 O 0.01752 0.8604 0.65794 0.0
C165 C 0.07474 0.8431 0.78344 0.0
C166 C 0.04221 0.84831 0.67833 0.0
Zn167 Zn 0.53405 0.62095 0.18628 0.0
Zn168 Zn 0.47889 0.60738 0.3142 0.0
Zn169 Zn 0.50621 0.6169 0.25125 0.0
C170 C 0.54518 0.63418 0.33022 0.0
C171 C 0.48006 0.54849 0.2864 0.0
O172 O 0.46378 0.63843 0.21207 0.0
O173 O 0.49202 0.63366 0.15626 0.0
C174 C 0.57332 0.66304 0.23028 0.0
O175 O 0.54258 0.64074 0.29399 0.0
O176 O 0.52194 0.61637 0.34602 0.0
O177 O 0.46248 0.56309 0.31185 0.0
O178 O 0.50092 0.56404 0.26298 0.0
O179 O 0.5685 0.6553 0.19566 0.0
O180 O 0.55433 0.64968 0.25712 0.0
O181 O 0.52466 0.5684 0.23199 0.0
O182 O 0.5536 0.57824 0.17746 0.0
C183 C 0.54403 0.55875 0.20321 0.0
O184 O 0.45128 0.64034 0.25027 0.0
O185 O 0.44003 0.63904 0.31265 0.0
C186 C 0.46427 0.64171 0.17505 0.0
C187 C 0.43117 0.64804 0.27928 0.0
H188 H 0.17165 0.90522 0.3487 0.0
H189 H 0.07229 0.85209 0.36604 0.0
H190 H 0.037 0.89646 0.33734 0.0
H191 H 0.13628 0.97797 0.37776 0.0
H192 H 0.16186 0.0018 0.34404 0.0
H193 H 0.17944 0.96411 0.36003 0.0
H194 H 0.18481 0.94553 0.28914 0.0
H195 H 0.16719 0.98327 0.27292 0.0
H196 H 0.14545 0.94684 0.25841 0.0
H197 H 0.01231 0.94851 0.31115 0.0
H198 H 0.00014 0.00512 0.29542 0.0
H199 H 0.11547 0.02468 0.29843 0.0
C200 C 0.14256 0.90273 0.34545 0.0
C201 C 0.12457 0.87524 0.35881 0.0
C202 C 0.08641 0.87299 0.35546 0.0
C203 C 0.06626 0.89796 0.3391 0.0
C204 C 0.08473 0.92507 0.32659 0.0
C205 C 0.12204 0.92765 0.32984 0.0
C206 C 0.13499 0.9605 0.3183 0.0
C207 C 0.15426 0.97706 0.35204 0.0
C208 C 0.15956 0.95893 0.28256 0.0
C209 C 0.09913 0.97626 0.30899 0.0
C210 C 0.07047 0.95531 0.31306 0.0
C211 C 0.03461 0.965 0.30745 0.0
C212 C 0.02791 -0.00292 0.29829 0.0
C213 C 0.05691 0.01896 0.29521 0.0
C214 C 0.09287 0.00826 0.30022 0.0
H215 H 0.33845 0.5808 0.84099 0.0
H216 H 0.43467 0.63444 0.87053 0.0
H217 H 0.47323 0.59218 0.84223 0.0
H218 H 0.37287 0.50764 0.86895 0.0
H219 H 0.35069 0.48498 0.83183 0.0
H220 H 0.33104 0.52169 0.84806 0.0
H221 H 0.33117 0.54325 0.77798 0.0
H222 H 0.35092 0.5065 0.76152 0.0
H223 H 0.37295 0.54382 0.75095 0.0
H224 H 0.50121 0.54173 0.81522 0.0
H225 H 0.5159 0.48587 0.79842 0.0
H226 H 0.40126 0.46446 0.79057 0.0
C227 C 0.36762 0.58396 0.84043 0.0
C228 C 0.38373 0.61099 0.85715 0.0
C229 C 0.42197 0.61397 0.85734 0.0
C230 C 0.44398 0.59019 0.84121 0.0
C231 C 0.42727 0.56348 0.82536 0.0
C232 C 0.38991 0.5602 0.82514 0.0
C233 C 0.37871 0.52771 0.8108 0.0
C234 C 0.35707 0.50944 0.84176 0.0
C235 C 0.35716 0.5305 0.77307 0.0
C236 C 0.41553 0.51285 0.80401 0.0
C237 C 0.44327 0.53406 0.81156 0.0
C238 C 0.47967 0.52508 0.80882 0.0
C239 C 0.48781 0.49343 0.7991 0.0
C240 C 0.45967 0.47123 0.79272 0.0
C241 C 0.42321 0.48123 0.79474 0.0
H242 H 0.66231 0.58838 0.66539 0.0
H243 H 0.5637 0.64317 0.6522 0.0
H244 H 0.52803 0.5984 0.67956 0.0
H245 H 0.62598 0.51799 0.63285 0.0
H246 H 0.65128 0.49228 0.66466 0.0
H247 H 0.66943 0.53043 0.65123 0.0
H248 H 0.67531 0.54559 0.72325 0.0
H249 H 0.6572 0.50733 0.73693 0.0
H250 H 0.63606 0.54322 0.75416 0.0
H251 H 0.5027 0.54554 0.70212 0.0
H252 H 0.48967 0.48829 0.71286 0.0
H253 H 0.6047 0.46772 0.70811 0.0
C254 C 0.63336 0.59118 0.66953 0.0
C255 C 0.61564 0.61922 0.65765 0.0
C256 C 0.5776 0.62189 0.66186 0.0
C257 C 0.55725 0.59667 0.67743 0.0
C258 C 0.57542 0.56894 0.68829 0.0
C259 C 0.61265 0.56605 0.68438 0.0
C260 C 0.62516 0.53259 0.69347 0.0
C261 C 0.64405 0.51745 0.65847 0.0
C262 C 0.64989 0.53217 0.72908 0.0
C263 C 0.58912 0.51682 0.70194 0.0
C264 C 0.56077 0.53827 0.69975 0.0
C265 C 0.52475 0.52866 0.70448 0.0
C266 C 0.51757 0.4962 0.71077 0.0
C267 C 0.54625 0.47391 0.7119 0.0
C268 C 0.58237 0.48448 0.70791 0.0
H269 H 0.85454 0.90029 0.177 0.0
H270 H 0.95029 0.85041 0.13761 0.0
H271 H 0.98914 0.89299 0.16465 0.0
H272 H 0.88365 0.97444 0.14903 0.0
H273 H 0.86331 0.99568 0.18853 0.0
H274 H 0.84417 0.95859 0.17308 0.0
H275 H 0.8505 0.93605 0.2424 0.0
H276 H 0.86991 0.97319 0.25802 0.0
H277 H 0.89418 0.93649 0.26569 0.0
H278 H 0.01698 0.94405 0.19033 0.0
H279 H 0.0302 0.00068 0.20475 0.0
H280 H 0.91581 0.0177 0.22362 0.0
C281 C 0.88375 0.89788 0.17524 0.0
C282 C 0.89956 0.87187 0.15597 0.0
C283 C 0.93778 0.87005 0.15272 0.0
C284 C 0.95999 0.89401 0.16818 0.0
C285 C 0.94351 0.91972 0.18656 0.0
C286 C 0.90616 0.92182 0.18986 0.0
C287 C 0.89472 0.95367 0.20595 0.0
C288 C 0.87004 0.97164 0.17744 0.0
C289 C 0.87624 0.94959 0.24536 0.0
C290 C 0.93129 0.96967 0.20992 0.0
C291 C 0.95928 0.94948 0.19972 0.0
C292 C 0.9953 0.95987 0.1989 0.0
C293 C 0.00265 0.99195 0.20731 0.0
C294 C 0.97402 0.01315 0.21585 0.0
C295 C 0.93816 0.00164 0.218 0.0
H296 H 0.92519 0.10494 0.61168 0.0
H297 H 0.84042 0.10916 0.69909 0.0
H298 H 0.87137 0.06739 0.7354 0.0
H299 H 0.92278 0.02308 0.60747 0.0
H300 H 0.97046 0.01828 0.59744 0.0
H301 H 0.94773 0.05431 0.58349 0.0
H302 H 0.99475 0.08708 0.62224 0.0
H303 H 0.01735 0.05091 0.63668 0.0
H304 H 0.00162 0.07847 0.67262 0.0
H305 H 0.90817 0.02129 0.76009 0.0
H306 H 0.93899 0.96907 0.76342 0.0
H307 H 0.99186 0.98863 0.65443 0.0
C308 C 0.9126 0.09745 0.6383 0.0
C309 C 0.88002 0.11146 0.65205 0.0
C310 C 0.86581 0.10037 0.68781 0.0
C311 C 0.88322 0.07625 0.70891 0.0
C312 C 0.91457 0.06268 0.69383 0.0
C313 C 0.92867 0.07248 0.6589 0.0
C314 C 0.95858 0.05039 0.64549 0.0
C315 C 0.94931 0.03564 0.60617 0.0
C316 C 0.99525 0.06776 0.64419 0.0
C317 C 0.95789 0.02578 0.67748 0.0
C318 C 0.93359 0.03414 0.70605 0.0
C319 C 0.92739 0.0146 0.73798 0.0
C320 C 0.94511 0.98508 0.73976 0.0
C321 C 0.96765 0.97505 0.70917 0.0
C322 C 0.97494 0.99602 0.67828 0.0
H323 H 0.63278 0.41427 0.09272 0.0
H324 H 0.63921 0.36277 0.20135 0.0
H325 H 0.60895 0.40771 0.23385 0.0
H326 H 0.6474 0.49084 0.12708 0.0
H327 H 0.615 0.50947 0.09536 0.0
H328 H 0.63715 0.47327 0.08109 0.0
H329 H 0.57467 0.44638 0.0707 0.0
H330 H 0.55223 0.48257 0.08482 0.0
H331 H 0.54207 0.44579 0.10944 0.0
H332 H 0.58227 0.46136 0.255 0.0
H333 H 0.55866 0.51642 0.26108 0.0
H334 H 0.56167 0.52744 0.13738 0.0
C335 C 0.62715 0.4117 0.12316 0.0
C336 C 0.63853 0.38455 0.1442 0.0
C337 C 0.63145 0.38332 0.1844 0.0
C338 C 0.61392 0.40866 0.20315 0.0
C339 C 0.60299 0.43485 0.18125 0.0
C340 C 0.60897 0.43622 0.14202 0.0
C341 C 0.59462 0.46675 0.12466 0.0
C342 C 0.62538 0.48622 0.10597 0.0
C343 C 0.56408 0.45995 0.0957 0.0
C344 C 0.58019 0.4828 0.16037 0.0
C345 C 0.58537 0.46423 0.19287 0.0
C346 C 0.57688 0.47553 0.22954 0.0
C347 C 0.56273 0.50648 0.23284 0.0
C348 C 0.5563 0.52537 0.19982 0.0
C349 C 0.56527 0.51322 0.16318 0.0
H350 H 0.3577 0.39785 0.31232 0.0
H351 H 0.44849 0.35476 0.37218 0.0
H352 H 0.48889 0.39699 0.34756 0.0
H353 H 0.41192 0.4294 0.22676 0.0
H354 H 0.38503 0.46518 0.22488 0.0
H355 H 0.36479 0.42827 0.24063 0.0
H356 H 0.34447 0.45508 0.30414 0.0
H357 H 0.3646 0.49189 0.28866 0.0
H358 H 0.37789 0.47431 0.33394 0.0
H359 H 0.51569 0.44887 0.32928 0.0
H360 H 0.52738 0.50562 0.31601 0.0
H361 H 0.42184 0.5145 0.26304 0.0
C362 C 0.38637 0.39668 0.31891 0.0
C363 C 0.40002 0.37301 0.34403 0.0
C364 C 0.43748 0.37275 0.35306 0.0
C365 C 0.46069 0.39652 0.339 0.0
C366 C 0.44618 0.42024 0.31548 0.0
C367 C 0.40997 0.42032 0.30503 0.0
C368 C 0.40042 0.45047 0.28313 0.0
C369 C 0.38992 0.44286 0.24136 0.0
C370 C 0.37007 0.46902 0.30371 0.0
C371 C 0.43633 0.46804 0.28478 0.0
C372 C 0.46254 0.44994 0.30306 0.0
C373 C 0.49613 0.4627 0.31313 0.0
C374 C 0.50287 0.49486 0.30492 0.0
C375 C 0.47671 0.51363 0.28573 0.0
C376 C 0.44315 0.49996 0.27538 0.0
H377 H 0.06899 0.11159 0.88 0.0
H378 H 0.14502 0.11949 0.7843 0.0
H379 H 0.11373 0.0761 0.75181 0.0
H380 H 0.07847 0.03111 0.88591 0.0
H381 H 0.03253 0.02298 0.90084 0.0
H382 H 0.05271 0.06082 0.91136 0.0
H383 H -0.00039 0.08934 0.87645 0.0
H384 H 0.97937 0.05136 0.86562 0.0
H385 H 0.98912 0.07916 0.82732 0.0
H386 H 0.07994 0.02697 0.73275 0.0
H387 H 0.05472 0.97244 0.73465 0.0
H388 H 0.00925 0.9908 0.84743 0.0
C389 C 0.07941 0.10466 0.8522 0.0
C390 C 0.10984 0.11993 0.83519 0.0
C391 C 0.12125 0.10962 0.79812 0.0
C392 C 0.10364 0.08458 0.77919 0.0
C393 C 0.07493 0.06937 0.79769 0.0
C394 C 0.06327 0.07877 0.8337 0.0
C395 C 0.03694 0.05488 0.85082 0.0
C396 C 0.05103 0.04167 0.88949 0.0
C397 C 0.99901 0.06957 0.85531 0.0
C398 C 0.03716 0.02977 0.81971 0.0
C399 C 0.05781 0.03928 0.78845 0.0
C400 C 0.06345 0.0194 0.75692 0.0
C401 C 0.04897 0.98853 0.75815 0.0
C402 C 0.03016 0.97765 0.79119 0.0
C403 C 0.02333 -0.0012 0.82177 0.0
H404 H 0.14618 0.11378 0.96839 0.0
H405 H 0.15544 0.2166 0.9672 0.0
H406 H 0.14153 0.21768 0.03691 0.0
H407 H 0.06936 0.11132 0.02258 0.0
H408 H 0.08048 0.07531 0.04835 0.0
H409 H 0.09932 0.08235 0.0014 0.0
H410 H 0.16416 0.07539 0.02914 0.0
H411 H 0.14538 0.06848 0.07641 0.0
H412 H 0.1785 0.09949 0.06915 0.0
H413 H 0.11677 0.20784 0.1048 0.0
H414 H 0.08074 0.18843 0.16071 0.0
H415 H 0.08528 0.09284 0.11526 0.0
C416 C 0.14593 0.13655 0.98282 0.0
C417 C 0.15184 0.16511 0.96213 0.0
C418 C 0.15152 0.19432 0.98241 0.0
C419 C 0.14356 0.19516 0.02207 0.0
C420 C 0.13629 0.16657 0.04121 0.0
C421 C 0.13763 0.13779 0.02209 0.0
C422 C 0.12419 0.11081 0.04728 0.0
C423 C 0.0914 0.09399 0.02881 0.0
C424 C 0.1549 0.08715 0.05601 0.0
C425 C 0.11339 0.12899 0.08299 0.0
C426 C 0.12144 0.16102 0.0796 0.0
C427 C 0.11104 0.18272 0.108 0.0
C428 C 0.09078 0.17154 0.13978 0.0
C429 C 0.08077 0.13914 0.14235 0.0
C430 C 0.09325 0.11764 0.11423 0.0
H431 H 0.36182 0.37698 0.47471 0.0
H432 H 0.35486 0.27415 0.47217 0.0
H433 H 0.37059 0.27211 0.54161 0.0
H434 H 0.43903 0.38078 0.52736 0.0
H435 H 0.427 0.41601 0.55391 0.0
H436 H 0.40761 0.40922 0.5073 0.0
H437 H 0.34304 0.41377 0.53652 0.0
H438 H 0.36238 0.42045 0.58346 0.0
H439 H 0.33034 0.3886 0.57649 0.0
H440 H 0.3973 0.28157 0.60908 0.0
H441 H 0.43402 0.30116 0.66407 0.0
H442 H 0.42412 0.39732 0.62046 0.0
C443 C 0.36278 0.35402 0.48895 0.0
C444 C 0.35716 0.32572 0.468 0.0
C445 C 0.35864 0.29617 0.48772 0.0
C446 C 0.36761 0.29483 0.52718 0.0
C447 C 0.3745 0.32326 0.54662 0.0
C448 C 0.37181 0.35232 0.52799 0.0
C449 C 0.38466 0.37925 0.55327 0.0
C450 C 0.41645 0.39734 0.53434 0.0
C451 C 0.35322 0.40185 0.56301 0.0
C452 C 0.39677 0.36083 0.58847 0.0
C453 C 0.38996 0.32862 0.58477 0.0
C454 C 0.40198 0.30681 0.61254 0.0
C455 C 0.4226 0.3181 0.64386 0.0
C456 C 0.4313 0.35078 0.64671 0.0
C457 C 0.41711 0.37231 0.61935 0.0
H458 H 0.66099 0.37824 0.01238 0.0
H459 H 0.66565 0.27542 0.02007 0.0
H460 H 0.64492 0.27174 0.95224 0.0
H461 H 0.57994 0.38177 0.96621 0.0
H462 H 0.59063 0.41609 0.93702 0.0
H463 H 0.61319 0.41022 0.98226 0.0
H464 H 0.67555 0.41303 0.94772 0.0
H465 H 0.65302 0.41877 0.90215 0.0
H466 H 0.68492 0.38664 0.90816 0.0
H467 H 0.6142 0.27985 0.88642 0.0
H468 H 0.57449 0.29858 0.83315 0.0
H469 H 0.58849 0.39562 0.87124 0.0
C470 C 0.65838 0.35489 0.99961 0.0
C471 C 0.66484 0.3271 0.02158 0.0
C472 C 0.66123 0.29705 0.00369 0.0
C473 C 0.64943 0.29478 0.96517 0.0
C474 C 0.6418 0.32278 0.94483 0.0
C475 C 0.64641 0.35228 0.96161 0.0
C476 C 0.63226 0.37873 0.93611 0.0
C477 C 0.60223 0.39778 0.95662 0.0
C478 C 0.6633 0.40058 0.92274 0.0
C479 C 0.61735 0.35959 0.90296 0.0
C480 C 0.62384 0.32739 0.90777 0.0
C481 C 0.60971 0.30505 0.88206 0.0
C482 C 0.58738 0.31584 0.85174 0.0
C483 C 0.57913 0.34855 0.84785 0.0
C484 C 0.59521 0.37057 0.87311 0.0
H485 H 0.91362 0.17332 0.53673 0.0
H486 H 0.80246 0.15668 0.50239 0.0
H487 H 0.82165 0.15604 0.43365 0.0
H488 H 0.93981 0.22378 0.45272 0.0
H489 H 0.98473 0.20687 0.45172 0.0
H490 H 0.9608 0.21042 0.49679 0.0
H491 H 0.96912 0.14996 0.50924 0.0
H492 H 0.99307 0.14627 0.46444 0.0
H493 H 0.95365 0.12201 0.47362 0.0
H494 H 0.85623 0.14987 0.36855 0.0
H495 H 0.90145 0.1386 0.31697 0.0
H496 H 0.98808 0.16163 0.39626 0.0
C497 C 0.89321 0.17027 0.51463 0.0
C498 C 0.85665 0.16509 0.52462 0.0
C499 C 0.83062 0.16097 0.49511 0.0
C500 C 0.84132 0.16057 0.45607 0.0
C501 C 0.878 0.16498 0.44718 0.0
C502 C 0.90334 0.17018 0.47587 0.0
C503 C 0.94135 0.17191 0.45989 0.0
C504 C 0.95762 0.20523 0.46562 0.0
C505 C 0.96569 0.14599 0.47785 0.0
C506 C 0.9339 0.16554 0.41788 0.0
C507 C 0.89729 0.16197 0.41057 0.0
C508 C 0.88488 0.15322 0.37396 0.0
C509 C 0.91065 0.14701 0.34473 0.0
C510 C 0.94819 0.14927 0.35267 0.0
C511 C 0.95952 0.15981 0.38927 0.0
H512 H 0.91368 0.80089 0.0393 0.0
H513 H 0.8055 0.83754 0.02026 0.0
H514 H 0.81676 0.83815 0.94973 0.0
H515 H 0.95729 0.84717 0.9744 0.0
H516 H 0.98928 0.81752 0.95862 0.0
H517 H 0.96971 0.81469 0.00582 0.0
H518 H 0.9468 0.7578 0.99037 0.0
H519 H 0.96614 0.76067 0.94275 0.0
H520 H 0.91871 0.75141 0.94865 0.0
H521 H 0.84502 0.84446 0.88244 0.0
H522 H 0.88694 0.85589 0.82798 0.0
H523 H 0.97442 0.81138 0.89121 0.0
C524 C 0.89202 0.80809 0.0201 0.0
C525 C 0.85871 0.81899 0.035 0.0
C526 C 0.83106 0.82871 0.00924 0.0
C527 C 0.83726 0.8291 0.96918 0.0
C528 C 0.87093 0.81897 0.95534 0.0
C529 C 0.89759 0.80812 0.98022 0.0
C530 C 0.93259 0.80138 0.95909 0.0
C531 C 0.96403 0.82139 0.97544 0.0
C532 C 0.94157 0.76569 0.96029 0.0
C533 C 0.92235 0.81189 0.91882 0.0
C534 C 0.88653 0.82151 0.91676 0.0
C535 C 0.87275 0.83607 0.88346 0.0
C536 C 0.89659 0.84224 0.85243 0.0
C537 C 0.93366 0.83393 0.85521 0.0
C538 C 0.94594 0.8172 0.88802 0.0
H539 H 0.64532 0.62223 0.52626 0.0
H540 H 0.64445 0.72517 0.53115 0.0
H541 H 0.6283 0.72736 0.46179 0.0
H542 H 0.67793 0.61423 0.42476 0.0
H543 H 0.6486 0.58058 0.41679 0.0
H544 H 0.66704 0.5877 0.46405 0.0
H545 H 0.60208 0.58784 0.4929 0.0
H546 H 0.58363 0.58048 0.44599 0.0
H547 H 0.56854 0.61448 0.4731 0.0
H548 H 0.60274 0.7173 0.39388 0.0
H549 H 0.56785 0.69625 0.33828 0.0
H550 H 0.58525 0.60038 0.38007 0.0
C551 C 0.64239 0.6453 0.5126 0.0
C552 C 0.64598 0.67353 0.53411 0.0
C553 C 0.64212 0.70323 0.51513 0.0
C554 C 0.63297 0.70466 0.47573 0.0
C555 C 0.62838 0.67618 0.45565 0.0
C556 C 0.63327 0.64707 0.47364 0.0
C557 C 0.62283 0.6198 0.44772 0.0
C558 C 0.65609 0.59938 0.43774 0.0
C559 C 0.59247 0.5995 0.46601 0.0
C560 C 0.60951 0.63798 0.41287 0.0
C561 C 0.61367 0.67047 0.41729 0.0
C562 C 0.60008 0.6919 0.38989 0.0
C563 C 0.58052 0.67981 0.35825 0.0
C564 C 0.57438 0.64674 0.35487 0.0
C565 C 0.59025 0.62574 0.38172 0.0
H566 H 0.39978 0.68801 0.97096 0.0
H567 H 0.29752 0.6419 0.99597 0.0
H568 H 0.3126 0.6415 0.06569 0.0
H569 H 0.45163 0.64496 0.03133 0.0
H570 H 0.48118 0.67685 0.04601 0.0
H571 H 0.45876 0.67889 1.00028 0.0
H572 H 0.43072 0.73327 0.01897 0.0
H573 H 0.45304 0.73125 0.0651 0.0
H574 H 0.40458 0.73657 0.06269 0.0
H575 H 0.34503 0.63701 0.13092 0.0
H576 H 0.39094 0.62874 0.18243 0.0
H577 H 0.46955 0.68094 0.11442 0.0
C578 C 0.38009 0.6789 0.9914 0.0
C579 C 0.34743 0.6653 0.97848 0.0
C580 C 0.32247 0.65288 0.00563 0.0
C581 C 0.33084 0.65259 0.04521 0.0
C582 C 0.36392 0.66546 0.05709 0.0
C583 C 0.38782 0.6789 0.03082 0.0
C584 C 0.42311 0.68819 0.04975 0.0
C585 C 0.45554 0.67119 0.03073 0.0
C586 C 0.42814 0.72448 0.04909 0.0
C587 C 0.41638 0.67619 0.09025 0.0
C588 C 0.38194 0.66362 0.09445 0.0
C589 C 0.37168 0.64759 0.12823 0.0
C590 C 0.39777 0.64315 0.15752 0.0
C591 C 0.43357 0.65448 0.15242 0.0
C592 C 0.44214 0.67249 0.11925 0.0
H593 H 0.15601 0.86564 0.49308 0.0
H594 H 0.14378 0.76416 0.47663 0.0
H595 H 0.12398 0.75836 0.54462 0.0
H596 H 0.18538 0.86206 0.59706 0.0
H597 H 0.16026 0.89766 0.60807 0.0
H598 H 0.17987 0.89258 0.5609 0.0
H599 H 0.11679 0.9015 0.52966 0.0
H600 H 0.09724 0.90689 0.57651 0.0
H601 H 0.07911 0.87707 0.54473 0.0
H602 H 0.09396 0.76576 0.60999 0.0
H603 H 0.05721 0.78566 0.66471 0.0
H604 H 0.09213 0.88162 0.63939 0.0
C605 C 0.15004 0.84208 0.50412 0.0
C606 C 0.1514 0.81534 0.47969 0.0
C607 C 0.14325 0.7849 0.49501 0.0
C608 C 0.13202 0.78143 0.5336 0.0
C609 C 0.12986 0.80853 0.55668 0.0
C610 C 0.13917 0.83823 0.54248 0.0
C611 C 0.13108 0.86412 0.57139 0.0
C612 C 0.16625 0.88004 0.58517 0.0
C613 C 0.10447 0.88881 0.55457 0.0
C614 C 0.11383 0.8447 0.60333 0.0
C615 C 0.11386 0.81257 0.59478 0.0
C616 C 0.09495 0.79067 0.61764 0.0
C617 C 0.07439 0.80206 0.6489 0.0
C618 C 0.07325 0.83495 0.65716 0.0
C619 C 0.09419 0.85621 0.63482 0.0
H620 H 0.23409 0.26913 0.34979 0.0
H621 H 0.30475 0.23735 0.25799 0.0
H622 H 0.25243 0.2121 0.22553 0.0
H623 H 0.18351 0.20077 0.35688 0.0
H624 H 0.14092 0.22015 0.36683 0.0
H625 H 0.18278 0.23941 0.3792 0.0
H626 H 0.16404 0.28867 0.33863 0.0
H627 H 0.12209 0.26936 0.32593 0.0
H628 H 0.15207 0.28375 0.28869 0.0
H629 H 0.19315 0.18413 0.20773 0.0
H630 H 0.13444 0.1551 0.20884 0.0
H631 H 0.10287 0.20754 0.31058 0.0
C632 C 0.23828 0.25777 0.32221 0.0
C633 C 0.27326 0.25596 0.30586 0.0
C634 C 0.27797 0.23969 0.27053 0.0
C635 C 0.2484 0.22531 0.25187 0.0
C636 C 0.21416 0.22746 0.2688 0.0
C637 C 0.20903 0.24351 0.30313 0.0
C638 C 0.17045 0.24004 0.31735 0.0
C639 C 0.16938 0.22414 0.3574 0.0
C640 C 0.15102 0.27239 0.31765 0.0
C641 C 0.15503 0.21851 0.2866 0.0
C642 C 0.1803 0.21177 0.25841 0.0
C643 C 0.17288 0.18986 0.22917 0.0
C644 C 0.13934 0.17367 0.2297 0.0
C645 C 0.11392 0.17944 0.25939 0.0
C646 C 0.12158 0.203 0.28716 0.0
H647 H 0.30218 0.20294 0.85505 0.0
H648 H 0.22898 0.22508 0.76123 0.0
H649 H 0.27468 0.26228 0.73367 0.0
H650 H 0.33787 0.28125 0.86703 0.0
H651 H 0.38295 0.26737 0.87809 0.0
H652 H 0.34433 0.24279 0.88916 0.0
H653 H 0.37251 0.19705 0.84913 0.0
H654 H 0.41095 0.22173 0.83741 0.0
H655 H 0.38452 0.20406 0.79946 0.0
H656 H 0.32965 0.29797 0.71732 0.0
H657 H 0.38556 0.33104 0.71711 0.0
H658 H 0.42171 0.28301 0.82088 0.0
C659 C 0.29573 0.21572 0.82878 0.0
C660 C 0.26218 0.21128 0.81016 0.0
C661 C 0.25463 0.22836 0.77585 0.0
C662 C 0.28047 0.24931 0.75995 0.0
C663 C 0.3137 0.25275 0.77872 0.0
C664 C 0.32116 0.23648 0.81254 0.0
C665 C 0.35834 0.24459 0.82779 0.0
C666 C 0.3557 0.25992 0.86787 0.0
C667 C 0.38303 0.2151 0.82847 0.0
C668 C 0.37061 0.26828 0.79763 0.0
C669 C 0.34482 0.27264 0.76927 0.0
C670 C 0.35012 0.29448 0.73925 0.0
C671 C 0.3821 0.31291 0.73903 0.0
C672 C 0.40808 0.30933 0.76869 0.0
C673 C 0.40241 0.28618 0.79766 0.0
H674 H 0.72776 0.23085 0.62985 0.0
H675 H 0.79358 0.25157 0.7299 0.0
H676 H 0.74057 0.27659 0.76156 0.0
H677 H 0.68004 0.30205 0.62841 0.0
H678 H 0.63758 0.28492 0.61327 0.0
H679 H 0.67957 0.26579 0.60087 0.0
H680 H 0.65714 0.21361 0.63314 0.0
H681 H 0.61503 0.2327 0.64578 0.0
H682 H 0.64232 0.21419 0.68263 0.0
H683 H 0.68116 0.30427 0.77931 0.0
H684 H 0.62241 0.33298 0.77988 0.0
H685 H 0.59568 0.29176 0.66932 0.0
C686 C 0.7307 0.23998 0.6588 0.0
C687 C 0.76448 0.23871 0.67779 0.0
C688 C 0.76771 0.2518 0.71517 0.0
C689 C 0.73774 0.266 0.73337 0.0
C690 C 0.70471 0.26682 0.71385 0.0
C691 C 0.70108 0.25399 0.67741 0.0
C692 C 0.66355 0.25976 0.66136 0.0
C693 C 0.66531 0.2793 0.62378 0.0
C694 C 0.64331 0.22818 0.65539 0.0
C695 C 0.64693 0.2787 0.69385 0.0
C696 C 0.67078 0.28231 0.72417 0.0
C697 C 0.66201 0.30101 0.75606 0.0
C698 C 0.62842 0.31701 0.75641 0.0
C699 C 0.60419 0.3142 0.72504 0.0
C700 C 0.61342 0.29412 0.69399 0.0
H701 H 0.78114 0.24888 0.13117 0.0
H702 H 0.80092 0.32294 0.21479 0.0
H703 H 0.84239 0.28704 0.2505 0.0
H704 H 0.78658 0.18025 0.1997 0.0
H705 H 0.80898 0.15571 0.1645 0.0
H706 H 0.77713 0.18572 0.14917 0.0
H707 H 0.82618 0.21061 0.10471 0.0
H708 H 0.858 0.18071 0.11978 0.0
H709 H 0.86919 0.22221 0.12498 0.0
H710 H 0.8877 0.24425 0.27271 0.0
H711 H 0.93294 0.20045 0.27664 0.0
H712 H 0.88165 0.1551 0.17894 0.0
C713 C 0.79348 0.25714 0.15759 0.0
C714 C 0.78754 0.28844 0.17051 0.0
C715 C 0.80482 0.29886 0.20466 0.0
C716 C 0.82835 0.2786 0.22517 0.0
C717 C 0.83411 0.24791 0.21133 0.0
C718 C 0.81689 0.23723 0.17838 0.0
C719 C 0.82982 0.2044 0.1674 0.0
C720 C 0.79878 0.18008 0.17039 0.0
C721 C 0.84681 0.20452 0.12684 0.0
C722 C 0.85803 0.19872 0.19829 0.0
C723 C 0.85989 0.2237 0.22389 0.0
C724 C 0.88604 0.22436 0.25313 0.0
C725 C 0.91155 0.19936 0.25533 0.0
C726 C 0.91085 0.17444 0.2281 0.0
C727 C 0.8829 0.1738 0.20026 0.0
H728 H 0.73865 0.77909 0.64877 0.0
H729 H 0.73879 0.70863 0.7401 0.0
H730 H 0.79491 0.73255 0.76702 0.0
H731 H 0.83395 0.78083 0.63389 0.0
H732 H 0.83534 0.82296 0.62415 0.0
H733 H 0.79492 0.80063 0.61374 0.0
H734 H 0.75748 0.83906 0.65646 0.0
H735 H 0.79792 0.86134 0.66724 0.0
H736 H 0.77071 0.84523 0.70583 0.0
H737 H 0.85293 0.76455 0.78258 0.0
H738 H 0.9078 0.79898 0.78243 0.0
H739 H 0.86678 0.84812 0.68138 0.0
C740 C 0.75038 0.76888 0.6746 0.0
C741 C 0.73429 0.74239 0.69279 0.0
C742 C 0.75068 0.72923 0.72612 0.0
C743 C 0.78241 0.74269 0.74159 0.0
C744 C 0.79738 0.76924 0.72326 0.0
C745 C 0.78183 0.78205 0.69038 0.0
C746 C 0.8035 0.80987 0.67519 0.0
C747 C 0.81778 0.80315 0.63434 0.0
C748 C 0.78106 0.84069 0.67626 0.0
C749 C 0.83393 0.8106 0.70428 0.0
C750 C 0.83008 0.78724 0.73205 0.0
C751 C 0.856 0.78306 0.76106 0.0
C752 C 0.88695 0.80283 0.76099 0.0
C753 C 0.89156 0.82629 0.73202 0.0
C754 C 0.86419 0.83041 0.70397 0.0
H755 H 0.6944 0.80112 0.14889 0.0
H756 H 0.77691 0.77582 0.23222 0.0
H757 H 0.73382 0.73847 0.26391 0.0
H758 H 0.61694 0.79713 0.21478 0.0
H759 H 0.58741 0.78079 0.17856 0.0
H760 H 0.624 0.8069 0.16471 0.0
H761 H 0.64912 0.76392 0.11838 0.0
H762 H 0.61233 0.73803 0.13161 0.0
H763 H 0.65851 0.72459 0.13674 0.0
H764 H 0.68146 0.70071 0.28345 0.0
H765 H 0.62794 0.66457 0.28492 0.0
H766 H 0.58099 0.7168 0.1895 0.0
C767 C 0.70334 0.78783 0.17393 0.0
C768 C 0.739 0.79106 0.18798 0.0
C769 C 0.74969 0.77338 0.2209 0.0
C770 C 0.72534 0.75235 0.23919 0.0
C771 C 0.69025 0.74962 0.22447 0.0
C772 C 0.67942 0.76697 0.19251 0.0
C773 C 0.64116 0.75874 0.18074 0.0
C774 C 0.61589 0.78762 0.18497 0.0
C775 C 0.64025 0.74552 0.13945 0.0
C776 C 0.63237 0.73334 0.21025 0.0
C777 C 0.66061 0.72856 0.23576 0.0
C778 C 0.65902 0.70462 0.26392 0.0
C779 C 0.62845 0.68438 0.26488 0.0
C780 C 0.60033 0.68821 0.23759 0.0
C781 C 0.60198 0.71366 0.21101 0.0
H782 H 0.24673 0.71546 0.36294 0.0
H783 H 0.24517 0.78525 0.27089 0.0
H784 H 0.30045 0.76086 0.24258 0.0
H785 H 0.34243 0.71322 0.37507 0.0
H786 H 0.34365 0.67113 0.38514 0.0
H787 H 0.3037 0.6938 0.39651 0.0
H788 H 0.26494 0.65536 0.35524 0.0
H789 H 0.30491 0.63275 0.34345 0.0
H790 H 0.27693 0.64883 0.30555 0.0
H791 H 0.3576 0.72794 0.22516 0.0
H792 H 0.41206 0.69295 0.22387 0.0
H793 H 0.3737 0.64557 0.32736 0.0
C794 C 0.25796 0.72546 0.3367 0.0
C795 C 0.24154 0.75186 0.3187 0.0
C796 C 0.25727 0.76472 0.28478 0.0
C797 C 0.28853 0.75098 0.2685 0.0
C798 C 0.30376 0.72446 0.28662 0.0
C799 C 0.28895 0.71202 0.32013 0.0
C800 C 0.31075 0.68416 0.33493 0.0
C801 C 0.32604 0.69101 0.37529 0.0
C802 C 0.28802 0.65347 0.33477 0.0
C803 C 0.34047 0.68303 0.30495 0.0
C804 C 0.33607 0.70614 0.27697 0.0
C805 C 0.36115 0.7097 0.24692 0.0
C806 C 0.39186 0.68962 0.24618 0.0
C807 C 0.39715 0.66659 0.27549 0.0
C808 C 0.37059 0.66305 0.30458 0.0
H809 H 0.2126 0.72332 0.88371 0.0
H810 H 0.2367 0.68389 0.77157 0.0
H811 H 0.19678 0.72423 0.7409 0.0
H812 H 0.11951 0.73915 0.8664 0.0
H813 H 0.11895 0.77553 0.89366 0.0
H814 H 0.15065 0.74455 0.90582 0.0
H815 H 0.20392 0.78443 0.89836 0.0
H816 H 0.17232 0.81553 0.88611 0.0
H817 H 0.20916 0.80625 0.85388 0.0
H818 H 0.15025 0.76766 0.72341 0.0
H819 H 0.10376 0.81025 0.72136 0.0
H820 H 0.11266 0.82085 0.84501 0.0
C821 C 0.20955 0.72336 0.85269 0.0
C822 C 0.22719 0.70038 0.82997 0.0
C823 C 0.22297 0.70119 0.78943 0.0
C824 C 0.20045 0.72401 0.77182 0.0
C825 C 0.18275 0.74605 0.79517 0.0
C826 C 0.18732 0.74594 0.83474 0.0
C827 C 0.16477 0.77149 0.85367 0.0
C828 C 0.13682 0.75679 0.88152 0.0
C829 C 0.189 0.79587 0.8742 0.0
C830 C 0.14657 0.7859 0.8187 0.0
C831 C 0.15706 0.77103 0.78514 0.0
C832 C 0.14216 0.77962 0.74958 0.0
C833 C 0.11568 0.80381 0.74855 0.0
C834 C 0.10453 0.8192 0.7827 0.0
C835 C 0.12074 0.81011 0.81804 0.0
loop_
_geom_bond_atom_site_label_1
_geom_bond_atom_site_label_2
_geom_bond_distance
_geom_bond_site_symmetry_2
_ccdc_geom_bond_type
H0 C7 0.929 . S
H1 C10 0.930 . S
H2 C12 0.929 . S
H3 C4 0.969 . S
C4 H3 0.969 . S
C4 O5 1.550 . S
C4 H6 0.973 . S
O5 C4 1.550 . S
O5 C11 1.412 . S
H6 C4 0.973 . S
C7 H0 0.929 . S
C7 C8 1.400 . S
C7 C9 1.364 . S
C8 C7 1.400 . S
C8 C12 1.377 . S
C9 C7 1.364 . S
C9 C10 1.374 . S
C10 H1 0.930 . S
C10 C9 1.374 . S
C10 C11 1.383 . S
C11 O5 1.412 . S
C11 C10 1.383 . S
C11 C12 1.394 . S
C12 H2 0.929 . S
C12 C8 1.377 . S
C12 C11 1.394 . S
H13 C20 0.929 . S
H14 C23 0.930 . S
H15 C25 0.929 . S
H16 C17 0.969 . S
C17 H16 0.969 . S
C17 O18 1.550 . S
C17 H19 0.973 . S
O18 C17 1.550 . S
O18 C24 1.412 . S
H19 C17 0.973 . S
C20 H13 0.929 . S
C20 C21 1.400 . S
C20 C22 1.364 . S
C21 C20 1.400 . S
C21 C25 1.377 . S
C22 C20 1.364 . S
C22 C23 1.374 . S
C23 H14 0.930 . S
C23 C22 1.374 . S
C23 C24 1.383 . S
C24 O18 1.412 . S
C24 C23 1.383 . S
C24 C25 1.394 . S
C25 H15 0.929 . S
C25 C21 1.377 . S
C25 C24 1.394 . S
H26 C33 0.929 . S
H27 C36 0.930 . S
H28 C38 0.929 . S
H29 C30 0.969 . S
C30 H29 0.969 . S
C30 O31 1.550 . S
C30 H32 0.973 . S
O31 C30 1.550 . S
O31 C37 1.412 . S
H32 C30 0.973 . S
C33 H26 0.929 . S
C33 C34 1.400 . S
C33 C35 1.364 . S
C34 C33 1.400 . S
C34 C38 1.377 . S
C35 C33 1.364 . S
C35 C36 1.374 . S
C36 H27 0.930 . S
C36 C35 1.374 . S
C36 C37 1.383 . S
C37 O31 1.412 . S
C37 C36 1.383 . S
C37 C38 1.394 . S
C38 H28 0.929 . S
C38 C34 1.377 . S
C38 C37 1.394 . S
H39 C46 0.929 . S
H40 C49 0.930 . S
H41 C51 0.929 . S
H42 C43 0.969 . S
C43 H42 0.969 . S
C43 O44 1.550 . S
C43 H45 0.973 . S
O44 C43 1.550 . S
O44 C50 1.412 . S
H45 C43 0.973 . S
C46 H39 0.929 . S
C46 C47 1.400 . S
C46 C48 1.364 . S
C47 C46 1.400 . S
C47 C51 1.377 . S
C48 C46 1.364 . S
C48 C49 1.374 . S
C49 H40 0.930 . S
C49 C48 1.374 . S
C49 C50 1.383 . S
C50 O44 1.412 . S
C50 C49 1.383 . S
C50 C51 1.394 . S
C51 H41 0.929 . S
C51 C47 1.377 . S
C51 C50 1.394 . S
H52 C59 0.929 . S
H53 C62 0.930 . S
H54 C64 0.929 . S
H55 C56 0.969 . S
C56 H55 0.969 . S
C56 O57 1.550 . S
C56 H58 0.973 . S
O57 C56 1.550 . S
O57 C63 1.412 . S
H58 C56 0.973 . S
C59 H52 0.929 . S
C59 C60 1.400 . S
C59 C61 1.364 . S
C60 C59 1.400 . S
C60 C64 1.377 . S
C61 C59 1.364 . S
C61 C62 1.374 . S
C62 H53 0.930 . S
C62 C61 1.374 . S
C62 C63 1.383 . S
C63 O57 1.412 . S
C63 C62 1.383 . S
C63 C64 1.394 . S
C64 H54 0.929 . S
C64 C60 1.377 . S
C64 C63 1.394 . S
H65 C72 0.929 . S
H66 C75 0.930 . S
H67 C77 0.929 . S
H68 C69 0.969 . S
C69 H68 0.969 . S
C69 O70 1.550 . S
C69 H71 0.973 . S
O70 C69 1.550 . S
O70 C76 1.412 . S
H71 C69 0.973 . S
C72 H65 0.929 . S
C72 C73 1.400 . S
C72 C74 1.364 . S
C73 C72 1.400 . S
C73 C77 1.377 . S
C74 C72 1.364 . S
C74 C75 1.374 . S
C75 H66 0.930 . S
C75 C74 1.374 . S
C75 C76 1.383 . S
C76 O70 1.412 . S
C76 C75 1.383 . S
C76 C77 1.394 . S
C77 H67 0.929 . S
C77 C73 1.377 . S
C77 C76 1.394 . S
H78 C85 0.929 . S
H79 C88 0.930 . S
H80 C90 0.929 . S
H81 C82 0.969 . S
C82 H81 0.969 . S
C82 O83 1.550 . S
C82 H84 0.973 . S
O83 C82 1.550 . S
O83 C89 1.412 . S
H84 C82 0.973 . S
C85 H78 0.929 . S
C85 C86 1.400 . S
C85 C87 1.364 . S
C86 C85 1.400 . S
C86 C90 1.377 . S
C87 C85 1.364 . S
C87 C88 1.374 . S
C88 H79 0.930 . S
C88 C87 1.374 . S
C88 C89 1.383 . S
C89 O83 1.412 . S
C89 C88 1.383 . S
C89 C90 1.394 . S
C90 H80 0.929 . S
C90 C86 1.377 . S
C90 C89 1.394 . S
H91 C98 0.929 . S
H92 C101 0.930 . S
H93 C103 0.929 . S
H94 C95 0.969 . S
C95 H94 0.969 . S
C95 O96 1.550 . S
C95 H97 0.973 . S
O96 C95 1.550 . S
O96 C102 1.412 . S
H97 C95 0.973 . S
C98 H91 0.929 . S
C98 C99 1.400 . S
C98 C100 1.364 . S
C99 C98 1.400 . S
C99 C103 1.377 . S
C100 C98 1.364 . S
C100 C101 1.374 . S
C101 H92 0.930 . S
C101 C100 1.374 . S
C101 C102 1.383 . S
C102 O96 1.412 . S
C102 C101 1.383 . S
C102 C103 1.394 . S
C103 H93 0.929 . S
C103 C99 1.377 . S
C103 C102 1.394 . S
Zn104 O110 1.920 . S
Zn104 O116 1.898 . S
Zn104 O119 1.905 . S
Zn105 O113 1.905 1_655 S
Zn105 O114 1.898 . S
Zn105 O122 1.920 . S
Zn106 O109 2.080 1_455 S
Zn106 O112 2.114 . S
Zn106 O115 2.120 1_455 S
Zn106 O117 2.120 . S
Zn106 O118 2.114 . S
Zn106 O121 2.080 1_455 S
C107 O112 1.166 . S
C107 O113 1.182 . S
C108 O114 1.167 . S
C108 O115 1.299 . S
O109 Zn106 2.080 1_655 S
O109 C123 1.305 . S
O110 Zn104 1.920 . S
O110 C123 1.234 1_455 S
C111 O116 1.167 . S
C111 O117 1.299 . S
O112 Zn106 2.114 . S
O112 C107 1.166 . S
O113 Zn105 1.905 1_455 S
O113 C107 1.182 . S
O114 Zn105 1.898 . S
O114 C108 1.167 . S
O115 Zn106 2.120 1_655 S
O115 C108 1.299 . S
O116 Zn104 1.898 . S
O116 C111 1.167 . S
O117 Zn106 2.120 . S
O117 C111 1.299 . S
O118 Zn106 2.114 . S
O118 C120 1.166 . S
O119 Zn104 1.905 . S
O119 C120 1.182 . S
C120 O118 1.166 . S
C120 O119 1.182 . S
O121 Zn106 2.080 1_655 S
O121 C124 1.305 . S
O122 Zn105 1.920 . S
O122 C124 1.234 . S
C123 O109 1.305 . S
C123 O110 1.234 1_655 S
C124 O121 1.305 . S
C124 O122 1.234 . S
Zn125 O131 1.920 . S
Zn125 O137 1.898 . S
Zn125 O140 1.905 . S
Zn126 O134 1.905 . S
Zn126 O135 1.898 . S
Zn126 O143 1.920 . S
Zn127 O130 2.080 . S
Zn127 O133 2.114 . S
Zn127 O136 2.120 . S
Zn127 O138 2.120 . S
Zn127 O139 2.114 . S
Zn127 O142 2.080 . S
C128 O133 1.166 . S
C128 O134 1.182 . S
C129 O135 1.167 . S
C129 O136 1.299 . S
O130 Zn127 2.080 . S
O130 C144 1.305 . S
O131 Zn125 1.920 . S
O131 C144 1.234 . S
C132 O137 1.167 . S
C132 O138 1.299 . S
O133 Zn127 2.114 . S
O133 C128 1.166 . S
O134 Zn126 1.905 . S
O134 C128 1.182 . S
O135 Zn126 1.898 . S
O135 C129 1.167 . S
O136 Zn127 2.120 . S
O136 C129 1.299 . S
O137 Zn125 1.898 . S
O137 C132 1.167 . S
O138 Zn127 2.120 . S
O138 C132 1.299 . S
O139 Zn127 2.114 . S
O139 C141 1.166 . S
O140 Zn125 1.905 . S
O140 C141 1.182 . S
C141 O139 1.166 . S
C141 O140 1.182 . S
O142 Zn127 2.080 . S
O142 C145 1.305 . S
O143 Zn126 1.920 . S
O143 C145 1.234 . S
C144 O130 1.305 . S
C144 O131 1.234 . S
C145 O142 1.305 . S
C145 O143 1.234 . S
Zn146 O152 1.920 . S
Zn146 O158 1.898 . S
Zn146 O161 1.905 . S
Zn147 O155 1.905 . S
Zn147 O156 1.898 . S
Zn147 O164 1.920 1_655 S
Zn148 O151 2.080 . S
Zn148 O154 2.114 1_455 S
Zn148 O157 2.120 1_455 S
Zn148 O159 2.120 . S
Zn148 O160 2.114 1_455 S
Zn148 O163 2.080 . S
C149 O154 1.166 . S
C149 O155 1.182 . S
C150 O156 1.167 . S
C150 O157 1.299 . S
O151 Zn148 2.080 . S
O151 C165 1.305 . S
O152 Zn146 1.920 . S
O152 C165 1.234 . S
C153 O158 1.167 . S
C153 O159 1.299 . S
O154 Zn148 2.114 1_655 S
O154 C149 1.166 . S
O155 Zn147 1.905 . S
O155 C149 1.182 . S
O156 Zn147 1.898 . S
O156 C150 1.167 . S
O157 Zn148 2.120 1_655 S
O157 C150 1.299 . S
O158 Zn146 1.898 . S
O158 C153 1.167 . S
O159 Zn148 2.120 . S
O159 C153 1.299 . S
O160 Zn148 2.114 1_655 S
O160 C162 1.166 . S
O161 Zn146 1.905 . S
O161 C162 1.182 1_455 S
C162 O160 1.166 . S
C162 O161 1.182 1_655 S
O163 Zn148 2.080 . S
O163 C166 1.305 . S
O164 Zn147 1.920 1_455 S
O164 C166 1.234 . S
C165 O151 1.305 . S
C165 O152 1.234 . S
C166 O163 1.305 . S
C166 O164 1.234 . S
Zn167 O173 1.920 . S
Zn167 O179 1.898 . S
Zn167 O182 1.905 . S
Zn168 O176 1.905 . S
Zn168 O177 1.898 . S
Zn168 O185 1.920 . S
Zn169 O172 2.080 . S
Zn169 O175 2.114 . S
Zn169 O178 2.120 . S
Zn169 O180 2.120 . S
Zn169 O181 2.114 . S
Zn169 O184 2.080 . S
C170 O175 1.166 . S
C170 O176 1.182 . S
C171 O177 1.167 . S
C171 O178 1.299 . S
O172 Zn169 2.080 . S
O172 C186 1.305 . S
O173 Zn167 1.920 . S
O173 C186 1.234 . S
C174 O179 1.167 . S
C174 O180 1.299 . S
O175 Zn169 2.114 . S
O175 C170 1.166 . S
O176 Zn168 1.905 . S
O176 C170 1.182 . S
O177 Zn168 1.898 . S
O177 C171 1.167 . S
O178 Zn169 2.120 . S
O178 C171 1.299 . S
O179 Zn167 1.898 . S
O179 C174 1.167 . S
O180 Zn169 2.120 . S
O180 C174 1.299 . S
O181 Zn169 2.114 . S
O181 C183 1.166 . S
O182 Zn167 1.905 . S
O182 C183 1.182 . S
C183 O181 1.166 . S
C183 O182 1.182 . S
O184 Zn169 2.080 . S
O184 C187 1.305 . S
O185 Zn168 1.920 . S
O185 C187 1.234 . S
C186 O172 1.305 . S
C186 O173 1.234 . S
C187 O184 1.305 . S
C187 O185 1.234 . S
H188 C200 0.930 . S
H189 C202 0.930 . S
H190 C203 0.930 . S
H191 C207 0.959 . S
H192 C207 0.959 . S
H193 C207 0.961 . S
H194 C208 0.960 . S
H195 C208 0.961 . S
H196 C208 0.959 . S
H197 C211 0.929 . S
H198 C212 0.931 . S
H199 C214 0.930 . S
C200 H188 0.930 . S
C200 C201 1.399 . S
C200 C205 1.399 . S
C201 C200 1.399 . S
C201 C202 1.376 . S
C202 H189 0.930 . S
C202 C201 1.376 . S
C202 C203 1.388 . S
C203 H190 0.930 . S
C203 C202 1.388 . S
C203 C204 1.390 . S
C204 C203 1.390 . S
C204 C205 1.394 . S
C204 C210 1.465 . S
C205 C200 1.399 . S
C205 C204 1.394 . S
C205 C206 1.516 . S
C206 C205 1.516 . S
C206 C207 1.502 . S
C206 C208 1.561 . S
C206 C209 1.526 . S
C207 H191 0.959 . S
C207 H192 0.959 . S
C207 H193 0.961 . S
C207 C206 1.502 . S
C208 H194 0.960 . S
C208 H195 0.961 . S
C208 H196 0.959 . S
C208 C206 1.561 . S
C209 C206 1.526 . S
C209 C210 1.396 . S
C209 C214 1.390 1_565 S
C210 C204 1.465 . S
C210 C209 1.396 . S
C210 C211 1.399 . S
C211 H197 0.929 . S
C211 C210 1.399 . S
C211 C212 1.385 1_565 S
C212 H198 0.931 . S
C212 C211 1.385 1_545 S
C212 C213 1.389 . S
C213 C212 1.389 . S
C213 C214 1.387 . S
C214 H199 0.930 . S
C214 C209 1.390 1_545 S
C214 C213 1.387 . S
H215 C227 0.930 . S
H216 C229 0.930 . S
H217 C230 0.930 . S
H218 C234 0.959 . S
H219 C234 0.959 . S
H220 C234 0.961 . S
H221 C235 0.960 . S
H222 C235 0.961 . S
H223 C235 0.959 . S
H224 C238 0.929 . S
H225 C239 0.931 . S
H226 C241 0.930 . S
C227 H215 0.930 . S
C227 C228 1.399 . S
C227 C232 1.399 . S
C228 C227 1.399 . S
C228 C229 1.376 . S
C229 H216 0.930 . S
C229 C228 1.376 . S
C229 C230 1.388 . S
C230 H217 0.930 . S
C230 C229 1.388 . S
C230 C231 1.390 . S
C231 C230 1.390 . S
C231 C232 1.394 . S
C231 C237 1.465 . S
C232 C227 1.399 . S
C232 C231 1.394 . S
C232 C233 1.516 . S
C233 C232 1.516 . S
C233 C234 1.502 . S
C233 C235 1.561 . S
C233 C236 1.526 . S
C234 H218 0.959 . S
C234 H219 0.959 . S
C234 H220 0.961 . S
C234 C233 1.502 . S
C235 H221 0.960 . S
C235 H222 0.961 . S
C235 H223 0.959 . S
C235 C233 1.561 . S
C236 C233 1.526 . S
C236 C237 1.396 . S
C236 C241 1.390 . S
C237 C231 1.465 . S
C237 C236 1.396 . S
C237 C238 1.399 . S
C238 H224 0.929 . S
C238 C237 1.399 . S
C238 C239 1.385 . S
C239 H225 0.931 . S
C239 C238 1.385 . S
C239 C240 1.389 . S
C240 C239 1.389 . S
C240 C241 1.387 . S
C241 H226 0.930 . S
C241 C236 1.390 . S
C241 C240 1.387 . S
H242 C254 0.930 . S
H243 C256 0.930 . S
H244 C257 0.930 . S
H245 C261 0.959 . S
H246 C261 0.959 . S
H247 C261 0.961 . S
H248 C262 0.960 . S
H249 C262 0.961 . S
H250 C262 0.959 . S
H251 C265 0.929 . S
H252 C266 0.931 . S
H253 C268 0.930 . S
C254 H242 0.930 . S
C254 C255 1.399 . S
C254 C259 1.399 . S
C255 C254 1.399 . S
C255 C256 1.376 . S
C256 H243 0.930 . S
C256 C255 1.376 . S
C256 C257 1.388 . S
C257 H244 0.930 . S
C257 C256 1.388 . S
C257 C258 1.390 . S
C258 C257 1.390 . S
C258 C259 1.394 . S
C258 C264 1.465 . S
C259 C254 1.399 . S
C259 C258 1.394 . S
C259 C260 1.516 . S
C260 C259 1.516 . S
C260 C261 1.502 . S
C260 C262 1.561 . S
C260 C263 1.526 . S
C261 H245 0.959 . S
C261 H246 0.959 . S
C261 H247 0.961 . S
C261 C260 1.502 . S
C262 H248 0.960 . S
C262 H249 0.961 . S
C262 H250 0.959 . S
C262 C260 1.561 . S
C263 C260 1.526 . S
C263 C264 1.396 . S
C263 C268 1.390 . S
C264 C258 1.465 . S
C264 C263 1.396 . S
C264 C265 1.399 . S
C265 H251 0.929 . S
C265 C264 1.399 . S
C265 C266 1.385 . S
C266 H252 0.931 . S
C266 C265 1.385 . S
C266 C267 1.389 . S
C267 C266 1.389 . S
C267 C268 1.387 . S
C268 H253 0.930 . S
C268 C263 1.390 . S
C268 C267 1.387 . S
H269 C281 0.930 . S
H270 C283 0.930 . S
H271 C284 0.930 . S
H272 C288 0.959 . S
H273 C288 0.959 . S
H274 C288 0.961 . S
H275 C289 0.960 . S
H276 C289 0.961 . S
H277 C289 0.959 . S
H278 C292 0.929 . S
H279 C293 0.931 . S
H280 C295 0.930 . S
C281 H269 0.930 . S
C281 C282 1.399 . S
C281 C286 1.399 . S
C282 C281 1.399 . S
C282 C283 1.376 . S
C283 H270 0.930 . S
C283 C282 1.376 . S
C283 C284 1.388 . S
C284 H271 0.930 . S
C284 C283 1.388 . S
C284 C285 1.390 . S
C285 C284 1.390 . S
C285 C286 1.394 . S
C285 C291 1.465 . S
C286 C281 1.399 . S
C286 C285 1.394 . S
C286 C287 1.516 . S
C287 C286 1.516 . S
C287 C288 1.502 . S
C287 C289 1.561 . S
C287 C290 1.526 . S
C288 H272 0.959 . S
C288 H273 0.959 . S
C288 H274 0.961 . S
C288 C287 1.502 . S
C289 H275 0.960 . S
C289 H276 0.961 . S
C289 H277 0.959 . S
C289 C287 1.561 . S
C290 C287 1.526 . S
C290 C291 1.396 . S
C290 C295 1.390 1_565 S
C291 C285 1.465 . S
C291 C290 1.396 . S
C291 C292 1.399 . S
C292 H278 0.929 . S
C292 C291 1.399 . S
C292 C293 1.385 1_565 S
C293 H279 0.931 . S
C293 C292 1.385 1_545 S
C293 C294 1.389 . S
C294 C293 1.389 . S
C294 C295 1.387 . S
C295 H280 0.930 . S
C295 C290 1.390 1_545 S
C295 C294 1.387 . S
H296 C308 0.930 . S
H297 C310 0.930 . S
H298 C311 0.930 . S
H299 C315 0.959 . S
H300 C315 0.959 . S
H301 C315 0.961 . S
H302 C316 0.960 . S
H303 C316 0.961 . S
H304 C316 0.959 . S
H305 C319 0.929 . S
H306 C320 0.931 . S
H307 C322 0.931 . S
C308 H296 0.930 . S
C308 C309 1.399 . S
C308 C313 1.399 . S
C309 C308 1.399 . S
C309 C310 1.376 . S
C310 H297 0.930 . S
C310 C309 1.376 . S
C310 C311 1.388 . S
C311 H298 0.930 . S
C311 C310 1.388 . S
C311 C312 1.390 . S
C312 C311 1.390 . S
C312 C313 1.394 . S
C312 C318 1.465 . S
C313 C308 1.399 . S
C313 C312 1.394 . S
C313 C314 1.516 . S
C314 C313 1.516 . S
C314 C315 1.502 . S
C314 C316 1.561 . S
C314 C317 1.526 . S
C315 H299 0.959 . S
C315 H300 0.959 . S
C315 H301 0.961 . S
C315 C314 1.502 . S
C316 H302 0.960 . S
C316 H303 0.961 . S
C316 H304 0.959 . S
C316 C314 1.561 . S
C317 C314 1.526 . S
C317 C318 1.396 . S
C317 C322 1.390 1_545 S
C318 C312 1.465 . S
C318 C317 1.396 . S
C318 C319 1.399 1_545 S
C319 H305 0.929 . S
C319 C318 1.399 1_565 S
C319 C320 1.385 . S
C320 H306 0.931 . S
C320 C319 1.385 . S
C320 C321 1.389 . S
C321 C320 1.389 . S
C321 C322 1.387 . S
C322 H307 0.931 . S
C322 C317 1.390 1_565 S
C322 C321 1.387 . S
H323 C335 0.930 . S
H324 C337 0.930 . S
H325 C338 0.930 . S
H326 C342 0.959 . S
H327 C342 0.959 . S
H328 C342 0.961 . S
H329 C343 0.960 . S
H330 C343 0.961 . S
H331 C343 0.959 . S
H332 C346 0.929 . S
H333 C347 0.931 . S
H334 C349 0.930 . S
C335 H323 0.930 . S
C335 C336 1.399 . S
C335 C340 1.399 . S
C336 C335 1.399 . S
C336 C337 1.376 . S
C337 H324 0.930 . S
C337 C336 1.376 . S
C337 C338 1.388 . S
C338 H325 0.930 . S
C338 C337 1.388 . S
C338 C339 1.390 . S
C339 C338 1.390 . S
C339 C340 1.394 . S
C339 C345 1.465 . S
C340 C335 1.399 . S
C340 C339 1.394 . S
C340 C341 1.516 . S
C341 C340 1.516 . S
C341 C342 1.502 . S
C341 C343 1.561 . S
C341 C344 1.526 . S
C342 H326 0.959 . S
C342 H327 0.959 . S
C342 H328 0.961 . S
C342 C341 1.502 . S
C343 H329 0.960 . S
C343 H330 0.961 . S
C343 H331 0.959 . S
C343 C341 1.561 . S
C344 C341 1.526 . S
C344 C345 1.396 . S
C344 C349 1.390 . S
C345 C339 1.465 . S
C345 C344 1.396 . S
C345 C346 1.399 . S
C346 H332 0.929 . S
C346 C345 1.399 . S
C346 C347 1.385 . S
C347 H333 0.931 . S
C347 C346 1.385 . S
C347 C348 1.389 . S
C348 C347 1.389 . S
C348 C349 1.387 . S
C349 H334 0.930 . S
C349 C344 1.390 . S
C349 C348 1.387 . S
H350 C362 0.930 . S
H351 C364 0.930 . S
H352 C365 0.930 . S
H353 C369 0.959 . S
H354 C369 0.959 . S
H355 C369 0.961 . S
H356 C370 0.960 . S
H357 C370 0.961 . S
H358 C370 0.959 . S
H359 C373 0.929 . S
H360 C374 0.931 . S
H361 C376 0.930 . S
C362 H350 0.930 . S
C362 C363 1.399 . S
C362 C367 1.399 . S
C363 C362 1.399 . S
C363 C364 1.376 . S
C364 H351 0.930 . S
C364 C363 1.376 . S
C364 C365 1.388 . S
C365 H352 0.930 . S
C365 C364 1.388 . S
C365 C366 1.390 . S
C366 C365 1.390 . S
C366 C367 1.394 . S
C366 C372 1.465 . S
C367 C362 1.399 . S
C367 C366 1.394 . S
C367 C368 1.516 . S
C368 C367 1.516 . S
C368 C369 1.502 . S
C368 C370 1.561 . S
C368 C371 1.526 . S
C369 H353 0.959 . S
C369 H354 0.959 . S
C369 H355 0.961 . S
C369 C368 1.502 . S
C370 H356 0.960 . S
C370 H357 0.961 . S
C370 H358 0.959 . S
C370 C368 1.561 . S
C371 C368 1.526 . S
C371 C372 1.396 . S
C371 C376 1.390 . S
C372 C366 1.465 . S
C372 C371 1.396 . S
C372 C373 1.399 . S
C373 H359 0.929 . S
C373 C372 1.399 . S
C373 C374 1.385 . S
C374 H360 0.931 . S
C374 C373 1.385 . S
C374 C375 1.389 . S
C375 C374 1.389 . S
C375 C376 1.387 . S
C376 H361 0.930 . S
C376 C371 1.390 . S
C376 C375 1.387 . S
H377 C389 0.930 . S
H378 C391 0.930 . S
H379 C392 0.930 . S
H380 C396 0.959 . S
H381 C396 0.959 . S
H382 C396 0.961 . S
H383 C397 0.960 . S
H384 C397 0.961 . S
H385 C397 0.959 . S
H386 C400 0.929 . S
H387 C401 0.931 . S
H388 C403 0.931 . S
C389 H377 0.930 . S
C389 C390 1.399 . S
C389 C394 1.399 . S
C390 C389 1.399 . S
C390 C391 1.376 . S
C391 H378 0.930 . S
C391 C390 1.376 . S
C391 C392 1.388 . S
C392 H379 0.930 . S
C392 C391 1.388 . S
C392 C393 1.390 . S
C393 C392 1.390 . S
C393 C394 1.394 . S
C393 C399 1.465 . S
C394 C389 1.399 . S
C394 C393 1.394 . S
C394 C395 1.516 . S
C395 C394 1.516 . S
C395 C396 1.502 . S
C395 C397 1.561 . S
C395 C398 1.526 . S
C396 H380 0.959 . S
C396 H381 0.959 . S
C396 H382 0.961 . S
C396 C395 1.502 . S
C397 H383 0.960 . S
C397 H384 0.961 . S
C397 H385 0.959 . S
C397 C395 1.561 . S
C398 C395 1.526 . S
C398 C399 1.396 . S
C398 C403 1.390 1_545 S
C399 C393 1.465 . S
C399 C398 1.396 . S
C399 C400 1.399 1_545 S
C400 H386 0.929 . S
C400 C399 1.399 1_565 S
C400 C401 1.385 . S
C401 H387 0.931 . S
C401 C400 1.385 . S
C401 C402 1.389 . S
C402 C401 1.389 . S
C402 C403 1.387 . S
C403 H388 0.931 . S
C403 C398 1.390 1_565 S
C403 C402 1.387 . S
H404 C416 0.930 . S
H405 C418 0.930 . S
H406 C419 0.930 . S
H407 C423 0.959 . S
H408 C423 0.959 . S
H409 C423 0.961 . S
H410 C424 0.960 . S
H411 C424 0.961 . S
H412 C424 0.959 . S
H413 C427 0.929 . S
H414 C428 0.931 . S
H415 C430 0.930 . S
C416 H404 0.930 . S
C416 C417 1.399 . S
C416 C421 1.399 1_556 S
C417 C416 1.399 . S
C417 C418 1.376 . S
C418 H405 0.930 . S
C418 C417 1.376 . S
C418 C419 1.388 1_556 S
C419 H406 0.930 . S
C419 C418 1.388 1_554 S
C419 C420 1.390 . S
C420 C419 1.390 . S
C420 C421 1.394 . S
C420 C426 1.465 . S
C421 C416 1.399 1_554 S
C421 C420 1.394 . S
C421 C422 1.516 . S
C422 C421 1.516 . S
C422 C423 1.502 . S
C422 C424 1.561 . S
C422 C425 1.526 . S
C423 H407 0.959 . S
C423 H408 0.959 . S
C423 H409 0.961 . S
C423 C422 1.502 . S
C424 H410 0.960 . S
C424 H411 0.961 . S
C424 H412 0.959 . S
C424 C422 1.561 . S
C425 C422 1.526 . S
C425 C426 1.396 . S
C425 C430 1.390 . S
C426 C420 1.465 . S
C426 C425 1.396 . S
C426 C427 1.399 . S
C427 H413 0.929 . S
C427 C426 1.399 . S
C427 C428 1.385 . S
C428 H414 0.931 . S
C428 C427 1.385 . S
C428 C429 1.389 . S
C429 C428 1.389 . S
C429 C430 1.387 . S
C430 H415 0.930 . S
C430 C425 1.390 . S
C430 C429 1.387 . S
H431 C443 0.930 . S
H432 C445 0.930 . S
H433 C446 0.930 . S
H434 C450 0.959 . S
H435 C450 0.959 . S
H436 C450 0.961 . S
H437 C451 0.960 . S
H438 C451 0.961 . S
H439 C451 0.959 . S
H440 C454 0.929 . S
H441 C455 0.931 . S
H442 C457 0.930 . S
C443 H431 0.930 . S
C443 C444 1.399 . S
C443 C448 1.399 . S
C444 C443 1.399 . S
C444 C445 1.376 . S
C445 H432 0.930 . S
C445 C444 1.376 . S
C445 C446 1.388 . S
C446 H433 0.930 . S
C446 C445 1.388 . S
C446 C447 1.390 . S
C447 C446 1.390 . S
C447 C448 1.394 . S
C447 C453 1.465 . S
C448 C443 1.399 . S
C448 C447 1.394 . S
C448 C449 1.516 . S
C449 C448 1.516 . S
C449 C450 1.502 . S
C449 C451 1.561 . S
C449 C452 1.526 . S
C450 H434 0.959 . S
C450 H435 0.959 . S
C450 H436 0.961 . S
C450 C449 1.502 . S
C451 H437 0.960 . S
C451 H438 0.961 . S
C451 H439 0.959 . S
C451 C449 1.561 . S
C452 C449 1.526 . S
C452 C453 1.396 . S
C452 C457 1.390 . S
C453 C447 1.465 . S
C453 C452 1.396 . S
C453 C454 1.399 . S
C454 H440 0.929 . S
C454 C453 1.399 . S
C454 C455 1.385 . S
C455 H441 0.931 . S
C455 C454 1.385 . S
C455 C456 1.389 . S
C456 C455 1.389 . S
C456 C457 1.387 . S
C457 H442 0.930 . S
C457 C452 1.390 . S
C457 C456 1.387 . S
H458 C470 0.926 1_556 S
H459 C472 0.930 . S
H460 C473 0.930 . S
H461 C477 0.959 . S
H462 C477 0.959 . S
H463 C477 0.961 . S
H464 C478 0.960 . S
H465 C478 0.961 . S
H466 C478 0.959 . S
H467 C481 0.929 . S
H468 C482 0.931 . S
H469 C484 0.930 . S
C470 H458 0.926 1_554 S
C470 C471 1.399 . S
C470 C475 1.399 1_554 S
C471 C470 1.399 . S
C471 C472 1.376 . S
C472 H459 0.930 . S
C472 C471 1.376 . S
C472 C473 1.388 . S
C473 H460 0.930 . S
C473 C472 1.388 . S
C473 C474 1.390 1_554 S
C474 C473 1.390 1_556 S
C474 C475 1.394 . S
C474 C480 1.465 . S
C475 C470 1.399 1_556 S
C475 C474 1.394 . S
C475 C476 1.516 . S
C476 C475 1.516 . S
C476 C477 1.502 . S
C476 C478 1.561 . S
C476 C479 1.526 . S
C477 H461 0.959 . S
C477 H462 0.959 . S
C477 H463 0.961 . S
C477 C476 1.502 . S
C478 H464 0.960 . S
C478 H465 0.961 . S
C478 H466 0.959 . S
C478 C476 1.561 . S
C479 C476 1.526 . S
C479 C480 1.396 . S
C479 C484 1.390 . S
C480 C474 1.465 . S
C480 C479 1.396 . S
C480 C481 1.399 . S
C481 H467 0.929 . S
C481 C480 1.399 . S
C481 C482 1.385 . S
C482 H468 0.931 . S
C482 C481 1.385 . S
C482 C483 1.389 . S
C483 C482 1.389 . S
C483 C484 1.387 . S
C484 H469 0.930 . S
C484 C479 1.390 . S
C484 C483 1.387 . S
H485 C497 0.930 . S
H486 C499 0.930 . S
H487 C500 0.930 . S
H488 C504 0.959 . S
H489 C504 0.959 . S
H490 C504 0.961 . S
H491 C505 0.960 . S
H492 C505 0.961 . S
H493 C505 0.959 . S
H494 C508 0.929 . S
H495 C509 0.931 . S
H496 C511 0.930 . S
C497 H485 0.930 . S
C497 C498 1.399 . S
C497 C502 1.399 . S
C498 C497 1.399 . S
C498 C499 1.376 . S
C499 H486 0.930 . S
C499 C498 1.376 . S
C499 C500 1.388 . S
C500 H487 0.930 . S
C500 C499 1.388 . S
C500 C501 1.390 . S
C501 C500 1.390 . S
C501 C502 1.394 . S
C501 C507 1.465 . S
C502 C497 1.399 . S
C502 C501 1.394 . S
C502 C503 1.516 . S
C503 C502 1.516 . S
C503 C504 1.502 . S
C503 C505 1.561 . S
C503 C506 1.526 . S
C504 H488 0.959 . S
C504 H489 0.959 . S
C504 H490 0.961 . S
C504 C503 1.502 . S
C505 H491 0.960 . S
C505 H492 0.961 . S
C505 H493 0.959 . S
C505 C503 1.561 . S
C506 C503 1.526 . S
C506 C507 1.396 . S
C506 C511 1.390 . S
C507 C501 1.465 . S
C507 C506 1.396 . S
C507 C508 1.399 . S
C508 H494 0.929 . S
C508 C507 1.399 . S
C508 C509 1.385 . S
C509 H495 0.931 . S
C509 C508 1.385 . S
C509 C510 1.389 . S
C510 C509 1.389 . S
C510 C511 1.387 . S
C511 H496 0.930 . S
C511 C506 1.390 . S
C511 C510 1.387 . S
H512 C524 0.926 1_554 S
H513 C526 0.930 . S
H514 C527 0.930 . S
H515 C531 0.959 . S
H516 C531 0.959 . S
H517 C531 0.961 . S
H518 C532 0.960 . S
H519 C532 0.961 . S
H520 C532 0.959 . S
H521 C535 0.929 . S
H522 C536 0.931 . S
H523 C538 0.930 . S
C524 H512 0.926 1_556 S
C524 C525 1.394 1_556 S
C524 C529 1.408 . S
C525 C524 1.394 1_554 S
C525 C526 1.376 . S
C526 H513 0.930 . S
C526 C525 1.376 . S
C526 C527 1.388 1_554 S
C527 H514 0.930 . S
C527 C526 1.388 1_556 S
C527 C528 1.390 . S
C528 C527 1.390 . S
C528 C529 1.394 . S
C528 C534 1.465 . S
C529 C524 1.408 . S
C529 C528 1.394 . S
C529 C530 1.516 . S
C530 C529 1.516 . S
C530 C531 1.502 . S
C530 C532 1.561 . S
C530 C533 1.526 . S
C531 H515 0.959 . S
C531 H516 0.959 . S
C531 H517 0.961 . S
C531 C530 1.502 . S
C532 H518 0.960 . S
C532 H519 0.961 . S
C532 H520 0.959 . S
C532 C530 1.561 . S
C533 C530 1.526 . S
C533 C534 1.396 . S
C533 C538 1.390 . S
C534 C528 1.465 . S
C534 C533 1.396 . S
C534 C535 1.399 . S
C535 H521 0.929 . S
C535 C534 1.399 . S
C535 C536 1.385 . S
C536 H522 0.931 . S
C536 C535 1.385 . S
C536 C537 1.389 . S
C537 C536 1.389 . S
C537 C538 1.387 . S
C538 H523 0.930 . S
C538 C533 1.390 . S
C538 C537 1.387 . S
H539 C551 0.930 . S
H540 C553 0.930 . S
H541 C554 0.930 . S
H542 C558 0.959 . S
H543 C558 0.959 . S
H544 C558 0.961 . S
H545 C559 0.960 . S
H546 C559 0.961 . S
H547 C559 0.959 . S
H548 C562 0.929 . S
H549 C563 0.931 . S
H550 C565 0.930 . S
C551 H539 0.930 . S
C551 C552 1.399 . S
C551 C556 1.399 . S
C552 C551 1.399 . S
C552 C553 1.376 . S
C553 H540 0.930 . S
C553 C552 1.376 . S
C553 C554 1.388 . S
C554 H541 0.930 . S
C554 C553 1.388 . S
C554 C555 1.390 . S
C555 C554 1.390 . S
C555 C556 1.394 . S
C555 C561 1.465 . S
C556 C551 1.399 . S
C556 C555 1.394 . S
C556 C557 1.516 . S
C557 C556 1.516 . S
C557 C558 1.502 . S
C557 C559 1.561 . S
C557 C560 1.526 . S
C558 H542 0.959 . S
C558 H543 0.959 . S
C558 H544 0.961 . S
C558 C557 1.502 . S
C559 H545 0.960 . S
C559 H546 0.961 . S
C559 H547 0.959 . S
C559 C557 1.561 . S
C560 C557 1.526 . S
C560 C561 1.396 . S
C560 C565 1.390 . S
C561 C555 1.465 . S
C561 C560 1.396 . S
C561 C562 1.399 . S
C562 H548 0.929 . S
C562 C561 1.399 . S
C562 C563 1.385 . S
C563 H549 0.931 . S
C563 C562 1.385 . S
C563 C564 1.389 . S
C564 C563 1.389 . S
C564 C565 1.387 . S
C565 H550 0.930 . S
C565 C560 1.390 . S
C565 C564 1.387 . S
H566 C578 0.930 . S
H567 C580 0.930 . S
H568 C581 0.930 . S
H569 C585 0.959 . S
H570 C585 0.959 . S
H571 C585 0.961 . S
H572 C586 0.960 . S
H573 C586 0.961 . S
H574 C586 0.959 . S
H575 C589 0.929 . S
H576 C590 0.931 . S
H577 C592 0.930 . S
C578 H566 0.930 . S
C578 C579 1.399 . S
C578 C583 1.399 1_556 S
C579 C578 1.399 . S
C579 C580 1.376 . S
C580 H567 0.930 . S
C580 C579 1.376 . S
C580 C581 1.388 1_556 S
C581 H568 0.930 . S
C581 C580 1.388 1_554 S
C581 C582 1.390 . S
C582 C581 1.390 . S
C582 C583 1.394 . S
C582 C588 1.465 . S
C583 C578 1.399 1_554 S
C583 C582 1.394 . S
C583 C584 1.516 . S
C584 C583 1.516 . S
C584 C585 1.502 . S
C584 C586 1.561 . S
C584 C587 1.526 . S
C585 H569 0.959 . S
C585 H570 0.959 . S
C585 H571 0.961 . S
C585 C584 1.502 . S
C586 H572 0.960 . S
C586 H573 0.961 . S
C586 H574 0.959 . S
C586 C584 1.561 . S
C587 C584 1.526 . S
C587 C588 1.396 . S
C587 C592 1.390 . S
C588 C582 1.465 . S
C588 C587 1.396 . S
C588 C589 1.399 . S
C589 H575 0.929 . S
C589 C588 1.399 . S
C589 C590 1.385 . S
C590 H576 0.931 . S
C590 C589 1.385 . S
C590 C591 1.389 . S
C591 C590 1.389 . S
C591 C592 1.387 . S
C592 H577 0.930 . S
C592 C587 1.390 . S
C592 C591 1.387 . S
H593 C605 0.930 . S
H594 C607 0.930 . S
H595 C608 0.930 . S
H596 C612 0.959 . S
H597 C612 0.959 . S
H598 C612 0.961 . S
H599 C613 0.960 . S
H600 C613 0.961 . S
H601 C613 0.959 . S
H602 C616 0.929 . S
H603 C617 0.931 . S
H604 C619 0.930 . S
C605 H593 0.930 . S
C605 C606 1.399 . S
C605 C610 1.399 . S
C606 C605 1.399 . S
C606 C607 1.376 . S
C607 H594 0.930 . S
C607 C606 1.376 . S
C607 C608 1.388 . S
C608 H595 0.930 . S
C608 C607 1.388 . S
C608 C609 1.390 . S
C609 C608 1.390 . S
C609 C610 1.394 . S
C609 C615 1.465 . S
C610 C605 1.399 . S
C610 C609 1.394 . S
C610 C611 1.516 . S
C611 C610 1.516 . S
C611 C612 1.502 . S
C611 C613 1.561 . S
C611 C614 1.526 . S
C612 H596 0.959 . S
C612 H597 0.959 . S
C612 H598 0.961 . S
C612 C611 1.502 . S
C613 H599 0.960 . S
C613 H600 0.961 . S
C613 H601 0.959 . S
C613 C611 1.561 . S
C614 C611 1.526 . S
C614 C615 1.396 . S
C614 C619 1.390 . S
C615 C609 1.465 . S
C615 C614 1.396 . S
C615 C616 1.399 . S
C616 H602 0.929 . S
C616 C615 1.399 . S
C616 C617 1.385 . S
C617 H603 0.931 . S
C617 C616 1.385 . S
C617 C618 1.389 . S
C618 C617 1.389 . S
C618 C619 1.387 . S
C619 H604 0.930 . S
C619 C614 1.390 . S
C619 C618 1.387 . S
H620 C632 0.930 . S
H621 C634 0.930 . S
H622 C635 0.930 . S
H623 C639 0.959 . S
H624 C639 0.959 . S
H625 C639 0.961 . S
H626 C640 0.960 . S
H627 C640 0.961 . S
H628 C640 0.959 . S
H629 C643 0.929 . S
H630 C644 0.931 . S
H631 C646 0.930 . S
C632 H620 0.930 . S
C632 C633 1.399 . S
C632 C637 1.399 . S
C633 C632 1.399 . S
C633 C634 1.376 . S
C634 H621 0.930 . S
C634 C633 1.376 . S
C634 C635 1.388 . S
C635 H622 0.930 . S
C635 C634 1.388 . S
C635 C636 1.390 . S
C636 C635 1.390 . S
C636 C637 1.394 . S
C636 C642 1.465 . S
C637 C632 1.399 . S
C637 C636 1.394 . S
C637 C638 1.516 . S
C638 C637 1.516 . S
C638 C639 1.502 . S
C638 C640 1.561 . S
C638 C641 1.526 . S
C639 H623 0.959 . S
C639 H624 0.959 . S
C639 H625 0.961 . S
C639 C638 1.502 . S
C640 H626 0.960 . S
C640 H627 0.961 . S
C640 H628 0.959 . S
C640 C638 1.561 . S
C641 C638 1.526 . S
C641 C642 1.396 . S
C641 C646 1.390 . S
C642 C636 1.465 . S
C642 C641 1.396 . S
C642 C643 1.399 . S
C643 H629 0.929 . S
C643 C642 1.399 . S
C643 C644 1.385 . S
C644 H630 0.931 . S
C644 C643 1.385 . S
C644 C645 1.389 . S
C645 C644 1.389 . S
C645 C646 1.387 . S
C646 H631 0.930 . S
C646 C641 1.390 . S
C646 C645 1.387 . S
H647 C659 0.930 . S
H648 C661 0.930 . S
H649 C662 0.930 . S
H650 C666 0.959 . S
H651 C666 0.959 . S
H652 C666 0.961 . S
H653 C667 0.960 . S
H654 C667 0.961 . S
H655 C667 0.959 . S
H656 C670 0.929 . S
H657 C671 0.931 . S
H658 C673 0.930 . S
C659 H647 0.930 . S
C659 C660 1.399 . S
C659 C664 1.399 . S
C660 C659 1.399 . S
C660 C661 1.376 . S
C661 H648 0.930 . S
C661 C660 1.376 . S
C661 C662 1.388 . S
C662 H649 0.930 . S
C662 C661 1.388 . S
C662 C663 1.390 . S
C663 C662 1.390 . S
C663 C664 1.394 . S
C663 C669 1.465 . S
C664 C659 1.399 . S
C664 C663 1.394 . S
C664 C665 1.516 . S
C665 C664 1.516 . S
C665 C666 1.502 . S
C665 C667 1.561 . S
C665 C668 1.526 . S
C666 H650 0.959 . S
C666 H651 0.959 . S
C666 H652 0.961 . S
C666 C665 1.502 . S
C667 H653 0.960 . S
C667 H654 0.961 . S
C667 H655 0.959 . S
C667 C665 1.561 . S
C668 C665 1.526 . S
C668 C669 1.396 . S
C668 C673 1.390 . S
C669 C663 1.465 . S
C669 C668 1.396 . S
C669 C670 1.399 . S
C670 H656 0.929 . S
C670 C669 1.399 . S
C670 C671 1.385 . S
C671 H657 0.931 . S
C671 C670 1.385 . S
C671 C672 1.389 . S
C672 C671 1.389 . S
C672 C673 1.387 . S
C673 H658 0.930 . S
C673 C668 1.390 . S
C673 C672 1.387 . S
H674 C686 0.930 . S
H675 C688 0.930 . S
H676 C689 0.930 . S
H677 C693 0.959 . S
H678 C693 0.959 . S
H679 C693 0.961 . S
H680 C694 0.960 . S
H681 C694 0.961 . S
H682 C694 0.959 . S
H683 C697 0.929 . S
H684 C698 0.931 . S
H685 C700 0.930 . S
C686 H674 0.930 . S
C686 C687 1.399 . S
C686 C691 1.399 . S
C687 C686 1.399 . S
C687 C688 1.376 . S
C688 H675 0.930 . S
C688 C687 1.376 . S
C688 C689 1.388 . S
C689 H676 0.930 . S
C689 C688 1.388 . S
C689 C690 1.390 . S
C690 C689 1.390 . S
C690 C691 1.394 . S
C690 C696 1.465 . S
C691 C686 1.399 . S
C691 C690 1.394 . S
C691 C692 1.516 . S
C692 C691 1.516 . S
C692 C693 1.502 . S
C692 C694 1.561 . S
C692 C695 1.526 . S
C693 H677 0.959 . S
C693 H678 0.959 . S
C693 H679 0.961 . S
C693 C692 1.502 . S
C694 H680 0.960 . S
C694 H681 0.961 . S
C694 H682 0.959 . S
C694 C692 1.561 . S
C695 C692 1.526 . S
C695 C696 1.396 . S
C695 C700 1.390 . S
C696 C690 1.465 . S
C696 C695 1.396 . S
C696 C697 1.399 . S
C697 H683 0.929 . S
C697 C696 1.399 . S
C697 C698 1.385 . S
C698 H684 0.931 . S
C698 C697 1.385 . S
C698 C699 1.389 . S
C699 C698 1.389 . S
C699 C700 1.387 . S
C700 H685 0.930 . S
C700 C695 1.390 . S
C700 C699 1.387 . S
H701 C713 0.930 . S
H702 C715 0.930 . S
H703 C716 0.930 . S
H704 C720 0.959 . S
H705 C720 0.959 . S
H706 C720 0.961 . S
H707 C721 0.960 . S
H708 C721 0.961 . S
H709 C721 0.959 . S
H710 C724 0.929 . S
H711 C725 0.931 . S
H712 C727 0.930 . S
C713 H701 0.930 . S
C713 C714 1.399 . S
C713 C718 1.399 . S
C714 C713 1.399 . S
C714 C715 1.376 . S
C715 H702 0.930 . S
C715 C714 1.376 . S
C715 C716 1.388 . S
C716 H703 0.930 . S
C716 C715 1.388 . S
C716 C717 1.390 . S
C717 C716 1.390 . S
C717 C718 1.394 . S
C717 C723 1.465 . S
C718 C713 1.399 . S
C718 C717 1.394 . S
C718 C719 1.516 . S
C719 C718 1.516 . S
C719 C720 1.502 . S
C719 C721 1.561 . S
C719 C722 1.526 . S
C720 H704 0.959 . S
C720 H705 0.959 . S
C720 H706 0.961 . S
C720 C719 1.502 . S
C721 H707 0.960 . S
C721 H708 0.961 . S
C721 H709 0.959 . S
C721 C719 1.561 . S
C722 C719 1.526 . S
C722 C723 1.396 . S
C722 C727 1.390 . S
C723 C717 1.465 . S
C723 C722 1.396 . S
C723 C724 1.399 . S
C724 H710 0.929 . S
C724 C723 1.399 . S
C724 C725 1.385 . S
C725 H711 0.931 . S
C725 C724 1.385 . S
C725 C726 1.389 . S
C726 C725 1.389 . S
C726 C727 1.387 . S
C727 H712 0.930 . S
C727 C722 1.390 . S
C727 C726 1.387 . S
H728 C740 0.930 . S
H729 C742 0.930 . S
H730 C743 0.930 . S
H731 C747 0.959 . S
H732 C747 0.959 . S
H733 C747 0.961 . S
H734 C748 0.960 . S
H735 C748 0.961 . S
H736 C748 0.959 . S
H737 C751 0.929 . S
H738 C752 0.931 . S
H739 C754 0.930 . S
C740 H728 0.930 . S
C740 C741 1.399 . S
C740 C745 1.399 . S
C741 C740 1.399 . S
C741 C742 1.376 . S
C742 H729 0.930 . S
C742 C741 1.376 . S
C742 C743 1.388 . S
C743 H730 0.930 . S
C743 C742 1.388 . S
C743 C744 1.390 . S
C744 C743 1.390 . S
C744 C745 1.394 . S
C744 C750 1.465 . S
C745 C740 1.399 . S
C745 C744 1.394 . S
C745 C746 1.516 . S
C746 C745 1.516 . S
C746 C747 1.502 . S
C746 C748 1.561 . S
C746 C749 1.526 . S
C747 H731 0.959 . S
C747 H732 0.959 . S
C747 H733 0.961 . S
C747 C746 1.502 . S
C748 H734 0.960 . S
C748 H735 0.961 . S
C748 H736 0.959 . S
C748 C746 1.561 . S
C749 C746 1.526 . S
C749 C750 1.396 . S
C749 C754 1.390 . S
C750 C744 1.465 . S
C750 C749 1.396 . S
C750 C751 1.399 . S
C751 H737 0.929 . S
C751 C750 1.399 . S
C751 C752 1.385 . S
C752 H738 0.931 . S
C752 C751 1.385 . S
C752 C753 1.389 . S
C753 C752 1.389 . S
C753 C754 1.387 . S
C754 H739 0.930 . S
C754 C749 1.390 . S
C754 C753 1.387 . S
H755 C767 0.930 . S
H756 C769 0.930 . S
H757 C770 0.930 . S
H758 C774 0.959 . S
H759 C774 0.959 . S
H760 C774 0.961 . S
H761 C775 0.960 . S
H762 C775 0.961 . S
H763 C775 0.959 . S
H764 C778 0.929 . S
H765 C779 0.931 . S
H766 C781 0.930 . S
C767 H755 0.930 . S
C767 C768 1.399 . S
C767 C772 1.399 . S
C768 C767 1.399 . S
C768 C769 1.376 . S
C769 H756 0.930 . S
C769 C768 1.376 . S
C769 C770 1.388 . S
C770 H757 0.930 . S
C770 C769 1.388 . S
C770 C771 1.390 . S
C771 C770 1.390 . S
C771 C772 1.394 . S
C771 C777 1.465 . S
C772 C767 1.399 . S
C772 C771 1.394 . S
C772 C773 1.516 . S
C773 C772 1.516 . S
C773 C774 1.502 . S
C773 C775 1.561 . S
C773 C776 1.526 . S
C774 H758 0.959 . S
C774 H759 0.959 . S
C774 H760 0.961 . S
C774 C773 1.502 . S
C775 H761 0.960 . S
C775 H762 0.961 . S
C775 H763 0.959 . S
C775 C773 1.561 . S
C776 C773 1.526 . S
C776 C777 1.396 . S
C776 C781 1.390 . S
C777 C771 1.465 . S
C777 C776 1.396 . S
C777 C778 1.399 . S
C778 H764 0.929 . S
C778 C777 1.399 . S
C778 C779 1.385 . S
C779 H765 0.931 . S
C779 C778 1.385 . S
C779 C780 1.389 . S
C780 C779 1.389 . S
C780 C781 1.387 . S
C781 H766 0.930 . S
C781 C776 1.390 . S
C781 C780 1.387 . S
H782 C794 0.930 . S
H783 C796 0.930 . S
H784 C797 0.930 . S
H785 C801 0.959 . S
H786 C801 0.959 . S
H787 C801 0.961 . S
H788 C802 0.960 . S
H789 C802 0.961 . S
H790 C802 0.959 . S
H791 C805 0.929 . S
H792 C806 0.931 . S
H793 C808 0.930 . S
C794 H782 0.930 . S
C794 C795 1.399 . S
C794 C799 1.399 . S
C795 C794 1.399 . S
C795 C796 1.376 . S
C796 H783 0.930 . S
C796 C795 1.376 . S
C796 C797 1.388 . S
C797 H784 0.930 . S
C797 C796 1.388 . S
C797 C798 1.390 . S
C798 C797 1.390 . S
C798 C799 1.394 . S
C798 C804 1.465 . S
C799 C794 1.399 . S
C799 C798 1.394 . S
C799 C800 1.516 . S
C800 C799 1.516 . S
C800 C801 1.502 . S
C800 C802 1.561 . S
C800 C803 1.526 . S
C801 H785 0.959 . S
C801 H786 0.959 . S
C801 H787 0.961 . S
C801 C800 1.502 . S
C802 H788 0.960 . S
C802 H789 0.961 . S
C802 H790 0.959 . S
C802 C800 1.561 . S
C803 C800 1.526 . S
C803 C804 1.396 . S
C803 C808 1.390 . S
C804 C798 1.465 . S
C804 C803 1.396 . S
C804 C805 1.399 . S
C805 H791 0.929 . S
C805 C804 1.399 . S
C805 C806 1.385 . S
C806 H792 0.931 . S
C806 C805 1.385 . S
C806 C807 1.389 . S
C807 C806 1.389 . S
C807 C808 1.387 . S
C808 H793 0.930 . S
C808 C803 1.390 . S
C808 C807 1.387 . S
H809 C821 0.930 . S
H810 C823 0.930 . S
H811 C824 0.930 . S
H812 C828 0.959 . S
H813 C828 0.959 . S
H814 C828 0.961 . S
H815 C829 0.960 . S
H816 C829 0.961 . S
H817 C829 0.959 . S
H818 C832 0.929 . S
H819 C833 0.931 . S
H820 C835 0.930 . S
C821 H809 0.930 . S
C821 C822 1.399 . S
C821 C826 1.399 . S
C822 C821 1.399 . S
C822 C823 1.376 . S
C823 H810 0.930 . S
C823 C822 1.376 . S
C823 C824 1.388 . S
C824 H811 0.930 . S
C824 C823 1.388 . S
C824 C825 1.390 . S
C825 C824 1.390 . S
C825 C826 1.394 . S
C825 C831 1.465 . S
C826 C821 1.399 . S
C826 C825 1.394 . S
C826 C827 1.516 . S
C827 C826 1.516 . S
C827 C828 1.502 . S
C827 C829 1.561 . S
C827 C830 1.526 . S
C828 H812 0.959 . S
C828 H813 0.959 . S
C828 H814 0.961 . S
C828 C827 1.502 . S
C829 H815 0.960 . S
C829 H816 0.961 . S
C829 H817 0.959 . S
C829 C827 1.561 . S
C830 C827 1.526 . S
C830 C831 1.396 . S
C830 C835 1.390 . S
C831 C825 1.465 . S
C831 C830 1.396 . S
C831 C832 1.399 . S
C832 H818 0.929 . S
C832 C831 1.399 . S
C832 C833 1.385 . S
C833 H819 0.931 . S
C833 C832 1.385 . S
C833 C834 1.389 . S
C834 C833 1.389 . S
C834 C835 1.387 . S
C835 H820 0.930 . S
C835 C830 1.390 . S
C835 C834 1.387 . S
C201 C86 1.343 . S
C213 C120 1.258 . S
C240 C128 1.393 . S
C228 C100 1.443 . S
C267 C132 1.274 . S
C255 C60 1.351 . S
C282 C74 1.440 . S
C294 C108 1.376 . S
C321 C149 1.408 . S
C309 C35 1.500 . S
C348 C183 1.330 . S
C336 C47 1.370 . S
C363 C9 1.439 . S
C375 C171 1.383 . S
C390 C21 1.338 . S
C402 C153 1.207 . S
C429 C107 1.377 . S
C417 C22 1.492 . S
C456 C141 1.262 . S
C444 C8 1.454 . S
C483 C145 1.291 . S
C471 C48 1.456 . S
C510 C123 1.273 . S
C498 C34 1.436 . S
C537 C162 1.337 . S
C525 C73 1.437 . S
C552 C61 1.462 . S
C564 C170 1.317 . S
C591 C186 1.341 . S
C579 C99 1.440 . S
C606 C87 1.473 . S
C618 C166 1.336 . S
C645 C111 1.472 . S
C633 C4 1.514 . S
C672 C129 1.284 . S
C660 C17 1.439 . S
C687 C30 1.516 . S
C699 C144 1.413 . S
C726 C124 1.290 . S
C714 C43 1.373 . S
C753 C150 1.376 . S
C741 C56 1.451 . S
C768 C69 1.531 . S
C780 C174 1.350 . S
C795 C82 1.447 . S
C807 C187 1.293 . S
C822 C95 1.549 . S
C834 C165 1.432 . S
