# Generated by pormake.
# Topology sqc, (4,8)-cn, num edge types: 1
# Building blocks:
#     Node 0, Type 0, BuildingBlock: NAHDIM_clean_linker_0, # of connection points: 4
#     Node 1, Type 0, BuildingBlock: NAHDIM_clean_linker_0, # of connection points: 4
#     Node 2, Type 0, BuildingBlock: NAHDIM_clean_linker_0, # of connection points: 4
#     Node 3, Type 0, BuildingBlock: NAHDIM_clean_linker_0, # of connection points: 4
#     Node 4, Type 0, BuildingBlock: NAHDIM_clean_linker_0, # of connection points: 4
#     Node 5, Type 0, BuildingBlock: NAHDIM_clean_linker_0, # of connection points: 4
#     Node 6, Type 0, BuildingBlock: NAHDIM_clean_linker_0, # of connection points: 4
#     Node 7, Type 0, BuildingBlock: NAHDIM_clean_linker_0, # of connection points: 4
#     Node 8, Type 1, BuildingBlock: VETTIZ_charged_sbu_0, # of connection points: 8
#     Node 9, Type 1, BuildingBlock: VETTIZ_charged_sbu_0, # of connection points: 8
#     Node 10, Type 1, BuildingBlock: VETTIZ_charged_sbu_0, # of connection points: 8
#     Node 11, Type 1, BuildingBlock: VETTIZ_charged_sbu_0, # of connection points: 8
#     Edge 12, Type (0, 1), BuildingBlock: XUDNAN_clean_linker_2, # of connection points: 2
#     Edge 13, Type (0, 1), BuildingBlock: XUDNAN_clean_linker_2, # of connection points: 2
#     Edge 14, Type (0, 1), BuildingBlock: XUDNAN_clean_linker_2, # of connection points: 2
#     Edge 15, Type (0, 1), BuildingBlock: XUDNAN_clean_linker_2, # of connection points: 2
#     Edge 16, Type (0, 1), BuildingBlock: XUDNAN_clean_linker_2, # of connection points: 2
#     Edge 17, Type (0, 1), BuildingBlock: XUDNAN_clean_linker_2, # of connection points: 2
#     Edge 18, Type (0, 1), BuildingBlock: XUDNAN_clean_linker_2, # of connection points: 2
#     Edge 19, Type (0, 1), BuildingBlock: XUDNAN_clean_linker_2, # of connection points: 2
#     Edge 20, Type (0, 1), BuildingBlock: XUDNAN_clean_linker_2, # of connection points: 2
#     Edge 21, Type (0, 1), BuildingBlock: XUDNAN_clean_linker_2, # of connection points: 2
#     Edge 22, Type (0, 1), BuildingBlock: XUDNAN_clean_linker_2, # of connection points: 2
#     Edge 23, Type (0, 1), BuildingBlock: XUDNAN_clean_linker_2, # of connection points: 2
#     Edge 24, Type (0, 1), BuildingBlock: XUDNAN_clean_linker_2, # of connection points: 2
#     Edge 25, Type (0, 1), BuildingBlock: XUDNAN_clean_linker_2, # of connection points: 2
#     Edge 26, Type (0, 1), BuildingBlock: XUDNAN_clean_linker_2, # of connection points: 2
#     Edge 27, Type (0, 1), BuildingBlock: XUDNAN_clean_linker_2, # of connection points: 2
#     Edge 28, Type (0, 1), BuildingBlock: XUDNAN_clean_linker_2, # of connection points: 2
#     Edge 29, Type (0, 1), BuildingBlock: XUDNAN_clean_linker_2, # of connection points: 2
#     Edge 30, Type (0, 1), BuildingBlock: XUDNAN_clean_linker_2, # of connection points: 2
#     Edge 31, Type (0, 1), BuildingBlock: XUDNAN_clean_linker_2, # of connection points: 2
#     Edge 32, Type (0, 1), BuildingBlock: XUDNAN_clean_linker_2, # of connection points: 2
#     Edge 33, Type (0, 1), BuildingBlock: XUDNAN_clean_linker_2, # of connection points: 2
#     Edge 34, Type (0, 1), BuildingBlock: XUDNAN_clean_linker_2, # of connection points: 2
#     Edge 35, Type (0, 1), BuildingBlock: XUDNAN_clean_linker_2, # of connection points: 2
#     Edge 36, Type (0, 1), BuildingBlock: XUDNAN_clean_linker_2, # of connection points: 2
#     Edge 37, Type (0, 1), BuildingBlock: XUDNAN_clean_linker_2, # of connection points: 2
#     Edge 38, Type (0, 1), BuildingBlock: XUDNAN_clean_linker_2, # of connection points: 2
#     Edge 39, Type (0, 1), BuildingBlock: XUDNAN_clean_linker_2, # of connection points: 2
#     Edge 40, Type (0, 1), BuildingBlock: XUDNAN_clean_linker_2, # of connection points: 2
#     Edge 41, Type (0, 1), BuildingBlock: XUDNAN_clean_linker_2, # of connection points: 2
#     Edge 42, Type (0, 1), BuildingBlock: XUDNAN_clean_linker_2, # of connection points: 2
#     Edge 43, Type (0, 1), BuildingBlock: XUDNAN_clean_linker_2, # of connection points: 2
# Relax obj value: 0.111
# Max RMSD: 0.262
# Mean RMSD: 0.120
data_MOF--net-sqc--node1-VETTIZ_charged_sbu_0--node2-NAHDIM_clean_linker_0--edge1-XUDNAN_clean_linker_2
_symmetry_space_group_name_H-M    P1
_symmetry_Int_Tables_number       1
_symmetry_cell_setting            triclinic
loop_
_symmetry_equiv_pos_as_xyz
'x, y, z'
_cell_length_a     31.501172
_cell_length_b     31.543208
_cell_length_c     102.15984
_cell_angle_alpha  89.557696
_cell_angle_beta   89.570853
_cell_angle_gamma 90.062722
loop_
_atom_site_label
_atom_site_type_symbol
_atom_site_fract_x
_atom_site_fract_y
_atom_site_fract_z
_atom_type_partial_charge
C0 C 0.85627 0.0094 0.41504 0.0
C1 C 0.83571 0.98557 0.42657 0.0
C2 C 0.86596 0.00572 0.44739 0.0
C3 C 0.87378 0.96606 0.45319 0.0
C4 C 0.905 0.9614 0.46285 0.0
C5 C 0.92896 0.99715 0.46669 0.0
C6 C 0.92027 0.03739 0.46106 0.0
C7 C 0.88826 0.04122 0.45164 0.0
C8 C 0.91266 0.91826 0.46885 0.0
C9 C 0.94545 0.07621 0.46475 0.0
C10 C 0.25288 0.91106 0.4752 0.0
C11 C 0.23222 0.9225 0.46209 0.0
C12 C 0.15529 0.92102 0.46508 0.0
C13 C 0.14565 0.9638 0.46257 0.0
C14 C 0.10747 0.98153 0.46708 0.0
C15 C 0.07814 0.95579 0.47404 0.0
C16 C 0.08687 0.91223 0.47603 0.0
C17 C 0.12534 0.89536 0.47144 0.0
C18 C 0.09862 0.02787 0.46455 0.0
C19 C 0.05583 0.88372 0.48319 0.0
C20 C 0.14452 0.06761 0.55142 0.0
C21 C 0.12614 0.09711 0.54273 0.0
C22 C 0.08788 0.08819 0.53636 0.0
C23 C 0.06725 0.04896 0.53866 0.0
C24 C 0.08487 0.0196 0.54763 0.0
C25 C 0.12327 0.02936 0.55391 0.0
C26 C 0.06987 0.12049 0.52693 0.0
C27 C 0.0636 0.97757 0.55034 0.0
C28 C 0.74248 0.06744 0.5272 0.0
C29 C 0.7492 0.06335 0.542 0.0
C30 C 0.82618 0.07495 0.54272 0.0
C31 C 0.85516 0.10755 0.54011 0.0
C32 C 0.89688 0.09865 0.53604 0.0
C33 C 0.91015 0.05595 0.535 0.0
C34 C 0.88184 0.02287 0.53858 0.0
C35 C 0.83998 0.03267 0.54225 0.0
C36 C 0.92619 0.13477 0.53237 0.0
C37 C 0.89536 0.977 0.53814 0.0
C38 C 0.96434 0.99234 0.47614 0.0
C39 C 0.00296 0.97648 0.47146 0.0
C40 C 0.03866 0.97448 0.47948 0.0
C41 C 0.03642 0.98993 0.49242 0.0
C42 C 0.0725 0.99131 0.50044 0.0
C43 C 0.07008 0.00741 0.51308 0.0
C44 C 0.03121 0.02148 0.51833 0.0
C45 C 0.02848 0.03832 0.53111 0.0
C46 C 0.98875 0.04909 0.53636 0.0
C47 C 0.95181 0.04554 0.52889 0.0
C48 C 0.95459 0.03212 0.51572 0.0
C49 C 0.91869 0.03156 0.50758 0.0
C50 C 0.92176 0.01852 0.49464 0.0
C51 C 0.96072 0.00507 0.48935 0.0
C52 C 0.9971 0.0046 0.49744 0.0
C53 C 0.99426 0.0192 0.51053 0.0
C54 C 0.23366 0.10373 0.54222 0.0
C55 C 0.20989 0.10842 0.55533 0.0
O56 O 0.83723 0.01055 0.43766 0.0
O57 O 0.78535 0.08555 0.5456 0.0
O58 O 0.18257 0.07441 0.55742 0.0
O59 O 0.19272 0.90334 0.46135 0.0
H60 H 0.85474 0.95613 0.42792 0.0
H61 H 0.89041 0.01492 0.4171 0.0
H62 H 0.84092 0.04067 0.41344 0.0
H63 H 0.85392 0.99042 0.40596 0.0
H64 H 0.85539 0.93881 0.4502 0.0
H65 H 0.88155 0.07176 0.44719 0.0
H66 H 0.94406 0.90626 0.46556 0.0
H67 H 0.88797 0.89492 0.46604 0.0
H68 H 0.91334 0.92053 0.47969 0.0
H69 H 0.93777 0.10407 0.45848 0.0
H70 H 0.98 0.06966 0.46392 0.0
H71 H 0.93854 0.08445 0.47508 0.0
H72 H 0.22965 0.95762 0.462 0.0
H73 H 0.28619 0.92264 0.47543 0.0
H74 H 0.25235 0.8763 0.47699 0.0
H75 H 0.235 0.92633 0.4833 0.0
H76 H 0.16752 0.98339 0.45698 0.0
H77 H 0.1327 0.8622 0.47309 0.0
H78 H 0.09385 0.04444 0.474 0.0
H79 H 0.06886 0.03123 0.45888 0.0
H80 H 0.12481 0.04374 0.45905 0.0
H81 H 0.06648 0.85016 0.48342 0.0
H82 H 0.0243 0.88536 0.47842 0.0
H83 H 0.05176 0.89484 0.49341 0.0
H84 H 0.19132 0.13834 0.55488 0.0
H85 H 0.14145 0.1271 0.54066 0.0
H86 H 0.13728 0.00677 0.56065 0.0
H87 H 0.07008 0.1073 0.51688 0.0
H88 H 0.08817 0.15061 0.52682 0.0
H89 H 0.03637 0.12755 0.52957 0.0
H90 H 0.08076 0.95847 0.55779 0.0
H91 H 0.06184 0.95915 0.54114 0.0
H92 H 0.03055 0.98287 0.55381 0.0
H93 H 0.75255 0.02929 0.54462 0.0
H94 H 0.71336 0.05015 0.52427 0.0
H95 H 0.76985 0.05352 0.52184 0.0
H96 H 0.73944 0.10132 0.5243 0.0
H97 H 0.84439 0.14011 0.54072 0.0
H98 H 0.81843 0.00714 0.54476 0.0
H99 H 0.93808 0.13069 0.5222 0.0
H100 H 0.95412 0.13455 0.53893 0.0
H101 H 0.91033 0.16611 0.53311 0.0
H102 H 0.87294 0.956 0.54359 0.0
H103 H 0.92759 0.97311 0.54232 0.0
H104 H 0.89663 0.96647 0.52781 0.0
H105 H 0.00541 0.96595 0.46139 0.0
H106 H 0.10319 0.9806 0.49697 0.0
H107 H 0.09899 0.00821 0.51873 0.0
H108 H 0.98667 0.0611 0.54626 0.0
H109 H 0.88783 0.0417 0.51107 0.0
H110 H 0.89314 0.01891 0.48883 0.0
H111 H 0.25762 0.12938 0.54101 0.0
H112 H 0.21131 0.10606 0.53391 0.0
H113 H 0.24982 0.07253 0.54163 0.0
C114 C 0.08958 0.93081 0.82135 0.0
C115 C 0.13571 0.94487 0.81935 0.0
C116 C 0.17162 0.90752 0.80158 0.0
C117 C 0.21026 0.89677 0.80745 0.0
C118 C 0.23526 0.86371 0.80245 0.0
C119 C 0.22107 0.84085 0.79143 0.0
C120 C 0.18256 0.85247 0.78531 0.0
C121 C 0.15876 0.8863 0.79034 0.0
C122 C 0.27654 0.8528 0.80906 0.0
C123 C 0.16596 0.82851 0.77368 0.0
C124 C 0.17585 0.51432 0.82535 0.0
C125 C 0.18633 0.54608 0.81502 0.0
C126 C 0.22116 0.61495 0.81196 0.0
C127 C 0.20742 0.62137 0.79901 0.0
C128 C 0.21897 0.65798 0.79194 0.0
C129 C 0.24657 0.68798 0.79766 0.0
C130 C 0.26145 0.68103 0.81054 0.0
C131 C 0.24805 0.64489 0.81757 0.0
C132 C 0.20099 0.66469 0.7784 0.0
C133 C 0.29115 0.71196 0.81698 0.0
C134 C 0.41469 0.60582 0.73347 0.0
C135 C 0.37413 0.61845 0.72939 0.0
C136 C 0.3578 0.65824 0.73281 0.0
C137 C 0.38274 0.68614 0.74034 0.0
C138 C 0.42459 0.67454 0.74378 0.0
C139 C 0.44015 0.63451 0.74021 0.0
C140 C 0.3135 0.67013 0.72861 0.0
C141 C 0.45224 0.70389 0.7516 0.0
C142 C 0.34561 0.91109 0.68217 0.0
C143 C 0.33701 0.94273 0.69323 0.0
C144 C 0.35728 0.90265 0.71303 0.0
C145 C 0.32224 0.87484 0.71309 0.0
C146 C 0.31858 0.8422 0.72245 0.0
C147 C 0.35047 0.83706 0.732 0.0
C148 C 0.38539 0.86527 0.73214 0.0
C149 C 0.38827 0.89773 0.72266 0.0
C150 C 0.28087 0.81265 0.72198 0.0
C151 C 0.41988 0.86072 0.74221 0.0
C152 C 0.24471 0.80278 0.78699 0.0
C153 C 0.23792 0.76501 0.79395 0.0
C154 C 0.2582 0.72743 0.79037 0.0
C155 C 0.28657 0.72749 0.77956 0.0
C156 C 0.30857 0.69065 0.77591 0.0
C157 C 0.33441 0.69029 0.76481 0.0
C158 C 0.33945 0.72684 0.75697 0.0
C159 C 0.36387 0.72611 0.7453 0.0
C160 C 0.36798 0.76288 0.73768 0.0
C161 C 0.34818 0.80071 0.74135 0.0
C162 C 0.32397 0.80217 0.75308 0.0
C163 C 0.30403 0.83971 0.75719 0.0
C164 C 0.27883 0.84029 0.76846 0.0
C165 C 0.27201 0.80318 0.77592 0.0
C166 C 0.29277 0.76527 0.77215 0.0
C167 C 0.31909 0.76488 0.7608 0.0
C168 C 0.4076 0.51445 0.74688 0.0
C169 C 0.40707 0.52905 0.73252 0.0
O170 O 0.14661 0.93891 0.80631 0.0
O171 O 0.36275 0.93404 0.70389 0.0
O172 O 0.43006 0.56635 0.7311 0.0
O173 O 0.20881 0.581 0.81939 0.0
H174 H 0.15581 0.92514 0.82592 0.0
H175 H 0.08619 0.89691 0.81868 0.0
H176 H 0.06809 0.94993 0.81507 0.0
H177 H 0.07969 0.93431 0.83175 0.0
H178 H 0.22103 0.91439 0.81586 0.0
H179 H 0.12916 0.89543 0.78578 0.0
H180 H 0.27319 0.82184 0.8142 0.0
H181 H 0.28595 0.87705 0.81631 0.0
H182 H 0.30233 0.84958 0.80166 0.0
H183 H 0.13387 0.8394 0.77073 0.0
H184 H 0.16447 0.79406 0.77597 0.0
H185 H 0.18793 0.8328 0.76523 0.0
H186 H 0.15897 0.55416 0.80862 0.0
H187 H 0.14012 0.51416 0.82598 0.0
H188 H 0.18004 0.53073 0.83503 0.0
H189 H 0.21168 0.45989 0.81985 0.0
H190 H 0.18705 0.59848 0.79436 0.0
H191 H 0.25868 0.63976 0.82752 0.0
H192 H 0.19029 0.69797 0.77706 0.0
H193 H 0.17376 0.64326 0.77649 0.0
H194 H 0.22596 0.6583 0.77097 0.0
H195 H 0.30563 0.69846 0.82597 0.0
H196 H 0.27322 0.74087 0.81971 0.0
H197 H 0.31689 0.72163 0.81009 0.0
H198 H 0.37309 0.53395 0.73011 0.0
H199 H 0.35509 0.59746 0.7235 0.0
H200 H 0.47177 0.62483 0.74308 0.0
H201 H 0.29295 0.67415 0.73739 0.0
H202 H 0.29899 0.64583 0.72222 0.0
H203 H 0.31422 0.70089 0.72327 0.0
H204 H 0.48466 0.69094 0.75306 0.0
H205 H 0.43738 0.70939 0.76133 0.0
H206 H 0.45478 0.7351 0.74655 0.0
H207 H 0.30309 0.93982 0.69619 0.0
H208 H 0.32657 0.91949 0.67342 0.0
H209 H 0.3366 0.87853 0.6853 0.0
H210 H 0.37978 0.91083 0.67942 0.0
H211 H 0.29772 0.87783 0.70581 0.0
H212 H 0.41514 0.91922 0.72262 0.0
H213 H 0.26316 0.8138 0.7314 0.0
H214 H 0.29196 0.77957 0.72063 0.0
H215 H 0.25874 0.82079 0.71393 0.0
H216 H 0.44374 0.88662 0.74149 0.0
H217 H 0.4363 0.8299 0.74088 0.0
H218 H 0.4057 0.86063 0.75219 0.0
H219 H 0.21588 0.7647 0.80217 0.0
H220 H 0.30566 0.6615 0.78151 0.0
H221 H 0.35003 0.66079 0.7624 0.0
H222 H 0.3858 0.7617 0.72855 0.0
H223 H 0.30756 0.869 0.75169 0.0
H224 H 0.26414 0.87003 0.77115 0.0
H225 H 0.44044 0.51383 0.75076 0.0
H226 H 0.3931 0.48247 0.74794 0.0
H227 H 0.38887 0.53691 0.75293 0.0
C228 C 0.6454 0.83613 0.07367 0.0
C229 C 0.67092 0.87729 0.07156 0.0
C230 C 0.61847 0.92321 0.06078 0.0
C231 C 0.61762 0.90097 0.04888 0.0
C232 C 0.58825 0.91132 0.03912 0.0
C233 C 0.55988 0.94545 0.04109 0.0
C234 C 0.56197 0.96923 0.05275 0.0
C235 C 0.59116 0.95764 0.06247 0.0
C236 C 0.58669 0.8848 0.02688 0.0
C237 C 0.53257 0.00616 0.0551 0.0
C238 C 0.23116 0.8296 0.0323 0.0
C239 C 0.26094 0.86174 0.03864 0.0
C240 C 0.33753 0.86999 0.03467 0.0
C241 C 0.34046 0.91351 0.03737 0.0
C242 C 0.37786 0.93615 0.03445 0.0
C243 C 0.41271 0.91484 0.02867 0.0
C244 C 0.40992 0.87089 0.02614 0.0
C245 C 0.37245 0.84901 0.02931 0.0
C246 C 0.3803 0.98274 0.03758 0.0
C247 C 0.44654 0.847 0.02009 0.0
C248 C 0.38201 0.03349 0.94755 0.0
C249 C 0.3893 0.06527 0.9567 0.0
C250 C 0.42083 0.06093 0.96622 0.0
C251 C 0.44574 0.02371 0.96656 0.0
C252 C 0.43835 0.9911 0.95741 0.0
C253 C 0.40633 0.99618 0.94802 0.0
C254 C 0.42768 0.0962 0.97588 0.0
C255 C 0.46441 0.951 0.95755 0.0
C256 C 0.77438 0.08527 0.97807 0.0
C257 C 0.75122 0.0767 0.96521 0.0
C258 C 0.67458 0.081 0.9693 0.0
C259 C 0.64566 0.10777 0.97556 0.0
C260 C 0.60615 0.09261 0.98003 0.0
C261 C 0.59524 0.04964 0.97805 0.0
C262 C 0.6239 0.0226 0.97144 0.0
C263 C 0.6631 0.03862 0.96703 0.0
C264 C 0.57599 0.12246 0.98684 0.0
C265 C 0.61282 0.97684 0.96889 0.0
C266 C 0.52544 0.95339 0.03154 0.0
C267 C 0.48568 0.93576 0.03439 0.0
C268 C 0.45249 0.93807 0.02544 0.0
C269 C 0.45869 0.95915 0.01331 0.0
C270 C 0.42601 0.96192 0.00405 0.0
C271 C 0.43264 0.982 0.99204 0.0
C272 C 0.4724 0.99956 0.98875 0.0
C273 C 0.4797 0.01919 0.97646 0.0
C274 C 0.51979 0.03561 0.97339 0.0
C275 C 0.55309 0.03329 0.98233 0.0
C276 C 0.54625 0.01446 0.99479 0.0
C277 C 0.57881 0.01211 0.00411 0.0
C278 C 0.57191 0.99278 0.01625 0.0
C279 C 0.53234 0.97464 0.01946 0.0
C280 C 0.49884 0.97731 0.0103 0.0
C281 C 0.50579 0.99728 0.99796 0.0
C282 C 0.37373 0.02006 0.91696 0.0
C283 C 0.34016 0.01617 0.92786 0.0
O284 O 0.64413 0.91207 0.07093 0.0
O285 O 0.71245 0.09751 0.96527 0.0
O286 O 0.35145 0.04068 0.93849 0.0
O287 O 0.30208 0.84683 0.03727 0.0
H288 H 0.68884 0.87439 0.06218 0.0
H289 H 0.62641 0.82862 0.06489 0.0
H290 H 0.62311 0.83903 0.08208 0.0
H291 H 0.6672 0.80906 0.07547 0.0
H292 H 0.63898 0.8748 0.04717 0.0
H293 H 0.59219 0.97498 0.07158 0.0
H294 H 0.55394 0.87295 0.0253 0.0
H295 H 0.60854 0.85722 0.02732 0.0
H296 H 0.59559 0.90459 0.01826 0.0
H297 H 0.54199 0.02492 0.06377 0.0
H298 H 0.49979 0.99416 0.05672 0.0
H299 H 0.53209 0.02734 0.04637 0.0
H300 H 0.25707 0.8922 0.03319 0.0
H301 H 0.19775 0.84078 0.03263 0.0
H302 H 0.23325 0.79839 0.03737 0.0
H303 H 0.24028 0.82529 0.02187 0.0
H304 H 0.31397 0.92973 0.0419 0.0
H305 H 0.36998 0.81532 0.02743 0.0
H306 H 0.38515 0.00125 0.0284 0.0
H307 H 0.408 0.98884 0.04396 0.0
H308 H 0.35111 0.99435 0.04255 0.0
H309 H 0.43813 0.81365 0.01783 0.0
H310 H 0.47373 0.84687 0.02694 0.0
H311 H 0.45716 0.86307 0.01093 0.0
H312 H 0.33681 0.98243 0.93096 0.0
H313 H 0.37023 0.09383 0.95629 0.0
H314 H 0.40072 0.97106 0.9411 0.0
H315 H 0.42464 0.08362 0.98603 0.0
H316 H 0.4047 0.12256 0.97458 0.0
H317 H 0.46035 0.10901 0.97471 0.0
H318 H 0.45539 0.92896 0.94961 0.0
H319 H 0.46025 0.93447 0.96711 0.0
H320 H 0.4986 0.95898 0.95646 0.0
H321 H 0.74712 0.0418 0.96481 0.0
H322 H 0.80677 0.07136 0.97779 0.0
H323 H 0.75654 0.07043 0.98633 0.0
H324 H 0.77675 0.11979 0.97999 0.0
H325 H 0.65439 0.14061 0.97706 0.0
H326 H 0.68398 0.01805 0.96154 0.0
H327 H 0.56797 0.10985 0.99674 0.0
H328 H 0.54597 0.12463 0.98125 0.0
H329 H 0.5895 0.15481 0.98785 0.0
H330 H 0.63908 0.95949 0.96398 0.0
H331 H 0.58421 0.97527 0.96263 0.0
H332 H 0.60503 0.96049 0.97827 0.0
H333 H 0.48091 0.91867 0.04355 0.0
H334 H 0.39489 0.94857 0.00599 0.0
H335 H 0.4063 0.98319 0.9853 0.0
H336 H 0.52522 0.05024 0.96387 0.0
H337 H 0.61002 0.02514 0.00211 0.0
H338 H 0.59807 0.99186 0.02306 0.0
H339 H 0.37757 0.05371 0.91385 0.0
H340 H 0.36427 0.00098 0.90836 0.0
H341 H 0.4049 0.00819 0.92037 0.0
C342 C 0.09318 0.11776 0.19071 0.0
C343 C 0.13082 0.09136 0.19546 0.0
C344 C 0.16474 0.13027 0.21301 0.0
C345 C 0.20666 0.13385 0.20841 0.0
C346 C 0.23336 0.16621 0.21292 0.0
C347 C 0.21767 0.19559 0.22217 0.0
C348 C 0.17568 0.1913 0.22706 0.0
C349 C 0.14997 0.15816 0.22255 0.0
C350 C 0.27822 0.16925 0.20772 0.0
C351 C 0.15766 0.2222 0.23684 0.0
C352 C 0.33697 0.47816 0.18527 0.0
C353 C 0.29448 0.46445 0.17941 0.0
C354 C 0.268 0.41388 0.19629 0.0
C355 C 0.2387 0.40936 0.20653 0.0
C356 C 0.23839 0.37321 0.21461 0.0
C357 C 0.26841 0.3407 0.21238 0.0
C358 C 0.29766 0.34452 0.20185 0.0
C359 C 0.29708 0.38102 0.19385 0.0
C360 C 0.20635 0.37 0.22563 0.0
C361 C 0.32985 0.31023 0.19918 0.0
C362 C 0.42568 0.416 0.28264 0.0
C363 C 0.38125 0.41519 0.28385 0.0
C364 C 0.35793 0.37974 0.27982 0.0
C365 C 0.37952 0.34469 0.27434 0.0
C366 C 0.42439 0.34506 0.27343 0.0
C367 C 0.44692 0.3806 0.27778 0.0
C368 C 0.31026 0.37974 0.28143 0.0
C369 C 0.44853 0.30805 0.26782 0.0
C370 C 0.31873 0.14462 0.33647 0.0
C371 C 0.31535 0.10856 0.32651 0.0
C372 C 0.3357 0.14236 0.30551 0.0
C373 C 0.29971 0.16843 0.30427 0.0
C374 C 0.29653 0.19771 0.29389 0.0
C375 C 0.3296 0.20045 0.28447 0.0
C376 C 0.36468 0.17267 0.28531 0.0
C377 C 0.36733 0.14415 0.29587 0.0
C378 C 0.25866 0.22691 0.29327 0.0
C379 C 0.40021 0.17424 0.27533 0.0
C380 C 0.24447 0.23188 0.22627 0.0
C381 C 0.24628 0.26739 0.21799 0.0
C382 C 0.26975 0.3033 0.22131 0.0
C383 C 0.29219 0.30404 0.23325 0.0
C384 C 0.31624 0.3396 0.23688 0.0
C385 C 0.3373 0.34054 0.2488 0.0
C386 C 0.33495 0.30606 0.25757 0.0
C387 C 0.35528 0.3072 0.26986 0.0
C388 C 0.35259 0.2723 0.27829 0.0
C389 C 0.3303 0.23582 0.27482 0.0
C390 C 0.3096 0.234 0.2626 0.0
C391 C 0.28695 0.1978 0.25876 0.0
C392 C 0.26594 0.1968 0.24681 0.0
C393 C 0.26673 0.23201 0.23826 0.0
C394 C 0.29032 0.26843 0.2418 0.0
C395 C 0.3117 0.26946 0.25399 0.0
C396 C 0.47153 0.518 0.27828 0.0
C397 C 0.4359 0.49214 0.28476 0.0
O398 O 0.1381 0.09985 0.20857 0.0
O399 O 0.34201 0.11593 0.31589 0.0
O400 O 0.44893 0.45041 0.28603 0.0
O401 O 0.26693 0.45053 0.1892 0.0
H402 H 0.1589 0.10035 0.18937 0.0
H403 H 0.10031 0.15204 0.19181 0.0
H404 H 0.06422 0.11012 0.19652 0.0
H405 H 0.08695 0.11153 0.18021 0.0
H406 H 0.21867 0.11116 0.2014 0.0
H407 H 0.11771 0.15466 0.22616 0.0
H408 H 0.28164 0.19845 0.20166 0.0
H409 H 0.28701 0.14154 0.20162 0.0
H410 H 0.30088 0.17164 0.21596 0.0
H411 H 0.12352 0.21624 0.23896 0.0
H412 H 0.16136 0.25516 0.23309 0.0
H413 H 0.17549 0.21977 0.24614 0.0
H414 H 0.29984 0.43861 0.17224 0.0
H415 H 0.35856 0.49022 0.17744 0.0
H416 H 0.35282 0.45101 0.19016 0.0
H417 H 0.33202 0.50351 0.19262 0.0
H418 H 0.21619 0.43471 0.20828 0.0
H419 H 0.31955 0.3837 0.18583 0.0
H420 H 0.18833 0.33984 0.2249 0.0
H421 H 0.18354 0.39684 0.22558 0.0
H422 H 0.2231 0.36961 0.23515 0.0
H423 H 0.35078 0.31805 0.1907 0.0
H424 H 0.31324 0.2799 0.19721 0.0
H425 H 0.34986 0.30524 0.20796 0.0
H426 H 0.40835 0.49442 0.278 0.0
H427 H 0.36479 0.44204 0.28803 0.0
H428 H 0.48126 0.38138 0.27707 0.0
H429 H 0.29518 0.38006 0.27164 0.0
H430 H 0.29871 0.40764 0.28698 0.0
H431 H 0.29973 0.3504 0.28659 0.0
H432 H 0.48282 0.3152 0.26645 0.0
H433 H 0.43494 0.2989 0.25824 0.0
H434 H 0.44539 0.28038 0.27453 0.0
H435 H 0.28187 0.10649 0.32318 0.0
H436 H 0.29944 0.13705 0.34534 0.0
H437 H 0.30661 0.17469 0.33224 0.0
H438 H 0.3522 0.14986 0.33939 0.0
H439 H 0.27451 0.16707 0.3115 0.0
H440 H 0.39475 0.12365 0.29681 0.0
H441 H 0.24293 0.22391 0.28364 0.0
H442 H 0.26936 0.2603 0.2942 0.0
H443 H 0.235 0.22003 0.30112 0.0
H444 H 0.42199 0.14672 0.27627 0.0
H445 H 0.41887 0.20373 0.27667 0.0
H446 H 0.38711 0.17495 0.26527 0.0
H447 H 0.22869 0.2673 0.2089 0.0
H448 H 0.31895 0.36721 0.23057 0.0
H449 H 0.35523 0.3688 0.25108 0.0
H450 H 0.36816 0.27354 0.28772 0.0
H451 H 0.28503 0.16996 0.265 0.0
H452 H 0.24882 0.16818 0.24438 0.0
H453 H 0.50115 0.51618 0.28409 0.0
H454 H 0.46192 0.55176 0.27727 0.0
H455 H 0.47827 0.50543 0.26835 0.0
C456 C 0.60462 0.47952 0.29188 0.0
C457 C 0.6255 0.46309 0.30449 0.0
C458 C 0.67825 0.40974 0.29772 0.0
C459 C 0.72153 0.40016 0.29771 0.0
C460 C 0.73652 0.36093 0.29324 0.0
C461 C 0.70743 0.33085 0.28833 0.0
C462 C 0.66348 0.34002 0.28845 0.0
C463 C 0.64927 0.37921 0.29324 0.0
C464 C 0.78356 0.35197 0.29356 0.0
C465 C 0.63161 0.30873 0.28324 0.0
C466 C 0.70033 0.00019 0.32316 0.0
C467 C 0.71925 0.02678 0.31255 0.0
C468 C 0.73276 0.10241 0.30916 0.0
C469 C 0.70012 0.11152 0.30028 0.0
C470 C 0.70127 0.14861 0.29258 0.0
C471 C 0.73565 0.1772 0.29382 0.0
C472 C 0.7678 0.16876 0.30308 0.0
C473 C 0.76568 0.13162 0.31072 0.0
C474 C 0.66586 0.15722 0.28305 0.0
C475 C 0.80473 0.19869 0.30473 0.0
C476 C 0.88697 0.10931 0.21865 0.0
C477 C 0.84581 0.11759 0.21433 0.0
C478 C 0.82125 0.15006 0.21986 0.0
C479 C 0.83873 0.17552 0.22981 0.0
C480 C 0.88039 0.1673 0.23428 0.0
C481 C 0.90381 0.13388 0.22881 0.0
C482 C 0.77684 0.15755 0.21491 0.0
C483 C 0.90068 0.19449 0.24461 0.0
C484 C 0.77774 0.40586 0.17504 0.0
C485 C 0.77961 0.43816 0.18619 0.0
C486 C 0.8018 0.39252 0.20474 0.0
C487 C 0.76404 0.36899 0.20598 0.0
C488 C 0.76128 0.33453 0.21475 0.0
C489 C 0.79654 0.32418 0.22267 0.0
C490 C 0.83396 0.34888 0.22178 0.0
C491 C 0.8361 0.38258 0.21277 0.0
C492 C 0.72094 0.30872 0.21541 0.0
C493 C 0.87195 0.33929 0.23022 0.0
C494 C 0.7233 0.29081 0.28247 0.0
C495 C 0.72219 0.25374 0.29007 0.0
C496 C 0.73831 0.21551 0.28527 0.0
C497 C 0.75675 0.21422 0.2726 0.0
C498 C 0.77452 0.17671 0.2676 0.0
C499 C 0.79324 0.17597 0.25521 0.0
C500 C 0.79481 0.21267 0.24732 0.0
C501 C 0.81478 0.21262 0.23486 0.0
C502 C 0.81417 0.24925 0.22709 0.0
C503 C 0.79506 0.28652 0.23148 0.0
C504 C 0.77642 0.28769 0.2441 0.0
C505 C 0.75844 0.32511 0.24904 0.0
C506 C 0.74071 0.32612 0.26155 0.0
C507 C 0.74032 0.28976 0.26962 0.0
C508 C 0.7576 0.25147 0.26474 0.0
C509 C 0.77611 0.25055 0.25202 0.0
C510 C 0.98465 0.0892 0.21072 0.0
C511 C 0.94831 0.06145 0.21608 0.0
O512 O 0.66628 0.44885 0.30193 0.0
O513 O 0.80711 0.42454 0.19589 0.0
O514 O 0.90928 0.0781 0.21256 0.0
O515 O 0.7331 0.0664 0.31655 0.0
H516 H 0.60548 0.43659 0.30833 0.0
H517 H 0.59732 0.45283 0.28526 0.0
H518 H 0.62604 0.50161 0.28648 0.0
H519 H 0.5743 0.4959 0.29421 0.0
H520 H 0.74368 0.42371 0.30123 0.0
H521 H 0.61562 0.3858 0.29319 0.0
H522 H 0.7895 0.32006 0.29784 0.0
H523 H 0.80115 0.37591 0.29932 0.0
H524 H 0.79645 0.35214 0.28342 0.0
H525 H 0.5987 0.32136 0.28343 0.0
H526 H 0.63255 0.27916 0.28919 0.0
H527 H 0.64002 0.30026 0.27301 0.0
H528 H 0.70259 0.02639 0.30297 0.0
H529 H 0.6664 0.99518 0.32011 0.0
H530 H 0.69191 0.02236 0.3314 0.0
H531 H 0.74436 0.94926 0.32538 0.0
H532 H 0.67342 0.09012 0.29946 0.0
H533 H 0.79032 0.12468 0.31777 0.0
H534 H 0.65198 0.18898 0.28492 0.0
H535 H 0.64023 0.13307 0.28372 0.0
H536 H 0.67878 0.15754 0.27291 0.0
H537 H 0.82762 0.18718 0.31217 0.0
H538 H 0.79285 0.23032 0.30772 0.0
H539 H 0.8217 0.20283 0.29524 0.0
H540 H 0.95078 0.06004 0.22693 0.0
H541 H 0.83296 0.09848 0.20652 0.0
H542 H 0.93548 0.12792 0.23237 0.0
H543 H 0.75436 0.16097 0.22326 0.0
H544 H 0.76573 0.13139 0.20857 0.0
H545 H 0.77613 0.18753 0.20916 0.0
H546 H 0.93484 0.18702 0.24595 0.0
H547 H 0.88407 0.18945 0.25411 0.0
H548 H 0.89765 0.22858 0.24198 0.0
H549 H 0.7473 0.44265 0.19044 0.0
H550 H 0.75685 0.41777 0.16711 0.0
H551 H 0.76464 0.37515 0.17856 0.0
H552 H 0.80996 0.40007 0.17093 0.0
H553 H 0.73683 0.37687 0.20005 0.0
H554 H 0.86495 0.40116 0.21184 0.0
H555 H 0.70646 0.31143 0.2253 0.0
H556 H 0.72823 0.27471 0.21379 0.0
H557 H 0.69731 0.31922 0.20805 0.0
H558 H 0.89675 0.36426 0.2294 0.0
H559 H 0.88608 0.30861 0.22722 0.0
H560 H 0.86202 0.33612 0.24064 0.0
H561 H 0.70882 0.2547 0.29989 0.0
H562 H 0.77446 0.14754 0.27325 0.0
H563 H 0.80656 0.14628 0.25188 0.0
H564 H 0.82944 0.24897 0.21753 0.0
H565 H 0.7581 0.35414 0.24332 0.0
H566 H 0.72735 0.35586 0.2648 0.0
H567 H 0.98233 0.09333 0.19995 0.0
H568 H 0.01572 0.0745 0.2131 0.0
H569 H 0.98384 0.12112 0.21519 0.0
C570 C 0.65106 0.59918 0.68005 0.0
C571 C 0.68096 0.56942 0.68748 0.0
C572 C 0.68159 0.59904 0.70939 0.0
C573 C 0.72351 0.61384 0.71011 0.0
C574 C 0.73421 0.64724 0.71846 0.0
C575 C 0.70239 0.66596 0.72638 0.0
C576 C 0.66052 0.64968 0.72617 0.0
C577 C 0.65074 0.61604 0.71774 0.0
C578 C 0.77936 0.66333 0.71855 0.0
C579 C 0.626 0.66857 0.73459 0.0
C580 C 0.65547 0.9901 0.69477 0.0
C581 C 0.67492 0.94833 0.69772 0.0
C582 C 0.68977 0.90148 0.7161 0.0
C583 C 0.67072 0.88854 0.72783 0.0
C584 C 0.67997 0.84893 0.73343 0.0
C585 C 0.71076 0.8225 0.72743 0.0
C586 C 0.73093 0.8359 0.71568 0.0
C587 C 0.71983 0.87506 0.71005 0.0
C588 C 0.65654 0.83546 0.74573 0.0
C589 C 0.76455 0.80916 0.70915 0.0
C590 C 0.87122 0.8839 0.79575 0.0
C591 C 0.82868 0.87664 0.7993 0.0
C592 C 0.80753 0.83985 0.79527 0.0
C593 C 0.82961 0.80955 0.78768 0.0
C594 C 0.87314 0.81577 0.78471 0.0
C595 C 0.8935 0.85284 0.78889 0.0
C596 C 0.76145 0.83366 0.79893 0.0
C597 C 0.89774 0.78386 0.77678 0.0
C598 C 0.70441 0.49998 0.8214 0.0
C599 C 0.74531 0.52419 0.81822 0.0
C600 C 0.75066 0.59865 0.81175 0.0
C601 C 0.72524 0.63469 0.81093 0.0
C602 C 0.73517 0.6677 0.80219 0.0
C603 C 0.77231 0.66503 0.79434 0.0
C604 C 0.79917 0.6293 0.79548 0.0
C605 C 0.78794 0.59623 0.80414 0.0
C606 C 0.70568 0.70528 0.80125 0.0
C607 C 0.83944 0.62604 0.78747 0.0
C608 C 0.7127 0.70452 0.73401 0.0
C609 C 0.70699 0.74394 0.7279 0.0
C610 C 0.72191 0.78121 0.7336 0.0
C611 C 0.74506 0.77895 0.74538 0.0
C612 C 0.76512 0.81488 0.75056 0.0
C613 C 0.78638 0.81265 0.76243 0.0
C614 C 0.78717 0.77473 0.76977 0.0
C615 C 0.80667 0.77266 0.78218 0.0
C616 C 0.80339 0.7356 0.78972 0.0
C617 C 0.78231 0.69985 0.78497 0.0
C618 C 0.76626 0.70005 0.77207 0.0
C619 C 0.7482 0.66355 0.76653 0.0
C620 C 0.73189 0.66449 0.75387 0.0
C621 C 0.73075 0.70253 0.74663 0.0
C622 C 0.74788 0.73981 0.75219 0.0
C623 C 0.76747 0.73808 0.76463 0.0
C624 C 0.89232 0.98154 0.78483 0.0
C625 C 0.87429 0.96072 0.7973 0.0
O626 O 0.67005 0.56879 0.70069 0.0
O627 O 0.73821 0.56705 0.82001 0.0
O628 O 0.89147 0.92054 0.79877 0.0
O629 O 0.67864 0.93968 0.71098 0.0
H630 H 0.71375 0.58172 0.68608 0.0
H631 H 0.65447 0.63202 0.68374 0.0
H632 H 0.61747 0.58913 0.68139 0.0
H633 H 0.65901 0.59937 0.66943 0.0
H634 H 0.74799 0.59943 0.70413 0.0
H635 H 0.61858 0.60393 0.71729 0.0
H636 H 0.78012 0.69706 0.71535 0.0
H637 H 0.80059 0.64481 0.71202 0.0
H638 H 0.79201 0.66183 0.72866 0.0
H639 H 0.5958 0.65048 0.73402 0.0
H640 H 0.62005 0.70177 0.73142 0.0
H641 H 0.63636 0.66945 0.74495 0.0
H642 H 0.7039 0.94103 0.69185 0.0
H643 H 0.59642 0.97432 0.68589 0.0
H644 H 0.68111 0.00856 0.68948 0.0
H645 H 0.65759 0.0094 0.70399 0.0
H646 H 0.64763 0.90922 0.73242 0.0
H647 H 0.73548 0.88521 0.7011 0.0
H648 H 0.67777 0.83896 0.75427 0.0
H649 H 0.64683 0.80167 0.74519 0.0
H650 H 0.62781 0.85507 0.74748 0.0
H651 H 0.78164 0.82677 0.70126 0.0
H652 H 0.74948 0.78081 0.70479 0.0
H653 H 0.788 0.79791 0.71646 0.0
H654 H 0.83937 0.95921 0.79577 0.0
H655 H 0.81194 0.89975 0.80518 0.0
H656 H 0.92656 0.85843 0.78642 0.0
H657 H 0.74223 0.82926 0.78997 0.0
H658 H 0.7484 0.86088 0.8045 0.0
H659 H 0.75806 0.80452 0.805 0.0
H660 H 0.93195 0.79213 0.77594 0.0
H661 H 0.88423 0.78209 0.76679 0.0
H662 H 0.8947 0.7519 0.78133 0.0
H663 H 0.75293 0.51775 0.80775 0.0
H664 H 0.70906 0.46544 0.81987 0.0
H665 H 0.67861 0.51097 0.81485 0.0
H666 H 0.69442 0.50536 0.83171 0.0
H667 H 0.69683 0.63633 0.81696 0.0
H668 H 0.80839 0.56881 0.80504 0.0
H669 H 0.69519 0.70976 0.79098 0.0
H670 H 0.7228 0.73443 0.80416 0.0
H671 H 0.67715 0.70161 0.80762 0.0
H672 H 0.85781 0.59698 0.78985 0.0
H673 H 0.85973 0.65424 0.7892 0.0
H674 H 0.83156 0.62578 0.7769 0.0
H675 H 0.69096 0.74557 0.71854 0.0
H676 H 0.76479 0.84508 0.74545 0.0
H677 H 0.80125 0.84132 0.76593 0.0
H678 H 0.81619 0.73502 0.79955 0.0
H679 H 0.74711 0.63374 0.77184 0.0
H680 H 0.71888 0.63543 0.74999 0.0
H681 H 0.88167 0.01504 0.78406 0.0
H682 H 0.88069 0.96427 0.77613 0.0
H683 H 0.92754 0.98043 0.78465 0.0
C684 C 0.76462 0.57216 0.0437 0.0
C685 C 0.74262 0.59646 0.05476 0.0
C686 C 0.6713 0.56419 0.05458 0.0
C687 C 0.64747 0.53033 0.05962 0.0
C688 C 0.60808 0.51936 0.05424 0.0
C689 C 0.5916 0.54368 0.04376 0.0
C690 C 0.6148 0.57901 0.03891 0.0
C691 C 0.65468 0.58845 0.0442 0.0
C692 C 0.58426 0.48155 0.05969 0.0
C693 C 0.59758 0.60689 0.0281 0.0
C694 C 0.28425 0.67692 0.06889 0.0
C695 C 0.31535 0.65707 0.05991 0.0
C696 C 0.36738 0.60062 0.05787 0.0
C697 C 0.38312 0.6153 0.04569 0.0
C698 C 0.41795 0.596 0.03961 0.0
C699 C 0.43589 0.55909 0.04527 0.0
C700 C 0.41922 0.54307 0.05725 0.0
C701 C 0.38555 0.56444 0.06348 0.0
C702 C 0.43564 0.61587 0.02719 0.0
C703 C 0.43717 0.50365 0.06355 0.0
C704 C 0.34486 0.47265 0.96615 0.0
C705 C 0.37039 0.50911 0.96707 0.0
C706 C 0.40829 0.50844 0.97422 0.0
C707 C 0.42123 0.47051 0.98052 0.0
C708 C 0.39587 0.43369 0.97954 0.0
C709 C 0.35798 0.4353 0.97237 0.0
C710 C 0.43449 0.54842 0.97509 0.0
C711 C 0.40873 0.39278 0.98612 0.0
C712 C 0.74726 0.46164 0.96772 0.0
C713 C 0.72707 0.42079 0.96258 0.0
C714 C 0.65169 0.43669 0.96468 0.0
C715 C 0.62807 0.47331 0.96234 0.0
C716 C 0.59122 0.48193 0.96963 0.0
C717 C 0.57685 0.45216 0.97913 0.0
C718 C 0.59967 0.41396 0.98108 0.0
C719 C 0.63725 0.40688 0.97393 0.0
C720 C 0.5679 0.52297 0.96718 0.0
C721 C 0.58445 0.3807 0.99072 0.0
C722 C 0.55012 0.53232 0.03785 0.0
C723 C 0.51307 0.54519 0.04429 0.0
C724 C 0.47303 0.5386 0.03882 0.0
C725 C 0.4697 0.51802 0.0266 0.0
C726 C 0.43001 0.5105 0.02082 0.0
C727 C 0.42721 0.49416 0.00824 0.0
C728 C 0.46396 0.48373 0.00107 0.0
C729 C 0.4616 0.46958 0.98799 0.0
C730 C 0.4987 0.45804 0.98131 0.0
C731 C 0.53853 0.46162 0.98718 0.0
C732 C 0.5416 0.47717 1.0001 0.0
C733 C 0.58119 0.48283 0.00614 0.0
C734 C 0.58398 0.49963 0.01865 0.0
C735 C 0.54738 0.51229 0.02553 0.0
C736 C 0.50705 0.5057 0.01981 0.0
C737 C 0.50417 0.48828 0.00706 0.0
C738 C 0.26611 0.53497 0.96274 0.0
C739 C 0.28785 0.50523 0.95295 0.0
O740 O 0.70981 0.57222 0.06004 0.0
O741 O 0.68746 0.43032 0.95751 0.0
O742 O 0.30748 0.47195 0.95951 0.0
O743 O 0.33557 0.6209 0.06448 0.0
H744 H 0.72997 0.62684 0.05086 0.0
H745 H 0.74166 0.56512 0.03581 0.0
H746 H 0.77774 0.54175 0.04745 0.0
H747 H 0.79083 0.59138 0.03937 0.0
H748 H 0.66032 0.5119 0.06766 0.0
H749 H 0.67221 0.61502 0.04019 0.0
H750 H 0.55428 0.49234 0.06436 0.0
H751 H 0.60302 0.46375 0.06707 0.0
H752 H 0.57568 0.45975 0.05164 0.0
H753 H 0.61566 0.637 0.02705 0.0
H754 H 0.56368 0.61457 0.02996 0.0
H755 H 0.59953 0.58978 0.01866 0.0
H756 H 0.33762 0.68073 0.05545 0.0
H757 H 0.29807 0.7088 0.07136 0.0
H758 H 0.29023 0.66274 0.07889 0.0
H759 H 0.22533 0.67039 0.05888 0.0
H760 H 0.369 0.64231 0.04084 0.0
H761 H 0.37325 0.55294 0.07278 0.0
H762 H 0.47081 0.61378 0.0268 0.0
H763 H 0.42653 0.64978 0.02626 0.0
H764 H 0.42276 0.59902 0.01859 0.0
H765 H 0.41639 0.49135 0.07155 0.0
H766 H 0.46874 0.51103 0.06772 0.0
H767 H 0.44165 0.4784 0.05615 0.0
H768 H 0.31185 0.52333 0.94714 0.0
H769 H 0.36105 0.5383 0.96229 0.0
H770 H 0.33824 0.40727 0.97162 0.0
H771 H 0.43654 0.55844 0.98546 0.0
H772 H 0.42093 0.57493 0.96925 0.0
H773 H 0.46731 0.54228 0.97157 0.0
H774 H 0.38498 0.36717 0.98474 0.0
H775 H 0.41289 0.39804 0.99678 0.0
H776 H 0.43976 0.38213 0.98211 0.0
H777 H 0.72406 0.39766 0.9708 0.0
H778 H 0.77848 0.45504 0.97228 0.0
H779 H 0.72642 0.47592 0.97531 0.0
H780 H 0.75169 0.48501 0.95963 0.0
H781 H 0.63928 0.49572 0.95499 0.0
H782 H 0.65482 0.37775 0.97537 0.0
H783 H 0.56014 0.53876 0.97658 0.0
H784 H 0.53759 0.51609 0.96215 0.0
H785 H 0.5866 0.5453 0.96095 0.0
H786 H 0.60192 0.35033 0.98963 0.0
H787 H 0.55 0.37464 0.98943 0.0
H788 H 0.58906 0.39227 0.00084 0.0
H789 H 0.51556 0.56219 0.05345 0.0
H790 H 0.40068 0.51811 0.02587 0.0
H791 H 0.39587 0.49008 0.00415 0.0
H792 H 0.49668 0.44752 0.97125 0.0
H793 H 0.61059 0.47477 0.00121 0.0
H794 H 0.61534 0.50332 0.02276 0.0
H795 H 0.24977 0.56111 0.95745 0.0
H796 H 0.2897 0.54932 0.96939 0.0
H797 H 0.24243 0.51738 0.96881 0.0
C798 C 0.84322 0.50677 0.42343 0.0
C799 C 0.80959 0.50832 0.43437 0.0
C800 C 0.85593 0.52825 0.45274 0.0
C801 C 0.87588 0.48877 0.45438 0.0
C802 C 0.91126 0.48448 0.46256 0.0
C803 C 0.92689 0.5203 0.46927 0.0
C804 C 0.90603 0.55974 0.46797 0.0
C805 C 0.87061 0.56309 0.45977 0.0
C806 C 0.93255 0.44181 0.46385 0.0
C807 C 0.92172 0.59846 0.47504 0.0
C808 C 0.24694 0.49866 0.44751 0.0
C809 C 0.22093 0.53469 0.44134 0.0
C810 C 0.16122 0.54665 0.45658 0.0
C811 C 0.14341 0.57546 0.46535 0.0
C812 C 0.1047 0.56691 0.47173 0.0
C813 C 0.08354 0.52811 0.46941 0.0
C814 C 0.10112 0.49883 0.46047 0.0
C815 C 0.13966 0.50842 0.45411 0.0
C816 C 0.08663 0.59917 0.48107 0.0
C817 C 0.07946 0.45711 0.45781 0.0
C818 C 0.1689 0.42205 0.54237 0.0
C819 C 0.15379 0.46328 0.54456 0.0
C820 C 0.11225 0.47464 0.54109 0.0
C821 C 0.08536 0.44406 0.53538 0.0
C822 C 0.09951 0.40171 0.5341 0.0
C823 C 0.14111 0.39118 0.53774 0.0
C824 C 0.09775 0.51978 0.54292 0.0
C825 C 0.07143 0.36815 0.52826 0.0
C826 C 0.75907 0.50767 0.54755 0.0
C827 C 0.77568 0.4675 0.55429 0.0
C828 C 0.85272 0.47155 0.55307 0.0
C829 C 0.882 0.50472 0.55361 0.0
C830 C 0.92016 0.50329 0.54644 0.0
C831 C 0.92962 0.46718 0.53879 0.0
C832 C 0.90114 0.43244 0.5388 0.0
C833 C 0.86286 0.43505 0.54591 0.0
C834 C 0.94998 0.54072 0.54681 0.0
C835 C 0.9109 0.39287 0.53115 0.0
C836 C 0.96651 0.51678 0.47697 0.0
C837 C 0.00501 0.52418 0.47043 0.0
C838 C 0.04379 0.51769 0.47667 0.0
C839 C 0.04436 0.50206 0.48967 0.0
C840 C 0.0827 0.49181 0.49587 0.0
C841 C 0.083 0.47663 0.50867 0.0
C842 C 0.04504 0.47214 0.51591 0.0
C843 C 0.04521 0.45753 0.52904 0.0
C844 C 0.00716 0.45545 0.53618 0.0
C845 C 0.96849 0.46674 0.53043 0.0
C846 C 0.96751 0.47917 0.51707 0.0
C847 C 0.92909 0.48861 0.51073 0.0
C848 C 0.92854 0.50022 0.49754 0.0
C849 C 0.96651 0.50455 0.49033 0.0
C850 C 0.00562 0.49642 0.49662 0.0
C851 C 0.00604 0.4825 0.50988 0.0
C852 C 0.26154 0.4218 0.52769 0.0
C853 C 0.24522 0.43515 0.54123 0.0
O854 O 0.82296 0.53445 0.44442 0.0
O855 O 0.81524 0.47545 0.55962 0.0
O856 O 0.2099 0.41103 0.54463 0.0
O857 O 0.19919 0.55694 0.45091 0.0
H858 H 0.80366 0.47582 0.43827 0.0
H859 H 0.87325 0.49286 0.42707 0.0
H860 H 0.85001 0.5392 0.41962 0.0
H861 H 0.83197 0.48674 0.41525 0.0
H862 H 0.86437 0.46129 0.44923 0.0
H863 H 0.85476 0.59334 0.45855 0.0
H864 H 0.96572 0.44401 0.46014 0.0
H865 H 0.91575 0.41671 0.45834 0.0
H866 H 0.93392 0.43228 0.47432 0.0
H867 H 0.90094 0.62643 0.47344 0.0
H868 H 0.95431 0.60641 0.47159 0.0
H869 H 0.92346 0.59174 0.48571 0.0
H870 H 0.19808 0.52025 0.43441 0.0
H871 H 0.26713 0.48323 0.43997 0.0
H872 H 0.22558 0.47416 0.45179 0.0
H873 H 0.26742 0.51061 0.45548 0.0
H874 H 0.16009 0.60486 0.4672 0.0
H875 H 0.15273 0.48555 0.44737 0.0
H876 H 0.05282 0.60549 0.47876 0.0
H877 H 0.10443 0.62959 0.48072 0.0
H878 H 0.08784 0.58638 0.49122 0.0
H879 H 0.09849 0.43655 0.45122 0.0
H880 H 0.0482 0.4631 0.4532 0.0
H881 H 0.07352 0.43981 0.46715 0.0
H882 H 0.23707 0.46932 0.54026 0.0
H883 H 0.1744 0.48676 0.54886 0.0
H884 H 0.15275 0.35918 0.5364 0.0
H885 H 0.09424 0.53529 0.53319 0.0
H886 H 0.12052 0.53854 0.54878 0.0
H887 H 0.06621 0.52029 0.54784 0.0
H888 H 0.08578 0.33604 0.52891 0.0
H889 H 0.06568 0.37585 0.5178 0.0
H890 H 0.04015 0.36768 0.53334 0.0
H891 H 0.77799 0.44285 0.54659 0.0
H892 H 0.72665 0.50217 0.54369 0.0
H893 H 0.78024 0.5163 0.5392 0.0
H894 H 0.75822 0.53476 0.55442 0.0
H895 H 0.8742 0.53242 0.55936 0.0
H896 H 0.84107 0.40847 0.54595 0.0
H897 H 0.95586 0.55283 0.53672 0.0
H898 H 0.98099 0.53058 0.55085 0.0
H899 H 0.93734 0.56698 0.55287 0.0
H900 H 0.88763 0.36711 0.53318 0.0
H901 H 0.94323 0.38128 0.53354 0.0
H902 H 0.91045 0.40033 0.52052 0.0
H903 H 0.00478 0.53479 0.4603 0.0
H904 H 0.11294 0.49497 0.49085 0.0
H905 H 0.11355 0.46896 0.51284 0.0
H906 H 0.0077 0.44527 0.54634 0.0
H907 H 0.89892 0.48656 0.51583 0.0
H908 H 0.89804 0.5065 0.49311 0.0
H909 H 0.29237 0.43745 0.52541 0.0
H910 H 0.2383 0.43151 0.52012 0.0
H911 H 0.26531 0.38686 0.52712 0.0
Fe912 Fe 0.0288 0.72091 0.16363 0.0
O913 O 0.02563 0.73234 0.14458 0.0
Fe914 Fe 0.97011 0.76341 0.13836 0.0
Fe915 Fe 0.06763 0.76865 0.13485 0.0
O916 O 0.02135 0.73292 0.14491 0.0
O917 O 0.01204 0.79894 0.12846 0.0
O918 O 0.01605 0.7987 0.12823 0.0
Fe919 Fe 0.00635 0.81295 0.10985 0.0
C920 C 0.07577 0.80547 0.16198 0.0
O921 O 0.08074 0.68644 0.15763 0.0
O922 O 0.11618 0.73155 0.14325 0.0
O923 O 0.96159 0.76638 0.10641 0.0
O924 O 0.96535 0.72118 0.12323 0.0
O925 O 0.93273 0.72058 0.14951 0.0
O926 O 0.98166 0.6776 0.15986 0.0
O927 O 0.06952 0.72754 0.1191 0.0
O928 O 0.05297 0.77352 0.10334 0.0
C929 C 0.94368 0.68573 0.1556 0.0
O930 O 0.95605 0.84855 0.1167 0.0
O931 O 0.92145 0.80042 0.13017 0.0
O932 O 0.07097 0.76948 0.16753 0.0
O933 O 0.06943 0.81117 0.14984 0.0
C934 C 0.11387 0.69812 0.15085 0.0
C935 C 0.07324 0.74114 0.10734 0.0
C936 C 0.09494 0.84415 0.1166 0.0
O937 O 0.10428 0.81127 0.12383 0.0
O938 O 0.05654 0.85468 0.1131 0.0
C939 C 0.95381 0.73033 0.11164 0.0
O940 O 0.97298 0.80622 0.15341 0.0
O941 O 0.98012 0.76009 0.16965 0.0
C942 C 0.92251 0.83435 0.1228 0.0
C943 C 0.97227 0.79736 0.16555 0.0
Fe944 Fe 0.5272 0.75799 0.41027 0.0
O945 O 0.53478 0.7598 0.3912 0.0
Fe946 Fe 0.51285 0.81262 0.3807 0.0
Fe947 Fe 0.5133 0.71473 0.37939 0.0
O948 O 0.53502 0.76381 0.39121 0.0
O949 O 0.48953 0.76742 0.36917 0.0
O950 O 0.48964 0.76317 0.36911 0.0
Fe951 Fe 0.49645 0.76815 0.35005 0.0
C952 C 0.56864 0.67552 0.40142 0.0
O953 O 0.48016 0.71178 0.41014 0.0
O954 O 0.45734 0.71101 0.38958 0.0
O955 O 0.45381 0.81742 0.35196 0.0
O956 O 0.48463 0.85772 0.36819 0.0
O957 O 0.45695 0.81299 0.39108 0.0
O958 O 0.48011 0.80298 0.41147 0.0
O959 O 0.48669 0.6734 0.3656 0.0
O960 O 0.4543 0.7178 0.3506 0.0
C961 C 0.45178 0.81466 0.4034 0.0
O962 O 0.54283 0.81441 0.34995 0.0
O963 O 0.56864 0.81549 0.37017 0.0
O964 O 0.57026 0.70954 0.40847 0.0
O965 O 0.54256 0.66956 0.39173 0.0
C966 C 0.45155 0.70407 0.40172 0.0
C967 C 0.46063 0.68086 0.35599 0.0
C968 C 0.5709 0.70839 0.35682 0.0
O969 O 0.56897 0.71689 0.36894 0.0
O970 O 0.54286 0.72178 0.34887 0.0
C971 C 0.45756 0.85192 0.35875 0.0
O972 O 0.54222 0.85328 0.39425 0.0
O973 O 0.56977 0.80756 0.40983 0.0
C974 C 0.57157 0.82458 0.35805 0.0
C975 C 0.56857 0.8437 0.40364 0.0
Fe976 Fe 0.51096 0.25562 0.64728 0.0
O977 O 0.53621 0.23149 0.63098 0.0
Fe978 Fe 0.41456 0.29641 0.63716 0.0
Fe979 Fe 0.59778 0.22709 0.628 0.0
O980 O 0.47599 0.29011 0.63499 0.0
O981 O 0.47573 0.29087 0.63375 0.0
O982 O 0.53586 0.23212 0.62975 0.0
Fe983 Fe 0.50025 0.266 0.61742 0.0
C984 C 0.59445 0.3011 0.64745 0.0
O985 O 0.55063 0.21514 0.65816 0.0
O986 O 0.59173 0.18201 0.64254 0.0
O987 O 0.45507 0.21829 0.61731 0.0
O988 O 0.39743 0.256 0.62235 0.0
O989 O 0.40853 0.24647 0.65039 0.0
O990 O 0.46691 0.20781 0.64774 0.0
O991 O 0.58028 0.19055 0.6123 0.0
O992 O 0.53138 0.23407 0.60194 0.0
C993 C 0.42862 0.21156 0.65152 0.0
O994 O 0.45912 0.30561 0.60672 0.0
O995 O 0.4206 0.34166 0.62248 0.0
O996 O 0.55433 0.30338 0.64751 0.0
O997 O 0.61435 0.26971 0.64256 0.0
C998 C 0.57527 0.18455 0.65419 0.0
C999 C 0.55802 0.20232 0.60224 0.0
C1000 C 0.5833 0.30994 0.61298 0.0
O1001 O 0.6033 0.2753 0.61446 0.0
O1002 O 0.5448 0.3144 0.61659 0.0
C1003 C 0.415 0.22395 0.61708 0.0
O1004 O 0.43331 0.33225 0.65296 0.0
O1005 O 0.48104 0.28703 0.66285 0.0
C1006 C 0.43369 0.33592 0.6105 0.0
C1007 C 0.45687 0.32056 0.66275 0.0
Fe1008 Fe 0.03984 0.25358 0.9128 0.0
O1009 O 0.04239 0.25639 0.89359 0.0
Fe1010 Fe 0.01368 0.30793 0.88413 0.0
Fe1011 Fe 0.02076 0.21021 0.8821 0.0
O1012 O 0.04255 0.26059 0.89361 0.0
O1013 O 0.99072 0.26168 0.87293 0.0
O1014 O 0.99096 0.25745 0.87284 0.0
Fe1015 Fe 0.99151 0.26408 0.85376 0.0
C1016 C 0.0839 0.17389 0.90242 0.0
O1017 O 0.99604 0.205 0.91355 0.0
O1018 O 0.96791 0.20136 0.89362 0.0
O1019 O 0.94641 0.30992 0.85706 0.0
O1020 O 0.97849 0.3514 0.87276 0.0
O1021 O 0.96098 0.30212 0.89589 0.0
O1022 O 0.99032 0.29583 0.91552 0.0
O1023 O 0.99368 0.16783 0.86883 0.0
O1024 O 0.95401 0.21013 0.85495 0.0
C1025 C 0.95871 0.30434 0.90827 0.0
O1026 O 0.03367 0.31383 0.85281 0.0
O1027 O 0.06597 0.3164 0.8721 0.0
O1028 O 0.08529 0.20767 0.90963 0.0
O1029 O 0.05596 0.16681 0.89334 0.0
C1030 C 0.96609 0.19497 0.90588 0.0
C1031 C 0.96478 0.1737 0.85996 0.0
C1032 C 0.0726 0.21134 0.85785 0.0
O1033 O 0.0734 0.21583 0.87021 0.0
O1034 O 0.04092 0.22267 0.85101 0.0
C1035 C 0.95085 0.34504 0.8635 0.0
O1036 O 0.04332 0.35013 0.89729 0.0
O1037 O 0.07835 0.30598 0.91183 0.0
C1038 C 0.0642 0.32592 0.85998 0.0
C1039 C 0.07131 0.34268 0.90642 0.0
H1040 H 0.27451 0.84615 0.4577 0.0
H1041 H 0.24909 0.96879 0.43989 0.0
H1042 H 0.29586 0.95043 0.42126 0.0
H1043 H 0.38216 0.84455 0.45109 0.0
H1044 H 0.38531 0.78859 0.44773 0.0
H1045 H 0.34445 0.80829 0.45843 0.0
H1046 H 0.28827 0.77254 0.44395 0.0
H1047 H 0.32839 0.75436 0.43261 0.0
H1048 H 0.28503 0.78635 0.42683 0.0
H1049 H 0.34984 0.92118 0.40549 0.0
H1050 H 0.41084 0.88555 0.39478 0.0
H1051 H 0.40496 0.78514 0.42394 0.0
C1052 C 0.2786 0.86917 0.44989 0.0
C1053 C 0.25903 0.90947 0.45043 0.0
C1054 C 0.26443 0.93808 0.43978 0.0
C1055 C 0.29065 0.92781 0.42913 0.0
C1056 C 0.31091 0.88859 0.42918 0.0
C1057 C 0.30518 0.85969 0.43929 0.0
C1058 C 0.3336 0.82141 0.43761 0.0
C1059 C 0.36314 0.81541 0.44941 0.0
C1060 C 0.30721 0.78129 0.43512 0.0
C1061 C 0.35795 0.83449 0.42542 0.0
C1062 C 0.34333 0.87255 0.42041 0.0
C1063 C 0.36138 0.89124 0.40927 0.0
C1064 C 0.39588 0.87085 0.40326 0.0
C1065 C 0.41245 0.83299 0.40866 0.0
C1066 C 0.39284 0.8143 0.41973 0.0
H1067 H 0.41129 0.97926 0.68347 0.0
H1068 H 0.27928 0.00784 0.69206 0.0
H1069 H 0.28891 0.07966 0.68279 0.0
H1070 H 0.45472 0.08442 0.68977 0.0
H1071 H 0.49165 0.08199 0.67624 0.0
H1072 H 0.47541 0.03399 0.68451 0.0
H1073 H 0.45152 0.0033 0.66228 0.0
H1074 H 0.46759 0.05156 0.65411 0.0
H1075 H 0.41399 0.03237 0.65246 0.0
H1076 H 0.31154 0.14701 0.67181 0.0
H1077 H 0.34627 0.20653 0.66019 0.0
H1078 H 0.46332 0.134 0.65804 0.0
C1079 C 0.38453 0.00076 0.68347 0.0
C1080 C 0.34444 0.98783 0.68845 0.0
C1081 C 0.31023 0.01698 0.68831 0.0
C1082 C 0.31537 0.05783 0.68305 0.0
C1083 C 0.35489 0.06914 0.67792 0.0
C1084 C 0.38896 0.04158 0.67811 0.0
C1085 C 0.42754 0.06122 0.67146 0.0
C1086 C 0.46449 0.06566 0.68109 0.0
C1087 C 0.44092 0.03558 0.65936 0.0
C1088 C 0.4098 0.10414 0.66756 0.0
C1089 C 0.36785 0.108 0.6714 0.0
C1090 C 0.34444 0.14447 0.66879 0.0
C1091 C 0.36448 0.17812 0.66216 0.0
C1092 C 0.40756 0.17512 0.65817 0.0
C1093 C 0.43034 0.13741 0.66091 0.0
H1094 H 0.30831 0.09763 0.92799 0.0
H1095 H 0.27759 0.97007 0.91564 0.0
H1096 H 0.20885 0.996 0.90694 0.0
H1097 H 0.2046 0.12443 0.93925 0.0
H1098 H 0.20867 0.1789 0.93391 0.0
H1099 H 0.25571 0.15013 0.93842 0.0
H1100 H 0.28933 0.16735 0.91574 0.0
H1101 H 0.24231 0.19608 0.91115 0.0
H1102 H 0.26125 0.1533 0.90108 0.0
H1103 H 0.14293 0.0376 0.89951 0.0
H1104 H 0.08526 0.08941 0.89537 0.0
H1105 H 0.16015 0.18728 0.91397 0.0
C1106 C 0.28706 0.07494 0.92358 0.0
C1107 C 0.29783 0.0316 0.92274 0.0
C1108 C 0.2695 0.00328 0.91656 0.0
C1109 C 0.23058 0.01775 0.91157 0.0
C1110 C 0.22063 0.06063 0.91282 0.0
C1111 C 0.24811 0.08864 0.91875 0.0
C1112 C 0.22989 0.13281 0.91932 0.0
C1113 C 0.22439 0.1474 0.93357 0.0
C1114 C 0.25733 0.16422 0.91134 0.0
C1115 C 0.1876 0.12538 0.91288 0.0
C1116 C 0.18282 0.0838 0.90901 0.0
C1117 C 0.14628 0.07014 0.90262 0.0
C1118 C 0.11373 0.09975 0.9003 0.0
C1119 C 0.11786 0.14223 0.90454 0.0
C1120 C 0.15551 0.15492 0.91081 0.0
H1121 H 0.14803 0.04391 0.17377 0.0
H1122 H 0.09048 0.03459 0.21238 0.0
H1123 H 0.07411 0.95898 0.20852 0.0
H1124 H 0.07239 0.9806 0.15763 0.0
H1125 H 0.11006 0.95594 0.14677 0.0
H1126 H 0.12022 0.00823 0.15294 0.0
H1127 H 0.19234 0.98325 0.16209 0.0
H1128 H 0.18267 0.93082 0.15589 0.0
H1129 H 0.19416 0.93806 0.17299 0.0
H1130 H 0.06595 0.88357 0.20051 0.0
H1131 H 0.05799 0.81729 0.18797 0.0
H1132 H 0.11556 0.87836 0.15403 0.0
C1133 C 0.13267 0.0257 0.18149 0.0
C1134 C 0.12194 0.04464 0.19355 0.0
C1135 C 0.10027 0.02032 0.20324 0.0
C1136 C 0.09082 0.97741 0.20113 0.0
C1137 C 0.10281 0.95949 0.18923 0.0
C1138 C 0.12272 0.98307 0.1795 0.0
C1139 C 0.12989 0.95715 0.16728 0.0
C1140 C 0.10673 0.97662 0.15547 0.0
C1141 C 0.1776 0.95202 0.1644 0.0
C1142 C 0.11017 0.91549 0.17154 0.0
C1143 C 0.09564 0.9171 0.18433 0.0
C1144 C 0.07714 0.882 0.19048 0.0
C1145 C 0.07285 0.84449 0.1833 0.0
C1146 C 0.08578 0.84287 0.17001 0.0
C1147 C 0.1051 0.87877 0.16415 0.0
H1148 H 0.21548 0.17234 0.57332 0.0
H1149 H 0.27468 0.05329 0.56272 0.0
H1150 H 0.33197 0.06673 0.57864 0.0
H1151 H 0.30568 0.23139 0.57601 0.0
H1152 H 0.28891 0.26187 0.59 0.0
H1153 H 0.25003 0.24062 0.57905 0.0
H1154 H 0.21269 0.20141 0.59829 0.0
H1155 H 0.25088 0.2233 0.60942 0.0
H1156 H 0.24306 0.16674 0.60874 0.0
H1157 H 0.38846 0.0994 0.59353 0.0
H1158 H 0.43407 0.14436 0.60746 0.0
H1159 H 0.33434 0.23908 0.60887 0.0
C1160 C 0.23995 0.14857 0.57454 0.0
C1161 C 0.24105 0.11222 0.56656 0.0
C1162 C 0.27356 0.08178 0.56855 0.0
C1163 C 0.30616 0.08909 0.5776 0.0
C1164 C 0.3051 0.12634 0.58487 0.0
C1165 C 0.27215 0.155 0.58365 0.0
C1166 C 0.27892 0.19342 0.59213 0.0
C1167 C 0.28102 0.23423 0.5838 0.0
C1168 C 0.24433 0.19637 0.60278 0.0
C1169 C 0.3216 0.18282 0.59796 0.0
C1170 C 0.33635 0.14399 0.59374 0.0
C1171 C 0.37673 0.12942 0.59711 0.0
C1172 C 0.40251 0.15522 0.60498 0.0
C1173 C 0.38767 0.19503 0.60942 0.0
C1174 C 0.34647 0.20848 0.6059 0.0
H1175 H 0.13658 0.97781 0.84407 0.0
H1176 H 0.1427 0.01623 0.80322 0.0
H1177 H 0.14388 0.09098 0.80977 0.0
H1178 H 0.06341 0.05408 0.85368 0.0
H1179 H 0.08611 0.06168 0.86958 0.0
H1180 H 0.09322 0.01206 0.86135 0.0
H1181 H 0.17487 0.02189 0.86433 0.0
H1182 H 0.16654 0.07284 0.87181 0.0
H1183 H 0.20052 0.06842 0.85761 0.0
H1184 H 0.13377 0.16033 0.82009 0.0
H1185 H 0.10485 0.21878 0.83329 0.0
H1186 H 0.10406 0.13735 0.86764 0.0
C1187 C 0.13947 0.00206 0.83655 0.0
C1188 C 0.14073 0.99098 0.82316 0.0
C1189 C 0.14281 0.02358 0.81355 0.0
C1190 C 0.14365 0.06628 0.81718 0.0
C1191 C 0.1421 0.07607 0.83045 0.0
C1192 C 0.13971 0.04493 0.84002 0.0
C1193 C 0.13245 0.06402 0.85344 0.0
C1194 C 0.09137 0.04693 0.85986 0.0
C1195 C 0.1709 0.05633 0.86232 0.0
C1196 C 0.12861 0.11053 0.84979 0.0
C1197 C 0.13563 0.11684 0.83652 0.0
C1198 C 0.12917 0.15607 0.83052 0.0
C1199 C 0.11291 0.18915 0.83809 0.0
C1200 C 0.10308 0.18268 0.85149 0.0
C1201 C 0.1129 0.14353 0.85753 0.0
H1202 H 0.19002 0.90048 0.04821 0.0
H1203 H 0.303 0.83451 0.06125 0.0
H1204 H 0.27796 0.83948 0.08407 0.0
H1205 H 0.17177 0.96842 0.07761 0.0
H1206 H 0.11519 0.96011 0.07702 0.0
H1207 H 0.14617 0.96036 0.0621 0.0
H1208 H 0.11721 0.88575 0.05634 0.0
H1209 H 0.08586 0.88569 0.07108 0.0
H1210 H 0.12263 0.84307 0.06805 0.0
H1211 H 0.23704 0.84317 0.10498 0.0
H1212 H 0.18 0.83467 0.12134 0.0
H1213 H 0.09145 0.89472 0.09465 0.0
C1214 C 0.21005 0.88824 0.05593 0.0
C1215 C 0.24885 0.86802 0.05291 0.0
C1216 C 0.27359 0.85104 0.06325 0.0
C1217 C 0.2597 0.85388 0.07629 0.0
C1218 C 0.22092 0.87352 0.07888 0.0
C1219 C 0.19621 0.88997 0.06895 0.0
C1220 C 0.15275 0.9027 0.07397 0.0
C1221 C 0.14609 0.95077 0.07259 0.0
C1222 C 0.11757 0.87781 0.06695 0.0
C1223 C 0.15627 0.88958 0.0882 0.0
C1224 C 0.19627 0.87395 0.09092 0.0
C1225 C 0.20583 0.85592 0.10303 0.0
C1226 C 0.17309 0.85135 0.1123 0.0
C1227 C 0.13097 0.86381 0.1093 0.0
C1228 C 0.12328 0.88551 0.09739 0.0
H1229 H 0.39241 0.08592 0.33726 0.0
H1230 H 0.2668 0.03637 0.32923 0.0
H1231 H 0.28842 0.96649 0.33798 0.0
H1232 H 0.45019 0.99565 0.32846 0.0
H1233 H 0.48893 0.99997 0.34128 0.0
H1234 H 0.46286 0.04677 0.33518 0.0
H1235 H 0.43762 0.06496 0.35868 0.0
H1236 H 0.46377 0.01821 0.36487 0.0
H1237 H 0.408 0.02619 0.36806 0.0
H1238 H 0.32536 0.90104 0.34561 0.0
H1239 H 0.37442 0.8444 0.35262 0.0
H1240 H 0.47494 0.93711 0.35708 0.0
C1241 C 0.36919 0.06061 0.33761 0.0
C1242 C 0.32772 0.06668 0.33271 0.0
C1243 C 0.29856 0.03249 0.33303 0.0
C1244 C 0.31054 0.99276 0.338 0.0
C1245 C 0.35165 0.98788 0.34272 0.0
C1246 C 0.38043 0.02094 0.3427 0.0
C1247 C 0.42306 0.00689 0.34797 0.0
C1248 C 0.45833 0.01266 0.3376 0.0
C1249 C 0.43373 0.03047 0.36065 0.0
C1250 C 0.41407 0.96045 0.35065 0.0
C1251 C 0.37266 0.95022 0.34754 0.0
C1252 C 0.35762 0.90876 0.34828 0.0
C1253 C 0.38572 0.87684 0.35221 0.0
C1254 C 0.4282 0.88662 0.35547 0.0
C1255 C 0.44236 0.92904 0.35487 0.0
H1256 H 0.73485 0.14459 0.55139 0.0
H1257 H 0.6763 0.02052 0.54859 0.0
H1258 H 0.61362 0.04672 0.56084 0.0
H1259 H 0.7058 0.16036 0.58357 0.0
H1260 H 0.69639 0.21641 0.58236 0.0
H1261 H 0.73365 0.19169 0.57142 0.0
H1262 H 0.69397 0.21955 0.55128 0.0
H1263 H 0.65553 0.24563 0.56158 0.0
H1264 H 0.63815 0.20854 0.54944 0.0
H1265 H 0.56159 0.08404 0.57568 0.0
H1266 H 0.52691 0.12825 0.59266 0.0
H1267 H 0.61956 0.22719 0.58562 0.0
C1268 C 0.70873 0.12298 0.55325 0.0
C1269 C 0.71069 0.08026 0.54923 0.0
C1270 C 0.67558 0.05321 0.55176 0.0
C1271 C 0.63978 0.0679 0.5586 0.0
C1272 C 0.63933 0.10993 0.56272 0.0
C1273 C 0.67297 0.13702 0.56014 0.0
C1274 C 0.66685 0.17925 0.56678 0.0
C1275 C 0.70278 0.18742 0.5766 0.0
C1276 C 0.66344 0.21537 0.55666 0.0
C1277 C 0.62485 0.17157 0.57368 0.0
C1278 C 0.60911 0.13157 0.57111 0.0
C1279 C 0.57296 0.11583 0.57749 0.0
C1280 C 0.55326 0.14113 0.58703 0.0
C1281 C 0.56973 0.18159 0.58997 0.0
C1282 C 0.60527 0.19724 0.58302 0.0
H1283 H 0.7122 0.94438 0.29783 0.0
H1284 H 0.79007 0.02736 0.33398 0.0
H1285 H 0.74023 0.97933 0.35306 0.0
H1286 H 0.60442 0.93629 0.3174 0.0
H1287 H 0.59214 0.88291 0.31256 0.0
H1288 H 0.62665 0.91523 0.30249 0.0
H1289 H 0.68456 0.85674 0.30392 0.0
H1290 H 0.64989 0.82499 0.31411 0.0
H1291 H 0.70209 0.83878 0.31979 0.0
H1292 H 0.67915 0.92461 0.36421 0.0
H1293 H 0.62529 0.87402 0.37255 0.0
H1294 H 0.5972 0.83666 0.33281 0.0
C1295 C 0.71956 0.94954 0.30803 0.0
C1296 C 0.75107 0.99623 0.31361 0.0
C1297 C 0.76866 0.00244 0.331 0.0
C1298 C 0.73597 0.97426 0.3427 0.0
C1299 C 0.69675 0.93755 0.33721 0.0
C1300 C 0.68962 0.92442 0.32083 0.0
C1301 C 0.65619 0.89091 0.32038 0.0
C1302 C 0.61758 0.90731 0.31276 0.0
C1303 C 0.67426 0.85048 0.31419 0.0
C1304 C 0.64551 0.88413 0.33501 0.0
C1305 C 0.66793 0.90922 0.34398 0.0
C1306 C 0.66147 0.90528 0.35744 0.0
C1307 C 0.63101 0.87625 0.36209 0.0
C1308 C 0.60706 0.85162 0.35329 0.0
C1309 C 0.61499 0.85542 0.33971 0.0
H1310 H 0.75642 0.89204 0.06914 0.0
H1311 H 0.65737 0.87699 0.09851 0.0
H1312 H 0.71172 0.87482 0.11583 0.0
H1313 H 0.8259 0.82274 0.08187 0.0
H1314 H 0.87375 0.85197 0.07814 0.0
H1315 H 0.82722 0.85986 0.06838 0.0
H1316 H 0.82832 0.94037 0.07321 0.0
H1317 H 0.87548 0.93318 0.08287 0.0
H1318 H 0.82935 0.95819 0.08993 0.0
H1319 H 0.77748 0.8588 0.12909 0.0
H1320 H 0.84843 0.83795 0.13725 0.0
H1321 H 0.9035 0.87062 0.09948 0.0
C1322 C 0.74606 0.88941 0.07924 0.0
C1323 C 0.7028 0.88339 0.08244 0.0
C1324 C 0.69046 0.8805 0.0958 0.0
C1325 C 0.72109 0.87961 0.10571 0.0
C1326 C 0.76375 0.88333 0.10214 0.0
C1327 C 0.77608 0.88937 0.08924 0.0
C1328 C 0.82384 0.88928 0.08778 0.0
C1329 C 0.83855 0.85387 0.07849 0.0
C1330 C 0.8402 0.93286 0.08318 0.0
C1331 C 0.83652 0.88011 0.10176 0.0
C1332 C 0.80153 0.87693 0.10996 0.0
C1333 C 0.80523 0.86268 0.12288 0.0
C1334 C 0.84556 0.85079 0.12743 0.0
C1335 C 0.88157 0.85367 0.11911 0.0
C1336 C 0.87688 0.86963 0.10625 0.0
H1337 H 0.95004 0.99787 0.80538 0.0
H1338 H 0.81801 0.98131 0.81678 0.0
H1339 H 0.82917 0.02792 0.83576 0.0
H1340 H 0.99649 0.00732 0.83857 0.0
H1341 H 0.03304 0.04733 0.83264 0.0
H1342 H 0.01435 0.00703 0.82176 0.0
H1343 H 0.99033 0.06797 0.80607 0.0
H1344 H 0.00694 0.10718 0.81766 0.0
H1345 H 0.95293 0.10677 0.81195 0.0
H1346 H 0.85173 0.08324 0.85164 0.0
H1347 H 0.88526 0.14224 0.86373 0.0
H1348 H 0.00246 0.1227 0.8422 0.0
C1349 C 0.92351 0.00377 0.8119 0.0
C1350 C 0.8828 0.98671 0.80942 0.0
C1351 C 0.84924 0.99462 0.81837 0.0
C1352 C 0.85533 0.02088 0.8292 0.0
C1353 C 0.89532 0.03865 0.83104 0.0
C1354 C 0.92894 0.0303 0.82267 0.0
C1355 C 0.96765 0.05635 0.82614 0.0
C1356 C 0.00505 0.02777 0.83004 0.0
C1357 C 0.98016 0.08634 0.81478 0.0
C1358 C 0.95043 0.08081 0.83773 0.0
C1359 C 0.90863 0.0701 0.8404 0.0
C1360 C 0.88467 0.0913 0.84985 0.0
C1361 C 0.90378 0.12467 0.85664 0.0
C1362 C 0.94632 0.13601 0.85398 0.0
C1363 C 0.97011 0.11355 0.84457 0.0
H1364 H 0.80069 0.90595 0.42614 0.0
H1365 H 0.768 0.03833 0.42061 0.0
H1366 H 0.69518 0.01748 0.41424 0.0
H1367 H 0.74272 0.86501 0.39953 0.0
H1368 H 0.72634 0.81751 0.4081 0.0
H1369 H 0.77521 0.84332 0.41239 0.0
H1370 H 0.74955 0.84867 0.43652 0.0
H1371 H 0.70068 0.82268 0.43228 0.0
H1372 H 0.6994 0.87368 0.44011 0.0
H1373 H 0.62682 0.98044 0.40681 0.0
H1374 H 0.56808 0.93122 0.40123 0.0
H1375 H 0.6464 0.8248 0.41311 0.0
C1376 C 0.77817 0.9306 0.42366 0.0
C1377 C 0.79019 0.97368 0.42362 0.0
C1378 C 0.7596 0.00505 0.42048 0.0
C1379 C 0.7182 0.99351 0.41688 0.0
C1380 C 0.70773 0.95056 0.41671 0.0
C1381 C 0.73678 0.91971 0.42022 0.0
C1382 C 0.71791 0.87581 0.41936 0.0
C1383 C 0.74198 0.84885 0.40924 0.0
C1384 C 0.71681 0.85394 0.43287 0.0
C1385 C 0.67379 0.88663 0.41473 0.0
C1386 C 0.66836 0.92978 0.41311 0.0
C1387 C 0.63055 0.94662 0.40824 0.0
C1388 C 0.59744 0.91853 0.40506 0.0
C1389 C 0.60234 0.87431 0.40698 0.0
C1390 C 0.64114 0.85852 0.41184 0.0
H1391 H 0.94503 0.03549 0.1903 0.0
H1392 H 0.95897 0.98693 0.22989 0.0
H1393 H 0.96364 0.91401 0.22131 0.0
H1394 H 0.8826 0.95027 0.17761 0.0
H1395 H 0.90881 0.95028 0.16186 0.0
H1396 H 0.90542 0.99855 0.17112 0.0
H1397 H 0.98711 0.0066 0.16992 0.0
H1398 H 0.99115 0.95821 0.16073 0.0
H1399 H 0.02018 0.96406 0.17574 0.0
H1400 H 0.9652 0.84658 0.20849 0.0
H1401 H 0.96991 0.78945 0.19225 0.0
H1402 H 0.95894 0.88239 0.16085 0.0
C1403 C 0.94928 0.00953 0.19716 0.0
C1404 C 0.95175 0.01687 0.21077 0.0
C1405 C 0.95702 0.98202 0.21943 0.0
C1406 C 0.95964 0.94054 0.21465 0.0
C1407 C 0.95713 0.93448 0.20119 0.0
C1408 C 0.95248 0.96802 0.19255 0.0
C1409 C 0.95209 0.95299 0.1785 0.0
C1410 C 0.9097 0.96366 0.17189 0.0
C1411 C 0.98987 0.97157 0.17076 0.0
C1412 C 0.95694 0.90568 0.1806 0.0
C1413 C 0.95938 0.89568 0.19376 0.0
C1414 C 0.96348 0.85403 0.19815 0.0
C1415 C 0.96594 0.82176 0.18882 0.0
C1416 C 0.96485 0.83133 0.17524 0.0
C1417 C 0.95978 0.87392 0.17114 0.0
H1418 H 0.78877 0.15511 0.96012 0.0
H1419 H 0.77168 0.03014 0.94348 0.0
H1420 H 0.81858 0.05007 0.92495 0.0
H1421 H 0.79773 0.21289 0.92835 0.0
H1422 H 0.83829 0.24838 0.93396 0.0
H1423 H 0.79857 0.22848 0.94528 0.0
H1424 H 0.85585 0.19855 0.96064 0.0
H1425 H 0.89665 0.219 0.94992 0.0
H1426 H 0.89594 0.16347 0.95421 0.0
H1427 H 0.87167 0.0816 0.90909 0.0
H1428 H 0.93058 0.12062 0.89813 0.0
H1429 H 0.91761 0.22202 0.92624 0.0
C1430 C 0.79463 0.13202 0.95254 0.0
C1431 C 0.77721 0.09072 0.95338 0.0
C1432 C 0.7851 0.06176 0.94311 0.0
C1433 C 0.81149 0.07287 0.93251 0.0
C1434 C 0.82953 0.1132 0.93226 0.0
C1435 C 0.82139 0.14239 0.94199 0.0
C1436 C 0.84755 0.18229 0.93997 0.0
C1437 C 0.81882 0.22026 0.93672 0.0
C1438 C 0.87566 0.19132 0.95189 0.0
C1439 C 0.87369 0.16978 0.92814 0.0
C1440 C 0.86163 0.13055 0.9235 0.0
C1441 C 0.88127 0.1124 0.91262 0.0
C1442 C 0.91459 0.13465 0.90647 0.0
C1443 C 0.92853 0.17385 0.91149 0.0
C1444 C 0.90754 0.19182 0.92234 0.0
H1445 H 0.6641 0.9376 0.66854 0.0
H1446 H 0.58932 0.94474 0.7137 0.0
H1447 H 0.56496 0.03129 0.70709 0.0
H1448 H 0.69732 0.05848 0.66765 0.0
H1449 H 0.68612 0.06664 0.65055 0.0
H1450 H 0.69819 0.01423 0.65658 0.0
H1451 H 0.62702 0.98638 0.64713 0.0
H1452 H 0.61562 0.0388 0.64104 0.0
H1453 H 0.57809 0.01222 0.65168 0.0
H1454 H 0.55903 0.11007 0.69385 0.0
H1455 H 0.54887 0.17357 0.67988 0.0
H1456 H 0.61992 0.11312 0.64867 0.0
C1457 C 0.64407 0.95382 0.67554 0.0
C1458 C 0.63629 0.93432 0.69268 0.0
C1459 C 0.59671 0.95854 0.70423 0.0
C1460 C 0.58388 0.01283 0.70035 0.0
C1461 C 0.60178 0.03599 0.68524 0.0
C1462 C 0.62901 0.00789 0.67318 0.0
C1463 C 0.63439 0.03656 0.66165 0.0
C1464 C 0.6818 0.04444 0.65895 0.0
C1465 C 0.61247 0.01736 0.64968 0.0
C1466 C 0.6119 0.07715 0.66631 0.0
C1467 C 0.59453 0.07654 0.67905 0.0
C1468 C 0.57249 0.11117 0.68407 0.0
C1469 C 0.56691 0.14713 0.67608 0.0
C1470 C 0.5837 0.1484 0.66319 0.0
C1471 C 0.60681 0.11322 0.6585 0.0
H1472 H 0.80639 0.38633 0.96572 0.0
H1473 H 0.71225 0.41138 0.93576 0.0
H1474 H 0.7597 0.38052 0.9192 0.0
H1475 H 0.89532 0.41628 0.94516 0.0
H1476 H 0.93047 0.37741 0.95221 0.0
H1477 H 0.88785 0.39913 0.96189 0.0
H1478 H 0.86175 0.32371 0.96681 0.0
H1479 H 0.90207 0.30037 0.95656 0.0
H1480 H 0.84676 0.28943 0.95367 0.0
H1481 H 0.81785 0.34944 0.90566 0.0
H1482 H 0.88407 0.32245 0.89589 0.0
H1483 H 0.94203 0.31956 0.93436 0.0
C1484 C 0.79569 0.38514 0.95568 0.0
C1485 C 0.75534 0.40105 0.95216 0.0
C1486 C 0.74268 0.39918 0.93886 0.0
C1487 C 0.76948 0.38167 0.92932 0.0
C1488 C 0.80904 0.36662 0.93315 0.0
C1489 C 0.82236 0.36857 0.94598 0.0
C1490 C 0.86754 0.35274 0.94733 0.0
C1491 C 0.89703 0.38852 0.95192 0.0
C1492 C 0.86966 0.31425 0.95663 0.0
C1493 C 0.87719 0.34072 0.93328 0.0
C1494 C 0.84302 0.34915 0.92528 0.0
C1495 C 0.84478 0.3425 0.91183 0.0
C1496 C 0.88264 0.32721 0.90637 0.0
C1497 C 0.9184 0.31882 0.91434 0.0
C1498 C 0.91529 0.32538 0.928 0.0
H1499 H 0.86189 0.46057 0.18029 0.0
H1500 H 0.73337 0.50948 0.17953 0.0
H1501 H 0.76031 0.57768 0.17047 0.0
H1502 H 0.91184 0.55544 0.19055 0.0
H1503 H 0.95877 0.54743 0.18068 0.0
H1504 H 0.92862 0.5025 0.18648 0.0
H1505 H 0.92082 0.47622 0.16262 0.0
H1506 H 0.9508 0.52124 0.15674 0.0
H1507 H 0.89853 0.5111 0.15042 0.0
H1508 H 0.80275 0.6414 0.16186 0.0
H1509 H 0.85657 0.69514 0.15541 0.0
H1510 H 0.95628 0.6029 0.16233 0.0
C1511 C 0.83941 0.48569 0.17826 0.0
C1512 C 0.79564 0.48011 0.18081 0.0
C1513 C 0.76711 0.51343 0.1778 0.0
C1514 C 0.7821 0.5521 0.17262 0.0
C1515 C 0.82563 0.55669 0.1704 0.0
C1516 C 0.85378 0.5243 0.17315 0.0
C1517 C 0.89908 0.53724 0.17026 0.0
C1518 C 0.92615 0.53557 0.18274 0.0
C1519 C 0.91843 0.50982 0.15936 0.0
C1520 C 0.89224 0.58229 0.16564 0.0
C1521 C 0.84972 0.59297 0.16562 0.0
C1522 C 0.83612 0.6333 0.16182 0.0
C1523 C 0.86689 0.66357 0.15814 0.0
C1524 C 0.91069 0.65338 0.15844 0.0
C1525 C 0.92314 0.61195 0.16209 0.0
H1526 H 0.7823 0.59155 0.43284 0.0
H1527 H 0.74551 0.46361 0.42257 0.0
H1528 H 0.68004 0.49156 0.41228 0.0
H1529 H 0.67778 0.62765 0.44144 0.0
H1530 H 0.68685 0.68029 0.43502 0.0
H1531 H 0.73062 0.64967 0.4412 0.0
H1532 H 0.77014 0.65924 0.41901 0.0
H1533 H 0.72633 0.68963 0.41274 0.0
H1534 H 0.74447 0.64335 0.40411 0.0
H1535 H 0.61862 0.53524 0.40267 0.0
H1536 H 0.56565 0.58958 0.39611 0.0
H1537 H 0.64355 0.68679 0.41384 0.0
C1538 C 0.76026 0.56924 0.42861 0.0
C1539 C 0.76848 0.52525 0.42877 0.0
C1540 C 0.7393 0.49736 0.42276 0.0
C1541 C 0.70224 0.51296 0.41685 0.0
C1542 C 0.69491 0.55655 0.41702 0.0
C1543 C 0.72308 0.58415 0.42284 0.0
C1544 C 0.70788 0.62943 0.422 0.0
C1545 C 0.70032 0.64782 0.43573 0.0
C1546 C 0.73906 0.65702 0.41398 0.0
C1547 C 0.66666 0.62313 0.41482 0.0
C1548 C 0.65968 0.58107 0.41187 0.0
C1549 C 0.62367 0.56824 0.40503 0.0
C1550 C 0.59383 0.59924 0.40132 0.0
C1551 C 0.6001 0.6423 0.40463 0.0
C1552 C 0.63729 0.65407 0.41135 0.0
H1553 H 0.61651 0.51012 0.69007 0.0
H1554 H 0.73929 0.53025 0.67156 0.0
H1555 H 0.73319 0.46114 0.66051 0.0
H1556 H 0.62893 0.39567 0.6947 0.0
H1557 H 0.57482 0.38264 0.69101 0.0
H1558 H 0.58711 0.4327 0.69851 0.0
H1559 H 0.55153 0.47517 0.68009 0.0
H1560 H 0.53564 0.42619 0.67269 0.0
H1561 H 0.5655 0.46471 0.66328 0.0
H1562 H 0.71176 0.39156 0.65041 0.0
H1563 H 0.67543 0.32816 0.64168 0.0
H1564 H 0.56627 0.35469 0.66643 0.0
C1565 C 0.64241 0.49952 0.68389 0.0
C1566 C 0.6787 0.52519 0.68184 0.0
C1567 C 0.71155 0.51075 0.67343 0.0
C1568 C 0.70834 0.4716 0.6671 0.0
C1569 C 0.67201 0.44723 0.66923 0.0
C1570 C 0.63964 0.4606 0.67744 0.0
C1571 C 0.60319 0.42926 0.67763 0.0
C1572 C 0.59821 0.40892 0.69128 0.0
C1573 C 0.56153 0.45009 0.67315 0.0
C1574 C 0.61928 0.3973 0.66779 0.0
C1575 C 0.6594 0.40765 0.66325 0.0
C1576 C 0.68044 0.38296 0.65396 0.0
C1577 C 0.65968 0.34698 0.64908 0.0
C1578 C 0.61812 0.33656 0.65336 0.0
C1579 C 0.59802 0.36194 0.66293 0.0
H1580 H 0.79758 0.66337 0.05461 0.0
H1581 H 0.7615 0.55373 0.07805 0.0
H1582 H 0.81454 0.57363 0.09466 0.0
H1583 H 0.91059 0.65673 0.06171 0.0
H1584 H 0.91737 0.71347 0.06184 0.0
H1585 H 0.87717 0.69 0.05173 0.0
H1586 H 0.81925 0.73633 0.06288 0.0
H1587 H 0.85997 0.76021 0.07262 0.0
H1588 H 0.81458 0.73579 0.08048 0.0
H1589 H 0.86957 0.6082 0.10926 0.0
H1590 H 0.92148 0.65397 0.12043 0.0
H1591 H 0.9226 0.73918 0.08681 0.0
C1592 C 0.80078 0.64364 0.06327 0.0
C1593 C 0.77467 0.60768 0.06519 0.0
C1594 C 0.78045 0.58199 0.07649 0.0
C1595 C 0.81069 0.5929 0.08594 0.0
C1596 C 0.83548 0.629 0.0838 0.0
C1597 C 0.831 0.65376 0.07268 0.0
C1598 C 0.86136 0.69093 0.07265 0.0
C1599 C 0.89353 0.68756 0.06131 0.0
C1600 C 0.83729 0.7333 0.07214 0.0
C1601 C 0.8826 0.6842 0.08573 0.0
C1602 C 0.86768 0.64809 0.09197 0.0
C1603 C 0.88175 0.63632 0.10439 0.0
C1604 C 0.91134 0.66252 0.11065 0.0
C1605 C 0.92636 0.70018 0.1045 0.0
C1606 C 0.91209 0.71055 0.09179 0.0
H1607 H 0.64197 0.55041 0.30219 0.0
H1608 H 0.61513 0.45133 0.33081 0.0
H1609 H 0.61484 0.50467 0.34833 0.0
H1610 H 0.70592 0.61942 0.32524 0.0
H1611 H 0.68504 0.66736 0.31808 0.0
H1612 H 0.69292 0.62106 0.30809 0.0
H1613 H 0.61354 0.62245 0.30109 0.0
H1614 H 0.60778 0.66997 0.3105 0.0
H1615 H 0.57317 0.62579 0.31361 0.0
H1616 H 0.60879 0.56816 0.36225 0.0
H1617 H 0.58628 0.63702 0.37096 0.0
H1618 H 0.60992 0.69578 0.3331 0.0
C1619 C 0.63629 0.53973 0.31213 0.0
C1620 C 0.62749 0.4966 0.31507 0.0
C1621 C 0.62127 0.48421 0.3283 0.0
C1622 C 0.62158 0.51421 0.33833 0.0
C1623 C 0.62887 0.55655 0.33505 0.0
C1624 C 0.63584 0.56944 0.32225 0.0
C1625 C 0.63763 0.61743 0.32116 0.0
C1626 C 0.68308 0.63217 0.31796 0.0
C1627 C 0.60613 0.63481 0.311 0.0
C1628 C 0.62537 0.62934 0.33504 0.0
C1629 C 0.62334 0.59382 0.34305 0.0
C1630 C 0.61091 0.59627 0.35613 0.0
C1631 C 0.5983 0.63565 0.36102 0.0
C1632 C 0.59661 0.67172 0.3527 0.0
C1633 C 0.61158 0.66875 0.33967 0.0
H1634 H 0.73451 0.39089 0.55592 0.0
H1635 H 0.74896 0.50928 0.57671 0.0
H1636 H 0.69667 0.48465 0.59338 0.0
H1637 H 0.62332 0.37572 0.56169 0.0
H1638 H 0.62735 0.31929 0.56418 0.0
H1639 H 0.66478 0.34625 0.5536 0.0
H1640 H 0.72726 0.31686 0.56694 0.0
H1641 H 0.6912 0.2895 0.57782 0.0
H1642 H 0.72938 0.32598 0.58434 0.0
H1643 H 0.64136 0.44571 0.60783 0.0
H1644 H 0.59539 0.39347 0.61964 0.0
H1645 H 0.62117 0.30113 0.5895 0.0
C1646 C 0.72656 0.41178 0.56394 0.0
C1647 C 0.74518 0.45231 0.56489 0.0
C1648 C 0.73449 0.47834 0.57568 0.0
C1649 C 0.70481 0.46465 0.58517 0.0
C1650 C 0.68646 0.42467 0.5838 0.0
C1651 C 0.69745 0.39851 0.57351 0.0
C1652 C 0.67534 0.35613 0.57454 0.0
C1653 C 0.64597 0.34894 0.5628 0.0
C1654 C 0.70777 0.32001 0.57599 0.0
C1655 C 0.65013 0.36232 0.58701 0.0
C1656 C 0.65634 0.40216 0.59219 0.0
C1657 C 0.63627 0.41448 0.60382 0.0
C1658 C 0.61003 0.38489 0.61041 0.0
C1659 C 0.60483 0.34358 0.60539 0.0
C1660 C 0.62469 0.33259 0.5935 0.0
H1661 H 0.80463 0.46405 0.81249 0.0
H1662 H 0.76348 0.54695 0.84372 0.0
H1663 H 0.81652 0.51451 0.85851 0.0
H1664 H 0.81512 0.37393 0.83157 0.0
H1665 H 0.86116 0.35364 0.82313 0.0
H1666 H 0.82448 0.38743 0.81461 0.0
H1667 H 0.8857 0.43913 0.8085 0.0
H1668 H 0.92273 0.40526 0.81693 0.0
H1669 H 0.91858 0.4604 0.82125 0.0
H1670 H 0.87099 0.46835 0.87033 0.0
H1671 H 0.91961 0.41158 0.87806 0.0
H1672 H 0.92201 0.35895 0.83896 0.0
C1673 C 0.80765 0.47615 0.82234 0.0
C1674 C 0.78081 0.50863 0.82689 0.0
C1675 C 0.78454 0.52273 0.83997 0.0
C1676 C 0.81449 0.50446 0.84843 0.0
C1677 C 0.84026 0.47208 0.84365 0.0
C1678 C 0.83713 0.45821 0.83087 0.0
C1679 C 0.86578 0.42079 0.82834 0.0
C1680 C 0.84009 0.38165 0.82417 0.0
C1681 C 0.90024 0.43209 0.81815 0.0
C1682 C 0.88457 0.41483 0.84178 0.0
C1683 C 0.8702 0.44502 0.85047 0.0
C1684 C 0.88267 0.44476 0.86357 0.0
C1685 C 0.91023 0.41252 0.86788 0.0
C1686 C 0.92417 0.38078 0.85913 0.0
C1687 C 0.91149 0.38252 0.84592 0.0
H1688 H 0.24806 0.58216 0.0666 0.0
H1689 H 0.28196 0.71966 0.04066 0.0
H1690 H 0.22989 0.7647 0.05939 0.0
H1691 H 0.13554 0.61952 0.07371 0.0
H1692 H 0.12828 0.59911 0.0901 0.0
H1693 H 0.16805 0.57638 0.07953 0.0
H1694 H 0.225 0.5911 0.09711 0.0
H1695 H 0.18513 0.61443 0.10757 0.0
H1696 H 0.23183 0.64432 0.10307 0.0
H1697 H 0.17818 0.78275 0.07818 0.0
H1698 H 0.11662 0.79521 0.09192 0.0
H1699 H 0.11524 0.66318 0.1043 0.0
C1700 C 0.24548 0.61614 0.06537 0.0
C1701 C 0.27829 0.64729 0.05316 0.0
C1702 C 0.2657 0.70314 0.04855 0.0
C1703 C 0.2361 0.73126 0.0607 0.0
C1704 C 0.21434 0.70379 0.07453 0.0
C1705 C 0.21684 0.64902 0.07673 0.0
C1706 C 0.18507 0.63844 0.08742 0.0
C1707 C 0.1523 0.60648 0.08239 0.0
C1708 C 0.20813 0.62103 0.09951 0.0
C1709 C 0.16446 0.68202 0.09038 0.0
C1710 C 0.18178 0.71663 0.08337 0.0
C1711 C 0.16495 0.75694 0.08396 0.0
C1712 C 0.12961 0.76352 0.09181 0.0
C1713 C 0.11106 0.73018 0.09929 0.0
C1714 C 0.12917 0.68913 0.09875 0.0
H1715 H 0.15264 0.47762 0.79753 0.0
H1716 H 0.27534 0.52571 0.82732 0.0
H1717 H 0.24084 0.46925 0.84747 0.0
H1718 H 0.06997 0.46373 0.82625 0.0
H1719 H 0.04583 0.41638 0.81994 0.0
H1720 H 0.07276 0.45259 0.80898 0.0
H1721 H 0.12054 0.39076 0.80088 0.0
H1722 H 0.09347 0.35499 0.81194 0.0
H1723 H 0.15035 0.36031 0.81266 0.0
H1724 H 0.18439 0.41393 0.86133 0.0
H1725 H 0.13444 0.36246 0.87148 0.0
H1726 H 0.06532 0.35588 0.83501 0.0
C1727 C 0.17068 0.47476 0.80646 0.0
C1728 C 0.21301 0.51335 0.81091 0.0
C1729 C 0.2484 0.50543 0.82544 0.0
C1730 C 0.22544 0.47216 0.83809 0.0
C1731 C 0.17732 0.44366 0.83506 0.0
C1732 C 0.15189 0.44346 0.81994 0.0
C1733 C 0.11523 0.41377 0.821 0.0
C1734 C 0.0735 0.43806 0.81892 0.0
C1735 C 0.12021 0.37784 0.81103 0.0
C1736 C 0.11905 0.39733 0.83518 0.0
C1737 C 0.15255 0.41366 0.84269 0.0
C1738 C 0.15855 0.40106 0.85566 0.0
C1739 C 0.13012 0.37173 0.86134 0.0
C1740 C 0.09611 0.35504 0.85402 0.0
C1741 C 0.09115 0.36796 0.84085 0.0
H1742 H 0.30567 0.37115 0.54508 0.0
H1743 H 0.25708 0.48729 0.56204 0.0
H1744 H 0.30693 0.47924 0.58044 0.0
H1745 H 0.31576 0.31518 0.5736 0.0
H1746 H 0.36452 0.28818 0.56954 0.0
H1747 H 0.32937 0.30516 0.55674 0.0
H1748 H 0.38936 0.34864 0.54568 0.0
H1749 H 0.42557 0.33127 0.5582 0.0
H1750 H 0.41827 0.38709 0.55507 0.0
H1751 H 0.35661 0.45515 0.59788 0.0
H1752 H 0.40094 0.41545 0.61354 0.0
H1753 H 0.41928 0.31636 0.58481 0.0
C1754 C 0.3063 0.3957 0.5524 0.0
C1755 C 0.27833 0.43078 0.55186 0.0
C1756 C 0.27902 0.46087 0.56207 0.0
C1757 C 0.30728 0.45663 0.57253 0.0
C1758 C 0.33489 0.42216 0.57263 0.0
C1759 C 0.33482 0.39234 0.56279 0.0
C1760 C 0.36559 0.35665 0.56571 0.0
C1761 C 0.34244 0.31374 0.56644 0.0
C1762 C 0.40185 0.35589 0.55556 0.0
C1763 C 0.38155 0.37009 0.57899 0.0
C1764 C 0.3639 0.4083 0.58271 0.0
C1765 C 0.37123 0.4256 0.59499 0.0
C1766 C 0.3964 0.40277 0.60382 0.0
C1767 C 0.41393 0.36302 0.60036 0.0
C1768 C 0.40722 0.34713 0.58764 0.0
H1769 H 0.48449 0.49429 0.30709 0.0
H1770 H 0.36253 0.53309 0.29181 0.0
H1771 H 0.34864 0.57388 0.31187 0.0
H1772 H 0.45519 0.4949 0.34367 0.0
H1773 H 0.50625 0.5173 0.34754 0.0
H1774 H 0.50124 0.48154 0.33395 0.0
H1775 H 0.53563 0.53782 0.31896 0.0
H1776 H 0.53883 0.57542 0.33203 0.0
H1777 H 0.51074 0.589 0.31727 0.0
H1778 H 0.35481 0.62256 0.33046 0.0
H1779 H 0.38089 0.67571 0.34609 0.0
H1780 H 0.49874 0.60626 0.34987 0.0
C1781 C 0.45414 0.50995 0.30827 0.0
C1782 C 0.42438 0.51028 0.29799 0.0
C1783 C 0.38555 0.53214 0.29963 0.0
C1784 C 0.37729 0.55518 0.31103 0.0
C1785 C 0.40806 0.55581 0.32077 0.0
C1786 C 0.44558 0.53333 0.31958 0.0
C1787 C 0.4765 0.54526 0.33024 0.0
C1788 C 0.48528 0.50748 0.3394 0.0
C1789 C 0.51792 0.56289 0.32427 0.0
C1790 C 0.45147 0.57952 0.33718 0.0
C1791 C 0.41168 0.58446 0.33172 0.0
C1792 C 0.38524 0.61813 0.33511 0.0
C1793 C 0.40031 0.64824 0.34396 0.0
C1794 C 0.44134 0.64441 0.34935 0.0
C1795 C 0.46657 0.60885 0.34627 0.0
H1796 H 0.22946 0.44173 0.95763 0.0
H1797 H 0.27116 0.53044 0.92757 0.0
H1798 H 0.21601 0.50301 0.91265 0.0
H1799 H 0.20959 0.35507 0.93667 0.0
H1800 H 0.16365 0.33697 0.94574 0.0
H1801 H 0.20509 0.3653 0.95396 0.0
H1802 H 0.14977 0.42001 0.96219 0.0
H1803 H 0.10821 0.39206 0.95384 0.0
H1804 H 0.11698 0.4476 0.95052 0.0
H1805 H 0.15689 0.46306 0.90073 0.0
H1806 H 0.1029 0.41197 0.89281 0.0
H1807 H 0.10108 0.35121 0.93103 0.0
C1808 C 0.22706 0.45528 0.9479 0.0
C1809 C 0.25499 0.48771 0.94367 0.0
C1810 C 0.25041 0.50514 0.93092 0.0
C1811 C 0.21905 0.48996 0.92243 0.0
C1812 C 0.19218 0.45769 0.92689 0.0
C1813 C 0.19602 0.44061 0.93934 0.0
C1814 C 0.16435 0.40536 0.94172 0.0
C1815 C 0.18704 0.36319 0.94469 0.0
C1816 C 0.13297 0.41697 0.95272 0.0
C1817 C 0.14267 0.40453 0.92857 0.0
C1818 C 0.15858 0.4352 0.92015 0.0
C1819 C 0.144 0.43916 0.9073 0.0
C1820 C 0.11317 0.41026 0.9029 0.0
C1821 C 0.09787 0.37774 0.91131 0.0
C1822 C 0.11224 0.37573 0.92436 0.0
H1823 H 0.37757 0.50955 0.7082 0.0
H1824 H 0.47752 0.47572 0.73536 0.0
H1825 H 0.50111 0.41907 0.72048 0.0
H1826 H 0.35046 0.40695 0.69798 0.0
H1827 H 0.34281 0.42127 0.68105 0.0
H1828 H 0.33463 0.46011 0.69363 0.0
H1829 H 0.38905 0.51034 0.68226 0.0
H1830 H 0.39702 0.47175 0.66957 0.0
H1831 H 0.44174 0.4912 0.67865 0.0
H1832 H 0.5093 0.36169 0.70352 0.0
H1833 H 0.50841 0.31468 0.68432 0.0
H1834 H 0.40517 0.38864 0.66785 0.0
C1835 C 0.40442 0.49019 0.71102 0.0
C1836 C 0.42441 0.49593 0.72322 0.0
C1837 C 0.46048 0.47099 0.72633 0.0
C1838 C 0.47432 0.43881 0.7179 0.0
C1839 C 0.45258 0.43283 0.70623 0.0
C1840 C 0.419 0.45844 0.70266 0.0
C1841 C 0.40151 0.44599 0.68948 0.0
C1842 C 0.35458 0.43279 0.69061 0.0
C1843 C 0.40771 0.48196 0.6794 0.0
C1844 C 0.42964 0.4085 0.68638 0.0
C1845 C 0.45887 0.40136 0.69615 0.0
C1846 C 0.48707 0.36743 0.69568 0.0
C1847 C 0.48606 0.34069 0.68477 0.0
C1848 C 0.45678 0.34787 0.67451 0.0
C1849 C 0.42819 0.38227 0.67544 0.0
H1850 H 0.29357 0.57724 0.44947 0.0
H1851 H 0.21121 0.56184 0.41595 0.0
H1852 H 0.25807 0.60874 0.40288 0.0
H1853 H 0.32322 0.68625 0.44333 0.0
H1854 H 0.37814 0.68012 0.44782 0.0
H1855 H 0.33788 0.64738 0.45544 0.0
H1856 H 0.3752 0.57877 0.44845 0.0
H1857 H 0.41749 0.60995 0.44136 0.0
H1858 H 0.39004 0.57157 0.43153 0.0
H1859 H 0.31611 0.65199 0.39295 0.0
H1860 H 0.38214 0.68856 0.38659 0.0
H1861 H 0.42859 0.67489 0.42635 0.0
C1862 C 0.28536 0.5837 0.43938 0.0
C1863 C 0.24908 0.56513 0.43365 0.0
C1864 C 0.23908 0.57521 0.42049 0.0
C1865 C 0.26541 0.60194 0.41301 0.0
C1866 C 0.30157 0.61856 0.41883 0.0
C1867 C 0.31165 0.60986 0.43171 0.0
C1868 C 0.35384 0.62964 0.43532 0.0
C1869 C 0.34794 0.66285 0.44611 0.0
C1870 C 0.38604 0.59544 0.4394 0.0
C1871 C 0.36624 0.65016 0.42237 0.0
C1872 C 0.33537 0.64367 0.41305 0.0
C1873 C 0.34037 0.65761 0.40018 0.0
C1874 C 0.37817 0.67823 0.39666 0.0
C1875 C 0.41078 0.68457 0.40595 0.0
C1876 C 0.40428 0.67081 0.41903 0.0
H1877 H 0.24577 0.52821 0.19001 0.0
H1878 H 0.29939 0.48595 0.15316 0.0
H1879 H 0.26579 0.54701 0.14181 0.0
H1880 H 0.14635 0.55661 0.17758 0.0
H1881 H 0.13969 0.60143 0.18823 0.0
H1882 H 0.1718 0.55729 0.19332 0.0
H1883 H 0.23519 0.60827 0.19704 0.0
H1884 H 0.2033 0.65257 0.19181 0.0
H1885 H 0.25333 0.64202 0.18381 0.0
H1886 H 0.22159 0.61128 0.1344 0.0
H1887 H 0.16766 0.66813 0.13166 0.0
H1888 H 0.14286 0.66492 0.17343 0.0
C1889 C 0.25056 0.53178 0.17955 0.0
C1890 C 0.27452 0.50193 0.17241 0.0
C1891 C 0.28059 0.50819 0.15877 0.0
C1892 C 0.26188 0.54287 0.15227 0.0
C1893 C 0.23758 0.5712 0.1596 0.0
C1894 C 0.2319 0.56579 0.17295 0.0
C1895 C 0.20199 0.59845 0.17854 0.0
C1896 C 0.16264 0.57717 0.18478 0.0
C1897 C 0.22483 0.62702 0.18838 0.0
C1898 C 0.19083 0.62263 0.16623 0.0
C1899 C 0.21212 0.60718 0.15539 0.0
C1900 C 0.20512 0.62384 0.14286 0.0
C1901 C 0.17472 0.65623 0.14138 0.0
C1902 C 0.15145 0.6708 0.15235 0.0
C1903 C 0.16046 0.6544 0.1649 0.0
loop_
_geom_bond_atom_site_label_1
_geom_bond_atom_site_label_2
_geom_bond_distance
_geom_bond_site_symmetry_2
_ccdc_geom_bond_type
C0 C1 1.560 . S
C0 H61 0.959 . S
C0 H62 0.959 . S
C0 H63 0.960 . S
C1 C0 1.560 . S
C1 O56 1.426 . S
C1 H60 0.980 . S
C2 C3 1.407 . S
C2 C7 1.418 . S
C2 O56 1.334 . S
C3 C2 1.407 . S
C3 C4 1.360 . S
C3 H64 0.929 . S
C4 C3 1.360 . S
C4 C5 1.401 . S
C4 C8 1.527 . S
C5 C4 1.401 . S
C5 C6 1.405 . S
C5 C38 1.587 . S
C6 C5 1.405 . S
C6 C7 1.332 . S
C6 C9 1.496 1_565 S
C7 C2 1.418 . S
C7 C6 1.332 . S
C7 H65 0.929 1_565 S
C8 C4 1.527 . S
C8 H66 0.959 . S
C8 H67 0.961 . S
C8 H68 0.961 . S
C9 C6 1.496 1_545 S
C9 H69 0.960 . S
C9 H70 0.960 . S
C9 H71 0.961 . S
C10 C11 1.517 . S
C10 H73 0.961 . S
C10 H74 0.960 . S
C10 H75 0.959 . S
C11 C10 1.517 . S
C11 O59 1.468 . S
C11 H72 0.980 . S
C12 C13 1.349 . S
C12 C17 1.367 . S
C12 O59 1.408 . S
C13 C12 1.349 . S
C13 C14 1.407 . S
C13 H76 0.930 . S
C14 C13 1.407 . S
C14 C15 1.449 . S
C14 C18 1.535 . S
C15 C14 1.449 . S
C15 C16 1.384 . S
C15 C40 1.553 . S
C16 C15 1.384 . S
C16 C17 1.364 . S
C16 C19 1.450 . S
C17 C12 1.367 . S
C17 C16 1.364 . S
C17 H77 0.931 . S
C18 C14 1.535 . S
C18 H78 0.959 . S
C18 H79 0.961 . S
C18 H80 0.959 1_565 S
C19 C16 1.450 . S
C19 H81 0.960 . S
C19 H82 0.960 . S
C19 H83 0.960 . S
C20 C21 1.309 . S
C20 C25 1.304 . S
C20 O58 1.435 . S
C21 C20 1.309 . S
C21 C22 1.476 . S
C21 H85 0.930 . S
C22 C21 1.476 . S
C22 C23 1.400 . S
C22 C26 1.567 . S
C23 C22 1.400 . S
C23 C24 1.373 . S
C23 C45 1.432 . S
C24 C23 1.373 . S
C24 C25 1.339 . S
C24 C27 1.530 1_545 S
C25 C20 1.304 . S
C25 C24 1.339 . S
C25 H86 0.930 . S
C26 C22 1.567 . S
C26 H87 0.961 . S
C26 H88 0.960 . S
C26 H89 0.958 . S
C27 C24 1.530 1_565 S
C27 H90 0.961 . S
C27 H91 0.960 . S
C27 H92 0.960 . S
C28 C29 1.530 . S
C28 H94 0.961 . S
C28 H95 0.961 . S
C28 H96 0.959 . S
C29 C28 1.530 . S
C29 O57 1.412 . S
C29 H93 0.980 . S
C30 C31 1.288 . S
C30 C35 1.377 . S
C30 O57 1.393 . S
C31 C30 1.288 . S
C31 C32 1.369 . S
C31 H97 0.932 . S
C32 C31 1.369 . S
C32 C33 1.398 . S
C32 C36 1.527 . S
C33 C32 1.398 . S
C33 C34 1.380 . S
C33 C47 1.497 . S
C34 C33 1.380 . S
C34 C35 1.383 . S
C34 C37 1.603 . S
C35 C30 1.377 . S
C35 C34 1.383 . S
C35 H98 0.929 . S
C36 C32 1.527 . S
C36 H99 0.961 . S
C36 H100 0.959 . S
C36 H101 0.959 . S
C37 C34 1.603 . S
C37 H102 0.960 . S
C37 H103 0.960 1_545 S
C37 H104 0.961 1_545 S
C38 C5 1.587 . S
C38 C39 1.360 1_655 S
C38 C51 1.412 . S
C39 C38 1.360 1_455 S
C39 C40 1.365 . S
C39 H105 0.929 . S
C40 C15 1.553 . S
C40 C39 1.365 . S
C40 C41 1.404 . S
C41 C40 1.404 . S
C41 C42 1.395 . S
C41 C52 1.451 . S
C42 C41 1.395 . S
C42 C43 1.322 . S
C42 H106 0.930 . S
C43 C42 1.322 . S
C43 C44 1.459 1_565 S
C43 H107 0.929 . S
C44 C43 1.459 1_545 S
C44 C45 1.445 . S
C44 C53 1.395 . S
C45 C23 1.432 . S
C45 C44 1.445 . S
C45 C46 1.370 . S
C46 C45 1.370 . S
C46 C47 1.438 1_455 S
C46 H108 0.930 . S
C47 C33 1.497 . S
C47 C46 1.438 1_655 S
C47 C48 1.360 . S
C48 C47 1.360 . S
C48 C49 1.401 . S
C48 C53 1.446 1_655 S
C49 C48 1.401 . S
C49 C50 1.347 1_545 S
C49 H109 0.929 . S
C50 C49 1.347 1_565 S
C50 C51 1.455 . S
C50 H110 0.930 . S
C51 C38 1.412 . S
C51 C50 1.455 . S
C51 C52 1.331 1_655 S
C52 C41 1.451 . S
C52 C51 1.331 1_455 S
C52 C53 1.497 1_565 S
C53 C44 1.395 . S
C53 C48 1.446 1_455 S
C53 C52 1.497 1_545 S
C54 C55 1.582 . S
C54 H111 0.962 . S
C54 H112 0.959 . S
C54 H113 0.958 . S
C55 C54 1.582 . S
C55 O58 1.458 . S
C55 H84 0.980 . S
O56 C1 1.426 . S
O56 C2 1.334 . S
O57 C29 1.412 . S
O57 C30 1.393 . S
O58 C20 1.435 . S
O58 C55 1.458 . S
O59 C11 1.468 . S
O59 C12 1.408 . S
H60 C1 0.980 . S
H61 C0 0.959 . S
H62 C0 0.959 . S
H63 C0 0.960 . S
H64 C3 0.929 . S
H65 C7 0.929 1_545 S
H66 C8 0.959 . S
H67 C8 0.961 . S
H68 C8 0.961 . S
H69 C9 0.960 . S
H70 C9 0.960 . S
H71 C9 0.961 . S
H72 C11 0.980 . S
H73 C10 0.961 . S
H74 C10 0.960 . S
H75 C10 0.959 . S
H76 C13 0.930 . S
H77 C17 0.931 . S
H78 C18 0.959 . S
H79 C18 0.961 . S
H80 C18 0.959 1_545 S
H81 C19 0.960 . S
H82 C19 0.960 . S
H83 C19 0.960 . S
H84 C55 0.980 . S
H85 C21 0.930 . S
H86 C25 0.930 . S
H87 C26 0.961 . S
H88 C26 0.960 . S
H89 C26 0.958 . S
H90 C27 0.961 . S
H91 C27 0.960 . S
H92 C27 0.960 . S
H93 C29 0.980 . S
H94 C28 0.961 . S
H95 C28 0.961 . S
H96 C28 0.959 . S
H97 C31 0.932 . S
H98 C35 0.929 . S
H99 C36 0.961 . S
H100 C36 0.959 . S
H101 C36 0.959 . S
H102 C37 0.960 . S
H103 C37 0.960 1_565 S
H104 C37 0.961 1_565 S
H105 C39 0.929 . S
H106 C42 0.930 . S
H107 C43 0.929 . S
H108 C46 0.930 . S
H109 C49 0.929 . S
H110 C50 0.930 . S
H111 C54 0.962 . S
H112 C54 0.959 . S
H113 C54 0.958 . S
C114 C115 1.560 . S
C114 H175 0.959 . S
C114 H176 0.959 . S
C114 H177 0.960 . S
C115 C114 1.560 . S
C115 O170 1.426 . S
C115 H174 0.980 . S
C116 C117 1.407 . S
C116 C121 1.418 . S
C116 O170 1.334 . S
C117 C116 1.407 . S
C117 C118 1.360 . S
C117 H178 0.929 . S
C118 C117 1.360 . S
C118 C119 1.401 . S
C118 C122 1.527 . S
C119 C118 1.401 . S
C119 C120 1.405 . S
C119 C152 1.587 . S
C120 C119 1.405 . S
C120 C121 1.332 . S
C120 C123 1.496 . S
C121 C116 1.418 . S
C121 C120 1.332 . S
C121 H179 0.929 . S
C122 C118 1.527 . S
C122 H180 0.959 . S
C122 H181 0.961 . S
C122 H182 0.961 . S
C123 C120 1.496 . S
C123 H183 0.960 . S
C123 H184 0.960 . S
C123 H185 0.961 . S
C124 C125 1.517 . S
C124 H187 0.961 . S
C124 H188 0.960 . S
C124 H189 0.959 . S
C125 C124 1.517 . S
C125 O173 1.468 . S
C125 H186 0.980 . S
C126 C127 1.349 . S
C126 C131 1.367 . S
C126 O173 1.408 . S
C127 C126 1.349 . S
C127 C128 1.407 . S
C127 H190 0.930 . S
C128 C127 1.407 . S
C128 C129 1.449 . S
C128 C132 1.535 . S
C129 C128 1.449 . S
C129 C130 1.384 . S
C129 C154 1.553 . S
C130 C129 1.384 . S
C130 C131 1.364 . S
C130 C133 1.450 . S
C131 C126 1.367 . S
C131 C130 1.364 . S
C131 H191 0.931 . S
C132 C128 1.535 . S
C132 H192 0.959 . S
C132 H193 0.961 . S
C132 H194 0.959 . S
C133 C130 1.450 . S
C133 H195 0.960 . S
C133 H196 0.960 . S
C133 H197 0.960 . S
C134 C135 1.309 . S
C134 C139 1.304 . S
C134 O172 1.435 . S
C135 C134 1.309 . S
C135 C136 1.476 . S
C135 H199 0.930 . S
C136 C135 1.476 . S
C136 C137 1.400 . S
C136 C140 1.567 . S
C137 C136 1.400 . S
C137 C138 1.373 . S
C137 C159 1.432 . S
C138 C137 1.373 . S
C138 C139 1.339 . S
C138 C141 1.530 . S
C139 C134 1.304 . S
C139 C138 1.339 . S
C139 H200 0.930 . S
C140 C136 1.567 . S
C140 H201 0.961 . S
C140 H202 0.960 . S
C140 H203 0.958 . S
C141 C138 1.530 . S
C141 H204 0.961 . S
C141 H205 0.960 . S
C141 H206 0.960 . S
C142 C143 1.530 1_545 S
C142 H208 0.961 . S
C142 H209 0.961 . S
C142 H210 0.959 1_545 S
C143 C142 1.530 1_565 S
C143 O171 1.412 . S
C143 H207 0.980 . S
C144 C145 1.288 . S
C144 C149 1.377 . S
C144 O171 1.393 . S
C145 C144 1.288 . S
C145 C146 1.369 . S
C145 H211 0.932 . S
C146 C145 1.369 . S
C146 C147 1.398 . S
C146 C150 1.527 . S
C147 C146 1.398 . S
C147 C148 1.380 . S
C147 C161 1.497 . S
C148 C147 1.380 . S
C148 C149 1.383 . S
C148 C151 1.603 . S
C149 C144 1.377 . S
C149 C148 1.383 . S
C149 H212 0.929 . S
C150 C146 1.527 . S
C150 H213 0.961 . S
C150 H214 0.959 . S
C150 H215 0.959 . S
C151 C148 1.603 . S
C151 H216 0.960 . S
C151 H217 0.962 . S
C151 H218 0.961 . S
C152 C119 1.587 . S
C152 C153 1.360 . S
C152 C165 1.412 . S
C153 C152 1.360 . S
C153 C154 1.365 . S
C153 H219 0.929 . S
C154 C129 1.553 . S
C154 C153 1.365 . S
C154 C155 1.404 . S
C155 C154 1.404 . S
C155 C156 1.395 . S
C155 C166 1.451 . S
C156 C155 1.395 . S
C156 C157 1.322 . S
C156 H220 0.930 . S
C157 C156 1.322 . S
C157 C158 1.459 . S
C157 H221 0.929 . S
C158 C157 1.459 . S
C158 C159 1.445 . S
C158 C167 1.395 . S
C159 C137 1.432 . S
C159 C158 1.445 . S
C159 C160 1.370 . S
C160 C159 1.370 . S
C160 C161 1.438 . S
C160 H222 0.930 . S
C161 C147 1.497 . S
C161 C160 1.438 . S
C161 C162 1.360 . S
C162 C161 1.360 . S
C162 C163 1.401 . S
C162 C167 1.446 . S
C163 C162 1.401 . S
C163 C164 1.347 . S
C163 H223 0.929 . S
C164 C163 1.347 . S
C164 C165 1.455 . S
C164 H224 0.930 . S
C165 C152 1.412 . S
C165 C164 1.455 . S
C165 C166 1.331 . S
C166 C155 1.451 . S
C166 C165 1.331 . S
C166 C167 1.497 . S
C167 C158 1.395 . S
C167 C162 1.446 . S
C167 C166 1.497 . S
C168 C169 1.582 . S
C168 H225 0.962 . S
C168 H226 0.959 . S
C168 H227 0.958 . S
C169 C168 1.582 . S
C169 O172 1.458 . S
C169 H198 0.980 . S
O170 C115 1.426 . S
O170 C116 1.334 . S
O171 C143 1.412 . S
O171 C144 1.393 . S
O172 C134 1.435 . S
O172 C169 1.458 . S
O173 C125 1.468 . S
O173 C126 1.408 . S
H174 C115 0.980 . S
H175 C114 0.959 . S
H176 C114 0.959 . S
H177 C114 0.960 . S
H178 C117 0.929 . S
H179 C121 0.929 . S
H180 C122 0.959 . S
H181 C122 0.961 . S
H182 C122 0.961 . S
H183 C123 0.960 . S
H184 C123 0.960 . S
H185 C123 0.961 . S
H186 C125 0.980 . S
H187 C124 0.961 . S
H188 C124 0.960 . S
H189 C124 0.959 . S
H190 C127 0.930 . S
H191 C131 0.931 . S
H192 C132 0.959 . S
H193 C132 0.961 . S
H194 C132 0.959 . S
H195 C133 0.960 . S
H196 C133 0.960 . S
H197 C133 0.960 . S
H198 C169 0.980 . S
H199 C135 0.930 . S
H200 C139 0.930 . S
H201 C140 0.961 . S
H202 C140 0.960 . S
H203 C140 0.958 . S
H204 C141 0.961 . S
H205 C141 0.960 . S
H206 C141 0.960 . S
H207 C143 0.980 . S
H208 C142 0.961 . S
H209 C142 0.961 . S
H210 C142 0.959 1_565 S
H211 C145 0.932 . S
H212 C149 0.929 . S
H213 C150 0.961 . S
H214 C150 0.959 . S
H215 C150 0.959 . S
H216 C151 0.960 . S
H217 C151 0.962 . S
H218 C151 0.961 . S
H219 C153 0.929 . S
H220 C156 0.930 . S
H221 C157 0.929 . S
H222 C160 0.930 . S
H223 C163 0.929 . S
H224 C164 0.930 . S
H225 C168 0.962 . S
H226 C168 0.959 . S
H227 C168 0.958 . S
C228 C229 1.560 . S
C228 H289 0.959 . S
C228 H290 0.959 . S
C228 H291 0.960 . S
C229 C228 1.560 . S
C229 O284 1.426 . S
C229 H288 0.980 . S
C230 C231 1.407 . S
C230 C235 1.418 . S
C230 O284 1.334 . S
C231 C230 1.407 . S
C231 C232 1.360 . S
C231 H292 0.929 . S
C232 C231 1.360 . S
C232 C233 1.401 . S
C232 C236 1.527 . S
C233 C232 1.401 . S
C233 C234 1.405 . S
C233 C266 1.587 . S
C234 C233 1.405 . S
C234 C235 1.332 . S
C234 C237 1.496 1_565 S
C235 C230 1.418 . S
C235 C234 1.332 . S
C235 H293 0.929 . S
C236 C232 1.527 . S
C236 H294 0.959 . S
C236 H295 0.961 . S
C236 H296 0.961 . S
C237 C234 1.496 1_545 S
C237 H297 0.960 . S
C237 H298 0.960 1_545 S
C237 H299 0.961 . S
C238 C239 1.517 . S
C238 H301 0.961 . S
C238 H302 0.960 . S
C238 H303 0.959 . S
C239 C238 1.517 . S
C239 O287 1.468 . S
C239 H300 0.980 . S
C240 C241 1.349 . S
C240 C245 1.367 . S
C240 O287 1.408 . S
C241 C240 1.349 . S
C241 C242 1.407 . S
C241 H304 0.930 . S
C242 C241 1.407 . S
C242 C243 1.449 . S
C242 C246 1.535 . S
C243 C242 1.449 . S
C243 C244 1.384 . S
C243 C268 1.553 . S
C244 C243 1.384 . S
C244 C245 1.364 . S
C244 C247 1.450 . S
C245 C240 1.367 . S
C245 C244 1.364 . S
C245 H305 0.931 . S
C246 C242 1.535 . S
C246 H306 0.959 . S
C246 H307 0.961 . S
C246 H308 0.959 . S
C247 C244 1.450 . S
C247 H309 0.960 . S
C247 H310 0.960 . S
C247 H311 0.960 . S
C248 C249 1.309 . S
C248 C253 1.304 . S
C248 O286 1.435 . S
C249 C248 1.309 . S
C249 C250 1.476 . S
C249 H313 0.930 . S
C250 C249 1.476 . S
C250 C251 1.400 . S
C250 C254 1.567 . S
C251 C250 1.400 . S
C251 C252 1.373 . S
C251 C273 1.432 . S
C252 C251 1.373 . S
C252 C253 1.339 . S
C252 C255 1.530 1_545 S
C253 C248 1.304 . S
C253 C252 1.339 . S
C253 H314 0.930 1_545 S
C254 C250 1.567 . S
C254 H315 0.961 . S
C254 H316 0.960 . S
C254 H317 0.958 . S
C255 C252 1.530 1_565 S
C255 H318 0.961 . S
C255 H319 0.960 . S
C255 H320 0.960 . S
C256 C257 1.530 . S
C256 H322 0.961 . S
C256 H323 0.961 . S
C256 H324 0.959 . S
C257 C256 1.530 . S
C257 O285 1.412 . S
C257 H321 0.980 . S
C258 C259 1.288 . S
C258 C263 1.377 . S
C258 O285 1.393 . S
C259 C258 1.288 . S
C259 C260 1.369 . S
C259 H325 0.932 . S
C260 C259 1.369 . S
C260 C261 1.398 . S
C260 C264 1.527 . S
C261 C260 1.398 . S
C261 C262 1.380 . S
C261 C275 1.497 . S
C262 C261 1.380 . S
C262 C263 1.383 . S
C262 C265 1.603 1_545 S
C263 C258 1.377 . S
C263 C262 1.383 . S
C263 H326 0.929 . S
C264 C260 1.527 . S
C264 H327 0.961 . S
C264 H328 0.959 . S
C264 H329 0.959 . S
C265 C262 1.603 1_565 S
C265 H330 0.960 . S
C265 H331 0.962 . S
C265 H332 0.961 . S
C266 C233 1.587 . S
C266 C267 1.360 . S
C266 C279 1.412 . S
C267 C266 1.360 . S
C267 C268 1.365 . S
C267 H333 0.929 . S
C268 C243 1.553 . S
C268 C267 1.365 . S
C268 C269 1.404 . S
C269 C268 1.404 . S
C269 C270 1.395 . S
C269 C280 1.451 . S
C270 C269 1.395 . S
C270 C271 1.322 1_554 S
C270 H334 0.930 . S
C271 C270 1.322 1_556 S
C271 C272 1.459 . S
C271 H335 0.929 . S
C272 C271 1.459 . S
C272 C273 1.445 1_565 S
C272 C281 1.395 . S
C273 C251 1.432 . S
C273 C272 1.445 1_545 S
C273 C274 1.370 . S
C274 C273 1.370 . S
C274 C275 1.438 . S
C274 H336 0.930 . S
C275 C261 1.497 . S
C275 C274 1.438 . S
C275 C276 1.360 . S
C276 C275 1.360 . S
C276 C277 1.423 . S
C276 C281 1.446 1_545 S
C277 C276 1.423 . S
C277 C278 1.312 1_546 S
C277 H337 0.944 . S
C278 C277 1.312 1_564 S
C278 C279 1.455 . S
C278 H338 0.930 . S
C279 C266 1.412 . S
C279 C278 1.455 . S
C279 C280 1.331 . S
C280 C269 1.451 . S
C280 C279 1.331 . S
C280 C281 1.497 1_554 S
C281 C272 1.395 . S
C281 C276 1.446 1_565 S
C281 C280 1.497 1_556 S
C282 C283 1.582 . S
C282 H339 0.962 . S
C282 H340 0.959 . S
C282 H341 0.958 . S
C283 C282 1.582 . S
C283 O286 1.458 . S
C283 H312 0.980 . S
O284 C229 1.426 . S
O284 C230 1.334 . S
O285 C257 1.412 . S
O285 C258 1.393 . S
O286 C248 1.435 . S
O286 C283 1.458 . S
O287 C239 1.468 . S
O287 C240 1.408 . S
H288 C229 0.980 . S
H289 C228 0.959 . S
H290 C228 0.959 . S
H291 C228 0.960 . S
H292 C231 0.929 . S
H293 C235 0.929 . S
H294 C236 0.959 . S
H295 C236 0.961 . S
H296 C236 0.961 . S
H297 C237 0.960 . S
H298 C237 0.960 1_565 S
H299 C237 0.961 . S
H300 C239 0.980 . S
H301 C238 0.961 . S
H302 C238 0.960 . S
H303 C238 0.959 . S
H304 C241 0.930 . S
H305 C245 0.931 . S
H306 C246 0.959 . S
H307 C246 0.961 . S
H308 C246 0.959 . S
H309 C247 0.960 . S
H310 C247 0.960 . S
H311 C247 0.960 . S
H312 C283 0.980 . S
H313 C249 0.930 . S
H314 C253 0.930 1_565 S
H315 C254 0.961 . S
H316 C254 0.960 . S
H317 C254 0.958 . S
H318 C255 0.961 . S
H319 C255 0.960 . S
H320 C255 0.960 . S
H321 C257 0.980 . S
H322 C256 0.961 . S
H323 C256 0.961 . S
H324 C256 0.959 . S
H325 C259 0.932 . S
H326 C263 0.929 . S
H327 C264 0.961 . S
H328 C264 0.959 . S
H329 C264 0.959 . S
H330 C265 0.960 . S
H331 C265 0.962 . S
H332 C265 0.961 . S
H333 C267 0.929 . S
H334 C270 0.930 . S
H335 C271 0.929 . S
H336 C274 0.930 . S
H337 C277 0.944 . S
H338 C278 0.930 . S
H339 C282 0.962 . S
H340 C282 0.959 . S
H341 C282 0.958 . S
C342 C343 1.560 . S
C342 H403 0.959 . S
C342 H404 0.959 . S
C342 H405 0.960 . S
C343 C342 1.560 . S
C343 O398 1.426 . S
C343 H402 0.980 . S
C344 C345 1.407 . S
C344 C349 1.418 . S
C344 O398 1.334 . S
C345 C344 1.407 . S
C345 C346 1.360 . S
C345 H406 0.929 . S
C346 C345 1.360 . S
C346 C347 1.401 . S
C346 C350 1.527 . S
C347 C346 1.401 . S
C347 C348 1.405 . S
C347 C380 1.587 . S
C348 C347 1.405 . S
C348 C349 1.332 . S
C348 C351 1.496 . S
C349 C344 1.418 . S
C349 C348 1.332 . S
C349 H407 0.929 . S
C350 C346 1.527 . S
C350 H408 0.959 . S
C350 H409 0.961 . S
C350 H410 0.961 . S
C351 C348 1.496 . S
C351 H411 0.960 . S
C351 H412 0.960 . S
C351 H413 0.961 . S
C352 C353 1.517 . S
C352 H415 0.961 . S
C352 H416 0.960 . S
C352 H417 0.959 . S
C353 C352 1.517 . S
C353 O401 1.468 . S
C353 H414 0.980 . S
C354 C355 1.349 . S
C354 C359 1.367 . S
C354 O401 1.408 . S
C355 C354 1.349 . S
C355 C356 1.407 . S
C355 H418 0.930 . S
C356 C355 1.407 . S
C356 C357 1.449 . S
C356 C360 1.535 . S
C357 C356 1.449 . S
C357 C358 1.384 . S
C357 C382 1.553 . S
C358 C357 1.384 . S
C358 C359 1.364 . S
C358 C361 1.450 . S
C359 C354 1.367 . S
C359 C358 1.364 . S
C359 H419 0.931 . S
C360 C356 1.535 . S
C360 H420 0.959 . S
C360 H421 0.961 . S
C360 H422 0.959 . S
C361 C358 1.450 . S
C361 H423 0.960 . S
C361 H424 0.960 . S
C361 H425 0.960 . S
C362 C363 1.309 . S
C362 C367 1.304 . S
C362 O400 1.435 . S
C363 C362 1.309 . S
C363 C364 1.476 . S
C363 H427 0.930 . S
C364 C363 1.476 . S
C364 C365 1.400 . S
C364 C368 1.567 . S
C365 C364 1.400 . S
C365 C366 1.373 . S
C365 C387 1.432 . S
C366 C365 1.373 . S
C366 C367 1.339 . S
C366 C369 1.530 . S
C367 C362 1.304 . S
C367 C366 1.339 . S
C367 H428 0.930 . S
C368 C364 1.567 . S
C368 H429 0.961 . S
C368 H430 0.960 . S
C368 H431 0.958 . S
C369 C366 1.530 . S
C369 H432 0.961 . S
C369 H433 0.960 . S
C369 H434 0.960 . S
C370 C371 1.530 . S
C370 H436 0.961 1_545 S
C370 H437 0.961 . S
C370 H438 0.959 . S
C371 C370 1.530 . S
C371 O399 1.412 . S
C371 H435 0.980 . S
C372 C373 1.288 . S
C372 C377 1.377 . S
C372 O399 1.393 . S
C373 C372 1.288 . S
C373 C374 1.369 . S
C373 H439 0.932 . S
C374 C373 1.369 . S
C374 C375 1.398 . S
C374 C378 1.527 . S
C375 C374 1.398 . S
C375 C376 1.380 . S
C375 C389 1.497 . S
C376 C375 1.380 . S
C376 C377 1.383 . S
C376 C379 1.603 . S
C377 C372 1.377 . S
C377 C376 1.383 . S
C377 H440 0.929 . S
C378 C374 1.527 . S
C378 H441 0.961 . S
C378 H442 0.959 . S
C378 H443 0.959 . S
C379 C376 1.603 . S
C379 H444 0.960 . S
C379 H445 0.962 . S
C379 H446 0.961 . S
C380 C347 1.587 . S
C380 C381 1.360 . S
C380 C393 1.412 . S
C381 C380 1.360 . S
C381 C382 1.365 . S
C381 H447 0.929 . S
C382 C357 1.553 . S
C382 C381 1.365 . S
C382 C383 1.404 . S
C383 C382 1.404 . S
C383 C384 1.395 . S
C383 C394 1.451 . S
C384 C383 1.395 . S
C384 C385 1.322 . S
C384 H448 0.930 . S
C385 C384 1.322 . S
C385 C386 1.459 . S
C385 H449 0.929 . S
C386 C385 1.459 . S
C386 C387 1.445 . S
C386 C395 1.395 . S
C387 C365 1.432 . S
C387 C386 1.445 . S
C387 C388 1.370 . S
C388 C387 1.370 . S
C388 C389 1.438 . S
C388 H450 0.930 . S
C389 C375 1.497 . S
C389 C388 1.438 . S
C389 C390 1.360 . S
C390 C389 1.360 . S
C390 C391 1.401 . S
C390 C395 1.446 . S
C391 C390 1.401 . S
C391 C392 1.347 . S
C391 H451 0.929 . S
C392 C391 1.347 . S
C392 C393 1.455 . S
C392 H452 0.930 . S
C393 C380 1.412 . S
C393 C392 1.455 . S
C393 C394 1.331 . S
C394 C383 1.451 . S
C394 C393 1.331 . S
C394 C395 1.497 . S
C395 C386 1.395 . S
C395 C390 1.446 . S
C395 C394 1.497 . S
C396 C397 1.582 . S
C396 H453 0.962 . S
C396 H454 0.959 . S
C396 H455 0.958 . S
C397 C396 1.582 . S
C397 O400 1.458 . S
C397 H426 0.980 . S
O398 C343 1.426 . S
O398 C344 1.334 . S
O399 C371 1.412 . S
O399 C372 1.393 . S
O400 C362 1.435 . S
O400 C397 1.458 . S
O401 C353 1.468 . S
O401 C354 1.408 . S
H402 C343 0.980 . S
H403 C342 0.959 . S
H404 C342 0.959 . S
H405 C342 0.960 . S
H406 C345 0.929 . S
H407 C349 0.929 . S
H408 C350 0.959 . S
H409 C350 0.961 . S
H410 C350 0.961 . S
H411 C351 0.960 . S
H412 C351 0.960 . S
H413 C351 0.961 . S
H414 C353 0.980 . S
H415 C352 0.961 . S
H416 C352 0.960 . S
H417 C352 0.959 . S
H418 C355 0.930 . S
H419 C359 0.931 . S
H420 C360 0.959 . S
H421 C360 0.961 . S
H422 C360 0.959 . S
H423 C361 0.960 . S
H424 C361 0.960 . S
H425 C361 0.960 . S
H426 C397 0.980 . S
H427 C363 0.930 . S
H428 C367 0.930 . S
H429 C368 0.961 . S
H430 C368 0.960 . S
H431 C368 0.958 . S
H432 C369 0.961 . S
H433 C369 0.960 . S
H434 C369 0.960 . S
H435 C371 0.980 . S
H436 C370 0.961 1_565 S
H437 C370 0.961 . S
H438 C370 0.959 . S
H439 C373 0.932 . S
H440 C377 0.929 . S
H441 C378 0.961 . S
H442 C378 0.959 . S
H443 C378 0.959 . S
H444 C379 0.960 . S
H445 C379 0.962 . S
H446 C379 0.961 . S
H447 C381 0.929 . S
H448 C384 0.930 . S
H449 C385 0.929 . S
H450 C388 0.930 . S
H451 C391 0.929 . S
H452 C392 0.930 . S
H453 C396 0.962 . S
H454 C396 0.959 . S
H455 C396 0.958 . S
C456 C457 1.560 . S
C456 H517 0.959 . S
C456 H518 0.959 . S
C456 H519 0.960 . S
C457 C456 1.560 . S
C457 O512 1.426 . S
C457 H516 0.980 . S
C458 C459 1.407 . S
C458 C463 1.418 . S
C458 O512 1.334 . S
C459 C458 1.407 . S
C459 C460 1.360 . S
C459 H520 0.929 . S
C460 C459 1.360 . S
C460 C461 1.401 . S
C460 C464 1.527 . S
C461 C460 1.401 . S
C461 C462 1.405 . S
C461 C494 1.587 . S
C462 C461 1.405 . S
C462 C463 1.332 . S
C462 C465 1.496 . S
C463 C458 1.418 . S
C463 C462 1.332 . S
C463 H521 0.929 . S
C464 C460 1.527 . S
C464 H522 0.959 . S
C464 H523 0.961 . S
C464 H524 0.961 . S
C465 C462 1.496 . S
C465 H525 0.960 . S
C465 H526 0.960 . S
C465 H527 0.961 . S
C466 C467 1.517 . S
C466 H529 0.961 1_545 S
C466 H530 0.960 . S
C466 H531 0.959 1_545 S
C467 C466 1.517 . S
C467 O515 1.468 . S
C467 H528 0.980 . S
C468 C469 1.349 . S
C468 C473 1.367 . S
C468 O515 1.408 . S
C469 C468 1.349 . S
C469 C470 1.407 . S
C469 H532 0.930 . S
C470 C469 1.407 . S
C470 C471 1.449 . S
C470 C474 1.535 . S
C471 C470 1.449 . S
C471 C472 1.384 . S
C471 C496 1.553 . S
C472 C471 1.384 . S
C472 C473 1.364 . S
C472 C475 1.450 . S
C473 C468 1.367 . S
C473 C472 1.364 . S
C473 H533 0.931 . S
C474 C470 1.535 . S
C474 H534 0.959 . S
C474 H535 0.961 . S
C474 H536 0.959 . S
C475 C472 1.450 . S
C475 H537 0.960 . S
C475 H538 0.960 . S
C475 H539 0.960 . S
C476 C477 1.309 . S
C476 C481 1.304 . S
C476 O514 1.435 . S
C477 C476 1.309 . S
C477 C478 1.476 . S
C477 H541 0.930 . S
C478 C477 1.476 . S
C478 C479 1.400 . S
C478 C482 1.567 . S
C479 C478 1.400 . S
C479 C480 1.373 . S
C479 C501 1.432 . S
C480 C479 1.373 . S
C480 C481 1.339 . S
C480 C483 1.530 . S
C481 C476 1.304 . S
C481 C480 1.339 . S
C481 H542 0.930 . S
C482 C478 1.567 . S
C482 H543 0.961 . S
C482 H544 0.960 . S
C482 H545 0.958 . S
C483 C480 1.530 . S
C483 H546 0.961 . S
C483 H547 0.960 . S
C483 H548 0.960 . S
C484 C485 1.530 . S
C484 H550 0.961 . S
C484 H551 0.961 . S
C484 H552 0.959 . S
C485 C484 1.530 . S
C485 O513 1.412 . S
C485 H549 0.980 . S
C486 C487 1.288 . S
C486 C491 1.377 . S
C486 O513 1.393 . S
C487 C486 1.288 . S
C487 C488 1.369 . S
C487 H553 0.932 . S
C488 C487 1.369 . S
C488 C489 1.398 . S
C488 C492 1.527 . S
C489 C488 1.398 . S
C489 C490 1.380 . S
C489 C503 1.497 . S
C490 C489 1.380 . S
C490 C491 1.383 . S
C490 C493 1.603 . S
C491 C486 1.377 . S
C491 C490 1.383 . S
C491 H554 0.929 . S
C492 C488 1.527 . S
C492 H555 0.961 . S
C492 H556 0.959 . S
C492 H557 0.959 . S
C493 C490 1.603 . S
C493 H558 0.960 . S
C493 H559 0.962 . S
C493 H560 0.961 . S
C494 C461 1.587 . S
C494 C495 1.360 . S
C494 C507 1.412 . S
C495 C494 1.360 . S
C495 C496 1.365 . S
C495 H561 0.929 . S
C496 C471 1.553 . S
C496 C495 1.365 . S
C496 C497 1.404 . S
C497 C496 1.404 . S
C497 C498 1.395 . S
C497 C508 1.451 . S
C498 C497 1.395 . S
C498 C499 1.322 . S
C498 H562 0.930 . S
C499 C498 1.322 . S
C499 C500 1.459 . S
C499 H563 0.929 . S
C500 C499 1.459 . S
C500 C501 1.445 . S
C500 C509 1.395 . S
C501 C479 1.432 . S
C501 C500 1.445 . S
C501 C502 1.370 . S
C502 C501 1.370 . S
C502 C503 1.438 . S
C502 H564 0.930 . S
C503 C489 1.497 . S
C503 C502 1.438 . S
C503 C504 1.360 . S
C504 C503 1.360 . S
C504 C505 1.401 . S
C504 C509 1.446 . S
C505 C504 1.401 . S
C505 C506 1.347 . S
C505 H565 0.929 . S
C506 C505 1.347 . S
C506 C507 1.455 . S
C506 H566 0.930 . S
C507 C494 1.412 . S
C507 C506 1.455 . S
C507 C508 1.331 . S
C508 C497 1.451 . S
C508 C507 1.331 . S
C508 C509 1.497 . S
C509 C500 1.395 . S
C509 C504 1.446 . S
C509 C508 1.497 . S
C510 C511 1.582 1_565 S
C510 H567 0.962 . S
C510 H568 0.959 . S
C510 H569 0.958 1_565 S
C511 C510 1.582 1_545 S
C511 O514 1.458 . S
C511 H540 0.980 . S
O512 C457 1.426 . S
O512 C458 1.334 . S
O513 C485 1.412 . S
O513 C486 1.393 . S
O514 C476 1.435 . S
O514 C511 1.458 . S
O515 C467 1.468 . S
O515 C468 1.408 . S
H516 C457 0.980 . S
H517 C456 0.959 . S
H518 C456 0.959 . S
H519 C456 0.960 . S
H520 C459 0.929 . S
H521 C463 0.929 . S
H522 C464 0.959 . S
H523 C464 0.961 . S
H524 C464 0.961 . S
H525 C465 0.960 . S
H526 C465 0.960 . S
H527 C465 0.961 . S
H528 C467 0.980 . S
H529 C466 0.961 1_565 S
H530 C466 0.960 . S
H531 C466 0.959 1_565 S
H532 C469 0.930 . S
H533 C473 0.931 . S
H534 C474 0.959 . S
H535 C474 0.961 . S
H536 C474 0.959 . S
H537 C475 0.960 . S
H538 C475 0.960 . S
H539 C475 0.960 . S
H540 C511 0.980 . S
H541 C477 0.930 . S
H542 C481 0.930 . S
H543 C482 0.961 . S
H544 C482 0.960 . S
H545 C482 0.958 . S
H546 C483 0.961 . S
H547 C483 0.960 . S
H548 C483 0.960 . S
H549 C485 0.980 . S
H550 C484 0.961 . S
H551 C484 0.961 . S
H552 C484 0.959 . S
H553 C487 0.932 . S
H554 C491 0.929 . S
H555 C492 0.961 . S
H556 C492 0.959 . S
H557 C492 0.959 . S
H558 C493 0.960 . S
H559 C493 0.962 . S
H560 C493 0.961 . S
H561 C495 0.929 . S
H562 C498 0.930 . S
H563 C499 0.929 . S
H564 C502 0.930 . S
H565 C505 0.929 . S
H566 C506 0.930 . S
H567 C510 0.962 . S
H568 C510 0.959 . S
H569 C510 0.958 1_545 S
C570 C571 1.560 . S
C570 H631 0.959 . S
C570 H632 0.959 . S
C570 H633 0.960 . S
C571 C570 1.560 . S
C571 O626 1.426 . S
C571 H630 0.980 . S
C572 C573 1.407 . S
C572 C577 1.418 . S
C572 O626 1.334 . S
C573 C572 1.407 . S
C573 C574 1.360 . S
C573 H634 0.929 . S
C574 C573 1.360 . S
C574 C575 1.401 . S
C574 C578 1.527 . S
C575 C574 1.401 . S
C575 C576 1.405 . S
C575 C608 1.587 . S
C576 C575 1.405 . S
C576 C577 1.332 . S
C576 C579 1.496 . S
C577 C572 1.418 . S
C577 C576 1.332 . S
C577 H635 0.929 . S
C578 C574 1.527 . S
C578 H636 0.959 . S
C578 H637 0.961 . S
C578 H638 0.961 . S
C579 C576 1.496 . S
C579 H639 0.960 . S
C579 H640 0.960 . S
C579 H641 0.961 . S
C580 C581 1.517 1_545 S
C580 H643 0.961 . S
C580 H644 0.960 . S
C580 H645 0.959 . S
C581 C580 1.517 1_565 S
C581 O629 1.468 . S
C581 H642 0.980 . S
C582 C583 1.349 . S
C582 C587 1.367 . S
C582 O629 1.408 . S
C583 C582 1.349 . S
C583 C584 1.407 . S
C583 H646 0.930 . S
C584 C583 1.407 . S
C584 C585 1.449 . S
C584 C588 1.535 . S
C585 C584 1.449 . S
C585 C586 1.384 . S
C585 C610 1.553 . S
C586 C585 1.384 . S
C586 C587 1.364 . S
C586 C589 1.450 . S
C587 C582 1.367 . S
C587 C586 1.364 . S
C587 H647 0.931 . S
C588 C584 1.535 . S
C588 H648 0.959 . S
C588 H649 0.961 . S
C588 H650 0.959 . S
C589 C586 1.450 . S
C589 H651 0.960 . S
C589 H652 0.960 . S
C589 H653 0.960 . S
C590 C591 1.309 . S
C590 C595 1.304 . S
C590 O628 1.435 . S
C591 C590 1.309 . S
C591 C592 1.476 . S
C591 H655 0.930 . S
C592 C591 1.476 . S
C592 C593 1.400 . S
C592 C596 1.567 . S
C593 C592 1.400 . S
C593 C594 1.373 . S
C593 C615 1.432 . S
C594 C593 1.373 . S
C594 C595 1.339 . S
C594 C597 1.530 . S
C595 C590 1.304 . S
C595 C594 1.339 . S
C595 H656 0.930 . S
C596 C592 1.567 . S
C596 H657 0.961 . S
C596 H658 0.960 . S
C596 H659 0.958 . S
C597 C594 1.530 . S
C597 H660 0.961 . S
C597 H661 0.960 . S
C597 H662 0.960 . S
C598 C599 1.530 . S
C598 H664 0.961 . S
C598 H665 0.961 . S
C598 H666 0.959 . S
C599 C598 1.530 . S
C599 O627 1.412 . S
C599 H663 0.980 . S
C600 C601 1.288 . S
C600 C605 1.377 . S
C600 O627 1.393 . S
C601 C600 1.288 . S
C601 C602 1.369 . S
C601 H667 0.932 . S
C602 C601 1.369 . S
C602 C603 1.398 . S
C602 C606 1.527 . S
C603 C602 1.398 . S
C603 C604 1.380 . S
C603 C617 1.497 . S
C604 C603 1.380 . S
C604 C605 1.383 . S
C604 C607 1.603 . S
C605 C600 1.377 . S
C605 C604 1.383 . S
C605 H668 0.929 . S
C606 C602 1.527 . S
C606 H669 0.961 . S
C606 H670 0.959 . S
C606 H671 0.959 . S
C607 C604 1.603 . S
C607 H672 0.960 . S
C607 H673 0.962 . S
C607 H674 0.961 . S
C608 C575 1.587 . S
C608 C609 1.360 . S
C608 C621 1.412 . S
C609 C608 1.360 . S
C609 C610 1.365 . S
C609 H675 0.929 . S
C610 C585 1.553 . S
C610 C609 1.365 . S
C610 C611 1.404 . S
C611 C610 1.404 . S
C611 C612 1.395 . S
C611 C622 1.451 . S
C612 C611 1.395 . S
C612 C613 1.322 . S
C612 H676 0.930 . S
C613 C612 1.322 . S
C613 C614 1.459 . S
C613 H677 0.929 . S
C614 C613 1.459 . S
C614 C615 1.445 . S
C614 C623 1.395 . S
C615 C593 1.432 . S
C615 C614 1.445 . S
C615 C616 1.370 . S
C616 C615 1.370 . S
C616 C617 1.438 . S
C616 H678 0.930 . S
C617 C603 1.497 . S
C617 C616 1.438 . S
C617 C618 1.360 . S
C618 C617 1.360 . S
C618 C619 1.401 . S
C618 C623 1.446 . S
C619 C618 1.401 . S
C619 C620 1.347 . S
C619 H679 0.929 . S
C620 C619 1.347 . S
C620 C621 1.455 . S
C620 H680 0.930 . S
C621 C608 1.412 . S
C621 C620 1.455 . S
C621 C622 1.331 . S
C622 C611 1.451 . S
C622 C621 1.331 . S
C622 C623 1.497 . S
C623 C614 1.395 . S
C623 C618 1.446 . S
C623 C622 1.497 . S
C624 C625 1.582 1_545 S
C624 H681 0.962 . S
C624 H682 0.959 . S
C624 H683 0.958 . S
C625 C624 1.582 1_565 S
C625 O628 1.458 . S
C625 H654 0.980 . S
O626 C571 1.426 . S
O626 C572 1.334 . S
O627 C599 1.412 . S
O627 C600 1.393 . S
O628 C590 1.435 . S
O628 C625 1.458 . S
O629 C581 1.468 . S
O629 C582 1.408 . S
H630 C571 0.980 . S
H631 C570 0.959 . S
H632 C570 0.959 . S
H633 C570 0.960 . S
H634 C573 0.929 . S
H635 C577 0.929 . S
H636 C578 0.959 . S
H637 C578 0.961 . S
H638 C578 0.961 . S
H639 C579 0.960 . S
H640 C579 0.960 . S
H641 C579 0.961 . S
H642 C581 0.980 . S
H643 C580 0.961 . S
H644 C580 0.960 . S
H645 C580 0.959 . S
H646 C583 0.930 . S
H647 C587 0.931 . S
H648 C588 0.959 . S
H649 C588 0.961 . S
H650 C588 0.959 . S
H651 C589 0.960 . S
H652 C589 0.960 . S
H653 C589 0.960 . S
H654 C625 0.980 . S
H655 C591 0.930 . S
H656 C595 0.930 . S
H657 C596 0.961 . S
H658 C596 0.960 . S
H659 C596 0.958 . S
H660 C597 0.961 . S
H661 C597 0.960 . S
H662 C597 0.960 . S
H663 C599 0.980 . S
H664 C598 0.961 . S
H665 C598 0.961 . S
H666 C598 0.959 . S
H667 C601 0.932 . S
H668 C605 0.929 . S
H669 C606 0.961 . S
H670 C606 0.959 . S
H671 C606 0.959 . S
H672 C607 0.960 . S
H673 C607 0.962 . S
H674 C607 0.961 . S
H675 C609 0.929 . S
H676 C612 0.930 . S
H677 C613 0.929 . S
H678 C616 0.930 . S
H679 C619 0.929 . S
H680 C620 0.930 . S
H681 C624 0.962 . S
H682 C624 0.959 . S
H683 C624 0.958 . S
C684 C685 1.560 . S
C684 H745 0.959 . S
C684 H746 0.959 . S
C684 H747 0.960 . S
C685 C684 1.560 . S
C685 O740 1.426 . S
C685 H744 0.980 . S
C686 C687 1.407 . S
C686 C691 1.418 . S
C686 O740 1.334 . S
C687 C686 1.407 . S
C687 C688 1.360 . S
C687 H748 0.929 . S
C688 C687 1.360 . S
C688 C689 1.401 . S
C688 C692 1.527 . S
C689 C688 1.401 . S
C689 C690 1.405 . S
C689 C722 1.587 . S
C690 C689 1.405 . S
C690 C691 1.332 . S
C690 C693 1.496 . S
C691 C686 1.418 . S
C691 C690 1.332 . S
C691 H749 0.929 . S
C692 C688 1.527 . S
C692 H750 0.959 . S
C692 H751 0.961 . S
C692 H752 0.961 . S
C693 C690 1.496 . S
C693 H753 0.960 . S
C693 H754 0.960 . S
C693 H755 0.961 . S
C694 C695 1.517 . S
C694 H757 0.961 . S
C694 H758 0.960 . S
C694 H759 0.959 . S
C695 C694 1.517 . S
C695 O743 1.468 . S
C695 H756 0.980 . S
C696 C697 1.349 . S
C696 C701 1.367 . S
C696 O743 1.408 . S
C697 C696 1.349 . S
C697 C698 1.407 . S
C697 H760 0.930 . S
C698 C697 1.407 . S
C698 C699 1.449 . S
C698 C702 1.535 . S
C699 C698 1.449 . S
C699 C700 1.384 . S
C699 C724 1.553 . S
C700 C699 1.384 . S
C700 C701 1.364 . S
C700 C703 1.450 . S
C701 C696 1.367 . S
C701 C700 1.364 . S
C701 H761 0.931 . S
C702 C698 1.535 . S
C702 H762 0.959 . S
C702 H763 0.961 . S
C702 H764 0.959 . S
C703 C700 1.450 . S
C703 H765 0.960 . S
C703 H766 0.960 . S
C703 H767 0.960 . S
C704 C705 1.309 . S
C704 C709 1.304 . S
C704 O742 1.435 . S
C705 C704 1.309 . S
C705 C706 1.476 . S
C705 H769 0.930 . S
C706 C705 1.476 . S
C706 C707 1.400 . S
C706 C710 1.567 . S
C707 C706 1.400 . S
C707 C708 1.373 . S
C707 C729 1.432 . S
C708 C707 1.373 . S
C708 C709 1.339 . S
C708 C711 1.530 . S
C709 C704 1.304 . S
C709 C708 1.339 . S
C709 H770 0.930 . S
C710 C706 1.567 . S
C710 H771 0.961 . S
C710 H772 0.960 . S
C710 H773 0.958 . S
C711 C708 1.530 . S
C711 H774 0.961 . S
C711 H775 0.960 1_556 S
C711 H776 0.960 . S
C712 C713 1.530 . S
C712 H778 0.961 . S
C712 H779 0.961 . S
C712 H780 0.959 . S
C713 C712 1.530 . S
C713 O741 1.412 . S
C713 H777 0.980 . S
C714 C715 1.288 . S
C714 C719 1.377 . S
C714 O741 1.393 . S
C715 C714 1.288 . S
C715 C716 1.369 . S
C715 H781 0.932 . S
C716 C715 1.369 . S
C716 C717 1.398 . S
C716 C720 1.527 . S
C717 C716 1.398 . S
C717 C718 1.380 . S
C717 C731 1.497 . S
C718 C717 1.380 . S
C718 C719 1.383 . S
C718 C721 1.603 . S
C719 C714 1.377 . S
C719 C718 1.383 . S
C719 H782 0.929 . S
C720 C716 1.527 . S
C720 H783 0.961 . S
C720 H784 0.959 . S
C720 H785 0.959 . S
C721 C718 1.603 . S
C721 H786 0.960 . S
C721 H787 0.962 . S
C721 H788 0.961 . S
C722 C689 1.587 . S
C722 C723 1.360 . S
C722 C735 1.412 . S
C723 C722 1.360 . S
C723 C724 1.365 . S
C723 H789 0.929 . S
C724 C699 1.553 . S
C724 C723 1.365 . S
C724 C725 1.404 . S
C725 C724 1.404 . S
C725 C726 1.395 . S
C725 C736 1.451 . S
C726 C725 1.395 . S
C726 C727 1.322 . S
C726 H790 0.930 . S
C727 C726 1.322 . S
C727 C728 1.462 1_554 S
C727 H791 0.929 . S
C728 C727 1.462 1_556 S
C728 C729 1.439 . S
C728 C737 1.398 1_556 S
C729 C707 1.432 . S
C729 C728 1.439 . S
C729 C730 1.370 . S
C730 C729 1.370 . S
C730 C731 1.438 . S
C730 H792 0.930 . S
C731 C717 1.497 . S
C731 C730 1.438 . S
C731 C732 1.360 . S
C732 C731 1.360 . S
C732 C733 1.401 1_556 S
C732 C737 1.446 1_556 S
C733 C732 1.401 1_554 S
C733 C734 1.347 . S
C733 H793 0.929 1_554 S
C734 C733 1.347 . S
C734 C735 1.455 . S
C734 H794 0.930 . S
C735 C722 1.412 . S
C735 C734 1.455 . S
C735 C736 1.331 . S
C736 C725 1.451 . S
C736 C735 1.331 . S
C736 C737 1.497 . S
C737 C728 1.398 1_554 S
C737 C732 1.446 1_554 S
C737 C736 1.497 . S
C738 C739 1.582 . S
C738 H795 0.962 . S
C738 H796 0.959 . S
C738 H797 0.958 . S
C739 C738 1.582 . S
C739 O742 1.458 . S
C739 H768 0.980 . S
O740 C685 1.426 . S
O740 C686 1.334 . S
O741 C713 1.412 . S
O741 C714 1.393 . S
O742 C704 1.435 . S
O742 C739 1.458 . S
O743 C695 1.468 . S
O743 C696 1.408 . S
H744 C685 0.980 . S
H745 C684 0.959 . S
H746 C684 0.959 . S
H747 C684 0.960 . S
H748 C687 0.929 . S
H749 C691 0.929 . S
H750 C692 0.959 . S
H751 C692 0.961 . S
H752 C692 0.961 . S
H753 C693 0.960 . S
H754 C693 0.960 . S
H755 C693 0.961 . S
H756 C695 0.980 . S
H757 C694 0.961 . S
H758 C694 0.960 . S
H759 C694 0.959 . S
H760 C697 0.930 . S
H761 C701 0.931 . S
H762 C702 0.959 . S
H763 C702 0.961 . S
H764 C702 0.959 . S
H765 C703 0.960 . S
H766 C703 0.960 . S
H767 C703 0.960 . S
H768 C739 0.980 . S
H769 C705 0.930 . S
H770 C709 0.930 . S
H771 C710 0.961 . S
H772 C710 0.960 . S
H773 C710 0.958 . S
H774 C711 0.961 . S
H775 C711 0.960 1_554 S
H776 C711 0.960 . S
H777 C713 0.980 . S
H778 C712 0.961 . S
H779 C712 0.961 . S
H780 C712 0.959 . S
H781 C715 0.932 . S
H782 C719 0.929 . S
H783 C720 0.961 . S
H784 C720 0.959 . S
H785 C720 0.959 . S
H786 C721 0.960 . S
H787 C721 0.962 . S
H788 C721 0.961 . S
H789 C723 0.929 . S
H790 C726 0.930 . S
H791 C727 0.929 . S
H792 C730 0.930 . S
H793 C733 0.929 1_556 S
H794 C734 0.930 . S
H795 C738 0.962 . S
H796 C738 0.959 . S
H797 C738 0.958 . S
C798 C799 1.560 . S
C798 H859 0.959 . S
C798 H860 0.959 . S
C798 H861 0.960 . S
C799 C798 1.560 . S
C799 O854 1.426 . S
C799 H858 0.980 . S
C800 C801 1.407 . S
C800 C805 1.418 . S
C800 O854 1.334 . S
C801 C800 1.407 . S
C801 C802 1.360 . S
C801 H862 0.929 . S
C802 C801 1.360 . S
C802 C803 1.401 . S
C802 C806 1.527 . S
C803 C802 1.401 . S
C803 C804 1.405 . S
C803 C836 1.587 . S
C804 C803 1.405 . S
C804 C805 1.332 . S
C804 C807 1.496 . S
C805 C800 1.418 . S
C805 C804 1.332 . S
C805 H863 0.929 . S
C806 C802 1.527 . S
C806 H864 0.959 . S
C806 H865 0.961 . S
C806 H866 0.961 . S
C807 C804 1.496 . S
C807 H867 0.960 . S
C807 H868 0.960 . S
C807 H869 0.961 . S
C808 C809 1.517 . S
C808 H871 0.961 . S
C808 H872 0.960 . S
C808 H873 0.959 . S
C809 C808 1.517 . S
C809 O857 1.468 . S
C809 H870 0.980 . S
C810 C811 1.349 . S
C810 C815 1.367 . S
C810 O857 1.408 . S
C811 C810 1.349 . S
C811 C812 1.407 . S
C811 H874 0.930 . S
C812 C811 1.407 . S
C812 C813 1.449 . S
C812 C816 1.535 . S
C813 C812 1.449 . S
C813 C814 1.384 . S
C813 C838 1.553 . S
C814 C813 1.384 . S
C814 C815 1.364 . S
C814 C817 1.450 . S
C815 C810 1.367 . S
C815 C814 1.364 . S
C815 H875 0.931 . S
C816 C812 1.535 . S
C816 H876 0.959 . S
C816 H877 0.961 . S
C816 H878 0.959 . S
C817 C814 1.450 . S
C817 H879 0.960 . S
C817 H880 0.960 . S
C817 H881 0.960 . S
C818 C819 1.309 . S
C818 C823 1.304 . S
C818 O856 1.435 . S
C819 C818 1.309 . S
C819 C820 1.476 . S
C819 H883 0.930 . S
C820 C819 1.476 . S
C820 C821 1.400 . S
C820 C824 1.567 . S
C821 C820 1.400 . S
C821 C822 1.373 . S
C821 C843 1.432 . S
C822 C821 1.373 . S
C822 C823 1.339 . S
C822 C825 1.530 . S
C823 C818 1.304 . S
C823 C822 1.339 . S
C823 H884 0.930 . S
C824 C820 1.567 . S
C824 H885 0.961 . S
C824 H886 0.960 . S
C824 H887 0.958 . S
C825 C822 1.530 . S
C825 H888 0.961 . S
C825 H889 0.960 . S
C825 H890 0.960 . S
C826 C827 1.530 . S
C826 H892 0.961 . S
C826 H893 0.961 . S
C826 H894 0.959 . S
C827 C826 1.530 . S
C827 O855 1.412 . S
C827 H891 0.980 . S
C828 C829 1.288 . S
C828 C833 1.377 . S
C828 O855 1.393 . S
C829 C828 1.288 . S
C829 C830 1.369 . S
C829 H895 0.932 . S
C830 C829 1.369 . S
C830 C831 1.398 . S
C830 C834 1.527 . S
C831 C830 1.398 . S
C831 C832 1.380 . S
C831 C845 1.497 . S
C832 C831 1.380 . S
C832 C833 1.383 . S
C832 C835 1.603 . S
C833 C828 1.377 . S
C833 C832 1.383 . S
C833 H896 0.929 . S
C834 C830 1.527 . S
C834 H897 0.961 . S
C834 H898 0.959 . S
C834 H899 0.959 . S
C835 C832 1.603 . S
C835 H900 0.960 . S
C835 H901 0.962 . S
C835 H902 0.961 . S
C836 C803 1.587 . S
C836 C837 1.360 1_655 S
C836 C849 1.412 . S
C837 C836 1.360 1_455 S
C837 C838 1.365 . S
C837 H903 0.929 . S
C838 C813 1.553 . S
C838 C837 1.365 . S
C838 C839 1.404 . S
C839 C838 1.404 . S
C839 C840 1.395 . S
C839 C850 1.451 . S
C840 C839 1.395 . S
C840 C841 1.322 . S
C840 H904 0.930 . S
C841 C840 1.322 . S
C841 C842 1.459 . S
C841 H905 0.929 . S
C842 C841 1.459 . S
C842 C843 1.445 . S
C842 C851 1.395 . S
C843 C821 1.432 . S
C843 C842 1.445 . S
C843 C844 1.370 . S
C844 C843 1.370 . S
C844 C845 1.438 1_455 S
C844 H906 0.930 . S
C845 C831 1.497 . S
C845 C844 1.438 1_655 S
C845 C846 1.360 . S
C846 C845 1.360 . S
C846 C847 1.401 . S
C846 C851 1.446 1_655 S
C847 C846 1.401 . S
C847 C848 1.347 . S
C847 H907 0.929 . S
C848 C847 1.347 . S
C848 C849 1.455 . S
C848 H908 0.930 . S
C849 C836 1.412 . S
C849 C848 1.455 . S
C849 C850 1.331 1_655 S
C850 C839 1.451 . S
C850 C849 1.331 1_455 S
C850 C851 1.497 . S
C851 C842 1.395 . S
C851 C846 1.446 1_455 S
C851 C850 1.497 . S
C852 C853 1.582 . S
C852 H909 0.962 . S
C852 H910 0.959 . S
C852 H911 0.958 . S
C853 C852 1.582 . S
C853 O856 1.458 . S
C853 H882 0.980 . S
O854 C799 1.426 . S
O854 C800 1.334 . S
O855 C827 1.412 . S
O855 C828 1.393 . S
O856 C818 1.435 . S
O856 C853 1.458 . S
O857 C809 1.468 . S
O857 C810 1.408 . S
H858 C799 0.980 . S
H859 C798 0.959 . S
H860 C798 0.959 . S
H861 C798 0.960 . S
H862 C801 0.929 . S
H863 C805 0.929 . S
H864 C806 0.959 . S
H865 C806 0.961 . S
H866 C806 0.961 . S
H867 C807 0.960 . S
H868 C807 0.960 . S
H869 C807 0.961 . S
H870 C809 0.980 . S
H871 C808 0.961 . S
H872 C808 0.960 . S
H873 C808 0.959 . S
H874 C811 0.930 . S
H875 C815 0.931 . S
H876 C816 0.959 . S
H877 C816 0.961 . S
H878 C816 0.959 . S
H879 C817 0.960 . S
H880 C817 0.960 . S
H881 C817 0.960 . S
H882 C853 0.980 . S
H883 C819 0.930 . S
H884 C823 0.930 . S
H885 C824 0.961 . S
H886 C824 0.960 . S
H887 C824 0.958 . S
H888 C825 0.961 . S
H889 C825 0.960 . S
H890 C825 0.960 . S
H891 C827 0.980 . S
H892 C826 0.961 . S
H893 C826 0.961 . S
H894 C826 0.959 . S
H895 C829 0.932 . S
H896 C833 0.929 . S
H897 C834 0.961 . S
H898 C834 0.959 . S
H899 C834 0.959 . S
H900 C835 0.960 . S
H901 C835 0.962 . S
H902 C835 0.961 . S
H903 C837 0.929 . S
H904 C840 0.930 . S
H905 C841 0.929 . S
H906 C844 0.930 . S
H907 C847 0.929 . S
H908 C848 0.930 . S
H909 C852 0.962 . S
H910 C852 0.959 . S
H911 C852 0.958 . S
Fe912 O913 1.886 . S
Fe912 O916 1.715 1_455 S
Fe912 O921 2.077 . S
Fe912 O926 1.935 1_455 S
Fe912 O932 2.077 . S
Fe912 O941 1.935 1_455 S
O913 Fe912 1.886 . S
O913 Fe915 1.715 . S
Fe914 O916 1.886 . S
Fe914 O917 1.715 . S
Fe914 O924 1.935 . S
Fe914 O925 2.077 . S
Fe914 O931 1.935 . S
Fe914 O940 2.077 . S
Fe915 O913 1.715 . S
Fe915 O918 1.886 . S
Fe915 O922 1.935 . S
Fe915 O927 2.077 . S
Fe915 O933 1.935 . S
Fe915 O937 2.077 . S
O916 Fe912 1.715 1_655 S
O916 Fe914 1.886 . S
O917 Fe914 1.715 . S
O917 Fe919 1.886 1_655 S
O918 Fe915 1.886 . S
O918 Fe919 1.715 . S
Fe919 O917 1.886 1_455 S
Fe919 O918 1.715 . S
Fe919 O923 2.077 1_455 S
Fe919 O928 1.935 . S
Fe919 O930 2.077 1_455 S
Fe919 O938 1.935 . S
C920 O932 1.381 . S
C920 O933 1.421 . S
O921 Fe912 2.077 . S
O921 C934 1.381 . S
O922 Fe915 1.935 . S
O922 C934 1.421 . S
O923 Fe919 2.077 1_655 S
O923 C939 1.381 . S
O924 Fe914 1.935 . S
O924 C939 1.421 . S
O925 Fe914 2.077 . S
O925 C929 1.381 . S
O926 Fe912 1.935 1_655 S
O926 C929 1.421 . S
O927 Fe915 2.077 . S
O927 C935 1.381 . S
O928 Fe919 1.935 . S
O928 C935 1.421 . S
C929 O925 1.381 . S
C929 O926 1.421 . S
O930 Fe919 2.077 1_655 S
O930 C942 1.381 . S
O931 Fe914 1.935 . S
O931 C942 1.421 . S
O932 Fe912 2.077 . S
O932 C920 1.381 . S
O933 Fe915 1.935 . S
O933 C920 1.421 . S
C934 O921 1.381 . S
C934 O922 1.421 . S
C935 O927 1.381 . S
C935 O928 1.421 . S
C936 O937 1.381 . S
C936 O938 1.421 . S
O937 Fe915 2.077 . S
O937 C936 1.381 . S
O938 Fe919 1.935 . S
O938 C936 1.421 . S
C939 O923 1.381 . S
C939 O924 1.421 . S
O940 Fe914 2.077 . S
O940 C943 1.381 . S
O941 Fe912 1.935 1_655 S
O941 C943 1.421 . S
C942 O930 1.381 . S
C942 O931 1.421 . S
C943 O940 1.381 . S
C943 O941 1.421 . S
Fe944 O945 1.886 . S
Fe944 O948 1.715 . S
Fe944 O953 2.077 . S
Fe944 O958 1.935 . S
Fe944 O964 2.077 . S
Fe944 O973 1.935 . S
O945 Fe944 1.886 . S
O945 Fe947 1.715 . S
Fe946 O948 1.886 . S
Fe946 O949 1.715 . S
Fe946 O956 1.935 . S
Fe946 O957 2.077 . S
Fe946 O963 1.935 . S
Fe946 O972 2.077 . S
Fe947 O945 1.715 . S
Fe947 O950 1.886 . S
Fe947 O954 1.935 . S
Fe947 O959 2.077 . S
Fe947 O965 1.935 . S
Fe947 O969 2.077 . S
O948 Fe944 1.715 . S
O948 Fe946 1.886 . S
O949 Fe946 1.715 . S
O949 Fe951 1.886 . S
O950 Fe947 1.886 . S
O950 Fe951 1.715 . S
Fe951 O949 1.886 . S
Fe951 O950 1.715 . S
Fe951 O955 2.077 . S
Fe951 O960 1.935 . S
Fe951 O962 2.077 . S
Fe951 O970 1.935 . S
C952 O964 1.381 . S
C952 O965 1.421 . S
O953 Fe944 2.077 . S
O953 C966 1.381 . S
O954 Fe947 1.935 . S
O954 C966 1.421 . S
O955 Fe951 2.077 . S
O955 C971 1.381 . S
O956 Fe946 1.935 . S
O956 C971 1.421 . S
O957 Fe946 2.077 . S
O957 C961 1.381 . S
O958 Fe944 1.935 . S
O958 C961 1.421 . S
O959 Fe947 2.077 . S
O959 C967 1.381 . S
O960 Fe951 1.935 . S
O960 C967 1.421 . S
C961 O957 1.381 . S
C961 O958 1.421 . S
O962 Fe951 2.077 . S
O962 C974 1.381 . S
O963 Fe946 1.935 . S
O963 C974 1.421 . S
O964 Fe944 2.077 . S
O964 C952 1.381 . S
O965 Fe947 1.935 . S
O965 C952 1.421 . S
C966 O953 1.381 . S
C966 O954 1.421 . S
C967 O959 1.381 . S
C967 O960 1.421 . S
C968 O969 1.381 . S
C968 O970 1.421 . S
O969 Fe947 2.077 . S
O969 C968 1.381 . S
O970 Fe951 1.935 . S
O970 C968 1.421 . S
C971 O955 1.381 . S
C971 O956 1.421 . S
O972 Fe946 2.077 . S
O972 C975 1.381 . S
O973 Fe944 1.935 . S
O973 C975 1.421 . S
C974 O962 1.381 . S
C974 O963 1.421 . S
C975 O972 1.381 . S
C975 O973 1.421 . S
Fe976 O977 1.886 . S
Fe976 O980 1.715 . S
Fe976 O985 2.077 . S
Fe976 O990 1.935 . S
Fe976 O996 2.077 . S
Fe976 O1005 1.935 . S
O977 Fe976 1.886 . S
O977 Fe979 1.715 . S
Fe978 O980 1.886 . S
Fe978 O981 1.715 . S
Fe978 O988 1.935 . S
Fe978 O989 2.077 . S
Fe978 O995 1.935 . S
Fe978 O1004 2.077 . S
Fe979 O977 1.715 . S
Fe979 O982 1.886 . S
Fe979 O986 1.935 . S
Fe979 O991 2.077 . S
Fe979 O997 1.935 . S
Fe979 O1001 2.077 . S
O980 Fe976 1.715 . S
O980 Fe978 1.886 . S
O981 Fe978 1.715 . S
O981 Fe983 1.886 . S
O982 Fe979 1.886 . S
O982 Fe983 1.715 . S
Fe983 O981 1.886 . S
Fe983 O982 1.715 . S
Fe983 O987 2.077 . S
Fe983 O992 1.935 . S
Fe983 O994 2.077 . S
Fe983 O1002 1.935 . S
C984 O996 1.381 . S
C984 O997 1.421 . S
O985 Fe976 2.077 . S
O985 C998 1.381 . S
O986 Fe979 1.935 . S
O986 C998 1.421 . S
O987 Fe983 2.077 . S
O987 C1003 1.381 . S
O988 Fe978 1.935 . S
O988 C1003 1.421 . S
O989 Fe978 2.077 . S
O989 C993 1.381 . S
O990 Fe976 1.935 . S
O990 C993 1.421 . S
O991 Fe979 2.077 . S
O991 C999 1.381 . S
O992 Fe983 1.935 . S
O992 C999 1.421 . S
C993 O989 1.381 . S
C993 O990 1.421 . S
O994 Fe983 2.077 . S
O994 C1006 1.381 . S
O995 Fe978 1.935 . S
O995 C1006 1.421 . S
O996 Fe976 2.077 . S
O996 C984 1.381 . S
O997 Fe979 1.935 . S
O997 C984 1.421 . S
C998 O985 1.381 . S
C998 O986 1.421 . S
C999 O991 1.381 . S
C999 O992 1.421 . S
C1000 O1001 1.381 . S
C1000 O1002 1.421 . S
O1001 Fe979 2.077 . S
O1001 C1000 1.381 . S
O1002 Fe983 1.935 . S
O1002 C1000 1.421 . S
C1003 O987 1.381 . S
C1003 O988 1.421 . S
O1004 Fe978 2.077 . S
O1004 C1007 1.381 . S
O1005 Fe976 1.935 . S
O1005 C1007 1.421 . S
C1006 O994 1.381 . S
C1006 O995 1.421 . S
C1007 O1004 1.381 . S
C1007 O1005 1.421 . S
Fe1008 O1009 1.886 . S
Fe1008 O1012 1.715 . S
Fe1008 O1017 2.077 1_455 S
Fe1008 O1022 1.935 1_455 S
Fe1008 O1028 2.077 . S
Fe1008 O1037 1.935 . S
O1009 Fe1008 1.886 . S
O1009 Fe1011 1.715 . S
Fe1010 O1012 1.886 . S
Fe1010 O1013 1.715 . S
Fe1010 O1020 1.935 1_455 S
Fe1010 O1021 2.077 1_455 S
Fe1010 O1027 1.935 . S
Fe1010 O1036 2.077 . S
Fe1011 O1009 1.715 . S
Fe1011 O1014 1.886 . S
Fe1011 O1018 1.935 1_455 S
Fe1011 O1023 2.077 1_455 S
Fe1011 O1029 1.935 . S
Fe1011 O1033 2.077 . S
O1012 Fe1008 1.715 . S
O1012 Fe1010 1.886 . S
O1013 Fe1010 1.715 . S
O1013 Fe1015 1.886 . S
O1014 Fe1011 1.886 . S
O1014 Fe1015 1.715 . S
Fe1015 O1013 1.886 . S
Fe1015 O1014 1.715 . S
Fe1015 O1019 2.077 1_455 S
Fe1015 O1024 1.935 1_455 S
Fe1015 O1026 2.077 . S
Fe1015 O1034 1.935 . S
C1016 O1028 1.381 . S
C1016 O1029 1.421 . S
O1017 Fe1008 2.077 1_655 S
O1017 C1030 1.381 . S
O1018 Fe1011 1.935 1_655 S
O1018 C1030 1.421 . S
O1019 Fe1015 2.077 1_655 S
O1019 C1035 1.381 . S
O1020 Fe1010 1.935 1_655 S
O1020 C1035 1.421 . S
O1021 Fe1010 2.077 1_655 S
O1021 C1025 1.381 . S
O1022 Fe1008 1.935 1_655 S
O1022 C1025 1.421 . S
O1023 Fe1011 2.077 1_655 S
O1023 C1031 1.381 . S
O1024 Fe1015 1.935 1_655 S
O1024 C1031 1.421 . S
C1025 O1021 1.381 . S
C1025 O1022 1.421 . S
O1026 Fe1015 2.077 . S
O1026 C1038 1.381 . S
O1027 Fe1010 1.935 . S
O1027 C1038 1.421 . S
O1028 Fe1008 2.077 . S
O1028 C1016 1.381 . S
O1029 Fe1011 1.935 . S
O1029 C1016 1.421 . S
C1030 O1017 1.381 . S
C1030 O1018 1.421 . S
C1031 O1023 1.381 . S
C1031 O1024 1.421 . S
C1032 O1033 1.381 . S
C1032 O1034 1.421 . S
O1033 Fe1011 2.077 . S
O1033 C1032 1.381 . S
O1034 Fe1015 1.935 . S
O1034 C1032 1.421 . S
C1035 O1019 1.381 . S
C1035 O1020 1.421 . S
O1036 Fe1010 2.077 . S
O1036 C1039 1.381 . S
O1037 Fe1008 1.935 . S
O1037 C1039 1.421 . S
C1038 O1026 1.381 . S
C1038 O1027 1.421 . S
C1039 O1036 1.381 . S
C1039 O1037 1.421 . S
H1040 C1052 0.930 . S
H1041 C1054 0.930 . S
H1042 C1055 0.930 . S
H1043 C1059 0.959 . S
H1044 C1059 0.959 . S
H1045 C1059 0.961 . S
H1046 C1060 0.960 . S
H1047 C1060 0.961 . S
H1048 C1060 0.959 . S
H1049 C1063 0.929 . S
H1050 C1064 0.931 . S
H1051 C1066 0.930 . S
C1052 H1040 0.930 . S
C1052 C1053 1.399 . S
C1052 C1057 1.399 . S
C1053 C1052 1.399 . S
C1053 C1054 1.376 . S
C1054 H1041 0.930 . S
C1054 C1053 1.376 . S
C1054 C1055 1.388 . S
C1055 H1042 0.930 . S
C1055 C1054 1.388 . S
C1055 C1056 1.390 . S
C1056 C1055 1.390 . S
C1056 C1057 1.394 . S
C1056 C1062 1.465 . S
C1057 C1052 1.399 . S
C1057 C1056 1.394 . S
C1057 C1058 1.516 . S
C1058 C1057 1.516 . S
C1058 C1059 1.502 . S
C1058 C1060 1.561 . S
C1058 C1061 1.526 . S
C1059 H1043 0.959 . S
C1059 H1044 0.959 . S
C1059 H1045 0.961 . S
C1059 C1058 1.502 . S
C1060 H1046 0.960 . S
C1060 H1047 0.961 . S
C1060 H1048 0.959 . S
C1060 C1058 1.561 . S
C1061 C1058 1.526 . S
C1061 C1062 1.396 . S
C1061 C1066 1.390 . S
C1062 C1056 1.465 . S
C1062 C1061 1.396 . S
C1062 C1063 1.399 . S
C1063 H1049 0.929 . S
C1063 C1062 1.399 . S
C1063 C1064 1.385 . S
C1064 H1050 0.931 . S
C1064 C1063 1.385 . S
C1064 C1065 1.389 . S
C1065 C1064 1.389 . S
C1065 C1066 1.387 . S
C1066 H1051 0.930 . S
C1066 C1061 1.390 . S
C1066 C1065 1.387 . S
H1067 C1079 0.930 . S
H1068 C1081 0.930 . S
H1069 C1082 0.930 . S
H1070 C1086 0.959 . S
H1071 C1086 0.959 . S
H1072 C1086 0.961 1_565 S
H1073 C1087 0.960 1_565 S
H1074 C1087 0.961 . S
H1075 C1087 0.959 . S
H1076 C1090 0.929 . S
H1077 C1091 0.931 . S
H1078 C1093 0.930 . S
C1079 H1067 0.930 . S
C1079 C1080 1.399 . S
C1079 C1084 1.399 1_565 S
C1080 C1079 1.399 . S
C1080 C1081 1.376 1_565 S
C1081 H1068 0.930 . S
C1081 C1080 1.376 1_545 S
C1081 C1082 1.388 . S
C1082 H1069 0.930 . S
C1082 C1081 1.388 . S
C1082 C1083 1.390 . S
C1083 C1082 1.390 . S
C1083 C1084 1.394 . S
C1083 C1089 1.465 . S
C1084 C1079 1.399 1_545 S
C1084 C1083 1.394 . S
C1084 C1085 1.516 . S
C1085 C1084 1.516 . S
C1085 C1086 1.502 . S
C1085 C1087 1.561 . S
C1085 C1088 1.526 . S
C1086 H1070 0.959 . S
C1086 H1071 0.959 . S
C1086 H1072 0.961 1_545 S
C1086 C1085 1.502 . S
C1087 H1073 0.960 1_545 S
C1087 H1074 0.961 . S
C1087 H1075 0.959 . S
C1087 C1085 1.561 . S
C1088 C1085 1.526 . S
C1088 C1089 1.396 . S
C1088 C1093 1.390 . S
C1089 C1083 1.465 . S
C1089 C1088 1.396 . S
C1089 C1090 1.399 . S
C1090 H1076 0.929 . S
C1090 C1089 1.399 . S
C1090 C1091 1.385 . S
C1091 H1077 0.931 . S
C1091 C1090 1.385 . S
C1091 C1092 1.389 . S
C1092 C1091 1.389 . S
C1092 C1093 1.387 . S
C1093 H1078 0.930 . S
C1093 C1088 1.390 . S
C1093 C1092 1.387 . S
H1094 C1106 0.930 . S
H1095 C1108 0.930 . S
H1096 C1109 0.930 . S
H1097 C1113 0.959 . S
H1098 C1113 0.959 . S
H1099 C1113 0.961 . S
H1100 C1114 0.960 . S
H1101 C1114 0.961 . S
H1102 C1114 0.959 . S
H1103 C1117 0.929 . S
H1104 C1118 0.931 . S
H1105 C1120 0.930 . S
C1106 H1094 0.930 . S
C1106 C1107 1.399 . S
C1106 C1111 1.399 . S
C1107 C1106 1.399 . S
C1107 C1108 1.376 . S
C1108 H1095 0.930 . S
C1108 C1107 1.376 . S
C1108 C1109 1.388 . S
C1109 H1096 0.930 . S
C1109 C1108 1.388 . S
C1109 C1110 1.390 . S
C1110 C1109 1.390 . S
C1110 C1111 1.394 . S
C1110 C1116 1.465 . S
C1111 C1106 1.399 . S
C1111 C1110 1.394 . S
C1111 C1112 1.516 . S
C1112 C1111 1.516 . S
C1112 C1113 1.502 . S
C1112 C1114 1.561 . S
C1112 C1115 1.526 . S
C1113 H1097 0.959 . S
C1113 H1098 0.959 . S
C1113 H1099 0.961 . S
C1113 C1112 1.502 . S
C1114 H1100 0.960 . S
C1114 H1101 0.961 . S
C1114 H1102 0.959 . S
C1114 C1112 1.561 . S
C1115 C1112 1.526 . S
C1115 C1116 1.396 . S
C1115 C1120 1.390 . S
C1116 C1110 1.465 . S
C1116 C1115 1.396 . S
C1116 C1117 1.399 . S
C1117 H1103 0.929 . S
C1117 C1116 1.399 . S
C1117 C1118 1.385 . S
C1118 H1104 0.931 . S
C1118 C1117 1.385 . S
C1118 C1119 1.389 . S
C1119 C1118 1.389 . S
C1119 C1120 1.387 . S
C1120 H1105 0.930 . S
C1120 C1115 1.390 . S
C1120 C1119 1.387 . S
H1121 C1133 0.930 . S
H1122 C1135 0.930 . S
H1123 C1136 0.930 . S
H1124 C1140 0.959 . S
H1125 C1140 0.959 . S
H1126 C1140 0.961 1_545 S
H1127 C1141 0.960 1_545 S
H1128 C1141 0.961 . S
H1129 C1141 0.959 . S
H1130 C1144 0.929 . S
H1131 C1145 0.931 . S
H1132 C1147 0.930 . S
C1133 H1121 0.930 . S
C1133 C1134 1.399 . S
C1133 C1138 1.399 1_545 S
C1134 C1133 1.399 . S
C1134 C1135 1.376 1_545 S
C1135 H1122 0.930 . S
C1135 C1134 1.376 1_565 S
C1135 C1136 1.388 . S
C1136 H1123 0.930 . S
C1136 C1135 1.388 . S
C1136 C1137 1.390 . S
C1137 C1136 1.390 . S
C1137 C1138 1.394 . S
C1137 C1143 1.465 . S
C1138 C1133 1.399 1_565 S
C1138 C1137 1.394 . S
C1138 C1139 1.516 . S
C1139 C1138 1.516 . S
C1139 C1140 1.502 . S
C1139 C1141 1.561 . S
C1139 C1142 1.526 . S
C1140 H1124 0.959 . S
C1140 H1125 0.959 . S
C1140 H1126 0.961 1_565 S
C1140 C1139 1.502 . S
C1141 H1127 0.960 1_565 S
C1141 H1128 0.961 . S
C1141 H1129 0.959 . S
C1141 C1139 1.561 . S
C1142 C1139 1.526 . S
C1142 C1143 1.396 . S
C1142 C1147 1.390 . S
C1143 C1137 1.465 . S
C1143 C1142 1.396 . S
C1143 C1144 1.399 . S
C1144 H1130 0.929 . S
C1144 C1143 1.399 . S
C1144 C1145 1.385 . S
C1145 H1131 0.931 . S
C1145 C1144 1.385 . S
C1145 C1146 1.389 . S
C1146 C1145 1.389 . S
C1146 C1147 1.387 . S
C1147 H1132 0.930 . S
C1147 C1142 1.390 . S
C1147 C1146 1.387 . S
H1148 C1160 0.930 . S
H1149 C1162 0.930 . S
H1150 C1163 0.930 . S
H1151 C1167 0.959 . S
H1152 C1167 0.959 . S
H1153 C1167 0.961 . S
H1154 C1168 0.960 . S
H1155 C1168 0.961 . S
H1156 C1168 0.959 . S
H1157 C1171 0.929 . S
H1158 C1172 0.931 . S
H1159 C1174 0.930 . S
C1160 H1148 0.930 . S
C1160 C1161 1.399 . S
C1160 C1165 1.399 . S
C1161 C1160 1.399 . S
C1161 C1162 1.376 . S
C1162 H1149 0.930 . S
C1162 C1161 1.376 . S
C1162 C1163 1.388 . S
C1163 H1150 0.930 . S
C1163 C1162 1.388 . S
C1163 C1164 1.390 . S
C1164 C1163 1.390 . S
C1164 C1165 1.394 . S
C1164 C1170 1.465 . S
C1165 C1160 1.399 . S
C1165 C1164 1.394 . S
C1165 C1166 1.516 . S
C1166 C1165 1.516 . S
C1166 C1167 1.502 . S
C1166 C1168 1.561 . S
C1166 C1169 1.526 . S
C1167 H1151 0.959 . S
C1167 H1152 0.959 . S
C1167 H1153 0.961 . S
C1167 C1166 1.502 . S
C1168 H1154 0.960 . S
C1168 H1155 0.961 . S
C1168 H1156 0.959 . S
C1168 C1166 1.561 . S
C1169 C1166 1.526 . S
C1169 C1170 1.396 . S
C1169 C1174 1.390 . S
C1170 C1164 1.465 . S
C1170 C1169 1.396 . S
C1170 C1171 1.399 . S
C1171 H1157 0.929 . S
C1171 C1170 1.399 . S
C1171 C1172 1.385 . S
C1172 H1158 0.931 . S
C1172 C1171 1.385 . S
C1172 C1173 1.389 . S
C1173 C1172 1.389 . S
C1173 C1174 1.387 . S
C1174 H1159 0.930 . S
C1174 C1169 1.390 . S
C1174 C1173 1.387 . S
H1175 C1187 0.930 1_565 S
H1176 C1189 0.930 . S
H1177 C1190 0.930 . S
H1178 C1194 0.959 . S
H1179 C1194 0.959 . S
H1180 C1194 0.961 . S
H1181 C1195 0.960 1_565 S
H1182 C1195 0.961 . S
H1183 C1195 0.959 . S
H1184 C1198 0.929 . S
H1185 C1199 0.931 . S
H1186 C1201 0.930 . S
C1187 H1175 0.930 1_545 S
C1187 C1188 1.399 1_545 S
C1187 C1192 1.399 . S
C1188 C1187 1.399 1_565 S
C1188 C1189 1.376 1_565 S
C1189 H1176 0.930 . S
C1189 C1188 1.376 1_545 S
C1189 C1190 1.388 . S
C1190 H1177 0.930 . S
C1190 C1189 1.388 . S
C1190 C1191 1.390 . S
C1191 C1190 1.390 . S
C1191 C1192 1.394 . S
C1191 C1197 1.465 . S
C1192 C1187 1.399 . S
C1192 C1191 1.394 . S
C1192 C1193 1.516 . S
C1193 C1192 1.516 . S
C1193 C1194 1.502 . S
C1193 C1195 1.561 . S
C1193 C1196 1.526 . S
C1194 H1178 0.959 . S
C1194 H1179 0.959 . S
C1194 H1180 0.961 . S
C1194 C1193 1.502 . S
C1195 H1181 0.960 1_545 S
C1195 H1182 0.961 . S
C1195 H1183 0.959 . S
C1195 C1193 1.561 . S
C1196 C1193 1.526 . S
C1196 C1197 1.396 . S
C1196 C1201 1.390 . S
C1197 C1191 1.465 . S
C1197 C1196 1.396 . S
C1197 C1198 1.399 . S
C1198 H1184 0.929 . S
C1198 C1197 1.399 . S
C1198 C1199 1.385 . S
C1199 H1185 0.931 . S
C1199 C1198 1.385 . S
C1199 C1200 1.389 . S
C1200 C1199 1.389 . S
C1200 C1201 1.387 . S
C1201 H1186 0.930 . S
C1201 C1196 1.390 . S
C1201 C1200 1.387 . S
H1202 C1214 0.930 . S
H1203 C1216 0.930 . S
H1204 C1217 0.930 . S
H1205 C1221 0.959 . S
H1206 C1221 0.959 . S
H1207 C1221 0.961 . S
H1208 C1222 0.960 . S
H1209 C1222 0.961 . S
H1210 C1222 0.959 . S
H1211 C1225 0.929 . S
H1212 C1226 0.931 . S
H1213 C1228 0.930 . S
C1214 H1202 0.930 . S
C1214 C1215 1.399 . S
C1214 C1219 1.399 . S
C1215 C1214 1.399 . S
C1215 C1216 1.376 . S
C1216 H1203 0.930 . S
C1216 C1215 1.376 . S
C1216 C1217 1.388 . S
C1217 H1204 0.930 . S
C1217 C1216 1.388 . S
C1217 C1218 1.390 . S
C1218 C1217 1.390 . S
C1218 C1219 1.394 . S
C1218 C1224 1.465 . S
C1219 C1214 1.399 . S
C1219 C1218 1.394 . S
C1219 C1220 1.516 . S
C1220 C1219 1.516 . S
C1220 C1221 1.502 . S
C1220 C1222 1.561 . S
C1220 C1223 1.526 . S
C1221 H1205 0.959 . S
C1221 H1206 0.959 . S
C1221 H1207 0.961 . S
C1221 C1220 1.502 . S
C1222 H1208 0.960 . S
C1222 H1209 0.961 . S
C1222 H1210 0.959 . S
C1222 C1220 1.561 . S
C1223 C1220 1.526 . S
C1223 C1224 1.396 . S
C1223 C1228 1.390 . S
C1224 C1218 1.465 . S
C1224 C1223 1.396 . S
C1224 C1225 1.399 . S
C1225 H1211 0.929 . S
C1225 C1224 1.399 . S
C1225 C1226 1.385 . S
C1226 H1212 0.931 . S
C1226 C1225 1.385 . S
C1226 C1227 1.389 . S
C1227 C1226 1.389 . S
C1227 C1228 1.387 . S
C1228 H1213 0.930 . S
C1228 C1223 1.390 . S
C1228 C1227 1.387 . S
H1229 C1241 0.930 . S
H1230 C1243 0.930 . S
H1231 C1244 0.930 . S
H1232 C1248 0.959 . S
H1233 C1248 0.959 . S
H1234 C1248 0.961 1_545 S
H1235 C1249 0.960 . S
H1236 C1249 0.961 1_565 S
H1237 C1249 0.959 1_565 S
H1238 C1252 0.929 . S
H1239 C1253 0.931 . S
H1240 C1255 0.930 . S
C1241 H1229 0.930 . S
C1241 C1242 1.399 . S
C1241 C1246 1.399 1_545 S
C1242 C1241 1.399 . S
C1242 C1243 1.376 . S
C1243 H1230 0.930 . S
C1243 C1242 1.376 . S
C1243 C1244 1.388 1_545 S
C1244 H1231 0.930 . S
C1244 C1243 1.388 1_565 S
C1244 C1245 1.390 . S
C1245 C1244 1.390 . S
C1245 C1246 1.394 . S
C1245 C1251 1.465 . S
C1246 C1241 1.399 1_565 S
C1246 C1245 1.394 . S
C1246 C1247 1.516 . S
C1247 C1246 1.516 . S
C1247 C1248 1.502 . S
C1247 C1249 1.561 1_565 S
C1247 C1250 1.526 . S
C1248 H1232 0.959 . S
C1248 H1233 0.959 . S
C1248 H1234 0.961 1_565 S
C1248 C1247 1.502 . S
C1249 H1235 0.960 . S
C1249 H1236 0.961 1_545 S
C1249 H1237 0.959 1_545 S
C1249 C1247 1.561 1_545 S
C1250 C1247 1.526 . S
C1250 C1251 1.396 . S
C1250 C1255 1.390 . S
C1251 C1245 1.465 . S
C1251 C1250 1.396 . S
C1251 C1252 1.399 . S
C1252 H1238 0.929 . S
C1252 C1251 1.399 . S
C1252 C1253 1.385 . S
C1253 H1239 0.931 . S
C1253 C1252 1.385 . S
C1253 C1254 1.389 . S
C1254 C1253 1.389 . S
C1254 C1255 1.387 . S
C1255 H1240 0.930 . S
C1255 C1250 1.390 . S
C1255 C1254 1.387 . S
H1256 C1268 0.930 . S
H1257 C1270 0.930 . S
H1258 C1271 0.930 . S
H1259 C1275 0.959 . S
H1260 C1275 0.959 . S
H1261 C1275 0.961 . S
H1262 C1276 0.960 . S
H1263 C1276 0.961 . S
H1264 C1276 0.959 . S
H1265 C1279 0.929 . S
H1266 C1280 0.931 . S
H1267 C1282 0.930 . S
C1268 H1256 0.930 . S
C1268 C1269 1.399 . S
C1268 C1273 1.399 . S
C1269 C1268 1.399 . S
C1269 C1270 1.376 . S
C1270 H1257 0.930 . S
C1270 C1269 1.376 . S
C1270 C1271 1.388 . S
C1271 H1258 0.930 . S
C1271 C1270 1.388 . S
C1271 C1272 1.390 . S
C1272 C1271 1.390 . S
C1272 C1273 1.394 . S
C1272 C1278 1.465 . S
C1273 C1268 1.399 . S
C1273 C1272 1.394 . S
C1273 C1274 1.516 . S
C1274 C1273 1.516 . S
C1274 C1275 1.502 . S
C1274 C1276 1.561 . S
C1274 C1277 1.526 . S
C1275 H1259 0.959 . S
C1275 H1260 0.959 . S
C1275 H1261 0.961 . S
C1275 C1274 1.502 . S
C1276 H1262 0.960 . S
C1276 H1263 0.961 . S
C1276 H1264 0.959 . S
C1276 C1274 1.561 . S
C1277 C1274 1.526 . S
C1277 C1278 1.396 . S
C1277 C1282 1.390 . S
C1278 C1272 1.465 . S
C1278 C1277 1.396 . S
C1278 C1279 1.399 . S
C1279 H1265 0.929 . S
C1279 C1278 1.399 . S
C1279 C1280 1.385 . S
C1280 H1266 0.931 . S
C1280 C1279 1.385 . S
C1280 C1281 1.389 . S
C1281 C1280 1.389 . S
C1281 C1282 1.387 . S
C1282 H1267 0.930 . S
C1282 C1277 1.390 . S
C1282 C1281 1.387 . S
H1283 C1295 0.930 1_545 S
H1284 C1297 0.930 . S
H1285 C1298 0.930 . S
H1286 C1302 0.959 . S
H1287 C1302 0.959 . S
H1288 C1302 0.961 . S
H1289 C1303 0.960 . S
H1290 C1303 0.961 . S
H1291 C1303 0.959 . S
H1292 C1306 0.929 . S
H1293 C1307 0.931 . S
H1294 C1309 0.930 . S
C1295 H1283 0.930 1_565 S
C1295 C1296 1.399 1_565 S
C1295 C1300 1.399 . S
C1296 C1295 1.399 1_545 S
C1296 C1297 1.376 . S
C1297 H1284 0.930 . S
C1297 C1296 1.376 . S
C1297 C1298 1.388 1_545 S
C1298 H1285 0.930 . S
C1298 C1297 1.388 1_565 S
C1298 C1299 1.390 . S
C1299 C1298 1.390 . S
C1299 C1300 1.394 . S
C1299 C1305 1.465 . S
C1300 C1295 1.399 . S
C1300 C1299 1.394 . S
C1300 C1301 1.516 . S
C1301 C1300 1.516 . S
C1301 C1302 1.502 . S
C1301 C1303 1.561 . S
C1301 C1304 1.526 . S
C1302 H1286 0.959 . S
C1302 H1287 0.959 . S
C1302 H1288 0.961 . S
C1302 C1301 1.502 . S
C1303 H1289 0.960 . S
C1303 H1290 0.961 . S
C1303 H1291 0.959 . S
C1303 C1301 1.561 . S
C1304 C1301 1.526 . S
C1304 C1305 1.396 . S
C1304 C1309 1.390 . S
C1305 C1299 1.465 . S
C1305 C1304 1.396 . S
C1305 C1306 1.399 . S
C1306 H1292 0.929 . S
C1306 C1305 1.399 . S
C1306 C1307 1.385 . S
C1307 H1293 0.931 . S
C1307 C1306 1.385 . S
C1307 C1308 1.389 . S
C1308 C1307 1.389 . S
C1308 C1309 1.387 . S
C1309 H1294 0.930 . S
C1309 C1304 1.390 . S
C1309 C1308 1.387 . S
H1310 C1322 0.930 . S
H1311 C1324 0.930 . S
H1312 C1325 0.930 . S
H1313 C1329 0.959 . S
H1314 C1329 0.959 . S
H1315 C1329 0.961 . S
H1316 C1330 0.960 . S
H1317 C1330 0.961 . S
H1318 C1330 0.959 . S
H1319 C1333 0.929 . S
H1320 C1334 0.931 . S
H1321 C1336 0.930 . S
C1322 H1310 0.930 . S
C1322 C1323 1.399 . S
C1322 C1327 1.399 . S
C1323 C1322 1.399 . S
C1323 C1324 1.376 . S
C1324 H1311 0.930 . S
C1324 C1323 1.376 . S
C1324 C1325 1.388 . S
C1325 H1312 0.930 . S
C1325 C1324 1.388 . S
C1325 C1326 1.390 . S
C1326 C1325 1.390 . S
C1326 C1327 1.394 . S
C1326 C1332 1.465 . S
C1327 C1322 1.399 . S
C1327 C1326 1.394 . S
C1327 C1328 1.516 . S
C1328 C1327 1.516 . S
C1328 C1329 1.502 . S
C1328 C1330 1.561 . S
C1328 C1331 1.526 . S
C1329 H1313 0.959 . S
C1329 H1314 0.959 . S
C1329 H1315 0.961 . S
C1329 C1328 1.502 . S
C1330 H1316 0.960 . S
C1330 H1317 0.961 . S
C1330 H1318 0.959 . S
C1330 C1328 1.561 . S
C1331 C1328 1.526 . S
C1331 C1332 1.396 . S
C1331 C1336 1.390 . S
C1332 C1326 1.465 . S
C1332 C1331 1.396 . S
C1332 C1333 1.399 . S
C1333 H1319 0.929 . S
C1333 C1332 1.399 . S
C1333 C1334 1.385 . S
C1334 H1320 0.931 . S
C1334 C1333 1.385 . S
C1334 C1335 1.389 . S
C1335 C1334 1.389 . S
C1335 C1336 1.387 . S
C1336 H1321 0.930 . S
C1336 C1331 1.390 . S
C1336 C1335 1.387 . S
H1337 C1349 0.930 . S
H1338 C1351 0.930 1_565 S
H1339 C1352 0.930 . S
H1340 C1356 0.959 . S
H1341 C1356 0.959 1_455 S
H1342 C1356 0.961 . S
H1343 C1357 0.960 . S
H1344 C1357 0.961 . S
H1345 C1357 0.959 . S
H1346 C1360 0.929 . S
H1347 C1361 0.931 . S
H1348 C1363 0.930 . S
C1349 H1337 0.930 . S
C1349 C1350 1.399 1_545 S
C1349 C1354 1.399 . S
C1350 C1349 1.399 1_565 S
C1350 C1351 1.376 1_565 S
C1351 H1338 0.930 1_545 S
C1351 C1350 1.376 1_545 S
C1351 C1352 1.388 . S
C1352 H1339 0.930 . S
C1352 C1351 1.388 . S
C1352 C1353 1.390 . S
C1353 C1352 1.390 . S
C1353 C1354 1.394 . S
C1353 C1359 1.465 . S
C1354 C1349 1.399 . S
C1354 C1353 1.394 . S
C1354 C1355 1.516 . S
C1355 C1354 1.516 . S
C1355 C1356 1.502 . S
C1355 C1357 1.561 . S
C1355 C1358 1.526 . S
C1356 H1340 0.959 . S
C1356 H1341 0.959 1_655 S
C1356 H1342 0.961 . S
C1356 C1355 1.502 . S
C1357 H1343 0.960 . S
C1357 H1344 0.961 . S
C1357 H1345 0.959 . S
C1357 C1355 1.561 . S
C1358 C1355 1.526 . S
C1358 C1359 1.396 . S
C1358 C1363 1.390 . S
C1359 C1353 1.465 . S
C1359 C1358 1.396 . S
C1359 C1360 1.399 . S
C1360 H1346 0.929 . S
C1360 C1359 1.399 . S
C1360 C1361 1.385 . S
C1361 H1347 0.931 . S
C1361 C1360 1.385 . S
C1361 C1362 1.389 . S
C1362 C1361 1.389 . S
C1362 C1363 1.387 . S
C1363 H1348 0.930 . S
C1363 C1358 1.390 . S
C1363 C1362 1.387 . S
H1364 C1376 0.930 . S
H1365 C1378 0.930 . S
H1366 C1379 0.930 . S
H1367 C1383 0.959 . S
H1368 C1383 0.959 . S
H1369 C1383 0.961 . S
H1370 C1384 0.960 . S
H1371 C1384 0.961 . S
H1372 C1384 0.959 . S
H1373 C1387 0.929 . S
H1374 C1388 0.931 . S
H1375 C1390 0.930 . S
C1376 H1364 0.930 . S
C1376 C1377 1.399 . S
C1376 C1381 1.399 . S
C1377 C1376 1.399 . S
C1377 C1378 1.376 . S
C1378 H1365 0.930 . S
C1378 C1377 1.376 . S
C1378 C1379 1.388 . S
C1379 H1366 0.930 . S
C1379 C1378 1.388 . S
C1379 C1380 1.390 . S
C1380 C1379 1.390 . S
C1380 C1381 1.394 . S
C1380 C1386 1.465 . S
C1381 C1376 1.399 . S
C1381 C1380 1.394 . S
C1381 C1382 1.516 . S
C1382 C1381 1.516 . S
C1382 C1383 1.502 . S
C1382 C1384 1.561 . S
C1382 C1385 1.526 . S
C1383 H1367 0.959 . S
C1383 H1368 0.959 . S
C1383 H1369 0.961 . S
C1383 C1382 1.502 . S
C1384 H1370 0.960 . S
C1384 H1371 0.961 . S
C1384 H1372 0.959 . S
C1384 C1382 1.561 . S
C1385 C1382 1.526 . S
C1385 C1386 1.396 . S
C1385 C1390 1.390 . S
C1386 C1380 1.465 . S
C1386 C1385 1.396 . S
C1386 C1387 1.399 . S
C1387 H1373 0.929 . S
C1387 C1386 1.399 . S
C1387 C1388 1.385 . S
C1388 H1374 0.931 . S
C1388 C1387 1.385 . S
C1388 C1389 1.389 . S
C1389 C1388 1.389 . S
C1389 C1390 1.387 . S
C1390 H1375 0.930 . S
C1390 C1385 1.390 . S
C1390 C1389 1.387 . S
H1391 C1403 0.930 . S
H1392 C1405 0.930 . S
H1393 C1406 0.930 . S
H1394 C1410 0.959 . S
H1395 C1410 0.959 . S
H1396 C1410 0.961 1_545 S
H1397 C1411 0.960 1_545 S
H1398 C1411 0.961 . S
H1399 C1411 0.959 . S
H1400 C1414 0.929 . S
H1401 C1415 0.931 . S
H1402 C1417 0.930 . S
C1403 H1391 0.930 . S
C1403 C1404 1.399 . S
C1403 C1408 1.399 1_545 S
C1404 C1403 1.399 . S
C1404 C1405 1.376 1_545 S
C1405 H1392 0.930 . S
C1405 C1404 1.376 1_565 S
C1405 C1406 1.388 . S
C1406 H1393 0.930 . S
C1406 C1405 1.388 . S
C1406 C1407 1.390 . S
C1407 C1406 1.390 . S
C1407 C1408 1.394 . S
C1407 C1413 1.465 . S
C1408 C1403 1.399 1_565 S
C1408 C1407 1.394 . S
C1408 C1409 1.516 . S
C1409 C1408 1.516 . S
C1409 C1410 1.502 . S
C1409 C1411 1.561 . S
C1409 C1412 1.526 . S
C1410 H1394 0.959 . S
C1410 H1395 0.959 . S
C1410 H1396 0.961 1_565 S
C1410 C1409 1.502 . S
C1411 H1397 0.960 1_565 S
C1411 H1398 0.961 . S
C1411 H1399 0.959 . S
C1411 C1409 1.561 . S
C1412 C1409 1.526 . S
C1412 C1413 1.396 . S
C1412 C1417 1.390 . S
C1413 C1407 1.465 . S
C1413 C1412 1.396 . S
C1413 C1414 1.399 . S
C1414 H1400 0.929 . S
C1414 C1413 1.399 . S
C1414 C1415 1.385 . S
C1415 H1401 0.931 . S
C1415 C1414 1.385 . S
C1415 C1416 1.389 . S
C1416 C1415 1.389 . S
C1416 C1417 1.387 . S
C1417 H1402 0.930 . S
C1417 C1412 1.390 . S
C1417 C1416 1.387 . S
H1418 C1430 0.930 . S
H1419 C1432 0.930 . S
H1420 C1433 0.930 . S
H1421 C1437 0.959 . S
H1422 C1437 0.959 . S
H1423 C1437 0.961 . S
H1424 C1438 0.960 . S
H1425 C1438 0.961 . S
H1426 C1438 0.959 . S
H1427 C1441 0.929 . S
H1428 C1442 0.931 . S
H1429 C1444 0.930 . S
C1430 H1418 0.930 . S
C1430 C1431 1.399 . S
C1430 C1435 1.399 . S
C1431 C1430 1.399 . S
C1431 C1432 1.376 . S
C1432 H1419 0.930 . S
C1432 C1431 1.376 . S
C1432 C1433 1.388 . S
C1433 H1420 0.930 . S
C1433 C1432 1.388 . S
C1433 C1434 1.390 . S
C1434 C1433 1.390 . S
C1434 C1435 1.394 . S
C1434 C1440 1.465 . S
C1435 C1430 1.399 . S
C1435 C1434 1.394 . S
C1435 C1436 1.516 . S
C1436 C1435 1.516 . S
C1436 C1437 1.502 . S
C1436 C1438 1.561 . S
C1436 C1439 1.526 . S
C1437 H1421 0.959 . S
C1437 H1422 0.959 . S
C1437 H1423 0.961 . S
C1437 C1436 1.502 . S
C1438 H1424 0.960 . S
C1438 H1425 0.961 . S
C1438 H1426 0.959 . S
C1438 C1436 1.561 . S
C1439 C1436 1.526 . S
C1439 C1440 1.396 . S
C1439 C1444 1.390 . S
C1440 C1434 1.465 . S
C1440 C1439 1.396 . S
C1440 C1441 1.399 . S
C1441 H1427 0.929 . S
C1441 C1440 1.399 . S
C1441 C1442 1.385 . S
C1442 H1428 0.931 . S
C1442 C1441 1.385 . S
C1442 C1443 1.389 . S
C1443 C1442 1.389 . S
C1443 C1444 1.387 . S
C1444 H1429 0.930 . S
C1444 C1439 1.390 . S
C1444 C1443 1.387 . S
H1445 C1457 0.930 1_565 S
H1446 C1459 0.930 . S
H1447 C1460 0.930 . S
H1448 C1464 0.959 . S
H1449 C1464 0.959 . S
H1450 C1464 0.961 . S
H1451 C1465 0.960 1_565 S
H1452 C1465 0.961 . S
H1453 C1465 0.959 . S
H1454 C1468 0.929 . S
H1455 C1469 0.931 . S
H1456 C1471 0.930 . S
C1457 H1445 0.930 1_545 S
C1457 C1458 1.399 1_545 S
C1457 C1462 1.399 . S
C1458 C1457 1.399 1_565 S
C1458 C1459 1.376 1_565 S
C1459 H1446 0.930 . S
C1459 C1458 1.376 1_545 S
C1459 C1460 1.388 . S
C1460 H1447 0.930 . S
C1460 C1459 1.388 . S
C1460 C1461 1.390 . S
C1461 C1460 1.390 . S
C1461 C1462 1.394 . S
C1461 C1467 1.465 . S
C1462 C1457 1.399 . S
C1462 C1461 1.394 . S
C1462 C1463 1.516 . S
C1463 C1462 1.516 . S
C1463 C1464 1.502 . S
C1463 C1465 1.561 . S
C1463 C1466 1.526 . S
C1464 H1448 0.959 . S
C1464 H1449 0.959 . S
C1464 H1450 0.961 . S
C1464 C1463 1.502 . S
C1465 H1451 0.960 1_545 S
C1465 H1452 0.961 . S
C1465 H1453 0.959 . S
C1465 C1463 1.561 . S
C1466 C1463 1.526 . S
C1466 C1467 1.396 . S
C1466 C1471 1.390 . S
C1467 C1461 1.465 . S
C1467 C1466 1.396 . S
C1467 C1468 1.399 . S
C1468 H1454 0.929 . S
C1468 C1467 1.399 . S
C1468 C1469 1.385 . S
C1469 H1455 0.931 . S
C1469 C1468 1.385 . S
C1469 C1470 1.389 . S
C1470 C1469 1.389 . S
C1470 C1471 1.387 . S
C1471 H1456 0.930 . S
C1471 C1466 1.390 . S
C1471 C1470 1.387 . S
H1472 C1484 0.930 . S
H1473 C1486 0.930 . S
H1474 C1487 0.930 . S
H1475 C1491 0.959 . S
H1476 C1491 0.959 . S
H1477 C1491 0.961 . S
H1478 C1492 0.960 . S
H1479 C1492 0.961 . S
H1480 C1492 0.959 . S
H1481 C1495 0.929 . S
H1482 C1496 0.931 . S
H1483 C1498 0.930 . S
C1484 H1472 0.930 . S
C1484 C1485 1.399 . S
C1484 C1489 1.399 . S
C1485 C1484 1.399 . S
C1485 C1486 1.376 . S
C1486 H1473 0.930 . S
C1486 C1485 1.376 . S
C1486 C1487 1.388 . S
C1487 H1474 0.930 . S
C1487 C1486 1.388 . S
C1487 C1488 1.390 . S
C1488 C1487 1.390 . S
C1488 C1489 1.394 . S
C1488 C1494 1.465 . S
C1489 C1484 1.399 . S
C1489 C1488 1.394 . S
C1489 C1490 1.516 . S
C1490 C1489 1.516 . S
C1490 C1491 1.502 . S
C1490 C1492 1.561 . S
C1490 C1493 1.526 . S
C1491 H1475 0.959 . S
C1491 H1476 0.959 . S
C1491 H1477 0.961 . S
C1491 C1490 1.502 . S
C1492 H1478 0.960 . S
C1492 H1479 0.961 . S
C1492 H1480 0.959 . S
C1492 C1490 1.561 . S
C1493 C1490 1.526 . S
C1493 C1494 1.396 . S
C1493 C1498 1.390 . S
C1494 C1488 1.465 . S
C1494 C1493 1.396 . S
C1494 C1495 1.399 . S
C1495 H1481 0.929 . S
C1495 C1494 1.399 . S
C1495 C1496 1.385 . S
C1496 H1482 0.931 . S
C1496 C1495 1.385 . S
C1496 C1497 1.389 . S
C1497 C1496 1.389 . S
C1497 C1498 1.387 . S
C1498 H1483 0.930 . S
C1498 C1493 1.390 . S
C1498 C1497 1.387 . S
H1499 C1511 0.930 . S
H1500 C1513 0.930 . S
H1501 C1514 0.930 . S
H1502 C1518 0.959 . S
H1503 C1518 0.959 . S
H1504 C1518 0.961 . S
H1505 C1519 0.960 . S
H1506 C1519 0.961 . S
H1507 C1519 0.959 . S
H1508 C1522 0.929 . S
H1509 C1523 0.931 . S
H1510 C1525 0.930 . S
C1511 H1499 0.930 . S
C1511 C1512 1.399 . S
C1511 C1516 1.399 . S
C1512 C1511 1.399 . S
C1512 C1513 1.376 . S
C1513 H1500 0.930 . S
C1513 C1512 1.376 . S
C1513 C1514 1.388 . S
C1514 H1501 0.930 . S
C1514 C1513 1.388 . S
C1514 C1515 1.390 . S
C1515 C1514 1.390 . S
C1515 C1516 1.394 . S
C1515 C1521 1.465 . S
C1516 C1511 1.399 . S
C1516 C1515 1.394 . S
C1516 C1517 1.516 . S
C1517 C1516 1.516 . S
C1517 C1518 1.502 . S
C1517 C1519 1.561 . S
C1517 C1520 1.526 . S
C1518 H1502 0.959 . S
C1518 H1503 0.959 . S
C1518 H1504 0.961 . S
C1518 C1517 1.502 . S
C1519 H1505 0.960 . S
C1519 H1506 0.961 . S
C1519 H1507 0.959 . S
C1519 C1517 1.561 . S
C1520 C1517 1.526 . S
C1520 C1521 1.396 . S
C1520 C1525 1.390 . S
C1521 C1515 1.465 . S
C1521 C1520 1.396 . S
C1521 C1522 1.399 . S
C1522 H1508 0.929 . S
C1522 C1521 1.399 . S
C1522 C1523 1.385 . S
C1523 H1509 0.931 . S
C1523 C1522 1.385 . S
C1523 C1524 1.389 . S
C1524 C1523 1.389 . S
C1524 C1525 1.387 . S
C1525 H1510 0.930 . S
C1525 C1520 1.390 . S
C1525 C1524 1.387 . S
H1526 C1538 0.930 . S
H1527 C1540 0.930 . S
H1528 C1541 0.930 . S
H1529 C1545 0.959 . S
H1530 C1545 0.959 . S
H1531 C1545 0.961 . S
H1532 C1546 0.960 . S
H1533 C1546 0.961 . S
H1534 C1546 0.959 . S
H1535 C1549 0.929 . S
H1536 C1550 0.931 . S
H1537 C1552 0.930 . S
C1538 H1526 0.930 . S
C1538 C1539 1.399 . S
C1538 C1543 1.399 . S
C1539 C1538 1.399 . S
C1539 C1540 1.376 . S
C1540 H1527 0.930 . S
C1540 C1539 1.376 . S
C1540 C1541 1.388 . S
C1541 H1528 0.930 . S
C1541 C1540 1.388 . S
C1541 C1542 1.390 . S
C1542 C1541 1.390 . S
C1542 C1543 1.394 . S
C1542 C1548 1.465 . S
C1543 C1538 1.399 . S
C1543 C1542 1.394 . S
C1543 C1544 1.516 . S
C1544 C1543 1.516 . S
C1544 C1545 1.502 . S
C1544 C1546 1.561 . S
C1544 C1547 1.526 . S
C1545 H1529 0.959 . S
C1545 H1530 0.959 . S
C1545 H1531 0.961 . S
C1545 C1544 1.502 . S
C1546 H1532 0.960 . S
C1546 H1533 0.961 . S
C1546 H1534 0.959 . S
C1546 C1544 1.561 . S
C1547 C1544 1.526 . S
C1547 C1548 1.396 . S
C1547 C1552 1.390 . S
C1548 C1542 1.465 . S
C1548 C1547 1.396 . S
C1548 C1549 1.399 . S
C1549 H1535 0.929 . S
C1549 C1548 1.399 . S
C1549 C1550 1.385 . S
C1550 H1536 0.931 . S
C1550 C1549 1.385 . S
C1550 C1551 1.389 . S
C1551 C1550 1.389 . S
C1551 C1552 1.387 . S
C1552 H1537 0.930 . S
C1552 C1547 1.390 . S
C1552 C1551 1.387 . S
H1553 C1565 0.930 . S
H1554 C1567 0.930 . S
H1555 C1568 0.930 . S
H1556 C1572 0.959 . S
H1557 C1572 0.959 . S
H1558 C1572 0.961 . S
H1559 C1573 0.960 . S
H1560 C1573 0.961 . S
H1561 C1573 0.959 . S
H1562 C1576 0.929 . S
H1563 C1577 0.931 . S
H1564 C1579 0.930 . S
C1565 H1553 0.930 . S
C1565 C1566 1.399 . S
C1565 C1570 1.399 . S
C1566 C1565 1.399 . S
C1566 C1567 1.376 . S
C1567 H1554 0.930 . S
C1567 C1566 1.376 . S
C1567 C1568 1.388 . S
C1568 H1555 0.930 . S
C1568 C1567 1.388 . S
C1568 C1569 1.390 . S
C1569 C1568 1.390 . S
C1569 C1570 1.394 . S
C1569 C1575 1.465 . S
C1570 C1565 1.399 . S
C1570 C1569 1.394 . S
C1570 C1571 1.516 . S
C1571 C1570 1.516 . S
C1571 C1572 1.502 . S
C1571 C1573 1.561 . S
C1571 C1574 1.526 . S
C1572 H1556 0.959 . S
C1572 H1557 0.959 . S
C1572 H1558 0.961 . S
C1572 C1571 1.502 . S
C1573 H1559 0.960 . S
C1573 H1560 0.961 . S
C1573 H1561 0.959 . S
C1573 C1571 1.561 . S
C1574 C1571 1.526 . S
C1574 C1575 1.396 . S
C1574 C1579 1.390 . S
C1575 C1569 1.465 . S
C1575 C1574 1.396 . S
C1575 C1576 1.399 . S
C1576 H1562 0.929 . S
C1576 C1575 1.399 . S
C1576 C1577 1.385 . S
C1577 H1563 0.931 . S
C1577 C1576 1.385 . S
C1577 C1578 1.389 . S
C1578 C1577 1.389 . S
C1578 C1579 1.387 . S
C1579 H1564 0.930 . S
C1579 C1574 1.390 . S
C1579 C1578 1.387 . S
H1580 C1592 0.930 . S
H1581 C1594 0.930 . S
H1582 C1595 0.930 . S
H1583 C1599 0.959 . S
H1584 C1599 0.959 . S
H1585 C1599 0.961 . S
H1586 C1600 0.960 . S
H1587 C1600 0.961 . S
H1588 C1600 0.959 . S
H1589 C1603 0.929 . S
H1590 C1604 0.931 . S
H1591 C1606 0.930 . S
C1592 H1580 0.930 . S
C1592 C1593 1.399 . S
C1592 C1597 1.399 . S
C1593 C1592 1.399 . S
C1593 C1594 1.376 . S
C1594 H1581 0.930 . S
C1594 C1593 1.376 . S
C1594 C1595 1.388 . S
C1595 H1582 0.930 . S
C1595 C1594 1.388 . S
C1595 C1596 1.390 . S
C1596 C1595 1.390 . S
C1596 C1597 1.394 . S
C1596 C1602 1.465 . S
C1597 C1592 1.399 . S
C1597 C1596 1.394 . S
C1597 C1598 1.516 . S
C1598 C1597 1.516 . S
C1598 C1599 1.502 . S
C1598 C1600 1.561 . S
C1598 C1601 1.526 . S
C1599 H1583 0.959 . S
C1599 H1584 0.959 . S
C1599 H1585 0.961 . S
C1599 C1598 1.502 . S
C1600 H1586 0.960 . S
C1600 H1587 0.961 . S
C1600 H1588 0.959 . S
C1600 C1598 1.561 . S
C1601 C1598 1.526 . S
C1601 C1602 1.396 . S
C1601 C1606 1.390 . S
C1602 C1596 1.465 . S
C1602 C1601 1.396 . S
C1602 C1603 1.399 . S
C1603 H1589 0.929 . S
C1603 C1602 1.399 . S
C1603 C1604 1.385 . S
C1604 H1590 0.931 . S
C1604 C1603 1.385 . S
C1604 C1605 1.389 . S
C1605 C1604 1.389 . S
C1605 C1606 1.387 . S
C1606 H1591 0.930 . S
C1606 C1601 1.390 . S
C1606 C1605 1.387 . S
H1607 C1619 0.930 . S
H1608 C1621 0.930 . S
H1609 C1622 0.930 . S
H1610 C1626 0.959 . S
H1611 C1626 0.959 . S
H1612 C1626 0.961 . S
H1613 C1627 0.960 . S
H1614 C1627 0.961 . S
H1615 C1627 0.959 . S
H1616 C1630 0.929 . S
H1617 C1631 0.931 . S
H1618 C1633 0.930 . S
C1619 H1607 0.930 . S
C1619 C1620 1.399 . S
C1619 C1624 1.399 . S
C1620 C1619 1.399 . S
C1620 C1621 1.376 . S
C1621 H1608 0.930 . S
C1621 C1620 1.376 . S
C1621 C1622 1.388 . S
C1622 H1609 0.930 . S
C1622 C1621 1.388 . S
C1622 C1623 1.390 . S
C1623 C1622 1.390 . S
C1623 C1624 1.394 . S
C1623 C1629 1.465 . S
C1624 C1619 1.399 . S
C1624 C1623 1.394 . S
C1624 C1625 1.516 . S
C1625 C1624 1.516 . S
C1625 C1626 1.502 . S
C1625 C1627 1.561 . S
C1625 C1628 1.526 . S
C1626 H1610 0.959 . S
C1626 H1611 0.959 . S
C1626 H1612 0.961 . S
C1626 C1625 1.502 . S
C1627 H1613 0.960 . S
C1627 H1614 0.961 . S
C1627 H1615 0.959 . S
C1627 C1625 1.561 . S
C1628 C1625 1.526 . S
C1628 C1629 1.396 . S
C1628 C1633 1.390 . S
C1629 C1623 1.465 . S
C1629 C1628 1.396 . S
C1629 C1630 1.399 . S
C1630 H1616 0.929 . S
C1630 C1629 1.399 . S
C1630 C1631 1.385 . S
C1631 H1617 0.931 . S
C1631 C1630 1.385 . S
C1631 C1632 1.389 . S
C1632 C1631 1.389 . S
C1632 C1633 1.387 . S
C1633 H1618 0.930 . S
C1633 C1628 1.390 . S
C1633 C1632 1.387 . S
H1634 C1646 0.930 . S
H1635 C1648 0.930 . S
H1636 C1649 0.930 . S
H1637 C1653 0.959 . S
H1638 C1653 0.959 . S
H1639 C1653 0.961 . S
H1640 C1654 0.960 . S
H1641 C1654 0.961 . S
H1642 C1654 0.959 . S
H1643 C1657 0.929 . S
H1644 C1658 0.931 . S
H1645 C1660 0.930 . S
C1646 H1634 0.930 . S
C1646 C1647 1.399 . S
C1646 C1651 1.399 . S
C1647 C1646 1.399 . S
C1647 C1648 1.376 . S
C1648 H1635 0.930 . S
C1648 C1647 1.376 . S
C1648 C1649 1.388 . S
C1649 H1636 0.930 . S
C1649 C1648 1.388 . S
C1649 C1650 1.390 . S
C1650 C1649 1.390 . S
C1650 C1651 1.394 . S
C1650 C1656 1.465 . S
C1651 C1646 1.399 . S
C1651 C1650 1.394 . S
C1651 C1652 1.516 . S
C1652 C1651 1.516 . S
C1652 C1653 1.502 . S
C1652 C1654 1.561 . S
C1652 C1655 1.526 . S
C1653 H1637 0.959 . S
C1653 H1638 0.959 . S
C1653 H1639 0.961 . S
C1653 C1652 1.502 . S
C1654 H1640 0.960 . S
C1654 H1641 0.961 . S
C1654 H1642 0.959 . S
C1654 C1652 1.561 . S
C1655 C1652 1.526 . S
C1655 C1656 1.396 . S
C1655 C1660 1.390 . S
C1656 C1650 1.465 . S
C1656 C1655 1.396 . S
C1656 C1657 1.399 . S
C1657 H1643 0.929 . S
C1657 C1656 1.399 . S
C1657 C1658 1.385 . S
C1658 H1644 0.931 . S
C1658 C1657 1.385 . S
C1658 C1659 1.389 . S
C1659 C1658 1.389 . S
C1659 C1660 1.387 . S
C1660 H1645 0.930 . S
C1660 C1655 1.390 . S
C1660 C1659 1.387 . S
H1661 C1673 0.930 . S
H1662 C1675 0.930 . S
H1663 C1676 0.930 . S
H1664 C1680 0.959 . S
H1665 C1680 0.959 . S
H1666 C1680 0.961 . S
H1667 C1681 0.960 . S
H1668 C1681 0.961 . S
H1669 C1681 0.959 . S
H1670 C1684 0.929 . S
H1671 C1685 0.931 . S
H1672 C1687 0.930 . S
C1673 H1661 0.930 . S
C1673 C1674 1.399 . S
C1673 C1678 1.399 . S
C1674 C1673 1.399 . S
C1674 C1675 1.376 . S
C1675 H1662 0.930 . S
C1675 C1674 1.376 . S
C1675 C1676 1.388 . S
C1676 H1663 0.930 . S
C1676 C1675 1.388 . S
C1676 C1677 1.390 . S
C1677 C1676 1.390 . S
C1677 C1678 1.394 . S
C1677 C1683 1.465 . S
C1678 C1673 1.399 . S
C1678 C1677 1.394 . S
C1678 C1679 1.516 . S
C1679 C1678 1.516 . S
C1679 C1680 1.502 . S
C1679 C1681 1.561 . S
C1679 C1682 1.526 . S
C1680 H1664 0.959 . S
C1680 H1665 0.959 . S
C1680 H1666 0.961 . S
C1680 C1679 1.502 . S
C1681 H1667 0.960 . S
C1681 H1668 0.961 . S
C1681 H1669 0.959 . S
C1681 C1679 1.561 . S
C1682 C1679 1.526 . S
C1682 C1683 1.396 . S
C1682 C1687 1.390 . S
C1683 C1677 1.465 . S
C1683 C1682 1.396 . S
C1683 C1684 1.399 . S
C1684 H1670 0.929 . S
C1684 C1683 1.399 . S
C1684 C1685 1.385 . S
C1685 H1671 0.931 . S
C1685 C1684 1.385 . S
C1685 C1686 1.389 . S
C1686 C1685 1.389 . S
C1686 C1687 1.387 . S
C1687 H1672 0.930 . S
C1687 C1682 1.390 . S
C1687 C1686 1.387 . S
H1688 C1700 0.930 . S
H1689 C1702 0.930 . S
H1690 C1703 0.930 . S
H1691 C1707 0.959 . S
H1692 C1707 0.959 . S
H1693 C1707 0.961 . S
H1694 C1708 0.960 . S
H1695 C1708 0.961 . S
H1696 C1708 0.959 . S
H1697 C1711 0.929 . S
H1698 C1712 0.931 . S
H1699 C1714 0.930 . S
C1700 H1688 0.930 . S
C1700 C1701 1.399 . S
C1700 C1705 1.399 . S
C1701 C1700 1.399 . S
C1701 C1702 1.376 . S
C1702 H1689 0.930 . S
C1702 C1701 1.376 . S
C1702 C1703 1.388 . S
C1703 H1690 0.930 . S
C1703 C1702 1.388 . S
C1703 C1704 1.390 . S
C1704 C1703 1.390 . S
C1704 C1705 1.394 . S
C1704 C1710 1.465 . S
C1705 C1700 1.399 . S
C1705 C1704 1.394 . S
C1705 C1706 1.516 . S
C1706 C1705 1.516 . S
C1706 C1707 1.502 . S
C1706 C1708 1.561 . S
C1706 C1709 1.526 . S
C1707 H1691 0.959 . S
C1707 H1692 0.959 . S
C1707 H1693 0.961 . S
C1707 C1706 1.502 . S
C1708 H1694 0.960 . S
C1708 H1695 0.961 . S
C1708 H1696 0.959 . S
C1708 C1706 1.561 . S
C1709 C1706 1.526 . S
C1709 C1710 1.396 . S
C1709 C1714 1.390 . S
C1710 C1704 1.465 . S
C1710 C1709 1.396 . S
C1710 C1711 1.399 . S
C1711 H1697 0.929 . S
C1711 C1710 1.399 . S
C1711 C1712 1.385 . S
C1712 H1698 0.931 . S
C1712 C1711 1.385 . S
C1712 C1713 1.389 . S
C1713 C1712 1.389 . S
C1713 C1714 1.387 . S
C1714 H1699 0.930 . S
C1714 C1709 1.390 . S
C1714 C1713 1.387 . S
H1715 C1727 0.930 . S
H1716 C1729 0.930 . S
H1717 C1730 0.930 . S
H1718 C1734 0.959 . S
H1719 C1734 0.959 . S
H1720 C1734 0.961 . S
H1721 C1735 0.960 . S
H1722 C1735 0.961 . S
H1723 C1735 0.959 . S
H1724 C1738 0.929 . S
H1725 C1739 0.931 . S
H1726 C1741 0.930 . S
C1727 H1715 0.930 . S
C1727 C1728 1.399 . S
C1727 C1732 1.399 . S
C1728 C1727 1.399 . S
C1728 C1729 1.376 . S
C1729 H1716 0.930 . S
C1729 C1728 1.376 . S
C1729 C1730 1.388 . S
C1730 H1717 0.930 . S
C1730 C1729 1.388 . S
C1730 C1731 1.390 . S
C1731 C1730 1.390 . S
C1731 C1732 1.394 . S
C1731 C1737 1.465 . S
C1732 C1727 1.399 . S
C1732 C1731 1.394 . S
C1732 C1733 1.516 . S
C1733 C1732 1.516 . S
C1733 C1734 1.502 . S
C1733 C1735 1.561 . S
C1733 C1736 1.526 . S
C1734 H1718 0.959 . S
C1734 H1719 0.959 . S
C1734 H1720 0.961 . S
C1734 C1733 1.502 . S
C1735 H1721 0.960 . S
C1735 H1722 0.961 . S
C1735 H1723 0.959 . S
C1735 C1733 1.561 . S
C1736 C1733 1.526 . S
C1736 C1737 1.396 . S
C1736 C1741 1.390 . S
C1737 C1731 1.465 . S
C1737 C1736 1.396 . S
C1737 C1738 1.399 . S
C1738 H1724 0.929 . S
C1738 C1737 1.399 . S
C1738 C1739 1.385 . S
C1739 H1725 0.931 . S
C1739 C1738 1.385 . S
C1739 C1740 1.389 . S
C1740 C1739 1.389 . S
C1740 C1741 1.387 . S
C1741 H1726 0.930 . S
C1741 C1736 1.390 . S
C1741 C1740 1.387 . S
H1742 C1754 0.930 . S
H1743 C1756 0.930 . S
H1744 C1757 0.930 . S
H1745 C1761 0.959 . S
H1746 C1761 0.959 . S
H1747 C1761 0.961 . S
H1748 C1762 0.960 . S
H1749 C1762 0.961 . S
H1750 C1762 0.959 . S
H1751 C1765 0.929 . S
H1752 C1766 0.931 . S
H1753 C1768 0.930 . S
C1754 H1742 0.930 . S
C1754 C1755 1.399 . S
C1754 C1759 1.399 . S
C1755 C1754 1.399 . S
C1755 C1756 1.376 . S
C1756 H1743 0.930 . S
C1756 C1755 1.376 . S
C1756 C1757 1.388 . S
C1757 H1744 0.930 . S
C1757 C1756 1.388 . S
C1757 C1758 1.390 . S
C1758 C1757 1.390 . S
C1758 C1759 1.394 . S
C1758 C1764 1.465 . S
C1759 C1754 1.399 . S
C1759 C1758 1.394 . S
C1759 C1760 1.516 . S
C1760 C1759 1.516 . S
C1760 C1761 1.502 . S
C1760 C1762 1.561 . S
C1760 C1763 1.526 . S
C1761 H1745 0.959 . S
C1761 H1746 0.959 . S
C1761 H1747 0.961 . S
C1761 C1760 1.502 . S
C1762 H1748 0.960 . S
C1762 H1749 0.961 . S
C1762 H1750 0.959 . S
C1762 C1760 1.561 . S
C1763 C1760 1.526 . S
C1763 C1764 1.396 . S
C1763 C1768 1.390 . S
C1764 C1758 1.465 . S
C1764 C1763 1.396 . S
C1764 C1765 1.399 . S
C1765 H1751 0.929 . S
C1765 C1764 1.399 . S
C1765 C1766 1.385 . S
C1766 H1752 0.931 . S
C1766 C1765 1.385 . S
C1766 C1767 1.389 . S
C1767 C1766 1.389 . S
C1767 C1768 1.387 . S
C1768 H1753 0.930 . S
C1768 C1763 1.390 . S
C1768 C1767 1.387 . S
H1769 C1781 0.930 . S
H1770 C1783 0.930 . S
H1771 C1784 0.930 . S
H1772 C1788 0.959 . S
H1773 C1788 0.959 . S
H1774 C1788 0.961 . S
H1775 C1789 0.960 . S
H1776 C1789 0.961 . S
H1777 C1789 0.959 . S
H1778 C1792 0.929 . S
H1779 C1793 0.931 . S
H1780 C1795 0.930 . S
C1781 H1769 0.930 . S
C1781 C1782 1.399 . S
C1781 C1786 1.399 . S
C1782 C1781 1.399 . S
C1782 C1783 1.376 . S
C1783 H1770 0.930 . S
C1783 C1782 1.376 . S
C1783 C1784 1.388 . S
C1784 H1771 0.930 . S
C1784 C1783 1.388 . S
C1784 C1785 1.390 . S
C1785 C1784 1.390 . S
C1785 C1786 1.394 . S
C1785 C1791 1.465 . S
C1786 C1781 1.399 . S
C1786 C1785 1.394 . S
C1786 C1787 1.516 . S
C1787 C1786 1.516 . S
C1787 C1788 1.502 . S
C1787 C1789 1.561 . S
C1787 C1790 1.526 . S
C1788 H1772 0.959 . S
C1788 H1773 0.959 . S
C1788 H1774 0.961 . S
C1788 C1787 1.502 . S
C1789 H1775 0.960 . S
C1789 H1776 0.961 . S
C1789 H1777 0.959 . S
C1789 C1787 1.561 . S
C1790 C1787 1.526 . S
C1790 C1791 1.396 . S
C1790 C1795 1.390 . S
C1791 C1785 1.465 . S
C1791 C1790 1.396 . S
C1791 C1792 1.399 . S
C1792 H1778 0.929 . S
C1792 C1791 1.399 . S
C1792 C1793 1.385 . S
C1793 H1779 0.931 . S
C1793 C1792 1.385 . S
C1793 C1794 1.389 . S
C1794 C1793 1.389 . S
C1794 C1795 1.387 . S
C1795 H1780 0.930 . S
C1795 C1790 1.390 . S
C1795 C1794 1.387 . S
H1796 C1808 0.930 . S
H1797 C1810 0.930 . S
H1798 C1811 0.930 . S
H1799 C1815 0.959 . S
H1800 C1815 0.959 . S
H1801 C1815 0.961 . S
H1802 C1816 0.960 . S
H1803 C1816 0.961 . S
H1804 C1816 0.959 . S
H1805 C1819 0.929 . S
H1806 C1820 0.931 . S
H1807 C1822 0.930 . S
C1808 H1796 0.930 . S
C1808 C1809 1.399 . S
C1808 C1813 1.399 . S
C1809 C1808 1.399 . S
C1809 C1810 1.376 . S
C1810 H1797 0.930 . S
C1810 C1809 1.376 . S
C1810 C1811 1.388 . S
C1811 H1798 0.930 . S
C1811 C1810 1.388 . S
C1811 C1812 1.390 . S
C1812 C1811 1.390 . S
C1812 C1813 1.394 . S
C1812 C1818 1.465 . S
C1813 C1808 1.399 . S
C1813 C1812 1.394 . S
C1813 C1814 1.516 . S
C1814 C1813 1.516 . S
C1814 C1815 1.502 . S
C1814 C1816 1.561 . S
C1814 C1817 1.526 . S
C1815 H1799 0.959 . S
C1815 H1800 0.959 . S
C1815 H1801 0.961 . S
C1815 C1814 1.502 . S
C1816 H1802 0.960 . S
C1816 H1803 0.961 . S
C1816 H1804 0.959 . S
C1816 C1814 1.561 . S
C1817 C1814 1.526 . S
C1817 C1818 1.396 . S
C1817 C1822 1.390 . S
C1818 C1812 1.465 . S
C1818 C1817 1.396 . S
C1818 C1819 1.399 . S
C1819 H1805 0.929 . S
C1819 C1818 1.399 . S
C1819 C1820 1.385 . S
C1820 H1806 0.931 . S
C1820 C1819 1.385 . S
C1820 C1821 1.389 . S
C1821 C1820 1.389 . S
C1821 C1822 1.387 . S
C1822 H1807 0.930 . S
C1822 C1817 1.390 . S
C1822 C1821 1.387 . S
H1823 C1835 0.930 . S
H1824 C1837 0.930 . S
H1825 C1838 0.930 . S
H1826 C1842 0.959 . S
H1827 C1842 0.959 . S
H1828 C1842 0.961 . S
H1829 C1843 0.960 . S
H1830 C1843 0.961 . S
H1831 C1843 0.959 . S
H1832 C1846 0.929 . S
H1833 C1847 0.931 . S
H1834 C1849 0.930 . S
C1835 H1823 0.930 . S
C1835 C1836 1.399 . S
C1835 C1840 1.399 . S
C1836 C1835 1.399 . S
C1836 C1837 1.376 . S
C1837 H1824 0.930 . S
C1837 C1836 1.376 . S
C1837 C1838 1.388 . S
C1838 H1825 0.930 . S
C1838 C1837 1.388 . S
C1838 C1839 1.390 . S
C1839 C1838 1.390 . S
C1839 C1840 1.394 . S
C1839 C1845 1.465 . S
C1840 C1835 1.399 . S
C1840 C1839 1.394 . S
C1840 C1841 1.516 . S
C1841 C1840 1.516 . S
C1841 C1842 1.502 . S
C1841 C1843 1.561 . S
C1841 C1844 1.526 . S
C1842 H1826 0.959 . S
C1842 H1827 0.959 . S
C1842 H1828 0.961 . S
C1842 C1841 1.502 . S
C1843 H1829 0.960 . S
C1843 H1830 0.961 . S
C1843 H1831 0.959 . S
C1843 C1841 1.561 . S
C1844 C1841 1.526 . S
C1844 C1845 1.396 . S
C1844 C1849 1.390 . S
C1845 C1839 1.465 . S
C1845 C1844 1.396 . S
C1845 C1846 1.399 . S
C1846 H1832 0.929 . S
C1846 C1845 1.399 . S
C1846 C1847 1.385 . S
C1847 H1833 0.931 . S
C1847 C1846 1.385 . S
C1847 C1848 1.389 . S
C1848 C1847 1.389 . S
C1848 C1849 1.387 . S
C1849 H1834 0.930 . S
C1849 C1844 1.390 . S
C1849 C1848 1.387 . S
H1850 C1862 0.930 . S
H1851 C1864 0.930 . S
H1852 C1865 0.930 . S
H1853 C1869 0.959 . S
H1854 C1869 0.959 . S
H1855 C1869 0.961 . S
H1856 C1870 0.960 . S
H1857 C1870 0.961 . S
H1858 C1870 0.959 . S
H1859 C1873 0.929 . S
H1860 C1874 0.931 . S
H1861 C1876 0.930 . S
C1862 H1850 0.930 . S
C1862 C1863 1.399 . S
C1862 C1867 1.399 . S
C1863 C1862 1.399 . S
C1863 C1864 1.376 . S
C1864 H1851 0.930 . S
C1864 C1863 1.376 . S
C1864 C1865 1.388 . S
C1865 H1852 0.930 . S
C1865 C1864 1.388 . S
C1865 C1866 1.390 . S
C1866 C1865 1.390 . S
C1866 C1867 1.394 . S
C1866 C1872 1.465 . S
C1867 C1862 1.399 . S
C1867 C1866 1.394 . S
C1867 C1868 1.516 . S
C1868 C1867 1.516 . S
C1868 C1869 1.502 . S
C1868 C1870 1.561 . S
C1868 C1871 1.526 . S
C1869 H1853 0.959 . S
C1869 H1854 0.959 . S
C1869 H1855 0.961 . S
C1869 C1868 1.502 . S
C1870 H1856 0.960 . S
C1870 H1857 0.961 . S
C1870 H1858 0.959 . S
C1870 C1868 1.561 . S
C1871 C1868 1.526 . S
C1871 C1872 1.396 . S
C1871 C1876 1.390 . S
C1872 C1866 1.465 . S
C1872 C1871 1.396 . S
C1872 C1873 1.399 . S
C1873 H1859 0.929 . S
C1873 C1872 1.399 . S
C1873 C1874 1.385 . S
C1874 H1860 0.931 . S
C1874 C1873 1.385 . S
C1874 C1875 1.389 . S
C1875 C1874 1.389 . S
C1875 C1876 1.387 . S
C1876 H1861 0.930 . S
C1876 C1871 1.390 . S
C1876 C1875 1.387 . S
H1877 C1889 0.930 . S
H1878 C1891 0.930 . S
H1879 C1892 0.930 . S
H1880 C1896 0.959 . S
H1881 C1896 0.959 . S
H1882 C1896 0.961 . S
H1883 C1897 0.960 . S
H1884 C1897 0.961 . S
H1885 C1897 0.959 . S
H1886 C1900 0.929 . S
H1887 C1901 0.931 . S
H1888 C1903 0.930 . S
C1889 H1877 0.930 . S
C1889 C1890 1.399 . S
C1889 C1894 1.399 . S
C1890 C1889 1.399 . S
C1890 C1891 1.376 . S
C1891 H1878 0.930 . S
C1891 C1890 1.376 . S
C1891 C1892 1.388 . S
C1892 H1879 0.930 . S
C1892 C1891 1.388 . S
C1892 C1893 1.390 . S
C1893 C1892 1.390 . S
C1893 C1894 1.394 . S
C1893 C1899 1.465 . S
C1894 C1889 1.399 . S
C1894 C1893 1.394 . S
C1894 C1895 1.516 . S
C1895 C1894 1.516 . S
C1895 C1896 1.502 . S
C1895 C1897 1.561 . S
C1895 C1898 1.526 . S
C1896 H1880 0.959 . S
C1896 H1881 0.959 . S
C1896 H1882 0.961 . S
C1896 C1895 1.502 . S
C1897 H1883 0.960 . S
C1897 H1884 0.961 . S
C1897 H1885 0.959 . S
C1897 C1895 1.561 . S
C1898 C1895 1.526 . S
C1898 C1899 1.396 . S
C1898 C1903 1.390 . S
C1899 C1893 1.465 . S
C1899 C1898 1.396 . S
C1899 C1900 1.399 . S
C1900 H1886 0.929 . S
C1900 C1899 1.399 . S
C1900 C1901 1.385 . S
C1901 H1887 0.931 . S
C1901 C1900 1.385 . S
C1901 C1902 1.389 . S
C1902 C1901 1.389 . S
C1902 C1903 1.387 . S
C1903 H1888 0.930 . S
C1903 C1898 1.390 . S
C1903 C1902 1.387 . S
C1065 C961 1.511 . S
C1053 C11 1.070 . S
C1080 C143 1.066 . S
C1092 C993 1.434 . S
C1107 C283 1.036 . S
C1119 C1016 1.573 . S
C1146 C920 1.375 . S
C1134 C343 1.220 . S
C1173 C1003 1.471 . S
C1161 C55 1.027 . S
C1200 C1032 1.289 . S
C1188 C115 1.194 . S
C1227 C936 1.302 . S
C1215 C239 0.881 . S
C1254 C971 1.361 . S
C1242 C371 1.022 . S
C1269 C29 1.112 . S
C1281 C999 1.337 . S
C1296 C467 0.847 . S
C1308 C974 1.390 . S
C1323 C229 0.945 . S
C1335 C942 1.213 . S
C1362 C1031 1.447 . S
C1350 C625 1.210 . S
C1389 C975 1.330 . S
C1377 C1 1.143 . S
C1404 C511 1.071 . S
C1416 C943 1.502 . S
C1431 C257 1.160 . S
C1443 C1030 1.432 . S
C1470 C998 1.484 . S
C1458 C581 0.978 . S
C1485 C713 1.156 . S
C1497 C1025 1.483 . S
C1512 C485 1.050 . S
C1524 C929 1.421 . S
C1539 C799 1.146 . S
C1551 C952 1.373 . S
C1566 C571 1.116 . S
C1578 C984 1.384 . S
C1605 C939 1.159 . S
C1593 C685 1.025 . S
C1620 C457 1.038 . S
C1632 C968 1.142 . S
C1647 C827 1.060 . S
C1659 C1000 1.356 . S
C1686 C1035 1.252 . S
C1674 C599 1.184 . S
C1701 C695 0.875 . S
C1713 C935 1.298 . S
C1728 C125 0.855 . S
C1740 C1038 1.405 . S
C1755 C853 1.186 . S
C1767 C1006 1.325 . S
C1794 C967 1.383 . S
C1782 C397 1.094 . S
C1821 C1039 1.559 . S
C1809 C739 1.229 . S
C1848 C1007 1.519 . S
C1836 C169 1.087 . S
C1875 C966 1.508 . S
C1863 C809 0.849 . S
C1902 C934 1.537 . S
C1890 C353 0.800 . S
