# Generated by pormake.
# Topology pyr, (3,6)-cn, num edge types: 1
# Building blocks:
#     Node 0, Type 0, BuildingBlock: MIDCAF_clean_linker_0, # of connection points: 3
#     Node 1, Type 0, BuildingBlock: MIDCAF_clean_linker_0, # of connection points: 3
#     Node 2, Type 0, BuildingBlock: MIDCAF_clean_linker_0, # of connection points: 3
#     Node 3, Type 0, BuildingBlock: MIDCAF_clean_linker_0, # of connection points: 3
#     Node 4, Type 0, BuildingBlock: MIDCAF_clean_linker_0, # of connection points: 3
#     Node 5, Type 0, BuildingBlock: MIDCAF_clean_linker_0, # of connection points: 3
#     Node 6, Type 0, BuildingBlock: MIDCAF_clean_linker_0, # of connection points: 3
#     Node 7, Type 0, BuildingBlock: MIDCAF_clean_linker_0, # of connection points: 3
#     Node 8, Type 1, BuildingBlock: LEVNOQ01_clean_sbu_1, # of connection points: 6
#     Node 9, Type 1, BuildingBlock: LEVNOQ01_clean_sbu_1, # of connection points: 6
#     Node 10, Type 1, BuildingBlock: LEVNOQ01_clean_sbu_1, # of connection points: 6
#     Node 11, Type 1, BuildingBlock: LEVNOQ01_clean_sbu_1, # of connection points: 6
#     Edge 12, Type (0, 1), None
#     Edge 13, Type (0, 1), None
#     Edge 14, Type (0, 1), None
#     Edge 15, Type (0, 1), None
#     Edge 16, Type (0, 1), None
#     Edge 17, Type (0, 1), None
#     Edge 18, Type (0, 1), None
#     Edge 19, Type (0, 1), None
#     Edge 20, Type (0, 1), None
#     Edge 21, Type (0, 1), None
#     Edge 22, Type (0, 1), None
#     Edge 23, Type (0, 1), None
#     Edge 24, Type (0, 1), None
#     Edge 25, Type (0, 1), None
#     Edge 26, Type (0, 1), None
#     Edge 27, Type (0, 1), None
#     Edge 28, Type (0, 1), None
#     Edge 29, Type (0, 1), None
#     Edge 30, Type (0, 1), None
#     Edge 31, Type (0, 1), None
#     Edge 32, Type (0, 1), None
#     Edge 33, Type (0, 1), None
#     Edge 34, Type (0, 1), None
#     Edge 35, Type (0, 1), None
# Relax obj value: 0.035
# Max RMSD: 0.110
# Mean RMSD: 0.047
data_MOF--net-pry--node1-LEVNOQ01_clean_sbu_1--node2-MIDCAF_clean_linker_0--edge1-none
_symmetry_space_group_name_H-M    P1
_symmetry_Int_Tables_number       1
_symmetry_cell_setting            triclinic
loop_
_symmetry_equiv_pos_as_xyz
'x, y, z'
_cell_length_a     25.611725
_cell_length_b     24.30398
_cell_length_c     23.916999
_cell_angle_alpha  91.857623
_cell_angle_beta   91.523743
_cell_angle_gamma 92.838661
loop_
_atom_site_label
_atom_site_type_symbol
_atom_site_fract_x
_atom_site_fract_y
_atom_site_fract_z
_atom_type_partial_charge
C0 C 0.05357 0.08867 0.31437 0.0
C1 C 0.06351 0.03336 0.32386 0.0
C2 C 0.093 0.0044 0.28509 0.0
C3 C 0.11104 0.02956 0.23706 0.0
H4 H 0.23783 0.0315 0.12958 0.0
H5 H 0.3242 0.01404 0.09357 0.0
H6 H 0.30119 0.13278 0.96599 0.0
H7 H 0.21545 0.15022 0.00125 0.0
H8 H 0.13688 0.24729 0.02368 0.0
H9 H 0.09477 0.33105 0.9961 0.0
H10 H 0.96412 0.28772 0.09925 0.0
H11 H 0.00618 0.20536 0.12743 0.0
H12 H 0.06107 0.15575 0.25834 0.0
H13 H 0.03039 0.11175 0.34325 0.0
H14 H 0.10105 0.96162 0.29123 0.0
H15 H 0.13282 0.00555 0.20764 0.0
N16 N 0.15659 0.08946 0.14517 0.0
N17 N 0.14544 0.15373 0.0753 0.0
N18 N 0.08875 0.1507 0.15074 0.0
C19 C 0.17209 0.11167 0.09652 0.0
C20 C 0.10351 0.17323 0.10179 0.0
C21 C 0.11511 0.10878 0.17266 0.0
C22 C 0.22009 0.09342 0.06927 0.0
C23 C 0.2507 0.05306 0.09308 0.0
C24 C 0.30004 0.04257 0.07221 0.0
C25 C 0.31963 0.07255 0.02747 0.0
C26 C 0.28727 0.10942 0.00094 0.0
C27 C 0.23808 0.11961 0.02141 0.0
C28 C 0.07546 0.22015 0.0789 0.0
C29 C 0.09874 0.25525 0.03972 0.0
C30 C 0.07446 0.30308 0.02347 0.0
C31 C 0.0263 0.3164 0.04576 0.0
C32 C 0.00147 0.27906 0.08157 0.0
C33 C 0.0258 0.23185 0.09815 0.0
C34 C 0.09891 0.08396 0.22587 0.0
C35 C 0.07059 0.11357 0.26545 0.0
C36 C 0.18352 0.95857 0.6293 0.0
C37 C 0.1559 0.9484 0.57822 0.0
C38 C 0.17869 0.91597 0.53642 0.0
C39 C 0.22841 0.89492 0.54565 0.0
H40 H 0.33478 0.74067 0.53165 0.0
H41 H 0.37808 0.65405 0.51472 0.0
H42 H 0.52729 0.73621 0.55837 0.0
H43 H 0.48485 0.82261 0.57326 0.0
H44 H 0.46707 0.84191 0.71945 0.0
H45 H 0.5033 0.86049 0.81333 0.0
H46 H 0.39489 0.98905 0.83869 0.0
H47 H 0.35783 0.97002 0.74444 0.0
H48 H 0.25209 0.94757 0.67848 0.0
H49 H 0.16751 0.98317 0.66268 0.0
H50 H 0.15842 0.9073 0.49655 0.0
H51 H 0.24526 0.87054 0.51267 0.0
N52 N 0.33224 0.84922 0.57363 0.0
N53 N 0.40605 0.85227 0.63453 0.0
N54 N 0.33579 0.90562 0.65575 0.0
C55 C 0.3812 0.83259 0.58666 0.0
C56 C 0.38379 0.88851 0.6694 0.0
C57 C 0.30964 0.88675 0.60809 0.0
C58 C 0.40628 0.7881 0.55497 0.0
C59 C 0.37707 0.74095 0.53433 0.0
C60 C 0.40191 0.69136 0.52461 0.0
C61 C 0.45593 0.6886 0.53585 0.0
C62 C 0.48566 0.73733 0.54939 0.0
C63 C 0.46116 0.78672 0.55819 0.0
C64 C 0.40922 0.90423 0.72439 0.0
C65 C 0.45114 0.87457 0.74463 0.0
C66 C 0.47183 0.885 0.79868 0.0
C67 C 0.45162 0.92584 0.83362 0.0
C68 C 0.41119 0.95718 0.81276 0.0
C69 C 0.38993 0.94622 0.75878 0.0
C70 C 0.25619 0.90624 0.59671 0.0
C71 C 0.23262 0.93801 0.63834 0.0
C72 C 0.62165 0.14869 0.90722 0.0
C73 C 0.56766 0.14539 0.8958 0.0
C74 C 0.54795 0.16849 0.84707 0.0
C75 C 0.5809 0.20021 0.8138 0.0
H76 H 0.57536 0.31411 0.68831 0.0
H77 H 0.52747 0.3847 0.641 0.0
H78 H 0.66248 0.49744 0.65898 0.0
H79 H 0.71134 0.42699 0.70383 0.0
H80 H 0.72435 0.44777 0.84433 0.0
H81 H 0.78658 0.50544 0.90068 0.0
H82 H 0.85231 0.3602 0.96784 0.0
H83 H 0.78869 0.3019 0.91142 0.0
H84 H 0.69538 0.18743 0.88734 0.0
H85 H 0.63747 0.13169 0.94504 0.0
H86 H 0.5062 0.16687 0.83801 0.0
H87 H 0.56359 0.22174 0.77954 0.0
N88 N 0.6471 0.28353 0.76137 0.0
N89 N 0.70445 0.3595 0.78319 0.0
N90 N 0.69942 0.28629 0.84401 0.0
C91 C 0.6687 0.33343 0.74758 0.0
C92 C 0.71982 0.3367 0.83133 0.0
C93 C 0.6632 0.25917 0.80908 0.0
C94 C 0.64656 0.36555 0.70169 0.0
C95 C 0.59581 0.35283 0.67958 0.0
C96 C 0.56841 0.39315 0.65228 0.0
C97 C 0.59147 0.44632 0.64709 0.0
C98 C 0.64414 0.45659 0.66247 0.0
C99 C 0.6718 0.41621 0.68868 0.0
C100 C 0.75308 0.3703 0.872 0.0
C101 C 0.7516 0.428 0.87165 0.0
C102 C 0.78683 0.46115 0.90455 0.0
C103 C 0.8249 0.43741 0.93799 0.0
C104 C 0.82336 0.37971 0.94244 0.0
C105 C 0.78742 0.3463 0.90973 0.0
C106 C 0.63379 0.2103 0.8298 0.0
C107 C 0.65459 0.18111 0.87446 0.0
C108 C 0.68202 0.56807 0.47478 0.0
C109 C 0.65936 0.5253 0.43972 0.0
C110 C 0.68937 0.50178 0.39786 0.0
C111 C 0.74044 0.52167 0.39004 0.0
H112 H 0.83084 0.56048 0.2532 0.0
H113 H 0.86894 0.53164 0.1647 0.0
H114 H 0.0226 0.58258 0.23124 0.0
H115 H -0.01492 0.61229 0.31902 0.0
H116 H -0.00818 0.68201 0.44143 0.0
H117 H 0.02199 0.77822 0.45397 0.0
H118 H 0.87153 0.81817 0.5157 0.0
H119 H 0.84078 0.72201 0.50311 0.0
H120 H 0.74939 0.62164 0.49395 0.0
H121 H 0.65997 0.58675 0.50777 0.0
H122 H 0.67322 0.46849 0.37044 0.0
H123 H 0.76215 0.50302 0.35676 0.0
N124 N 0.83653 0.5767 0.36213 0.0
N125 N 0.90962 0.63486 0.38572 0.0
N126 N 0.8411 0.62574 0.44843 0.0
C127 C 0.88353 0.59953 0.34864 0.0
C128 C 0.88884 0.64818 0.43571 0.0
C129 C 0.81527 0.58903 0.41204 0.0
C130 C 0.90522 0.58755 0.29338 0.0
C131 C 0.87267 0.5664 0.24853 0.0
C132 C 0.89417 0.55074 0.19767 0.0
C133 C 0.9484 0.55525 0.19162 0.0
C134 C 0.98051 0.57916 0.23519 0.0
C135 C 0.95907 0.59573 0.28547 0.0
C136 C 0.91329 0.69517 0.46901 0.0
C137 C 0.96608 0.71065 0.46082 0.0
C138 C -0.01633 0.76563 0.46862 0.0
C139 C 0.94869 0.80521 0.48489 0.0
C140 C 0.89919 0.78799 0.50336 0.0
C141 C 0.88148 0.73288 0.49568 0.0
C142 C 0.76274 0.56545 0.424 0.0
C143 C 0.73334 0.58789 0.46709 0.0
C144 C 0.68365 0.97294 0.93976 0.0
C145 C 0.66702 0.94869 0.98918 0.0
C146 C 0.70044 0.91344 0.01667 0.0
C147 C 0.7473 0.89902 0.99305 0.0
H148 H 0.83691 0.75607 0.98152 0.0
H149 H 0.8773 0.67036 0.00675 0.0
H150 H 0.01043 0.71545 0.90784 0.0
H151 H 0.97017 0.79951 0.88206 0.0
H152 H 0.91827 0.84552 0.75168 0.0
H153 H 0.95098 0.88629 0.6662 0.0
H154 H 0.87736 0.03729 0.70926 0.0
H155 H 0.84389 -0.0034 0.79372 0.0
H156 H 0.74114 0.97557 0.87627 0.0
H157 H 0.65871 9e-05 0.91749 0.0
H158 H 0.68895 0.89443 0.05512 0.0
H159 H 0.77069 0.86982 0.01441 0.0
N160 N 0.83273 0.85401 0.9335 0.0
N161 N 0.88731 0.8526 0.85628 0.0
N162 N 0.82274 0.91749 0.86246 0.0
C163 C 0.87287 0.83178 0.90604 0.0
C164 C 0.86245 0.89533 0.83414 0.0
C165 C 0.80761 0.89716 0.91217 0.0
C166 C 0.89977 0.78404 0.92862 0.0
C167 C 0.87526 0.74801 0.96607 0.0
C168 C 0.89851 0.69909 0.98091 0.0
C169 C 0.94682 0.68575 0.95888 0.0
C170 C 0.9729 0.72407 0.92513 0.0
C171 C 0.94962 0.77227 0.90996 0.0
C172 C 0.87896 0.91803 0.78001 0.0
C173 C 0.90852 0.8872 0.74253 0.0
C174 C 0.92684 0.91028 0.69326 0.0
C175 C 0.91681 0.96498 0.68111 0.0
C176 C 0.88576 -0.00499 0.71754 0.0
C177 C 0.86665 0.97168 0.76606 0.0
C178 C 0.76206 0.91944 0.94119 0.0
C179 C 0.73075 0.95838 0.91592 0.0
C180 C 0.57623 0.05767 0.20457 0.0
C181 C 0.54085 0.09427 0.1826 0.0
C182 C 0.52473 0.13784 0.21704 0.0
C183 C 0.54435 0.14551 0.27183 0.0
H184 H 0.50595 0.17821 0.45576 0.0
H185 H 0.46133 0.26148 0.47955 0.0
H186 H 0.61007 0.34794 0.51652 0.0
H187 H 0.65514 0.26407 0.49167 0.0
H188 H 0.75321 0.14363 0.49567 0.0
H189 H 0.83885 0.10285 0.50801 0.0
H190 H 0.79919 0.98818 0.36976 0.0
H191 H 0.71569 0.02725 0.35807 0.0
H192 H 0.62481 0.03783 0.2747 0.0
H193 H 0.58926 0.02366 0.17902 0.0
H194 H 0.49708 0.16645 0.20154 0.0
H195 H 0.53167 0.18016 0.29668 0.0
N196 N 0.58444 0.15799 0.38577 0.0
N197 N 0.65571 0.15189 0.44918 0.0
N198 N 0.65148 0.10047 0.36388 0.0
C199 C 0.60865 0.17289 0.43556 0.0
C200 C 0.67684 0.11456 0.41335 0.0
C201 C 0.60561 0.12208 0.34958 0.0
C202 C 0.58403 0.21506 0.47074 0.0
C203 C 0.52913 0.2143 0.47124 0.0
C204 C 0.50349 0.26197 0.485 0.0
C205 C 0.53219 0.31139 0.49885 0.0
C206 C 0.58693 0.31032 0.50604 0.0
C207 C 0.6128 0.26231 0.49184 0.0
C208 C 0.72756 0.08934 0.42546 0.0
C209 C 0.76291 0.10944 0.46837 0.0
C210 C 0.81195 0.08622 0.47532 0.0
C211 C 0.82627 0.04276 0.43935 0.0
C212 C 0.79016 0.02212 0.39776 0.0
C213 C 0.74178 0.04479 0.39107 0.0
C214 C 0.58123 0.11027 0.29333 0.0
C215 C 0.5966 0.06589 0.25931 0.0
C216 C 0.19237 0.53005 0.08024 0.0
C217 C 0.15166 0.55837 0.05592 0.0
C218 C 0.15599 0.61631 0.05511 0.0
C219 C 0.19804 0.64544 0.08312 0.0
H220 H 0.2955 0.79656 0.10275 0.0
H221 H 0.34906 0.86608 0.05592 0.0
H222 H 0.4792 0.83738 0.16715 0.0
H223 H 0.42618 0.76843 0.21474 0.0
H224 H 0.39658 0.67159 0.32056 0.0
H225 H 0.44263 0.60997 0.38264 0.0
H226 H 0.37356 0.4688 0.2889 0.0
H227 H 0.3271 0.52881 0.22862 0.0
H228 H 0.26345 0.53561 0.12871 0.0
H229 H 0.19041 0.48543 0.08088 0.0
H230 H 0.12503 0.63919 0.03667 0.0
H231 H 0.19898 0.69007 0.0851 0.0
N232 N 0.29295 0.69819 0.14266 0.0
N233 N 0.35204 0.69305 0.21935 0.0
N234 N 0.29572 0.61752 0.19296 0.0
C235 C 0.33148 0.72234 0.17695 0.0
C236 C 0.33373 0.64055 0.22778 0.0
C237 C 0.27517 0.64558 0.15051 0.0
C238 C 0.35703 0.77565 0.16146 0.0
C239 C 0.33485 0.80661 0.11889 0.0
C240 C 0.3652 0.84699 0.09243 0.0
C241 C 0.41796 0.85689 0.10821 0.0
C242 C 0.43827 0.8308 0.15489 0.0
C243 C 0.40789 0.7909 0.18177 0.0
C244 C 0.3585 0.6053 0.2693 0.0
C245 C 0.3907 0.6274 0.31392 0.0
C246 C 0.41663 0.59225 0.34963 0.0
C247 C 0.41158 0.53479 0.34017 0.0
C248 C 0.37813 0.51294 0.29695 0.0
C249 C 0.35152 0.54762 0.26237 0.0
C250 C 0.23593 0.61682 0.11221 0.0
C251 C 0.23398 0.55892 0.10812 0.0
C252 C 0.09605 0.20423 0.5108 0.0
C253 C 0.04484 0.18847 0.52502 0.0
C254 C 0.00975 0.22904 0.53795 0.0
C255 C 0.02811 0.28369 0.54656 0.0
H256 H -0.00057 0.39429 0.67996 0.0
H257 H 0.9559 0.42797 0.76277 0.0
H258 H 0.10533 0.45873 0.84877 0.0
H259 H 0.14941 0.42594 0.76534 0.0
H260 H 0.23788 0.46461 0.68372 0.0
H261 H 0.32698 0.49926 0.67582 0.0
H262 H 0.33504 0.41553 0.51409 0.0
H263 H 0.24469 0.38018 0.52207 0.0
H264 H 0.15594 0.2687 0.51516 0.0
H265 H 0.12372 0.17323 0.50104 0.0
H266 H 0.97008 0.21749 0.54926 0.0
H267 H 0.00169 0.31314 0.56331 0.0
N268 N 0.07987 0.35979 0.62453 0.0
N269 N 0.15364 0.41326 0.6561 0.0
N270 N 0.1551 0.36353 0.57054 0.0
C271 C 0.10411 0.39398 0.66396 0.0
C272 C 0.17929 0.39885 0.60942 0.0
C273 C 0.10501 0.34427 0.57771 0.0
C274 C 0.07774 0.40859 0.71589 0.0
C275 C 0.023 0.40742 0.71672 0.0
C276 C -0.00186 0.42648 0.76408 0.0
C277 C 0.02751 0.44587 0.81173 0.0
C278 C 0.08203 0.44351 0.81253 0.0
C279 C 0.10708 0.42548 0.76462 0.0
C280 C 0.23391 0.41963 0.60339 0.0
C281 C 0.25834 0.45332 0.64632 0.0
C282 C 0.30975 0.47323 0.64189 0.0
C283 C 0.3382 0.46016 0.59436 0.0
C284 C 0.31409 0.42629 0.55132 0.0
C285 C 0.26234 0.40612 0.55583 0.0
C286 C 0.08179 0.29775 0.54279 0.0
C287 C 0.11452 0.25897 0.5193 0.0
O288 O 0.95677 0.04379 0.64236 0.0
Mg289 Mg 0.02291 0.05227 0.5939 0.0
O290 O 0.96018 0.96753 0.59242 0.0
Mg291 Mg -0.00616 -0.0026 0.50406 0.0
O292 O 0.01733 0.09217 0.52003 0.0
O293 O 0.04869 0.13109 0.60167 0.0
O294 O 0.02674 0.02665 0.41562 0.0
O295 O 0.90921 0.02757 0.48538 0.0
Mg296 Mg 0.95857 0.94069 0.41235 0.0
O297 O 0.97155 0.9028 0.48658 0.0
O298 O 0.01975 0.95465 0.3583 0.0
O299 O 0.89072 0.98543 0.4042 0.0
O300 O 0.93808 0.86043 0.40743 0.0
C301 C 0.10456 0.97356 0.56982 0.0
C302 C 0.94378 -0.00652 0.63536 0.0
C303 C 0.03608 0.13479 0.54953 0.0
C304 C 0.03728 0.00318 0.36892 0.0
C305 C 0.8781 0.01802 0.44329 0.0
C306 C 0.95368 0.8586 0.45893 0.0
O307 O 0.08747 0.00322 0.60907 0.0
O308 O 0.07831 0.96768 0.52379 0.0
O309 O 0.39646 0.11912 0.00011 0.0
Mg310 Mg 0.47623 0.12792 0.01679 0.0
O311 O 0.40453 0.03352 0.02489 0.0
Mg312 Mg 0.4924 0.00924 0.00822 0.0
O313 O 0.52153 0.0878 0.9612 0.0
O314 O 0.51288 0.17953 0.96482 0.0
O315 O 0.5815 0.98712 0.98927 0.0
O316 O 0.46176 0.97723 0.9205 0.0
Mg317 Mg 0.51518 0.90427 0.00164 0.0
O318 O 0.46002 0.92978 0.05596 0.0
O319 O 0.59245 0.90949 0.03009 0.0
O320 O 0.4975 0.89711 0.91432 0.0
O321 O 0.48055 0.84146 0.04038 0.0
C322 C 0.52145 0.08862 0.1238 0.0
C323 C 0.37584 0.0739 0.01476 0.0
C324 C 0.53218 0.1365 0.942 0.0
C325 C 0.61202 0.95075 0.00655 0.0
C326 C 0.47153 0.93401 0.89205 0.0
C327 C 0.45455 0.87757 0.06683 0.0
O328 O 0.50334 0.13026 0.10102 0.0
O329 O 0.5225 0.04259 0.09667 0.0
O330 O 0.49463 0.63134 0.59991 0.0
Mg331 Mg 0.4875 0.55527 0.64037 0.0
O332 O 0.47142 0.59345 0.51655 0.0
Mg333 Mg 0.49689 0.50133 0.51217 0.0
O334 O 0.53154 0.50302 0.59843 0.0
O335 O 0.54805 0.52119 0.68777 0.0
O336 O 0.52551 0.40913 0.51368 0.0
O337 O 0.57668 0.52968 0.48182 0.0
Mg338 Mg 0.50394 0.44057 0.41323 0.0
O339 O 0.45852 0.5063 0.4224 0.0
O340 O 0.47672 0.36675 0.44851 0.0
O341 O 0.58555 0.46508 0.41607 0.0
O342 O 0.46436 0.45719 0.34188 0.0
C343 C 0.39221 0.48319 0.58976 0.0
C344 C 0.4776 0.63556 0.54997 0.0
C345 C 0.55776 0.49303 0.64306 0.0
C346 C 0.50698 0.36412 0.49054 0.0
C347 C 0.60458 0.50565 0.44623 0.0
C348 C 0.44539 0.49746 0.36989 0.0
O349 O 0.41206 0.5136 0.63017 0.0
O350 O 0.41709 0.47345 0.54519 0.0
O351 O 0.97617 0.38883 0.07806 0.0
Mg352 Mg 0.00838 0.46991 0.07874 0.0
O353 O 0.02421 0.40831 0.00782 0.0
Mg354 Mg -0.01365 0.50077 0.0011 0.0
O355 O 0.95731 0.52825 0.09425 0.0
O356 O 0.00895 0.49303 0.15985 0.0
O357 O 0.94838 0.59282 0.99444 0.0
O358 O 0.90777 0.45152 0.98595 0.0
Mg359 Mg 0.96394 0.53204 0.92174 0.0
O360 O 0.01568 0.47377 0.90831 0.0
O361 O -0.00467 0.61333 0.9236 0.0
O362 O 0.88227 0.5157 0.93215 0.0
O363 O 0.96574 0.50835 0.84082 0.0
C364 C 0.1014 0.52819 0.04235 0.0
C365 C 0.00576 0.37222 0.04079 0.0
C366 C 0.97285 0.5252 0.14622 0.0
C367 C 0.96646 0.62939 0.9618 0.0
C368 C 0.87186 0.47141 0.95661 0.0
C369 C 0.00146 0.47626 0.85587 0.0
O370 O 0.09036 0.48418 0.067 0.0
O371 O 0.06517 0.54996 0.01521 0.0
loop_
_geom_bond_atom_site_label_1
_geom_bond_atom_site_label_2
_geom_bond_distance
_geom_bond_site_symmetry_2
_ccdc_geom_bond_type
C0 C1 1.384 . S
C0 H13 0.947 . S
C0 C35 1.382 . S
C1 C0 1.384 . S
C1 C2 1.378 . S
C2 C1 1.378 . S
C2 C3 1.378 . S
C2 H14 0.952 . S
C3 C2 1.378 . S
C3 H15 0.950 . S
C3 C34 1.383 . S
H4 C23 0.947 . S
H5 C24 0.946 . S
H6 C26 0.953 1_556 S
H7 C27 0.945 . S
H8 C29 0.952 . S
H9 C30 0.949 1_556 S
H10 C32 0.950 . S
H11 C33 0.948 . S
H12 C35 0.951 . S
H13 C0 0.947 . S
H14 C2 0.952 . S
H15 C3 0.950 . S
N16 C19 1.382 . S
N16 C21 1.363 . S
N17 C19 1.371 . S
N17 C20 1.372 . S
N18 C20 1.361 . S
N18 C21 1.377 . S
C19 N16 1.382 . S
C19 N17 1.371 . S
C19 C22 1.480 . S
C20 N17 1.372 . S
C20 N18 1.361 . S
C20 C28 1.457 . S
C21 N16 1.363 . S
C21 N18 1.377 . S
C21 C34 1.479 . S
C22 C19 1.480 . S
C22 C23 1.383 . S
C22 C27 1.385 . S
C23 H4 0.947 . S
C23 C22 1.383 . S
C23 C24 1.388 . S
C24 H5 0.946 . S
C24 C23 1.388 . S
C24 C25 1.384 . S
C25 C24 1.384 . S
C25 C26 1.377 . S
C26 H6 0.953 1_554 S
C26 C25 1.377 . S
C26 C27 1.369 . S
C27 H7 0.945 . S
C27 C22 1.385 . S
C27 C26 1.369 . S
C28 C20 1.457 . S
C28 C29 1.372 . S
C28 C33 1.364 . S
C29 H8 0.952 . S
C29 C28 1.372 . S
C29 C30 1.389 . S
C30 H9 0.949 1_554 S
C30 C29 1.389 . S
C30 C31 1.387 . S
C31 C30 1.387 . S
C31 C32 1.372 . S
C32 H10 0.950 . S
C32 C31 1.372 . S
C32 C33 1.379 . S
C33 H11 0.948 . S
C33 C28 1.364 . S
C33 C32 1.379 . S
C34 C3 1.383 . S
C34 C21 1.479 . S
C34 C35 1.398 . S
C35 C0 1.382 . S
C35 H12 0.951 . S
C35 C34 1.398 . S
C36 C37 1.384 . S
C36 H49 0.947 1_565 S
C36 C71 1.382 . S
C37 C36 1.384 . S
C37 C38 1.378 . S
C38 C37 1.378 . S
C38 C39 1.378 . S
C38 H50 0.952 . S
C39 C38 1.378 . S
C39 H51 0.950 . S
C39 C70 1.383 . S
H40 C59 0.947 . S
H41 C60 0.946 . S
H42 C62 0.953 . S
H43 C63 0.945 . S
H44 C65 0.952 . S
H45 C66 0.949 . S
H46 C68 0.950 1_545 S
H47 C69 0.948 . S
H48 C71 0.951 . S
H49 C36 0.947 1_545 S
H50 C38 0.952 . S
H51 C39 0.950 . S
N52 C55 1.382 . S
N52 C57 1.363 . S
N53 C55 1.371 . S
N53 C56 1.372 . S
N54 C56 1.361 . S
N54 C57 1.377 . S
C55 N52 1.382 . S
C55 N53 1.371 . S
C55 C58 1.480 . S
C56 N53 1.372 . S
C56 N54 1.361 . S
C56 C64 1.457 . S
C57 N52 1.363 . S
C57 N54 1.377 . S
C57 C70 1.479 . S
C58 C55 1.480 . S
C58 C59 1.383 . S
C58 C63 1.385 . S
C59 H40 0.947 . S
C59 C58 1.383 . S
C59 C60 1.388 . S
C60 H41 0.946 . S
C60 C59 1.388 . S
C60 C61 1.384 . S
C61 C60 1.384 . S
C61 C62 1.377 . S
C62 H42 0.953 . S
C62 C61 1.377 . S
C62 C63 1.369 . S
C63 H43 0.945 . S
C63 C58 1.385 . S
C63 C62 1.369 . S
C64 C56 1.457 . S
C64 C65 1.372 . S
C64 C69 1.364 . S
C65 H44 0.952 . S
C65 C64 1.372 . S
C65 C66 1.389 . S
C66 H45 0.949 . S
C66 C65 1.389 . S
C66 C67 1.387 . S
C67 C66 1.387 . S
C67 C68 1.372 . S
C68 H46 0.950 1_565 S
C68 C67 1.372 . S
C68 C69 1.379 . S
C69 H47 0.948 . S
C69 C64 1.364 . S
C69 C68 1.379 . S
C70 C39 1.383 . S
C70 C57 1.479 . S
C70 C71 1.398 . S
C71 C36 1.382 . S
C71 H48 0.951 . S
C71 C70 1.398 . S
C72 C73 1.384 . S
C72 H85 0.947 1_556 S
C72 C107 1.382 . S
C73 C72 1.384 . S
C73 C74 1.378 . S
C74 C73 1.378 . S
C74 C75 1.378 . S
C74 H86 0.952 . S
C75 C74 1.378 . S
C75 H87 0.950 . S
C75 C106 1.383 . S
H76 C95 0.947 . S
H77 C96 0.946 . S
H78 C98 0.953 . S
H79 C99 0.945 . S
H80 C101 0.952 . S
H81 C102 0.949 . S
H82 C104 0.950 1_554 S
H83 C105 0.948 . S
H84 C107 0.951 . S
H85 C72 0.947 1_554 S
H86 C74 0.952 . S
H87 C75 0.950 . S
N88 C91 1.382 . S
N88 C93 1.363 . S
N89 C91 1.371 . S
N89 C92 1.372 . S
N90 C92 1.361 . S
N90 C93 1.377 . S
C91 N88 1.382 . S
C91 N89 1.371 . S
C91 C94 1.480 . S
C92 N89 1.372 . S
C92 N90 1.361 . S
C92 C100 1.457 . S
C93 N88 1.363 . S
C93 N90 1.377 . S
C93 C106 1.479 . S
C94 C91 1.480 . S
C94 C95 1.383 . S
C94 C99 1.385 . S
C95 H76 0.947 . S
C95 C94 1.383 . S
C95 C96 1.388 . S
C96 H77 0.946 . S
C96 C95 1.388 . S
C96 C97 1.384 . S
C97 C96 1.384 . S
C97 C98 1.377 . S
C98 H78 0.953 . S
C98 C97 1.377 . S
C98 C99 1.369 . S
C99 H79 0.945 . S
C99 C94 1.385 . S
C99 C98 1.369 . S
C100 C92 1.457 . S
C100 C101 1.372 . S
C100 C105 1.364 . S
C101 H80 0.952 . S
C101 C100 1.372 . S
C101 C102 1.389 . S
C102 H81 0.949 . S
C102 C101 1.389 . S
C102 C103 1.387 . S
C103 C102 1.387 . S
C103 C104 1.372 . S
C104 H82 0.950 1_556 S
C104 C103 1.372 . S
C104 C105 1.379 . S
C105 H83 0.948 . S
C105 C100 1.364 . S
C105 C104 1.379 . S
C106 C75 1.383 . S
C106 C93 1.479 . S
C106 C107 1.398 . S
C107 C72 1.382 . S
C107 H84 0.951 . S
C107 C106 1.398 . S
C108 C109 1.384 . S
C108 H121 0.947 . S
C108 C143 1.382 . S
C109 C108 1.384 . S
C109 C110 1.378 . S
C110 C109 1.378 . S
C110 C111 1.378 . S
C110 H122 0.952 . S
C111 C110 1.378 . S
C111 H123 0.950 . S
C111 C142 1.383 . S
H112 C131 0.947 . S
H113 C132 0.946 . S
H114 C134 0.953 1_455 S
H115 C135 0.953 . S
H116 C137 0.952 . S
H117 C138 0.949 1_455 S
H118 C140 0.950 . S
H119 C141 0.948 . S
H120 C143 0.951 . S
H121 C108 0.947 . S
H122 C110 0.952 . S
H123 C111 0.950 . S
N124 C127 1.382 . S
N124 C129 1.363 . S
N125 C127 1.371 . S
N125 C128 1.372 . S
N126 C128 1.361 . S
N126 C129 1.377 . S
C127 N124 1.382 . S
C127 N125 1.371 . S
C127 C130 1.480 . S
C128 N125 1.372 . S
C128 N126 1.361 . S
C128 C136 1.457 . S
C129 N124 1.363 . S
C129 N126 1.377 . S
C129 C142 1.479 . S
C130 C127 1.480 . S
C130 C131 1.383 . S
C130 C135 1.385 . S
C131 H112 0.947 . S
C131 C130 1.383 . S
C131 C132 1.388 . S
C132 H113 0.946 . S
C132 C131 1.388 . S
C132 C133 1.384 . S
C133 C132 1.384 . S
C133 C134 1.377 . S
C134 H114 0.953 1_655 S
C134 C133 1.377 . S
C134 C135 1.369 . S
C135 H115 0.953 . S
C135 C130 1.385 . S
C135 C134 1.369 . S
C136 C128 1.457 . S
C136 C137 1.372 . S
C136 C141 1.364 . S
C137 H116 0.952 . S
C137 C136 1.372 . S
C137 C138 1.389 . S
C138 H117 0.949 1_655 S
C138 C137 1.389 . S
C138 C139 1.387 . S
C139 C138 1.387 . S
C139 C140 1.372 . S
C140 H118 0.950 . S
C140 C139 1.372 . S
C140 C141 1.379 . S
C141 H119 0.948 . S
C141 C136 1.364 . S
C141 C140 1.379 . S
C142 C111 1.383 . S
C142 C129 1.479 . S
C142 C143 1.398 . S
C143 C108 1.382 . S
C143 H120 0.951 . S
C143 C142 1.398 . S
C144 C145 1.384 . S
C144 H157 0.947 1_565 S
C144 C179 1.382 . S
C145 C144 1.384 . S
C145 C146 1.378 . S
C146 C145 1.378 . S
C146 C147 1.378 . S
C146 H158 0.952 1_556 S
C147 C146 1.378 . S
C147 H159 0.950 . S
C147 C178 1.383 . S
H148 C167 0.947 . S
H149 C168 0.946 1_554 S
H150 C170 0.953 1_455 S
H151 C171 0.945 . S
H152 C173 0.952 . S
H153 C174 0.949 1_455 S
H154 C176 0.945 1_545 S
H155 C177 0.948 . S
H156 C179 0.951 . S
H157 C144 0.947 1_545 S
H158 C146 0.952 1_554 S
H159 C147 0.950 . S
N160 C163 1.382 . S
N160 C165 1.363 . S
N161 C163 1.371 . S
N161 C164 1.372 . S
N162 C164 1.361 . S
N162 C165 1.377 . S
C163 N160 1.382 . S
C163 N161 1.371 . S
C163 C166 1.480 . S
C164 N161 1.372 . S
C164 N162 1.361 . S
C164 C172 1.457 . S
C165 N160 1.363 . S
C165 N162 1.377 . S
C165 C178 1.479 . S
C166 C163 1.480 . S
C166 C167 1.383 . S
C166 C171 1.385 . S
C167 H148 0.947 . S
C167 C166 1.383 . S
C167 C168 1.388 . S
C168 H149 0.946 1_556 S
C168 C167 1.388 . S
C168 C169 1.384 . S
C169 C168 1.384 . S
C169 C170 1.377 . S
C170 H150 0.953 1_655 S
C170 C169 1.377 . S
C170 C171 1.369 . S
C171 H151 0.945 . S
C171 C166 1.385 . S
C171 C170 1.369 . S
C172 C164 1.457 . S
C172 C173 1.372 . S
C172 C177 1.364 . S
C173 H152 0.952 . S
C173 C172 1.372 . S
C173 C174 1.389 . S
C174 H153 0.949 1_655 S
C174 C173 1.389 . S
C174 C175 1.387 . S
C175 C174 1.387 . S
C175 C176 1.374 . S
C176 H154 0.945 1_565 S
C176 C175 1.374 . S
C176 C177 1.381 . S
C177 H155 0.948 . S
C177 C172 1.364 . S
C177 C176 1.381 . S
C178 C147 1.383 . S
C178 C165 1.479 . S
C178 C179 1.398 . S
C179 C144 1.382 . S
C179 H156 0.951 . S
C179 C178 1.398 . S
C180 C181 1.384 . S
C180 H193 0.947 1_545 S
C180 C215 1.382 . S
C181 C180 1.384 . S
C181 C182 1.378 . S
C182 C181 1.378 . S
C182 C183 1.378 . S
C182 H194 0.952 . S
C183 C182 1.378 . S
C183 H195 0.950 . S
C183 C214 1.383 . S
H184 C203 0.947 . S
H185 C204 0.946 . S
H186 C206 0.953 . S
H187 C207 0.945 . S
H188 C209 0.952 . S
H189 C210 0.949 . S
H190 C212 0.950 . S
H191 C213 0.948 . S
H192 C215 0.951 . S
H193 C180 0.947 1_565 S
H194 C182 0.952 . S
H195 C183 0.950 . S
N196 C199 1.382 . S
N196 C201 1.363 . S
N197 C199 1.371 . S
N197 C200 1.372 . S
N198 C200 1.361 . S
N198 C201 1.377 . S
C199 N196 1.382 . S
C199 N197 1.371 . S
C199 C202 1.480 . S
C200 N197 1.372 . S
C200 N198 1.361 . S
C200 C208 1.457 . S
C201 N196 1.363 . S
C201 N198 1.377 . S
C201 C214 1.479 . S
C202 C199 1.480 . S
C202 C203 1.383 . S
C202 C207 1.385 . S
C203 H184 0.947 . S
C203 C202 1.383 . S
C203 C204 1.388 . S
C204 H185 0.946 . S
C204 C203 1.388 . S
C204 C205 1.384 . S
C205 C204 1.384 . S
C205 C206 1.377 . S
C206 H186 0.953 . S
C206 C205 1.377 . S
C206 C207 1.369 . S
C207 H187 0.945 . S
C207 C202 1.385 . S
C207 C206 1.369 . S
C208 C200 1.457 . S
C208 C209 1.372 . S
C208 C213 1.364 . S
C209 H188 0.952 . S
C209 C208 1.372 . S
C209 C210 1.389 . S
C210 H189 0.949 . S
C210 C209 1.389 . S
C210 C211 1.387 . S
C211 C210 1.387 . S
C211 C212 1.372 . S
C212 H190 0.950 . S
C212 C211 1.372 . S
C212 C213 1.379 . S
C213 H191 0.948 . S
C213 C208 1.364 . S
C213 C212 1.379 . S
C214 C183 1.383 . S
C214 C201 1.479 . S
C214 C215 1.398 . S
C215 C180 1.382 . S
C215 H192 0.951 . S
C215 C214 1.398 . S
C216 C217 1.384 . S
C216 H229 0.947 . S
C216 C251 1.382 . S
C217 C216 1.384 . S
C217 C218 1.378 . S
C218 C217 1.378 . S
C218 C219 1.378 . S
C218 H230 0.952 1_554 S
C219 C218 1.378 . S
C219 H231 0.950 . S
C219 C250 1.383 . S
H220 C239 0.947 . S
H221 C240 0.946 . S
H222 C242 0.953 . S
H223 C243 0.945 . S
H224 C245 0.952 . S
H225 C246 0.949 . S
H226 C248 0.950 . S
H227 C249 0.948 . S
H228 C251 0.951 . S
H229 C216 0.947 . S
H230 C218 0.952 1_556 S
H231 C219 0.950 . S
N232 C235 1.382 . S
N232 C237 1.363 . S
N233 C235 1.371 . S
N233 C236 1.372 . S
N234 C236 1.361 . S
N234 C237 1.377 . S
C235 N232 1.382 . S
C235 N233 1.371 . S
C235 C238 1.480 . S
C236 N233 1.372 . S
C236 N234 1.361 . S
C236 C244 1.457 . S
C237 N232 1.363 . S
C237 N234 1.377 . S
C237 C250 1.479 . S
C238 C235 1.480 . S
C238 C239 1.383 . S
C238 C243 1.385 . S
C239 H220 0.947 . S
C239 C238 1.383 . S
C239 C240 1.388 . S
C240 H221 0.946 . S
C240 C239 1.388 . S
C240 C241 1.384 . S
C241 C240 1.384 . S
C241 C242 1.377 . S
C242 H222 0.953 . S
C242 C241 1.377 . S
C242 C243 1.369 . S
C243 H223 0.945 . S
C243 C238 1.385 . S
C243 C242 1.369 . S
C244 C236 1.457 . S
C244 C245 1.372 . S
C244 C249 1.364 . S
C245 H224 0.952 . S
C245 C244 1.372 . S
C245 C246 1.389 . S
C246 H225 0.949 . S
C246 C245 1.389 . S
C246 C247 1.387 . S
C247 C246 1.387 . S
C247 C248 1.372 . S
C248 H226 0.950 . S
C248 C247 1.372 . S
C248 C249 1.379 . S
C249 H227 0.948 . S
C249 C244 1.364 . S
C249 C248 1.379 . S
C250 C219 1.383 . S
C250 C237 1.479 . S
C250 C251 1.398 . S
C251 C216 1.382 . S
C251 H228 0.951 . S
C251 C250 1.398 . S
C252 C253 1.384 . S
C252 H265 0.947 . S
C252 C287 1.382 . S
C253 C252 1.384 . S
C253 C254 1.378 1_455 S
C254 C253 1.378 1_655 S
C254 C255 1.378 1_655 S
C254 H266 0.952 . S
C255 C254 1.378 1_455 S
C255 H267 0.950 1_455 S
C255 C286 1.383 . S
H256 C275 0.947 . S
H257 C276 0.946 1_655 S
H258 C278 0.953 . S
H259 C279 0.945 . S
H260 C281 0.952 . S
H261 C282 0.949 . S
H262 C284 0.950 . S
H263 C285 0.948 . S
H264 C287 0.951 . S
H265 C252 0.947 . S
H266 C254 0.952 . S
H267 C255 0.950 1_655 S
N268 C271 1.382 . S
N268 C273 1.363 . S
N269 C271 1.371 . S
N269 C272 1.372 . S
N270 C272 1.361 . S
N270 C273 1.377 . S
C271 N268 1.382 . S
C271 N269 1.371 . S
C271 C274 1.480 . S
C272 N269 1.372 . S
C272 N270 1.361 . S
C272 C280 1.457 . S
C273 N268 1.363 . S
C273 N270 1.377 . S
C273 C286 1.479 . S
C274 C271 1.480 . S
C274 C275 1.383 . S
C274 C279 1.385 . S
C275 H256 0.947 . S
C275 C274 1.383 . S
C275 C276 1.388 . S
C276 H257 0.946 1_455 S
C276 C275 1.388 . S
C276 C277 1.384 . S
C277 C276 1.384 . S
C277 C278 1.377 . S
C278 H258 0.953 . S
C278 C277 1.377 . S
C278 C279 1.369 . S
C279 H259 0.945 . S
C279 C274 1.385 . S
C279 C278 1.369 . S
C280 C272 1.457 . S
C280 C281 1.372 . S
C280 C285 1.364 . S
C281 H260 0.952 . S
C281 C280 1.372 . S
C281 C282 1.389 . S
C282 H261 0.949 . S
C282 C281 1.389 . S
C282 C283 1.387 . S
C283 C282 1.387 . S
C283 C284 1.372 . S
C284 H262 0.950 . S
C284 C283 1.372 . S
C284 C285 1.379 . S
C285 H263 0.948 . S
C285 C280 1.364 . S
C285 C284 1.379 . S
C286 C255 1.383 . S
C286 C273 1.479 . S
C286 C287 1.398 . S
C287 C252 1.382 . S
C287 H264 0.951 . S
C287 C286 1.398 . S
O288 Mg289 1.990 . S
O288 C302 1.253 1_445 S
Mg289 O288 1.990 . S
Mg289 O292 2.180 . S
Mg289 O293 2.117 . S
Mg289 O307 2.030 1_545 S
O290 Mg291 2.072 1_665 S
O290 C302 1.260 . S
Mg291 O290 2.072 1_445 S
Mg291 O292 2.099 . S
Mg291 O294 2.079 . S
Mg291 O295 2.072 1_455 S
Mg291 O297 2.099 1_445 S
Mg291 O308 2.079 1_545 S
O292 Mg289 2.180 . S
O292 Mg291 2.099 . S
O292 C303 1.279 . S
O293 Mg289 2.117 . S
O293 C303 1.250 . S
O294 Mg291 2.079 . S
O294 C304 1.264 . S
O295 Mg291 2.072 1_655 S
O295 C305 1.260 . S
Mg296 O297 2.180 . S
Mg296 O298 2.030 1_565 S
Mg296 O299 1.990 1_565 S
Mg296 O300 2.117 . S
O297 Mg291 2.099 1_665 S
O297 Mg296 2.180 . S
O297 C306 1.279 . S
O298 Mg296 2.030 1_545 S
O298 C304 1.248 1_655 S
O299 Mg296 1.990 1_545 S
O299 C305 1.253 . S
O300 Mg296 2.117 . S
O300 C306 1.250 . S
C301 O307 1.248 . S
C301 O308 1.264 . S
C302 O288 1.253 1_665 S
C302 O290 1.260 . S
C303 O292 1.279 . S
C303 O293 1.250 . S
C304 O294 1.264 . S
C304 O298 1.248 1_455 S
C305 O295 1.260 . S
C305 O299 1.253 . S
C306 O297 1.279 . S
C306 O300 1.250 . S
O307 Mg289 2.030 1_565 S
O307 C301 1.248 . S
O308 Mg291 2.079 1_565 S
O308 C301 1.264 . S
O309 Mg310 1.990 . S
O309 C323 1.253 . S
Mg310 O309 1.990 . S
Mg310 O313 2.180 1_554 S
Mg310 O314 2.117 1_554 S
Mg310 O328 2.030 . S
O311 Mg312 2.072 . S
O311 C323 1.260 . S
Mg312 O311 2.072 . S
Mg312 O313 2.099 1_554 S
Mg312 O315 2.079 1_544 S
Mg312 O316 2.072 1_554 S
Mg312 O318 2.099 1_545 S
Mg312 O329 2.079 . S
O313 Mg310 2.180 1_556 S
O313 Mg312 2.099 1_556 S
O313 C324 1.279 . S
O314 Mg310 2.117 1_556 S
O314 C324 1.250 . S
O315 Mg312 2.079 1_566 S
O315 C325 1.264 . S
O316 Mg312 2.072 1_556 S
O316 C326 1.260 1_545 S
Mg317 O318 2.180 1_556 S
Mg317 O319 2.030 . S
Mg317 O320 1.990 . S
Mg317 O321 2.117 1_556 S
O318 Mg312 2.099 1_565 S
O318 Mg317 2.180 1_554 S
O318 C327 1.279 . S
O319 Mg317 2.030 . S
O319 C325 1.248 . S
O320 Mg317 1.990 . S
O320 C326 1.253 . S
O321 Mg317 2.117 1_554 S
O321 C327 1.250 . S
C322 O328 1.248 . S
C322 O329 1.264 . S
C323 O309 1.253 . S
C323 O311 1.260 . S
C324 O313 1.279 . S
C324 O314 1.250 . S
C325 O315 1.264 . S
C325 O319 1.248 . S
C326 O316 1.260 1_565 S
C326 O320 1.253 . S
C327 O318 1.279 . S
C327 O321 1.250 . S
O328 Mg310 2.030 . S
O328 C322 1.248 . S
O329 Mg312 2.079 . S
O329 C322 1.264 . S
O330 Mg331 1.990 . S
O330 C344 1.253 . S
Mg331 O330 1.990 . S
Mg331 O334 2.180 . S
Mg331 O335 2.117 . S
Mg331 O349 2.030 . S
O332 Mg333 2.072 . S
O332 C344 1.260 . S
Mg333 O332 2.072 . S
Mg333 O334 2.099 . S
Mg333 O336 2.079 . S
Mg333 O337 2.072 . S
Mg333 O339 2.099 . S
Mg333 O350 2.079 . S
O334 Mg331 2.180 . S
O334 Mg333 2.099 . S
O334 C345 1.279 . S
O335 Mg331 2.117 . S
O335 C345 1.250 . S
O336 Mg333 2.079 . S
O336 C346 1.264 . S
O337 Mg333 2.072 . S
O337 C347 1.260 . S
Mg338 O339 2.180 . S
Mg338 O340 2.030 . S
Mg338 O341 1.990 . S
Mg338 O342 2.117 . S
O339 Mg333 2.099 . S
O339 Mg338 2.180 . S
O339 C348 1.279 . S
O340 Mg338 2.030 . S
O340 C346 1.248 . S
O341 Mg338 1.990 . S
O341 C347 1.253 . S
O342 Mg338 2.117 . S
O342 C348 1.250 . S
C343 O349 1.248 . S
C343 O350 1.264 . S
C344 O330 1.253 . S
C344 O332 1.260 . S
C345 O334 1.279 . S
C345 O335 1.250 . S
C346 O336 1.264 . S
C346 O340 1.248 . S
C347 O337 1.260 . S
C347 O341 1.253 . S
C348 O339 1.279 . S
C348 O342 1.250 . S
O349 Mg331 2.030 . S
O349 C343 1.248 . S
O350 Mg333 2.079 . S
O350 C343 1.264 . S
O351 Mg352 1.990 . S
O351 C365 1.253 . S
Mg352 O351 1.990 . S
Mg352 O355 2.182 . S
Mg352 O356 2.117 1_455 S
Mg352 O370 2.030 . S
O353 Mg354 2.072 . S
O353 C365 1.260 . S
Mg354 O353 2.072 . S
Mg354 O355 2.099 . S
Mg354 O357 2.079 1_454 S
Mg354 O358 2.072 1_455 S
Mg354 O360 2.099 1_554 S
Mg354 O371 2.079 . S
O355 Mg352 2.182 . S
O355 Mg354 2.099 . S
O355 C366 1.277 1_455 S
O356 Mg352 2.117 1_655 S
O356 C366 1.250 . S
O357 Mg354 2.079 1_656 S
O357 C367 1.264 . S
O358 Mg354 2.072 1_655 S
O358 C368 1.261 1_554 S
Mg359 O360 2.180 1_655 S
Mg359 O361 2.030 . S
Mg359 O362 1.990 . S
Mg359 O363 2.117 1_655 S
O360 Mg354 2.099 1_556 S
O360 Mg359 2.180 1_455 S
O360 C369 1.279 . S
O361 Mg359 2.030 . S
O361 C367 1.248 . S
O362 Mg359 1.990 . S
O362 C368 1.253 . S
O363 Mg359 2.117 1_455 S
O363 C369 1.250 . S
C364 O370 1.248 . S
C364 O371 1.264 . S
C365 O351 1.253 . S
C365 O353 1.260 . S
C366 O355 1.277 1_655 S
C366 O356 1.250 . S
C367 O357 1.264 . S
C367 O361 1.248 . S
C368 O358 1.261 1_556 S
C368 O362 1.253 . S
C369 O360 1.279 . S
C369 O363 1.250 . S
O370 Mg352 2.030 . S
O370 C364 1.248 . S
O371 Mg354 2.079 . S
O371 C364 1.264 . S
C1 C304 1.529 . S
C67 C326 1.554 . S
C345 C97 1.083 . S
C133 C366 1.779 . S
C323 C25 1.997 . S
C301 C37 2.004 . S
C368 C103 1.385 . S
C347 C109 1.959 . S
C31 C365 1.864 . S
C324 C73 1.247 . S
C139 C306 2.290 . S
C61 C344 1.836 . S
C302 C175 1.616 . S
C181 C322 1.378 . S
C247 C348 1.203 . S
C277 C369 1.772 . S
C145 C325 2.022 . S
C305 C211 2.004 . S
C364 C217 1.226 . S
C343 C283 1.939 . S
C169 C367 1.815 . S
C327 C241 1.322 . S
C303 C253 2.047 . S
C205 C346 1.836 . S
