# Generated by pormake.
# Topology zzz, (3,6)-cn, num edge types: 1
# Building blocks:
#     Node 0, Type 0, BuildingBlock: ESEHIV_clean_linker_0, # of connection points: 3
#     Node 1, Type 0, BuildingBlock: ESEHIV_clean_linker_0, # of connection points: 3
#     Node 2, Type 0, BuildingBlock: ESEHIV_clean_linker_0, # of connection points: 3
#     Node 3, Type 0, BuildingBlock: ESEHIV_clean_linker_0, # of connection points: 3
#     Node 4, Type 0, BuildingBlock: ESEHIV_clean_linker_0, # of connection points: 3
#     Node 5, Type 0, BuildingBlock: ESEHIV_clean_linker_0, # of connection points: 3
#     Node 6, Type 0, BuildingBlock: ESEHIV_clean_linker_0, # of connection points: 3
#     Node 7, Type 0, BuildingBlock: ESEHIV_clean_linker_0, # of connection points: 3
#     Node 8, Type 1, BuildingBlock: INOVEN_clean_sbu_0, # of connection points: 6
#     Node 9, Type 1, BuildingBlock: INOVEN_clean_sbu_0, # of connection points: 6
#     Node 10, Type 1, BuildingBlock: INOVEN_clean_sbu_0, # of connection points: 6
#     Node 11, Type 1, BuildingBlock: INOVEN_clean_sbu_0, # of connection points: 6
#     Edge 12, Type (0, 1), BuildingBlock: OJICUG_clean_linker_0, # of connection points: 2
#     Edge 13, Type (0, 1), BuildingBlock: OJICUG_clean_linker_0, # of connection points: 2
#     Edge 14, Type (0, 1), BuildingBlock: OJICUG_clean_linker_0, # of connection points: 2
#     Edge 15, Type (0, 1), BuildingBlock: OJICUG_clean_linker_0, # of connection points: 2
#     Edge 16, Type (0, 1), BuildingBlock: OJICUG_clean_linker_0, # of connection points: 2
#     Edge 17, Type (0, 1), BuildingBlock: OJICUG_clean_linker_0, # of connection points: 2
#     Edge 18, Type (0, 1), BuildingBlock: OJICUG_clean_linker_0, # of connection points: 2
#     Edge 19, Type (0, 1), BuildingBlock: OJICUG_clean_linker_0, # of connection points: 2
#     Edge 20, Type (0, 1), BuildingBlock: OJICUG_clean_linker_0, # of connection points: 2
#     Edge 21, Type (0, 1), BuildingBlock: OJICUG_clean_linker_0, # of connection points: 2
#     Edge 22, Type (0, 1), BuildingBlock: OJICUG_clean_linker_0, # of connection points: 2
#     Edge 23, Type (0, 1), BuildingBlock: OJICUG_clean_linker_0, # of connection points: 2
#     Edge 24, Type (0, 1), BuildingBlock: OJICUG_clean_linker_0, # of connection points: 2
#     Edge 25, Type (0, 1), BuildingBlock: OJICUG_clean_linker_0, # of connection points: 2
#     Edge 26, Type (0, 1), BuildingBlock: OJICUG_clean_linker_0, # of connection points: 2
#     Edge 27, Type (0, 1), BuildingBlock: OJICUG_clean_linker_0, # of connection points: 2
#     Edge 28, Type (0, 1), BuildingBlock: OJICUG_clean_linker_0, # of connection points: 2
#     Edge 29, Type (0, 1), BuildingBlock: OJICUG_clean_linker_0, # of connection points: 2
#     Edge 30, Type (0, 1), BuildingBlock: OJICUG_clean_linker_0, # of connection points: 2
#     Edge 31, Type (0, 1), BuildingBlock: OJICUG_clean_linker_0, # of connection points: 2
#     Edge 32, Type (0, 1), BuildingBlock: OJICUG_clean_linker_0, # of connection points: 2
#     Edge 33, Type (0, 1), BuildingBlock: OJICUG_clean_linker_0, # of connection points: 2
#     Edge 34, Type (0, 1), BuildingBlock: OJICUG_clean_linker_0, # of connection points: 2
#     Edge 35, Type (0, 1), BuildingBlock: OJICUG_clean_linker_0, # of connection points: 2
# Relax obj value: 0.610
# Max RMSD: 0.266
# Mean RMSD: 0.250
data_MOF--net-zzz--node1-INOVEN_clean_sbu_0--node2-ESEHIV_clean_linker_0--edge1-OJICUG_clean_linker_0
_symmetry_space_group_name_H-M    P1
_symmetry_Int_Tables_number       1
_symmetry_cell_setting            triclinic
loop_
_symmetry_equiv_pos_as_xyz
'x, y, z'
_cell_length_a     31.783138
_cell_length_b     31.715422
_cell_length_c     10.280772
_cell_angle_alpha  89.83216
_cell_angle_beta   89.85256
_cell_angle_gamma 90.083459
loop_
_atom_site_label
_atom_site_type_symbol
_atom_site_fract_x
_atom_site_fract_y
_atom_site_fract_z
_atom_type_partial_charge
H0 H 0.81725 0.44609 0.40766 0.0
H1 H 0.69755 0.44849 0.21631 0.0
H2 H 0.74229 0.55864 0.42015 0.0
C3 C 0.78793 0.46198 0.38578 0.0
C4 C 0.78269 0.50335 0.43019 0.0
C5 C 0.75795 0.4423 0.30613 0.0
C6 C 0.72085 0.46382 0.27679 0.0
C7 C 0.71453 0.5058 0.31555 0.0
C8 C 0.74621 0.52609 0.39112 0.0
H9 H 0.10583 0.81903 0.40689 0.0
H10 H 0.1033 0.69877 0.21736 0.0
H11 H 0.99343 0.74378 0.42211 0.0
C12 C 0.08996 0.78958 0.38562 0.0
C13 C 0.04866 0.78431 0.43069 0.0
C14 C 0.10959 0.75945 0.30616 0.0
C15 C 0.08805 0.72219 0.27774 0.0
C16 C 0.04613 0.7159 0.31719 0.0
C17 C 0.02593 0.74769 0.39259 0.0
H18 H 0.73489 0.10829 0.4068 0.0
H19 H 0.85502 0.10476 0.21645 0.0
H20 H 0.80938 0.99551 0.42566 0.0
C21 C 0.76422 0.09222 0.38608 0.0
C22 C 0.76921 0.05098 0.43262 0.0
C23 C 0.79445 0.1115 0.30558 0.0
C24 C 0.83156 0.08977 0.27783 0.0
C25 C 0.8376 0.04792 0.31893 0.0
C26 C 0.80567 0.02798 0.39504 0.0
H27 H 0.44473 0.73674 0.41272 0.0
H28 H 0.55706 0.81205 0.42702 0.0
H29 H 0.44753 0.857 0.22124 0.0
C30 C 0.46061 0.76624 0.39127 0.0
C31 C 0.44115 0.79634 0.31113 0.0
C32 C 0.50183 0.77152 0.43626 0.0
C33 C 0.5246 0.80816 0.39767 0.0
C34 C 0.50449 0.83998 0.32195 0.0
C35 C 0.46266 0.83365 0.28238 0.0
H36 H 0.2341 0.60857 0.19764 0.0
H37 H 0.35388 0.60578 0.3884 0.0
H38 H 0.3088 0.49586 0.18405 0.0
C39 C 0.2634 0.5926 0.21923 0.0
C40 C 0.26852 0.55125 0.17454 0.0
C41 C 0.29345 0.61215 0.29892 0.0
C42 C 0.33053 0.59054 0.32786 0.0
C43 C 0.33674 0.54858 0.28876 0.0
C44 C 0.30497 0.5284 0.21326 0.0
H45 H 0.94526 0.23525 0.20153 0.0
H46 H 0.94749 0.3556 0.39066 0.0
H47 H 0.05746 0.31079 0.18596 0.0
C48 C 0.96106 0.26475 0.2227 0.0
C49 C 1.00234 0.27012 0.17759 0.0
C50 C 0.94135 0.29486 0.30205 0.0
C51 C 0.9628 0.33219 0.33035 0.0
C52 C 1.0047 0.33858 0.29082 0.0
C53 C 1.02498 0.30681 0.21552 0.0
H54 H 0.31643 0.94572 0.19942 0.0
H55 H 0.19653 0.94926 0.3912 0.0
H56 H 0.24202 0.05857 0.18197 0.0
C57 C 0.28715 0.9618 0.22059 0.0
C58 C 0.28213 1.00307 0.17427 0.0
C59 C 0.257 0.94251 0.30135 0.0
C60 C 0.21994 0.96427 0.32969 0.0
C61 C 0.21389 1.00615 0.28888 0.0
C62 C 0.24574 1.02608 0.21244 0.0
H63 H 0.60659 0.31709 0.1902 0.0
H64 H 0.49414 0.24194 0.17684 0.0
H65 H 0.60368 0.197 0.38263 0.0
C66 C 0.59068 0.28763 0.2119 0.0
C67 C 0.61012 0.25758 0.29227 0.0
C68 C 0.54944 0.28237 0.16705 0.0
C69 C 0.52662 0.24581 0.20604 0.0
C70 C 0.5467 0.21402 0.28198 0.0
C71 C 0.58856 0.22032 0.32136 0.0
Gd72 Gd 0.0621 1.01883 0.87069 0.0
Gd73 Gd 0.98923 0.03567 0.7376 0.0
C74 C 1.02058 0.94337 0.69429 0.0
C75 C 0.12543 0.98743 0.99543 0.0
C76 C 0.14591 0.94605 0.98992 0.0
C77 C 0.18934 0.94175 1.01002 0.0
C78 C 0.12151 0.91016 0.9674 0.0
C79 C 0.18174 0.8654 1.00947 0.0
C80 C 0.13928 0.8704 0.9742 0.0
C81 C 0.20718 0.90149 1.02166 0.0
C82 C 0.08046 0.05148 0.63176 0.0
C83 C 0.03079 0.11115 0.91379 0.0
C84 C 0.92572 0.06693 0.61335 0.0
C85 C 0.90511 0.10825 0.61893 0.0
C86 C 0.86171 0.11247 0.59805 0.0
C87 C 0.92938 0.14419 0.64214 0.0
C88 C 0.86915 0.18884 0.599 0.0
C89 C 0.91153 0.18391 0.63519 0.0
C90 C 0.84381 0.15269 0.58623 0.0
C91 C 0.97113 1.00291 0.9765 0.0
O92 O 0.04311 0.95269 0.7987 0.0
O93 O 0.99907 0.97357 0.6375 0.0
O94 O 0.12962 1.01071 0.89184 0.0
O95 O 0.08698 0.9877 0.04121 0.0
O96 O 0.09453 0.06603 0.74077 0.0
O97 O 0.05298 1.02347 0.656 0.0
O98 O 1.00825 0.10182 0.80941 0.0
O99 O 0.05231 0.08097 0.9706 0.0
O100 O 0.92168 0.04366 0.71699 0.0
O101 O 0.96414 0.06678 0.56734 0.0
O102 O 0.95708 0.98828 0.86756 0.0
O103 O 0.99839 0.0311 0.95205 0.0
H104 H 0.20888 0.96933 1.02339 0.0
H105 H 0.08797 0.91255 0.95327 0.0
H106 H 0.11829 0.84359 0.96643 0.0
H107 H 0.23991 0.89851 0.04909 0.0
H108 H 0.84226 0.08486 0.58414 0.0
H109 H 0.96289 0.14186 0.65682 0.0
H110 H 0.93246 0.21076 0.64348 0.0
H111 H 0.81113 0.15561 0.55815 0.0
Gd112 Gd 0.53347 0.06395 0.86836 0.0
Gd113 Gd 0.51759 0.99014 0.73668 0.0
C114 C 0.60971 1.02235 0.69485 0.0
C115 C 0.5645 0.12764 0.99227 0.0
C116 C 0.60649 0.14689 0.99035 0.0
C117 C 0.61186 0.19057 1.0044 0.0
C118 C 0.64181 0.12113 0.97577 0.0
C119 C 0.68776 0.18112 1.01007 0.0
C120 C 0.68189 0.13807 0.983 0.0
C121 C 0.65241 0.20763 1.01646 0.0
C122 C 0.50118 0.08122 0.62906 0.0
C123 C 0.44134 0.03179 0.91037 0.0
C124 C 0.4867 0.92633 0.61294 0.0
C125 C 0.4448 0.90688 0.61518 0.0
C126 C 0.43959 0.86321 0.60021 0.0
C127 C 0.40939 0.93245 0.63083 0.0
C128 C 0.36364 0.87237 0.59563 0.0
C129 C 0.36938 0.91537 0.62374 0.0
C130 C 0.3991 0.84602 0.58826 0.0
C131 C 0.54993 0.97306 0.97595 0.0
O132 O 0.59977 0.04539 0.79781 0.0
O133 O 0.5801 0.99996 0.63864 0.0
O134 O 0.54304 0.13156 0.88536 0.0
O135 O 0.56228 0.08957 0.04114 0.0
O136 O 0.48643 0.09567 0.73758 0.0
O137 O 0.52927 0.05404 0.65421 0.0
O138 O 0.45128 1.00866 0.80757 0.0
O139 O 0.47094 0.05425 0.96633 0.0
O140 O 0.50827 0.92249 0.71967 0.0
O141 O 0.48868 0.96442 0.56416 0.0
O142 O 0.56476 0.95866 0.8675 0.0
O143 O 0.52169 1.00007 0.95061 0.0
H144 H 0.5848 0.21106 1.01211 0.0
H145 H 0.63863 0.08736 0.96624 0.0
H146 H 0.70817 0.11635 0.98072 0.0
H147 H 0.65609 0.24079 0.03851 0.0
H148 H 0.46673 0.84286 0.59169 0.0
H149 H 0.41246 0.96621 0.64099 0.0
H150 H 0.34302 0.93699 0.62683 0.0
H151 H 0.39552 0.8129 0.56546 0.0
Gd152 Gd 0.48944 0.53494 0.86992 0.0
Gd153 Gd 0.56205 0.519 0.73375 0.0
C154 C 0.53058 0.61152 0.69538 0.0
C155 C 0.4266 0.5659 0.99814 0.0
C156 C 0.40701 0.60775 0.9962 0.0
C157 C 0.36342 0.6126 1.01234 0.0
C158 C 0.43231 0.64344 0.97963 0.0
C159 C 0.37215 0.68878 1.01669 0.0
C160 C 0.41506 0.6834 0.98727 0.0
C161 C 0.34606 0.65303 1.02463 0.0
C162 C 0.47051 0.50337 0.63095 0.0
C163 C 0.52083 0.44238 0.90789 0.0
C164 C 0.62503 0.48812 0.60596 0.0
C165 C 0.64454 0.44623 0.6075 0.0
C166 C 0.68812 0.4413 0.59148 0.0
C167 C 0.61915 0.41057 0.62355 0.0
C168 C 0.67924 0.36515 0.58639 0.0
C169 C 0.63633 0.37058 0.61557 0.0
C170 C 0.70541 0.40085 0.57886 0.0
C171 C 0.58074 0.55064 0.97276 0.0
O172 O 0.50805 0.60149 0.79967 0.0
O173 O 0.55229 0.58181 0.63714 0.0
O174 O 0.42206 0.54388 0.89257 0.0
O175 O 0.46495 0.56428 0.04381 0.0
O176 O 0.45667 0.48834 0.74013 0.0
O177 O 0.49803 0.53131 0.65479 0.0
O178 O 0.54334 0.45243 0.80358 0.0
O179 O 0.49918 0.4721 0.96633 0.0
O180 O 0.62944 0.50994 0.71197 0.0
O181 O 0.58675 0.48989 0.55979 0.0
O182 O 0.59455 0.56577 0.86367 0.0
O183 O 0.55341 0.52253 0.94866 0.0
H184 H 0.34326 0.58524 1.02152 0.0
H185 H 0.46599 0.64064 0.96835 0.0
H186 H 0.43647 0.71 0.98356 0.0
H187 H 0.31301 0.65635 0.04821 0.0
H188 H 0.70834 0.46864 0.58267 0.0
H189 H 0.58547 0.41342 0.63473 0.0
H190 H 0.61486 0.34402 0.6189 0.0
H191 H 0.73846 0.39749 0.55545 0.0
Gd192 Gd 1.01716 0.49097 0.87091 0.0
Gd193 Gd 0.03368 0.56404 0.7361 0.0
C194 C 0.94151 0.53215 0.69408 0.0
C195 C 0.98598 0.42759 0.99771 0.0
C196 C 0.94463 0.40704 0.99319 0.0
C197 C 0.94032 0.36343 1.01281 0.0
C198 C 0.90879 0.43151 0.97167 0.0
C199 C 0.86415 0.37087 1.01287 0.0
C200 C 0.86912 0.41358 0.97865 0.0
C201 C 0.90015 0.34543 1.02458 0.0
C202 C 0.04953 0.47258 0.63218 0.0
C203 C 0.10938 0.52278 0.91219 0.0
C204 C 0.06488 0.62754 0.60987 0.0
C205 C 0.10644 0.64769 0.61336 0.0
C206 C 0.11107 0.69131 0.59475 0.0
C207 C 0.14212 0.62284 0.63309 0.0
C208 C 0.18717 0.68324 0.59291 0.0
C209 C 0.18192 0.64045 0.62567 0.0
C210 C 0.15136 0.70901 0.58255 0.0
C211 C 1.00126 0.58217 0.9749 0.0
O212 O 0.95103 0.50941 0.79834 0.0
O213 O 0.97146 0.55415 0.63728 0.0
O214 O 1.00905 0.42332 0.89392 0.0
O215 O 0.98641 0.46614 0.04261 0.0
O216 O 0.06415 0.45856 0.74138 0.0
O217 O 1.02158 0.50003 0.65605 0.0
O218 O 0.09984 0.54539 0.80769 0.0
O219 O 0.0794 0.50098 0.96955 0.0
O220 O 0.04229 0.63169 0.7147 0.0
O221 O 0.06392 0.58913 0.56392 0.0
O222 O 0.98653 0.59618 0.86582 0.0
O223 O 0.02936 0.55492 0.95072 0.0
H224 H 0.96784 0.34386 1.02553 0.0
H225 H 0.91117 0.46518 0.95782 0.0
H226 H 0.84236 0.43457 0.97146 0.0
H227 H 0.89717 0.31252 0.05139 0.0
H228 H 0.08368 0.71116 0.58326 0.0
H229 H 0.13949 0.58914 0.64609 0.0
H230 H 0.20854 0.61923 0.6316 0.0
H231 H 0.15456 0.74198 0.55669 0.0
C232 C 0.17989 0.06215 0.42702 0.0
C233 C 0.17565 0.02792 0.34155 0.0
H234 H 0.15274 0.09689 0.58537 0.0
C235 C 0.13629 1.00735 0.33584 0.0
H236 H 0.20983 0.07823 0.43568 0.0
C237 C 0.10358 1.01781 0.42182 0.0
C238 C 0.10944 0.04895 0.51699 0.0
H239 H 0.13216 0.98031 0.27316 0.0
H240 H 0.0751 0.99901 0.42083 0.0
C241 C 0.14716 0.07252 0.51383 0.0
C242 C 0.5458 0.13644 0.33201 0.0
C243 C 0.52504 0.17574 0.33602 0.0
H244 H 0.55413 0.07549 0.41904 0.0
C245 C 0.49055 0.17999 0.42072 0.0
H246 H 0.57306 0.13231 0.27011 0.0
C247 C 0.48008 0.14741 0.50851 0.0
C248 C 0.5038 0.10982 0.51328 0.0
H249 H 0.47429 0.20989 0.42805 0.0
H250 H 0.4555 0.15305 0.5795 0.0
C251 C 0.53521 0.10388 0.41878 0.0
C252 C 0.37103 0.49268 0.42762 0.0
C253 C 0.37508 0.52708 0.34199 0.0
H254 H 0.39834 0.4578 0.58567 0.0
C255 C 0.41431 0.54797 0.33621 0.0
H256 H 0.3412 0.47635 0.43647 0.0
C257 C 0.44704 0.53756 0.42184 0.0
C258 C 0.44139 0.50615 0.5169 0.0
H259 H 0.41832 0.57518 0.2736 0.0
H260 H 0.4754 0.55655 0.42054 0.0
C261 C 0.40379 0.48237 0.51416 0.0
C262 C 1.00539 0.41632 0.33759 0.0
C263 C 0.02614 0.37704 0.34357 0.0
H264 H 0.99685 0.47755 0.4218 0.0
C265 C 0.0604 0.37304 0.42884 0.0
H266 H 0.97835 0.42028 0.275 0.0
C267 C 0.07066 0.40589 0.51515 0.0
C268 C 0.04696 0.44351 0.51796 0.0
H269 H 0.07664 0.34317 0.43768 0.0
H270 H 0.09509 0.40048 0.58651 0.0
C271 C 1.01575 0.44915 0.42303 0.0
C272 C 0.91523 0.04677 0.2726 0.0
C273 C 0.8759 1.02614 0.26668 0.0
H274 H 0.97641 0.05527 0.18771 0.0
C275 C 0.87175 0.99192 0.18118 0.0
H276 H 0.91929 0.07381 0.33533 0.0
C277 C 0.90452 0.98162 0.09443 0.0
C278 C 0.94218 1.00529 0.09136 0.0
H279 H 0.84184 0.97579 0.17239 0.0
H280 H 0.899 0.95726 1.02283 0.0
C281 C 0.94797 0.03641 0.18665 0.0
C282 C 0.50532 0.91761 0.2726 0.0
C283 C 0.52612 0.87834 0.26834 0.0
H284 H 0.49691 0.97861 0.18592 0.0
C285 C 0.56067 0.87421 0.18378 0.0
H286 H 0.47804 0.92165 0.33451 0.0
C287 C 0.57113 0.90687 0.09628 0.0
C288 C 0.54734 0.94442 0.09164 0.0
H289 H 0.57697 0.84434 0.17629 0.0
H290 H 0.59574 0.90132 1.02535 0.0
C291 C 0.51588 0.95025 0.18607 0.0
C292 C 0.63699 0.50619 0.26766 0.0
C293 C 0.67617 0.52719 0.26202 0.0
H294 H 0.57595 0.49744 0.18314 0.0
C295 C 0.68015 0.56159 0.17637 0.0
H296 H 0.63303 0.47898 0.33027 0.0
C297 C 0.64739 0.57181 0.0897 0.0
C298 C 0.60985 0.54793 0.08687 0.0
H299 H 0.70994 0.57801 0.16761 0.0
H300 H 0.6528 0.59639 1.01821 0.0
C301 C 0.60426 0.51651 0.18192 0.0
C302 C 0.04528 0.63819 0.27004 0.0
C303 C 1.0246 0.67751 0.2642 0.0
H304 H 0.05377 0.57701 0.18555 0.0
C305 C 0.9904 0.68162 0.17876 0.0
H306 H 0.07231 0.63415 0.33264 0.0
C307 C 0.98013 0.64884 0.09218 0.0
C308 C 1.00377 0.61118 0.08928 0.0
H309 H 0.97423 0.71153 0.16999 0.0
H310 H 0.95576 0.65435 1.0207 0.0
C311 C 0.03492 0.60544 0.18437 0.0
C312 C 0.89822 0.29284 0.50697 0.0
C313 C 0.90216 0.28337 0.37357 0.0
H314 H 0.87779 0.26987 0.69202 0.0
C315 C 0.87382 0.25429 0.31942 0.0
H316 H 0.91811 0.31614 0.55289 0.0
C317 C 0.85148 0.22714 0.40096 0.0
C318 C 0.85764 0.22915 0.53588 0.0
H319 H 0.87366 0.24825 0.21577 0.0
H320 H 0.83757 0.19957 0.35767 0.0
C321 C 0.87444 0.26647 0.58768 0.0
C322 C 0.25954 0.90079 0.50882 0.0
C323 C 0.26831 0.9036 0.37457 0.0
H324 H 0.28353 0.88204 0.69385 0.0
C325 C 0.29693 0.87473 0.32072 0.0
H326 H 0.23666 0.92119 0.55462 0.0
C327 C 0.32433 0.85295 0.40217 0.0
C328 C 0.32307 0.86026 0.53657 0.0
H329 H 0.30248 0.87383 0.21675 0.0
H330 H 0.35158 0.83863 0.35831 0.0
C331 C 0.28625 0.87769 0.58964 0.0
C332 C 0.67739 0.29835 0.3108 0.0
C333 C 0.64883 0.2693 0.36495 0.0
H334 H 0.71273 0.35364 0.34797 0.0
C335 C 0.65164 0.26052 0.49918 0.0
H336 H 0.6783 0.30394 0.20682 0.0
C337 C 0.67435 0.28758 0.57978 0.0
C338 C 0.69145 0.32468 0.52653 0.0
H339 H 0.63148 0.23733 0.54523 0.0
H340 H 0.66999 0.28478 0.68405 0.0
C341 C 0.69876 0.3261 0.39203 0.0
C342 C 0.29113 0.65475 0.50414 0.0
C343 C 0.28208 0.65128 0.37039 0.0
H344 H 0.2676 0.67446 0.6888 0.0
C345 C 0.25336 0.6799 0.31577 0.0
H346 H 0.31415 0.63462 0.55045 0.0
C347 C 0.22605 0.70197 0.39684 0.0
C348 C 0.22759 0.69526 0.53166 0.0
H349 H 0.24765 0.68039 0.21193 0.0
H350 H 0.19868 0.71599 0.35298 0.0
C351 C 0.2646 0.67826 0.58442 0.0
C352 C 0.15267 0.76143 0.10116 0.0
C353 C 0.14879 0.77088 0.23459 0.0
H354 H 0.17306 0.78443 0.9161 0.0
C355 C 0.17719 0.79991 0.28871 0.0
H356 H 0.13273 0.73817 0.05524 0.0
C357 C 0.19955 0.82703 0.20716 0.0
C358 C 0.19332 0.82507 0.07228 0.0
H359 H 0.17739 0.80593 0.39238 0.0
H360 H 0.21349 0.85459 0.25046 0.0
C361 C 0.17646 0.78779 1.02044 0.0
C362 C 0.79191 0.15283 0.09748 0.0
C363 C 0.78316 0.15028 0.23179 0.0
H364 H 0.76784 0.17113 0.91211 0.0
C365 C 0.7545 0.1792 0.28513 0.0
H366 H 0.81481 0.13236 0.05207 0.0
C367 C 0.72706 0.20079 0.2033 0.0
C368 C 0.72833 0.19324 0.06903 0.0
H369 H 0.74893 0.18026 0.38908 0.0
H370 H 0.69979 0.21514 0.2469 0.0
C371 C 0.76514 0.17571 1.01624 0.0
C372 C 0.39968 0.79344 0.10413 0.0
C373 C 0.40245 0.78464 0.23835 0.0
H374 H 0.38142 0.76922 0.91916 0.0
C375 C 0.37389 0.75555 0.29234 0.0
H376 H 0.41984 0.81666 0.05823 0.0
C377 C 0.35258 0.72779 0.21098 0.0
C378 C 0.35993 0.72926 0.07649 0.0
H379 H 0.37296 0.74992 0.3963 0.0
H380 H 0.3386 0.70024 0.2549 0.0
C381 C 0.37702 0.76638 1.02341 0.0
C382 C 0.79815 0.37458 0.29032 0.0
C383 C 0.76938 0.40306 0.23528 0.0
H384 H 0.85283 0.33847 0.25357 0.0
C385 C 0.76022 0.39926 0.10167 0.0
H386 H 0.80392 0.37431 0.39413 0.0
C387 C 0.78671 0.37558 1.02173 0.0
C388 C 0.82381 0.3588 0.0746 0.0
H389 H 0.73715 0.41924 0.05505 0.0
H390 H 0.78363 0.3791 0.91729 0.0
C391 C 0.82542 0.35235 0.20953 0.0
C392 C 1.00269 0.22718 0.97295 0.0
C393 C 1.01988 0.23491 0.09679 0.0
H394 H 0.99304 0.18321 0.81798 0.0
C395 C 0.04385 0.2027 0.15477 0.0
H396 H 0.98302 0.25079 0.92712 0.0
C397 C 0.04893 0.16332 0.09302 0.0
C398 C 0.02988 0.15482 0.97181 0.0
H399 H 0.0563 0.20697 0.25184 0.0
H400 H 0.06617 0.13883 0.1435 0.0
C401 C 1.00783 0.18796 0.91119 0.0
C402 C 0.34847 0.04628 0.14656 0.0
C403 C 0.31737 1.02018 0.09202 0.0
H404 H 0.41159 0.07048 0.13302 0.0
C405 C 0.32621 1.00105 0.9715 0.0
H406 H 0.34334 0.06036 0.24113 0.0
C407 C 0.36549 1.00633 0.91003 0.0
C408 C 0.39757 0.03057 0.96752 0.0
H409 H 0.30346 0.9798 0.92843 0.0
H410 H 0.3712 0.98987 0.81994 0.0
C411 C 0.38793 0.05152 0.08504 0.0
C412 C 0.55057 0.32665 0.96447 0.0
C413 C 0.53206 0.31772 0.08616 0.0
H414 H 0.56135 0.37196 0.81295 0.0
C415 C 0.50662 0.34894 0.143 0.0
H416 H 0.57133 0.30381 0.91964 0.0
C417 C 0.50146 0.38863 0.08258 0.0
C418 C 0.52185 0.39837 0.96389 0.0
H419 H 0.49306 0.34372 0.23848 0.0
H420 H 0.48306 0.41238 0.1323 0.0
C421 C 0.54536 0.36617 0.90406 0.0
C422 C 0.20152 0.50895 0.15058 0.0
C423 C 0.23326 0.5339 0.09351 0.0
H424 H 0.13799 0.48579 0.1392 0.0
C425 C 0.22501 0.55208 0.97099 0.0
H426 H 0.20616 0.49568 0.24668 0.0
C427 C 0.18575 0.54695 0.90979 0.0
C428 C 0.15308 0.52385 0.96958 0.0
H429 H 0.24823 0.57252 0.92588 0.0
H430 H 0.18058 0.5626 0.81785 0.0
C431 C 0.16209 0.50385 0.08936 0.0
C432 C 1.00718 0.85173 0.45381 0.0
C433 C 0.03123 0.81955 0.5116 0.0
H434 H 0.98488 0.91561 0.46512 0.0
C435 C 0.0486 0.82733 0.63518 0.0
H436 H 0.99459 0.84742 0.35694 0.0
C437 C 0.04356 0.86659 0.69682 0.0
C438 C 1.02142 0.8997 0.63636 0.0
H439 H 0.06833 0.80374 0.68085 0.0
H440 H 0.0585 0.87138 0.78978 0.0
C441 C 1.00219 0.89115 0.51546 0.0
C442 C 0.70273 1.00793 0.45921 0.0
C443 C 0.73386 0.03386 0.51437 0.0
H444 H 0.63953 0.98389 0.47189 0.0
C445 C 0.72497 0.05286 0.63504 0.0
H446 H 0.70791 0.99396 0.3645 0.0
C447 C 0.68562 0.04761 0.69608 0.0
C448 C 0.65352 1.02353 0.638 0.0
H449 H 0.74774 0.07398 0.67856 0.0
H450 H 0.67987 0.06396 0.78634 0.0
C451 C 0.6632 1.00271 0.5203 0.0
C452 C 0.54456 0.70489 0.45988 0.0
C453 C 0.51923 0.73615 0.51699 0.0
H454 H 0.56808 0.64143 0.4704 0.0
C455 C 0.50086 0.72726 0.63889 0.0
H456 H 0.55801 0.71008 0.36423 0.0
C457 C 0.5061 0.68774 0.69929 0.0
C458 C 0.52952 0.65551 0.63925 0.0
H459 H 0.48018 0.75014 0.68392 0.0
H460 H 0.49023 0.68199 0.79061 0.0
C461 C 0.54976 0.6652 0.5203 0.0
C462 C 0.82596 0.50271 0.63419 0.0
C463 C 0.81783 0.5208 0.51147 0.0
H464 H 0.87022 0.49233 0.78789 0.0
C465 C 0.84962 0.54576 0.45462 0.0
H466 H 0.80272 0.48228 0.67915 0.0
C467 C 0.88897 0.55094 0.51626 0.0
C468 C 0.89787 0.53102 0.63624 0.0
H469 H 0.84508 0.55896 0.35839 0.0
H470 H 0.91311 0.569 0.46658 0.0
C471 C 0.86515 0.50792 0.69579 0.0
loop_
_geom_bond_atom_site_label_1
_geom_bond_atom_site_label_2
_geom_bond_distance
_geom_bond_site_symmetry_2
_ccdc_geom_bond_type
H0 C3 0.931 . S
H1 C6 0.928 . S
H2 C8 0.930 . S
C3 H0 0.931 . S
C3 C4 1.413 . S
C3 C5 1.360 . S
C4 C3 1.413 . S
C4 C8 1.429 . S
C5 C3 1.360 . S
C5 C6 1.372 . S
C6 H1 0.928 . S
C6 C5 1.372 . S
C6 C7 1.404 . S
C7 C6 1.404 . S
C7 C8 1.391 . S
C8 H2 0.930 . S
C8 C4 1.429 . S
C8 C7 1.391 . S
H9 C12 0.931 . S
H10 C15 0.928 . S
H11 C17 0.930 . S
C12 H9 0.931 . S
C12 C13 1.413 . S
C12 C14 1.360 . S
C13 C12 1.413 . S
C13 C17 1.429 1_655 S
C14 C12 1.360 . S
C14 C15 1.372 . S
C15 H10 0.928 . S
C15 C14 1.372 . S
C15 C16 1.404 . S
C16 C15 1.404 . S
C16 C17 1.390 1_655 S
C17 H11 0.930 . S
C17 C13 1.429 1_455 S
C17 C16 1.390 1_455 S
H18 C21 0.931 . S
H19 C24 0.928 . S
H20 C26 0.930 . S
C21 H18 0.931 . S
C21 C22 1.413 . S
C21 C23 1.360 . S
C22 C21 1.413 . S
C22 C26 1.429 1_565 S
C23 C21 1.360 . S
C23 C24 1.372 . S
C24 H19 0.928 . S
C24 C23 1.372 . S
C24 C25 1.404 . S
C25 C24 1.404 . S
C25 C26 1.390 1_565 S
C26 H20 0.930 . S
C26 C22 1.429 1_545 S
C26 C25 1.390 1_545 S
H27 C30 0.931 . S
H28 C33 0.928 . S
H29 C35 0.930 . S
C30 H27 0.931 . S
C30 C31 1.413 . S
C30 C32 1.360 . S
C31 C30 1.413 . S
C31 C35 1.429 . S
C32 C30 1.360 . S
C32 C33 1.372 . S
C33 H28 0.928 . S
C33 C32 1.372 . S
C33 C34 1.404 . S
C34 C33 1.404 . S
C34 C35 1.391 . S
C35 H29 0.930 . S
C35 C31 1.429 . S
C35 C34 1.391 . S
H36 C39 0.931 1_556 S
H37 C42 0.928 . S
H38 C44 0.930 . S
C39 H36 0.931 1_554 S
C39 C40 1.413 1_554 S
C39 C41 1.360 . S
C40 C39 1.413 1_556 S
C40 C44 1.429 . S
C41 C39 1.360 . S
C41 C42 1.372 . S
C42 H37 0.928 . S
C42 C41 1.372 . S
C42 C43 1.404 . S
C43 C42 1.404 . S
C43 C44 1.391 1_554 S
C44 H38 0.930 . S
C44 C40 1.429 . S
C44 C43 1.391 1_556 S
H45 C48 0.931 1_556 S
H46 C51 0.928 . S
H47 C53 0.930 . S
C48 H45 0.931 1_554 S
C48 C49 1.413 1_554 S
C48 C50 1.360 . S
C49 C48 1.413 1_556 S
C49 C53 1.429 1_655 S
C50 C48 1.360 . S
C50 C51 1.372 . S
C51 H46 0.928 . S
C51 C50 1.372 . S
C51 C52 1.404 . S
C52 C51 1.404 . S
C52 C53 1.391 1_654 S
C53 H47 0.930 . S
C53 C49 1.429 1_455 S
C53 C52 1.391 1_456 S
H54 C57 0.931 1_556 S
H55 C60 0.928 . S
H56 C62 0.930 . S
C57 H54 0.931 1_554 S
C57 C58 1.413 1_554 S
C57 C59 1.360 . S
C58 C57 1.413 1_556 S
C58 C62 1.429 1_565 S
C59 C57 1.360 . S
C59 C60 1.372 . S
C60 H55 0.928 . S
C60 C59 1.372 . S
C60 C61 1.404 . S
C61 C60 1.404 . S
C61 C62 1.391 1_564 S
C62 H56 0.930 . S
C62 C58 1.429 1_545 S
C62 C61 1.391 1_546 S
H63 C66 0.931 . S
H64 C69 0.928 . S
H65 C71 0.930 . S
C66 H63 0.931 . S
C66 C67 1.413 1_556 S
C66 C68 1.360 . S
C67 C66 1.413 1_554 S
C67 C71 1.429 . S
C68 C66 1.360 . S
C68 C69 1.372 . S
C69 H64 0.928 . S
C69 C68 1.372 . S
C69 C70 1.404 1_556 S
C70 C69 1.404 1_554 S
C70 C71 1.391 . S
C71 H65 0.930 . S
C71 C67 1.429 . S
C71 C70 1.391 . S
Gd72 C75 2.818 1_556 S
Gd72 O92 2.377 . S
Gd72 O94 2.448 . S
Gd72 O95 2.506 1_556 S
Gd72 O96 2.435 . S
Gd72 O97 2.717 1_565 S
Gd72 O99 2.395 1_565 S
Gd72 O103 2.327 1_455 S
Gd73 C84 2.818 . S
Gd73 O93 2.395 1_545 S
Gd73 O97 2.327 1_655 S
Gd73 O98 2.377 . S
Gd73 O100 2.448 . S
Gd73 O101 2.506 . S
Gd73 O102 2.435 . S
Gd73 O103 2.717 1_545 S
C74 O92 1.240 1_655 S
C74 O93 1.240 . S
C75 Gd72 2.818 1_554 S
C75 C76 1.510 . S
C75 O94 1.249 1_554 S
C75 O95 1.252 . S
C76 C75 1.510 . S
C76 C77 1.404 . S
C76 C78 1.352 . S
C77 C76 1.404 . S
C77 C81 1.389 . S
C77 H104 0.930 . S
C78 C76 1.352 . S
C78 C80 1.374 . S
C78 H105 0.931 . S
C79 C80 1.359 . S
C79 C81 1.364 . S
C80 C78 1.374 . S
C80 C79 1.359 . S
C80 H106 0.931 . S
C81 C77 1.389 . S
C81 C79 1.364 . S
C81 H107 0.931 . S
C82 O96 1.256 . S
C82 O97 1.257 1_565 S
C83 O98 1.240 1_455 S
C83 O99 1.240 . S
C84 Gd73 2.818 . S
C84 C85 1.510 . S
C84 O100 1.249 . S
C84 O101 1.252 . S
C85 C84 1.510 . S
C85 C86 1.404 . S
C85 C87 1.352 . S
C86 C85 1.404 . S
C86 C90 1.389 . S
C86 H108 0.930 . S
C87 C85 1.352 . S
C87 C89 1.374 . S
C87 H109 0.931 . S
C88 C89 1.359 . S
C88 C90 1.364 . S
C89 C87 1.374 . S
C89 C88 1.359 . S
C89 H110 0.931 . S
C90 C86 1.389 . S
C90 C88 1.364 . S
C90 H111 0.931 . S
C91 O102 1.256 . S
C91 O103 1.257 1_545 S
O92 Gd72 2.377 . S
O92 C74 1.240 1_455 S
O93 Gd73 2.395 1_565 S
O93 C74 1.240 . S
O94 Gd72 2.448 . S
O94 C75 1.249 1_556 S
O95 Gd72 2.506 1_554 S
O95 C75 1.252 . S
O96 Gd72 2.435 . S
O96 C82 1.256 . S
O97 Gd72 2.717 1_545 S
O97 Gd73 2.327 1_455 S
O97 C82 1.257 1_545 S
O98 Gd73 2.377 . S
O98 C83 1.240 1_655 S
O99 Gd72 2.395 1_545 S
O99 C83 1.240 . S
O100 Gd73 2.448 . S
O100 C84 1.249 . S
O101 Gd73 2.506 . S
O101 C84 1.252 . S
O102 Gd73 2.435 . S
O102 C91 1.256 . S
O103 Gd72 2.327 1_655 S
O103 Gd73 2.717 1_565 S
O103 C91 1.257 1_565 S
H104 C77 0.930 . S
H105 C78 0.931 . S
H106 C80 0.931 . S
H107 C81 0.931 . S
H108 C86 0.930 . S
H109 C87 0.931 . S
H110 C89 0.931 . S
H111 C90 0.931 . S
Gd112 C115 2.818 1_556 S
Gd112 O132 2.377 . S
Gd112 O134 2.448 . S
Gd112 O135 2.506 1_556 S
Gd112 O136 2.435 . S
Gd112 O137 2.717 . S
Gd112 O139 2.395 . S
Gd112 O143 2.327 1_545 S
Gd113 C124 2.818 . S
Gd113 O133 2.395 . S
Gd113 O137 2.327 1_565 S
Gd113 O138 2.377 . S
Gd113 O140 2.448 . S
Gd113 O141 2.506 . S
Gd113 O142 2.435 . S
Gd113 O143 2.717 . S
C114 O132 1.240 1_565 S
C114 O133 1.240 . S
C115 Gd112 2.818 1_554 S
C115 C116 1.510 . S
C115 O134 1.249 1_554 S
C115 O135 1.252 . S
C116 C115 1.510 . S
C116 C117 1.404 . S
C116 C118 1.352 . S
C117 C116 1.404 . S
C117 C121 1.389 . S
C117 H144 0.930 . S
C118 C116 1.352 . S
C118 C120 1.374 . S
C118 H145 0.929 1_545 S
C119 C120 1.359 . S
C119 C121 1.364 . S
C120 C118 1.374 . S
C120 C119 1.359 . S
C120 H146 0.931 . S
C121 C117 1.389 . S
C121 C119 1.364 . S
C121 H147 0.931 . S
C122 O136 1.256 . S
C122 O137 1.257 . S
C123 O138 1.240 1_545 S
C123 O139 1.240 . S
C124 Gd113 2.818 . S
C124 C125 1.510 . S
C124 O140 1.249 . S
C124 O141 1.252 . S
C125 C124 1.510 . S
C125 C126 1.404 . S
C125 C127 1.352 . S
C126 C125 1.404 . S
C126 C130 1.389 . S
C126 H148 0.930 . S
C127 C125 1.352 . S
C127 C129 1.374 . S
C127 H149 0.923 1_565 S
C128 C129 1.359 . S
C128 C130 1.364 . S
C129 C127 1.374 . S
C129 C128 1.359 . S
C129 H150 0.931 . S
C130 C126 1.389 . S
C130 C128 1.364 . S
C130 H151 0.931 . S
C131 O142 1.256 . S
C131 O143 1.257 . S
O132 Gd112 2.377 . S
O132 C114 1.240 1_545 S
O133 Gd113 2.395 . S
O133 C114 1.240 . S
O134 Gd112 2.448 . S
O134 C115 1.249 1_556 S
O135 Gd112 2.506 1_554 S
O135 C115 1.252 . S
O136 Gd112 2.435 . S
O136 C122 1.256 . S
O137 Gd112 2.717 . S
O137 Gd113 2.327 1_545 S
O137 C122 1.257 . S
O138 Gd113 2.377 . S
O138 C123 1.240 1_565 S
O139 Gd112 2.395 . S
O139 C123 1.240 . S
O140 Gd113 2.448 . S
O140 C124 1.249 . S
O141 Gd113 2.506 . S
O141 C124 1.252 . S
O142 Gd113 2.435 . S
O142 C131 1.256 . S
O143 Gd112 2.327 1_565 S
O143 Gd113 2.717 . S
O143 C131 1.257 . S
H144 C117 0.930 . S
H145 C118 0.929 1_565 S
H146 C120 0.931 . S
H147 C121 0.931 . S
H148 C126 0.930 . S
H149 C127 0.923 1_545 S
H150 C129 0.931 . S
H151 C130 0.931 . S
Gd152 C155 2.818 1_556 S
Gd152 O172 2.377 . S
Gd152 O174 2.448 . S
Gd152 O175 2.506 1_556 S
Gd152 O176 2.435 . S
Gd152 O177 2.717 . S
Gd152 O179 2.395 . S
Gd152 O183 2.327 . S
Gd153 C164 2.818 . S
Gd153 O173 2.395 . S
Gd153 O177 2.327 . S
Gd153 O178 2.377 . S
Gd153 O180 2.448 . S
Gd153 O181 2.506 . S
Gd153 O182 2.435 . S
Gd153 O183 2.717 . S
C154 O172 1.240 . S
C154 O173 1.240 . S
C155 Gd152 2.818 1_554 S
C155 C156 1.510 . S
C155 O174 1.249 1_554 S
C155 O175 1.252 . S
C156 C155 1.510 . S
C156 C157 1.404 . S
C156 C158 1.352 . S
C157 C156 1.404 . S
C157 C161 1.389 . S
C157 H184 0.930 . S
C158 C156 1.352 . S
C158 C160 1.374 . S
C158 H185 0.931 . S
C159 C160 1.359 . S
C159 C161 1.364 . S
C160 C158 1.374 . S
C160 C159 1.359 . S
C160 H186 0.931 . S
C161 C157 1.389 . S
C161 C159 1.364 . S
C161 H187 0.931 . S
C162 O176 1.256 . S
C162 O177 1.257 . S
C163 O178 1.240 . S
C163 O179 1.240 . S
C164 Gd153 2.818 . S
C164 C165 1.510 . S
C164 O180 1.249 . S
C164 O181 1.252 . S
C165 C164 1.510 . S
C165 C166 1.404 . S
C165 C167 1.352 . S
C166 C165 1.404 . S
C166 C170 1.389 . S
C166 H188 0.930 . S
C167 C165 1.352 . S
C167 C169 1.374 . S
C167 H189 0.931 . S
C168 C169 1.359 . S
C168 C170 1.364 . S
C169 C167 1.374 . S
C169 C168 1.359 . S
C169 H190 0.931 . S
C170 C166 1.389 . S
C170 C168 1.364 . S
C170 H191 0.931 . S
C171 O182 1.256 . S
C171 O183 1.257 . S
O172 Gd152 2.377 . S
O172 C154 1.240 . S
O173 Gd153 2.395 . S
O173 C154 1.240 . S
O174 Gd152 2.448 . S
O174 C155 1.249 1_556 S
O175 Gd152 2.506 1_554 S
O175 C155 1.252 . S
O176 Gd152 2.435 . S
O176 C162 1.256 . S
O177 Gd152 2.717 . S
O177 Gd153 2.327 . S
O177 C162 1.257 . S
O178 Gd153 2.377 . S
O178 C163 1.240 . S
O179 Gd152 2.395 . S
O179 C163 1.240 . S
O180 Gd153 2.448 . S
O180 C164 1.249 . S
O181 Gd153 2.506 . S
O181 C164 1.252 . S
O182 Gd153 2.435 . S
O182 C171 1.256 . S
O183 Gd152 2.327 . S
O183 Gd153 2.717 . S
O183 C171 1.257 . S
H184 C157 0.930 . S
H185 C158 0.931 . S
H186 C160 0.931 . S
H187 C161 0.931 . S
H188 C166 0.930 . S
H189 C167 0.931 . S
H190 C169 0.931 . S
H191 C170 0.931 . S
Gd192 C195 2.818 1_556 S
Gd192 O212 2.377 . S
Gd192 O214 2.448 . S
Gd192 O215 2.506 1_556 S
Gd192 O216 2.435 . S
Gd192 O217 2.717 1_655 S
Gd192 O219 2.395 1_655 S
Gd192 O223 2.327 . S
Gd193 C204 2.818 . S
Gd193 O213 2.395 1_455 S
Gd193 O217 2.327 . S
Gd193 O218 2.377 . S
Gd193 O220 2.448 . S
Gd193 O221 2.506 . S
Gd193 O222 2.435 . S
Gd193 O223 2.717 1_455 S
C194 O212 1.240 . S
C194 O213 1.240 . S
C195 Gd192 2.818 1_554 S
C195 C196 1.510 . S
C195 O214 1.249 1_554 S
C195 O215 1.252 . S
C196 C195 1.510 . S
C196 C197 1.404 . S
C196 C198 1.352 . S
C197 C196 1.404 . S
C197 C201 1.389 . S
C197 H224 0.930 . S
C198 C196 1.352 . S
C198 C200 1.374 . S
C198 H225 0.931 . S
C199 C200 1.359 . S
C199 C201 1.364 . S
C200 C198 1.374 . S
C200 C199 1.359 . S
C200 H226 0.931 . S
C201 C197 1.389 . S
C201 C199 1.364 . S
C201 H227 0.931 . S
C202 O216 1.262 . S
C202 O217 1.254 1_655 S
C203 O218 1.240 . S
C203 O219 1.240 . S
C204 Gd193 2.818 . S
C204 C205 1.510 . S
C204 O220 1.249 . S
C204 O221 1.252 . S
C205 C204 1.510 . S
C205 C206 1.404 . S
C205 C207 1.352 . S
C206 C205 1.404 . S
C206 C210 1.389 . S
C206 H228 0.930 . S
C207 C205 1.352 . S
C207 C209 1.374 . S
C207 H229 0.931 . S
C208 C209 1.359 . S
C208 C210 1.364 . S
C209 C207 1.374 . S
C209 C208 1.359 . S
C209 H230 0.931 . S
C210 C206 1.389 . S
C210 C208 1.364 . S
C210 H231 0.931 . S
C211 O222 1.265 . S
C211 O223 1.253 1_455 S
O212 Gd192 2.377 . S
O212 C194 1.240 . S
O213 Gd193 2.395 1_655 S
O213 C194 1.240 . S
O214 Gd192 2.448 . S
O214 C195 1.249 1_556 S
O215 Gd192 2.506 1_554 S
O215 C195 1.252 . S
O216 Gd192 2.435 . S
O216 C202 1.262 . S
O217 Gd192 2.717 1_455 S
O217 Gd193 2.327 . S
O217 C202 1.254 1_455 S
O218 Gd193 2.377 . S
O218 C203 1.240 . S
O219 Gd192 2.395 1_455 S
O219 C203 1.240 . S
O220 Gd193 2.448 . S
O220 C204 1.249 . S
O221 Gd193 2.506 . S
O221 C204 1.252 . S
O222 Gd193 2.435 . S
O222 C211 1.265 . S
O223 Gd192 2.327 . S
O223 Gd193 2.717 1_655 S
O223 C211 1.253 1_655 S
H224 C197 0.930 . S
H225 C198 0.931 . S
H226 C200 0.931 . S
H227 C201 0.931 . S
H228 C206 0.930 . S
H229 C207 0.931 . S
H230 C209 0.931 . S
H231 C210 0.931 . S
C232 C233 1.402 . S
C232 H236 0.950 . S
C232 C241 1.390 . S
C233 C232 1.402 . S
C233 C235 1.373 1_545 S
H234 C241 0.950 . S
C235 C233 1.373 1_565 S
C235 C237 1.390 . S
C235 H239 0.950 . S
H236 C232 0.950 . S
C237 C235 1.390 . S
C237 C238 1.387 1_565 S
C237 H240 0.950 . S
C238 C237 1.387 1_545 S
C238 C241 1.387 . S
H239 C235 0.950 . S
H240 C237 0.950 . S
C241 C232 1.390 . S
C241 H234 0.950 . S
C241 C238 1.387 . S
C242 C243 1.387 . S
C242 H246 0.950 . S
C242 C251 1.390 . S
C243 C242 1.387 . S
C243 C245 1.387 . S
H244 C251 0.950 . S
C245 C243 1.387 . S
C245 C247 1.390 . S
C245 H249 0.950 . S
H246 C242 0.950 . S
C247 C245 1.390 . S
C247 C248 1.387 . S
C247 H250 0.950 . S
C248 C247 1.387 . S
C248 C251 1.387 . S
H249 C245 0.950 . S
H250 C247 0.950 . S
C251 C242 1.390 . S
C251 H244 0.950 . S
C251 C248 1.387 . S
C252 C253 1.387 . S
C252 H256 0.950 . S
C252 C261 1.390 . S
C253 C252 1.387 . S
C253 C255 1.387 . S
H254 C261 0.950 . S
C255 C253 1.387 . S
C255 C257 1.390 . S
C255 H259 0.950 . S
H256 C252 0.950 . S
C257 C255 1.390 . S
C257 C258 1.387 . S
C257 H260 0.950 . S
C258 C257 1.387 . S
C258 C261 1.387 . S
H259 C255 0.950 . S
H260 C257 0.950 . S
C261 C252 1.390 . S
C261 H254 0.950 . S
C261 C258 1.387 . S
C262 C263 1.387 1_655 S
C262 H266 0.950 . S
C262 C271 1.390 . S
C263 C262 1.387 1_455 S
C263 C265 1.387 . S
H264 C271 0.950 . S
C265 C263 1.387 . S
C265 C267 1.390 . S
C265 H269 0.950 . S
H266 C262 0.950 . S
C267 C265 1.390 . S
C267 C268 1.387 . S
C267 H270 0.950 . S
C268 C267 1.387 . S
C268 C271 1.387 1_455 S
H269 C265 0.950 . S
H270 C267 0.950 . S
C271 C262 1.390 . S
C271 H264 0.950 . S
C271 C268 1.387 1_655 S
C272 C273 1.378 1_545 S
C272 H276 0.950 . S
C272 C281 1.390 . S
C273 C272 1.378 1_565 S
C273 C275 1.397 . S
H274 C281 0.950 . S
C275 C273 1.397 . S
C275 C277 1.390 . S
C275 H279 0.950 . S
H276 C272 0.950 . S
C277 C275 1.390 . S
C277 C278 1.387 . S
C277 H280 0.950 . S
C278 C277 1.387 . S
C278 C281 1.387 1_565 S
H279 C275 0.950 . S
H280 C277 0.950 . S
C281 C272 1.390 . S
C281 H274 0.950 . S
C281 C278 1.387 1_545 S
C282 C283 1.387 . S
C282 H286 0.950 . S
C282 C291 1.390 . S
C283 C282 1.387 . S
C283 C285 1.387 . S
H284 C291 0.950 . S
C285 C283 1.387 . S
C285 C287 1.390 . S
C285 H289 0.950 . S
H286 C282 0.950 . S
C287 C285 1.390 . S
C287 C288 1.387 . S
C287 H290 0.950 . S
C288 C287 1.387 . S
C288 C291 1.387 . S
H289 C285 0.950 . S
H290 C287 0.950 . S
C291 C282 1.390 . S
C291 H284 0.950 . S
C291 C288 1.387 . S
C292 C293 1.387 . S
C292 H296 0.950 . S
C292 C301 1.390 . S
C293 C292 1.387 . S
C293 C295 1.387 . S
H294 C301 0.950 . S
C295 C293 1.387 . S
C295 C297 1.390 . S
C295 H299 0.950 . S
H296 C292 0.950 . S
C297 C295 1.390 . S
C297 C298 1.387 . S
C297 H300 0.950 . S
C298 C297 1.387 . S
C298 C301 1.387 . S
H299 C295 0.950 . S
H300 C297 0.950 . S
C301 C292 1.390 . S
C301 H294 0.950 . S
C301 C298 1.387 . S
C302 C303 1.387 1_455 S
C302 H306 0.950 . S
C302 C311 1.390 . S
C303 C302 1.387 1_655 S
C303 C305 1.387 . S
H304 C311 0.950 . S
C305 C303 1.387 . S
C305 C307 1.390 . S
C305 H309 0.950 . S
H306 C302 0.950 . S
C307 C305 1.390 . S
C307 C308 1.387 . S
C307 H310 0.950 . S
C308 C307 1.387 . S
C308 C311 1.387 1_655 S
H309 C305 0.950 . S
H310 C307 0.950 . S
C311 C302 1.390 . S
C311 H304 0.950 . S
C311 C308 1.387 1_455 S
C312 C313 1.387 . S
C312 H316 0.950 . S
C312 C321 1.390 . S
C313 C312 1.387 . S
C313 C315 1.387 . S
H314 C321 0.950 . S
C315 C313 1.387 . S
C315 C317 1.390 . S
C315 H319 0.950 . S
H316 C312 0.950 . S
C317 C315 1.390 . S
C317 C318 1.387 . S
C317 H320 0.950 . S
C318 C317 1.387 . S
C318 C321 1.387 . S
H319 C315 0.950 . S
H320 C317 0.950 . S
C321 C312 1.390 . S
C321 H314 0.950 . S
C321 C318 1.387 . S
C322 C323 1.387 . S
C322 H326 0.950 1_565 S
C322 C331 1.390 . S
C323 C322 1.387 . S
C323 C325 1.387 . S
H324 C331 0.950 . S
C325 C323 1.387 . S
C325 C327 1.390 . S
C325 H329 0.950 . S
H326 C322 0.950 1_545 S
C327 C325 1.390 . S
C327 C328 1.387 . S
C327 H330 0.950 . S
C328 C327 1.387 . S
C328 C331 1.387 . S
H329 C325 0.950 . S
H330 C327 0.950 . S
C331 C322 1.390 . S
C331 H324 0.950 . S
C331 C328 1.387 . S
C332 C333 1.387 . S
C332 H336 0.950 . S
C332 C341 1.390 . S
C333 C332 1.387 . S
C333 C335 1.387 . S
H334 C341 0.950 . S
C335 C333 1.387 . S
C335 C337 1.390 . S
C335 H339 0.950 . S
H336 C332 0.950 . S
C337 C335 1.390 . S
C337 C338 1.387 . S
C337 H340 0.950 . S
C338 C337 1.387 . S
C338 C341 1.387 . S
H339 C335 0.950 . S
H340 C337 0.950 . S
C341 C332 1.390 . S
C341 H334 0.950 . S
C341 C338 1.387 . S
C342 C343 1.387 . S
C342 H346 0.950 . S
C342 C351 1.390 . S
C343 C342 1.387 . S
C343 C345 1.387 . S
H344 C351 0.950 . S
C345 C343 1.387 . S
C345 C347 1.390 . S
C345 H349 0.950 . S
H346 C342 0.950 . S
C347 C345 1.390 . S
C347 C348 1.387 . S
C347 H350 0.950 . S
C348 C347 1.387 . S
C348 C351 1.387 . S
H349 C345 0.950 . S
H350 C347 0.950 . S
C351 C342 1.390 . S
C351 H344 0.950 . S
C351 C348 1.387 . S
C352 C353 1.387 . S
C352 H356 0.950 . S
C352 C361 1.390 . S
C353 C352 1.387 . S
C353 C355 1.387 . S
H354 C361 0.950 . S
C355 C353 1.387 . S
C355 C357 1.390 . S
C355 H359 0.950 . S
H356 C352 0.950 . S
C357 C355 1.390 . S
C357 C358 1.387 . S
C357 H360 0.950 . S
C358 C357 1.387 . S
C358 C361 1.387 . S
H359 C355 0.950 . S
H360 C357 0.950 . S
C361 C352 1.390 . S
C361 H354 0.950 . S
C361 C358 1.387 . S
C362 C363 1.387 . S
C362 H366 0.950 1_545 S
C362 C371 1.390 . S
C363 C362 1.387 . S
C363 C365 1.387 . S
H364 C371 0.950 . S
C365 C363 1.387 . S
C365 C367 1.390 . S
C365 H369 0.950 . S
H366 C362 0.950 1_565 S
C367 C365 1.390 . S
C367 C368 1.387 . S
C367 H370 0.950 . S
C368 C367 1.387 . S
C368 C371 1.387 . S
H369 C365 0.950 . S
H370 C367 0.950 . S
C371 C362 1.390 . S
C371 H364 0.950 . S
C371 C368 1.387 . S
C372 C373 1.387 . S
C372 H376 0.950 . S
C372 C381 1.390 . S
C373 C372 1.387 . S
C373 C375 1.387 . S
H374 C381 0.950 . S
C375 C373 1.387 . S
C375 C377 1.390 . S
C375 H379 0.950 . S
H376 C372 0.950 . S
C377 C375 1.390 . S
C377 C378 1.387 . S
C377 H380 0.950 . S
C378 C377 1.387 . S
C378 C381 1.387 . S
H379 C375 0.950 . S
H380 C377 0.950 . S
C381 C372 1.390 . S
C381 H374 0.950 . S
C381 C378 1.387 . S
C382 C383 1.387 . S
C382 H386 0.950 . S
C382 C391 1.390 . S
C383 C382 1.387 . S
C383 C385 1.387 . S
H384 C391 0.950 . S
C385 C383 1.387 . S
C385 C387 1.390 . S
C385 H389 0.950 . S
H386 C382 0.950 . S
C387 C385 1.390 . S
C387 C388 1.387 . S
C387 H390 0.950 . S
C388 C387 1.387 . S
C388 C391 1.387 . S
H389 C385 0.950 . S
H390 C387 0.950 . S
C391 C382 1.390 . S
C391 H384 0.950 . S
C391 C388 1.387 . S
C392 C393 1.387 . S
C392 H396 0.950 . S
C392 C401 1.390 . S
C393 C392 1.387 . S
C393 C395 1.387 . S
H394 C401 0.950 . S
C395 C393 1.387 . S
C395 C397 1.390 . S
C395 H399 0.950 1_556 S
H396 C392 0.950 . S
C397 C395 1.390 . S
C397 C398 1.387 . S
C397 H400 0.950 1_556 S
C398 C397 1.387 . S
C398 C401 1.387 . S
H399 C395 0.950 1_554 S
H400 C397 0.950 1_554 S
C401 C392 1.390 . S
C401 H394 0.950 . S
C401 C398 1.387 . S
C402 C403 1.387 . S
C402 H406 0.950 1_556 S
C402 C411 1.390 . S
C403 C402 1.387 . S
C403 C405 1.387 . S
H404 C411 0.950 1_554 S
C405 C403 1.387 . S
C405 C407 1.390 . S
C405 H409 0.950 1_545 S
H406 C402 0.950 1_554 S
C407 C405 1.390 . S
C407 C408 1.387 . S
C407 H410 0.950 . S
C408 C407 1.387 . S
C408 C411 1.387 . S
H409 C405 0.950 1_565 S
H410 C407 0.950 . S
C411 C402 1.390 . S
C411 H404 0.950 1_556 S
C411 C408 1.387 . S
C412 C413 1.387 . S
C412 H416 0.950 . S
C412 C421 1.390 . S
C413 C412 1.387 . S
C413 C415 1.387 . S
H414 C421 0.950 . S
C415 C413 1.387 . S
C415 C417 1.390 . S
C415 H419 0.950 1_556 S
H416 C412 0.950 . S
C417 C415 1.390 . S
C417 C418 1.387 . S
C417 H420 0.950 1_556 S
C418 C417 1.387 . S
C418 C421 1.387 . S
H419 C415 0.950 1_554 S
H420 C417 0.950 1_554 S
C421 C412 1.390 . S
C421 H414 0.950 . S
C421 C418 1.387 . S
C422 C423 1.387 . S
C422 H426 0.950 1_556 S
C422 C431 1.390 . S
C423 C422 1.387 . S
C423 C425 1.387 . S
H424 C431 0.950 1_554 S
C425 C423 1.387 . S
C425 C427 1.390 . S
C425 H429 0.950 . S
H426 C422 0.950 1_554 S
C427 C425 1.390 . S
C427 C428 1.387 . S
C427 H430 0.950 . S
C428 C427 1.387 . S
C428 C431 1.387 . S
H429 C425 0.950 . S
H430 C427 0.950 . S
C431 C422 1.390 . S
C431 H424 0.950 1_556 S
C431 C428 1.387 . S
C432 C433 1.387 . S
C432 H436 0.950 . S
C432 C441 1.390 . S
C433 C432 1.387 . S
C433 C435 1.387 . S
H434 C441 0.950 . S
C435 C433 1.387 . S
C435 C437 1.390 . S
C435 H439 0.950 . S
H436 C432 0.950 . S
C437 C435 1.390 . S
C437 C438 1.387 . S
C437 H440 0.950 . S
C438 C437 1.387 . S
C438 C441 1.387 . S
H439 C435 0.950 . S
H440 C437 0.950 . S
C441 C432 1.390 . S
C441 H434 0.950 . S
C441 C438 1.387 . S
C442 C443 1.387 . S
C442 H446 0.950 . S
C442 C451 1.390 . S
C443 C442 1.387 . S
C443 C445 1.387 . S
H444 C451 0.950 . S
C445 C443 1.387 . S
C445 C447 1.390 . S
C445 H449 0.950 1_565 S
H446 C442 0.950 . S
C447 C445 1.390 . S
C447 C448 1.387 . S
C447 H450 0.950 . S
C448 C447 1.387 . S
C448 C451 1.387 . S
H449 C445 0.950 1_545 S
H450 C447 0.950 . S
C451 C442 1.390 . S
C451 H444 0.950 . S
C451 C448 1.387 . S
C452 C453 1.387 . S
C452 H456 0.950 . S
C452 C461 1.390 . S
C453 C452 1.387 . S
C453 C455 1.387 . S
H454 C461 0.950 . S
C455 C453 1.387 . S
C455 C457 1.390 . S
C455 H459 0.950 . S
H456 C452 0.950 . S
C457 C455 1.390 . S
C457 C458 1.387 . S
C457 H460 0.950 . S
C458 C457 1.387 . S
C458 C461 1.387 . S
H459 C455 0.950 . S
H460 C457 0.950 . S
C461 C452 1.390 . S
C461 H454 0.950 . S
C461 C458 1.387 . S
C462 C463 1.387 . S
C462 H466 0.950 . S
C462 C471 1.390 . S
C463 C462 1.387 . S
C463 C465 1.387 . S
H464 C471 0.950 . S
C465 C463 1.387 . S
C465 C467 1.390 . S
C465 H469 0.950 . S
H466 C462 0.950 . S
C467 C465 1.390 . S
C467 C468 1.387 . S
C467 H470 0.950 . S
C468 C467 1.387 . S
C468 C471 1.387 . S
H469 C465 0.950 . S
H470 C467 0.950 . S
C471 C462 1.390 . S
C471 H464 0.950 . S
C471 C468 1.387 . S
C233 C61 1.996 1_545 S
C238 C82 2.262 1_545 S
C248 C122 2.280 . S
C243 C70 2.035 . S
C258 C162 2.285 . S
C253 C43 2.027 . S
C268 C202 2.274 1_455 S
C263 C52 2.015 1_455 S
C278 C91 2.263 1_564 S
C273 C25 1.998 . S
C283 C34 2.035 . S
C288 C131 2.280 1_554 S
C293 C7 2.025 . S
C298 C171 2.285 1_554 S
C303 C16 2.011 . S
C308 C211 2.273 1_654 S
C318 C88 0.894 . S
C313 C50 0.947 . S
C328 C128 0.886 . S
C323 C59 0.932 . S
C338 C168 0.868 . S
C333 C67 0.918 . S
C343 C41 0.931 . S
C348 C208 0.879 . S
C353 C14 0.944 1_455 S
C358 C79 0.889 . S
C368 C119 0.879 . S
C363 C23 0.931 1_545 S
C378 C159 0.867 . S
C373 C31 0.914 . S
C383 C5 0.941 . S
C388 C199 0.884 . S
C393 C49 2.279 1_455 S
C398 C83 2.597 . S
C403 C58 2.242 1_545 S
C408 C123 2.559 . S
C418 C163 2.551 . S
C413 C68 2.229 . S
C428 C203 2.586 . S
C423 C40 2.265 . S
C433 C13 2.278 . S
C438 C74 2.603 . S
C448 C114 2.560 . S
C443 C22 2.240 . S
C458 C154 2.552 . S
C453 C32 2.236 . S
C463 C4 2.265 . S
C468 C194 2.589 . S
