# Generated by pormake.
# Topology nom, (4,4)-cn, num edge types: 1
# Building blocks:
#     Node 0, Type 0, BuildingBlock: MUDLON_clean_linker_0, # of connection points: 4
#     Node 1, Type 0, BuildingBlock: MUDLON_clean_linker_0, # of connection points: 4
#     Node 2, Type 0, BuildingBlock: MUDLON_clean_linker_0, # of connection points: 4
#     Node 3, Type 0, BuildingBlock: MUDLON_clean_linker_0, # of connection points: 4
#     Node 4, Type 0, BuildingBlock: MUDLON_clean_linker_0, # of connection points: 4
#     Node 5, Type 0, BuildingBlock: MUDLON_clean_linker_0, # of connection points: 4
#     Node 6, Type 1, BuildingBlock: GALJAG_clean_sbu_0, # of connection points: 4
#     Node 7, Type 1, BuildingBlock: GALJAG_clean_sbu_0, # of connection points: 4
#     Node 8, Type 1, BuildingBlock: GALJAG_clean_sbu_0, # of connection points: 4
#     Node 9, Type 1, BuildingBlock: GALJAG_clean_sbu_0, # of connection points: 4
#     Node 10, Type 1, BuildingBlock: GALJAG_clean_sbu_0, # of connection points: 4
#     Node 11, Type 1, BuildingBlock: GALJAG_clean_sbu_0, # of connection points: 4
#     Edge 12, Type (0, 1), BuildingBlock: EZIPEK_clean_linker_0, # of connection points: 2
#     Edge 13, Type (0, 1), BuildingBlock: EZIPEK_clean_linker_0, # of connection points: 2
#     Edge 14, Type (0, 1), BuildingBlock: EZIPEK_clean_linker_0, # of connection points: 2
#     Edge 15, Type (0, 1), BuildingBlock: EZIPEK_clean_linker_0, # of connection points: 2
#     Edge 16, Type (0, 1), BuildingBlock: EZIPEK_clean_linker_0, # of connection points: 2
#     Edge 17, Type (0, 1), BuildingBlock: EZIPEK_clean_linker_0, # of connection points: 2
#     Edge 18, Type (0, 1), BuildingBlock: EZIPEK_clean_linker_0, # of connection points: 2
#     Edge 19, Type (0, 1), BuildingBlock: EZIPEK_clean_linker_0, # of connection points: 2
#     Edge 20, Type (0, 1), BuildingBlock: EZIPEK_clean_linker_0, # of connection points: 2
#     Edge 21, Type (0, 1), BuildingBlock: EZIPEK_clean_linker_0, # of connection points: 2
#     Edge 22, Type (0, 1), BuildingBlock: EZIPEK_clean_linker_0, # of connection points: 2
#     Edge 23, Type (0, 1), BuildingBlock: EZIPEK_clean_linker_0, # of connection points: 2
#     Edge 24, Type (0, 1), BuildingBlock: EZIPEK_clean_linker_0, # of connection points: 2
#     Edge 25, Type (0, 1), BuildingBlock: EZIPEK_clean_linker_0, # of connection points: 2
#     Edge 26, Type (0, 1), BuildingBlock: EZIPEK_clean_linker_0, # of connection points: 2
#     Edge 27, Type (0, 1), BuildingBlock: EZIPEK_clean_linker_0, # of connection points: 2
#     Edge 28, Type (0, 1), BuildingBlock: EZIPEK_clean_linker_0, # of connection points: 2
#     Edge 29, Type (0, 1), BuildingBlock: EZIPEK_clean_linker_0, # of connection points: 2
#     Edge 30, Type (0, 1), BuildingBlock: EZIPEK_clean_linker_0, # of connection points: 2
#     Edge 31, Type (0, 1), BuildingBlock: EZIPEK_clean_linker_0, # of connection points: 2
#     Edge 32, Type (0, 1), BuildingBlock: EZIPEK_clean_linker_0, # of connection points: 2
#     Edge 33, Type (0, 1), BuildingBlock: EZIPEK_clean_linker_0, # of connection points: 2
#     Edge 34, Type (0, 1), BuildingBlock: EZIPEK_clean_linker_0, # of connection points: 2
#     Edge 35, Type (0, 1), BuildingBlock: EZIPEK_clean_linker_0, # of connection points: 2
# Relax obj value: 0.016
# Max RMSD: 0.121
# Mean RMSD: 0.085
data_MOF--net-nom--node1-GALJAG_clean_sbu_0--node2-MUDLON_clean_linker_0--edge1-EZIPEK_clean_linker_0
_symmetry_space_group_name_H-M    P1
_symmetry_Int_Tables_number       1
_symmetry_cell_setting            triclinic
loop_
_symmetry_equiv_pos_as_xyz
'x, y, z'
_cell_length_a     48.037014
_cell_length_b     48.935106
_cell_length_c     50.063684
_cell_angle_alpha  90.441567
_cell_angle_beta   89.79918
_cell_angle_gamma 120.68881
loop_
_atom_site_label
_atom_site_type_symbol
_atom_site_fract_x
_atom_site_fract_y
_atom_site_fract_z
_atom_type_partial_charge
H0 H 0.15314 0.58807 0.33297 0.0
N1 N 0.11696 0.61452 0.34707 0.0
H2 H 0.20185 0.61313 0.30487 0.0
H3 H 0.13689 0.66515 0.31643 0.0
H4 H 0.18577 0.69035 0.28844 0.0
H5 H 0.15587 0.66318 0.37818 0.0
H6 H 0.17981 0.66194 0.42095 0.0
H7 H 0.10413 0.56068 0.37477 0.0
H8 H 0.12662 0.55947 0.41831 0.0
H9 H 0.09589 0.55637 0.32353 0.0
H10 H 0.06492 0.61949 0.35317 0.0
H11 H 0.04023 0.51748 0.31097 0.0
H12 H 0.00911 0.58097 0.34023 0.0
H13 H 0.85904 0.39768 0.26978 0.0
H14 H 0.83931 0.3881 0.22343 0.0
H15 H 0.87856 0.48866 0.21321 0.0
H16 H 0.898 0.49821 0.2596 0.0
H17 H 0.87269 0.49926 0.3006 0.0
H18 H 0.82553 0.49491 0.32397 0.0
H19 H 0.79783 0.40024 0.34904 0.0
H20 H 0.84512 0.40467 0.32576 0.0
H21 H 0.9429 0.4696 0.26779 0.0
H22 H 0.99833 0.50905 0.2794 0.0
H23 H 0.96527 0.5288 0.35332 0.0
N24 N 0.88821 0.45269 0.29621 0.0
H25 H 0.91003 0.49004 0.34183 0.0
C26 C 0.14144 0.62488 0.32669 0.0
C27 C 0.15941 0.60977 0.32256 0.0
C28 C 0.18718 0.62405 0.30661 0.0
C29 C 0.19721 0.6535 0.29468 0.0
C30 C 0.17816 0.66751 0.2974 0.0
C31 C 0.15039 0.6532 0.31327 0.0
C32 C 0.12789 0.6122 0.37333 0.0
C33 C 0.14924 0.64044 0.38687 0.0
C34 C 0.16297 0.63972 0.41114 0.0
C35 C 0.15505 0.61061 0.42274 0.0
C36 C 0.13313 0.58217 0.40959 0.0
C37 C 0.12007 0.58292 0.38483 0.0
C38 C 0.0845 0.59092 0.33928 0.0
C39 C 0.07715 0.56197 0.32717 0.0
C40 C 0.04528 0.53979 0.31988 0.0
C41 C 0.02019 0.54612 0.32455 0.0
C42 C 0.02775 0.57515 0.33665 0.0
C43 C 0.05958 0.59724 0.34394 0.0
C44 C 0.88 0.44852 0.26813 0.0
C45 C 0.86375 0.41766 0.25741 0.0
C46 C 0.85252 0.41223 0.2311 0.0
C47 C 0.8575 0.43768 0.21502 0.0
C48 C 0.87455 0.46876 0.22538 0.0
C49 C 0.88554 0.47416 0.25181 0.0
C50 C 0.86234 0.45214 0.31149 0.0
C51 C 0.85661 0.47766 0.31123 0.0
C52 C 0.82985 0.47526 0.32462 0.0
C53 C 0.80827 0.44722 0.3381 0.0
C54 C 0.8143 0.42205 0.33875 0.0
C55 C 0.84115 0.42455 0.32555 0.0
C56 C 0.92113 0.47781 0.30276 0.0
C57 C 0.94718 0.48297 0.28617 0.0
C58 C 0.97914 0.50527 0.29302 0.0
C59 C 0.98621 0.5225 0.31708 0.0
C60 C 0.96058 0.51667 0.33422 0.0
C61 C 0.92863 0.49439 0.3274 0.0
H62 H 0.42283 0.87001 0.46332 0.0
N63 N 0.39812 0.90769 0.44974 0.0
H64 H 0.3964 0.82278 0.49162 0.0
H65 H 0.34576 0.8885 0.47993 0.0
H66 H 0.31959 0.8414 0.50881 0.0
H67 H 0.35388 0.87918 0.41176 0.0
H68 H 0.36004 0.85847 0.36863 0.0
H69 H 0.45465 0.91502 0.42916 0.0
H70 H 0.46085 0.89475 0.38587 0.0
H71 H 0.45196 0.9261 0.48088 0.0
H72 H 0.39787 0.96043 0.43876 0.0
H73 H 0.49064 0.98004 0.4957 0.0
H74 H 0.43728 0.01481 0.45243 0.0
H75 H 0.61853 0.16671 0.52792 0.0
H76 H 0.63061 0.18779 0.5738 0.0
H77 H 0.52897 0.13389 0.59293 0.0
H78 H 0.5167 0.11361 0.54709 0.0
H79 H 0.52482 0.15915 0.51259 0.0
H80 H 0.53254 0.20614 0.48884 0.0
H81 H 0.60661 0.20569 0.44029 0.0
H82 H 0.59865 0.15831 0.46394 0.0
H83 H 0.57218 0.08432 0.49371 0.0
H84 H 0.53307 0.02969 0.48021 0.0
H85 H 0.45556 0.04953 0.48973 0.0
N86 N 0.56077 0.13055 0.50588 0.0
H87 H 0.49487 0.10414 0.502 0.0
C88 C 0.38596 0.88261 0.46925 0.0
C89 C 0.40058 0.86431 0.4734 0.0
C90 C 0.3856 0.83743 0.48962 0.0
C91 C 0.35609 0.82869 0.50217 0.0
C92 C 0.34244 0.84792 0.49932 0.0
C93 C 0.35728 0.87465 0.48289 0.0
C94 C 0.40369 0.89879 0.42359 0.0
C95 C 0.37739 0.88306 0.40605 0.0
C96 C 0.3809 0.87129 0.38157 0.0
C97 C 0.41089 0.87523 0.37418 0.0
C98 C 0.43759 0.89173 0.39127 0.0
C99 C 0.43401 0.9033 0.41591 0.0
C100 C 0.42166 0.93919 0.45895 0.0
C101 C 0.44835 0.94523 0.47481 0.0
C102 C 0.47071 0.97625 0.48307 0.0
C103 C 0.46712 0.00191 0.47537 0.0
C104 C 0.44054 0.99568 0.45924 0.0
C105 C 0.41809 0.96466 0.45123 0.0
C106 C 0.56687 0.13839 0.53394 0.0
C107 C 0.59892 0.15898 0.54214 0.0
C108 C 0.60578 0.17104 0.56819 0.0
C109 C 0.58064 0.16234 0.58661 0.0
C110 C 0.54864 0.1407 0.57893 0.0
C111 C 0.54171 0.12905 0.5527 0.0
C112 C 0.56123 0.15519 0.48993 0.0
C113 C 0.54208 0.16853 0.49638 0.0
C114 C 0.54651 0.19537 0.48289 0.0
C115 C 0.57015 0.20928 0.46289 0.0
C116 C 0.58817 0.19513 0.4556 0.0
C117 C 0.58366 0.16823 0.46902 0.0
C118 C 0.53662 0.09834 0.49889 0.0
C119 C 0.54671 0.07674 0.49287 0.0
C120 C 0.52427 0.04548 0.48535 0.0
C121 C 0.49105 0.03507 0.48386 0.0
C122 C 0.48095 0.05677 0.49019 0.0
C123 C 0.50347 0.08809 0.49746 0.0
H124 H 0.42324 0.57744 0.66646 0.0
N125 N 0.39253 0.516 0.68358 0.0
H126 H 0.39971 0.60052 0.63715 0.0
H127 H 0.33956 0.48443 0.6538 0.0
H128 H 0.31634 0.50738 0.62398 0.0
H129 H 0.34739 0.50943 0.7178 0.0
H130 H 0.35496 0.53743 0.76043 0.0
H131 H 0.45077 0.55905 0.70627 0.0
H132 H 0.4585 0.58625 0.7496 0.0
H133 H 0.4473 0.54169 0.65275 0.0
H134 H 0.38177 0.45982 0.69902 0.0
H135 H 0.47669 0.51517 0.63892 0.0
H136 H 0.4117 0.43365 0.68646 0.0
H137 H 0.57047 0.44072 0.61256 0.0
H138 H 0.5974 0.4476 0.5691 0.0
H139 H 0.50418 0.39503 0.53066 0.0
H140 H 0.47742 0.38741 0.57412 0.0
H141 H 0.49917 0.34622 0.61594 0.0
H142 H 0.52297 0.32215 0.6435 0.0
H143 H 0.56302 0.40347 0.69638 0.0
H144 H 0.54071 0.42834 0.66796 0.0
H145 H 0.53673 0.46609 0.63501 0.0
H146 H 0.51135 0.4954 0.65212 0.0
H147 H 0.41771 0.40912 0.64788 0.0
N148 N 0.50562 0.40307 0.62174 0.0
H149 H 0.44354 0.3802 0.63182 0.0
C150 C 0.38282 0.52922 0.66248 0.0
C151 C 0.40029 0.56191 0.65677 0.0
C152 C 0.38695 0.57504 0.64004 0.0
C153 C 0.35632 0.55559 0.62854 0.0
C154 C 0.34007 0.52266 0.63261 0.0
C155 C 0.35324 0.50962 0.64955 0.0
C156 C 0.3984 0.5318 0.70911 0.0
C157 C 0.3717 0.52611 0.72466 0.0
C158 C 0.37603 0.54212 0.74884 0.0
C159 C 0.40727 0.56395 0.7581 0.0
C160 C 0.4342 0.56957 0.7427 0.0
C161 C 0.4298 0.55391 0.71815 0.0
C162 C 0.41193 0.50232 0.6765 0.0
C163 C 0.43942 0.51809 0.66009 0.0
C164 C 0.45637 0.50299 0.65242 0.0
C165 C 0.44633 0.47203 0.66126 0.0
C166 C 0.41966 0.4571 0.67867 0.0
C167 C 0.40263 0.47205 0.68605 0.0
C168 C 0.52194 0.41312 0.59643 0.0
C169 C 0.5559 0.43134 0.59468 0.0
C170 C 0.57122 0.43535 0.56996 0.0
C171 C 0.5527 0.42171 0.54678 0.0
C172 C 0.51881 0.40577 0.54834 0.0
C173 C 0.50358 0.40142 0.57302 0.0
C174 C 0.51782 0.38887 0.6399 0.0
C175 C 0.51294 0.35878 0.63355 0.0
C176 C 0.52653 0.34512 0.64922 0.0
C177 C 0.54483 0.36106 0.67195 0.0
C178 C 0.54906 0.39085 0.67886 0.0
C179 C 0.53614 0.40494 0.6627 0.0
C180 C 0.49186 0.42093 0.63244 0.0
C181 C 0.51079 0.4536 0.63808 0.0
C182 C 0.4962 0.47031 0.64764 0.0
C183 C 0.46244 0.45463 0.65156 0.0
C184 C 0.44379 0.42191 0.64573 0.0
C185 C 0.4584 0.40531 0.63639 0.0
H186 H 0.17706 0.62944 0.81225 0.0
N187 N 0.12454 0.57676 0.79563 0.0
H188 H 0.22228 0.63368 0.83845 0.0
H189 H 0.1265 0.52737 0.82018 0.0
H190 H 0.17105 0.53187 0.84706 0.0
H191 H 0.15778 0.55232 0.76973 0.0
H192 H 0.18058 0.56593 0.72481 0.0
H193 H 0.11311 0.60877 0.75871 0.0
H194 H 0.13417 0.62059 0.71277 0.0
H195 H 0.08373 0.58472 0.82582 0.0
H196 H 0.09071 0.51513 0.77765 0.0
H197 H 0.02791 0.5451 0.83751 0.0
H198 H 0.03516 0.4751 0.78963 0.0
H199 H 0.88551 0.45418 0.86202 0.0
H200 H 0.86084 0.45839 0.90376 0.0
H201 H 0.86347 0.37802 0.93529 0.0
H202 H 0.88757 0.37336 0.89328 0.0
H203 H 0.86465 0.34655 0.83881 0.0
H204 H 0.81549 0.31948 0.81118 0.0
H205 H 0.82766 0.41014 0.78987 0.0
H206 H 0.87702 0.43724 0.8172 0.0
H207 H 0.94815 0.45689 0.87938 0.0
H208 H 0.00105 0.49765 0.86456 0.0
H209 H 0.97864 0.45951 0.78438 0.0
N210 N 0.90031 0.40833 0.84955 0.0
H211 H 0.92556 0.418 0.79912 0.0
C212 C 0.14823 0.57829 0.8143 0.0
C213 C 0.17535 0.60809 0.82016 0.0
C214 C 0.20108 0.61049 0.83498 0.0
C215 C 0.19992 0.58306 0.84449 0.0
C216 C 0.17224 0.55325 0.83985 0.0
C217 C 0.14673 0.55079 0.82456 0.0
C218 C 0.13433 0.58029 0.76792 0.0
C219 C 0.15249 0.56732 0.75762 0.0
C220 C 0.16545 0.57498 0.73189 0.0
C221 C 0.15948 0.59467 0.71559 0.0
C222 C 0.13942 0.60571 0.72515 0.0
C223 C 0.12731 0.59888 0.75122 0.0
C224 C 0.09129 0.55295 0.80093 0.0
C225 C 0.07308 0.56087 0.81772 0.0
C226 C 0.04131 0.53816 0.82447 0.0
C227 C 0.02708 0.50686 0.8146 0.0
C228 C 0.04521 0.49906 0.79731 0.0
C229 C 0.07703 0.52188 0.79052 0.0
C230 C 0.88817 0.4132 0.87452 0.0
C231 C 0.88076 0.43743 0.87784 0.0
C232 C 0.86692 0.43999 0.90166 0.0
C233 C 0.86048 0.41854 0.92248 0.0
C234 C 0.86846 0.39484 0.91942 0.0
C235 C 0.88214 0.39218 0.89558 0.0
C236 C 0.87439 0.39377 0.83018 0.0
C237 C 0.8571 0.36057 0.8277 0.0
C238 C 0.82919 0.34521 0.812 0.0
C239 C 0.81811 0.3629 0.79855 0.0
C240 C 0.83602 0.39619 0.80005 0.0
C241 C 0.86399 0.41158 0.81576 0.0
C242 C 0.93102 0.43491 0.84019 0.0
C243 C 0.95368 0.45752 0.85835 0.0
C244 C 0.98437 0.48102 0.84988 0.0
C245 C 0.99392 0.48229 0.82317 0.0
C246 C 0.97199 0.45936 0.80509 0.0
C247 C 0.9412 0.4358 0.81354 0.0
H248 H 0.58707 0.1593 0.96614 0.0
N249 N 0.61492 0.12466 0.95173 0.0
H250 H 0.61204 0.20735 0.99429 0.0
H251 H 0.66821 0.14678 0.98099 0.0
H252 H 0.69331 0.19501 0.00904 0.0
H253 H 0.66154 0.16308 0.91866 0.0
H254 H 0.65605 0.18371 0.87578 0.0
H255 H 0.55744 0.10791 0.9258 0.0
H256 H 0.55211 0.12719 0.88233 0.0
H257 H 0.55612 0.10328 0.97597 0.0
H258 H 0.62257 0.0748 0.94797 0.0
H259 H 0.51847 0.0489 0.99036 0.0
H260 H 0.58499 0.0202 0.96242 0.0
H261 H 0.49441 0.884 0.03781 0.0
H262 H 0.48295 0.86483 0.08382 0.0
H263 H 0.40379 0.88249 0.08698 0.0
H264 H 0.41516 0.90164 0.04062 0.0
H265 H 0.50669 0.89114 0.98977 0.0
H266 H 0.49874 0.84448 0.96478 0.0
H267 H 0.39613 0.80863 0.96139 0.0
H268 H 0.404 0.85541 0.98657 0.0
H269 H 0.44585 0.94046 0.98092 0.0
H270 H 0.48383 0.99553 0.9679 0.0
H271 H 0.56177 0.99036 0.00551 0.0
N272 N 0.45858 0.90159 0.00764 0.0
H273 H 0.52375 0.93564 0.01863 0.0
C274 C 0.62592 0.14952 0.97156 0.0
C275 C 0.60973 0.16633 0.9761 0.0
C276 C 0.62395 0.19371 0.99208 0.0
C277 C 0.65441 0.20453 0.00366 0.0
C278 C 0.66969 0.1868 1.00035 0.0
C279 C 0.65545 0.15943 0.98443 0.0
C280 C 0.61013 0.13373 0.9255 0.0
C281 C 0.63757 0.15501 0.91081 0.0
C282 C 0.63443 0.16682 0.88645 0.0
C283 C 0.60367 0.15707 0.87596 0.0
C284 C 0.57605 0.13512 0.89019 0.0
C285 C 0.57919 0.12394 0.915 0.0
C286 C 0.59217 0.09301 0.96077 0.0
C287 C 0.56267 0.08537 0.97297 0.0
C288 C 0.54109 0.05423 0.98107 0.0
C289 C 0.54881 0.03033 0.97748 0.0
C290 C 0.57853 0.03819 0.96564 0.0
C291 C 0.59989 0.06922 0.95728 0.0
C292 C 0.45542 0.89413 0.03569 0.0
C293 C 0.47501 0.88442 0.04841 0.0
C294 C 0.46854 0.87352 0.0747 0.0
C295 C 0.44261 0.87236 0.08867 0.0
C296 C 0.42404 0.88346 0.07649 0.0
C297 C 0.43045 0.89427 0.05016 0.0
C298 C 0.45578 0.8768 0.99008 0.0
C299 C 0.48254 0.87369 0.98333 0.0
C300 C 0.47807 0.84706 0.96904 0.0
C301 C 0.44687 0.82325 0.96132 0.0
C302 C 0.42038 0.8269 0.96712 0.0
C303 C 0.42484 0.85347 0.98141 0.0
C304 C 0.48187 0.93386 1.00053 0.0
C305 C 0.47114 0.95131 0.98635 0.0
C306 C 0.49278 0.98272 0.97907 0.0
C307 C 0.52575 0.99719 0.98568 0.0
C308 C 0.53655 0.97968 0.99992 0.0
C309 C 0.51478 0.94835 0.00745 0.0
H310 H 0.58069 0.44859 0.16292 0.0
N311 N 0.61317 0.5083 0.18462 0.0
H312 H 0.60444 0.42466 0.13436 0.0
H313 H 0.67113 0.53779 0.1619 0.0
H314 H 0.69482 0.51397 0.13309 0.0
H315 H 0.65525 0.52454 0.2242 0.0
H316 H 0.64733 0.49695 0.26685 0.0
H317 H 0.55601 0.45822 0.20288 0.0
H318 H 0.54802 0.43085 0.24562 0.0
H319 H 0.55295 0.47933 0.16177 0.0
H320 H 0.63314 0.5695 0.18722 0.0
H321 H 0.52356 0.50542 0.14763 0.0
H322 H 0.60508 0.59621 0.17179 0.0
H323 H 0.44438 0.57873 0.10847 0.0
H324 H 0.41402 0.57097 0.06679 0.0
H325 H 0.50081 0.64456 0.02932 0.0
H326 H 0.53096 0.65254 0.07103 0.0
H327 H 0.52016 0.68507 0.11849 0.0
H328 H 0.49511 0.70809 0.14641 0.0
H329 H 0.43848 0.61833 0.18646 0.0
H330 H 0.46245 0.59487 0.15751 0.0
H331 H 0.49892 0.56883 0.09739 0.0
H332 H 0.52279 0.53933 0.11454 0.0
H333 H 0.5626 0.60465 0.18126 0.0
N334 N 0.50709 0.62544 0.11781 0.0
H335 H 0.5405 0.63546 0.16323 0.0
C336 C 0.62437 0.49496 0.16459 0.0
C337 C 0.60535 0.4632 0.15604 0.0
C338 C 0.61883 0.44958 0.13975 0.0
C339 C 0.65131 0.46765 0.13171 0.0
C340 C 0.66967 0.4998 0.13901 0.0
C341 C 0.65625 0.51332 0.15538 0.0
C342 C 0.60631 0.49363 0.21048 0.0
C343 C 0.63165 0.50444 0.22896 0.0
C344 C 0.62716 0.48873 0.25315 0.0
C345 C 0.59712 0.46199 0.25925 0.0
C346 C 0.57131 0.45159 0.2412 0.0
C347 C 0.5759 0.46725 0.21685 0.0
C348 C 0.59505 0.52258 0.17595 0.0
C349 C 0.56416 0.50474 0.16442 0.0
C350 C 0.54755 0.51981 0.15605 0.0
C351 C 0.56174 0.55299 0.15872 0.0
C352 C 0.59288 0.57059 0.17002 0.0
C353 C 0.60917 0.55547 0.17865 0.0
C354 C 0.48992 0.61641 0.09273 0.0
C355 C 0.45694 0.59275 0.09114 0.0
C356 C 0.43969 0.58829 0.06745 0.0
C357 C 0.45528 0.6073 0.04516 0.0
C358 C 0.4885 0.62966 0.04635 0.0
C359 C 0.50565 0.63417 0.07 0.0
C360 C 0.49347 0.6385 0.13608 0.0
C361 C 0.50246 0.67044 0.13337 0.0
C362 C 0.48818 0.68348 0.14923 0.0
C363 C 0.46492 0.66488 0.16844 0.0
C364 C 0.45632 0.63301 0.17168 0.0
C365 C 0.47007 0.61971 0.15529 0.0
C366 C 0.51698 0.60446 0.12926 0.0
C367 C 0.51225 0.57684 0.11594 0.0
C368 C 0.52595 0.55966 0.12587 0.0
C369 C 0.54478 0.56955 0.14928 0.0
C370 C 0.54877 0.59654 0.16291 0.0
C371 C 0.5356 0.61398 0.1528 0.0
In372 In 0.62492 0.39158 0.40247 0.0
O373 O 0.67894 0.42932 0.40334 0.0
O374 O 0.66255 0.39012 0.37628 0.0
C375 C 0.60547 0.40988 0.44621 0.0
C376 C 0.60493 0.40714 0.35807 0.0
C377 C 0.60647 0.33223 0.41878 0.0
O378 O 0.63412 0.41574 0.4435 0.0
O379 O 0.58716 0.39618 0.42654 0.0
O380 O 0.58778 0.33831 0.40582 0.0
O381 O 0.63442 0.35572 0.42272 0.0
C382 C 0.68602 0.41562 0.38531 0.0
O383 O 0.59581 0.37865 0.36371 0.0
O384 O 0.62265 0.42743 0.3754 0.0
In385 In 0.25827 0.64384 0.56696 0.0
O386 O 0.26489 0.60055 0.5674 0.0
O387 O 0.30166 0.64366 0.58486 0.0
C388 C 0.22159 0.62328 0.52246 0.0
C389 C 0.225 0.63152 0.61311 0.0
C390 C 0.29066 0.70563 0.55269 0.0
O391 O 0.25113 0.63143 0.52242 0.0
O392 O 0.21024 0.62352 0.54514 0.0
O393 O 0.26525 0.69389 0.56663 0.0
O394 O 0.3002 0.68669 0.54674 0.0
C395 C 0.29144 0.61482 0.57981 0.0
O396 O 0.25418 0.65357 0.61109 0.0
O397 O 0.21238 0.6167 0.59165 0.0
In398 In 0.62867 0.25982 0.73487 0.0
O399 O 0.6811 0.27064 0.73571 0.0
O400 O 0.67075 0.30373 0.75418 0.0
C401 C 0.61286 0.22562 0.6895 0.0
C402 C 0.60899 0.22072 0.77755 0.0
C403 C 0.6027 0.29554 0.72171 0.0
O404 O 0.64195 0.24503 0.69583 0.0
O405 O 0.59184 0.22307 0.70612 0.0
O406 O 0.59203 0.27615 0.74085 0.0
O407 O 0.62705 0.29768 0.71006 0.0
C408 C 0.69153 0.296 0.74904 0.0
O409 O 0.61638 0.24935 0.77914 0.0
O410 O 0.6092 0.21115 0.75416 0.0
In411 In 0.38432 0.63881 0.90305 0.0
O412 O 0.33249 0.59644 0.89947 0.0
O413 O 0.34131 0.64252 0.88977 0.0
C414 C 0.39981 0.61951 0.9477 0.0
C415 C 0.40319 0.62137 0.85824 0.0
C416 C 0.40964 0.70018 0.91726 0.0
O417 O 0.37072 0.60926 0.94113 0.0
O418 O 0.42081 0.6385 0.93145 0.0
O419 O 0.42165 0.69202 0.89852 0.0
O420 O 0.38519 0.67771 0.92838 0.0
C421 C 0.32119 0.6132 0.89134 0.0
O422 O 0.39266 0.64025 0.85791 0.0
O423 O 0.40626 0.61301 0.88125 0.0
In424 In 0.75968 0.39095 0.0667 0.0
O425 O 0.76801 0.38165 0.10965 0.0
O426 O 0.80613 0.42225 0.09046 0.0
C427 C 0.72386 0.32999 0.05097 0.0
C428 C 0.72111 0.41347 0.08178 0.0
C429 C 0.79536 0.41017 0.02173 0.0
O430 O 0.74425 0.33847 0.06971 0.0
O431 O 0.72112 0.35196 0.04069 0.0
O432 O 0.77557 0.41904 0.02768 0.0
O433 O 0.79835 0.39324 0.03901 0.0
C434 C 0.79595 0.40585 0.11137 0.0
O435 O 0.74982 0.4315 0.07401 0.0
O436 O 0.71141 0.38423 0.08073 0.0
In437 In 0.38594 0.77008 0.2336 0.0
O438 O 0.41718 0.74782 0.24094 0.0
O439 O 0.38921 0.73528 0.2054 0.0
C440 C 0.40427 0.81007 0.27582 0.0
C441 C 0.404 0.80719 0.18999 0.0
C442 C 0.32478 0.7287 0.24895 0.0
O443 O 0.41778 0.7944 0.27013 0.0
O444 O 0.38284 0.80689 0.25954 0.0
O445 O 0.33112 0.74855 0.2306 0.0
O446 O 0.34899 0.72919 0.25906 0.0
C447 C 0.40938 0.73237 0.21924 0.0
O448 O 0.37502 0.78593 0.19442 0.0
O449 O 0.42391 0.81061 0.20799 0.0
C450 C 0.23496 0.6674 0.2555 0.0
C451 C 0.2299 0.67193 0.28271 0.0
C452 C 0.2861 0.71544 0.28672 0.0
C453 C 0.29195 0.70923 0.26021 0.0
N454 N 0.27375 0.67709 0.22022 0.0
N455 N 0.25146 0.69634 0.32564 0.0
C456 C 0.26684 0.68464 0.24475 0.0
C457 C 0.25575 0.69478 0.29875 0.0
N458 N 0.20919 0.64714 0.23989 0.0
N459 N 0.309 0.74202 0.29997 0.0
H460 H 0.2294 0.68205 0.33524 0.0
H461 H 0.27038 0.70991 0.33883 0.0
H462 H 0.33128 0.75828 0.29162 0.0
H463 H 0.30483 0.74967 0.31821 0.0
H464 H 0.21058 0.64527 0.21927 0.0
H465 H 0.18572 0.63361 0.24737 0.0
H466 H 0.25737 0.65732 0.2091 0.0
H467 H 0.29681 0.68934 0.21176 0.0
C468 C 0.59608 0.26834 0.46737 0.0
C469 C 0.57845 0.2405 0.45156 0.0
C470 C 0.58112 0.2729 0.41341 0.0
C471 C 0.59608 0.30044 0.43 0.0
N472 N 0.61134 0.32312 0.47444 0.0
N473 N 0.54943 0.21531 0.41105 0.0
C474 C 0.60178 0.29783 0.45746 0.0
C475 C 0.5695 0.24249 0.42501 0.0
N476 N 0.60841 0.26685 0.49155 0.0
N477 N 0.57954 0.27586 0.38641 0.0
H478 H 0.54073 0.19267 0.41889 0.0
H479 H 0.53924 0.21521 0.39269 0.0
H480 H 0.58867 0.29772 0.37699 0.0
H481 H 0.572 0.25695 0.37306 0.0
H482 H 0.6246 0.28694 0.50248 0.0
H483 H 0.60492 0.24574 0.49963 0.0
H484 H 0.61212 0.32134 0.49512 0.0
H485 H 0.61543 0.34517 0.46836 0.0
C486 C 0.31897 0.577 0.63141 0.0
C487 C 0.33921 0.57006 0.61556 0.0
C488 C 0.325 0.58898 0.57547 0.0
C489 C 0.30672 0.59805 0.59166 0.0
N490 N 0.28693 0.60235 0.63495 0.0
N491 N 0.36391 0.57118 0.57336 0.0
C492 C 0.30385 0.59246 0.61962 0.0
C493 C 0.34282 0.57644 0.58776 0.0
N494 N 0.31365 0.56809 0.65767 0.0
N495 N 0.32501 0.59215 0.54835 0.0
H496 H 0.37661 0.56125 0.58168 0.0
H497 H 0.37037 0.57822 0.55366 0.0
H498 H 0.31296 0.60209 0.53889 0.0
H499 H 0.33514 0.58325 0.53501 0.0
H500 H 0.29619 0.56876 0.66954 0.0
H501 H 0.32539 0.55808 0.66747 0.0
H502 H 0.28738 0.603 0.65572 0.0
H503 H 0.27331 0.6114 0.62693 0.0
C504 C 0.75772 0.33353 0.80144 0.0
C505 C 0.78592 0.34631 0.78536 0.0
C506 C 0.75228 0.32788 0.74492 0.0
C507 C 0.7242 0.31289 0.76121 0.0
N508 N 0.70048 0.29529 0.8049 0.0
N509 N 0.81075 0.35244 0.74221 0.0
C510 C 0.72698 0.31405 0.78947 0.0
C511 C 0.78342 0.3426 0.75716 0.0
N512 N 0.76023 0.34065 0.82813 0.0
N513 N 0.74914 0.32898 0.71788 0.0
H514 H 0.8339 0.36375 0.75054 0.0
H515 H 0.81039 0.34741 0.72193 0.0
H516 H 0.72671 0.31832 0.70832 0.0
H517 H 0.76854 0.34239 0.70515 0.0
H518 H 0.74033 0.33496 0.84022 0.0
H519 H 0.78234 0.35475 0.83779 0.0
H520 H 0.70177 0.29252 0.82538 0.0
H521 H 0.67763 0.27986 0.79695 0.0
C522 C 0.43973 0.76904 0.96578 0.0
C523 C 0.44135 0.79314 0.94911 0.0
C524 C 0.42465 0.75704 0.91046 0.0
C525 C 0.42392 0.73328 0.92704 0.0
N526 N 0.43833 0.71892 0.9685 0.0
N527 N 0.44185 0.81277 0.90505 0.0
C528 C 0.43381 0.74002 0.95413 0.0
C529 C 0.43593 0.78798 0.92122 0.0
N530 N 0.44253 0.77338 0.99288 0.0
N531 N 0.41294 0.74959 0.88495 0.0
H532 H 0.44978 0.83559 0.91241 0.0
H533 H 0.44154 0.81143 0.88428 0.0
H534 H 0.40465 0.72728 0.87633 0.0
H535 H 0.40931 0.76475 0.87292 0.0
H536 H 0.43767 0.75529 0.00627 0.0
H537 H 0.44739 0.79447 0.00226 0.0
H538 H 0.44849 0.72376 0.98754 0.0
H539 H 0.43491 0.69772 0.96039 0.0
C540 C 0.67956 0.4367 0.13435 0.0
C541 C 0.66738 0.45214 0.11842 0.0
C542 C 0.69075 0.4426 0.07826 0.0
C543 C 0.70154 0.4258 0.09403 0.0
N544 N 0.70229 0.40258 0.13633 0.0
N545 N 0.65697 0.46625 0.07521 0.0
C546 C 0.69459 0.42141 0.12182 0.0
C547 C 0.67172 0.45409 0.09032 0.0
N548 N 0.67801 0.43788 0.16162 0.0
N549 N 0.69888 0.44771 0.05181 0.0
H550 H 0.64322 0.47515 0.08354 0.0
H551 H 0.65629 0.46551 0.05444 0.0
H552 H 0.7111 0.43804 0.04197 0.0
H553 H 0.69504 0.46277 0.03984 0.0
H554 H 0.69014 0.43082 0.17445 0.0
H555 H 0.66656 0.44819 0.17167 0.0
H556 H 0.69416 0.39521 0.15571 0.0
H557 H 0.71515 0.39246 0.12861 0.0
C558 C 0.3149 0.77056 0.5011 0.0
C559 C 0.33784 0.7976 0.5159 0.0
C560 C 0.32616 0.76497 0.55608 0.0
C561 C 0.30543 0.73758 0.54066 0.0
N562 N 0.28024 0.71323 0.49863 0.0
N563 N 0.36718 0.82119 0.55661 0.0
C564 C 0.29976 0.74011 0.51321 0.0
C565 C 0.34388 0.79502 0.54323 0.0
N566 N 0.30726 0.77416 0.47555 0.0
N567 N 0.32861 0.76216 0.583 0.0
H568 H 0.37976 0.84369 0.54803 0.0
H569 H 0.37541 0.82052 0.57565 0.0
H570 H 0.31657 0.74037 0.5928 0.0
H571 H 0.34075 0.78139 0.59599 0.0
H572 H 0.28815 0.75629 0.46465 0.0
H573 H 0.31879 0.7958 0.46552 0.0
H574 H 0.27827 0.71266 0.47792 0.0
H575 H 0.26678 0.6908 0.50713 0.0
C576 C 0.53946 0.31614 0.69981 0.0
C577 C 0.55969 0.34626 0.68804 0.0
C578 C 0.60722 0.34595 0.70522 0.0
C579 C 0.58732 0.31358 0.71248 0.0
N580 N 0.53412 0.26599 0.71168 0.0
N581 N 0.61365 0.38771 0.67581 0.0
C582 C 0.55324 0.29814 0.70872 0.0
C583 C 0.59385 0.36076 0.68985 0.0
N584 N 0.50707 0.30478 0.70268 0.0
N585 N 0.63871 0.36284 0.71353 0.0
H586 H 0.60501 0.39888 0.66354 0.0
H587 H 0.63857 0.39721 0.67431 0.0
H588 H 0.64897 0.35323 0.72587 0.0
H589 H 0.65339 0.38725 0.71075 0.0
H590 H 0.49177 0.28427 0.71335 0.0
H591 H 0.49627 0.31766 0.69686 0.0
H592 H 0.5097 0.25346 0.70643 0.0
H593 H 0.54305 0.25123 0.7165 0.0
C594 C 0.23527 0.59606 0.88505 0.0
C595 C 0.22871 0.58577 0.858 0.0
C596 C 0.28103 0.5885 0.85436 0.0
C597 C 0.28787 0.59956 0.88117 0.0
N598 N 0.27038 0.60835 0.92373 0.0
N599 N 0.2422 0.56715 0.81799 0.0
C600 C 0.26453 0.60157 0.89707 0.0
C601 C 0.25055 0.58018 0.84306 0.0
N602 N 0.21382 0.60131 0.8989 0.0
N603 N 0.3044 0.58755 0.83935 0.0
H604 H 0.221 0.56247 0.80835 0.0
H605 H 0.25518 0.55909 0.80719 0.0
H606 H 0.32644 0.5921 0.84726 0.0
H607 H 0.30285 0.5837 0.81881 0.0
H608 H 0.21851 0.61217 0.91761 0.0
H609 H 0.19143 0.59589 0.89114 0.0
H610 H 0.25351 0.60769 0.93718 0.0
H611 H 0.29165 0.61242 0.93292 0.0
C612 C 0.69472 0.26264 0.00074 0.0
C613 C 0.67224 0.23645 0.0163 0.0
C614 C 0.6829 0.27172 0.05484 0.0
C615 C 0.70689 0.29744 0.03973 0.0
N616 N 0.74057 0.3164 1.00044 0.0
N617 N 0.64765 0.21455 0.05882 0.0
C618 C 0.71417 0.29264 0.01324 0.0
C619 C 0.66712 0.24054 0.0436 0.0
N620 N 0.69694 0.25901 0.97383 0.0
N621 N 0.67436 0.27733 0.07947 0.0
H622 H 0.6352 0.1915 0.051 0.0
H623 H 0.64556 0.21546 0.07947 0.0
H624 H 0.68563 0.29983 0.08835 0.0
H625 H 0.65468 0.26028 0.09031 0.0
H626 H 0.71006 0.27799 0.96095 0.0
H627 H 0.68357 0.23728 0.96389 0.0
H628 H 0.74913 0.31334 0.98219 0.0
H629 H 0.75595 0.33849 0.00921 0.0
C630 C 0.46937 0.70574 0.20143 0.0
C631 C 0.44964 0.67922 0.18478 0.0
C632 C 0.40248 0.68294 0.19765 0.0
C633 C 0.42321 0.71287 0.20993 0.0
N634 N 0.47801 0.75541 0.21929 0.0
N635 N 0.39769 0.64535 0.16377 0.0
C636 C 0.45711 0.72493 0.21101 0.0
C637 C 0.41617 0.66836 0.18211 0.0
N638 N 0.49979 0.71251 0.20819 0.0
N639 N 0.36975 0.66803 0.20135 0.0
H640 H 0.40683 0.6346 0.15133 0.0
H641 H 0.37402 0.63912 0.15917 0.0
H642 H 0.35891 0.67725 0.21369 0.0
H643 H 0.35384 0.64493 0.19472 0.0
H644 H 0.51405 0.72983 0.22227 0.0
H645 H 0.50931 0.69857 0.20186 0.0
H646 H 0.50307 0.76609 0.21771 0.0
H647 H 0.47069 0.77127 0.22503 0.0
C648 C 0.77553 0.44262 0.37887 0.0
C649 C 0.7784 0.44337 0.35062 0.0
C650 C 0.72367 0.43464 0.34647 0.0
C651 C 0.71902 0.42879 0.37428 0.0
N652 N 0.73947 0.42458 0.41706 0.0
N653 N 0.75392 0.43646 0.30712 0.0
C654 C 0.74478 0.43244 0.39064 0.0
C655 C 0.7522 0.43864 0.33426 0.0
N656 N 0.80232 0.45203 0.39438 0.0
N657 N 0.7011 0.43717 0.33187 0.0
H658 H 0.7743 0.43907 0.29729 0.0
H659 H 0.73417 0.42943 0.29451 0.0
H660 H 0.68047 0.4355 0.34047 0.0
H661 H 0.70447 0.44428 0.31198 0.0
H662 H 0.8025 0.45503 0.41501 0.0
H663 H 0.82519 0.45966 0.38633 0.0
H664 H 0.75624 0.42321 0.42924 0.0
H665 H 0.71734 0.4171 0.42645 0.0
C666 C 0.19084 0.59846 0.45119 0.0
C667 C 0.16957 0.61049 0.44894 0.0
C668 C 0.18431 0.63275 0.49403 0.0
C669 C 0.20279 0.61777 0.49748 0.0
N670 N 0.21741 0.58021 0.48112 0.0
N671 N 0.13946 0.63129 0.47102 0.0
C672 C 0.2042 0.59873 0.47659 0.0
C673 C 0.16412 0.62504 0.47132 0.0
N674 N 0.19958 0.58819 0.429 0.0
N675 N 0.18764 0.65606 0.51125 0.0
H676 H 0.12357 0.62521 0.45493 0.0
H677 H 0.13275 0.63929 0.48783 0.0
H678 H 0.20419 0.66475 0.52696 0.0
H679 H 0.17685 0.66958 0.50791 0.0
H680 H 0.21761 0.58232 0.42921 0.0
H681 H 0.1911 0.58835 0.40991 0.0
H682 H 0.21628 0.56368 0.46727 0.0
H683 H 0.2264 0.57891 0.4997 0.0
C684 C 0.58296 0.20368 0.61796 0.0
C685 C 0.58779 0.17768 0.61342 0.0
C686 C 0.60668 0.18159 0.65958 0.0
C687 C 0.60387 0.20881 0.6635 0.0
N688 N 0.59259 0.24808 0.64643 0.0
N689 N 0.60626 0.14297 0.62853 0.0
C690 C 0.59268 0.22038 0.64274 0.0
C691 C 0.60022 0.16692 0.63388 0.0
N692 N 0.5689 0.21225 0.59859 0.0
N693 N 0.61455 0.16927 0.68073 0.0
H694 H 0.60026 0.1306 0.61041 0.0
H695 H 0.61873 0.13635 0.64139 0.0
H696 H 0.61983 0.17971 0.69969 0.0
H697 H 0.61379 0.14764 0.68014 0.0
H698 H 0.56099 0.22825 0.60168 0.0
H699 H 0.56328 0.20201 0.57957 0.0
H700 H 0.58835 0.25994 0.63127 0.0
H701 H 0.59891 0.26065 0.66445 0.0
C702 C 0.39982 0.5611 0.80766 0.0
C703 C 0.4111 0.57995 0.78437 0.0
C704 C 0.42443 0.62717 0.81132 0.0
C705 C 0.40795 0.60738 0.83342 0.0
N706 N 0.37348 0.55397 0.85022 0.0
N707 N 0.43042 0.63072 0.76321 0.0
C708 C 0.39413 0.57392 0.83112 0.0
C709 C 0.42264 0.61303 0.78595 0.0
N710 N 0.39455 0.53089 0.80739 0.0
N711 N 0.44245 0.65938 0.81466 0.0
H712 H 0.42911 0.62127 0.74421 0.0
H713 H 0.43552 0.65412 0.76302 0.0
H714 H 0.44519 0.67049 0.83313 0.0
H715 H 0.45735 0.67471 0.7998 0.0
H716 H 0.3892 0.51719 0.82457 0.0
H717 H 0.39894 0.52089 0.79059 0.0
H718 H 0.36042 0.52934 0.84792 0.0
H719 H 0.36629 0.56171 0.86687 0.0
C720 C 0.80943 0.40169 0.94821 0.0
C721 C 0.84374 0.41965 0.9471 0.0
C722 C 0.84624 0.43419 0.99443 0.0
C723 C 0.81189 0.41647 0.99551 0.0
N724 N 0.76035 0.38747 0.9728 0.0
N725 N 0.89487 0.4572 0.96709 0.0
C726 C 0.79336 0.40172 0.97213 0.0
C727 C 0.86218 0.43725 0.96962 0.0
N728 N 0.79231 0.38346 0.92671 0.0
N729 N 0.86357 0.44763 0.01729 0.0
H730 H 0.90728 0.45949 0.94933 0.0
H731 H 0.90948 0.47315 0.98183 0.0
H732 H 0.85276 0.4478 0.03535 0.0
H733 H 0.8885 0.4575 0.01878 0.0
H734 H 0.76771 0.36658 0.92722 0.0
H735 H 0.80307 0.38368 0.90851 0.0
H736 H 0.74577 0.37965 0.95586 0.0
H737 H 0.74731 0.38512 0.99015 0.0
C738 C 0.44211 0.87403 0.13895 0.0
C739 C 0.43266 0.85614 0.11484 0.0
C740 C 0.40749 0.80659 0.14014 0.0
C741 C 0.41422 0.82432 0.16427 0.0
N742 N 0.4339 0.87463 0.18679 0.0
N743 N 0.40166 0.80569 0.0921 0.0
C744 C 0.43057 0.85803 0.16376 0.0
C745 C 0.41392 0.82249 0.11533 0.0
N746 N 0.46262 0.9062 0.13812 0.0
N747 N 0.39653 0.77473 0.14086 0.0
H748 H 0.40622 0.81635 0.07337 0.0
H749 H 0.38471 0.78144 0.09155 0.0
H750 H 0.39236 0.76216 0.15856 0.0
H751 H 0.39468 0.76133 0.12398 0.0
H752 H 0.47326 0.92021 0.15502 0.0
H753 H 0.47093 0.91866 0.12025 0.0
H754 H 0.44257 0.89895 0.18733 0.0
H755 H 0.4255 0.86369 0.20525 0.0
C756 C 0.60313 0.42079 0.28341 0.0
C757 C 0.59374 0.44395 0.28391 0.0
C758 C 0.58379 0.43625 0.33208 0.0
C759 C 0.59777 0.41676 0.33218 0.0
N760 N 0.62413 0.39301 0.30824 0.0
N761 N 0.57638 0.47518 0.30839 0.0
C762 C 0.6079 0.40925 0.30789 0.0
C763 C 0.58415 0.45192 0.30815 0.0
N764 N 0.60754 0.40989 0.25946 0.0
N765 N 0.56944 0.43906 0.35474 0.0
H766 H 0.57521 0.48626 0.29106 0.0
H767 H 0.57294 0.48482 0.32583 0.0
H768 H 0.56821 0.42733 0.37242 0.0
H769 H 0.55616 0.45048 0.35539 0.0
H770 H 0.61088 0.39054 0.25767 0.0
H771 H 0.605 0.41837 0.24112 0.0
H772 H 0.63569 0.39049 0.29158 0.0
H773 H 0.62862 0.38427 0.32557 0.0
C774 C 0.42005 0.87635 0.3246 0.0
C775 C 0.41345 0.86005 0.34924 0.0
C776 C 0.4025 0.81136 0.32587 0.0
C777 C 0.41014 0.8279 0.30123 0.0
N778 N 0.43195 0.87714 0.2773 0.0
N779 N 0.40469 0.81441 0.37423 0.0
C780 C 0.42064 0.86075 0.30064 0.0
C781 C 0.40683 0.82833 0.35013 0.0
N782 N 0.42491 0.90641 0.32406 0.0
N783 N 0.38907 0.77907 0.32606 0.0
H784 H 0.40667 0.82568 0.39248 0.0
H785 H 0.40365 0.79273 0.3762 0.0
H786 H 0.38517 0.76544 0.30887 0.0
H787 H 0.37919 0.76526 0.34305 0.0
H788 H 0.42608 0.91826 0.30654 0.0
H789 H 0.42593 0.91895 0.34134 0.0
H790 H 0.44285 0.90171 0.27594 0.0
H791 H 0.43299 0.86642 0.25952 0.0
C792 C 0.58571 0.44693 0.50519 0.0
C793 C 0.56822 0.41985 0.52163 0.0
C794 C 0.57347 0.38635 0.4878 0.0
C795 C 0.59281 0.41369 0.47208 0.0
N796 N 0.62125 0.47056 0.46695 0.0
N797 N 0.55225 0.36561 0.53166 0.0
C798 C 0.60028 0.44423 0.4812 0.0
C799 C 0.56408 0.39008 0.51381 0.0
N800 N 0.58733 0.4748 0.512 0.0
N801 N 0.56357 0.35667 0.4778 0.0
H802 H 0.54562 0.3675 0.55114 0.0
H803 H 0.55205 0.34452 0.52811 0.0
H804 H 0.57054 0.35264 0.45916 0.0
H805 H 0.54634 0.33584 0.48712 0.0
H806 H 0.59673 0.49447 0.49953 0.0
H807 H 0.57715 0.47758 0.5295 0.0
H808 H 0.63038 0.4937 0.47389 0.0
H809 H 0.63126 0.46925 0.4488 0.0
C810 C 0.197 0.63695 0.6832 0.0
C811 C 0.17512 0.60437 0.68884 0.0
C812 C 0.18902 0.58967 0.64616 0.0
C813 C 0.20749 0.62227 0.63901 0.0
N814 N 0.22256 0.67657 0.64876 0.0
N815 N 0.14459 0.55028 0.6726 0.0
C816 C 0.20962 0.64586 0.65695 0.0
C817 C 0.16932 0.58088 0.66934 0.0
N818 N 0.20697 0.6593 0.70308 0.0
N819 N 0.19167 0.56716 0.6319 0.0
H820 H 0.12896 0.54308 0.68895 0.0
H821 H 0.13758 0.53298 0.65771 0.0
H822 H 0.2076 0.57257 0.61594 0.0
H823 H 0.18093 0.54358 0.63795 0.0
H824 H 0.22532 0.68283 0.70044 0.0
H825 H 0.19945 0.65374 0.72286 0.0
H826 H 0.22183 0.69395 0.66039 0.0
H827 H 0.23074 0.68389 0.62934 0.0
C828 C 0.61482 0.1648 0.82684 0.0
C829 C 0.60093 0.17 0.84991 0.0
C830 C 0.58525 0.2018 0.82321 0.0
C831 C 0.60417 0.2012 0.80162 0.0
N832 N 0.64334 0.18749 0.78577 0.0
N833 N 0.57721 0.19793 0.87107 0.0
C834 C 0.6205 0.18392 0.80403 0.0
C835 C 0.58708 0.18957 0.8484 0.0
N836 N 0.62249 0.14148 0.82664 0.0
N837 N 0.56496 0.21333 0.81956 0.0
H838 H 0.57894 0.19032 0.89005 0.0
H839 H 0.57013 0.21482 0.87129 0.0
H840 H 0.56207 0.22138 0.80113 0.0
H841 H 0.54848 0.21164 0.834 0.0
H842 H 0.62996 0.13486 0.80945 0.0
H843 H 0.61804 0.12653 0.84287 0.0
H844 H 0.65799 0.1777 0.78834 0.0
H845 H 0.65057 0.20312 0.76977 0.0
C846 C 0.42178 0.62505 0.02091 0.0
C847 C 0.43656 0.60626 0.02128 0.0
C848 C 0.42406 0.59327 0.9738 0.0
C849 C 0.40917 0.61195 0.97347 0.0
N850 N 0.38861 0.64115 0.99713 0.0
N851 N 0.44684 0.5679 1.00024 0.0
C852 C 0.40615 0.62621 0.99725 0.0
C853 C 0.4361 0.58887 0.99834 0.0
N854 N 0.42418 0.64307 0.04279 0.0
N855 N 0.42723 0.58034 0.95049 0.0
H856 H 0.45598 0.56442 0.01795 0.0
H857 H 0.4445 0.55223 0.98506 0.0
H858 H 0.41699 0.58152 0.93251 0.0
H859 H 0.44112 0.56966 0.94858 0.0
H860 H 0.41769 0.66037 0.04279 0.0
H861 H 0.43463 0.64225 0.06077 0.0
H862 H 0.38242 0.6489 0.01434 0.0
H863 H 0.37814 0.64395 0.97996 0.0
C864 C 0.81582 0.43452 0.18301 0.0
C865 C 0.84321 0.43144 0.1878 0.0
C866 C 0.83987 0.4115 0.14206 0.0
C867 C 0.81363 0.41623 0.137 0.0
N868 N 0.78168 0.43928 0.15014 0.0
N869 N 0.88507 0.42264 0.17088 0.0
C870 C 0.80312 0.42987 0.15674 0.0
C871 C 0.85638 0.42158 0.16699 0.0
N872 N 0.80108 0.44055 0.20375 0.0
N873 N 0.84836 0.39657 0.12335 0.0
H874 H 0.89781 0.43001 0.18887 0.0
H875 H 0.89761 0.41879 0.15574 0.0
H876 H 0.83727 0.38964 0.10465 0.0
H877 H 0.86483 0.38917 0.12693 0.0
H878 H 0.77897 0.43952 0.20193 0.0
H879 H 0.8094 0.44388 0.2234 0.0
H880 H 0.77555 0.45226 0.16295 0.0
H881 H 0.77244 0.43688 0.13088 0.0
loop_
_geom_bond_atom_site_label_1
_geom_bond_atom_site_label_2
_geom_bond_distance
_geom_bond_site_symmetry_2
_ccdc_geom_bond_type
H0 C27 0.929 . S
N1 C26 1.433 . S
N1 C32 1.435 . S
N1 C38 1.423 . S
H2 C28 0.930 . S
H3 C31 0.931 . S
H4 C30 0.929 . S
H5 C33 0.930 . S
H6 C34 0.932 . S
H7 C37 0.929 . S
H8 C36 0.931 . S
H9 C39 0.929 . S
H10 C43 0.932 . S
H11 C40 0.931 . S
H12 C42 0.929 . S
H13 C45 0.929 . S
H14 C46 0.930 . S
H15 C48 0.929 . S
H16 C49 0.931 . S
H17 C51 0.930 . S
H18 C52 0.932 . S
H19 C54 0.931 . S
H20 C55 0.929 . S
H21 C57 0.929 . S
H22 C58 0.931 . S
H23 C60 0.929 . S
N24 C44 1.433 . S
N24 C50 1.435 . S
N24 C56 1.423 . S
H25 C61 0.932 . S
C26 N1 1.433 . S
C26 C27 1.363 . S
C26 C31 1.370 . S
C27 H0 0.929 . S
C27 C26 1.363 . S
C27 C28 1.385 . S
C28 H2 0.930 . S
C28 C27 1.385 . S
C28 C29 1.357 . S
C29 C28 1.357 . S
C29 C30 1.406 . S
C30 H4 0.929 . S
C30 C29 1.406 . S
C30 C31 1.391 . S
C31 H3 0.931 . S
C31 C26 1.370 . S
C31 C30 1.391 . S
C32 N1 1.435 . S
C32 C33 1.358 . S
C32 C37 1.371 . S
C33 H5 0.930 . S
C33 C32 1.358 . S
C33 C34 1.405 . S
C34 H6 0.932 . S
C34 C33 1.405 . S
C34 C35 1.383 . S
C35 C34 1.383 . S
C35 C36 1.393 . S
C36 H8 0.931 . S
C36 C35 1.393 . S
C36 C37 1.382 . S
C37 H7 0.929 . S
C37 C32 1.371 . S
C37 C36 1.382 . S
C38 N1 1.423 . S
C38 C39 1.362 . S
C38 C43 1.388 . S
C39 H9 0.929 . S
C39 C38 1.362 . S
C39 C40 1.376 . S
C40 H11 0.931 . S
C40 C39 1.376 . S
C40 C41 1.396 . S
C41 C40 1.396 . S
C41 C42 1.348 . S
C41 C59 1.472 1_455 S
C42 H12 0.929 . S
C42 C41 1.348 . S
C42 C43 1.443 . S
C43 H10 0.932 . S
C43 C38 1.388 . S
C43 C42 1.443 . S
C44 N24 1.433 . S
C44 C45 1.363 . S
C44 C49 1.370 . S
C45 H13 0.929 . S
C45 C44 1.363 . S
C45 C46 1.385 . S
C46 H14 0.930 . S
C46 C45 1.385 . S
C46 C47 1.357 . S
C47 C46 1.357 . S
C47 C48 1.406 . S
C48 H15 0.929 . S
C48 C47 1.406 . S
C48 C49 1.391 . S
C49 H16 0.931 . S
C49 C44 1.370 . S
C49 C48 1.391 . S
C50 N24 1.435 . S
C50 C51 1.358 . S
C50 C55 1.371 . S
C51 H17 0.930 . S
C51 C50 1.358 . S
C51 C52 1.405 . S
C52 H18 0.932 . S
C52 C51 1.405 . S
C52 C53 1.383 . S
C53 C52 1.383 . S
C53 C54 1.393 . S
C54 H19 0.931 . S
C54 C53 1.393 . S
C54 C55 1.382 . S
C55 H20 0.929 . S
C55 C50 1.371 . S
C55 C54 1.382 . S
C56 N24 1.423 . S
C56 C57 1.362 . S
C56 C61 1.388 . S
C57 H21 0.929 . S
C57 C56 1.362 . S
C57 C58 1.376 . S
C58 H22 0.931 . S
C58 C57 1.376 . S
C58 C59 1.396 . S
C59 C41 1.472 1_655 S
C59 C58 1.396 . S
C59 C60 1.348 . S
C60 H23 0.929 . S
C60 C59 1.348 . S
C60 C61 1.443 . S
C61 H25 0.932 . S
C61 C56 1.388 . S
C61 C60 1.443 . S
H62 C89 0.929 . S
N63 C88 1.433 . S
N63 C94 1.435 . S
N63 C100 1.423 . S
H64 C90 0.930 . S
H65 C93 0.931 . S
H66 C92 0.929 . S
H67 C95 0.930 . S
H68 C96 0.932 . S
H69 C99 0.929 . S
H70 C98 0.931 . S
H71 C101 0.929 . S
H72 C105 0.932 . S
H73 C102 0.931 . S
H74 C104 0.929 1_545 S
H75 C107 0.929 . S
H76 C108 0.930 . S
H77 C110 0.929 . S
H78 C111 0.931 . S
H79 C113 0.930 . S
H80 C114 0.932 . S
H81 C116 0.931 . S
H82 C117 0.929 . S
H83 C119 0.929 . S
H84 C120 0.931 . S
H85 C122 0.929 . S
N86 C106 1.433 . S
N86 C112 1.435 . S
N86 C118 1.423 . S
H87 C123 0.932 . S
C88 N63 1.433 . S
C88 C89 1.363 . S
C88 C93 1.370 . S
C89 H62 0.929 . S
C89 C88 1.363 . S
C89 C90 1.385 . S
C90 H64 0.930 . S
C90 C89 1.385 . S
C90 C91 1.357 . S
C91 C90 1.357 . S
C91 C92 1.406 . S
C92 H66 0.929 . S
C92 C91 1.406 . S
C92 C93 1.391 . S
C93 H65 0.931 . S
C93 C88 1.370 . S
C93 C92 1.391 . S
C94 N63 1.435 . S
C94 C95 1.358 . S
C94 C99 1.371 . S
C95 H67 0.930 . S
C95 C94 1.358 . S
C95 C96 1.405 . S
C96 H68 0.932 . S
C96 C95 1.405 . S
C96 C97 1.383 . S
C97 C96 1.383 . S
C97 C98 1.393 . S
C98 H70 0.931 . S
C98 C97 1.393 . S
C98 C99 1.382 . S
C99 H69 0.929 . S
C99 C94 1.371 . S
C99 C98 1.382 . S
C100 N63 1.423 . S
C100 C101 1.362 . S
C100 C105 1.388 . S
C101 H71 0.929 . S
C101 C100 1.362 . S
C101 C102 1.376 . S
C102 H73 0.931 . S
C102 C101 1.376 . S
C102 C103 1.396 1_565 S
C103 C102 1.396 1_545 S
C103 C104 1.348 1_545 S
C103 C121 1.472 . S
C104 H74 0.929 1_565 S
C104 C103 1.348 1_565 S
C104 C105 1.443 . S
C105 H72 0.932 . S
C105 C100 1.388 . S
C105 C104 1.443 . S
C106 N86 1.433 . S
C106 C107 1.363 . S
C106 C111 1.370 . S
C107 H75 0.929 . S
C107 C106 1.363 . S
C107 C108 1.385 . S
C108 H76 0.930 . S
C108 C107 1.385 . S
C108 C109 1.357 . S
C109 C108 1.357 . S
C109 C110 1.406 . S
C110 H77 0.929 . S
C110 C109 1.406 . S
C110 C111 1.391 . S
C111 H78 0.931 . S
C111 C106 1.370 . S
C111 C110 1.391 . S
C112 N86 1.435 . S
C112 C113 1.358 . S
C112 C117 1.371 . S
C113 H79 0.930 . S
C113 C112 1.358 . S
C113 C114 1.405 . S
C114 H80 0.932 . S
C114 C113 1.405 . S
C114 C115 1.383 . S
C115 C114 1.383 . S
C115 C116 1.393 . S
C116 H81 0.931 . S
C116 C115 1.393 . S
C116 C117 1.382 . S
C117 H82 0.929 . S
C117 C112 1.371 . S
C117 C116 1.382 . S
C118 N86 1.423 . S
C118 C119 1.362 . S
C118 C123 1.388 . S
C119 H83 0.929 . S
C119 C118 1.362 . S
C119 C120 1.376 . S
C120 H84 0.931 . S
C120 C119 1.376 . S
C120 C121 1.396 . S
C121 C103 1.472 . S
C121 C120 1.396 . S
C121 C122 1.348 . S
C122 H85 0.929 . S
C122 C121 1.348 . S
C122 C123 1.443 . S
C123 H87 0.932 . S
C123 C118 1.388 . S
C123 C122 1.443 . S
H124 C151 0.929 . S
N125 C150 1.433 . S
N125 C156 1.435 . S
N125 C162 1.423 . S
H126 C152 0.930 . S
H127 C155 0.931 . S
H128 C154 0.929 . S
H129 C157 0.930 . S
H130 C158 0.932 . S
H131 C161 0.929 . S
H132 C160 0.931 . S
H133 C163 0.929 . S
H134 C167 0.932 . S
H135 C164 0.931 . S
H136 C166 0.929 . S
H137 C169 0.929 . S
H138 C170 0.930 . S
H139 C172 0.929 . S
H140 C173 0.931 . S
H141 C175 0.930 . S
H142 C176 0.932 . S
H143 C178 0.931 . S
H144 C179 0.929 . S
H145 C181 0.929 . S
H146 C182 0.931 . S
H147 C184 0.929 . S
N148 C168 1.433 . S
N148 C174 1.435 . S
N148 C180 1.423 . S
H149 C185 0.932 . S
C150 N125 1.433 . S
C150 C151 1.363 . S
C150 C155 1.370 . S
C151 H124 0.929 . S
C151 C150 1.363 . S
C151 C152 1.385 . S
C152 H126 0.930 . S
C152 C151 1.385 . S
C152 C153 1.357 . S
C153 C152 1.357 . S
C153 C154 1.406 . S
C154 H128 0.929 . S
C154 C153 1.406 . S
C154 C155 1.391 . S
C155 H127 0.931 . S
C155 C150 1.370 . S
C155 C154 1.391 . S
C156 N125 1.435 . S
C156 C157 1.358 . S
C156 C161 1.371 . S
C157 H129 0.930 . S
C157 C156 1.358 . S
C157 C158 1.405 . S
C158 H130 0.932 . S
C158 C157 1.405 . S
C158 C159 1.383 . S
C159 C158 1.383 . S
C159 C160 1.393 . S
C160 H132 0.931 . S
C160 C159 1.393 . S
C160 C161 1.382 . S
C161 H131 0.929 . S
C161 C156 1.371 . S
C161 C160 1.382 . S
C162 N125 1.423 . S
C162 C163 1.362 . S
C162 C167 1.388 . S
C163 H133 0.929 . S
C163 C162 1.362 . S
C163 C164 1.376 . S
C164 H135 0.931 . S
C164 C163 1.376 . S
C164 C165 1.396 . S
C165 C164 1.396 . S
C165 C166 1.348 . S
C165 C183 1.472 . S
C166 H136 0.929 . S
C166 C165 1.348 . S
C166 C167 1.443 . S
C167 H134 0.932 . S
C167 C162 1.388 . S
C167 C166 1.443 . S
C168 N148 1.433 . S
C168 C169 1.363 . S
C168 C173 1.370 . S
C169 H137 0.929 . S
C169 C168 1.363 . S
C169 C170 1.385 . S
C170 H138 0.930 . S
C170 C169 1.385 . S
C170 C171 1.357 . S
C171 C170 1.357 . S
C171 C172 1.406 . S
C172 H139 0.929 . S
C172 C171 1.406 . S
C172 C173 1.391 . S
C173 H140 0.931 . S
C173 C168 1.370 . S
C173 C172 1.391 . S
C174 N148 1.435 . S
C174 C175 1.358 . S
C174 C179 1.371 . S
C175 H141 0.930 . S
C175 C174 1.358 . S
C175 C176 1.405 . S
C176 H142 0.932 . S
C176 C175 1.405 . S
C176 C177 1.383 . S
C177 C176 1.383 . S
C177 C178 1.393 . S
C178 H143 0.931 . S
C178 C177 1.393 . S
C178 C179 1.382 . S
C179 H144 0.929 . S
C179 C174 1.371 . S
C179 C178 1.382 . S
C180 N148 1.423 . S
C180 C181 1.362 . S
C180 C185 1.388 . S
C181 H145 0.929 . S
C181 C180 1.362 . S
C181 C182 1.376 . S
C182 H146 0.931 . S
C182 C181 1.376 . S
C182 C183 1.396 . S
C183 C165 1.472 . S
C183 C182 1.396 . S
C183 C184 1.348 . S
C184 H147 0.929 . S
C184 C183 1.348 . S
C184 C185 1.443 . S
C185 H149 0.932 . S
C185 C180 1.388 . S
C185 C184 1.443 . S
H186 C213 0.929 . S
N187 C212 1.433 . S
N187 C218 1.435 . S
N187 C224 1.423 . S
H188 C214 0.930 . S
H189 C217 0.931 . S
H190 C216 0.929 . S
H191 C219 0.930 . S
H192 C220 0.932 . S
H193 C223 0.929 . S
H194 C222 0.931 . S
H195 C225 0.929 . S
H196 C229 0.932 . S
H197 C226 0.931 . S
H198 C228 0.929 . S
H199 C231 0.929 . S
H200 C232 0.930 . S
H201 C234 0.929 . S
H202 C235 0.931 . S
H203 C237 0.930 . S
H204 C238 0.932 . S
H205 C240 0.931 . S
H206 C241 0.929 . S
H207 C243 0.929 . S
H208 C244 0.931 . S
H209 C246 0.929 . S
N210 C230 1.433 . S
N210 C236 1.435 . S
N210 C242 1.423 . S
H211 C247 0.932 . S
C212 N187 1.433 . S
C212 C213 1.363 . S
C212 C217 1.370 . S
C213 H186 0.929 . S
C213 C212 1.363 . S
C213 C214 1.385 . S
C214 H188 0.930 . S
C214 C213 1.385 . S
C214 C215 1.357 . S
C215 C214 1.357 . S
C215 C216 1.406 . S
C216 H190 0.929 . S
C216 C215 1.406 . S
C216 C217 1.391 . S
C217 H189 0.931 . S
C217 C212 1.370 . S
C217 C216 1.391 . S
C218 N187 1.435 . S
C218 C219 1.358 . S
C218 C223 1.371 . S
C219 H191 0.930 . S
C219 C218 1.358 . S
C219 C220 1.405 . S
C220 H192 0.932 . S
C220 C219 1.405 . S
C220 C221 1.383 . S
C221 C220 1.383 . S
C221 C222 1.393 . S
C222 H194 0.931 . S
C222 C221 1.393 . S
C222 C223 1.382 . S
C223 H193 0.929 . S
C223 C218 1.371 . S
C223 C222 1.382 . S
C224 N187 1.423 . S
C224 C225 1.362 . S
C224 C229 1.388 . S
C225 H195 0.929 . S
C225 C224 1.362 . S
C225 C226 1.376 . S
C226 H197 0.931 . S
C226 C225 1.376 . S
C226 C227 1.396 . S
C227 C226 1.396 . S
C227 C228 1.348 . S
C227 C245 1.472 1_455 S
C228 H198 0.929 . S
C228 C227 1.348 . S
C228 C229 1.443 . S
C229 H196 0.932 . S
C229 C224 1.388 . S
C229 C228 1.443 . S
C230 N210 1.433 . S
C230 C231 1.363 . S
C230 C235 1.370 . S
C231 H199 0.929 . S
C231 C230 1.363 . S
C231 C232 1.385 . S
C232 H200 0.930 . S
C232 C231 1.385 . S
C232 C233 1.357 . S
C233 C232 1.357 . S
C233 C234 1.406 . S
C234 H201 0.929 . S
C234 C233 1.406 . S
C234 C235 1.391 . S
C235 H202 0.931 . S
C235 C230 1.370 . S
C235 C234 1.391 . S
C236 N210 1.435 . S
C236 C237 1.358 . S
C236 C241 1.371 . S
C237 H203 0.930 . S
C237 C236 1.358 . S
C237 C238 1.405 . S
C238 H204 0.932 . S
C238 C237 1.405 . S
C238 C239 1.383 . S
C239 C238 1.383 . S
C239 C240 1.393 . S
C240 H205 0.931 . S
C240 C239 1.393 . S
C240 C241 1.382 . S
C241 H206 0.929 . S
C241 C236 1.371 . S
C241 C240 1.382 . S
C242 N210 1.423 . S
C242 C243 1.362 . S
C242 C247 1.388 . S
C243 H207 0.929 . S
C243 C242 1.362 . S
C243 C244 1.376 . S
C244 H208 0.931 . S
C244 C243 1.376 . S
C244 C245 1.396 . S
C245 C227 1.472 1_655 S
C245 C244 1.396 . S
C245 C246 1.348 . S
C246 H209 0.929 . S
C246 C245 1.348 . S
C246 C247 1.443 . S
C247 H211 0.932 . S
C247 C242 1.388 . S
C247 C246 1.443 . S
H248 C275 0.929 . S
N249 C274 1.433 . S
N249 C280 1.435 . S
N249 C286 1.423 . S
H250 C276 0.930 . S
H251 C279 0.931 . S
H252 C278 0.929 . S
H253 C281 0.930 . S
H254 C282 0.932 . S
H255 C285 0.929 . S
H256 C284 0.931 . S
H257 C287 0.929 . S
H258 C291 0.932 . S
H259 C288 0.931 . S
H260 C290 0.929 . S
H261 C293 0.929 . S
H262 C294 0.930 . S
H263 C296 0.929 . S
H264 C297 0.931 . S
H265 C299 0.930 . S
H266 C300 0.932 . S
H267 C302 0.931 . S
H268 C303 0.929 . S
H269 C305 0.929 . S
H270 C306 0.931 . S
H271 C308 0.929 . S
N272 C292 1.433 . S
N272 C298 1.424 1_554 S
N272 C304 1.423 . S
H273 C309 0.932 . S
C274 N249 1.433 . S
C274 C275 1.363 . S
C274 C279 1.370 . S
C275 H248 0.929 . S
C275 C274 1.363 . S
C275 C276 1.385 . S
C276 H250 0.930 . S
C276 C275 1.385 . S
C276 C277 1.357 1_556 S
C277 C276 1.357 1_554 S
C277 C278 1.406 . S
C278 H252 0.929 . S
C278 C277 1.406 . S
C278 C279 1.391 1_554 S
C279 H251 0.931 . S
C279 C274 1.370 . S
C279 C278 1.391 1_556 S
C280 N249 1.435 . S
C280 C281 1.358 . S
C280 C285 1.371 . S
C281 H253 0.930 . S
C281 C280 1.358 . S
C281 C282 1.405 . S
C282 H254 0.932 . S
C282 C281 1.405 . S
C282 C283 1.383 . S
C283 C282 1.383 . S
C283 C284 1.393 . S
C284 H256 0.931 . S
C284 C283 1.393 . S
C284 C285 1.382 . S
C285 H255 0.929 . S
C285 C280 1.371 . S
C285 C284 1.382 . S
C286 N249 1.423 . S
C286 C287 1.362 . S
C286 C291 1.388 . S
C287 H257 0.929 . S
C287 C286 1.362 . S
C287 C288 1.376 . S
C288 H259 0.931 . S
C288 C287 1.376 . S
C288 C289 1.396 . S
C289 C288 1.396 . S
C289 C290 1.348 . S
C289 C307 1.472 1_545 S
C290 H260 0.929 . S
C290 C289 1.348 . S
C290 C291 1.443 . S
C291 H258 0.932 . S
C291 C286 1.388 . S
C291 C290 1.443 . S
C292 N272 1.433 . S
C292 C293 1.363 . S
C292 C297 1.370 . S
C293 H261 0.929 . S
C293 C292 1.363 . S
C293 C294 1.385 . S
C294 H262 0.930 . S
C294 C293 1.385 . S
C294 C295 1.357 . S
C295 C294 1.357 . S
C295 C296 1.406 . S
C296 H263 0.929 . S
C296 C295 1.406 . S
C296 C297 1.391 . S
C297 H264 0.931 . S
C297 C292 1.370 . S
C297 C296 1.391 . S
C298 N272 1.424 1_556 S
C298 C299 1.353 1_556 S
C298 C303 1.388 . S
C299 H265 0.930 . S
C299 C298 1.353 1_554 S
C299 C300 1.405 1_554 S
C300 H266 0.932 . S
C300 C299 1.405 1_556 S
C300 C301 1.383 . S
C301 C300 1.383 . S
C301 C302 1.393 . S
C302 H267 0.931 . S
C302 C301 1.393 . S
C302 C303 1.382 . S
C303 H268 0.929 . S
C303 C298 1.388 . S
C303 C302 1.382 . S
C304 N272 1.423 . S
C304 C305 1.362 . S
C304 C309 1.388 1_554 S
C305 H269 0.929 . S
C305 C304 1.362 . S
C305 C306 1.376 . S
C306 H270 0.931 . S
C306 C305 1.376 . S
C306 C307 1.396 1_554 S
C307 C289 1.472 1_565 S
C307 C306 1.396 1_556 S
C307 C308 1.348 . S
C308 H271 0.929 . S
C308 C307 1.348 . S
C308 C309 1.443 . S
C309 H273 0.932 . S
C309 C304 1.388 1_556 S
C309 C308 1.443 . S
H310 C337 0.929 . S
N311 C336 1.433 . S
N311 C342 1.435 . S
N311 C348 1.423 . S
H312 C338 0.930 . S
H313 C341 0.931 . S
H314 C340 0.929 . S
H315 C343 0.930 . S
H316 C344 0.932 . S
H317 C347 0.929 . S
H318 C346 0.931 . S
H319 C349 0.929 . S
H320 C353 0.932 . S
H321 C350 0.931 . S
H322 C352 0.929 . S
H323 C355 0.929 . S
H324 C356 0.930 . S
H325 C358 0.929 . S
H326 C359 0.931 . S
H327 C361 0.930 . S
H328 C362 0.932 . S
H329 C364 0.931 . S
H330 C365 0.929 . S
H331 C367 0.929 . S
H332 C368 0.931 . S
H333 C370 0.929 . S
N334 C354 1.433 . S
N334 C360 1.435 . S
N334 C366 1.423 . S
H335 C371 0.932 . S
C336 N311 1.433 . S
C336 C337 1.363 . S
C336 C341 1.370 . S
C337 H310 0.929 . S
C337 C336 1.363 . S
C337 C338 1.385 . S
C338 H312 0.930 . S
C338 C337 1.385 . S
C338 C339 1.357 . S
C339 C338 1.357 . S
C339 C340 1.406 . S
C340 H314 0.929 . S
C340 C339 1.406 . S
C340 C341 1.391 . S
C341 H313 0.931 . S
C341 C336 1.370 . S
C341 C340 1.391 . S
C342 N311 1.435 . S
C342 C343 1.358 . S
C342 C347 1.371 . S
C343 H315 0.930 . S
C343 C342 1.358 . S
C343 C344 1.405 . S
C344 H316 0.932 . S
C344 C343 1.405 . S
C344 C345 1.383 . S
C345 C344 1.383 . S
C345 C346 1.393 . S
C346 H318 0.931 . S
C346 C345 1.393 . S
C346 C347 1.382 . S
C347 H317 0.929 . S
C347 C342 1.371 . S
C347 C346 1.382 . S
C348 N311 1.423 . S
C348 C349 1.362 . S
C348 C353 1.388 . S
C349 H319 0.929 . S
C349 C348 1.362 . S
C349 C350 1.376 . S
C350 H321 0.931 . S
C350 C349 1.376 . S
C350 C351 1.396 . S
C351 C350 1.396 . S
C351 C352 1.348 . S
C351 C369 1.472 . S
C352 H322 0.929 . S
C352 C351 1.348 . S
C352 C353 1.443 . S
C353 H320 0.932 . S
C353 C348 1.388 . S
C353 C352 1.443 . S
C354 N334 1.433 . S
C354 C355 1.363 . S
C354 C359 1.370 . S
C355 H323 0.929 . S
C355 C354 1.363 . S
C355 C356 1.385 . S
C356 H324 0.930 . S
C356 C355 1.385 . S
C356 C357 1.357 . S
C357 C356 1.357 . S
C357 C358 1.406 . S
C358 H325 0.929 . S
C358 C357 1.406 . S
C358 C359 1.391 . S
C359 H326 0.931 . S
C359 C354 1.370 . S
C359 C358 1.391 . S
C360 N334 1.435 . S
C360 C361 1.358 . S
C360 C365 1.371 . S
C361 H327 0.930 . S
C361 C360 1.358 . S
C361 C362 1.405 . S
C362 H328 0.932 . S
C362 C361 1.405 . S
C362 C363 1.383 . S
C363 C362 1.383 . S
C363 C364 1.393 . S
C364 H329 0.931 . S
C364 C363 1.393 . S
C364 C365 1.382 . S
C365 H330 0.929 . S
C365 C360 1.371 . S
C365 C364 1.382 . S
C366 N334 1.423 . S
C366 C367 1.362 . S
C366 C371 1.388 . S
C367 H331 0.929 . S
C367 C366 1.362 . S
C367 C368 1.376 . S
C368 H332 0.931 . S
C368 C367 1.376 . S
C368 C369 1.396 . S
C369 C351 1.472 . S
C369 C368 1.396 . S
C369 C370 1.348 . S
C370 H333 0.929 . S
C370 C369 1.348 . S
C370 C371 1.443 . S
C371 H335 0.932 . S
C371 C366 1.388 . S
C371 C370 1.443 . S
In372 O373 2.294 . S
In372 O374 2.326 . S
In372 O378 2.266 . S
In372 O379 2.326 . S
In372 O380 2.266 . S
In372 O381 2.326 . S
In372 O383 2.294 . S
In372 O384 2.326 . S
O373 In372 2.294 . S
O373 C382 1.240 . S
O374 In372 2.326 . S
O374 C382 1.252 . S
C375 O378 1.252 . S
C375 O379 1.260 . S
C376 O383 1.240 . S
C376 O384 1.252 . S
C377 O380 1.252 . S
C377 O381 1.260 . S
O378 In372 2.266 . S
O378 C375 1.252 . S
O379 In372 2.326 . S
O379 C375 1.260 . S
O380 In372 2.266 . S
O380 C377 1.252 . S
O381 In372 2.326 . S
O381 C377 1.260 . S
C382 O373 1.240 . S
C382 O374 1.252 . S
O383 In372 2.294 . S
O383 C376 1.240 . S
O384 In372 2.326 . S
O384 C376 1.252 . S
In385 O386 2.294 . S
In385 O387 2.326 . S
In385 O391 2.266 . S
In385 O392 2.326 . S
In385 O393 2.266 . S
In385 O394 2.326 . S
In385 O396 2.294 . S
In385 O397 2.326 . S
O386 In385 2.294 . S
O386 C395 1.240 . S
O387 In385 2.326 . S
O387 C395 1.252 . S
C388 O391 1.252 . S
C388 O392 1.260 . S
C389 O396 1.240 . S
C389 O397 1.252 . S
C390 O393 1.252 . S
C390 O394 1.260 . S
O391 In385 2.266 . S
O391 C388 1.252 . S
O392 In385 2.326 . S
O392 C388 1.260 . S
O393 In385 2.266 . S
O393 C390 1.252 . S
O394 In385 2.326 . S
O394 C390 1.260 . S
C395 O386 1.240 . S
C395 O387 1.252 . S
O396 In385 2.294 . S
O396 C389 1.240 . S
O397 In385 2.326 . S
O397 C389 1.252 . S
In398 O399 2.294 . S
In398 O400 2.326 . S
In398 O404 2.266 . S
In398 O405 2.326 . S
In398 O406 2.266 . S
In398 O407 2.326 . S
In398 O409 2.294 . S
In398 O410 2.326 . S
O399 In398 2.294 . S
O399 C408 1.240 . S
O400 In398 2.326 . S
O400 C408 1.252 . S
C401 O404 1.252 . S
C401 O405 1.260 . S
C402 O409 1.240 . S
C402 O410 1.252 . S
C403 O406 1.252 . S
C403 O407 1.260 . S
O404 In398 2.266 . S
O404 C401 1.252 . S
O405 In398 2.326 . S
O405 C401 1.260 . S
O406 In398 2.266 . S
O406 C403 1.252 . S
O407 In398 2.326 . S
O407 C403 1.260 . S
C408 O399 1.240 . S
C408 O400 1.252 . S
O409 In398 2.294 . S
O409 C402 1.240 . S
O410 In398 2.326 . S
O410 C402 1.252 . S
In411 O412 2.294 . S
In411 O413 2.326 . S
In411 O417 2.266 . S
In411 O418 2.326 . S
In411 O419 2.266 . S
In411 O420 2.326 . S
In411 O422 2.294 . S
In411 O423 2.326 . S
O412 In411 2.294 . S
O412 C421 1.240 . S
O413 In411 2.326 . S
O413 C421 1.252 . S
C414 O417 1.252 . S
C414 O418 1.260 . S
C415 O422 1.240 . S
C415 O423 1.252 . S
C416 O419 1.252 . S
C416 O420 1.260 . S
O417 In411 2.266 . S
O417 C414 1.252 . S
O418 In411 2.326 . S
O418 C414 1.260 . S
O419 In411 2.266 . S
O419 C416 1.252 . S
O420 In411 2.326 . S
O420 C416 1.260 . S
C421 O412 1.240 . S
C421 O413 1.252 . S
O422 In411 2.294 . S
O422 C415 1.240 . S
O423 In411 2.326 . S
O423 C415 1.252 . S
In424 O425 2.294 . S
In424 O426 2.326 . S
In424 O430 2.266 . S
In424 O431 2.326 . S
In424 O432 2.266 . S
In424 O433 2.326 . S
In424 O435 2.294 . S
In424 O436 2.326 . S
O425 In424 2.294 . S
O425 C434 1.240 . S
O426 In424 2.326 . S
O426 C434 1.252 . S
C427 O430 1.252 . S
C427 O431 1.260 . S
C428 O435 1.240 . S
C428 O436 1.252 . S
C429 O432 1.252 . S
C429 O433 1.260 . S
O430 In424 2.266 . S
O430 C427 1.252 . S
O431 In424 2.326 . S
O431 C427 1.260 . S
O432 In424 2.266 . S
O432 C429 1.252 . S
O433 In424 2.326 . S
O433 C429 1.260 . S
C434 O425 1.240 . S
C434 O426 1.252 . S
O435 In424 2.294 . S
O435 C428 1.240 . S
O436 In424 2.326 . S
O436 C428 1.252 . S
In437 O438 2.294 . S
In437 O439 2.326 . S
In437 O443 2.266 . S
In437 O444 2.326 . S
In437 O445 2.266 . S
In437 O446 2.326 . S
In437 O448 2.294 . S
In437 O449 2.326 . S
O438 In437 2.294 . S
O438 C447 1.240 . S
O439 In437 2.326 . S
O439 C447 1.252 . S
C440 O443 1.252 . S
C440 O444 1.260 . S
C441 O448 1.240 . S
C441 O449 1.252 . S
C442 O445 1.252 . S
C442 O446 1.260 . S
O443 In437 2.266 . S
O443 C440 1.252 . S
O444 In437 2.326 . S
O444 C440 1.260 . S
O445 In437 2.266 . S
O445 C442 1.252 . S
O446 In437 2.326 . S
O446 C442 1.260 . S
C447 O438 1.240 . S
C447 O439 1.252 . S
O448 In437 2.294 . S
O448 C441 1.240 . S
O449 In437 2.326 . S
O449 C441 1.252 . S
C450 C451 1.363 . S
C450 C456 1.379 . S
C450 N458 1.356 . S
C451 C450 1.363 . S
C451 C457 1.363 . S
C452 C453 1.363 . S
C452 C457 1.379 . S
C452 N459 1.356 . S
C453 C452 1.363 . S
C453 C456 1.363 . S
N454 C456 1.356 . S
N454 H466 0.984 . S
N454 H467 0.985 . S
N455 C457 1.356 . S
N455 H460 0.984 . S
N455 H461 0.985 . S
C456 C450 1.379 . S
C456 C453 1.363 . S
C456 N454 1.356 . S
C457 C451 1.363 . S
C457 C452 1.379 . S
C457 N455 1.356 . S
N458 C450 1.356 . S
N458 H464 0.984 . S
N458 H465 0.984 . S
N459 C452 1.356 . S
N459 H462 0.984 . S
N459 H463 0.985 . S
H460 N455 0.984 . S
H461 N455 0.985 . S
H462 N459 0.984 . S
H463 N459 0.985 . S
H464 N458 0.984 . S
H465 N458 0.984 . S
H466 N454 0.984 . S
H467 N454 0.985 . S
C468 C469 1.363 . S
C468 C474 1.379 . S
C468 N476 1.356 . S
C469 C468 1.363 . S
C469 C475 1.363 . S
C470 C471 1.363 . S
C470 C475 1.379 . S
C470 N477 1.356 . S
C471 C470 1.363 . S
C471 C474 1.363 . S
N472 C474 1.356 . S
N472 H484 0.984 . S
N472 H485 0.985 . S
N473 C475 1.356 . S
N473 H478 0.984 . S
N473 H479 0.985 . S
C474 C468 1.379 . S
C474 C471 1.363 . S
C474 N472 1.356 . S
C475 C469 1.363 . S
C475 C470 1.379 . S
C475 N473 1.356 . S
N476 C468 1.356 . S
N476 H482 0.984 . S
N476 H483 0.984 . S
N477 C470 1.356 . S
N477 H480 0.984 . S
N477 H481 0.985 . S
H478 N473 0.984 . S
H479 N473 0.985 . S
H480 N477 0.984 . S
H481 N477 0.985 . S
H482 N476 0.984 . S
H483 N476 0.984 . S
H484 N472 0.984 . S
H485 N472 0.985 . S
C486 C487 1.363 . S
C486 C492 1.379 . S
C486 N494 1.356 . S
C487 C486 1.363 . S
C487 C493 1.363 . S
C488 C489 1.363 . S
C488 C493 1.379 . S
C488 N495 1.356 . S
C489 C488 1.363 . S
C489 C492 1.363 . S
N490 C492 1.356 . S
N490 H502 0.984 . S
N490 H503 0.985 . S
N491 C493 1.356 . S
N491 H496 0.984 . S
N491 H497 0.985 . S
C492 C486 1.379 . S
C492 C489 1.363 . S
C492 N490 1.356 . S
C493 C487 1.363 . S
C493 C488 1.379 . S
C493 N491 1.356 . S
N494 C486 1.356 . S
N494 H500 0.984 . S
N494 H501 0.984 . S
N495 C488 1.356 . S
N495 H498 0.984 . S
N495 H499 0.985 . S
H496 N491 0.984 . S
H497 N491 0.985 . S
H498 N495 0.984 . S
H499 N495 0.985 . S
H500 N494 0.984 . S
H501 N494 0.984 . S
H502 N490 0.984 . S
H503 N490 0.985 . S
C504 C505 1.363 . S
C504 C510 1.379 . S
C504 N512 1.356 . S
C505 C504 1.363 . S
C505 C511 1.363 . S
C506 C507 1.363 . S
C506 C511 1.379 . S
C506 N513 1.356 . S
C507 C506 1.363 . S
C507 C510 1.363 . S
N508 C510 1.356 . S
N508 H520 0.984 . S
N508 H521 0.985 . S
N509 C511 1.356 . S
N509 H514 0.984 . S
N509 H515 0.985 . S
C510 C504 1.379 . S
C510 C507 1.363 . S
C510 N508 1.356 . S
C511 C505 1.363 . S
C511 C506 1.379 . S
C511 N509 1.356 . S
N512 C504 1.356 . S
N512 H518 0.984 . S
N512 H519 0.984 . S
N513 C506 1.356 . S
N513 H516 0.984 . S
N513 H517 0.985 . S
H514 N509 0.984 . S
H515 N509 0.985 . S
H516 N513 0.984 . S
H517 N513 0.985 . S
H518 N512 0.984 . S
H519 N512 0.984 . S
H520 N508 0.984 . S
H521 N508 0.985 . S
C522 C523 1.363 . S
C522 C528 1.379 . S
C522 N530 1.356 . S
C523 C522 1.363 . S
C523 C529 1.363 . S
C524 C525 1.363 . S
C524 C529 1.379 . S
C524 N531 1.356 . S
C525 C524 1.363 . S
C525 C528 1.363 . S
N526 C528 1.356 . S
N526 H538 0.984 . S
N526 H539 0.985 . S
N527 C529 1.356 . S
N527 H532 0.984 . S
N527 H533 0.985 . S
C528 C522 1.379 . S
C528 C525 1.363 . S
C528 N526 1.356 . S
C529 C523 1.363 . S
C529 C524 1.379 . S
C529 N527 1.356 . S
N530 C522 1.356 . S
N530 H536 0.970 1_556 S
N530 H537 0.984 . S
N531 C524 1.356 . S
N531 H534 0.984 . S
N531 H535 0.985 . S
H532 N527 0.984 . S
H533 N527 0.985 . S
H534 N531 0.984 . S
H535 N531 0.985 . S
H536 N530 0.970 1_554 S
H537 N530 0.984 . S
H538 N526 0.984 . S
H539 N526 0.985 . S
C540 C541 1.363 . S
C540 C546 1.379 . S
C540 N548 1.356 . S
C541 C540 1.363 . S
C541 C547 1.363 . S
C542 C543 1.363 . S
C542 C547 1.379 . S
C542 N549 1.356 . S
C543 C542 1.363 . S
C543 C546 1.363 . S
N544 C546 1.356 . S
N544 H556 0.984 . S
N544 H557 0.985 . S
N545 C547 1.356 . S
N545 H550 0.984 . S
N545 H551 0.985 . S
C546 C540 1.379 . S
C546 C543 1.363 . S
C546 N544 1.356 . S
C547 C541 1.363 . S
C547 C542 1.379 . S
C547 N545 1.356 . S
N548 C540 1.356 . S
N548 H554 0.984 . S
N548 H555 0.984 . S
N549 C542 1.356 . S
N549 H552 0.984 . S
N549 H553 0.985 . S
H550 N545 0.984 . S
H551 N545 0.985 . S
H552 N549 0.984 . S
H553 N549 0.985 . S
H554 N548 0.984 . S
H555 N548 0.984 . S
H556 N544 0.984 . S
H557 N544 0.985 . S
C558 C559 1.363 . S
C558 C564 1.379 . S
C558 N566 1.356 . S
C559 C558 1.363 . S
C559 C565 1.363 . S
C560 C561 1.363 . S
C560 C565 1.379 . S
C560 N567 1.356 . S
C561 C560 1.363 . S
C561 C564 1.363 . S
N562 C564 1.356 . S
N562 H574 0.984 . S
N562 H575 0.985 . S
N563 C565 1.356 . S
N563 H568 0.984 . S
N563 H569 0.985 . S
C564 C558 1.379 . S
C564 C561 1.363 . S
C564 N562 1.356 . S
C565 C559 1.363 . S
C565 C560 1.379 . S
C565 N563 1.356 . S
N566 C558 1.356 . S
N566 H572 0.984 . S
N566 H573 0.984 . S
N567 C560 1.356 . S
N567 H570 0.984 . S
N567 H571 0.985 . S
H568 N563 0.984 . S
H569 N563 0.985 . S
H570 N567 0.984 . S
H571 N567 0.985 . S
H572 N566 0.984 . S
H573 N566 0.984 . S
H574 N562 0.984 . S
H575 N562 0.985 . S
C576 C577 1.363 . S
C576 C582 1.379 . S
C576 N584 1.356 . S
C577 C576 1.363 . S
C577 C583 1.363 . S
C578 C579 1.363 . S
C578 C583 1.379 . S
C578 N585 1.356 . S
C579 C578 1.363 . S
C579 C582 1.363 . S
N580 C582 1.356 . S
N580 H592 0.984 . S
N580 H593 0.985 . S
N581 C583 1.356 . S
N581 H586 0.984 . S
N581 H587 0.985 . S
C582 C576 1.379 . S
C582 C579 1.363 . S
C582 N580 1.356 . S
C583 C577 1.363 . S
C583 C578 1.379 . S
C583 N581 1.356 . S
N584 C576 1.356 . S
N584 H590 0.984 . S
N584 H591 0.984 . S
N585 C578 1.356 . S
N585 H588 0.984 . S
N585 H589 0.985 . S
H586 N581 0.984 . S
H587 N581 0.985 . S
H588 N585 0.984 . S
H589 N585 0.985 . S
H590 N584 0.984 . S
H591 N584 0.984 . S
H592 N580 0.984 . S
H593 N580 0.985 . S
C594 C595 1.363 . S
C594 C600 1.379 . S
C594 N602 1.356 . S
C595 C594 1.363 . S
C595 C601 1.363 . S
C596 C597 1.363 . S
C596 C601 1.379 . S
C596 N603 1.356 . S
C597 C596 1.363 . S
C597 C600 1.363 . S
N598 C600 1.356 . S
N598 H610 0.984 . S
N598 H611 0.985 . S
N599 C601 1.356 . S
N599 H604 0.984 . S
N599 H605 0.985 . S
C600 C594 1.379 . S
C600 C597 1.363 . S
C600 N598 1.356 . S
C601 C595 1.363 . S
C601 C596 1.379 . S
C601 N599 1.356 . S
N602 C594 1.356 . S
N602 H608 0.984 . S
N602 H609 0.984 . S
N603 C596 1.356 . S
N603 H606 0.984 . S
N603 H607 0.985 . S
H604 N599 0.984 . S
H605 N599 0.985 . S
H606 N603 0.984 . S
H607 N603 0.985 . S
H608 N602 0.984 . S
H609 N602 0.984 . S
H610 N598 0.984 . S
H611 N598 0.985 . S
C612 C613 1.363 . S
C612 C618 1.379 . S
C612 N620 1.356 1_554 S
C613 C612 1.363 . S
C613 C619 1.363 . S
C614 C615 1.363 . S
C614 C619 1.379 . S
C614 N621 1.356 . S
C615 C614 1.363 . S
C615 C618 1.363 . S
N616 C618 1.356 . S
N616 H628 0.984 1_554 S
N616 H629 0.985 . S
N617 C619 1.356 . S
N617 H622 0.984 . S
N617 H623 0.985 . S
C618 C612 1.379 . S
C618 C615 1.363 . S
C618 N616 1.356 . S
C619 C613 1.363 . S
C619 C614 1.379 . S
C619 N617 1.356 . S
N620 C612 1.356 1_556 S
N620 H626 0.984 . S
N620 H627 0.985 . S
N621 C614 1.356 . S
N621 H624 0.984 . S
N621 H625 0.985 . S
H622 N617 0.984 . S
H623 N617 0.985 . S
H624 N621 0.984 . S
H625 N621 0.985 . S
H626 N620 0.984 . S
H627 N620 0.985 . S
H628 N616 0.984 1_556 S
H629 N616 0.985 . S
C630 C631 1.363 . S
C630 C636 1.379 . S
C630 N638 1.356 . S
C631 C630 1.363 . S
C631 C637 1.363 . S
C632 C633 1.363 . S
C632 C637 1.379 . S
C632 N639 1.356 . S
C633 C632 1.363 . S
C633 C636 1.363 . S
N634 C636 1.356 . S
N634 H646 0.984 . S
N634 H647 0.985 . S
N635 C637 1.356 . S
N635 H640 0.984 . S
N635 H641 0.985 . S
C636 C630 1.379 . S
C636 C633 1.363 . S
C636 N634 1.356 . S
C637 C631 1.363 . S
C637 C632 1.379 . S
C637 N635 1.356 . S
N638 C630 1.356 . S
N638 H644 0.984 . S
N638 H645 0.984 . S
N639 C632 1.356 . S
N639 H642 0.984 . S
N639 H643 0.985 . S
H640 N635 0.984 . S
H641 N635 0.985 . S
H642 N639 0.984 . S
H643 N639 0.985 . S
H644 N638 0.984 . S
H645 N638 0.984 . S
H646 N634 0.984 . S
H647 N634 0.985 . S
C648 C649 1.363 . S
C648 C654 1.379 . S
C648 N656 1.356 . S
C649 C648 1.363 . S
C649 C655 1.363 . S
C650 C651 1.363 . S
C650 C655 1.379 . S
C650 N657 1.356 . S
C651 C650 1.363 . S
C651 C654 1.363 . S
N652 C654 1.356 . S
N652 H664 0.984 . S
N652 H665 0.985 . S
N653 C655 1.356 . S
N653 H658 0.984 . S
N653 H659 0.985 . S
C654 C648 1.379 . S
C654 C651 1.363 . S
C654 N652 1.356 . S
C655 C649 1.363 . S
C655 C650 1.379 . S
C655 N653 1.356 . S
N656 C648 1.356 . S
N656 H662 0.984 . S
N656 H663 0.984 . S
N657 C650 1.356 . S
N657 H660 0.984 . S
N657 H661 0.985 . S
H658 N653 0.984 . S
H659 N653 0.985 . S
H660 N657 0.984 . S
H661 N657 0.985 . S
H662 N656 0.984 . S
H663 N656 0.984 . S
H664 N652 0.984 . S
H665 N652 0.985 . S
C666 C667 1.363 . S
C666 C672 1.379 . S
C666 N674 1.356 . S
C667 C666 1.363 . S
C667 C673 1.363 . S
C668 C669 1.363 . S
C668 C673 1.379 . S
C668 N675 1.356 . S
C669 C668 1.363 . S
C669 C672 1.363 . S
N670 C672 1.356 . S
N670 H682 0.984 . S
N670 H683 0.985 . S
N671 C673 1.356 . S
N671 H676 0.984 . S
N671 H677 0.985 . S
C672 C666 1.379 . S
C672 C669 1.363 . S
C672 N670 1.356 . S
C673 C667 1.363 . S
C673 C668 1.379 . S
C673 N671 1.356 . S
N674 C666 1.356 . S
N674 H680 0.984 . S
N674 H681 0.984 . S
N675 C668 1.356 . S
N675 H678 0.984 . S
N675 H679 0.985 . S
H676 N671 0.984 . S
H677 N671 0.985 . S
H678 N675 0.984 . S
H679 N675 0.985 . S
H680 N674 0.984 . S
H681 N674 0.984 . S
H682 N670 0.984 . S
H683 N670 0.985 . S
C684 C685 1.363 . S
C684 C690 1.379 . S
C684 N692 1.356 . S
C685 C684 1.363 . S
C685 C691 1.363 . S
C686 C687 1.363 . S
C686 C691 1.379 . S
C686 N693 1.356 . S
C687 C686 1.363 . S
C687 C690 1.363 . S
N688 C690 1.356 . S
N688 H700 0.984 . S
N688 H701 0.985 . S
N689 C691 1.356 . S
N689 H694 0.984 . S
N689 H695 0.985 . S
C690 C684 1.379 . S
C690 C687 1.363 . S
C690 N688 1.356 . S
C691 C685 1.363 . S
C691 C686 1.379 . S
C691 N689 1.356 . S
N692 C684 1.356 . S
N692 H698 0.984 . S
N692 H699 0.984 . S
N693 C686 1.356 . S
N693 H696 0.984 . S
N693 H697 0.985 . S
H694 N689 0.984 . S
H695 N689 0.985 . S
H696 N693 0.984 . S
H697 N693 0.985 . S
H698 N692 0.984 . S
H699 N692 0.984 . S
H700 N688 0.984 . S
H701 N688 0.985 . S
C702 C703 1.363 . S
C702 C708 1.379 . S
C702 N710 1.356 . S
C703 C702 1.363 . S
C703 C709 1.363 . S
C704 C705 1.363 . S
C704 C709 1.379 . S
C704 N711 1.356 . S
C705 C704 1.363 . S
C705 C708 1.363 . S
N706 C708 1.356 . S
N706 H718 0.984 . S
N706 H719 0.985 . S
N707 C709 1.356 . S
N707 H712 0.984 . S
N707 H713 0.985 . S
C708 C702 1.379 . S
C708 C705 1.363 . S
C708 N706 1.356 . S
C709 C703 1.363 . S
C709 C704 1.379 . S
C709 N707 1.356 . S
N710 C702 1.356 . S
N710 H716 0.984 . S
N710 H717 0.984 . S
N711 C704 1.356 . S
N711 H714 0.984 . S
N711 H715 0.985 . S
H712 N707 0.984 . S
H713 N707 0.985 . S
H714 N711 0.984 . S
H715 N711 0.985 . S
H716 N710 0.984 . S
H717 N710 0.984 . S
H718 N706 0.984 . S
H719 N706 0.985 . S
C720 C721 1.363 . S
C720 C726 1.379 . S
C720 N728 1.356 . S
C721 C720 1.363 . S
C721 C727 1.363 . S
C722 C723 1.363 . S
C722 C727 1.379 . S
C722 N729 1.356 1_556 S
C723 C722 1.363 . S
C723 C726 1.363 . S
N724 C726 1.356 . S
N724 H736 0.984 . S
N724 H737 0.985 1_556 S
N725 C727 1.356 . S
N725 H730 0.984 . S
N725 H731 0.985 . S
C726 C720 1.379 . S
C726 C723 1.363 . S
C726 N724 1.356 . S
C727 C721 1.363 . S
C727 C722 1.379 . S
C727 N725 1.356 . S
N728 C720 1.356 . S
N728 H734 0.984 . S
N728 H735 0.984 . S
N729 C722 1.356 1_554 S
N729 H732 0.984 . S
N729 H733 0.985 . S
H730 N725 0.984 . S
H731 N725 0.985 . S
H732 N729 0.984 . S
H733 N729 0.985 . S
H734 N728 0.984 . S
H735 N728 0.984 . S
H736 N724 0.984 . S
H737 N724 0.985 1_554 S
C738 C739 1.363 . S
C738 C744 1.379 . S
C738 N746 1.356 . S
C739 C738 1.363 . S
C739 C745 1.363 . S
C740 C741 1.363 . S
C740 C745 1.379 . S
C740 N747 1.356 . S
C741 C740 1.363 . S
C741 C744 1.363 . S
N742 C744 1.356 . S
N742 H754 0.984 . S
N742 H755 0.985 . S
N743 C745 1.356 . S
N743 H748 0.984 . S
N743 H749 0.985 . S
C744 C738 1.379 . S
C744 C741 1.363 . S
C744 N742 1.356 . S
C745 C739 1.363 . S
C745 C740 1.379 . S
C745 N743 1.356 . S
N746 C738 1.356 . S
N746 H752 0.984 . S
N746 H753 0.984 . S
N747 C740 1.356 . S
N747 H750 0.984 . S
N747 H751 0.985 . S
H748 N743 0.984 . S
H749 N743 0.985 . S
H750 N747 0.984 . S
H751 N747 0.985 . S
H752 N746 0.984 . S
H753 N746 0.984 . S
H754 N742 0.984 . S
H755 N742 0.985 . S
C756 C757 1.363 . S
C756 C762 1.379 . S
C756 N764 1.356 . S
C757 C756 1.363 . S
C757 C763 1.363 . S
C758 C759 1.363 . S
C758 C763 1.379 . S
C758 N765 1.356 . S
C759 C758 1.363 . S
C759 C762 1.363 . S
N760 C762 1.356 . S
N760 H772 0.984 . S
N760 H773 0.985 . S
N761 C763 1.356 . S
N761 H766 0.984 . S
N761 H767 0.985 . S
C762 C756 1.379 . S
C762 C759 1.363 . S
C762 N760 1.356 . S
C763 C757 1.363 . S
C763 C758 1.379 . S
C763 N761 1.356 . S
N764 C756 1.356 . S
N764 H770 0.984 . S
N764 H771 0.984 . S
N765 C758 1.356 . S
N765 H768 0.984 . S
N765 H769 0.985 . S
H766 N761 0.984 . S
H767 N761 0.985 . S
H768 N765 0.984 . S
H769 N765 0.985 . S
H770 N764 0.984 . S
H771 N764 0.984 . S
H772 N760 0.984 . S
H773 N760 0.985 . S
C774 C775 1.363 . S
C774 C780 1.379 . S
C774 N782 1.356 . S
C775 C774 1.363 . S
C775 C781 1.363 . S
C776 C777 1.363 . S
C776 C781 1.379 . S
C776 N783 1.356 . S
C777 C776 1.363 . S
C777 C780 1.363 . S
N778 C780 1.356 . S
N778 H790 0.984 . S
N778 H791 0.985 . S
N779 C781 1.356 . S
N779 H784 0.984 . S
N779 H785 0.985 . S
C780 C774 1.379 . S
C780 C777 1.363 . S
C780 N778 1.356 . S
C781 C775 1.363 . S
C781 C776 1.379 . S
C781 N779 1.356 . S
N782 C774 1.356 . S
N782 H788 0.984 . S
N782 H789 0.984 . S
N783 C776 1.356 . S
N783 H786 0.984 . S
N783 H787 0.985 . S
H784 N779 0.984 . S
H785 N779 0.985 . S
H786 N783 0.984 . S
H787 N783 0.985 . S
H788 N782 0.984 . S
H789 N782 0.984 . S
H790 N778 0.984 . S
H791 N778 0.985 . S
C792 C793 1.363 . S
C792 C798 1.379 . S
C792 N800 1.356 . S
C793 C792 1.363 . S
C793 C799 1.363 . S
C794 C795 1.363 . S
C794 C799 1.379 . S
C794 N801 1.356 . S
C795 C794 1.363 . S
C795 C798 1.363 . S
N796 C798 1.356 . S
N796 H808 0.984 . S
N796 H809 0.985 . S
N797 C799 1.356 . S
N797 H802 0.984 . S
N797 H803 0.985 . S
C798 C792 1.379 . S
C798 C795 1.363 . S
C798 N796 1.356 . S
C799 C793 1.363 . S
C799 C794 1.379 . S
C799 N797 1.356 . S
N800 C792 1.356 . S
N800 H806 0.984 . S
N800 H807 0.984 . S
N801 C794 1.356 . S
N801 H804 0.984 . S
N801 H805 0.985 . S
H802 N797 0.984 . S
H803 N797 0.985 . S
H804 N801 0.984 . S
H805 N801 0.985 . S
H806 N800 0.984 . S
H807 N800 0.984 . S
H808 N796 0.984 . S
H809 N796 0.985 . S
C810 C811 1.363 . S
C810 C816 1.379 . S
C810 N818 1.356 . S
C811 C810 1.363 . S
C811 C817 1.363 . S
C812 C813 1.363 . S
C812 C817 1.379 . S
C812 N819 1.356 . S
C813 C812 1.363 . S
C813 C816 1.363 . S
N814 C816 1.356 . S
N814 H826 0.984 . S
N814 H827 0.985 . S
N815 C817 1.356 . S
N815 H820 0.984 . S
N815 H821 0.985 . S
C816 C810 1.379 . S
C816 C813 1.363 . S
C816 N814 1.356 . S
C817 C811 1.363 . S
C817 C812 1.379 . S
C817 N815 1.356 . S
N818 C810 1.356 . S
N818 H824 0.984 . S
N818 H825 0.984 . S
N819 C812 1.356 . S
N819 H822 0.984 . S
N819 H823 0.985 . S
H820 N815 0.984 . S
H821 N815 0.985 . S
H822 N819 0.984 . S
H823 N819 0.985 . S
H824 N818 0.984 . S
H825 N818 0.984 . S
H826 N814 0.984 . S
H827 N814 0.985 . S
C828 C829 1.363 . S
C828 C834 1.379 . S
C828 N836 1.356 . S
C829 C828 1.363 . S
C829 C835 1.363 . S
C830 C831 1.363 . S
C830 C835 1.379 . S
C830 N837 1.356 . S
C831 C830 1.363 . S
C831 C834 1.363 . S
N832 C834 1.356 . S
N832 H844 0.984 . S
N832 H845 0.985 . S
N833 C835 1.356 . S
N833 H838 0.984 . S
N833 H839 0.985 . S
C834 C828 1.379 . S
C834 C831 1.363 . S
C834 N832 1.356 . S
C835 C829 1.363 . S
C835 C830 1.379 . S
C835 N833 1.356 . S
N836 C828 1.356 . S
N836 H842 0.984 . S
N836 H843 0.984 . S
N837 C830 1.356 . S
N837 H840 0.984 . S
N837 H841 0.985 . S
H838 N833 0.984 . S
H839 N833 0.985 . S
H840 N837 0.984 . S
H841 N837 0.985 . S
H842 N836 0.984 . S
H843 N836 0.984 . S
H844 N832 0.984 . S
H845 N832 0.985 . S
C846 C847 1.363 . S
C846 C852 1.379 1_554 S
C846 N854 1.356 . S
C847 C846 1.363 . S
C847 C853 1.363 1_554 S
C848 C849 1.363 . S
C848 C853 1.379 . S
C848 N855 1.356 . S
C849 C848 1.363 . S
C849 C852 1.363 . S
N850 C852 1.356 . S
N850 H862 0.984 1_556 S
N850 H863 0.985 . S
N851 C853 1.356 . S
N851 H856 0.984 1_556 S
N851 H857 0.985 . S
C852 C846 1.379 1_556 S
C852 C849 1.363 . S
C852 N850 1.356 . S
C853 C847 1.363 1_556 S
C853 C848 1.379 . S
C853 N851 1.356 . S
N854 C846 1.356 . S
N854 H860 0.984 . S
N854 H861 0.984 . S
N855 C848 1.356 . S
N855 H858 0.984 . S
N855 H859 0.985 . S
H856 N851 0.984 1_554 S
H857 N851 0.985 . S
H858 N855 0.984 . S
H859 N855 0.985 . S
H860 N854 0.984 . S
H861 N854 0.984 . S
H862 N850 0.984 1_554 S
H863 N850 0.985 . S
C864 C865 1.363 . S
C864 C870 1.379 . S
C864 N872 1.356 . S
C865 C864 1.363 . S
C865 C871 1.363 . S
C866 C867 1.363 . S
C866 C871 1.379 . S
C866 N873 1.356 . S
C867 C866 1.363 . S
C867 C870 1.363 . S
N868 C870 1.356 . S
N868 H880 0.984 . S
N868 H881 0.985 . S
N869 C871 1.356 . S
N869 H874 0.984 . S
N869 H875 0.985 . S
C870 C864 1.379 . S
C870 C867 1.363 . S
C870 N868 1.356 . S
C871 C865 1.363 . S
C871 C866 1.379 . S
C871 N869 1.356 . S
N872 C864 1.356 . S
N872 H878 0.984 . S
N872 H879 0.984 . S
N873 C866 1.356 . S
N873 H876 0.984 . S
N873 H877 0.985 . S
H874 N869 0.984 . S
H875 N869 0.985 . S
H876 N873 0.984 . S
H877 N873 0.985 . S
H878 N872 0.984 . S
H879 N872 0.984 . S
H880 N868 0.984 . S
H881 N868 0.985 . S
C453 C442 1.625 . S
C451 C29 1.532 . S
C469 C115 1.546 . S
C471 C377 1.552 . S
C487 C153 1.546 . S
C489 C395 1.643 . S
C505 C239 1.541 . S
C507 C408 1.541 . S
C525 C416 1.587 . S
C523 C301 1.574 . S
C541 C339 1.736 . S
C543 C428 1.859 . S
C559 C91 1.550 . S
C561 C390 1.649 . S
C577 C177 1.545 . S
C579 C403 1.550 . S
C595 C215 1.529 . S
C597 C421 1.623 . S
C615 C427 1.865 . S
C613 C277 1.741 . S
C633 C447 1.576 . S
C631 C363 1.564 . S
C651 C382 1.546 . S
C649 C53 1.546 . S
C667 C35 1.690 . S
C669 C388 1.736 . S
C685 C109 1.500 . S
C687 C401 1.650 . S
C705 C415 1.609 . S
C703 C159 1.584 . S
C721 C233 1.689 . S
C723 C429 1.847 1_556 S
C741 C441 1.702 . S
C739 C295 1.507 . S
C759 C376 1.616 . S
C757 C345 1.589 . S
C777 C440 1.619 . S
C775 C97 1.589 . S
C793 C171 1.496 . S
C795 C375 1.645 . S
C813 C389 1.732 . S
C811 C221 1.687 . S
C829 C283 1.589 . S
C831 C402 1.616 . S
C847 C357 1.517 . S
C849 C414 1.710 . S
C865 C47 1.684 . S
C867 C434 1.843 . S
