# Generated by pormake.
# Topology ptr, (4,4)-cn, num edge types: 1
# Building blocks:
#     Node 0, Type 0, BuildingBlock: QUQFOY_clean_sbu_1, # of connection points: 4
#     Node 1, Type 0, BuildingBlock: QUQFOY_clean_sbu_1, # of connection points: 4
#     Node 2, Type 0, BuildingBlock: QUQFOY_clean_sbu_1, # of connection points: 4
#     Node 3, Type 0, BuildingBlock: QUQFOY_clean_sbu_1, # of connection points: 4
#     Node 4, Type 0, BuildingBlock: QUQFOY_clean_sbu_1, # of connection points: 4
#     Node 5, Type 0, BuildingBlock: QUQFOY_clean_sbu_1, # of connection points: 4
#     Node 6, Type 0, BuildingBlock: QUQFOY_clean_sbu_1, # of connection points: 4
#     Node 7, Type 0, BuildingBlock: QUQFOY_clean_sbu_1, # of connection points: 4
#     Node 8, Type 0, BuildingBlock: QUQFOY_clean_sbu_1, # of connection points: 4
#     Node 9, Type 0, BuildingBlock: QUQFOY_clean_sbu_1, # of connection points: 4
#     Node 10, Type 0, BuildingBlock: QUQFOY_clean_sbu_1, # of connection points: 4
#     Node 11, Type 0, BuildingBlock: QUQFOY_clean_sbu_1, # of connection points: 4
#     Node 12, Type 0, BuildingBlock: QUQFOY_clean_sbu_1, # of connection points: 4
#     Node 13, Type 0, BuildingBlock: QUQFOY_clean_sbu_1, # of connection points: 4
#     Node 14, Type 0, BuildingBlock: QUQFOY_clean_sbu_1, # of connection points: 4
#     Node 15, Type 0, BuildingBlock: QUQFOY_clean_sbu_1, # of connection points: 4
#     Node 16, Type 0, BuildingBlock: QUQFOY_clean_sbu_1, # of connection points: 4
#     Node 17, Type 0, BuildingBlock: QUQFOY_clean_sbu_1, # of connection points: 4
#     Node 18, Type 1, BuildingBlock: KUFVIS_clean_linker_0, # of connection points: 4
#     Node 19, Type 1, BuildingBlock: KUFVIS_clean_linker_0, # of connection points: 4
#     Node 20, Type 1, BuildingBlock: KUFVIS_clean_linker_0, # of connection points: 4
#     Node 21, Type 1, BuildingBlock: KUFVIS_clean_linker_0, # of connection points: 4
#     Node 22, Type 1, BuildingBlock: KUFVIS_clean_linker_0, # of connection points: 4
#     Node 23, Type 1, BuildingBlock: KUFVIS_clean_linker_0, # of connection points: 4
#     Node 24, Type 1, BuildingBlock: KUFVIS_clean_linker_0, # of connection points: 4
#     Node 25, Type 1, BuildingBlock: KUFVIS_clean_linker_0, # of connection points: 4
#     Node 26, Type 1, BuildingBlock: KUFVIS_clean_linker_0, # of connection points: 4
#     Node 27, Type 1, BuildingBlock: KUFVIS_clean_linker_0, # of connection points: 4
#     Node 28, Type 1, BuildingBlock: KUFVIS_clean_linker_0, # of connection points: 4
#     Node 29, Type 1, BuildingBlock: KUFVIS_clean_linker_0, # of connection points: 4
#     Node 30, Type 1, BuildingBlock: KUFVIS_clean_linker_0, # of connection points: 4
#     Node 31, Type 1, BuildingBlock: KUFVIS_clean_linker_0, # of connection points: 4
#     Node 32, Type 1, BuildingBlock: KUFVIS_clean_linker_0, # of connection points: 4
#     Node 33, Type 1, BuildingBlock: KUFVIS_clean_linker_0, # of connection points: 4
#     Node 34, Type 1, BuildingBlock: KUFVIS_clean_linker_0, # of connection points: 4
#     Node 35, Type 1, BuildingBlock: KUFVIS_clean_linker_0, # of connection points: 4
#     Edge 36, Type (0, 1), BuildingBlock: ZUJKAS_clean_linker_0, # of connection points: 2
#     Edge 37, Type (0, 1), BuildingBlock: ZUJKAS_clean_linker_0, # of connection points: 2
#     Edge 38, Type (0, 1), BuildingBlock: ZUJKAS_clean_linker_0, # of connection points: 2
#     Edge 39, Type (0, 1), BuildingBlock: ZUJKAS_clean_linker_0, # of connection points: 2
#     Edge 40, Type (0, 1), BuildingBlock: ZUJKAS_clean_linker_0, # of connection points: 2
#     Edge 41, Type (0, 1), BuildingBlock: ZUJKAS_clean_linker_0, # of connection points: 2
#     Edge 42, Type (0, 1), BuildingBlock: ZUJKAS_clean_linker_0, # of connection points: 2
#     Edge 43, Type (0, 1), BuildingBlock: ZUJKAS_clean_linker_0, # of connection points: 2
#     Edge 44, Type (0, 1), BuildingBlock: ZUJKAS_clean_linker_0, # of connection points: 2
#     Edge 45, Type (0, 1), BuildingBlock: ZUJKAS_clean_linker_0, # of connection points: 2
#     Edge 46, Type (0, 1), BuildingBlock: ZUJKAS_clean_linker_0, # of connection points: 2
#     Edge 47, Type (0, 1), BuildingBlock: ZUJKAS_clean_linker_0, # of connection points: 2
#     Edge 48, Type (0, 1), BuildingBlock: ZUJKAS_clean_linker_0, # of connection points: 2
#     Edge 49, Type (0, 1), BuildingBlock: ZUJKAS_clean_linker_0, # of connection points: 2
#     Edge 50, Type (0, 1), BuildingBlock: ZUJKAS_clean_linker_0, # of connection points: 2
#     Edge 51, Type (0, 1), BuildingBlock: ZUJKAS_clean_linker_0, # of connection points: 2
#     Edge 52, Type (0, 1), BuildingBlock: ZUJKAS_clean_linker_0, # of connection points: 2
#     Edge 53, Type (0, 1), BuildingBlock: ZUJKAS_clean_linker_0, # of connection points: 2
#     Edge 54, Type (0, 1), BuildingBlock: ZUJKAS_clean_linker_0, # of connection points: 2
#     Edge 55, Type (0, 1), BuildingBlock: ZUJKAS_clean_linker_0, # of connection points: 2
#     Edge 56, Type (0, 1), BuildingBlock: ZUJKAS_clean_linker_0, # of connection points: 2
#     Edge 57, Type (0, 1), BuildingBlock: ZUJKAS_clean_linker_0, # of connection points: 2
#     Edge 58, Type (0, 1), BuildingBlock: ZUJKAS_clean_linker_0, # of connection points: 2
#     Edge 59, Type (0, 1), BuildingBlock: ZUJKAS_clean_linker_0, # of connection points: 2
#     Edge 60, Type (0, 1), BuildingBlock: ZUJKAS_clean_linker_0, # of connection points: 2
#     Edge 61, Type (0, 1), BuildingBlock: ZUJKAS_clean_linker_0, # of connection points: 2
#     Edge 62, Type (0, 1), BuildingBlock: ZUJKAS_clean_linker_0, # of connection points: 2
#     Edge 63, Type (0, 1), BuildingBlock: ZUJKAS_clean_linker_0, # of connection points: 2
#     Edge 64, Type (0, 1), BuildingBlock: ZUJKAS_clean_linker_0, # of connection points: 2
#     Edge 65, Type (0, 1), BuildingBlock: ZUJKAS_clean_linker_0, # of connection points: 2
#     Edge 66, Type (0, 1), BuildingBlock: ZUJKAS_clean_linker_0, # of connection points: 2
#     Edge 67, Type (0, 1), BuildingBlock: ZUJKAS_clean_linker_0, # of connection points: 2
#     Edge 68, Type (0, 1), BuildingBlock: ZUJKAS_clean_linker_0, # of connection points: 2
#     Edge 69, Type (0, 1), BuildingBlock: ZUJKAS_clean_linker_0, # of connection points: 2
#     Edge 70, Type (0, 1), BuildingBlock: ZUJKAS_clean_linker_0, # of connection points: 2
#     Edge 71, Type (0, 1), BuildingBlock: ZUJKAS_clean_linker_0, # of connection points: 2
#     Edge 72, Type (0, 1), BuildingBlock: ZUJKAS_clean_linker_0, # of connection points: 2
#     Edge 73, Type (0, 1), BuildingBlock: ZUJKAS_clean_linker_0, # of connection points: 2
#     Edge 74, Type (0, 1), BuildingBlock: ZUJKAS_clean_linker_0, # of connection points: 2
#     Edge 75, Type (0, 1), BuildingBlock: ZUJKAS_clean_linker_0, # of connection points: 2
#     Edge 76, Type (0, 1), BuildingBlock: ZUJKAS_clean_linker_0, # of connection points: 2
#     Edge 77, Type (0, 1), BuildingBlock: ZUJKAS_clean_linker_0, # of connection points: 2
#     Edge 78, Type (0, 1), BuildingBlock: ZUJKAS_clean_linker_0, # of connection points: 2
#     Edge 79, Type (0, 1), BuildingBlock: ZUJKAS_clean_linker_0, # of connection points: 2
#     Edge 80, Type (0, 1), BuildingBlock: ZUJKAS_clean_linker_0, # of connection points: 2
#     Edge 81, Type (0, 1), BuildingBlock: ZUJKAS_clean_linker_0, # of connection points: 2
#     Edge 82, Type (0, 1), BuildingBlock: ZUJKAS_clean_linker_0, # of connection points: 2
#     Edge 83, Type (0, 1), BuildingBlock: ZUJKAS_clean_linker_0, # of connection points: 2
#     Edge 84, Type (0, 1), BuildingBlock: ZUJKAS_clean_linker_0, # of connection points: 2
#     Edge 85, Type (0, 1), BuildingBlock: ZUJKAS_clean_linker_0, # of connection points: 2
#     Edge 86, Type (0, 1), BuildingBlock: ZUJKAS_clean_linker_0, # of connection points: 2
#     Edge 87, Type (0, 1), BuildingBlock: ZUJKAS_clean_linker_0, # of connection points: 2
#     Edge 88, Type (0, 1), BuildingBlock: ZUJKAS_clean_linker_0, # of connection points: 2
#     Edge 89, Type (0, 1), BuildingBlock: ZUJKAS_clean_linker_0, # of connection points: 2
#     Edge 90, Type (0, 1), BuildingBlock: ZUJKAS_clean_linker_0, # of connection points: 2
#     Edge 91, Type (0, 1), BuildingBlock: ZUJKAS_clean_linker_0, # of connection points: 2
#     Edge 92, Type (0, 1), BuildingBlock: ZUJKAS_clean_linker_0, # of connection points: 2
#     Edge 93, Type (0, 1), BuildingBlock: ZUJKAS_clean_linker_0, # of connection points: 2
#     Edge 94, Type (0, 1), BuildingBlock: ZUJKAS_clean_linker_0, # of connection points: 2
#     Edge 95, Type (0, 1), BuildingBlock: ZUJKAS_clean_linker_0, # of connection points: 2
#     Edge 96, Type (0, 1), BuildingBlock: ZUJKAS_clean_linker_0, # of connection points: 2
#     Edge 97, Type (0, 1), BuildingBlock: ZUJKAS_clean_linker_0, # of connection points: 2
#     Edge 98, Type (0, 1), BuildingBlock: ZUJKAS_clean_linker_0, # of connection points: 2
#     Edge 99, Type (0, 1), BuildingBlock: ZUJKAS_clean_linker_0, # of connection points: 2
#     Edge 100, Type (0, 1), BuildingBlock: ZUJKAS_clean_linker_0, # of connection points: 2
#     Edge 101, Type (0, 1), BuildingBlock: ZUJKAS_clean_linker_0, # of connection points: 2
#     Edge 102, Type (0, 1), BuildingBlock: ZUJKAS_clean_linker_0, # of connection points: 2
#     Edge 103, Type (0, 1), BuildingBlock: ZUJKAS_clean_linker_0, # of connection points: 2
#     Edge 104, Type (0, 1), BuildingBlock: ZUJKAS_clean_linker_0, # of connection points: 2
#     Edge 105, Type (0, 1), BuildingBlock: ZUJKAS_clean_linker_0, # of connection points: 2
#     Edge 106, Type (0, 1), BuildingBlock: ZUJKAS_clean_linker_0, # of connection points: 2
#     Edge 107, Type (0, 1), BuildingBlock: ZUJKAS_clean_linker_0, # of connection points: 2
# Relax obj value: 0.020
# Max RMSD: 0.074
# Mean RMSD: 0.059
data_MOF--net-ptr--node1-QUQFOY_clean_sbu_1--node2-KUFVIS_clean_linker_0--edge1-ZUJKAS_clean_linker_0
_symmetry_space_group_name_H-M    P1
_symmetry_Int_Tables_number       1
_symmetry_cell_setting            triclinic
loop_
_symmetry_equiv_pos_as_xyz
'x, y, z'
_cell_length_a     103.38442
_cell_length_b     103.36383
_cell_length_c     64.710108
_cell_angle_alpha  90.049512
_cell_angle_beta   89.979882
_cell_angle_gamma 120.00581
loop_
_atom_site_label
_atom_site_type_symbol
_atom_site_fract_x
_atom_site_fract_y
_atom_site_fract_z
_atom_type_partial_charge
O0 O 0.02503 0.38935 0.03854 0.0
Cd1 Cd 0.03119 0.38176 0.0129 0.0
Cd2 Cd 0.99914 0.36694 0.00708 0.0
O3 O 1.00049 0.37775 0.03469 0.0
O4 O 0.05299 0.38943 0.01775 0.0
O5 O 0.03653 0.3654 0.01566 0.0
C6 C 0.0502 0.37582 0.01852 0.0
C7 C 0.97955 0.34217 0.00199 0.0
C8 C 1.01223 0.38669 0.04465 0.0
C9 C 0.01933 0.38966 0.97503 0.0
O10 O 1.00618 0.38052 0.98127 0.0
O11 O 0.03068 0.39132 0.98498 0.0
O12 O 0.97721 0.35329 0.00228 0.0
O13 O 0.99308 0.34502 0.00501 0.0
O14 O 0.63292 0.636 0.04311 0.0
Cd15 Cd 0.63917 0.65006 0.01778 0.0
Cd16 Cd 0.65545 0.63484 0.0093 0.0
O17 O 0.64572 0.6245 0.03702 0.0
O18 O 0.63144 0.66396 0.02418 0.0
O19 O 0.6554 0.67182 0.01989 0.0
C20 C 0.645 0.67491 0.02388 0.0
C21 C 0.6805 0.64155 0.00284 0.0
C22 C 0.63658 0.62634 0.04808 0.0
C23 C 0.63124 0.6312 0.97908 0.0
O24 O 0.64131 0.62812 0.98401 0.0
O25 O 0.62893 0.64003 0.99016 0.0
O26 O 0.6699 0.62783 0.0026 0.0
O27 O 0.67696 0.65161 0.00709 0.0
O28 O 0.39524 0.02221 0.98844 0.0
Cd29 Cd 0.38788 0.02878 0.0139 0.0
Cd30 Cd 0.37314 0.9969 0.02065 0.0
O31 O 0.38385 0.99775 0.99315 0.0
O32 O 0.39575 0.05055 0.0085 0.0
O33 O 0.37169 0.03433 0.01098 0.0
C34 C 0.3822 0.04791 0.00779 0.0
C35 C 0.34819 0.97777 0.02582 0.0
C36 C 0.39264 1.00933 0.9828 0.0
C37 C 0.3961 0.0175 0.05213 0.0
O38 O 0.38682 1.00424 0.04639 0.0
O39 O 0.39772 0.02867 0.04176 0.0
O40 O 0.35911 0.97512 0.02605 0.0
O41 O 0.35137 0.99136 0.0223 0.0
O42 O 1.00129 0.62865 0.98648 0.0
Cd43 Cd 0.99654 0.63743 0.01213 0.0
Cd44 Cd 0.02769 0.65251 0.01519 0.0
O45 O 0.02594 0.64171 0.98732 0.0
O46 O 0.97504 0.63155 0.00859 0.0
O47 O 0.99316 0.65506 0.00944 0.0
C48 C 0.9791 0.64551 0.00745 0.0
C49 C 0.04572 0.67796 0.01954 0.0
C50 C 1.01389 0.63181 0.97887 0.0
C51 C 1.00952 0.63014 0.04881 0.0
O52 O 0.0223 0.63921 0.04132 0.0
O53 O 0.99769 0.6283 0.04005 0.0
O54 O 0.04937 0.66773 0.01874 0.0
O55 O 0.03175 0.6738 0.01733 0.0
O56 O 0.39257 0.37886 0.98426 0.0
Cd57 Cd 0.38458 0.36594 0.01059 0.0
Cd58 Cd 0.36898 0.38148 0.01358 0.0
O59 O 0.37986 0.39079 0.98592 0.0
O60 O 0.39045 0.35029 0.00728 0.0
O61 O 0.36695 0.34489 0.00874 0.0
C62 C 0.37647 0.34036 0.00654 0.0
C63 C 0.34345 0.37355 0.01774 0.0
C64 C 0.38942 0.38837 0.97696 0.0
C65 C 0.39158 0.38651 0.04709 0.0
O66 O 0.38201 0.38959 0.03981 0.0
O67 O 0.394 0.37694 0.03817 0.0
O68 O 0.35344 0.3875 0.0169 0.0
O69 O 0.34788 0.36394 0.01561 0.0
O70 O 0.63336 0.99599 0.03785 0.0
Cd71 Cd 0.64171 0.99083 0.01205 0.0
Cd72 Cd 0.65606 0.02209 0.00749 0.0
O73 O 0.64508 0.02059 0.03505 0.0
O74 O 0.63538 0.96922 0.01588 0.0
O75 O 0.65904 0.98693 0.01476 0.0
C76 C 0.64926 0.97295 0.01689 0.0
C77 C 0.68141 0.04037 0.00307 0.0
C78 C 0.63592 1.00866 0.04447 0.0
C79 C 0.63365 1.00291 0.97471 0.0
O80 O 0.64269 0.01595 0.98143 0.0
O81 O 0.63212 0.99143 0.98419 0.0
O82 O 0.67102 0.0438 0.00339 0.0
O83 O 0.67747 0.02649 0.00575 0.0
O84 O 0.6884 0.7232 0.37574 0.0
Cd85 Cd 0.69618 0.71638 0.35094 0.0
Cd86 Cd 0.66476 0.70104 0.34173 0.0
O87 O 0.66416 0.71111 0.36917 0.0
O88 O 0.71766 0.72378 0.35802 0.0
O89 O 0.70132 0.69989 0.35366 0.0
C90 C 0.71483 0.71015 0.35791 0.0
C91 C 0.64623 0.67601 0.33546 0.0
C92 C 0.67517 0.72007 0.38033 0.0
C93 C 0.6862 0.72468 0.31161 0.0
O94 O 0.67282 0.71504 0.31632 0.0
O95 O 0.69703 0.72655 0.32302 0.0
O96 O 0.64331 0.68675 0.3348 0.0
O97 O 0.65974 0.67942 0.33997 0.0
O98 O 0.30011 0.96823 0.37524 0.0
Cd99 Cd 0.30653 0.98234 0.34992 0.0
Cd100 Cd 0.32227 0.96639 0.34128 0.0
O101 O 0.31247 0.95629 0.36909 0.0
O102 O 0.29905 0.99643 0.35658 0.0
O103 O 0.32294 1.00407 0.352 0.0
C104 C 0.31265 1.00729 0.35621 0.0
C105 C 0.34713 0.9723 0.33484 0.0
C106 C 0.30351 0.95838 0.38019 0.0
C107 C 0.29823 0.96339 0.31114 0.0
O108 O 0.30804 0.95993 0.31607 0.0
O109 O 0.29626 0.97245 0.32221 0.0
O110 O 0.33621 0.95872 0.33473 0.0
O111 O 0.34401 0.98268 0.33886 0.0
O112 O 0.06059 0.3511 0.31661 0.0
Cd113 Cd 0.05369 0.35822 0.34208 0.0
Cd114 Cd 0.038 0.3272 0.35013 0.0
O115 O 0.04782 0.32678 0.32239 0.0
O116 O 0.06037 0.37972 0.33641 0.0
O117 O 0.03664 0.36256 0.33988 0.0
C118 C 0.04656 0.37633 0.33644 0.0
C119 C 1.01275 0.3092 0.356 0.0
C120 C 0.05703 0.33782 0.31151 0.0
C121 C 0.06195 0.34738 0.3806 0.0
O122 O 0.0521 0.33417 0.37548 0.0
O123 O 0.06393 0.3585 0.36977 0.0
O124 O 0.0231 0.30573 0.35586 0.0
O125 O 0.01666 0.32299 0.35258 0.0
O126 O 0.67216 0.96485 0.31713 0.0
Cd127 Cd 0.6671 0.97329 0.34293 0.0
Cd128 Cd 0.69873 0.98795 0.34693 0.0
O129 O 0.69678 0.97657 0.31965 0.0
O130 O 0.64548 0.96691 0.3391 0.0
O131 O 0.66315 0.99059 0.34039 0.0
C132 C 0.64918 0.98079 0.33818 0.0
C133 C 0.71807 0.01289 0.35097 0.0
C134 C 0.68478 0.96736 0.31042 0.0
C135 C 0.67974 0.966 0.38036 0.0
O136 O 0.69267 0.97506 0.37335 0.0
O137 O 0.66809 0.96405 0.37093 0.0
O138 O 0.72069 1.00195 0.3506 0.0
O139 O 0.7044 0.00975 0.34846 0.0
O140 O 0.06014 0.71187 0.31658 0.0
Cd141 Cd 0.05266 0.69918 0.34314 0.0
Cd142 Cd 0.03631 0.71458 0.34556 0.0
O143 O 0.04701 0.7234 0.31763 0.0
O144 O 0.06033 0.6849 0.33999 0.0
O145 O 0.0363 0.67744 0.34179 0.0
C146 C 0.04671 0.6741 0.33952 0.0
C147 C 1.01094 0.70743 0.34994 0.0
C148 C 0.05671 0.72108 0.30891 0.0
C149 C 0.05927 0.7203 0.37898 0.0
O150 O 0.04958 0.72314 0.37149 0.0
O151 O 0.06182 0.71069 0.37046 0.0
O152 O 0.0212 0.72124 0.34829 0.0
O153 O 0.01499 0.69749 0.34855 0.0
O154 O 0.30199 0.33057 0.3736 0.0
Cd155 Cd 0.31033 0.32605 0.34726 0.0
Cd156 Cd 0.32595 0.35726 0.34517 0.0
O157 O 0.31476 0.35524 0.37271 0.0
O158 O 0.30439 0.30446 0.34983 0.0
O159 O 0.32792 0.32257 0.34923 0.0
C160 C 0.31836 0.30848 0.35083 0.0
C161 C 0.35146 0.37514 0.34152 0.0
C162 C 0.30506 0.34314 0.38123 0.0
C163 C 0.30364 0.34015 0.31115 0.0
O164 O 0.31313 0.3527 0.31881 0.0
O165 O 0.30118 0.32803 0.3197 0.0
O166 O 0.34135 0.37893 0.3425 0.0
O167 O 0.34716 0.3611 0.34324 0.0
O168 O 0.35388 0.05545 0.71125 0.0
Cd169 Cd 0.36168 0.04912 0.68588 0.0
Cd170 Cd 0.33052 0.03344 0.67627 0.0
O171 O 0.32986 0.04393 0.70319 0.0
O172 O 0.38311 0.05594 0.69239 0.0
O173 O 0.36625 0.03221 0.6879 0.0
C174 C 0.3799 0.04218 0.69197 0.0
C175 C 0.31148 1.00857 0.67025 0.0
C176 C 0.34059 0.05251 0.71503 0.0
C177 C 0.35161 0.05739 0.64649 0.0
O178 O 0.33838 0.04715 0.65073 0.0
O179 O 0.36244 0.05979 0.65829 0.0
O180 O 0.30894 0.01955 0.66961 0.0
O181 O 0.3249 0.01162 0.67463 0.0
O182 O 0.9684 0.30291 0.71481 0.0
Cd183 Cd 0.97428 0.31647 0.68896 0.0
Cd184 Cd 0.99171 0.30205 0.68167 0.0
O185 O 0.98199 0.29213 0.70961 0.0
O186 O 0.96634 0.33032 0.69466 0.0
O187 O 0.99033 0.33835 0.69025 0.0
C188 C 0.97985 0.34137 0.69407 0.0
C189 C 0.01663 0.30818 0.6752 0.0
C190 C 0.97251 0.29369 0.7203 0.0
C191 C 0.96721 0.29701 0.65097 0.0
O192 O 0.97767 0.29461 0.65634 0.0
O193 O 0.9643 0.30563 0.66157 0.0
O194 O 1.00588 0.29454 0.67596 0.0
O195 O 1.01334 0.31852 0.67855 0.0
O196 O 0.72903 0.68639 0.65088 0.0
Cd197 Cd 0.72162 0.69343 0.67589 0.0
Cd198 Cd 0.70564 0.66137 0.68346 0.0
O199 O 0.71604 0.66193 0.65579 0.0
O200 O 0.72959 0.71536 0.67143 0.0
O201 O 0.70547 0.69889 0.67164 0.0
C202 C 0.71604 0.71259 0.66973 0.0
C203 C 0.68082 0.64192 0.68894 0.0
C204 C 0.72548 0.67318 0.6454 0.0
C205 C 0.72881 0.68181 0.71482 0.0
O206 O 0.71937 0.66858 0.70918 0.0
O207 O 0.73075 0.69299 0.70419 0.0
O208 O 0.6919 0.63952 0.68886 0.0
O209 O 0.68374 0.65544 0.68559 0.0
O210 O 0.33672 0.29712 0.64887 0.0
Cd211 Cd 0.33215 0.30543 0.67521 0.0
Cd212 Cd 0.36345 0.32092 0.67761 0.0
O213 O 0.36138 0.3098 0.65 0.0
O214 O 0.31052 0.29926 0.67246 0.0
O215 O 0.32842 0.32287 0.6733 0.0
C216 C 0.31437 0.31319 0.67156 0.0
C217 C 0.38158 0.34635 0.68132 0.0
C218 C 0.3493 0.30017 0.64134 0.0
C219 C 0.3461 0.29861 0.71147 0.0
O220 O 0.35872 0.30802 0.70392 0.0
O221 O 0.33406 0.29628 0.70281 0.0
O222 O 0.3852 0.33612 0.68004 0.0
O223 O 0.36757 0.34223 0.67994 0.0
O224 O 0.72629 0.04809 0.64812 0.0
Cd225 Cd 0.71974 0.0346 0.6741 0.0
Cd226 Cd 0.70269 0.04902 0.68034 0.0
O227 O 0.71278 0.05902 0.65263 0.0
O228 O 0.72647 0.01969 0.66922 0.0
O229 O 0.70275 0.01315 0.67276 0.0
C230 C 0.71267 1.00925 0.66953 0.0
C231 C 0.67753 0.04226 0.68585 0.0
C232 C 0.72234 0.05737 0.6423 0.0
C233 C 0.72668 0.05414 0.71187 0.0
O234 O 0.71632 0.05655 0.70608 0.0
O235 O 0.72964 0.04543 0.70158 0.0
O236 O 0.68807 0.056 0.68565 0.0
O237 O 0.68119 0.03218 0.68247 0.0
O238 O 0.9684 0.66476 0.70751 0.0
Cd239 Cd 0.97674 0.66007 0.68131 0.0
Cd240 Cd 0.99212 0.69124 0.67861 0.0
O241 O 0.98096 0.68942 0.70612 0.0
O242 O 0.97114 0.63859 0.68441 0.0
O243 O 0.99455 0.65696 0.68337 0.0
C244 C 0.98516 0.64284 0.68533 0.0
C245 C 0.01761 0.70916 0.67471 0.0
C246 C 0.97137 0.67736 0.71488 0.0
C247 C 0.96977 0.67362 0.64484 0.0
O248 O 0.97922 0.68628 0.65225 0.0
O249 O 0.96742 0.66163 0.65366 0.0
O250 O 1.00745 0.7129 0.6755 0.0
O251 O 1.01337 0.69516 0.67677 0.0
H252 H 0.2291 0.34957 0.13398 0.0
H253 H 0.19061 0.34207 0.09965 0.0
H254 H 0.19121 0.34514 0.16669 0.0
H255 H 0.16721 0.33201 0.16433 0.0
H256 H 0.13242 0.335 0.13313 0.0
H257 H 0.17381 0.34938 0.10174 0.0
C258 C 0.21791 0.34802 0.13379 0.0
C259 C 0.21071 0.34716 0.1524 0.0
C260 C 0.21078 0.34641 0.11488 0.0
C261 C 0.19606 0.34382 0.11448 0.0
C262 C 0.18854 0.34333 0.13311 0.0
C263 C 0.19621 0.34508 0.15205 0.0
C264 C 0.17282 0.34088 0.13294 0.0
C265 C 0.16349 0.33514 0.15061 0.0
C266 C 0.14901 0.33316 0.1508 0.0
C267 C 0.14348 0.33624 0.13293 0.0
C268 C 0.15224 0.34179 0.11516 0.0
C269 C 0.167 0.34446 0.11532 0.0
H270 H 0.67787 0.88515 0.1335 0.0
H271 H 0.68272 0.85272 0.09828 0.0
H272 H 0.67943 0.84976 0.16523 0.0
H273 H 0.69309 0.8393 0.16225 0.0
H274 H 0.68851 0.80074 0.13128 0.0
H275 H 0.67419 0.82806 0.1005 0.0
C276 C 0.67876 0.87513 0.13299 0.0
C277 C 0.67878 0.86815 0.15142 0.0
C278 C 0.68 0.86953 0.1139 0.0
C279 C 0.68136 0.85663 0.11319 0.0
C280 C 0.68147 0.84928 0.13168 0.0
C281 C 0.67996 0.85521 0.15074 0.0
C282 C 0.68346 0.83575 0.13132 0.0
C283 C 0.68949 0.83223 0.1487 0.0
C284 C 0.69118 0.81957 0.14883 0.0
C285 C 0.68749 0.81069 0.13113 0.0
C286 C 0.68164 0.81384 0.11362 0.0
C287 C 0.6793 0.82615 0.11386 0.0
H288 H 0.22283 0.8898 0.12923 0.0
H289 H 0.19527 0.84872 0.09733 0.0
H290 H 0.18426 0.85548 0.15976 0.0
H291 H 0.17321 0.83146 0.16206 0.0
H292 H 0.13884 0.79424 0.12933 0.0
H293 H 0.17088 0.83223 0.09503 0.0
C294 C 0.21287 0.87883 0.12894 0.0
C295 C 0.204 0.87342 0.14662 0.0
C296 C 0.20962 0.87009 0.11117 0.0
C297 C 0.19721 0.8555 0.11098 0.0
C298 C 0.18764 0.84979 0.12845 0.0
C299 C 0.19128 0.8591 0.14617 0.0
C300 C 0.17412 0.83421 0.1285 0.0
C301 C 0.16805 0.82658 0.14741 0.0
C302 C 0.1553 0.81229 0.14775 0.0
C303 C 0.14875 0.80526 0.12914 0.0
C304 C 0.15444 0.81231 0.11023 0.0
C305 C 0.16698 0.8268 0.10983 0.0
H306 H 0.34241 0.13029 0.89434 0.0
H307 H 0.35443 0.17131 0.92522 0.0
H308 H 0.33551 0.163 0.86352 0.0
H309 H 0.34904 0.18729 0.86029 0.0
H310 H 0.35101 0.22447 0.89216 0.0
H311 H 0.3453 0.18686 0.92719 0.0
C312 C 0.34273 0.14094 0.89436 0.0
C313 C 0.33855 0.1457 0.87664 0.0
C314 C 0.34799 0.1499 0.91198 0.0
C315 C 0.34966 0.16427 0.91177 0.0
C316 C 0.34527 0.16941 0.89426 0.0
C317 C 0.33948 0.15976 0.8769 0.0
C318 C 0.3469 0.18478 0.89383 0.0
C319 C 0.34851 0.19224 0.87477 0.0
C320 C 0.3499 0.20646 0.87413 0.0
C321 C 0.35 0.2135 0.89259 0.0
C322 C 0.34852 0.20656 0.91161 0.0
C323 C 0.34686 0.19219 0.9123 0.0
H324 H 0.79828 0.13452 0.8923 0.0
H325 H 0.83579 0.16513 0.92875 0.0
H326 H 0.83715 0.16841 0.86177 0.0
H327 H 0.86105 0.17829 0.86569 0.0
H328 H 0.89508 0.21625 0.89764 0.0
H329 H 0.85271 0.18965 0.92702 0.0
C330 C 0.80945 0.14416 0.89312 0.0
C331 C 0.8172 0.15074 0.87491 0.0
C332 C 0.81601 0.14944 0.91243 0.0
C333 C 0.83074 0.16155 0.91365 0.0
C334 C 0.83882 0.16875 0.89543 0.0
C335 C 0.83169 0.16313 0.8761 0.0
C336 C 0.85459 0.1819 0.89636 0.0
C337 C 0.86443 0.18527 0.87932 0.0
C338 C 0.87894 0.19771 0.87963 0.0
C339 C 0.88399 0.20647 0.89745 0.0
C340 C 0.87472 0.20348 0.91461 0.0
C341 C 0.85993 0.19141 0.91394 0.0
H342 H 0.80542 0.6826 0.89407 0.0
H343 H 0.83259 0.66819 0.9249 0.0
H344 H 0.84341 0.68615 0.86261 0.0
H345 H 0.85419 0.67283 0.85993 0.0
H346 H 0.88821 0.66916 0.89234 0.0
H347 H 0.85696 0.67617 0.92692 0.0
C348 C 0.81525 0.68136 0.89407 0.0
C349 C 0.82394 0.68471 0.87623 0.0
C350 C 0.81848 0.67568 0.91165 0.0
C351 C 0.83067 0.67318 0.91142 0.0
C352 C 0.84011 0.67699 0.89381 0.0
C353 C 0.8365 0.68283 0.87629 0.0
C354 C 0.8535 0.67475 0.8935 0.0
C355 C 0.85938 0.67302 0.87451 0.0
C356 C 0.87193 0.67115 0.87405 0.0
C357 C 0.87846 0.67053 0.89261 0.0
C358 C 0.87297 0.67213 0.91156 0.0
C359 C 0.86068 0.67445 0.91207 0.0
H360 H 0.89483 0.68001 0.46645 0.0
H361 H 0.85791 0.67632 0.43169 0.0
H362 H 0.85847 0.6793 0.49873 0.0
H363 H 0.83438 0.66701 0.49617 0.0
H364 H 0.80112 0.67273 0.4651 0.0
H365 H 0.84205 0.68486 0.43376 0.0
C366 C 0.88403 0.67938 0.46609 0.0
C367 C 0.87718 0.67945 0.48462 0.0
C368 C 0.87723 0.67844 0.44709 0.0
C369 C 0.86314 0.67745 0.44656 0.0
C370 C 0.85581 0.67747 0.46516 0.0
C371 C 0.86322 0.67865 0.48415 0.0
C372 C 0.84052 0.6761 0.46494 0.0
C373 C 0.83107 0.67067 0.48255 0.0
C374 C 0.81696 0.66959 0.48277 0.0
C375 C 0.81193 0.67338 0.46501 0.0
C376 C 0.82081 0.67861 0.44735 0.0
C377 C 0.83517 0.68024 0.44736 0.0
H378 H 0.34382 0.21829 0.46319 0.0
H379 H 0.34742 0.1846 0.42952 0.0
H380 H 0.3433 0.18244 0.49651 0.0
H381 H 0.35364 0.1689 0.49519 0.0
H382 H 0.34449 0.12832 0.4654 0.0
H383 H 0.33857 0.16039 0.4313 0.0
C384 C 0.34426 0.20801 0.46318 0.0
C385 C 0.34385 0.20114 0.48188 0.0
C386 C 0.34534 0.20197 0.44442 0.0
C387 C 0.3462 0.18879 0.44426 0.0
C388 C 0.34562 0.18136 0.46303 0.0
C389 C 0.34436 0.18781 0.4818 0.0
C390 C 0.34601 0.16688 0.46321 0.0
C391 C 0.34998 0.16203 0.48146 0.0
C392 C 0.34889 0.14794 0.48249 0.0
C393 C 0.34499 0.13906 0.46479 0.0
C394 C 0.34171 0.14372 0.44631 0.0
C395 C 0.34191 0.15743 0.44554 0.0
H396 H 0.89418 0.22001 0.46974 0.0
H397 H 0.85767 0.18812 0.43293 0.0
H398 H 0.85672 0.18402 0.49981 0.0
H399 H 0.83274 0.1732 0.49628 0.0
H400 H 0.79937 0.13534 0.46343 0.0
H401 H 0.84129 0.1637 0.43395 0.0
C402 C 0.88329 0.20999 0.46876 0.0
C403 C 0.87594 0.20269 0.48686 0.0
C404 C 0.87684 0.20467 0.44939 0.0
C405 C 0.86262 0.19178 0.44806 0.0
C406 C 0.85479 0.18411 0.4662 0.0
C407 C 0.86186 0.18974 0.48556 0.0
C408 C 0.83931 0.17053 0.46518 0.0
C409 C 0.82951 0.16648 0.48239 0.0
C410 C 0.81521 0.15374 0.48192 0.0
C411 C 0.8103 0.14534 0.46377 0.0
C412 C 0.8195 0.14904 0.44639 0.0
C413 C 0.83412 0.16139 0.44724 0.0
H414 H 0.01624 0.46508 0.22449 0.0
H415 H 0.01519 0.49924 0.26054 0.0
H416 H 0.01844 0.50245 0.19349 0.0
H417 H 1.00993 0.51731 0.1956 0.0
H418 H 0.0198 0.55719 0.22785 0.0
H419 H 0.02315 0.523 0.26031 0.0
C420 C 0.01625 0.47558 0.22525 0.0
C421 C 0.01694 0.48303 0.207 0.0
C422 C 0.01583 0.48149 0.24447 0.0
C423 C 0.01585 0.49513 0.24546 0.0
C424 C 0.01647 0.50304 0.22713 0.0
C425 C 0.01719 0.49672 0.20794 0.0
C426 C 0.01673 0.51787 0.22779 0.0
C427 C 1.01351 0.52364 0.20978 0.0
C428 C 0.01518 0.53798 0.20959 0.0
C429 C 0.0189 0.54626 0.22783 0.0
C430 C 0.02126 0.54064 0.24613 0.0
C431 C 0.02053 0.52667 0.2461 0.0
H432 H 0.46556 0.46767 0.22699 0.0
H433 H 0.50396 0.49867 0.26163 0.0
H434 H 0.50342 0.50156 0.19468 0.0
H435 H 0.52751 0.5119 0.1974 0.0
H436 H 0.56203 0.5501 0.22845 0.0
H437 H 0.52043 0.52319 0.25946 0.0
C438 C 0.47672 0.47737 0.22729 0.0
C439 C 0.48391 0.48388 0.20874 0.0
C440 C 0.48382 0.48277 0.24626 0.0
C441 C 0.4985 0.49498 0.24679 0.0
C442 C 0.50602 0.50215 0.22823 0.0
C443 C 0.49839 0.49636 0.20924 0.0
C444 C 0.5217 0.51544 0.22852 0.0
C445 C 0.53115 0.5189 0.21101 0.0
C446 C 0.54559 0.53144 0.21083 0.0
C447 C 0.55096 0.54027 0.22856 0.0
C448 C 0.54204 0.5372 0.24611 0.0
C449 C 0.52735 0.525 0.24601 0.0
H450 H 0.47395 0.01708 0.22832 0.0
H451 H 0.50024 1.00112 0.25813 0.0
H452 H 0.51198 0.02079 0.19688 0.0
H453 H 0.52166 1.00642 0.1933 0.0
H454 H 0.55558 1.00191 0.22465 0.0
H455 H 0.52497 1.00933 0.26023 0.0
C456 C 0.48371 0.01574 0.22832 0.0
C457 C 0.49257 0.01943 0.21061 0.0
C458 C 0.48654 1.00939 0.24554 0.0
C459 C 0.49857 1.00662 0.24503 0.0
C460 C 0.50819 0.01079 0.22757 0.0
C461 C 0.50495 0.01727 0.21045 0.0
C462 C 0.52132 1.00818 0.2269 0.0
C463 C 0.52695 1.00642 0.20771 0.0
C464 C 0.53935 1.0043 0.20683 0.0
C465 C 0.54593 1.00342 0.22521 0.0
C466 C 0.54066 1.00503 0.24436 0.0
C467 C 0.52854 1.00762 0.24526 0.0
H468 H 0.55532 1.00353 0.79597 0.0
H469 H 0.52644 0.01649 0.76679 0.0
H470 H 0.5179 0.9994 0.82965 0.0
H471 H 0.50662 0.01204 0.83314 0.0
H472 H 0.47063 0.01365 0.8034 0.0
H473 H 0.50224 1.00886 0.76625 0.0
C474 C 0.54534 1.0045 0.79658 0.0
C475 C 0.53718 1.00122 0.81492 0.0
C476 C 0.54133 0.0097 0.77922 0.0
C477 C 0.52893 0.01186 0.78017 0.0
C478 C 0.52005 1.00816 0.79833 0.0
C479 C 0.52441 1.00272 0.81559 0.0
C480 C 0.50643 0.01002 0.79951 0.0
C481 C 0.50088 0.01148 0.81893 0.0
C482 C 0.48796 0.01265 0.82035 0.0
C483 C 0.48062 0.01274 0.80232 0.0
C484 C 0.48585 0.01159 0.78291 0.0
C485 C 0.49868 0.01017 0.78143 0.0
H486 H 0.01807 0.55643 0.79905 0.0
H487 H 0.01541 0.52016 0.76366 0.0
H488 H 1.01348 0.51816 0.83075 0.0
H489 H 0.02451 0.50507 0.82754 0.0
H490 H 0.01575 0.46509 0.79629 0.0
H491 H 1.00544 0.49553 0.76576 0.0
C492 C 0.01721 0.54553 0.7985 0.0
C493 C 0.01635 0.53816 0.81692 0.0
C494 C 0.01638 0.53888 0.77939 0.0
C495 C 0.01538 0.52478 0.77864 0.0
C496 C 0.01481 0.51709 0.79713 0.0
C497 C 0.01469 0.52383 0.81623 0.0
C498 C 0.01486 0.50246 0.79673 0.0
C499 C 0.02018 0.49803 0.81403 0.0
C500 C 0.02042 0.48456 0.81398 0.0
C501 C 0.01571 0.47557 0.79637 0.0
C502 C 1.01054 0.47958 0.779 0.0
C503 C 1.0099 0.49288 0.77918 0.0
H504 H 0.55902 0.55379 0.79803 0.0
H505 H 0.52744 0.51552 0.76377 0.0
H506 H 0.51917 0.52149 0.82808 0.0
H507 H 0.50535 0.49785 0.82914 0.0
H508 H 0.46912 0.46292 0.79593 0.0
H509 H 0.50351 0.49953 0.76209 0.0
C510 C 0.54839 0.54343 0.79734 0.0
C511 C 0.53976 0.53805 0.81517 0.0
C512 C 0.54374 0.5356 0.77873 0.0
C513 C 0.53034 0.52174 0.77809 0.0
C514 C 0.52102 0.51612 0.79586 0.0
C515 C 0.52587 0.52486 0.81421 0.0
C516 C 0.50657 0.5012 0.79563 0.0
C517 C 0.49998 0.4936 0.81441 0.0
C518 C 0.48647 0.47995 0.81453 0.0
C519 C 0.47951 0.47353 0.79584 0.0
C520 C 0.48573 0.48044 0.77703 0.0
C521 C 0.49917 0.49427 0.77686 0.0
H522 H 0.6863 0.8025 0.55274 0.0
H523 H 0.69353 0.84008 0.58957 0.0
H524 H 0.67215 0.8318 0.52929 0.0
H525 H 0.68122 0.85539 0.52791 0.0
H526 H 0.6796 0.889 0.56418 0.0
H527 H 0.68408 0.8548 0.5949 0.0
C528 C 0.68538 0.81243 0.55485 0.0
C529 C 0.6793 0.81676 0.53897 0.0
C530 C 0.69028 0.82059 0.57326 0.0
C531 C 0.68911 0.83356 0.57563 0.0
C532 C 0.68287 0.83825 0.55968 0.0
C533 C 0.67752 0.82922 0.54164 0.0
C534 C 0.68228 0.85261 0.56124 0.0
C535 C 0.68103 0.85965 0.54308 0.0
C536 C 0.67948 0.87237 0.54411 0.0
C537 C 0.68018 0.87881 0.56333 0.0
C538 C 0.68221 0.87275 0.58146 0.0
C539 C 0.68303 0.85954 0.58056 0.0
H540 H 0.1321 0.80128 0.55944 0.0
H541 H 0.17041 0.83195 0.59449 0.0
H542 H 0.17034 0.83498 0.52755 0.0
H543 H 0.19433 0.84497 0.53044 0.0
H544 H 0.22901 0.88293 0.56163 0.0
H545 H 0.1872 0.85638 0.59239 0.0
C546 C 0.14329 0.81092 0.55985 0.0
C547 C 0.15065 0.81739 0.54137 0.0
C548 C 0.15028 0.81626 0.5789 0.0
C549 C 0.16504 0.82833 0.57959 0.0
C550 C 0.17272 0.83545 0.56111 0.0
C551 C 0.16518 0.82977 0.54205 0.0
C552 C 0.18849 0.84859 0.56151 0.0
C553 C 0.19799 0.85195 0.54407 0.0
C554 C 0.2125 0.86439 0.54396 0.0
C555 C 0.21791 0.87314 0.56175 0.0
C556 C 0.20896 0.87015 0.57928 0.0
C557 C 0.19417 0.85811 0.57902 0.0
H558 H 0.13984 0.34993 0.56011 0.0
H559 H 0.16699 0.33556 0.59115 0.0
H560 H 0.17745 0.35279 0.52848 0.0
H561 H 0.18814 0.33945 0.52601 0.0
H562 H 0.22187 0.33523 0.55831 0.0
H563 H 0.19124 0.34314 0.59296 0.0
C564 C 0.14966 0.34868 0.56019 0.0
C565 C 0.15817 0.35169 0.54221 0.0
C566 C 0.15295 0.34314 0.57789 0.0
C567 C 0.16504 0.34048 0.57761 0.0
C568 C 0.17435 0.34402 0.5599 0.0
C569 C 0.17067 0.34971 0.54228 0.0
C570 C 0.18761 0.34157 0.55957 0.0
C571 C 0.19333 0.33962 0.54058 0.0
C572 C 0.20573 0.3375 0.54008 0.0
C573 C 0.21224 0.3368 0.55862 0.0
C574 C 0.20692 0.33863 0.57758 0.0
C575 C 0.19481 0.34124 0.57812 0.0
H576 H 0.03391 0.40316 0.07302 0.0
H577 H 0.03349 0.4198 0.09948 0.0
H578 H 0.98846 0.40728 0.08202 0.0
H579 H 0.98863 0.39026 0.0559 0.0
H580 H 0.03067 0.44397 0.09332 0.0
H581 H 0.98455 0.40406 0.14389 0.0
H582 H 0.9929 0.39801 0.12447 0.0
H583 H 0.97926 0.40316 0.1173 0.0
C584 C 0.02381 0.40372 0.07504 0.0
C585 C 1.01128 0.39532 0.06236 0.0
C586 C 0.02361 0.4133 0.09014 0.0
C587 C 1.01091 0.41474 0.09288 0.0
C588 C 0.99827 0.40614 0.08054 0.0
H589 H 0.99728 0.47484 0.17482 0.0
H590 H 0.99563 0.45934 0.14489 0.0
C591 C 0.9984 0.39642 0.06555 0.0
C592 C 1.01132 0.42587 0.10786 0.0
H593 H 0.99432 0.42983 0.15079 0.0
C594 C 0.02271 0.44085 0.10587 0.0
C595 C 1.00088 0.42185 0.1242 0.0
C596 C 0.98879 0.40588 0.12776 0.0
C597 C 0.02404 0.45185 0.11986 0.0
C598 C 1.01373 0.44778 0.13628 0.0
C599 C 1.00213 0.43291 0.13804 0.0
C600 C 0.01553 0.4585 0.1528 0.0
C601 C 0.0365 0.46774 0.1171 0.0
C602 C 0.02736 0.4633 0.16688 0.0
C603 C 0.02826 0.47201 0.18391 0.0
C604 C 0.01738 0.47617 0.1871 0.0
C605 C 1.00589 0.47193 0.17251 0.0
C606 C 1.00489 0.46302 0.15555 0.0
H607 H 0.04141 0.46972 0.10134 0.0
H608 H 0.03243 0.4757 0.11998 0.0
H609 H 0.04548 0.47015 0.12845 0.0
H610 H 0.03558 0.45979 0.16514 0.0
H611 H 0.03717 0.47507 0.19503 0.0
H612 H 0.63922 0.6025 0.06126 0.0
H613 H 0.62476 0.58446 0.08834 0.0
H614 H 0.60208 0.60894 0.10181 0.0
H615 H 0.61655 0.6271 0.07503 0.0
H616 H 0.61106 0.60019 0.13699 0.0
H617 H 0.5804 0.55248 0.08306 0.0
H618 H 0.60042 0.56167 0.08139 0.0
H619 H 0.59095 0.5716 0.07432 0.0
C620 C 0.63126 0.60414 0.0701 0.0
C621 C 0.62902 0.61624 0.06585 0.0
C622 C 0.6229 0.59373 0.08545 0.0
C623 C 0.61212 0.59518 0.0968 0.0
C624 C 0.61025 0.60753 0.09313 0.0
H625 H 0.53718 0.53512 0.17227 0.0
H626 H 0.5538 0.54921 0.14359 0.0
C627 C 0.61857 0.61792 0.07781 0.0
C628 C 0.60271 0.58391 0.11253 0.0
H629 H 0.57571 0.54731 0.11876 0.0
C630 C 0.60339 0.58861 0.13303 0.0
C631 C 0.59256 0.56884 0.10726 0.0
C632 C 0.59088 0.56331 0.08529 0.0
C633 C 0.59419 0.57871 0.14842 0.0
C634 C 0.58421 0.56359 0.14324 0.0
C635 C 0.5835 0.55886 0.12273 0.0
C636 C 0.57396 0.55281 0.15886 0.0
C637 C 0.59493 0.58464 0.16998 0.0
C638 C 0.57968 0.54948 0.17644 0.0
C639 C 0.57023 0.54144 0.19278 0.0
C640 C 0.55485 0.53648 0.19177 0.0
C641 C 0.54896 0.53871 0.17342 0.0
C642 C 0.55845 0.54684 0.15709 0.0
H643 H 0.60058 0.59704 0.17026 0.0
H644 H 0.58357 0.58007 0.17662 0.0
H645 H 0.60134 0.58118 0.18006 0.0
H646 H 0.59157 0.55371 0.17793 0.0
H647 H 0.57504 0.53974 0.20667 0.0
H648 H 0.41963 0.04388 0.06617 0.0
H649 H 0.43796 0.04716 0.09262 0.0
H650 H 0.41413 0.99973 0.10416 0.0
H651 H 0.39569 0.99633 0.07796 0.0
H652 H 0.42324 0.01703 0.14014 0.0
H653 H 0.4701 0.03512 0.08443 0.0
H654 H 0.46068 0.04575 0.08388 0.0
H655 H 0.45084 0.02644 0.07634 0.0
C656 C 0.41818 0.03416 0.07448 0.0
C657 C 0.4062 0.01982 0.06982 0.0
C658 C 0.42876 0.03604 0.08947 0.0
C659 C 0.42758 0.02365 0.10004 0.0
C660 C 0.41532 0.00943 0.09605 0.0
H661 H 0.48847 1.00773 0.17174 0.0
H662 H 0.47413 0.01068 0.14377 0.0
C663 C 0.40476 1.00752 0.08108 0.0
C664 C 0.43912 0.02536 0.1152 0.0
H665 H 0.47584 0.03506 0.11982 0.0
C666 C 0.43476 0.02105 0.13573 0.0
C667 C 0.4541 0.03042 0.10932 0.0
C668 C 0.45925 0.03459 0.08727 0.0
C669 C 0.44495 0.02164 0.15056 0.0
C670 C 0.45998 0.02691 0.14478 0.0
C671 C 0.46436 0.0312 0.12424 0.0
C672 C 0.47103 0.02731 0.15979 0.0
C673 C 0.43941 0.01619 0.17218 0.0
C674 C 0.47474 0.03629 0.17752 0.0
C675 C 0.48293 0.03465 0.19345 0.0
C676 C 0.48764 0.02406 0.19186 0.0
C677 C 0.48507 0.01605 0.17332 0.0
C678 C 0.47681 0.01765 0.1574 0.0
H679 H 0.42703 0.00948 0.17287 0.0
H680 H 0.44407 1.00928 0.17812 0.0
H681 H 0.44312 0.02594 0.1826 0.0
H682 H 0.47064 0.04402 0.17949 0.0
H683 H 0.48487 0.04107 0.20751 0.0
H684 H 0.40896 0.03064 0.95395 0.0
H685 H 0.42558 0.02993 0.92772 0.0
H686 H 0.41317 0.98512 0.94627 0.0
H687 H 0.3962 0.98559 0.97223 0.0
H688 H 0.44981 0.0271 0.93451 0.0
H689 H 0.40982 0.98065 0.88431 0.0
H690 H 0.40382 0.98926 0.90341 0.0
H691 H 0.4089 0.97567 0.91105 0.0
C692 C 0.40955 0.02051 0.95223 0.0
C693 C 0.4012 1.00815 0.96518 0.0
C694 C 0.41911 0.02015 0.93726 0.0
C695 C 0.42058 1.00745 0.9349 0.0
C696 C 0.41201 0.99494 0.94748 0.0
H697 H 0.47943 0.99269 0.85215 0.0
H698 H 0.4643 0.99127 0.88235 0.0
C699 C 0.40233 0.99524 0.96237 0.0
C700 C 0.43169 1.0077 0.92005 0.0
H701 H 0.43555 0.99048 0.87731 0.0
C702 C 0.44668 0.01907 0.92201 0.0
C703 C 0.42763 0.99718 0.90382 0.0
C704 C 0.41165 0.98508 0.90034 0.0
C705 C 0.45765 0.02031 0.90808 0.0
C706 C 0.45354 0.00995 0.8917 0.0
C707 C 0.43867 0.99835 0.89 0.0
C708 C 0.46421 0.01166 0.87515 0.0
C709 C 0.47356 0.03273 0.91088 0.0
C710 C 0.46936 0.02372 0.86139 0.0
C711 C 0.47789 0.0245 0.84421 0.0
C712 C 0.4815 0.01328 0.84052 0.0
C713 C 0.47696 1.00158 0.85483 0.0
C714 C 0.46825 1.00071 0.87195 0.0
H715 H 0.47561 0.03741 0.92678 0.0
H716 H 0.48152 0.02872 0.9076 0.0
H717 H 0.47591 0.04187 0.89988 0.0
H718 H 0.46621 0.03219 0.86344 0.0
H719 H 0.4812 0.03358 0.83332 0.0
H720 H 0.0455 0.41261 0.95942 0.0
H721 H 0.04835 0.4304 0.93237 0.0
H722 H 1.00063 0.40713 0.92351 0.0
H723 H 0.99766 0.38921 0.95025 0.0
H724 H 0.01645 0.41482 0.88673 0.0
H725 H 0.03785 0.46357 0.93973 0.0
H726 H 0.04817 0.45383 0.93997 0.0
H727 H 0.02919 0.44457 0.94895 0.0
C728 C 0.03561 0.41118 0.95159 0.0
C729 C 0.02133 0.3995 0.95713 0.0
C730 C 0.03726 0.42145 0.93626 0.0
C731 C 0.02468 0.42028 0.92624 0.0
C732 C 1.01049 0.40832 0.93117 0.0
H733 H 1.00991 0.4818 0.85343 0.0
H734 H 1.01261 0.46741 0.88158 0.0
C735 C 1.00882 0.39806 0.94646 0.0
C736 C 0.02616 0.43147 0.91062 0.0
H737 H 0.03686 0.46833 0.90415 0.0
C738 C 0.02097 0.42653 0.89051 0.0
C739 C 0.03188 0.44671 0.91568 0.0
C740 C 0.03698 0.45252 0.93729 0.0
C741 C 0.02134 0.43638 0.87531 0.0
C742 C 0.02732 0.45168 0.88023 0.0
C743 C 0.03246 0.45664 0.90036 0.0
C744 C 0.02773 0.46247 0.86475 0.0
C745 C 0.01494 0.43023 0.85423 0.0
C746 C 0.03593 0.46511 0.84643 0.0
C747 C 0.0344 0.47329 0.83041 0.0
C748 C 0.02474 0.47911 0.83248 0.0
C749 C 0.01749 0.47752 0.85147 0.0
C750 C 0.01896 0.46924 0.86749 0.0
H751 H 1.00768 0.41788 0.85446 0.0
H752 H 1.00832 0.43522 0.84834 0.0
H753 H 0.02421 0.43303 0.84323 0.0
H754 H 0.04301 0.46027 0.84417 0.0
H755 H 0.04023 0.47448 0.816 0.0
H756 H 0.63372 0.61276 0.95103 0.0
H757 H 0.61566 0.59733 0.92467 0.0
H758 H 0.58758 0.61555 0.94121 0.0
H759 H 0.60571 0.63125 0.96747 0.0
H760 H 0.58624 0.5756 0.93245 0.0
H761 H 0.58871 0.61847 0.87814 0.0
H762 H 0.60293 0.6227 0.89738 0.0
H763 H 0.58531 0.6208 0.90475 0.0
C764 C 0.62383 0.6137 0.94888 0.0
C765 C 0.62119 0.62327 0.96141 0.0
C766 C 0.61349 0.60482 0.93382 0.0
C767 C 0.6003 0.60532 0.93089 0.0
C768 C 0.59778 0.61515 0.94296 0.0
H769 H 0.52848 0.55087 0.84151 0.0
H770 H 0.54113 0.56658 0.87193 0.0
C771 C 0.60817 0.62409 0.95801 0.0
C772 C 0.58889 0.59489 0.91601 0.0
H773 H 0.57126 0.59329 0.87061 0.0
C774 C 0.5829 0.57948 0.919 0.0
C775 C 0.5844 0.59995 0.89859 0.0
C776 C 0.59072 0.61638 0.89434 0.0
C777 C 0.57289 0.56902 0.90477 0.0
C778 C 0.56886 0.57409 0.88695 0.0
C779 C 0.57433 0.58945 0.88435 0.0
C780 C 0.56049 0.5638 0.86975 0.0
C781 C 0.56688 0.5526 0.90871 0.0
C782 C 0.56716 0.55703 0.85862 0.0
C783 C 0.56006 0.54823 0.84138 0.0
C784 C 0.54611 0.54596 0.83492 0.0
C785 C 0.53917 0.55236 0.84635 0.0
C786 C 0.5464 0.56136 0.86359 0.0
H787 H 0.56753 0.55033 0.92534 0.0
H788 H 0.55509 0.54587 0.90352 0.0
H789 H 0.57364 0.54886 0.8999 0.0
H790 H 0.5781 0.55892 0.86293 0.0
H791 H 0.56563 0.54343 0.83276 0.0
H792 H 0.03843 0.63553 0.95721 0.0
H793 H 0.03911 0.61931 0.93009 0.0
H794 H 0.99129 0.59113 0.93438 0.0
H795 H 0.99045 0.60742 0.96088 0.0
H796 H 0.03123 0.59025 0.93221 0.0
H797 H 0.99623 0.5968 0.87309 0.0
H798 H 1.00345 0.60892 0.8953 0.0
H799 H 0.98687 0.59086 0.8975 0.0
C800 C 0.02803 0.62603 0.95213 0.0
C801 C 0.01438 0.62288 0.96117 0.0
C802 C 0.02844 0.61672 0.93668 0.0
C803 C 0.01523 0.60409 0.92994 0.0
C804 C 1.0016 0.60099 0.93887 0.0
H805 H 0.99514 0.52942 0.8472 0.0
H806 H 0.99505 0.54465 0.87646 0.0
C807 C 1.00116 0.61033 0.95415 0.0
C808 C 0.0157 0.59378 0.91427 0.0
H809 H 1.00098 0.57669 0.86803 0.0
C810 C 0.02468 0.58737 0.91812 0.0
C811 C 1.00716 0.58998 0.89584 0.0
C812 C 0.99801 0.59712 0.89006 0.0
C813 C 0.02518 0.57715 0.90423 0.0
C814 C 0.01645 0.57321 0.88606 0.0
C815 C 1.00749 0.57958 0.88216 0.0
C816 C 0.01714 0.56321 0.87021 0.0
C817 C 0.03492 0.57052 0.90904 0.0
C818 C 0.02967 0.56855 0.8573 0.0
C819 C 0.02968 0.55996 0.84062 0.0
C820 C 0.01722 0.54583 0.83666 0.0
C821 C 1.00495 0.54019 0.85014 0.0
C822 C 1.00486 0.54889 0.86672 0.0
H823 H 0.03914 0.57285 0.92518 0.0
H824 H 0.02863 0.55824 0.90655 0.0
H825 H 0.04464 0.57533 0.89841 0.0
H826 H 0.03919 0.57962 0.85961 0.0
H827 H 0.03923 0.56458 0.83032 0.0
H828 H 0.39196 0.4147 0.9634 0.0
H829 H 0.40853 0.43121 0.93622 0.0
H830 H 0.42311 0.39964 0.92298 0.0
H831 H 0.40675 0.38314 0.95017 0.0
H832 H 0.44241 0.44206 0.93513 0.0
H833 H 0.41007 0.41075 0.86577 0.0
H834 H 0.40137 0.40919 0.89058 0.0
H835 H 0.41197 0.40003 0.88624 0.0
C836 C 0.39852 0.41115 0.95451 0.0
C837 C 0.39801 0.39757 0.95896 0.0
C838 C 0.40804 0.42065 0.93908 0.0
C839 C 0.41701 0.41662 0.92763 0.0
C840 C 0.41621 0.40291 0.93161 0.0
H841 H 0.4783 0.45149 0.82538 0.0
H842 H 0.46242 0.43709 0.85437 0.0
C843 C 0.40684 0.39349 0.94715 0.0
C844 C 0.42765 0.42692 0.91199 0.0
H845 H 0.43445 0.43088 0.86015 0.0
C846 C 0.44067 0.43973 0.9187 0.0
C847 C 0.42535 0.42374 0.89066 0.0
C848 C 0.4114 0.41024 0.88274 0.0
C849 C 0.4517 0.44925 0.90459 0.0
C850 C 0.44944 0.44604 0.88318 0.0
C851 C 0.43625 0.43333 0.87654 0.0
C852 C 0.46063 0.45546 0.86728 0.0
C853 C 0.46587 0.46233 0.91284 0.0
C854 C 0.46527 0.47071 0.86513 0.0
C855 C 0.47459 0.47903 0.84872 0.0
C856 C 0.47917 0.47215 0.83401 0.0
C857 C 0.47494 0.45705 0.83657 0.0
C858 C 0.46581 0.44881 0.85306 0.0
H859 H 0.46771 0.46075 0.92934 0.0
H860 H 0.47575 0.46407 0.9038 0.0
H861 H 0.46504 0.4726 0.9117 0.0
H862 H 0.46118 0.47604 0.87559 0.0
H863 H 0.4775 0.4906 0.84687 0.0
H864 H 0.63422 0.02484 0.95035 0.0
H865 H 0.6162 0.02217 0.92387 0.0
H866 H 0.59256 0.97441 0.93233 0.0
H867 H 0.61047 0.97694 0.95901 0.0
H868 H 0.60792 1.00596 0.88671 0.0
H869 H 0.55997 0.98588 0.9409 0.0
H870 H 0.57909 0.99449 0.94964 0.0
H871 H 0.56955 0.97539 0.94111 0.0
C872 C 0.62527 0.01373 0.9465 0.0
C873 C 0.62378 1.00111 0.95694 0.0
C874 C 0.61496 0.01224 0.93136 0.0
C875 C 0.60287 0.99813 0.92642 0.0
C876 C 0.60162 0.98544 0.93622 0.0
H877 H 0.54665 0.98089 0.81797 0.0
H878 H 0.56139 0.97874 0.84597 0.0
C879 C 0.61197 0.98691 0.95134 0.0
C880 C 0.59159 0.99679 0.91105 0.0
H881 H 0.55479 0.98658 0.9054 0.0
C882 C 0.59629 1.00168 0.89077 0.0
C883 C 0.57646 0.99138 0.91646 0.0
C884 C 0.57092 0.98659 0.93824 0.0
C885 C 0.58629 1.00123 0.87573 0.0
C886 C 0.5711 0.99555 0.88103 0.0
C887 C 0.56639 0.99077 0.90134 0.0
C888 C 0.56015 0.99499 0.86569 0.0
C889 C 0.59214 1.00717 0.85439 0.0
C890 C 0.55382 1.00418 0.86802 0.0
C891 C 0.5453 1.00536 0.85207 0.0
C892 C 0.54299 0.99736 0.83355 0.0
C893 C 0.5484 0.98732 0.83197 0.0
C894 C 0.55687 0.98613 0.8479 0.0
H895 H 0.60451 0.01415 0.85417 0.0
H896 H 0.58886 0.99765 0.84365 0.0
H897 H 0.58732 0.01395 0.84851 0.0
H898 H 0.55615 0.01105 0.8817 0.0
H899 H 0.54136 0.01325 0.85369 0.0
H900 H 0.61835 0.98617 0.07124 0.0
H901 H 0.60127 0.98614 0.09732 0.0
H902 H 0.61548 0.03209 0.08315 0.0
H903 H 0.63292 0.03236 0.0573 0.0
H904 H 0.61218 0.02691 0.12441 0.0
H905 H 0.56186 0.98344 0.08415 0.0
H906 H 0.57497 0.97738 0.08984 0.0
H907 H 0.58007 0.99265 0.07221 0.0
C908 C 0.61796 0.99633 0.07376 0.0
C909 C 0.62695 1.00924 0.06203 0.0
C910 C 0.60806 0.99624 0.08857 0.0
C911 C 0.60674 1.00897 0.09177 0.0
C912 C 0.61617 0.02208 0.08078 0.0
H913 H 0.5483 0.02432 0.17497 0.0
H914 H 0.5639 0.0259 0.1453 0.0
C915 C 0.62619 0.02223 0.06605 0.0
C916 C 0.5955 1.00854 0.10658 0.0
H917 H 0.55834 0.98909 0.11885 0.0
C918 C 0.60039 0.01876 0.12305 0.0
C919 C 0.58006 0.99797 0.10473 0.0
C920 C 0.57389 0.98734 0.08666 0.0
C921 C 0.59038 0.01831 0.13813 0.0
C922 C 0.57506 1.00742 0.13663 0.0
C923 C 0.5701 0.99741 0.11996 0.0
C924 C 0.56426 1.00571 0.15297 0.0
C925 C 0.59627 0.02915 0.15598 0.0
C926 C 0.55886 0.99355 0.16658 0.0
C927 C 0.54999 0.99264 0.18345 0.0
C928 C 0.54623 1.00379 0.18691 0.0
C929 C 0.55092 0.01551 0.17256 0.0
C930 C 0.55993 0.01649 0.15576 0.0
H931 H 0.60868 0.03563 0.1563 0.0
H932 H 0.59208 0.03712 0.1547 0.0
H933 H 0.59219 0.0231 0.17086 0.0
H934 H 0.56202 0.98509 0.16463 0.0
H935 H 0.5465 0.98348 0.19424 0.0
H936 H 0.98454 0.60558 0.06403 0.0
H937 H 0.98347 0.58805 0.09026 0.0
H938 H 0.03095 0.61537 0.10001 0.0
H939 H 0.03218 0.63275 0.0735 0.0
H940 H 0.02254 0.58616 0.09414 0.0
H941 H 0.98561 0.5906 0.15265 0.0
H942 H 0.97784 0.58608 0.12709 0.0
H943 H 0.99414 0.60393 0.13196 0.0
C944 C 0.99472 0.60802 0.07201 0.0
C945 C 1.00846 0.62061 0.06663 0.0
C946 C 0.99408 0.59798 0.08707 0.0
C947 C 1.00711 0.60044 0.09726 0.0
C948 C 0.02074 0.61322 0.09235 0.0
H949 H 0.03589 0.56418 0.19274 0.0
H950 H 0.03284 0.57752 0.16366 0.0
C951 C 0.02142 0.62319 0.07723 0.0
C952 C 1.0068 0.58933 0.11216 0.0
H953 H 0.99234 0.57211 0.15838 0.0
C954 C 0.0159 0.58308 0.10815 0.0
C955 C 0.99804 0.58518 0.13038 0.0
C956 C 0.98845 0.59187 0.13593 0.0
C957 C 0.01667 0.57304 0.122 0.0
C958 C 1.0082 0.56918 0.1404 0.0
C959 C 0.99875 0.57503 0.14416 0.0
C960 C 1.01017 0.56033 0.15686 0.0
C961 C 0.02668 0.56673 0.11697 0.0
C962 C 0.99844 0.54617 0.1626 0.0
C963 C 1.00022 0.53843 0.17916 0.0
C964 C 1.01366 0.54492 0.19038 0.0
C965 C 0.02543 0.55895 0.1843 0.0
C966 C 0.02372 0.56655 0.16769 0.0
H967 H 0.02946 0.56773 0.10025 0.0
H968 H 0.03727 0.57298 0.12575 0.0
H969 H 0.02133 0.55478 0.12151 0.0
H970 H 0.98787 0.54123 0.15448 0.0
H971 H 0.99095 0.5277 0.18371 0.0
H972 H 0.41788 0.38901 0.06071 0.0
H973 H 0.4345 0.40573 0.08771 0.0
H974 H 0.40316 0.42067 0.10055 0.0
H975 H 0.38654 0.40413 0.07359 0.0
H976 H 0.44609 0.43906 0.08839 0.0
H977 H 0.41368 0.40864 0.15807 0.0
H978 H 0.41156 0.39952 0.13344 0.0
H979 H 0.40327 0.41097 0.13757 0.0
C980 C 0.4144 0.39567 0.06949 0.0
C981 C 0.40085 0.3952 0.06499 0.0
C982 C 0.42396 0.40528 0.08481 0.0
C983 C 0.42003 0.41439 0.09612 0.0
C984 C 0.40635 0.41365 0.09208 0.0
H985 H 0.4561 0.47738 0.19657 0.0
H986 H 0.44158 0.46156 0.16759 0.0
C987 C 0.39687 0.40418 0.07665 0.0
C988 C 0.43041 0.42514 0.11163 0.0
H989 H 0.4341 0.43299 0.16322 0.0
C990 C 0.44357 0.43773 0.10479 0.0
C991 C 0.42701 0.42336 0.13293 0.0
C992 C 0.41317 0.40986 0.14107 0.0
C993 C 0.45324 0.44886 0.11869 0.0
C994 C 0.4498 0.44714 0.14006 0.0
C995 C 0.43672 0.43438 0.14685 0.0
C996 C 0.45941 0.45841 0.15576 0.0
C997 C 0.46675 0.46256 0.11027 0.0
C998 C 0.47442 0.4623 0.15846 0.0
C999 C 0.48282 0.47157 0.17487 0.0
C1000 C 0.47625 0.47687 0.18904 0.0
C1001 C 0.46143 0.47346 0.18583 0.0
C1002 C 0.45312 0.46436 0.16934 0.0
H1003 H 0.46546 0.46419 0.09359 0.0
H1004 H 0.46885 0.47276 0.1188 0.0
H1005 H 0.4767 0.46123 0.11198 0.0
H1006 H 0.47945 0.45761 0.1485 0.0
H1007 H 0.49414 0.47382 0.17722 0.0
H1008 H 0.69636 0.74125 0.40566 0.0
H1009 H 0.69311 0.7569 0.431 0.0
H1010 H 0.64572 0.73348 0.41934 0.0
H1011 H 0.64881 0.71768 0.39381 0.0
H1012 H 0.67943 0.77529 0.42032 0.0
H1013 H 0.6504 0.73486 0.48426 0.0
H1014 H 0.6615 0.73195 0.46526 0.0
H1015 H 0.64354 0.72929 0.45831 0.0
C1016 C 0.68519 0.73923 0.40864 0.0
C1017 C 0.67285 0.72819 0.39762 0.0
C1018 C 0.68337 0.74824 0.42311 0.0
C1019 C 0.66919 0.74634 0.42705 0.0
C1020 C 0.65675 0.73504 0.41664 0.0
H1021 H 0.65206 0.79771 0.52156 0.0
H1022 H 0.64738 0.78094 0.49186 0.0
C1023 C 0.65855 0.72603 0.40205 0.0
C1024 C 0.66772 0.75681 0.44123 0.0
H1025 H 0.65641 0.75975 0.48974 0.0
C1026 C 0.67426 0.77187 0.43542 0.0
C1027 C 0.66078 0.75229 0.46077 0.0
C1028 C 0.65368 0.73624 0.46771 0.0
C1029 C 0.6745 0.78263 0.44892 0.0
C1030 C 0.66833 0.77828 0.46894 0.0
C1031 C 0.66114 0.76308 0.47439 0.0
C1032 C 0.6708 0.78946 0.4852 0.0
C1033 C 0.68155 0.79861 0.44167 0.0
C1034 C 0.68545 0.79987 0.49113 0.0
C1035 C 0.68808 0.80937 0.50788 0.0
C1036 C 0.67612 0.80866 0.5191 0.0
C1037 C 0.66143 0.79861 0.51286 0.0
C1038 C 0.65878 0.78899 0.49605 0.0
H1039 H 0.68088 0.79922 0.42459 0.0
H1040 H 0.67611 0.80444 0.44885 0.0
H1041 H 0.69354 0.80463 0.44601 0.0
H1042 H 0.6949 0.80021 0.48337 0.0
H1043 H 0.69949 0.81687 0.51267 0.0
H1044 H 0.3058 0.93438 0.39356 0.0
H1045 H 0.29127 0.91655 0.42081 0.0
H1046 H 0.26912 0.94156 0.43408 0.0
H1047 H 0.28367 0.95952 0.40713 0.0
H1048 H 0.27798 0.93284 0.46933 0.0
H1049 H 0.24684 0.88487 0.41598 0.0
H1050 H 0.26683 0.89385 0.4142 0.0
H1051 H 0.25753 0.90392 0.40701 0.0
C1052 C 0.29794 0.93618 0.40238 0.0
C1053 C 0.29587 0.94837 0.39803 0.0
C1054 C 0.28954 0.92589 0.41784 0.0
C1055 C 0.27889 0.92755 0.42919 0.0
C1056 C 0.27719 0.93999 0.4254 0.0
H1057 H 0.20404 0.86802 0.50539 0.0
H1058 H 0.22059 0.882 0.47661 0.0
C1059 C 0.28555 0.95027 0.40998 0.0
C1060 C 0.26946 0.91641 0.44506 0.0
H1061 H 0.24232 0.87991 0.45176 0.0
C1062 C 0.27024 0.92125 0.46551 0.0
C1063 C 0.25921 0.90133 0.43998 0.0
C1064 C 0.2574 0.89565 0.41808 0.0
C1065 C 0.26107 0.91147 0.48103 0.0
C1066 C 0.251 0.89633 0.47605 0.0
C1067 C 0.25017 0.89147 0.45558 0.0
C1068 C 0.24079 0.88567 0.49182 0.0
C1069 C 0.26194 0.91755 0.50252 0.0
C1070 C 0.24655 0.88241 0.50942 0.0
C1071 C 0.23713 0.87442 0.52583 0.0
C1072 C 0.22175 0.86944 0.52488 0.0
C1073 C 0.21582 0.87162 0.50652 0.0
C1074 C 0.22528 0.87969 0.49012 0.0
H1075 H 0.26763 0.92995 0.50265 0.0
H1076 H 0.25062 0.91306 0.50926 0.0
H1077 H 0.26838 0.91412 0.51262 0.0
H1078 H 0.25844 0.88663 0.51086 0.0
H1079 H 0.24198 0.87275 0.53971 0.0
H1080 H 0.08605 0.37362 0.39391 0.0
H1081 H 0.10418 0.37681 0.42062 0.0
H1082 H 0.07935 0.32959 0.43349 0.0
H1083 H 0.0611 0.32628 0.40702 0.0
H1084 H 0.08852 0.34725 0.46896 0.0
H1085 H 0.13576 0.36394 0.41438 0.0
H1086 H 0.12675 0.37494 0.41297 0.0
H1087 H 0.1166 0.35554 0.40589 0.0
C1088 C 0.08436 0.36392 0.40253 0.0
C1089 C 0.07212 0.34967 0.3982 0.0
C1090 C 0.09482 0.36576 0.41768 0.0
C1091 C 0.09329 0.35339 0.42875 0.0
C1092 C 0.08082 0.33927 0.42501 0.0
H1093 H 0.15397 0.33889 0.50401 0.0
H1094 H 0.13951 0.34091 0.4754 0.0
C1095 C 0.07037 0.33741 0.40987 0.0
C1096 C 0.10462 0.35508 0.44429 0.0
H1097 H 0.14123 0.36461 0.45004 0.0
C1098 C 0.10006 0.3511 0.46484 0.0
C1099 C 0.11963 0.35992 0.43882 0.0
C1100 C 0.12501 0.36372 0.41679 0.0
C1101 C 0.11007 0.35186 0.48009 0.0
C1102 C 0.12515 0.35697 0.47473 0.0
C1103 C 0.12972 0.36088 0.45415 0.0
C1104 C 0.13608 0.35772 0.49027 0.0
C1105 C 0.10432 0.34681 0.50174 0.0
C1106 C 0.13961 0.36707 0.50758 0.0
C1107 C 0.14788 0.36596 0.52387 0.0
C1108 C 0.15285 0.35554 0.52309 0.0
C1109 C 0.15038 0.34709 0.50499 0.0
C1110 C 0.14204 0.34816 0.4887 0.0
H1111 H 0.09193 0.34007 0.50221 0.0
H1112 H 0.10895 0.34006 0.50835 0.0
H1113 H 0.10787 0.35675 0.51175 0.0
H1114 H 0.13539 0.37474 0.50891 0.0
H1115 H 0.14976 0.37273 0.53754 0.0
H1116 H 0.07666 0.35855 0.28409 0.0
H1117 H 0.09127 0.35493 0.25737 0.0
H1118 H 0.06993 0.30808 0.27238 0.0
H1119 H 0.05528 0.31157 0.29927 0.0
H1120 H 0.10174 0.32267 0.27005 0.0
H1121 H 0.07713 0.33388 0.20092 0.0
H1122 H 0.08328 0.34806 0.22053 0.0
H1123 H 0.06811 0.32959 0.22587 0.0
C1124 C 0.0749 0.34742 0.28157 0.0
C1125 C 0.06474 0.33534 0.29383 0.0
C1126 C 0.08326 0.34537 0.26624 0.0
C1127 C 0.08162 0.33122 0.26279 0.0
C1128 C 0.07135 0.31909 0.27477 0.0
H1129 H 0.11961 0.31201 0.15524 0.0
H1130 H 0.10313 0.30961 0.18394 0.0
C1131 C 0.06293 0.32111 0.29006 0.0
C1132 C 0.09101 0.32922 0.24716 0.0
H1133 H 0.0995 0.3331 0.19575 0.0
C1134 C 0.10119 0.32483 0.25377 0.0
C1135 C 0.09017 0.3319 0.22592 0.0
C1136 C 0.079 0.33599 0.21779 0.0
C1137 C 0.11084 0.32346 0.23975 0.0
C1138 C 0.11038 0.32669 0.21862 0.0
C1139 C 0.09992 0.33069 0.21197 0.0
C1140 C 0.12076 0.32631 0.20304 0.0
C1141 C 0.12139 0.31849 0.24765 0.0
C1142 C 0.13624 0.33612 0.20451 0.0
C1143 C 0.14571 0.33746 0.18813 0.0
C1144 C 0.13981 0.32912 0.16993 0.0
C1145 C 0.12445 0.31863 0.16905 0.0
C1146 C 0.11502 0.31728 0.18541 0.0
H1147 H 0.11759 0.31257 0.26268 0.0
H1148 H 0.12251 0.31101 0.23637 0.0
H1149 H 0.13259 0.32845 0.25001 0.0
H1150 H 0.1409 0.34339 0.2178 0.0
H1151 H 0.15745 0.34577 0.18912 0.0
H1152 H 0.66595 0.7236 0.28338 0.0
H1153 H 0.67012 0.74158 0.2561 0.0
H1154 H 0.71683 0.76672 0.27201 0.0
H1155 H 0.71278 0.74882 0.29952 0.0
H1156 H 0.70307 0.78435 0.26836 0.0
H1157 H 0.69121 0.74751 0.20023 0.0
H1158 H 0.67679 0.7399 0.21952 0.0
H1159 H 0.69505 0.74281 0.2255 0.0
C1160 C 0.67717 0.73283 0.28095 0.0
C1161 C 0.68904 0.73471 0.29366 0.0
C1162 C 0.67953 0.74309 0.26528 0.0
C1163 C 0.6938 0.75542 0.26191 0.0
C1164 C 0.70573 0.75725 0.27432 0.0
H1165 H 0.71197 0.81077 0.15242 0.0
H1166 H 0.71489 0.79713 0.18125 0.0
C1167 C 0.7034 0.74696 0.28998 0.0
C1168 C 0.6961 0.76668 0.24593 0.0
H1169 H 0.69192 0.77062 0.19442 0.0
C1170 C 0.70078 0.78141 0.25215 0.0
C1171 C 0.69327 0.76287 0.22478 0.0
C1172 C 0.68894 0.74745 0.21703 0.0
C1173 C 0.70223 0.7923 0.23784 0.0
C1174 C 0.69874 0.78829 0.21683 0.0
C1175 C 0.69452 0.77368 0.21055 0.0
C1176 C 0.69892 0.79882 0.20104 0.0
C1177 C 0.70752 0.80798 0.24535 0.0
C1178 C 0.68934 0.80475 0.20282 0.0
C1179 C 0.68773 0.81264 0.18637 0.0
C1180 C 0.69553 0.81456 0.16779 0.0
C1181 C 0.70577 0.80939 0.16653 0.0
C1182 C 0.70742 0.80158 0.18297 0.0
H1183 H 0.71385 0.81032 0.26006 0.0
H1184 H 0.71473 0.81636 0.23366 0.0
H1185 H 0.69769 0.80935 0.2482 0.0
H1186 H 0.68245 0.80254 0.21643 0.0
H1187 H 0.67961 0.81631 0.18767 0.0
H1188 H 0.27432 0.96584 0.2978 0.0
H1189 H 0.25646 0.9514 0.27051 0.0
H1190 H 0.28118 0.92894 0.25726 0.0
H1191 H 0.29916 0.9434 0.28425 0.0
H1192 H 0.27267 0.938 0.22202 0.0
H1193 H 0.2245 0.90704 0.27503 0.0
H1194 H 0.2336 0.92705 0.27692 0.0
H1195 H 0.24352 0.91759 0.28413 0.0
C1196 C 0.27604 0.95792 0.28898 0.0
C1197 C 0.28817 0.95576 0.29334 0.0
C1198 C 0.26573 0.94958 0.2735 0.0
C1199 C 0.26731 0.93887 0.26213 0.0
C1200 C 0.27967 0.93706 0.26595 0.0
H1201 H 0.20738 0.86458 0.18505 0.0
H1202 H 0.22143 0.88087 0.21407 0.0
C1203 C 0.28997 0.94537 0.2814 0.0
C1204 C 0.25617 0.92954 0.24619 0.0
H1205 H 0.21961 0.90267 0.23919 0.0
C1206 C 0.26105 0.93033 0.22575 0.0
C1207 C 0.24106 0.91938 0.25115 0.0
C1208 C 0.23533 0.91756 0.27301 0.0
C1209 C 0.25127 0.92127 0.21015 0.0
C1210 C 0.23609 0.9113 0.21502 0.0
C1211 C 0.23119 0.91045 0.23546 0.0
C1212 C 0.22541 0.90126 0.19912 0.0
C1213 C 0.25739 0.92216 0.18868 0.0
C1214 C 0.22231 0.90722 0.1816 0.0
C1215 C 0.21429 0.89795 0.16507 0.0
C1216 C 0.20911 0.88252 0.16582 0.0
C1217 C 0.21114 0.8764 0.18409 0.0
C1218 C 0.21924 0.88571 0.20062 0.0
H1219 H 0.26978 0.9277 0.18864 0.0
H1220 H 0.25278 0.91084 0.18183 0.0
H1221 H 0.25412 0.92874 0.17864 0.0
H1222 H 0.22667 0.91914 0.18031 0.0
H1223 H 0.21275 0.90295 0.15126 0.0
H1224 H 0.70817 0.96373 0.29828 0.0
H1225 H 0.70777 0.94613 0.27269 0.0
H1226 H 0.66212 0.93269 0.25757 0.0
H1227 H 0.66228 0.94993 0.28356 0.0
H1228 H 0.6654 0.90888 0.26393 0.0
H1229 H 0.70995 0.94794 0.21075 0.0
H1230 H 0.71607 0.94955 0.23704 0.0
H1231 H 0.70204 0.9543 0.23041 0.0
C1232 C 0.69813 0.95723 0.28926 0.0
C1233 C 0.68527 0.95828 0.29297 0.0
C1234 C 0.69793 0.94718 0.27456 0.0
C1235 C 0.68496 0.93817 0.26301 0.0
C1236 C 0.67226 0.93951 0.26629 0.0
H1237 H 0.65786 0.87521 0.16346 0.0
H1238 H 0.65932 0.89092 0.19276 0.0
C1239 C 0.67239 0.94943 0.28111 0.0
C1240 C 0.6843 0.92677 0.24831 0.0
H1241 H 0.70061 0.92206 0.20518 0.0
C1242 C 0.6731 0.91179 0.25107 0.0
C1243 C 0.69438 0.93053 0.23156 0.0
C1244 C 0.7062 0.94646 0.2271 0.0
C1245 C 0.67167 0.90051 0.23753 0.0
C1246 C 0.68168 0.9043 0.22078 0.0
C1247 C 0.69304 0.91919 0.21819 0.0
C1248 C 0.67987 0.89321 0.20484 0.0
C1249 C 0.65946 0.88462 0.24116 0.0
C1250 C 0.69081 0.88908 0.20216 0.0
C1251 C 0.68989 0.87995 0.18555 0.0
C1252 C 0.67816 0.87507 0.1712 0.0
C1253 C 0.66695 0.87877 0.17439 0.0
C1254 C 0.66778 0.88772 0.19109 0.0
H1255 H 0.65479 0.88299 0.25703 0.0
H1256 H 0.65026 0.88174 0.22999 0.0
H1257 H 0.66369 0.87676 0.23864 0.0
H1258 H 0.70027 0.89328 0.21257 0.0
H1259 H 0.69876 0.87741 0.18325 0.0
H1260 H 0.07457 0.71613 0.28281 0.0
H1261 H 0.09124 0.7328 0.25599 0.0
H1262 H 0.07551 0.76365 0.26769 0.0
H1263 H 0.05866 0.74698 0.29453 0.0
H1264 H 0.08294 0.74618 0.21916 0.0
H1265 H 0.1234 0.78699 0.27579 0.0
H1266 H 0.11073 0.76772 0.28259 0.0
H1267 H 0.10378 0.78038 0.27939 0.0
C1268 C 0.0745 0.72637 0.27954 0.0
C1269 C 0.06529 0.73023 0.29088 0.0
C1270 C 0.08405 0.73588 0.26423 0.0
C1271 C 0.08473 0.74952 0.2601 0.0
C1272 C 0.07523 0.75322 0.27084 0.0
H1273 H 0.14523 0.82276 0.17898 0.0
H1274 H 0.12832 0.80804 0.20717 0.0
C1275 C 0.06554 0.74363 0.28605 0.0
C1276 C 0.09562 0.75992 0.24479 0.0
H1277 H 0.12936 0.79202 0.24051 0.0
C1278 C 0.09306 0.75623 0.22377 0.0
C1279 C 0.10874 0.77306 0.25092 0.0
C1280 C 0.11198 0.77735 0.27339 0.0
C1281 C 0.10334 0.76534 0.20866 0.0
C1282 C 0.11677 0.77824 0.2148 0.0
C1283 C 0.11915 0.78208 0.23583 0.0
C1284 C 0.12846 0.78771 0.19954 0.0
C1285 C 0.09957 0.76115 0.18621 0.0
C1286 C 0.13476 0.78142 0.1866 0.0
C1287 C 0.14433 0.78976 0.17053 0.0
C1288 C 0.14801 0.80466 0.16732 0.0
C1289 C 0.14265 0.81133 0.18124 0.0
C1290 C 0.13292 0.8029 0.19723 0.0
H1291 H 0.08734 0.75391 0.18388 0.0
H1292 H 0.10357 0.77123 0.17635 0.0
H1293 H 0.10503 0.75482 0.18095 0.0
H1294 H 0.13186 0.76986 0.18847 0.0
H1295 H 0.14839 0.7844 0.16007 0.0
H1296 H 0.27738 0.31653 0.29704 0.0
H1297 H 0.26071 0.31704 0.2705 0.0
H1298 H 0.29204 0.36352 0.25893 0.0
H1299 H 0.30871 0.36318 0.28544 0.0
H1300 H 0.24909 0.33863 0.27128 0.0
H1301 H 0.28132 0.34212 0.20066 0.0
H1302 H 0.28362 0.33476 0.22483 0.0
H1303 H 0.29178 0.35455 0.22144 0.0
C1304 C 0.28085 0.3268 0.28862 0.0
C1305 C 0.29441 0.33981 0.29336 0.0
C1306 C 0.27126 0.32709 0.27355 0.0
C1307 C 0.27517 0.34031 0.26275 0.0
C1308 C 0.28887 0.35318 0.267 0.0
H1309 H 0.23841 0.36857 0.16486 0.0
H1310 H 0.25309 0.36701 0.1934 0.0
C1311 C 0.29838 0.35295 0.28217 0.0
C1312 C 0.26473 0.34093 0.24762 0.0
H1313 H 0.26082 0.34603 0.19643 0.0
C1314 C 0.25155 0.34014 0.25488 0.0
C1315 C 0.26806 0.34299 0.22631 0.0
C1316 C 0.2819 0.34356 0.21771 0.0
C1317 C 0.2418 0.34179 0.2414 0.0
C1318 C 0.24517 0.34394 0.22003 0.0
C1319 C 0.25826 0.34448 0.21281 0.0
C1320 C 0.23543 0.34576 0.20474 0.0
C1321 C 0.22827 0.34172 0.25028 0.0
C1322 C 0.22045 0.33457 0.20195 0.0
C1323 C 0.21196 0.33558 0.18581 0.0
C1324 C 0.2184 0.34768 0.172 0.0
C1325 C 0.23318 0.35915 0.17534 0.0
C1326 C 0.24158 0.35822 0.19157 0.0
H1327 H 0.22962 0.34436 0.26706 0.0
H1328 H 0.22605 0.3499 0.24224 0.0
H1329 H 0.21836 0.33044 0.24833 0.0
H1330 H 0.21553 0.32469 0.21159 0.0
H1331 H 0.20069 0.32647 0.18333 0.0
H1332 H 0.30262 0.36686 0.39539 0.0
H1333 H 0.28546 0.36647 0.42188 0.0
H1334 H 0.26986 0.31989 0.43329 0.0
H1335 H 0.28685 0.3201 0.40682 0.0
H1336 H 0.25217 0.34511 0.42102 0.0
H1337 H 0.28068 0.34125 0.49164 0.0
H1338 H 0.29039 0.34859 0.46748 0.0
H1339 H 0.2786 0.32881 0.4708 0.0
C1340 C 0.29572 0.35659 0.40376 0.0
C1341 C 0.29614 0.34351 0.39898 0.0
C1342 C 0.28586 0.35638 0.4188 0.0
C1343 C 0.27643 0.34317 0.42954 0.0
C1344 C 0.27713 0.33023 0.42526 0.0
H1345 H 0.21158 0.31578 0.52769 0.0
H1346 H 0.22764 0.31701 0.49907 0.0
C1347 C 0.28685 0.33038 0.41011 0.0
C1348 C 0.2654 0.34265 0.44467 0.0
H1349 H 0.25641 0.33769 0.49588 0.0
C1350 C 0.2531 0.34359 0.43742 0.0
C1351 C 0.26665 0.34058 0.46599 0.0
C1352 C 0.27983 0.33985 0.47458 0.0
C1353 C 0.24175 0.34209 0.45091 0.0
C1354 C 0.24295 0.33995 0.47229 0.0
C1355 C 0.25541 0.33924 0.4795 0.0
C1356 C 0.23146 0.33831 0.48759 0.0
C1357 C 0.22838 0.34232 0.44203 0.0
C1358 C 0.22786 0.34964 0.49033 0.0
C1359 C 0.21845 0.34881 0.50651 0.0
C1360 C 0.21272 0.33677 0.52042 0.0
C1361 C 0.21582 0.32515 0.51712 0.0
C1362 C 0.22506 0.3259 0.50086 0.0
H1363 H 0.22705 0.33963 0.42527 0.0
H1364 H 0.21795 0.33426 0.45012 0.0
H1365 H 0.22992 0.35368 0.44391 0.0
H1366 H 0.23289 0.35949 0.48063 0.0
H1367 H 0.21644 0.35803 0.50896 0.0
H1368 H 0.65453 0.94155 0.39533 0.0
H1369 H 0.65299 0.92473 0.42312 0.0
H1370 H 0.70028 0.95223 0.43398 0.0
H1371 H 0.70197 0.96909 0.40635 0.0
H1372 H 0.66962 0.90895 0.42465 0.0
H1373 H 0.68098 0.94646 0.49205 0.0
H1374 H 0.67498 0.94968 0.46733 0.0
H1375 H 0.69407 0.95446 0.47112 0.0
C1376 C 0.66457 0.94416 0.40384 0.0
C1377 C 0.67837 0.95671 0.39862 0.0
C1378 C 0.66367 0.93448 0.41963 0.0
C1379 C 0.67651 0.93728 0.43065 0.0
C1380 C 0.69022 0.94996 0.42581 0.0
H1381 H 0.69507 0.87937 0.50752 0.0
H1382 H 0.69342 0.89397 0.47875 0.0
C1383 C 0.69115 0.95957 0.40998 0.0
C1384 C 0.67574 0.92669 0.44671 0.0
H1385 H 0.68132 0.924 0.49813 0.0
C1386 C 0.6721 0.91218 0.44074 0.0
C1387 C 0.67889 0.93093 0.46768 0.0
C1388 C 0.68233 0.94618 0.47505 0.0
C1389 C 0.6718 0.90188 0.4552 0.0
C1390 C 0.67534 0.90627 0.47608 0.0
C1391 C 0.67872 0.92069 0.48207 0.0
C1392 C 0.67537 0.89606 0.49218 0.0
C1393 C 0.66755 0.88635 0.44809 0.0
C1394 C 0.66569 0.89228 0.50913 0.0
C1395 C 0.66661 0.88398 0.52547 0.0
C1396 C 0.67731 0.87936 0.52533 0.0
C1397 C 0.68662 0.88264 0.50797 0.0
C1398 C 0.68569 0.89099 0.49155 0.0
H1399 H 0.66191 0.88369 0.43279 0.0
H1400 H 0.67779 0.88549 0.44669 0.0
H1401 H 0.66004 0.87787 0.45947 0.0
H1402 H 0.65762 0.89605 0.50991 0.0
H1403 H 0.65916 0.88147 0.53852 0.0
H1404 H 0.05443 0.73862 0.40438 0.0
H1405 H 0.07123 0.75583 0.43057 0.0
H1406 H 0.10239 0.74041 0.41915 0.0
H1407 H 0.08544 0.72284 0.39323 0.0
H1408 H 0.09982 0.74424 0.45999 0.0
H1409 H 0.10874 0.79461 0.41772 0.0
H1410 H 0.08938 0.78192 0.42293 0.0
H1411 H 0.09957 0.77627 0.40614 0.0
C1412 C 0.0648 0.73878 0.40753 0.0
C1413 C 0.06863 0.72941 0.39656 0.0
C1414 C 0.07447 0.74874 0.42239 0.0
C1415 C 0.08829 0.74975 0.42639 0.0
C1416 C 0.09187 0.73996 0.41615 0.0
H1417 H 0.16172 0.80853 0.50943 0.0
H1418 H 0.14769 0.79286 0.47981 0.0
C1419 C 0.08213 0.72987 0.40139 0.0
C1420 C 0.09896 0.76101 0.44127 0.0
H1421 H 0.11729 0.79832 0.45275 0.0
C1422 C 0.10377 0.75608 0.45827 0.0
C1423 C 0.10423 0.7765 0.43895 0.0
C1424 C 0.10034 0.78267 0.42033 0.0
C1425 C 0.11323 0.76613 0.47338 0.0
C1426 C 0.11805 0.7815 0.47138 0.0
C1427 C 0.11352 0.78651 0.45422 0.0
C1428 C 0.12711 0.79237 0.48765 0.0
C1429 C 0.1177 0.76025 0.49174 0.0
C1430 C 0.12029 0.79765 0.50135 0.0
C1431 C 0.12824 0.80654 0.51821 0.0
C1432 C 0.14319 0.81041 0.52154 0.0
C1433 C 0.15026 0.80582 0.50711 0.0
C1434 C 0.14224 0.79679 0.49032 0.0
H1435 H 0.11178 0.74785 0.4921 0.0
H1436 H 0.1299 0.76449 0.49118 0.0
H1437 H 0.11531 0.76435 0.50632 0.0
H1438 H 0.10864 0.79439 0.49947 0.0
H1439 H 0.12254 0.80997 0.52907 0.0
H1440 H 0.31847 0.0595 0.71763 0.0
H1441 H 0.31601 0.07566 0.74299 0.0
H1442 H 0.3537 0.07925 0.77667 0.0
H1443 H 0.35676 0.06384 0.75057 0.0
H1444 H 0.31034 0.07492 0.78134 0.0
H1445 H 0.36757 0.12217 0.77043 0.0
H1446 H 0.35982 0.10589 0.75406 0.0
H1447 H 0.36805 0.10588 0.77865 0.0
C1448 C 0.32619 0.06366 0.73052 0.0
C1449 C 0.3379 0.06051 0.73201 0.0
C1450 C 0.32479 0.07295 0.74501 0.0
C1451 C 0.33495 0.07911 0.76148 0.0
C1452 C 0.34609 0.07518 0.76368 0.0
H1453 H 0.32183 0.11512 0.87405 0.0
H1454 H 0.31981 0.09957 0.84473 0.0
C1455 C 0.34773 0.06621 0.74889 0.0
C1456 C 0.33389 0.08964 0.77624 0.0
H1457 H 0.35467 0.12319 0.80057 0.0
C1458 C 0.32002 0.08555 0.78536 0.0
C1459 C 0.34635 0.10378 0.7811 0.0
C1460 C 0.36122 0.10976 0.77034 0.0
C1461 C 0.3184 0.09488 0.79969 0.0
C1462 C 0.33115 0.10843 0.80585 0.0
C1463 C 0.34489 0.11276 0.79616 0.0
C1464 C 0.33081 0.11788 0.82306 0.0
C1465 C 0.30296 0.09015 0.80774 0.0
C1466 C 0.33779 0.13351 0.82097 0.0
C1467 C 0.33952 0.14256 0.83808 0.0
C1468 C 0.33422 0.13618 0.85766 0.0
C1469 C 0.32635 0.12049 0.85935 0.0
C1470 C 0.32492 0.1115 0.8424 0.0
H1471 H 0.29432 0.08349 0.796 0.0
H1472 H 0.30068 0.08292 0.8215 0.0
H1473 H 0.30179 0.0999 0.81214 0.0
H1474 H 0.34244 0.13876 0.80624 0.0
H1475 H 0.34574 0.15458 0.83617 0.0
H1476 H 0.95276 0.29462 0.74762 0.0
H1477 H 0.93833 0.27645 0.77444 0.0
H1478 H 0.96046 0.25157 0.76008 0.0
H1479 H 0.97494 0.26967 0.73308 0.0
H1480 H 0.92875 0.2339 0.762 0.0
H1481 H 0.95213 0.26994 0.83123 0.0
H1482 H 0.94598 0.27782 0.81145 0.0
H1483 H 0.96138 0.2748 0.80643 0.0
C1484 C 0.95474 0.28542 0.75032 0.0
C1485 C 0.96506 0.28366 0.73818 0.0
C1486 C 0.94649 0.27504 0.76571 0.0
C1487 C 0.94839 0.26271 0.76935 0.0
C1488 C 0.95884 0.26103 0.75755 0.0
H1489 H 0.90846 0.20599 0.87697 0.0
H1490 H 0.92564 0.21985 0.8488 0.0
C1491 C 0.96717 0.27145 0.74219 0.0
C1492 C 0.93898 0.25128 0.78491 0.0
H1493 H 0.92964 0.24678 0.83603 0.0
C1494 C 0.92902 0.23666 0.77823 0.0
C1495 C 0.93947 0.25485 0.80609 0.0
C1496 C 0.95041 0.27017 0.81432 0.0
C1497 C 0.91919 0.22563 0.7921 0.0
C1498 C 0.91924 0.22939 0.81314 0.0
C1499 C 0.92953 0.2439 0.81988 0.0
C1500 C 0.90849 0.2187 0.82846 0.0
C1501 C 0.90888 0.21007 0.78413 0.0
C1502 C 0.89305 0.21297 0.82613 0.0
C1503 C 0.88319 0.20496 0.84221 0.0
C1504 C 0.88863 0.2027 0.86096 0.0
C1505 C 0.90396 0.20763 0.86272 0.0
C1506 C 0.91379 0.21558 0.84667 0.0
H1507 H 0.9131 0.20789 0.76951 0.0
H1508 H 0.90744 0.20152 0.7957 0.0
H1509 H 0.89775 0.20879 0.78096 0.0
H1510 H 0.88872 0.21545 0.8124 0.0
H1511 H 0.87147 0.2015 0.84051 0.0
H1512 H 0.72749 0.66074 0.74178 0.0
H1513 H 0.74537 0.66412 0.76888 0.0
H1514 H 0.77059 0.71125 0.75552 0.0
H1515 H 0.7528 0.70801 0.72827 0.0
H1516 H 0.78805 0.69693 0.7574 0.0
H1517 H 0.75142 0.68408 0.82603 0.0
H1518 H 0.74373 0.67026 0.80592 0.0
H1519 H 0.74688 0.68875 0.80121 0.0
C1520 C 0.7367 0.67188 0.74476 0.0
C1521 C 0.73865 0.68411 0.73283 0.0
C1522 C 0.74691 0.67379 0.7603 0.0
C1523 C 0.75926 0.68795 0.76429 0.0
C1524 C 0.76112 0.70023 0.7527 0.0
H1525 H 0.8155 0.70577 0.8725 0.0
H1526 H 0.8016 0.70853 0.84389 0.0
C1527 C 0.75088 0.69836 0.7372 0.0
C1528 C 0.77051 0.6898 0.78002 0.0
H1529 H 0.77464 0.68504 0.83128 0.0
C1530 C 0.78518 0.69445 0.77359 0.0
C1531 C 0.76677 0.6867 0.80115 0.0
C1532 C 0.75138 0.6823 0.80909 0.0
C1533 C 0.7961 0.69568 0.78768 0.0
C1534 C 0.7922 0.69204 0.80868 0.0
C1535 C 0.77763 0.68777 0.81516 0.0
C1536 C 0.80284 0.69223 0.82427 0.0
C1537 C 0.81173 0.70094 0.77999 0.0
C1538 C 0.80861 0.68252 0.82247 0.0
C1539 C 0.81663 0.68096 0.83881 0.0
C1540 C 0.81886 0.68899 0.85727 0.0
C1541 C 0.81388 0.69938 0.85849 0.0
C1542 C 0.80591 0.70095 0.84218 0.0
H1543 H 0.81395 0.70711 0.76517 0.0
H1544 H 0.82017 0.70827 0.79154 0.0
H1545 H 0.81312 0.6911 0.77732 0.0
H1546 H 0.80617 0.67549 0.80895 0.0
H1547 H 0.82015 0.67273 0.83754 0.0
H1548 H 0.74579 0.69441 0.61912 0.0
H1549 H 0.76034 0.6911 0.59202 0.0
H1550 H 0.73794 0.64384 0.60457 0.0
H1551 H 0.72336 0.64702 0.63186 0.0
H1552 H 0.76957 0.65761 0.60227 0.0
H1553 H 0.74612 0.67189 0.53467 0.0
H1554 H 0.75261 0.68556 0.55499 0.0
H1555 H 0.73704 0.66718 0.55958 0.0
C1556 C 0.7438 0.68327 0.61601 0.0
C1557 C 0.73333 0.67098 0.62768 0.0
C1558 C 0.75212 0.6814 0.60045 0.0
C1559 C 0.75015 0.66721 0.59617 0.0
C1560 C 0.73962 0.65488 0.6076 0.0
H1561 H 0.78719 0.64946 0.48637 0.0
H1562 H 0.77082 0.64697 0.51524 0.0
C1563 C 0.73124 0.65672 0.62313 0.0
C1564 C 0.75939 0.66535 0.58017 0.0
H1565 H 0.76814 0.67056 0.52886 0.0
C1566 C 0.7692 0.66033 0.58618 0.0
C1567 C 0.75877 0.66875 0.55916 0.0
C1568 C 0.74798 0.67351 0.55162 0.0
C1569 C 0.77869 0.65901 0.57181 0.0
C1570 C 0.77846 0.66295 0.55094 0.0
C1571 C 0.76838 0.66761 0.54488 0.0
C1572 C 0.78868 0.66261 0.53505 0.0
C1573 C 0.7888 0.65331 0.57905 0.0
C1574 C 0.80424 0.67188 0.53682 0.0
C1575 C 0.81364 0.67326 0.52033 0.0
C1576 C 0.80762 0.66553 0.50174 0.0
C1577 C 0.79214 0.65561 0.50048 0.0
C1578 C 0.78277 0.6542 0.51694 0.0
H1579 H 0.78475 0.64694 0.59372 0.0
H1580 H 0.7897 0.64602 0.5672 0.0
H1581 H 0.80014 0.66294 0.58186 0.0
H1582 H 0.80904 0.67868 0.55048 0.0
H1583 H 0.8255 0.68114 0.52163 0.0
H1584 H 0.37717 0.08345 0.63612 0.0
H1585 H 0.3797 0.10186 0.61016 0.0
H1586 H 0.33408 0.07291 0.59126 0.0
H1587 H 0.33137 0.05457 0.61712 0.0
H1588 H 0.37512 0.10011 0.56638 0.0
H1589 H 0.33526 0.11204 0.60758 0.0
H1590 H 0.34361 0.10218 0.61952 0.0
H1591 H 0.32785 0.09251 0.6025 0.0
C1592 C 0.36773 0.0809 0.62626 0.0
C1593 C 0.35401 0.06757 0.62889 0.0
C1594 C 0.36919 0.09147 0.61148 0.0
C1595 C 0.35696 0.0889 0.59915 0.0
C1596 C 0.34355 0.07528 0.60097 0.0
H1597 H 0.3294 0.12151 0.5 0.0
H1598 H 0.33332 0.10955 0.52999 0.0
C1599 C 0.34206 0.06475 0.61569 0.0
C1600 C 0.35793 0.1005 0.58468 0.0
H1601 H 0.34075 0.1204 0.57248 0.0
C1602 C 0.36782 0.10478 0.56787 0.0
C1603 C 0.3485 0.10669 0.5868 0.0
C1604 C 0.33831 0.10325 0.60519 0.0
C1605 C 0.3678 0.11434 0.5524 0.0
C1606 C 0.35776 0.11984 0.55397 0.0
C1607 C 0.34842 0.11614 0.5713 0.0
C1608 C 0.35545 0.12788 0.53668 0.0
C1609 C 0.37791 0.11785 0.53392 0.0
C1610 C 0.36648 0.14236 0.53081 0.0
C1611 C 0.3642 0.1493 0.51365 0.0
C1612 C 0.35094 0.14177 0.50212 0.0
C1613 C 0.33978 0.12751 0.50853 0.0
C1614 C 0.34199 0.12068 0.52566 0.0
H1615 H 0.38387 0.1114 0.53397 0.0
H1616 H 0.37136 0.11536 0.51941 0.0
H1617 H 0.38634 0.12993 0.53391 0.0
H1618 H 0.37688 0.14817 0.5393 0.0
H1619 H 0.37298 0.16028 0.50897 0.0
H1620 H 0.97244 0.28111 0.62168 0.0
H1621 H 0.9553 0.2647 0.59514 0.0
H1622 H 0.92248 0.27636 0.61441 0.0
H1623 H 0.93974 0.29313 0.64069 0.0
H1624 H 0.92837 0.24018 0.60129 0.0
H1625 H 0.92153 0.28056 0.5526 0.0
H1626 H 0.93608 0.28644 0.57176 0.0
H1627 H 0.91732 0.28102 0.57941 0.0
C1628 C 0.96168 0.2804 0.62007 0.0
C1629 C 0.9575 0.28849 0.63331 0.0
C1630 C 0.95186 0.27095 0.60492 0.0
C1631 C 0.93762 0.26934 0.60264 0.0
C1632 C 0.93351 0.27763 0.61555 0.0
H1633 H 0.86442 0.21083 0.51905 0.0
H1634 H 0.87806 0.22582 0.5494 0.0
C1635 C 0.94339 0.2872 0.63062 0.0
C1636 C 0.9269 0.25838 0.58752 0.0
H1637 H 0.90587 0.25489 0.54488 0.0
C1638 C 0.92345 0.24342 0.58897 0.0
C1639 C 0.92039 0.26256 0.5715 0.0
C1640 C 0.9241 0.27854 0.56855 0.0
C1641 C 0.91385 0.2326 0.57475 0.0
C1642 C 0.90755 0.23683 0.5586 0.0
C1643 C 0.91066 0.25168 0.5574 0.0
C1644 C 0.8987 0.22634 0.54182 0.0
C1645 C 0.91054 0.2167 0.57703 0.0
C1646 C 0.90573 0.22151 0.52776 0.0
C1647 C 0.89802 0.21305 0.51049 0.0
C1648 C 0.8831 0.20922 0.507 0.0
C1649 C 0.87585 0.21348 0.52156 0.0
C1650 C 0.88364 0.22211 0.53877 0.0
H1651 H 0.91321 0.21448 0.59279 0.0
H1652 H 0.8986 0.20869 0.57367 0.0
H1653 H 0.91741 0.21462 0.5658 0.0
H1654 H 0.91739 0.2248 0.5297 0.0
H1655 H 0.90387 0.20995 0.49944 0.0
H1656 H 0.37301 0.29765 0.62741 0.0
H1657 H 0.3727 0.28061 0.60076 0.0
H1658 H 0.32627 0.26536 0.5887 0.0
H1659 H 0.32639 0.28221 0.61536 0.0
H1660 H 0.35025 0.24686 0.60117 0.0
H1661 H 0.34911 0.27707 0.5307 0.0
H1662 H 0.35652 0.28644 0.55507 0.0
H1663 H 0.33671 0.27533 0.55141 0.0
C1664 C 0.36279 0.29085 0.61887 0.0
C1665 C 0.34972 0.29132 0.62352 0.0
C1666 C 0.36262 0.28106 0.60375 0.0
C1667 C 0.34947 0.27176 0.59279 0.0
C1668 C 0.33655 0.27252 0.59693 0.0
H1669 H 0.3229 0.20838 0.49285 0.0
H1670 H 0.32412 0.22446 0.52144 0.0
C1671 C 0.33665 0.28216 0.61218 0.0
C1672 C 0.34899 0.26082 0.57754 0.0
H1673 H 0.34533 0.25278 0.52603 0.0
C1674 C 0.34927 0.24815 0.58471 0.0
C1675 C 0.34763 0.26254 0.55616 0.0
C1676 C 0.34756 0.27611 0.54773 0.0
C1677 C 0.34779 0.23689 0.57103 0.0
C1678 C 0.34638 0.23858 0.54957 0.0
C1679 C 0.34634 0.25142 0.54246 0.0
C1680 C 0.34473 0.22718 0.53408 0.0
C1681 C 0.34725 0.22311 0.57979 0.0
C1682 C 0.35566 0.22296 0.53196 0.0
C1683 C 0.35481 0.21352 0.51579 0.0
C1684 C 0.34316 0.20838 0.5013 0.0
C1685 C 0.33195 0.21215 0.50389 0.0
C1686 C 0.3327 0.2214 0.52014 0.0
H1687 H 0.34407 0.22156 0.59638 0.0
H1688 H 0.3392 0.21294 0.57119 0.0
H1689 H 0.35849 0.22427 0.57852 0.0
H1690 H 0.36523 0.22751 0.54218 0.0
H1691 H 0.36371 0.21098 0.51388 0.0
H1692 H 0.71982 0.08113 0.6286 0.0
H1693 H 0.73441 0.09902 0.60146 0.0
H1694 H 0.75716 0.07449 0.5889 0.0
H1695 H 0.74262 0.05651 0.61588 0.0
H1696 H 0.76613 0.11698 0.59992 0.0
H1697 H 0.74347 0.08001 0.53138 0.0
H1698 H 0.73407 0.07537 0.55608 0.0
H1699 H 0.74969 0.0726 0.55172 0.0
C1700 C 0.72776 0.07939 0.61987 0.0
C1701 C 0.72999 0.06732 0.62442 0.0
C1702 C 0.73615 0.08968 0.60443 0.0
C1703 C 0.7468 0.08803 0.59308 0.0
C1704 C 0.74885 0.07586 0.59728 0.0
H1705 H 0.8231 0.14999 0.52082 0.0
H1706 H 0.80619 0.13568 0.54909 0.0
C1707 C 0.74053 0.0656 0.61276 0.0
C1708 C 0.75619 0.09932 0.57737 0.0
H1709 H 0.76555 0.10343 0.52625 0.0
C1710 C 0.76594 0.11407 0.58377 0.0
C1711 C 0.75581 0.09554 0.55629 0.0
C1712 C 0.74511 0.08006 0.54836 0.0
C1713 C 0.77562 0.12504 0.56973 0.0
C1714 C 0.77564 0.1211 0.5488 0.0
C1715 C 0.7656 0.10644 0.54233 0.0
C1716 C 0.78611 0.13182 0.53327 0.0
C1717 C 0.78568 0.14075 0.57739 0.0
C1718 C 0.78051 0.13467 0.51515 0.0
C1719 C 0.79014 0.14282 0.49902 0.0
C1720 C 0.80558 0.14822 0.50061 0.0
C1721 C 0.81129 0.14614 0.51925 0.0
C1722 C 0.80162 0.13794 0.53541 0.0
H1723 H 0.78149 0.14292 0.59204 0.0
H1724 H 0.79698 0.14239 0.58037 0.0
H1725 H 0.78675 0.14909 0.5657 0.0
H1726 H 0.7686 0.13008 0.51317 0.0
H1727 H 0.78543 0.14432 0.48489 0.0
H1728 H 0.9435 0.64978 0.6312 0.0
H1729 H 0.92676 0.64988 0.60442 0.0
H1730 H 0.95799 0.6962 0.59171 0.0
H1731 H 0.97473 0.69628 0.61845 0.0
H1732 H 0.9152 0.67173 0.60428 0.0
H1733 H 0.9471 0.6736 0.53406 0.0
H1734 H 0.94931 0.66653 0.55855 0.0
H1735 H 0.95767 0.68629 0.55455 0.0
C1736 C 0.94693 0.65992 0.62248 0.0
C1737 C 0.96048 0.67302 0.62697 0.0
C1738 C 0.9373 0.65997 0.60729 0.0
C1739 C 0.94117 0.67304 0.5961 0.0
C1740 C 0.95486 0.68598 0.60009 0.0
H1741 H 0.90504 0.7005 0.49671 0.0
H1742 H 0.91954 0.69895 0.5255 0.0
C1743 C 0.96441 0.686 0.6154 0.0
C1744 C 0.9307 0.67342 0.58078 0.0
H1745 H 0.92673 0.67764 0.52932 0.0
C1746 C 0.91761 0.67291 0.58785 0.0
C1747 C 0.93396 0.67503 0.55944 0.0
C1748 C 0.94771 0.6753 0.55106 0.0
C1749 C 0.9079 0.67444 0.57414 0.0
C1750 C 0.91122 0.67618 0.55275 0.0
C1751 C 0.9242 0.6764 0.54572 0.0
C1752 C 0.90161 0.67801 0.53725 0.0
C1753 C 0.89449 0.67472 0.58281 0.0
C1754 C 0.88654 0.667 0.5346 0.0
C1755 C 0.87815 0.66803 0.51832 0.0
C1756 C 0.88479 0.67995 0.50426 0.0
C1757 C 0.89966 0.69124 0.50742 0.0
C1758 C 0.90796 0.69031 0.52378 0.0
H1759 H 0.89587 0.67757 0.59952 0.0
H1760 H 0.89244 0.6829 0.57447 0.0
H1761 H 0.88447 0.66348 0.58105 0.0
H1762 H 0.88146 0.65725 0.54447 0.0
H1763 H 0.86678 0.65907 0.51596 0.0
H1764 H 0.96863 0.70103 0.72851 0.0
H1765 H 0.95151 0.7007 0.75505 0.0
H1766 H 0.93658 0.65437 0.76747 0.0
H1767 H 0.95352 0.65453 0.74097 0.0
H1768 H 0.91834 0.67909 0.7548 0.0
H1769 H 0.94753 0.67629 0.82533 0.0
H1770 H 0.95704 0.68341 0.80098 0.0
H1771 H 0.94544 0.66365 0.80477 0.0
C1772 C 0.96189 0.69084 0.73711 0.0
C1773 C 0.96248 0.67781 0.73261 0.0
C1774 C 0.95205 0.69065 0.75218 0.0
C1775 C 0.94282 0.67752 0.76323 0.0
C1776 C 0.94369 0.66464 0.75921 0.0
H1777 H 0.87829 0.64977 0.86172 0.0
H1778 H 0.89443 0.65124 0.83309 0.0
C1779 C 0.95339 0.66477 0.74404 0.0
C1780 C 0.93183 0.67701 0.77842 0.0
H1781 H 0.9231 0.6723 0.82973 0.0
C1782 C 0.91939 0.67772 0.77122 0.0
C1783 C 0.93323 0.67513 0.79976 0.0
C1784 C 0.94657 0.67468 0.8083 0.0
C1785 C 0.90804 0.67615 0.78479 0.0
C1786 C 0.90938 0.67417 0.80618 0.0
C1787 C 0.922 0.67372 0.81334 0.0
C1788 C 0.89787 0.67239 0.82154 0.0
C1789 C 0.89452 0.67612 0.77597 0.0
C1790 C 0.89402 0.68354 0.82425 0.0
C1791 C 0.88457 0.68257 0.84045 0.0
C1792 C 0.87903 0.67056 0.8544 0.0
C1793 C 0.88238 0.65912 0.85114 0.0
C1794 C 0.89167 0.66 0.83486 0.0
H1795 H 0.89317 0.67338 0.75921 0.0
H1796 H 0.88417 0.66796 0.78413 0.0
H1797 H 0.89587 0.6874 0.77783 0.0
H1798 H 0.8989 0.69337 0.8145 0.0
H1799 H 0.88236 0.69167 0.84287 0.0
H1800 H 0.32217 0.27266 0.72571 0.0
H1801 H 0.32221 0.25611 0.75282 0.0
H1802 H 0.36879 0.28689 0.76456 0.0
H1803 H 0.36894 0.30344 0.73746 0.0
H1804 H 0.34408 0.24419 0.75321 0.0
H1805 H 0.34615 0.27706 0.82253 0.0
H1806 H 0.33889 0.27886 0.79796 0.0
H1807 H 0.35866 0.28723 0.80168 0.0
C1808 C 0.33237 0.27603 0.73426 0.0
C1809 C 0.34555 0.2894 0.72941 0.0
C1810 C 0.33239 0.26651 0.74965 0.0
C1811 C 0.3455 0.2703 0.76067 0.0
C1812 C 0.35854 0.28381 0.75629 0.0
H1813 H 0.37132 0.23423 0.86221 0.0
H1814 H 0.37038 0.24875 0.833 0.0
C1815 C 0.35859 0.29325 0.74079 0.0
C1816 C 0.34578 0.25997 0.77629 0.0
H1817 H 0.34953 0.25637 0.82799 0.0
C1818 C 0.34517 0.24675 0.7696 0.0
C1819 C 0.34729 0.26343 0.79757 0.0
C1820 C 0.34769 0.27736 0.80551 0.0
C1821 C 0.34646 0.23708 0.78365 0.0
C1822 C 0.34804 0.24056 0.805 0.0
C1823 C 0.3484 0.2537 0.81164 0.0
C1824 C 0.3495 0.23094 0.82086 0.0
C1825 C 0.34664 0.22351 0.77539 0.0
C1826 C 0.33832 0.21593 0.82348 0.0
C1827 C 0.339 0.20753 0.84001 0.0
C1828 C 0.35073 0.2141 0.85438 0.0
C1829 C 0.36219 0.22891 0.85129 0.0
C1830 C 0.3616 0.23722 0.83468 0.0
H1831 H 0.34973 0.22478 0.75877 0.0
H1832 H 0.35459 0.22134 0.78414 0.0
H1833 H 0.33531 0.2136 0.77694 0.0
H1834 H 0.3287 0.21091 0.81334 0.0
H1835 H 0.32991 0.19622 0.84228 0.0
H1836 H 0.75403 0.05802 0.72295 0.0
H1837 H 0.77113 0.07508 0.74916 0.0
H1838 H 0.73823 0.08701 0.76693 0.0
H1839 H 0.72125 0.07031 0.74048 0.0
H1840 H 0.76525 0.11145 0.76051 0.0
H1841 H 0.77174 0.07176 0.81122 0.0
H1842 H 0.77606 0.0709 0.78457 0.0
H1843 H 0.75727 0.06562 0.79188 0.0
C1844 C 0.75033 0.06407 0.73269 0.0
C1845 C 0.73625 0.06277 0.7296 0.0
C1846 C 0.76012 0.07381 0.74772 0.0
C1847 C 0.75594 0.08226 0.76017 0.0
C1848 C 0.74172 0.08063 0.75751 0.0
H1849 H 0.78951 0.14378 0.86135 0.0
H1850 H 0.77607 0.1284 0.83143 0.0
C1851 C 0.732 0.07102 0.74241 0.0
C1852 C 0.76659 0.09344 0.77517 0.0
H1853 H 0.78733 0.09753 0.81837 0.0
C1854 C 0.77007 0.10839 0.77315 0.0
C1855 C 0.77298 0.08949 0.7916 0.0
C1856 C 0.76924 0.07355 0.79512 0.0
C1857 C 0.77961 0.11942 0.7872 0.0
C1858 C 0.78579 0.11541 0.80378 0.0
C1859 C 0.78263 0.10057 0.80554 0.0
C1860 C 0.7946 0.12616 0.82035 0.0
C1861 C 0.783 0.13528 0.78425 0.0
C1862 C 0.80956 0.13018 0.82389 0.0
C1863 C 0.81731 0.13909 0.84092 0.0
C1864 C 0.81012 0.14388 0.85484 0.0
C1865 C 0.79532 0.14027 0.85082 0.0
C1866 C 0.78765 0.13151 0.83373 0.0
H1867 H 0.78058 0.13729 0.76822 0.0
H1868 H 0.77596 0.13753 0.79494 0.0
H1869 H 0.79489 0.14333 0.78783 0.0
H1870 H 0.81509 0.12609 0.8138 0.0
H1871 H 0.82864 0.14155 0.84382 0.0
H1872 H 0.07988 0.39571 0.02387 0.0
H1873 H 0.09956 0.39056 0.03428 0.0
H1874 H 0.06767 0.34336 0.03528 0.0
H1875 H 0.04788 0.34841 0.02456 0.0
H1876 H 0.10038 0.37737 0.07034 0.0
H1877 H 0.10246 0.34448 0.00405 0.0
H1878 H 0.09324 0.35538 0.00264 0.0
H1879 H 0.0841 0.3373 0.01472 0.0
C1880 C 0.07705 0.3842 0.02603 0.0
C1881 C 0.06227 0.37246 0.02337 0.0
C1882 C 0.08835 0.38128 0.03199 0.0
C1883 C 0.08518 0.36657 0.03533 0.0
C1884 C 0.07049 0.35479 0.03236 0.0
H1885 H 0.12648 0.32306 0.09518 0.0
H1886 H 0.11193 0.3301 0.07286 0.0
C1887 C 0.05915 0.3577 0.02635 0.0
C1888 C 0.097 0.36372 0.04351 0.0
H1889 H 0.11523 0.34428 0.03475 0.0
C1890 C 0.10377 0.37029 0.06242 0.0
C1891 C 0.10141 0.35446 0.0332 0.0
C1892 C 0.09504 0.3476 0.01243 0.0
C1893 C 0.11438 0.36744 0.07167 0.0
C1894 C 0.11864 0.35799 0.06154 0.0
C1895 C 0.11207 0.35162 0.04243 0.0
C1896 C 0.12877 0.35351 0.07157 0.0
C1897 C 0.12043 0.37403 0.09271 0.0
C1898 C 0.14343 0.36418 0.07736 0.0
C1899 C 0.15181 0.36014 0.09013 0.0
C1900 C 0.14564 0.34537 0.09722 0.0
C1901 C 0.13149 0.33452 0.08993 0.0
C1902 C 0.12316 0.33854 0.0772 0.0
H1903 H 0.11374 0.37844 0.10019 0.0
H1904 H 0.12059 0.36556 0.10308 0.0
H1905 H 0.13205 0.38341 0.09105 0.0
H1906 H 0.1481 0.37575 0.07286 0.0
H1907 H 0.16263 0.36873 0.09564 0.0
H1908 H 0.6251 0.68439 0.03161 0.0
H1909 H 0.6304 0.70947 0.04097 0.0
H1910 H 0.67765 0.72553 0.03664 0.0
H1911 H 0.67244 0.70044 0.02695 0.0
H1912 H 0.64561 0.72528 0.07503 0.0
H1913 H 0.67386 0.75732 0.00443 0.0
H1914 H 0.66324 0.73716 0.00486 0.0
H1915 H 0.68201 0.74692 0.01478 0.0
C1916 C 0.63664 0.69327 0.03241 0.0
C1917 C 0.64835 0.69038 0.02851 0.0
C1918 C 0.63964 0.70763 0.03777 0.0
C1919 C 0.65441 0.71947 0.03925 0.0
C1920 C 0.66615 0.71667 0.03514 0.0
H1921 H 0.69972 0.80683 0.09188 0.0
H1922 H 0.69193 0.78449 0.0708 0.0
C1923 C 0.66316 0.70229 0.02974 0.0
C1924 C 0.65747 0.73441 0.04657 0.0
H1925 H 0.67561 0.77161 0.03445 0.0
C1926 C 0.652 0.73538 0.06603 0.0
C1927 C 0.66584 0.74761 0.03486 0.0
C1928 C 0.67147 0.74724 0.01348 0.0
C1929 C 0.65511 0.74919 0.07443 0.0
C1930 C 0.66367 0.76243 0.06286 0.0
C1931 C 0.66894 0.76146 0.04324 0.0
C1932 C 0.6684 0.77742 0.07183 0.0
C1933 C 0.64976 0.74952 0.09604 0.0
C1934 C 0.65786 0.78138 0.07841 0.0
C1935 C 0.66232 0.79424 0.09044 0.0
C1936 C 0.67739 0.80332 0.09595 0.0
C1937 C 0.68803 0.80004 0.08776 0.0
C1938 C 0.68358 0.78724 0.07578 0.0
H1939 H 0.64606 0.73884 0.10437 0.0
H1940 H 0.65872 0.75873 0.1052 0.0
H1941 H 0.64014 0.75146 0.0952 0.0
H1942 H 0.64609 0.7741 0.07522 0.0
H1943 H 0.6539 0.79644 0.09672 0.0
H1944 H 0.33866 0.94851 0.03467 0.0
H1945 H 0.31348 0.92882 0.04365 0.0
H1946 H 0.29722 0.95962 0.03569 0.0
H1947 H 0.32253 0.97954 0.027 0.0
H1948 H 0.2879 0.94434 0.07184 0.0
H1949 H 0.27694 0.90415 0.0084 0.0
H1950 H 0.29399 0.90935 0.02195 0.0
H1951 H 0.29213 0.92323 0.00756 0.0
C1952 C 0.32972 0.9511 0.0346 0.0
C1953 C 0.33265 0.96564 0.03007 0.0
C1954 C 0.31527 0.93975 0.03959 0.0
C1955 C 0.30334 0.94261 0.03999 0.0
C1956 C 0.3062 0.95709 0.03532 0.0
H1957 H 0.21162 0.89128 0.08472 0.0
H1958 H 0.23364 0.9082 0.06425 0.0
C1959 C 0.32068 0.96848 0.03035 0.0
C1960 C 0.28818 0.9308 0.04676 0.0
H1961 H 0.26039 0.89487 0.03746 0.0
C1962 C 0.28182 0.9336 0.06415 0.0
C1963 C 0.28024 0.91671 0.03683 0.0
C1964 C 0.2861 0.9132 0.01753 0.0
C1965 C 0.26802 0.92264 0.07219 0.0
C1966 C 0.26016 0.90851 0.06241 0.0
C1967 C 0.26641 0.9057 0.04492 0.0
C1968 C 0.24564 0.8965 0.07068 0.0
C1969 C 0.26216 0.92613 0.09154 0.0
C1970 C 0.24467 0.88375 0.07992 0.0
C1971 C 0.23198 0.87392 0.09135 0.0
C1972 C 0.22005 0.87669 0.09356 0.0
C1973 C 0.22055 0.88876 0.08289 0.0
C1974 C 0.2332 0.89853 0.07144 0.0
H1975 H 0.27097 0.93617 0.09964 0.0
H1976 H 0.25301 0.9283 0.08736 0.0
H1977 H 0.25758 0.91654 0.10241 0.0
H1978 H 0.25415 0.88197 0.07953 0.0
H1979 H 0.232 0.86491 0.09985 0.0
H1980 H 0.35493 0.04584 0.00127 0.0
H1981 H 0.35018 0.06577 0.99007 0.0
H1982 H 0.39743 0.09735 0.99173 0.0
H1983 H 0.40229 0.07756 0.00261 0.0
H1984 H 0.35761 0.09399 0.00777 0.0
H1985 H 0.38578 0.10054 0.93222 0.0
H1986 H 0.3806 0.0847 0.94887 0.0
H1987 H 0.39701 0.10232 0.95437 0.0
C1988 C 0.3643 0.05704 -0.00063 0.0
C1989 C 0.379 0.06005 0.00264 0.0
C1990 C 0.36157 0.06843 0.993 0.0
C1991 C 0.37347 0.083 0.98972 0.0
C1992 C 0.38809 0.08614 0.99376 0.0
H1993 H 0.37567 0.15962 0.92856 0.0
H1994 H 0.38278 0.14513 0.95131 0.0
C1995 C 0.39084 0.07479 6e-05 0.0
C1996 C 0.37069 0.09481 0.98139 0.0
H1997 H 0.37753 0.11755 0.93963 0.0
C1998 C 0.36199 0.09918 0.99289 0.0
C1999 C 0.37646 0.10163 0.96201 0.0
C2000 C 0.38537 0.097 0.94852 0.0
C2001 C 0.3589 0.11017 0.98554 0.0
C2002 C 0.36447 0.11681 0.966 0.0
C2003 C 0.37339 0.11261 0.9547 0.0
C2004 C 0.36013 0.12705 0.95599 0.0
C2005 C 0.34977 0.11463 -0.00119 0.0
C2006 C 0.34504 0.12197 0.95158 0.0
C2007 C 0.34102 0.13025 0.93875 0.0
C2008 C 0.35199 0.14379 0.93003 0.0
C2009 C 0.36701 0.14938 0.93545 0.0
C2010 C 0.37105 0.14104 0.94827 0.0
H2011 H 0.35069 0.11254 0.01543 0.0
H2012 H 0.35331 0.12661 0.99674 0.0
H2013 H 0.33783 0.10784 0.99436 0.0
H2014 H 0.33642 0.1111 0.95687 0.0
H2015 H 0.32939 0.12559 0.93449 0.0
H2016 H 0.98085 0.31637 0.99752 0.0
H2017 H 0.96046 0.29151 0.9878 0.0
H2018 H 0.92978 0.30829 0.98699 0.0
H2019 H 0.95003 0.33312 0.99642 0.0
H2020 H 0.93221 0.27195 0.00652 0.0
H2021 H 0.92562 0.29079 0.92885 0.0
H2022 H 0.9417 0.30185 0.94496 0.0
H2023 H 0.92436 0.30135 0.95003 0.0
C2024 C 0.96975 0.31475 0.99538 0.0
C2025 C 0.96713 0.3268 0.99757 0.0
C2026 C 0.95809 0.30052 0.98985 0.0
C2027 C 0.94362 0.29808 0.98633 0.0
C2028 C 0.94089 0.30996 0.98922 0.0
H2029 H 0.86567 0.22248 0.92926 0.0
H2030 H 0.88066 0.24478 0.9506 0.0
C2031 C 0.9525 0.32416 0.9947 0.0
C2032 C 0.9315 0.28327 0.979 0.0
H2033 H 0.90827 0.266 0.93807 0.0
C2034 C 0.92694 0.27064 0.99158 0.0
C2035 C 0.92457 0.28155 0.95953 0.0
C2036 C 0.92936 0.29456 0.94494 0.0
C2037 C 0.91564 0.25637 0.98521 0.0
C2038 C 0.90889 0.25463 0.96559 0.0
C2039 C 0.9133 0.26731 0.9532 0.0
C2040 C 0.89825 0.23971 0.95666 0.0
C2041 C 0.91099 0.24333 -0.00036 0.0
C2042 C 0.90283 0.22915 0.95356 0.0
C2043 C 0.89423 0.21641 0.94157 0.0
C2044 C 0.88088 0.21396 0.93233 0.0
C2045 C 0.87574 0.22395 0.93656 0.0
C2046 C 0.8844 0.23676 0.94856 0.0
H2047 H 0.91322 0.24705 0.01602 0.0
H2048 H 0.89894 0.23499 -0.00208 0.0
H2049 H 0.91755 0.23778 0.99604 0.0
H2050 H 0.91359 0.23126 0.95916 0.0
H2051 H 0.89857 0.20902 0.93822 0.0
H2052 H 0.70576 0.66931 0.00282 0.0
H2053 H 0.73112 0.67565 0.99273 0.0
H2054 H 0.7158 0.62913 0.98088 0.0
H2055 H 0.69057 0.62269 0.99133 0.0
H2056 H 0.74303 0.64304 0.00086 0.0
H2057 H 0.74384 0.67642 0.93318 0.0
H2058 H 0.74034 0.68263 0.95735 0.0
H2059 H 0.72699 0.66454 0.9474 0.0
C2060 C 0.7078 0.66043 -0.00184 0.0
C2061 C 0.69608 0.64551 -0.00227 0.0
C2062 C 0.7223 0.66407 0.99229 0.0
C2063 C 0.72534 0.65289 0.98568 0.0
C2064 C 0.71375 0.63796 0.98584 0.0
H2065 H 0.79762 0.64807 0.92541 0.0
H2066 H 0.77581 0.64245 0.94683 0.0
C2067 C 0.69929 0.6343 0.99178 0.0
C2068 C 0.74044 0.65672 0.97801 0.0
H2069 H 0.76605 0.67615 0.94035 0.0
C2070 C 0.74809 0.65031 0.98766 0.0
C2071 C 0.74702 0.66613 0.96069 0.0
C2072 C 0.73909 0.67273 0.9489 0.0
C2073 C 0.76218 0.65319 0.9806 0.0
C2074 C 0.76872 0.66258 0.96327 0.0
C2075 C 0.76111 0.66905 0.95374 0.0
C2076 C 0.78319 0.66557 0.95413 0.0
C2077 C 0.77 0.64628 0.99185 0.0
C2078 C 0.79479 0.68037 0.95154 0.0
C2079 C 0.8072 0.68355 0.93934 0.0
C2080 C 0.80829 0.672 0.92954 0.0
C2081 C 0.79722 0.65712 0.93326 0.0
C2082 C 0.78473 0.65393 0.94544 0.0
H2083 H 0.76564 0.64291 0.00781 0.0
H2084 H 0.76812 0.63614 0.98341 0.0
H2085 H 0.78223 0.65415 0.99262 0.0
H2086 H 0.79384 0.68953 0.95799 0.0
H2087 H 0.81545 0.69511 0.93635 0.0
H2088 H 0.98394 0.67397 0.00178 0.0
H2089 H 0.96549 0.68126 0.99224 0.0
H2090 H 0.93075 0.635 0.99306 0.0
H2091 H 0.94896 0.62768 0.00286 0.0
H2092 H 0.94861 0.6732 0.9573 0.0
H2093 H 0.91103 0.65405 0.02508 0.0
H2094 H 0.92938 0.65599 0.02559 0.0
H2095 H 0.91381 0.63954 0.01467 0.0
C2096 C 0.97233 0.66538 0.00024 0.0
C2097 C 0.96794 0.65024 0.00313 0.0
C2098 C 0.9618 0.66956 0.99478 0.0
C2099 C 0.94666 0.65871 0.99227 0.0
C2100 C 0.94226 0.64363 0.99543 0.0
H2101 H 0.86884 0.64735 0.93149 0.0
H2102 H 0.88683 0.64575 0.95451 0.0
C2103 C 0.95274 0.63944 0.00087 0.0
C2104 C 0.93565 0.66291 0.98463 0.0
H2105 H 0.90093 0.65813 0.9938 0.0
C2106 C 0.93831 0.67016 0.96547 0.0
C2107 C 0.92218 0.65891 0.99525 0.0
C2108 C 0.91899 0.65183 0.01639 0.0
C2109 C 0.92759 0.67285 0.95617 0.0
C2110 C 0.91391 0.6684 0.96647 0.0
C2111 C 0.91142 0.66156 0.98593 0.0
C2112 C 0.90166 0.66966 0.95637 0.0
C2113 C 0.9307 0.67975 0.93489 0.0
C2114 C 0.90359 0.68365 0.95071 0.0
C2115 C 0.89323 0.68455 0.9377 0.0
C2116 C 0.88074 0.67149 0.93037 0.0
C2117 C 0.87822 0.65756 0.93735 0.0
C2118 C 0.88855 0.65665 0.95035 0.0
H2119 H 0.94046 0.67988 0.92748 0.0
H2120 H 0.92083 0.67358 0.92468 0.0
H2121 H 0.93312 0.69146 0.9361 0.0
H2122 H 0.91353 0.69383 0.95537 0.0
H2123 H 0.89555 0.69539 0.93214 0.0
H2124 H 0.39422 0.32803 0.00096 0.0
H2125 H 0.38669 0.30247 0.99073 0.0
H2126 H 0.34045 0.29095 0.99222 0.0
H2127 H 0.34792 0.31665 0.00218 0.0
H2128 H 0.36806 0.27448 0.00874 0.0
H2129 H 0.34563 0.28004 0.93325 0.0
H2130 H 0.357 0.29591 0.94954 0.0
H2131 H 0.33763 0.28368 0.95559 0.0
C2132 C 0.38243 0.32006 -0.00074 0.0
C2133 C 0.37168 0.32446 0.00221 0.0
C2134 C 0.37814 0.30541 0.99345 0.0
C2135 C 0.36302 0.29482 0.99038 0.0
C2136 C 0.3522 0.29899 0.99412 0.0
H2137 H 0.32545 0.20841 0.92831 0.0
H2138 H 0.3275 0.22814 0.9515 0.0
C2139 C 0.35649 0.31368 -8e-05 0.0
C2140 C 0.35878 0.27969 0.98239 0.0
H2141 H 0.34388 0.25696 0.94035 0.0
C2142 C 0.36267 0.27059 0.99385 0.0
C2143 C 0.35176 0.2746 0.96295 0.0
C2144 C 0.34786 0.28408 0.94948 0.0
C2145 C 0.35982 0.25661 0.98634 0.0
C2146 C 0.35312 0.25169 0.96668 0.0
C2147 C 0.34892 0.26065 0.95547 0.0
C2148 C 0.35127 0.23789 0.95661 0.0
C2149 C 0.36399 0.24724 -0.00045 0.0
C2150 C 0.36381 0.23641 0.95234 0.0
C2151 C 0.36258 0.225 0.93933 0.0
C2152 C 0.3488 0.21491 0.93033 0.0
C2153 C 0.3361 0.21582 0.93554 0.0
C2154 C 0.33731 0.22719 0.9486 0.0
H2155 H 0.36427 0.25001 0.0162 0.0
H2156 H 0.35604 0.23513 0.99737 0.0
H2157 H 0.37531 0.24952 0.99515 0.0
H2158 H 0.37477 0.2447 0.95784 0.0
H2159 H 0.3726 0.22479 0.935 0.0
H2160 H 0.70601 0.03687 -0.00034 0.0
H2161 H 0.73165 0.056 0.99083 0.0
H2162 H 0.718 0.08911 0.98764 0.0
H2163 H 0.69254 0.07022 0.99674 0.0
H2164 H 0.74112 0.07238 0.95553 0.0
H2165 H 0.75557 0.11092 0.02188 0.0
H2166 H 0.73969 0.09221 0.0222 0.0
H2167 H 0.73841 0.10713 0.0098 0.0
C2168 C 0.70852 0.04827 0.99737 0.0
C2169 C 0.6972 0.05199 -0.00102 0.0
C2170 C 0.72319 0.0592 0.9923 0.0
C2171 C 0.72687 0.07409 0.98891 0.0
C2172 C 0.71559 0.07783 0.99071 0.0
H2173 H 0.79393 0.15266 0.92961 0.0
H2174 H 0.7737 0.13437 0.95154 0.0
C2175 C 0.70097 0.06694 0.99576 0.0
C2176 C 0.74215 0.08552 0.98194 0.0
H2177 H 0.77081 0.12095 0.99149 0.0
C2178 C 0.74773 0.08288 0.9636 0.0
C2179 C 0.75081 0.09927 0.99242 0.0
C2180 C 0.74588 0.10251 0.01278 0.0
C2181 C 0.76132 0.09385 0.95494 0.0
C2182 C 0.76974 0.10778 0.96508 0.0
C2183 C 0.76439 0.11027 0.98374 0.0
C2184 C 0.78343 0.12024 0.95554 0.0
C2185 C 0.76617 0.09068 0.93445 0.0
C2186 C 0.79604 0.11884 0.95145 0.0
C2187 C 0.80768 0.1294 0.93907 0.0
C2188 C 0.80695 0.14157 0.93079 0.0
C2189 C 0.7949 0.14355 0.93622 0.0
C2190 C 0.78329 0.13303 0.94859 0.0
H2191 H 0.75706 0.08063 0.92678 0.0
H2192 H 0.76997 0.10036 0.92385 0.0
H2193 H 0.77568 0.08873 0.93698 0.0
H2194 H 0.79648 0.10916 0.95685 0.0
H2195 H 0.81669 0.12746 0.93471 0.0
H2196 H 0.67698 0.97729 0.02698 0.0
H2197 H 0.68329 0.9583 0.03733 0.0
H2198 H 0.63768 0.92377 0.02683 0.0
H2199 H 0.63124 0.94266 0.01701 0.0
H2200 H 0.64716 0.92094 0.06385 0.0
H2201 H 0.6897 0.92828 0.00581 0.0
H2202 H 0.69416 0.94527 0.01905 0.0
H2203 H 0.6779 0.93641 0.00273 0.0
C2204 C 0.66835 0.96564 0.02659 0.0
C2205 C 0.6536 0.96151 0.02122 0.0
C2206 C 0.672 0.95476 0.03237 0.0
C2207 C 0.66101 0.93954 0.0326 0.0
C2208 C 0.64637 0.93541 0.02672 0.0
H2209 H 0.65818 0.85982 0.08457 0.0
H2210 H 0.65373 0.87584 0.061 0.0
C2211 C 0.64271 0.94625 0.02111 0.0
C2212 C 0.66435 0.92801 0.04071 0.0
H2213 H 0.6876 0.91355 0.03554 0.0
C2214 C 0.65588 0.9192 0.05745 0.0
C2215 C 0.67577 0.92575 0.03245 0.0
C2216 C 0.68481 0.93433 0.01389 0.0
C2217 C 0.65873 0.90854 0.0665 0.0
C2218 C 0.67026 0.90641 0.05843 0.0
C2219 C 0.67869 0.9151 0.04158 0.0
C2220 C 0.67436 0.89603 0.06852 0.0
C2221 C 0.64974 0.90002 0.08516 0.0
C2222 C 0.68783 0.90187 0.0795 0.0
C2223 C 0.6904 0.89273 0.09278 0.0
C2224 C 0.67962 0.87756 0.09516 0.0
C2225 C 0.66676 0.87141 0.08276 0.0
C2226 C 0.66415 0.8806 0.0695 0.0
H2227 H 0.64323 0.90494 0.09175 0.0
H2228 H 0.64177 0.88831 0.08062 0.0
H2229 H 0.65714 0.89978 0.09739 0.0
H2230 H 0.69586 0.91372 0.07899 0.0
H2231 H 0.70031 0.89774 0.10239 0.0
H2232 H 0.07565 0.68945 0.0257 0.0
H2233 H 0.09429 0.71497 0.03525 0.0
H2234 H 0.0607 0.728 0.03227 0.0
H2235 H 0.04185 0.70234 0.02305 0.0
H2236 H 0.10464 0.74247 0.01603 0.0
H2237 H 0.07701 0.74035 0.09067 0.0
H2238 H 0.07181 0.72388 0.07533 0.0
H2239 H 0.06547 0.73659 0.06821 0.0
C2240 C 0.0722 0.69773 0.02698 0.0
C2241 C 0.05719 0.69378 0.02378 0.0
C2242 C 0.0829 0.71236 0.03239 0.0
C2243 C 0.07888 0.72339 0.03481 0.0
C2244 C 0.06402 0.71963 0.03091 0.0
H2245 H 0.13049 0.81153 0.09182 0.0
H2246 H 0.11241 0.7915 0.06934 0.0
C2247 C 0.05327 0.70496 0.02552 0.0
C2248 C 0.0902 0.73861 0.04211 0.0
H2249 H 0.09879 0.76285 0.08255 0.0
C2250 C 0.10332 0.74698 0.03051 0.0
C2251 C 0.08852 0.74452 0.06102 0.0
C2252 C 0.07502 0.73586 0.07466 0.0
C2253 C 0.1148 0.761 0.03736 0.0
C2254 C 0.11324 0.76674 0.05649 0.0
C2255 C 0.09997 0.75853 0.06781 0.0
C2256 C 0.12555 0.78062 0.06596 0.0
C2257 C 0.12847 0.76954 0.02404 0.0
C2258 C 0.13923 0.78155 0.07091 0.0
C2259 C 0.14963 0.79311 0.08352 0.0
C2260 C 0.14655 0.80394 0.09141 0.0
C2261 C 0.13332 0.80357 0.08541 0.0
C2262 C 0.12291 0.79202 0.07278 0.0
H2263 H 0.12598 0.76624 0.00753 0.0
H2264 H 0.13303 0.78178 0.02534 0.0
H2265 H 0.13722 0.76701 0.02913 0.0
H2266 H 0.14141 0.77275 0.06634 0.0
H2267 H 0.15952 0.79288 0.08852 0.0
H2268 H 0.31963 0.3451 0.02261 0.0
H2269 H 0.29394 0.33788 0.03232 0.0
H2270 H 0.30587 0.38426 0.03308 0.0
H2271 H 0.33135 0.39152 0.0231 0.0
H2272 H 0.28514 0.34537 0.06763 0.0
H2273 H 0.26714 0.36614 0.00123 0.0
H2274 H 0.28349 0.36409 0.00028 0.0
H2275 H 0.28445 0.38037 0.01198 0.0
C2276 C 0.31671 0.35374 0.02452 0.0
C2277 C 0.32757 0.36889 0.02202 0.0
C2278 C 0.30202 0.3496 0.03008 0.0
C2279 C 0.29786 0.3605 0.0331 0.0
C2280 C 0.30864 0.3756 0.03032 0.0
H2281 H 0.23176 0.37146 0.09582 0.0
H2282 H 0.25133 0.37328 0.07256 0.0
C2283 C 0.32329 0.37974 0.02476 0.0
C2284 C 0.28268 0.35631 0.04088 0.0
H2285 H 0.25296 0.36162 0.03263 0.0
C2286 C 0.27797 0.34867 0.05978 0.0
C2287 C 0.27331 0.36064 0.03068 0.0
C2288 C 0.27728 0.36813 0.00981 0.0
C2289 C 0.26459 0.34592 0.06923 0.0
C2290 C 0.25547 0.3507 0.05937 0.0
C2291 C 0.25993 0.35793 0.04017 0.0
C2292 C 0.242 0.34939 0.06971 0.0
C2293 C 0.26069 0.33857 0.09023 0.0
C2294 C 0.22982 0.33536 0.07491 0.0
C2295 C 0.21856 0.33433 0.08806 0.0
C2296 C 0.21926 0.34731 0.096 0.0
C2297 C 0.23082 0.36132 0.08951 0.0
C2298 C 0.24205 0.36235 0.07636 0.0
H2299 H 0.27023 0.33816 0.0974 0.0
H2300 H 0.25707 0.34462 0.10084 0.0
H2301 H 0.25129 0.32694 0.08863 0.0
H2302 H 0.22947 0.32521 0.06977 0.0
H2303 H 0.20993 0.32342 0.09324 0.0
H2304 H 0.74378 0.72959 0.36863 0.0
H2305 H 0.76316 0.72384 0.37832 0.0
H2306 H 0.73248 0.67696 0.36821 0.0
H2307 H 0.71285 0.68262 0.35881 0.0
H2308 H 0.74697 0.68209 0.40485 0.0
H2309 H 0.78853 0.71268 0.34351 0.0
H2310 H 0.78308 0.7243 0.35718 0.0
H2311 H 0.7695 0.70885 0.34202 0.0
C2312 C 0.74115 0.71805 0.36826 0.0
C2313 C 0.72673 0.70656 0.36289 0.0
C2314 C 0.75232 0.71479 0.37365 0.0
C2315 C 0.74942 0.69999 0.37361 0.0
C2316 C 0.73505 0.68849 0.36818 0.0
H2317 H 0.8006 0.65966 0.41964 0.0
H2318 H 0.78395 0.6647 0.39844 0.0
C2319 C 0.72383 0.69173 0.36282 0.0
C2320 C 0.76107 0.69649 0.38062 0.0
H2321 H 0.79729 0.7051 0.37286 0.0
C2322 C 0.75789 0.68697 0.39766 0.0
C2323 C 0.77539 0.70291 0.37133 0.0
C2324 C 0.7793 0.71264 0.35237 0.0
C2325 C 0.76872 0.68406 0.40604 0.0
C2326 C 0.7831 0.69066 0.39697 0.0
C2327 C 0.78627 0.70004 0.37978 0.0
C2328 C 0.79503 0.68827 0.40578 0.0
C2329 C 0.76483 0.67432 0.42503 0.0
C2330 C 0.80737 0.70002 0.41582 0.0
C2331 C 0.81703 0.69718 0.42768 0.0
C2332 C 0.81454 0.68257 0.4295 0.0
C2333 C 0.80292 0.67106 0.4181 0.0
C2334 C 0.7933 0.6739 0.40623 0.0
H2335 H 0.75448 0.6727 0.43261 0.0
H2336 H 0.76303 0.66318 0.42053 0.0
H2337 H 0.77409 0.67924 0.43645 0.0
H2338 H 0.80891 0.71119 0.41569 0.0
H2339 H 0.82568 0.70615 0.43676 0.0
H2340 H 0.29324 0.01669 0.36758 0.0
H2341 H 0.29892 0.04184 0.37699 0.0
H2342 H 0.34565 0.05838 0.36502 0.0
H2343 H 0.34006 0.03305 0.35596 0.0
H2344 H 0.34148 0.06837 0.40142 0.0
H2345 H 0.30863 0.07768 0.34192 0.0
H2346 H 0.29745 0.06079 0.35615 0.0
H2347 H 0.31257 0.06255 0.3403 0.0
C2348 C 0.30473 0.02567 0.36673 0.0
C2349 C 0.31619 0.02282 0.36094 0.0
C2350 C 0.30795 0.04012 0.37196 0.0
C2351 C 0.32268 0.05213 0.37131 0.0
C2352 C 0.33417 0.04934 0.36546 0.0
H2353 H 0.3607 0.14405 0.41712 0.0
H2354 H 0.35653 0.1228 0.39539 0.0
C2355 C 0.33096 0.03484 0.36029 0.0
C2356 C 0.32614 0.06733 0.37812 0.0
H2357 H 0.3162 0.09407 0.37139 0.0
C2358 C 0.33613 0.07409 0.39462 0.0
C2359 C 0.31914 0.07483 0.3693 0.0
C2360 C 0.30897 0.06866 0.3508 0.0
C2361 C 0.33886 0.08777 0.40304 0.0
C2362 C 0.33155 0.09505 0.3946 0.0
C2363 C 0.32179 0.08849 0.37783 0.0
C2364 C 0.33331 0.109 0.40393 0.0
C2365 C 0.34911 0.09406 0.42148 0.0
C2366 C 0.32141 0.10862 0.41494 0.0
C2367 C 0.32375 0.1208 0.42716 0.0
C2368 C 0.33797 0.13361 0.42833 0.0
C2369 C 0.34956 0.13443 0.41605 0.0
C2370 C 0.34723 0.12223 0.40388 0.0
H2371 H 0.3517 0.08579 0.42843 0.0
H2372 H 0.35977 0.10392 0.41658 0.0
H2373 H 0.34403 0.09779 0.43353 0.0
H2374 H 0.31059 0.09852 0.41524 0.0
H2375 H 0.31477 0.11978 0.43691 0.0
H2376 H 1.00101 0.27902 0.35838 0.0
H2377 H 0.97564 0.26007 0.36789 0.0
H2378 H 0.96358 0.29424 0.37432 0.0
H2379 H 0.98892 0.31327 0.36421 0.0
H2380 H 0.96225 0.2576 0.40377 0.0
H2381 H 0.92821 0.26331 0.34223 0.0
H2382 H 0.94824 0.27173 0.34031 0.0
H2383 H 0.94015 0.28058 0.3553 0.0
C2384 C 0.99292 0.28251 0.36154 0.0
C2385 C 0.99702 0.29769 0.36052 0.0
C2386 C 0.97839 0.27164 0.36698 0.0
C2387 C 0.96757 0.27563 0.37159 0.0
C2388 C 0.97157 0.29077 0.37034 0.0
H2389 H 0.88472 0.2329 0.43796 0.0
H2390 H 0.90569 0.24923 0.41548 0.0
C2391 C 0.98612 0.30168 0.36471 0.0
C2392 C 0.95256 0.26409 0.37929 0.0
H2393 H 0.91492 0.2489 0.37187 0.0
C2394 C 0.95192 0.25559 0.39659 0.0
C2395 C 0.93903 0.26145 0.37002 0.0
C2396 C 0.9389 0.26965 0.35082 0.0
C2397 C 0.93823 0.24485 0.40517 0.0
C2398 C 0.92472 0.24236 0.39609 0.0
C2399 C 0.92529 0.25075 0.37871 0.0
C2400 C 0.91004 0.23179 0.40552 0.0
C2401 C 0.93832 0.23659 0.42435 0.0
C2402 C 0.905 0.2164 0.40646 0.0
C2403 C 0.89289 0.20701 0.41915 0.0
C2404 C 0.88569 0.21292 0.43104 0.0
C2405 C 0.88997 0.22806 0.4287 0.0
C2406 C 0.90199 0.23741 0.41597 0.0
H2407 H 0.94958 0.24167 0.43151 0.0
H2408 H 0.93034 0.23641 0.43599 0.0
H2409 H 0.93478 0.22485 0.42025 0.0
H2410 H 0.91101 0.21183 0.39842 0.0
H2411 H 0.88997 0.19545 0.42097 0.0
H2412 H 0.06514 0.40649 0.33396 0.0
H2413 H 0.05881 0.42556 0.32482 0.0
H2414 H 1.01245 0.39162 0.31906 0.0
H2415 H 0.01868 0.37246 0.32878 0.0
H2416 H 0.04762 0.42813 0.28922 0.0
H2417 H 1.00855 0.4227 0.35166 0.0
H2418 H 0.02007 0.41416 0.35319 0.0
H2419 H 1.003 0.40542 0.33849 0.0
C2420 C 0.05355 0.40307 0.33101 0.0
C2421 C 0.04241 0.38792 0.33211 0.0
C2422 C 0.04995 0.41402 0.32579 0.0
C2423 C 0.03512 0.41012 0.32149 0.0
C2424 C 0.02392 0.39501 0.32281 0.0
H2425 H 0.99512 0.45348 0.25648 0.0
H2426 H 0.99965 0.43706 0.27889 0.0
C2427 C 0.02751 0.38403 0.32822 0.0
C2428 C 0.0317 0.42175 0.31403 0.0
H2429 H 1.00957 0.43722 0.32222 0.0
C2430 C 0.03944 0.43022 0.29664 0.0
C2431 C 0.02096 0.42449 0.3236 0.0
C2432 C 1.01277 0.41631 0.34289 0.0
C2433 C 0.03652 0.44104 0.28829 0.0
C2434 C 0.02568 0.44366 0.29769 0.0
C2435 C 0.01796 0.43528 0.31514 0.0
C2436 C 0.02161 0.45433 0.28851 0.0
C2437 C 0.04473 0.44926 0.269 0.0
C2438 C 0.03209 0.46969 0.28745 0.0
C2439 C 0.02944 0.47913 0.27479 0.0
C2440 C 0.01629 0.47332 0.26303 0.0
C2441 C 1.00527 0.45825 0.2656 0.0
C2442 C 1.00788 0.44885 0.27831 0.0
H2443 H 0.05073 0.44407 0.26159 0.0
H2444 H 0.03686 0.44955 0.25757 0.0
H2445 H 0.05306 0.46097 0.27304 0.0
H2446 H 0.04272 0.47417 0.29533 0.0
H2447 H 0.03819 0.49064 0.27282 0.0
H2448 H 0.61706 0.66597 0.32531 0.0
H2449 H 0.59799 0.64071 0.31549 0.0
H2450 H 0.62943 0.62538 0.3247 0.0
H2451 H 0.64873 0.65077 0.3343 0.0
H2452 H 0.61486 0.61637 0.28763 0.0
H2453 H 0.57341 0.60352 0.34994 0.0
H2454 H 0.57856 0.62071 0.33681 0.0
H2455 H 0.59235 0.61893 0.35155 0.0
C2456 C 0.61992 0.65721 0.32547 0.0
C2457 C 0.63446 0.66042 0.33063 0.0
C2458 C 0.60892 0.64272 0.32 0.0
C2459 C 0.61214 0.63104 0.3197 0.0
C2460 C 0.62662 0.63417 0.32498 0.0
H2461 H 0.56375 0.53991 0.27216 0.0
H2462 H 0.58005 0.5619 0.29312 0.0
C2463 C 0.63765 0.6487 0.33047 0.0
C2464 C 0.60074 0.61585 0.31243 0.0
H2465 H 0.56502 0.58728 0.32054 0.0
C2466 C 0.60404 0.60994 0.295 0.0
C2467 C 0.58654 0.60748 0.32193 0.0
C2468 C 0.58253 0.61291 0.34121 0.0
C2469 C 0.59346 0.59613 0.28648 0.0
C2470 C 0.57923 0.58781 0.29587 0.0
C2471 C 0.57593 0.59364 0.31339 0.0
C2472 C 0.56763 0.57324 0.28716 0.0
C2473 C 0.59745 0.59079 0.26707 0.0
C2474 C 0.55466 0.57186 0.27806 0.0
C2475 C 0.54517 0.55916 0.26636 0.0
C2476 C 0.54852 0.54766 0.26374 0.0
C2477 C 0.56082 0.54853 0.27425 0.0
C2478 C 0.57023 0.56117 0.28599 0.0
H2479 H 0.60737 0.59994 0.25921 0.0
H2480 H 0.60009 0.58193 0.27112 0.0
H2481 H 0.58796 0.58598 0.25602 0.0
H2482 H 0.55243 0.58104 0.27879 0.0
H2483 H 0.53595 0.55888 0.25803 0.0
H2484 H 0.35659 0.95247 0.32631 0.0
H2485 H 0.38165 0.95785 0.31671 0.0
H2486 H 0.39775 1.00507 0.32214 0.0
H2487 H 0.37266 0.99977 0.33204 0.0
H2488 H 0.39763 0.97358 0.28283 0.0
H2489 H 0.42936 1.00071 0.35418 0.0
H2490 H 0.4092 0.99007 0.35354 0.0
H2491 H 0.41897 1.00897 0.34413 0.0
C2492 C 0.36547 0.96402 0.32569 0.0
C2493 C 0.36259 0.97569 0.32998 0.0
C2494 C 0.37982 0.96706 0.32019 0.0
C2495 C 0.39167 0.98185 0.31896 0.0
C2496 C 0.38888 0.99355 0.32343 0.0
H2497 H 0.47973 0.02732 0.26804 0.0
H2498 H 0.45719 0.01946 0.28869 0.0
C2499 C 0.3745 0.99051 0.32895 0.0
C2500 C 0.40663 0.98497 0.31164 0.0
H2501 H 0.44374 1.00266 0.32424 0.0
C2502 C 0.40768 0.97978 0.29199 0.0
C2503 C 0.41977 0.99309 0.32357 0.0
C2504 C 0.41931 0.99843 0.34511 0.0
C2505 C 0.42151 0.98291 0.28366 0.0
C2506 C 0.4347 0.9912 0.29547 0.0
C2507 C 0.43364 0.9962 0.31526 0.0
C2508 C 0.44973 0.99586 0.28668 0.0
C2509 C 0.42193 0.97789 0.26187 0.0
C2510 C 0.45353 0.98529 0.2797 0.0
C2511 C 0.4665 0.9898 0.26792 0.0
C2512 C 0.47587 1.00495 0.26306 0.0
C2513 C 0.47272 0.01558 0.27166 0.0
C2514 C 0.45981 0.01109 0.28338 0.0
H2515 H 0.41136 0.9745 0.25341 0.0
H2516 H 0.4313 0.98691 0.25302 0.0
H2517 H 0.42365 0.96812 0.26238 0.0
H2518 H 0.44606 0.97349 0.2824 0.0
H2519 H 0.46859 0.98138 0.26132 0.0
H2520 H 0.65316 1.00902 0.33365 0.0
H2521 H 0.63423 0.01574 0.32448 0.0
H2522 H 0.60055 0.96909 0.32315 0.0
H2523 H 0.61923 0.96233 0.3326 0.0
H2524 H 0.61766 1.00831 0.28945 0.0
H2525 H 0.57944 0.98606 0.35632 0.0
H2526 H 0.59802 0.98858 0.35675 0.0
H2527 H 0.58285 0.97221 0.345 0.0
C2528 C 0.64168 1.00021 0.3317 0.0
C2529 C 0.63773 0.98514 0.33393 0.0
C2530 C 0.63087 1.00407 0.32645 0.0
C2531 C 0.61588 0.99295 0.32348 0.0
C2532 C 0.61192 0.97791 0.3259 0.0
H2533 H 0.53774 0.98011 0.26241 0.0
H2534 H 0.55603 0.97879 0.28511 0.0
C2535 C 0.62268 0.97406 0.33115 0.0
C2536 C 0.60457 0.99685 0.31621 0.0
H2537 H 0.56923 0.99041 0.32532 0.0
C2538 C 0.60719 1.00466 0.2975 0.0
C2539 C 0.59088 0.99207 0.32668 0.0
C2540 C 0.58768 0.9844 0.3474 0.0
C2541 C 0.59624 1.00712 0.28847 0.0
C2542 C 0.58233 1.00184 0.29857 0.0
C2543 C 0.57988 0.99447 0.3176 0.0
C2544 C 0.56985 1.00274 0.28858 0.0
C2545 C 0.59936 0.01467 0.26765 0.0
C2546 C 0.5711 0.0166 0.28391 0.0
C2547 C 0.56055 0.01734 0.27109 0.0
C2548 C 0.54856 1.00422 0.26294 0.0
C2549 C 0.54672 0.99034 0.2689 0.0
C2550 C 0.55722 0.9896 0.28172 0.0
H2551 H 0.6095 0.01562 0.26026 0.0
H2552 H 0.58973 1.00844 0.25707 0.0
H2553 H 0.60111 0.02611 0.26958 0.0
H2554 H 0.58067 0.02687 0.28921 0.0
H2555 H 0.56236 0.02817 0.26633 0.0
H2556 H 0.06629 0.66474 0.32906 0.0
H2557 H 0.06067 0.63965 0.31928 0.0
H2558 H 1.01393 0.62296 0.33131 0.0
H2559 H 0.01942 0.64823 0.3405 0.0
H2560 H 0.04847 0.61309 0.33869 0.0
H2561 H 1.01238 0.60933 0.27273 0.0
H2562 H 0.02366 0.6265 0.28666 0.0
H2563 H 1.00616 0.61231 0.29723 0.0
C2564 C 0.0548 0.65574 0.32972 0.0
C2565 C 0.04328 0.65855 0.33537 0.0
C2566 C 0.05161 0.64136 0.32415 0.0
C2567 C 0.03684 0.62941 0.32414 0.0
C2568 C 0.02537 0.63204 0.33065 0.0
H2569 H 1.00101 0.53944 0.27369 0.0
H2570 H 1.00443 0.55973 0.29687 0.0
C2571 C 0.02854 0.64649 0.33604 0.0
C2572 C 0.03355 0.61441 0.31663 0.0
H2573 H 0.01465 0.58818 0.27935 0.0
C2574 C 0.04101 0.60761 0.32578 0.0
C2575 C 0.02387 0.60724 0.29971 0.0
C2576 C 0.01616 0.61426 0.28836 0.0
C2577 C 0.03912 0.59396 0.31838 0.0
C2578 C 0.02958 0.58692 0.30135 0.0
C2579 C 0.02187 0.59352 0.29254 0.0
C2580 C 0.02817 0.57331 0.29132 0.0
C2581 C 0.04738 0.58717 0.32879 0.0
C2582 C 0.04047 0.57396 0.28107 0.0
C2583 C 0.03852 0.56234 0.26792 0.0
C2584 C 0.02427 0.54986 0.26493 0.0
C2585 C 1.01217 0.54876 0.27624 0.0
C2586 C 0.01409 0.5604 0.28929 0.0
H2587 H 0.05096 0.59164 0.34467 0.0
H2588 H 0.04033 0.57482 0.32959 0.0
H2589 H 0.05752 0.58989 0.31968 0.0
H2590 H 0.05137 0.58392 0.28202 0.0
H2591 H 0.04791 0.56364 0.25886 0.0
H2592 H 0.3755 0.37091 0.33632 0.0
H2593 H 0.40115 0.38971 0.32697 0.0
H2594 H 0.38873 0.42381 0.32745 0.0
H2595 H 0.36329 0.40524 0.33709 0.0
H2596 H 0.40989 0.40645 0.29209 0.0
H2597 H 0.42737 0.44438 0.35949 0.0
H2598 H 0.41115 0.42589 0.36005 0.0
H2599 H 0.41002 0.44124 0.34885 0.0
C2600 C 0.3783 0.38246 0.33477 0.0
C2601 C 0.36732 0.38655 0.33751 0.0
C2602 C 0.39297 0.3932 0.32941 0.0
C2603 C 0.39699 0.40826 0.32683 0.0
C2604 C 0.38608 0.41237 0.32987 0.0
H2605 H 0.46262 0.48636 0.26559 0.0
H2606 H 0.44311 0.46823 0.28857 0.0
C2607 C 0.37145 0.40168 0.33523 0.0
C2608 C 0.41214 0.41947 0.31923 0.0
H2609 H 0.44158 0.45455 0.32823 0.0
C2610 C 0.41695 0.41684 0.30019 0.0
C2611 C 0.42137 0.43307 0.32975 0.0
C2612 C 0.41729 0.43626 0.35077 0.0
C2613 C 0.43031 0.4277 0.29092 0.0
C2614 C 0.43928 0.4415 0.30111 0.0
C2615 C 0.43472 0.44397 0.32044 0.0
C2616 C 0.4527 0.45388 0.291 0.0
C2617 C 0.43432 0.42458 0.26978 0.0
C2618 C 0.46501 0.45227 0.28566 0.0
C2619 C 0.47624 0.46272 0.27268 0.0
C2620 C 0.47538 0.47498 0.26504 0.0
C2621 C 0.46368 0.47717 0.27169 0.0
C2622 C 0.45249 0.46676 0.28466 0.0
H2623 H 0.42487 0.41463 0.26242 0.0
H2624 H 0.43784 0.43434 0.25943 0.0
H2625 H 0.44382 0.42249 0.27121 0.0
H2626 H 0.46549 0.4425 0.29055 0.0
H2627 H 0.48497 0.46063 0.26738 0.0
H2628 H 0.34671 0.31332 0.35745 0.0
H2629 H 0.35392 0.29478 0.36669 0.0
H2630 H 0.30785 0.25983 0.36292 0.0
H2631 H 0.30059 0.27817 0.3535 0.0
H2632 H 0.34446 0.27687 0.40118 0.0
H2633 H 0.32856 0.24137 0.33118 0.0
H2634 H 0.33046 0.25972 0.33123 0.0
H2635 H 0.31368 0.24387 0.34085 0.0
C2636 C 0.33815 0.30166 0.35826 0.0
C2637 C 0.32307 0.29725 0.3547 0.0
C2638 C 0.34228 0.29106 0.36355 0.0
C2639 C 0.33147 0.27585 0.3652 0.0
C2640 C 0.31646 0.27142 0.36127 0.0
H2641 H 0.3212 0.19653 0.42154 0.0
H2642 H 0.31935 0.21463 0.39904 0.0
C2643 C 0.31231 0.28197 0.35603 0.0
C2644 C 0.33558 0.26477 0.3728 0.0
H2645 H 0.33238 0.23086 0.36208 0.0
C2646 C 0.34205 0.26694 0.39248 0.0
C2647 C 0.33235 0.25174 0.36151 0.0
C2648 C 0.32601 0.24908 0.33994 0.0
C2649 C 0.34479 0.25618 0.40155 0.0
C2650 C 0.34128 0.24299 0.39044 0.0
C2651 C 0.33512 0.24097 0.37055 0.0
C2652 C 0.34298 0.23082 0.39998 0.0
C2653 C 0.35074 0.25873 0.42337 0.0
C2654 C 0.35699 0.23348 0.40693 0.0
C2655 C 0.35803 0.22311 0.41972 0.0
C2656 C 0.34514 0.20981 0.42542 0.0
C2657 C 0.33133 0.20655 0.41694 0.0
C2658 C 0.33027 0.21695 0.40425 0.0
H2659 H 0.3497 0.2677 0.4313 0.0
H2660 H 0.34476 0.24834 0.43266 0.0
H2661 H 0.36276 0.26211 0.42301 0.0
H2662 H 0.36698 0.24399 0.40357 0.0
H2663 H 0.36874 0.226 0.42643 0.0
H2664 H 0.71619 0.03832 0.35584 0.0
H2665 H 0.73622 0.06323 0.36591 0.0
H2666 H 0.76766 0.04735 0.36587 0.0
H2667 H 0.74773 0.02245 0.35607 0.0
H2668 H 0.76845 0.06185 0.40166 0.0
H2669 H 0.77141 0.0963 0.33431 0.0
H2670 H 0.75294 0.08535 0.34479 0.0
H2671 H 0.76203 0.07615 0.33328 0.0
C2672 C 0.72741 0.04019 0.35767 0.0
C2673 C 0.73033 0.02836 0.35516 0.0
C2674 C 0.73888 0.05447 0.3633 0.0
C2675 C 0.75352 0.05724 0.3664 0.0
C2676 C 0.75649 0.04553 0.36347 0.0
H2677 H 0.83038 0.13263 0.4277 0.0
H2678 H 0.8163 0.11108 0.40467 0.0
C2679 C 0.74506 0.03127 0.35786 0.0
C2680 C 0.76543 0.07194 0.37439 0.0
H2681 H 0.78399 0.10953 0.365 0.0
C2682 C 0.772 0.07225 0.39351 0.0
C2683 C 0.77004 0.08552 0.36378 0.0
C2684 C 0.76385 0.08586 0.34281 0.0
C2685 C 0.78259 0.08578 0.40269 0.0
C2686 C 0.78704 0.09942 0.39225 0.0
C2687 C 0.78069 0.09909 0.37292 0.0
C2688 C 0.79707 0.11409 0.40222 0.0
C2689 C 0.78837 0.08537 0.42397 0.0
C2690 C 0.79144 0.12354 0.40721 0.0
C2691 C 0.79953 0.1359 0.42005 0.0
C2692 C 0.81346 0.13911 0.42809 0.0
C2693 C 0.81973 0.13047 0.42159 0.0
C2694 C 0.8116 0.11805 0.40868 0.0
H2695 H 0.78153 0.07435 0.43158 0.0
H2696 H 0.79998 0.08751 0.4227 0.0
H2697 H 0.78848 0.09413 0.43405 0.0
H2698 H 0.78032 0.1208 0.40234 0.0
H2699 H 0.79444 0.14238 0.42489 0.0
H2700 H 0.99871 0.72547 0.34786 0.0
H2701 H 0.97365 0.71965 0.35819 0.0
H2702 H 0.96259 0.67461 0.37303 0.0
H2703 H 0.98762 0.68025 0.36216 0.0
H2704 H 0.93905 0.67572 0.35408 0.0
H2705 H 0.96192 0.71664 0.4184 0.0
H2706 H 0.96915 0.72472 0.39356 0.0
H2707 H 0.97322 0.71102 0.40399 0.0
C2708 C 0.99093 0.71427 0.35316 0.0
C2709 C 0.99525 0.70336 0.35439 0.0
C2710 C 0.9766 0.71099 0.35917 0.0
C2711 C 0.96632 0.6968 0.36687 0.0
C2712 C 0.97035 0.68567 0.36727 0.0
H2713 H 0.88378 0.65744 0.43409 0.0
H2714 H 0.90404 0.66148 0.41064 0.0
C2715 C 0.98468 0.68891 0.36106 0.0
C2716 C 0.95165 0.6938 0.37531 0.0
H2717 H 0.93601 0.70533 0.4123 0.0
C2718 C 0.93838 0.6822 0.36679 0.0
C2719 C 0.95073 0.70222 0.39196 0.0
C2720 C 0.9645 0.71425 0.40266 0.0
C2721 C 0.92427 0.67889 0.37438 0.0
C2722 C 0.9234 0.68733 0.39101 0.0
C2723 C 0.93666 0.699 0.39936 0.0
C2724 C 0.90905 0.6836 0.40127 0.0
C2725 C 0.91041 0.66646 0.36447 0.0
C2726 C 0.90479 0.69451 0.40343 0.0
C2727 C 0.89309 0.69214 0.41674 0.0
C2728 C 0.88558 0.67889 0.42824 0.0
C2729 C 0.88919 0.66761 0.42503 0.0
C2730 C 0.9008 0.66993 0.41165 0.0
H2731 H 0.91267 0.6641 0.34853 0.0
H2732 H 0.90643 0.65613 0.37373 0.0
H2733 H 0.90133 0.66923 0.36391 0.0
H2734 H 0.91107 0.70519 0.39572 0.0
H2735 H 0.89075 0.70112 0.41933 0.0
H2736 H 0.40992 0.06102 0.69598 0.0
H2737 H 0.42905 0.05481 0.70528 0.0
H2738 H 0.39549 1.00815 0.70849 0.0
H2739 H 0.37629 0.01428 0.69859 0.0
H2740 H 0.43121 0.04281 0.74038 0.0
H2741 H 0.42742 1.00563 0.67611 0.0
H2742 H 0.41866 0.01697 0.67501 0.0
H2743 H 0.40988 0.99952 0.68883 0.0
C2744 C 0.4066 0.0494 0.6984 0.0
C2745 C 0.39155 0.03815 0.69652 0.0
C2746 C 0.41758 0.04586 0.70373 0.0
C2747 C 0.41381 0.03098 0.70734 0.0
C2748 C 0.39879 0.01968 0.70528 0.0
H2749 H 0.4579 0.99087 0.77083 0.0
H2750 H 0.44123 0.99543 0.74897 0.0
C2751 C 0.38779 0.02321 0.69977 0.0
C2752 C 0.42545 0.02757 0.71479 0.0
H2753 H 0.44163 1.00618 0.70565 0.0
C2754 C 0.43358 0.03493 0.73261 0.0
C2755 C 0.42856 0.01724 0.70474 0.0
C2756 C 0.42078 0.00949 0.685 0.0
C2757 C 0.44444 0.03204 0.74088 0.0
C2758 C 0.44744 0.0216 0.73097 0.0
C2759 C 0.43939 0.01425 0.71312 0.0
C2760 C 0.45826 0.01765 0.73992 0.0
C2761 C 0.45234 0.03985 0.76056 0.0
C2762 C 0.47355 0.0283 0.74115 0.0
C2763 C 0.48314 0.02562 0.75345 0.0
C2764 C 0.47754 0.01226 0.76466 0.0
C2765 C 0.46252 1.00115 0.76203 0.0
C2766 C 0.45297 1.00378 0.74967 0.0
H2767 H 0.44691 0.04554 0.7682 0.0
H2768 H 0.4526 0.03177 0.77162 0.0
H2769 H 0.46405 0.04839 0.75694 0.0
H2770 H 0.47786 0.03905 0.73366 0.0
H2771 H 0.49459 0.03446 0.75556 0.0
H2772 H 0.96007 0.35046 0.70482 0.0
H2773 H 0.96534 0.37562 0.71343 0.0
H2774 H 1.01214 0.39273 0.7013 0.0
H2775 H 1.00697 0.36741 0.69307 0.0
H2776 H 1.00794 0.40299 0.73736 0.0
H2777 H 0.97429 0.41087 0.67753 0.0
H2778 H 0.96344 0.3942 0.69233 0.0
H2779 H 0.97848 0.3959 0.67635 0.0
C2780 C 0.97148 0.35957 0.70376 0.0
C2781 C 0.98309 0.35688 0.69819 0.0
C2782 C 0.97446 0.37402 0.70854 0.0
C2783 C 0.9891 0.38619 0.70763 0.0
C2784 C 1.00073 0.38356 0.70195 0.0
H2785 H 0.02822 0.47897 0.74859 0.0
H2786 H 0.02299 0.45702 0.72777 0.0
C2787 C 0.99776 0.36907 0.69724 0.0
C2788 C 0.99237 0.40142 0.71404 0.0
H2789 H 0.9823 0.42796 0.70616 0.0
C2790 C 1.00248 0.40852 0.73032 0.0
C2791 C 0.98523 0.40868 0.70493 0.0
C2792 C 0.97487 0.40209 0.68668 0.0
C2793 C 1.00527 0.42237 0.73815 0.0
C2794 C 0.9979 0.42947 0.72933 0.0
C2795 C 0.98794 0.42252 0.71288 0.0
C2796 C 1.00003 0.4438 0.7378 0.0
C2797 C 0.01572 0.42909 0.75631 0.0
C2798 C 0.9886 0.44399 0.74929 0.0
C2799 C 0.99153 0.45659 0.76098 0.0
C2800 C 1.0059 0.46925 0.76116 0.0
C2801 C 0.01696 0.46949 0.74828 0.0
C2802 C 0.01403 0.45689 0.73662 0.0
H2803 H 0.01832 0.42097 0.76371 0.0
H2804 H 0.02636 0.43878 0.75095 0.0
H2805 H 1.01082 0.43319 0.76813 0.0
H2806 H 0.97773 0.434 0.75045 0.0
H2807 H 0.98296 0.45599 0.77123 0.0
H2808 H 0.67169 0.61244 0.69511 0.0
H2809 H 0.6468 0.59228 0.70438 0.0
H2810 H 0.6302 0.62312 0.70284 0.0
H2811 H 0.6551 0.64338 0.69321 0.0
H2812 H 0.63127 0.59073 0.7391 0.0
H2813 H 0.59824 0.58802 0.67011 0.0
H2814 H 0.61841 0.59781 0.6701 0.0
H2815 H 0.60855 0.60635 0.68125 0.0
C2816 C 0.66273 0.61495 0.69649 0.0
C2817 C 0.66542 0.62957 0.69339 0.0
C2818 C 0.64847 0.60337 0.7018 0.0
C2819 C 0.63653 0.60608 0.70406 0.0
C2820 C 0.63912 0.62064 0.70073 0.0
H2821 H 0.54951 0.56086 0.75865 0.0
H2822 H 0.57147 0.57649 0.73739 0.0
C2823 C 0.65341 0.63225 0.69537 0.0
C2824 C 0.62171 0.59392 0.71138 0.0
H2825 H 0.5844 0.5746 0.69992 0.0
C2826 C 0.62105 0.58708 0.7304 0.0
C2827 C 0.60835 0.58917 0.70007 0.0
C2828 C 0.60839 0.59561 0.67916 0.0
C2829 C 0.60741 0.57601 0.73874 0.0
C2830 C 0.59401 0.57136 0.72756 0.0
C2831 C 0.59467 0.57805 0.7084 0.0
C2832 C 0.57918 0.56052 0.73648 0.0
C2833 C 0.60742 0.56987 0.7599 0.0
C2834 C 0.57569 0.54596 0.74201 0.0
C2835 C 0.56304 0.53695 0.75408 0.0
C2836 C 0.55366 0.54235 0.76062 0.0
C2837 C 0.55647 0.55637 0.75354 0.0
C2838 C 0.56907 0.56535 0.74151 0.0
H2839 H 0.61811 0.57686 0.76822 0.0
H2840 H 0.59815 0.56909 0.7695 0.0
H2841 H 0.60581 0.55847 0.75827 0.0
H2842 H 0.58321 0.5419 0.73801 0.0
H2843 H 0.56125 0.52629 0.75963 0.0
H2844 H 0.69439 0.71166 0.64455 0.0
H2845 H 0.69135 0.73269 0.63368 0.0
H2846 H 0.72694 0.76184 0.6749 0.0
H2847 H 0.73077 0.74109 0.68438 0.0
H2848 H 0.68411 0.7505 0.64948 0.0
H2849 H 0.74295 0.78579 0.62498 0.0
H2850 H 0.73557 0.76672 0.633 0.0
H2851 H 0.74153 0.78145 0.65194 0.0
C2852 C 0.70153 0.72257 0.65127 0.0
C2853 C 0.71294 0.72481 0.66507 0.0
C2854 C 0.6998 0.73462 0.64508 0.0
C2855 C 0.70922 0.74909 0.65293 0.0
C2856 C 0.71996 0.75104 0.66783 0.0
H2857 H 0.68316 0.81558 0.61468 0.0
H2858 H 0.68904 0.80048 0.63809 0.0
C2859 C 0.72203 0.73911 0.67346 0.0
C2860 C 0.70795 0.76206 0.64516 0.0
H2861 H 0.72799 0.79706 0.62439 0.0
C2862 C 0.69372 0.76067 0.64394 0.0
C2863 C 0.72044 0.77538 0.63778 0.0
C2864 C 0.73594 0.77738 0.63678 0.0
C2865 C 0.69155 0.77185 0.63496 0.0
C2866 C 0.70409 0.78527 0.62791 0.0
C2867 C 0.71837 0.7869 0.62993 0.0
C2868 C 0.70257 0.7968 0.61583 0.0
C2869 C 0.67574 0.76869 0.63208 0.0
C2870 C 0.70935 0.80105 0.59631 0.0
C2871 C 0.70654 0.81015 0.58339 0.0
C2872 C 0.69658 0.81502 0.58938 0.0
C2873 C 0.69081 0.81193 0.60958 0.0
C2874 C 0.69391 0.80302 0.62279 0.0
H2875 H 0.66747 0.75659 0.63357 0.0
H2876 H 0.67315 0.7747 0.64412 0.0
H2877 H 0.67427 0.77249 0.61667 0.0
H2878 H 0.71623 0.79667 0.59051 0.0
H2879 H 0.71138 0.81256 0.56804 0.0
H2880 H 0.31357 0.98321 0.66579 0.0
H2881 H 0.29375 0.95826 0.65526 0.0
H2882 H 0.26225 0.97404 0.65362 0.0
H2883 H 0.28195 0.99896 0.66373 0.0
H2884 H 0.26572 0.93793 0.67257 0.0
H2885 H 0.25916 0.95751 0.59548 0.0
H2886 H 0.27483 0.96875 0.61215 0.0
H2887 H 0.25706 0.96745 0.61678 0.0
C2888 C 0.30241 0.98135 0.66328 0.0
C2889 C 0.2994 0.99314 0.66539 0.0
C2890 C 0.29108 0.96707 0.65729 0.0
C2891 C 0.27656 0.96434 0.65328 0.0
C2892 C 0.27343 0.97595 0.65618 0.0
H2893 H 0.19946 0.8884 0.59544 0.0
H2894 H 0.21425 0.91049 0.61724 0.0
C2895 C 0.28472 0.9902 0.66205 0.0
C2896 C 0.2648 0.94951 0.64546 0.0
H2897 H 0.24194 0.93251 0.60411 0.0
C2898 C 0.2605 0.93674 0.65762 0.0
C2899 C 0.25795 0.94794 0.62596 0.0
C2900 C 0.26255 0.9611 0.61172 0.0
C2901 C 0.24951 0.92246 0.65081 0.0
C2902 C 0.24279 0.9209 0.63122 0.0
C2903 C 0.24695 0.93371 0.61923 0.0
C2904 C 0.23242 0.90607 0.6219 0.0
C2905 C 0.24515 0.90921 0.66471 0.0
C2906 C 0.23746 0.89598 0.61783 0.0
C2907 C 0.22901 0.8834 0.6055 0.0
C2908 C 0.21536 0.88063 0.59696 0.0
C2909 C 0.20981 0.89013 0.60215 0.0
C2910 C 0.21832 0.90281 0.61444 0.0
H2911 H 0.24751 0.91263 0.68119 0.0
H2912 H 0.23311 0.90081 0.66307 0.0
H2913 H 0.25175 0.90382 0.66043 0.0
H2914 H 0.2484 0.89836 0.62297 0.0
H2915 H 0.23363 0.87635 0.60146 0.0
H2916 H 0.04139 0.33564 0.66791 0.0
H2917 H 0.06613 0.34081 0.6563 0.0
H2918 H 0.05147 0.29379 0.65903 0.0
H2919 H 0.02675 0.28851 0.67026 0.0
H2920 H 0.08759 0.33456 0.67364 0.0
H2921 H 0.06563 0.30454 0.59932 0.0
H2922 H 0.05478 0.30952 0.61596 0.0
H2923 H 0.05667 0.29355 0.62185 0.0
C2924 C 0.04346 0.32642 0.66615 0.0
C2925 C 0.03202 0.31165 0.66981 0.0
C2926 C 0.05762 0.32939 0.65954 0.0
C2927 C 0.06058 0.31766 0.65642 0.0
C2928 C 0.04936 0.30299 0.66088 0.0
H2929 H 0.13551 0.3159 0.59603 0.0
H2930 H 0.114 0.30903 0.61885 0.0
C2931 C 0.03523 0.30001 0.6674 0.0
C2932 C 0.07521 0.32067 0.64789 0.0
H2933 H 0.09106 0.31338 0.60642 0.0
C2934 C 0.08836 0.32991 0.65896 0.0
C2935 C 0.07622 0.31457 0.62875 0.0
C2936 C 0.06261 0.3051 0.61565 0.0
C2937 C 0.10246 0.33319 0.65143 0.0
C2938 C 0.10347 0.32724 0.63217 0.0
C2939 C 0.0903 0.31781 0.62129 0.0
C2940 C 0.11802 0.33161 0.62201 0.0
C2941 C 0.11614 0.34293 0.66422 0.0
C2942 C 0.12769 0.3466 0.61671 0.0
C2943 C 0.13995 0.3505 0.60382 0.0
C2944 C 0.1428 0.3395 0.59589 0.0
C2945 C 0.13371 0.32462 0.60222 0.0
C2946 C 0.12136 0.32069 0.6151 0.0
H2947 H 0.11331 0.34249 0.68087 0.0
H2948 H 0.12472 0.33954 0.66245 0.0
H2949 H 0.12105 0.35469 0.65904 0.0
H2950 H 0.12523 0.3552 0.62141 0.0
H2951 H 0.14667 0.36203 0.59892 0.0
H2952 H 0.31874 0.34154 0.6667 0.0
H2953 H 0.3 0.34854 0.65765 0.0
H2954 H 0.26576 0.30207 0.65774 0.0
H2955 H 0.28426 0.29504 0.66707 0.0
H2956 H 0.28318 0.34077 0.62285 0.0
H2957 H 0.24542 0.32014 0.69035 0.0
H2958 H 0.26387 0.32232 0.69072 0.0
H2959 H 0.24845 0.30592 0.67943 0.0
C2960 C 0.30717 0.33283 0.66512 0.0
C2961 C 0.30302 0.31772 0.66766 0.0
C2962 C 0.29647 0.33685 0.65993 0.0
C2963 C 0.28139 0.32586 0.65735 0.0
C2964 C 0.27722 0.3108 0.66018 0.0
H2965 H 0.2033 0.31379 0.59679 0.0
H2966 H 0.22143 0.31234 0.61965 0.0
C2967 C 0.28787 0.30679 0.66536 0.0
C2968 C 0.27021 0.32991 0.64995 0.0
H2969 H 0.2352 0.32435 0.65926 0.0
C2970 C 0.27282 0.33744 0.63101 0.0
C2971 C 0.25665 0.32554 0.66056 0.0
C2972 C 0.25349 0.31817 0.6815 0.0
C2973 C 0.26198 0.34003 0.6219 0.0
C2974 C 0.2482 0.33519 0.63217 0.0
C2975 C 0.24576 0.32808 0.65142 0.0
C2976 C 0.23582 0.33628 0.62219 0.0
C2977 C 0.26506 0.34724 0.60084 0.0
C2978 C 0.23743 0.35022 0.61696 0.0
C2979 C 0.22698 0.35104 0.60404 0.0
C2980 C 0.21471 0.33794 0.59636 0.0
C2981 C 0.2125 0.32403 0.60291 0.0
C2982 C 0.22292 0.32321 0.61583 0.0
H2983 H 0.27498 0.34774 0.59338 0.0
H2984 H 0.25527 0.34105 0.59049 0.0
H2985 H 0.26718 0.35884 0.60241 0.0
H2986 H 0.24722 0.36045 0.62188 0.0
H2987 H 0.22908 0.36187 0.59881 0.0
H2988 H 0.68454 0.98465 0.66665 0.0
H2989 H 0.6779 0.95889 0.65837 0.0
H2990 H 0.72461 0.97236 0.65483 0.0
H2991 H 0.73131 0.99799 0.66328 0.0
H2992 H 0.68511 0.94933 0.6228 0.0
H2993 H 0.70843 0.93495 0.69021 0.0
H2994 H 0.70556 0.95081 0.69015 0.0
H2995 H 0.72174 0.95202 0.67785 0.0
C2996 C 0.6934 0.98209 0.66437 0.0
C2997 C 0.70846 0.99342 0.66568 0.0
C2998 C 0.68959 0.96735 0.65964 0.0
C2999 C 0.70075 0.96359 0.65631 0.0
C3000 C 0.71578 0.97486 0.65782 0.0
H3001 H 0.7082 0.89242 0.60012 0.0
H3002 H 0.7118 0.91343 0.62186 0.0
C3003 C 0.7196 0.98957 0.66251 0.0
C3004 C 0.69675 0.94821 0.64965 0.0
H3005 H 0.7022 0.91888 0.6607 0.0
C3006 C 0.68865 0.94258 0.63126 0.0
C3007 C 0.70147 0.93942 0.6606 0.0
C3008 C 0.70966 0.94453 0.6809 0.0
C3009 C 0.6856 0.92873 0.62311 0.0
C3010 C 0.69049 0.92001 0.6339 0.0
C3011 C 0.69839 0.9255 0.65249 0.0
C3012 C 0.68821 0.90563 0.62528 0.0
C3013 C 0.67773 0.92385 0.60252 0.0
C3014 C 0.67376 0.89376 0.62116 0.0
C3015 C 0.67171 0.88173 0.60883 0.0
C3016 C 0.68407 0.88125 0.60072 0.0
C3017 C 0.69849 0.89234 0.60661 0.0
C3018 C 0.70055 0.90443 0.61884 0.0
H3019 H 0.6778 0.93325 0.5941 0.0
H3020 H 0.68303 0.91904 0.59255 0.0
H3021 H 0.66592 0.91512 0.60507 0.0
H3022 H 0.66406 0.89431 0.62625 0.0
H3023 H 0.66049 0.87348 0.60415 0.0
H3024 H 0.04176 0.70503 0.6702 0.0
H3025 H 0.06739 0.7238 0.6607 0.0
H3026 H 0.0547 0.75768 0.65945 0.0
H3027 H 0.02928 0.73916 0.66924 0.0
H3028 H 0.07626 0.74003 0.62546 0.0
H3029 H 0.09316 0.77893 0.69171 0.0
H3030 H 0.07699 0.76041 0.69255 0.0
H3031 H 0.07584 0.77555 0.68064 0.0
C3032 C 0.0445 0.71653 0.66823 0.0
C3033 C 0.03345 0.72057 0.67055 0.0
C3034 C 0.05916 0.72725 0.66278 0.0
C3035 C 0.06309 0.74225 0.65969 0.0
C3036 C 0.05211 0.74631 0.66227 0.0
H3037 H 0.12867 0.81971 0.59724 0.0
H3038 H 0.10907 0.80174 0.62025 0.0
C3039 C 0.03749 0.73563 0.66773 0.0
C3040 C 0.07826 0.75342 0.65207 0.0
H3041 H 0.10749 0.78873 0.66045 0.0
C3042 C 0.08322 0.75056 0.63332 0.0
C3043 C 0.08737 0.7672 0.66227 0.0
C3044 C 0.08314 0.77065 0.68301 0.0
C3045 C 0.0966 0.76134 0.62401 0.0
C3046 C 0.10544 0.77532 0.63386 0.0
C3047 C 0.10074 0.77802 0.65292 0.0
C3048 C 0.11886 0.78761 0.62362 0.0
C3049 C 0.10079 0.75796 0.60316 0.0
C3050 C 0.13129 0.78609 0.61877 0.0
C3051 C 0.14258 0.79646 0.60577 0.0
C3052 C 0.14164 0.80854 0.59761 0.0
C3053 C 0.12979 0.81066 0.60373 0.0
C3054 C 0.11854 0.80033 0.61673 0.0
H3055 H 0.09143 0.74784 0.59595 0.0
H3056 H 0.10426 0.76754 0.59246 0.0
H3057 H 0.11035 0.75601 0.605 0.0
H3058 H 0.13184 0.77645 0.62409 0.0
H3059 H 0.15144 0.79443 0.60089 0.0
H3060 H 0.96778 0.61258 0.68963 0.0
H3061 H 0.97559 0.59475 0.6998 0.0
H3062 H 0.02153 0.63019 0.7008 0.0
H3063 H 1.01379 0.6482 0.69084 0.0
H3064 H 0.99565 0.58651 0.68227 0.0
H3065 H 0.01451 0.6129 0.75956 0.0
H3066 H 1.00323 0.61714 0.7427 0.0
H3067 H 0.02289 0.62521 0.73793 0.0
C3068 C 0.97957 0.6166 0.69185 0.0
C3069 C 0.99015 0.63188 0.6896 0.0
C3070 C 0.98402 0.60636 0.69761 0.0
C3071 C 0.99912 0.61114 0.70136 0.0
C3072 C 1.00979 0.62628 0.69833 0.0
H3073 H 0.03875 0.56505 0.76433 0.0
H3074 H 0.03586 0.58226 0.74137 0.0
C3075 C 1.00535 0.63655 0.69254 0.0
C3076 C 1.00351 0.60039 0.70943 0.0
H3077 H 0.01769 0.59244 0.75209 0.0
C3078 C 1.00056 0.58784 0.69749 0.0
C3079 C 1.00986 0.60209 0.72931 0.0
C3080 C 1.01272 0.61497 0.74324 0.0
C3081 C 1.00383 0.57697 0.70488 0.0
C3082 C 1.00996 0.57856 0.72491 0.0
C3083 C 1.0131 0.59124 0.73668 0.0
C3084 C 1.01255 0.56697 0.73465 0.0
C3085 C 1.00079 0.56398 0.6911 0.0
C3086 C 1.00062 0.55236 0.73782 0.0
C3087 C 1.00237 0.54242 0.75067 0.0
C3088 C 0.01602 0.54697 0.76071 0.0
C3089 C 0.0282 0.56119 0.75644 0.0
C3090 C 0.0265 0.57107 0.74349 0.0
H3091 H 1.00083 0.5668 0.67453 0.0
H3092 H 1.00919 0.56041 0.69351 0.0
H3093 H 0.98959 0.5544 0.69476 0.0
H3094 H 0.98966 0.54899 0.73163 0.0
H3095 H 0.99271 0.53166 0.75417 0.0
H3096 H 0.41185 0.35873 0.67879 0.0
H3097 H 0.43106 0.38396 0.68855 0.0
H3098 H 0.397 0.39492 0.70336 0.0
H3099 H 0.37763 0.36971 0.69305 0.0
H3100 H 0.42148 0.41837 0.684 0.0
H3101 H 0.44 0.39621 0.74857 0.0
H3102 H 0.44079 0.3888 0.72382 0.0
H3103 H 0.42303 0.38472 0.73436 0.0
C3104 C 0.40841 0.36653 0.68395 0.0
C3105 C 0.39318 0.36213 0.68535 0.0
C3106 C 0.41943 0.38095 0.68963 0.0
C3107 C 0.4155 0.39126 0.69718 0.0
C3108 C 0.40032 0.38714 0.69772 0.0
H3109 H 0.45825 0.47396 0.76375 0.0
H3110 H 0.44219 0.45374 0.74015 0.0
C3111 C 0.38926 0.37272 0.69183 0.0
C3112 C 0.42716 0.40602 0.70537 0.0
H3113 H 0.45444 0.42208 0.74212 0.0
C3114 C 0.4287 0.41919 0.69669 0.0
C3115 C 0.43658 0.40713 0.72199 0.0
C3116 C 0.43496 0.39348 0.73288 0.0
C3117 C 0.43947 0.43339 0.70409 0.0
C3118 C 0.44885 0.43444 0.72069 0.0
C3119 C 0.4474 0.42129 0.72919 0.0
C3120 C 0.45942 0.44888 0.73081 0.0
C3121 C 0.44075 0.44713 0.69403 0.0
C3122 C 0.4746 0.45325 0.73297 0.0
C3123 C 0.48384 0.46493 0.74637 0.0
C3124 C 0.47798 0.47231 0.75796 0.0
C3125 C 0.46309 0.46865 0.75465 0.0
C3126 C 0.4539 0.45706 0.74119 0.0
H3127 H 0.43609 0.44474 0.67811 0.0
H3128 H 0.43436 0.4511 0.70325 0.0
H3129 H 0.45257 0.45628 0.69336 0.0
H3130 H 0.47907 0.44703 0.72526 0.0
H3131 H 0.49517 0.46732 0.74901 0.0
H3132 H 0.66739 0.06119 0.69651 0.0
H3133 H 0.64217 0.0548 0.70686 0.0
H3134 H 0.62693 1.00819 0.69599 0.0
H3135 H 0.6523 0.01447 0.68606 0.0
H3136 H 0.61497 0.04085 0.68746 0.0
H3137 H 0.61444 1.00778 0.75538 0.0
H3138 H 0.6312 0.01948 0.74088 0.0
H3139 H 0.61769 1.00134 0.73123 0.0
C3140 C 0.65868 0.04956 0.69624 0.0
C3141 C 0.66192 0.03832 0.69065 0.0
C3142 C 0.64423 0.04594 0.70212 0.0
C3143 C 0.63267 0.03099 0.70257 0.0
C3144 C 0.63573 0.01977 0.69623 0.0
H3145 H 0.54309 0.98995 0.75365 0.0
H3146 H 0.56414 0.99507 0.73109 0.0
C3147 C 0.65023 0.02339 0.69045 0.0
C3148 C 0.61762 0.02723 0.71035 0.0
H3149 H 0.59227 1.00818 0.74847 0.0
C3150 C 0.60998 0.03366 0.70076 0.0
C3151 C 0.61113 0.01793 0.7278 0.0
C3152 C 0.61907 0.01134 0.73957 0.0
C3153 C 0.59601 0.03098 0.70807 0.0
C3154 C 0.58958 0.02172 0.72553 0.0
C3155 C 0.59715 0.01517 0.73496 0.0
C3156 C 0.57533 0.01905 0.73503 0.0
C3157 C 0.58821 0.03798 0.69698 0.0
C3158 C 0.57427 0.03088 0.74406 0.0
C3159 C 0.56212 0.02795 0.75679 0.0
C3160 C 0.5509 0.01317 0.7607 0.0
C3161 C 0.55145 1.00145 0.7505 0.0
C3162 C 0.56354 1.00437 0.73778 0.0
H3163 H 0.59247 0.04131 0.68097 0.0
H3164 H 0.57596 0.03018 0.69637 0.0
H3165 H 0.59022 0.04815 0.70547 0.0
H3166 H 0.58335 0.04227 0.74254 0.0
H3167 H 0.56213 0.03711 0.76495 0.0
loop_
_geom_bond_atom_site_label_1
_geom_bond_atom_site_label_2
_geom_bond_distance
_geom_bond_site_symmetry_2
_ccdc_geom_bond_type
O0 Cd1 2.223 . S
O0 C8 1.315 . S
Cd1 O0 2.223 . S
Cd1 O4 2.297 . S
Cd1 O5 2.439 . S
Cd1 O11 2.240 1_554 S
Cd2 O3 2.240 . S
Cd2 O10 2.223 1_554 S
Cd2 O12 2.297 1_554 S
Cd2 O13 2.455 . S
O3 Cd2 2.240 . S
O3 C8 1.279 1_655 S
O4 Cd1 2.297 . S
O4 C6 1.247 . S
O5 Cd1 2.439 . S
O5 C6 1.208 . S
C6 O4 1.247 . S
C6 O5 1.208 . S
C7 O12 1.247 . S
C7 O13 1.190 1_556 S
C8 O0 1.315 . S
C8 O3 1.279 1_455 S
C9 O10 1.315 . S
C9 O11 1.279 1_655 S
O10 Cd2 2.223 1_556 S
O10 C9 1.315 . S
O11 Cd1 2.240 1_556 S
O11 C9 1.279 1_455 S
O12 Cd2 2.297 1_556 S
O12 C7 1.247 . S
O13 Cd2 2.455 . S
O13 C7 1.190 1_554 S
O14 Cd15 2.223 . S
O14 C22 1.315 . S
Cd15 O14 2.223 . S
Cd15 O18 2.297 . S
Cd15 O19 2.439 . S
Cd15 O25 2.240 1_554 S
Cd16 O17 2.240 . S
Cd16 O24 2.223 1_554 S
Cd16 O26 2.297 1_554 S
Cd16 O27 2.454 . S
O17 Cd16 2.240 . S
O17 C22 1.279 . S
O18 Cd15 2.297 . S
O18 C20 1.247 . S
O19 Cd15 2.439 . S
O19 C20 1.208 . S
C20 O18 1.247 . S
C20 O19 1.208 . S
C21 O26 1.247 . S
C21 O27 1.191 1_556 S
C22 O14 1.315 . S
C22 O17 1.279 . S
C23 O24 1.315 . S
C23 O25 1.279 . S
O24 Cd16 2.223 1_556 S
O24 C23 1.315 . S
O25 Cd15 2.240 1_556 S
O25 C23 1.279 . S
O26 Cd16 2.297 1_556 S
O26 C21 1.247 . S
O27 Cd16 2.454 . S
O27 C21 1.191 1_554 S
O28 Cd29 2.223 1_556 S
O28 C36 1.315 . S
Cd29 O28 2.223 1_554 S
Cd29 O32 2.297 1_554 S
Cd29 O33 2.452 . S
Cd29 O39 2.240 . S
Cd30 O31 2.240 1_554 S
Cd30 O38 2.223 . S
Cd30 O40 2.297 . S
Cd30 O41 2.439 . S
O31 Cd30 2.240 1_556 S
O31 C36 1.279 1_565 S
O32 Cd29 2.297 1_556 S
O32 C34 1.247 . S
O33 Cd29 2.452 . S
O33 C34 1.193 1_554 S
C34 O32 1.247 . S
C34 O33 1.193 1_556 S
C35 O40 1.247 . S
C35 O41 1.208 . S
C36 O28 1.315 . S
C36 O31 1.279 1_545 S
C37 O38 1.315 . S
C37 O39 1.279 1_565 S
O38 Cd30 2.223 . S
O38 C37 1.315 . S
O39 Cd29 2.240 . S
O39 C37 1.279 1_545 S
O40 Cd30 2.297 . S
O40 C35 1.247 . S
O41 Cd30 2.439 . S
O41 C35 1.208 . S
O42 Cd43 2.223 1_556 S
O42 C50 1.315 . S
Cd43 O42 2.223 1_554 S
Cd43 O46 2.297 1_554 S
Cd43 O47 2.450 . S
Cd43 O53 2.240 . S
Cd44 O45 2.240 1_554 S
Cd44 O52 2.223 . S
Cd44 O54 2.297 . S
Cd44 O55 2.439 . S
O45 Cd44 2.240 1_556 S
O45 C50 1.279 1_455 S
O46 Cd43 2.297 1_556 S
O46 C48 1.247 . S
O47 Cd43 2.450 . S
O47 C48 1.195 1_554 S
C48 O46 1.247 . S
C48 O47 1.195 1_556 S
C49 O54 1.247 . S
C49 O55 1.208 . S
C50 O42 1.315 . S
C50 O45 1.279 1_655 S
C51 O52 1.315 . S
C51 O53 1.279 1_455 S
O52 Cd44 2.223 . S
O52 C51 1.315 . S
O53 Cd43 2.240 . S
O53 C51 1.279 1_655 S
O54 Cd44 2.297 . S
O54 C49 1.247 . S
O55 Cd44 2.439 . S
O55 C49 1.208 . S
O56 Cd57 2.223 1_556 S
O56 C64 1.315 . S
Cd57 O56 2.223 1_554 S
Cd57 O60 2.297 1_554 S
Cd57 O61 2.442 . S
Cd57 O67 2.240 . S
Cd58 O59 2.240 1_554 S
Cd58 O66 2.223 . S
Cd58 O68 2.297 . S
Cd58 O69 2.439 . S
O59 Cd58 2.240 1_556 S
O59 C64 1.279 . S
O60 Cd57 2.297 1_556 S
O60 C62 1.247 . S
O61 Cd57 2.442 . S
O61 C62 1.204 1_554 S
C62 O60 1.247 . S
C62 O61 1.204 1_556 S
C63 O68 1.247 . S
C63 O69 1.208 . S
C64 O56 1.315 . S
C64 O59 1.279 . S
C65 O66 1.315 . S
C65 O67 1.279 . S
O66 Cd58 2.223 . S
O66 C65 1.315 . S
O67 Cd57 2.240 . S
O67 C65 1.279 . S
O68 Cd58 2.297 . S
O68 C63 1.247 . S
O69 Cd58 2.439 . S
O69 C63 1.208 . S
O70 Cd71 2.223 . S
O70 C78 1.315 . S
Cd71 O70 2.223 . S
Cd71 O74 2.297 . S
Cd71 O75 2.439 . S
Cd71 O81 2.240 1_554 S
Cd72 O73 2.240 . S
Cd72 O80 2.223 1_554 S
Cd72 O82 2.297 1_554 S
Cd72 O83 2.456 . S
O73 Cd72 2.240 . S
O73 C78 1.279 1_545 S
O74 Cd71 2.297 . S
O74 C76 1.247 . S
O75 Cd71 2.439 . S
O75 C76 1.208 . S
C76 O74 1.247 . S
C76 O75 1.208 . S
C77 O82 1.247 . S
C77 O83 1.189 1_556 S
C78 O70 1.315 . S
C78 O73 1.279 1_565 S
C79 O80 1.315 . S
C79 O81 1.279 1_545 S
O80 Cd72 2.223 1_556 S
O80 C79 1.315 . S
O81 Cd71 2.240 1_556 S
O81 C79 1.279 1_565 S
O82 Cd72 2.297 1_556 S
O82 C77 1.247 . S
O83 Cd72 2.456 . S
O83 C77 1.189 1_554 S
O84 Cd85 2.223 . S
O84 C92 1.315 . S
Cd85 O84 2.223 . S
Cd85 O88 2.297 . S
Cd85 O89 2.439 . S
Cd85 O95 2.240 . S
Cd86 O87 2.240 . S
Cd86 O94 2.223 . S
Cd86 O96 2.297 . S
Cd86 O97 2.439 . S
O87 Cd86 2.240 . S
O87 C92 1.279 . S
O88 Cd85 2.297 . S
O88 C90 1.247 . S
O89 Cd85 2.439 . S
O89 C90 1.208 . S
C90 O88 1.247 . S
C90 O89 1.208 . S
C91 O96 1.247 . S
C91 O97 1.208 . S
C92 O84 1.315 . S
C92 O87 1.279 . S
C93 O94 1.315 . S
C93 O95 1.279 . S
O94 Cd86 2.223 . S
O94 C93 1.315 . S
O95 Cd85 2.240 . S
O95 C93 1.279 . S
O96 Cd86 2.297 . S
O96 C91 1.247 . S
O97 Cd86 2.439 . S
O97 C91 1.208 . S
O98 Cd99 2.223 . S
O98 C106 1.315 . S
Cd99 O98 2.223 . S
Cd99 O102 2.297 1_565 S
Cd99 O103 2.439 1_565 S
Cd99 O109 2.240 . S
Cd100 O101 2.240 . S
Cd100 O108 2.223 . S
Cd100 O110 2.297 . S
Cd100 O111 2.439 . S
O101 Cd100 2.240 . S
O101 C106 1.279 . S
O102 Cd99 2.297 1_545 S
O102 C104 1.247 . S
O103 Cd99 2.439 1_545 S
O103 C104 1.208 . S
C104 O102 1.247 . S
C104 O103 1.208 . S
C105 O110 1.247 . S
C105 O111 1.208 . S
C106 O98 1.315 . S
C106 O101 1.279 . S
C107 O108 1.315 . S
C107 O109 1.279 . S
O108 Cd100 2.223 . S
O108 C107 1.315 . S
O109 Cd99 2.240 . S
O109 C107 1.279 . S
O110 Cd100 2.297 . S
O110 C105 1.247 . S
O111 Cd100 2.439 . S
O111 C105 1.208 . S
O112 Cd113 2.223 . S
O112 C120 1.315 . S
Cd113 O112 2.223 . S
Cd113 O116 2.297 . S
Cd113 O117 2.439 . S
Cd113 O123 2.240 . S
Cd114 O115 2.240 . S
Cd114 O122 2.223 . S
Cd114 O124 2.297 1_455 S
Cd114 O125 2.439 1_455 S
O115 Cd114 2.240 . S
O115 C120 1.279 . S
O116 Cd113 2.297 . S
O116 C118 1.247 . S
O117 Cd113 2.439 . S
O117 C118 1.208 . S
C118 O116 1.247 . S
C118 O117 1.208 . S
C119 O124 1.247 . S
C119 O125 1.208 . S
C120 O112 1.315 . S
C120 O115 1.279 . S
C121 O122 1.315 . S
C121 O123 1.279 . S
O122 Cd114 2.223 . S
O122 C121 1.315 . S
O123 Cd113 2.240 . S
O123 C121 1.279 . S
O124 Cd114 2.297 1_655 S
O124 C119 1.247 . S
O125 Cd114 2.439 1_655 S
O125 C119 1.208 . S
O126 Cd127 2.223 . S
O126 C134 1.315 . S
Cd127 O126 2.223 . S
Cd127 O130 2.297 . S
Cd127 O131 2.439 . S
Cd127 O137 2.240 . S
Cd128 O129 2.240 . S
Cd128 O136 2.223 . S
Cd128 O138 2.297 1_565 S
Cd128 O139 2.439 1_565 S
O129 Cd128 2.240 . S
O129 C134 1.279 . S
O130 Cd127 2.297 . S
O130 C132 1.247 . S
O131 Cd127 2.439 . S
O131 C132 1.208 . S
C132 O130 1.247 . S
C132 O131 1.208 . S
C133 O138 1.247 . S
C133 O139 1.208 . S
C134 O126 1.315 . S
C134 O129 1.279 . S
C135 O136 1.315 . S
C135 O137 1.279 . S
O136 Cd128 2.223 . S
O136 C135 1.315 . S
O137 Cd127 2.240 . S
O137 C135 1.279 . S
O138 Cd128 2.297 1_545 S
O138 C133 1.247 . S
O139 Cd128 2.439 1_545 S
O139 C133 1.208 . S
O140 Cd141 2.223 . S
O140 C148 1.315 . S
Cd141 O140 2.223 . S
Cd141 O144 2.297 . S
Cd141 O145 2.439 . S
Cd141 O151 2.240 . S
Cd142 O143 2.240 . S
Cd142 O150 2.223 . S
Cd142 O152 2.297 1_455 S
Cd142 O153 2.439 1_455 S
O143 Cd142 2.240 . S
O143 C148 1.279 . S
O144 Cd141 2.297 . S
O144 C146 1.247 . S
O145 Cd141 2.439 . S
O145 C146 1.208 . S
C146 O144 1.247 . S
C146 O145 1.208 . S
C147 O152 1.247 . S
C147 O153 1.208 . S
C148 O140 1.315 . S
C148 O143 1.279 . S
C149 O150 1.315 . S
C149 O151 1.279 . S
O150 Cd142 2.223 . S
O150 C149 1.315 . S
O151 Cd141 2.240 . S
O151 C149 1.279 . S
O152 Cd142 2.297 1_655 S
O152 C147 1.247 . S
O153 Cd142 2.439 1_655 S
O153 C147 1.208 . S
O154 Cd155 2.223 . S
O154 C162 1.315 . S
Cd155 O154 2.223 . S
Cd155 O158 2.297 . S
Cd155 O159 2.439 . S
Cd155 O165 2.240 . S
Cd156 O157 2.240 . S
Cd156 O164 2.223 . S
Cd156 O166 2.297 . S
Cd156 O167 2.439 . S
O157 Cd156 2.240 . S
O157 C162 1.279 . S
O158 Cd155 2.297 . S
O158 C160 1.247 . S
O159 Cd155 2.439 . S
O159 C160 1.208 . S
C160 O158 1.247 . S
C160 O159 1.208 . S
C161 O166 1.247 . S
C161 O167 1.208 . S
C162 O154 1.315 . S
C162 O157 1.279 . S
C163 O164 1.315 . S
C163 O165 1.279 . S
O164 Cd156 2.223 . S
O164 C163 1.315 . S
O165 Cd155 2.240 . S
O165 C163 1.279 . S
O166 Cd156 2.297 . S
O166 C161 1.247 . S
O167 Cd156 2.439 . S
O167 C161 1.208 . S
O168 Cd169 2.223 . S
O168 C176 1.315 . S
Cd169 O168 2.223 . S
Cd169 O172 2.297 . S
Cd169 O173 2.439 . S
Cd169 O179 2.240 . S
Cd170 O171 2.240 . S
Cd170 O178 2.223 . S
Cd170 O180 2.297 1_545 S
Cd170 O181 2.439 1_545 S
O171 Cd170 2.240 . S
O171 C176 1.279 . S
O172 Cd169 2.297 . S
O172 C174 1.247 . S
O173 Cd169 2.439 . S
O173 C174 1.208 . S
C174 O172 1.247 . S
C174 O173 1.208 . S
C175 O180 1.247 . S
C175 O181 1.208 . S
C176 O168 1.315 . S
C176 O171 1.279 . S
C177 O178 1.315 . S
C177 O179 1.279 . S
O178 Cd170 2.223 . S
O178 C177 1.315 . S
O179 Cd169 2.240 . S
O179 C177 1.279 . S
O180 Cd170 2.297 1_565 S
O180 C175 1.247 . S
O181 Cd170 2.439 1_565 S
O181 C175 1.208 . S
O182 Cd183 2.223 . S
O182 C190 1.315 . S
Cd183 O182 2.223 . S
Cd183 O186 2.297 . S
Cd183 O187 2.439 . S
Cd183 O193 2.240 . S
Cd184 O185 2.240 . S
Cd184 O192 2.223 . S
Cd184 O194 2.297 1_655 S
Cd184 O195 2.439 1_655 S
O185 Cd184 2.240 . S
O185 C190 1.279 . S
O186 Cd183 2.297 . S
O186 C188 1.247 . S
O187 Cd183 2.439 . S
O187 C188 1.208 . S
C188 O186 1.247 . S
C188 O187 1.208 . S
C189 O194 1.247 . S
C189 O195 1.208 . S
C190 O182 1.315 . S
C190 O185 1.279 . S
C191 O192 1.315 . S
C191 O193 1.279 . S
O192 Cd184 2.223 . S
O192 C191 1.315 . S
O193 Cd183 2.240 . S
O193 C191 1.279 . S
O194 Cd184 2.297 1_455 S
O194 C189 1.247 . S
O195 Cd184 2.439 1_455 S
O195 C189 1.208 . S
O196 Cd197 2.223 . S
O196 C204 1.315 . S
Cd197 O196 2.223 . S
Cd197 O200 2.297 . S
Cd197 O201 2.439 . S
Cd197 O207 2.240 . S
Cd198 O199 2.240 . S
Cd198 O206 2.223 . S
Cd198 O208 2.297 . S
Cd198 O209 2.439 . S
O199 Cd198 2.240 . S
O199 C204 1.279 . S
O200 Cd197 2.297 . S
O200 C202 1.247 . S
O201 Cd197 2.439 . S
O201 C202 1.208 . S
C202 O200 1.247 . S
C202 O201 1.208 . S
C203 O208 1.247 . S
C203 O209 1.208 . S
C204 O196 1.315 . S
C204 O199 1.279 . S
C205 O206 1.315 . S
C205 O207 1.279 . S
O206 Cd198 2.223 . S
O206 C205 1.315 . S
O207 Cd197 2.240 . S
O207 C205 1.279 . S
O208 Cd198 2.297 . S
O208 C203 1.247 . S
O209 Cd198 2.439 . S
O209 C203 1.208 . S
O210 Cd211 2.223 . S
O210 C218 1.315 . S
Cd211 O210 2.223 . S
Cd211 O214 2.297 . S
Cd211 O215 2.439 . S
Cd211 O221 2.240 . S
Cd212 O213 2.240 . S
Cd212 O220 2.223 . S
Cd212 O222 2.297 . S
Cd212 O223 2.439 . S
O213 Cd212 2.240 . S
O213 C218 1.279 . S
O214 Cd211 2.297 . S
O214 C216 1.247 . S
O215 Cd211 2.439 . S
O215 C216 1.208 . S
C216 O214 1.247 . S
C216 O215 1.208 . S
C217 O222 1.247 . S
C217 O223 1.208 . S
C218 O210 1.315 . S
C218 O213 1.279 . S
C219 O220 1.315 . S
C219 O221 1.279 . S
O220 Cd212 2.223 . S
O220 C219 1.315 . S
O221 Cd211 2.240 . S
O221 C219 1.279 . S
O222 Cd212 2.297 . S
O222 C217 1.247 . S
O223 Cd212 2.439 . S
O223 C217 1.208 . S
O224 Cd225 2.223 . S
O224 C232 1.315 . S
Cd225 O224 2.223 . S
Cd225 O228 2.297 1_545 S
Cd225 O229 2.439 1_545 S
Cd225 O235 2.240 . S
Cd226 O227 2.240 . S
Cd226 O234 2.223 . S
Cd226 O236 2.297 . S
Cd226 O237 2.439 . S
O227 Cd226 2.240 . S
O227 C232 1.279 . S
O228 Cd225 2.297 1_565 S
O228 C230 1.247 . S
O229 Cd225 2.439 1_565 S
O229 C230 1.208 . S
C230 O228 1.247 . S
C230 O229 1.208 . S
C231 O236 1.247 . S
C231 O237 1.208 . S
C232 O224 1.315 . S
C232 O227 1.279 . S
C233 O234 1.315 . S
C233 O235 1.279 . S
O234 Cd226 2.223 . S
O234 C233 1.315 . S
O235 Cd225 2.240 . S
O235 C233 1.279 . S
O236 Cd226 2.297 . S
O236 C231 1.247 . S
O237 Cd226 2.439 . S
O237 C231 1.208 . S
O238 Cd239 2.223 . S
O238 C246 1.315 . S
Cd239 O238 2.223 . S
Cd239 O242 2.297 . S
Cd239 O243 2.439 . S
Cd239 O249 2.240 . S
Cd240 O241 2.240 . S
Cd240 O248 2.223 . S
Cd240 O250 2.297 1_655 S
Cd240 O251 2.439 1_655 S
O241 Cd240 2.240 . S
O241 C246 1.279 . S
O242 Cd239 2.297 . S
O242 C244 1.247 . S
O243 Cd239 2.439 . S
O243 C244 1.208 . S
C244 O242 1.247 . S
C244 O243 1.208 . S
C245 O250 1.247 . S
C245 O251 1.208 . S
C246 O238 1.315 . S
C246 O241 1.279 . S
C247 O248 1.315 . S
C247 O249 1.279 . S
O248 Cd240 2.223 . S
O248 C247 1.315 . S
O249 Cd239 2.240 . S
O249 C247 1.279 . S
O250 Cd240 2.297 1_455 S
O250 C245 1.247 . S
O251 Cd240 2.439 1_455 S
O251 C245 1.208 . S
H252 C258 0.930 . S
H253 C261 0.931 . S
H254 C263 0.931 . S
H255 C265 0.930 . S
H256 C267 0.930 . S
H257 C269 0.931 . S
C258 H252 0.930 . S
C258 C259 1.380 . S
C258 C260 1.394 . S
C259 C258 1.380 . S
C259 C263 1.382 . S
C260 C258 1.394 . S
C260 C261 1.400 . S
C261 H253 0.931 . S
C261 C260 1.400 . S
C261 C262 1.375 . S
C262 C261 1.375 . S
C262 C263 1.415 . S
C262 C264 1.501 . S
C263 H254 0.931 . S
C263 C259 1.382 . S
C263 C262 1.415 . S
C264 C262 1.501 . S
C264 C265 1.384 . S
C264 C269 1.408 . S
C265 H255 0.930 . S
C265 C264 1.384 . S
C265 C266 1.389 . S
C266 C265 1.389 . S
C266 C267 1.405 . S
C267 H256 0.930 . S
C267 C266 1.405 . S
C267 C268 1.364 . S
C268 C267 1.364 . S
C268 C269 1.400 . S
C269 H257 0.931 . S
C269 C264 1.408 . S
C269 C268 1.400 . S
H270 C276 0.930 . S
H271 C279 0.931 . S
H272 C281 0.931 . S
H273 C283 0.930 . S
H274 C285 0.930 . S
H275 C287 0.931 . S
C276 H270 0.930 . S
C276 C277 1.380 . S
C276 C278 1.394 . S
C277 C276 1.380 . S
C277 C281 1.382 . S
C278 C276 1.394 . S
C278 C279 1.400 . S
C279 H271 0.931 . S
C279 C278 1.400 . S
C279 C280 1.375 . S
C280 C279 1.375 . S
C280 C281 1.415 . S
C280 C282 1.501 . S
C281 H272 0.931 . S
C281 C277 1.382 . S
C281 C280 1.415 . S
C282 C280 1.501 . S
C282 C283 1.384 . S
C282 C287 1.408 . S
C283 H273 0.930 . S
C283 C282 1.384 . S
C283 C284 1.389 . S
C284 C283 1.389 . S
C284 C285 1.405 . S
C285 H274 0.930 . S
C285 C284 1.405 . S
C285 C286 1.364 . S
C286 C285 1.364 . S
C286 C287 1.400 . S
C287 H275 0.931 . S
C287 C282 1.408 . S
C287 C286 1.400 . S
H288 C294 0.930 . S
H289 C297 0.931 . S
H290 C299 0.931 . S
H291 C301 0.930 . S
H292 C303 0.930 . S
H293 C305 0.931 . S
C294 H288 0.930 . S
C294 C295 1.380 . S
C294 C296 1.394 . S
C295 C294 1.380 . S
C295 C299 1.382 . S
C296 C294 1.394 . S
C296 C297 1.400 . S
C297 H289 0.931 . S
C297 C296 1.400 . S
C297 C298 1.375 . S
C298 C297 1.375 . S
C298 C299 1.415 . S
C298 C300 1.501 . S
C299 H290 0.931 . S
C299 C295 1.382 . S
C299 C298 1.415 . S
C300 C298 1.501 . S
C300 C301 1.384 . S
C300 C305 1.408 . S
C301 H291 0.930 . S
C301 C300 1.384 . S
C301 C302 1.389 . S
C302 C301 1.389 . S
C302 C303 1.405 . S
C303 H292 0.930 . S
C303 C302 1.405 . S
C303 C304 1.364 . S
C304 C303 1.364 . S
C304 C305 1.400 . S
C305 H293 0.931 . S
C305 C300 1.408 . S
C305 C304 1.400 . S
H306 C312 0.930 . S
H307 C315 0.931 . S
H308 C317 0.931 . S
H309 C319 0.930 . S
H310 C321 0.930 . S
H311 C323 0.931 . S
C312 H306 0.930 . S
C312 C313 1.380 . S
C312 C314 1.394 . S
C313 C312 1.380 . S
C313 C317 1.382 . S
C314 C312 1.394 . S
C314 C315 1.400 . S
C315 H307 0.931 . S
C315 C314 1.400 . S
C315 C316 1.375 . S
C316 C315 1.375 . S
C316 C317 1.415 . S
C316 C318 1.501 . S
C317 H308 0.931 . S
C317 C313 1.382 . S
C317 C316 1.415 . S
C318 C316 1.501 . S
C318 C319 1.384 . S
C318 C323 1.408 . S
C319 H309 0.930 . S
C319 C318 1.384 . S
C319 C320 1.389 . S
C320 C319 1.389 . S
C320 C321 1.405 . S
C321 H310 0.930 . S
C321 C320 1.405 . S
C321 C322 1.364 . S
C322 C321 1.364 . S
C322 C323 1.400 . S
C323 H311 0.931 . S
C323 C318 1.408 . S
C323 C322 1.400 . S
H324 C330 0.930 . S
H325 C333 0.931 . S
H326 C335 0.931 . S
H327 C337 0.930 . S
H328 C339 0.930 . S
H329 C341 0.931 . S
C330 H324 0.930 . S
C330 C331 1.380 . S
C330 C332 1.394 . S
C331 C330 1.380 . S
C331 C335 1.382 . S
C332 C330 1.394 . S
C332 C333 1.400 . S
C333 H325 0.931 . S
C333 C332 1.400 . S
C333 C334 1.375 . S
C334 C333 1.375 . S
C334 C335 1.415 . S
C334 C336 1.501 . S
C335 H326 0.931 . S
C335 C331 1.382 . S
C335 C334 1.415 . S
C336 C334 1.501 . S
C336 C337 1.384 . S
C336 C341 1.408 . S
C337 H327 0.930 . S
C337 C336 1.384 . S
C337 C338 1.389 . S
C338 C337 1.389 . S
C338 C339 1.405 . S
C339 H328 0.930 . S
C339 C338 1.405 . S
C339 C340 1.364 . S
C340 C339 1.364 . S
C340 C341 1.400 . S
C341 H329 0.931 . S
C341 C336 1.408 . S
C341 C340 1.400 . S
H342 C348 0.930 . S
H343 C351 0.931 . S
H344 C353 0.931 . S
H345 C355 0.930 . S
H346 C357 0.930 . S
H347 C359 0.931 . S
C348 H342 0.930 . S
C348 C349 1.380 . S
C348 C350 1.394 . S
C349 C348 1.380 . S
C349 C353 1.382 . S
C350 C348 1.394 . S
C350 C351 1.400 . S
C351 H343 0.931 . S
C351 C350 1.400 . S
C351 C352 1.375 . S
C352 C351 1.375 . S
C352 C353 1.415 . S
C352 C354 1.501 . S
C353 H344 0.931 . S
C353 C349 1.382 . S
C353 C352 1.415 . S
C354 C352 1.501 . S
C354 C355 1.384 . S
C354 C359 1.408 . S
C355 H345 0.930 . S
C355 C354 1.384 . S
C355 C356 1.389 . S
C356 C355 1.389 . S
C356 C357 1.405 . S
C357 H346 0.930 . S
C357 C356 1.405 . S
C357 C358 1.364 . S
C358 C357 1.364 . S
C358 C359 1.400 . S
C359 H347 0.931 . S
C359 C354 1.408 . S
C359 C358 1.400 . S
H360 C366 0.930 . S
H361 C369 0.931 . S
H362 C371 0.931 . S
H363 C373 0.930 . S
H364 C375 0.930 . S
H365 C377 0.931 . S
C366 H360 0.930 . S
C366 C367 1.380 . S
C366 C368 1.394 . S
C367 C366 1.380 . S
C367 C371 1.382 . S
C368 C366 1.394 . S
C368 C369 1.400 . S
C369 H361 0.931 . S
C369 C368 1.400 . S
C369 C370 1.375 . S
C370 C369 1.375 . S
C370 C371 1.415 . S
C370 C372 1.501 . S
C371 H362 0.931 . S
C371 C367 1.382 . S
C371 C370 1.415 . S
C372 C370 1.501 . S
C372 C373 1.384 . S
C372 C377 1.408 . S
C373 H363 0.930 . S
C373 C372 1.384 . S
C373 C374 1.389 . S
C374 C373 1.389 . S
C374 C375 1.405 . S
C375 H364 0.930 . S
C375 C374 1.405 . S
C375 C376 1.364 . S
C376 C375 1.364 . S
C376 C377 1.400 . S
C377 H365 0.931 . S
C377 C372 1.408 . S
C377 C376 1.400 . S
H378 C384 0.930 . S
H379 C387 0.931 . S
H380 C389 0.931 . S
H381 C391 0.930 . S
H382 C393 0.930 . S
H383 C395 0.931 . S
C384 H378 0.930 . S
C384 C385 1.380 . S
C384 C386 1.394 . S
C385 C384 1.380 . S
C385 C389 1.382 . S
C386 C384 1.394 . S
C386 C387 1.400 . S
C387 H379 0.931 . S
C387 C386 1.400 . S
C387 C388 1.375 . S
C388 C387 1.375 . S
C388 C389 1.415 . S
C388 C390 1.501 . S
C389 H380 0.931 . S
C389 C385 1.382 . S
C389 C388 1.415 . S
C390 C388 1.501 . S
C390 C391 1.384 . S
C390 C395 1.408 . S
C391 H381 0.930 . S
C391 C390 1.384 . S
C391 C392 1.389 . S
C392 C391 1.389 . S
C392 C393 1.405 . S
C393 H382 0.930 . S
C393 C392 1.405 . S
C393 C394 1.364 . S
C394 C393 1.364 . S
C394 C395 1.400 . S
C395 H383 0.931 . S
C395 C390 1.408 . S
C395 C394 1.400 . S
H396 C402 0.930 . S
H397 C405 0.931 . S
H398 C407 0.931 . S
H399 C409 0.930 . S
H400 C411 0.930 . S
H401 C413 0.931 . S
C402 H396 0.930 . S
C402 C403 1.380 . S
C402 C404 1.394 . S
C403 C402 1.380 . S
C403 C407 1.382 . S
C404 C402 1.394 . S
C404 C405 1.400 . S
C405 H397 0.931 . S
C405 C404 1.400 . S
C405 C406 1.375 . S
C406 C405 1.375 . S
C406 C407 1.415 . S
C406 C408 1.501 . S
C407 H398 0.931 . S
C407 C403 1.382 . S
C407 C406 1.415 . S
C408 C406 1.501 . S
C408 C409 1.384 . S
C408 C413 1.408 . S
C409 H399 0.930 . S
C409 C408 1.384 . S
C409 C410 1.389 . S
C410 C409 1.389 . S
C410 C411 1.405 . S
C411 H400 0.930 . S
C411 C410 1.405 . S
C411 C412 1.364 . S
C412 C411 1.364 . S
C412 C413 1.400 . S
C413 H401 0.931 . S
C413 C408 1.408 . S
C413 C412 1.400 . S
H414 C420 0.922 . S
H415 C423 0.931 . S
H416 C425 0.931 . S
H417 C427 0.930 . S
H418 C429 0.930 . S
H419 C431 0.940 1_655 S
C420 H414 0.922 . S
C420 C421 1.387 . S
C420 C422 1.396 1_655 S
C421 C420 1.387 . S
C421 C425 1.382 . S
C422 C420 1.396 1_455 S
C422 C423 1.400 . S
C423 H415 0.931 . S
C423 C422 1.400 . S
C423 C424 1.375 . S
C424 C423 1.375 . S
C424 C425 1.415 1_455 S
C424 C426 1.501 . S
C425 H416 0.931 . S
C425 C421 1.382 . S
C425 C424 1.415 1_655 S
C426 C424 1.501 . S
C426 C427 1.384 . S
C426 C431 1.417 . S
C427 H417 0.930 . S
C427 C426 1.384 . S
C427 C428 1.389 . S
C428 C427 1.389 . S
C428 C429 1.405 . S
C429 H418 0.930 . S
C429 C428 1.405 . S
C429 C430 1.361 . S
C430 C429 1.361 . S
C430 C431 1.394 . S
C431 H419 0.940 1_455 S
C431 C426 1.417 . S
C431 C430 1.394 . S
H432 C438 0.930 . S
H433 C441 0.931 . S
H434 C443 0.931 . S
H435 C445 0.930 . S
H436 C447 0.930 . S
H437 C449 0.931 . S
C438 H432 0.930 . S
C438 C439 1.380 . S
C438 C440 1.394 . S
C439 C438 1.380 . S
C439 C443 1.382 . S
C440 C438 1.394 . S
C440 C441 1.400 . S
C441 H433 0.931 . S
C441 C440 1.400 . S
C441 C442 1.375 . S
C442 C441 1.375 . S
C442 C443 1.415 . S
C442 C444 1.501 . S
C443 H434 0.931 . S
C443 C439 1.382 . S
C443 C442 1.415 . S
C444 C442 1.501 . S
C444 C445 1.384 . S
C444 C449 1.408 . S
C445 H435 0.930 . S
C445 C444 1.384 . S
C445 C446 1.389 . S
C446 C445 1.389 . S
C446 C447 1.405 . S
C447 H436 0.930 . S
C447 C446 1.405 . S
C447 C448 1.364 . S
C448 C447 1.364 . S
C448 C449 1.400 . S
C449 H437 0.931 . S
C449 C444 1.408 . S
C449 C448 1.400 . S
H450 C456 0.941 . S
H451 C459 0.931 . S
H452 C461 0.931 . S
H453 C463 0.930 . S
H454 C465 0.930 . S
H455 C467 0.919 1_545 S
C456 H450 0.941 . S
C456 C457 1.377 . S
C456 C458 1.386 1_545 S
C457 C456 1.377 . S
C457 C461 1.382 . S
C458 C456 1.386 1_565 S
C458 C459 1.400 . S
C459 H451 0.931 . S
C459 C458 1.400 . S
C459 C460 1.375 . S
C460 C459 1.375 . S
C460 C461 1.415 1_565 S
C460 C462 1.501 . S
C461 H452 0.931 . S
C461 C457 1.382 . S
C461 C460 1.415 1_545 S
C462 C460 1.501 . S
C462 C463 1.384 . S
C462 C467 1.402 . S
C463 H453 0.930 . S
C463 C462 1.384 . S
C463 C464 1.389 . S
C464 C463 1.389 . S
C464 C465 1.405 . S
C465 H454 0.930 . S
C465 C464 1.405 . S
C465 C466 1.369 . S
C466 C465 1.369 . S
C466 C467 1.407 . S
C467 H455 0.919 1_565 S
C467 C462 1.402 . S
C467 C466 1.407 . S
H468 C474 0.913 . S
H469 C477 0.931 . S
H470 C479 0.927 1_545 S
H471 C481 0.930 . S
H472 C483 0.898 . S
H473 C485 0.931 . S
C474 H468 0.913 . S
C474 C475 1.380 . S
C474 C476 1.416 1_545 S
C475 C474 1.380 . S
C475 C479 1.399 1_545 S
C476 C474 1.416 1_565 S
C476 C477 1.374 . S
C477 H469 0.931 . S
C477 C476 1.374 . S
C477 C478 1.375 . S
C478 C477 1.375 . S
C478 C479 1.416 . S
C478 C480 1.501 . S
C479 H470 0.927 1_565 S
C479 C475 1.399 1_565 S
C479 C478 1.416 . S
C480 C478 1.501 . S
C480 C481 1.384 . S
C480 C485 1.408 1_565 S
C481 H471 0.930 . S
C481 C480 1.384 . S
C481 C482 1.389 . S
C482 C481 1.389 . S
C482 C483 1.433 . S
C483 H472 0.898 . S
C483 C482 1.433 . S
C483 C484 1.374 1_565 S
C484 C483 1.374 1_545 S
C484 C485 1.400 . S
C485 H473 0.931 . S
C485 C480 1.408 1_545 S
C485 C484 1.400 . S
H486 C492 0.953 . S
H487 C495 0.931 . S
H488 C497 0.934 1_655 S
H489 C499 0.930 . S
H490 C501 0.971 . S
H491 C503 0.931 . S
C492 H486 0.953 . S
C492 C493 1.380 . S
C492 C494 1.366 1_655 S
C493 C492 1.380 . S
C493 C497 1.364 1_655 S
C494 C492 1.366 1_455 S
C494 C495 1.436 . S
C495 H487 0.931 . S
C495 C494 1.436 . S
C495 C496 1.375 . S
C496 C495 1.375 . S
C496 C497 1.413 . S
C496 C498 1.501 . S
C497 H488 0.934 1_455 S
C497 C493 1.364 1_455 S
C497 C496 1.413 . S
C498 C496 1.501 . S
C498 C499 1.384 . S
C498 C503 1.408 1_455 S
C499 H489 0.930 . S
C499 C498 1.384 . S
C499 C500 1.389 . S
C500 C499 1.389 . S
C500 C501 1.397 . S
C501 H490 0.971 . S
C501 C500 1.397 . S
C501 C502 1.336 1_455 S
C502 C501 1.336 1_655 S
C502 C503 1.400 . S
C503 H491 0.931 . S
C503 C498 1.408 1_655 S
C503 C502 1.400 . S
H504 C510 0.930 . S
H505 C513 0.931 . S
H506 C515 0.931 . S
H507 C517 0.930 . S
H508 C519 0.930 . S
H509 C521 0.931 . S
C510 H504 0.930 . S
C510 C511 1.380 . S
C510 C512 1.394 . S
C511 C510 1.380 . S
C511 C515 1.382 . S
C512 C510 1.394 . S
C512 C513 1.400 . S
C513 H505 0.931 . S
C513 C512 1.400 . S
C513 C514 1.375 . S
C514 C513 1.375 . S
C514 C515 1.415 . S
C514 C516 1.501 . S
C515 H506 0.931 . S
C515 C511 1.382 . S
C515 C514 1.415 . S
C516 C514 1.501 . S
C516 C517 1.384 . S
C516 C521 1.408 . S
C517 H507 0.930 . S
C517 C516 1.384 . S
C517 C518 1.389 . S
C518 C517 1.389 . S
C518 C519 1.405 . S
C519 H508 0.930 . S
C519 C518 1.405 . S
C519 C520 1.364 . S
C520 C519 1.364 . S
C520 C521 1.400 . S
C521 H509 0.931 . S
C521 C516 1.408 . S
C521 C520 1.400 . S
H522 C528 0.930 . S
H523 C531 0.931 . S
H524 C533 0.931 . S
H525 C535 0.930 . S
H526 C537 0.930 . S
H527 C539 0.931 . S
C528 H522 0.930 . S
C528 C529 1.380 . S
C528 C530 1.394 . S
C529 C528 1.380 . S
C529 C533 1.382 . S
C530 C528 1.394 . S
C530 C531 1.400 . S
C531 H523 0.931 . S
C531 C530 1.400 . S
C531 C532 1.375 . S
C532 C531 1.375 . S
C532 C533 1.415 . S
C532 C534 1.501 . S
C533 H524 0.931 . S
C533 C529 1.382 . S
C533 C532 1.415 . S
C534 C532 1.501 . S
C534 C535 1.384 . S
C534 C539 1.408 . S
C535 H525 0.930 . S
C535 C534 1.384 . S
C535 C536 1.389 . S
C536 C535 1.389 . S
C536 C537 1.405 . S
C537 H526 0.930 . S
C537 C536 1.405 . S
C537 C538 1.364 . S
C538 C537 1.364 . S
C538 C539 1.400 . S
C539 H527 0.931 . S
C539 C534 1.408 . S
C539 C538 1.400 . S
H540 C546 0.930 . S
H541 C549 0.931 . S
H542 C551 0.931 . S
H543 C553 0.930 . S
H544 C555 0.930 . S
H545 C557 0.931 . S
C546 H540 0.930 . S
C546 C547 1.380 . S
C546 C548 1.394 . S
C547 C546 1.380 . S
C547 C551 1.382 . S
C548 C546 1.394 . S
C548 C549 1.400 . S
C549 H541 0.931 . S
C549 C548 1.400 . S
C549 C550 1.375 . S
C550 C549 1.375 . S
C550 C551 1.415 . S
C550 C552 1.501 . S
C551 H542 0.931 . S
C551 C547 1.382 . S
C551 C550 1.415 . S
C552 C550 1.501 . S
C552 C553 1.384 . S
C552 C557 1.408 . S
C553 H543 0.930 . S
C553 C552 1.384 . S
C553 C554 1.389 . S
C554 C553 1.389 . S
C554 C555 1.405 . S
C555 H544 0.930 . S
C555 C554 1.405 . S
C555 C556 1.364 . S
C556 C555 1.364 . S
C556 C557 1.400 . S
C557 H545 0.931 . S
C557 C552 1.408 . S
C557 C556 1.400 . S
H558 C564 0.930 . S
H559 C567 0.931 . S
H560 C569 0.931 . S
H561 C571 0.930 . S
H562 C573 0.930 . S
H563 C575 0.931 . S
C564 H558 0.930 . S
C564 C565 1.380 . S
C564 C566 1.394 . S
C565 C564 1.380 . S
C565 C569 1.382 . S
C566 C564 1.394 . S
C566 C567 1.400 . S
C567 H559 0.931 . S
C567 C566 1.400 . S
C567 C568 1.375 . S
C568 C567 1.375 . S
C568 C569 1.415 . S
C568 C570 1.501 . S
C569 H560 0.931 . S
C569 C565 1.382 . S
C569 C568 1.415 . S
C570 C568 1.501 . S
C570 C571 1.384 . S
C570 C575 1.408 . S
C571 H561 0.930 . S
C571 C570 1.384 . S
C571 C572 1.389 . S
C572 C571 1.389 . S
C572 C573 1.405 . S
C573 H562 0.930 . S
C573 C572 1.405 . S
C573 C574 1.364 . S
C574 C573 1.364 . S
C574 C575 1.400 . S
C575 H563 0.931 . S
C575 C570 1.408 . S
C575 C574 1.400 . S
H576 C584 0.929 . S
H577 C586 0.930 . S
H578 C588 0.930 . S
H579 C591 0.929 . S
H580 C594 0.930 . S
H581 C596 0.960 . S
H582 C596 0.960 . S
H583 C596 0.960 . S
C584 H576 0.929 . S
C584 C585 1.408 . S
C584 C586 1.384 . S
C585 C584 1.408 . S
C585 C591 1.337 1_455 S
C586 H577 0.930 . S
C586 C584 1.384 . S
C586 C587 1.400 . S
C587 C586 1.400 . S
C587 C588 1.384 1_455 S
C587 C592 1.482 . S
C588 H578 0.930 . S
C588 C587 1.384 1_655 S
C588 C591 1.386 . S
H589 C605 0.930 . S
H590 C606 0.931 . S
C591 H579 0.929 . S
C591 C585 1.337 1_655 S
C591 C588 1.386 . S
C592 C587 1.482 . S
C592 C594 1.395 . S
C592 C595 1.398 1_455 S
H593 C599 0.930 . S
C594 H580 0.930 . S
C594 C592 1.395 . S
C594 C597 1.403 . S
C595 C592 1.398 1_655 S
C595 C596 1.524 . S
C595 C599 1.400 . S
C596 H581 0.960 . S
C596 H582 0.960 . S
C596 H583 0.960 . S
C596 C595 1.524 . S
C597 C594 1.403 . S
C597 C598 1.399 . S
C597 C601 1.495 . S
C598 C597 1.399 . S
C598 C599 1.385 1_455 S
C598 C600 1.452 1_455 S
C599 H593 0.930 . S
C599 C595 1.400 . S
C599 C598 1.385 1_655 S
C600 C598 1.452 1_655 S
C600 C602 1.359 1_655 S
C600 C606 1.425 . S
C601 C597 1.495 . S
C601 H607 0.959 . S
C601 H608 0.961 . S
C601 H609 0.960 . S
C602 C600 1.359 1_455 S
C602 C603 1.394 . S
C602 H610 0.930 . S
C603 C602 1.394 . S
C603 C604 1.383 1_455 S
C603 H611 0.929 . S
C604 C603 1.383 1_655 S
C604 C605 1.377 . S
C605 H589 0.930 . S
C605 C604 1.377 . S
C605 C606 1.379 . S
C606 H590 0.931 . S
C606 C600 1.425 . S
C606 C605 1.379 . S
H607 C601 0.959 . S
H608 C601 0.961 . S
H609 C601 0.960 . S
H610 C602 0.930 . S
H611 C603 0.929 . S
H612 C620 0.929 . S
H613 C622 0.930 . S
H614 C624 0.930 . S
H615 C627 0.929 . S
H616 C630 0.930 . S
H617 C632 0.960 . S
H618 C632 0.960 . S
H619 C632 0.960 . S
C620 H612 0.929 . S
C620 C621 1.377 . S
C620 C622 1.384 . S
C621 C620 1.377 . S
C621 C627 1.390 . S
C622 H613 0.930 . S
C622 C620 1.384 . S
C622 C623 1.372 . S
C623 C622 1.372 . S
C623 C624 1.400 . S
C623 C628 1.490 . S
C624 H614 0.930 . S
C624 C623 1.400 . S
C624 C627 1.386 . S
H625 C641 0.930 . S
H626 C642 0.931 . S
C627 H615 0.929 . S
C627 C621 1.390 . S
C627 C624 1.386 . S
C628 C623 1.490 . S
C628 C630 1.395 . S
C628 C631 1.403 . S
H629 C635 0.930 . S
C630 H616 0.930 . S
C630 C628 1.395 . S
C630 C633 1.403 . S
C631 C628 1.403 . S
C631 C632 1.524 . S
C631 C635 1.400 . S
C632 H617 0.960 . S
C632 H618 0.960 . S
C632 H619 0.960 . S
C632 C631 1.524 . S
C633 C630 1.403 . S
C633 C634 1.392 . S
C633 C637 1.495 . S
C634 C633 1.392 . S
C634 C635 1.385 . S
C634 C636 1.478 . S
C635 H629 0.930 . S
C635 C631 1.400 . S
C635 C634 1.385 . S
C636 C634 1.478 . S
C636 C638 1.381 . S
C636 C642 1.383 . S
C637 C633 1.495 . S
C637 H643 0.959 . S
C637 H644 0.961 . S
C637 H645 0.960 . S
C638 C636 1.381 . S
C638 C639 1.394 . S
C638 H646 0.930 . S
C639 C638 1.394 . S
C639 C640 1.383 . S
C639 H647 0.929 . S
C640 C639 1.383 . S
C640 C641 1.377 . S
C641 H625 0.930 . S
C641 C640 1.377 . S
C641 C642 1.379 . S
C642 H626 0.931 . S
C642 C636 1.383 . S
C642 C641 1.379 . S
H643 C637 0.959 . S
H644 C637 0.961 . S
H645 C637 0.960 . S
H646 C638 0.930 . S
H647 C639 0.929 . S
H648 C656 0.929 . S
H649 C658 0.930 . S
H650 C660 0.930 . S
H651 C663 0.929 . S
H652 C666 0.930 . S
H653 C668 0.935 1_565 S
H654 C668 0.952 . S
H655 C668 0.965 1_565 S
C656 H648 0.929 . S
C656 C657 1.374 1_545 S
C656 C658 1.384 . S
C657 C656 1.374 1_565 S
C657 C663 1.395 . S
C658 H649 0.930 . S
C658 C656 1.384 . S
C658 C659 1.372 . S
C659 C658 1.372 . S
C659 C660 1.400 1_545 S
C659 C664 1.490 . S
C660 H650 0.930 . S
C660 C659 1.400 1_565 S
C660 C663 1.386 . S
H661 C677 0.930 . S
H662 C678 0.931 . S
C663 H651 0.929 . S
C663 C657 1.395 . S
C663 C660 1.386 . S
C664 C659 1.490 . S
C664 C666 1.395 . S
C664 C667 1.447 . S
H665 C671 0.942 . S
C666 H652 0.930 . S
C666 C664 1.395 . S
C666 C669 1.403 . S
C667 C664 1.447 . S
C667 C668 1.511 . S
C667 C671 1.373 . S
C668 H653 0.935 1_545 S
C668 H654 0.952 . S
C668 H655 0.965 1_545 S
C668 C667 1.511 . S
C669 C666 1.403 . S
C669 C670 1.392 . S
C669 C673 1.495 . S
C670 C669 1.392 . S
C670 C671 1.385 . S
C670 C672 1.478 . S
C671 H665 0.942 . S
C671 C667 1.373 . S
C671 C670 1.385 . S
C672 C670 1.478 . S
C672 C674 1.381 . S
C672 C678 1.383 1_545 S
C673 C669 1.495 . S
C673 H679 0.959 . S
C673 H680 0.961 1_545 S
C673 H681 0.960 . S
C674 C672 1.381 . S
C674 C675 1.394 . S
C674 H682 0.930 . S
C675 C674 1.394 . S
C675 C676 1.383 . S
C675 H683 0.929 . S
C676 C675 1.383 . S
C676 C677 1.377 1_545 S
C677 H661 0.930 . S
C677 C676 1.377 1_565 S
C677 C678 1.379 . S
C678 H662 0.931 . S
C678 C672 1.383 1_565 S
C678 C677 1.379 . S
H679 C673 0.959 . S
H680 C673 0.961 1_565 S
H681 C673 0.960 . S
H682 C674 0.930 . S
H683 C675 0.929 . S
H684 C692 0.929 . S
H685 C694 0.930 . S
H686 C696 0.930 . S
H687 C699 0.929 . S
H688 C702 0.930 . S
H689 C704 0.960 . S
H690 C704 0.960 . S
H691 C704 0.960 . S
C692 H684 0.929 . S
C692 C693 1.409 . S
C692 C694 1.384 . S
C693 C692 1.409 . S
C693 C699 1.335 1_545 S
C694 H685 0.930 . S
C694 C692 1.384 . S
C694 C695 1.401 . S
C695 C694 1.401 . S
C695 C696 1.383 1_545 S
C695 C700 1.482 . S
C696 H686 0.930 . S
C696 C695 1.383 1_565 S
C696 C699 1.386 . S
H697 C713 0.930 . S
H698 C714 0.931 . S
C699 H687 0.929 . S
C699 C693 1.335 1_565 S
C699 C696 1.386 . S
C700 C695 1.482 . S
C700 C702 1.395 . S
C700 C703 1.398 1_545 S
H701 C707 0.930 . S
C702 H688 0.930 . S
C702 C700 1.395 . S
C702 C705 1.403 . S
C703 C700 1.398 1_565 S
C703 C704 1.524 . S
C703 C707 1.400 . S
C704 H689 0.960 . S
C704 H690 0.960 . S
C704 H691 0.960 . S
C704 C703 1.524 . S
C705 C702 1.403 . S
C705 C706 1.399 . S
C705 C709 1.495 . S
C706 C705 1.399 . S
C706 C707 1.385 1_545 S
C706 C708 1.452 1_545 S
C707 H701 0.930 . S
C707 C703 1.400 . S
C707 C706 1.385 1_565 S
C708 C706 1.452 1_565 S
C708 C710 1.358 1_565 S
C708 C714 1.426 . S
C709 C705 1.495 . S
C709 H715 0.959 . S
C709 H716 0.961 . S
C709 H717 0.960 . S
C710 C708 1.358 1_545 S
C710 C711 1.394 . S
C710 H718 0.930 . S
C711 C710 1.394 . S
C711 C712 1.383 1_545 S
C711 H719 0.929 . S
C712 C711 1.383 1_565 S
C712 C713 1.377 . S
C713 H697 0.930 . S
C713 C712 1.377 . S
C713 C714 1.379 . S
C714 H698 0.931 . S
C714 C708 1.426 . S
C714 C713 1.379 . S
H715 C709 0.959 . S
H716 C709 0.961 . S
H717 C709 0.960 . S
H718 C710 0.930 . S
H719 C711 0.929 . S
H720 C728 0.929 . S
H721 C730 0.930 . S
H722 C732 0.930 . S
H723 C735 0.929 . S
H724 C738 0.930 . S
H725 C740 0.936 . S
H726 C740 1.033 . S
H727 C740 0.923 1_655 S
C728 H720 0.929 . S
C728 C729 1.377 1_455 S
C728 C730 1.384 . S
C729 C728 1.377 1_655 S
C729 C735 1.390 . S
C730 H721 0.930 . S
C730 C728 1.384 . S
C730 C731 1.372 . S
C731 C730 1.372 . S
C731 C732 1.400 1_455 S
C731 C736 1.490 . S
C732 H722 0.930 . S
C732 C731 1.400 1_655 S
C732 C735 1.386 . S
H733 C749 0.930 . S
H734 C750 0.931 . S
C735 H723 0.929 . S
C735 C729 1.390 . S
C735 C732 1.386 . S
C736 C731 1.490 . S
C736 C738 1.395 . S
C736 C739 1.403 . S
H737 C743 0.979 . S
C738 H724 0.930 . S
C738 C736 1.395 . S
C738 C741 1.403 . S
C739 C736 1.403 . S
C739 C740 1.537 . S
C739 C743 1.400 . S
C740 H725 0.936 . S
C740 H726 1.033 . S
C740 H727 0.923 1_455 S
C740 C739 1.537 . S
C741 C738 1.403 . S
C741 C742 1.392 . S
C741 C745 1.495 . S
C742 C741 1.392 . S
C742 C743 1.385 . S
C742 C744 1.478 . S
C743 H737 0.979 . S
C743 C739 1.400 . S
C743 C742 1.385 . S
C744 C742 1.478 . S
C744 C746 1.381 . S
C744 C750 1.383 1_455 S
C745 C741 1.495 . S
C745 H751 0.959 . S
C745 H752 0.961 1_455 S
C745 H753 0.960 . S
C746 C744 1.381 . S
C746 C747 1.394 . S
C746 H754 0.930 . S
C747 C746 1.394 . S
C747 C748 1.383 . S
C747 H755 0.929 . S
C748 C747 1.383 . S
C748 C749 1.377 1_455 S
C749 H733 0.930 . S
C749 C748 1.377 1_655 S
C749 C750 1.379 . S
C750 H734 0.931 . S
C750 C744 1.383 1_655 S
C750 C749 1.379 . S
H751 C745 0.959 . S
H752 C745 0.961 1_655 S
H753 C745 0.960 . S
H754 C746 0.930 . S
H755 C747 0.929 . S
H756 C764 0.929 . S
H757 C766 0.930 . S
H758 C768 0.930 . S
H759 C771 0.929 . S
H760 C774 0.930 . S
H761 C776 0.960 . S
H762 C776 0.960 . S
H763 C776 0.960 . S
C764 H756 0.929 . S
C764 C765 1.377 . S
C764 C766 1.384 . S
C765 C764 1.377 . S
C765 C771 1.390 . S
C766 H757 0.930 . S
C766 C764 1.384 . S
C766 C767 1.372 . S
C767 C766 1.372 . S
C767 C768 1.400 . S
C767 C772 1.490 . S
C768 H758 0.930 . S
C768 C767 1.400 . S
C768 C771 1.386 . S
H769 C785 0.930 . S
H770 C786 0.931 . S
C771 H759 0.929 . S
C771 C765 1.390 . S
C771 C768 1.386 . S
C772 C767 1.490 . S
C772 C774 1.395 . S
C772 C775 1.403 . S
H773 C779 0.930 . S
C774 H760 0.930 . S
C774 C772 1.395 . S
C774 C777 1.403 . S
C775 C772 1.403 . S
C775 C776 1.524 . S
C775 C779 1.400 . S
C776 H761 0.960 . S
C776 H762 0.960 . S
C776 H763 0.960 . S
C776 C775 1.524 . S
C777 C774 1.403 . S
C777 C778 1.392 . S
C777 C781 1.495 . S
C778 C777 1.392 . S
C778 C779 1.385 . S
C778 C780 1.478 . S
C779 H773 0.930 . S
C779 C775 1.400 . S
C779 C778 1.385 . S
C780 C778 1.478 . S
C780 C782 1.381 . S
C780 C786 1.383 . S
C781 C777 1.495 . S
C781 H787 0.959 . S
C781 H788 0.961 . S
C781 H789 0.960 . S
C782 C780 1.381 . S
C782 C783 1.394 . S
C782 H790 0.930 . S
C783 C782 1.394 . S
C783 C784 1.383 . S
C783 H791 0.929 . S
C784 C783 1.383 . S
C784 C785 1.377 . S
C785 H769 0.930 . S
C785 C784 1.377 . S
C785 C786 1.379 . S
C786 H770 0.931 . S
C786 C780 1.383 . S
C786 C785 1.379 . S
H787 C781 0.959 . S
H788 C781 0.961 . S
H789 C781 0.960 . S
H790 C782 0.930 . S
H791 C783 0.929 . S
H792 C800 0.929 . S
H793 C802 0.930 . S
H794 C804 0.930 . S
H795 C807 0.929 . S
H796 C810 0.930 . S
H797 C812 0.960 . S
H798 C812 0.960 . S
H799 C812 0.960 . S
C800 H792 0.929 . S
C800 C801 1.352 1_455 S
C800 C802 1.384 . S
C801 C800 1.352 1_655 S
C801 C807 1.396 . S
C802 H793 0.930 . S
C802 C800 1.384 . S
C802 C803 1.372 1_455 S
C803 C802 1.372 1_655 S
C803 C804 1.401 . S
C803 C808 1.476 1_655 S
C804 H794 0.930 . S
C804 C803 1.401 . S
C804 C807 1.386 . S
H805 C821 0.930 . S
H806 C822 0.931 . S
C807 H795 0.929 . S
C807 C801 1.396 . S
C807 C804 1.386 . S
C808 C803 1.476 1_455 S
C808 C810 1.425 . S
C808 C811 1.386 1_455 S
H809 C815 0.930 . S
C810 H796 0.930 . S
C810 C808 1.425 . S
C810 C813 1.403 . S
C811 C808 1.386 1_655 S
C811 C812 1.524 . S
C811 C815 1.400 . S
C812 H797 0.960 . S
C812 H798 0.960 . S
C812 H799 0.960 . S
C812 C811 1.524 . S
C813 C810 1.403 . S
C813 C814 1.392 . S
C813 C817 1.495 . S
C814 C813 1.392 . S
C814 C815 1.385 1_455 S
C814 C816 1.478 . S
C815 H809 0.930 . S
C815 C811 1.400 . S
C815 C814 1.385 1_655 S
C816 C814 1.478 . S
C816 C818 1.381 . S
C816 C822 1.383 1_455 S
C817 C813 1.495 . S
C817 H823 0.959 . S
C817 H824 0.961 . S
C817 H825 0.960 . S
C818 C816 1.381 . S
C818 C819 1.394 . S
C818 H826 0.930 . S
C819 C818 1.394 . S
C819 C820 1.386 . S
C819 H827 0.929 . S
C820 C819 1.386 . S
C820 C821 1.361 1_455 S
C821 H805 0.930 . S
C821 C820 1.361 1_655 S
C821 C822 1.379 . S
C822 H806 0.931 . S
C822 C816 1.383 1_655 S
C822 C821 1.379 . S
H823 C817 0.959 . S
H824 C817 0.961 . S
H825 C817 0.960 . S
H826 C818 0.930 . S
H827 C819 0.929 . S
H828 C836 0.929 . S
H829 C838 0.930 . S
H830 C840 0.930 . S
H831 C843 0.929 . S
H832 C846 0.930 . S
H833 C848 0.960 . S
H834 C848 0.960 . S
H835 C848 0.960 . S
C836 H828 0.929 . S
C836 C837 1.377 . S
C836 C838 1.384 . S
C837 C836 1.377 . S
C837 C843 1.390 . S
C838 H829 0.930 . S
C838 C836 1.384 . S
C838 C839 1.372 . S
C839 C838 1.372 . S
C839 C840 1.400 . S
C839 C844 1.490 . S
C840 H830 0.930 . S
C840 C839 1.400 . S
C840 C843 1.386 . S
H841 C857 0.930 . S
H842 C858 0.931 . S
C843 H831 0.929 . S
C843 C837 1.390 . S
C843 C840 1.386 . S
C844 C839 1.490 . S
C844 C846 1.395 . S
C844 C847 1.403 . S
H845 C851 0.930 . S
C846 H832 0.930 . S
C846 C844 1.395 . S
C846 C849 1.403 . S
C847 C844 1.403 . S
C847 C848 1.524 . S
C847 C851 1.400 . S
C848 H833 0.960 . S
C848 H834 0.960 . S
C848 H835 0.960 . S
C848 C847 1.524 . S
C849 C846 1.403 . S
C849 C850 1.392 . S
C849 C853 1.495 . S
C850 C849 1.392 . S
C850 C851 1.385 . S
C850 C852 1.478 . S
C851 H845 0.930 . S
C851 C847 1.400 . S
C851 C850 1.385 . S
C852 C850 1.478 . S
C852 C854 1.381 . S
C852 C858 1.383 . S
C853 C849 1.495 . S
C853 H859 0.959 . S
C853 H860 0.961 . S
C853 H861 0.960 . S
C854 C852 1.381 . S
C854 C855 1.394 . S
C854 H862 0.930 . S
C855 C854 1.394 . S
C855 C856 1.383 . S
C855 H863 0.929 . S
C856 C855 1.383 . S
C856 C857 1.377 . S
C857 H841 0.930 . S
C857 C856 1.377 . S
C857 C858 1.379 . S
C858 H842 0.931 . S
C858 C852 1.383 . S
C858 C857 1.379 . S
H859 C853 0.959 . S
H860 C853 0.961 . S
H861 C853 0.960 . S
H862 C854 0.930 . S
H863 C855 0.929 . S
H864 C872 0.929 . S
H865 C874 0.930 . S
H866 C876 0.930 . S
H867 C879 0.929 . S
H868 C882 0.930 . S
H869 C884 0.960 . S
H870 C884 0.960 . S
H871 C884 0.960 . S
C872 H864 0.929 . S
C872 C873 1.457 . S
C872 C874 1.384 . S
C873 C872 1.457 . S
C873 C879 1.349 1_545 S
C874 H865 0.930 . S
C874 C872 1.384 . S
C874 C875 1.372 . S
C875 C874 1.372 . S
C875 C876 1.400 1_545 S
C875 C880 1.490 . S
C876 H866 0.930 . S
C876 C875 1.400 1_565 S
C876 C879 1.386 . S
H877 C893 0.930 . S
H878 C894 0.931 . S
C879 H867 0.929 . S
C879 C873 1.349 1_565 S
C879 C876 1.386 . S
C880 C875 1.490 . S
C880 C882 1.395 . S
C880 C883 1.403 1_545 S
H881 C887 0.930 . S
C882 H868 0.930 . S
C882 C880 1.395 . S
C882 C885 1.403 . S
C883 C880 1.403 1_565 S
C883 C884 1.524 . S
C883 C887 1.400 . S
C884 H869 0.960 . S
C884 H870 0.960 . S
C884 H871 0.960 . S
C884 C883 1.524 . S
C885 C882 1.403 . S
C885 C886 1.392 . S
C885 C889 1.495 . S
C886 C885 1.392 . S
C886 C887 1.385 1_545 S
C886 C888 1.478 . S
C887 H881 0.930 . S
C887 C883 1.400 . S
C887 C886 1.385 1_565 S
C888 C886 1.478 . S
C888 C890 1.381 . S
C888 C894 1.383 1_545 S
C889 C885 1.495 . S
C889 H895 0.959 . S
C889 H896 0.961 . S
C889 H897 0.960 . S
C890 C888 1.381 . S
C890 C891 1.394 . S
C890 H898 0.930 . S
C891 C890 1.394 . S
C891 C892 1.383 . S
C891 H899 0.929 . S
C892 C891 1.383 . S
C892 C893 1.377 1_545 S
C893 H877 0.930 . S
C893 C892 1.377 1_565 S
C893 C894 1.379 . S
C894 H878 0.931 . S
C894 C888 1.383 1_565 S
C894 C893 1.379 . S
H895 C889 0.959 . S
H896 C889 0.961 . S
H897 C889 0.960 . S
H898 C890 0.930 . S
H899 C891 0.929 . S
H900 C908 0.929 . S
H901 C910 0.930 . S
H902 C912 0.930 . S
H903 C915 0.929 . S
H904 C918 0.930 . S
H905 C920 0.960 . S
H906 C920 0.960 . S
H907 C920 0.960 . S
C908 H900 0.929 . S
C908 C909 1.409 . S
C908 C910 1.384 . S
C909 C908 1.409 . S
C909 C915 1.333 1_565 S
C910 H901 0.930 . S
C910 C908 1.384 . S
C910 C911 1.372 . S
C911 C910 1.372 . S
C911 C912 1.400 1_565 S
C911 C916 1.523 . S
C912 H902 0.930 . S
C912 C911 1.400 1_545 S
C912 C915 1.386 . S
H913 C929 0.930 . S
H914 C930 0.931 . S
C915 H903 0.929 . S
C915 C909 1.333 1_545 S
C915 C912 1.386 . S
C916 C911 1.523 . S
C916 C918 1.373 1_565 S
C916 C919 1.397 . S
H917 C923 0.930 . S
C918 H904 0.930 . S
C918 C916 1.373 1_545 S
C918 C921 1.403 . S
C919 C916 1.397 . S
C919 C920 1.524 . S
C919 C923 1.400 . S
C920 H905 0.960 . S
C920 H906 0.960 . S
C920 H907 0.960 . S
C920 C919 1.524 . S
C921 C918 1.403 . S
C921 C922 1.389 . S
C921 C925 1.495 . S
C922 C921 1.389 . S
C922 C923 1.374 1_545 S
C922 C924 1.461 . S
C923 H917 0.930 . S
C923 C919 1.400 . S
C923 C922 1.374 1_565 S
C924 C922 1.461 . S
C924 C926 1.348 1_545 S
C924 C930 1.449 . S
C925 C921 1.495 . S
C925 H931 0.959 . S
C925 H932 0.961 . S
C925 H933 0.960 . S
C926 C924 1.348 1_565 S
C926 C927 1.394 . S
C926 H934 0.930 . S
C927 C926 1.394 . S
C927 C928 1.389 1_565 S
C927 H935 0.929 . S
C928 C927 1.389 1_545 S
C928 C929 1.374 . S
C929 H913 0.930 . S
C929 C928 1.374 . S
C929 C930 1.379 . S
C930 H914 0.931 . S
C930 C924 1.449 . S
C930 C929 1.379 . S
H931 C925 0.959 . S
H932 C925 0.961 . S
H933 C925 0.960 . S
H934 C926 0.930 . S
H935 C927 0.929 . S
H936 C944 0.936 . S
H937 C946 0.905 . S
H938 C948 0.930 . S
H939 C951 0.929 . S
H940 C954 0.930 . S
H941 C956 0.960 . S
H942 C956 0.960 . S
H943 C956 0.960 . S
C944 H936 0.936 . S
C944 C945 1.432 1_655 S
C944 C946 1.380 . S
C945 C944 1.432 1_455 S
C945 C951 1.392 . S
C946 H937 0.905 . S
C946 C944 1.380 . S
C946 C947 1.373 1_655 S
C947 C946 1.373 1_455 S
C947 C948 1.382 . S
C947 C952 1.471 . S
C948 H938 0.930 . S
C948 C947 1.382 . S
C948 C951 1.386 . S
H949 C965 0.930 . S
H950 C966 0.931 . S
C951 H939 0.929 . S
C951 C945 1.392 . S
C951 C948 1.386 . S
C952 C947 1.471 . S
C952 C954 1.483 . S
C952 C955 1.357 1_455 S
H953 C959 0.930 . S
C954 H940 0.930 . S
C954 C952 1.483 . S
C954 C957 1.403 . S
C955 C952 1.357 1_655 S
C955 C956 1.524 . S
C955 C959 1.400 . S
C956 H941 0.960 . S
C956 H942 0.960 . S
C956 H943 0.960 . S
C956 C955 1.524 . S
C957 C954 1.403 . S
C957 C958 1.392 . S
C957 C961 1.495 . S
C958 C957 1.392 . S
C958 C959 1.385 1_455 S
C958 C960 1.478 . S
C959 H953 0.930 . S
C959 C955 1.400 . S
C959 C958 1.385 1_655 S
C960 C958 1.478 . S
C960 C962 1.380 . S
C960 C966 1.383 . S
C961 C957 1.495 . S
C961 H967 0.959 . S
C961 H968 0.961 . S
C961 H969 0.960 . S
C962 C960 1.380 . S
C962 C963 1.420 1_455 S
C962 H970 0.930 1_455 S
C963 C962 1.420 1_655 S
C963 C964 1.380 1_655 S
C963 H971 0.913 . S
C964 C963 1.380 1_455 S
C964 C965 1.377 . S
C965 H949 0.930 . S
C965 C964 1.377 . S
C965 C966 1.379 . S
C966 H950 0.931 . S
C966 C960 1.383 . S
C966 C965 1.379 . S
H967 C961 0.959 . S
H968 C961 0.961 . S
H969 C961 0.960 . S
H970 C962 0.930 1_655 S
H971 C963 0.913 . S
H972 C980 0.929 . S
H973 C982 0.930 . S
H974 C984 0.930 . S
H975 C987 0.929 . S
H976 C990 0.930 . S
H977 C992 0.960 . S
H978 C992 0.960 . S
H979 C992 0.960 . S
C980 H972 0.929 . S
C980 C981 1.377 . S
C980 C982 1.384 . S
C981 C980 1.377 . S
C981 C987 1.390 . S
C982 H973 0.930 . S
C982 C980 1.384 . S
C982 C983 1.372 . S
C983 C982 1.372 . S
C983 C984 1.400 . S
C983 C988 1.490 . S
C984 H974 0.930 . S
C984 C983 1.400 . S
C984 C987 1.386 . S
H985 C1001 0.930 . S
H986 C1002 0.931 . S
C987 H975 0.929 . S
C987 C981 1.390 . S
C987 C984 1.386 . S
C988 C983 1.490 . S
C988 C990 1.395 . S
C988 C991 1.403 . S
H989 C995 0.930 . S
C990 H976 0.930 . S
C990 C988 1.395 . S
C990 C993 1.403 . S
C991 C988 1.403 . S
C991 C992 1.524 . S
C991 C995 1.400 . S
C992 H977 0.960 . S
C992 H978 0.960 . S
C992 H979 0.960 . S
C992 C991 1.524 . S
C993 C990 1.403 . S
C993 C994 1.392 . S
C993 C997 1.495 . S
C994 C993 1.392 . S
C994 C995 1.385 . S
C994 C996 1.478 . S
C995 H989 0.930 . S
C995 C991 1.400 . S
C995 C994 1.385 . S
C996 C994 1.478 . S
C996 C998 1.381 . S
C996 C1002 1.383 . S
C997 C993 1.495 . S
C997 H1003 0.959 . S
C997 H1004 0.961 . S
C997 H1005 0.960 . S
C998 C996 1.381 . S
C998 C999 1.394 . S
C998 H1006 0.930 . S
C999 C998 1.394 . S
C999 C1000 1.383 . S
C999 H1007 0.929 . S
C1000 C999 1.383 . S
C1000 C1001 1.377 . S
C1001 H985 0.930 . S
C1001 C1000 1.377 . S
C1001 C1002 1.379 . S
C1002 H986 0.931 . S
C1002 C996 1.383 . S
C1002 C1001 1.379 . S
H1003 C997 0.959 . S
H1004 C997 0.961 . S
H1005 C997 0.960 . S
H1006 C998 0.930 . S
H1007 C999 0.929 . S
H1008 C1016 0.929 . S
H1009 C1018 0.930 . S
H1010 C1020 0.930 . S
H1011 C1023 0.929 . S
H1012 C1026 0.930 . S
H1013 C1028 0.960 . S
H1014 C1028 0.960 . S
H1015 C1028 0.960 . S
C1016 H1008 0.929 . S
C1016 C1017 1.377 . S
C1016 C1018 1.384 . S
C1017 C1016 1.377 . S
C1017 C1023 1.390 . S
C1018 H1009 0.930 . S
C1018 C1016 1.384 . S
C1018 C1019 1.372 . S
C1019 C1018 1.372 . S
C1019 C1020 1.400 . S
C1019 C1024 1.490 . S
C1020 H1010 0.930 . S
C1020 C1019 1.400 . S
C1020 C1023 1.386 . S
H1021 C1037 0.930 . S
H1022 C1038 0.931 . S
C1023 H1011 0.929 . S
C1023 C1017 1.390 . S
C1023 C1020 1.386 . S
C1024 C1019 1.490 . S
C1024 C1026 1.395 . S
C1024 C1027 1.403 . S
H1025 C1031 0.930 . S
C1026 H1012 0.930 . S
C1026 C1024 1.395 . S
C1026 C1029 1.403 . S
C1027 C1024 1.403 . S
C1027 C1028 1.524 . S
C1027 C1031 1.400 . S
C1028 H1013 0.960 . S
C1028 H1014 0.960 . S
C1028 H1015 0.960 . S
C1028 C1027 1.524 . S
C1029 C1026 1.403 . S
C1029 C1030 1.392 . S
C1029 C1033 1.495 . S
C1030 C1029 1.392 . S
C1030 C1031 1.385 . S
C1030 C1032 1.478 . S
C1031 H1025 0.930 . S
C1031 C1027 1.400 . S
C1031 C1030 1.385 . S
C1032 C1030 1.478 . S
C1032 C1034 1.381 . S
C1032 C1038 1.383 . S
C1033 C1029 1.495 . S
C1033 H1039 0.959 . S
C1033 H1040 0.961 . S
C1033 H1041 0.960 . S
C1034 C1032 1.381 . S
C1034 C1035 1.394 . S
C1034 H1042 0.930 . S
C1035 C1034 1.394 . S
C1035 C1036 1.383 . S
C1035 H1043 0.929 . S
C1036 C1035 1.383 . S
C1036 C1037 1.377 . S
C1037 H1021 0.930 . S
C1037 C1036 1.377 . S
C1037 C1038 1.379 . S
C1038 H1022 0.931 . S
C1038 C1032 1.383 . S
C1038 C1037 1.379 . S
H1039 C1033 0.959 . S
H1040 C1033 0.961 . S
H1041 C1033 0.960 . S
H1042 C1034 0.930 . S
H1043 C1035 0.929 . S
H1044 C1052 0.929 . S
H1045 C1054 0.930 . S
H1046 C1056 0.930 . S
H1047 C1059 0.929 . S
H1048 C1062 0.930 . S
H1049 C1064 0.960 . S
H1050 C1064 0.960 . S
H1051 C1064 0.960 . S
C1052 H1044 0.929 . S
C1052 C1053 1.377 . S
C1052 C1054 1.384 . S
C1053 C1052 1.377 . S
C1053 C1059 1.390 . S
C1054 H1045 0.930 . S
C1054 C1052 1.384 . S
C1054 C1055 1.372 . S
C1055 C1054 1.372 . S
C1055 C1056 1.400 . S
C1055 C1060 1.490 . S
C1056 H1046 0.930 . S
C1056 C1055 1.400 . S
C1056 C1059 1.386 . S
H1057 C1073 0.930 . S
H1058 C1074 0.931 . S
C1059 H1047 0.929 . S
C1059 C1053 1.390 . S
C1059 C1056 1.386 . S
C1060 C1055 1.490 . S
C1060 C1062 1.395 . S
C1060 C1063 1.403 . S
H1061 C1067 0.930 . S
C1062 H1048 0.930 . S
C1062 C1060 1.395 . S
C1062 C1065 1.403 . S
C1063 C1060 1.403 . S
C1063 C1064 1.524 . S
C1063 C1067 1.400 . S
C1064 H1049 0.960 . S
C1064 H1050 0.960 . S
C1064 H1051 0.960 . S
C1064 C1063 1.524 . S
C1065 C1062 1.403 . S
C1065 C1066 1.392 . S
C1065 C1069 1.495 . S
C1066 C1065 1.392 . S
C1066 C1067 1.385 . S
C1066 C1068 1.478 . S
C1067 H1061 0.930 . S
C1067 C1063 1.400 . S
C1067 C1066 1.385 . S
C1068 C1066 1.478 . S
C1068 C1070 1.381 . S
C1068 C1074 1.383 . S
C1069 C1065 1.495 . S
C1069 H1075 0.959 . S
C1069 H1076 0.961 . S
C1069 H1077 0.960 . S
C1070 C1068 1.381 . S
C1070 C1071 1.394 . S
C1070 H1078 0.930 . S
C1071 C1070 1.394 . S
C1071 C1072 1.383 . S
C1071 H1079 0.929 . S
C1072 C1071 1.383 . S
C1072 C1073 1.377 . S
C1073 H1057 0.930 . S
C1073 C1072 1.377 . S
C1073 C1074 1.379 . S
C1074 H1058 0.931 . S
C1074 C1068 1.383 . S
C1074 C1073 1.379 . S
H1075 C1069 0.959 . S
H1076 C1069 0.961 . S
H1077 C1069 0.960 . S
H1078 C1070 0.930 . S
H1079 C1071 0.929 . S
H1080 C1088 0.929 . S
H1081 C1090 0.930 . S
H1082 C1092 0.930 . S
H1083 C1095 0.929 . S
H1084 C1098 0.930 . S
H1085 C1100 0.960 . S
H1086 C1100 0.960 . S
H1087 C1100 0.960 . S
C1088 H1080 0.929 . S
C1088 C1089 1.377 . S
C1088 C1090 1.384 . S
C1089 C1088 1.377 . S
C1089 C1095 1.390 . S
C1090 H1081 0.930 . S
C1090 C1088 1.384 . S
C1090 C1091 1.372 . S
C1091 C1090 1.372 . S
C1091 C1092 1.400 . S
C1091 C1096 1.490 . S
C1092 H1082 0.930 . S
C1092 C1091 1.400 . S
C1092 C1095 1.386 . S
H1093 C1109 0.930 . S
H1094 C1110 0.931 . S
C1095 H1083 0.929 . S
C1095 C1089 1.390 . S
C1095 C1092 1.386 . S
C1096 C1091 1.490 . S
C1096 C1098 1.395 . S
C1096 C1099 1.403 . S
H1097 C1103 0.930 . S
C1098 H1084 0.930 . S
C1098 C1096 1.395 . S
C1098 C1101 1.403 . S
C1099 C1096 1.403 . S
C1099 C1100 1.524 . S
C1099 C1103 1.400 . S
C1100 H1085 0.960 . S
C1100 H1086 0.960 . S
C1100 H1087 0.960 . S
C1100 C1099 1.524 . S
C1101 C1098 1.403 . S
C1101 C1102 1.392 . S
C1101 C1105 1.495 . S
C1102 C1101 1.392 . S
C1102 C1103 1.385 . S
C1102 C1104 1.478 . S
C1103 H1097 0.930 . S
C1103 C1099 1.400 . S
C1103 C1102 1.385 . S
C1104 C1102 1.478 . S
C1104 C1106 1.381 . S
C1104 C1110 1.383 . S
C1105 C1101 1.495 . S
C1105 H1111 0.959 . S
C1105 H1112 0.961 . S
C1105 H1113 0.960 . S
C1106 C1104 1.381 . S
C1106 C1107 1.394 . S
C1106 H1114 0.930 . S
C1107 C1106 1.394 . S
C1107 C1108 1.383 . S
C1107 H1115 0.929 . S
C1108 C1107 1.383 . S
C1108 C1109 1.377 . S
C1109 H1093 0.930 . S
C1109 C1108 1.377 . S
C1109 C1110 1.379 . S
C1110 H1094 0.931 . S
C1110 C1104 1.383 . S
C1110 C1109 1.379 . S
H1111 C1105 0.959 . S
H1112 C1105 0.961 . S
H1113 C1105 0.960 . S
H1114 C1106 0.930 . S
H1115 C1107 0.929 . S
H1116 C1124 0.929 . S
H1117 C1126 0.930 . S
H1118 C1128 0.930 . S
H1119 C1131 0.929 . S
H1120 C1134 0.930 . S
H1121 C1136 0.960 . S
H1122 C1136 0.960 . S
H1123 C1136 0.960 . S
C1124 H1116 0.929 . S
C1124 C1125 1.377 . S
C1124 C1126 1.384 . S
C1125 C1124 1.377 . S
C1125 C1131 1.390 . S
C1126 H1117 0.930 . S
C1126 C1124 1.384 . S
C1126 C1127 1.372 . S
C1127 C1126 1.372 . S
C1127 C1128 1.400 . S
C1127 C1132 1.490 . S
C1128 H1118 0.930 . S
C1128 C1127 1.400 . S
C1128 C1131 1.386 . S
H1129 C1145 0.930 . S
H1130 C1146 0.931 . S
C1131 H1119 0.929 . S
C1131 C1125 1.390 . S
C1131 C1128 1.386 . S
C1132 C1127 1.490 . S
C1132 C1134 1.395 . S
C1132 C1135 1.403 . S
H1133 C1139 0.930 . S
C1134 H1120 0.930 . S
C1134 C1132 1.395 . S
C1134 C1137 1.403 . S
C1135 C1132 1.403 . S
C1135 C1136 1.524 . S
C1135 C1139 1.400 . S
C1136 H1121 0.960 . S
C1136 H1122 0.960 . S
C1136 H1123 0.960 . S
C1136 C1135 1.524 . S
C1137 C1134 1.403 . S
C1137 C1138 1.392 . S
C1137 C1141 1.495 . S
C1138 C1137 1.392 . S
C1138 C1139 1.385 . S
C1138 C1140 1.478 . S
C1139 H1133 0.930 . S
C1139 C1135 1.400 . S
C1139 C1138 1.385 . S
C1140 C1138 1.478 . S
C1140 C1142 1.381 . S
C1140 C1146 1.383 . S
C1141 C1137 1.495 . S
C1141 H1147 0.959 . S
C1141 H1148 0.961 . S
C1141 H1149 0.960 . S
C1142 C1140 1.381 . S
C1142 C1143 1.394 . S
C1142 H1150 0.930 . S
C1143 C1142 1.394 . S
C1143 C1144 1.383 . S
C1143 H1151 0.929 . S
C1144 C1143 1.383 . S
C1144 C1145 1.377 . S
C1145 H1129 0.930 . S
C1145 C1144 1.377 . S
C1145 C1146 1.379 . S
C1146 H1130 0.931 . S
C1146 C1140 1.383 . S
C1146 C1145 1.379 . S
H1147 C1141 0.959 . S
H1148 C1141 0.961 . S
H1149 C1141 0.960 . S
H1150 C1142 0.930 . S
H1151 C1143 0.929 . S
H1152 C1160 0.929 . S
H1153 C1162 0.930 . S
H1154 C1164 0.930 . S
H1155 C1167 0.929 . S
H1156 C1170 0.930 . S
H1157 C1172 0.960 . S
H1158 C1172 0.960 . S
H1159 C1172 0.960 . S
C1160 H1152 0.929 . S
C1160 C1161 1.377 . S
C1160 C1162 1.384 . S
C1161 C1160 1.377 . S
C1161 C1167 1.390 . S
C1162 H1153 0.930 . S
C1162 C1160 1.384 . S
C1162 C1163 1.372 . S
C1163 C1162 1.372 . S
C1163 C1164 1.400 . S
C1163 C1168 1.490 . S
C1164 H1154 0.930 . S
C1164 C1163 1.400 . S
C1164 C1167 1.386 . S
H1165 C1181 0.930 . S
H1166 C1182 0.931 . S
C1167 H1155 0.929 . S
C1167 C1161 1.390 . S
C1167 C1164 1.386 . S
C1168 C1163 1.490 . S
C1168 C1170 1.395 . S
C1168 C1171 1.403 . S
H1169 C1175 0.930 . S
C1170 H1156 0.930 . S
C1170 C1168 1.395 . S
C1170 C1173 1.403 . S
C1171 C1168 1.403 . S
C1171 C1172 1.524 . S
C1171 C1175 1.400 . S
C1172 H1157 0.960 . S
C1172 H1158 0.960 . S
C1172 H1159 0.960 . S
C1172 C1171 1.524 . S
C1173 C1170 1.403 . S
C1173 C1174 1.392 . S
C1173 C1177 1.495 . S
C1174 C1173 1.392 . S
C1174 C1175 1.385 . S
C1174 C1176 1.478 . S
C1175 H1169 0.930 . S
C1175 C1171 1.400 . S
C1175 C1174 1.385 . S
C1176 C1174 1.478 . S
C1176 C1178 1.381 . S
C1176 C1182 1.383 . S
C1177 C1173 1.495 . S
C1177 H1183 0.959 . S
C1177 H1184 0.961 . S
C1177 H1185 0.960 . S
C1178 C1176 1.381 . S
C1178 C1179 1.394 . S
C1178 H1186 0.930 . S
C1179 C1178 1.394 . S
C1179 C1180 1.383 . S
C1179 H1187 0.929 . S
C1180 C1179 1.383 . S
C1180 C1181 1.377 . S
C1181 H1165 0.930 . S
C1181 C1180 1.377 . S
C1181 C1182 1.379 . S
C1182 H1166 0.931 . S
C1182 C1176 1.383 . S
C1182 C1181 1.379 . S
H1183 C1177 0.959 . S
H1184 C1177 0.961 . S
H1185 C1177 0.960 . S
H1186 C1178 0.930 . S
H1187 C1179 0.929 . S
H1188 C1196 0.929 . S
H1189 C1198 0.930 . S
H1190 C1200 0.930 . S
H1191 C1203 0.929 . S
H1192 C1206 0.930 . S
H1193 C1208 0.960 . S
H1194 C1208 0.960 . S
H1195 C1208 0.960 . S
C1196 H1188 0.929 . S
C1196 C1197 1.377 . S
C1196 C1198 1.384 . S
C1197 C1196 1.377 . S
C1197 C1203 1.390 . S
C1198 H1189 0.930 . S
C1198 C1196 1.384 . S
C1198 C1199 1.372 . S
C1199 C1198 1.372 . S
C1199 C1200 1.400 . S
C1199 C1204 1.490 . S
C1200 H1190 0.930 . S
C1200 C1199 1.400 . S
C1200 C1203 1.386 . S
H1201 C1217 0.930 . S
H1202 C1218 0.931 . S
C1203 H1191 0.929 . S
C1203 C1197 1.390 . S
C1203 C1200 1.386 . S
C1204 C1199 1.490 . S
C1204 C1206 1.395 . S
C1204 C1207 1.403 . S
H1205 C1211 0.930 . S
C1206 H1192 0.930 . S
C1206 C1204 1.395 . S
C1206 C1209 1.403 . S
C1207 C1204 1.403 . S
C1207 C1208 1.524 . S
C1207 C1211 1.400 . S
C1208 H1193 0.960 . S
C1208 H1194 0.960 . S
C1208 H1195 0.960 . S
C1208 C1207 1.524 . S
C1209 C1206 1.403 . S
C1209 C1210 1.392 . S
C1209 C1213 1.495 . S
C1210 C1209 1.392 . S
C1210 C1211 1.385 . S
C1210 C1212 1.478 . S
C1211 H1205 0.930 . S
C1211 C1207 1.400 . S
C1211 C1210 1.385 . S
C1212 C1210 1.478 . S
C1212 C1214 1.381 . S
C1212 C1218 1.383 . S
C1213 C1209 1.495 . S
C1213 H1219 0.959 . S
C1213 H1220 0.961 . S
C1213 H1221 0.960 . S
C1214 C1212 1.381 . S
C1214 C1215 1.394 . S
C1214 H1222 0.930 . S
C1215 C1214 1.394 . S
C1215 C1216 1.383 . S
C1215 H1223 0.929 . S
C1216 C1215 1.383 . S
C1216 C1217 1.377 . S
C1217 H1201 0.930 . S
C1217 C1216 1.377 . S
C1217 C1218 1.379 . S
C1218 H1202 0.931 . S
C1218 C1212 1.383 . S
C1218 C1217 1.379 . S
H1219 C1213 0.959 . S
H1220 C1213 0.961 . S
H1221 C1213 0.960 . S
H1222 C1214 0.930 . S
H1223 C1215 0.929 . S
H1224 C1232 0.929 . S
H1225 C1234 0.930 . S
H1226 C1236 0.930 . S
H1227 C1239 0.929 . S
H1228 C1242 0.930 . S
H1229 C1244 0.960 . S
H1230 C1244 0.960 . S
H1231 C1244 0.960 . S
C1232 H1224 0.929 . S
C1232 C1233 1.377 . S
C1232 C1234 1.384 . S
C1233 C1232 1.377 . S
C1233 C1239 1.390 . S
C1234 H1225 0.930 . S
C1234 C1232 1.384 . S
C1234 C1235 1.372 . S
C1235 C1234 1.372 . S
C1235 C1236 1.400 . S
C1235 C1240 1.490 . S
C1236 H1226 0.930 . S
C1236 C1235 1.400 . S
C1236 C1239 1.386 . S
H1237 C1253 0.930 . S
H1238 C1254 0.931 . S
C1239 H1227 0.929 . S
C1239 C1233 1.390 . S
C1239 C1236 1.386 . S
C1240 C1235 1.490 . S
C1240 C1242 1.395 . S
C1240 C1243 1.403 . S
H1241 C1247 0.930 . S
C1242 H1228 0.930 . S
C1242 C1240 1.395 . S
C1242 C1245 1.403 . S
C1243 C1240 1.403 . S
C1243 C1244 1.524 . S
C1243 C1247 1.400 . S
C1244 H1229 0.960 . S
C1244 H1230 0.960 . S
C1244 H1231 0.960 . S
C1244 C1243 1.524 . S
C1245 C1242 1.403 . S
C1245 C1246 1.392 . S
C1245 C1249 1.495 . S
C1246 C1245 1.392 . S
C1246 C1247 1.385 . S
C1246 C1248 1.478 . S
C1247 H1241 0.930 . S
C1247 C1243 1.400 . S
C1247 C1246 1.385 . S
C1248 C1246 1.478 . S
C1248 C1250 1.381 . S
C1248 C1254 1.383 . S
C1249 C1245 1.495 . S
C1249 H1255 0.959 . S
C1249 H1256 0.961 . S
C1249 H1257 0.960 . S
C1250 C1248 1.381 . S
C1250 C1251 1.394 . S
C1250 H1258 0.930 . S
C1251 C1250 1.394 . S
C1251 C1252 1.383 . S
C1251 H1259 0.929 . S
C1252 C1251 1.383 . S
C1252 C1253 1.377 . S
C1253 H1237 0.930 . S
C1253 C1252 1.377 . S
C1253 C1254 1.379 . S
C1254 H1238 0.931 . S
C1254 C1248 1.383 . S
C1254 C1253 1.379 . S
H1255 C1249 0.959 . S
H1256 C1249 0.961 . S
H1257 C1249 0.960 . S
H1258 C1250 0.930 . S
H1259 C1251 0.929 . S
H1260 C1268 0.929 . S
H1261 C1270 0.930 . S
H1262 C1272 0.930 . S
H1263 C1275 0.929 . S
H1264 C1278 0.930 . S
H1265 C1280 0.960 . S
H1266 C1280 0.960 . S
H1267 C1280 0.960 . S
C1268 H1260 0.929 . S
C1268 C1269 1.377 . S
C1268 C1270 1.384 . S
C1269 C1268 1.377 . S
C1269 C1275 1.390 . S
C1270 H1261 0.930 . S
C1270 C1268 1.384 . S
C1270 C1271 1.372 . S
C1271 C1270 1.372 . S
C1271 C1272 1.400 . S
C1271 C1276 1.490 . S
C1272 H1262 0.930 . S
C1272 C1271 1.400 . S
C1272 C1275 1.386 . S
H1273 C1289 0.930 . S
H1274 C1290 0.931 . S
C1275 H1263 0.929 . S
C1275 C1269 1.390 . S
C1275 C1272 1.386 . S
C1276 C1271 1.490 . S
C1276 C1278 1.395 . S
C1276 C1279 1.403 . S
H1277 C1283 0.930 . S
C1278 H1264 0.930 . S
C1278 C1276 1.395 . S
C1278 C1281 1.403 . S
C1279 C1276 1.403 . S
C1279 C1280 1.524 . S
C1279 C1283 1.400 . S
C1280 H1265 0.960 . S
C1280 H1266 0.960 . S
C1280 H1267 0.960 . S
C1280 C1279 1.524 . S
C1281 C1278 1.403 . S
C1281 C1282 1.392 . S
C1281 C1285 1.495 . S
C1282 C1281 1.392 . S
C1282 C1283 1.385 . S
C1282 C1284 1.478 . S
C1283 H1277 0.930 . S
C1283 C1279 1.400 . S
C1283 C1282 1.385 . S
C1284 C1282 1.478 . S
C1284 C1286 1.381 . S
C1284 C1290 1.383 . S
C1285 C1281 1.495 . S
C1285 H1291 0.959 . S
C1285 H1292 0.961 . S
C1285 H1293 0.960 . S
C1286 C1284 1.381 . S
C1286 C1287 1.394 . S
C1286 H1294 0.930 . S
C1287 C1286 1.394 . S
C1287 C1288 1.383 . S
C1287 H1295 0.929 . S
C1288 C1287 1.383 . S
C1288 C1289 1.377 . S
C1289 H1273 0.930 . S
C1289 C1288 1.377 . S
C1289 C1290 1.379 . S
C1290 H1274 0.931 . S
C1290 C1284 1.383 . S
C1290 C1289 1.379 . S
H1291 C1285 0.959 . S
H1292 C1285 0.961 . S
H1293 C1285 0.960 . S
H1294 C1286 0.930 . S
H1295 C1287 0.929 . S
H1296 C1304 0.929 . S
H1297 C1306 0.930 . S
H1298 C1308 0.930 . S
H1299 C1311 0.929 . S
H1300 C1314 0.930 . S
H1301 C1316 0.960 . S
H1302 C1316 0.960 . S
H1303 C1316 0.960 . S
C1304 H1296 0.929 . S
C1304 C1305 1.377 . S
C1304 C1306 1.384 . S
C1305 C1304 1.377 . S
C1305 C1311 1.390 . S
C1306 H1297 0.930 . S
C1306 C1304 1.384 . S
C1306 C1307 1.372 . S
C1307 C1306 1.372 . S
C1307 C1308 1.400 . S
C1307 C1312 1.490 . S
C1308 H1298 0.930 . S
C1308 C1307 1.400 . S
C1308 C1311 1.386 . S
H1309 C1325 0.930 . S
H1310 C1326 0.931 . S
C1311 H1299 0.929 . S
C1311 C1305 1.390 . S
C1311 C1308 1.386 . S
C1312 C1307 1.490 . S
C1312 C1314 1.395 . S
C1312 C1315 1.403 . S
H1313 C1319 0.930 . S
C1314 H1300 0.930 . S
C1314 C1312 1.395 . S
C1314 C1317 1.403 . S
C1315 C1312 1.403 . S
C1315 C1316 1.524 . S
C1315 C1319 1.400 . S
C1316 H1301 0.960 . S
C1316 H1302 0.960 . S
C1316 H1303 0.960 . S
C1316 C1315 1.524 . S
C1317 C1314 1.403 . S
C1317 C1318 1.392 . S
C1317 C1321 1.495 . S
C1318 C1317 1.392 . S
C1318 C1319 1.385 . S
C1318 C1320 1.478 . S
C1319 H1313 0.930 . S
C1319 C1315 1.400 . S
C1319 C1318 1.385 . S
C1320 C1318 1.478 . S
C1320 C1322 1.381 . S
C1320 C1326 1.383 . S
C1321 C1317 1.495 . S
C1321 H1327 0.959 . S
C1321 H1328 0.961 . S
C1321 H1329 0.960 . S
C1322 C1320 1.381 . S
C1322 C1323 1.394 . S
C1322 H1330 0.930 . S
C1323 C1322 1.394 . S
C1323 C1324 1.383 . S
C1323 H1331 0.929 . S
C1324 C1323 1.383 . S
C1324 C1325 1.377 . S
C1325 H1309 0.930 . S
C1325 C1324 1.377 . S
C1325 C1326 1.379 . S
C1326 H1310 0.931 . S
C1326 C1320 1.383 . S
C1326 C1325 1.379 . S
H1327 C1321 0.959 . S
H1328 C1321 0.961 . S
H1329 C1321 0.960 . S
H1330 C1322 0.930 . S
H1331 C1323 0.929 . S
H1332 C1340 0.929 . S
H1333 C1342 0.930 . S
H1334 C1344 0.930 . S
H1335 C1347 0.929 . S
H1336 C1350 0.930 . S
H1337 C1352 0.960 . S
H1338 C1352 0.960 . S
H1339 C1352 0.960 . S
C1340 H1332 0.929 . S
C1340 C1341 1.377 . S
C1340 C1342 1.384 . S
C1341 C1340 1.377 . S
C1341 C1347 1.390 . S
C1342 H1333 0.930 . S
C1342 C1340 1.384 . S
C1342 C1343 1.372 . S
C1343 C1342 1.372 . S
C1343 C1344 1.400 . S
C1343 C1348 1.490 . S
C1344 H1334 0.930 . S
C1344 C1343 1.400 . S
C1344 C1347 1.386 . S
H1345 C1361 0.930 . S
H1346 C1362 0.931 . S
C1347 H1335 0.929 . S
C1347 C1341 1.390 . S
C1347 C1344 1.386 . S
C1348 C1343 1.490 . S
C1348 C1350 1.395 . S
C1348 C1351 1.403 . S
H1349 C1355 0.930 . S
C1350 H1336 0.930 . S
C1350 C1348 1.395 . S
C1350 C1353 1.403 . S
C1351 C1348 1.403 . S
C1351 C1352 1.524 . S
C1351 C1355 1.400 . S
C1352 H1337 0.960 . S
C1352 H1338 0.960 . S
C1352 H1339 0.960 . S
C1352 C1351 1.524 . S
C1353 C1350 1.403 . S
C1353 C1354 1.392 . S
C1353 C1357 1.495 . S
C1354 C1353 1.392 . S
C1354 C1355 1.385 . S
C1354 C1356 1.478 . S
C1355 H1349 0.930 . S
C1355 C1351 1.400 . S
C1355 C1354 1.385 . S
C1356 C1354 1.478 . S
C1356 C1358 1.381 . S
C1356 C1362 1.383 . S
C1357 C1353 1.495 . S
C1357 H1363 0.959 . S
C1357 H1364 0.961 . S
C1357 H1365 0.960 . S
C1358 C1356 1.381 . S
C1358 C1359 1.394 . S
C1358 H1366 0.930 . S
C1359 C1358 1.394 . S
C1359 C1360 1.383 . S
C1359 H1367 0.929 . S
C1360 C1359 1.383 . S
C1360 C1361 1.377 . S
C1361 H1345 0.930 . S
C1361 C1360 1.377 . S
C1361 C1362 1.379 . S
C1362 H1346 0.931 . S
C1362 C1356 1.383 . S
C1362 C1361 1.379 . S
H1363 C1357 0.959 . S
H1364 C1357 0.961 . S
H1365 C1357 0.960 . S
H1366 C1358 0.930 . S
H1367 C1359 0.929 . S
H1368 C1376 0.929 . S
H1369 C1378 0.930 . S
H1370 C1380 0.930 . S
H1371 C1383 0.929 . S
H1372 C1386 0.930 . S
H1373 C1388 0.960 . S
H1374 C1388 0.960 . S
H1375 C1388 0.960 . S
C1376 H1368 0.929 . S
C1376 C1377 1.377 . S
C1376 C1378 1.384 . S
C1377 C1376 1.377 . S
C1377 C1383 1.390 . S
C1378 H1369 0.930 . S
C1378 C1376 1.384 . S
C1378 C1379 1.372 . S
C1379 C1378 1.372 . S
C1379 C1380 1.400 . S
C1379 C1384 1.490 . S
C1380 H1370 0.930 . S
C1380 C1379 1.400 . S
C1380 C1383 1.386 . S
H1381 C1397 0.930 . S
H1382 C1398 0.931 . S
C1383 H1371 0.929 . S
C1383 C1377 1.390 . S
C1383 C1380 1.386 . S
C1384 C1379 1.490 . S
C1384 C1386 1.395 . S
C1384 C1387 1.403 . S
H1385 C1391 0.930 . S
C1386 H1372 0.930 . S
C1386 C1384 1.395 . S
C1386 C1389 1.403 . S
C1387 C1384 1.403 . S
C1387 C1388 1.524 . S
C1387 C1391 1.400 . S
C1388 H1373 0.960 . S
C1388 H1374 0.960 . S
C1388 H1375 0.960 . S
C1388 C1387 1.524 . S
C1389 C1386 1.403 . S
C1389 C1390 1.392 . S
C1389 C1393 1.495 . S
C1390 C1389 1.392 . S
C1390 C1391 1.385 . S
C1390 C1392 1.478 . S
C1391 H1385 0.930 . S
C1391 C1387 1.400 . S
C1391 C1390 1.385 . S
C1392 C1390 1.478 . S
C1392 C1394 1.381 . S
C1392 C1398 1.383 . S
C1393 C1389 1.495 . S
C1393 H1399 0.959 . S
C1393 H1400 0.961 . S
C1393 H1401 0.960 . S
C1394 C1392 1.381 . S
C1394 C1395 1.394 . S
C1394 H1402 0.930 . S
C1395 C1394 1.394 . S
C1395 C1396 1.383 . S
C1395 H1403 0.929 . S
C1396 C1395 1.383 . S
C1396 C1397 1.377 . S
C1397 H1381 0.930 . S
C1397 C1396 1.377 . S
C1397 C1398 1.379 . S
C1398 H1382 0.931 . S
C1398 C1392 1.383 . S
C1398 C1397 1.379 . S
H1399 C1393 0.959 . S
H1400 C1393 0.961 . S
H1401 C1393 0.960 . S
H1402 C1394 0.930 . S
H1403 C1395 0.929 . S
H1404 C1412 0.929 . S
H1405 C1414 0.930 . S
H1406 C1416 0.930 . S
H1407 C1419 0.929 . S
H1408 C1422 0.930 . S
H1409 C1424 0.960 . S
H1410 C1424 0.960 . S
H1411 C1424 0.960 . S
C1412 H1404 0.929 . S
C1412 C1413 1.377 . S
C1412 C1414 1.384 . S
C1413 C1412 1.377 . S
C1413 C1419 1.390 . S
C1414 H1405 0.930 . S
C1414 C1412 1.384 . S
C1414 C1415 1.372 . S
C1415 C1414 1.372 . S
C1415 C1416 1.400 . S
C1415 C1420 1.490 . S
C1416 H1406 0.930 . S
C1416 C1415 1.400 . S
C1416 C1419 1.386 . S
H1417 C1433 0.930 . S
H1418 C1434 0.931 . S
C1419 H1407 0.929 . S
C1419 C1413 1.390 . S
C1419 C1416 1.386 . S
C1420 C1415 1.490 . S
C1420 C1422 1.395 . S
C1420 C1423 1.403 . S
H1421 C1427 0.930 . S
C1422 H1408 0.930 . S
C1422 C1420 1.395 . S
C1422 C1425 1.403 . S
C1423 C1420 1.403 . S
C1423 C1424 1.524 . S
C1423 C1427 1.400 . S
C1424 H1409 0.960 . S
C1424 H1410 0.960 . S
C1424 H1411 0.960 . S
C1424 C1423 1.524 . S
C1425 C1422 1.403 . S
C1425 C1426 1.392 . S
C1425 C1429 1.495 . S
C1426 C1425 1.392 . S
C1426 C1427 1.385 . S
C1426 C1428 1.478 . S
C1427 H1421 0.930 . S
C1427 C1423 1.400 . S
C1427 C1426 1.385 . S
C1428 C1426 1.478 . S
C1428 C1430 1.381 . S
C1428 C1434 1.383 . S
C1429 C1425 1.495 . S
C1429 H1435 0.959 . S
C1429 H1436 0.961 . S
C1429 H1437 0.960 . S
C1430 C1428 1.381 . S
C1430 C1431 1.394 . S
C1430 H1438 0.930 . S
C1431 C1430 1.394 . S
C1431 C1432 1.383 . S
C1431 H1439 0.929 . S
C1432 C1431 1.383 . S
C1432 C1433 1.377 . S
C1433 H1417 0.930 . S
C1433 C1432 1.377 . S
C1433 C1434 1.379 . S
C1434 H1418 0.931 . S
C1434 C1428 1.383 . S
C1434 C1433 1.379 . S
H1435 C1429 0.959 . S
H1436 C1429 0.961 . S
H1437 C1429 0.960 . S
H1438 C1430 0.930 . S
H1439 C1431 0.929 . S
H1440 C1448 0.929 . S
H1441 C1450 0.930 . S
H1442 C1452 0.930 . S
H1443 C1455 0.929 . S
H1444 C1458 0.930 . S
H1445 C1460 0.960 . S
H1446 C1460 0.960 . S
H1447 C1460 0.960 . S
C1448 H1440 0.929 . S
C1448 C1449 1.377 . S
C1448 C1450 1.384 . S
C1449 C1448 1.377 . S
C1449 C1455 1.390 . S
C1450 H1441 0.930 . S
C1450 C1448 1.384 . S
C1450 C1451 1.372 . S
C1451 C1450 1.372 . S
C1451 C1452 1.400 . S
C1451 C1456 1.490 . S
C1452 H1442 0.930 . S
C1452 C1451 1.400 . S
C1452 C1455 1.386 . S
H1453 C1469 0.930 . S
H1454 C1470 0.931 . S
C1455 H1443 0.929 . S
C1455 C1449 1.390 . S
C1455 C1452 1.386 . S
C1456 C1451 1.490 . S
C1456 C1458 1.395 . S
C1456 C1459 1.403 . S
H1457 C1463 0.930 . S
C1458 H1444 0.930 . S
C1458 C1456 1.395 . S
C1458 C1461 1.403 . S
C1459 C1456 1.403 . S
C1459 C1460 1.524 . S
C1459 C1463 1.400 . S
C1460 H1445 0.960 . S
C1460 H1446 0.960 . S
C1460 H1447 0.960 . S
C1460 C1459 1.524 . S
C1461 C1458 1.403 . S
C1461 C1462 1.392 . S
C1461 C1465 1.495 . S
C1462 C1461 1.392 . S
C1462 C1463 1.385 . S
C1462 C1464 1.478 . S
C1463 H1457 0.930 . S
C1463 C1459 1.400 . S
C1463 C1462 1.385 . S
C1464 C1462 1.478 . S
C1464 C1466 1.381 . S
C1464 C1470 1.383 . S
C1465 C1461 1.495 . S
C1465 H1471 0.959 . S
C1465 H1472 0.961 . S
C1465 H1473 0.960 . S
C1466 C1464 1.381 . S
C1466 C1467 1.394 . S
C1466 H1474 0.930 . S
C1467 C1466 1.394 . S
C1467 C1468 1.383 . S
C1467 H1475 0.929 . S
C1468 C1467 1.383 . S
C1468 C1469 1.377 . S
C1469 H1453 0.930 . S
C1469 C1468 1.377 . S
C1469 C1470 1.379 . S
C1470 H1454 0.931 . S
C1470 C1464 1.383 . S
C1470 C1469 1.379 . S
H1471 C1465 0.959 . S
H1472 C1465 0.961 . S
H1473 C1465 0.960 . S
H1474 C1466 0.930 . S
H1475 C1467 0.929 . S
H1476 C1484 0.929 . S
H1477 C1486 0.930 . S
H1478 C1488 0.930 . S
H1479 C1491 0.929 . S
H1480 C1494 0.930 . S
H1481 C1496 0.960 . S
H1482 C1496 0.960 . S
H1483 C1496 0.960 . S
C1484 H1476 0.929 . S
C1484 C1485 1.377 . S
C1484 C1486 1.384 . S
C1485 C1484 1.377 . S
C1485 C1491 1.390 . S
C1486 H1477 0.930 . S
C1486 C1484 1.384 . S
C1486 C1487 1.372 . S
C1487 C1486 1.372 . S
C1487 C1488 1.400 . S
C1487 C1492 1.490 . S
C1488 H1478 0.930 . S
C1488 C1487 1.400 . S
C1488 C1491 1.386 . S
H1489 C1505 0.930 . S
H1490 C1506 0.931 . S
C1491 H1479 0.929 . S
C1491 C1485 1.390 . S
C1491 C1488 1.386 . S
C1492 C1487 1.490 . S
C1492 C1494 1.395 . S
C1492 C1495 1.403 . S
H1493 C1499 0.930 . S
C1494 H1480 0.930 . S
C1494 C1492 1.395 . S
C1494 C1497 1.403 . S
C1495 C1492 1.403 . S
C1495 C1496 1.524 . S
C1495 C1499 1.400 . S
C1496 H1481 0.960 . S
C1496 H1482 0.960 . S
C1496 H1483 0.960 . S
C1496 C1495 1.524 . S
C1497 C1494 1.403 . S
C1497 C1498 1.392 . S
C1497 C1501 1.495 . S
C1498 C1497 1.392 . S
C1498 C1499 1.385 . S
C1498 C1500 1.478 . S
C1499 H1493 0.930 . S
C1499 C1495 1.400 . S
C1499 C1498 1.385 . S
C1500 C1498 1.478 . S
C1500 C1502 1.381 . S
C1500 C1506 1.383 . S
C1501 C1497 1.495 . S
C1501 H1507 0.959 . S
C1501 H1508 0.961 . S
C1501 H1509 0.960 . S
C1502 C1500 1.381 . S
C1502 C1503 1.394 . S
C1502 H1510 0.930 . S
C1503 C1502 1.394 . S
C1503 C1504 1.383 . S
C1503 H1511 0.929 . S
C1504 C1503 1.383 . S
C1504 C1505 1.377 . S
C1505 H1489 0.930 . S
C1505 C1504 1.377 . S
C1505 C1506 1.379 . S
C1506 H1490 0.931 . S
C1506 C1500 1.383 . S
C1506 C1505 1.379 . S
H1507 C1501 0.959 . S
H1508 C1501 0.961 . S
H1509 C1501 0.960 . S
H1510 C1502 0.930 . S
H1511 C1503 0.929 . S
H1512 C1520 0.929 . S
H1513 C1522 0.930 . S
H1514 C1524 0.930 . S
H1515 C1527 0.929 . S
H1516 C1530 0.930 . S
H1517 C1532 0.960 . S
H1518 C1532 0.960 . S
H1519 C1532 0.960 . S
C1520 H1512 0.929 . S
C1520 C1521 1.377 . S
C1520 C1522 1.384 . S
C1521 C1520 1.377 . S
C1521 C1527 1.390 . S
C1522 H1513 0.930 . S
C1522 C1520 1.384 . S
C1522 C1523 1.372 . S
C1523 C1522 1.372 . S
C1523 C1524 1.400 . S
C1523 C1528 1.490 . S
C1524 H1514 0.930 . S
C1524 C1523 1.400 . S
C1524 C1527 1.386 . S
H1525 C1541 0.930 . S
H1526 C1542 0.931 . S
C1527 H1515 0.929 . S
C1527 C1521 1.390 . S
C1527 C1524 1.386 . S
C1528 C1523 1.490 . S
C1528 C1530 1.395 . S
C1528 C1531 1.403 . S
H1529 C1535 0.930 . S
C1530 H1516 0.930 . S
C1530 C1528 1.395 . S
C1530 C1533 1.403 . S
C1531 C1528 1.403 . S
C1531 C1532 1.524 . S
C1531 C1535 1.400 . S
C1532 H1517 0.960 . S
C1532 H1518 0.960 . S
C1532 H1519 0.960 . S
C1532 C1531 1.524 . S
C1533 C1530 1.403 . S
C1533 C1534 1.392 . S
C1533 C1537 1.495 . S
C1534 C1533 1.392 . S
C1534 C1535 1.385 . S
C1534 C1536 1.478 . S
C1535 H1529 0.930 . S
C1535 C1531 1.400 . S
C1535 C1534 1.385 . S
C1536 C1534 1.478 . S
C1536 C1538 1.381 . S
C1536 C1542 1.383 . S
C1537 C1533 1.495 . S
C1537 H1543 0.959 . S
C1537 H1544 0.961 . S
C1537 H1545 0.960 . S
C1538 C1536 1.381 . S
C1538 C1539 1.394 . S
C1538 H1546 0.930 . S
C1539 C1538 1.394 . S
C1539 C1540 1.383 . S
C1539 H1547 0.929 . S
C1540 C1539 1.383 . S
C1540 C1541 1.377 . S
C1541 H1525 0.930 . S
C1541 C1540 1.377 . S
C1541 C1542 1.379 . S
C1542 H1526 0.931 . S
C1542 C1536 1.383 . S
C1542 C1541 1.379 . S
H1543 C1537 0.959 . S
H1544 C1537 0.961 . S
H1545 C1537 0.960 . S
H1546 C1538 0.930 . S
H1547 C1539 0.929 . S
H1548 C1556 0.929 . S
H1549 C1558 0.930 . S
H1550 C1560 0.930 . S
H1551 C1563 0.929 . S
H1552 C1566 0.930 . S
H1553 C1568 0.960 . S
H1554 C1568 0.960 . S
H1555 C1568 0.960 . S
C1556 H1548 0.929 . S
C1556 C1557 1.377 . S
C1556 C1558 1.384 . S
C1557 C1556 1.377 . S
C1557 C1563 1.390 . S
C1558 H1549 0.930 . S
C1558 C1556 1.384 . S
C1558 C1559 1.372 . S
C1559 C1558 1.372 . S
C1559 C1560 1.400 . S
C1559 C1564 1.490 . S
C1560 H1550 0.930 . S
C1560 C1559 1.400 . S
C1560 C1563 1.386 . S
H1561 C1577 0.930 . S
H1562 C1578 0.931 . S
C1563 H1551 0.929 . S
C1563 C1557 1.390 . S
C1563 C1560 1.386 . S
C1564 C1559 1.490 . S
C1564 C1566 1.395 . S
C1564 C1567 1.403 . S
H1565 C1571 0.930 . S
C1566 H1552 0.930 . S
C1566 C1564 1.395 . S
C1566 C1569 1.403 . S
C1567 C1564 1.403 . S
C1567 C1568 1.524 . S
C1567 C1571 1.400 . S
C1568 H1553 0.960 . S
C1568 H1554 0.960 . S
C1568 H1555 0.960 . S
C1568 C1567 1.524 . S
C1569 C1566 1.403 . S
C1569 C1570 1.392 . S
C1569 C1573 1.495 . S
C1570 C1569 1.392 . S
C1570 C1571 1.385 . S
C1570 C1572 1.478 . S
C1571 H1565 0.930 . S
C1571 C1567 1.400 . S
C1571 C1570 1.385 . S
C1572 C1570 1.478 . S
C1572 C1574 1.381 . S
C1572 C1578 1.383 . S
C1573 C1569 1.495 . S
C1573 H1579 0.959 . S
C1573 H1580 0.961 . S
C1573 H1581 0.960 . S
C1574 C1572 1.381 . S
C1574 C1575 1.394 . S
C1574 H1582 0.930 . S
C1575 C1574 1.394 . S
C1575 C1576 1.383 . S
C1575 H1583 0.929 . S
C1576 C1575 1.383 . S
C1576 C1577 1.377 . S
C1577 H1561 0.930 . S
C1577 C1576 1.377 . S
C1577 C1578 1.379 . S
C1578 H1562 0.931 . S
C1578 C1572 1.383 . S
C1578 C1577 1.379 . S
H1579 C1573 0.959 . S
H1580 C1573 0.961 . S
H1581 C1573 0.960 . S
H1582 C1574 0.930 . S
H1583 C1575 0.929 . S
H1584 C1592 0.929 . S
H1585 C1594 0.930 . S
H1586 C1596 0.930 . S
H1587 C1599 0.929 . S
H1588 C1602 0.930 . S
H1589 C1604 0.960 . S
H1590 C1604 0.960 . S
H1591 C1604 0.960 . S
C1592 H1584 0.929 . S
C1592 C1593 1.377 . S
C1592 C1594 1.384 . S
C1593 C1592 1.377 . S
C1593 C1599 1.390 . S
C1594 H1585 0.930 . S
C1594 C1592 1.384 . S
C1594 C1595 1.372 . S
C1595 C1594 1.372 . S
C1595 C1596 1.400 . S
C1595 C1600 1.490 . S
C1596 H1586 0.930 . S
C1596 C1595 1.400 . S
C1596 C1599 1.386 . S
H1597 C1613 0.930 . S
H1598 C1614 0.931 . S
C1599 H1587 0.929 . S
C1599 C1593 1.390 . S
C1599 C1596 1.386 . S
C1600 C1595 1.490 . S
C1600 C1602 1.395 . S
C1600 C1603 1.403 . S
H1601 C1607 0.930 . S
C1602 H1588 0.930 . S
C1602 C1600 1.395 . S
C1602 C1605 1.403 . S
C1603 C1600 1.403 . S
C1603 C1604 1.524 . S
C1603 C1607 1.400 . S
C1604 H1589 0.960 . S
C1604 H1590 0.960 . S
C1604 H1591 0.960 . S
C1604 C1603 1.524 . S
C1605 C1602 1.403 . S
C1605 C1606 1.392 . S
C1605 C1609 1.495 . S
C1606 C1605 1.392 . S
C1606 C1607 1.385 . S
C1606 C1608 1.478 . S
C1607 H1601 0.930 . S
C1607 C1603 1.400 . S
C1607 C1606 1.385 . S
C1608 C1606 1.478 . S
C1608 C1610 1.381 . S
C1608 C1614 1.383 . S
C1609 C1605 1.495 . S
C1609 H1615 0.959 . S
C1609 H1616 0.961 . S
C1609 H1617 0.960 . S
C1610 C1608 1.381 . S
C1610 C1611 1.394 . S
C1610 H1618 0.930 . S
C1611 C1610 1.394 . S
C1611 C1612 1.383 . S
C1611 H1619 0.929 . S
C1612 C1611 1.383 . S
C1612 C1613 1.377 . S
C1613 H1597 0.930 . S
C1613 C1612 1.377 . S
C1613 C1614 1.379 . S
C1614 H1598 0.931 . S
C1614 C1608 1.383 . S
C1614 C1613 1.379 . S
H1615 C1609 0.959 . S
H1616 C1609 0.961 . S
H1617 C1609 0.960 . S
H1618 C1610 0.930 . S
H1619 C1611 0.929 . S
H1620 C1628 0.929 . S
H1621 C1630 0.930 . S
H1622 C1632 0.930 . S
H1623 C1635 0.929 . S
H1624 C1638 0.930 . S
H1625 C1640 0.960 . S
H1626 C1640 0.960 . S
H1627 C1640 0.960 . S
C1628 H1620 0.929 . S
C1628 C1629 1.377 . S
C1628 C1630 1.384 . S
C1629 C1628 1.377 . S
C1629 C1635 1.390 . S
C1630 H1621 0.930 . S
C1630 C1628 1.384 . S
C1630 C1631 1.372 . S
C1631 C1630 1.372 . S
C1631 C1632 1.400 . S
C1631 C1636 1.490 . S
C1632 H1622 0.930 . S
C1632 C1631 1.400 . S
C1632 C1635 1.386 . S
H1633 C1649 0.930 . S
H1634 C1650 0.931 . S
C1635 H1623 0.929 . S
C1635 C1629 1.390 . S
C1635 C1632 1.386 . S
C1636 C1631 1.490 . S
C1636 C1638 1.395 . S
C1636 C1639 1.403 . S
H1637 C1643 0.930 . S
C1638 H1624 0.930 . S
C1638 C1636 1.395 . S
C1638 C1641 1.403 . S
C1639 C1636 1.403 . S
C1639 C1640 1.524 . S
C1639 C1643 1.400 . S
C1640 H1625 0.960 . S
C1640 H1626 0.960 . S
C1640 H1627 0.960 . S
C1640 C1639 1.524 . S
C1641 C1638 1.403 . S
C1641 C1642 1.392 . S
C1641 C1645 1.495 . S
C1642 C1641 1.392 . S
C1642 C1643 1.385 . S
C1642 C1644 1.478 . S
C1643 H1637 0.930 . S
C1643 C1639 1.400 . S
C1643 C1642 1.385 . S
C1644 C1642 1.478 . S
C1644 C1646 1.381 . S
C1644 C1650 1.383 . S
C1645 C1641 1.495 . S
C1645 H1651 0.959 . S
C1645 H1652 0.961 . S
C1645 H1653 0.960 . S
C1646 C1644 1.381 . S
C1646 C1647 1.394 . S
C1646 H1654 0.930 . S
C1647 C1646 1.394 . S
C1647 C1648 1.383 . S
C1647 H1655 0.929 . S
C1648 C1647 1.383 . S
C1648 C1649 1.377 . S
C1649 H1633 0.930 . S
C1649 C1648 1.377 . S
C1649 C1650 1.379 . S
C1650 H1634 0.931 . S
C1650 C1644 1.383 . S
C1650 C1649 1.379 . S
H1651 C1645 0.959 . S
H1652 C1645 0.961 . S
H1653 C1645 0.960 . S
H1654 C1646 0.930 . S
H1655 C1647 0.929 . S
H1656 C1664 0.929 . S
H1657 C1666 0.930 . S
H1658 C1668 0.930 . S
H1659 C1671 0.929 . S
H1660 C1674 0.930 . S
H1661 C1676 0.960 . S
H1662 C1676 0.960 . S
H1663 C1676 0.960 . S
C1664 H1656 0.929 . S
C1664 C1665 1.377 . S
C1664 C1666 1.384 . S
C1665 C1664 1.377 . S
C1665 C1671 1.390 . S
C1666 H1657 0.930 . S
C1666 C1664 1.384 . S
C1666 C1667 1.372 . S
C1667 C1666 1.372 . S
C1667 C1668 1.400 . S
C1667 C1672 1.490 . S
C1668 H1658 0.930 . S
C1668 C1667 1.400 . S
C1668 C1671 1.386 . S
H1669 C1685 0.930 . S
H1670 C1686 0.931 . S
C1671 H1659 0.929 . S
C1671 C1665 1.390 . S
C1671 C1668 1.386 . S
C1672 C1667 1.490 . S
C1672 C1674 1.395 . S
C1672 C1675 1.403 . S
H1673 C1679 0.930 . S
C1674 H1660 0.930 . S
C1674 C1672 1.395 . S
C1674 C1677 1.403 . S
C1675 C1672 1.403 . S
C1675 C1676 1.524 . S
C1675 C1679 1.400 . S
C1676 H1661 0.960 . S
C1676 H1662 0.960 . S
C1676 H1663 0.960 . S
C1676 C1675 1.524 . S
C1677 C1674 1.403 . S
C1677 C1678 1.392 . S
C1677 C1681 1.495 . S
C1678 C1677 1.392 . S
C1678 C1679 1.385 . S
C1678 C1680 1.478 . S
C1679 H1673 0.930 . S
C1679 C1675 1.400 . S
C1679 C1678 1.385 . S
C1680 C1678 1.478 . S
C1680 C1682 1.381 . S
C1680 C1686 1.383 . S
C1681 C1677 1.495 . S
C1681 H1687 0.959 . S
C1681 H1688 0.961 . S
C1681 H1689 0.960 . S
C1682 C1680 1.381 . S
C1682 C1683 1.394 . S
C1682 H1690 0.930 . S
C1683 C1682 1.394 . S
C1683 C1684 1.383 . S
C1683 H1691 0.929 . S
C1684 C1683 1.383 . S
C1684 C1685 1.377 . S
C1685 H1669 0.930 . S
C1685 C1684 1.377 . S
C1685 C1686 1.379 . S
C1686 H1670 0.931 . S
C1686 C1680 1.383 . S
C1686 C1685 1.379 . S
H1687 C1681 0.959 . S
H1688 C1681 0.961 . S
H1689 C1681 0.960 . S
H1690 C1682 0.930 . S
H1691 C1683 0.929 . S
H1692 C1700 0.929 . S
H1693 C1702 0.930 . S
H1694 C1704 0.930 . S
H1695 C1707 0.929 . S
H1696 C1710 0.930 . S
H1697 C1712 0.960 . S
H1698 C1712 0.960 . S
H1699 C1712 0.960 . S
C1700 H1692 0.929 . S
C1700 C1701 1.377 . S
C1700 C1702 1.384 . S
C1701 C1700 1.377 . S
C1701 C1707 1.390 . S
C1702 H1693 0.930 . S
C1702 C1700 1.384 . S
C1702 C1703 1.372 . S
C1703 C1702 1.372 . S
C1703 C1704 1.400 . S
C1703 C1708 1.490 . S
C1704 H1694 0.930 . S
C1704 C1703 1.400 . S
C1704 C1707 1.386 . S
H1705 C1721 0.930 . S
H1706 C1722 0.931 . S
C1707 H1695 0.929 . S
C1707 C1701 1.390 . S
C1707 C1704 1.386 . S
C1708 C1703 1.490 . S
C1708 C1710 1.395 . S
C1708 C1711 1.403 . S
H1709 C1715 0.930 . S
C1710 H1696 0.930 . S
C1710 C1708 1.395 . S
C1710 C1713 1.403 . S
C1711 C1708 1.403 . S
C1711 C1712 1.524 . S
C1711 C1715 1.400 . S
C1712 H1697 0.960 . S
C1712 H1698 0.960 . S
C1712 H1699 0.960 . S
C1712 C1711 1.524 . S
C1713 C1710 1.403 . S
C1713 C1714 1.392 . S
C1713 C1717 1.495 . S
C1714 C1713 1.392 . S
C1714 C1715 1.385 . S
C1714 C1716 1.478 . S
C1715 H1709 0.930 . S
C1715 C1711 1.400 . S
C1715 C1714 1.385 . S
C1716 C1714 1.478 . S
C1716 C1718 1.381 . S
C1716 C1722 1.383 . S
C1717 C1713 1.495 . S
C1717 H1723 0.959 . S
C1717 H1724 0.961 . S
C1717 H1725 0.960 . S
C1718 C1716 1.381 . S
C1718 C1719 1.394 . S
C1718 H1726 0.930 . S
C1719 C1718 1.394 . S
C1719 C1720 1.383 . S
C1719 H1727 0.929 . S
C1720 C1719 1.383 . S
C1720 C1721 1.377 . S
C1721 H1705 0.930 . S
C1721 C1720 1.377 . S
C1721 C1722 1.379 . S
C1722 H1706 0.931 . S
C1722 C1716 1.383 . S
C1722 C1721 1.379 . S
H1723 C1717 0.959 . S
H1724 C1717 0.961 . S
H1725 C1717 0.960 . S
H1726 C1718 0.930 . S
H1727 C1719 0.929 . S
H1728 C1736 0.929 . S
H1729 C1738 0.930 . S
H1730 C1740 0.930 . S
H1731 C1743 0.929 . S
H1732 C1746 0.930 . S
H1733 C1748 0.960 . S
H1734 C1748 0.960 . S
H1735 C1748 0.960 . S
C1736 H1728 0.929 . S
C1736 C1737 1.377 . S
C1736 C1738 1.384 . S
C1737 C1736 1.377 . S
C1737 C1743 1.390 . S
C1738 H1729 0.930 . S
C1738 C1736 1.384 . S
C1738 C1739 1.372 . S
C1739 C1738 1.372 . S
C1739 C1740 1.400 . S
C1739 C1744 1.490 . S
C1740 H1730 0.930 . S
C1740 C1739 1.400 . S
C1740 C1743 1.386 . S
H1741 C1757 0.930 . S
H1742 C1758 0.931 . S
C1743 H1731 0.929 . S
C1743 C1737 1.390 . S
C1743 C1740 1.386 . S
C1744 C1739 1.490 . S
C1744 C1746 1.395 . S
C1744 C1747 1.403 . S
H1745 C1751 0.930 . S
C1746 H1732 0.930 . S
C1746 C1744 1.395 . S
C1746 C1749 1.403 . S
C1747 C1744 1.403 . S
C1747 C1748 1.524 . S
C1747 C1751 1.400 . S
C1748 H1733 0.960 . S
C1748 H1734 0.960 . S
C1748 H1735 0.960 . S
C1748 C1747 1.524 . S
C1749 C1746 1.403 . S
C1749 C1750 1.392 . S
C1749 C1753 1.495 . S
C1750 C1749 1.392 . S
C1750 C1751 1.385 . S
C1750 C1752 1.478 . S
C1751 H1745 0.930 . S
C1751 C1747 1.400 . S
C1751 C1750 1.385 . S
C1752 C1750 1.478 . S
C1752 C1754 1.381 . S
C1752 C1758 1.383 . S
C1753 C1749 1.495 . S
C1753 H1759 0.959 . S
C1753 H1760 0.961 . S
C1753 H1761 0.960 . S
C1754 C1752 1.381 . S
C1754 C1755 1.394 . S
C1754 H1762 0.930 . S
C1755 C1754 1.394 . S
C1755 C1756 1.383 . S
C1755 H1763 0.929 . S
C1756 C1755 1.383 . S
C1756 C1757 1.377 . S
C1757 H1741 0.930 . S
C1757 C1756 1.377 . S
C1757 C1758 1.379 . S
C1758 H1742 0.931 . S
C1758 C1752 1.383 . S
C1758 C1757 1.379 . S
H1759 C1753 0.959 . S
H1760 C1753 0.961 . S
H1761 C1753 0.960 . S
H1762 C1754 0.930 . S
H1763 C1755 0.929 . S
H1764 C1772 0.929 . S
H1765 C1774 0.930 . S
H1766 C1776 0.930 . S
H1767 C1779 0.929 . S
H1768 C1782 0.930 . S
H1769 C1784 0.960 . S
H1770 C1784 0.960 . S
H1771 C1784 0.960 . S
C1772 H1764 0.929 . S
C1772 C1773 1.377 . S
C1772 C1774 1.384 . S
C1773 C1772 1.377 . S
C1773 C1779 1.390 . S
C1774 H1765 0.930 . S
C1774 C1772 1.384 . S
C1774 C1775 1.372 . S
C1775 C1774 1.372 . S
C1775 C1776 1.400 . S
C1775 C1780 1.490 . S
C1776 H1766 0.930 . S
C1776 C1775 1.400 . S
C1776 C1779 1.386 . S
H1777 C1793 0.930 . S
H1778 C1794 0.931 . S
C1779 H1767 0.929 . S
C1779 C1773 1.390 . S
C1779 C1776 1.386 . S
C1780 C1775 1.490 . S
C1780 C1782 1.395 . S
C1780 C1783 1.403 . S
H1781 C1787 0.930 . S
C1782 H1768 0.930 . S
C1782 C1780 1.395 . S
C1782 C1785 1.403 . S
C1783 C1780 1.403 . S
C1783 C1784 1.524 . S
C1783 C1787 1.400 . S
C1784 H1769 0.960 . S
C1784 H1770 0.960 . S
C1784 H1771 0.960 . S
C1784 C1783 1.524 . S
C1785 C1782 1.403 . S
C1785 C1786 1.392 . S
C1785 C1789 1.495 . S
C1786 C1785 1.392 . S
C1786 C1787 1.385 . S
C1786 C1788 1.478 . S
C1787 H1781 0.930 . S
C1787 C1783 1.400 . S
C1787 C1786 1.385 . S
C1788 C1786 1.478 . S
C1788 C1790 1.381 . S
C1788 C1794 1.383 . S
C1789 C1785 1.495 . S
C1789 H1795 0.959 . S
C1789 H1796 0.961 . S
C1789 H1797 0.960 . S
C1790 C1788 1.381 . S
C1790 C1791 1.394 . S
C1790 H1798 0.930 . S
C1791 C1790 1.394 . S
C1791 C1792 1.383 . S
C1791 H1799 0.929 . S
C1792 C1791 1.383 . S
C1792 C1793 1.377 . S
C1793 H1777 0.930 . S
C1793 C1792 1.377 . S
C1793 C1794 1.379 . S
C1794 H1778 0.931 . S
C1794 C1788 1.383 . S
C1794 C1793 1.379 . S
H1795 C1789 0.959 . S
H1796 C1789 0.961 . S
H1797 C1789 0.960 . S
H1798 C1790 0.930 . S
H1799 C1791 0.929 . S
H1800 C1808 0.929 . S
H1801 C1810 0.930 . S
H1802 C1812 0.930 . S
H1803 C1815 0.929 . S
H1804 C1818 0.930 . S
H1805 C1820 0.960 . S
H1806 C1820 0.960 . S
H1807 C1820 0.960 . S
C1808 H1800 0.929 . S
C1808 C1809 1.377 . S
C1808 C1810 1.384 . S
C1809 C1808 1.377 . S
C1809 C1815 1.390 . S
C1810 H1801 0.930 . S
C1810 C1808 1.384 . S
C1810 C1811 1.372 . S
C1811 C1810 1.372 . S
C1811 C1812 1.400 . S
C1811 C1816 1.490 . S
C1812 H1802 0.930 . S
C1812 C1811 1.400 . S
C1812 C1815 1.386 . S
H1813 C1829 0.930 . S
H1814 C1830 0.931 . S
C1815 H1803 0.929 . S
C1815 C1809 1.390 . S
C1815 C1812 1.386 . S
C1816 C1811 1.490 . S
C1816 C1818 1.395 . S
C1816 C1819 1.403 . S
H1817 C1823 0.930 . S
C1818 H1804 0.930 . S
C1818 C1816 1.395 . S
C1818 C1821 1.403 . S
C1819 C1816 1.403 . S
C1819 C1820 1.524 . S
C1819 C1823 1.400 . S
C1820 H1805 0.960 . S
C1820 H1806 0.960 . S
C1820 H1807 0.960 . S
C1820 C1819 1.524 . S
C1821 C1818 1.403 . S
C1821 C1822 1.392 . S
C1821 C1825 1.495 . S
C1822 C1821 1.392 . S
C1822 C1823 1.385 . S
C1822 C1824 1.478 . S
C1823 H1817 0.930 . S
C1823 C1819 1.400 . S
C1823 C1822 1.385 . S
C1824 C1822 1.478 . S
C1824 C1826 1.381 . S
C1824 C1830 1.383 . S
C1825 C1821 1.495 . S
C1825 H1831 0.959 . S
C1825 H1832 0.961 . S
C1825 H1833 0.960 . S
C1826 C1824 1.381 . S
C1826 C1827 1.394 . S
C1826 H1834 0.930 . S
C1827 C1826 1.394 . S
C1827 C1828 1.383 . S
C1827 H1835 0.929 . S
C1828 C1827 1.383 . S
C1828 C1829 1.377 . S
C1829 H1813 0.930 . S
C1829 C1828 1.377 . S
C1829 C1830 1.379 . S
C1830 H1814 0.931 . S
C1830 C1824 1.383 . S
C1830 C1829 1.379 . S
H1831 C1825 0.959 . S
H1832 C1825 0.961 . S
H1833 C1825 0.960 . S
H1834 C1826 0.930 . S
H1835 C1827 0.929 . S
H1836 C1844 0.929 . S
H1837 C1846 0.930 . S
H1838 C1848 0.930 . S
H1839 C1851 0.929 . S
H1840 C1854 0.930 . S
H1841 C1856 0.960 . S
H1842 C1856 0.960 . S
H1843 C1856 0.960 . S
C1844 H1836 0.929 . S
C1844 C1845 1.377 . S
C1844 C1846 1.384 . S
C1845 C1844 1.377 . S
C1845 C1851 1.390 . S
C1846 H1837 0.930 . S
C1846 C1844 1.384 . S
C1846 C1847 1.372 . S
C1847 C1846 1.372 . S
C1847 C1848 1.400 . S
C1847 C1852 1.490 . S
C1848 H1838 0.930 . S
C1848 C1847 1.400 . S
C1848 C1851 1.386 . S
H1849 C1865 0.930 . S
H1850 C1866 0.931 . S
C1851 H1839 0.929 . S
C1851 C1845 1.390 . S
C1851 C1848 1.386 . S
C1852 C1847 1.490 . S
C1852 C1854 1.395 . S
C1852 C1855 1.403 . S
H1853 C1859 0.930 . S
C1854 H1840 0.930 . S
C1854 C1852 1.395 . S
C1854 C1857 1.403 . S
C1855 C1852 1.403 . S
C1855 C1856 1.524 . S
C1855 C1859 1.400 . S
C1856 H1841 0.960 . S
C1856 H1842 0.960 . S
C1856 H1843 0.960 . S
C1856 C1855 1.524 . S
C1857 C1854 1.403 . S
C1857 C1858 1.392 . S
C1857 C1861 1.495 . S
C1858 C1857 1.392 . S
C1858 C1859 1.385 . S
C1858 C1860 1.478 . S
C1859 H1853 0.930 . S
C1859 C1855 1.400 . S
C1859 C1858 1.385 . S
C1860 C1858 1.478 . S
C1860 C1862 1.381 . S
C1860 C1866 1.383 . S
C1861 C1857 1.495 . S
C1861 H1867 0.959 . S
C1861 H1868 0.961 . S
C1861 H1869 0.960 . S
C1862 C1860 1.381 . S
C1862 C1863 1.394 . S
C1862 H1870 0.930 . S
C1863 C1862 1.394 . S
C1863 C1864 1.383 . S
C1863 H1871 0.929 . S
C1864 C1863 1.383 . S
C1864 C1865 1.377 . S
C1865 H1849 0.930 . S
C1865 C1864 1.377 . S
C1865 C1866 1.379 . S
C1866 H1850 0.931 . S
C1866 C1860 1.383 . S
C1866 C1865 1.379 . S
H1867 C1861 0.959 . S
H1868 C1861 0.961 . S
H1869 C1861 0.960 . S
H1870 C1862 0.930 . S
H1871 C1863 0.929 . S
H1872 C1880 0.929 . S
H1873 C1882 0.930 . S
H1874 C1884 0.930 . S
H1875 C1887 0.929 . S
H1876 C1890 0.930 . S
H1877 C1892 0.960 . S
H1878 C1892 0.960 . S
H1879 C1892 0.960 . S
C1880 H1872 0.929 . S
C1880 C1881 1.377 . S
C1880 C1882 1.384 . S
C1881 C1880 1.377 . S
C1881 C1887 1.390 . S
C1882 H1873 0.930 . S
C1882 C1880 1.384 . S
C1882 C1883 1.372 . S
C1883 C1882 1.372 . S
C1883 C1884 1.400 . S
C1883 C1888 1.490 . S
C1884 H1874 0.930 . S
C1884 C1883 1.400 . S
C1884 C1887 1.386 . S
H1885 C1901 0.930 . S
H1886 C1902 0.931 . S
C1887 H1875 0.929 . S
C1887 C1881 1.390 . S
C1887 C1884 1.386 . S
C1888 C1883 1.490 . S
C1888 C1890 1.395 . S
C1888 C1891 1.403 . S
H1889 C1895 0.930 . S
C1890 H1876 0.930 . S
C1890 C1888 1.395 . S
C1890 C1893 1.403 . S
C1891 C1888 1.403 . S
C1891 C1892 1.524 . S
C1891 C1895 1.400 . S
C1892 H1877 0.960 . S
C1892 H1878 0.960 . S
C1892 H1879 0.960 . S
C1892 C1891 1.524 . S
C1893 C1890 1.403 . S
C1893 C1894 1.392 . S
C1893 C1897 1.495 . S
C1894 C1893 1.392 . S
C1894 C1895 1.385 . S
C1894 C1896 1.478 . S
C1895 H1889 0.930 . S
C1895 C1891 1.400 . S
C1895 C1894 1.385 . S
C1896 C1894 1.478 . S
C1896 C1898 1.381 . S
C1896 C1902 1.383 . S
C1897 C1893 1.495 . S
C1897 H1903 0.959 . S
C1897 H1904 0.961 . S
C1897 H1905 0.960 . S
C1898 C1896 1.381 . S
C1898 C1899 1.394 . S
C1898 H1906 0.930 . S
C1899 C1898 1.394 . S
C1899 C1900 1.383 . S
C1899 H1907 0.929 . S
C1900 C1899 1.383 . S
C1900 C1901 1.377 . S
C1901 H1885 0.930 . S
C1901 C1900 1.377 . S
C1901 C1902 1.379 . S
C1902 H1886 0.931 . S
C1902 C1896 1.383 . S
C1902 C1901 1.379 . S
H1903 C1897 0.959 . S
H1904 C1897 0.961 . S
H1905 C1897 0.960 . S
H1906 C1898 0.930 . S
H1907 C1899 0.929 . S
H1908 C1916 0.929 . S
H1909 C1918 0.930 . S
H1910 C1920 0.930 . S
H1911 C1923 0.929 . S
H1912 C1926 0.930 . S
H1913 C1928 0.960 . S
H1914 C1928 0.960 . S
H1915 C1928 0.960 . S
C1916 H1908 0.929 . S
C1916 C1917 1.377 . S
C1916 C1918 1.384 . S
C1917 C1916 1.377 . S
C1917 C1923 1.390 . S
C1918 H1909 0.930 . S
C1918 C1916 1.384 . S
C1918 C1919 1.372 . S
C1919 C1918 1.372 . S
C1919 C1920 1.400 . S
C1919 C1924 1.490 . S
C1920 H1910 0.930 . S
C1920 C1919 1.400 . S
C1920 C1923 1.386 . S
H1921 C1937 0.930 . S
H1922 C1938 0.931 . S
C1923 H1911 0.929 . S
C1923 C1917 1.390 . S
C1923 C1920 1.386 . S
C1924 C1919 1.490 . S
C1924 C1926 1.395 . S
C1924 C1927 1.403 . S
H1925 C1931 0.930 . S
C1926 H1912 0.930 . S
C1926 C1924 1.395 . S
C1926 C1929 1.403 . S
C1927 C1924 1.403 . S
C1927 C1928 1.524 . S
C1927 C1931 1.400 . S
C1928 H1913 0.960 . S
C1928 H1914 0.960 . S
C1928 H1915 0.960 . S
C1928 C1927 1.524 . S
C1929 C1926 1.403 . S
C1929 C1930 1.392 . S
C1929 C1933 1.495 . S
C1930 C1929 1.392 . S
C1930 C1931 1.385 . S
C1930 C1932 1.478 . S
C1931 H1925 0.930 . S
C1931 C1927 1.400 . S
C1931 C1930 1.385 . S
C1932 C1930 1.478 . S
C1932 C1934 1.381 . S
C1932 C1938 1.383 . S
C1933 C1929 1.495 . S
C1933 H1939 0.959 . S
C1933 H1940 0.961 . S
C1933 H1941 0.960 . S
C1934 C1932 1.381 . S
C1934 C1935 1.394 . S
C1934 H1942 0.930 . S
C1935 C1934 1.394 . S
C1935 C1936 1.383 . S
C1935 H1943 0.929 . S
C1936 C1935 1.383 . S
C1936 C1937 1.377 . S
C1937 H1921 0.930 . S
C1937 C1936 1.377 . S
C1937 C1938 1.379 . S
C1938 H1922 0.931 . S
C1938 C1932 1.383 . S
C1938 C1937 1.379 . S
H1939 C1933 0.959 . S
H1940 C1933 0.961 . S
H1941 C1933 0.960 . S
H1942 C1934 0.930 . S
H1943 C1935 0.929 . S
H1944 C1952 0.929 . S
H1945 C1954 0.930 . S
H1946 C1956 0.930 . S
H1947 C1959 0.929 . S
H1948 C1962 0.930 . S
H1949 C1964 0.960 . S
H1950 C1964 0.960 . S
H1951 C1964 0.960 . S
C1952 H1944 0.929 . S
C1952 C1953 1.377 . S
C1952 C1954 1.384 . S
C1953 C1952 1.377 . S
C1953 C1959 1.390 . S
C1954 H1945 0.930 . S
C1954 C1952 1.384 . S
C1954 C1955 1.372 . S
C1955 C1954 1.372 . S
C1955 C1956 1.400 . S
C1955 C1960 1.490 . S
C1956 H1946 0.930 . S
C1956 C1955 1.400 . S
C1956 C1959 1.386 . S
H1957 C1973 0.930 . S
H1958 C1974 0.931 . S
C1959 H1947 0.929 . S
C1959 C1953 1.390 . S
C1959 C1956 1.386 . S
C1960 C1955 1.490 . S
C1960 C1962 1.395 . S
C1960 C1963 1.403 . S
H1961 C1967 0.930 . S
C1962 H1948 0.930 . S
C1962 C1960 1.395 . S
C1962 C1965 1.403 . S
C1963 C1960 1.403 . S
C1963 C1964 1.524 . S
C1963 C1967 1.400 . S
C1964 H1949 0.960 . S
C1964 H1950 0.960 . S
C1964 H1951 0.960 . S
C1964 C1963 1.524 . S
C1965 C1962 1.403 . S
C1965 C1966 1.392 . S
C1965 C1969 1.495 . S
C1966 C1965 1.392 . S
C1966 C1967 1.385 . S
C1966 C1968 1.478 . S
C1967 H1961 0.930 . S
C1967 C1963 1.400 . S
C1967 C1966 1.385 . S
C1968 C1966 1.478 . S
C1968 C1970 1.381 . S
C1968 C1974 1.383 . S
C1969 C1965 1.495 . S
C1969 H1975 0.959 . S
C1969 H1976 0.961 . S
C1969 H1977 0.960 . S
C1970 C1968 1.381 . S
C1970 C1971 1.394 . S
C1970 H1978 0.930 . S
C1971 C1970 1.394 . S
C1971 C1972 1.383 . S
C1971 H1979 0.929 . S
C1972 C1971 1.383 . S
C1972 C1973 1.377 . S
C1973 H1957 0.930 . S
C1973 C1972 1.377 . S
C1973 C1974 1.379 . S
C1974 H1958 0.931 . S
C1974 C1968 1.383 . S
C1974 C1973 1.379 . S
H1975 C1969 0.959 . S
H1976 C1969 0.961 . S
H1977 C1969 0.960 . S
H1978 C1970 0.930 . S
H1979 C1971 0.929 . S
H1980 C1988 0.929 . S
H1981 C1990 0.930 . S
H1982 C1992 0.930 . S
H1983 C1995 0.929 . S
H1984 C1998 0.930 . S
H1985 C2000 0.960 . S
H1986 C2000 0.960 . S
H1987 C2000 0.960 . S
C1988 H1980 0.929 . S
C1988 C1989 1.377 . S
C1988 C1990 1.384 . S
C1989 C1988 1.377 . S
C1989 C1995 1.390 . S
C1990 H1981 0.930 . S
C1990 C1988 1.384 . S
C1990 C1991 1.372 . S
C1991 C1990 1.372 . S
C1991 C1992 1.400 . S
C1991 C1996 1.490 . S
C1992 H1982 0.930 . S
C1992 C1991 1.400 . S
C1992 C1995 1.386 . S
H1993 C2009 0.930 . S
H1994 C2010 0.931 . S
C1995 H1983 0.929 . S
C1995 C1989 1.390 . S
C1995 C1992 1.386 . S
C1996 C1991 1.490 . S
C1996 C1998 1.395 . S
C1996 C1999 1.403 . S
H1997 C2003 0.930 . S
C1998 H1984 0.930 . S
C1998 C1996 1.395 . S
C1998 C2001 1.403 . S
C1999 C1996 1.403 . S
C1999 C2000 1.524 . S
C1999 C2003 1.400 . S
C2000 H1985 0.960 . S
C2000 H1986 0.960 . S
C2000 H1987 0.960 . S
C2000 C1999 1.524 . S
C2001 C1998 1.403 . S
C2001 C2002 1.392 . S
C2001 C2005 1.495 . S
C2002 C2001 1.392 . S
C2002 C2003 1.385 . S
C2002 C2004 1.478 . S
C2003 H1997 0.930 . S
C2003 C1999 1.400 . S
C2003 C2002 1.385 . S
C2004 C2002 1.478 . S
C2004 C2006 1.381 . S
C2004 C2010 1.383 . S
C2005 C2001 1.495 . S
C2005 H2011 0.959 . S
C2005 H2012 0.961 . S
C2005 H2013 0.960 . S
C2006 C2004 1.381 . S
C2006 C2007 1.394 . S
C2006 H2014 0.930 . S
C2007 C2006 1.394 . S
C2007 C2008 1.383 . S
C2007 H2015 0.929 . S
C2008 C2007 1.383 . S
C2008 C2009 1.377 . S
C2009 H1993 0.930 . S
C2009 C2008 1.377 . S
C2009 C2010 1.379 . S
C2010 H1994 0.931 . S
C2010 C2004 1.383 . S
C2010 C2009 1.379 . S
H2011 C2005 0.959 . S
H2012 C2005 0.961 . S
H2013 C2005 0.960 . S
H2014 C2006 0.930 . S
H2015 C2007 0.929 . S
H2016 C2024 0.929 . S
H2017 C2026 0.930 . S
H2018 C2028 0.930 . S
H2019 C2031 0.929 . S
H2020 C2034 0.930 . S
H2021 C2036 0.960 . S
H2022 C2036 0.960 . S
H2023 C2036 0.960 . S
C2024 H2016 0.929 . S
C2024 C2025 1.377 . S
C2024 C2026 1.384 . S
C2025 C2024 1.377 . S
C2025 C2031 1.390 . S
C2026 H2017 0.930 . S
C2026 C2024 1.384 . S
C2026 C2027 1.372 . S
C2027 C2026 1.372 . S
C2027 C2028 1.400 . S
C2027 C2032 1.490 . S
C2028 H2018 0.930 . S
C2028 C2027 1.400 . S
C2028 C2031 1.386 . S
H2029 C2045 0.930 . S
H2030 C2046 0.931 . S
C2031 H2019 0.929 . S
C2031 C2025 1.390 . S
C2031 C2028 1.386 . S
C2032 C2027 1.490 . S
C2032 C2034 1.395 . S
C2032 C2035 1.403 . S
H2033 C2039 0.930 . S
C2034 H2020 0.930 . S
C2034 C2032 1.395 . S
C2034 C2037 1.403 . S
C2035 C2032 1.403 . S
C2035 C2036 1.524 . S
C2035 C2039 1.400 . S
C2036 H2021 0.960 . S
C2036 H2022 0.960 . S
C2036 H2023 0.960 . S
C2036 C2035 1.524 . S
C2037 C2034 1.403 . S
C2037 C2038 1.392 . S
C2037 C2041 1.495 . S
C2038 C2037 1.392 . S
C2038 C2039 1.385 . S
C2038 C2040 1.478 . S
C2039 H2033 0.930 . S
C2039 C2035 1.400 . S
C2039 C2038 1.385 . S
C2040 C2038 1.478 . S
C2040 C2042 1.381 . S
C2040 C2046 1.383 . S
C2041 C2037 1.495 . S
C2041 H2047 0.959 . S
C2041 H2048 0.961 . S
C2041 H2049 0.960 . S
C2042 C2040 1.381 . S
C2042 C2043 1.394 . S
C2042 H2050 0.930 . S
C2043 C2042 1.394 . S
C2043 C2044 1.383 . S
C2043 H2051 0.929 . S
C2044 C2043 1.383 . S
C2044 C2045 1.377 . S
C2045 H2029 0.930 . S
C2045 C2044 1.377 . S
C2045 C2046 1.379 . S
C2046 H2030 0.931 . S
C2046 C2040 1.383 . S
C2046 C2045 1.379 . S
H2047 C2041 0.959 . S
H2048 C2041 0.961 . S
H2049 C2041 0.960 . S
H2050 C2042 0.930 . S
H2051 C2043 0.929 . S
H2052 C2060 0.929 1_554 S
H2053 C2062 0.930 . S
H2054 C2064 0.930 . S
H2055 C2067 0.929 . S
H2056 C2070 0.930 . S
H2057 C2072 0.960 . S
H2058 C2072 0.960 . S
H2059 C2072 0.960 . S
C2060 H2052 0.929 1_556 S
C2060 C2061 1.377 . S
C2060 C2062 1.384 . S
C2061 C2060 1.377 . S
C2061 C2067 1.390 . S
C2062 H2053 0.930 . S
C2062 C2060 1.384 . S
C2062 C2063 1.372 . S
C2063 C2062 1.372 . S
C2063 C2064 1.400 . S
C2063 C2068 1.490 . S
C2064 H2054 0.930 . S
C2064 C2063 1.400 . S
C2064 C2067 1.386 . S
H2065 C2081 0.930 . S
H2066 C2082 0.931 . S
C2067 H2055 0.929 . S
C2067 C2061 1.390 . S
C2067 C2064 1.386 . S
C2068 C2063 1.490 . S
C2068 C2070 1.395 . S
C2068 C2071 1.403 . S
H2069 C2075 0.930 . S
C2070 H2056 0.930 . S
C2070 C2068 1.395 . S
C2070 C2073 1.403 . S
C2071 C2068 1.403 . S
C2071 C2072 1.524 . S
C2071 C2075 1.400 . S
C2072 H2057 0.960 . S
C2072 H2058 0.960 . S
C2072 H2059 0.960 . S
C2072 C2071 1.524 . S
C2073 C2070 1.403 . S
C2073 C2074 1.392 . S
C2073 C2077 1.495 . S
C2074 C2073 1.392 . S
C2074 C2075 1.385 . S
C2074 C2076 1.478 . S
C2075 H2069 0.930 . S
C2075 C2071 1.400 . S
C2075 C2074 1.385 . S
C2076 C2074 1.478 . S
C2076 C2078 1.381 . S
C2076 C2082 1.383 . S
C2077 C2073 1.495 . S
C2077 H2083 0.959 . S
C2077 H2084 0.961 . S
C2077 H2085 0.960 . S
C2078 C2076 1.381 . S
C2078 C2079 1.394 . S
C2078 H2086 0.930 . S
C2079 C2078 1.394 . S
C2079 C2080 1.383 . S
C2079 H2087 0.929 . S
C2080 C2079 1.383 . S
C2080 C2081 1.377 . S
C2081 H2065 0.930 . S
C2081 C2080 1.377 . S
C2081 C2082 1.379 . S
C2082 H2066 0.931 . S
C2082 C2076 1.383 . S
C2082 C2081 1.379 . S
H2083 C2077 0.959 . S
H2084 C2077 0.961 . S
H2085 C2077 0.960 . S
H2086 C2078 0.930 . S
H2087 C2079 0.929 . S
H2088 C2096 0.929 . S
H2089 C2098 0.930 . S
H2090 C2100 0.930 . S
H2091 C2103 0.929 . S
H2092 C2106 0.930 . S
H2093 C2108 0.960 . S
H2094 C2108 0.960 . S
H2095 C2108 0.960 . S
C2096 H2088 0.929 . S
C2096 C2097 1.377 . S
C2096 C2098 1.384 . S
C2097 C2096 1.377 . S
C2097 C2103 1.390 . S
C2098 H2089 0.930 . S
C2098 C2096 1.384 . S
C2098 C2099 1.372 . S
C2099 C2098 1.372 . S
C2099 C2100 1.400 . S
C2099 C2104 1.490 . S
C2100 H2090 0.930 . S
C2100 C2099 1.400 . S
C2100 C2103 1.386 . S
H2101 C2117 0.930 . S
H2102 C2118 0.931 . S
C2103 H2091 0.929 . S
C2103 C2097 1.390 . S
C2103 C2100 1.386 . S
C2104 C2099 1.490 . S
C2104 C2106 1.395 . S
C2104 C2107 1.403 . S
H2105 C2111 0.930 . S
C2106 H2092 0.930 . S
C2106 C2104 1.395 . S
C2106 C2109 1.403 . S
C2107 C2104 1.403 . S
C2107 C2108 1.524 . S
C2107 C2111 1.400 . S
C2108 H2093 0.960 . S
C2108 H2094 0.960 . S
C2108 H2095 0.960 . S
C2108 C2107 1.524 . S
C2109 C2106 1.403 . S
C2109 C2110 1.392 . S
C2109 C2113 1.495 . S
C2110 C2109 1.392 . S
C2110 C2111 1.385 . S
C2110 C2112 1.478 . S
C2111 H2105 0.930 . S
C2111 C2107 1.400 . S
C2111 C2110 1.385 . S
C2112 C2110 1.478 . S
C2112 C2114 1.381 . S
C2112 C2118 1.383 . S
C2113 C2109 1.495 . S
C2113 H2119 0.959 . S
C2113 H2120 0.961 . S
C2113 H2121 0.960 . S
C2114 C2112 1.381 . S
C2114 C2115 1.394 . S
C2114 H2122 0.930 . S
C2115 C2114 1.394 . S
C2115 C2116 1.383 . S
C2115 H2123 0.929 . S
C2116 C2115 1.383 . S
C2116 C2117 1.377 . S
C2117 H2101 0.930 . S
C2117 C2116 1.377 . S
C2117 C2118 1.379 . S
C2118 H2102 0.931 . S
C2118 C2112 1.383 . S
C2118 C2117 1.379 . S
H2119 C2113 0.959 . S
H2120 C2113 0.961 . S
H2121 C2113 0.960 . S
H2122 C2114 0.930 . S
H2123 C2115 0.929 . S
H2124 C2132 0.929 . S
H2125 C2134 0.930 . S
H2126 C2136 0.930 . S
H2127 C2139 0.929 . S
H2128 C2142 0.930 . S
H2129 C2144 0.960 . S
H2130 C2144 0.960 . S
H2131 C2144 0.960 . S
C2132 H2124 0.929 . S
C2132 C2133 1.377 . S
C2132 C2134 1.384 . S
C2133 C2132 1.377 . S
C2133 C2139 1.390 . S
C2134 H2125 0.930 . S
C2134 C2132 1.384 . S
C2134 C2135 1.372 . S
C2135 C2134 1.372 . S
C2135 C2136 1.400 . S
C2135 C2140 1.490 . S
C2136 H2126 0.930 . S
C2136 C2135 1.400 . S
C2136 C2139 1.386 . S
H2137 C2153 0.930 . S
H2138 C2154 0.931 . S
C2139 H2127 0.929 . S
C2139 C2133 1.390 . S
C2139 C2136 1.386 . S
C2140 C2135 1.490 . S
C2140 C2142 1.395 . S
C2140 C2143 1.403 . S
H2141 C2147 0.930 . S
C2142 H2128 0.930 . S
C2142 C2140 1.395 . S
C2142 C2145 1.403 . S
C2143 C2140 1.403 . S
C2143 C2144 1.524 . S
C2143 C2147 1.400 . S
C2144 H2129 0.960 . S
C2144 H2130 0.960 . S
C2144 H2131 0.960 . S
C2144 C2143 1.524 . S
C2145 C2142 1.403 . S
C2145 C2146 1.392 . S
C2145 C2149 1.495 . S
C2146 C2145 1.392 . S
C2146 C2147 1.385 . S
C2146 C2148 1.478 . S
C2147 H2141 0.930 . S
C2147 C2143 1.400 . S
C2147 C2146 1.385 . S
C2148 C2146 1.478 . S
C2148 C2150 1.381 . S
C2148 C2154 1.383 . S
C2149 C2145 1.495 . S
C2149 H2155 0.959 . S
C2149 H2156 0.961 . S
C2149 H2157 0.960 . S
C2150 C2148 1.381 . S
C2150 C2151 1.394 . S
C2150 H2158 0.930 . S
C2151 C2150 1.394 . S
C2151 C2152 1.383 . S
C2151 H2159 0.929 . S
C2152 C2151 1.383 . S
C2152 C2153 1.377 . S
C2153 H2137 0.930 . S
C2153 C2152 1.377 . S
C2153 C2154 1.379 . S
C2154 H2138 0.931 . S
C2154 C2148 1.383 . S
C2154 C2153 1.379 . S
H2155 C2149 0.959 . S
H2156 C2149 0.961 . S
H2157 C2149 0.960 . S
H2158 C2150 0.930 . S
H2159 C2151 0.929 . S
H2160 C2168 0.929 . S
H2161 C2170 0.930 . S
H2162 C2172 0.930 . S
H2163 C2175 0.929 . S
H2164 C2178 0.930 . S
H2165 C2180 0.960 . S
H2166 C2180 0.960 . S
H2167 C2180 0.960 . S
C2168 H2160 0.929 . S
C2168 C2169 1.377 . S
C2168 C2170 1.384 . S
C2169 C2168 1.377 . S
C2169 C2175 1.390 . S
C2170 H2161 0.930 . S
C2170 C2168 1.384 . S
C2170 C2171 1.372 . S
C2171 C2170 1.372 . S
C2171 C2172 1.400 . S
C2171 C2176 1.490 . S
C2172 H2162 0.930 . S
C2172 C2171 1.400 . S
C2172 C2175 1.386 . S
H2173 C2189 0.930 . S
H2174 C2190 0.931 . S
C2175 H2163 0.929 . S
C2175 C2169 1.390 . S
C2175 C2172 1.386 . S
C2176 C2171 1.490 . S
C2176 C2178 1.395 . S
C2176 C2179 1.403 . S
H2177 C2183 0.930 . S
C2178 H2164 0.930 . S
C2178 C2176 1.395 . S
C2178 C2181 1.403 . S
C2179 C2176 1.403 . S
C2179 C2180 1.524 . S
C2179 C2183 1.400 . S
C2180 H2165 0.960 . S
C2180 H2166 0.960 . S
C2180 H2167 0.960 . S
C2180 C2179 1.524 . S
C2181 C2178 1.403 . S
C2181 C2182 1.392 . S
C2181 C2185 1.495 . S
C2182 C2181 1.392 . S
C2182 C2183 1.385 . S
C2182 C2184 1.478 . S
C2183 H2177 0.930 . S
C2183 C2179 1.400 . S
C2183 C2182 1.385 . S
C2184 C2182 1.478 . S
C2184 C2186 1.381 . S
C2184 C2190 1.383 . S
C2185 C2181 1.495 . S
C2185 H2191 0.959 . S
C2185 H2192 0.961 . S
C2185 H2193 0.960 . S
C2186 C2184 1.381 . S
C2186 C2187 1.394 . S
C2186 H2194 0.930 . S
C2187 C2186 1.394 . S
C2187 C2188 1.383 . S
C2187 H2195 0.929 . S
C2188 C2187 1.383 . S
C2188 C2189 1.377 . S
C2189 H2173 0.930 . S
C2189 C2188 1.377 . S
C2189 C2190 1.379 . S
C2190 H2174 0.931 . S
C2190 C2184 1.383 . S
C2190 C2189 1.379 . S
H2191 C2185 0.959 . S
H2192 C2185 0.961 . S
H2193 C2185 0.960 . S
H2194 C2186 0.930 . S
H2195 C2187 0.929 . S
H2196 C2204 0.929 . S
H2197 C2206 0.930 . S
H2198 C2208 0.930 . S
H2199 C2211 0.929 . S
H2200 C2214 0.930 . S
H2201 C2216 0.960 . S
H2202 C2216 0.960 . S
H2203 C2216 0.960 . S
C2204 H2196 0.929 . S
C2204 C2205 1.377 . S
C2204 C2206 1.384 . S
C2205 C2204 1.377 . S
C2205 C2211 1.390 . S
C2206 H2197 0.930 . S
C2206 C2204 1.384 . S
C2206 C2207 1.372 . S
C2207 C2206 1.372 . S
C2207 C2208 1.400 . S
C2207 C2212 1.490 . S
C2208 H2198 0.930 . S
C2208 C2207 1.400 . S
C2208 C2211 1.386 . S
H2209 C2225 0.930 . S
H2210 C2226 0.931 . S
C2211 H2199 0.929 . S
C2211 C2205 1.390 . S
C2211 C2208 1.386 . S
C2212 C2207 1.490 . S
C2212 C2214 1.395 . S
C2212 C2215 1.403 . S
H2213 C2219 0.930 . S
C2214 H2200 0.930 . S
C2214 C2212 1.395 . S
C2214 C2217 1.403 . S
C2215 C2212 1.403 . S
C2215 C2216 1.524 . S
C2215 C2219 1.400 . S
C2216 H2201 0.960 . S
C2216 H2202 0.960 . S
C2216 H2203 0.960 . S
C2216 C2215 1.524 . S
C2217 C2214 1.403 . S
C2217 C2218 1.392 . S
C2217 C2221 1.495 . S
C2218 C2217 1.392 . S
C2218 C2219 1.385 . S
C2218 C2220 1.478 . S
C2219 H2213 0.930 . S
C2219 C2215 1.400 . S
C2219 C2218 1.385 . S
C2220 C2218 1.478 . S
C2220 C2222 1.381 . S
C2220 C2226 1.383 . S
C2221 C2217 1.495 . S
C2221 H2227 0.959 . S
C2221 H2228 0.961 . S
C2221 H2229 0.960 . S
C2222 C2220 1.381 . S
C2222 C2223 1.394 . S
C2222 H2230 0.930 . S
C2223 C2222 1.394 . S
C2223 C2224 1.383 . S
C2223 H2231 0.929 . S
C2224 C2223 1.383 . S
C2224 C2225 1.377 . S
C2225 H2209 0.930 . S
C2225 C2224 1.377 . S
C2225 C2226 1.379 . S
C2226 H2210 0.931 . S
C2226 C2220 1.383 . S
C2226 C2225 1.379 . S
H2227 C2221 0.959 . S
H2228 C2221 0.961 . S
H2229 C2221 0.960 . S
H2230 C2222 0.930 . S
H2231 C2223 0.929 . S
H2232 C2240 0.929 . S
H2233 C2242 0.930 . S
H2234 C2244 0.930 . S
H2235 C2247 0.929 . S
H2236 C2250 0.930 . S
H2237 C2252 0.960 . S
H2238 C2252 0.960 . S
H2239 C2252 0.960 . S
C2240 H2232 0.929 . S
C2240 C2241 1.377 . S
C2240 C2242 1.384 . S
C2241 C2240 1.377 . S
C2241 C2247 1.390 . S
C2242 H2233 0.930 . S
C2242 C2240 1.384 . S
C2242 C2243 1.372 . S
C2243 C2242 1.372 . S
C2243 C2244 1.400 . S
C2243 C2248 1.490 . S
C2244 H2234 0.930 . S
C2244 C2243 1.400 . S
C2244 C2247 1.386 . S
H2245 C2261 0.930 . S
H2246 C2262 0.931 . S
C2247 H2235 0.929 . S
C2247 C2241 1.390 . S
C2247 C2244 1.386 . S
C2248 C2243 1.490 . S
C2248 C2250 1.395 . S
C2248 C2251 1.403 . S
H2249 C2255 0.930 . S
C2250 H2236 0.930 . S
C2250 C2248 1.395 . S
C2250 C2253 1.403 . S
C2251 C2248 1.403 . S
C2251 C2252 1.524 . S
C2251 C2255 1.400 . S
C2252 H2237 0.960 . S
C2252 H2238 0.960 . S
C2252 H2239 0.960 . S
C2252 C2251 1.524 . S
C2253 C2250 1.403 . S
C2253 C2254 1.392 . S
C2253 C2257 1.495 . S
C2254 C2253 1.392 . S
C2254 C2255 1.385 . S
C2254 C2256 1.478 . S
C2255 H2249 0.930 . S
C2255 C2251 1.400 . S
C2255 C2254 1.385 . S
C2256 C2254 1.478 . S
C2256 C2258 1.381 . S
C2256 C2262 1.383 . S
C2257 C2253 1.495 . S
C2257 H2263 0.959 . S
C2257 H2264 0.961 . S
C2257 H2265 0.960 . S
C2258 C2256 1.381 . S
C2258 C2259 1.394 . S
C2258 H2266 0.930 . S
C2259 C2258 1.394 . S
C2259 C2260 1.383 . S
C2259 H2267 0.929 . S
C2260 C2259 1.383 . S
C2260 C2261 1.377 . S
C2261 H2245 0.930 . S
C2261 C2260 1.377 . S
C2261 C2262 1.379 . S
C2262 H2246 0.931 . S
C2262 C2256 1.383 . S
C2262 C2261 1.379 . S
H2263 C2257 0.959 . S
H2264 C2257 0.961 . S
H2265 C2257 0.960 . S
H2266 C2258 0.930 . S
H2267 C2259 0.929 . S
H2268 C2276 0.929 . S
H2269 C2278 0.930 . S
H2270 C2280 0.930 . S
H2271 C2283 0.929 . S
H2272 C2286 0.930 . S
H2273 C2288 0.960 . S
H2274 C2288 0.960 . S
H2275 C2288 0.960 . S
C2276 H2268 0.929 . S
C2276 C2277 1.377 . S
C2276 C2278 1.384 . S
C2277 C2276 1.377 . S
C2277 C2283 1.390 . S
C2278 H2269 0.930 . S
C2278 C2276 1.384 . S
C2278 C2279 1.372 . S
C2279 C2278 1.372 . S
C2279 C2280 1.400 . S
C2279 C2284 1.490 . S
C2280 H2270 0.930 . S
C2280 C2279 1.400 . S
C2280 C2283 1.386 . S
H2281 C2297 0.930 . S
H2282 C2298 0.931 . S
C2283 H2271 0.929 . S
C2283 C2277 1.390 . S
C2283 C2280 1.386 . S
C2284 C2279 1.490 . S
C2284 C2286 1.395 . S
C2284 C2287 1.403 . S
H2285 C2291 0.930 . S
C2286 H2272 0.930 . S
C2286 C2284 1.395 . S
C2286 C2289 1.403 . S
C2287 C2284 1.403 . S
C2287 C2288 1.524 . S
C2287 C2291 1.400 . S
C2288 H2273 0.960 . S
C2288 H2274 0.960 . S
C2288 H2275 0.960 . S
C2288 C2287 1.524 . S
C2289 C2286 1.403 . S
C2289 C2290 1.392 . S
C2289 C2293 1.495 . S
C2290 C2289 1.392 . S
C2290 C2291 1.385 . S
C2290 C2292 1.478 . S
C2291 H2285 0.930 . S
C2291 C2287 1.400 . S
C2291 C2290 1.385 . S
C2292 C2290 1.478 . S
C2292 C2294 1.381 . S
C2292 C2298 1.383 . S
C2293 C2289 1.495 . S
C2293 H2299 0.959 . S
C2293 H2300 0.961 . S
C2293 H2301 0.960 . S
C2294 C2292 1.381 . S
C2294 C2295 1.394 . S
C2294 H2302 0.930 . S
C2295 C2294 1.394 . S
C2295 C2296 1.383 . S
C2295 H2303 0.929 . S
C2296 C2295 1.383 . S
C2296 C2297 1.377 . S
C2297 H2281 0.930 . S
C2297 C2296 1.377 . S
C2297 C2298 1.379 . S
C2298 H2282 0.931 . S
C2298 C2292 1.383 . S
C2298 C2297 1.379 . S
H2299 C2293 0.959 . S
H2300 C2293 0.961 . S
H2301 C2293 0.960 . S
H2302 C2294 0.930 . S
H2303 C2295 0.929 . S
H2304 C2312 0.929 . S
H2305 C2314 0.930 . S
H2306 C2316 0.930 . S
H2307 C2319 0.929 . S
H2308 C2322 0.930 . S
H2309 C2324 0.960 . S
H2310 C2324 0.960 . S
H2311 C2324 0.960 . S
C2312 H2304 0.929 . S
C2312 C2313 1.377 . S
C2312 C2314 1.384 . S
C2313 C2312 1.377 . S
C2313 C2319 1.390 . S
C2314 H2305 0.930 . S
C2314 C2312 1.384 . S
C2314 C2315 1.372 . S
C2315 C2314 1.372 . S
C2315 C2316 1.400 . S
C2315 C2320 1.490 . S
C2316 H2306 0.930 . S
C2316 C2315 1.400 . S
C2316 C2319 1.386 . S
H2317 C2333 0.930 . S
H2318 C2334 0.931 . S
C2319 H2307 0.929 . S
C2319 C2313 1.390 . S
C2319 C2316 1.386 . S
C2320 C2315 1.490 . S
C2320 C2322 1.395 . S
C2320 C2323 1.403 . S
H2321 C2327 0.930 . S
C2322 H2308 0.930 . S
C2322 C2320 1.395 . S
C2322 C2325 1.403 . S
C2323 C2320 1.403 . S
C2323 C2324 1.524 . S
C2323 C2327 1.400 . S
C2324 H2309 0.960 . S
C2324 H2310 0.960 . S
C2324 H2311 0.960 . S
C2324 C2323 1.524 . S
C2325 C2322 1.403 . S
C2325 C2326 1.392 . S
C2325 C2329 1.495 . S
C2326 C2325 1.392 . S
C2326 C2327 1.385 . S
C2326 C2328 1.478 . S
C2327 H2321 0.930 . S
C2327 C2323 1.400 . S
C2327 C2326 1.385 . S
C2328 C2326 1.478 . S
C2328 C2330 1.381 . S
C2328 C2334 1.383 . S
C2329 C2325 1.495 . S
C2329 H2335 0.959 . S
C2329 H2336 0.961 . S
C2329 H2337 0.960 . S
C2330 C2328 1.381 . S
C2330 C2331 1.394 . S
C2330 H2338 0.930 . S
C2331 C2330 1.394 . S
C2331 C2332 1.383 . S
C2331 H2339 0.929 . S
C2332 C2331 1.383 . S
C2332 C2333 1.377 . S
C2333 H2317 0.930 . S
C2333 C2332 1.377 . S
C2333 C2334 1.379 . S
C2334 H2318 0.931 . S
C2334 C2328 1.383 . S
C2334 C2333 1.379 . S
H2335 C2329 0.959 . S
H2336 C2329 0.961 . S
H2337 C2329 0.960 . S
H2338 C2330 0.930 . S
H2339 C2331 0.929 . S
H2340 C2348 0.929 . S
H2341 C2350 0.930 . S
H2342 C2352 0.930 . S
H2343 C2355 0.929 . S
H2344 C2358 0.930 . S
H2345 C2360 0.960 . S
H2346 C2360 0.960 . S
H2347 C2360 0.960 . S
C2348 H2340 0.929 . S
C2348 C2349 1.377 . S
C2348 C2350 1.384 . S
C2349 C2348 1.377 . S
C2349 C2355 1.390 . S
C2350 H2341 0.930 . S
C2350 C2348 1.384 . S
C2350 C2351 1.372 . S
C2351 C2350 1.372 . S
C2351 C2352 1.400 . S
C2351 C2356 1.490 . S
C2352 H2342 0.930 . S
C2352 C2351 1.400 . S
C2352 C2355 1.386 . S
H2353 C2369 0.930 . S
H2354 C2370 0.931 . S
C2355 H2343 0.929 . S
C2355 C2349 1.390 . S
C2355 C2352 1.386 . S
C2356 C2351 1.490 . S
C2356 C2358 1.395 . S
C2356 C2359 1.403 . S
H2357 C2363 0.930 . S
C2358 H2344 0.930 . S
C2358 C2356 1.395 . S
C2358 C2361 1.403 . S
C2359 C2356 1.403 . S
C2359 C2360 1.524 . S
C2359 C2363 1.400 . S
C2360 H2345 0.960 . S
C2360 H2346 0.960 . S
C2360 H2347 0.960 . S
C2360 C2359 1.524 . S
C2361 C2358 1.403 . S
C2361 C2362 1.392 . S
C2361 C2365 1.495 . S
C2362 C2361 1.392 . S
C2362 C2363 1.385 . S
C2362 C2364 1.478 . S
C2363 H2357 0.930 . S
C2363 C2359 1.400 . S
C2363 C2362 1.385 . S
C2364 C2362 1.478 . S
C2364 C2366 1.381 . S
C2364 C2370 1.383 . S
C2365 C2361 1.495 . S
C2365 H2371 0.959 . S
C2365 H2372 0.961 . S
C2365 H2373 0.960 . S
C2366 C2364 1.381 . S
C2366 C2367 1.394 . S
C2366 H2374 0.930 . S
C2367 C2366 1.394 . S
C2367 C2368 1.383 . S
C2367 H2375 0.929 . S
C2368 C2367 1.383 . S
C2368 C2369 1.377 . S
C2369 H2353 0.930 . S
C2369 C2368 1.377 . S
C2369 C2370 1.379 . S
C2370 H2354 0.931 . S
C2370 C2364 1.383 . S
C2370 C2369 1.379 . S
H2371 C2365 0.959 . S
H2372 C2365 0.961 . S
H2373 C2365 0.960 . S
H2374 C2366 0.930 . S
H2375 C2367 0.929 . S
H2376 C2384 0.929 . S
H2377 C2386 0.930 . S
H2378 C2388 0.930 . S
H2379 C2391 0.929 . S
H2380 C2394 0.930 . S
H2381 C2396 0.960 . S
H2382 C2396 0.960 . S
H2383 C2396 0.960 . S
C2384 H2376 0.929 . S
C2384 C2385 1.377 . S
C2384 C2386 1.384 . S
C2385 C2384 1.377 . S
C2385 C2391 1.390 . S
C2386 H2377 0.930 . S
C2386 C2384 1.384 . S
C2386 C2387 1.372 . S
C2387 C2386 1.372 . S
C2387 C2388 1.400 . S
C2387 C2392 1.490 . S
C2388 H2378 0.930 . S
C2388 C2387 1.400 . S
C2388 C2391 1.386 . S
H2389 C2405 0.930 . S
H2390 C2406 0.931 . S
C2391 H2379 0.929 . S
C2391 C2385 1.390 . S
C2391 C2388 1.386 . S
C2392 C2387 1.490 . S
C2392 C2394 1.395 . S
C2392 C2395 1.403 . S
H2393 C2399 0.930 . S
C2394 H2380 0.930 . S
C2394 C2392 1.395 . S
C2394 C2397 1.403 . S
C2395 C2392 1.403 . S
C2395 C2396 1.524 . S
C2395 C2399 1.400 . S
C2396 H2381 0.960 . S
C2396 H2382 0.960 . S
C2396 H2383 0.960 . S
C2396 C2395 1.524 . S
C2397 C2394 1.403 . S
C2397 C2398 1.392 . S
C2397 C2401 1.495 . S
C2398 C2397 1.392 . S
C2398 C2399 1.385 . S
C2398 C2400 1.478 . S
C2399 H2393 0.930 . S
C2399 C2395 1.400 . S
C2399 C2398 1.385 . S
C2400 C2398 1.478 . S
C2400 C2402 1.381 . S
C2400 C2406 1.383 . S
C2401 C2397 1.495 . S
C2401 H2407 0.959 . S
C2401 H2408 0.961 . S
C2401 H2409 0.960 . S
C2402 C2400 1.381 . S
C2402 C2403 1.394 . S
C2402 H2410 0.930 . S
C2403 C2402 1.394 . S
C2403 C2404 1.383 . S
C2403 H2411 0.929 . S
C2404 C2403 1.383 . S
C2404 C2405 1.377 . S
C2405 H2389 0.930 . S
C2405 C2404 1.377 . S
C2405 C2406 1.379 . S
C2406 H2390 0.931 . S
C2406 C2400 1.383 . S
C2406 C2405 1.379 . S
H2407 C2401 0.959 . S
H2408 C2401 0.961 . S
H2409 C2401 0.960 . S
H2410 C2402 0.930 . S
H2411 C2403 0.929 . S
H2412 C2420 0.929 . S
H2413 C2422 0.930 . S
H2414 C2424 0.916 1_655 S
H2415 C2427 0.925 1_655 S
H2416 C2430 0.930 . S
H2417 C2432 0.960 . S
H2418 C2432 0.960 . S
H2419 C2432 0.960 . S
C2420 H2412 0.929 . S
C2420 C2421 1.377 . S
C2420 C2422 1.384 . S
C2421 C2420 1.377 . S
C2421 C2427 1.441 . S
C2422 H2413 0.930 . S
C2422 C2420 1.384 . S
C2422 C2423 1.372 . S
C2423 C2422 1.372 . S
C2423 C2424 1.402 . S
C2423 C2428 1.490 . S
C2424 H2414 0.916 1_455 S
C2424 C2423 1.402 . S
C2424 C2427 1.357 . S
H2425 C2441 0.930 . S
H2426 C2442 0.931 1_655 S
C2427 H2415 0.925 1_455 S
C2427 C2421 1.441 . S
C2427 C2424 1.357 . S
C2428 C2423 1.490 . S
C2428 C2430 1.395 . S
C2428 C2431 1.403 1_455 S
H2429 C2435 0.930 . S
C2430 H2416 0.930 . S
C2430 C2428 1.395 . S
C2430 C2433 1.403 . S
C2431 C2428 1.403 1_655 S
C2431 C2432 1.524 . S
C2431 C2435 1.400 . S
C2432 H2417 0.960 . S
C2432 H2418 0.960 . S
C2432 H2419 0.960 . S
C2432 C2431 1.524 . S
C2433 C2430 1.403 . S
C2433 C2434 1.392 . S
C2433 C2437 1.495 . S
C2434 C2433 1.392 . S
C2434 C2435 1.385 1_455 S
C2434 C2436 1.478 . S
C2435 H2429 0.930 . S
C2435 C2431 1.400 . S
C2435 C2434 1.385 1_655 S
C2436 C2434 1.478 . S
C2436 C2438 1.381 . S
C2436 C2442 1.386 . S
C2437 C2433 1.495 . S
C2437 H2443 0.959 . S
C2437 H2444 0.961 . S
C2437 H2445 0.960 . S
C2438 C2436 1.381 . S
C2438 C2439 1.394 . S
C2438 H2446 0.930 . S
C2439 C2438 1.394 . S
C2439 C2440 1.383 . S
C2439 H2447 0.929 . S
C2440 C2439 1.383 . S
C2440 C2441 1.377 1_455 S
C2441 H2425 0.930 . S
C2441 C2440 1.377 1_655 S
C2441 C2442 1.376 1_655 S
C2442 H2426 0.931 1_455 S
C2442 C2436 1.386 . S
C2442 C2441 1.376 1_455 S
H2443 C2437 0.959 . S
H2444 C2437 0.961 . S
H2445 C2437 0.960 . S
H2446 C2438 0.930 . S
H2447 C2439 0.929 . S
H2448 C2456 0.929 . S
H2449 C2458 0.930 . S
H2450 C2460 0.930 . S
H2451 C2463 0.929 . S
H2452 C2466 0.930 . S
H2453 C2468 0.960 . S
H2454 C2468 0.960 . S
H2455 C2468 0.960 . S
C2456 H2448 0.929 . S
C2456 C2457 1.377 . S
C2456 C2458 1.384 . S
C2457 C2456 1.377 . S
C2457 C2463 1.390 . S
C2458 H2449 0.930 . S
C2458 C2456 1.384 . S
C2458 C2459 1.372 . S
C2459 C2458 1.372 . S
C2459 C2460 1.400 . S
C2459 C2464 1.490 . S
C2460 H2450 0.930 . S
C2460 C2459 1.400 . S
C2460 C2463 1.386 . S
H2461 C2477 0.930 . S
H2462 C2478 0.931 . S
C2463 H2451 0.929 . S
C2463 C2457 1.390 . S
C2463 C2460 1.386 . S
C2464 C2459 1.490 . S
C2464 C2466 1.395 . S
C2464 C2467 1.403 . S
H2465 C2471 0.930 . S
C2466 H2452 0.930 . S
C2466 C2464 1.395 . S
C2466 C2469 1.403 . S
C2467 C2464 1.403 . S
C2467 C2468 1.524 . S
C2467 C2471 1.400 . S
C2468 H2453 0.960 . S
C2468 H2454 0.960 . S
C2468 H2455 0.960 . S
C2468 C2467 1.524 . S
C2469 C2466 1.403 . S
C2469 C2470 1.392 . S
C2469 C2473 1.495 . S
C2470 C2469 1.392 . S
C2470 C2471 1.385 . S
C2470 C2472 1.478 . S
C2471 H2465 0.930 . S
C2471 C2467 1.400 . S
C2471 C2470 1.385 . S
C2472 C2470 1.478 . S
C2472 C2474 1.381 . S
C2472 C2478 1.383 . S
C2473 C2469 1.495 . S
C2473 H2479 0.959 . S
C2473 H2480 0.961 . S
C2473 H2481 0.960 . S
C2474 C2472 1.381 . S
C2474 C2475 1.394 . S
C2474 H2482 0.930 . S
C2475 C2474 1.394 . S
C2475 C2476 1.383 . S
C2475 H2483 0.929 . S
C2476 C2475 1.383 . S
C2476 C2477 1.377 . S
C2477 H2461 0.930 . S
C2477 C2476 1.377 . S
C2477 C2478 1.379 . S
C2478 H2462 0.931 . S
C2478 C2472 1.383 . S
C2478 C2477 1.379 . S
H2479 C2473 0.959 . S
H2480 C2473 0.961 . S
H2481 C2473 0.960 . S
H2482 C2474 0.930 . S
H2483 C2475 0.929 . S
H2484 C2492 0.929 . S
H2485 C2494 0.930 . S
H2486 C2496 0.930 . S
H2487 C2499 0.929 . S
H2488 C2502 0.930 . S
H2489 C2504 0.960 . S
H2490 C2504 0.960 . S
H2491 C2504 0.960 . S
C2492 H2484 0.929 . S
C2492 C2493 1.377 . S
C2492 C2494 1.384 . S
C2493 C2492 1.377 . S
C2493 C2499 1.390 1_565 S
C2494 H2485 0.930 . S
C2494 C2492 1.384 . S
C2494 C2495 1.372 . S
C2495 C2494 1.372 . S
C2495 C2496 1.400 1_565 S
C2495 C2500 1.490 . S
C2496 H2486 0.930 . S
C2496 C2495 1.400 1_545 S
C2496 C2499 1.386 . S
H2497 C2513 0.930 . S
H2498 C2514 0.931 . S
C2499 H2487 0.929 . S
C2499 C2493 1.390 1_545 S
C2499 C2496 1.386 . S
C2500 C2495 1.490 . S
C2500 C2502 1.395 . S
C2500 C2503 1.403 . S
H2501 C2507 0.930 . S
C2502 H2488 0.930 . S
C2502 C2500 1.395 . S
C2502 C2505 1.403 . S
C2503 C2500 1.403 . S
C2503 C2504 1.524 . S
C2503 C2507 1.400 . S
C2504 H2489 0.960 . S
C2504 H2490 0.960 . S
C2504 H2491 0.960 . S
C2504 C2503 1.524 . S
C2505 C2502 1.403 . S
C2505 C2506 1.392 . S
C2505 C2509 1.495 . S
C2506 C2505 1.392 . S
C2506 C2507 1.385 . S
C2506 C2508 1.478 . S
C2507 H2501 0.930 . S
C2507 C2503 1.400 . S
C2507 C2506 1.385 . S
C2508 C2506 1.478 . S
C2508 C2510 1.381 . S
C2508 C2514 1.383 1_565 S
C2509 C2505 1.495 . S
C2509 H2515 0.959 . S
C2509 H2516 0.961 1_565 S
C2509 H2517 0.960 . S
C2510 C2508 1.381 . S
C2510 C2511 1.394 . S
C2510 H2518 0.930 . S
C2511 C2510 1.394 . S
C2511 C2512 1.383 . S
C2511 H2519 0.929 . S
C2512 C2511 1.383 . S
C2512 C2513 1.377 1_565 S
C2513 H2497 0.930 . S
C2513 C2512 1.377 1_545 S
C2513 C2514 1.379 . S
C2514 H2498 0.931 . S
C2514 C2508 1.383 1_545 S
C2514 C2513 1.379 . S
H2515 C2509 0.959 . S
H2516 C2509 0.961 1_545 S
H2517 C2509 0.960 . S
H2518 C2510 0.930 . S
H2519 C2511 0.929 . S
H2520 C2528 0.929 . S
H2521 C2530 0.930 . S
H2522 C2532 0.930 . S
H2523 C2535 0.929 . S
H2524 C2538 0.925 . S
H2525 C2540 0.960 . S
H2526 C2540 0.960 . S
H2527 C2540 0.960 . S
C2528 H2520 0.929 . S
C2528 C2529 1.377 1_545 S
C2528 C2530 1.384 . S
C2529 C2528 1.377 1_565 S
C2529 C2535 1.390 . S
C2530 H2521 0.930 . S
C2530 C2528 1.384 . S
C2530 C2531 1.372 1_545 S
C2531 C2530 1.372 1_565 S
C2531 C2532 1.400 . S
C2531 C2536 1.490 . S
C2532 H2522 0.930 . S
C2532 C2531 1.400 . S
C2532 C2535 1.386 . S
H2533 C2549 0.930 . S
H2534 C2550 0.931 . S
C2535 H2523 0.929 . S
C2535 C2529 1.390 . S
C2535 C2532 1.386 . S
C2536 C2531 1.490 . S
C2536 C2538 1.388 1_565 S
C2536 C2539 1.403 . S
H2537 C2543 0.930 . S
C2538 H2524 0.925 . S
C2538 C2536 1.388 1_545 S
C2538 C2541 1.415 . S
C2539 C2536 1.403 . S
C2539 C2540 1.524 . S
C2539 C2543 1.400 . S
C2540 H2525 0.960 . S
C2540 H2526 0.960 . S
C2540 H2527 0.960 . S
C2540 C2539 1.524 . S
C2541 C2538 1.415 . S
C2541 C2542 1.392 1_545 S
C2541 C2545 1.495 . S
C2542 C2541 1.392 1_565 S
C2542 C2543 1.385 . S
C2542 C2544 1.478 . S
C2543 H2537 0.930 . S
C2543 C2539 1.400 . S
C2543 C2542 1.385 . S
C2544 C2542 1.478 . S
C2544 C2546 1.381 1_565 S
C2544 C2550 1.383 . S
C2545 C2541 1.495 . S
C2545 H2551 0.959 . S
C2545 H2552 0.953 1_545 S
C2545 H2553 0.960 . S
C2546 C2544 1.381 1_545 S
C2546 C2547 1.394 . S
C2546 H2554 0.930 . S
C2547 C2546 1.394 . S
C2547 C2548 1.390 . S
C2547 H2555 0.929 . S
C2548 C2547 1.390 . S
C2548 C2549 1.364 1_545 S
C2549 H2533 0.930 . S
C2549 C2548 1.364 1_565 S
C2549 C2550 1.379 . S
C2550 H2534 0.931 . S
C2550 C2544 1.383 . S
C2550 C2549 1.379 . S
H2551 C2545 0.959 . S
H2552 C2545 0.953 1_565 S
H2553 C2545 0.960 . S
H2554 C2546 0.930 . S
H2555 C2547 0.929 . S
H2556 C2564 0.929 . S
H2557 C2566 0.930 . S
H2558 C2568 0.930 . S
H2559 C2571 0.929 . S
H2560 C2574 0.930 . S
H2561 C2576 0.960 . S
H2562 C2576 0.960 . S
H2563 C2576 0.960 . S
C2564 H2556 0.929 . S
C2564 C2565 1.377 . S
C2564 C2566 1.384 . S
C2565 C2564 1.377 . S
C2565 C2571 1.390 1_455 S
C2566 H2557 0.930 . S
C2566 C2564 1.384 . S
C2566 C2567 1.372 . S
C2567 C2566 1.372 . S
C2567 C2568 1.400 1_455 S
C2567 C2572 1.490 . S
C2568 H2558 0.930 . S
C2568 C2567 1.400 1_655 S
C2568 C2571 1.386 . S
H2569 C2585 0.930 . S
H2570 C2586 0.931 . S
C2571 H2559 0.929 . S
C2571 C2565 1.390 1_655 S
C2571 C2568 1.386 . S
C2572 C2567 1.490 . S
C2572 C2574 1.395 . S
C2572 C2575 1.403 1_455 S
H2573 C2579 0.930 . S
C2574 H2560 0.930 . S
C2574 C2572 1.395 . S
C2574 C2577 1.403 . S
C2575 C2572 1.403 1_655 S
C2575 C2576 1.524 . S
C2575 C2579 1.400 . S
C2576 H2561 0.960 . S
C2576 H2562 0.960 . S
C2576 H2563 0.960 . S
C2576 C2575 1.524 . S
C2577 C2574 1.403 . S
C2577 C2578 1.392 . S
C2577 C2581 1.495 . S
C2578 C2577 1.392 . S
C2578 C2579 1.385 1_455 S
C2578 C2580 1.478 . S
C2579 H2573 0.930 . S
C2579 C2575 1.400 . S
C2579 C2578 1.385 1_655 S
C2580 C2578 1.478 . S
C2580 C2582 1.381 . S
C2580 C2586 1.383 1_455 S
C2581 C2577 1.495 . S
C2581 H2587 0.959 . S
C2581 H2588 0.961 . S
C2581 H2589 0.960 . S
C2582 C2580 1.381 . S
C2582 C2583 1.394 . S
C2582 H2590 0.930 . S
C2583 C2582 1.394 . S
C2583 C2584 1.417 . S
C2583 H2591 0.929 . S
C2584 C2583 1.417 . S
C2584 C2585 1.318 1_455 S
C2585 H2569 0.930 . S
C2585 C2584 1.318 1_655 S
C2585 C2586 1.379 . S
C2586 H2570 0.931 . S
C2586 C2580 1.383 1_655 S
C2586 C2585 1.379 . S
H2587 C2581 0.959 . S
H2588 C2581 0.961 . S
H2589 C2581 0.960 . S
H2590 C2582 0.930 . S
H2591 C2583 0.929 . S
H2592 C2600 0.929 . S
H2593 C2602 0.930 . S
H2594 C2604 0.930 . S
H2595 C2607 0.929 . S
H2596 C2610 0.930 . S
H2597 C2612 0.960 . S
H2598 C2612 0.960 . S
H2599 C2612 0.960 . S
C2600 H2592 0.929 . S
C2600 C2601 1.377 . S
C2600 C2602 1.384 . S
C2601 C2600 1.377 . S
C2601 C2607 1.390 . S
C2602 H2593 0.930 . S
C2602 C2600 1.384 . S
C2602 C2603 1.372 . S
C2603 C2602 1.372 . S
C2603 C2604 1.400 . S
C2603 C2608 1.490 . S
C2604 H2594 0.930 . S
C2604 C2603 1.400 . S
C2604 C2607 1.386 . S
H2605 C2621 0.930 . S
H2606 C2622 0.931 . S
C2607 H2595 0.929 . S
C2607 C2601 1.390 . S
C2607 C2604 1.386 . S
C2608 C2603 1.490 . S
C2608 C2610 1.395 . S
C2608 C2611 1.403 . S
H2609 C2615 0.930 . S
C2610 H2596 0.930 . S
C2610 C2608 1.395 . S
C2610 C2613 1.403 . S
C2611 C2608 1.403 . S
C2611 C2612 1.524 . S
C2611 C2615 1.400 . S
C2612 H2597 0.960 . S
C2612 H2598 0.960 . S
C2612 H2599 0.960 . S
C2612 C2611 1.524 . S
C2613 C2610 1.403 . S
C2613 C2614 1.392 . S
C2613 C2617 1.495 . S
C2614 C2613 1.392 . S
C2614 C2615 1.385 . S
C2614 C2616 1.478 . S
C2615 H2609 0.930 . S
C2615 C2611 1.400 . S
C2615 C2614 1.385 . S
C2616 C2614 1.478 . S
C2616 C2618 1.381 . S
C2616 C2622 1.383 . S
C2617 C2613 1.495 . S
C2617 H2623 0.959 . S
C2617 H2624 0.961 . S
C2617 H2625 0.960 . S
C2618 C2616 1.381 . S
C2618 C2619 1.394 . S
C2618 H2626 0.930 . S
C2619 C2618 1.394 . S
C2619 C2620 1.383 . S
C2619 H2627 0.929 . S
C2620 C2619 1.383 . S
C2620 C2621 1.377 . S
C2621 H2605 0.930 . S
C2621 C2620 1.377 . S
C2621 C2622 1.379 . S
C2622 H2606 0.931 . S
C2622 C2616 1.383 . S
C2622 C2621 1.379 . S
H2623 C2617 0.959 . S
H2624 C2617 0.961 . S
H2625 C2617 0.960 . S
H2626 C2618 0.930 . S
H2627 C2619 0.929 . S
H2628 C2636 0.929 . S
H2629 C2638 0.930 . S
H2630 C2640 0.930 . S
H2631 C2643 0.929 . S
H2632 C2646 0.930 . S
H2633 C2648 0.960 . S
H2634 C2648 0.960 . S
H2635 C2648 0.960 . S
C2636 H2628 0.929 . S
C2636 C2637 1.377 . S
C2636 C2638 1.384 . S
C2637 C2636 1.377 . S
C2637 C2643 1.390 . S
C2638 H2629 0.930 . S
C2638 C2636 1.384 . S
C2638 C2639 1.372 . S
C2639 C2638 1.372 . S
C2639 C2640 1.400 . S
C2639 C2644 1.490 . S
C2640 H2630 0.930 . S
C2640 C2639 1.400 . S
C2640 C2643 1.386 . S
H2641 C2657 0.930 . S
H2642 C2658 0.931 . S
C2643 H2631 0.929 . S
C2643 C2637 1.390 . S
C2643 C2640 1.386 . S
C2644 C2639 1.490 . S
C2644 C2646 1.395 . S
C2644 C2647 1.403 . S
H2645 C2651 0.930 . S
C2646 H2632 0.930 . S
C2646 C2644 1.395 . S
C2646 C2649 1.403 . S
C2647 C2644 1.403 . S
C2647 C2648 1.524 . S
C2647 C2651 1.400 . S
C2648 H2633 0.960 . S
C2648 H2634 0.960 . S
C2648 H2635 0.960 . S
C2648 C2647 1.524 . S
C2649 C2646 1.403 . S
C2649 C2650 1.392 . S
C2649 C2653 1.495 . S
C2650 C2649 1.392 . S
C2650 C2651 1.385 . S
C2650 C2652 1.478 . S
C2651 H2645 0.930 . S
C2651 C2647 1.400 . S
C2651 C2650 1.385 . S
C2652 C2650 1.478 . S
C2652 C2654 1.381 . S
C2652 C2658 1.383 . S
C2653 C2649 1.495 . S
C2653 H2659 0.959 . S
C2653 H2660 0.961 . S
C2653 H2661 0.960 . S
C2654 C2652 1.381 . S
C2654 C2655 1.394 . S
C2654 H2662 0.930 . S
C2655 C2654 1.394 . S
C2655 C2656 1.383 . S
C2655 H2663 0.929 . S
C2656 C2655 1.383 . S
C2656 C2657 1.377 . S
C2657 H2641 0.930 . S
C2657 C2656 1.377 . S
C2657 C2658 1.379 . S
C2658 H2642 0.931 . S
C2658 C2652 1.383 . S
C2658 C2657 1.379 . S
H2659 C2653 0.959 . S
H2660 C2653 0.961 . S
H2661 C2653 0.960 . S
H2662 C2654 0.930 . S
H2663 C2655 0.929 . S
H2664 C2672 0.929 . S
H2665 C2674 0.930 . S
H2666 C2676 0.930 . S
H2667 C2679 0.929 . S
H2668 C2682 0.930 . S
H2669 C2684 0.960 . S
H2670 C2684 0.960 . S
H2671 C2684 0.960 . S
C2672 H2664 0.929 . S
C2672 C2673 1.377 . S
C2672 C2674 1.384 . S
C2673 C2672 1.377 . S
C2673 C2679 1.390 . S
C2674 H2665 0.930 . S
C2674 C2672 1.384 . S
C2674 C2675 1.372 . S
C2675 C2674 1.372 . S
C2675 C2676 1.400 . S
C2675 C2680 1.490 . S
C2676 H2666 0.930 . S
C2676 C2675 1.400 . S
C2676 C2679 1.386 . S
H2677 C2693 0.930 . S
H2678 C2694 0.931 . S
C2679 H2667 0.929 . S
C2679 C2673 1.390 . S
C2679 C2676 1.386 . S
C2680 C2675 1.490 . S
C2680 C2682 1.395 . S
C2680 C2683 1.403 . S
H2681 C2687 0.930 . S
C2682 H2668 0.930 . S
C2682 C2680 1.395 . S
C2682 C2685 1.403 . S
C2683 C2680 1.403 . S
C2683 C2684 1.524 . S
C2683 C2687 1.400 . S
C2684 H2669 0.960 . S
C2684 H2670 0.960 . S
C2684 H2671 0.960 . S
C2684 C2683 1.524 . S
C2685 C2682 1.403 . S
C2685 C2686 1.392 . S
C2685 C2689 1.495 . S
C2686 C2685 1.392 . S
C2686 C2687 1.385 . S
C2686 C2688 1.478 . S
C2687 H2681 0.930 . S
C2687 C2683 1.400 . S
C2687 C2686 1.385 . S
C2688 C2686 1.478 . S
C2688 C2690 1.381 . S
C2688 C2694 1.383 . S
C2689 C2685 1.495 . S
C2689 H2695 0.959 . S
C2689 H2696 0.961 . S
C2689 H2697 0.960 . S
C2690 C2688 1.381 . S
C2690 C2691 1.394 . S
C2690 H2698 0.930 . S
C2691 C2690 1.394 . S
C2691 C2692 1.383 . S
C2691 H2699 0.929 . S
C2692 C2691 1.383 . S
C2692 C2693 1.377 . S
C2693 H2677 0.930 . S
C2693 C2692 1.377 . S
C2693 C2694 1.379 . S
C2694 H2678 0.931 . S
C2694 C2688 1.383 . S
C2694 C2693 1.379 . S
H2695 C2689 0.959 . S
H2696 C2689 0.961 . S
H2697 C2689 0.960 . S
H2698 C2690 0.930 . S
H2699 C2691 0.929 . S
H2700 C2708 0.929 . S
H2701 C2710 0.930 . S
H2702 C2712 0.930 . S
H2703 C2715 0.929 . S
H2704 C2718 0.930 . S
H2705 C2720 0.960 . S
H2706 C2720 0.960 . S
H2707 C2720 0.960 . S
C2708 H2700 0.929 . S
C2708 C2709 1.377 . S
C2708 C2710 1.384 . S
C2709 C2708 1.377 . S
C2709 C2715 1.390 . S
C2710 H2701 0.930 . S
C2710 C2708 1.384 . S
C2710 C2711 1.372 . S
C2711 C2710 1.372 . S
C2711 C2712 1.400 . S
C2711 C2716 1.490 . S
C2712 H2702 0.930 . S
C2712 C2711 1.400 . S
C2712 C2715 1.386 . S
H2713 C2729 0.930 . S
H2714 C2730 0.931 . S
C2715 H2703 0.929 . S
C2715 C2709 1.390 . S
C2715 C2712 1.386 . S
C2716 C2711 1.490 . S
C2716 C2718 1.395 . S
C2716 C2719 1.403 . S
H2717 C2723 0.930 . S
C2718 H2704 0.930 . S
C2718 C2716 1.395 . S
C2718 C2721 1.403 . S
C2719 C2716 1.403 . S
C2719 C2720 1.524 . S
C2719 C2723 1.400 . S
C2720 H2705 0.960 . S
C2720 H2706 0.960 . S
C2720 H2707 0.960 . S
C2720 C2719 1.524 . S
C2721 C2718 1.403 . S
C2721 C2722 1.392 . S
C2721 C2725 1.495 . S
C2722 C2721 1.392 . S
C2722 C2723 1.385 . S
C2722 C2724 1.478 . S
C2723 H2717 0.930 . S
C2723 C2719 1.400 . S
C2723 C2722 1.385 . S
C2724 C2722 1.478 . S
C2724 C2726 1.381 . S
C2724 C2730 1.383 . S
C2725 C2721 1.495 . S
C2725 H2731 0.959 . S
C2725 H2732 0.961 . S
C2725 H2733 0.960 . S
C2726 C2724 1.381 . S
C2726 C2727 1.394 . S
C2726 H2734 0.930 . S
C2727 C2726 1.394 . S
C2727 C2728 1.383 . S
C2727 H2735 0.929 . S
C2728 C2727 1.383 . S
C2728 C2729 1.377 . S
C2729 H2713 0.930 . S
C2729 C2728 1.377 . S
C2729 C2730 1.379 . S
C2730 H2714 0.931 . S
C2730 C2724 1.383 . S
C2730 C2729 1.379 . S
H2731 C2725 0.959 . S
H2732 C2725 0.961 . S
H2733 C2725 0.960 . S
H2734 C2726 0.930 . S
H2735 C2727 0.929 . S
H2736 C2744 0.929 . S
H2737 C2746 0.930 . S
H2738 C2748 0.879 1_565 S
H2739 C2751 0.929 1_565 S
H2740 C2754 0.930 . S
H2741 C2756 0.960 . S
H2742 C2756 0.960 . S
H2743 C2756 0.960 . S
C2744 H2736 0.929 . S
C2744 C2745 1.377 . S
C2744 C2746 1.384 . S
C2745 C2744 1.377 . S
C2745 C2751 1.390 . S
C2746 H2737 0.930 . S
C2746 C2744 1.384 . S
C2746 C2747 1.372 . S
C2747 C2746 1.372 . S
C2747 C2748 1.424 . S
C2747 C2752 1.490 . S
C2748 H2738 0.879 1_545 S
C2748 C2747 1.424 . S
C2748 C2751 1.414 . S
H2749 C2765 0.930 . S
H2750 C2766 0.931 . S
C2751 H2739 0.929 1_545 S
C2751 C2745 1.390 . S
C2751 C2748 1.414 . S
C2752 C2747 1.490 . S
C2752 C2754 1.395 . S
C2752 C2755 1.403 . S
H2753 C2759 0.930 . S
C2754 H2740 0.930 . S
C2754 C2752 1.395 . S
C2754 C2757 1.403 . S
C2755 C2752 1.403 . S
C2755 C2756 1.524 . S
C2755 C2759 1.400 . S
C2756 H2741 0.960 . S
C2756 H2742 0.960 . S
C2756 H2743 0.960 . S
C2756 C2755 1.524 . S
C2757 C2754 1.403 . S
C2757 C2758 1.392 . S
C2757 C2761 1.495 1_545 S
C2758 C2757 1.392 . S
C2758 C2759 1.385 . S
C2758 C2760 1.478 . S
C2759 H2753 0.930 . S
C2759 C2755 1.400 . S
C2759 C2758 1.385 . S
C2760 C2758 1.478 . S
C2760 C2762 1.381 . S
C2760 C2766 1.383 1_545 S
C2761 C2757 1.495 1_565 S
C2761 H2767 0.959 . S
C2761 H2768 0.961 . S
C2761 H2769 0.960 1_565 S
C2762 C2760 1.381 . S
C2762 C2763 1.394 . S
C2762 H2770 0.930 . S
C2763 C2762 1.394 . S
C2763 C2764 1.383 . S
C2763 H2771 0.929 . S
C2764 C2763 1.383 . S
C2764 C2765 1.377 1_545 S
C2765 H2749 0.930 . S
C2765 C2764 1.377 1_565 S
C2765 C2766 1.379 . S
C2766 H2750 0.931 . S
C2766 C2760 1.383 1_565 S
C2766 C2765 1.379 . S
H2767 C2761 0.959 . S
H2768 C2761 0.961 . S
H2769 C2761 0.960 1_545 S
H2770 C2762 0.930 . S
H2771 C2763 0.929 . S
H2772 C2780 0.929 . S
H2773 C2782 0.930 . S
H2774 C2784 0.930 1_455 S
H2775 C2787 0.929 1_455 S
H2776 C2790 0.930 1_455 S
H2777 C2792 0.960 . S
H2778 C2792 0.960 . S
H2779 C2792 0.960 . S
C2780 H2772 0.929 . S
C2780 C2781 1.377 . S
C2780 C2782 1.384 . S
C2781 C2780 1.377 . S
C2781 C2787 1.390 . S
C2782 H2773 0.930 . S
C2782 C2780 1.384 . S
C2782 C2783 1.372 . S
C2783 C2782 1.372 . S
C2783 C2784 1.400 . S
C2783 C2788 1.490 . S
C2784 H2774 0.930 1_655 S
C2784 C2783 1.400 . S
C2784 C2787 1.386 . S
H2785 C2801 0.930 . S
H2786 C2802 0.931 . S
C2787 H2775 0.929 1_655 S
C2787 C2781 1.390 . S
C2787 C2784 1.386 . S
C2788 C2783 1.490 . S
C2788 C2790 1.395 . S
C2788 C2791 1.403 . S
H2789 C2795 0.930 . S
C2790 H2776 0.930 1_655 S
C2790 C2788 1.395 . S
C2790 C2793 1.408 1_655 S
C2791 C2788 1.403 . S
C2791 C2792 1.524 . S
C2791 C2795 1.400 . S
C2792 H2777 0.960 . S
C2792 H2778 0.960 . S
C2792 H2779 0.960 . S
C2792 C2791 1.524 . S
C2793 C2790 1.408 1_455 S
C2793 C2794 1.383 1_455 S
C2793 C2797 1.501 . S
C2794 C2793 1.383 1_655 S
C2794 C2795 1.385 . S
C2794 C2796 1.478 . S
C2795 H2789 0.930 . S
C2795 C2791 1.400 . S
C2795 C2794 1.385 . S
C2796 C2794 1.478 . S
C2796 C2798 1.381 . S
C2796 C2802 1.383 1_655 S
C2797 C2793 1.501 . S
C2797 H2803 0.959 . S
C2797 H2804 0.961 . S
C2797 H2805 1.025 . S
C2798 C2796 1.381 . S
C2798 C2799 1.394 . S
C2798 H2806 0.930 . S
C2799 C2798 1.394 . S
C2799 C2800 1.383 . S
C2799 H2807 0.929 . S
C2800 C2799 1.383 . S
C2800 C2801 1.377 1_655 S
C2801 H2785 0.930 . S
C2801 C2800 1.377 1_455 S
C2801 C2802 1.379 . S
C2802 H2786 0.931 . S
C2802 C2796 1.383 1_455 S
C2802 C2801 1.379 . S
H2803 C2797 0.959 . S
H2804 C2797 0.961 . S
H2805 C2797 1.025 . S
H2806 C2798 0.930 . S
H2807 C2799 0.929 . S
H2808 C2816 0.929 . S
H2809 C2818 0.930 . S
H2810 C2820 0.930 . S
H2811 C2823 0.929 . S
H2812 C2826 0.930 . S
H2813 C2828 0.960 . S
H2814 C2828 0.960 . S
H2815 C2828 0.960 . S
C2816 H2808 0.929 . S
C2816 C2817 1.377 . S
C2816 C2818 1.384 . S
C2817 C2816 1.377 . S
C2817 C2823 1.390 . S
C2818 H2809 0.930 . S
C2818 C2816 1.384 . S
C2818 C2819 1.372 . S
C2819 C2818 1.372 . S
C2819 C2820 1.400 . S
C2819 C2824 1.490 . S
C2820 H2810 0.930 . S
C2820 C2819 1.400 . S
C2820 C2823 1.386 . S
H2821 C2837 0.930 . S
H2822 C2838 0.931 . S
C2823 H2811 0.929 . S
C2823 C2817 1.390 . S
C2823 C2820 1.386 . S
C2824 C2819 1.490 . S
C2824 C2826 1.395 . S
C2824 C2827 1.403 . S
H2825 C2831 0.930 . S
C2826 H2812 0.930 . S
C2826 C2824 1.395 . S
C2826 C2829 1.403 . S
C2827 C2824 1.403 . S
C2827 C2828 1.524 . S
C2827 C2831 1.400 . S
C2828 H2813 0.960 . S
C2828 H2814 0.960 . S
C2828 H2815 0.960 . S
C2828 C2827 1.524 . S
C2829 C2826 1.403 . S
C2829 C2830 1.392 . S
C2829 C2833 1.495 . S
C2830 C2829 1.392 . S
C2830 C2831 1.385 . S
C2830 C2832 1.478 . S
C2831 H2825 0.930 . S
C2831 C2827 1.400 . S
C2831 C2830 1.385 . S
C2832 C2830 1.478 . S
C2832 C2834 1.381 . S
C2832 C2838 1.383 . S
C2833 C2829 1.495 . S
C2833 H2839 0.959 . S
C2833 H2840 0.961 . S
C2833 H2841 0.960 . S
C2834 C2832 1.381 . S
C2834 C2835 1.394 . S
C2834 H2842 0.930 . S
C2835 C2834 1.394 . S
C2835 C2836 1.383 . S
C2835 H2843 0.929 . S
C2836 C2835 1.383 . S
C2836 C2837 1.377 . S
C2837 H2821 0.930 . S
C2837 C2836 1.377 . S
C2837 C2838 1.379 . S
C2838 H2822 0.931 . S
C2838 C2832 1.383 . S
C2838 C2837 1.379 . S
H2839 C2833 0.959 . S
H2840 C2833 0.961 . S
H2841 C2833 0.960 . S
H2842 C2834 0.930 . S
H2843 C2835 0.929 . S
H2844 C2852 0.929 . S
H2845 C2854 0.930 . S
H2846 C2856 0.930 . S
H2847 C2859 0.929 . S
H2848 C2862 0.930 . S
H2849 C2864 0.960 . S
H2850 C2864 0.960 . S
H2851 C2864 0.960 . S
C2852 H2844 0.929 . S
C2852 C2853 1.377 . S
C2852 C2854 1.384 . S
C2853 C2852 1.377 . S
C2853 C2859 1.390 . S
C2854 H2845 0.930 . S
C2854 C2852 1.384 . S
C2854 C2855 1.372 . S
C2855 C2854 1.372 . S
C2855 C2856 1.400 . S
C2855 C2860 1.490 . S
C2856 H2846 0.930 . S
C2856 C2855 1.400 . S
C2856 C2859 1.386 . S
H2857 C2873 0.930 . S
H2858 C2874 0.931 . S
C2859 H2847 0.929 . S
C2859 C2853 1.390 . S
C2859 C2856 1.386 . S
C2860 C2855 1.490 . S
C2860 C2862 1.395 . S
C2860 C2863 1.403 . S
H2861 C2867 0.930 . S
C2862 H2848 0.930 . S
C2862 C2860 1.395 . S
C2862 C2865 1.403 . S
C2863 C2860 1.403 . S
C2863 C2864 1.524 . S
C2863 C2867 1.400 . S
C2864 H2849 0.960 . S
C2864 H2850 0.960 . S
C2864 H2851 0.960 . S
C2864 C2863 1.524 . S
C2865 C2862 1.403 . S
C2865 C2866 1.392 . S
C2865 C2869 1.495 . S
C2866 C2865 1.392 . S
C2866 C2867 1.385 . S
C2866 C2868 1.478 . S
C2867 H2861 0.930 . S
C2867 C2863 1.400 . S
C2867 C2866 1.385 . S
C2868 C2866 1.478 . S
C2868 C2870 1.381 . S
C2868 C2874 1.383 . S
C2869 C2865 1.495 . S
C2869 H2875 0.959 . S
C2869 H2876 0.961 . S
C2869 H2877 0.960 . S
C2870 C2868 1.381 . S
C2870 C2871 1.394 . S
C2870 H2878 0.930 . S
C2871 C2870 1.394 . S
C2871 C2872 1.383 . S
C2871 H2879 0.929 . S
C2872 C2871 1.383 . S
C2872 C2873 1.377 . S
C2873 H2857 0.930 . S
C2873 C2872 1.377 . S
C2873 C2874 1.379 . S
C2874 H2858 0.931 . S
C2874 C2868 1.383 . S
C2874 C2873 1.379 . S
H2875 C2869 0.959 . S
H2876 C2869 0.961 . S
H2877 C2869 0.960 . S
H2878 C2870 0.930 . S
H2879 C2871 0.929 . S
H2880 C2888 0.929 . S
H2881 C2890 0.930 . S
H2882 C2892 0.930 . S
H2883 C2895 0.929 . S
H2884 C2898 0.930 . S
H2885 C2900 0.960 . S
H2886 C2900 0.960 . S
H2887 C2900 0.960 . S
C2888 H2880 0.929 . S
C2888 C2889 1.377 . S
C2888 C2890 1.384 . S
C2889 C2888 1.377 . S
C2889 C2895 1.390 . S
C2890 H2881 0.930 . S
C2890 C2888 1.384 . S
C2890 C2891 1.372 . S
C2891 C2890 1.372 . S
C2891 C2892 1.400 . S
C2891 C2896 1.490 . S
C2892 H2882 0.930 . S
C2892 C2891 1.400 . S
C2892 C2895 1.386 . S
H2893 C2909 0.930 . S
H2894 C2910 0.931 . S
C2895 H2883 0.929 . S
C2895 C2889 1.390 . S
C2895 C2892 1.386 . S
C2896 C2891 1.490 . S
C2896 C2898 1.395 . S
C2896 C2899 1.403 . S
H2897 C2903 0.930 . S
C2898 H2884 0.930 . S
C2898 C2896 1.395 . S
C2898 C2901 1.403 . S
C2899 C2896 1.403 . S
C2899 C2900 1.524 . S
C2899 C2903 1.400 . S
C2900 H2885 0.960 . S
C2900 H2886 0.960 . S
C2900 H2887 0.960 . S
C2900 C2899 1.524 . S
C2901 C2898 1.403 . S
C2901 C2902 1.392 . S
C2901 C2905 1.495 . S
C2902 C2901 1.392 . S
C2902 C2903 1.385 . S
C2902 C2904 1.478 . S
C2903 H2897 0.930 . S
C2903 C2899 1.400 . S
C2903 C2902 1.385 . S
C2904 C2902 1.478 . S
C2904 C2906 1.381 . S
C2904 C2910 1.383 . S
C2905 C2901 1.495 . S
C2905 H2911 0.959 . S
C2905 H2912 0.961 . S
C2905 H2913 0.960 . S
C2906 C2904 1.381 . S
C2906 C2907 1.394 . S
C2906 H2914 0.930 . S
C2907 C2906 1.394 . S
C2907 C2908 1.383 . S
C2907 H2915 0.929 . S
C2908 C2907 1.383 . S
C2908 C2909 1.377 . S
C2909 H2893 0.930 . S
C2909 C2908 1.377 . S
C2909 C2910 1.379 . S
C2910 H2894 0.931 . S
C2910 C2904 1.383 . S
C2910 C2909 1.379 . S
H2911 C2905 0.959 . S
H2912 C2905 0.961 . S
H2913 C2905 0.960 . S
H2914 C2906 0.930 . S
H2915 C2907 0.929 . S
H2916 C2924 0.929 . S
H2917 C2926 0.930 . S
H2918 C2928 0.930 . S
H2919 C2931 0.929 . S
H2920 C2934 0.930 . S
H2921 C2936 0.960 . S
H2922 C2936 0.960 . S
H2923 C2936 0.960 . S
C2924 H2916 0.929 . S
C2924 C2925 1.377 . S
C2924 C2926 1.384 . S
C2925 C2924 1.377 . S
C2925 C2931 1.390 . S
C2926 H2917 0.930 . S
C2926 C2924 1.384 . S
C2926 C2927 1.372 . S
C2927 C2926 1.372 . S
C2927 C2928 1.400 . S
C2927 C2932 1.490 . S
C2928 H2918 0.930 . S
C2928 C2927 1.400 . S
C2928 C2931 1.386 . S
H2929 C2945 0.930 . S
H2930 C2946 0.931 . S
C2931 H2919 0.929 . S
C2931 C2925 1.390 . S
C2931 C2928 1.386 . S
C2932 C2927 1.490 . S
C2932 C2934 1.395 . S
C2932 C2935 1.403 . S
H2933 C2939 0.930 . S
C2934 H2920 0.930 . S
C2934 C2932 1.395 . S
C2934 C2937 1.403 . S
C2935 C2932 1.403 . S
C2935 C2936 1.524 . S
C2935 C2939 1.400 . S
C2936 H2921 0.960 . S
C2936 H2922 0.960 . S
C2936 H2923 0.960 . S
C2936 C2935 1.524 . S
C2937 C2934 1.403 . S
C2937 C2938 1.392 . S
C2937 C2941 1.495 . S
C2938 C2937 1.392 . S
C2938 C2939 1.385 . S
C2938 C2940 1.478 . S
C2939 H2933 0.930 . S
C2939 C2935 1.400 . S
C2939 C2938 1.385 . S
C2940 C2938 1.478 . S
C2940 C2942 1.381 . S
C2940 C2946 1.383 . S
C2941 C2937 1.495 . S
C2941 H2947 0.959 . S
C2941 H2948 0.961 . S
C2941 H2949 0.960 . S
C2942 C2940 1.381 . S
C2942 C2943 1.394 . S
C2942 H2950 0.930 . S
C2943 C2942 1.394 . S
C2943 C2944 1.383 . S
C2943 H2951 0.929 . S
C2944 C2943 1.383 . S
C2944 C2945 1.377 . S
C2945 H2929 0.930 . S
C2945 C2944 1.377 . S
C2945 C2946 1.379 . S
C2946 H2930 0.931 . S
C2946 C2940 1.383 . S
C2946 C2945 1.379 . S
H2947 C2941 0.959 . S
H2948 C2941 0.961 . S
H2949 C2941 0.960 . S
H2950 C2942 0.930 . S
H2951 C2943 0.929 . S
H2952 C2960 0.929 . S
H2953 C2962 0.930 . S
H2954 C2964 0.930 . S
H2955 C2967 0.929 . S
H2956 C2970 0.930 . S
H2957 C2972 0.960 . S
H2958 C2972 0.960 . S
H2959 C2972 0.960 . S
C2960 H2952 0.929 . S
C2960 C2961 1.377 . S
C2960 C2962 1.384 . S
C2961 C2960 1.377 . S
C2961 C2967 1.390 . S
C2962 H2953 0.930 . S
C2962 C2960 1.384 . S
C2962 C2963 1.372 . S
C2963 C2962 1.372 . S
C2963 C2964 1.400 . S
C2963 C2968 1.490 . S
C2964 H2954 0.930 . S
C2964 C2963 1.400 . S
C2964 C2967 1.386 . S
H2965 C2981 0.930 . S
H2966 C2982 0.931 . S
C2967 H2955 0.929 . S
C2967 C2961 1.390 . S
C2967 C2964 1.386 . S
C2968 C2963 1.490 . S
C2968 C2970 1.395 . S
C2968 C2971 1.403 . S
H2969 C2975 0.930 . S
C2970 H2956 0.930 . S
C2970 C2968 1.395 . S
C2970 C2973 1.403 . S
C2971 C2968 1.403 . S
C2971 C2972 1.524 . S
C2971 C2975 1.400 . S
C2972 H2957 0.960 . S
C2972 H2958 0.960 . S
C2972 H2959 0.960 . S
C2972 C2971 1.524 . S
C2973 C2970 1.403 . S
C2973 C2974 1.392 . S
C2973 C2977 1.495 . S
C2974 C2973 1.392 . S
C2974 C2975 1.385 . S
C2974 C2976 1.478 . S
C2975 H2969 0.930 . S
C2975 C2971 1.400 . S
C2975 C2974 1.385 . S
C2976 C2974 1.478 . S
C2976 C2978 1.381 . S
C2976 C2982 1.383 . S
C2977 C2973 1.495 . S
C2977 H2983 0.959 . S
C2977 H2984 0.961 . S
C2977 H2985 0.960 . S
C2978 C2976 1.381 . S
C2978 C2979 1.394 . S
C2978 H2986 0.930 . S
C2979 C2978 1.394 . S
C2979 C2980 1.383 . S
C2979 H2987 0.929 . S
C2980 C2979 1.383 . S
C2980 C2981 1.377 . S
C2981 H2965 0.930 . S
C2981 C2980 1.377 . S
C2981 C2982 1.379 . S
C2982 H2966 0.931 . S
C2982 C2976 1.383 . S
C2982 C2981 1.379 . S
H2983 C2977 0.959 . S
H2984 C2977 0.961 . S
H2985 C2977 0.960 . S
H2986 C2978 0.930 . S
H2987 C2979 0.929 . S
H2988 C2996 0.929 . S
H2989 C2998 0.930 . S
H2990 C3000 0.930 . S
H2991 C3003 0.929 . S
H2992 C3006 0.930 . S
H2993 C3008 0.960 . S
H2994 C3008 0.960 . S
H2995 C3008 0.960 . S
C2996 H2988 0.929 . S
C2996 C2997 1.377 . S
C2996 C2998 1.384 . S
C2997 C2996 1.377 . S
C2997 C3003 1.390 . S
C2998 H2989 0.930 . S
C2998 C2996 1.384 . S
C2998 C2999 1.372 . S
C2999 C2998 1.372 . S
C2999 C3000 1.400 . S
C2999 C3004 1.490 . S
C3000 H2990 0.930 . S
C3000 C2999 1.400 . S
C3000 C3003 1.386 . S
H3001 C3017 0.930 . S
H3002 C3018 0.931 . S
C3003 H2991 0.929 . S
C3003 C2997 1.390 . S
C3003 C3000 1.386 . S
C3004 C2999 1.490 . S
C3004 C3006 1.395 . S
C3004 C3007 1.403 . S
H3005 C3011 0.930 . S
C3006 H2992 0.930 . S
C3006 C3004 1.395 . S
C3006 C3009 1.403 . S
C3007 C3004 1.403 . S
C3007 C3008 1.524 . S
C3007 C3011 1.400 . S
C3008 H2993 0.960 . S
C3008 H2994 0.960 . S
C3008 H2995 0.960 . S
C3008 C3007 1.524 . S
C3009 C3006 1.403 . S
C3009 C3010 1.392 . S
C3009 C3013 1.495 . S
C3010 C3009 1.392 . S
C3010 C3011 1.385 . S
C3010 C3012 1.478 . S
C3011 H3005 0.930 . S
C3011 C3007 1.400 . S
C3011 C3010 1.385 . S
C3012 C3010 1.478 . S
C3012 C3014 1.381 . S
C3012 C3018 1.383 . S
C3013 C3009 1.495 . S
C3013 H3019 0.959 . S
C3013 H3020 0.961 . S
C3013 H3021 0.960 . S
C3014 C3012 1.381 . S
C3014 C3015 1.394 . S
C3014 H3022 0.930 . S
C3015 C3014 1.394 . S
C3015 C3016 1.383 . S
C3015 H3023 0.929 . S
C3016 C3015 1.383 . S
C3016 C3017 1.377 . S
C3017 H3001 0.930 . S
C3017 C3016 1.377 . S
C3017 C3018 1.379 . S
C3018 H3002 0.931 . S
C3018 C3012 1.383 . S
C3018 C3017 1.379 . S
H3019 C3013 0.959 . S
H3020 C3013 0.961 . S
H3021 C3013 0.960 . S
H3022 C3014 0.930 . S
H3023 C3015 0.929 . S
H3024 C3032 0.929 . S
H3025 C3034 0.930 . S
H3026 C3036 0.930 . S
H3027 C3039 0.929 . S
H3028 C3042 0.930 . S
H3029 C3044 0.960 . S
H3030 C3044 0.960 . S
H3031 C3044 0.960 . S
C3032 H3024 0.929 . S
C3032 C3033 1.377 . S
C3032 C3034 1.384 . S
C3033 C3032 1.377 . S
C3033 C3039 1.390 . S
C3034 H3025 0.930 . S
C3034 C3032 1.384 . S
C3034 C3035 1.372 . S
C3035 C3034 1.372 . S
C3035 C3036 1.400 . S
C3035 C3040 1.490 . S
C3036 H3026 0.930 . S
C3036 C3035 1.400 . S
C3036 C3039 1.386 . S
H3037 C3053 0.930 . S
H3038 C3054 0.931 . S
C3039 H3027 0.929 . S
C3039 C3033 1.390 . S
C3039 C3036 1.386 . S
C3040 C3035 1.490 . S
C3040 C3042 1.395 . S
C3040 C3043 1.403 . S
H3041 C3047 0.930 . S
C3042 H3028 0.930 . S
C3042 C3040 1.395 . S
C3042 C3045 1.403 . S
C3043 C3040 1.403 . S
C3043 C3044 1.524 . S
C3043 C3047 1.400 . S
C3044 H3029 0.960 . S
C3044 H3030 0.960 . S
C3044 H3031 0.960 . S
C3044 C3043 1.524 . S
C3045 C3042 1.403 . S
C3045 C3046 1.392 . S
C3045 C3049 1.495 . S
C3046 C3045 1.392 . S
C3046 C3047 1.385 . S
C3046 C3048 1.478 . S
C3047 H3041 0.930 . S
C3047 C3043 1.400 . S
C3047 C3046 1.385 . S
C3048 C3046 1.478 . S
C3048 C3050 1.381 . S
C3048 C3054 1.383 . S
C3049 C3045 1.495 . S
C3049 H3055 0.959 . S
C3049 H3056 0.961 . S
C3049 H3057 0.960 . S
C3050 C3048 1.381 . S
C3050 C3051 1.394 . S
C3050 H3058 0.930 . S
C3051 C3050 1.394 . S
C3051 C3052 1.383 . S
C3051 H3059 0.929 . S
C3052 C3051 1.383 . S
C3052 C3053 1.377 . S
C3053 H3037 0.930 . S
C3053 C3052 1.377 . S
C3053 C3054 1.379 . S
C3054 H3038 0.931 . S
C3054 C3048 1.383 . S
C3054 C3053 1.379 . S
H3055 C3049 0.959 . S
H3056 C3049 0.961 . S
H3057 C3049 0.960 . S
H3058 C3050 0.930 . S
H3059 C3051 0.929 . S
H3060 C3068 0.929 . S
H3061 C3070 0.930 . S
H3062 C3072 0.951 . S
H3063 C3075 0.926 1_455 S
H3064 C3078 0.930 . S
H3065 C3080 0.960 . S
H3066 C3080 0.960 . S
H3067 C3080 0.960 . S
C3068 H3060 0.929 . S
C3068 C3069 1.377 . S
C3068 C3070 1.384 . S
C3069 C3068 1.377 . S
C3069 C3075 1.410 . S
C3070 H3061 0.930 . S
C3070 C3068 1.384 . S
C3070 C3071 1.372 . S
C3071 C3070 1.372 . S
C3071 C3072 1.397 1_655 S
C3071 C3076 1.490 . S
C3072 H3062 0.951 . S
C3072 C3071 1.397 1_455 S
C3072 C3075 1.354 1_455 S
H3073 C3089 0.930 . S
H3074 C3090 0.931 . S
C3075 H3063 0.926 1_655 S
C3075 C3069 1.410 . S
C3075 C3072 1.354 1_655 S
C3076 C3071 1.490 . S
C3076 C3078 1.395 . S
C3076 C3079 1.403 . S
H3077 C3083 0.930 . S
C3078 H3064 0.930 . S
C3078 C3076 1.395 . S
C3078 C3081 1.413 . S
C3079 C3076 1.403 . S
C3079 C3080 1.524 . S
C3079 C3083 1.400 . S
C3080 H3065 0.960 . S
C3080 H3066 0.960 . S
C3080 H3067 0.960 . S
C3080 C3079 1.524 . S
C3081 C3078 1.413 . S
C3081 C3082 1.394 . S
C3081 C3085 1.484 1_655 S
C3082 C3081 1.394 . S
C3082 C3083 1.385 . S
C3082 C3084 1.478 . S
C3083 H3077 0.930 . S
C3083 C3079 1.400 . S
C3083 C3082 1.385 . S
C3084 C3082 1.478 . S
C3084 C3086 1.381 . S
C3084 C3090 1.383 1_655 S
C3085 C3081 1.484 1_455 S
C3085 H3091 0.959 . S
C3085 H3092 0.961 . S
C3085 H3093 0.960 1_455 S
C3086 C3084 1.381 . S
C3086 C3087 1.394 . S
C3086 H3094 0.930 . S
C3087 C3086 1.394 . S
C3087 C3088 1.372 1_655 S
C3087 H3095 0.929 . S
C3088 C3087 1.372 1_455 S
C3088 C3089 1.380 . S
C3089 H3073 0.930 . S
C3089 C3088 1.380 . S
C3089 C3090 1.379 . S
C3090 H3074 0.931 . S
C3090 C3084 1.383 1_455 S
C3090 C3089 1.379 . S
H3091 C3085 0.959 . S
H3092 C3085 0.961 . S
H3093 C3085 0.960 1_655 S
H3094 C3086 0.930 . S
H3095 C3087 0.929 . S
H3096 C3104 0.929 . S
H3097 C3106 0.930 . S
H3098 C3108 0.930 . S
H3099 C3111 0.929 . S
H3100 C3114 0.930 . S
H3101 C3116 0.960 . S
H3102 C3116 0.960 . S
H3103 C3116 0.960 . S
C3104 H3096 0.929 . S
C3104 C3105 1.377 . S
C3104 C3106 1.384 . S
C3105 C3104 1.377 . S
C3105 C3111 1.390 . S
C3106 H3097 0.930 . S
C3106 C3104 1.384 . S
C3106 C3107 1.372 . S
C3107 C3106 1.372 . S
C3107 C3108 1.400 . S
C3107 C3112 1.490 . S
C3108 H3098 0.930 . S
C3108 C3107 1.400 . S
C3108 C3111 1.386 . S
H3109 C3125 0.930 . S
H3110 C3126 0.931 . S
C3111 H3099 0.929 . S
C3111 C3105 1.390 . S
C3111 C3108 1.386 . S
C3112 C3107 1.490 . S
C3112 C3114 1.395 . S
C3112 C3115 1.403 . S
H3113 C3119 0.930 . S
C3114 H3100 0.930 . S
C3114 C3112 1.395 . S
C3114 C3117 1.403 . S
C3115 C3112 1.403 . S
C3115 C3116 1.524 . S
C3115 C3119 1.400 . S
C3116 H3101 0.960 . S
C3116 H3102 0.960 . S
C3116 H3103 0.960 . S
C3116 C3115 1.524 . S
C3117 C3114 1.403 . S
C3117 C3118 1.392 . S
C3117 C3121 1.495 . S
C3118 C3117 1.392 . S
C3118 C3119 1.385 . S
C3118 C3120 1.478 . S
C3119 H3113 0.930 . S
C3119 C3115 1.400 . S
C3119 C3118 1.385 . S
C3120 C3118 1.478 . S
C3120 C3122 1.381 . S
C3120 C3126 1.383 . S
C3121 C3117 1.495 . S
C3121 H3127 0.959 . S
C3121 H3128 0.961 . S
C3121 H3129 0.960 . S
C3122 C3120 1.381 . S
C3122 C3123 1.394 . S
C3122 H3130 0.930 . S
C3123 C3122 1.394 . S
C3123 C3124 1.383 . S
C3123 H3131 0.929 . S
C3124 C3123 1.383 . S
C3124 C3125 1.377 . S
C3125 H3109 0.930 . S
C3125 C3124 1.377 . S
C3125 C3126 1.379 . S
C3126 H3110 0.931 . S
C3126 C3120 1.383 . S
C3126 C3125 1.379 . S
H3127 C3121 0.959 . S
H3128 C3121 0.961 . S
H3129 C3121 0.960 . S
H3130 C3122 0.930 . S
H3131 C3123 0.929 . S
H3132 C3140 0.929 . S
H3133 C3142 0.930 . S
H3134 C3144 0.930 . S
H3135 C3147 0.929 . S
H3136 C3150 0.930 . S
H3137 C3152 0.960 . S
H3138 C3152 0.960 . S
H3139 C3152 0.960 . S
C3140 H3132 0.929 . S
C3140 C3141 1.377 . S
C3140 C3142 1.384 . S
C3141 C3140 1.377 . S
C3141 C3147 1.390 . S
C3142 H3133 0.930 . S
C3142 C3140 1.384 . S
C3142 C3143 1.372 . S
C3143 C3142 1.372 . S
C3143 C3144 1.400 . S
C3143 C3148 1.490 . S
C3144 H3134 0.930 . S
C3144 C3143 1.400 . S
C3144 C3147 1.386 . S
H3145 C3161 0.926 . S
H3146 C3162 0.931 . S
C3147 H3135 0.929 . S
C3147 C3141 1.390 . S
C3147 C3144 1.386 . S
C3148 C3143 1.490 . S
C3148 C3150 1.395 . S
C3148 C3151 1.403 1_545 S
H3149 C3155 0.930 . S
C3150 H3136 0.930 . S
C3150 C3148 1.395 . S
C3150 C3153 1.403 . S
C3151 C3148 1.403 1_565 S
C3151 C3152 1.524 . S
C3151 C3155 1.400 . S
C3152 H3137 0.960 . S
C3152 H3138 0.960 . S
C3152 H3139 0.960 . S
C3152 C3151 1.524 . S
C3153 C3150 1.403 . S
C3153 C3154 1.392 . S
C3153 C3157 1.495 . S
C3154 C3153 1.392 . S
C3154 C3155 1.385 1_545 S
C3154 C3156 1.478 . S
C3155 H3149 0.930 . S
C3155 C3151 1.400 . S
C3155 C3154 1.385 1_565 S
C3156 C3154 1.478 . S
C3156 C3158 1.381 . S
C3156 C3162 1.383 . S
C3157 C3153 1.495 . S
C3157 H3163 0.959 . S
C3157 H3164 0.961 . S
C3157 H3165 0.960 . S
C3158 C3156 1.381 . S
C3158 C3159 1.394 . S
C3158 H3166 0.930 . S
C3159 C3158 1.394 . S
C3159 C3160 1.383 . S
C3159 H3167 0.929 . S
C3160 C3159 1.383 . S
C3160 C3161 1.377 . S
C3161 H3145 0.926 . S
C3161 C3160 1.377 . S
C3161 C3162 1.379 . S
C3162 H3146 0.931 . S
C3162 C3156 1.383 . S
C3162 C3161 1.379 . S
H3163 C3157 0.959 . S
H3164 C3157 0.961 . S
H3165 C3157 0.960 . S
H3166 C3158 0.930 . S
H3167 C3159 0.929 . S
C585 C8 1.575 . S
C604 C421 1.534 . S
C621 C22 1.557 . S
C640 C446 1.518 . S
C676 C457 1.506 . S
C657 C37 1.550 . S
C693 C36 1.576 . S
C712 C482 1.543 . S
C729 C9 1.550 . S
C748 C500 1.517 . S
C765 C23 1.557 . S
C784 C511 1.526 . S
C801 C50 1.559 . S
C820 C493 1.541 1_455 S
C856 C518 1.546 . S
C837 C64 1.541 . S
C892 C475 1.490 . S
C873 C79 1.511 . S
C909 C78 1.565 . S
C928 C464 1.499 1_545 S
C964 C428 1.531 . S
C945 C51 1.526 . S
C981 C65 1.540 . S
C1000 C439 1.539 . S
C1017 C92 1.561 . S
C1036 C529 1.537 . S
C1053 C106 1.565 . S
C1072 C554 1.527 . S
C1108 C565 1.520 . S
C1089 C121 1.559 . S
C1125 C120 1.551 . S
C1144 C266 1.556 . S
C1161 C93 1.554 . S
C1180 C284 1.559 . S
C1197 C107 1.560 . S
C1216 C295 1.512 . S
C1233 C134 1.538 . S
C1252 C277 1.535 . S
C1269 C148 1.537 . S
C1288 C302 1.509 . S
C1324 C259 1.545 . S
C1305 C163 1.542 . S
C1360 C572 1.550 . S
C1341 C162 1.548 . S
C1396 C536 1.546 . S
C1377 C135 1.543 . S
C1432 C547 1.521 . S
C1413 C149 1.543 . S
C1449 C176 1.549 . S
C1468 C313 1.547 . S
C1485 C190 1.554 . S
C1504 C338 1.559 . S
C1521 C205 1.553 . S
C1540 C349 1.551 . S
C1557 C204 1.558 . S
C1576 C374 1.561 . S
C1612 C392 1.553 . S
C1593 C177 1.556 . S
C1648 C403 1.551 . S
C1629 C191 1.562 . S
C1684 C385 1.550 . S
C1665 C218 1.547 . S
C1720 C410 1.550 . S
C1701 C232 1.547 . S
C1737 C247 1.544 . S
C1756 C367 1.547 . S
C1792 C356 1.542 . S
C1773 C246 1.540 . S
C1809 C219 1.542 . S
C1828 C320 1.546 . S
C1864 C331 1.536 . S
C1845 C233 1.542 . S
C1900 C268 1.426 . S
C1881 C6 1.480 . S
C1917 C20 1.476 . S
C1936 C286 1.448 . S
C1972 C296 1.429 . S
C1953 C35 1.476 . S
C2008 C314 1.461 . S
C1989 C34 1.480 . S
C2044 C340 1.457 . S
C2025 C7 1.484 . S
C2080 C350 1.468 . S
C2061 C21 1.479 . S
C2097 C48 1.499 . S
C2116 C358 1.443 . S
C2133 C62 1.489 . S
C2152 C322 1.466 . S
C2169 C77 1.495 . S
C2188 C332 1.430 . S
C2205 C76 1.497 . S
C2224 C278 1.443 . S
C2260 C304 1.471 . S
C2241 C49 1.492 . S
C2277 C63 1.488 . S
C2296 C260 1.440 . S
C2332 C376 1.427 . S
C2313 C90 1.480 . S
C2349 C104 1.483 . S
C2368 C394 1.431 . S
C2385 C119 1.486 . S
C2404 C404 1.453 . S
C2440 C422 1.446 . S
C2421 C118 1.468 . S
C2457 C91 1.480 . S
C2476 C448 1.431 . S
C2493 C105 1.473 . S
C2512 C458 1.429 . S
C2529 C132 1.492 . S
C2548 C466 1.434 1_545 S
C2565 C146 1.489 . S
C2584 C430 1.489 . S
C2620 C440 1.437 . S
C2601 C161 1.496 . S
C2637 C160 1.491 . S
C2656 C386 1.445 . S
C2673 C133 1.506 . S
C2692 C412 1.436 . S
C2728 C368 1.488 . S
C2709 C147 1.495 . S
C2764 C484 1.422 . S
C2745 C174 1.469 . S
C2781 C188 1.474 . S
C2800 C502 1.424 . S
C2817 C203 1.477 . S
C2836 C512 1.428 . S
C2872 C530 1.441 . S
C2853 C202 1.477 . S
C2908 C556 1.487 . S
C2889 C175 1.494 . S
C2925 C189 1.491 . S
C2944 C566 1.487 . S
C2961 C216 1.496 . S
C2980 C574 1.448 . S
C2997 C230 1.500 . S
C3016 C538 1.442 . S
C3052 C548 1.463 . S
C3033 C245 1.497 . S
C3088 C494 1.466 . S
C3069 C244 1.474 . S
C3124 C520 1.480 . S
C3105 C217 1.491 . S
C3141 C231 1.492 . S
C3160 C476 1.470 1_545 S
