# Generated by pormake.
# Topology nom, (4,4)-cn, num edge types: 1
# Building blocks:
#     Node 0, Type 0, BuildingBlock: NAWXER_clean_linker_0, # of connection points: 4
#     Node 1, Type 0, BuildingBlock: NAWXER_clean_linker_0, # of connection points: 4
#     Node 2, Type 0, BuildingBlock: NAWXER_clean_linker_0, # of connection points: 4
#     Node 3, Type 0, BuildingBlock: NAWXER_clean_linker_0, # of connection points: 4
#     Node 4, Type 0, BuildingBlock: NAWXER_clean_linker_0, # of connection points: 4
#     Node 5, Type 0, BuildingBlock: NAWXER_clean_linker_0, # of connection points: 4
#     Node 6, Type 1, BuildingBlock: QUQFOY_clean_sbu_1, # of connection points: 4
#     Node 7, Type 1, BuildingBlock: QUQFOY_clean_sbu_1, # of connection points: 4
#     Node 8, Type 1, BuildingBlock: QUQFOY_clean_sbu_1, # of connection points: 4
#     Node 9, Type 1, BuildingBlock: QUQFOY_clean_sbu_1, # of connection points: 4
#     Node 10, Type 1, BuildingBlock: QUQFOY_clean_sbu_1, # of connection points: 4
#     Node 11, Type 1, BuildingBlock: QUQFOY_clean_sbu_1, # of connection points: 4
#     Edge 12, Type (0, 1), BuildingBlock: OJICUG_clean_linker_0, # of connection points: 2
#     Edge 13, Type (0, 1), BuildingBlock: OJICUG_clean_linker_0, # of connection points: 2
#     Edge 14, Type (0, 1), BuildingBlock: OJICUG_clean_linker_0, # of connection points: 2
#     Edge 15, Type (0, 1), BuildingBlock: OJICUG_clean_linker_0, # of connection points: 2
#     Edge 16, Type (0, 1), BuildingBlock: OJICUG_clean_linker_0, # of connection points: 2
#     Edge 17, Type (0, 1), BuildingBlock: OJICUG_clean_linker_0, # of connection points: 2
#     Edge 18, Type (0, 1), BuildingBlock: OJICUG_clean_linker_0, # of connection points: 2
#     Edge 19, Type (0, 1), BuildingBlock: OJICUG_clean_linker_0, # of connection points: 2
#     Edge 20, Type (0, 1), BuildingBlock: OJICUG_clean_linker_0, # of connection points: 2
#     Edge 21, Type (0, 1), BuildingBlock: OJICUG_clean_linker_0, # of connection points: 2
#     Edge 22, Type (0, 1), BuildingBlock: OJICUG_clean_linker_0, # of connection points: 2
#     Edge 23, Type (0, 1), BuildingBlock: OJICUG_clean_linker_0, # of connection points: 2
#     Edge 24, Type (0, 1), BuildingBlock: OJICUG_clean_linker_0, # of connection points: 2
#     Edge 25, Type (0, 1), BuildingBlock: OJICUG_clean_linker_0, # of connection points: 2
#     Edge 26, Type (0, 1), BuildingBlock: OJICUG_clean_linker_0, # of connection points: 2
#     Edge 27, Type (0, 1), BuildingBlock: OJICUG_clean_linker_0, # of connection points: 2
#     Edge 28, Type (0, 1), BuildingBlock: OJICUG_clean_linker_0, # of connection points: 2
#     Edge 29, Type (0, 1), BuildingBlock: OJICUG_clean_linker_0, # of connection points: 2
#     Edge 30, Type (0, 1), BuildingBlock: OJICUG_clean_linker_0, # of connection points: 2
#     Edge 31, Type (0, 1), BuildingBlock: OJICUG_clean_linker_0, # of connection points: 2
#     Edge 32, Type (0, 1), BuildingBlock: OJICUG_clean_linker_0, # of connection points: 2
#     Edge 33, Type (0, 1), BuildingBlock: OJICUG_clean_linker_0, # of connection points: 2
#     Edge 34, Type (0, 1), BuildingBlock: OJICUG_clean_linker_0, # of connection points: 2
#     Edge 35, Type (0, 1), BuildingBlock: OJICUG_clean_linker_0, # of connection points: 2
# Relax obj value: 0.026
# Max RMSD: 0.136
# Mean RMSD: 0.125
data_MOF--net-nom--node1-QUQFOY_clean_sbu_1--node2-NAWXER_clean_linker_0--edge1-OJICUG_clean_linker_0
_symmetry_space_group_name_H-M    P1
_symmetry_Int_Tables_number       1
_symmetry_cell_setting            triclinic
loop_
_symmetry_equiv_pos_as_xyz
'x, y, z'
_cell_length_a     42.763503
_cell_length_b     42.774912
_cell_length_c     42.632285
_cell_angle_alpha  89.902767
_cell_angle_beta   90.123904
_cell_angle_gamma 120.0168
loop_
_atom_site_label
_atom_site_type_symbol
_atom_site_fract_x
_atom_site_fract_y
_atom_site_fract_z
_atom_type_partial_charge
C0 C 0.89298 0.49194 0.34871 0.0
C1 C 0.87551 0.46414 0.37085 0.0
C2 C 0.92678 0.50068 0.33707 0.0
C3 C 0.94386 0.48166 0.34708 0.0
C4 C 0.89268 0.44519 0.38111 0.0
C5 C 0.92687 0.4542 0.36954 0.0
C6 C 0.97984 0.49165 0.33438 0.0
C7 C 0.89967 0.43359 0.25834 0.0
C8 C 0.90253 0.45475 0.23204 0.0
C9 C 0.92704 0.44646 0.2809 0.0
C10 C 0.95763 0.48098 0.27791 0.0
C11 C 0.93346 0.48906 0.22886 0.0
C12 C 0.96076 0.50197 0.2515 0.0
C13 C 0.98677 0.49503 0.3018 0.0
C14 C 0.1486 0.56147 0.29209 0.0
C15 C 0.15722 0.59384 0.27635 0.0
C16 C 0.11367 0.53883 0.30361 0.0
C17 C 0.08665 0.54786 0.29913 0.0
C18 C 0.12964 0.60233 0.27185 0.0
C19 C 0.09474 0.57936 0.28269 0.0
C20 C 0.05 0.52563 0.3121 0.0
C21 C 0.1242 0.5849 0.39305 0.0
C22 C 0.12481 0.56189 0.41634 0.0
C23 C 0.09792 0.57137 0.36952 0.0
C24 C 0.07203 0.53445 0.36851 0.0
C25 C 0.09878 0.52493 0.41528 0.0
C26 C 0.07253 0.51141 0.39168 0.0
C27 C 0.04305 0.5201 0.34461 0.0
H28 H 0.88031 0.50678 0.3401 0.0
H29 H 0.93968 0.52246 0.32022 0.0
H30 H 0.8799 0.42381 0.39831 0.0
H31 H 0.93982 0.43949 0.37778 0.0
H32 H 0.87618 0.40711 0.26158 0.0
H33 H 0.92436 0.42927 0.30059 0.0
H34 H 0.9369 0.50577 0.20858 0.0
H35 H 0.98423 0.52853 0.24849 0.0
H36 H 0.16876 0.55357 0.29562 0.0
H37 H 0.10778 0.51438 0.31606 0.0
H38 H 0.13504 0.62731 0.26074 0.0
H39 H 0.07426 0.5869 0.27921 0.0
H40 H 0.14392 0.61346 0.3931 0.0
H41 H 0.09746 0.58992 0.35247 0.0
H42 H 0.09808 0.50659 0.43318 0.0
H43 H 0.05246 0.48293 0.3916 0.0
N44 N 0.00816 0.50359 0.35459 0.0
N45 N 0.02163 0.51261 0.29192 0.0
C46 C 0.39514 0.88748 0.51539 0.0
C47 C 0.40656 0.87199 0.53859 0.0
C48 C 0.41882 0.92173 0.50354 0.0
C49 C 0.45456 0.94121 0.51442 0.0
C50 C 0.4423 0.89159 0.54969 0.0
C51 C 0.46603 0.92615 0.53791 0.0
C52 C 0.47918 0.97774 0.50186 0.0
C53 C 0.4638 0.9001 0.42529 0.0
C54 C 0.44574 0.90236 0.39855 0.0
C55 C 0.47607 0.92686 0.44833 0.0
C56 C 0.47016 0.95622 0.44529 0.0
C57 C 0.44015 0.93196 0.39543 0.0
C58 C 0.4524 0.95869 0.41851 0.0
C59 C 0.48355 0.98502 0.46935 0.0
C60 C 0.57701 0.14894 0.4656 0.0
C61 C 0.55663 0.1558 0.44352 0.0
C62 C 0.56465 0.11388 0.47678 0.0
C63 C 0.53129 0.08518 0.46661 0.0
C64 C 0.52454 0.12651 0.43186 0.0
C65 C 0.51203 0.09169 0.44332 0.0
C66 C 0.51552 0.04829 0.47994 0.0
C67 C 0.53078 0.12223 0.56138 0.0
C68 C 0.55487 0.12257 0.58411 0.0
C69 C 0.51694 0.09569 0.53807 0.0
C70 C 0.5273 0.06931 0.53683 0.0
C71 C 0.56461 0.09567 0.58305 0.0
C72 C 0.55081 0.06923 0.55973 0.0
C73 C 0.51289 0.0409 0.51252 0.0
H74 H 0.36789 0.87296 0.50615 0.0
H75 H 0.40909 0.9331 0.48592 0.0
H76 H 0.45172 0.88042 0.56774 0.0
H77 H 0.49339 0.94094 0.54688 0.0
H78 H 0.46841 0.8776 0.42847 0.0
H79 H 0.49055 0.92477 0.46835 0.0
H80 H 0.42692 0.93486 0.37485 0.0
H81 H 0.44785 0.98126 0.41549 0.0
H82 H 0.60189 0.17079 0.47505 0.0
H83 H 0.58077 0.1094 0.49387 0.0
H84 H 0.50866 0.13055 0.4142 0.0
H85 H 0.48658 0.06994 0.43459 0.0
H86 H 0.52279 0.14259 0.5615 0.0
H87 H 0.49815 0.09576 0.52103 0.0
H88 H 0.58246 0.09467 0.60057 0.0
H89 H 0.55869 0.04878 0.55946 0.0
N90 N 0.49464 0.0059 0.52222 0.0
N91 N 0.50093 0.01997 0.45968 0.0
C92 C 0.59586 0.48459 0.58781 0.0
C93 C 0.57453 0.46644 0.56157 0.0
C94 C 0.58272 0.49817 0.61091 0.0
C95 C 0.54792 0.49364 0.60829 0.0
C96 C 0.53998 0.46254 0.55877 0.0
C97 C 0.5269 0.47614 0.58182 0.0
C98 C 0.53336 0.50747 0.63268 0.0
C99 C 0.53687 0.41534 0.67784 0.0
C100 C 0.56301 0.42492 0.7015 0.0
C101 C 0.52861 0.44067 0.66585 0.0
C102 C 0.54646 0.47629 0.67706 0.0
C103 C 0.58108 0.46065 0.71269 0.0
C104 C 0.57252 0.48606 0.70079 0.0
C105 C 0.5359 0.50219 0.66508 0.0
C106 C 0.43808 0.54604 0.7255 0.0
C107 C 0.46073 0.57109 0.74814 0.0
C108 C 0.45249 0.53402 0.70218 0.0
C109 C 0.48983 0.54717 0.70088 0.0
C110 C 0.49804 0.58362 0.74705 0.0
C111 C 0.5124 0.57159 0.72373 0.0
C112 C 0.50551 0.53481 0.6764 0.0
C113 C 0.45525 0.59422 0.63195 0.0
C114 C 0.42848 0.57296 0.60984 0.0
C115 C 0.48024 0.58429 0.64215 0.0
C116 C 0.47836 0.55248 0.63095 0.0
C117 C 0.42869 0.54285 0.59689 0.0
C118 C 0.45323 0.53271 0.60738 0.0
C119 C 0.50108 0.53828 0.6439 0.0
H120 H 0.62257 0.488 0.59064 0.0
H121 H 0.59982 0.51232 0.63075 0.0
H122 H 0.52316 0.44931 0.53854 0.0
H123 H 0.50011 0.47259 0.57913 0.0
H124 H 0.52272 0.38812 0.66856 0.0
H125 H 0.50779 0.43222 0.64807 0.0
H126 H 0.60117 0.46866 0.73107 0.0
H127 H 0.58625 0.5133 0.71003 0.0
H128 H 0.40926 0.53594 0.72565 0.0
H129 H 0.43451 0.51456 0.6851 0.0
H130 H 0.51611 0.60234 0.76451 0.0
H131 H 0.54121 0.5816 0.72338 0.0
H132 H 0.45604 0.6177 0.64231 0.0
H133 H 0.50027 0.60087 0.65946 0.0
H134 H 0.40922 0.52648 0.57913 0.0
H135 H 0.45159 0.50846 0.59784 0.0
N136 N 0.51552 0.5247 0.62337 0.0
N137 N 0.52256 0.51672 0.68575 0.0
C138 C 0.883 0.39225 0.80048 0.0
C139 C 0.86717 0.40513 0.77891 0.0
C140 C 0.91758 0.41503 0.81217 0.0
C141 C 0.9371 0.45132 0.80279 0.0
C142 C 0.88689 0.44139 0.76917 0.0
C143 C 0.92179 0.46423 0.78079 0.0
C144 C 0.97363 0.4752 0.81579 0.0
C145 C 0.89599 0.45647 0.89306 0.0
C146 C 0.89814 0.43756 0.91921 0.0
C147 C 0.92272 0.46932 0.87003 0.0
C148 C 0.95188 0.46299 0.87232 0.0
C149 C 0.9275 0.43149 0.92158 0.0
C150 C 0.95416 0.4442 0.89841 0.0
C151 C 0.98081 0.47735 0.84834 0.0
C152 C 0.14119 0.57672 0.85939 0.0
C153 C 0.15238 0.55366 0.87265 0.0
C154 C 0.10585 0.56289 0.84827 0.0
C155 C 0.08087 0.52589 0.85071 0.0
C156 C 0.12682 0.51656 0.87515 0.0
C157 C 0.0914 0.503 0.86476 0.0
C158 C 0.04396 0.5103 0.83794 0.0
C159 C 0.11998 0.53419 0.75702 0.0
C160 C 0.11937 0.55847 0.73506 0.0
C161 C 0.09322 0.51845 0.77995 0.0
C162 C 0.06567 0.52715 0.78178 0.0
C163 C 0.09148 0.56679 0.73676 0.0
C164 C 0.06483 0.55116 0.75982 0.0
C165 C 0.03678 0.51025 0.80558 0.0
H166 H 0.86842 0.36458 0.80869 0.0
H167 H 0.92909 0.40423 0.82865 0.0
H168 H 0.87548 0.45195 0.75237 0.0
H169 H 0.93658 0.49206 0.77302 0.0
H170 H 0.87367 0.46146 0.8904 0.0
H171 H 0.9208 0.48467 0.85064 0.0
H172 H 0.93036 0.41762 0.9417 0.0
H173 H 0.9766 0.43935 0.90089 0.0
H174 H 0.15963 0.60548 0.85754 0.0
H175 H 0.09802 0.58101 0.8377 0.0
H176 H 0.13423 0.49755 0.88433 0.0
H177 H 0.07249 0.47429 0.86664 0.0
H178 H 0.14111 0.52727 0.75648 0.0
H179 H 0.09384 0.4991 0.79596 0.0
H180 H 0.08976 0.58479 0.71984 0.0
H181 H 0.04352 0.55784 0.76053 0.0
N182 N 0.00184 0.4924 0.79564 0.0
N183 N 0.01574 0.49413 0.85814 0.0
C184 C 0.48896 0.88849 0.96358 0.0
C185 C 0.4605 0.87171 0.94191 0.0
C186 C 0.49824 0.92203 0.97623 0.0
C187 C 0.47915 0.93954 0.9677 0.0
C188 C 0.44141 0.88927 0.93319 0.0
C189 C 0.45099 0.92321 0.94574 0.0
C190 C 0.48991 0.97536 0.98122 0.0
C191 C 0.43404 0.89483 0.05792 0.0
C192 C 0.45592 0.89778 0.0837 0.0
C193 C 0.44646 0.92196 0.03514 0.0
C194 C 0.48121 0.95238 0.03745 0.0
C195 C 0.49056 0.92841 0.08607 0.0
C196 C 0.50299 0.95544 0.06324 0.0
C197 C 0.4945 0.98178 0.01386 0.0
C198 C 0.56091 0.14309 0.02696 0.0
C199 C 0.59366 0.15142 0.0419 0.0
C200 C 0.53817 0.10851 0.0148 0.0
C201 C 0.5475 0.08153 0.01781 0.0
C202 C 0.60248 0.12391 0.04488 0.0
C203 C 0.57943 0.08933 0.03339 0.0
C204 C 0.52494 0.04516 0.00442 0.0
C205 C 0.5815 0.12123 0.92408 0.0
C206 C 0.55783 0.12213 0.90161 0.0
C207 C 0.56873 0.09436 0.94708 0.0
C208 C 0.53191 0.06818 0.94845 0.0
C209 C 0.52098 0.09574 0.90296 0.0
C210 C 0.50822 0.06893 0.92607 0.0
C211 C 0.5183 0.03876 0.97193 0.0
H212 H 0.50393 0.8755 0.97101 0.0
H213 H 0.52055 0.93442 0.99266 0.0
H214 H 0.41949 0.87701 0.91639 0.0
H215 H 0.4362 0.93651 0.93861 0.0
H216 H 0.40728 0.87156 0.05533 0.0
H217 H 0.42868 0.91933 0.01595 0.0
H218 H 0.50785 0.93191 0.10592 0.0
H219 H 0.52975 0.97879 0.06574 0.0
H220 H 0.55275 0.1632 0.02461 0.0
H221 H 0.51338 0.10281 0.00306 0.0
H222 H 0.62774 0.12915 0.05531 0.0
H223 H 0.58718 0.06888 0.03575 0.0
H224 H 0.60999 0.1412 0.92381 0.0
H225 H 0.5878 0.09373 0.96344 0.0
H226 H 0.50213 0.09522 0.88568 0.0
H227 H 0.47981 0.04865 0.9264 0.0
N228 N 0.50128 0.00403 0.96148 0.0
N229 N 0.51252 0.01646 0.02413 0.0
C230 C 0.50189 0.62558 0.18304 0.0
C231 C 0.4743 0.61305 0.20559 0.0
C232 C 0.51249 0.60239 0.17023 0.0
C233 C 0.49561 0.56606 0.17952 0.0
C234 C 0.45749 0.5767 0.21507 0.0
C235 C 0.46838 0.55346 0.20237 0.0
C236 C 0.50772 0.54203 0.16609 0.0
C237 C 0.44742 0.56087 0.0895 0.0
C238 C 0.46816 0.5798 0.06325 0.0
C239 C 0.46161 0.54803 0.11239 0.0
C240 C 0.49703 0.55422 0.10975 0.0
C241 C 0.50354 0.58579 0.06059 0.0
C242 C 0.51774 0.57299 0.08353 0.0
C243 C 0.51196 0.53976 0.13344 0.0
C244 C 0.57389 0.44139 0.12127 0.0
C245 C 0.60783 0.4646 0.10761 0.0
C246 C 0.55237 0.455 0.13264 0.0
C247 C 0.56402 0.49189 0.12999 0.0
C248 C 0.61894 0.50157 0.10481 0.0
C249 C 0.59703 0.51489 0.11543 0.0
C250 C 0.5428 0.50726 0.14318 0.0
C251 C 0.59895 0.4867 0.22336 0.0
C252 C 0.57518 0.46272 0.24605 0.0
C253 C 0.58653 0.5012 0.20038 0.0
C254 C 0.54996 0.49157 0.19926 0.0
C255 C 0.53861 0.45336 0.24498 0.0
C256 C 0.5262 0.46778 0.2219 0.0
C257 C 0.53662 0.50758 0.17567 0.0
H258 H 0.51511 0.65334 0.17505 0.0
H259 H 0.53412 0.61295 0.15315 0.0
H260 H 0.43632 0.56642 0.23258 0.0
H261 H 0.45533 0.52561 0.2101 0.0
H262 H 0.42015 0.55592 0.09235 0.0
H263 H 0.44465 0.53278 0.13192 0.0
H264 H 0.52002 0.59969 0.0404 0.0
H265 H 0.54497 0.57777 0.08078 0.0
H266 H 0.56388 0.4127 0.12332 0.0
H267 H 0.52673 0.43681 0.1436 0.0
H268 H 0.6451 0.52067 0.09528 0.0
H269 H 0.60652 0.54352 0.11337 0.0
H270 H 0.62724 0.49441 0.22342 0.0
H271 H 0.6057 0.52043 0.18384 0.0
H272 H 0.51971 0.43554 0.26245 0.0
H273 H 0.49799 0.46041 0.22176 0.0
N274 N 0.51954 0.52523 0.18596 0.0
N275 N 0.53002 0.52309 0.12326 0.0
O276 O 0.60152 0.38537 0.44506 0.0
Cd277 Cd 0.60981 0.36259 0.40568 0.0
Cd278 Cd 0.67341 0.42454 0.40579 0.0
O279 O 0.65561 0.43367 0.44783 0.0
O280 O 0.57138 0.3111 0.40842 0.0
O281 O 0.62957 0.32877 0.41048 0.0
C282 C 0.59639 0.30289 0.41167 0.0
C283 C 0.73181 0.43356 0.40249 0.0
C284 C 0.62405 0.41428 0.4589 0.0
C285 C 0.62348 0.41185 0.35129 0.0
O286 O 0.65257 0.43373 0.36533 0.0
O287 O 0.60286 0.38066 0.3627 0.0
O288 O 0.72589 0.46023 0.40434 0.0
O289 O 0.70427 0.40124 0.40312 0.0
O290 O 0.22838 0.5948 0.61698 0.0
Cd291 Cd 0.26011 0.6062 0.57755 0.0
Cd292 Cd 0.25493 0.66612 0.57784 0.0
O293 O 0.22899 0.6465 0.62015 0.0
O294 O 0.27821 0.57161 0.57999 0.0
O295 O 0.31432 0.63078 0.58201 0.0
C296 C 0.31038 0.59881 0.58294 0.0
C297 C 0.30103 0.7261 0.57356 0.0
C298 C 0.21945 0.61532 0.63105 0.0
C299 C 0.22113 0.61527 0.52336 0.0
O300 O 0.22542 0.64327 0.53755 0.0
O301 O 0.23455 0.59702 0.53464 0.0
O302 O 0.26764 0.71758 0.5759 0.0
O303 O 0.30851 0.70034 0.57453 0.0
O304 O 0.63651 0.22731 0.78219 0.0
Cd305 Cd 0.6587 0.25777 0.7422 0.0
Cd306 Cd 0.59689 0.26009 0.74338 0.0
O307 O 0.58884 0.23407 0.78593 0.0
O308 O 0.70993 0.26943 0.74321 0.0
O309 O 0.69402 0.31118 0.74611 0.0
C310 C 0.71928 0.30296 0.74614 0.0
C311 C 0.58939 0.31032 0.73876 0.0
C312 C 0.60815 0.22157 0.79664 0.0
C313 C 0.60744 0.2218 0.68892 0.0
O314 O 0.58595 0.22906 0.70346 0.0
O315 O 0.63897 0.23253 0.69963 0.0
O316 O 0.5622 0.27815 0.74187 0.0
O317 O 0.62138 0.31425 0.73924 0.0
O318 O 0.4318 0.65147 0.94402 0.0
Cd319 Cd 0.41936 0.67006 0.90385 0.0
Cd320 Cd 0.35883 0.60594 0.90644 0.0
O321 O 0.37915 0.60179 0.94924 0.0
O322 O 0.45494 0.72265 0.90333 0.0
O323 O 0.39613 0.70092 0.90774 0.0
C324 C 0.42839 0.72853 0.90683 0.0
C325 C 0.30033 0.59613 0.90237 0.0
C326 C 0.41087 0.62305 0.95929 0.0
C327 C 0.40736 0.61819 0.85182 0.0
O328 O 0.3798 0.59526 0.86703 0.0
O329 O 0.42588 0.6505 0.86162 0.0
O330 O 0.30632 0.56988 0.90755 0.0
O331 O 0.32771 0.62842 0.90011 0.0
O332 O 0.7916 0.36759 0.03935 0.0
Cd333 Cd 0.75948 0.35032 0.07874 0.0
Cd334 Cd 0.76278 0.41364 0.07472 0.0
O335 O 0.78687 0.41609 0.03218 0.0
O336 O 0.73763 0.29694 0.08104 0.0
O337 O 0.70579 0.32396 0.07185 0.0
C338 C 0.70695 0.29452 0.07495 0.0
C339 C 0.71397 0.42325 0.07815 0.0
C340 C 0.79828 0.39525 0.02321 0.0
C341 C 0.79906 0.40304 0.13021 0.0
O342 O 0.79477 0.42565 0.11411 0.0
O343 O 0.78483 0.37038 0.12127 0.0
O344 O 0.74605 0.44946 0.07228 0.0
O345 O 0.70933 0.39118 0.08135 0.0
O346 O 0.4301 0.79417 0.20384 0.0
Cd347 Cd 0.42076 0.76451 0.24441 0.0
Cd348 Cd 0.3566 0.76001 0.24125 0.0
O349 O 0.37479 0.78457 0.19819 0.0
O350 O 0.45911 0.75117 0.2451 0.0
O351 O 0.40096 0.71093 0.24103 0.0
C352 C 0.43407 0.71797 0.24176 0.0
C353 C 0.30096 0.7074 0.24561 0.0
C354 C 0.40698 0.79812 0.18823 0.0
C355 C 0.40336 0.80103 0.29563 0.0
O356 O 0.37474 0.79282 0.28027 0.0
O357 O 0.42475 0.79047 0.28624 0.0
O358 O 0.30321 0.73806 0.23986 0.0
O359 O 0.33049 0.70632 0.24834 0.0
C360 C 0.22498 0.62395 0.28304 0.0
C361 C 0.19487 0.61967 0.26585 0.0
H362 H 0.28246 0.65475 0.28954 0.0
C363 C 0.20103 0.64225 0.23971 0.0
H364 H 0.22159 0.60754 0.30349 0.0
C365 C 0.23576 0.67006 0.23256 0.0
C366 C 0.26537 0.67511 0.25057 0.0
H367 H 0.17893 0.63913 0.22509 0.0
H368 H 0.23942 0.68802 0.2132 0.0
C369 C 0.25994 0.65114 0.27519 0.0
C370 C 0.54086 0.20329 0.43006 0.0
C371 C 0.56739 0.19336 0.43395 0.0
H372 H 0.52914 0.24519 0.41977 0.0
C373 C 0.60387 0.21976 0.42948 0.0
H374 H 0.51258 0.184 0.43395 0.0
C375 C 0.61348 0.25531 0.42165 0.0
C376 C 0.5868 0.2651 0.41807 0.0
H377 H 0.62498 0.21298 0.43198 0.0
H378 H 0.64178 0.27515 0.41869 0.0
C379 C 0.55041 0.23858 0.42211 0.0
C380 C 0.36341 0.55141 0.5983 0.0
C381 C 0.39889 0.58034 0.60177 0.0
H382 H 0.3081 0.53455 0.58945 0.0
C383 C 0.40527 0.6158 0.59834 0.0
H384 H 0.35724 0.52377 0.60147 0.0
C385 C 0.37671 0.62205 0.59174 0.0
C386 C 0.34127 0.59295 0.58844 0.0
H387 H 0.43231 0.6387 0.60065 0.0
H388 H 0.38234 0.64961 0.58944 0.0
C389 C 0.33507 0.55761 0.5916 0.0
C390 C 0.80401 0.39132 0.76607 0.0
C391 C 0.83007 0.38045 0.76711 0.0
H392 H 0.74832 0.3753 0.75863 0.0
C393 C 0.81989 0.34487 0.75869 0.0
H394 H 0.81105 0.41854 0.77257 0.0
C395 C 0.78417 0.32023 0.75081 0.0
C396 C 0.75768 0.33051 0.75115 0.0
H397 H 0.83948 0.33586 0.75872 0.0
H398 H 0.7772 0.2928 0.7452 0.0
C399 C 0.76809 0.36654 0.75821 0.0
C400 C 0.41526 0.80728 0.92845 0.0
C401 C 0.45116 0.83592 0.9289 0.0
H402 H 0.37972 0.75056 0.92108 0.0
C403 C 0.47877 0.8295 0.91906 0.0
H404 H 0.39346 0.81147 0.936 0.0
C405 C 0.471 0.79487 0.91059 0.0
C406 C 0.4354 0.76575 0.91178 0.0
H407 H 0.50662 0.85118 0.91866 0.0
H408 H 0.49316 0.79078 0.90405 0.0
C409 C 0.40743 0.77243 0.92001 0.0
C410 C 0.65726 0.46796 0.07301 0.0
C411 C 0.63235 0.45097 0.09758 0.0
H412 H 0.70287 0.47279 0.04796 0.0
C413 C 0.63269 0.42228 0.11362 0.0
H414 H 0.65727 0.48927 0.05929 0.0
C415 C 0.65799 0.41186 0.10605 0.0
C416 C 0.68409 0.43051 0.08292 0.0
H417 H 0.61449 0.40875 0.13295 0.0
H418 H 0.65835 0.39051 0.11947 0.0
C419 C 0.68321 0.45828 0.06618 0.0
C420 C 0.34519 0.82629 0.55785 0.0
C421 C 0.38086 0.83547 0.55086 0.0
H422 H 0.29228 0.78483 0.57081 0.0
C423 C 0.39096 0.80897 0.5539 0.0
H424 H 0.33676 0.84628 0.55624 0.0
C425 C 0.36536 0.77354 0.56233 0.0
C426 C 0.32929 0.76409 0.568 0.0
H427 H 0.41825 0.81526 0.54854 0.0
H428 H 0.37357 0.75337 0.56346 0.0
C429 C 0.31974 0.79107 0.56634 0.0
C430 C 0.60607 0.40377 0.7176 0.0
C431 C 0.57052 0.39714 0.71447 0.0
H432 H 0.64009 0.38139 0.72771 0.0
C433 C 0.54169 0.36277 0.72203 0.0
H434 H 0.62878 0.43002 0.71186 0.0
C435 C 0.54807 0.33513 0.73112 0.0
C436 C 0.58347 0.3411 0.73278 0.0
H437 H 0.51403 0.35705 0.72034 0.0
H438 H 0.52507 0.30874 0.73597 0.0
C439 C 0.6125 0.37592 0.72658 0.0
C440 C 0.21954 0.59671 0.86698 0.0
C441 C 0.19064 0.56759 0.88272 0.0
H442 H 0.277 0.62911 0.86142 0.0
C443 C 0.19881 0.5505 0.90709 0.0
H444 H 0.21468 0.61037 0.84782 0.0
C445 C 0.23454 0.5605 0.914 0.0
C446 C 0.26308 0.58869 0.89754 0.0
H447 H 0.17762 0.52887 0.92061 0.0
H448 H 0.23987 0.54589 0.93205 0.0
C449 C 0.25538 0.60744 0.87462 0.0
C450 C 0.62323 0.21929 0.03709 0.0
C451 C 0.61949 0.18875 0.05312 0.0
H452 H 0.65349 0.27692 0.032 0.0
C453 C 0.64256 0.19422 0.07876 0.0
H454 H 0.60643 0.21643 0.01705 0.0
C455 C 0.67028 0.22881 0.08649 0.0
C456 C 0.67479 0.2589 0.06959 0.0
H457 H 0.63987 0.17172 0.09252 0.0
H458 H 0.6886 0.23198 0.10541 0.0
C459 C 0.65034 0.25405 0.04553 0.0
C460 C 0.48977 0.67328 0.22751 0.0
C461 C 0.46333 0.63821 0.21872 0.0
H462 H 0.50124 0.72571 0.24206 0.0
C463 C 0.42672 0.62843 0.22052 0.0
H464 H 0.51816 0.6814 0.22686 0.0
C465 C 0.41692 0.65391 0.22929 0.0
C466 C 0.44357 0.68953 0.23654 0.0
H467 H 0.40578 0.60159 0.21379 0.0
H468 H 0.38859 0.64606 0.22928 0.0
C469 C 0.48002 0.69862 0.23635 0.0
C470 C 0.83289 0.4834 0.39088 0.0
C471 C 0.83944 0.45538 0.38277 0.0
H472 H 0.794 0.49842 0.40372 0.0
C473 C 0.81076 0.41953 0.38395 0.0
H474 H 0.85459 0.51124 0.39073 0.0
C475 C 0.77579 0.41208 0.39149 0.0
C476 C 0.76903 0.44038 0.39806 0.0
H477 H 0.81504 0.39741 0.37771 0.0
H478 H 0.75392 0.38433 0.39111 0.0
C479 C 0.79814 0.476 0.39842 0.0
C480 C 0.16794 0.55759 0.45394 0.0
C481 C 0.15139 0.57663 0.44248 0.0
H482 H 0.20321 0.55495 0.48822 0.0
C483 C 0.15943 0.60935 0.45689 0.0
H484 H 0.16268 0.53254 0.44308 0.0
C485 C 0.18279 0.62232 0.48261 0.0
C486 C 0.19867 0.60286 0.49458 0.0
H487 H 0.14682 0.62449 0.44892 0.0
H488 H 0.18776 0.64725 0.4935 0.0
C489 C 0.19136 0.57057 0.47968 0.0
C490 C 0.6052 0.1656 0.61937 0.0
C491 C 0.5691 0.15016 0.60941 0.0
H492 H 0.64572 0.20049 0.65201 0.0
C493 C 0.54637 0.16025 0.62463 0.0
H494 H 0.62359 0.15887 0.60779 0.0
C495 C 0.55912 0.18433 0.64985 0.0
C496 C 0.5949 0.19886 0.66046 0.0
H497 H 0.51834 0.14863 0.61774 0.0
H498 H 0.5406 0.19082 0.66151 0.0
C499 C 0.61795 0.18965 0.6446 0.0
C500 C 0.41357 0.55913 0.78876 0.0
C501 C 0.44558 0.58363 0.77325 0.0
H502 H 0.37629 0.55078 0.82562 0.0
C503 C 0.4637 0.62001 0.78262 0.0
H504 H 0.39913 0.53086 0.78228 0.0
C505 C 0.45071 0.63143 0.80753 0.0
C506 C 0.41929 0.60672 0.82368 0.0
H507 H 0.48811 0.63966 0.77079 0.0
H508 H 0.46572 0.65954 0.81446 0.0
C509 C 0.40057 0.57055 0.8137 0.0
C510 C 0.85727 0.44788 0.95452 0.0
C511 C 0.87066 0.42549 0.94453 0.0
H512 H 0.82382 0.45584 0.98691 0.0
C513 C 0.85841 0.39208 0.95957 0.0
H514 H 0.86646 0.474 0.94375 0.0
C515 C 0.83412 0.38177 0.98456 0.0
C516 C 0.82146 0.4046 0.99503 0.0
H517 H 0.86774 0.37394 0.95212 0.0
H518 H 0.82572 0.35613 0.99598 0.0
C519 C 0.83291 0.43752 0.97941 0.0
C520 C 0.46549 0.85934 0.1228 0.0
C521 C 0.44237 0.86977 0.10869 0.0
H522 H 0.47243 0.82835 0.15871 0.0
C523 C 0.40665 0.85438 0.11959 0.0
H524 H 0.49296 0.87016 0.1146 0.0
C525 C 0.39474 0.83009 0.1447 0.0
C526 C 0.41831 0.82075 0.15956 0.0
H527 H 0.38822 0.86206 0.10946 0.0
H528 H 0.36737 0.81955 0.15306 0.0
C529 C 0.45363 0.83517 0.14797 0.0
C530 C 0.56796 0.41293 0.28217 0.0
C531 C 0.5887 0.44874 0.27155 0.0
H532 H 0.56275 0.37303 0.31541 0.0
C533 C 0.62194 0.47157 0.28625 0.0
H534 H 0.5425 0.39446 0.27105 0.0
C535 C 0.63371 0.45922 0.31148 0.0
C536 C 0.61249 0.42374 0.32271 0.0
H537 H 0.63841 0.49943 0.27895 0.0
H538 H 0.65907 0.47785 0.32267 0.0
C539 C 0.57971 0.40057 0.30747 0.0
C540 C 0.45616 0.86107 0.36389 0.0
C541 C 0.43377 0.87461 0.37348 0.0
H542 H 0.46411 0.82718 0.33197 0.0
C543 C 0.4004 0.86224 0.35832 0.0
H544 H 0.48221 0.87033 0.37484 0.0
C545 C 0.39007 0.83761 0.33359 0.0
C546 C 0.41289 0.82479 0.32346 0.0
H547 H 0.38229 0.87172 0.36549 0.0
H548 H 0.36443 0.82908 0.32211 0.0
C549 C 0.44583 0.83643 0.33918 0.0
C550 C 0.62386 0.47252 0.52577 0.0
C551 C 0.58825 0.45203 0.53685 0.0
H552 H 0.66319 0.4767 0.4925 0.0
C553 C 0.56536 0.41809 0.5234 0.0
H554 H 0.64207 0.49889 0.53553 0.0
C555 C 0.57737 0.40541 0.49872 0.0
C556 C 0.61259 0.42639 0.4869 0.0
H557 H 0.53799 0.40138 0.5318 0.0
H558 H 0.55876 0.3794 0.48855 0.0
C559 C 0.6359 0.45985 0.50104 0.0
C560 C 0.15827 0.55233 0.69435 0.0
C561 C 0.14684 0.57392 0.70971 0.0
H562 H 0.1902 0.54845 0.65776 0.0
C563 C 0.16098 0.60994 0.69997 0.0
H564 H 0.14759 0.52435 0.70095 0.0
C565 C 0.18528 0.62375 0.67494 0.0
C566 C 0.19602 0.60184 0.65913 0.0
H567 H 0.15317 0.62747 0.71162 0.0
H568 H 0.1952 0.65142 0.66771 0.0
C569 C 0.18261 0.56614 0.66943 0.0
C570 C 0.55196 0.16571 0.86569 0.0
C571 C 0.57175 0.14947 0.87603 0.0
H572 H 0.54801 0.20145 0.83277 0.0
C573 C 0.60449 0.15865 0.86104 0.0
H574 H 0.52689 0.15961 0.87702 0.0
C575 C 0.61674 0.1828 0.83587 0.0
C576 C 0.59652 0.19835 0.82499 0.0
H577 H 0.6202 0.14633 0.86811 0.0
H578 H 0.64171 0.18862 0.8245 0.0
C579 C 0.56421 0.18989 0.84046 0.0
C580 C 0.41685 0.56975 0.0279 0.0
C581 C 0.45259 0.59212 0.03815 0.0
H582 H 0.37558 0.56198 0.99517 0.0
C583 C 0.4737 0.62575 0.02347 0.0
H584 H 0.39996 0.54351 0.03845 0.0
C585 C 0.45978 0.63629 -0.00149 0.0
C586 C 0.4244 0.61344 0.98764 0.0
H587 H 0.50113 0.64388 0.03114 0.0
H588 H 0.47705 0.66209 0.98737 0.0
C589 C 0.40291 0.5803 0.00296 0.0
C590 C 0.85751 0.40458 0.19776 0.0
C591 C 0.87393 0.44078 0.20753 0.0
H592 H 0.82085 0.3642 0.16593 0.0
C593 C 0.86367 0.4638 0.19297 0.0
H594 H 0.86504 0.38619 0.20823 0.0
C595 C 0.8385 0.45126 0.16852 0.0
C596 C 0.82291 0.41535 0.15812 0.0
H597 H 0.87529 0.49166 0.20032 0.0
H598 H 0.83177 0.46993 0.15741 0.0
C599 C 0.83224 0.39199 0.17339 0.0
loop_
_geom_bond_atom_site_label_1
_geom_bond_atom_site_label_2
_geom_bond_distance
_geom_bond_site_symmetry_2
_ccdc_geom_bond_type
C0 C1 1.384 . S
C0 C2 1.384 . S
C0 H28 0.931 . S
C1 C0 1.384 . S
C1 C4 1.382 . S
C2 C0 1.384 . S
C2 C3 1.381 . S
C2 H29 0.930 . S
C3 C2 1.381 . S
C3 C5 1.381 . S
C3 C6 1.487 . S
C4 C1 1.382 . S
C4 C5 1.387 . S
C4 H30 0.930 . S
C5 C3 1.381 . S
C5 C4 1.387 . S
C5 H31 0.931 . S
C6 C3 1.487 . S
C6 C13 1.399 . S
C6 N44 1.363 . S
C7 C8 1.384 . S
C7 C9 1.384 . S
C7 H32 0.931 . S
C8 C7 1.384 . S
C8 C11 1.382 . S
C9 C7 1.384 . S
C9 C10 1.381 . S
C9 H33 0.930 . S
C10 C9 1.381 . S
C10 C12 1.381 . S
C10 C13 1.487 . S
C11 C8 1.382 . S
C11 C12 1.387 . S
C11 H34 0.930 . S
C12 C10 1.381 . S
C12 C11 1.387 . S
C12 H35 0.931 . S
C13 C6 1.399 . S
C13 C10 1.487 . S
C13 N45 1.343 1_655 S
C14 C15 1.384 . S
C14 C16 1.384 . S
C14 H36 0.931 . S
C15 C14 1.384 . S
C15 C18 1.382 . S
C16 C14 1.384 . S
C16 C17 1.381 . S
C16 H37 0.930 . S
C17 C16 1.381 . S
C17 C19 1.381 . S
C17 C20 1.487 . S
C18 C15 1.382 . S
C18 C19 1.387 . S
C18 H38 0.930 . S
C19 C17 1.381 . S
C19 C18 1.387 . S
C19 H39 0.931 . S
C20 C17 1.487 . S
C20 C27 1.399 . S
C20 N45 1.343 . S
C21 C22 1.384 . S
C21 C23 1.384 . S
C21 H40 0.931 . S
C22 C21 1.384 . S
C22 C25 1.382 . S
C23 C21 1.384 . S
C23 C24 1.381 . S
C23 H41 0.930 . S
C24 C23 1.381 . S
C24 C26 1.381 . S
C24 C27 1.487 . S
C25 C22 1.382 . S
C25 C26 1.387 . S
C25 H42 0.930 . S
C26 C24 1.381 . S
C26 C25 1.387 . S
C26 H43 0.931 . S
C27 C20 1.399 . S
C27 C24 1.487 . S
C27 N44 1.316 1_455 S
H28 C0 0.931 . S
H29 C2 0.930 . S
H30 C4 0.930 . S
H31 C5 0.931 . S
H32 C7 0.931 . S
H33 C9 0.930 . S
H34 C11 0.930 . S
H35 C12 0.931 . S
H36 C14 0.931 . S
H37 C16 0.930 . S
H38 C18 0.930 . S
H39 C19 0.931 . S
H40 C21 0.931 . S
H41 C23 0.930 . S
H42 C25 0.930 . S
H43 C26 0.931 . S
N44 C6 1.363 . S
N44 C27 1.316 1_655 S
N45 C13 1.343 1_455 S
N45 C20 1.343 . S
C46 C47 1.384 . S
C46 C48 1.384 . S
C46 H74 0.931 . S
C47 C46 1.384 . S
C47 C50 1.382 . S
C48 C46 1.384 . S
C48 C49 1.381 . S
C48 H75 0.930 . S
C49 C48 1.381 . S
C49 C51 1.381 . S
C49 C52 1.487 . S
C50 C47 1.382 . S
C50 C51 1.387 . S
C50 H76 0.930 . S
C51 C49 1.381 . S
C51 C50 1.387 . S
C51 H77 0.931 . S
C52 C49 1.487 . S
C52 C59 1.399 . S
C52 N90 1.345 . S
C53 C54 1.384 . S
C53 C55 1.384 . S
C53 H78 0.931 . S
C54 C53 1.384 . S
C54 C57 1.382 . S
C55 C53 1.384 . S
C55 C56 1.381 . S
C55 H79 0.930 . S
C56 C55 1.381 . S
C56 C58 1.381 . S
C56 C59 1.487 . S
C57 C54 1.382 . S
C57 C58 1.387 . S
C57 H80 0.930 . S
C58 C56 1.381 . S
C58 C57 1.387 . S
C58 H81 0.931 . S
C59 C52 1.399 . S
C59 C56 1.487 . S
C59 N91 1.343 1_565 S
C60 C61 1.384 . S
C60 C62 1.384 . S
C60 H82 0.931 . S
C61 C60 1.384 . S
C61 C64 1.382 . S
C62 C60 1.384 . S
C62 C63 1.381 . S
C62 H83 0.930 . S
C63 C62 1.381 . S
C63 C65 1.381 . S
C63 C66 1.487 . S
C64 C61 1.382 . S
C64 C65 1.387 . S
C64 H84 0.930 . S
C65 C63 1.381 . S
C65 C64 1.387 . S
C65 H85 0.931 . S
C66 C63 1.487 . S
C66 C73 1.399 . S
C66 N91 1.343 . S
C67 C68 1.384 . S
C67 C69 1.384 . S
C67 H86 0.931 . S
C68 C67 1.384 . S
C68 C71 1.382 . S
C69 C67 1.384 . S
C69 C70 1.381 . S
C69 H87 0.930 . S
C70 C69 1.381 . S
C70 C72 1.381 . S
C70 C73 1.487 . S
C71 C68 1.382 . S
C71 C72 1.387 . S
C71 H88 0.930 . S
C72 C70 1.381 . S
C72 C71 1.387 . S
C72 H89 0.931 . S
C73 C66 1.399 . S
C73 C70 1.487 . S
C73 N90 1.340 1_545 S
H74 C46 0.931 . S
H75 C48 0.930 . S
H76 C50 0.930 . S
H77 C51 0.931 . S
H78 C53 0.931 . S
H79 C55 0.930 . S
H80 C57 0.930 . S
H81 C58 0.931 . S
H82 C60 0.931 . S
H83 C62 0.930 . S
H84 C64 0.930 . S
H85 C65 0.931 . S
H86 C67 0.931 . S
H87 C69 0.930 . S
H88 C71 0.930 . S
H89 C72 0.931 . S
N90 C52 1.345 . S
N90 C73 1.340 1_565 S
N91 C59 1.343 1_545 S
N91 C66 1.343 . S
C92 C93 1.384 . S
C92 C94 1.384 . S
C92 H120 0.931 . S
C93 C92 1.384 . S
C93 C96 1.382 . S
C94 C92 1.384 . S
C94 C95 1.381 . S
C94 H121 0.930 . S
C95 C94 1.381 . S
C95 C97 1.381 . S
C95 C98 1.487 . S
C96 C93 1.382 . S
C96 C97 1.387 . S
C96 H122 0.930 . S
C97 C95 1.381 . S
C97 C96 1.387 . S
C97 H123 0.931 . S
C98 C95 1.487 . S
C98 C105 1.399 . S
C98 N136 1.343 . S
C99 C100 1.384 . S
C99 C101 1.384 . S
C99 H124 0.931 . S
C100 C99 1.384 . S
C100 C103 1.382 . S
C101 C99 1.384 . S
C101 C102 1.381 . S
C101 H125 0.930 . S
C102 C101 1.381 . S
C102 C104 1.381 . S
C102 C105 1.487 . S
C103 C100 1.382 . S
C103 C104 1.387 . S
C103 H126 0.930 . S
C104 C102 1.381 . S
C104 C103 1.387 . S
C104 H127 0.931 . S
C105 C98 1.399 . S
C105 C102 1.487 . S
C105 N137 1.343 . S
C106 C107 1.384 . S
C106 C108 1.384 . S
C106 H128 0.931 . S
C107 C106 1.384 . S
C107 C110 1.382 . S
C108 C106 1.384 . S
C108 C109 1.381 . S
C108 H129 0.930 . S
C109 C108 1.381 . S
C109 C111 1.381 . S
C109 C112 1.487 . S
C110 C107 1.382 . S
C110 C111 1.387 . S
C110 H130 0.930 . S
C111 C109 1.381 . S
C111 C110 1.387 . S
C111 H131 0.931 . S
C112 C109 1.487 . S
C112 C119 1.399 . S
C112 N137 1.343 . S
C113 C114 1.384 . S
C113 C115 1.384 . S
C113 H132 0.931 . S
C114 C113 1.384 . S
C114 C117 1.382 . S
C115 C113 1.384 . S
C115 C116 1.381 . S
C115 H133 0.930 . S
C116 C115 1.381 . S
C116 C118 1.381 . S
C116 C119 1.487 . S
C117 C114 1.382 . S
C117 C118 1.387 . S
C117 H134 0.930 . S
C118 C116 1.381 . S
C118 C117 1.387 . S
C118 H135 0.931 . S
C119 C112 1.399 . S
C119 C116 1.487 . S
C119 N136 1.343 . S
H120 C92 0.931 . S
H121 C94 0.930 . S
H122 C96 0.930 . S
H123 C97 0.931 . S
H124 C99 0.931 . S
H125 C101 0.930 . S
H126 C103 0.930 . S
H127 C104 0.931 . S
H128 C106 0.931 . S
H129 C108 0.930 . S
H130 C110 0.930 . S
H131 C111 0.931 . S
H132 C113 0.931 . S
H133 C115 0.930 . S
H134 C117 0.930 . S
H135 C118 0.931 . S
N136 C98 1.343 . S
N136 C119 1.343 . S
N137 C105 1.343 . S
N137 C112 1.343 . S
C138 C139 1.384 . S
C138 C140 1.384 . S
C138 H166 0.931 . S
C139 C138 1.384 . S
C139 C142 1.382 . S
C140 C138 1.384 . S
C140 C141 1.381 . S
C140 H167 0.930 . S
C141 C140 1.381 . S
C141 C143 1.381 . S
C141 C144 1.487 . S
C142 C139 1.382 . S
C142 C143 1.387 . S
C142 H168 0.930 . S
C143 C141 1.381 . S
C143 C142 1.387 . S
C143 H169 0.931 . S
C144 C141 1.487 . S
C144 C151 1.399 . S
C144 N182 1.354 . S
C145 C146 1.384 . S
C145 C147 1.384 . S
C145 H170 0.931 . S
C146 C145 1.384 . S
C146 C149 1.382 . S
C147 C145 1.384 . S
C147 C148 1.381 . S
C147 H171 0.930 . S
C148 C147 1.381 . S
C148 C150 1.381 . S
C148 C151 1.487 . S
C149 C146 1.382 . S
C149 C150 1.387 . S
C149 H172 0.930 . S
C150 C148 1.381 . S
C150 C149 1.387 . S
C150 H173 0.931 . S
C151 C144 1.399 . S
C151 C148 1.487 . S
C151 N183 1.343 1_655 S
C152 C153 1.384 . S
C152 C154 1.384 . S
C152 H174 0.931 . S
C153 C152 1.384 . S
C153 C156 1.382 . S
C154 C152 1.384 . S
C154 C155 1.381 . S
C154 H175 0.930 . S
C155 C154 1.381 . S
C155 C157 1.381 . S
C155 C158 1.487 . S
C156 C153 1.382 . S
C156 C157 1.387 . S
C156 H176 0.930 . S
C157 C155 1.381 . S
C157 C156 1.387 . S
C157 H177 0.931 . S
C158 C155 1.487 . S
C158 C165 1.399 . S
C158 N183 1.343 . S
C159 C160 1.384 . S
C159 C161 1.384 . S
C159 H178 0.931 . S
C160 C159 1.384 . S
C160 C163 1.382 . S
C161 C159 1.384 . S
C161 C162 1.381 . S
C161 H179 0.930 . S
C162 C161 1.381 . S
C162 C164 1.381 . S
C162 C165 1.487 . S
C163 C160 1.382 . S
C163 C164 1.387 . S
C163 H180 0.930 . S
C164 C162 1.381 . S
C164 C163 1.387 . S
C164 H181 0.931 . S
C165 C158 1.399 . S
C165 C162 1.487 . S
C165 N182 1.325 1_455 S
H166 C138 0.931 . S
H167 C140 0.930 . S
H168 C142 0.930 . S
H169 C143 0.931 . S
H170 C145 0.931 . S
H171 C147 0.930 . S
H172 C149 0.930 . S
H173 C150 0.931 . S
H174 C152 0.931 . S
H175 C154 0.930 . S
H176 C156 0.930 . S
H177 C157 0.931 . S
H178 C159 0.931 . S
H179 C161 0.930 . S
H180 C163 0.930 . S
H181 C164 0.931 . S
N182 C144 1.354 . S
N182 C165 1.325 1_655 S
N183 C151 1.343 1_455 S
N183 C158 1.343 . S
C184 C185 1.384 . S
C184 C186 1.384 . S
C184 H212 0.931 . S
C185 C184 1.384 . S
C185 C188 1.382 . S
C186 C184 1.384 . S
C186 C187 1.381 . S
C186 H213 0.930 1_556 S
C187 C186 1.381 . S
C187 C189 1.381 . S
C187 C190 1.487 . S
C188 C185 1.382 . S
C188 C189 1.387 . S
C188 H214 0.930 . S
C189 C187 1.381 . S
C189 C188 1.387 . S
C189 H215 0.931 . S
C190 C187 1.487 . S
C190 C197 1.399 1_556 S
C190 N228 1.353 . S
C191 C192 1.384 . S
C191 C193 1.384 . S
C191 H216 0.931 . S
C192 C191 1.384 . S
C192 C195 1.382 . S
C193 C191 1.384 . S
C193 C194 1.381 . S
C193 H217 0.930 . S
C194 C193 1.381 . S
C194 C196 1.381 . S
C194 C197 1.487 . S
C195 C192 1.382 . S
C195 C196 1.387 . S
C195 H218 0.930 . S
C196 C194 1.381 . S
C196 C195 1.387 . S
C196 H219 0.931 . S
C197 C190 1.399 1_554 S
C197 C194 1.487 . S
C197 N229 1.343 1_565 S
C198 C199 1.384 . S
C198 C200 1.384 1_554 S
C198 H220 0.931 . S
C199 C198 1.384 . S
C199 C202 1.382 . S
C200 C198 1.384 1_556 S
C200 C201 1.381 1_556 S
C200 H221 0.930 . S
C201 C200 1.381 1_554 S
C201 C203 1.381 . S
C201 C204 1.488 1_554 S
C202 C199 1.382 . S
C202 C203 1.387 . S
C202 H222 0.930 . S
C203 C201 1.381 . S
C203 C202 1.387 . S
C203 H223 0.931 . S
C204 C201 1.488 1_556 S
C204 C211 1.397 . S
C204 N229 1.345 1_556 S
C205 C206 1.384 . S
C205 C207 1.384 . S
C205 H224 0.931 . S
C206 C205 1.384 . S
C206 C209 1.382 . S
C207 C205 1.384 . S
C207 C208 1.381 . S
C207 H225 0.930 . S
C208 C207 1.381 . S
C208 C210 1.381 . S
C208 C211 1.487 . S
C209 C206 1.382 . S
C209 C210 1.387 . S
C209 H226 0.930 . S
C210 C208 1.381 . S
C210 C209 1.387 . S
C210 H227 0.931 . S
C211 C204 1.397 . S
C211 C208 1.487 . S
C211 N228 1.330 1_545 S
H212 C184 0.931 . S
H213 C186 0.930 1_554 S
H214 C188 0.930 . S
H215 C189 0.931 . S
H216 C191 0.931 . S
H217 C193 0.930 . S
H218 C195 0.930 . S
H219 C196 0.931 . S
H220 C198 0.931 . S
H221 C200 0.930 . S
H222 C202 0.930 . S
H223 C203 0.931 . S
H224 C205 0.931 . S
H225 C207 0.930 . S
H226 C209 0.930 . S
H227 C210 0.931 . S
N228 C190 1.353 . S
N228 C211 1.330 1_565 S
N229 C197 1.343 1_545 S
N229 C204 1.345 1_554 S
C230 C231 1.384 . S
C230 C232 1.384 . S
C230 H258 0.931 . S
C231 C230 1.384 . S
C231 C234 1.382 . S
C232 C230 1.384 . S
C232 C233 1.381 . S
C232 H259 0.930 . S
C233 C232 1.381 . S
C233 C235 1.381 . S
C233 C236 1.487 . S
C234 C231 1.382 . S
C234 C235 1.387 . S
C234 H260 0.930 . S
C235 C233 1.381 . S
C235 C234 1.387 . S
C235 H261 0.931 . S
C236 C233 1.487 . S
C236 C243 1.399 . S
C236 N274 1.343 . S
C237 C238 1.384 . S
C237 C239 1.384 . S
C237 H262 0.931 . S
C238 C237 1.384 . S
C238 C241 1.382 . S
C239 C237 1.384 . S
C239 C240 1.381 . S
C239 H263 0.930 . S
C240 C239 1.381 . S
C240 C242 1.381 . S
C240 C243 1.487 . S
C241 C238 1.382 . S
C241 C242 1.387 . S
C241 H264 0.930 . S
C242 C240 1.381 . S
C242 C241 1.387 . S
C242 H265 0.931 . S
C243 C236 1.399 . S
C243 C240 1.487 . S
C243 N275 1.343 . S
C244 C245 1.384 . S
C244 C246 1.384 . S
C244 H266 0.931 . S
C245 C244 1.384 . S
C245 C248 1.382 . S
C246 C244 1.384 . S
C246 C247 1.381 . S
C246 H267 0.930 . S
C247 C246 1.381 . S
C247 C249 1.381 . S
C247 C250 1.487 . S
C248 C245 1.382 . S
C248 C249 1.387 . S
C248 H268 0.930 . S
C249 C247 1.381 . S
C249 C248 1.387 . S
C249 H269 0.931 . S
C250 C247 1.487 . S
C250 C257 1.399 . S
C250 N275 1.343 . S
C251 C252 1.384 . S
C251 C253 1.384 . S
C251 H270 0.931 . S
C252 C251 1.384 . S
C252 C255 1.382 . S
C253 C251 1.384 . S
C253 C254 1.381 . S
C253 H271 0.930 . S
C254 C253 1.381 . S
C254 C256 1.381 . S
C254 C257 1.487 . S
C255 C252 1.382 . S
C255 C256 1.387 . S
C255 H272 0.930 . S
C256 C254 1.381 . S
C256 C255 1.387 . S
C256 H273 0.931 . S
C257 C250 1.399 . S
C257 C254 1.487 . S
C257 N274 1.343 . S
H258 C230 0.931 . S
H259 C232 0.930 . S
H260 C234 0.930 . S
H261 C235 0.931 . S
H262 C237 0.931 . S
H263 C239 0.930 . S
H264 C241 0.930 . S
H265 C242 0.931 . S
H266 C244 0.931 . S
H267 C246 0.930 . S
H268 C248 0.930 . S
H269 C249 0.931 . S
H270 C251 0.931 . S
H271 C253 0.930 . S
H272 C255 0.930 . S
H273 C256 0.931 . S
N274 C236 1.343 . S
N274 C257 1.343 . S
N275 C243 1.343 . S
N275 C250 1.343 . S
O276 Cd277 2.223 . S
O276 C284 1.315 . S
Cd277 O276 2.223 . S
Cd277 O280 2.297 . S
Cd277 O281 2.439 . S
Cd277 O287 2.240 . S
Cd278 O279 2.240 . S
Cd278 O286 2.223 . S
Cd278 O288 2.297 . S
Cd278 O289 2.439 . S
O279 Cd278 2.240 . S
O279 C284 1.279 . S
O280 Cd277 2.297 . S
O280 C282 1.247 . S
O281 Cd277 2.439 . S
O281 C282 1.208 . S
C282 O280 1.247 . S
C282 O281 1.208 . S
C283 O288 1.247 . S
C283 O289 1.208 . S
C284 O276 1.315 . S
C284 O279 1.279 . S
C285 O286 1.315 . S
C285 O287 1.279 . S
O286 Cd278 2.223 . S
O286 C285 1.315 . S
O287 Cd277 2.240 . S
O287 C285 1.279 . S
O288 Cd278 2.297 . S
O288 C283 1.247 . S
O289 Cd278 2.439 . S
O289 C283 1.208 . S
O290 Cd291 2.223 . S
O290 C298 1.315 . S
Cd291 O290 2.223 . S
Cd291 O294 2.297 . S
Cd291 O295 2.439 . S
Cd291 O301 2.240 . S
Cd292 O293 2.240 . S
Cd292 O300 2.223 . S
Cd292 O302 2.297 . S
Cd292 O303 2.439 . S
O293 Cd292 2.240 . S
O293 C298 1.279 . S
O294 Cd291 2.297 . S
O294 C296 1.247 . S
O295 Cd291 2.439 . S
O295 C296 1.208 . S
C296 O294 1.247 . S
C296 O295 1.208 . S
C297 O302 1.247 . S
C297 O303 1.208 . S
C298 O290 1.315 . S
C298 O293 1.279 . S
C299 O300 1.315 . S
C299 O301 1.279 . S
O300 Cd292 2.223 . S
O300 C299 1.315 . S
O301 Cd291 2.240 . S
O301 C299 1.279 . S
O302 Cd292 2.297 . S
O302 C297 1.247 . S
O303 Cd292 2.439 . S
O303 C297 1.208 . S
O304 Cd305 2.223 . S
O304 C312 1.315 . S
Cd305 O304 2.223 . S
Cd305 O308 2.297 . S
Cd305 O309 2.439 . S
Cd305 O315 2.240 . S
Cd306 O307 2.240 . S
Cd306 O314 2.223 . S
Cd306 O316 2.297 . S
Cd306 O317 2.439 . S
O307 Cd306 2.240 . S
O307 C312 1.279 . S
O308 Cd305 2.297 . S
O308 C310 1.247 . S
O309 Cd305 2.439 . S
O309 C310 1.208 . S
C310 O308 1.247 . S
C310 O309 1.208 . S
C311 O316 1.247 . S
C311 O317 1.208 . S
C312 O304 1.315 . S
C312 O307 1.279 . S
C313 O314 1.315 . S
C313 O315 1.279 . S
O314 Cd306 2.223 . S
O314 C313 1.315 . S
O315 Cd305 2.240 . S
O315 C313 1.279 . S
O316 Cd306 2.297 . S
O316 C311 1.247 . S
O317 Cd306 2.439 . S
O317 C311 1.208 . S
O318 Cd319 2.223 . S
O318 C326 1.315 . S
Cd319 O318 2.223 . S
Cd319 O322 2.297 . S
Cd319 O323 2.439 . S
Cd319 O329 2.240 . S
Cd320 O321 2.240 . S
Cd320 O328 2.223 . S
Cd320 O330 2.297 . S
Cd320 O331 2.439 . S
O321 Cd320 2.240 . S
O321 C326 1.279 . S
O322 Cd319 2.297 . S
O322 C324 1.247 . S
O323 Cd319 2.439 . S
O323 C324 1.208 . S
C324 O322 1.247 . S
C324 O323 1.208 . S
C325 O330 1.247 . S
C325 O331 1.208 . S
C326 O318 1.315 . S
C326 O321 1.279 . S
C327 O328 1.315 . S
C327 O329 1.279 . S
O328 Cd320 2.223 . S
O328 C327 1.315 . S
O329 Cd319 2.240 . S
O329 C327 1.279 . S
O330 Cd320 2.297 . S
O330 C325 1.247 . S
O331 Cd320 2.439 . S
O331 C325 1.208 . S
O332 Cd333 2.223 . S
O332 C340 1.315 . S
Cd333 O332 2.223 . S
Cd333 O336 2.297 . S
Cd333 O337 2.439 . S
Cd333 O343 2.240 . S
Cd334 O335 2.240 . S
Cd334 O342 2.223 . S
Cd334 O344 2.297 . S
Cd334 O345 2.439 . S
O335 Cd334 2.240 . S
O335 C340 1.279 . S
O336 Cd333 2.297 . S
O336 C338 1.247 . S
O337 Cd333 2.439 . S
O337 C338 1.208 . S
C338 O336 1.247 . S
C338 O337 1.208 . S
C339 O344 1.247 . S
C339 O345 1.208 . S
C340 O332 1.315 . S
C340 O335 1.279 . S
C341 O342 1.315 . S
C341 O343 1.279 . S
O342 Cd334 2.223 . S
O342 C341 1.315 . S
O343 Cd333 2.240 . S
O343 C341 1.279 . S
O344 Cd334 2.297 . S
O344 C339 1.247 . S
O345 Cd334 2.439 . S
O345 C339 1.208 . S
O346 Cd347 2.223 . S
O346 C354 1.315 . S
Cd347 O346 2.223 . S
Cd347 O350 2.297 . S
Cd347 O351 2.439 . S
Cd347 O357 2.240 . S
Cd348 O349 2.240 . S
Cd348 O356 2.223 . S
Cd348 O358 2.297 . S
Cd348 O359 2.439 . S
O349 Cd348 2.240 . S
O349 C354 1.279 . S
O350 Cd347 2.297 . S
O350 C352 1.247 . S
O351 Cd347 2.439 . S
O351 C352 1.208 . S
C352 O350 1.247 . S
C352 O351 1.208 . S
C353 O358 1.247 . S
C353 O359 1.208 . S
C354 O346 1.315 . S
C354 O349 1.279 . S
C355 O356 1.315 . S
C355 O357 1.279 . S
O356 Cd348 2.223 . S
O356 C355 1.315 . S
O357 Cd347 2.240 . S
O357 C355 1.279 . S
O358 Cd348 2.297 . S
O358 C353 1.247 . S
O359 Cd348 2.439 . S
O359 C353 1.208 . S
C360 C361 1.387 . S
C360 H364 0.950 . S
C360 C369 1.390 . S
C361 C360 1.387 . S
C361 C363 1.387 . S
H362 C369 0.950 . S
C363 C361 1.387 . S
C363 C365 1.390 . S
C363 H367 0.950 . S
H364 C360 0.950 . S
C365 C363 1.390 . S
C365 C366 1.387 . S
C365 H368 0.950 . S
C366 C365 1.387 . S
C366 C369 1.387 . S
H367 C363 0.950 . S
H368 C365 0.950 . S
C369 C360 1.390 . S
C369 H362 0.950 . S
C369 C366 1.387 . S
C370 C371 1.387 . S
C370 H374 0.950 . S
C370 C379 1.390 . S
C371 C370 1.387 . S
C371 C373 1.387 . S
H372 C379 0.950 . S
C373 C371 1.387 . S
C373 C375 1.390 . S
C373 H377 0.950 . S
H374 C370 0.950 . S
C375 C373 1.390 . S
C375 C376 1.387 . S
C375 H378 0.950 . S
C376 C375 1.387 . S
C376 C379 1.387 . S
H377 C373 0.950 . S
H378 C375 0.950 . S
C379 C370 1.390 . S
C379 H372 0.950 . S
C379 C376 1.387 . S
C380 C381 1.387 . S
C380 H384 0.950 . S
C380 C389 1.390 . S
C381 C380 1.387 . S
C381 C383 1.387 . S
H382 C389 0.950 . S
C383 C381 1.387 . S
C383 C385 1.390 . S
C383 H387 0.950 . S
H384 C380 0.950 . S
C385 C383 1.390 . S
C385 C386 1.387 . S
C385 H388 0.950 . S
C386 C385 1.387 . S
C386 C389 1.387 . S
H387 C383 0.950 . S
H388 C385 0.950 . S
C389 C380 1.390 . S
C389 H382 0.950 . S
C389 C386 1.387 . S
C390 C391 1.387 . S
C390 H394 0.950 . S
C390 C399 1.390 . S
C391 C390 1.387 . S
C391 C393 1.387 . S
H392 C399 0.950 . S
C393 C391 1.387 . S
C393 C395 1.390 . S
C393 H397 0.950 . S
H394 C390 0.950 . S
C395 C393 1.390 . S
C395 C396 1.387 . S
C395 H398 0.950 . S
C396 C395 1.387 . S
C396 C399 1.387 . S
H397 C393 0.950 . S
H398 C395 0.950 . S
C399 C390 1.390 . S
C399 H392 0.950 . S
C399 C396 1.387 . S
C400 C401 1.387 . S
C400 H404 0.950 . S
C400 C409 1.390 . S
C401 C400 1.387 . S
C401 C403 1.387 . S
H402 C409 0.950 . S
C403 C401 1.387 . S
C403 C405 1.390 . S
C403 H407 0.950 . S
H404 C400 0.950 . S
C405 C403 1.390 . S
C405 C406 1.387 . S
C405 H408 0.950 . S
C406 C405 1.387 . S
C406 C409 1.387 . S
H407 C403 0.950 . S
H408 C405 0.950 . S
C409 C400 1.390 . S
C409 H402 0.950 . S
C409 C406 1.387 . S
C410 C411 1.387 . S
C410 H414 0.950 . S
C410 C419 1.390 . S
C411 C410 1.387 . S
C411 C413 1.387 . S
H412 C419 0.950 . S
C413 C411 1.387 . S
C413 C415 1.390 . S
C413 H417 0.950 . S
H414 C410 0.950 . S
C415 C413 1.390 . S
C415 C416 1.387 . S
C415 H418 0.950 . S
C416 C415 1.387 . S
C416 C419 1.387 . S
H417 C413 0.950 . S
H418 C415 0.950 . S
C419 C410 1.390 . S
C419 H412 0.950 . S
C419 C416 1.387 . S
C420 C421 1.387 . S
C420 H424 0.950 . S
C420 C429 1.390 . S
C421 C420 1.387 . S
C421 C423 1.387 . S
H422 C429 0.950 . S
C423 C421 1.387 . S
C423 C425 1.390 . S
C423 H427 0.950 . S
H424 C420 0.950 . S
C425 C423 1.390 . S
C425 C426 1.387 . S
C425 H428 0.950 . S
C426 C425 1.387 . S
C426 C429 1.387 . S
H427 C423 0.950 . S
H428 C425 0.950 . S
C429 C420 1.390 . S
C429 H422 0.950 . S
C429 C426 1.387 . S
C430 C431 1.387 . S
C430 H434 0.950 . S
C430 C439 1.390 . S
C431 C430 1.387 . S
C431 C433 1.387 . S
H432 C439 0.950 . S
C433 C431 1.387 . S
C433 C435 1.390 . S
C433 H437 0.950 . S
H434 C430 0.950 . S
C435 C433 1.390 . S
C435 C436 1.387 . S
C435 H438 0.950 . S
C436 C435 1.387 . S
C436 C439 1.387 . S
H437 C433 0.950 . S
H438 C435 0.950 . S
C439 C430 1.390 . S
C439 H432 0.950 . S
C439 C436 1.387 . S
C440 C441 1.387 . S
C440 H444 0.950 . S
C440 C449 1.390 . S
C441 C440 1.387 . S
C441 C443 1.387 . S
H442 C449 0.950 . S
C443 C441 1.387 . S
C443 C445 1.390 . S
C443 H447 0.950 . S
H444 C440 0.950 . S
C445 C443 1.390 . S
C445 C446 1.387 . S
C445 H448 0.950 . S
C446 C445 1.387 . S
C446 C449 1.387 . S
H447 C443 0.950 . S
H448 C445 0.950 . S
C449 C440 1.390 . S
C449 H442 0.950 . S
C449 C446 1.387 . S
C450 C451 1.387 . S
C450 H454 0.950 1_554 S
C450 C459 1.390 . S
C451 C450 1.387 . S
C451 C453 1.387 . S
H452 C459 0.950 1_556 S
C453 C451 1.387 . S
C453 C455 1.390 . S
C453 H457 0.950 . S
H454 C450 0.950 1_556 S
C455 C453 1.390 . S
C455 C456 1.387 . S
C455 H458 0.950 . S
C456 C455 1.387 . S
C456 C459 1.387 . S
H457 C453 0.950 . S
H458 C455 0.950 . S
C459 C450 1.390 . S
C459 H452 0.950 1_554 S
C459 C456 1.387 . S
C460 C461 1.387 . S
C460 H464 0.950 . S
C460 C469 1.390 . S
C461 C460 1.387 . S
C461 C463 1.387 . S
H462 C469 0.950 . S
C463 C461 1.387 . S
C463 C465 1.390 . S
C463 H467 0.950 . S
H464 C460 0.950 . S
C465 C463 1.390 . S
C465 C466 1.387 . S
C465 H468 0.950 . S
C466 C465 1.387 . S
C466 C469 1.387 . S
H467 C463 0.950 . S
H468 C465 0.950 . S
C469 C460 1.390 . S
C469 H462 0.950 . S
C469 C466 1.387 . S
C470 C471 1.387 . S
C470 H474 0.950 . S
C470 C479 1.390 . S
C471 C470 1.387 . S
C471 C473 1.387 . S
H472 C479 0.950 . S
C473 C471 1.387 . S
C473 C475 1.390 . S
C473 H477 0.950 . S
H474 C470 0.950 . S
C475 C473 1.390 . S
C475 C476 1.387 . S
C475 H478 0.950 . S
C476 C475 1.387 . S
C476 C479 1.387 . S
H477 C473 0.950 . S
H478 C475 0.950 . S
C479 C470 1.390 . S
C479 H472 0.950 . S
C479 C476 1.387 . S
C480 C481 1.387 . S
C480 H484 0.950 . S
C480 C489 1.390 . S
C481 C480 1.387 . S
C481 C483 1.387 . S
H482 C489 0.950 . S
C483 C481 1.387 . S
C483 C485 1.390 . S
C483 H487 0.950 . S
H484 C480 0.950 . S
C485 C483 1.390 . S
C485 C486 1.387 . S
C485 H488 0.950 . S
C486 C485 1.387 . S
C486 C489 1.387 . S
H487 C483 0.950 . S
H488 C485 0.950 . S
C489 C480 1.390 . S
C489 H482 0.950 . S
C489 C486 1.387 . S
C490 C491 1.387 . S
C490 H494 0.950 . S
C490 C499 1.390 . S
C491 C490 1.387 . S
C491 C493 1.387 . S
H492 C499 0.950 . S
C493 C491 1.387 . S
C493 C495 1.390 . S
C493 H497 0.950 . S
H494 C490 0.950 . S
C495 C493 1.390 . S
C495 C496 1.387 . S
C495 H498 0.950 . S
C496 C495 1.387 . S
C496 C499 1.387 . S
H497 C493 0.950 . S
H498 C495 0.950 . S
C499 C490 1.390 . S
C499 H492 0.950 . S
C499 C496 1.387 . S
C500 C501 1.387 . S
C500 H504 0.950 . S
C500 C509 1.390 . S
C501 C500 1.387 . S
C501 C503 1.387 . S
H502 C509 0.950 . S
C503 C501 1.387 . S
C503 C505 1.390 . S
C503 H507 0.950 . S
H504 C500 0.950 . S
C505 C503 1.390 . S
C505 C506 1.387 . S
C505 H508 0.950 . S
C506 C505 1.387 . S
C506 C509 1.387 . S
H507 C503 0.950 . S
H508 C505 0.950 . S
C509 C500 1.390 . S
C509 H502 0.950 . S
C509 C506 1.387 . S
C510 C511 1.387 . S
C510 H514 0.950 . S
C510 C519 1.390 . S
C511 C510 1.387 . S
C511 C513 1.387 . S
H512 C519 0.950 . S
C513 C511 1.387 . S
C513 C515 1.390 1_556 S
C513 H517 0.950 . S
H514 C510 0.950 . S
C515 C513 1.390 1_554 S
C515 C516 1.387 . S
C515 H518 0.950 . S
C516 C515 1.387 . S
C516 C519 1.387 1_554 S
H517 C513 0.950 . S
H518 C515 0.950 . S
C519 C510 1.390 . S
C519 H512 0.950 . S
C519 C516 1.387 1_556 S
C520 C521 1.387 . S
C520 H524 0.950 . S
C520 C529 1.390 . S
C521 C520 1.387 . S
C521 C523 1.387 . S
H522 C529 0.950 . S
C523 C521 1.387 . S
C523 C525 1.390 . S
C523 H527 0.950 . S
H524 C520 0.950 . S
C525 C523 1.390 . S
C525 C526 1.387 . S
C525 H528 0.950 . S
C526 C525 1.387 . S
C526 C529 1.387 . S
H527 C523 0.950 . S
H528 C525 0.950 . S
C529 C520 1.390 . S
C529 H522 0.950 . S
C529 C526 1.387 . S
C530 C531 1.387 . S
C530 H534 0.950 . S
C530 C539 1.390 . S
C531 C530 1.387 . S
C531 C533 1.387 . S
H532 C539 0.950 . S
C533 C531 1.387 . S
C533 C535 1.390 . S
C533 H537 0.950 . S
H534 C530 0.950 . S
C535 C533 1.390 . S
C535 C536 1.387 . S
C535 H538 0.950 . S
C536 C535 1.387 . S
C536 C539 1.387 . S
H537 C533 0.950 . S
H538 C535 0.950 . S
C539 C530 1.390 . S
C539 H532 0.950 . S
C539 C536 1.387 . S
C540 C541 1.387 . S
C540 H544 0.950 . S
C540 C549 1.390 . S
C541 C540 1.387 . S
C541 C543 1.387 . S
H542 C549 0.950 . S
C543 C541 1.387 . S
C543 C545 1.390 . S
C543 H547 0.950 . S
H544 C540 0.950 . S
C545 C543 1.390 . S
C545 C546 1.387 . S
C545 H548 0.950 . S
C546 C545 1.387 . S
C546 C549 1.387 . S
H547 C543 0.950 . S
H548 C545 0.950 . S
C549 C540 1.390 . S
C549 H542 0.950 . S
C549 C546 1.387 . S
C550 C551 1.387 . S
C550 H554 0.950 . S
C550 C559 1.390 . S
C551 C550 1.387 . S
C551 C553 1.387 . S
H552 C559 0.950 . S
C553 C551 1.387 . S
C553 C555 1.390 . S
C553 H557 0.950 . S
H554 C550 0.950 . S
C555 C553 1.390 . S
C555 C556 1.387 . S
C555 H558 0.950 . S
C556 C555 1.387 . S
C556 C559 1.387 . S
H557 C553 0.950 . S
H558 C555 0.950 . S
C559 C550 1.390 . S
C559 H552 0.950 . S
C559 C556 1.387 . S
C560 C561 1.387 . S
C560 H564 0.950 . S
C560 C569 1.390 . S
C561 C560 1.387 . S
C561 C563 1.387 . S
H562 C569 0.950 . S
C563 C561 1.387 . S
C563 C565 1.390 . S
C563 H567 0.950 . S
H564 C560 0.950 . S
C565 C563 1.390 . S
C565 C566 1.387 . S
C565 H568 0.950 . S
C566 C565 1.387 . S
C566 C569 1.387 . S
H567 C563 0.950 . S
H568 C565 0.950 . S
C569 C560 1.390 . S
C569 H562 0.950 . S
C569 C566 1.387 . S
C570 C571 1.387 . S
C570 H574 0.950 . S
C570 C579 1.390 . S
C571 C570 1.387 . S
C571 C573 1.387 . S
H572 C579 0.950 . S
C573 C571 1.387 . S
C573 C575 1.390 . S
C573 H577 0.950 . S
H574 C570 0.950 . S
C575 C573 1.390 . S
C575 C576 1.387 . S
C575 H578 0.950 . S
C576 C575 1.387 . S
C576 C579 1.387 . S
H577 C573 0.950 . S
H578 C575 0.950 . S
C579 C570 1.390 . S
C579 H572 0.950 . S
C579 C576 1.387 . S
C580 C581 1.387 . S
C580 H584 0.950 . S
C580 C589 1.390 1_554 S
C581 C580 1.387 . S
C581 C583 1.387 . S
H582 C589 0.950 . S
C583 C581 1.387 . S
C583 C585 1.390 1_554 S
C583 H587 0.950 . S
H584 C580 0.950 . S
C585 C583 1.390 1_556 S
C585 C586 1.387 . S
C585 H588 0.950 . S
C586 C585 1.387 . S
C586 C589 1.387 . S
H587 C583 0.950 . S
H588 C585 0.950 . S
C589 C580 1.390 1_556 S
C589 H582 0.950 . S
C589 C586 1.387 . S
C590 C591 1.387 . S
C590 H594 0.950 . S
C590 C599 1.390 . S
C591 C590 1.387 . S
C591 C593 1.387 . S
H592 C599 0.950 . S
C593 C591 1.387 . S
C593 C595 1.390 . S
C593 H597 0.950 . S
H594 C590 0.950 . S
C595 C593 1.390 . S
C595 C596 1.387 . S
C595 H598 0.950 . S
C596 C595 1.387 . S
C596 C599 1.387 . S
H597 C593 0.950 . S
H598 C595 0.950 . S
C599 C590 1.390 . S
C599 H592 0.950 . S
C599 C596 1.387 . S
C366 C353 1.626 . S
C361 C15 1.591 . S
C371 C61 1.477 . S
C376 C282 1.450 . S
C381 C114 1.592 . S
C386 C296 1.627 . S
C391 C139 1.477 . S
C396 C310 1.451 . S
C406 C324 1.626 . S
C401 C185 1.608 . S
C411 C245 1.477 . S
C416 C339 1.449 . S
C421 C47 1.477 . S
C426 C297 1.450 . S
C431 C100 1.608 . S
C436 C311 1.626 . S
C441 C153 1.476 . S
C446 C325 1.450 . S
C456 C338 1.626 . S
C451 C199 1.591 . S
C466 C352 1.451 . S
C461 C231 1.477 . S
C476 C283 1.626 . S
C471 C1 1.611 . S
C481 C22 1.489 . S
C486 C299 1.471 . S
C491 C68 1.676 . S
C496 C313 1.661 . S
C506 C327 1.472 . S
C501 C107 1.488 . S
C511 C146 1.697 . S
C516 C340 1.661 . S
C526 C354 1.471 . S
C521 C192 1.490 . S
C536 C285 1.661 . S
C531 C252 1.676 . S
C546 C355 1.661 . S
C541 C54 1.697 . S
C551 C93 1.491 . S
C556 C284 1.472 . S
C566 C298 1.663 . S
C561 C160 1.678 . S
C571 C206 1.489 . S
C576 C312 1.470 . S
C581 C238 1.698 . S
C586 C326 1.662 . S
C591 C8 1.491 . S
C596 C341 1.471 . S
