# Generated by pormake.
# Topology ptr, (4,4)-cn, num edge types: 1
# Building blocks:
#     Node 0, Type 0, BuildingBlock: GALJAG_clean_sbu_0, # of connection points: 4
#     Node 1, Type 0, BuildingBlock: GALJAG_clean_sbu_0, # of connection points: 4
#     Node 2, Type 0, BuildingBlock: GALJAG_clean_sbu_0, # of connection points: 4
#     Node 3, Type 0, BuildingBlock: GALJAG_clean_sbu_0, # of connection points: 4
#     Node 4, Type 0, BuildingBlock: GALJAG_clean_sbu_0, # of connection points: 4
#     Node 5, Type 0, BuildingBlock: GALJAG_clean_sbu_0, # of connection points: 4
#     Node 6, Type 0, BuildingBlock: GALJAG_clean_sbu_0, # of connection points: 4
#     Node 7, Type 0, BuildingBlock: GALJAG_clean_sbu_0, # of connection points: 4
#     Node 8, Type 0, BuildingBlock: GALJAG_clean_sbu_0, # of connection points: 4
#     Node 9, Type 0, BuildingBlock: GALJAG_clean_sbu_0, # of connection points: 4
#     Node 10, Type 0, BuildingBlock: GALJAG_clean_sbu_0, # of connection points: 4
#     Node 11, Type 0, BuildingBlock: GALJAG_clean_sbu_0, # of connection points: 4
#     Node 12, Type 0, BuildingBlock: GALJAG_clean_sbu_0, # of connection points: 4
#     Node 13, Type 0, BuildingBlock: GALJAG_clean_sbu_0, # of connection points: 4
#     Node 14, Type 0, BuildingBlock: GALJAG_clean_sbu_0, # of connection points: 4
#     Node 15, Type 0, BuildingBlock: GALJAG_clean_sbu_0, # of connection points: 4
#     Node 16, Type 0, BuildingBlock: GALJAG_clean_sbu_0, # of connection points: 4
#     Node 17, Type 0, BuildingBlock: GALJAG_clean_sbu_0, # of connection points: 4
#     Node 18, Type 1, BuildingBlock: AZAVOO_clean_linker_0, # of connection points: 4
#     Node 19, Type 1, BuildingBlock: AZAVOO_clean_linker_0, # of connection points: 4
#     Node 20, Type 1, BuildingBlock: AZAVOO_clean_linker_0, # of connection points: 4
#     Node 21, Type 1, BuildingBlock: AZAVOO_clean_linker_0, # of connection points: 4
#     Node 22, Type 1, BuildingBlock: AZAVOO_clean_linker_0, # of connection points: 4
#     Node 23, Type 1, BuildingBlock: AZAVOO_clean_linker_0, # of connection points: 4
#     Node 24, Type 1, BuildingBlock: AZAVOO_clean_linker_0, # of connection points: 4
#     Node 25, Type 1, BuildingBlock: AZAVOO_clean_linker_0, # of connection points: 4
#     Node 26, Type 1, BuildingBlock: AZAVOO_clean_linker_0, # of connection points: 4
#     Node 27, Type 1, BuildingBlock: AZAVOO_clean_linker_0, # of connection points: 4
#     Node 28, Type 1, BuildingBlock: AZAVOO_clean_linker_0, # of connection points: 4
#     Node 29, Type 1, BuildingBlock: AZAVOO_clean_linker_0, # of connection points: 4
#     Node 30, Type 1, BuildingBlock: AZAVOO_clean_linker_0, # of connection points: 4
#     Node 31, Type 1, BuildingBlock: AZAVOO_clean_linker_0, # of connection points: 4
#     Node 32, Type 1, BuildingBlock: AZAVOO_clean_linker_0, # of connection points: 4
#     Node 33, Type 1, BuildingBlock: AZAVOO_clean_linker_0, # of connection points: 4
#     Node 34, Type 1, BuildingBlock: AZAVOO_clean_linker_0, # of connection points: 4
#     Node 35, Type 1, BuildingBlock: AZAVOO_clean_linker_0, # of connection points: 4
#     Edge 36, Type (0, 1), BuildingBlock: XIVTED_clean_linker_0, # of connection points: 2
#     Edge 37, Type (0, 1), BuildingBlock: XIVTED_clean_linker_0, # of connection points: 2
#     Edge 38, Type (0, 1), BuildingBlock: XIVTED_clean_linker_0, # of connection points: 2
#     Edge 39, Type (0, 1), BuildingBlock: XIVTED_clean_linker_0, # of connection points: 2
#     Edge 40, Type (0, 1), BuildingBlock: XIVTED_clean_linker_0, # of connection points: 2
#     Edge 41, Type (0, 1), BuildingBlock: XIVTED_clean_linker_0, # of connection points: 2
#     Edge 42, Type (0, 1), BuildingBlock: XIVTED_clean_linker_0, # of connection points: 2
#     Edge 43, Type (0, 1), BuildingBlock: XIVTED_clean_linker_0, # of connection points: 2
#     Edge 44, Type (0, 1), BuildingBlock: XIVTED_clean_linker_0, # of connection points: 2
#     Edge 45, Type (0, 1), BuildingBlock: XIVTED_clean_linker_0, # of connection points: 2
#     Edge 46, Type (0, 1), BuildingBlock: XIVTED_clean_linker_0, # of connection points: 2
#     Edge 47, Type (0, 1), BuildingBlock: XIVTED_clean_linker_0, # of connection points: 2
#     Edge 48, Type (0, 1), BuildingBlock: XIVTED_clean_linker_0, # of connection points: 2
#     Edge 49, Type (0, 1), BuildingBlock: XIVTED_clean_linker_0, # of connection points: 2
#     Edge 50, Type (0, 1), BuildingBlock: XIVTED_clean_linker_0, # of connection points: 2
#     Edge 51, Type (0, 1), BuildingBlock: XIVTED_clean_linker_0, # of connection points: 2
#     Edge 52, Type (0, 1), BuildingBlock: XIVTED_clean_linker_0, # of connection points: 2
#     Edge 53, Type (0, 1), BuildingBlock: XIVTED_clean_linker_0, # of connection points: 2
#     Edge 54, Type (0, 1), BuildingBlock: XIVTED_clean_linker_0, # of connection points: 2
#     Edge 55, Type (0, 1), BuildingBlock: XIVTED_clean_linker_0, # of connection points: 2
#     Edge 56, Type (0, 1), BuildingBlock: XIVTED_clean_linker_0, # of connection points: 2
#     Edge 57, Type (0, 1), BuildingBlock: XIVTED_clean_linker_0, # of connection points: 2
#     Edge 58, Type (0, 1), BuildingBlock: XIVTED_clean_linker_0, # of connection points: 2
#     Edge 59, Type (0, 1), BuildingBlock: XIVTED_clean_linker_0, # of connection points: 2
#     Edge 60, Type (0, 1), BuildingBlock: XIVTED_clean_linker_0, # of connection points: 2
#     Edge 61, Type (0, 1), BuildingBlock: XIVTED_clean_linker_0, # of connection points: 2
#     Edge 62, Type (0, 1), BuildingBlock: XIVTED_clean_linker_0, # of connection points: 2
#     Edge 63, Type (0, 1), BuildingBlock: XIVTED_clean_linker_0, # of connection points: 2
#     Edge 64, Type (0, 1), BuildingBlock: XIVTED_clean_linker_0, # of connection points: 2
#     Edge 65, Type (0, 1), BuildingBlock: XIVTED_clean_linker_0, # of connection points: 2
#     Edge 66, Type (0, 1), BuildingBlock: XIVTED_clean_linker_0, # of connection points: 2
#     Edge 67, Type (0, 1), BuildingBlock: XIVTED_clean_linker_0, # of connection points: 2
#     Edge 68, Type (0, 1), BuildingBlock: XIVTED_clean_linker_0, # of connection points: 2
#     Edge 69, Type (0, 1), BuildingBlock: XIVTED_clean_linker_0, # of connection points: 2
#     Edge 70, Type (0, 1), BuildingBlock: XIVTED_clean_linker_0, # of connection points: 2
#     Edge 71, Type (0, 1), BuildingBlock: XIVTED_clean_linker_0, # of connection points: 2
#     Edge 72, Type (0, 1), BuildingBlock: XIVTED_clean_linker_0, # of connection points: 2
#     Edge 73, Type (0, 1), BuildingBlock: XIVTED_clean_linker_0, # of connection points: 2
#     Edge 74, Type (0, 1), BuildingBlock: XIVTED_clean_linker_0, # of connection points: 2
#     Edge 75, Type (0, 1), BuildingBlock: XIVTED_clean_linker_0, # of connection points: 2
#     Edge 76, Type (0, 1), BuildingBlock: XIVTED_clean_linker_0, # of connection points: 2
#     Edge 77, Type (0, 1), BuildingBlock: XIVTED_clean_linker_0, # of connection points: 2
#     Edge 78, Type (0, 1), BuildingBlock: XIVTED_clean_linker_0, # of connection points: 2
#     Edge 79, Type (0, 1), BuildingBlock: XIVTED_clean_linker_0, # of connection points: 2
#     Edge 80, Type (0, 1), BuildingBlock: XIVTED_clean_linker_0, # of connection points: 2
#     Edge 81, Type (0, 1), BuildingBlock: XIVTED_clean_linker_0, # of connection points: 2
#     Edge 82, Type (0, 1), BuildingBlock: XIVTED_clean_linker_0, # of connection points: 2
#     Edge 83, Type (0, 1), BuildingBlock: XIVTED_clean_linker_0, # of connection points: 2
#     Edge 84, Type (0, 1), BuildingBlock: XIVTED_clean_linker_0, # of connection points: 2
#     Edge 85, Type (0, 1), BuildingBlock: XIVTED_clean_linker_0, # of connection points: 2
#     Edge 86, Type (0, 1), BuildingBlock: XIVTED_clean_linker_0, # of connection points: 2
#     Edge 87, Type (0, 1), BuildingBlock: XIVTED_clean_linker_0, # of connection points: 2
#     Edge 88, Type (0, 1), BuildingBlock: XIVTED_clean_linker_0, # of connection points: 2
#     Edge 89, Type (0, 1), BuildingBlock: XIVTED_clean_linker_0, # of connection points: 2
#     Edge 90, Type (0, 1), BuildingBlock: XIVTED_clean_linker_0, # of connection points: 2
#     Edge 91, Type (0, 1), BuildingBlock: XIVTED_clean_linker_0, # of connection points: 2
#     Edge 92, Type (0, 1), BuildingBlock: XIVTED_clean_linker_0, # of connection points: 2
#     Edge 93, Type (0, 1), BuildingBlock: XIVTED_clean_linker_0, # of connection points: 2
#     Edge 94, Type (0, 1), BuildingBlock: XIVTED_clean_linker_0, # of connection points: 2
#     Edge 95, Type (0, 1), BuildingBlock: XIVTED_clean_linker_0, # of connection points: 2
#     Edge 96, Type (0, 1), BuildingBlock: XIVTED_clean_linker_0, # of connection points: 2
#     Edge 97, Type (0, 1), BuildingBlock: XIVTED_clean_linker_0, # of connection points: 2
#     Edge 98, Type (0, 1), BuildingBlock: XIVTED_clean_linker_0, # of connection points: 2
#     Edge 99, Type (0, 1), BuildingBlock: XIVTED_clean_linker_0, # of connection points: 2
#     Edge 100, Type (0, 1), BuildingBlock: XIVTED_clean_linker_0, # of connection points: 2
#     Edge 101, Type (0, 1), BuildingBlock: XIVTED_clean_linker_0, # of connection points: 2
#     Edge 102, Type (0, 1), BuildingBlock: XIVTED_clean_linker_0, # of connection points: 2
#     Edge 103, Type (0, 1), BuildingBlock: XIVTED_clean_linker_0, # of connection points: 2
#     Edge 104, Type (0, 1), BuildingBlock: XIVTED_clean_linker_0, # of connection points: 2
#     Edge 105, Type (0, 1), BuildingBlock: XIVTED_clean_linker_0, # of connection points: 2
#     Edge 106, Type (0, 1), BuildingBlock: XIVTED_clean_linker_0, # of connection points: 2
#     Edge 107, Type (0, 1), BuildingBlock: XIVTED_clean_linker_0, # of connection points: 2
# Relax obj value: 0.032
# Max RMSD: 0.163
# Mean RMSD: 0.100
data_MOF--net-ptr--node1-GALJAG_clean_sbu_0--node2-AZAVOO_clean_linker_0--edge1-XIVTED_clean_linker_0
_symmetry_space_group_name_H-M    P1
_symmetry_Int_Tables_number       1
_symmetry_cell_setting            triclinic
loop_
_symmetry_equiv_pos_as_xyz
'x, y, z'
_cell_length_a     80.837219
_cell_length_b     79.326157
_cell_length_c     72.602347
_cell_angle_alpha  92.701509
_cell_angle_beta   92.438438
_cell_angle_gamma 120.19624
loop_
_atom_site_label
_atom_site_type_symbol
_atom_site_fract_x
_atom_site_fract_y
_atom_site_fract_z
_atom_type_partial_charge
In0 In 0.00433 0.36454 0.01483 0.0
O1 O 0.98386 0.36715 0.0341 0.0
O2 O 0.01104 0.39238 0.03182 0.0
C3 C 0.98078 0.32859 0.99846 0.0
C4 C 0.02818 0.3576 0.03602 0.0
C5 C 0.01068 0.38453 0.98444 0.0
O6 O 0.97517 0.33705 0.00963 0.0
O7 O 0.99835 0.33833 0.99549 0.0
O8 O 0.02429 0.38548 0.99456 0.0
O9 O 0.99416 0.3736 0.98966 0.0
C10 C 0.99524 0.38496 0.03908 0.0
O11 O 0.03437 0.37088 0.02491 0.0
O12 O 0.01021 0.348 0.03635 0.0
In13 In 0.62982 0.61576 0.0556 0.0
O14 O 0.62185 0.58891 0.07211 0.0
O15 O 0.60981 0.60661 0.07873 0.0
C16 C 0.66083 0.61566 0.04307 0.0
C17 C 0.6421 0.6519 0.07124 0.0
C18 C 0.60708 0.60889 0.0245 0.0
O19 O 0.66201 0.62755 0.05588 0.0
O20 O 0.6439 0.60299 0.03726 0.0
O21 O 0.62334 0.62408 0.0278 0.0
O22 O 0.60201 0.5972 0.03709 0.0
C23 C 0.6112 0.59198 0.08228 0.0
O24 O 0.62922 0.64417 0.05803 0.0
O25 O 0.64866 0.64135 0.07657 0.0
In26 In 0.38408 0.9958 0.01518 0.0
O27 O 0.38885 0.02628 0.0116 0.0
O28 O 0.36298 0.00156 0.99931 0.0
C29 C 0.41009 0.00299 0.04357 0.0
C30 C 0.39801 0.9903 0.98375 0.0
C31 C 0.35147 0.97215 0.0308 0.0
O32 O 0.4052 0.01524 0.03946 0.0
O33 O 0.40228 0.98744 0.03308 0.0
O34 O 0.35855 0.96535 0.01949 0.0
O35 O 0.36094 0.99045 0.03424 0.0
C36 C 0.37299 0.01994 0.00225 0.0
O37 O 0.38487 0.97612 0.99128 0.0
O38 O 0.40422 0.00681 0.99227 0.0
In39 In 0.99801 0.638 0.04055 0.0
O40 O 0.01694 0.63327 0.02072 0.0
O41 O 0.98785 0.61071 0.02136 0.0
C42 C 0.02232 0.67351 0.05753 0.0
C43 C 0.97456 0.64671 0.02111 0.0
C44 C 0.99253 0.61656 0.0698 0.0
O45 O 0.02776 0.66494 0.0463 0.0
O46 O 0.00461 0.66425 0.05996 0.0
O47 O 0.97866 0.61618 0.06066 0.0
O48 O 0.0088 0.62757 0.06412 0.0
C49 C 0.00369 0.61648 0.01444 0.0
O50 O 0.96893 0.63561 0.03422 0.0
O51 O 0.9919 0.65333 0.01794 0.0
In52 In 0.36999 0.37943 0.99718 0.0
O53 O 0.37127 0.40079 0.97614 0.0
O54 O 0.39687 0.40079 0.98415 0.0
C55 C 0.33649 0.36739 0.01243 0.0
C56 C 0.36146 0.34761 0.97491 0.0
C57 C 0.39186 0.39291 0.02935 0.0
O58 O 0.34449 0.383 0.00421 0.0
O59 O 0.34535 0.35808 0.01275 0.0
O60 O 0.38996 0.37823 0.01976 0.0
O61 O 0.38293 0.40072 0.02258 0.0
C62 C 0.38901 0.40793 0.97441 0.0
O63 O 0.3758 0.35542 0.98664 0.0
O64 O 0.35173 0.356 0.9743 0.0
In65 In 0.61628 0.00459 0.04057 0.0
O66 O 0.61426 0.02324 0.06457 0.0
O67 O 0.5917 0.99362 0.05887 0.0
C68 C 0.65009 0.02638 0.02614 0.0
C69 C 0.62579 0.98062 0.05662 0.0
C70 C 0.59244 -0.00028 0.01122 0.0
O71 O 0.64344 0.03409 0.03701 0.0
O72 O 0.63968 0.00814 0.02275 0.0
O73 O 0.59346 0.98555 0.01729 0.0
O74 O 0.6031 0.01603 0.0202 0.0
C75 C 0.5985 0.00931 0.0691 0.0
O76 O 0.61476 0.97513 0.04195 0.0
O77 O 0.63174 0.99795 0.06304 0.0
In78 In 0.67212 0.69929 0.34559 0.0
O79 O 0.6519 0.7056 0.36178 0.0
O80 O 0.68109 0.71866 0.37234 0.0
C81 C 0.64411 0.66646 0.32649 0.0
C82 C 0.69424 0.68772 0.3634 0.0
C83 C 0.68516 0.72633 0.32036 0.0
O84 O 0.64109 0.67401 0.34068 0.0
O85 O 0.6611 0.67559 0.32185 0.0
O86 O 0.69012 0.71365 0.32134 0.0
O87 O 0.67384 0.72551 0.33214 0.0
C88 C 0.66468 0.7164 0.37442 0.0
O89 O 0.70121 0.70282 0.3545 0.0
O90 O 0.67617 0.67842 0.36313 0.0
In91 In 0.29634 0.94693 0.39241 0.0
O92 O 0.29325 0.93935 0.42237 0.0
O93 O 0.27678 0.9161 0.40198 0.0
C94 C 0.32786 0.94734 0.38071 0.0
C95 C 0.30318 0.98132 0.40862 0.0
C96 C 0.27558 0.9424 0.36046 0.0
O97 O 0.31169 0.93184 0.37971 0.0
O98 O 0.32809 0.9621 0.38812 0.0
O99 O 0.26779 0.93406 0.37466 0.0
O100 O 0.29356 0.95328 0.36264 0.0
C101 C 0.28113 0.92149 0.41896 0.0
O102 O 0.28813 0.97038 0.39825 0.0
O103 O 0.31443 0.9748 0.41078 0.0
In104 In 0.05842 0.33212 0.35059 0.0
O105 O 0.06158 0.36207 0.34704 0.0
O106 O 0.03954 0.33734 0.33058 0.0
C107 C 0.08415 0.33996 0.37923 0.0
C108 C 0.07404 0.32458 0.32153 0.0
C109 C 0.0262 0.31046 0.36767 0.0
O110 O 0.08133 0.35293 0.37286 0.0
O111 O 0.07433 0.32316 0.37084 0.0
O112 O 0.03136 0.3029 0.35506 0.0
O113 O 0.03737 0.32853 0.37157 0.0
C114 C 0.04768 0.35549 0.33487 0.0
O115 O 0.05828 0.31168 0.32703 0.0
O116 O 0.08193 0.34083 0.33097 0.0
In117 In 0.66276 0.96467 0.37337 0.0
O118 O 0.6835 0.96343 0.35373 0.0
O119 O 0.655 0.93904 0.35269 0.0
C120 C 0.68746 -0.00067 0.39221 0.0
C121 C 0.63955 0.97203 0.35189 0.0
C122 C 0.65277 0.93909 0.39979 0.0
O123 O 0.69274 0.988 0.3855 0.0
O124 O 0.66983 0.9933 0.38934 0.0
O125 O 0.64194 0.94532 0.3943 0.0
O126 O 0.66832 0.94592 0.39218 0.0
C127 C 0.67138 0.94656 0.34647 0.0
O128 O 0.63402 0.96273 0.36619 0.0
O129 O 0.65668 0.97761 0.34858 0.0
In130 In 0.04187 0.71763 0.33576 0.0
O131 O 0.04052 0.73756 0.31429 0.0
O132 O 0.06768 0.74169 0.32355 0.0
C133 C 0.01091 0.70811 0.35491 0.0
C134 C 0.0335 0.68585 0.3132 0.0
C135 C 0.06673 0.72968 0.36579 0.0
O136 O 0.01578 0.72043 0.34283 0.0
O137 O 0.0215 0.70083 0.35705 0.0
O138 O 0.06065 0.71325 0.35698 0.0
O139 O 0.06034 0.74001 0.35935 0.0
C140 C 0.0585 0.74701 0.31328 0.0
O141 O 0.04985 0.69665 0.3215 0.0
O142 O 0.02148 0.69113 0.31618 0.0
In143 In 0.27657 0.33589 0.37391 0.0
O144 O 0.27196 0.30589 0.37986 0.0
O145 O 0.29574 0.33116 0.39404 0.0
C146 C 0.25068 0.32519 0.34477 0.0
C147 C 0.26215 0.34601 0.40239 0.0
C148 C 0.30849 0.35713 0.35626 0.0
O149 O 0.255 0.31346 0.35167 0.0
O150 O 0.25916 0.34222 0.35279 0.0
O151 O 0.3013 0.36523 0.36584 0.0
O152 O 0.29948 0.33873 0.3556 0.0
C153 C 0.2866 0.31278 0.39116 0.0
O154 O 0.27889 0.35725 0.39769 0.0
O155 O 0.25277 0.33007 0.39253 0.0
In156 In 0.33592 0.03383 0.67891 0.0
O157 O 0.3608 0.04522 0.70136 0.0
O158 O 0.35328 0.01907 0.68532 0.0
C159 C 0.34573 0.05559 0.64945 0.0
C160 C 0.32067 0.04776 0.70343 0.0
C161 C 0.31007 0.99764 0.66417 0.0
O162 O 0.35802 0.05799 0.66218 0.0
O163 O 0.3288 0.04252 0.65173 0.0
O164 O 0.30587 0.00682 0.676 0.0
O165 O 0.32723 0.0067 0.65992 0.0
C166 C 0.36381 0.03125 0.69843 0.0
O167 O 0.31839 0.03082 0.70368 0.0
O168 O 0.33027 0.05747 0.6906 0.0
In169 In 0.96045 0.27905 0.72185 0.0
O170 O 0.95194 0.30227 0.72686 0.0
O171 O 0.97212 0.30189 0.74631 0.0
C172 C 0.93917 0.26351 0.68952 0.0
C173 C 0.94544 0.25062 0.74556 0.0
C174 C 0.99526 0.29442 0.70832 0.0
O175 O 0.93626 0.27414 0.70089 0.0
O176 O 0.95243 0.26038 0.69472 0.0
O177 O 0.98784 0.27851 0.71602 0.0
O178 O 0.98524 0.30249 0.70773 0.0
C179 C 0.96279 0.30998 0.7415 0.0
O180 O 0.9632 0.26268 0.74589 0.0
O181 O 0.93539 0.2526 0.73308 0.0
In182 In 0.71928 0.66314 0.68041 0.0
O183 O 0.72217 0.69314 0.67778 0.0
O184 O 0.70162 0.66904 0.6596 0.0
C185 C 0.74392 0.6693 0.70954 0.0
C186 C 0.73494 0.65524 0.65164 0.0
C187 C 0.68659 0.64198 0.6969 0.0
O188 O 0.74301 0.68316 0.7026 0.0
O189 O 0.73287 0.65258 0.7014 0.0
O190 O 0.692 0.63413 0.68483 0.0
O191 O 0.69766 0.66012 0.70048 0.0
C192 C 0.70907 0.68694 0.66479 0.0
O193 O 0.71885 0.64265 0.6568 0.0
O194 O 0.74313 0.6714 0.66126 0.0
In195 In 0.33326 0.30191 0.70543 0.0
O196 O 0.35333 0.29861 0.68636 0.0
O197 O 0.32389 0.27612 0.68439 0.0
C198 C 0.35779 0.33656 0.72411 0.0
C199 C 0.3104 0.3112 0.68569 0.0
C200 C 0.32573 0.27677 0.73187 0.0
O201 O 0.3631 0.32861 0.71212 0.0
O202 O 0.34012 0.32713 0.72654 0.0
O203 O 0.31285 0.27946 0.72456 0.0
O204 O 0.34208 0.28681 0.72595 0.0
C205 C 0.34035 0.28236 0.67864 0.0
O206 O 0.30523 0.30208 0.70011 0.0
O207 O 0.32696 0.31557 0.68137 0.0
In208 In 0.70629 0.0476 0.66518 0.0
O209 O 0.71057 0.07053 0.64486 0.0
O210 O 0.73116 0.06136 0.64706 0.0
C211 C 0.67292 0.03875 0.67958 0.0
C212 C 0.69422 0.01303 0.64618 0.0
C213 C 0.73074 0.06345 0.69577 0.0
O214 O 0.68188 0.05372 0.67067 0.0
O215 O 0.68072 0.0285 0.68094 0.0
O216 O 0.72842 0.04842 0.68655 0.0
O217 O 0.72104 0.07056 0.68936 0.0
C218 C 0.72582 0.07194 0.63936 0.0
O219 O 0.70428 0.01799 0.66141 0.0
O220 O 0.69048 0.02562 0.64045 0.0
In221 In 0.94089 0.66649 0.70576 0.0
O222 O 0.93696 0.63606 0.70767 0.0
O223 O 0.9632 0.66072 0.71911 0.0
C224 C 0.91174 0.6577 0.68052 0.0
C225 C 0.92966 0.67466 0.73781 0.0
C226 C 0.97088 0.6895 0.6865 0.0
O227 O 0.91592 0.64512 0.68534 0.0
O228 O 0.92174 0.67442 0.68901 0.0
O229 O 0.96966 0.69453 0.70295 0.0
O230 O 0.957 0.67325 0.67997 0.0
C231 C 0.95329 0.64237 0.71601 0.0
O232 O 0.93987 0.68794 0.72755 0.0
O233 O 0.92501 0.65761 0.73172 0.0
H234 H 0.16431 0.34333 0.02759 0.0
H235 H 0.26224 0.28386 0.17054 0.0
H236 H 0.1613 0.34951 0.12681 0.0
H237 H 0.13806 0.35654 0.11234 0.0
H238 H 0.09231 0.29862 0.12227 0.0
H239 H 0.11615 0.29129 0.13552 0.0
H240 H 0.18911 0.34687 0.10525 0.0
H241 H 0.18345 0.35085 0.0728 0.0
H242 H 0.13308 0.29296 0.06763 0.0
H243 H 0.13906 0.28908 0.10005 0.0
H244 H 0.2192 0.34508 0.1312 0.0
H245 H 0.24331 0.35269 0.10886 0.0
H246 H 0.2056 0.29725 0.07792 0.0
H247 H 0.18155 0.28964 0.10059 0.0
H248 H 0.21844 0.33622 0.17087 0.0
H249 H 0.24578 0.33273 0.18092 0.0
H250 H 0.21921 0.2761 0.15022 0.0
H251 H 0.19187 0.2797 0.14044 0.0
H252 H 0.18725 0.33874 0.18904 0.0
H253 H 0.19525 0.33782 0.22158 0.0
H254 H 0.17654 0.27635 0.212 0.0
H255 H 0.16912 0.27768 0.17919 0.0
H256 H 0.15467 0.34226 0.17016 0.0
H257 H 0.13747 0.34306 0.19682 0.0
H258 H 0.1158 0.28136 0.20116 0.0
H259 H 0.13257 0.28062 0.17416 0.0
O260 O 0.16634 0.34141 0.04038 0.0
O261 O 0.14052 0.3116 0.03848 0.0
O262 O 0.26461 0.31477 0.1824 0.0
O263 O 0.25159 0.28561 0.1668 0.0
C264 C 0.15526 0.31491 0.13769 0.0
C265 C 0.16793 0.31516 0.12468 0.0
C266 C 0.18376 0.31325 0.13046 0.0
C267 C 0.18648 0.31019 0.14906 0.0
C268 C 0.17357 0.30942 0.16195 0.0
C269 C 0.15785 0.31163 0.15627 0.0
C270 C 0.14044 0.3198 0.13193 0.0
C271 C 0.14622 0.33838 0.12595 0.0
C272 C 0.13281 0.34243 0.11784 0.0
C273 C 0.11318 0.32812 0.11594 0.0
C274 C 0.10732 0.30986 0.12306 0.0
C275 C 0.12086 0.3057 0.13087 0.0
C276 C 0.16461 0.31761 0.10493 0.0
C277 C 0.17697 0.335 0.09703 0.0
C278 C 0.17365 0.33726 0.07852 0.0
C279 C 0.15783 0.3222 0.0676 0.0
C280 C 0.14541 0.30483 0.07563 0.0
C281 C 0.14879 0.30257 0.09413 0.0
C282 C 0.1987 0.31679 0.11753 0.0
C283 C 0.21625 0.33448 0.11972 0.0
C284 C 0.22989 0.33889 0.10684 0.0
C285 C 0.22626 0.32564 0.09155 0.0
C286 C 0.20881 0.30769 0.08961 0.0
C287 C 0.19509 0.30332 0.10249 0.0
C288 C 0.20313 0.30813 0.15507 0.0
C289 C 0.21851 0.32302 0.16644 0.0
C290 C 0.23413 0.32101 0.17211 0.0
C291 C 0.23466 0.3041 0.1664 0.0
C292 C 0.21925 0.28928 0.15489 0.0
C293 C 0.20362 0.2913 0.14927 0.0
C294 C 0.17761 0.30828 0.18182 0.0
C295 C 0.18476 0.32505 0.19403 0.0
C296 C 0.18918 0.32443 0.21266 0.0
C297 C 0.18645 0.30697 0.21949 0.0
C298 C 0.17903 0.29008 0.20719 0.0
C299 C 0.1747 0.29077 0.18848 0.0
C300 C 0.14482 0.31138 0.17021 0.0
C301 C 0.14576 0.32882 0.17656 0.0
C302 C 0.13613 0.32929 0.19194 0.0
C303 C 0.12546 0.31232 0.20128 0.0
C304 C 0.12375 0.29465 0.19424 0.0
C305 C 0.13335 0.2942 0.17883 0.0
C306 C 0.15431 0.32467 0.04795 0.0
C307 C 0.25121 0.30189 0.17238 0.0
H308 H 0.64991 0.81385 0.04608 0.0
H309 H 0.7063 0.97197 0.19973 0.0
H310 H 0.65728 0.80717 0.14565 0.0
H311 H 0.65081 0.776 0.13085 0.0
H312 H 0.71133 0.79539 0.13718 0.0
H313 H 0.7177 0.82678 0.15219 0.0
H314 H 0.65401 0.83609 0.12482 0.0
H315 H 0.64672 0.82549 0.09183 0.0
H316 H 0.70544 0.83962 0.08736 0.0
H317 H 0.71258 0.85037 0.12035 0.0
H318 H 0.65533 0.86768 0.15364 0.0
H319 H 0.64458 0.88604 0.13547 0.0
H320 H 0.69509 0.90739 0.10486 0.0
H321 H 0.70613 0.88931 0.12356 0.0
H322 H 0.66678 0.87485 0.19285 0.0
H323 H 0.66663 0.90407 0.20496 0.0
H324 H 0.71796 0.94024 0.17745 0.0
H325 H 0.71811 0.9109 0.16566 0.0
H326 H 0.67184 0.84019 0.20843 0.0
H327 H 0.67052 0.851 0.23997 0.0
H328 H 0.72255 0.90604 0.23469 0.0
H329 H 0.72457 0.89433 0.20364 0.0
H330 H 0.66984 0.80704 0.18364 0.0
H331 H 0.67353 0.78742 0.20666 0.0
H332 H 0.73108 0.83468 0.22259 0.0
H333 H 0.72773 0.85398 0.19877 0.0
O334 O 0.65314 0.81826 0.05907 0.0
O335 O 0.68348 0.82575 0.05752 0.0
O336 O 0.67978 0.94094 0.2092 0.0
O337 O 0.70606 0.96018 0.19518 0.0
C338 C 0.69152 0.83862 0.15715 0.0
C339 C 0.68823 0.85026 0.14504 0.0
C340 C 0.68837 0.86716 0.15215 0.0
C341 C 0.69273 0.87302 0.17123 0.0
C342 C 0.69643 0.86163 0.18336 0.0
C343 C 0.69582 0.84435 0.17631 0.0
C344 C 0.68796 0.81924 0.14981 0.0
C345 C 0.66914 0.80466 0.14392 0.0
C346 C 0.66549 0.78693 0.13539 0.0
C347 C 0.68061 0.7834 0.13261 0.0
C348 C 0.69942 0.79775 0.13917 0.0
C349 C 0.70309 0.81562 0.1477 0.0
C350 C 0.68387 0.84419 0.12491 0.0
C351 C 0.66532 0.83707 0.11664 0.0
C352 C 0.66118 0.83094 0.09781 0.0
C353 C 0.67551 0.83173 0.08694 0.0
C354 C 0.69408 0.83884 0.09532 0.0
C355 C 0.69821 0.845 0.11414 0.0
C356 C 0.68165 0.87746 0.14011 0.0
C357 C 0.66413 0.87638 0.14306 0.0
C358 C 0.65799 0.88679 0.13268 0.0
C359 C 0.6691 0.89818 0.11891 0.0
C360 C 0.68629 0.89864 0.1154 0.0
C361 C 0.6926 0.88842 0.12605 0.0
C362 C 0.69258 0.89079 0.17855 0.0
C363 C 0.67806 0.88911 0.18958 0.0
C364 C 0.67797 0.90582 0.19641 0.0
C365 C 0.69232 0.92451 0.1922 0.0
C366 C 0.70673 0.92609 0.181 0.0
C367 C 0.70685 0.90937 0.17423 0.0
C368 C 0.69822 0.86653 0.20365 0.0
C369 C 0.6834 0.85424 0.21435 0.0
C370 C 0.68249 0.86063 0.2323 0.0
C371 C 0.6961 0.87965 0.23973 0.0
C372 C 0.71181 0.8913 0.2295 0.0
C373 C 0.71296 0.88469 0.21167 0.0
C374 C 0.69864 0.83184 0.18923 0.0
C375 C 0.6835 0.81294 0.19159 0.0
C376 C 0.68556 0.80179 0.20483 0.0
C377 C 0.70261 0.80956 0.21628 0.0
C378 C 0.71782 0.8284 0.21387 0.0
C379 C 0.71592 0.83938 0.2003 0.0
C380 C 0.67103 0.82509 0.06696 0.0
C381 C 0.69227 0.94231 0.19941 0.0
H382 H 0.14457 0.83548 0.03844 0.0
H383 H 0.30519 0.96202 0.18478 0.0
H384 H 0.13236 0.8467 0.13413 0.0
H385 H 0.10571 0.81555 0.12 0.0
H386 H 0.12954 0.78462 0.14771 0.0
H387 H 0.15618 0.81575 0.16155 0.0
H388 H 0.1689 0.87781 0.11172 0.0
H389 H 0.15846 0.86483 0.07945 0.0
H390 H 0.16131 0.81346 0.09162 0.0
H391 H 0.17202 0.82675 0.12375 0.0
H392 H 0.21193 0.91373 0.13165 0.0
H393 H 0.23659 0.92742 0.10966 0.0
H394 H 0.23426 0.87179 0.1021 0.0
H395 H 0.21077 0.85884 0.12516 0.0
H396 H 0.20988 0.92147 0.17592 0.0
H397 H 0.24164 0.95 0.18453 0.0
H398 H 0.26781 0.91571 0.16995 0.0
H399 H 0.23597 0.88724 0.1616 0.0
H400 H 0.17512 0.89263 0.20162 0.0
H401 H 0.1876 0.90542 0.23381 0.0
H402 H 0.23004 0.88801 0.22856 0.0
H403 H 0.21726 0.87487 0.19676 0.0
H404 H 0.1359 0.85667 0.17846 0.0
H405 H 0.11498 0.84046 0.20321 0.0
H406 H 0.15488 0.8232 0.22357 0.0
H407 H 0.17558 0.83939 0.19892 0.0
O408 O 0.14883 0.8404 0.05124 0.0
O409 O 0.1504 0.81422 0.05825 0.0
O410 O 0.27829 0.96795 0.18884 0.0
O411 O 0.29245 0.95097 0.18147 0.0
C412 C 0.16448 0.85204 0.1537 0.0
C413 C 0.1771 0.86102 0.13973 0.0
C414 C 0.1956 0.8773 0.14443 0.0
C415 C 0.20127 0.88501 0.16305 0.0
C416 C 0.18866 0.87602 0.17705 0.0
C417 C 0.17024 0.8595 0.17235 0.0
C418 C 0.14619 0.83344 0.14879 0.0
C419 C 0.13148 0.83314 0.13755 0.0
C420 C 0.11631 0.81537 0.1295 0.0
C421 C 0.11575 0.79773 0.13257 0.0
C422 C 0.12979 0.79804 0.14491 0.0
C423 C 0.14488 0.81576 0.15298 0.0
C424 C 0.17106 0.85315 0.12009 0.0
C425 C 0.16731 0.86378 0.10736 0.0
C426 C 0.16132 0.85632 0.08895 0.0
C427 C 0.15898 0.83807 0.08296 0.0
C428 C 0.16291 0.82752 0.09577 0.0
C429 C 0.16896 0.83504 0.11415 0.0
C430 C 0.20954 0.8853 0.13001 0.0
C431 C 0.21681 0.90455 0.12524 0.0
C432 C 0.23077 0.91226 0.11249 0.0
C433 C 0.2375 0.90073 0.104 0.0
C434 C 0.22975 0.88125 0.10853 0.0
C435 C 0.21608 0.87371 0.12154 0.0
C436 C 0.22063 0.90234 0.16804 0.0
C437 C 0.2225 0.92016 0.17461 0.0
C438 C 0.24065 0.93643 0.1795 0.0
C439 C 0.25727 0.93514 0.1779 0.0
C440 C 0.25532 0.91722 0.17132 0.0
C441 C 0.23716 0.90096 0.16647 0.0
C442 C 0.19546 0.88307 0.19677 0.0
C443 C 0.18699 0.89144 0.20752 0.0
C444 C 0.1941 0.8987 0.22585 0.0
C445 C 0.20992 0.8979 0.23355 0.0
C446 C 0.21804 0.88911 0.22286 0.0
C447 C 0.21078 0.88162 0.20472 0.0
C448 C 0.15735 0.84939 0.18705 0.0
C449 C 0.14005 0.84935 0.18829 0.0
C450 C 0.12812 0.84005 0.20236 0.0
C451 C 0.13338 0.83074 0.21545 0.0
C452 C 0.15061 0.8306 0.21395 0.0
C453 C 0.16243 0.83978 0.19985 0.0
C454 C 0.15249 0.83012 0.06343 0.0
C455 C 0.27659 0.95238 0.18308 0.0
H456 H 0.29785 0.17116 0.00665 0.0
H457 H 0.32409 0.04053 0.86002 0.0
H458 H 0.28525 0.17378 0.89444 0.0
H459 H 0.2934 0.20744 0.90332 0.0
H460 H 0.35282 0.22354 0.91444 0.0
H461 H 0.34467 0.19049 0.90424 0.0
H462 H 0.28094 0.13806 0.92982 0.0
H463 H 0.28221 0.14874 0.96229 0.0
H464 H 0.3441 0.18348 0.96348 0.0
H465 H 0.34262 0.17261 0.93109 0.0
H466 H 0.28653 0.09425 0.91686 0.0
H467 H 0.29684 0.0767 0.93675 0.0
H468 H 0.3542 0.12734 0.94295 0.0
H469 H 0.34417 0.14368 0.92157 0.0
H470 H 0.27507 0.08572 0.87825 0.0
H471 H 0.27532 0.05561 0.86971 0.0
H472 H 0.33735 0.08867 0.87185 0.0
H473 H 0.33684 0.11866 0.88026 0.0
H474 H 0.27171 0.10508 0.85089 0.0
H475 H 0.26959 0.09071 0.81957 0.0
H476 H 0.33007 0.13127 0.81605 0.0
H477 H 0.33202 0.14541 0.8473 0.0
H478 H 0.27621 0.14721 0.85286 0.0
H479 H 0.27734 0.16706 0.82747 0.0
H480 H 0.33854 0.20435 0.84006 0.0
H481 H 0.33732 0.18411 0.86483 0.0
O482 O 0.29768 0.16709 0.99382 0.0
O483 O 0.32945 0.18479 0.99367 0.0
O484 O 0.29166 0.03589 0.86225 0.0
O485 O 0.32356 0.0522 0.86333 0.0
C486 C 0.30968 0.15935 0.89429 0.0
C487 C 0.31051 0.14803 0.90835 0.0
C488 C 0.30935 0.12999 0.90364 0.0
C489 C 0.30579 0.12254 0.88494 0.0
C490 C 0.3039 0.13336 0.87094 0.0
C491 C 0.30626 0.15197 0.87557 0.0
C492 C 0.31432 0.17968 0.89912 0.0
C493 C 0.30002 0.18472 0.89866 0.0
C494 C 0.30472 0.20392 0.90387 0.0
C495 C 0.32378 0.21831 0.90977 0.0
C496 C 0.33805 0.2131 0.90975 0.0
C497 C 0.33339 0.19408 0.90424 0.0
C498 C 0.31166 0.15461 0.92808 0.0
C499 C 0.29475 0.14797 0.93714 0.0
C500 C 0.29552 0.1541 0.95568 0.0
C501 C 0.31326 0.167 0.96549 0.0
C502 C 0.3302 0.17357 0.95634 0.0
C503 C 0.32939 0.16741 0.93781 0.0
C504 C 0.31456 0.12029 0.91787 0.0
C505 C 0.30129 0.1015 0.92262 0.0
C506 C 0.30721 0.09158 0.93415 0.0
C507 C 0.32646 0.10048 0.94143 0.0
C508 C 0.33941 0.11974 0.9373 0.0
C509 C 0.3336 0.12935 0.92538 0.0
C510 C 0.30593 0.1043 0.8798 0.0
C511 C 0.28867 0.0864 0.8768 0.0
C512 C 0.28887 0.06924 0.87196 0.0
C513 C 0.30637 0.06974 0.87009 0.0
C514 C 0.32363 0.08777 0.87316 0.0
C515 C 0.3234 0.10491 0.87796 0.0
C516 C 0.30202 0.12623 0.8513 0.0
C517 C 0.28441 0.11097 0.84322 0.0
C518 C 0.28325 0.10276 0.82541 0.0
C519 C 0.29967 0.10984 0.81538 0.0
C520 C 0.31712 0.12566 0.82332 0.0
C521 C 0.31829 0.13373 0.84116 0.0
C522 C 0.30666 0.16433 0.86071 0.0
C523 C 0.28981 0.15971 0.85009 0.0
C524 C 0.29048 0.17111 0.8357 0.0
C525 C 0.30804 0.18724 0.8317 0.0
C526 C 0.32483 0.19186 0.84256 0.0
C527 C 0.32415 0.18046 0.85686 0.0
C528 C 0.31403 0.17353 0.98516 0.0
C529 C 0.30667 0.05156 0.86499 0.0
H530 H 0.8327 0.17335 0.01793 0.0
H531 H 0.71177 0.01853 0.86382 0.0
H532 H 0.83777 0.17962 0.91644 0.0
H533 H 0.86392 0.20985 0.93203 0.0
H534 H 0.90169 0.18619 0.92878 0.0
H535 H 0.87519 0.15576 0.9129 0.0
H536 H 0.80748 0.15219 0.93932 0.0
H537 H 0.81408 0.16281 0.97233 0.0
H538 H 0.85578 0.14395 0.97604 0.0
H539 H 0.84887 0.13319 0.94304 0.0
H540 H 0.77354 0.12096 0.91383 0.0
H541 H 0.74894 0.10608 0.93582 0.0
H542 H 0.7803 0.08113 0.96102 0.0
H543 H 0.80466 0.09578 0.93866 0.0
H544 H 0.77401 0.11469 0.87199 0.0
H545 H 0.7429 0.08699 0.85997 0.0
H546 H 0.7572 0.04744 0.88576 0.0
H547 H 0.78835 0.07525 0.89752 0.0
H548 H 0.81354 0.14753 0.85568 0.0
H549 H 0.80323 0.13953 0.82286 0.0
H550 H 0.79701 0.08243 0.82698 0.0
H551 H 0.80859 0.09113 0.85967 0.0
H552 H 0.8487 0.17869 0.87906 0.0
H553 H 0.87178 0.19615 0.85638 0.0
H554 H 0.8753 0.14459 0.84256 0.0
H555 H 0.85286 0.1274 0.86595 0.0
O556 O 0.83021 0.16892 0.00492 0.0
O557 O 0.85152 0.15902 0.00608 0.0
O558 O 0.71734 0.05069 0.85534 0.0
O559 O 0.72398 0.02974 0.86838 0.0
C560 C 0.83776 0.14659 0.90647 0.0
C561 C 0.8238 0.13562 0.91874 0.0
C562 C 0.80609 0.11932 0.91184 0.0
C563 C 0.80242 0.11374 0.89268 0.0
C564 C 0.81656 0.12448 0.88039 0.0
C565 C 0.83441 0.14077 0.88735 0.0
C566 C 0.85461 0.16553 0.91367 0.0
C567 C 0.85175 0.18105 0.91889 0.0
C568 C 0.86665 0.19822 0.9279 0.0
C569 C 0.88474 0.20022 0.93189 0.0
C570 C 0.88788 0.18501 0.92586 0.0
C571 C 0.87283 0.16768 0.91682 0.0
C572 C 0.82757 0.14176 0.93886 0.0
C573 C 0.8179 0.1502 0.94734 0.0
C574 C 0.82177 0.15633 0.96617 0.0
C575 C 0.83545 0.15421 0.97684 0.0
C576 C 0.84514 0.14577 0.96824 0.0
C577 C 0.84123 0.13961 0.94941 0.0
C578 C 0.79076 0.10928 0.92458 0.0
C579 C 0.77496 0.11209 0.92398 0.0
C580 C 0.76107 0.1038 0.93669 0.0
C581 C 0.76275 0.09254 0.95022 0.0
C582 C 0.77854 0.08961 0.95066 0.0
C583 C 0.79246 0.09795 0.93795 0.0
C584 C 0.78347 0.09694 0.8855 0.0
C585 C 0.77043 0.10002 0.87494 0.0
C586 C 0.75265 0.08418 0.86814 0.0
C587 C 0.74757 0.06498 0.87188 0.0
C588 C 0.76066 0.06201 0.8826 0.0
C589 C 0.77845 0.07786 0.88935 0.0
C590 C 0.81182 0.11992 0.86009 0.0
C591 C 0.81038 0.13346 0.8494 0.0
C592 C 0.80422 0.12874 0.83068 0.0
C593 C 0.79899 0.11021 0.82229 0.0
C594 C 0.80106 0.09689 0.83291 0.0
C595 C 0.80752 0.10175 0.85164 0.0
C596 C 0.84932 0.15185 0.87443 0.0
C597 C 0.85488 0.17133 0.87159 0.0
C598 C 0.86796 0.18124 0.85857 0.0
C599 C 0.87532 0.17169 0.84783 0.0
C600 C 0.8698 0.15223 0.85069 0.0
C601 C 0.85705 0.14245 0.86402 0.0
C602 C 0.8396 0.16083 0.99682 0.0
C603 C 0.72871 0.0481 0.86468 0.0
H604 H 0.85853 0.68787 0.03211 0.0
H605 H 0.7123 0.6614 0.87077 0.0
H606 H 0.87923 0.71262 0.93411 0.0
H607 H 0.90369 0.70764 0.95 0.0
H608 H 0.8715 0.64638 0.93077 0.0
H609 H 0.84712 0.65145 0.91524 0.0
H610 H 0.8459 0.70975 0.95924 0.0
H611 H 0.85304 0.70628 0.9915 0.0
H612 H 0.83295 0.64502 0.97777 0.0
H613 H 0.82571 0.6487 0.94562 0.0
H614 H 0.80574 0.70264 0.94911 0.0
H615 H 0.78038 0.69025 0.97076 0.0
H616 H 0.76339 0.63094 0.95139 0.0
H617 H 0.78827 0.6435 0.92955 0.0
H618 H 0.80064 0.7111 0.91291 0.0
H619 H 0.7703 0.70931 0.90355 0.0
H620 H 0.74882 0.65107 0.87772 0.0
H621 H 0.77921 0.65306 0.88726 0.0
H622 H 0.82136 0.71463 0.87604 0.0
H623 H 0.81036 0.71334 0.84374 0.0
H624 H 0.80444 0.65628 0.83386 0.0
H625 H 0.81416 0.65724 0.86626 0.0
H626 H 0.86696 0.71906 0.88341 0.0
H627 H 0.88696 0.72109 0.85816 0.0
H628 H 0.86354 0.65852 0.85689 0.0
H629 H 0.84421 0.65687 0.88229 0.0
O630 O 0.85548 0.68888 0.01933 0.0
O631 O 0.84525 0.65754 0.0115 0.0
O632 O 0.73627 0.69258 0.88791 0.0
O633 O 0.72445 0.6625 0.87464 0.0
C634 C 0.84479 0.68422 0.91748 0.0
C635 C 0.83153 0.68187 0.93058 0.0
C636 C 0.81419 0.68096 0.92498 0.0
C637 C 0.81049 0.68345 0.90646 0.0
C638 C 0.82381 0.68598 0.89331 0.0
C639 C 0.84096 0.68626 0.89883 0.0
C640 C 0.86159 0.68246 0.92331 0.0
C641 C 0.87784 0.6983 0.93286 0.0
C642 C 0.89172 0.6954 0.94196 0.0
C643 C 0.88937 0.67658 0.94175 0.0
C644 C 0.87356 0.66099 0.93133 0.0
C645 C 0.85979 0.66391 0.92221 0.0
C646 C 0.83541 0.67951 0.95016 0.0
C647 C 0.84302 0.6956 0.96328 0.0
C648 C 0.8471 0.69357 0.98166 0.0
C649 C 0.84362 0.67538 0.98721 0.0
C650 C 0.83584 0.65924 0.97397 0.0
C651 C 0.83171 0.66129 0.95561 0.0
C652 C 0.79865 0.67393 0.93773 0.0
C653 C 0.79638 0.687 0.94951 0.0
C654 C 0.78203 0.67988 0.96194 0.0
C655 C 0.76983 0.65958 0.96279 0.0
C656 C 0.77228 0.64662 0.9509 0.0
C657 C 0.78652 0.65375 0.93847 0.0
C658 C 0.79209 0.68224 0.90069 0.0
C659 C 0.78934 0.69798 0.90525 0.0
C660 C 0.77202 0.69691 0.89987 0.0
C661 C 0.75713 0.68004 0.88986 0.0
C662 C 0.75997 0.66427 0.88538 0.0
C663 C 0.77731 0.66537 0.89078 0.0
C664 C 0.81874 0.68611 0.87344 0.0
C665 C 0.81775 0.70193 0.86681 0.0
C666 C 0.81159 0.7012 0.84832 0.0
C667 C 0.80642 0.68466 0.83615 0.0
C668 C 0.80794 0.6691 0.84285 0.0
C669 C 0.81381 0.66973 0.86132 0.0
C670 C 0.8544 0.68787 0.88485 0.0
C671 C 0.8665 0.70591 0.87785 0.0
C672 C 0.87775 0.70698 0.86332 0.0
C673 C 0.87694 0.68998 0.85548 0.0
C674 C 0.86494 0.672 0.86281 0.0
C675 C 0.85384 0.67098 0.87737 0.0
C676 C 0.84813 0.67332 0.00671 0.0
C677 C 0.73869 0.67883 0.88412 0.0
H678 H 0.83695 0.68662 0.36463 0.0
H679 H 0.93215 0.62557 0.51029 0.0
H680 H 0.82303 0.68171 0.46575 0.0
H681 H 0.80007 0.68773 0.44872 0.0
H682 H 0.76048 0.62539 0.44045 0.0
H683 H 0.78353 0.61956 0.45803 0.0
H684 H 0.85508 0.6838 0.4429 0.0
H685 H 0.85181 0.69069 0.41086 0.0
H686 H 0.80678 0.63049 0.39831 0.0
H687 H 0.81035 0.62377 0.43035 0.0
H688 H 0.88665 0.68058 0.47048 0.0
H689 H 0.9134 0.69027 0.4509 0.0
H690 H 0.87822 0.63906 0.41353 0.0
H691 H 0.85161 0.62892 0.43366 0.0
H692 H 0.88198 0.67147 0.50876 0.0
H693 H 0.90993 0.66989 0.52059 0.0
H694 H 0.88963 0.61571 0.48695 0.0
H695 H 0.86164 0.61734 0.4754 0.0
H696 H 0.84446 0.67098 0.5229 0.0
H697 H 0.85096 0.67148 0.55595 0.0
H698 H 0.84862 0.61591 0.5476 0.0
H699 H 0.84031 0.61477 0.51458 0.0
H700 H 0.81478 0.67229 0.50065 0.0
H701 H 0.79617 0.67195 0.52637 0.0
H702 H 0.77971 0.61181 0.53323 0.0
H703 H 0.79787 0.61208 0.50698 0.0
O704 O 0.83811 0.68354 0.3772 0.0
O705 O 0.81501 0.65245 0.37148 0.0
O706 O 0.93099 0.65439 0.52296 0.0
O707 O 0.92121 0.62653 0.50588 0.0
C708 C 0.82037 0.64695 0.47027 0.0
C709 C 0.83469 0.64923 0.45844 0.0
C710 C 0.85097 0.64868 0.46541 0.0
C711 C 0.85267 0.64529 0.48416 0.0
C712 C 0.83843 0.64319 0.49606 0.0
C713 C 0.82209 0.64374 0.48902 0.0
C714 C 0.80486 0.65022 0.46315 0.0
C715 C 0.80918 0.66939 0.46067 0.0
C716 C 0.79616 0.67277 0.45074 0.0
C717 C 0.7786 0.65702 0.44295 0.0
C718 C 0.77386 0.63782 0.44634 0.0
C719 C 0.78694 0.63445 0.4564 0.0
C720 C 0.83302 0.65328 0.43888 0.0
C721 C 0.84462 0.6721 0.43316 0.0
C722 C 0.84268 0.67601 0.41488 0.0
C723 C 0.82903 0.66114 0.40202 0.0
C724 C 0.81744 0.64227 0.40785 0.0
C725 C 0.81943 0.63839 0.42612 0.0
C726 C 0.86724 0.65391 0.45364 0.0
C727 C 0.8848 0.67123 0.45826 0.0
C728 C 0.9 0.67682 0.44704 0.0
C729 C 0.8978 0.6654 0.43075 0.0
C730 C 0.88018 0.64814 0.42598 0.0
C731 C 0.86505 0.64233 0.43746 0.0
C732 C 0.86969 0.64442 0.49136 0.0
C733 C 0.88353 0.65919 0.50408 0.0
C734 C 0.89951 0.65829 0.51075 0.0
C735 C 0.902 0.64264 0.50474 0.0
C736 C 0.88815 0.62794 0.4919 0.0
C737 C 0.87215 0.62884 0.48526 0.0
C738 C 0.84174 0.64276 0.51631 0.0
C739 C 0.84486 0.65866 0.52826 0.0
C740 C 0.8489 0.65906 0.54717 0.0
C741 C 0.85062 0.64387 0.55454 0.0
C742 C 0.8472 0.62777 0.54253 0.0
C743 C 0.84265 0.62716 0.5236 0.0
C744 C 0.80758 0.64216 0.50181 0.0
C745 C 0.80653 0.6588 0.50719 0.0
C746 C 0.79616 0.65867 0.52212 0.0
C747 C 0.78672 0.64194 0.53203 0.0
C748 C 0.78674 0.62489 0.52584 0.0
C749 C 0.79709 0.62501 0.51085 0.0
C750 C 0.8269 0.66537 0.38264 0.0
C751 C 0.91895 0.64161 0.51178 0.0
H752 H 0.31789 0.15082 0.37577 0.0
H753 H 0.37386 0.3064 0.53249 0.0
H754 H 0.31972 0.14131 0.47737 0.0
H755 H 0.31106 0.10865 0.46467 0.0
H756 H 0.37095 0.12516 0.46935 0.0
H757 H 0.37939 0.15783 0.48254 0.0
H758 H 0.31907 0.16993 0.4548 0.0
H759 H 0.31295 0.16048 0.42156 0.0
H760 H 0.3721 0.17548 0.41865 0.0
H761 H 0.37805 0.18507 0.45189 0.0
H762 H 0.31923 0.19869 0.48098 0.0
H763 H 0.30874 0.21698 0.46243 0.0
H764 H 0.36409 0.2463 0.43967 0.0
H765 H 0.37452 0.22781 0.45846 0.0
H766 H 0.33108 0.20901 0.5222 0.0
H767 H 0.33149 0.23845 0.53461 0.0
H768 H 0.38517 0.27429 0.51041 0.0
H769 H 0.3847 0.24471 0.4983 0.0
H770 H 0.33469 0.17446 0.53877 0.0
H771 H 0.33361 0.18539 0.57031 0.0
H772 H 0.38788 0.23845 0.56611 0.0
H773 H 0.38955 0.22652 0.53501 0.0
H774 H 0.33033 0.1424 0.5165 0.0
H775 H 0.33209 0.12131 0.53886 0.0
H776 H 0.39315 0.16144 0.54919 0.0
H777 H 0.39107 0.18274 0.52692 0.0
O778 O 0.32065 0.15472 0.38889 0.0
O779 O 0.35117 0.16259 0.38815 0.0
O780 O 0.34582 0.27543 0.54004 0.0
O781 O 0.37335 0.29452 0.52777 0.0
C782 C 0.35494 0.17171 0.48798 0.0
C783 C 0.35281 0.184 0.47587 0.0
C784 C 0.35373 0.20128 0.48302 0.0
C785 C 0.35779 0.20687 0.50214 0.0
C786 C 0.36057 0.1949 0.51427 0.0
C787 C 0.35909 0.17725 0.50715 0.0
C788 C 0.35017 0.15188 0.48075 0.0
C789 C 0.33095 0.13783 0.47564 0.0
C790 C 0.32606 0.11924 0.46829 0.0
C791 C 0.34032 0.11434 0.46582 0.0
C792 C 0.35961 0.12842 0.47121 0.0
C793 C 0.36449 0.14708 0.47867 0.0
C794 C 0.34906 0.1784 0.45567 0.0
C795 C 0.33072 0.17134 0.44692 0.0
C796 C 0.32725 0.16587 0.42795 0.0
C797 C 0.34205 0.16727 0.41743 0.0
C798 C 0.3604 0.17426 0.42632 0.0
C799 C 0.36384 0.17976 0.44529 0.0
C800 C 0.3476 0.21201 0.47102 0.0
C801 C 0.32903 0.20898 0.47188 0.0
C802 C 0.32304 0.21932 0.46121 0.0
C803 C 0.33558 0.23299 0.44956 0.0
C804 C 0.35419 0.2359 0.44861 0.0
C805 C 0.36013 0.22537 0.45923 0.0
C806 C 0.35795 0.22476 0.50951 0.0
C807 C 0.34296 0.22324 0.51969 0.0
C808 C 0.34321 0.24007 0.52672 0.0
C809 C 0.35839 0.25874 0.52353 0.0
C810 C 0.37328 0.26016 0.51315 0.0
C811 C 0.37305 0.24331 0.5062 0.0
C812 C 0.36221 0.19965 0.53456 0.0
C813 C 0.34678 0.18801 0.54494 0.0
C814 C 0.34601 0.19451 0.56288 0.0
C815 C 0.36041 0.21306 0.57063 0.0
C816 C 0.37656 0.22406 0.56068 0.0
C817 C 0.37752 0.21732 0.54284 0.0
C818 C 0.3606 0.16398 0.51996 0.0
C819 C 0.34413 0.14647 0.52337 0.0
C820 C 0.34521 0.13441 0.53615 0.0
C821 C 0.36281 0.13959 0.54576 0.0
C822 C 0.37935 0.1571 0.54215 0.0
C823 C 0.37823 0.16921 0.52938 0.0
C824 C 0.33831 0.16141 0.39729 0.0
C825 C 0.35873 0.27667 0.53097 0.0
H826 H 0.80832 0.17529 0.36475 0.0
H827 H 0.97076 0.29488 0.51216 0.0
H828 H 0.7963 0.17591 0.46631 0.0
H829 H 0.7684 0.14437 0.45493 0.0
H830 H 0.80094 0.11594 0.46725 0.0
H831 H 0.828 0.14721 0.47959 0.0
H832 H 0.83143 0.21051 0.44084 0.0
H833 H 0.82074 0.20023 0.40811 0.0
H834 H 0.83094 0.15199 0.41273 0.0
H835 H 0.84179 0.16257 0.44538 0.0
H836 H 0.87504 0.24646 0.45809 0.0
H837 H 0.90066 0.26291 0.43726 0.0
H838 H 0.90538 0.21105 0.43082 0.0
H839 H 0.87969 0.19476 0.45137 0.0
H840 H 0.87523 0.25222 0.50326 0.0
H841 H 0.90664 0.28109 0.51236 0.0
H842 H 0.93414 0.24842 0.49655 0.0
H843 H 0.90263 0.21962 0.4877 0.0
H844 H 0.84656 0.22514 0.5293 0.0
H845 H 0.8601 0.23512 0.56148 0.0
H846 H 0.89382 0.20734 0.5529 0.0
H847 H 0.88096 0.19843 0.52074 0.0
H848 H 0.80331 0.18434 0.50733 0.0
H849 H 0.78284 0.16389 0.53053 0.0
H850 H 0.82473 0.14694 0.54448 0.0
H851 H 0.8444 0.16648 0.52062 0.0
O852 O 0.81265 0.17913 0.3777 0.0
O853 O 0.81807 0.15453 0.38083 0.0
O854 O 0.94331 0.29979 0.51672 0.0
O855 O 0.95815 0.28367 0.50872 0.0
C856 C 0.83159 0.18279 0.47913 0.0
C857 C 0.84354 0.1935 0.46533 0.0
C858 C 0.8617 0.2101 0.47041 0.0
C859 C 0.86759 0.21647 0.48928 0.0
C860 C 0.85557 0.20584 0.50306 0.0
C861 C 0.83756 0.18896 0.498 0.0
C862 C 0.81405 0.16373 0.47378 0.0
C863 C 0.79713 0.16273 0.46684 0.0
C864 C 0.78131 0.14471 0.46017 0.0
C865 C 0.78232 0.12747 0.46003 0.0
C866 C 0.79931 0.12867 0.46744 0.0
C867 C 0.81491 0.14659 0.47441 0.0
C868 C 0.83718 0.18717 0.44548 0.0
C869 C 0.83133 0.19773 0.43473 0.0
C870 C 0.82523 0.19181 0.41606 0.0
C871 C 0.82491 0.17524 0.40781 0.0
C872 C 0.83093 0.16477 0.41866 0.0
C873 C 0.83706 0.17073 0.43732 0.0
C874 C 0.8755 0.21943 0.45617 0.0
C875 C 0.88143 0.23861 0.45191 0.0
C876 C 0.89613 0.24799 0.44012 0.0
C877 C 0.90514 0.23832 0.43245 0.0
C878 C 0.8986 0.21884 0.43626 0.0
C879 C 0.88394 0.2095 0.44802 0.0
C880 C 0.8867 0.23391 0.49473 0.0
C881 C 0.88807 0.25135 0.5018 0.0
C882 C 0.90602 0.26781 0.50696 0.0
C883 C 0.92291 0.26707 0.50514 0.0
C884 C 0.92143 0.2495 0.4981 0.0
C885 C 0.90347 0.23305 0.49299 0.0
C886 C 0.8629 0.21119 0.52276 0.0
C887 C 0.85689 0.22128 0.53448 0.0
C888 C 0.86456 0.22683 0.55287 0.0
C889 C 0.8782 0.22219 0.55982 0.0
C890 C 0.88375 0.21163 0.54799 0.0
C891 C 0.8763 0.20636 0.52963 0.0
C892 C 0.82541 0.17704 0.51244 0.0
C893 C 0.80798 0.17615 0.51542 0.0
C894 C 0.79639 0.16457 0.52877 0.0
C895 C 0.8021 0.15373 0.53942 0.0
C896 C 0.81968 0.1548 0.53638 0.0
C897 C 0.83111 0.16619 0.52292 0.0
C898 C 0.81836 0.16895 0.38798 0.0
C899 C 0.94202 0.28453 0.51056 0.0
H900 H 0.99076 0.51757 0.34305 0.0
H901 H 0.00226 0.38139 0.19079 0.0
H902 H 0.96347 0.51259 0.23196 0.0
H903 H 0.96936 0.5452 0.24192 0.0
H904 H 0.03014 0.56586 0.2502 0.0
H905 H 0.02412 0.5337 0.23905 0.0
H906 H 0.96534 0.4842 0.26655 0.0
H907 H 0.97026 0.49573 0.29931 0.0
H908 H 0.03166 0.52309 0.29615 0.0
H909 H 0.02651 0.51153 0.26341 0.0
H910 H 0.96653 0.4392 0.25315 0.0
H911 H 0.97458 0.42005 0.27344 0.0
H912 H 0.0349 0.46234 0.27156 0.0
H913 H 0.02669 0.48129 0.25146 0.0
H914 H 0.95619 0.42984 0.20828 0.0
H915 H 0.95521 0.3994 0.19832 0.0
H916 H 0.01718 0.42929 0.20584 0.0
H917 H 0.01792 0.45963 0.21558 0.0
H918 H 0.95249 0.45527 0.18214 0.0
H919 H 0.95016 0.44211 0.1502 0.0
H920 H 0.01202 0.46979 0.15257 0.0
H921 H 0.01412 0.48299 0.18419 0.0
H922 H 0.9547 0.49478 0.19678 0.0
H923 H 0.95354 0.51617 0.17407 0.0
H924 H 0.01462 0.54182 0.16958 0.0
H925 H 0.01563 0.52092 0.19273 0.0
O926 O 0.98913 0.51314 0.3301 0.0
O927 O 0.02058 0.52695 0.32773 0.0
O928 O 0.97039 0.37855 0.19092 0.0
O929 O 0.00221 0.39321 0.19466 0.0
C930 C 0.98998 0.50108 0.22942 0.0
C931 C 0.99239 0.49004 0.24285 0.0
C932 C 0.99149 0.47229 0.23739 0.0
C933 C 0.98762 0.46529 0.21857 0.0
C934 C 0.98502 0.47624 0.20518 0.0
C935 C 0.98619 0.49413 0.21059 0.0
C936 C 0.99336 0.52083 0.23493 0.0
C937 C 0.97804 0.5243 0.23571 0.0
C938 C 0.98145 0.54289 0.24157 0.0
C939 C 0.00024 0.55823 0.24697 0.0
C940 C 0.01553 0.55461 0.24587 0.0
C941 C 0.01213 0.53615 0.23973 0.0
C942 C 0.99556 0.49694 0.26271 0.0
C943 C 0.97983 0.49265 0.273 0.0
C944 C 0.98268 0.49926 0.29169 0.0
C945 C 0.00136 0.51031 0.30036 0.0
C946 C 0.0171 0.51459 0.28992 0.0
C947 C 0.0142 0.50796 0.27124 0.0
C948 C 0.99603 0.46171 0.25109 0.0
C949 C 0.98144 0.44443 0.25742 0.0
C950 C 0.98607 0.43349 0.26887 0.0
C951 C 0.00539 0.43972 0.27412 0.0
C952 C 0.0199 0.45734 0.26806 0.0
C953 C 0.01525 0.46818 0.25658 0.0
C954 C 0.9871 0.44685 0.21273 0.0
C955 C 0.96951 0.42974 0.20776 0.0
C956 C 0.96901 0.4124 0.20209 0.0
C957 C 0.98613 0.4119 0.20132 0.0
C958 C 0.00374 0.42914 0.20631 0.0
C959 C 0.00421 0.44647 0.21193 0.0
C960 C 0.98347 0.47005 0.18535 0.0
C961 C 0.96549 0.45871 0.17556 0.0
C962 C 0.9642 0.45114 0.15742 0.0
C963 C 0.98091 0.45491 0.14886 0.0
C964 C 0.9989 0.46687 0.15862 0.0
C965 C 0.00015 0.47434 0.1767 0.0
C966 C 0.98526 0.50645 0.19639 0.0
C967 C 0.96778 0.50508 0.19085 0.0
C968 C 0.96715 0.51722 0.17782 0.0
C969 C 0.98401 0.53083 0.17007 0.0
C970 C 0.00144 0.53183 0.17553 0.0
C971 C 0.00205 0.51981 0.18862 0.0
C972 C 0.00435 0.51733 0.32021 0.0
C973 C 0.98569 0.39352 0.19531 0.0
H974 H 0.48864 0.50797 0.35014 0.0
H975 H 0.37881 0.34758 0.19738 0.0
H976 H 0.49535 0.51367 0.24908 0.0
H977 H 0.52068 0.54549 0.26289 0.0
H978 H 0.56159 0.52573 0.25979 0.0
H979 H 0.53599 0.49381 0.2457 0.0
H980 H 0.46566 0.48544 0.27128 0.0
H981 H 0.4711 0.49633 0.3042 0.0
H982 H 0.51548 0.48124 0.3098 0.0
H983 H 0.50974 0.47021 0.27688 0.0
H984 H 0.43384 0.45367 0.24451 0.0
H985 H 0.40825 0.43852 0.26546 0.0
H986 H 0.43979 0.41559 0.29402 0.0
H987 H 0.46527 0.43062 0.27272 0.0
H988 H 0.43471 0.44483 0.20398 0.0
H989 H 0.40499 0.41534 0.1919 0.0
H990 H 0.42322 0.37981 0.21989 0.0
H991 H 0.45299 0.40942 0.2317 0.0
H992 H 0.47231 0.47909 0.18831 0.0
H993 H 0.46143 0.46951 0.15578 0.0
H994 H 0.46146 0.41546 0.16115 0.0
H995 H 0.47373 0.42592 0.19359 0.0
H996 H 0.50248 0.51078 0.20936 0.0
H997 H 0.52481 0.53018 0.18706 0.0
H998 H 0.54261 0.48723 0.18075 0.0
H999 H 0.51962 0.46759 0.20276 0.0
O1000 O 0.48666 0.50349 0.33716 0.0
O1001 O 0.50938 0.49554 0.33929 0.0
O1002 O 0.38177 0.37839 0.18778 0.0
O1003 O 0.39044 0.35947 0.20195 0.0
C1004 C 0.49786 0.48184 0.23958 0.0
C1005 C 0.48403 0.4704 0.25174 0.0
C1006 C 0.46705 0.45325 0.24478 0.0
C1007 C 0.46419 0.44711 0.22577 0.0
C1008 C 0.47823 0.45834 0.2136 0.0
C1009 C 0.49516 0.47567 0.22057 0.0
C1010 C 0.51386 0.50146 0.24654 0.0
C1011 C 0.50982 0.51627 0.25129 0.0
C1012 C 0.52427 0.53437 0.25927 0.0
C1013 C 0.54308 0.53803 0.26264 0.0
C1014 C 0.54725 0.52335 0.25728 0.0
C1015 C 0.53269 0.50515 0.24929 0.0
C1016 C 0.48717 0.47685 0.27177 0.0
C1017 C 0.47643 0.48434 0.27968 0.0
C1018 C 0.47962 0.49062 0.29847 0.0
C1019 C 0.4937 0.48962 0.30964 0.0
C1020 C 0.5045 0.48218 0.3016 0.0
C1021 C 0.50126 0.47587 0.28282 0.0
C1022 C 0.45128 0.44308 0.25704 0.0
C1023 C 0.43511 0.44521 0.25519 0.0
C1024 C 0.42065 0.43676 0.26729 0.0
C1025 C 0.42208 0.42598 0.28145 0.0
C1026 C 0.43825 0.42371 0.28316 0.0
C1027 C 0.45279 0.43226 0.27106 0.0
C1028 C 0.44606 0.42922 0.21856 0.0
C1029 C 0.4323 0.43065 0.20739 0.0
C1030 C 0.41531 0.41379 0.20056 0.0
C1031 C 0.41174 0.3952 0.2049 0.0
C1032 C 0.42552 0.39388 0.21625 0.0
C1033 C 0.44252 0.41076 0.22303 0.0
C1034 C 0.47395 0.45328 0.19332 0.0
C1035 C 0.47059 0.46548 0.18234 0.0
C1036 C 0.46402 0.45979 0.16379 0.0
C1037 C 0.4602 0.44153 0.15589 0.0
C1038 C 0.46435 0.42966 0.16673 0.0
C1039 C 0.47126 0.43555 0.18529 0.0
C1040 C 0.50956 0.48788 0.20776 0.0
C1041 C 0.51136 0.50569 0.20331 0.0
C1042 C 0.52422 0.51678 0.1906 0.0
C1043 C 0.53565 0.51036 0.18215 0.0
C1044 C 0.5339 0.49253 0.18682 0.0
C1045 C 0.5209 0.48135 0.19947 0.0
C1046 C 0.49711 0.49637 0.32959 0.0
C1047 C 0.39374 0.37724 0.19766 0.0
H1048 H 0.5188 0.0 0.36278 0.0
H1049 H 0.36834 0.97533 0.21432 0.0
H1050 H 0.53446 0.02987 0.2713 0.0
H1051 H 0.56051 0.02752 0.28714 0.0
H1052 H 0.54345 0.97389 0.25402 0.0
H1053 H 0.51705 0.976 0.23857 0.0
H1054 H 0.4985 0.02118 0.29278 0.0
H1055 H 0.50711 0.0172 0.32435 0.0
H1056 H 0.50396 0.96312 0.30523 0.0
H1057 H 0.49505 0.96712 0.2738 0.0
H1058 H 0.46108 0.01766 0.27406 0.0
H1059 H 0.43747 0.0078 0.29734 0.0
H1060 H 0.43062 0.95004 0.29391 0.0
H1061 H 0.45391 0.95994 0.27039 0.0
H1062 H 0.46369 0.02818 0.22995 0.0
H1063 H 0.43321 0.02635 0.22129 0.0
H1064 H 0.40315 0.96411 0.22737 0.0
H1065 H 0.43375 0.96612 0.23581 0.0
H1066 H 0.49915 0.03495 0.20586 0.0
H1067 H 0.49112 0.03773 0.17359 0.0
H1068 H 0.44701 0.97661 0.16891 0.0
H1069 H 0.45542 0.97392 0.20093 0.0
H1070 H 0.53603 0.03457 0.22457 0.0
H1071 H 0.55602 0.03757 0.19896 0.0
H1072 H 0.51287 0.97949 0.17637 0.0
H1073 H 0.49367 0.9764 0.20227 0.0
O1074 O 0.51513 0.00116 0.35026 0.0
O1075 O 0.5136 0.9736 0.33967 0.0
O1076 O 0.39674 0.0085 0.21473 0.0
O1077 O 0.3806 0.97647 0.21771 0.0
C1078 C 0.50524 0.00164 0.24836 0.0
C1079 C 0.49171 0.99736 0.26175 0.0
C1080 C 0.47376 0.99549 0.25681 0.0
C1081 C 0.46949 0.99851 0.23863 0.0
C1082 C 0.48283 0.0024 0.22515 0.0
C1083 C 0.50056 0.00358 0.22993 0.0
C1084 C 0.52382 0.00306 0.25387 0.0
C1085 C 0.5367 0.01792 0.26709 0.0
C1086 C 0.55144 0.0165 0.2762 0.0
C1087 C 0.55377 0.0004 0.27192 0.0
C1088 C 0.54195 0.98646 0.2575 0.0
C1089 C 0.52697 0.98771 0.2486 0.0
C1090 C 0.49623 0.99448 0.28102 0.0
C1091 C 0.49954 0.00841 0.29548 0.0
C1092 C 0.50452 0.00613 0.31348 0.0
C1093 C 0.5063 0.98987 0.3173 0.0
C1094 C 0.50276 0.97583 0.30276 0.0
C1095 C 0.4977 0.97809 0.2848 0.0
C1096 C 0.45916 0.98951 0.27058 0.0
C1097 C 0.45438 0.00287 0.2783 0.0
C1098 C 0.44103 0.99725 0.29168 0.0
C1099 C 0.43224 0.97816 0.29752 0.0
C1100 C 0.43699 0.96478 0.28959 0.0
C1101 C 0.45035 0.97043 0.27625 0.0
C1102 C 0.4509 0.99731 0.23359 0.0
C1103 C 0.4505 0.01417 0.22939 0.0
C1104 C 0.43307 0.01308 0.22447 0.0
C1105 C 0.41572 0.99508 0.22367 0.0
C1106 C 0.41622 0.9782 0.22788 0.0
C1107 C 0.43367 0.97931 0.23277 0.0
C1108 C 0.47779 0.00426 0.20573 0.0
C1109 C 0.48778 0.0222 0.19781 0.0
C1110 C 0.48312 0.02376 0.17944 0.0
C1111 C 0.46846 0.00737 0.16869 0.0
C1112 C 0.45855 0.98944 0.17673 0.0
C1113 C 0.46318 0.9879 0.19506 0.0
C1114 C 0.51341 0.00528 0.21523 0.0
C1115 C 0.53112 0.02245 0.21419 0.0
C1116 C 0.5424 0.02419 0.19947 0.0
C1117 C 0.5361 0.00877 0.18558 0.0
C1118 C 0.51841 0.99153 0.18694 0.0
C1119 C 0.5073 0.98977 0.20166 0.0
C1120 C 0.51188 0.98765 0.33638 0.0
C1121 C 0.39717 0.99384 0.21843 0.0
H1122 H 0.50319 0.03575 0.69969 0.0
H1123 H 0.60877 0.97866 0.83733 0.0
H1124 H 0.49619 0.0331 0.80175 0.0
H1125 H 0.4718 0.0384 0.78666 0.0
H1126 H 0.43169 0.97609 0.78288 0.0
H1127 H 0.45647 0.97095 0.79778 0.0
H1128 H 0.52685 0.03449 0.77665 0.0
H1129 H 0.52135 0.04069 0.74491 0.0
H1130 H 0.4747 0.98085 0.73513 0.0
H1131 H 0.48052 0.9748 0.76684 0.0
H1132 H 0.55908 0.03166 0.79816 0.0
H1133 H 0.58274 0.0382 0.77547 0.0
H1134 H 0.54404 0.98203 0.74615 0.0
H1135 H 0.5206 0.9755 0.76915 0.0
H1136 H 0.55745 0.02331 0.83995 0.0
H1137 H 0.5864 0.02253 0.84971 0.0
H1138 H 0.56464 0.9676 0.81691 0.0
H1139 H 0.53567 0.96847 0.80742 0.0
H1140 H 0.52116 0.02034 0.8592 0.0
H1141 H 0.52995 0.01901 0.89135 0.0
H1142 H 0.52557 0.96319 0.87747 0.0
H1143 H 0.51535 0.96406 0.84547 0.0
H1144 H 0.49153 0.02304 0.84115 0.0
H1145 H 0.4712 0.01985 0.86616 0.0
H1146 H 0.44994 0.95758 0.86358 0.0
H1147 H 0.47118 0.96126 0.83914 0.0
O1148 O 0.50519 0.03295 0.71216 0.0
O1149 O 0.48126 0.00208 0.70788 0.0
O1150 O 0.60797 0.00755 0.85039 0.0
O1151 O 0.59746 0.97933 0.83371 0.0
C1152 C 0.49405 0.99852 0.80637 0.0
C1153 C 0.5073 0.00053 0.79334 0.0
C1154 C 0.52372 -0.00047 0.79879 0.0
C1155 C 0.52683 0.99633 0.81727 0.0
C1156 C 0.51339 0.99398 0.83026 0.0
C1157 C 0.49685 0.99484 0.82472 0.0
C1158 C 0.47805 0.00166 0.80079 0.0
C1159 C 0.48198 0.02066 0.79807 0.0
C1160 C 0.468 0.02365 0.78948 0.0
C1161 C 0.44985 0.00764 0.78344 0.0
C1162 C 0.44563 0.98867 0.78716 0.0
C1163 C 0.45965 0.98571 0.79582 0.0
C1164 C 0.50413 0.00419 0.77398 0.0
C1165 C 0.51554 0.02272 0.76758 0.0
C1166 C 0.51232 0.02623 0.74947 0.0
C1167 C 0.49758 0.01127 0.73748 0.0
C1168 C 0.48617 0.99269 0.74399 0.0
C1169 C 0.48945 0.9892 0.76209 0.0
C1170 C 0.53822 0.00306 0.78534 0.0
C1171 C 0.55581 0.02073 0.7869 0.0
C1172 C 0.56919 0.02452 0.77383 0.0
C1173 C 0.56522 0.01066 0.75898 0.0
C1174 C 0.54758 0.99291 0.75752 0.0
C1175 C 0.53418 0.98917 0.77059 0.0
C1176 C 0.54445 0.9959 0.82306 0.0
C1177 C 0.55894 0.01109 0.83496 0.0
C1178 C 0.57547 0.01063 0.84047 0.0
C1179 C 0.57782 0.99498 0.8341 0.0
C1180 C 0.56328 0.97985 0.82208 0.0
C1181 C 0.54674 0.98031 0.81662 0.0
C1182 C 0.51748 0.99225 0.85001 0.0
C1183 C 0.52161 0.00759 0.8632 0.0
C1184 C 0.52694 0.00692 0.88153 0.0
C1185 C 0.52875 0.99111 0.88702 0.0
C1186 C 0.52415 0.9755 0.87382 0.0
C1187 C 0.51846 0.97603 0.85549 0.0
C1188 C 0.48279 0.99239 0.83835 0.0
C1189 C 0.48227 0.00869 0.84585 0.0
C1190 C 0.47054 0.00677 0.86012 0.0
C1191 C 0.45884 0.98842 0.86701 0.0
C1192 C 0.45897 0.97199 0.85893 0.0
C1193 C 0.47093 0.974 0.84482 0.0
C1194 C 0.49413 0.01507 0.71828 0.0
C1195 C 0.59535 0.99441 0.83993 0.0
H1196 H 0.96589 0.46944 0.71263 0.0
H1197 H 0.02784 0.63365 0.86108 0.0
H1198 H 0.97077 0.46502 0.81403 0.0
H1199 H 0.96265 0.43226 0.80203 0.0
H1200 H 0.02265 0.44942 0.80829 0.0
H1201 H 0.03058 0.48222 0.82057 0.0
H1202 H 0.97005 0.49436 0.79064 0.0
H1203 H 0.9628 0.48285 0.75784 0.0
H1204 H 0.02062 0.49365 0.75476 0.0
H1205 H 0.02773 0.50533 0.78754 0.0
H1206 H 0.97309 0.52762 0.81445 0.0
H1207 H 0.96502 0.54568 0.79297 0.0
H1208 H 0.01942 0.56612 0.7692 0.0
H1209 H 0.02744 0.54802 0.79096 0.0
H1210 H 0.98407 0.53617 0.85657 0.0
H1211 H 0.98524 0.56648 0.86733 0.0
H1212 H 0.03792 0.59982 0.84074 0.0
H1213 H 0.0367 0.56939 0.83028 0.0
H1214 H 0.98795 0.50277 0.87574 0.0
H1215 H 0.98947 0.51572 0.90721 0.0
H1216 H 0.04361 0.56724 0.89864 0.0
H1217 H 0.04268 0.55328 0.86765 0.0
H1218 H 0.98181 0.46935 0.85526 0.0
H1219 H 0.98445 0.44853 0.87744 0.0
H1220 H 0.04613 0.48677 0.88302 0.0
H1221 H 0.04313 0.50793 0.86122 0.0
O1222 O 0.96909 0.47413 0.72557 0.0
O1223 O 0.99896 0.47989 0.72473 0.0
O1224 O 0.0 0.60363 0.87056 0.0
O1225 O 0.02704 0.62144 0.85703 0.0
C1226 C 0.00588 0.49601 0.82424 0.0
C1227 C 0.00384 0.50771 0.81133 0.0
C1228 C 0.00546 0.52564 0.81745 0.0
C1229 C 0.00969 0.53218 0.8364 0.0
C1230 C 0.01239 0.52077 0.8493 0.0
C1231 C 0.01045 0.50263 0.84317 0.0
C1232 C 0.00125 0.47595 0.81802 0.0
C1233 C 0.98213 0.46164 0.81287 0.0
C1234 C 0.97755 0.443 0.80594 0.0
C1235 C 0.99203 0.43831 0.80405 0.0
C1236 C 0.01117 0.45256 0.80971 0.0
C1237 C 0.01575 0.47128 0.81665 0.0
C1238 C -0.00054 0.50084 0.79139 0.0
C1239 C 0.98117 0.49438 0.78281 0.0
C1240 C 0.97705 0.48774 0.76409 0.0
C1241 C 0.99115 0.48736 0.75366 0.0
C1242 C 0.00945 0.49378 0.76237 0.0
C1243 C 0.01355 0.50045 0.78108 0.0
C1244 C 0.00087 0.53665 0.80428 0.0
C1245 C 0.98325 0.53601 0.8046 0.0
C1246 C 0.97861 0.54617 0.79223 0.0
C1247 C 0.99156 0.55721 0.77936 0.0
C1248 C 0.00923 0.55779 0.77904 0.0
C1249 C 0.01381 0.54748 0.79138 0.0
C1250 C 0.01037 0.55062 0.84277 0.0
C1251 C 0.99589 0.55005 0.85317 0.0
C1252 C 0.99658 0.56737 0.85925 0.0
C1253 C 0.0117 0.58559 0.85491 0.0
C1254 C 0.0261 0.58606 0.84435 0.0
C1255 C 0.02542 0.56871 0.83833 0.0
C1256 C 0.01522 0.52703 0.86937 0.0
C1257 C 0.00053 0.51646 0.88091 0.0
C1258 C 0.00126 0.52412 0.89881 0.0
C1259 C 0.01645 0.54278 0.90539 0.0
C1260 C 0.03174 0.5528 0.89417 0.0
C1261 C 0.0312 0.54489 0.87637 0.0
C1262 C 0.01228 0.49009 0.85665 0.0
C1263 C 0.99588 0.47317 0.86127 0.0
C1264 C 0.99747 0.46123 0.87385 0.0
C1265 C 0.01554 0.46584 0.88194 0.0
C1266 C 0.03198 0.48287 0.87723 0.0
C1267 C 0.03033 0.49493 0.86473 0.0
C1268 C 0.98671 0.48026 0.73379 0.0
C1269 C 0.01249 0.60404 0.86134 0.0
H1270 H 0.4815 0.49905 0.70229 0.0
H1271 H 0.6337 0.63897 0.84886 0.0
H1272 H 0.46584 0.5102 0.7985 0.0
H1273 H 0.43985 0.47822 0.78524 0.0
H1274 H 0.46731 0.45023 0.81212 0.0
H1275 H 0.4933 0.48223 0.82513 0.0
H1276 H 0.50037 0.54173 0.77519 0.0
H1277 H 0.49151 0.52815 0.74296 0.0
H1278 H 0.50145 0.48131 0.75654 0.0
H1279 H 0.51053 0.4952 0.78865 0.0
H1280 H 0.53896 0.57959 0.79329 0.0
H1281 H 0.56339 0.5956 0.77127 0.0
H1282 H 0.57398 0.54729 0.77038 0.0
H1283 H 0.54935 0.53133 0.79205 0.0
H1284 H 0.53791 0.58794 0.83941 0.0
H1285 H 0.56776 0.61883 0.84792 0.0
H1286 H 0.60032 0.59087 0.83435 0.0
H1287 H 0.57038 0.56005 0.82612 0.0
H1288 H 0.5054 0.55613 0.86619 0.0
H1289 H 0.51707 0.56857 0.89861 0.0
H1290 H 0.56443 0.55865 0.89229 0.0
H1291 H 0.55238 0.54556 0.86033 0.0
H1292 H 0.46917 0.52054 0.84308 0.0
H1293 H 0.44891 0.5032 0.86779 0.0
H1294 H 0.49084 0.48796 0.88667 0.0
H1295 H 0.51106 0.50565 0.86222 0.0
O1296 O 0.48512 0.50421 0.71508 0.0
O1297 O 0.49031 0.48037 0.72282 0.0
O1298 O 0.60428 0.64063 0.85241 0.0
O1299 O 0.62168 0.62695 0.84557 0.0
C1300 C 0.49887 0.51776 0.81771 0.0
C1301 C 0.51117 0.52762 0.80381 0.0
C1302 C 0.52868 0.54516 0.80852 0.0
C1303 C 0.53377 0.55306 0.8271 0.0
C1304 C 0.52164 0.543 0.84109 0.0
C1305 C 0.50411 0.52538 0.83635 0.0
C1306 C 0.4814 0.49847 0.81274 0.0
C1307 C 0.46595 0.4971 0.80187 0.0
C1308 C 0.45115 0.47886 0.79434 0.0
C1309 C 0.4517 0.46179 0.79752 0.0
C1310 C 0.46667 0.46318 0.80927 0.0
C1311 C 0.48139 0.48138 0.81686 0.0
C1312 C 0.50595 0.51937 0.78424 0.0
C1313 C 0.50066 0.52856 0.77114 0.0
C1314 C 0.49558 0.52076 0.75276 0.0
C1315 C 0.49572 0.50361 0.74717 0.0
C1316 C 0.50114 0.4945 0.76037 0.0
C1317 C 0.50627 0.50236 0.77873 0.0
C1318 C 0.54243 0.55434 0.79423 0.0
C1319 C 0.54646 0.57243 0.78815 0.0
C1320 C 0.56046 0.58156 0.77566 0.0
C1321 C 0.5707 0.57275 0.7691 0.0
C1322 C 0.5662 0.55435 0.77491 0.0
C1323 C 0.5522 0.54524 0.78735 0.0
C1324 C 0.55199 0.57182 0.83201 0.0
C1325 C 0.55151 0.58854 0.83828 0.0
C1326 C 0.56858 0.60615 0.84312 0.0
C1327 C 0.58644 0.60733 0.84177 0.0
C1328 C 0.58683 0.5905 0.8355 0.0
C1329 C 0.56975 0.57289 0.83071 0.0
C1330 C 0.52817 0.55016 0.86083 0.0
C1331 C 0.51818 0.55648 0.87189 0.0
C1332 C 0.52483 0.56356 0.89033 0.0
C1333 C 0.54173 0.56472 0.89779 0.0
C1334 C 0.55152 0.55814 0.88675 0.0
C1335 C 0.54468 0.55073 0.86852 0.0
C1336 C 0.49161 0.51445 0.85099 0.0
C1337 C 0.47391 0.51342 0.85259 0.0
C1338 C 0.46234 0.50345 0.86665 0.0
C1339 C 0.46831 0.4943 0.87931 0.0
C1340 C 0.48598 0.49518 0.87743 0.0
C1341 C 0.49751 0.50517 0.86341 0.0
C1342 C 0.49024 0.49531 0.72766 0.0
C1343 C 0.60462 0.626 0.84692 0.0
H1344 H 0.63899 0.84153 0.67831 0.0
H1345 H 0.66221 0.70986 0.53747 0.0
H1346 H 0.61455 0.83236 0.58154 0.0
H1347 H 0.61992 0.86426 0.59377 0.0
H1348 H 0.67323 0.89308 0.56747 0.0
H1349 H 0.66825 0.86129 0.55601 0.0
H1350 H 0.6169 0.79971 0.6048 0.0
H1351 H 0.62101 0.81275 0.63696 0.0
H1352 H 0.67663 0.86131 0.62691 0.0
H1353 H 0.67244 0.84797 0.59488 0.0
H1354 H 0.61851 0.76242 0.58722 0.0
H1355 H 0.62829 0.74443 0.60722 0.0
H1356 H 0.68625 0.79385 0.61288 0.0
H1357 H 0.67626 0.8117 0.59311 0.0
H1358 H 0.61065 0.75402 0.54423 0.0
H1359 H 0.61218 0.72438 0.53708 0.0
H1360 H 0.67369 0.75742 0.5497 0.0
H1361 H 0.67194 0.78696 0.55663 0.0
H1362 H 0.60964 0.7765 0.51497 0.0
H1363 H 0.61293 0.7625 0.48539 0.0
H1364 H 0.6747 0.79809 0.49458 0.0
H1365 H 0.6712 0.81114 0.52428 0.0
H1366 H 0.60775 0.8211 0.53137 0.0
H1367 H 0.60662 0.83938 0.50538 0.0
H1368 H 0.66646 0.85964 0.49851 0.0
H1369 H 0.66735 0.84134 0.52422 0.0
O1370 O 0.6377 0.83658 0.66556 0.0
O1371 O 0.66611 0.86134 0.65962 0.0
O1372 O 0.62956 0.70507 0.5337 0.0
O1373 O 0.6612 0.72136 0.54016 0.0
C1374 C 0.63964 0.82538 0.56336 0.0
C1375 C 0.64162 0.8151 0.57793 0.0
C1376 C 0.64194 0.79771 0.57387 0.0
C1377 C 0.64013 0.79047 0.55532 0.0
C1378 C 0.63865 0.80094 0.5408 0.0
C1379 C 0.63827 0.81833 0.54477 0.0
C1380 C 0.64092 0.8445 0.56774 0.0
C1381 C 0.62719 0.84559 0.57812 0.0
C1382 C 0.63029 0.86374 0.58513 0.0
C1383 C 0.64697 0.88105 0.58151 0.0
C1384 C 0.66013 0.87996 0.57023 0.0
C1385 C 0.65724 0.86182 0.56358 0.0
C1386 C 0.64429 0.82298 0.59749 0.0
C1387 C 0.62998 0.81313 0.6096 0.0
C1388 C 0.63235 0.82064 0.62795 0.0
C1389 C 0.64913 0.83812 0.63449 0.0
C1390 C 0.66352 0.84786 0.62231 0.0
C1391 C 0.66114 0.8403 0.604 0.0
C1392 C 0.64669 0.78832 0.58874 0.0
C1393 C 0.63318 0.76948 0.59319 0.0
C1394 C 0.63884 0.75921 0.60448 0.0
C1395 C 0.6581 0.76764 0.61146 0.0
C1396 C 0.67128 0.787 0.60789 0.0
C1397 C 0.66561 0.79724 0.5966 0.0
C1398 C 0.64117 0.77256 0.55099 0.0
C1399 C 0.62442 0.7548 0.5454 0.0
C1400 C 0.62535 0.73791 0.54135 0.0
C1401 C 0.64306 0.73852 0.54285 0.0
C1402 C 0.65982 0.75642 0.54843 0.0
C1403 C 0.65887 0.7733 0.55242 0.0
C1404 C 0.64019 0.79489 0.52163 0.0
C1405 C 0.62383 0.78145 0.51035 0.0
C1406 C 0.62575 0.77352 0.49348 0.0
C1407 C 0.6441 0.77898 0.48772 0.0
C1408 C 0.66038 0.79321 0.49876 0.0
C1409 C 0.65843 0.80091 0.51561 0.0
C1410 C 0.63754 0.82967 0.52943 0.0
C1411 C 0.62056 0.8295 0.52418 0.0
C1412 C 0.61997 0.83999 0.50943 0.0
C1413 C 0.63639 0.85074 0.49974 0.0
C1414 C 0.65345 0.85112 0.50538 0.0
C1415 C 0.65401 0.84071 0.52007 0.0
C1416 C 0.65156 0.84611 0.65396 0.0
C1417 C 0.64412 0.72061 0.53861 0.0
H1418 H 0.1497 0.8408 0.68382 0.0
H1419 H 0.05013 0.6771 0.53201 0.0
H1420 H 0.16381 0.84578 0.5851 0.0
H1421 H 0.18928 0.87681 0.60019 0.0
H1422 H 0.22857 0.85487 0.59897 0.0
H1423 H 0.20286 0.82377 0.58359 0.0
H1424 H 0.1309 0.81678 0.60474 0.0
H1425 H 0.13452 0.82818 0.63736 0.0
H1426 H 0.17912 0.814 0.64714 0.0
H1427 H 0.1752 0.80244 0.61451 0.0
H1428 H 0.09989 0.78306 0.5755 0.0
H1429 H 0.0726 0.76763 0.59446 0.0
H1430 H 0.10389 0.74901 0.62965 0.0
H1431 H 0.1312 0.76435 0.61034 0.0
H1432 H 0.10354 0.77455 0.53713 0.0
H1433 H 0.0749 0.7443 0.52448 0.0
H1434 H 0.09318 0.71081 0.55597 0.0
H1435 H 0.12189 0.74117 0.56835 0.0
H1436 H 0.13951 0.80852 0.52351 0.0
H1437 H 0.1315 0.79903 0.49054 0.0
H1438 H 0.13939 0.74956 0.49728 0.0
H1439 H 0.14692 0.75902 0.53057 0.0
H1440 H 0.17359 0.84346 0.54692 0.0
H1441 H 0.19637 0.86218 0.52449 0.0
H1442 H 0.20907 0.81576 0.51564 0.0
H1443 H 0.18655 0.79727 0.53849 0.0
O1444 O 0.14842 0.8361 0.67099 0.0
O1445 O 0.17129 0.82859 0.67527 0.0
O1446 O 0.05266 0.70717 0.52078 0.0
O1447 O 0.06137 0.68928 0.53676 0.0
C1448 C 0.16534 0.81327 0.57588 0.0
C1449 C 0.15069 0.80197 0.58746 0.0
C1450 C 0.13402 0.78472 0.58003 0.0
C1451 C 0.13231 0.77836 0.56118 0.0
C1452 C 0.14697 0.78964 0.54962 0.0
C1453 C 0.16358 0.80706 0.55698 0.0
C1454 C 0.18151 0.83255 0.58339 0.0
C1455 C 0.17797 0.84774 0.58798 0.0
C1456 C 0.19248 0.86539 0.59671 0.0
C1457 C 0.21085 0.86818 0.601 0.0
C1458 C 0.21457 0.85316 0.59577 0.0
C1459 C 0.19995 0.83542 0.58702 0.0
C1460 C 0.15268 0.80864 0.60732 0.0
C1461 C 0.14133 0.816 0.61399 0.0
C1462 C 0.14348 0.82257 0.63261 0.0
C1463 C 0.1571 0.82198 0.64487 0.0
C1464 C 0.16848 0.81463 0.63809 0.0
C1465 C 0.16628 0.80803 0.61947 0.0
C1466 C 0.11742 0.77461 0.59142 0.0
C1467 C 0.10076 0.77542 0.58715 0.0
C1468 C 0.08522 0.76665 0.598 0.0
C1469 C 0.08612 0.75709 0.61348 0.0
C1470 C 0.10289 0.75642 0.61786 0.0
C1471 C 0.11841 0.76504 0.60683 0.0
C1472 C 0.11488 0.76002 0.5535 0.0
C1473 C 0.10141 0.76065 0.54115 0.0
C1474 C 0.08503 0.74336 0.53401 0.0
C1475 C 0.08177 0.72512 0.53918 0.0
C1476 C 0.09526 0.72459 0.55167 0.0
C1477 C 0.11166 0.7419 0.55877 0.0
C1478 C 0.14381 0.78448 0.52938 0.0
C1479 C 0.13977 0.7958 0.51781 0.0
C1480 C 0.1353 0.79038 0.49893 0.0
C1481 C 0.13485 0.77354 0.49119 0.0
C1482 C 0.1394 0.76248 0.50281 0.0
C1483 C 0.1438 0.76789 0.52178 0.0
C1484 C 0.17859 0.81911 0.54454 0.0
C1485 C 0.18163 0.83754 0.5405 0.0
C1486 C 0.19458 0.84816 0.52763 0.0
C1487 C 0.20448 0.8404 0.51834 0.0
C1488 C 0.20153 0.82202 0.52251 0.0
C1489 C 0.18878 0.81152 0.5356 0.0
C1490 C 0.15942 0.82906 0.66463 0.0
C1491 C 0.06438 0.7067 0.53165 0.0
H1492 H 0.19513 0.35546 0.70198 0.0
H1493 H 0.04887 0.33607 0.55226 0.0
H1494 H 0.21307 0.38001 0.60902 0.0
H1495 H 0.23805 0.37527 0.62396 0.0
H1496 H 0.21538 0.31999 0.59177 0.0
H1497 H 0.19002 0.32442 0.5774 0.0
H1498 H 0.17845 0.37679 0.63039 0.0
H1499 H 0.18616 0.37311 0.66238 0.0
H1500 H 0.17762 0.31604 0.64565 0.0
H1501 H 0.16965 0.3198 0.61378 0.0
H1502 H 0.14248 0.37607 0.61178 0.0
H1503 H 0.11841 0.36878 0.63425 0.0
H1504 H 0.10544 0.30871 0.63177 0.0
H1505 H 0.12981 0.31633 0.60979 0.0
H1506 H 0.1444 0.38361 0.56647 0.0
H1507 H 0.11497 0.38379 0.55747 0.0
H1508 H 0.0815 0.3223 0.56641 0.0
H1509 H 0.11105 0.32229 0.5752 0.0
H1510 H 0.17583 0.38486 0.54098 0.0
H1511 H 0.1673 0.38408 0.50798 0.0
H1512 H 0.12348 0.3232 0.50853 0.0
H1513 H 0.13244 0.32404 0.54128 0.0
H1514 H 0.21033 0.3854 0.55768 0.0
H1515 H 0.22639 0.38639 0.52944 0.0
H1516 H 0.1869 0.32447 0.51706 0.0
H1517 H 0.1708 0.3238 0.54493 0.0
O1518 O 0.19189 0.35655 0.68927 0.0
O1519 O 0.18754 0.3274 0.67991 0.0
O1520 O 0.07861 0.36802 0.55134 0.0
O1521 O 0.06074 0.33642 0.55577 0.0
C1522 C 0.1821 0.35313 0.58671 0.0
C1523 C 0.1693 0.3511 0.60032 0.0
C1524 C 0.15209 0.35083 0.59535 0.0
C1525 C 0.14777 0.35297 0.57687 0.0
C1526 C 0.16031 0.35458 0.56323 0.0
C1527 C 0.1774 0.35451 0.56811 0.0
C1528 C 0.19974 0.35259 0.59209 0.0
C1529 C 0.2138 0.36711 0.60485 0.0
C1530 C 0.22794 0.36434 0.61344 0.0
C1531 C 0.22849 0.34721 0.60907 0.0
C1532 C 0.21532 0.33338 0.59526 0.0
C1533 C 0.20093 0.33597 0.58694 0.0
C1534 C 0.17359 0.34861 0.61978 0.0
C1535 C 0.17816 0.36347 0.6337 0.0
C1536 C 0.18261 0.36134 0.65194 0.0
C1537 C 0.18257 0.3443 0.65656 0.0
C1538 C 0.17783 0.32937 0.64256 0.0
C1539 C 0.17331 0.33149 0.62435 0.0
C1540 C 0.13787 0.34673 0.60924 0.0
C1541 C 0.13448 0.36139 0.61622 0.0
C1542 C 0.12067 0.35716 0.62897 0.0
C1543 C 0.10998 0.33814 0.63485 0.0
C1544 C 0.11361 0.32357 0.62785 0.0
C1545 C 0.12744 0.32785 0.6152 0.0
C1546 C 0.12983 0.35298 0.57161 0.0
C1547 C 0.13069 0.37021 0.56648 0.0
C1548 C 0.11386 0.37026 0.56135 0.0
C1549 C 0.09586 0.35305 0.56126 0.0
C1550 C 0.0951 0.3358 0.56638 0.0
C1551 C 0.11194 0.33577 0.57146 0.0
C1552 C 0.1547 0.35453 0.54348 0.0
C1553 C 0.1644 0.3714 0.53391 0.0
C1554 C 0.15946 0.37093 0.51512 0.0
C1555 C 0.14478 0.35355 0.50562 0.0
C1556 C 0.13507 0.33673 0.51535 0.0
C1557 C 0.14 0.33722 0.5341 0.0
C1558 C 0.18946 0.35453 0.5533 0.0
C1559 C 0.20549 0.37201 0.54904 0.0
C1560 C 0.21459 0.37254 0.53291 0.0
C1561 C 0.20771 0.35557 0.52086 0.0
C1562 C 0.19228 0.33788 0.52581 0.0
C1563 C 0.18321 0.3374 0.54184 0.0
C1564 C 0.18746 0.34216 0.67592 0.0
C1565 C 0.07794 0.35303 0.55582 0.0
H1566 H 0.0162 0.42403 0.04934 0.0
H1567 H 0.95568 0.41709 0.13538 0.0
H1568 H 0.96452 0.37128 0.06036 0.0
H1569 H 0.0037 0.47095 0.12034 0.0
H1570 H 0.95681 0.40061 0.10657 0.0
H1571 H 0.01032 0.44193 0.07397 0.0
C1572 C 0.00353 0.41625 0.05688 0.0
C1573 C 0.99091 0.39612 0.05294 0.0
C1574 C 0.96696 0.41608 0.10947 0.0
C1575 C 0.98413 0.41648 0.08125 0.0
C1576 C 0.96624 0.42555 0.12586 0.0
C1577 C 0.97975 0.4454 0.13037 0.0
C1578 C 0.98135 0.42652 0.09755 0.0
C1579 C 0.99325 0.45554 0.1176 0.0
C1580 C 0.00015 0.42648 0.07093 0.0
C1581 C 0.97465 0.38678 0.06304 0.0
N1582 N 0.99382 0.44595 0.10188 0.0
N1583 N 0.97182 0.39701 0.07688 0.0
H1584 H 0.59597 0.60162 0.11062 0.0
H1585 H 0.54411 0.4972 0.15008 0.0
H1586 H 0.60421 0.55511 0.08861 0.0
H1587 H 0.55755 0.5503 0.18235 0.0
H1588 H 0.56419 0.517 0.12636 0.0
H1589 H 0.57933 0.58182 0.13569 0.0
C1590 C 0.59425 0.58719 0.11108 0.0
C1591 C 0.60141 0.57994 0.09752 0.0
C1592 C 0.56282 0.52425 0.13872 0.0
C1593 C 0.58227 0.55714 0.12615 0.0
C1594 C 0.55143 0.51299 0.15233 0.0
C1595 C 0.54892 0.52206 0.16821 0.0
C1596 C 0.57154 0.5447 0.14091 0.0
C1597 C 0.55862 0.5426 0.17017 0.0
C1598 C 0.58485 0.57595 0.12545 0.0
C1599 C 0.59889 0.56121 0.09883 0.0
N1600 N 0.56931 0.55318 0.15661 0.0
N1601 N 0.58934 0.55032 0.11285 0.0
H1602 H 0.42251 0.97866 0.05494 0.0
H1603 H 0.46466 0.03677 0.1544 0.0
H1604 H 0.4255 0.03336 0.07049 0.0
H1605 H 0.46029 0.98145 0.13869 0.0
H1606 H 0.45368 0.03771 0.12273 0.0
H1607 H 0.43969 0.98138 0.08442 0.0
C1608 C 0.42698 0.99136 0.06449 0.0
C1609 C 0.42245 0.00573 0.06034 0.0
C1610 C 0.45525 0.02543 0.12618 0.0
C1611 C 0.44196 0.00886 0.09422 0.0
C1612 C 0.46161 0.02494 0.14424 0.0
C1613 C 0.46321 0.00891 0.14925 0.0
C1614 C 0.45047 0.00979 0.11304 0.0
C1615 C 0.4589 0.9939 0.13554 0.0
C1616 C 0.43675 0.99289 0.08135 0.0
C1617 C 0.42864 0.02191 0.07319 0.0
N1618 N 0.45263 0.99466 0.11811 0.0
N1619 N 0.43793 0.02295 0.08964 0.0
H1620 H 0.39672 0.95771 0.96715 0.0
H1621 H 0.44048 0.0088 0.87535 0.0
H1622 H 0.41556 0.01824 0.95986 0.0
H1623 H 0.45061 0.96408 0.89541 0.0
H1624 H 0.42431 0.00803 0.90318 0.0
H1625 H 0.40979 0.95557 0.93762 0.0
C1626 C 0.4035 0.97047 0.95929 0.0
C1627 C 0.40522 0.98821 0.96595 0.0
C1628 C 0.43 0.99832 0.90138 0.0
C1629 C 0.41969 0.98576 0.93228 0.0
C1630 C 0.43935 0.99882 0.88554 0.0
C1631 C 0.44726 0.9867 0.88303 0.0
C1632 C 0.42819 0.98541 0.91473 0.0
C1633 C 0.44467 0.9736 0.89656 0.0
C1634 C 0.41096 0.96925 0.94254 0.0
C1635 C 0.4141 0.00434 0.95529 0.0
N1636 N 0.43539 0.97333 0.91185 0.0
N1637 N 0.42091 0.0027 0.93895 0.0
H1638 H 0.04316 0.41769 0.97603 0.0
H1639 H 0.99463 0.42578 0.88126 0.0
H1640 H 0.98468 0.37665 0.95563 0.0
H1641 H 0.03994 0.4766 0.91348 0.0
H1642 H 0.99508 0.40528 0.90506 0.0
H1643 H 0.04633 0.43719 0.94962 0.0
C1644 C 0.0311 0.41269 0.96588 0.0
C1645 C 0.0136 0.39565 0.96801 0.0
C1646 C 0.00499 0.42092 0.90684 0.0
C1647 C 0.01716 0.4176 0.93791 0.0
C1648 C 0.00468 0.43267 0.89332 0.0
C1649 C 0.01703 0.45305 0.89547 0.0
C1650 C 0.01789 0.4295 0.92256 0.0
C1651 C 0.03019 0.46098 0.91115 0.0
C1652 C 0.03288 0.42383 0.95092 0.0
C1653 C 0.99837 0.38979 0.95455 0.0
N1654 N 0.03021 0.4492 0.92415 0.0
N1655 N 0.00051 0.40074 0.94006 0.0
H1656 H 0.61743 0.62986 0.99416 0.0
H1657 H 0.52338 0.55434 0.92976 0.0
H1658 H 0.57101 0.57794 0.01414 0.0
H1659 H 0.57785 0.59391 0.90912 0.0
H1660 H 0.53784 0.56674 0.96155 0.0
H1661 H 0.60006 0.62084 0.96367 0.0
C1662 C 0.60347 0.61666 0.99218 0.0
C1663 C 0.59571 0.60452 0.00664 0.0
C1664 C 0.54654 0.57278 0.95003 0.0
C1665 C 0.57578 0.59412 0.97177 0.0
C1666 C 0.5383 0.5658 0.93196 0.0
C1667 C 0.54954 0.57305 0.91692 0.0
C1668 C 0.56602 0.58729 0.95294 0.0
C1669 C 0.5688 0.58782 0.92041 0.0
C1670 C 0.59361 0.61149 0.97476 0.0
C1671 C 0.57755 0.58762 0.00331 0.0
N1672 N 0.57644 0.59444 0.93805 0.0
N1673 N 0.5682 0.58285 0.98616 0.0
H1674 H 0.97604 0.58205 0.99672 0.0
H1675 H 0.04588 0.56794 0.93125 0.0
H1676 H 0.03676 0.6238 0.99867 0.0
H1677 H 0.98448 0.5402 0.91961 0.0
H1678 H 0.04344 0.58541 0.95882 0.0
H1679 H 0.97962 0.56306 0.97146 0.0
C1680 C 0.99017 0.58718 0.99188 0.0
C1681 C 0.00611 0.6046 -0.00029 0.0
C1682 C 0.03054 0.57537 0.95023 0.0
C1683 C 0.01032 0.58287 0.97078 0.0
C1684 C 0.0319 0.56543 0.93446 0.0
C1685 C 0.01536 0.55246 0.92302 0.0
C1686 C 0.0125 0.57218 0.95467 0.0
C1687 C 0.99761 0.54965 0.92811 0.0
C1688 C 0.99219 0.57635 0.97742 0.0
C1689 C 0.02409 0.6105 0.99292 0.0
N1690 N 0.99668 0.5594 0.94351 0.0
N1691 N 0.02572 0.59965 0.97879 0.0
H1692 H 0.37506 0.41945 0.9454 0.0
H1693 H 0.48005 0.49391 0.91514 0.0
H1694 H 0.42773 0.43031 0.97418 0.0
H1695 H 0.42898 0.47088 0.87803 0.0
H1696 H 0.46036 0.47482 0.93921 0.0
H1697 H 0.39399 0.4425 0.92285 0.0
C1698 C 0.39058 0.42684 0.94707 0.0
C1699 C 0.39987 0.4229 0.96156 0.0
C1700 C 0.45344 0.47399 0.92582 0.0
C1701 C 0.42149 0.44919 0.93602 0.0
C1702 C 0.46469 0.4848 0.91202 0.0
C1703 C 0.45622 0.48379 0.89441 0.0
C1704 C 0.4335 0.46209 0.92209 0.0
C1705 C 0.43614 0.47217 0.8914 0.0
C1706 C 0.40135 0.4399 0.93419 0.0
C1707 C 0.41999 0.43281 0.96311 0.0
N1708 N 0.42546 0.46167 0.90507 0.0
N1709 N 0.43011 0.44546 0.9505 0.0
H1710 H 0.59087 0.02887 0.99446 0.0
H1711 H 0.51857 0.96042 0.90909 0.0
H1712 H 0.56772 0.96641 0.98917 0.0
H1713 H 0.55679 0.02278 0.90858 0.0
H1714 H 0.53251 0.96182 0.94019 0.0
H1715 H 0.57384 0.0263 0.96499 0.0
C1716 C 0.58206 0.01457 0.98715 0.0
C1717 C 0.5808 0.99784 0.9942 0.0
C1718 C 0.53772 0.97516 0.93323 0.0
C1719 C 0.56131 0.9948 0.96038 0.0
C1720 C 0.52985 0.97439 0.91545 0.0
C1721 C 0.53643 0.99152 0.90614 0.0
C1722 C 0.55212 0.99322 0.94179 0.0
C1723 C 0.55091 0.00923 0.91526 0.0
C1724 C 0.57241 0.01312 0.97029 0.0
C1725 C 0.56914 0.97968 0.98416 0.0
N1726 N 0.55821 0.0096 0.93253 0.0
N1727 N 0.55986 0.97863 0.96768 0.0
H1728 H 0.56901 0.97916 0.08424 0.0
H1729 H 0.55711 0.04109 0.16611 0.0
H1730 H 0.60734 0.04163 0.09253 0.0
H1731 H 0.54112 0.98046 0.16818 0.0
H1732 H 0.57325 0.0424 0.13787 0.0
H1733 H 0.55517 0.98002 0.11312 0.0
C1734 C 0.57444 0.99312 0.09208 0.0
C1735 C 0.58938 0.01036 0.08598 0.0
C1736 C 0.56628 0.02889 0.14464 0.0
C1737 C 0.57355 0.01141 0.11919 0.0
C1738 C 0.55716 0.02813 0.1608 0.0
C1739 C 0.54749 0.01055 0.16945 0.0
C1740 C 0.56549 0.01189 0.137 0.0
C1741 C 0.5479 0.99419 0.16178 0.0
C1742 C 0.56661 0.99357 0.10865 0.0
C1743 C 0.59585 0.02801 0.09678 0.0
N1744 N 0.55655 0.99522 0.14593 0.0
N1745 N 0.58783 0.02812 0.1129 0.0
H1746 H 0.02028 0.62179 0.09564 0.0
H1747 H 0.95638 0.52247 0.14193 0.0
H1748 H 0.9597 0.5849 0.08016 0.0
H1749 H 0.01065 0.56932 0.16699 0.0
H1750 H 0.95715 0.54413 0.11861 0.0
H1751 H 0.01713 0.60168 0.1211 0.0
C1752 C 0.00627 0.60946 0.09766 0.0
C1753 C 0.99022 0.60493 0.08576 0.0
C1754 C 0.9688 0.54965 0.12931 0.0
C1755 C 0.98654 0.58171 0.11483 0.0
C1756 C 0.96836 0.53734 0.14267 0.0
C1757 C 0.9836 0.54398 0.15636 0.0
C1758 C 0.98466 0.56868 0.12956 0.0
C1759 C 0.99882 0.56336 0.15647 0.0
C1760 C 0.00447 0.59802 0.11224 0.0
C1761 C 0.97241 0.58886 0.08907 0.0
N1762 N 0.99903 0.57493 0.1432 0.0
N1763 N 0.97105 0.57766 0.10322 0.0
H1764 H 0.41474 0.38086 0.04641 0.0
H1765 H 0.43202 0.44661 0.13975 0.0
H1766 H 0.39432 0.42146 0.05349 0.0
H1767 H 0.46618 0.4199 0.12879 0.0
H1768 H 0.41642 0.43526 0.10876 0.0
H1769 H 0.43218 0.3928 0.07711 0.0
C1770 C 0.41398 0.39231 0.05439 0.0
C1771 C 0.40305 0.40017 0.04744 0.0
C1772 C 0.42741 0.43196 0.11305 0.0
C1773 C 0.42274 0.41371 0.08243 0.0
C1774 C 0.43646 0.43857 0.13076 0.0
C1775 C 0.4507 0.43449 0.13688 0.0
C1776 C 0.43237 0.42093 0.10129 0.0
C1777 C 0.45524 0.42334 0.12471 0.0
C1778 C 0.42394 0.39912 0.07186 0.0
C1779 C 0.40255 0.41497 0.0583 0.0
N1780 N 0.44609 0.41692 0.10748 0.0
N1781 N 0.41216 0.42117 0.07527 0.0
H1782 H 0.63222 0.7181 0.38048 0.0
H1783 H 0.67054 0.76761 0.48323 0.0
H1784 H 0.68845 0.73525 0.40534 0.0
H1785 H 0.62285 0.76754 0.454 0.0
H1786 H 0.67515 0.75246 0.45557 0.0
H1787 H 0.62645 0.73306 0.40804 0.0
C1788 C 0.64333 0.72501 0.39172 0.0
C1789 C 0.66085 0.72547 0.39065 0.0
C1790 C 0.66371 0.75582 0.45514 0.0
C1791 C 0.6543 0.74236 0.42211 0.0
C1792 C 0.66113 0.7646 0.47093 0.0
C1793 C 0.64648 0.76921 0.4709 0.0
C1794 C 0.65146 0.75134 0.43914 0.0
C1795 C 0.63431 0.76424 0.45468 0.0
C1796 C 0.64005 0.73356 0.40738 0.0
C1797 C 0.67476 0.73461 0.40556 0.0
N1798 N 0.63709 0.75559 0.43941 0.0
N1799 N 0.67116 0.7426 0.42068 0.0
H1800 H 0.28773 0.93115 0.45607 0.0
H1801 H 0.20627 0.82642 0.48369 0.0
H1802 H 0.25343 0.88248 0.41578 0.0
H1803 H 0.23192 0.87916 0.52025 0.0
H1804 H 0.22652 0.84523 0.45952 0.0
H1805 H 0.27061 0.91069 0.48059 0.0
C1806 C 0.27668 0.91608 0.45239 0.0
C1807 C 0.2719 0.90853 0.43384 0.0
C1808 C 0.22776 0.85265 0.47287 0.0
C1809 C 0.25214 0.88502 0.4619 0.0
C1810 C 0.21632 0.84192 0.48668 0.0
C1811 C 0.2174 0.85129 0.50395 0.0
C1812 C 0.24049 0.87284 0.47644 0.0
C1813 C 0.23049 0.87142 0.50705 0.0
C1814 C 0.26686 0.90442 0.4664 0.0
C1815 C 0.2575 0.88889 0.4299 0.0
N1816 N 0.24151 0.88151 0.49343 0.0
N1817 N 0.24804 0.8778 0.44383 0.0
H1818 H 0.10397 0.37387 0.40167 0.0
H1819 H 0.13602 0.32455 0.47841 0.0
H1820 H 0.09264 0.31454 0.39543 0.0
H1821 H 0.14088 0.38109 0.48748 0.0
H1822 H 0.12414 0.32244 0.44639 0.0
H1823 H 0.12173 0.3786 0.43143 0.0
C1824 C 0.10541 0.36191 0.40647 0.0
C1825 C 0.09669 0.34373 0.39615 0.0
C1826 C 0.12791 0.33537 0.45535 0.0
C1827 C 0.11689 0.34901 0.4302 0.0
C1828 C 0.13461 0.33654 0.47366 0.0
C1829 C 0.13921 0.35291 0.48572 0.0
C1830 C 0.12576 0.35066 0.44901 0.0
C1831 C 0.13755 0.36822 0.47867 0.0
C1832 C 0.1155 0.3646 0.42348 0.0
C1833 C 0.09904 0.32876 0.403 0.0
N1834 N 0.13081 0.36665 0.46082 0.0
N1835 N 0.1088 0.33169 0.41965 0.0
H1836 H 0.10874 0.34949 0.30909 0.0
H1837 H 0.09056 0.28582 0.21356 0.0
H1838 H 0.05784 0.29316 0.29548 0.0
H1839 H 0.14205 0.34102 0.22963 0.0
H1840 H 0.07826 0.28768 0.24341 0.0
H1841 H 0.12123 0.34599 0.28013 0.0
C1842 C 0.10023 0.3363 0.30004 0.0
C1843 C 0.0822 0.32161 0.30468 0.0
C1844 C 0.09224 0.29938 0.24037 0.0
C1845 C 0.09637 0.31755 0.27128 0.0
C1846 C 0.09928 0.29832 0.22335 0.0
C1847 C 0.11731 0.31337 0.21899 0.0
C1848 C 0.10332 0.31559 0.25314 0.0
C1849 C 0.12792 0.32927 0.23218 0.0
C1850 C 0.10736 0.33431 0.28345 0.0
C1851 C 0.07182 0.30482 0.29242 0.0
N1852 N 0.12077 0.32995 0.2486 0.0
N1853 N 0.07901 0.30328 0.27621 0.0
H1854 H 0.68498 0.7606 0.32079 0.0
H1855 H 0.69593 0.77215 0.21426 0.0
H1856 H 0.69864 0.72363 0.28711 0.0
H1857 H 0.7115 0.82169 0.25291 0.0
H1858 H 0.69473 0.75295 0.24026 0.0
H1859 H 0.69248 0.78233 0.29569 0.0
C1860 C 0.68969 0.75716 0.30814 0.0
C1861 C 0.69115 0.74032 0.30595 0.0
C1862 C 0.69867 0.7681 0.24301 0.0
C1863 C 0.69942 0.76484 0.27717 0.0
C1864 C 0.69929 0.77899 0.22823 0.0
C1865 C 0.70383 0.79846 0.23154 0.0
C1866 C 0.70214 0.77664 0.26119 0.0
C1867 C 0.70807 0.80673 0.24984 0.0
C1868 C 0.69404 0.76958 0.29388 0.0
C1869 C 0.69737 0.73652 0.28933 0.0
N1870 N 0.70684 0.79568 0.26403 0.0
N1871 N 0.70101 0.74855 0.27543 0.0
H1872 H 0.29004 0.95819 0.32835 0.0
H1873 H 0.19157 0.8929 0.26557 0.0
H1874 H 0.23699 0.91795 0.35106 0.0
H1875 H 0.2476 0.92263 0.24452 0.0
H1876 H 0.20666 0.90587 0.29706 0.0
H1877 H 0.27326 0.94945 0.29766 0.0
C1878 C 0.27479 0.94763 0.3269 0.0
C1879 C 0.26492 0.93864 0.34226 0.0
C1880 C 0.2156 0.90962 0.28552 0.0
C1881 C 0.24561 0.92846 0.30705 0.0
C1882 C 0.20701 0.90231 0.26759 0.0
C1883 C 0.21841 0.90657 0.25251 0.0
C1884 C 0.23567 0.92144 0.28826 0.0
C1885 C 0.23834 0.91877 0.25582 0.0
C1886 C 0.26523 0.9426 0.30934 0.0
C1887 C 0.24515 0.92514 0.33956 0.0
N1888 N 0.24632 0.92573 0.27331 0.0
N1889 N 0.23614 0.92034 0.32224 0.0
H1890 H 0.70632 0.95736 0.33315 0.0
H1891 H 0.66172 0.87314 0.25124 0.0
H1892 H 0.6465 0.91243 0.32636 0.0
H1893 H 0.72259 0.90582 0.26724 0.0
H1894 H 0.65615 0.88844 0.27809 0.0
H1895 H 0.71292 0.94008 0.30822 0.0
C1896 C 0.6946 0.94386 0.32643 0.0
C1897 C 0.67583 0.93633 0.33174 0.0
C1898 C 0.67072 0.89215 0.27585 0.0
C1899 C 0.68323 0.91662 0.30331 0.0
C1900 C 0.67394 0.88325 0.26056 0.0
C1901 C 0.69268 0.888 0.25696 0.0
C1902 C 0.68634 0.9062 0.28759 0.0
C1903 C 0.70791 0.90181 0.26932 0.0
C1904 C 0.69839 0.93399 0.31228 0.0
C1905 C 0.66118 0.91877 0.32267 0.0
N1906 N 0.70442 0.91053 0.28403 0.0
N1907 N 0.66517 0.90958 0.30883 0.0
H1908 H 0.09619 0.77471 0.31564 0.0
H1909 H 0.09406 0.80736 0.21389 0.0
H1910 H 0.0434 0.75414 0.2819 0.0
H1911 H 0.14472 0.8323 0.25176 0.0
H1912 H 0.07464 0.78952 0.2389 0.0
H1913 H 0.11358 0.79763 0.29293 0.0
C1914 C 0.08823 0.77517 0.30347 0.0
C1915 C 0.06836 0.76242 0.30054 0.0
C1916 C 0.08998 0.79904 0.24175 0.0
C1917 C 0.08826 0.78851 0.27422 0.0
C1918 C 0.10106 0.80927 0.22751 0.0
C1919 C 0.12108 0.82111 0.23068 0.0
C1920 C 0.09901 0.80068 0.25925 0.0
C1921 C 0.1294 0.82298 0.24857 0.0
C1922 C 0.09817 0.78828 0.29048 0.0
C1923 C 0.05874 0.76374 0.28463 0.0
N1924 N 0.11836 0.81277 0.2621 0.0
N1925 N 0.06884 0.77639 0.27189 0.0
H1926 H 0.23715 0.29264 0.32081 0.0
H1927 H 0.18273 0.32617 0.25013 0.0
H1928 H 0.2351 0.34567 0.33013 0.0
H1929 H 0.20342 0.28739 0.23384 0.0
H1930 H 0.19569 0.32864 0.2818 0.0
H1931 H 0.21841 0.28571 0.29117 0.0
C1932 C 0.23255 0.30269 0.31672 0.0
C1933 C 0.23779 0.31983 0.32784 0.0
C1934 C 0.19724 0.31948 0.27129 0.0
C1935 C 0.21637 0.31196 0.29409 0.0
C1936 C 0.18994 0.31812 0.25318 0.0
C1937 C 0.19222 0.30678 0.23917 0.0
C1938 C 0.20674 0.30927 0.2755 0.0
C1939 C 0.2012 0.29623 0.24414 0.0
C1940 C 0.22194 0.29876 0.2998 0.0
C1941 C 0.23148 0.33237 0.32189 0.0
N1942 N 0.20823 0.29782 0.26187 0.0
N1943 N 0.22113 0.32821 0.30538 0.0
H1944 H 0.28147 0.37459 0.43074 0.0
H1945 H 0.18811 0.33778 0.48756 0.0
H1946 H 0.22513 0.32697 0.41152 0.0
H1947 H 0.2456 0.37535 0.51266 0.0
H1948 H 0.2013 0.33756 0.45808 0.0
H1949 H 0.26835 0.37902 0.4593 0.0
C1950 C 0.26632 0.36524 0.43244 0.0
C1951 C 0.25437 0.35032 0.41883 0.0
C1952 C 0.21107 0.34587 0.47002 0.0
C1953 C 0.23934 0.35527 0.45129 0.0
C1954 C 0.20355 0.3459 0.4869 0.0
C1955 C 0.21579 0.35629 0.50272 0.0
C1956 C 0.23101 0.35637 0.4688 0.0
C1957 C 0.23564 0.3671 0.50084 0.0
C1958 C 0.25888 0.36771 0.44874 0.0
C1959 C 0.23488 0.33857 0.42171 0.0
N1960 N 0.24266 0.36677 0.4842 0.0
N1961 N 0.228 0.34127 0.43762 0.0
H1962 H 0.62438 0.92703 0.42416 0.0
H1963 H 0.65231 0.85267 0.46698 0.0
H1964 H 0.67017 0.9183 0.407 0.0
H1965 H 0.61935 0.87312 0.49586 0.0
H1966 H 0.65424 0.87266 0.44183 0.0
H1967 H 0.61797 0.90361 0.44781 0.0
C1968 C 0.63298 0.92012 0.42531 0.0
C1969 C 0.6479 0.92467 0.41372 0.0
C1970 C 0.64653 0.87277 0.45364 0.0
C1971 C 0.64056 0.89793 0.44039 0.0
C1972 C 0.64549 0.86141 0.46804 0.0
C1973 C 0.63596 0.8615 0.48371 0.0
C1974 C 0.63795 0.88435 0.45479 0.0
C1975 C 0.62687 0.87265 0.48404 0.0
C1976 C 0.62935 0.90684 0.43879 0.0
C1977 C 0.65863 0.91535 0.41574 0.0
N1978 N 0.62821 0.88378 0.46983 0.0
N1979 N 0.65474 0.90244 0.42877 0.0
H1980 H 0.07517 0.7073 0.38745 0.0
H1981 H 0.14287 0.79625 0.46172 0.0
H1982 H 0.08752 0.7665 0.38282 0.0
H1983 H 0.1122 0.73604 0.47527 0.0
H1984 H 0.12864 0.78561 0.42996 0.0
H1985 H 0.09471 0.7179 0.41703 0.0
C1986 C 0.08217 0.72256 0.39257 0.0
C1987 C 0.07964 0.73604 0.3828 0.0
C1988 C 0.12519 0.77475 0.43988 0.0
C1989 C 0.10203 0.74821 0.41638 0.0
C1990 C 0.13323 0.78079 0.45803 0.0
C1991 C 0.1285 0.76706 0.47132 0.0
C1992 C 0.11247 0.75482 0.43489 0.0
C1993 C 0.11635 0.74716 0.46554 0.0
C1994 C 0.09324 0.72856 0.40943 0.0
C1995 C 0.08899 0.75562 0.39002 0.0
N1996 N 0.10865 0.74165 0.44777 0.0
N1997 N 0.09976 0.76112 0.40639 0.0
H1998 H 0.32654 0.08484 0.7073 0.0
H1999 H 0.28208 0.07054 0.80565 0.0
H2000 H 0.2999 0.02995 0.73257 0.0
H2001 H 0.3161 0.12676 0.78397 0.0
H2002 H 0.28399 0.05466 0.77679 0.0
H2003 H 0.31842 0.09956 0.73311 0.0
C2004 C 0.31879 0.07583 0.71819 0.0
C2005 C 0.31402 0.05619 0.71789 0.0
C2006 C 0.29089 0.07046 0.77828 0.0
C2007 C 0.30477 0.07295 0.7475 0.0
C2008 C 0.28969 0.07953 0.7947 0.0
C2009 C 0.29905 0.10002 0.79725 0.0
C2010 C 0.3015 0.08194 0.76429 0.0
C2011 C 0.30892 0.11094 0.78267 0.0
C2012 C 0.31421 0.08425 0.73294 0.0
C2013 C 0.30395 0.04518 0.73233 0.0
N2014 N 0.30997 0.10177 0.76686 0.0
N2015 N 0.29976 0.05375 0.74662 0.0
H2016 H 0.91 0.21779 0.74327 0.0
H2017 H 0.90815 0.20746 0.85052 0.0
H2018 H 0.96105 0.25169 0.78003 0.0
H2019 H 0.87061 0.15885 0.81146 0.0
H2020 H 0.92709 0.22502 0.82511 0.0
H2021 H 0.89442 0.19671 0.76812 0.0
C2022 C 0.91799 0.22064 0.75652 0.0
C2023 C 0.93679 0.2365 0.75966 0.0
C2024 C 0.91485 0.21041 0.82215 0.0
C2025 C 0.91899 0.21277 0.78817 0.0
C2026 C 0.90403 0.20047 0.83659 0.0
C2027 C 0.88785 0.18175 0.83299 0.0
C2028 C 0.90914 0.20173 0.80398 0.0
C2029 C 0.88308 0.17323 0.81476 0.0
C2030 C 0.90912 0.20861 0.77066 0.0
C2031 C 0.94654 0.23957 0.77706 0.0
N2032 N 0.89352 0.18341 0.80086 0.0
N2033 N 0.93741 0.22799 0.79079 0.0
H2034 H 0.74469 0.641 0.72873 0.0
H2035 H 0.81726 0.71372 0.81203 0.0
H2036 H 0.76936 0.7036 0.72987 0.0
H2037 H 0.77772 0.65215 0.81601 0.0
H2038 H 0.80369 0.71054 0.78034 0.0
H2039 H 0.76128 0.64511 0.75889 0.0
C2040 C 0.75377 0.65565 0.73525 0.0
C2041 C 0.75556 0.67198 0.72684 0.0
C2042 C 0.79809 0.69776 0.78819 0.0
C2043 C 0.77454 0.67678 0.76146 0.0
C2044 C 0.80574 0.69956 0.80631 0.0
C2045 C 0.79871 0.68317 0.81677 0.0
C2046 C 0.78343 0.67941 0.78043 0.0
C2047 C 0.78394 0.66514 0.80845 0.0
C2048 C 0.76316 0.65797 0.75252 0.0
C2049 C 0.76754 0.69062 0.73593 0.0
N2050 N 0.77685 0.66376 0.79082 0.0
N2051 N 0.77655 0.69253 0.75282 0.0
H2052 H 0.76978 0.67983 0.63927 0.0
H2053 H 0.75275 0.61437 0.54514 0.0
H2054 H 0.71871 0.62359 0.62585 0.0
H2055 H 0.80227 0.67158 0.55942 0.0
H2056 H 0.74033 0.61643 0.57493 0.0
H2057 H 0.78237 0.67592 0.61053 0.0
C2058 C 0.76125 0.66657 0.63031 0.0
C2059 C 0.74314 0.65204 0.63493 0.0
C2060 C 0.75389 0.62853 0.57149 0.0
C2061 C 0.75742 0.6475 0.60178 0.0
C2062 C 0.76099 0.62735 0.55452 0.0
C2063 C 0.77847 0.64292 0.54968 0.0
C2064 C 0.76442 0.64535 0.58373 0.0
C2065 C 0.78854 0.6594 0.56235 0.0
C2066 C 0.76843 0.66435 0.61384 0.0
C2067 C 0.73275 0.63515 0.62279 0.0
N2068 N 0.78138 0.66017 0.57873 0.0
N2069 N 0.74 0.63337 0.60669 0.0
H2070 H 0.32414 0.04641 0.61694 0.0
H2071 H 0.38375 0.15103 0.5795 0.0
H2072 H 0.37774 0.09107 0.64504 0.0
H2073 H 0.34347 0.09952 0.54461 0.0
H2074 H 0.38198 0.13007 0.60391 0.0
H2075 H 0.33065 0.06632 0.59067 0.0
C2076 C 0.33735 0.06041 0.61752 0.0
C2077 C 0.35039 0.06718 0.63319 0.0
C2078 C 0.37371 0.12339 0.59083 0.0
C2079 C 0.35786 0.09016 0.60322 0.0
C2080 C 0.37476 0.13533 0.57683 0.0
C2081 C 0.36354 0.12707 0.56001 0.0
C2082 C 0.36119 0.1031 0.58805 0.0
C2083 C 0.352 0.10661 0.55749 0.0
C2084 C 0.3411 0.07173 0.60249 0.0
C2085 C 0.36733 0.08536 0.63318 0.0
N2086 N 0.35096 0.09537 0.57142 0.0
N2087 N 0.3705 0.09638 0.61849 0.0
H2088 H 0.90669 0.26328 0.67649 0.0
H2089 H 0.91526 0.23449 0.57254 0.0
H2090 H 0.94835 0.24766 0.66047 0.0
H2091 H 0.86132 0.22465 0.59134 0.0
H2092 H 0.92916 0.24351 0.60433 0.0
H2093 H 0.89112 0.25295 0.64494 0.0
C2094 C 0.91248 0.25759 0.66637 0.0
C2095 C 0.92881 0.25631 0.67105 0.0
C2096 C 0.91425 0.23931 0.6015 0.0
C2097 C 0.91136 0.24485 0.63509 0.0
C2098 C 0.90624 0.23404 0.58333 0.0
C2099 C 0.88695 0.2285 0.57917 0.0
C2100 C 0.90307 0.23939 0.6157 0.0
C2101 C 0.87626 0.22894 0.59381 0.0
C2102 C 0.90359 0.25169 0.64843 0.0
C2103 C 0.93576 0.24885 0.65746 0.0
N2104 N 0.88448 0.23432 0.61144 0.0
N2105 N 0.92709 0.24356 0.64006 0.0
H2106 H 0.3749 0.29047 0.66605 0.0
H2107 H 0.32679 0.20904 0.58181 0.0
H2108 H 0.31401 0.24959 0.65755 0.0
H2109 H 0.38734 0.23741 0.59871 0.0
H2110 H 0.32219 0.22473 0.609 0.0
H2111 H 0.3802 0.27249 0.64078 0.0
C2112 C 0.36267 0.2777 0.65889 0.0
C2113 C 0.34398 0.27153 0.66382 0.0
C2114 C 0.33647 0.2274 0.60688 0.0
C2115 C 0.34991 0.25103 0.63498 0.0
C2116 C 0.33912 0.21827 0.59139 0.0
C2117 C 0.35749 0.2217 0.58796 0.0
C2118 C 0.35231 0.24035 0.61901 0.0
C2119 C 0.37294 0.23444 0.60066 0.0
C2120 C 0.36571 0.26742 0.64455 0.0
C2121 C 0.32865 0.25487 0.65418 0.0
N2122 N 0.37003 0.2434 0.61558 0.0
N2123 N 0.33194 0.24528 0.64015 0.0
H2124 H 0.72134 0.1005 0.62384 0.0
H2125 H 0.79591 0.11781 0.54804 0.0
H2126 H 0.7543 0.07145 0.62121 0.0
H2127 H 0.77998 0.16081 0.56296 0.0
H2128 H 0.77704 0.09812 0.57217 0.0
H2129 H 0.73924 0.12046 0.59895 0.0
C2130 C 0.73232 0.09833 0.61803 0.0
C2131 C 0.7364 0.08436 0.6246 0.0
C2132 C 0.77769 0.11188 0.57018 0.0
C2133 C 0.75663 0.10683 0.59615 0.0
C2134 C 0.78856 0.12322 0.55645 0.0
C2135 C 0.7898 0.14119 0.55355 0.0
C2136 C 0.76773 0.11837 0.58106 0.0
C2137 C 0.77938 0.14703 0.56457 0.0
C2138 C 0.74252 0.10972 0.60389 0.0
C2139 C 0.75075 0.08212 0.61662 0.0
N2140 N 0.76879 0.13566 0.57786 0.0
N2141 N 0.76026 0.09315 0.60277 0.0
H2142 H 0.8883 0.62312 0.65978 0.0
H2143 H 0.87612 0.67699 0.57627 0.0
H2144 H 0.90513 0.68422 0.66422 0.0
H2145 H 0.84014 0.61446 0.57833 0.0
H2146 H 0.88726 0.67954 0.60838 0.0
H2147 H 0.87054 0.61898 0.63006 0.0
C2148 C 0.88798 0.63557 0.65466 0.0
C2149 C 0.89833 0.65408 0.66438 0.0
C2150 C 0.87677 0.66527 0.60188 0.0
C2151 C 0.87841 0.64952 0.63038 0.0
C2152 C 0.87026 0.66378 0.58349 0.0
C2153 C 0.857 0.64546 0.57444 0.0
C2154 C 0.87033 0.64832 0.61135 0.0
C2155 C 0.85056 0.62886 0.58457 0.0
C2156 C 0.87787 0.6332 0.63771 0.0
C2157 C 0.89744 0.66971 0.65714 0.0
N2158 N 0.85741 0.63066 0.60244 0.0
N2159 N 0.88791 0.66714 0.64046 0.0
H2160 H 0.91662 0.65029 0.76537 0.0
H2161 H 0.88381 0.71234 0.82571 0.0
H2162 H 0.92938 0.70759 0.75109 0.0
H2163 H 0.89472 0.66898 0.84793 0.0
H2164 H 0.89888 0.71054 0.79771 0.0
H2165 H 0.9062 0.65596 0.79487 0.0
C2166 C 0.91723 0.6641 0.76847 0.0
C2167 C 0.9238 0.67848 0.75577 0.0
C2168 C 0.89811 0.70158 0.80883 0.0
C2169 C 0.91178 0.68502 0.78951 0.0
C2170 C 0.8896 0.70266 0.82487 0.0
C2171 C 0.88776 0.69062 0.83919 0.0
C2172 C 0.90458 0.6882 0.80699 0.0
C2173 C 0.89534 0.67818 0.83712 0.0
C2174 C 0.91139 0.66737 0.78536 0.0
C2175 C 0.9244 0.69614 0.76054 0.0
N2176 N 0.9032 0.67714 0.82126 0.0
N2177 N 0.91826 0.69887 0.77701 0.0
H2178 H 0.35044 0.2659 0.74549 0.0
H2179 H 0.28301 0.19955 0.82087 0.0
H2180 H 0.29323 0.25591 0.7504 0.0
H2181 H 0.33545 0.20188 0.80684 0.0
H2182 H 0.28621 0.22045 0.79581 0.0
H2183 H 0.3452 0.24319 0.76893 0.0
C2184 C 0.33674 0.2589 0.75153 0.0
C2185 C 0.32226 0.26282 0.74602 0.0
C2186 C 0.29695 0.2163 0.79821 0.0
C2187 C 0.31613 0.2367 0.77301 0.0
C2188 C 0.2951 0.20431 0.81245 0.0
C2189 C 0.3091 0.19912 0.8161 0.0
C2190 C 0.31293 0.22315 0.78763 0.0
C2191 C 0.32454 0.20586 0.80484 0.0
C2192 C 0.33372 0.24586 0.7649 0.0
C2193 C 0.30476 0.25327 0.75428 0.0
N2194 N 0.32607 0.21757 0.79121 0.0
N2195 N 0.3022 0.24068 0.76747 0.0
H2196 H 0.75368 0.0514 0.71256 0.0
H2197 H 0.77411 0.1194 0.80503 0.0
H2198 H 0.73523 0.09366 0.71899 0.0
H2199 H 0.80377 0.08761 0.79531 0.0
H2200 H 0.75937 0.10942 0.77362 0.0
H2201 H 0.77179 0.06372 0.74286 0.0
C2202 C 0.75356 0.06335 0.72029 0.0
C2203 C 0.74288 0.07148 0.71331 0.0
C2204 C 0.7692 0.10471 0.77828 0.0
C2205 C 0.76337 0.08549 0.74792 0.0
C2206 C 0.77776 0.11053 0.79624 0.0
C2207 C 0.79036 0.10448 0.80288 0.0
C2208 C 0.77302 0.09253 0.7668 0.0
C2209 C 0.79401 0.09248 0.79089 0.0
C2210 C 0.76389 0.07037 0.73755 0.0
C2211 C 0.74322 0.08694 0.72386 0.0
N2212 N 0.78532 0.08683 0.77344 0.0
N2213 N 0.75317 0.09333 0.74066 0.0
H2214 H 0.0662 0.38201 0.04706 0.0
H2215 H 0.08105 0.30207 0.09353 0.0
H2216 H 0.01865 0.32386 0.05198 0.0
H2217 H 0.11349 0.36296 0.11419 0.0
H2218 H 0.05994 0.30922 0.07468 0.0
H2219 H 0.08639 0.3748 0.06768 0.0
C2220 C 0.06007 0.36772 0.05241 0.0
C2221 C 0.04078 0.3535 0.04788 0.0
C2222 C 0.07166 0.32094 0.08344 0.0
C2223 C 0.06368 0.34516 0.07115 0.0
C2224 C 0.08365 0.31688 0.09437 0.0
C2225 C 0.09924 0.33193 0.10553 0.0
C2226 C 0.07547 0.34024 0.08334 0.0
C2227 C 0.10201 0.35093 0.10554 0.0
C2228 C 0.07152 0.36368 0.06422 0.0
C2229 C 0.03346 0.33524 0.05522 0.0
N2230 N 0.09039 0.35458 0.09445 0.0
N2231 N 0.04497 0.33152 0.06639 0.0
H2232 H 0.66918 0.6713 0.10011 0.0
H2233 H 0.65752 0.76568 0.10097 0.0
H2234 H 0.63068 0.67761 0.06182 0.0
H2235 H 0.69447 0.75918 0.14108 0.0
H2236 H 0.64904 0.73417 0.08543 0.0
H2237 H 0.68002 0.7041 0.11438 0.0
C2238 C 0.66303 0.67961 0.09469 0.0
C2239 C 0.64896 0.67174 0.07981 0.0
C2240 C 0.65904 0.73961 0.0976 0.0
C2241 C 0.6613 0.70921 0.09602 0.0
C2242 C 0.66383 0.75757 0.10652 0.0
C2243 C 0.67654 0.76492 0.12247 0.0
C2244 C 0.66699 0.72885 0.10466 0.0
C2245 C 0.68464 0.75403 0.12881 0.0
C2246 C 0.66923 0.69832 0.10283 0.0
C2247 C 0.64151 0.68312 0.07331 0.0
N2248 N 0.67963 0.73645 0.11994 0.0
N2249 N 0.64775 0.70127 0.08148 0.0
H2250 H 0.32726 0.9837 0.04286 0.0
H2251 H 0.26674 0.89293 0.09931 0.0
H2252 H 0.33448 0.93342 0.03796 0.0
H2253 H 0.24379 0.92794 0.07891 0.0
H2254 H 0.29289 0.90832 0.07905 0.0
H2255 H 0.29805 0.96467 0.05855 0.0
C2256 C 0.32262 0.96859 0.04505 0.0
C2257 C 0.33327 0.96009 0.03921 0.0
C2258 C 0.28198 0.91244 0.07893 0.0
C2259 C 0.30004 0.93834 0.05736 0.0
C2260 C 0.26696 0.90362 0.09044 0.0
C2261 C 0.25296 0.90918 0.09099 0.0
C2262 C 0.28327 0.92719 0.06816 0.0
C2263 C 0.25441 0.92347 0.07937 0.0
C2264 C 0.30591 0.95772 0.05391 0.0
C2265 C 0.32659 0.94044 0.04226 0.0
N2266 N 0.26941 0.93213 0.06861 0.0
N2267 N 0.31048 0.93025 0.05141 0.0
H2268 H 0.39486 0.05862 0.99624 0.0
H2269 H 0.3069 0.07225 0.9656 0.0
H2270 H 0.33635 0.01061 0.99232 0.0
H2271 H 0.3618 0.10325 0.94212 0.0
H2272 H 0.31825 0.0532 0.98184 0.0
H2273 H 0.3836 0.07933 0.98297 0.0
C2274 C 0.37965 0.05252 0.99272 0.0
C2275 C 0.3665 0.0329 0.99519 0.0
C2276 C 0.32777 0.06431 0.9732 0.0
C2277 C 0.3536 0.05642 0.9804 0.0
C2278 C 0.32129 0.07512 0.96382 0.0
C2279 C 0.33334 0.08946 0.95236 0.0
C2280 C 0.34651 0.0681 0.97141 0.0
C2281 C 0.35204 0.09273 0.95104 0.0
C2282 C 0.37327 0.06428 0.98513 0.0
C2283 C 0.34695 0.02565 0.99043 0.0
N2284 N 0.35805 0.08218 0.96047 0.0
N2285 N 0.34105 0.03744 0.9833 0.0
H2286 H 0.98842 0.30817 0.97197 0.0
H2287 H 0.88066 0.21758 0.9632 0.0
H2288 H 0.94327 0.30422 0.00444 0.0
H2289 H 0.92302 0.22288 0.92606 0.0
H2290 H 0.90464 0.248 0.98026 0.0
H2291 H 0.96584 0.27578 0.95663 0.0
C2292 C 0.97378 0.30045 0.97591 0.0
C2293 C 0.96765 0.30889 0.98942 0.0
C2294 C 0.90877 0.24255 0.96841 0.0
C2295 C 0.94186 0.27195 0.97204 0.0
C2296 C 0.89506 0.22521 0.95862 0.0
C2297 C 0.8998 0.21789 0.94301 0.0
C2298 C 0.92745 0.25274 0.9626 0.0
C2299 C 0.91879 0.22808 0.938 0.0
C2300 C 0.96092 0.282 0.96716 0.0
C2301 C 0.94857 0.29829 0.99403 0.0
N2302 N 0.93193 0.24512 0.94769 0.0
N2303 N 0.93636 0.2804 0.98534 0.0
H2304 H 0.66171 0.59528 0.01203 0.0
H2305 H 0.7716 0.67317 0.99877 0.0
H2306 H 0.69841 0.64316 0.05222 0.0
H2307 H 0.73321 0.62823 0.95686 0.0
H2308 H 0.74603 0.66031 0.01995 0.0
H2309 H 0.68911 0.60442 0.99346 0.0
C2310 C 0.67562 0.60749 0.01712 0.0
C2311 C 0.67777 0.61858 0.0336 0.0
C2312 C 0.74324 0.6532 0.00614 0.0
C2313 C 0.70908 0.62933 0.0123 0.0
C2314 C 0.75779 0.66065 0.99399 0.0
C2315 C 0.75455 0.65184 0.97595 0.0
C2316 C 0.72529 0.63684 0.00024 0.0
C2317 C 0.73646 0.63539 0.97067 0.0
C2318 C 0.69123 0.61279 0.00645 0.0
C2319 C 0.6961 0.63428 0.03953 0.0
N2320 N 0.72251 0.62848 0.98272 0.0
N2321 N 0.71101 0.63931 0.02879 0.0
H2322 H 0.93578 0.63112 0.02215 0.0
H2323 H 0.92876 0.69762 0.94601 0.0
H2324 H 0.98461 0.67318 0.99502 0.0
H2325 H 0.87953 0.64712 0.9645 0.0
H2326 H 0.94974 0.69093 0.96592 0.0
H2327 H 0.91509 0.63882 0.0031 0.0
C2328 C 0.94214 0.64201 0.01223 0.0
C2329 C 0.9619 0.65149 0.01011 0.0
C2330 C 0.93435 0.68129 0.96556 0.0
C2331 C 0.93839 0.66041 0.98833 0.0
C2332 C 0.9224 0.68515 0.95427 0.0
C2333 C 0.90242 0.67279 0.95348 0.0
C2334 C 0.92622 0.6651 0.97629 0.0
C2335 C 0.89489 0.6568 0.96444 0.0
C2336 C 0.93034 0.64637 0.00133 0.0
C2337 C 0.96942 0.66548 0.99704 0.0
N2338 N 0.90678 0.65345 0.97541 0.0
N2339 N 0.95766 0.66954 0.98666 0.0
H2340 H 0.326 0.32158 0.95867 0.0
H2341 H 0.35721 0.25312 0.90641 0.0
H2342 H 0.38396 0.33248 0.96515 0.0
H2343 H 0.30192 0.22964 0.92909 0.0
H2344 H 0.3665 0.28529 0.92112 0.0
H2345 H 0.31629 0.29057 0.94084 0.0
C2346 C 0.33671 0.31751 0.95617 0.0
C2347 C 0.35579 0.32948 0.96341 0.0
C2348 C 0.35231 0.27304 0.92273 0.0
C2349 C 0.34485 0.29439 0.9429 0.0
C2350 C 0.34698 0.25463 0.91444 0.0
C2351 C 0.32881 0.23842 0.91672 0.0
C2352 C 0.33925 0.27541 0.933 0.0
C2353 C 0.316 0.24161 0.92676 0.0
C2354 C 0.33114 0.29984 0.9461 0.0
C2355 C 0.36909 0.32355 0.95988 0.0
N2356 N 0.32148 0.25974 0.93454 0.0
N2357 N 0.36338 0.30641 0.94976 0.0
H2358 H 0.67241 0.06624 0.02428 0.0
H2359 H 0.74658 0.0556 0.9618 0.0
H2360 H 0.6693 0.01157 0.00829 0.0
H2361 H 0.74496 0.10906 0.96901 0.0
H2362 H 0.7209 0.04048 0.98254 0.0
H2363 H 0.70157 0.08342 0.00758 0.0
C2364 C 0.67796 0.05791 0.01741 0.0
C2365 C 0.66838 0.03747 0.01752 0.0
C2366 C 0.72619 0.05555 0.97966 0.0
C2367 C 0.70154 0.05687 0.99854 0.0
C2368 C 0.74095 0.06422 0.9679 0.0
C2369 C 0.74784 0.08357 0.96357 0.0
C2370 C 0.71824 0.06628 0.9872 0.0
C2371 C 0.73984 0.09398 0.97174 0.0
C2372 C 0.69452 0.06767 0.00785 0.0
C2373 C 0.67613 0.02733 0.00841 0.0
N2374 N 0.7254 0.08519 0.98313 0.0
N2375 N 0.69219 0.03712 0.99928 0.0
H2376 H 0.6418 0.98609 0.09158 0.0
H2377 H 0.665 0.89992 0.08148 0.0
H2378 H 0.62353 0.94687 0.04213 0.0
H2379 H 0.6596 0.92379 0.13398 0.0
H2380 H 0.65402 0.91974 0.06568 0.0
H2381 H 0.65261 0.96598 0.10638 0.0
C2382 C 0.64005 0.9732 0.08385 0.0
C2383 C 0.63172 0.96806 0.06564 0.0
C2384 C 0.65522 0.92056 0.08065 0.0
C2385 C 0.64425 0.94513 0.08242 0.0
C2386 C 0.66158 0.9094 0.08962 0.0
C2387 C 0.66308 0.91024 0.10899 0.0
C2388 C 0.65075 0.93284 0.09121 0.0
C2389 C 0.65843 0.92264 0.119 0.0
C2390 C 0.64618 0.96172 0.09231 0.0
C2391 C 0.62979 0.95123 0.05624 0.0
N2392 N 0.65257 0.93352 0.10999 0.0
N2393 N 0.63614 0.94037 0.06471 0.0
H2394 H 0.01359 0.69629 0.07974 0.0
H2395 H 0.12293 0.77156 0.11441 0.0
H2396 H 0.06149 0.69374 0.05871 0.0
H2397 H 0.07694 0.78241 0.12544 0.0
H2398 H 0.10015 0.74174 0.09561 0.0
H2399 H 0.03614 0.72688 0.09789 0.0
C2400 C 0.02886 0.70223 0.07889 0.0
C2401 C 0.03571 0.69248 0.06774 0.0
C2402 C 0.095 0.75061 0.10213 0.0
C2403 C 0.06152 0.7273 0.08856 0.0
C2404 C 0.10796 0.76753 0.11301 0.0
C2405 C 0.10175 0.77935 0.12163 0.0
C2406 C 0.07562 0.74534 0.09992 0.0
C2407 C 0.08229 0.77369 0.11901 0.0
C2408 C 0.0417 0.71967 0.08923 0.0
C2409 C 0.0556 0.7008 0.06712 0.0
N2410 N 0.06986 0.757 0.10844 0.0
N2411 N 0.06782 0.71767 0.07748 0.0
H2412 H 0.31719 0.38705 0.01901 0.0
H2413 H 0.23858 0.30233 0.0756 0.0
H2414 H 0.31507 0.33245 0.02699 0.0
H2415 H 0.24678 0.36046 0.07607 0.0
H2416 H 0.26383 0.31167 0.0542 0.0
H2417 H 0.28867 0.37613 0.03647 0.0
C2418 C 0.31063 0.37272 0.0243 0.0
C2419 C 0.31855 0.36069 0.02168 0.0
C2420 C 0.26005 0.32236 0.05893 0.0
C2421 C 0.28604 0.34812 0.04159 0.0
C2422 C 0.24557 0.317 0.07105 0.0
C2423 C 0.24071 0.33069 0.07774 0.0
C2424 C 0.26967 0.34154 0.05336 0.0
C2425 C 0.25033 0.34956 0.07149 0.0
C2426 C 0.2944 0.36651 0.0343 0.0
C2427 C 0.3095 0.34225 0.02881 0.0
N2428 N 0.26439 0.35444 0.0597 0.0
N2429 N 0.29377 0.33656 0.03848 0.0
H2430 H 0.68242 0.65722 0.38533 0.0
H2431 H 0.78928 0.68293 0.41628 0.0
H2432 H 0.73333 0.70499 0.3658 0.0
H2433 H 0.7392 0.63933 0.44081 0.0
H2434 H 0.7687 0.68962 0.39619 0.0
H2435 H 0.70266 0.64875 0.40408 0.0
C2436 C 0.69786 0.66586 0.38492 0.0
C2437 C 0.70624 0.68187 0.37404 0.0
C2438 C 0.76218 0.6786 0.40597 0.0
C2439 C 0.72945 0.67229 0.39547 0.0
C2440 C 0.77394 0.67486 0.41755 0.0
C2441 C 0.76598 0.66074 0.43045 0.0
C2442 C 0.74224 0.66812 0.40719 0.0
C2443 C 0.74594 0.65032 0.43106 0.0
C2444 C 0.7094 0.66104 0.39565 0.0
C2445 C 0.72629 0.69256 0.37402 0.0
N2446 N 0.73475 0.65428 0.41964 0.0
N2447 N 0.73722 0.6876 0.3846 0.0
H2448 H 0.28401 0.00123 0.40318 0.0
H2449 H 0.35484 0.09105 0.4757 0.0
H2450 H 0.33272 0.0049 0.43399 0.0
H2451 H 0.31356 0.09261 0.43713 0.0
H2452 H 0.34541 0.05842 0.4621 0.0
H2453 H 0.29281 0.03362 0.41732 0.0
C2454 C 0.29649 0.00882 0.41297 0.0
C2455 C 0.30769 0.00044 0.4174 0.0
C2456 C 0.33843 0.06592 0.45661 0.0
C2457 C 0.31783 0.03735 0.43358 0.0
C2458 C 0.34389 0.0846 0.4643 0.0
C2459 C 0.33498 0.09461 0.45757 0.0
C2460 C 0.3239 0.05712 0.44212 0.0
C2461 C 0.32062 0.08535 0.44297 0.0
C2462 C 0.30155 0.0273 0.42099 0.0
C2463 C 0.32373 0.01088 0.43014 0.0
N2464 N 0.31551 0.06713 0.43575 0.0
N2465 N 0.32831 0.02878 0.43779 0.0
H2466 H 0.01417 0.32417 0.39594 0.0
H2467 H 0.91443 0.2246 0.40133 0.0
H2468 H 0.99747 0.27199 0.36059 0.0
H2469 H 0.93488 0.276 0.43905 0.0
H2470 H 0.94382 0.24175 0.38521 0.0
H2471 H 0.98437 0.30676 0.41092 0.0
C2472 C 0.00421 0.30899 0.39135 0.0
C2473 C 0.00831 0.29949 0.377 0.0
C2474 C 0.94181 0.24927 0.39697 0.0
C2475 C 0.97397 0.27941 0.39412 0.0
C2476 C 0.92507 0.23949 0.40621 0.0
C2477 C 0.92215 0.24887 0.42158 0.0
C2478 C 0.95574 0.26857 0.40315 0.0
C2479 C 0.93631 0.26826 0.42712 0.0
C2480 C 0.98716 0.29904 0.39992 0.0
C2481 C 0.99487 0.27982 0.37163 0.0
N2482 N 0.95247 0.27741 0.41795 0.0
N2483 N 0.97824 0.2704 0.38019 0.0
H2484 H 0.01785 0.34399 0.30903 0.0
H2485 H 0.03318 0.45131 0.30266 0.0
H2486 H 0.06222 0.39492 0.34176 0.0
H2487 H 0.98958 0.40002 0.26973 0.0
H2488 H 0.04323 0.43086 0.3182 0.0
H2489 H 0.00661 0.36427 0.29539 0.0
C2490 C 0.02525 0.35948 0.31333 0.0
C2491 C 0.04103 0.36782 0.32649 0.0
C2492 C 0.03139 0.42407 0.30765 0.0
C2493 C 0.0282 0.39116 0.31097 0.0
C2494 C 0.02568 0.43573 0.29875 0.0
C2495 C 0.01055 0.42736 0.28484 0.0
C2496 C 0.02194 0.4039 0.30256 0.0
C2497 C 0.00116 0.40707 0.28051 0.0
C2498 C 0.0188 0.37105 0.30556 0.0
C2499 C 0.05003 0.38793 0.33161 0.0
N2500 N 0.00708 0.39606 0.28926 0.0
N2501 N 0.0435 0.39895 0.3238 0.0
H2502 H 0.64778 0.64731 0.2961 0.0
H2503 H 0.5396 0.55797 0.29252 0.0
H2504 H 0.60669 0.64348 0.33421 0.0
H2505 H 0.58059 0.56106 0.25463 0.0
H2506 H 0.56396 0.58947 0.30769 0.0
H2507 H 0.62332 0.61602 0.28039 0.0
C2508 C 0.63357 0.6399 0.30112 0.0
C2509 C 0.62923 0.64797 0.31648 0.0
C2510 C 0.56766 0.5833 0.29606 0.0
C2511 C 0.60121 0.61215 0.29863 0.0
C2512 C 0.55372 0.56534 0.28732 0.0
C2513 C 0.55804 0.55693 0.27219 0.0
C2514 C 0.58611 0.59298 0.28966 0.0
C2515 C 0.57669 0.56696 0.26632 0.0
C2516 C 0.61963 0.62203 0.29217 0.0
C2517 C 0.61063 0.63777 0.32241 0.0
N2518 N 0.59004 0.58449 0.27503 0.0
N2519 N 0.59731 0.62037 0.31349 0.0
H2520 H 0.32927 0.9207 0.35627 0.0
H2521 H 0.43441 0.99909 0.32949 0.0
H2522 H 0.36442 0.97817 0.38437 0.0
H2523 H 0.3981 0.94367 0.29816 0.0
H2524 H 0.41041 0.98977 0.35213 0.0
H2525 H 0.35603 0.92668 0.33762 0.0
C2526 C 0.34273 0.93441 0.35875 0.0
C2527 C 0.34461 0.94904 0.37174 0.0
C2528 C 0.40771 0.97958 0.34036 0.0
C2529 C 0.3751 0.95606 0.3504 0.0
C2530 C 0.42136 0.98496 0.32737 0.0
C2531 C 0.41816 0.97223 0.31181 0.0
C2532 C 0.39065 0.96135 0.33779 0.0
C2533 C 0.40118 0.95391 0.30999 0.0
C2534 C 0.35795 0.93787 0.34804 0.0
C2535 C 0.36231 0.96656 0.37438 0.0
N2536 N 0.38799 0.94907 0.32275 0.0
N2537 N 0.3768 0.96964 0.36369 0.0
H2538 H 0.64531 0.98419 0.31702 0.0
H2539 H 0.55596 0.00066 0.3094 0.0
H2540 H 0.60547 0.96939 0.35944 0.0
H2541 H 0.58122 0.99209 0.26131 0.0
H2542 H 0.5769 0.99371 0.32899 0.0
H2543 H 0.62466 0.99139 0.29731 0.0
C2544 C 0.63222 0.98247 0.32218 0.0
C2545 C 0.62705 0.97618 0.33987 0.0
C2546 C 0.57789 0.9934 0.31416 0.0
C2547 C 0.60354 0.98457 0.3175 0.0
C2548 C 0.5661 0.99753 0.30302 0.0
C2549 C 0.56704 0.99709 0.28376 0.0
C2550 C 0.59088 0.98905 0.30602 0.0
C2551 C 0.58012 0.99258 0.27611 0.0
C2552 C 0.62043 0.98652 0.31091 0.0
C2553 C 0.60992 0.97415 0.34587 0.0
N2554 N 0.59164 0.98885 0.28729 0.0
N2555 N 0.59882 0.97846 0.33474 0.0
H2556 H 0.05795 0.67551 0.2984 0.0
H2557 H 0.97766 0.56639 0.26866 0.0
H2558 H 0.99778 0.65566 0.30164 0.0
H2559 H 0.0313 0.59459 0.24273 0.0
H2560 H 0.98518 0.59818 0.28283 0.0
H2561 H 0.0492 0.64498 0.2802 0.0
C2562 C 0.04291 0.66475 0.29521 0.0
C2563 C 0.02855 0.66802 0.30153 0.0
C2564 C 0.9952 0.59737 0.2739 0.0
C2565 C 0.01849 0.63314 0.28101 0.0
C2566 C 0.99088 0.57923 0.26569 0.0
C2567 C 0.00391 0.57768 0.25452 0.0
C2568 C 0.0128 0.61405 0.27121 0.0
C2569 C 0.02101 0.59492 0.25157 0.0
C2570 C 0.03794 0.64741 0.28478 0.0
C2571 C 0.00928 0.65367 0.29699 0.0
N2572 N 0.02506 0.61235 0.26004 0.0
N2573 N 0.00479 0.63672 0.28717 0.0
H2574 H 0.32804 0.34223 0.33911 0.0
H2575 H 0.40303 0.44213 0.29835 0.0
H2576 H 0.32902 0.39651 0.35132 0.0
H2577 H 0.40575 0.38917 0.29336 0.0
H2578 H 0.37609 0.42609 0.31779 0.0
H2579 H 0.35661 0.35953 0.32232 0.0
C2580 C 0.3343 0.35784 0.33826 0.0
C2581 C 0.32611 0.36795 0.34654 0.0
C2582 C 0.38266 0.41803 0.31253 0.0
C2583 C 0.35891 0.38792 0.32724 0.0
C2584 C 0.39795 0.42712 0.30137 0.0
C2585 C 0.40656 0.41691 0.29415 0.0
C2586 C 0.37584 0.39854 0.31638 0.0
C2587 C 0.39964 0.39763 0.29873 0.0
C2588 C 0.35068 0.36774 0.3287 0.0
C2589 C 0.3349 0.38818 0.34509 0.0
N2590 N 0.38461 0.38904 0.30944 0.0
N2591 N 0.35081 0.39752 0.3355 0.0
H2592 H 0.26925 0.27283 0.38808 0.0
H2593 H 0.35551 0.27239 0.44613 0.0
H2594 H 0.31952 0.32496 0.41289 0.0
H2595 H 0.30137 0.22012 0.42957 0.0
H2596 H 0.34377 0.29178 0.4312 0.0
H2597 H 0.2817 0.25307 0.40103 0.0
C2598 C 0.28286 0.28009 0.39632 0.0
C2599 C 0.29335 0.30052 0.39949 0.0
C2600 C 0.33448 0.27606 0.43077 0.0
C2601 C 0.30775 0.27813 0.41413 0.0
C2602 C 0.34124 0.26499 0.43913 0.0
C2603 C 0.32935 0.24466 0.43913 0.0
C2604 C 0.31573 0.26671 0.42227 0.0
C2605 C 0.3109 0.23581 0.43007 0.0
C2606 C 0.28998 0.26883 0.40366 0.0
C2607 C 0.31093 0.30923 0.41018 0.0
N2608 N 0.30463 0.2469 0.42203 0.0
N2609 N 0.3176 0.29798 0.41708 0.0
H2610 H 0.7214 0.00947 0.41115 0.0
H2611 H 0.75729 0.12118 0.42997 0.0
H2612 H 0.68372 0.03151 0.3973 0.0
H2613 H 0.77069 0.09019 0.46991 0.0
H2614 H 0.73296 0.08978 0.41442 0.0
H2615 H 0.74326 0.04062 0.42902 0.0
C2616 C 0.71779 0.02091 0.41183 0.0
C2617 C 0.7008 0.01802 0.40279 0.0
C2618 C 0.7412 0.08998 0.42667 0.0
C2619 C 0.7257 0.05352 0.42287 0.0
C2620 C 0.75502 0.10788 0.43569 0.0
C2621 C 0.7663 0.1085 0.45129 0.0
C2622 C 0.73894 0.07258 0.43301 0.0
C2623 C 0.76282 0.0906 0.45767 0.0
C2624 C 0.73016 0.03856 0.4221 0.0
C2625 C 0.69669 0.03322 0.40416 0.0
N2626 N 0.74965 0.0734 0.44836 0.0
N2627 N 0.70919 0.05047 0.41386 0.0
H2628 H 0.00463 0.69101 0.38729 0.0
H2629 H 0.89802 0.66971 0.39352 0.0
H2630 H 0.97941 0.71216 0.34772 0.0
H2631 H 0.9344 0.6751 0.4413 0.0
H2632 H 0.92569 0.68086 0.37458 0.0
H2633 H 0.9769 0.68067 0.40547 0.0
C2634 C 0.99322 0.69349 0.38243 0.0
C2635 C 0.9943 0.70248 0.366 0.0
C2636 C 0.92756 0.67962 0.38921 0.0
C2637 C 0.96241 0.69046 0.38667 0.0
C2638 C 0.91182 0.67315 0.39995 0.0
C2639 C 0.91403 0.67153 0.41895 0.0
C2640 C 0.94545 0.68408 0.39752 0.0
C2641 C 0.93217 0.67628 0.42672 0.0
C2642 C 0.97744 0.68763 0.39285 0.0
C2643 C 0.97914 0.70536 0.36037 0.0
N2644 N 0.94716 0.68221 0.41595 0.0
N2645 N 0.96367 0.69921 0.37064 0.0
H2646 H 0.37208 0.00198 0.69468 0.0
H2647 H 0.44093 0.03666 0.78808 0.0
H2648 H 0.38592 0.05374 0.72938 0.0
H2649 H 0.42791 0.98586 0.75222 0.0
H2650 H 0.42046 0.04296 0.76715 0.0
H2651 H 0.39251 0.9959 0.71574 0.0
C2652 C 0.37955 0.01215 0.70668 0.0
C2653 C 0.37733 0.0284 0.7103 0.0
C2654 C 0.42202 0.03038 0.76391 0.0
C2655 C 0.40061 0.02143 0.7346 0.0
C2656 C 0.4337 0.02679 0.77584 0.0
C2657 C 0.43612 0.01069 0.77192 0.0
C2658 C 0.41272 0.01783 0.7479 0.0
C2659 C 0.42625 0.99827 0.75597 0.0
C2660 C 0.39116 0.00864 0.71875 0.0
C2661 C 0.38729 0.04107 0.72607 0.0
N2662 N 0.41506 0.00215 0.74452 0.0
N2663 N 0.39846 0.03728 0.73768 0.0
H2664 H 0.94576 0.33127 0.73311 0.0
H2665 H 0.00599 0.41482 0.81486 0.0
H2666 H 0.98592 0.32932 0.77283 0.0
H2667 H 0.96701 0.41738 0.7741 0.0
H2668 H 0.9979 0.38284 0.80044 0.0
H2669 H 0.95207 0.36204 0.74901 0.0
C2670 C 0.9558 0.33726 0.74525 0.0
C2671 C 0.96538 0.3278 0.75164 0.0
C2672 C 0.99107 0.39037 0.79469 0.0
C2673 C 0.97277 0.36301 0.76982 0.0
C2674 C 0.99578 0.40868 0.80285 0.0
C2675 C 0.98716 0.41878 0.79569 0.0
C2676 C 0.9777 0.38214 0.77921 0.0
C2677 C 0.97381 0.41 0.78025 0.0
C2678 C 0.95944 0.35484 0.7543 0.0
C2679 C 0.97825 0.33618 0.76742 0.0
N2680 N 0.96953 0.39222 0.77252 0.0
N2681 N 0.98163 0.35335 0.77593 0.0
H2682 H 0.65948 0.60272 0.69241 0.0
H2683 H 0.59778 0.61169 0.77171 0.0
H2684 H 0.67317 0.65675 0.72293 0.0
H2685 H 0.58048 0.5575 0.73946 0.0
H2686 H 0.62511 0.62834 0.7532 0.0
H2687 H 0.63026 0.5856 0.70898 0.0
C2688 C 0.65632 0.61095 0.70256 0.0
C2689 C 0.66877 0.63115 0.70636 0.0
C2690 C 0.61531 0.61282 0.75007 0.0
C2691 C 0.63554 0.61179 0.72526 0.0
C2692 C 0.59957 0.60332 0.76057 0.0
C2693 C 0.58676 0.58315 0.75714 0.0
C2694 C 0.6184 0.60212 0.73605 0.0
C2695 C 0.59013 0.57302 0.74274 0.0
C2696 C 0.63967 0.60121 0.71198 0.0
C2697 C 0.66401 0.64115 0.71959 0.0
N2698 N 0.60566 0.5826 0.73276 0.0
N2699 N 0.64783 0.63138 0.72857 0.0
H2700 H 0.68189 0.67641 0.63638 0.0
H2701 H 0.68408 0.77854 0.64169 0.0
H2702 H 0.72006 0.7251 0.67519 0.0
H2703 H 0.64796 0.72975 0.6021 0.0
H2704 H 0.69694 0.75923 0.6549 0.0
H2705 H 0.66902 0.69588 0.62416 0.0
C2706 C 0.68763 0.69126 0.64228 0.0
C2707 C 0.70207 0.69917 0.65681 0.0
C2708 C 0.68612 0.75274 0.64339 0.0
C2709 C 0.68728 0.72158 0.64294 0.0
C2710 C 0.67879 0.76375 0.63584 0.0
C2711 C 0.66486 0.75573 0.62081 0.0
C2712 C 0.67951 0.73361 0.6358 0.0
C2713 C 0.65841 0.73644 0.61388 0.0
C2714 C 0.68023 0.70238 0.63532 0.0
C2715 C 0.70895 0.71848 0.66394 0.0
N2716 N 0.66583 0.7261 0.62138 0.0
N2717 N 0.70146 0.72905 0.65695 0.0
H2718 H 0.3158 0.97574 0.63788 0.0
H2719 H 0.20669 0.88799 0.63057 0.0
H2720 H 0.27233 0.97488 0.67099 0.0
H2721 H 0.24909 0.89019 0.59503 0.0
H2722 H 0.23102 0.919 0.64662 0.0
H2723 H 0.29208 0.94359 0.62318 0.0
C2724 C 0.30126 0.96874 0.64209 0.0
C2725 C 0.29598 0.97799 0.65563 0.0
C2726 C 0.23504 0.91272 0.63533 0.0
C2727 C 0.26878 0.94123 0.63886 0.0
C2728 C 0.22113 0.89505 0.62609 0.0
C2729 C 0.22582 0.88659 0.6113 0.0
C2730 C 0.25385 0.92204 0.62979 0.0
C2731 C 0.24487 0.89616 0.6064 0.0
C2732 C 0.28773 0.9504 0.63369 0.0
C2733 C 0.27698 0.96827 0.66058 0.0
N2734 N 0.25817 0.91343 0.61557 0.0
N2735 N 0.26405 0.95043 0.65217 0.0
H2736 H 0.01215 0.32689 0.68908 0.0
H2737 H 0.10047 0.31384 0.6632 0.0
H2738 H 0.02007 0.28033 0.70755 0.0
H2739 H 0.08435 0.35118 0.63578 0.0
H2740 H 0.07364 0.30424 0.68264 0.0
H2741 H 0.04133 0.33899 0.67281 0.0
C2742 C 0.02011 0.31928 0.68982 0.0
C2743 C 0.01363 0.30251 0.69959 0.0
C2744 C 0.07605 0.3146 0.67242 0.0
C2745 C 0.04706 0.31628 0.68095 0.0
C2746 C 0.09131 0.32003 0.66125 0.0
C2747 C 0.09463 0.33326 0.64771 0.0
C2748 C 0.06406 0.32251 0.67012 0.0
C2749 C 0.08252 0.34112 0.64613 0.0
C2750 C 0.03675 0.32617 0.68048 0.0
C2751 C 0.02454 0.29326 0.70011 0.0
N2752 N 0.06775 0.33557 0.65715 0.0
N2753 N 0.04072 0.30024 0.69085 0.0
H2754 H 0.27816 0.31139 0.69551 0.0
H2755 H 0.25309 0.33578 0.59654 0.0
H2756 H 0.31487 0.32291 0.65066 0.0
H2757 H 0.23293 0.34823 0.64655 0.0
H2758 H 0.27325 0.32701 0.61529 0.0
H2759 H 0.25848 0.32074 0.6768 0.0
C2760 C 0.28202 0.31583 0.68172 0.0
C2761 C 0.29815 0.31643 0.67461 0.0
C2762 C 0.2645 0.33178 0.62214 0.0
C2763 C 0.27572 0.32694 0.65317 0.0
C2764 C 0.25301 0.33673 0.61147 0.0
C2765 C 0.24153 0.34287 0.62007 0.0
C2766 C 0.26414 0.33259 0.64148 0.0
C2767 C 0.24183 0.34382 0.63944 0.0
C2768 C 0.27087 0.32123 0.6711 0.0
C2769 C 0.30258 0.32233 0.65668 0.0
N2770 N 0.25285 0.33859 0.64951 0.0
N2771 N 0.29136 0.32725 0.64652 0.0
H2772 H 0.6794 0.00174 0.61029 0.0
H2773 H 0.64705 0.88959 0.61825 0.0
H2774 H 0.69191 0.98037 0.65945 0.0
H2775 H 0.65809 0.91564 0.56605 0.0
H2776 H 0.65789 0.92181 0.63405 0.0
H2777 H 0.66645 0.9692 0.59419 0.0
C2778 C 0.67942 0.99019 0.61767 0.0
C2779 C 0.68679 0.9937 0.63618 0.0
C2780 C 0.65782 0.92043 0.61913 0.0
C2781 C 0.67178 0.95657 0.61802 0.0
C2782 C 0.65147 0.90207 0.61012 0.0
C2783 C 0.65166 0.90004 0.59085 0.0
C2784 C 0.66414 0.9368 0.60877 0.0
C2785 C 0.65781 0.91668 0.58094 0.0
C2786 C 0.67207 0.97169 0.60849 0.0
C2787 C 0.68647 0.97827 0.64514 0.0
N2788 N 0.66378 0.93441 0.59002 0.0
N2789 N 0.67897 0.96032 0.636 0.0
H2790 H 0.97302 0.68474 0.64961 0.0
H2791 H 0.08583 0.75912 0.65131 0.0
H2792 H 0.00663 0.71996 0.69897 0.0
H2793 H 0.04845 0.73376 0.60132 0.0
H2794 H 0.05766 0.74376 0.66949 0.0
H2795 H 0.00109 0.70174 0.63204 0.0
C2796 C 0.98633 0.69617 0.65673 0.0
C2797 C 0.98754 0.70096 0.67576 0.0
C2798 C 0.05566 0.74164 0.65454 0.0
C2799 C 0.01987 0.72038 0.65575 0.0
C2800 C 0.07171 0.75025 0.64419 0.0
C2801 C 0.06943 0.7477 0.6248 0.0
C2802 C 0.03728 0.73025 0.6454 0.0
C2803 C 0.05083 0.73626 0.61624 0.0
C2804 C 0.00236 0.70588 0.64669 0.0
C2805 C 0.00512 0.7159 0.68428 0.0
N2806 N 0.0355 0.72791 0.62659 0.0
N2807 N 0.02069 0.72501 0.67422 0.0
H2808 H 0.98872 0.65291 0.73169 0.0
H2809 H 0.95755 0.54536 0.75936 0.0
H2810 H 0.93327 0.60238 0.7151 0.0
H2811 H 0.01466 0.59503 0.77107 0.0
H2812 H 0.94894 0.56549 0.74137 0.0
H2813 H -0.0009 0.63153 0.74446 0.0
C2814 C 0.97876 0.63728 0.73063 0.0
C2815 C 0.96006 0.62939 0.72247 0.0
C2816 C 0.96341 0.57195 0.74772 0.0
C2817 C 0.9718 0.60483 0.73714 0.0
C2818 C 0.9683 0.56049 0.75804 0.0
C2819 C 0.98679 0.56861 0.76684 0.0
C2820 C 0.97706 0.59172 0.74632 0.0
C2821 C 0.00027 0.58818 0.76445 0.0
C2822 C 0.98471 0.62507 0.7379 0.0
C2823 C 0.94779 0.60904 0.72136 0.0
N2824 N 0.99508 0.59913 0.75457 0.0
N2825 N 0.95383 0.59746 0.72877 0.0
H2826 H 0.34922 0.35832 0.74792 0.0
H2827 H 0.45903 0.43568 0.77939 0.0
H2828 H 0.39692 0.35702 0.72483 0.0
H2829 H 0.41257 0.44515 0.79225 0.0
H2830 H 0.43608 0.40514 0.7616 0.0
H2831 H 0.37188 0.38876 0.76623 0.0
C2832 C 0.36447 0.36447 0.74668 0.0
C2833 C 0.37124 0.35517 0.73485 0.0
C2834 C 0.43088 0.41386 0.76833 0.0
C2835 C 0.39717 0.38982 0.75581 0.0
C2836 C 0.44394 0.4312 0.77862 0.0
C2837 C 0.43765 0.44288 0.78739 0.0
C2838 C 0.41133 0.40807 0.76685 0.0
C2839 C 0.418 0.43659 0.78563 0.0
C2840 C 0.37737 0.38183 0.75711 0.0
C2841 C 0.39111 0.36374 0.73376 0.0
N2842 N 0.4055 0.41955 0.7756 0.0
N2843 N 0.40338 0.38055 0.74418 0.0
H2844 H 0.64889 0.00457 0.69401 0.0
H2845 H 0.58741 0.04475 0.74265 0.0
H2846 H 0.65682 0.06166 0.68605 0.0
H2847 H 0.57586 0.9855 0.74418 0.0
H2848 H 0.61226 0.05123 0.72133 0.0
H2849 H 0.62132 0.99717 0.71152 0.0
C2850 C 0.64472 0.01552 0.69585 0.0
C2851 C 0.65521 0.0338 0.68867 0.0
C2852 C 0.60419 0.03678 0.72623 0.0
C2853 C 0.62367 0.02549 0.70891 0.0
C2854 C 0.5901 0.03311 0.73849 0.0
C2855 C 0.57962 0.01458 0.74529 0.0
C2856 C 0.60792 0.02186 0.72083 0.0
C2857 C 0.58347 -6e-05 0.73919 0.0
C2858 C 0.62895 0.01128 0.70586 0.0
C2859 C 0.64911 0.04739 0.69138 0.0
N2860 N 0.59739 0.00394 0.72743 0.0
N2861 N 0.63381 0.04303 0.70146 0.0
loop_
_geom_bond_atom_site_label_1
_geom_bond_atom_site_label_2
_geom_bond_distance
_geom_bond_site_symmetry_2
_ccdc_geom_bond_type
In0 O1 2.251 1_455 S
In0 O2 2.329 . S
In0 O6 2.224 1_455 S
In0 O7 2.339 1_454 S
In0 O8 2.285 1_554 S
In0 O9 2.253 1_454 S
In0 O11 2.362 . S
In0 O12 2.361 . S
O1 In0 2.251 1_655 S
O1 C10 1.234 1_655 S
O2 In0 2.329 . S
O2 C10 1.264 . S
C3 O6 1.252 1_556 S
C3 O7 1.260 . S
C4 O11 1.240 . S
C4 O12 1.252 . S
C5 O8 1.252 . S
C5 O9 1.284 1_455 S
O6 In0 2.224 1_655 S
O6 C3 1.252 1_554 S
O7 In0 2.339 1_656 S
O7 C3 1.260 . S
O8 In0 2.285 1_556 S
O8 C5 1.252 . S
O9 In0 2.253 1_656 S
O9 C5 1.284 1_655 S
C10 O1 1.234 1_455 S
C10 O2 1.264 . S
O11 In0 2.362 . S
O11 C4 1.240 . S
O12 In0 2.361 . S
O12 C4 1.252 . S
In13 O14 2.294 . S
In13 O15 2.326 . S
In13 O19 2.266 . S
In13 O20 2.326 . S
In13 O21 2.266 . S
In13 O22 2.326 . S
In13 O24 2.294 . S
In13 O25 2.326 . S
O14 In13 2.294 . S
O14 C23 1.240 . S
O15 In13 2.326 . S
O15 C23 1.252 . S
C16 O19 1.252 . S
C16 O20 1.260 . S
C17 O24 1.240 . S
C17 O25 1.252 . S
C18 O21 1.252 . S
C18 O22 1.260 . S
O19 In13 2.266 . S
O19 C16 1.252 . S
O20 In13 2.326 . S
O20 C16 1.260 . S
O21 In13 2.266 . S
O21 C18 1.252 . S
O22 In13 2.326 . S
O22 C18 1.260 . S
C23 O14 1.240 . S
C23 O15 1.252 . S
O24 In13 2.294 . S
O24 C17 1.240 . S
O25 In13 2.326 . S
O25 C17 1.252 . S
In26 O27 2.306 . S
In26 O28 2.332 1_554 S
In26 O32 2.269 . S
In26 O33 2.317 1_545 S
In26 O34 2.259 1_545 S
In26 O35 2.328 1_545 S
In26 O37 2.287 1_544 S
In26 O38 2.314 1_554 S
O27 In26 2.306 . S
O27 C36 1.269 . S
O28 In26 2.332 1_556 S
O28 C36 1.244 1_556 S
C29 O32 1.252 . S
C29 O33 1.260 1_545 S
C30 O37 1.240 . S
C30 O38 1.261 1_565 S
C31 O34 1.252 . S
C31 O35 1.260 . S
O32 In26 2.269 . S
O32 C29 1.252 . S
O33 In26 2.317 1_565 S
O33 C29 1.260 1_565 S
O34 In26 2.259 1_565 S
O34 C31 1.252 . S
O35 In26 2.328 1_565 S
O35 C31 1.260 . S
C36 O27 1.269 . S
C36 O28 1.244 1_554 S
O37 In26 2.287 1_566 S
O37 C30 1.240 . S
O38 In26 2.314 1_556 S
O38 C30 1.261 1_545 S
In39 O40 2.292 . S
In39 O41 2.326 1_455 S
In39 O45 2.265 . S
In39 O46 2.326 . S
In39 O47 2.267 1_455 S
In39 O48 2.324 . S
In39 O50 2.296 1_455 S
In39 O51 2.327 1_455 S
O40 In39 2.292 . S
O40 C49 1.260 . S
O41 In39 2.326 1_655 S
O41 C49 1.215 1_655 S
C42 O45 1.252 . S
C42 O46 1.260 . S
C43 O50 1.240 . S
C43 O51 1.252 . S
C44 O47 1.317 . S
C44 O48 1.210 1_655 S
O45 In39 2.265 . S
O45 C42 1.252 . S
O46 In39 2.326 . S
O46 C42 1.260 . S
O47 In39 2.267 1_655 S
O47 C44 1.317 . S
O48 In39 2.324 . S
O48 C44 1.210 1_455 S
C49 O40 1.260 . S
C49 O41 1.215 1_455 S
O50 In39 2.296 1_655 S
O50 C43 1.240 . S
O51 In39 2.327 1_655 S
O51 C43 1.252 . S
In52 O53 2.294 1_554 S
In52 O54 2.326 1_554 S
In52 O58 2.266 . S
In52 O59 2.326 . S
In52 O60 2.266 . S
In52 O61 2.326 . S
In52 O63 2.294 1_554 S
In52 O64 2.326 1_554 S
O53 In52 2.294 1_556 S
O53 C62 1.240 . S
O54 In52 2.326 1_556 S
O54 C62 1.252 . S
C55 O58 1.252 . S
C55 O59 1.260 . S
C56 O63 1.240 . S
C56 O64 1.252 . S
C57 O60 1.252 . S
C57 O61 1.260 . S
O58 In52 2.266 . S
O58 C55 1.252 . S
O59 In52 2.326 . S
O59 C55 1.260 . S
O60 In52 2.266 . S
O60 C57 1.252 . S
O61 In52 2.326 . S
O61 C57 1.260 . S
C62 O53 1.240 . S
C62 O54 1.252 . S
O63 In52 2.294 1_556 S
O63 C56 1.240 . S
O64 In52 2.326 1_556 S
O64 C56 1.252 . S
In65 O66 2.293 . S
In65 O67 2.326 1_545 S
In65 O71 2.265 . S
In65 O72 2.326 . S
In65 O73 2.267 1_545 S
In65 O74 2.324 . S
In65 O76 2.296 1_545 S
In65 O77 2.327 1_545 S
O66 In65 2.293 . S
O66 C75 1.240 . S
O67 In65 2.326 1_565 S
O67 C75 1.252 1_565 S
C68 O71 1.252 . S
C68 O72 1.260 . S
C69 O76 1.240 . S
C69 O77 1.252 . S
C70 O73 1.252 . S
C70 O74 1.260 1_565 S
O71 In65 2.265 . S
O71 C68 1.252 . S
O72 In65 2.326 . S
O72 C68 1.260 . S
O73 In65 2.267 1_565 S
O73 C70 1.252 . S
O74 In65 2.324 . S
O74 C70 1.260 1_545 S
C75 O66 1.240 . S
C75 O67 1.252 1_545 S
O76 In65 2.296 1_565 S
O76 C69 1.240 . S
O77 In65 2.327 1_565 S
O77 C69 1.252 . S
In78 O79 2.294 . S
In78 O80 2.326 . S
In78 O84 2.266 . S
In78 O85 2.326 . S
In78 O86 2.266 . S
In78 O87 2.326 . S
In78 O89 2.294 . S
In78 O90 2.326 . S
O79 In78 2.294 . S
O79 C88 1.240 . S
O80 In78 2.326 . S
O80 C88 1.252 . S
C81 O84 1.252 . S
C81 O85 1.260 . S
C82 O89 1.240 . S
C82 O90 1.252 . S
C83 O86 1.252 . S
C83 O87 1.260 . S
O84 In78 2.266 . S
O84 C81 1.252 . S
O85 In78 2.326 . S
O85 C81 1.260 . S
O86 In78 2.266 . S
O86 C83 1.252 . S
O87 In78 2.326 . S
O87 C83 1.260 . S
C88 O79 1.240 . S
C88 O80 1.252 . S
O89 In78 2.294 . S
O89 C82 1.240 . S
O90 In78 2.326 . S
O90 C82 1.252 . S
In91 O92 2.294 . S
In91 O93 2.326 . S
In91 O97 2.266 . S
In91 O98 2.326 . S
In91 O99 2.266 . S
In91 O100 2.326 . S
In91 O102 2.294 . S
In91 O103 2.326 . S
O92 In91 2.294 . S
O92 C101 1.240 . S
O93 In91 2.326 . S
O93 C101 1.252 . S
C94 O97 1.252 . S
C94 O98 1.260 . S
C95 O102 1.240 . S
C95 O103 1.252 . S
C96 O99 1.252 . S
C96 O100 1.260 . S
O97 In91 2.266 . S
O97 C94 1.252 . S
O98 In91 2.326 . S
O98 C94 1.260 . S
O99 In91 2.266 . S
O99 C96 1.252 . S
O100 In91 2.326 . S
O100 C96 1.260 . S
C101 O92 1.240 . S
C101 O93 1.252 . S
O102 In91 2.294 . S
O102 C95 1.240 . S
O103 In91 2.326 . S
O103 C95 1.252 . S
In104 O105 2.294 . S
In104 O106 2.326 . S
In104 O110 2.266 . S
In104 O111 2.326 . S
In104 O112 2.266 . S
In104 O113 2.326 . S
In104 O115 2.294 . S
In104 O116 2.326 . S
O105 In104 2.294 . S
O105 C114 1.240 . S
O106 In104 2.326 . S
O106 C114 1.252 . S
C107 O110 1.252 . S
C107 O111 1.260 . S
C108 O115 1.240 . S
C108 O116 1.252 . S
C109 O112 1.252 . S
C109 O113 1.260 . S
O110 In104 2.266 . S
O110 C107 1.252 . S
O111 In104 2.326 . S
O111 C107 1.260 . S
O112 In104 2.266 . S
O112 C109 1.252 . S
O113 In104 2.326 . S
O113 C109 1.260 . S
C114 O105 1.240 . S
C114 O106 1.252 . S
O115 In104 2.294 . S
O115 C108 1.240 . S
O116 In104 2.326 . S
O116 C108 1.252 . S
In117 O118 2.294 . S
In117 O119 2.326 . S
In117 O123 2.266 . S
In117 O124 2.326 . S
In117 O125 2.266 . S
In117 O126 2.326 . S
In117 O128 2.294 . S
In117 O129 2.326 . S
O118 In117 2.294 . S
O118 C127 1.240 . S
O119 In117 2.326 . S
O119 C127 1.252 . S
C120 O123 1.252 . S
C120 O124 1.260 . S
C121 O128 1.240 . S
C121 O129 1.252 . S
C122 O125 1.252 . S
C122 O126 1.260 . S
O123 In117 2.266 . S
O123 C120 1.252 . S
O124 In117 2.326 . S
O124 C120 1.260 . S
O125 In117 2.266 . S
O125 C122 1.252 . S
O126 In117 2.326 . S
O126 C122 1.260 . S
C127 O118 1.240 . S
C127 O119 1.252 . S
O128 In117 2.294 . S
O128 C121 1.240 . S
O129 In117 2.326 . S
O129 C121 1.252 . S
In130 O131 2.294 . S
In130 O132 2.326 . S
In130 O136 2.266 . S
In130 O137 2.326 . S
In130 O138 2.266 . S
In130 O139 2.326 . S
In130 O141 2.294 . S
In130 O142 2.326 . S
O131 In130 2.294 . S
O131 C140 1.240 . S
O132 In130 2.326 . S
O132 C140 1.252 . S
C133 O136 1.252 . S
C133 O137 1.260 . S
C134 O141 1.240 . S
C134 O142 1.252 . S
C135 O138 1.252 . S
C135 O139 1.260 . S
O136 In130 2.266 . S
O136 C133 1.252 . S
O137 In130 2.326 . S
O137 C133 1.260 . S
O138 In130 2.266 . S
O138 C135 1.252 . S
O139 In130 2.326 . S
O139 C135 1.260 . S
C140 O131 1.240 . S
C140 O132 1.252 . S
O141 In130 2.294 . S
O141 C134 1.240 . S
O142 In130 2.326 . S
O142 C134 1.252 . S
In143 O144 2.294 . S
In143 O145 2.326 . S
In143 O149 2.266 . S
In143 O150 2.326 . S
In143 O151 2.266 . S
In143 O152 2.326 . S
In143 O154 2.294 . S
In143 O155 2.326 . S
O144 In143 2.294 . S
O144 C153 1.240 . S
O145 In143 2.326 . S
O145 C153 1.252 . S
C146 O149 1.252 . S
C146 O150 1.260 . S
C147 O154 1.240 . S
C147 O155 1.252 . S
C148 O151 1.252 . S
C148 O152 1.260 . S
O149 In143 2.266 . S
O149 C146 1.252 . S
O150 In143 2.326 . S
O150 C146 1.260 . S
O151 In143 2.266 . S
O151 C148 1.252 . S
O152 In143 2.326 . S
O152 C148 1.260 . S
C153 O144 1.240 . S
C153 O145 1.252 . S
O154 In143 2.294 . S
O154 C147 1.240 . S
O155 In143 2.326 . S
O155 C147 1.252 . S
In156 O157 2.294 . S
In156 O158 2.326 . S
In156 O162 2.266 . S
In156 O163 2.326 . S
In156 O164 2.266 . S
In156 O165 2.326 . S
In156 O167 2.294 . S
In156 O168 2.326 . S
O157 In156 2.294 . S
O157 C166 1.240 . S
O158 In156 2.326 . S
O158 C166 1.252 . S
C159 O162 1.252 . S
C159 O163 1.260 . S
C160 O167 1.240 . S
C160 O168 1.252 . S
C161 O164 1.252 . S
C161 O165 1.260 . S
O162 In156 2.266 . S
O162 C159 1.252 . S
O163 In156 2.326 . S
O163 C159 1.260 . S
O164 In156 2.266 . S
O164 C161 1.252 . S
O165 In156 2.326 . S
O165 C161 1.260 . S
C166 O157 1.240 . S
C166 O158 1.252 . S
O167 In156 2.294 . S
O167 C160 1.240 . S
O168 In156 2.326 . S
O168 C160 1.252 . S
In169 O170 2.294 . S
In169 O171 2.326 . S
In169 O175 2.266 . S
In169 O176 2.326 . S
In169 O177 2.266 . S
In169 O178 2.326 . S
In169 O180 2.294 . S
In169 O181 2.326 . S
O170 In169 2.294 . S
O170 C179 1.240 . S
O171 In169 2.326 . S
O171 C179 1.252 . S
C172 O175 1.252 . S
C172 O176 1.260 . S
C173 O180 1.240 . S
C173 O181 1.252 . S
C174 O177 1.252 . S
C174 O178 1.260 . S
O175 In169 2.266 . S
O175 C172 1.252 . S
O176 In169 2.326 . S
O176 C172 1.260 . S
O177 In169 2.266 . S
O177 C174 1.252 . S
O178 In169 2.326 . S
O178 C174 1.260 . S
C179 O170 1.240 . S
C179 O171 1.252 . S
O180 In169 2.294 . S
O180 C173 1.240 . S
O181 In169 2.326 . S
O181 C173 1.252 . S
In182 O183 2.294 . S
In182 O184 2.326 . S
In182 O188 2.266 . S
In182 O189 2.326 . S
In182 O190 2.266 . S
In182 O191 2.326 . S
In182 O193 2.294 . S
In182 O194 2.326 . S
O183 In182 2.294 . S
O183 C192 1.240 . S
O184 In182 2.326 . S
O184 C192 1.252 . S
C185 O188 1.252 . S
C185 O189 1.260 . S
C186 O193 1.240 . S
C186 O194 1.252 . S
C187 O190 1.252 . S
C187 O191 1.260 . S
O188 In182 2.266 . S
O188 C185 1.252 . S
O189 In182 2.326 . S
O189 C185 1.260 . S
O190 In182 2.266 . S
O190 C187 1.252 . S
O191 In182 2.326 . S
O191 C187 1.260 . S
C192 O183 1.240 . S
C192 O184 1.252 . S
O193 In182 2.294 . S
O193 C186 1.240 . S
O194 In182 2.326 . S
O194 C186 1.252 . S
In195 O196 2.294 . S
In195 O197 2.326 . S
In195 O201 2.266 . S
In195 O202 2.326 . S
In195 O203 2.266 . S
In195 O204 2.326 . S
In195 O206 2.294 . S
In195 O207 2.326 . S
O196 In195 2.294 . S
O196 C205 1.240 . S
O197 In195 2.326 . S
O197 C205 1.252 . S
C198 O201 1.252 . S
C198 O202 1.260 . S
C199 O206 1.240 . S
C199 O207 1.252 . S
C200 O203 1.252 . S
C200 O204 1.260 . S
O201 In195 2.266 . S
O201 C198 1.252 . S
O202 In195 2.326 . S
O202 C198 1.260 . S
O203 In195 2.266 . S
O203 C200 1.252 . S
O204 In195 2.326 . S
O204 C200 1.260 . S
C205 O196 1.240 . S
C205 O197 1.252 . S
O206 In195 2.294 . S
O206 C199 1.240 . S
O207 In195 2.326 . S
O207 C199 1.252 . S
In208 O209 2.294 . S
In208 O210 2.326 . S
In208 O214 2.266 . S
In208 O215 2.326 . S
In208 O216 2.266 . S
In208 O217 2.326 . S
In208 O219 2.294 . S
In208 O220 2.326 . S
O209 In208 2.294 . S
O209 C218 1.240 . S
O210 In208 2.326 . S
O210 C218 1.252 . S
C211 O214 1.252 . S
C211 O215 1.260 . S
C212 O219 1.240 . S
C212 O220 1.252 . S
C213 O216 1.252 . S
C213 O217 1.260 . S
O214 In208 2.266 . S
O214 C211 1.252 . S
O215 In208 2.326 . S
O215 C211 1.260 . S
O216 In208 2.266 . S
O216 C213 1.252 . S
O217 In208 2.326 . S
O217 C213 1.260 . S
C218 O209 1.240 . S
C218 O210 1.252 . S
O219 In208 2.294 . S
O219 C212 1.240 . S
O220 In208 2.326 . S
O220 C212 1.252 . S
In221 O222 2.294 . S
In221 O223 2.326 . S
In221 O227 2.266 . S
In221 O228 2.326 . S
In221 O229 2.266 . S
In221 O230 2.326 . S
In221 O232 2.294 . S
In221 O233 2.326 . S
O222 In221 2.294 . S
O222 C231 1.240 . S
O223 In221 2.326 . S
O223 C231 1.252 . S
C224 O227 1.252 . S
C224 O228 1.260 . S
C225 O232 1.240 . S
C225 O233 1.252 . S
C226 O229 1.252 . S
C226 O230 1.260 . S
O227 In221 2.266 . S
O227 C224 1.252 . S
O228 In221 2.326 . S
O228 C224 1.260 . S
O229 In221 2.266 . S
O229 C226 1.252 . S
O230 In221 2.326 . S
O230 C226 1.260 . S
C231 O222 1.240 . S
C231 O223 1.252 . S
O232 In221 2.294 . S
O232 C225 1.240 . S
O233 In221 2.326 . S
O233 C225 1.252 . S
H234 O260 0.856 . S
H235 O263 0.854 . S
H236 C271 0.930 . S
H237 C272 0.930 . S
H238 C274 0.930 . S
H239 C275 0.930 . S
H240 C277 0.931 . S
H241 C278 0.930 . S
H242 C280 0.930 . S
H243 C281 0.929 . S
H244 C283 0.930 . S
H245 C284 0.931 . S
H246 C286 0.930 . S
H247 C287 0.929 . S
H248 C289 0.931 . S
H249 C290 0.930 . S
H250 C292 0.930 . S
H251 C293 0.932 . S
H252 C295 0.930 . S
H253 C296 0.929 . S
H254 C298 0.931 . S
H255 C299 0.930 . S
H256 C301 0.929 . S
H257 C302 0.931 . S
H258 C304 0.930 . S
H259 C305 0.929 . S
O260 H234 0.856 . S
O260 C306 1.300 . S
O261 C306 1.209 . S
O262 C307 1.199 . S
O263 H235 0.854 . S
O263 C307 1.297 . S
C264 C265 1.404 . S
C264 C269 1.397 . S
C264 C270 1.492 . S
C265 C264 1.404 . S
C265 C266 1.396 . S
C265 C276 1.492 . S
C266 C265 1.396 . S
C266 C267 1.397 . S
C266 C282 1.509 . S
C267 C266 1.397 . S
C267 C268 1.412 . S
C267 C288 1.485 . S
C268 C267 1.412 . S
C268 C269 1.388 . S
C268 C294 1.490 . S
C269 C264 1.397 . S
C269 C268 1.388 . S
C269 C300 1.519 . S
C270 C264 1.492 . S
C270 C271 1.363 . S
C270 C275 1.390 . S
C271 H236 0.930 . S
C271 C270 1.363 . S
C271 C272 1.372 . S
C272 H237 0.930 . S
C272 C271 1.372 . S
C272 C273 1.383 . S
C273 C272 1.383 . S
C273 C274 1.395 . S
C274 H238 0.930 . S
C274 C273 1.395 . S
C274 C275 1.362 . S
C275 H239 0.930 . S
C275 C270 1.390 . S
C275 C274 1.362 . S
C276 C265 1.492 . S
C276 C277 1.377 . S
C276 C281 1.397 . S
C277 H240 0.931 . S
C277 C276 1.377 . S
C277 C278 1.376 . S
C278 H241 0.930 . S
C278 C277 1.376 . S
C278 C279 1.376 . S
C279 C278 1.376 . S
C279 C280 1.378 . S
C279 C306 1.486 . S
C280 H242 0.930 . S
C280 C279 1.378 . S
C280 C281 1.376 . S
C281 H243 0.929 . S
C281 C276 1.397 . S
C281 C280 1.376 . S
C282 C266 1.509 . S
C282 C283 1.391 . S
C282 C287 1.386 . S
C283 H244 0.930 . S
C283 C282 1.391 . S
C283 C284 1.375 . S
C284 H245 0.931 . S
C284 C283 1.375 . S
C284 C285 1.375 . S
C285 C284 1.375 . S
C285 C286 1.361 . S
C286 H246 0.930 . S
C286 C285 1.361 . S
C286 C287 1.399 . S
C287 H247 0.929 . S
C287 C282 1.386 . S
C287 C286 1.399 . S
C288 C267 1.485 . S
C288 C289 1.394 . S
C288 C293 1.360 . S
C289 H248 0.931 . S
C289 C288 1.394 . S
C289 C290 1.372 . S
C290 H249 0.930 . S
C290 C289 1.372 . S
C290 C291 1.397 . S
C291 C290 1.397 . S
C291 C292 1.390 . S
C291 C307 1.476 . S
C292 H250 0.930 . S
C292 C291 1.390 . S
C292 C293 1.366 . S
C293 H251 0.932 . S
C293 C288 1.360 . S
C293 C292 1.366 . S
C294 C268 1.490 . S
C294 C295 1.380 . S
C294 C299 1.386 . S
C295 H252 0.930 . S
C295 C294 1.380 . S
C295 C296 1.381 . S
C296 H253 0.929 . S
C296 C295 1.381 . S
C296 C297 1.371 . S
C297 C296 1.371 . S
C297 C298 1.380 . S
C298 H254 0.931 . S
C298 C297 1.380 . S
C298 C299 1.387 . S
C299 H255 0.930 . S
C299 C294 1.386 . S
C299 C298 1.387 . S
C300 C269 1.519 . S
C300 C301 1.377 . S
C300 C305 1.361 . S
C301 H256 0.929 . S
C301 C300 1.377 . S
C301 C302 1.386 . S
C302 H257 0.931 . S
C302 C301 1.386 . S
C302 C303 1.363 . S
C303 C302 1.363 . S
C303 C304 1.385 . S
C304 H258 0.930 . S
C304 C303 1.385 . S
C304 C305 1.396 . S
C305 H259 0.929 . S
C305 C300 1.361 . S
C305 C304 1.396 . S
C306 O260 1.300 . S
C306 O261 1.209 . S
C306 C279 1.486 . S
C307 O262 1.199 . S
C307 O263 1.297 . S
C307 C291 1.476 . S
H308 O334 0.856 . S
H309 O337 0.854 . S
H310 C345 0.930 . S
H311 C346 0.930 . S
H312 C348 0.930 . S
H313 C349 0.930 . S
H314 C351 0.931 . S
H315 C352 0.930 . S
H316 C354 0.930 . S
H317 C355 0.929 . S
H318 C357 0.930 . S
H319 C358 0.931 . S
H320 C360 0.930 . S
H321 C361 0.929 . S
H322 C363 0.931 . S
H323 C364 0.930 . S
H324 C366 0.930 . S
H325 C367 0.932 . S
H326 C369 0.930 . S
H327 C370 0.929 . S
H328 C372 0.931 . S
H329 C373 0.930 . S
H330 C375 0.929 . S
H331 C376 0.931 . S
H332 C378 0.930 . S
H333 C379 0.929 . S
O334 H308 0.856 . S
O334 C380 1.300 . S
O335 C380 1.209 . S
O336 C381 1.199 . S
O337 H309 0.854 . S
O337 C381 1.297 . S
C338 C339 1.404 . S
C338 C343 1.397 . S
C338 C344 1.492 . S
C339 C338 1.404 . S
C339 C340 1.396 . S
C339 C350 1.492 . S
C340 C339 1.396 . S
C340 C341 1.397 . S
C340 C356 1.509 . S
C341 C340 1.397 . S
C341 C342 1.412 . S
C341 C362 1.485 . S
C342 C341 1.412 . S
C342 C343 1.388 . S
C342 C368 1.490 . S
C343 C338 1.397 . S
C343 C342 1.388 . S
C343 C374 1.519 . S
C344 C338 1.492 . S
C344 C345 1.363 . S
C344 C349 1.390 . S
C345 H310 0.930 . S
C345 C344 1.363 . S
C345 C346 1.372 . S
C346 H311 0.930 . S
C346 C345 1.372 . S
C346 C347 1.383 . S
C347 C346 1.383 . S
C347 C348 1.395 . S
C348 H312 0.930 . S
C348 C347 1.395 . S
C348 C349 1.362 . S
C349 H313 0.930 . S
C349 C344 1.390 . S
C349 C348 1.362 . S
C350 C339 1.492 . S
C350 C351 1.377 . S
C350 C355 1.397 . S
C351 H314 0.931 . S
C351 C350 1.377 . S
C351 C352 1.376 . S
C352 H315 0.930 . S
C352 C351 1.376 . S
C352 C353 1.376 . S
C353 C352 1.376 . S
C353 C354 1.378 . S
C353 C380 1.486 . S
C354 H316 0.930 . S
C354 C353 1.378 . S
C354 C355 1.376 . S
C355 H317 0.929 . S
C355 C350 1.397 . S
C355 C354 1.376 . S
C356 C340 1.509 . S
C356 C357 1.391 . S
C356 C361 1.386 . S
C357 H318 0.930 . S
C357 C356 1.391 . S
C357 C358 1.375 . S
C358 H319 0.931 . S
C358 C357 1.375 . S
C358 C359 1.375 . S
C359 C358 1.375 . S
C359 C360 1.361 . S
C360 H320 0.930 . S
C360 C359 1.361 . S
C360 C361 1.399 . S
C361 H321 0.929 . S
C361 C356 1.386 . S
C361 C360 1.399 . S
C362 C341 1.485 . S
C362 C363 1.394 . S
C362 C367 1.360 . S
C363 H322 0.931 . S
C363 C362 1.394 . S
C363 C364 1.372 . S
C364 H323 0.930 . S
C364 C363 1.372 . S
C364 C365 1.397 . S
C365 C364 1.397 . S
C365 C366 1.390 . S
C365 C381 1.476 . S
C366 H324 0.930 . S
C366 C365 1.390 . S
C366 C367 1.366 . S
C367 H325 0.932 . S
C367 C362 1.360 . S
C367 C366 1.366 . S
C368 C342 1.490 . S
C368 C369 1.380 . S
C368 C373 1.386 . S
C369 H326 0.930 . S
C369 C368 1.380 . S
C369 C370 1.381 . S
C370 H327 0.929 . S
C370 C369 1.381 . S
C370 C371 1.371 . S
C371 C370 1.371 . S
C371 C372 1.380 . S
C372 H328 0.931 . S
C372 C371 1.380 . S
C372 C373 1.387 . S
C373 H329 0.930 . S
C373 C368 1.386 . S
C373 C372 1.387 . S
C374 C343 1.519 . S
C374 C375 1.377 . S
C374 C379 1.361 . S
C375 H330 0.929 . S
C375 C374 1.377 . S
C375 C376 1.386 . S
C376 H331 0.931 . S
C376 C375 1.386 . S
C376 C377 1.363 . S
C377 C376 1.363 . S
C377 C378 1.385 . S
C378 H332 0.930 . S
C378 C377 1.385 . S
C378 C379 1.396 . S
C379 H333 0.929 . S
C379 C374 1.361 . S
C379 C378 1.396 . S
C380 O334 1.300 . S
C380 O335 1.209 . S
C380 C353 1.486 . S
C381 O336 1.199 . S
C381 O337 1.297 . S
C381 C365 1.476 . S
H382 O408 0.856 . S
H383 O411 0.854 . S
H384 C419 0.930 . S
H385 C420 0.930 . S
H386 C422 0.930 . S
H387 C423 0.930 . S
H388 C425 0.931 . S
H389 C426 0.930 . S
H390 C428 0.930 . S
H391 C429 0.929 . S
H392 C431 0.930 . S
H393 C432 0.931 . S
H394 C434 0.930 . S
H395 C435 0.929 . S
H396 C437 0.931 . S
H397 C438 0.930 . S
H398 C440 0.930 . S
H399 C441 0.932 . S
H400 C443 0.930 . S
H401 C444 0.929 . S
H402 C446 0.931 . S
H403 C447 0.930 . S
H404 C449 0.929 . S
H405 C450 0.931 . S
H406 C452 0.930 . S
H407 C453 0.929 . S
O408 H382 0.856 . S
O408 C454 1.300 . S
O409 C454 1.209 . S
O410 C455 1.199 . S
O411 H383 0.854 . S
O411 C455 1.297 . S
C412 C413 1.404 . S
C412 C417 1.397 . S
C412 C418 1.492 . S
C413 C412 1.404 . S
C413 C414 1.396 . S
C413 C424 1.492 . S
C414 C413 1.396 . S
C414 C415 1.397 . S
C414 C430 1.509 . S
C415 C414 1.397 . S
C415 C416 1.412 . S
C415 C436 1.485 . S
C416 C415 1.412 . S
C416 C417 1.388 . S
C416 C442 1.490 . S
C417 C412 1.397 . S
C417 C416 1.388 . S
C417 C448 1.519 . S
C418 C412 1.492 . S
C418 C419 1.363 . S
C418 C423 1.390 . S
C419 H384 0.930 . S
C419 C418 1.363 . S
C419 C420 1.372 . S
C420 H385 0.930 . S
C420 C419 1.372 . S
C420 C421 1.383 . S
C421 C420 1.383 . S
C421 C422 1.395 . S
C422 H386 0.930 . S
C422 C421 1.395 . S
C422 C423 1.362 . S
C423 H387 0.930 . S
C423 C418 1.390 . S
C423 C422 1.362 . S
C424 C413 1.492 . S
C424 C425 1.377 . S
C424 C429 1.397 . S
C425 H388 0.931 . S
C425 C424 1.377 . S
C425 C426 1.376 . S
C426 H389 0.930 . S
C426 C425 1.376 . S
C426 C427 1.376 . S
C427 C426 1.376 . S
C427 C428 1.378 . S
C427 C454 1.486 . S
C428 H390 0.930 . S
C428 C427 1.378 . S
C428 C429 1.376 . S
C429 H391 0.929 . S
C429 C424 1.397 . S
C429 C428 1.376 . S
C430 C414 1.509 . S
C430 C431 1.391 . S
C430 C435 1.386 . S
C431 H392 0.930 . S
C431 C430 1.391 . S
C431 C432 1.375 . S
C432 H393 0.931 . S
C432 C431 1.375 . S
C432 C433 1.375 . S
C433 C432 1.375 . S
C433 C434 1.361 . S
C434 H394 0.930 . S
C434 C433 1.361 . S
C434 C435 1.399 . S
C435 H395 0.929 . S
C435 C430 1.386 . S
C435 C434 1.399 . S
C436 C415 1.485 . S
C436 C437 1.394 . S
C436 C441 1.360 . S
C437 H396 0.931 . S
C437 C436 1.394 . S
C437 C438 1.372 . S
C438 H397 0.930 . S
C438 C437 1.372 . S
C438 C439 1.397 . S
C439 C438 1.397 . S
C439 C440 1.390 . S
C439 C455 1.476 . S
C440 H398 0.930 . S
C440 C439 1.390 . S
C440 C441 1.366 . S
C441 H399 0.932 . S
C441 C436 1.360 . S
C441 C440 1.366 . S
C442 C416 1.490 . S
C442 C443 1.380 . S
C442 C447 1.386 . S
C443 H400 0.930 . S
C443 C442 1.380 . S
C443 C444 1.381 . S
C444 H401 0.929 . S
C444 C443 1.381 . S
C444 C445 1.371 . S
C445 C444 1.371 . S
C445 C446 1.380 . S
C446 H402 0.931 . S
C446 C445 1.380 . S
C446 C447 1.387 . S
C447 H403 0.930 . S
C447 C442 1.386 . S
C447 C446 1.387 . S
C448 C417 1.519 . S
C448 C449 1.377 . S
C448 C453 1.361 . S
C449 H404 0.929 . S
C449 C448 1.377 . S
C449 C450 1.386 . S
C450 H405 0.931 . S
C450 C449 1.386 . S
C450 C451 1.363 . S
C451 C450 1.363 . S
C451 C452 1.385 . S
C452 H406 0.930 . S
C452 C451 1.385 . S
C452 C453 1.396 . S
C453 H407 0.929 . S
C453 C448 1.361 . S
C453 C452 1.396 . S
C454 O408 1.300 . S
C454 O409 1.209 . S
C454 C427 1.486 . S
C455 O410 1.199 . S
C455 O411 1.297 . S
C455 C439 1.476 . S
H456 O482 0.856 1_554 S
H457 O485 0.854 . S
H458 C493 0.930 . S
H459 C494 0.930 . S
H460 C496 0.930 . S
H461 C497 0.930 . S
H462 C499 0.931 . S
H463 C500 0.930 . S
H464 C502 0.930 . S
H465 C503 0.929 . S
H466 C505 0.930 . S
H467 C506 0.931 . S
H468 C508 0.930 . S
H469 C509 0.929 . S
H470 C511 0.931 . S
H471 C512 0.930 . S
H472 C514 0.930 . S
H473 C515 0.932 . S
H474 C517 0.930 . S
H475 C518 0.929 . S
H476 C520 0.931 . S
H477 C521 0.930 . S
H478 C523 0.929 . S
H479 C524 0.931 . S
H480 C526 0.930 . S
H481 C527 0.929 . S
O482 H456 0.856 1_556 S
O482 C528 1.300 . S
O483 C528 1.209 . S
O484 C529 1.199 . S
O485 H457 0.854 . S
O485 C529 1.297 . S
C486 C487 1.404 . S
C486 C491 1.397 . S
C486 C492 1.492 . S
C487 C486 1.404 . S
C487 C488 1.396 . S
C487 C498 1.492 . S
C488 C487 1.396 . S
C488 C489 1.397 . S
C488 C504 1.509 . S
C489 C488 1.397 . S
C489 C490 1.412 . S
C489 C510 1.485 . S
C490 C489 1.412 . S
C490 C491 1.388 . S
C490 C516 1.490 . S
C491 C486 1.397 . S
C491 C490 1.388 . S
C491 C522 1.519 . S
C492 C486 1.492 . S
C492 C493 1.363 . S
C492 C497 1.390 . S
C493 H458 0.930 . S
C493 C492 1.363 . S
C493 C494 1.372 . S
C494 H459 0.930 . S
C494 C493 1.372 . S
C494 C495 1.383 . S
C495 C494 1.383 . S
C495 C496 1.395 . S
C496 H460 0.930 . S
C496 C495 1.395 . S
C496 C497 1.362 . S
C497 H461 0.930 . S
C497 C492 1.390 . S
C497 C496 1.362 . S
C498 C487 1.492 . S
C498 C499 1.377 . S
C498 C503 1.397 . S
C499 H462 0.931 . S
C499 C498 1.377 . S
C499 C500 1.376 . S
C500 H463 0.930 . S
C500 C499 1.376 . S
C500 C501 1.376 . S
C501 C500 1.376 . S
C501 C502 1.378 . S
C501 C528 1.486 . S
C502 H464 0.930 . S
C502 C501 1.378 . S
C502 C503 1.376 . S
C503 H465 0.929 . S
C503 C498 1.397 . S
C503 C502 1.376 . S
C504 C488 1.509 . S
C504 C505 1.391 . S
C504 C509 1.386 . S
C505 H466 0.930 . S
C505 C504 1.391 . S
C505 C506 1.375 . S
C506 H467 0.931 . S
C506 C505 1.375 . S
C506 C507 1.375 . S
C507 C506 1.375 . S
C507 C508 1.361 . S
C508 H468 0.930 . S
C508 C507 1.361 . S
C508 C509 1.399 . S
C509 H469 0.929 . S
C509 C504 1.386 . S
C509 C508 1.399 . S
C510 C489 1.485 . S
C510 C511 1.394 . S
C510 C515 1.360 . S
C511 H470 0.931 . S
C511 C510 1.394 . S
C511 C512 1.372 . S
C512 H471 0.930 . S
C512 C511 1.372 . S
C512 C513 1.397 . S
C513 C512 1.397 . S
C513 C514 1.390 . S
C513 C529 1.476 . S
C514 H472 0.930 . S
C514 C513 1.390 . S
C514 C515 1.366 . S
C515 H473 0.932 . S
C515 C510 1.360 . S
C515 C514 1.366 . S
C516 C490 1.490 . S
C516 C517 1.380 . S
C516 C521 1.386 . S
C517 H474 0.930 . S
C517 C516 1.380 . S
C517 C518 1.381 . S
C518 H475 0.929 . S
C518 C517 1.381 . S
C518 C519 1.371 . S
C519 C518 1.371 . S
C519 C520 1.380 . S
C520 H476 0.931 . S
C520 C519 1.380 . S
C520 C521 1.387 . S
C521 H477 0.930 . S
C521 C516 1.386 . S
C521 C520 1.387 . S
C522 C491 1.519 . S
C522 C523 1.377 . S
C522 C527 1.361 . S
C523 H478 0.929 . S
C523 C522 1.377 . S
C523 C524 1.386 . S
C524 H479 0.931 . S
C524 C523 1.386 . S
C524 C525 1.363 . S
C525 C524 1.363 . S
C525 C526 1.385 . S
C526 H480 0.930 . S
C526 C525 1.385 . S
C526 C527 1.396 . S
C527 H481 0.929 . S
C527 C522 1.361 . S
C527 C526 1.396 . S
C528 O482 1.300 . S
C528 O483 1.209 . S
C528 C501 1.486 . S
C529 O484 1.199 . S
C529 O485 1.297 . S
C529 C513 1.476 . S
H530 O556 0.856 . S
H531 O559 0.854 . S
H532 C567 0.930 . S
H533 C568 0.930 . S
H534 C570 0.930 . S
H535 C571 0.930 . S
H536 C573 0.931 . S
H537 C574 0.930 . S
H538 C576 0.930 . S
H539 C577 0.929 . S
H540 C579 0.930 . S
H541 C580 0.931 . S
H542 C582 0.930 . S
H543 C583 0.929 . S
H544 C585 0.931 . S
H545 C586 0.930 . S
H546 C588 0.930 . S
H547 C589 0.932 . S
H548 C591 0.930 . S
H549 C592 0.929 . S
H550 C594 0.931 . S
H551 C595 0.930 . S
H552 C597 0.929 . S
H553 C598 0.931 . S
H554 C600 0.930 . S
H555 C601 0.929 . S
O556 H530 0.856 . S
O556 C602 1.300 1_554 S
O557 C602 1.209 1_554 S
O558 C603 1.199 . S
O559 H531 0.854 . S
O559 C603 1.297 . S
C560 C561 1.404 . S
C560 C565 1.397 . S
C560 C566 1.492 . S
C561 C560 1.404 . S
C561 C562 1.396 . S
C561 C572 1.492 . S
C562 C561 1.396 . S
C562 C563 1.397 . S
C562 C578 1.509 . S
C563 C562 1.397 . S
C563 C564 1.412 . S
C563 C584 1.485 . S
C564 C563 1.412 . S
C564 C565 1.388 . S
C564 C590 1.490 . S
C565 C560 1.397 . S
C565 C564 1.388 . S
C565 C596 1.519 . S
C566 C560 1.492 . S
C566 C567 1.363 . S
C566 C571 1.390 . S
C567 H532 0.930 . S
C567 C566 1.363 . S
C567 C568 1.372 . S
C568 H533 0.930 . S
C568 C567 1.372 . S
C568 C569 1.383 . S
C569 C568 1.383 . S
C569 C570 1.395 . S
C570 H534 0.930 . S
C570 C569 1.395 . S
C570 C571 1.362 . S
C571 H535 0.930 . S
C571 C566 1.390 . S
C571 C570 1.362 . S
C572 C561 1.492 . S
C572 C573 1.377 . S
C572 C577 1.397 . S
C573 H536 0.931 . S
C573 C572 1.377 . S
C573 C574 1.376 . S
C574 H537 0.930 . S
C574 C573 1.376 . S
C574 C575 1.376 . S
C575 C574 1.376 . S
C575 C576 1.378 . S
C575 C602 1.486 . S
C576 H538 0.930 . S
C576 C575 1.378 . S
C576 C577 1.376 . S
C577 H539 0.929 . S
C577 C572 1.397 . S
C577 C576 1.376 . S
C578 C562 1.509 . S
C578 C579 1.391 . S
C578 C583 1.386 . S
C579 H540 0.930 . S
C579 C578 1.391 . S
C579 C580 1.375 . S
C580 H541 0.931 . S
C580 C579 1.375 . S
C580 C581 1.375 . S
C581 C580 1.375 . S
C581 C582 1.361 . S
C582 H542 0.930 . S
C582 C581 1.361 . S
C582 C583 1.399 . S
C583 H543 0.929 . S
C583 C578 1.386 . S
C583 C582 1.399 . S
C584 C563 1.485 . S
C584 C585 1.394 . S
C584 C589 1.360 . S
C585 H544 0.931 . S
C585 C584 1.394 . S
C585 C586 1.372 . S
C586 H545 0.930 . S
C586 C585 1.372 . S
C586 C587 1.397 . S
C587 C586 1.397 . S
C587 C588 1.390 . S
C587 C603 1.476 . S
C588 H546 0.930 . S
C588 C587 1.390 . S
C588 C589 1.366 . S
C589 H547 0.932 . S
C589 C584 1.360 . S
C589 C588 1.366 . S
C590 C564 1.490 . S
C590 C591 1.380 . S
C590 C595 1.386 . S
C591 H548 0.930 . S
C591 C590 1.380 . S
C591 C592 1.381 . S
C592 H549 0.929 . S
C592 C591 1.381 . S
C592 C593 1.371 . S
C593 C592 1.371 . S
C593 C594 1.380 . S
C594 H550 0.931 . S
C594 C593 1.380 . S
C594 C595 1.387 . S
C595 H551 0.930 . S
C595 C590 1.386 . S
C595 C594 1.387 . S
C596 C565 1.519 . S
C596 C597 1.377 . S
C596 C601 1.361 . S
C597 H552 0.929 . S
C597 C596 1.377 . S
C597 C598 1.386 . S
C598 H553 0.931 . S
C598 C597 1.386 . S
C598 C599 1.363 . S
C599 C598 1.363 . S
C599 C600 1.385 . S
C600 H554 0.930 . S
C600 C599 1.385 . S
C600 C601 1.396 . S
C601 H555 0.929 . S
C601 C596 1.361 . S
C601 C600 1.396 . S
C602 O556 1.300 1_556 S
C602 O557 1.209 1_556 S
C602 C575 1.486 . S
C603 O558 1.199 . S
C603 O559 1.297 . S
C603 C587 1.476 . S
H604 O630 0.856 . S
H605 O633 0.854 . S
H606 C641 0.930 . S
H607 C642 0.930 . S
H608 C644 0.930 . S
H609 C645 0.930 . S
H610 C647 0.931 . S
H611 C648 0.930 . S
H612 C650 0.930 . S
H613 C651 0.929 . S
H614 C653 0.930 . S
H615 C654 0.931 . S
H616 C656 0.930 . S
H617 C657 0.929 . S
H618 C659 0.931 . S
H619 C660 0.930 . S
H620 C662 0.930 . S
H621 C663 0.932 . S
H622 C665 0.930 . S
H623 C666 0.929 . S
H624 C668 0.931 . S
H625 C669 0.930 . S
H626 C671 0.929 . S
H627 C672 0.931 . S
H628 C674 0.930 . S
H629 C675 0.929 . S
O630 H604 0.856 . S
O630 C676 1.300 . S
O631 C676 1.209 . S
O632 C677 1.199 . S
O633 H605 0.854 . S
O633 C677 1.297 . S
C634 C635 1.404 . S
C634 C639 1.397 . S
C634 C640 1.492 . S
C635 C634 1.404 . S
C635 C636 1.396 . S
C635 C646 1.492 . S
C636 C635 1.396 . S
C636 C637 1.397 . S
C636 C652 1.509 . S
C637 C636 1.397 . S
C637 C638 1.412 . S
C637 C658 1.485 . S
C638 C637 1.412 . S
C638 C639 1.388 . S
C638 C664 1.490 . S
C639 C634 1.397 . S
C639 C638 1.388 . S
C639 C670 1.519 . S
C640 C634 1.492 . S
C640 C641 1.363 . S
C640 C645 1.390 . S
C641 H606 0.930 . S
C641 C640 1.363 . S
C641 C642 1.372 . S
C642 H607 0.930 . S
C642 C641 1.372 . S
C642 C643 1.383 . S
C643 C642 1.383 . S
C643 C644 1.395 . S
C644 H608 0.930 . S
C644 C643 1.395 . S
C644 C645 1.362 . S
C645 H609 0.930 . S
C645 C640 1.390 . S
C645 C644 1.362 . S
C646 C635 1.492 . S
C646 C647 1.377 . S
C646 C651 1.397 . S
C647 H610 0.931 . S
C647 C646 1.377 . S
C647 C648 1.376 . S
C648 H611 0.930 . S
C648 C647 1.376 . S
C648 C649 1.376 . S
C649 C648 1.376 . S
C649 C650 1.378 . S
C649 C676 1.486 1_556 S
C650 H612 0.930 . S
C650 C649 1.378 . S
C650 C651 1.376 . S
C651 H613 0.929 . S
C651 C646 1.397 . S
C651 C650 1.376 . S
C652 C636 1.509 . S
C652 C653 1.391 . S
C652 C657 1.386 . S
C653 H614 0.930 . S
C653 C652 1.391 . S
C653 C654 1.375 . S
C654 H615 0.931 . S
C654 C653 1.375 . S
C654 C655 1.375 . S
C655 C654 1.375 . S
C655 C656 1.361 . S
C656 H616 0.930 . S
C656 C655 1.361 . S
C656 C657 1.399 . S
C657 H617 0.929 . S
C657 C652 1.386 . S
C657 C656 1.399 . S
C658 C637 1.485 . S
C658 C659 1.394 . S
C658 C663 1.360 . S
C659 H618 0.931 . S
C659 C658 1.394 . S
C659 C660 1.372 . S
C660 H619 0.930 . S
C660 C659 1.372 . S
C660 C661 1.397 . S
C661 C660 1.397 . S
C661 C662 1.390 . S
C661 C677 1.476 . S
C662 H620 0.930 . S
C662 C661 1.390 . S
C662 C663 1.366 . S
C663 H621 0.932 . S
C663 C658 1.360 . S
C663 C662 1.366 . S
C664 C638 1.490 . S
C664 C665 1.380 . S
C664 C669 1.386 . S
C665 H622 0.930 . S
C665 C664 1.380 . S
C665 C666 1.381 . S
C666 H623 0.929 . S
C666 C665 1.381 . S
C666 C667 1.371 . S
C667 C666 1.371 . S
C667 C668 1.380 . S
C668 H624 0.931 . S
C668 C667 1.380 . S
C668 C669 1.387 . S
C669 H625 0.930 . S
C669 C664 1.386 . S
C669 C668 1.387 . S
C670 C639 1.519 . S
C670 C671 1.377 . S
C670 C675 1.361 . S
C671 H626 0.929 . S
C671 C670 1.377 . S
C671 C672 1.386 . S
C672 H627 0.931 . S
C672 C671 1.386 . S
C672 C673 1.363 . S
C673 C672 1.363 . S
C673 C674 1.385 . S
C674 H628 0.930 . S
C674 C673 1.385 . S
C674 C675 1.396 . S
C675 H629 0.929 . S
C675 C670 1.361 . S
C675 C674 1.396 . S
C676 O630 1.300 . S
C676 O631 1.209 . S
C676 C649 1.486 1_554 S
C677 O632 1.199 . S
C677 O633 1.297 . S
C677 C661 1.476 . S
H678 O704 0.856 . S
H679 O707 0.854 . S
H680 C715 0.930 . S
H681 C716 0.930 . S
H682 C718 0.930 . S
H683 C719 0.930 . S
H684 C721 0.931 . S
H685 C722 0.930 . S
H686 C724 0.930 . S
H687 C725 0.929 . S
H688 C727 0.930 . S
H689 C728 0.931 . S
H690 C730 0.930 . S
H691 C731 0.929 . S
H692 C733 0.931 . S
H693 C734 0.930 . S
H694 C736 0.930 . S
H695 C737 0.932 . S
H696 C739 0.930 . S
H697 C740 0.929 . S
H698 C742 0.931 . S
H699 C743 0.930 . S
H700 C745 0.929 . S
H701 C746 0.931 . S
H702 C748 0.930 . S
H703 C749 0.929 . S
O704 H678 0.856 . S
O704 C750 1.300 . S
O705 C750 1.209 . S
O706 C751 1.199 . S
O707 H679 0.854 . S
O707 C751 1.297 . S
C708 C709 1.404 . S
C708 C713 1.397 . S
C708 C714 1.492 . S
C709 C708 1.404 . S
C709 C710 1.396 . S
C709 C720 1.492 . S
C710 C709 1.396 . S
C710 C711 1.397 . S
C710 C726 1.509 . S
C711 C710 1.397 . S
C711 C712 1.412 . S
C711 C732 1.485 . S
C712 C711 1.412 . S
C712 C713 1.388 . S
C712 C738 1.490 . S
C713 C708 1.397 . S
C713 C712 1.388 . S
C713 C744 1.519 . S
C714 C708 1.492 . S
C714 C715 1.363 . S
C714 C719 1.390 . S
C715 H680 0.930 . S
C715 C714 1.363 . S
C715 C716 1.372 . S
C716 H681 0.930 . S
C716 C715 1.372 . S
C716 C717 1.383 . S
C717 C716 1.383 . S
C717 C718 1.395 . S
C718 H682 0.930 . S
C718 C717 1.395 . S
C718 C719 1.362 . S
C719 H683 0.930 . S
C719 C714 1.390 . S
C719 C718 1.362 . S
C720 C709 1.492 . S
C720 C721 1.377 . S
C720 C725 1.397 . S
C721 H684 0.931 . S
C721 C720 1.377 . S
C721 C722 1.376 . S
C722 H685 0.930 . S
C722 C721 1.376 . S
C722 C723 1.376 . S
C723 C722 1.376 . S
C723 C724 1.378 . S
C723 C750 1.486 . S
C724 H686 0.930 . S
C724 C723 1.378 . S
C724 C725 1.376 . S
C725 H687 0.929 . S
C725 C720 1.397 . S
C725 C724 1.376 . S
C726 C710 1.509 . S
C726 C727 1.391 . S
C726 C731 1.386 . S
C727 H688 0.930 . S
C727 C726 1.391 . S
C727 C728 1.375 . S
C728 H689 0.931 . S
C728 C727 1.375 . S
C728 C729 1.375 . S
C729 C728 1.375 . S
C729 C730 1.361 . S
C730 H690 0.930 . S
C730 C729 1.361 . S
C730 C731 1.399 . S
C731 H691 0.929 . S
C731 C726 1.386 . S
C731 C730 1.399 . S
C732 C711 1.485 . S
C732 C733 1.394 . S
C732 C737 1.360 . S
C733 H692 0.931 . S
C733 C732 1.394 . S
C733 C734 1.372 . S
C734 H693 0.930 . S
C734 C733 1.372 . S
C734 C735 1.397 . S
C735 C734 1.397 . S
C735 C736 1.390 . S
C735 C751 1.476 . S
C736 H694 0.930 . S
C736 C735 1.390 . S
C736 C737 1.366 . S
C737 H695 0.932 . S
C737 C732 1.360 . S
C737 C736 1.366 . S
C738 C712 1.490 . S
C738 C739 1.380 . S
C738 C743 1.386 . S
C739 H696 0.930 . S
C739 C738 1.380 . S
C739 C740 1.381 . S
C740 H697 0.929 . S
C740 C739 1.381 . S
C740 C741 1.371 . S
C741 C740 1.371 . S
C741 C742 1.380 . S
C742 H698 0.931 . S
C742 C741 1.380 . S
C742 C743 1.387 . S
C743 H699 0.930 . S
C743 C738 1.386 . S
C743 C742 1.387 . S
C744 C713 1.519 . S
C744 C745 1.377 . S
C744 C749 1.361 . S
C745 H700 0.929 . S
C745 C744 1.377 . S
C745 C746 1.386 . S
C746 H701 0.931 . S
C746 C745 1.386 . S
C746 C747 1.363 . S
C747 C746 1.363 . S
C747 C748 1.385 . S
C748 H702 0.930 . S
C748 C747 1.385 . S
C748 C749 1.396 . S
C749 H703 0.929 . S
C749 C744 1.361 . S
C749 C748 1.396 . S
C750 O704 1.300 . S
C750 O705 1.209 . S
C750 C723 1.486 . S
C751 O706 1.199 . S
C751 O707 1.297 . S
C751 C735 1.476 . S
H752 O778 0.856 . S
H753 O781 0.854 . S
H754 C789 0.930 . S
H755 C790 0.930 . S
H756 C792 0.930 . S
H757 C793 0.930 . S
H758 C795 0.931 . S
H759 C796 0.930 . S
H760 C798 0.930 . S
H761 C799 0.929 . S
H762 C801 0.930 . S
H763 C802 0.931 . S
H764 C804 0.930 . S
H765 C805 0.929 . S
H766 C807 0.931 . S
H767 C808 0.930 . S
H768 C810 0.930 . S
H769 C811 0.932 . S
H770 C813 0.930 . S
H771 C814 0.929 . S
H772 C816 0.931 . S
H773 C817 0.930 . S
H774 C819 0.929 . S
H775 C820 0.931 . S
H776 C822 0.930 . S
H777 C823 0.929 . S
O778 H752 0.856 . S
O778 C824 1.300 . S
O779 C824 1.209 . S
O780 C825 1.199 . S
O781 H753 0.854 . S
O781 C825 1.297 . S
C782 C783 1.404 . S
C782 C787 1.397 . S
C782 C788 1.492 . S
C783 C782 1.404 . S
C783 C784 1.396 . S
C783 C794 1.492 . S
C784 C783 1.396 . S
C784 C785 1.397 . S
C784 C800 1.509 . S
C785 C784 1.397 . S
C785 C786 1.412 . S
C785 C806 1.485 . S
C786 C785 1.412 . S
C786 C787 1.388 . S
C786 C812 1.490 . S
C787 C782 1.397 . S
C787 C786 1.388 . S
C787 C818 1.519 . S
C788 C782 1.492 . S
C788 C789 1.363 . S
C788 C793 1.390 . S
C789 H754 0.930 . S
C789 C788 1.363 . S
C789 C790 1.372 . S
C790 H755 0.930 . S
C790 C789 1.372 . S
C790 C791 1.383 . S
C791 C790 1.383 . S
C791 C792 1.395 . S
C792 H756 0.930 . S
C792 C791 1.395 . S
C792 C793 1.362 . S
C793 H757 0.930 . S
C793 C788 1.390 . S
C793 C792 1.362 . S
C794 C783 1.492 . S
C794 C795 1.377 . S
C794 C799 1.397 . S
C795 H758 0.931 . S
C795 C794 1.377 . S
C795 C796 1.376 . S
C796 H759 0.930 . S
C796 C795 1.376 . S
C796 C797 1.376 . S
C797 C796 1.376 . S
C797 C798 1.378 . S
C797 C824 1.486 . S
C798 H760 0.930 . S
C798 C797 1.378 . S
C798 C799 1.376 . S
C799 H761 0.929 . S
C799 C794 1.397 . S
C799 C798 1.376 . S
C800 C784 1.509 . S
C800 C801 1.391 . S
C800 C805 1.386 . S
C801 H762 0.930 . S
C801 C800 1.391 . S
C801 C802 1.375 . S
C802 H763 0.931 . S
C802 C801 1.375 . S
C802 C803 1.375 . S
C803 C802 1.375 . S
C803 C804 1.361 . S
C804 H764 0.930 . S
C804 C803 1.361 . S
C804 C805 1.399 . S
C805 H765 0.929 . S
C805 C800 1.386 . S
C805 C804 1.399 . S
C806 C785 1.485 . S
C806 C807 1.394 . S
C806 C811 1.360 . S
C807 H766 0.931 . S
C807 C806 1.394 . S
C807 C808 1.372 . S
C808 H767 0.930 . S
C808 C807 1.372 . S
C808 C809 1.397 . S
C809 C808 1.397 . S
C809 C810 1.390 . S
C809 C825 1.476 . S
C810 H768 0.930 . S
C810 C809 1.390 . S
C810 C811 1.366 . S
C811 H769 0.932 . S
C811 C806 1.360 . S
C811 C810 1.366 . S
C812 C786 1.490 . S
C812 C813 1.380 . S
C812 C817 1.386 . S
C813 H770 0.930 . S
C813 C812 1.380 . S
C813 C814 1.381 . S
C814 H771 0.929 . S
C814 C813 1.381 . S
C814 C815 1.371 . S
C815 C814 1.371 . S
C815 C816 1.380 . S
C816 H772 0.931 . S
C816 C815 1.380 . S
C816 C817 1.387 . S
C817 H773 0.930 . S
C817 C812 1.386 . S
C817 C816 1.387 . S
C818 C787 1.519 . S
C818 C819 1.377 . S
C818 C823 1.361 . S
C819 H774 0.929 . S
C819 C818 1.377 . S
C819 C820 1.386 . S
C820 H775 0.931 . S
C820 C819 1.386 . S
C820 C821 1.363 . S
C821 C820 1.363 . S
C821 C822 1.385 . S
C822 H776 0.930 . S
C822 C821 1.385 . S
C822 C823 1.396 . S
C823 H777 0.929 . S
C823 C818 1.361 . S
C823 C822 1.396 . S
C824 O778 1.300 . S
C824 O779 1.209 . S
C824 C797 1.486 . S
C825 O780 1.199 . S
C825 O781 1.297 . S
C825 C809 1.476 . S
H826 O852 0.856 . S
H827 O855 0.854 . S
H828 C863 0.930 . S
H829 C864 0.930 . S
H830 C866 0.930 . S
H831 C867 0.930 . S
H832 C869 0.931 . S
H833 C870 0.930 . S
H834 C872 0.930 . S
H835 C873 0.929 . S
H836 C875 0.930 . S
H837 C876 0.931 . S
H838 C878 0.930 . S
H839 C879 0.929 . S
H840 C881 0.931 . S
H841 C882 0.930 . S
H842 C884 0.930 . S
H843 C885 0.932 . S
H844 C887 0.930 . S
H845 C888 0.929 . S
H846 C890 0.931 . S
H847 C891 0.930 . S
H848 C893 0.929 . S
H849 C894 0.931 . S
H850 C896 0.930 . S
H851 C897 0.929 . S
O852 H826 0.856 . S
O852 C898 1.300 . S
O853 C898 1.209 . S
O854 C899 1.199 . S
O855 H827 0.854 . S
O855 C899 1.297 . S
C856 C857 1.404 . S
C856 C861 1.397 . S
C856 C862 1.492 . S
C857 C856 1.404 . S
C857 C858 1.396 . S
C857 C868 1.492 . S
C858 C857 1.396 . S
C858 C859 1.397 . S
C858 C874 1.509 . S
C859 C858 1.397 . S
C859 C860 1.412 . S
C859 C880 1.485 . S
C860 C859 1.412 . S
C860 C861 1.388 . S
C860 C886 1.490 . S
C861 C856 1.397 . S
C861 C860 1.388 . S
C861 C892 1.519 . S
C862 C856 1.492 . S
C862 C863 1.363 . S
C862 C867 1.390 . S
C863 H828 0.930 . S
C863 C862 1.363 . S
C863 C864 1.372 . S
C864 H829 0.930 . S
C864 C863 1.372 . S
C864 C865 1.383 . S
C865 C864 1.383 . S
C865 C866 1.395 . S
C866 H830 0.930 . S
C866 C865 1.395 . S
C866 C867 1.362 . S
C867 H831 0.930 . S
C867 C862 1.390 . S
C867 C866 1.362 . S
C868 C857 1.492 . S
C868 C869 1.377 . S
C868 C873 1.397 . S
C869 H832 0.931 . S
C869 C868 1.377 . S
C869 C870 1.376 . S
C870 H833 0.930 . S
C870 C869 1.376 . S
C870 C871 1.376 . S
C871 C870 1.376 . S
C871 C872 1.378 . S
C871 C898 1.486 . S
C872 H834 0.930 . S
C872 C871 1.378 . S
C872 C873 1.376 . S
C873 H835 0.929 . S
C873 C868 1.397 . S
C873 C872 1.376 . S
C874 C858 1.509 . S
C874 C875 1.391 . S
C874 C879 1.386 . S
C875 H836 0.930 . S
C875 C874 1.391 . S
C875 C876 1.375 . S
C876 H837 0.931 . S
C876 C875 1.375 . S
C876 C877 1.375 . S
C877 C876 1.375 . S
C877 C878 1.361 . S
C878 H838 0.930 . S
C878 C877 1.361 . S
C878 C879 1.399 . S
C879 H839 0.929 . S
C879 C874 1.386 . S
C879 C878 1.399 . S
C880 C859 1.485 . S
C880 C881 1.394 . S
C880 C885 1.360 . S
C881 H840 0.931 . S
C881 C880 1.394 . S
C881 C882 1.372 . S
C882 H841 0.930 . S
C882 C881 1.372 . S
C882 C883 1.397 . S
C883 C882 1.397 . S
C883 C884 1.390 . S
C883 C899 1.476 . S
C884 H842 0.930 . S
C884 C883 1.390 . S
C884 C885 1.366 . S
C885 H843 0.932 . S
C885 C880 1.360 . S
C885 C884 1.366 . S
C886 C860 1.490 . S
C886 C887 1.380 . S
C886 C891 1.386 . S
C887 H844 0.930 . S
C887 C886 1.380 . S
C887 C888 1.381 . S
C888 H845 0.929 . S
C888 C887 1.381 . S
C888 C889 1.371 . S
C889 C888 1.371 . S
C889 C890 1.380 . S
C890 H846 0.931 . S
C890 C889 1.380 . S
C890 C891 1.387 . S
C891 H847 0.930 . S
C891 C886 1.386 . S
C891 C890 1.387 . S
C892 C861 1.519 . S
C892 C893 1.377 . S
C892 C897 1.361 . S
C893 H848 0.929 . S
C893 C892 1.377 . S
C893 C894 1.386 . S
C894 H849 0.931 . S
C894 C893 1.386 . S
C894 C895 1.363 . S
C895 C894 1.363 . S
C895 C896 1.385 . S
C896 H850 0.930 . S
C896 C895 1.385 . S
C896 C897 1.396 . S
C897 H851 0.929 . S
C897 C892 1.361 . S
C897 C896 1.396 . S
C898 O852 1.300 . S
C898 O853 1.209 . S
C898 C871 1.486 . S
C899 O854 1.199 . S
C899 O855 1.297 . S
C899 C883 1.476 . S
H900 O926 0.856 . S
H901 O929 0.854 . S
H902 C937 0.930 . S
H903 C938 0.930 . S
H904 C940 0.930 . S
H905 C941 0.930 . S
H906 C943 0.931 . S
H907 C944 0.930 1_655 S
H908 C946 0.930 . S
H909 C947 0.929 . S
H910 C949 0.930 . S
H911 C950 0.916 1_655 S
H912 C952 0.930 . S
H913 C953 0.929 . S
H914 C955 0.931 . S
H915 C956 0.930 . S
H916 C958 0.930 . S
H917 C959 0.932 . S
H918 C961 0.930 . S
H919 C962 0.929 . S
H920 C964 0.931 . S
H921 C965 0.930 . S
H922 C967 0.929 . S
H923 C968 0.931 . S
H924 C970 0.930 . S
H925 C971 0.929 . S
O926 H900 0.856 . S
O926 C972 1.300 . S
O927 C972 1.209 . S
O928 C973 1.199 1_655 S
O929 H901 0.854 . S
O929 C973 1.297 . S
C930 C931 1.404 . S
C930 C935 1.394 . S
C930 C936 1.492 . S
C931 C930 1.404 . S
C931 C932 1.396 . S
C931 C942 1.492 . S
C932 C931 1.396 . S
C932 C933 1.397 . S
C932 C948 1.509 . S
C933 C932 1.397 . S
C933 C934 1.421 . S
C933 C954 1.485 . S
C934 C933 1.421 . S
C934 C935 1.406 . S
C934 C960 1.490 1_455 S
C935 C930 1.394 . S
C935 C934 1.406 . S
C935 C966 1.489 1_455 S
C936 C930 1.492 . S
C936 C937 1.363 1_455 S
C936 C941 1.390 . S
C937 H902 0.930 . S
C937 C936 1.363 1_655 S
C937 C938 1.372 . S
C938 H903 0.930 . S
C938 C937 1.372 . S
C938 C939 1.383 . S
C939 C938 1.383 . S
C939 C940 1.395 1_655 S
C940 H904 0.930 . S
C940 C939 1.395 1_455 S
C940 C941 1.362 . S
C941 H905 0.930 . S
C941 C936 1.390 . S
C941 C940 1.362 . S
C942 C931 1.492 . S
C942 C943 1.377 1_455 S
C942 C947 1.397 . S
C943 H906 0.931 . S
C943 C942 1.377 1_655 S
C943 C944 1.376 1_655 S
C944 H907 0.930 1_455 S
C944 C943 1.376 1_455 S
C944 C945 1.376 . S
C945 C944 1.376 . S
C945 C946 1.378 . S
C945 C972 1.486 . S
C946 H908 0.930 . S
C946 C945 1.378 . S
C946 C947 1.376 . S
C947 H909 0.929 . S
C947 C942 1.397 . S
C947 C946 1.376 . S
C948 C932 1.509 . S
C948 C949 1.391 1_455 S
C948 C953 1.386 . S
C949 H910 0.930 . S
C949 C948 1.391 1_655 S
C949 C950 1.355 1_655 S
C950 H911 0.916 1_455 S
C950 C949 1.355 1_455 S
C950 C951 1.411 . S
C951 C950 1.411 . S
C951 C952 1.361 . S
C952 H912 0.930 . S
C952 C951 1.361 . S
C952 C953 1.399 . S
C953 H913 0.929 . S
C953 C948 1.386 . S
C953 C952 1.399 . S
C954 C933 1.485 . S
C954 C955 1.394 1_455 S
C954 C959 1.360 . S
C955 H914 0.931 . S
C955 C954 1.394 1_655 S
C955 C956 1.372 . S
C956 H915 0.930 . S
C956 C955 1.372 . S
C956 C957 1.397 1_655 S
C957 C956 1.397 1_455 S
C957 C958 1.390 . S
C957 C973 1.476 . S
C958 H916 0.930 . S
C958 C957 1.390 . S
C958 C959 1.366 . S
C959 H917 0.932 . S
C959 C954 1.360 . S
C959 C958 1.366 . S
C960 C934 1.490 1_655 S
C960 C961 1.380 . S
C960 C965 1.386 1_655 S
C961 H918 0.930 . S
C961 C960 1.380 . S
C961 C962 1.381 . S
C962 H919 0.929 . S
C962 C961 1.381 . S
C962 C963 1.371 . S
C963 C962 1.371 . S
C963 C964 1.380 1_655 S
C964 H920 0.931 . S
C964 C963 1.380 1_455 S
C964 C965 1.387 . S
C965 H921 0.930 . S
C965 C960 1.386 1_455 S
C965 C964 1.387 . S
C966 C935 1.489 1_655 S
C966 C967 1.407 . S
C966 C971 1.341 1_655 S
C967 H922 0.929 . S
C967 C966 1.407 . S
C967 C968 1.386 . S
C968 H923 0.931 . S
C968 C967 1.386 . S
C968 C969 1.376 . S
C969 C968 1.376 . S
C969 C970 1.366 1_655 S
C970 H924 0.930 . S
C970 C969 1.366 1_455 S
C970 C971 1.396 . S
C971 H925 0.929 . S
C971 C966 1.341 1_455 S
C971 C970 1.396 . S
C972 O926 1.300 . S
C972 O927 1.209 . S
C972 C945 1.486 . S
C973 O928 1.199 1_455 S
C973 O929 1.297 . S
C973 C957 1.476 . S
H974 O1000 0.856 . S
H975 O1003 0.854 . S
H976 C1011 0.930 . S
H977 C1012 0.930 . S
H978 C1014 0.930 . S
H979 C1015 0.930 . S
H980 C1017 0.931 . S
H981 C1018 0.930 . S
H982 C1020 0.930 . S
H983 C1021 0.929 . S
H984 C1023 0.930 . S
H985 C1024 0.931 . S
H986 C1026 0.930 . S
H987 C1027 0.929 . S
H988 C1029 0.931 . S
H989 C1030 0.930 . S
H990 C1032 0.930 . S
H991 C1033 0.932 . S
H992 C1035 0.930 . S
H993 C1036 0.929 . S
H994 C1038 0.931 . S
H995 C1039 0.930 . S
H996 C1041 0.929 . S
H997 C1042 0.931 . S
H998 C1044 0.930 . S
H999 C1045 0.929 . S
O1000 H974 0.856 . S
O1000 C1046 1.300 . S
O1001 C1046 1.209 . S
O1002 C1047 1.199 . S
O1003 H975 0.854 . S
O1003 C1047 1.297 . S
C1004 C1005 1.404 . S
C1004 C1009 1.397 . S
C1004 C1010 1.492 . S
C1005 C1004 1.404 . S
C1005 C1006 1.396 . S
C1005 C1016 1.492 . S
C1006 C1005 1.396 . S
C1006 C1007 1.397 . S
C1006 C1022 1.509 . S
C1007 C1006 1.397 . S
C1007 C1008 1.412 . S
C1007 C1028 1.485 . S
C1008 C1007 1.412 . S
C1008 C1009 1.388 . S
C1008 C1034 1.490 . S
C1009 C1004 1.397 . S
C1009 C1008 1.388 . S
C1009 C1040 1.519 . S
C1010 C1004 1.492 . S
C1010 C1011 1.363 . S
C1010 C1015 1.390 . S
C1011 H976 0.930 . S
C1011 C1010 1.363 . S
C1011 C1012 1.372 . S
C1012 H977 0.930 . S
C1012 C1011 1.372 . S
C1012 C1013 1.383 . S
C1013 C1012 1.383 . S
C1013 C1014 1.395 . S
C1014 H978 0.930 . S
C1014 C1013 1.395 . S
C1014 C1015 1.362 . S
C1015 H979 0.930 . S
C1015 C1010 1.390 . S
C1015 C1014 1.362 . S
C1016 C1005 1.492 . S
C1016 C1017 1.377 . S
C1016 C1021 1.397 . S
C1017 H980 0.931 . S
C1017 C1016 1.377 . S
C1017 C1018 1.376 . S
C1018 H981 0.930 . S
C1018 C1017 1.376 . S
C1018 C1019 1.376 . S
C1019 C1018 1.376 . S
C1019 C1020 1.378 . S
C1019 C1046 1.486 . S
C1020 H982 0.930 . S
C1020 C1019 1.378 . S
C1020 C1021 1.376 . S
C1021 H983 0.929 . S
C1021 C1016 1.397 . S
C1021 C1020 1.376 . S
C1022 C1006 1.509 . S
C1022 C1023 1.391 . S
C1022 C1027 1.386 . S
C1023 H984 0.930 . S
C1023 C1022 1.391 . S
C1023 C1024 1.375 . S
C1024 H985 0.931 . S
C1024 C1023 1.375 . S
C1024 C1025 1.375 . S
C1025 C1024 1.375 . S
C1025 C1026 1.361 . S
C1026 H986 0.930 . S
C1026 C1025 1.361 . S
C1026 C1027 1.399 . S
C1027 H987 0.929 . S
C1027 C1022 1.386 . S
C1027 C1026 1.399 . S
C1028 C1007 1.485 . S
C1028 C1029 1.394 . S
C1028 C1033 1.360 . S
C1029 H988 0.931 . S
C1029 C1028 1.394 . S
C1029 C1030 1.372 . S
C1030 H989 0.930 . S
C1030 C1029 1.372 . S
C1030 C1031 1.397 . S
C1031 C1030 1.397 . S
C1031 C1032 1.390 . S
C1031 C1047 1.476 . S
C1032 H990 0.930 . S
C1032 C1031 1.390 . S
C1032 C1033 1.366 . S
C1033 H991 0.932 . S
C1033 C1028 1.360 . S
C1033 C1032 1.366 . S
C1034 C1008 1.490 . S
C1034 C1035 1.380 . S
C1034 C1039 1.386 . S
C1035 H992 0.930 . S
C1035 C1034 1.380 . S
C1035 C1036 1.381 . S
C1036 H993 0.929 . S
C1036 C1035 1.381 . S
C1036 C1037 1.371 . S
C1037 C1036 1.371 . S
C1037 C1038 1.380 . S
C1038 H994 0.931 . S
C1038 C1037 1.380 . S
C1038 C1039 1.387 . S
C1039 H995 0.930 . S
C1039 C1034 1.386 . S
C1039 C1038 1.387 . S
C1040 C1009 1.519 . S
C1040 C1041 1.377 . S
C1040 C1045 1.361 . S
C1041 H996 0.929 . S
C1041 C1040 1.377 . S
C1041 C1042 1.386 . S
C1042 H997 0.931 . S
C1042 C1041 1.386 . S
C1042 C1043 1.363 . S
C1043 C1042 1.363 . S
C1043 C1044 1.385 . S
C1044 H998 0.930 . S
C1044 C1043 1.385 . S
C1044 C1045 1.396 . S
C1045 H999 0.929 . S
C1045 C1040 1.361 . S
C1045 C1044 1.396 . S
C1046 O1000 1.300 . S
C1046 O1001 1.209 . S
C1046 C1019 1.486 . S
C1047 O1002 1.199 . S
C1047 O1003 1.297 . S
C1047 C1031 1.476 . S
H1048 O1074 0.856 . S
H1049 O1077 0.854 . S
H1050 C1085 0.930 . S
H1051 C1086 0.930 . S
H1052 C1088 0.930 . S
H1053 C1089 0.930 . S
H1054 C1091 0.931 . S
H1055 C1092 0.971 . S
H1056 C1094 0.930 . S
H1057 C1095 0.929 . S
H1058 C1097 0.930 . S
H1059 C1098 0.931 . S
H1060 C1100 0.930 . S
H1061 C1101 0.929 . S
H1062 C1103 0.931 . S
H1063 C1104 0.930 . S
H1064 C1106 0.930 . S
H1065 C1107 0.932 . S
H1066 C1109 0.930 . S
H1067 C1110 0.929 . S
H1068 C1112 0.931 . S
H1069 C1113 0.930 . S
H1070 C1115 0.929 . S
H1071 C1116 0.931 . S
H1072 C1118 0.930 . S
H1073 C1119 0.929 . S
O1074 H1048 0.856 . S
O1074 C1120 1.300 . S
O1075 C1120 1.209 . S
O1076 C1121 1.199 1_545 S
O1077 H1049 0.854 . S
O1077 C1121 1.297 . S
C1078 C1079 1.404 . S
C1078 C1083 1.413 . S
C1078 C1084 1.492 . S
C1079 C1078 1.404 . S
C1079 C1080 1.396 . S
C1079 C1090 1.492 . S
C1080 C1079 1.396 . S
C1080 C1081 1.397 . S
C1080 C1096 1.509 . S
C1081 C1080 1.397 . S
C1081 C1082 1.410 . S
C1081 C1102 1.485 . S
C1082 C1081 1.410 . S
C1082 C1083 1.369 . S
C1082 C1108 1.487 1_565 S
C1083 C1078 1.413 . S
C1083 C1082 1.369 . S
C1083 C1114 1.531 1_565 S
C1084 C1078 1.492 . S
C1084 C1085 1.363 1_565 S
C1084 C1089 1.390 . S
C1085 H1050 0.930 . S
C1085 C1084 1.363 1_545 S
C1085 C1086 1.372 . S
C1086 H1051 0.930 . S
C1086 C1085 1.372 . S
C1086 C1087 1.383 . S
C1087 C1086 1.383 . S
C1087 C1088 1.395 1_545 S
C1088 H1052 0.930 . S
C1088 C1087 1.395 1_565 S
C1088 C1089 1.362 . S
C1089 H1053 0.930 . S
C1089 C1084 1.390 . S
C1089 C1088 1.362 . S
C1090 C1079 1.492 . S
C1090 C1091 1.377 1_565 S
C1090 C1095 1.397 . S
C1091 H1054 0.931 . S
C1091 C1090 1.377 1_545 S
C1091 C1092 1.397 . S
C1092 H1055 0.971 . S
C1092 C1091 1.397 . S
C1092 C1093 1.316 1_545 S
C1093 C1092 1.316 1_565 S
C1093 C1094 1.378 . S
C1093 C1120 1.486 . S
C1094 H1056 0.930 . S
C1094 C1093 1.378 . S
C1094 C1095 1.376 . S
C1095 H1057 0.929 . S
C1095 C1090 1.397 . S
C1095 C1094 1.376 . S
C1096 C1080 1.509 . S
C1096 C1097 1.391 1_565 S
C1096 C1101 1.386 . S
C1097 H1058 0.930 . S
C1097 C1096 1.391 1_545 S
C1097 C1098 1.375 . S
C1098 H1059 0.931 . S
C1098 C1097 1.375 . S
C1098 C1099 1.375 1_545 S
C1099 C1098 1.375 1_565 S
C1099 C1100 1.361 . S
C1100 H1060 0.930 . S
C1100 C1099 1.361 . S
C1100 C1101 1.399 . S
C1101 H1061 0.929 . S
C1101 C1096 1.386 . S
C1101 C1100 1.399 . S
C1102 C1081 1.485 . S
C1102 C1103 1.394 1_565 S
C1102 C1107 1.360 . S
C1103 H1062 0.931 . S
C1103 C1102 1.394 1_545 S
C1103 C1104 1.372 . S
C1104 H1063 0.930 . S
C1104 C1103 1.372 . S
C1104 C1105 1.397 1_545 S
C1105 C1104 1.397 1_565 S
C1105 C1106 1.390 . S
C1105 C1121 1.476 . S
C1106 H1064 0.930 . S
C1106 C1105 1.390 . S
C1106 C1107 1.366 . S
C1107 H1065 0.932 . S
C1107 C1102 1.360 . S
C1107 C1106 1.366 . S
C1108 C1082 1.487 1_545 S
C1108 C1109 1.380 . S
C1108 C1113 1.386 1_545 S
C1109 H1066 0.930 . S
C1109 C1108 1.380 . S
C1109 C1110 1.381 . S
C1110 H1067 0.929 . S
C1110 C1109 1.381 . S
C1110 C1111 1.371 . S
C1111 C1110 1.371 . S
C1111 C1112 1.380 1_545 S
C1112 H1068 0.931 . S
C1112 C1111 1.380 1_565 S
C1112 C1113 1.387 . S
C1113 H1069 0.930 . S
C1113 C1108 1.386 1_565 S
C1113 C1112 1.387 . S
C1114 C1083 1.531 1_545 S
C1114 C1115 1.375 . S
C1114 C1119 1.365 1_545 S
C1115 H1070 0.929 . S
C1115 C1114 1.375 . S
C1115 C1116 1.386 . S
C1116 H1071 0.931 . S
C1116 C1115 1.386 . S
C1116 C1117 1.363 1_545 S
C1117 C1116 1.363 1_565 S
C1117 C1118 1.385 . S
C1118 H1072 0.930 . S
C1118 C1117 1.385 . S
C1118 C1119 1.396 . S
C1119 H1073 0.929 . S
C1119 C1114 1.365 1_565 S
C1119 C1118 1.396 . S
C1120 O1074 1.300 . S
C1120 O1075 1.209 . S
C1120 C1093 1.486 . S
C1121 O1076 1.199 1_565 S
C1121 O1077 1.297 . S
C1121 C1105 1.476 . S
H1122 O1148 0.856 . S
H1123 O1151 0.854 . S
H1124 C1159 0.930 . S
H1125 C1160 0.930 . S
H1126 C1162 0.930 . S
H1127 C1163 0.930 . S
H1128 C1165 0.931 . S
H1129 C1166 0.930 . S
H1130 C1168 0.930 . S
H1131 C1169 0.929 . S
H1132 C1171 0.930 . S
H1133 C1172 0.931 . S
H1134 C1174 0.930 . S
H1135 C1175 0.929 . S
H1136 C1177 0.931 . S
H1137 C1178 0.930 . S
H1138 C1180 0.930 . S
H1139 C1181 0.932 . S
H1140 C1183 0.930 . S
H1141 C1184 0.929 . S
H1142 C1186 0.931 . S
H1143 C1187 0.930 . S
H1144 C1189 0.929 . S
H1145 C1190 0.931 . S
H1146 C1192 0.930 . S
H1147 C1193 0.929 . S
O1148 H1122 0.856 . S
O1148 C1194 1.300 . S
O1149 C1194 1.209 1_565 S
O1150 C1195 1.199 1_545 S
O1151 H1123 0.854 . S
O1151 C1195 1.297 . S
C1152 C1153 1.404 . S
C1152 C1157 1.397 1_545 S
C1152 C1158 1.492 . S
C1153 C1152 1.404 . S
C1153 C1154 1.396 . S
C1153 C1164 1.492 . S
C1154 C1153 1.396 . S
C1154 C1155 1.395 1_545 S
C1154 C1170 1.532 . S
C1155 C1154 1.395 1_565 S
C1155 C1156 1.419 . S
C1155 C1176 1.491 . S
C1156 C1155 1.419 . S
C1156 C1157 1.371 . S
C1156 C1182 1.489 . S
C1157 C1152 1.397 1_565 S
C1157 C1156 1.371 . S
C1157 C1188 1.519 . S
C1158 C1152 1.492 . S
C1158 C1159 1.363 . S
C1158 C1163 1.390 1_545 S
C1159 H1124 0.930 . S
C1159 C1158 1.363 . S
C1159 C1160 1.372 . S
C1160 H1125 0.930 . S
C1160 C1159 1.372 . S
C1160 C1161 1.383 . S
C1161 C1160 1.383 . S
C1161 C1162 1.395 1_545 S
C1162 H1126 0.930 . S
C1162 C1161 1.395 1_565 S
C1162 C1163 1.362 . S
C1163 H1127 0.930 . S
C1163 C1158 1.390 1_565 S
C1163 C1162 1.362 . S
C1164 C1153 1.492 . S
C1164 C1165 1.377 . S
C1164 C1169 1.397 1_545 S
C1165 H1128 0.931 . S
C1165 C1164 1.377 . S
C1165 C1166 1.376 . S
C1166 H1129 0.930 . S
C1166 C1165 1.376 . S
C1166 C1167 1.376 . S
C1167 C1166 1.376 . S
C1167 C1168 1.378 1_545 S
C1167 C1194 1.486 . S
C1168 H1130 0.930 . S
C1168 C1167 1.378 1_565 S
C1168 C1169 1.376 . S
C1169 H1131 0.929 . S
C1169 C1164 1.397 1_565 S
C1169 C1168 1.376 . S
C1170 C1154 1.532 . S
C1170 C1171 1.421 . S
C1170 C1175 1.337 1_545 S
C1171 H1132 0.930 . S
C1171 C1170 1.421 . S
C1171 C1172 1.375 . S
C1172 H1133 0.931 . S
C1172 C1171 1.375 . S
C1172 C1173 1.412 . S
C1173 C1172 1.412 . S
C1173 C1174 1.342 1_545 S
C1174 H1134 0.930 . S
C1174 C1173 1.342 1_565 S
C1174 C1175 1.399 . S
C1175 H1135 0.929 . S
C1175 C1170 1.337 1_565 S
C1175 C1174 1.399 . S
C1176 C1155 1.491 . S
C1176 C1177 1.394 1_565 S
C1176 C1181 1.360 . S
C1177 H1136 0.931 . S
C1177 C1176 1.394 1_545 S
C1177 C1178 1.372 . S
C1178 H1137 0.930 . S
C1178 C1177 1.372 . S
C1178 C1179 1.397 1_545 S
C1179 C1178 1.397 1_565 S
C1179 C1180 1.390 . S
C1179 C1195 1.476 . S
C1180 H1138 0.930 . S
C1180 C1179 1.390 . S
C1180 C1181 1.366 . S
C1181 H1139 0.932 . S
C1181 C1176 1.360 . S
C1181 C1180 1.366 . S
C1182 C1156 1.489 . S
C1182 C1183 1.349 1_565 S
C1182 C1187 1.425 . S
C1183 H1140 0.930 . S
C1183 C1182 1.349 1_545 S
C1183 C1184 1.381 . S
C1184 H1141 0.929 . S
C1184 C1183 1.381 . S
C1184 C1185 1.398 . S
C1185 C1184 1.398 . S
C1185 C1186 1.358 1_545 S
C1186 H1142 0.931 . S
C1186 C1185 1.358 1_565 S
C1186 C1187 1.387 . S
C1187 H1143 0.930 . S
C1187 C1182 1.425 . S
C1187 C1186 1.387 . S
C1188 C1157 1.519 . S
C1188 C1189 1.377 1_565 S
C1188 C1193 1.361 . S
C1189 H1144 0.929 . S
C1189 C1188 1.377 1_545 S
C1189 C1190 1.386 . S
C1190 H1145 0.931 . S
C1190 C1189 1.386 . S
C1190 C1191 1.363 1_545 S
C1191 C1190 1.363 1_565 S
C1191 C1192 1.385 . S
C1192 H1146 0.930 . S
C1192 C1191 1.385 . S
C1192 C1193 1.396 . S
C1193 H1147 0.929 . S
C1193 C1188 1.361 . S
C1193 C1192 1.396 . S
C1194 O1148 1.300 . S
C1194 O1149 1.209 1_545 S
C1194 C1167 1.486 . S
C1195 O1150 1.199 1_565 S
C1195 O1151 1.297 . S
C1195 C1179 1.476 . S
H1196 O1222 0.856 . S
H1197 O1225 0.854 . S
H1198 C1233 0.930 . S
H1199 C1234 0.930 . S
H1200 C1236 0.930 . S
H1201 C1237 0.930 . S
H1202 C1239 0.931 . S
H1203 C1240 0.930 . S
H1204 C1242 0.930 . S
H1205 C1243 0.929 . S
H1206 C1245 0.930 . S
H1207 C1246 0.931 . S
H1208 C1248 0.930 . S
H1209 C1249 0.929 . S
H1210 C1251 0.931 . S
H1211 C1252 0.930 . S
H1212 C1254 0.930 . S
H1213 C1255 0.932 . S
H1214 C1257 0.930 . S
H1215 C1258 0.929 . S
H1216 C1260 0.931 . S
H1217 C1261 0.930 . S
H1218 C1263 0.929 . S
H1219 C1264 0.931 . S
H1220 C1266 0.930 . S
H1221 C1267 0.929 . S
O1222 H1196 0.856 . S
O1222 C1268 1.300 . S
O1223 C1268 1.209 1_455 S
O1224 C1269 1.199 1_655 S
O1225 H1197 0.854 . S
O1225 C1269 1.297 . S
C1226 C1227 1.404 . S
C1226 C1231 1.396 1_655 S
C1226 C1232 1.492 . S
C1227 C1226 1.404 . S
C1227 C1228 1.396 . S
C1227 C1238 1.492 . S
C1228 C1227 1.396 . S
C1228 C1229 1.397 . S
C1228 C1244 1.509 . S
C1229 C1228 1.397 . S
C1229 C1230 1.399 1_655 S
C1229 C1250 1.485 1_655 S
C1230 C1229 1.399 1_455 S
C1230 C1231 1.410 . S
C1230 C1256 1.485 . S
C1231 C1226 1.396 1_455 S
C1231 C1230 1.410 . S
C1231 C1262 1.516 . S
C1232 C1226 1.492 . S
C1232 C1233 1.363 . S
C1232 C1237 1.390 1_655 S
C1233 H1198 0.930 . S
C1233 C1232 1.363 . S
C1233 C1234 1.372 . S
C1234 H1199 0.930 . S
C1234 C1233 1.372 . S
C1234 C1235 1.383 . S
C1235 C1234 1.383 . S
C1235 C1236 1.395 1_655 S
C1236 H1200 0.930 . S
C1236 C1235 1.395 1_455 S
C1236 C1237 1.362 . S
C1237 H1201 0.930 . S
C1237 C1232 1.390 1_455 S
C1237 C1236 1.362 . S
C1238 C1227 1.492 . S
C1238 C1239 1.377 . S
C1238 C1243 1.397 1_655 S
C1239 H1202 0.931 . S
C1239 C1238 1.377 . S
C1239 C1240 1.376 . S
C1240 H1203 0.930 . S
C1240 C1239 1.376 . S
C1240 C1241 1.376 . S
C1241 C1240 1.376 . S
C1241 C1242 1.378 1_655 S
C1241 C1268 1.486 . S
C1242 H1204 0.930 . S
C1242 C1241 1.378 1_455 S
C1242 C1243 1.376 . S
C1243 H1205 0.929 . S
C1243 C1238 1.397 1_455 S
C1243 C1242 1.376 . S
C1244 C1228 1.509 . S
C1244 C1245 1.391 . S
C1244 C1249 1.386 1_655 S
C1245 H1206 0.930 . S
C1245 C1244 1.391 . S
C1245 C1246 1.375 . S
C1246 H1207 0.931 . S
C1246 C1245 1.375 . S
C1246 C1247 1.375 . S
C1247 C1246 1.375 . S
C1247 C1248 1.361 1_655 S
C1248 H1208 0.930 . S
C1248 C1247 1.361 1_455 S
C1248 C1249 1.399 . S
C1249 H1209 0.929 . S
C1249 C1244 1.386 1_455 S
C1249 C1248 1.399 . S
C1250 C1229 1.485 1_455 S
C1250 C1251 1.394 1_455 S
C1250 C1255 1.360 . S
C1251 H1210 0.931 . S
C1251 C1250 1.394 1_655 S
C1251 C1252 1.372 . S
C1252 H1211 0.930 . S
C1252 C1251 1.372 . S
C1252 C1253 1.397 1_655 S
C1253 C1252 1.397 1_455 S
C1253 C1254 1.390 . S
C1253 C1269 1.476 . S
C1254 H1212 0.930 . S
C1254 C1253 1.390 . S
C1254 C1255 1.366 . S
C1255 H1213 0.932 . S
C1255 C1250 1.360 . S
C1255 C1254 1.366 . S
C1256 C1230 1.485 . S
C1256 C1257 1.380 1_455 S
C1256 C1261 1.386 . S
C1257 H1214 0.930 . S
C1257 C1256 1.380 1_655 S
C1257 C1258 1.381 . S
C1258 H1215 0.929 . S
C1258 C1257 1.381 . S
C1258 C1259 1.371 1_655 S
C1259 C1258 1.371 1_455 S
C1259 C1260 1.380 . S
C1260 H1216 0.931 . S
C1260 C1259 1.380 . S
C1260 C1261 1.387 . S
C1261 H1217 0.930 . S
C1261 C1256 1.386 . S
C1261 C1260 1.387 . S
C1262 C1231 1.516 . S
C1262 C1263 1.377 1_455 S
C1262 C1267 1.361 . S
C1263 H1218 0.929 . S
C1263 C1262 1.377 1_655 S
C1263 C1264 1.386 . S
C1264 H1219 0.931 . S
C1264 C1263 1.386 . S
C1264 C1265 1.363 1_655 S
C1265 C1264 1.363 1_455 S
C1265 C1266 1.385 . S
C1266 H1220 0.930 . S
C1266 C1265 1.385 . S
C1266 C1267 1.396 . S
C1267 H1221 0.929 . S
C1267 C1262 1.361 . S
C1267 C1266 1.396 . S
C1268 O1222 1.300 . S
C1268 O1223 1.209 1_655 S
C1268 C1241 1.486 . S
C1269 O1224 1.199 1_455 S
C1269 O1225 1.297 . S
C1269 C1253 1.476 . S
H1270 O1296 0.856 . S
H1271 O1299 0.854 . S
H1272 C1307 0.930 . S
H1273 C1308 0.930 . S
H1274 C1310 0.930 . S
H1275 C1311 0.930 . S
H1276 C1313 0.931 . S
H1277 C1314 0.930 . S
H1278 C1316 0.930 . S
H1279 C1317 0.929 . S
H1280 C1319 0.930 . S
H1281 C1320 0.931 . S
H1282 C1322 0.930 . S
H1283 C1323 0.929 . S
H1284 C1325 0.931 . S
H1285 C1326 0.930 . S
H1286 C1328 0.930 . S
H1287 C1329 0.932 . S
H1288 C1331 0.930 . S
H1289 C1332 0.929 . S
H1290 C1334 0.931 . S
H1291 C1335 0.930 . S
H1292 C1337 0.929 . S
H1293 C1338 0.931 . S
H1294 C1340 0.930 . S
H1295 C1341 0.929 . S
O1296 H1270 0.856 . S
O1296 C1342 1.300 . S
O1297 C1342 1.209 . S
O1298 C1343 1.199 . S
O1299 H1271 0.854 . S
O1299 C1343 1.297 . S
C1300 C1301 1.404 . S
C1300 C1305 1.397 . S
C1300 C1306 1.492 . S
C1301 C1300 1.404 . S
C1301 C1302 1.396 . S
C1301 C1312 1.492 . S
C1302 C1301 1.396 . S
C1302 C1303 1.397 . S
C1302 C1318 1.509 . S
C1303 C1302 1.397 . S
C1303 C1304 1.412 . S
C1303 C1324 1.485 . S
C1304 C1303 1.412 . S
C1304 C1305 1.388 . S
C1304 C1330 1.490 . S
C1305 C1300 1.397 . S
C1305 C1304 1.388 . S
C1305 C1336 1.519 . S
C1306 C1300 1.492 . S
C1306 C1307 1.363 . S
C1306 C1311 1.390 . S
C1307 H1272 0.930 . S
C1307 C1306 1.363 . S
C1307 C1308 1.372 . S
C1308 H1273 0.930 . S
C1308 C1307 1.372 . S
C1308 C1309 1.383 . S
C1309 C1308 1.383 . S
C1309 C1310 1.395 . S
C1310 H1274 0.930 . S
C1310 C1309 1.395 . S
C1310 C1311 1.362 . S
C1311 H1275 0.930 . S
C1311 C1306 1.390 . S
C1311 C1310 1.362 . S
C1312 C1301 1.492 . S
C1312 C1313 1.377 . S
C1312 C1317 1.397 . S
C1313 H1276 0.931 . S
C1313 C1312 1.377 . S
C1313 C1314 1.376 . S
C1314 H1277 0.930 . S
C1314 C1313 1.376 . S
C1314 C1315 1.376 . S
C1315 C1314 1.376 . S
C1315 C1316 1.378 . S
C1315 C1342 1.486 . S
C1316 H1278 0.930 . S
C1316 C1315 1.378 . S
C1316 C1317 1.376 . S
C1317 H1279 0.929 . S
C1317 C1312 1.397 . S
C1317 C1316 1.376 . S
C1318 C1302 1.509 . S
C1318 C1319 1.391 . S
C1318 C1323 1.386 . S
C1319 H1280 0.930 . S
C1319 C1318 1.391 . S
C1319 C1320 1.375 . S
C1320 H1281 0.931 . S
C1320 C1319 1.375 . S
C1320 C1321 1.375 . S
C1321 C1320 1.375 . S
C1321 C1322 1.361 . S
C1322 H1282 0.930 . S
C1322 C1321 1.361 . S
C1322 C1323 1.399 . S
C1323 H1283 0.929 . S
C1323 C1318 1.386 . S
C1323 C1322 1.399 . S
C1324 C1303 1.485 . S
C1324 C1325 1.394 . S
C1324 C1329 1.360 . S
C1325 H1284 0.931 . S
C1325 C1324 1.394 . S
C1325 C1326 1.372 . S
C1326 H1285 0.930 . S
C1326 C1325 1.372 . S
C1326 C1327 1.397 . S
C1327 C1326 1.397 . S
C1327 C1328 1.390 . S
C1327 C1343 1.476 . S
C1328 H1286 0.930 . S
C1328 C1327 1.390 . S
C1328 C1329 1.366 . S
C1329 H1287 0.932 . S
C1329 C1324 1.360 . S
C1329 C1328 1.366 . S
C1330 C1304 1.490 . S
C1330 C1331 1.380 . S
C1330 C1335 1.386 . S
C1331 H1288 0.930 . S
C1331 C1330 1.380 . S
C1331 C1332 1.381 . S
C1332 H1289 0.929 . S
C1332 C1331 1.381 . S
C1332 C1333 1.371 . S
C1333 C1332 1.371 . S
C1333 C1334 1.380 . S
C1334 H1290 0.931 . S
C1334 C1333 1.380 . S
C1334 C1335 1.387 . S
C1335 H1291 0.930 . S
C1335 C1330 1.386 . S
C1335 C1334 1.387 . S
C1336 C1305 1.519 . S
C1336 C1337 1.377 . S
C1336 C1341 1.361 . S
C1337 H1292 0.929 . S
C1337 C1336 1.377 . S
C1337 C1338 1.386 . S
C1338 H1293 0.931 . S
C1338 C1337 1.386 . S
C1338 C1339 1.363 . S
C1339 C1338 1.363 . S
C1339 C1340 1.385 . S
C1340 H1294 0.930 . S
C1340 C1339 1.385 . S
C1340 C1341 1.396 . S
C1341 H1295 0.929 . S
C1341 C1336 1.361 . S
C1341 C1340 1.396 . S
C1342 O1296 1.300 . S
C1342 O1297 1.209 . S
C1342 C1315 1.486 . S
C1343 O1298 1.199 . S
C1343 O1299 1.297 . S
C1343 C1327 1.476 . S
H1344 O1370 0.856 . S
H1345 O1373 0.854 . S
H1346 C1381 0.930 . S
H1347 C1382 0.930 . S
H1348 C1384 0.930 . S
H1349 C1385 0.930 . S
H1350 C1387 0.931 . S
H1351 C1388 0.930 . S
H1352 C1390 0.930 . S
H1353 C1391 0.929 . S
H1354 C1393 0.930 . S
H1355 C1394 0.931 . S
H1356 C1396 0.930 . S
H1357 C1397 0.929 . S
H1358 C1399 0.931 . S
H1359 C1400 0.930 . S
H1360 C1402 0.930 . S
H1361 C1403 0.932 . S
H1362 C1405 0.930 . S
H1363 C1406 0.929 . S
H1364 C1408 0.931 . S
H1365 C1409 0.930 . S
H1366 C1411 0.929 . S
H1367 C1412 0.931 . S
H1368 C1414 0.930 . S
H1369 C1415 0.929 . S
O1370 H1344 0.856 . S
O1370 C1416 1.300 . S
O1371 C1416 1.209 . S
O1372 C1417 1.199 . S
O1373 H1345 0.854 . S
O1373 C1417 1.297 . S
C1374 C1375 1.404 . S
C1374 C1379 1.397 . S
C1374 C1380 1.492 . S
C1375 C1374 1.404 . S
C1375 C1376 1.396 . S
C1375 C1386 1.492 . S
C1376 C1375 1.396 . S
C1376 C1377 1.397 . S
C1376 C1392 1.509 . S
C1377 C1376 1.397 . S
C1377 C1378 1.412 . S
C1377 C1398 1.485 . S
C1378 C1377 1.412 . S
C1378 C1379 1.388 . S
C1378 C1404 1.490 . S
C1379 C1374 1.397 . S
C1379 C1378 1.388 . S
C1379 C1410 1.519 . S
C1380 C1374 1.492 . S
C1380 C1381 1.363 . S
C1380 C1385 1.390 . S
C1381 H1346 0.930 . S
C1381 C1380 1.363 . S
C1381 C1382 1.372 . S
C1382 H1347 0.930 . S
C1382 C1381 1.372 . S
C1382 C1383 1.383 . S
C1383 C1382 1.383 . S
C1383 C1384 1.395 . S
C1384 H1348 0.930 . S
C1384 C1383 1.395 . S
C1384 C1385 1.362 . S
C1385 H1349 0.930 . S
C1385 C1380 1.390 . S
C1385 C1384 1.362 . S
C1386 C1375 1.492 . S
C1386 C1387 1.377 . S
C1386 C1391 1.397 . S
C1387 H1350 0.931 . S
C1387 C1386 1.377 . S
C1387 C1388 1.376 . S
C1388 H1351 0.930 . S
C1388 C1387 1.376 . S
C1388 C1389 1.376 . S
C1389 C1388 1.376 . S
C1389 C1390 1.378 . S
C1389 C1416 1.486 . S
C1390 H1352 0.930 . S
C1390 C1389 1.378 . S
C1390 C1391 1.376 . S
C1391 H1353 0.929 . S
C1391 C1386 1.397 . S
C1391 C1390 1.376 . S
C1392 C1376 1.509 . S
C1392 C1393 1.391 . S
C1392 C1397 1.386 . S
C1393 H1354 0.930 . S
C1393 C1392 1.391 . S
C1393 C1394 1.375 . S
C1394 H1355 0.931 . S
C1394 C1393 1.375 . S
C1394 C1395 1.375 . S
C1395 C1394 1.375 . S
C1395 C1396 1.361 . S
C1396 H1356 0.930 . S
C1396 C1395 1.361 . S
C1396 C1397 1.399 . S
C1397 H1357 0.929 . S
C1397 C1392 1.386 . S
C1397 C1396 1.399 . S
C1398 C1377 1.485 . S
C1398 C1399 1.394 . S
C1398 C1403 1.360 . S
C1399 H1358 0.931 . S
C1399 C1398 1.394 . S
C1399 C1400 1.372 . S
C1400 H1359 0.930 . S
C1400 C1399 1.372 . S
C1400 C1401 1.397 . S
C1401 C1400 1.397 . S
C1401 C1402 1.390 . S
C1401 C1417 1.476 . S
C1402 H1360 0.930 . S
C1402 C1401 1.390 . S
C1402 C1403 1.366 . S
C1403 H1361 0.932 . S
C1403 C1398 1.360 . S
C1403 C1402 1.366 . S
C1404 C1378 1.490 . S
C1404 C1405 1.380 . S
C1404 C1409 1.386 . S
C1405 H1362 0.930 . S
C1405 C1404 1.380 . S
C1405 C1406 1.381 . S
C1406 H1363 0.929 . S
C1406 C1405 1.381 . S
C1406 C1407 1.371 . S
C1407 C1406 1.371 . S
C1407 C1408 1.380 . S
C1408 H1364 0.931 . S
C1408 C1407 1.380 . S
C1408 C1409 1.387 . S
C1409 H1365 0.930 . S
C1409 C1404 1.386 . S
C1409 C1408 1.387 . S
C1410 C1379 1.519 . S
C1410 C1411 1.377 . S
C1410 C1415 1.361 . S
C1411 H1366 0.929 . S
C1411 C1410 1.377 . S
C1411 C1412 1.386 . S
C1412 H1367 0.931 . S
C1412 C1411 1.386 . S
C1412 C1413 1.363 . S
C1413 C1412 1.363 . S
C1413 C1414 1.385 . S
C1414 H1368 0.930 . S
C1414 C1413 1.385 . S
C1414 C1415 1.396 . S
C1415 H1369 0.929 . S
C1415 C1410 1.361 . S
C1415 C1414 1.396 . S
C1416 O1370 1.300 . S
C1416 O1371 1.209 . S
C1416 C1389 1.486 . S
C1417 O1372 1.199 . S
C1417 O1373 1.297 . S
C1417 C1401 1.476 . S
H1418 O1444 0.856 . S
H1419 O1447 0.854 . S
H1420 C1455 0.930 . S
H1421 C1456 0.930 . S
H1422 C1458 0.930 . S
H1423 C1459 0.930 . S
H1424 C1461 0.931 . S
H1425 C1462 0.930 . S
H1426 C1464 0.930 . S
H1427 C1465 0.929 . S
H1428 C1467 0.930 . S
H1429 C1468 0.931 . S
H1430 C1470 0.930 . S
H1431 C1471 0.929 . S
H1432 C1473 0.931 . S
H1433 C1474 0.930 . S
H1434 C1476 0.930 . S
H1435 C1477 0.932 . S
H1436 C1479 0.930 . S
H1437 C1480 0.929 . S
H1438 C1482 0.931 . S
H1439 C1483 0.930 . S
H1440 C1485 0.929 . S
H1441 C1486 0.931 . S
H1442 C1488 0.930 . S
H1443 C1489 0.929 . S
O1444 H1418 0.856 . S
O1444 C1490 1.300 . S
O1445 C1490 1.209 . S
O1446 C1491 1.199 . S
O1447 H1419 0.854 . S
O1447 C1491 1.297 . S
C1448 C1449 1.404 . S
C1448 C1453 1.397 . S
C1448 C1454 1.492 . S
C1449 C1448 1.404 . S
C1449 C1450 1.396 . S
C1449 C1460 1.492 . S
C1450 C1449 1.396 . S
C1450 C1451 1.397 . S
C1450 C1466 1.509 . S
C1451 C1450 1.397 . S
C1451 C1452 1.412 . S
C1451 C1472 1.485 . S
C1452 C1451 1.412 . S
C1452 C1453 1.388 . S
C1452 C1478 1.490 . S
C1453 C1448 1.397 . S
C1453 C1452 1.388 . S
C1453 C1484 1.519 . S
C1454 C1448 1.492 . S
C1454 C1455 1.363 . S
C1454 C1459 1.390 . S
C1455 H1420 0.930 . S
C1455 C1454 1.363 . S
C1455 C1456 1.372 . S
C1456 H1421 0.930 . S
C1456 C1455 1.372 . S
C1456 C1457 1.383 . S
C1457 C1456 1.383 . S
C1457 C1458 1.395 . S
C1458 H1422 0.930 . S
C1458 C1457 1.395 . S
C1458 C1459 1.362 . S
C1459 H1423 0.930 . S
C1459 C1454 1.390 . S
C1459 C1458 1.362 . S
C1460 C1449 1.492 . S
C1460 C1461 1.377 . S
C1460 C1465 1.397 . S
C1461 H1424 0.931 . S
C1461 C1460 1.377 . S
C1461 C1462 1.376 . S
C1462 H1425 0.930 . S
C1462 C1461 1.376 . S
C1462 C1463 1.376 . S
C1463 C1462 1.376 . S
C1463 C1464 1.378 . S
C1463 C1490 1.486 . S
C1464 H1426 0.930 . S
C1464 C1463 1.378 . S
C1464 C1465 1.376 . S
C1465 H1427 0.929 . S
C1465 C1460 1.397 . S
C1465 C1464 1.376 . S
C1466 C1450 1.509 . S
C1466 C1467 1.391 . S
C1466 C1471 1.386 . S
C1467 H1428 0.930 . S
C1467 C1466 1.391 . S
C1467 C1468 1.375 . S
C1468 H1429 0.931 . S
C1468 C1467 1.375 . S
C1468 C1469 1.375 . S
C1469 C1468 1.375 . S
C1469 C1470 1.361 . S
C1470 H1430 0.930 . S
C1470 C1469 1.361 . S
C1470 C1471 1.399 . S
C1471 H1431 0.929 . S
C1471 C1466 1.386 . S
C1471 C1470 1.399 . S
C1472 C1451 1.485 . S
C1472 C1473 1.394 . S
C1472 C1477 1.360 . S
C1473 H1432 0.931 . S
C1473 C1472 1.394 . S
C1473 C1474 1.372 . S
C1474 H1433 0.930 . S
C1474 C1473 1.372 . S
C1474 C1475 1.397 . S
C1475 C1474 1.397 . S
C1475 C1476 1.390 . S
C1475 C1491 1.476 . S
C1476 H1434 0.930 . S
C1476 C1475 1.390 . S
C1476 C1477 1.366 . S
C1477 H1435 0.932 . S
C1477 C1472 1.360 . S
C1477 C1476 1.366 . S
C1478 C1452 1.490 . S
C1478 C1479 1.380 . S
C1478 C1483 1.386 . S
C1479 H1436 0.930 . S
C1479 C1478 1.380 . S
C1479 C1480 1.381 . S
C1480 H1437 0.929 . S
C1480 C1479 1.381 . S
C1480 C1481 1.371 . S
C1481 C1480 1.371 . S
C1481 C1482 1.380 . S
C1482 H1438 0.931 . S
C1482 C1481 1.380 . S
C1482 C1483 1.387 . S
C1483 H1439 0.930 . S
C1483 C1478 1.386 . S
C1483 C1482 1.387 . S
C1484 C1453 1.519 . S
C1484 C1485 1.377 . S
C1484 C1489 1.361 . S
C1485 H1440 0.929 . S
C1485 C1484 1.377 . S
C1485 C1486 1.386 . S
C1486 H1441 0.931 . S
C1486 C1485 1.386 . S
C1486 C1487 1.363 . S
C1487 C1486 1.363 . S
C1487 C1488 1.385 . S
C1488 H1442 0.930 . S
C1488 C1487 1.385 . S
C1488 C1489 1.396 . S
C1489 H1443 0.929 . S
C1489 C1484 1.361 . S
C1489 C1488 1.396 . S
C1490 O1444 1.300 . S
C1490 O1445 1.209 . S
C1490 C1463 1.486 . S
C1491 O1446 1.199 . S
C1491 O1447 1.297 . S
C1491 C1475 1.476 . S
H1492 O1518 0.856 . S
H1493 O1521 0.854 . S
H1494 C1529 0.930 . S
H1495 C1530 0.930 . S
H1496 C1532 0.930 . S
H1497 C1533 0.930 . S
H1498 C1535 0.931 . S
H1499 C1536 0.930 . S
H1500 C1538 0.930 . S
H1501 C1539 0.929 . S
H1502 C1541 0.930 . S
H1503 C1542 0.931 . S
H1504 C1544 0.930 . S
H1505 C1545 0.929 . S
H1506 C1547 0.931 . S
H1507 C1548 0.930 . S
H1508 C1550 0.930 . S
H1509 C1551 0.932 . S
H1510 C1553 0.930 . S
H1511 C1554 0.929 . S
H1512 C1556 0.931 . S
H1513 C1557 0.930 . S
H1514 C1559 0.929 . S
H1515 C1560 0.931 . S
H1516 C1562 0.930 . S
H1517 C1563 0.929 . S
O1518 H1492 0.856 . S
O1518 C1564 1.300 . S
O1519 C1564 1.209 . S
O1520 C1565 1.199 . S
O1521 H1493 0.854 . S
O1521 C1565 1.297 . S
C1522 C1523 1.404 . S
C1522 C1527 1.397 . S
C1522 C1528 1.492 . S
C1523 C1522 1.404 . S
C1523 C1524 1.396 . S
C1523 C1534 1.492 . S
C1524 C1523 1.396 . S
C1524 C1525 1.397 . S
C1524 C1540 1.509 . S
C1525 C1524 1.397 . S
C1525 C1526 1.412 . S
C1525 C1546 1.485 . S
C1526 C1525 1.412 . S
C1526 C1527 1.388 . S
C1526 C1552 1.490 . S
C1527 C1522 1.397 . S
C1527 C1526 1.388 . S
C1527 C1558 1.519 . S
C1528 C1522 1.492 . S
C1528 C1529 1.363 . S
C1528 C1533 1.390 . S
C1529 H1494 0.930 . S
C1529 C1528 1.363 . S
C1529 C1530 1.372 . S
C1530 H1495 0.930 . S
C1530 C1529 1.372 . S
C1530 C1531 1.383 . S
C1531 C1530 1.383 . S
C1531 C1532 1.395 . S
C1532 H1496 0.930 . S
C1532 C1531 1.395 . S
C1532 C1533 1.362 . S
C1533 H1497 0.930 . S
C1533 C1528 1.390 . S
C1533 C1532 1.362 . S
C1534 C1523 1.492 . S
C1534 C1535 1.377 . S
C1534 C1539 1.397 . S
C1535 H1498 0.931 . S
C1535 C1534 1.377 . S
C1535 C1536 1.376 . S
C1536 H1499 0.930 . S
C1536 C1535 1.376 . S
C1536 C1537 1.376 . S
C1537 C1536 1.376 . S
C1537 C1538 1.378 . S
C1537 C1564 1.486 . S
C1538 H1500 0.930 . S
C1538 C1537 1.378 . S
C1538 C1539 1.376 . S
C1539 H1501 0.929 . S
C1539 C1534 1.397 . S
C1539 C1538 1.376 . S
C1540 C1524 1.509 . S
C1540 C1541 1.391 . S
C1540 C1545 1.386 . S
C1541 H1502 0.930 . S
C1541 C1540 1.391 . S
C1541 C1542 1.375 . S
C1542 H1503 0.931 . S
C1542 C1541 1.375 . S
C1542 C1543 1.375 . S
C1543 C1542 1.375 . S
C1543 C1544 1.361 . S
C1544 H1504 0.930 . S
C1544 C1543 1.361 . S
C1544 C1545 1.399 . S
C1545 H1505 0.929 . S
C1545 C1540 1.386 . S
C1545 C1544 1.399 . S
C1546 C1525 1.485 . S
C1546 C1547 1.394 . S
C1546 C1551 1.360 . S
C1547 H1506 0.931 . S
C1547 C1546 1.394 . S
C1547 C1548 1.372 . S
C1548 H1507 0.930 . S
C1548 C1547 1.372 . S
C1548 C1549 1.397 . S
C1549 C1548 1.397 . S
C1549 C1550 1.390 . S
C1549 C1565 1.476 . S
C1550 H1508 0.930 . S
C1550 C1549 1.390 . S
C1550 C1551 1.366 . S
C1551 H1509 0.932 . S
C1551 C1546 1.360 . S
C1551 C1550 1.366 . S
C1552 C1526 1.490 . S
C1552 C1553 1.380 . S
C1552 C1557 1.386 . S
C1553 H1510 0.930 . S
C1553 C1552 1.380 . S
C1553 C1554 1.381 . S
C1554 H1511 0.929 . S
C1554 C1553 1.381 . S
C1554 C1555 1.371 . S
C1555 C1554 1.371 . S
C1555 C1556 1.380 . S
C1556 H1512 0.931 . S
C1556 C1555 1.380 . S
C1556 C1557 1.387 . S
C1557 H1513 0.930 . S
C1557 C1552 1.386 . S
C1557 C1556 1.387 . S
C1558 C1527 1.519 . S
C1558 C1559 1.377 . S
C1558 C1563 1.361 . S
C1559 H1514 0.929 . S
C1559 C1558 1.377 . S
C1559 C1560 1.386 . S
C1560 H1515 0.931 . S
C1560 C1559 1.386 . S
C1560 C1561 1.363 . S
C1561 C1560 1.363 . S
C1561 C1562 1.385 . S
C1562 H1516 0.930 . S
C1562 C1561 1.385 . S
C1562 C1563 1.396 . S
C1563 H1517 0.929 . S
C1563 C1558 1.361 . S
C1563 C1562 1.396 . S
C1564 O1518 1.300 . S
C1564 O1519 1.209 . S
C1564 C1537 1.486 . S
C1565 O1520 1.199 . S
C1565 O1521 1.297 . S
C1565 C1549 1.476 . S
H1566 C1572 0.930 . S
H1567 C1576 0.930 . S
H1568 C1581 0.929 . S
H1569 C1579 0.929 . S
H1570 C1574 0.929 . S
H1571 C1580 0.929 . S
C1572 H1566 0.930 . S
C1572 C1573 1.367 1_455 S
C1572 C1580 1.378 . S
C1573 C1572 1.367 1_655 S
C1573 C1581 1.433 . S
C1574 H1570 0.929 . S
C1574 C1576 1.378 . S
C1574 C1578 1.350 . S
C1575 C1578 1.463 . S
C1575 C1580 1.350 1_655 S
C1575 N1583 1.427 . S
C1576 H1567 0.930 . S
C1576 C1574 1.378 . S
C1576 C1577 1.367 . S
C1577 C1576 1.367 . S
C1577 C1579 1.433 . S
C1578 C1574 1.350 . S
C1578 C1575 1.463 . S
C1578 N1582 1.427 . S
C1579 H1569 0.929 . S
C1579 C1577 1.433 . S
C1579 N1582 1.384 . S
C1580 H1571 0.929 . S
C1580 C1572 1.378 . S
C1580 C1575 1.350 1_455 S
C1581 H1568 0.929 . S
C1581 C1573 1.433 . S
C1581 N1583 1.384 . S
N1582 C1578 1.427 . S
N1582 C1579 1.384 . S
N1583 C1575 1.427 . S
N1583 C1581 1.384 . S
H1584 C1590 0.930 . S
H1585 C1594 0.930 . S
H1586 C1599 0.929 . S
H1587 C1597 0.929 . S
H1588 C1592 0.929 . S
H1589 C1598 0.929 . S
C1590 H1584 0.930 . S
C1590 C1591 1.367 . S
C1590 C1598 1.378 . S
C1591 C1590 1.367 . S
C1591 C1599 1.433 . S
C1592 H1588 0.929 . S
C1592 C1594 1.378 . S
C1592 C1596 1.350 . S
C1593 C1596 1.463 . S
C1593 C1598 1.350 . S
C1593 N1601 1.427 . S
C1594 H1585 0.930 . S
C1594 C1592 1.378 . S
C1594 C1595 1.367 . S
C1595 C1594 1.367 . S
C1595 C1597 1.433 . S
C1596 C1592 1.350 . S
C1596 C1593 1.463 . S
C1596 N1600 1.427 . S
C1597 H1587 0.929 . S
C1597 C1595 1.433 . S
C1597 N1600 1.384 . S
C1598 H1589 0.929 . S
C1598 C1590 1.378 . S
C1598 C1593 1.350 . S
C1599 H1586 0.929 . S
C1599 C1591 1.433 . S
C1599 N1601 1.384 . S
N1600 C1596 1.427 . S
N1600 C1597 1.384 . S
N1601 C1593 1.427 . S
N1601 C1599 1.384 . S
H1602 C1608 0.930 . S
H1603 C1612 0.930 . S
H1604 C1617 0.929 1_565 S
H1605 C1615 0.929 . S
H1606 C1610 0.929 . S
H1607 C1616 0.929 . S
C1608 H1602 0.930 . S
C1608 C1609 1.367 . S
C1608 C1616 1.378 . S
C1609 C1608 1.367 . S
C1609 C1617 1.433 . S
C1610 H1606 0.929 . S
C1610 C1612 1.378 . S
C1610 C1614 1.350 . S
C1611 C1614 1.463 . S
C1611 C1616 1.350 . S
C1611 N1619 1.427 . S
C1612 H1603 0.930 . S
C1612 C1610 1.378 . S
C1612 C1613 1.367 . S
C1613 C1612 1.367 . S
C1613 C1615 1.433 . S
C1614 C1610 1.350 . S
C1614 C1611 1.463 . S
C1614 N1618 1.427 . S
C1615 H1605 0.929 . S
C1615 C1613 1.433 . S
C1615 N1618 1.384 . S
C1616 H1607 0.929 . S
C1616 C1608 1.378 . S
C1616 C1611 1.350 . S
C1617 H1604 0.929 1_545 S
C1617 C1609 1.433 . S
C1617 N1619 1.384 . S
N1618 C1614 1.427 . S
N1618 C1615 1.384 . S
N1619 C1611 1.427 . S
N1619 C1617 1.384 . S
H1620 C1626 0.930 . S
H1621 C1630 0.930 . S
H1622 C1635 0.929 . S
H1623 C1633 0.929 . S
H1624 C1628 0.929 . S
H1625 C1634 0.929 . S
C1626 H1620 0.930 . S
C1626 C1627 1.367 . S
C1626 C1634 1.378 . S
C1627 C1626 1.367 . S
C1627 C1635 1.433 1_565 S
C1628 H1624 0.929 . S
C1628 C1630 1.378 . S
C1628 C1632 1.350 1_545 S
C1629 C1632 1.463 . S
C1629 C1634 1.350 . S
C1629 N1637 1.427 1_565 S
C1630 H1621 0.930 . S
C1630 C1628 1.378 . S
C1630 C1631 1.367 1_545 S
C1631 C1630 1.367 1_565 S
C1631 C1633 1.433 . S
C1632 C1628 1.350 1_565 S
C1632 C1629 1.463 . S
C1632 N1636 1.427 . S
C1633 H1623 0.929 . S
C1633 C1631 1.433 . S
C1633 N1636 1.384 . S
C1634 H1625 0.929 . S
C1634 C1626 1.378 . S
C1634 C1629 1.350 . S
C1635 H1622 0.929 . S
C1635 C1627 1.433 1_545 S
C1635 N1637 1.384 . S
N1636 C1632 1.427 . S
N1636 C1633 1.384 . S
N1637 C1629 1.427 1_545 S
N1637 C1635 1.384 . S
H1638 C1644 0.930 . S
H1639 C1648 0.930 . S
H1640 C1653 0.929 . S
H1641 C1651 0.929 . S
H1642 C1646 0.929 . S
H1643 C1652 0.929 . S
C1644 H1638 0.930 . S
C1644 C1645 1.367 . S
C1644 C1652 1.378 . S
C1645 C1644 1.367 . S
C1645 C1653 1.433 1_455 S
C1646 H1642 0.929 . S
C1646 C1648 1.378 . S
C1646 C1650 1.350 1_655 S
C1647 C1650 1.463 . S
C1647 C1652 1.350 . S
C1647 N1655 1.427 1_455 S
C1648 H1639 0.930 . S
C1648 C1646 1.378 . S
C1648 C1649 1.367 1_655 S
C1649 C1648 1.367 1_455 S
C1649 C1651 1.433 . S
C1650 C1646 1.350 1_455 S
C1650 C1647 1.463 . S
C1650 N1654 1.427 . S
C1651 H1641 0.929 . S
C1651 C1649 1.433 . S
C1651 N1654 1.384 . S
C1652 H1643 0.929 . S
C1652 C1644 1.378 . S
C1652 C1647 1.350 . S
C1653 H1640 0.929 . S
C1653 C1645 1.433 1_655 S
C1653 N1655 1.384 . S
N1654 C1650 1.427 . S
N1654 C1651 1.384 . S
N1655 C1647 1.427 1_655 S
N1655 C1653 1.384 . S
H1656 C1662 0.930 . S
H1657 C1666 0.930 . S
H1658 C1671 0.929 . S
H1659 C1669 0.929 . S
H1660 C1664 0.929 . S
H1661 C1670 0.929 . S
C1662 H1656 0.930 . S
C1662 C1663 1.367 1_556 S
C1662 C1670 1.378 . S
C1663 C1662 1.367 1_554 S
C1663 C1671 1.433 . S
C1664 H1660 0.929 . S
C1664 C1666 1.378 . S
C1664 C1668 1.350 . S
C1665 C1668 1.463 . S
C1665 C1670 1.350 . S
C1665 N1673 1.427 . S
C1666 H1657 0.930 . S
C1666 C1664 1.378 . S
C1666 C1667 1.367 . S
C1667 C1666 1.367 . S
C1667 C1669 1.433 . S
C1668 C1664 1.350 . S
C1668 C1665 1.463 . S
C1668 N1672 1.427 . S
C1669 H1659 0.929 . S
C1669 C1667 1.433 . S
C1669 N1672 1.384 . S
C1670 H1661 0.929 . S
C1670 C1662 1.378 . S
C1670 C1665 1.350 . S
C1671 H1658 0.929 . S
C1671 C1663 1.433 . S
C1671 N1673 1.384 1_554 S
N1672 C1668 1.427 . S
N1672 C1669 1.384 . S
N1673 C1665 1.427 . S
N1673 C1671 1.384 1_556 S
H1674 C1680 0.930 . S
H1675 C1684 0.930 . S
H1676 C1689 0.929 . S
H1677 C1687 0.929 . S
H1678 C1682 0.929 . S
H1679 C1688 0.929 . S
C1680 H1674 0.930 . S
C1680 C1681 1.341 1_655 S
C1680 C1688 1.378 . S
C1681 C1680 1.341 1_455 S
C1681 C1689 1.488 . S
C1682 H1678 0.929 . S
C1682 C1684 1.378 . S
C1682 C1686 1.350 . S
C1683 C1686 1.483 . S
C1683 C1688 1.314 1_455 S
C1683 N1691 1.447 . S
C1684 H1675 0.930 . S
C1684 C1682 1.378 . S
C1684 C1685 1.367 . S
C1685 C1684 1.367 . S
C1685 C1687 1.433 1_455 S
C1686 C1682 1.350 . S
C1686 C1683 1.483 . S
C1686 N1690 1.427 1_455 S
C1687 H1677 0.929 . S
C1687 C1685 1.433 1_655 S
C1687 N1690 1.384 . S
C1688 H1679 0.929 . S
C1688 C1680 1.378 . S
C1688 C1683 1.314 1_655 S
C1689 H1676 0.929 . S
C1689 C1681 1.488 . S
C1689 N1691 1.384 . S
N1690 C1686 1.427 1_655 S
N1690 C1687 1.384 . S
N1691 C1683 1.447 . S
N1691 C1689 1.384 . S
H1692 C1698 0.930 . S
H1693 C1702 0.930 . S
H1694 C1707 0.929 . S
H1695 C1705 0.929 . S
H1696 C1700 0.929 . S
H1697 C1706 0.929 . S
C1698 H1692 0.930 . S
C1698 C1699 1.367 . S
C1698 C1706 1.378 . S
C1699 C1698 1.367 . S
C1699 C1707 1.433 . S
C1700 H1696 0.929 . S
C1700 C1702 1.378 . S
C1700 C1704 1.350 . S
C1701 C1704 1.463 . S
C1701 C1706 1.350 . S
C1701 N1709 1.427 . S
C1702 H1693 0.930 . S
C1702 C1700 1.378 . S
C1702 C1703 1.367 . S
C1703 C1702 1.367 . S
C1703 C1705 1.433 . S
C1704 C1700 1.350 . S
C1704 C1701 1.463 . S
C1704 N1708 1.427 . S
C1705 H1695 0.929 . S
C1705 C1703 1.433 . S
C1705 N1708 1.384 . S
C1706 H1697 0.929 . S
C1706 C1698 1.378 . S
C1706 C1701 1.350 . S
C1707 H1694 0.929 . S
C1707 C1699 1.433 . S
C1707 N1709 1.384 . S
N1708 C1704 1.427 . S
N1708 C1705 1.384 . S
N1709 C1701 1.427 . S
N1709 C1707 1.384 . S
H1710 C1716 0.930 . S
H1711 C1720 0.930 . S
H1712 C1725 0.929 1_554 S
H1713 C1723 0.929 . S
H1714 C1718 0.929 . S
H1715 C1724 0.929 . S
C1716 H1710 0.930 . S
C1716 C1717 1.367 1_545 S
C1716 C1724 1.378 . S
C1717 C1716 1.367 1_565 S
C1717 C1725 1.433 . S
C1718 H1714 0.929 . S
C1718 C1720 1.378 . S
C1718 C1722 1.350 . S
C1719 C1722 1.463 . S
C1719 C1724 1.350 1_565 S
C1719 N1727 1.427 . S
C1720 H1711 0.930 . S
C1720 C1718 1.378 . S
C1720 C1721 1.363 1_565 S
C1721 C1720 1.363 1_545 S
C1721 C1723 1.420 . S
C1722 C1718 1.350 . S
C1722 C1719 1.463 . S
C1722 N1726 1.427 1_565 S
C1723 H1713 0.929 . S
C1723 C1721 1.420 . S
C1723 N1726 1.384 . S
C1724 H1715 0.929 . S
C1724 C1716 1.378 . S
C1724 C1719 1.350 1_545 S
C1725 H1712 0.929 1_556 S
C1725 C1717 1.433 . S
C1725 N1727 1.384 . S
N1726 C1722 1.427 1_545 S
N1726 C1723 1.384 . S
N1727 C1719 1.427 . S
N1727 C1725 1.384 . S
H1728 C1734 0.930 . S
H1729 C1738 0.930 . S
H1730 C1743 0.929 . S
H1731 C1741 0.929 . S
H1732 C1736 0.929 . S
H1733 C1742 0.929 . S
C1734 H1728 0.930 . S
C1734 C1735 1.367 1_565 S
C1734 C1742 1.378 . S
C1735 C1734 1.367 1_545 S
C1735 C1743 1.433 . S
C1736 H1732 0.929 . S
C1736 C1738 1.378 . S
C1736 C1740 1.350 . S
C1737 C1740 1.463 . S
C1737 C1742 1.350 1_545 S
C1737 N1745 1.427 . S
C1738 H1729 0.930 . S
C1738 C1736 1.378 . S
C1738 C1739 1.346 1_545 S
C1739 C1738 1.346 1_565 S
C1739 C1741 1.459 . S
C1740 C1736 1.350 . S
C1740 C1737 1.463 . S
C1740 N1744 1.427 1_545 S
C1741 H1731 0.929 . S
C1741 C1739 1.459 . S
C1741 N1744 1.384 . S
C1742 H1733 0.929 . S
C1742 C1734 1.378 . S
C1742 C1737 1.350 1_565 S
C1743 H1730 0.929 . S
C1743 C1735 1.433 . S
C1743 N1745 1.384 . S
N1744 C1740 1.427 1_565 S
N1744 C1741 1.384 . S
N1745 C1737 1.427 . S
N1745 C1743 1.384 . S
H1746 C1752 0.930 . S
H1747 C1756 0.930 . S
H1748 C1761 0.929 . S
H1749 C1759 0.929 . S
H1750 C1754 0.929 . S
H1751 C1760 0.929 . S
C1752 H1746 0.930 . S
C1752 C1753 1.367 1_455 S
C1752 C1760 1.378 . S
C1753 C1752 1.367 1_655 S
C1753 C1761 1.433 . S
C1754 H1750 0.929 . S
C1754 C1756 1.378 . S
C1754 C1758 1.350 . S
C1755 C1758 1.451 . S
C1755 C1760 1.346 1_655 S
C1755 N1763 1.445 . S
C1756 H1747 0.930 . S
C1756 C1754 1.378 . S
C1756 C1757 1.377 . S
C1757 C1756 1.377 . S
C1757 C1759 1.431 1_655 S
C1758 C1754 1.350 . S
C1758 C1755 1.451 . S
C1758 N1762 1.427 1_655 S
C1759 H1749 0.929 . S
C1759 C1757 1.431 1_455 S
C1759 N1762 1.384 . S
C1760 H1751 0.929 . S
C1760 C1752 1.378 . S
C1760 C1755 1.346 1_455 S
C1761 H1748 0.929 . S
C1761 C1753 1.433 . S
C1761 N1763 1.384 . S
N1762 C1758 1.427 1_455 S
N1762 C1759 1.384 . S
N1763 C1755 1.445 . S
N1763 C1761 1.384 . S
H1764 C1770 0.930 . S
H1765 C1774 0.930 . S
H1766 C1779 0.929 . S
H1767 C1777 0.929 . S
H1768 C1772 0.929 . S
H1769 C1778 0.929 . S
C1770 H1764 0.930 . S
C1770 C1771 1.367 . S
C1770 C1778 1.378 . S
C1771 C1770 1.367 . S
C1771 C1779 1.433 . S
C1772 H1768 0.929 . S
C1772 C1774 1.378 . S
C1772 C1776 1.350 . S
C1773 C1776 1.463 . S
C1773 C1778 1.350 . S
C1773 N1781 1.427 . S
C1774 H1765 0.930 . S
C1774 C1772 1.378 . S
C1774 C1775 1.367 . S
C1775 C1774 1.367 . S
C1775 C1777 1.433 . S
C1776 C1772 1.350 . S
C1776 C1773 1.463 . S
C1776 N1780 1.427 . S
C1777 H1767 0.929 . S
C1777 C1775 1.433 . S
C1777 N1780 1.384 . S
C1778 H1769 0.929 . S
C1778 C1770 1.378 . S
C1778 C1773 1.350 . S
C1779 H1766 0.929 . S
C1779 C1771 1.433 . S
C1779 N1781 1.384 . S
N1780 C1776 1.427 . S
N1780 C1777 1.384 . S
N1781 C1773 1.427 . S
N1781 C1779 1.384 . S
H1782 C1788 0.930 . S
H1783 C1792 0.930 . S
H1784 C1797 0.929 . S
H1785 C1795 0.929 . S
H1786 C1790 0.929 . S
H1787 C1796 0.929 . S
C1788 H1782 0.930 . S
C1788 C1789 1.367 . S
C1788 C1796 1.378 . S
C1789 C1788 1.367 . S
C1789 C1797 1.433 . S
C1790 H1786 0.929 . S
C1790 C1792 1.378 . S
C1790 C1794 1.350 . S
C1791 C1794 1.463 . S
C1791 C1796 1.350 . S
C1791 N1799 1.427 . S
C1792 H1783 0.930 . S
C1792 C1790 1.378 . S
C1792 C1793 1.367 . S
C1793 C1792 1.367 . S
C1793 C1795 1.433 . S
C1794 C1790 1.350 . S
C1794 C1791 1.463 . S
C1794 N1798 1.427 . S
C1795 H1785 0.929 . S
C1795 C1793 1.433 . S
C1795 N1798 1.384 . S
C1796 H1787 0.929 . S
C1796 C1788 1.378 . S
C1796 C1791 1.350 . S
C1797 H1784 0.929 . S
C1797 C1789 1.433 . S
C1797 N1799 1.384 . S
N1798 C1794 1.427 . S
N1798 C1795 1.384 . S
N1799 C1791 1.427 . S
N1799 C1797 1.384 . S
H1800 C1806 0.930 . S
H1801 C1810 0.930 . S
H1802 C1815 0.929 . S
H1803 C1813 0.929 . S
H1804 C1808 0.929 . S
H1805 C1814 0.929 . S
C1806 H1800 0.930 . S
C1806 C1807 1.367 . S
C1806 C1814 1.378 . S
C1807 C1806 1.367 . S
C1807 C1815 1.433 . S
C1808 H1804 0.929 . S
C1808 C1810 1.378 . S
C1808 C1812 1.350 . S
C1809 C1812 1.463 . S
C1809 C1814 1.350 . S
C1809 N1817 1.427 . S
C1810 H1801 0.930 . S
C1810 C1808 1.378 . S
C1810 C1811 1.367 . S
C1811 C1810 1.367 . S
C1811 C1813 1.433 . S
C1812 C1808 1.350 . S
C1812 C1809 1.463 . S
C1812 N1816 1.427 . S
C1813 H1803 0.929 . S
C1813 C1811 1.433 . S
C1813 N1816 1.384 . S
C1814 H1805 0.929 . S
C1814 C1806 1.378 . S
C1814 C1809 1.350 . S
C1815 H1802 0.929 . S
C1815 C1807 1.433 . S
C1815 N1817 1.384 . S
N1816 C1812 1.427 . S
N1816 C1813 1.384 . S
N1817 C1809 1.427 . S
N1817 C1815 1.384 . S
H1818 C1824 0.930 . S
H1819 C1828 0.930 . S
H1820 C1833 0.929 . S
H1821 C1831 0.929 . S
H1822 C1826 0.929 . S
H1823 C1832 0.929 . S
C1824 H1818 0.930 . S
C1824 C1825 1.367 . S
C1824 C1832 1.378 . S
C1825 C1824 1.367 . S
C1825 C1833 1.433 . S
C1826 H1822 0.929 . S
C1826 C1828 1.378 . S
C1826 C1830 1.350 . S
C1827 C1830 1.463 . S
C1827 C1832 1.350 . S
C1827 N1835 1.427 . S
C1828 H1819 0.930 . S
C1828 C1826 1.378 . S
C1828 C1829 1.367 . S
C1829 C1828 1.367 . S
C1829 C1831 1.433 . S
C1830 C1826 1.350 . S
C1830 C1827 1.463 . S
C1830 N1834 1.427 . S
C1831 H1821 0.929 . S
C1831 C1829 1.433 . S
C1831 N1834 1.384 . S
C1832 H1823 0.929 . S
C1832 C1824 1.378 . S
C1832 C1827 1.350 . S
C1833 H1820 0.929 . S
C1833 C1825 1.433 . S
C1833 N1835 1.384 . S
N1834 C1830 1.427 . S
N1834 C1831 1.384 . S
N1835 C1827 1.427 . S
N1835 C1833 1.384 . S
H1836 C1842 0.930 . S
H1837 C1846 0.930 . S
H1838 C1851 0.929 . S
H1839 C1849 0.929 . S
H1840 C1844 0.929 . S
H1841 C1850 0.929 . S
C1842 H1836 0.930 . S
C1842 C1843 1.367 . S
C1842 C1850 1.378 . S
C1843 C1842 1.367 . S
C1843 C1851 1.433 . S
C1844 H1840 0.929 . S
C1844 C1846 1.378 . S
C1844 C1848 1.350 . S
C1845 C1848 1.463 . S
C1845 C1850 1.350 . S
C1845 N1853 1.427 . S
C1846 H1837 0.930 . S
C1846 C1844 1.378 . S
C1846 C1847 1.367 . S
C1847 C1846 1.367 . S
C1847 C1849 1.433 . S
C1848 C1844 1.350 . S
C1848 C1845 1.463 . S
C1848 N1852 1.427 . S
C1849 H1839 0.929 . S
C1849 C1847 1.433 . S
C1849 N1852 1.384 . S
C1850 H1841 0.929 . S
C1850 C1842 1.378 . S
C1850 C1845 1.350 . S
C1851 H1838 0.929 . S
C1851 C1843 1.433 . S
C1851 N1853 1.384 . S
N1852 C1848 1.427 . S
N1852 C1849 1.384 . S
N1853 C1845 1.427 . S
N1853 C1851 1.384 . S
H1854 C1860 0.930 . S
H1855 C1864 0.930 . S
H1856 C1869 0.929 . S
H1857 C1867 0.929 . S
H1858 C1862 0.929 . S
H1859 C1868 0.929 . S
C1860 H1854 0.930 . S
C1860 C1861 1.367 . S
C1860 C1868 1.378 . S
C1861 C1860 1.367 . S
C1861 C1869 1.433 . S
C1862 H1858 0.929 . S
C1862 C1864 1.378 . S
C1862 C1866 1.350 . S
C1863 C1866 1.463 . S
C1863 C1868 1.350 . S
C1863 N1871 1.427 . S
C1864 H1855 0.930 . S
C1864 C1862 1.378 . S
C1864 C1865 1.367 . S
C1865 C1864 1.367 . S
C1865 C1867 1.433 . S
C1866 C1862 1.350 . S
C1866 C1863 1.463 . S
C1866 N1870 1.427 . S
C1867 H1857 0.929 . S
C1867 C1865 1.433 . S
C1867 N1870 1.384 . S
C1868 H1859 0.929 . S
C1868 C1860 1.378 . S
C1868 C1863 1.350 . S
C1869 H1856 0.929 . S
C1869 C1861 1.433 . S
C1869 N1871 1.384 . S
N1870 C1866 1.427 . S
N1870 C1867 1.384 . S
N1871 C1863 1.427 . S
N1871 C1869 1.384 . S
H1872 C1878 0.930 . S
H1873 C1882 0.930 . S
H1874 C1887 0.929 . S
H1875 C1885 0.929 . S
H1876 C1880 0.929 . S
H1877 C1886 0.929 . S
C1878 H1872 0.930 . S
C1878 C1879 1.367 . S
C1878 C1886 1.378 . S
C1879 C1878 1.367 . S
C1879 C1887 1.433 . S
C1880 H1876 0.929 . S
C1880 C1882 1.378 . S
C1880 C1884 1.350 . S
C1881 C1884 1.463 . S
C1881 C1886 1.350 . S
C1881 N1889 1.427 . S
C1882 H1873 0.930 . S
C1882 C1880 1.378 . S
C1882 C1883 1.367 . S
C1883 C1882 1.367 . S
C1883 C1885 1.433 . S
C1884 C1880 1.350 . S
C1884 C1881 1.463 . S
C1884 N1888 1.427 . S
C1885 H1875 0.929 . S
C1885 C1883 1.433 . S
C1885 N1888 1.384 . S
C1886 H1877 0.929 . S
C1886 C1878 1.378 . S
C1886 C1881 1.350 . S
C1887 H1874 0.929 . S
C1887 C1879 1.433 . S
C1887 N1889 1.384 . S
N1888 C1884 1.427 . S
N1888 C1885 1.384 . S
N1889 C1881 1.427 . S
N1889 C1887 1.384 . S
H1890 C1896 0.930 . S
H1891 C1900 0.930 . S
H1892 C1905 0.929 . S
H1893 C1903 0.929 . S
H1894 C1898 0.929 . S
H1895 C1904 0.929 . S
C1896 H1890 0.930 . S
C1896 C1897 1.367 . S
C1896 C1904 1.378 . S
C1897 C1896 1.367 . S
C1897 C1905 1.433 . S
C1898 H1894 0.929 . S
C1898 C1900 1.378 . S
C1898 C1902 1.350 . S
C1899 C1902 1.463 . S
C1899 C1904 1.350 . S
C1899 N1907 1.427 . S
C1900 H1891 0.930 . S
C1900 C1898 1.378 . S
C1900 C1901 1.367 . S
C1901 C1900 1.367 . S
C1901 C1903 1.433 . S
C1902 C1898 1.350 . S
C1902 C1899 1.463 . S
C1902 N1906 1.427 . S
C1903 H1893 0.929 . S
C1903 C1901 1.433 . S
C1903 N1906 1.384 . S
C1904 H1895 0.929 . S
C1904 C1896 1.378 . S
C1904 C1899 1.350 . S
C1905 H1892 0.929 . S
C1905 C1897 1.433 . S
C1905 N1907 1.384 . S
N1906 C1902 1.427 . S
N1906 C1903 1.384 . S
N1907 C1899 1.427 . S
N1907 C1905 1.384 . S
H1908 C1914 0.930 . S
H1909 C1918 0.930 . S
H1910 C1923 0.929 . S
H1911 C1921 0.929 . S
H1912 C1916 0.929 . S
H1913 C1922 0.929 . S
C1914 H1908 0.930 . S
C1914 C1915 1.367 . S
C1914 C1922 1.378 . S
C1915 C1914 1.367 . S
C1915 C1923 1.433 . S
C1916 H1912 0.929 . S
C1916 C1918 1.378 . S
C1916 C1920 1.350 . S
C1917 C1920 1.463 . S
C1917 C1922 1.350 . S
C1917 N1925 1.427 . S
C1918 H1909 0.930 . S
C1918 C1916 1.378 . S
C1918 C1919 1.367 . S
C1919 C1918 1.367 . S
C1919 C1921 1.433 . S
C1920 C1916 1.350 . S
C1920 C1917 1.463 . S
C1920 N1924 1.427 . S
C1921 H1911 0.929 . S
C1921 C1919 1.433 . S
C1921 N1924 1.384 . S
C1922 H1913 0.929 . S
C1922 C1914 1.378 . S
C1922 C1917 1.350 . S
C1923 H1910 0.929 . S
C1923 C1915 1.433 . S
C1923 N1925 1.384 . S
N1924 C1920 1.427 . S
N1924 C1921 1.384 . S
N1925 C1917 1.427 . S
N1925 C1923 1.384 . S
H1926 C1932 0.930 . S
H1927 C1936 0.930 . S
H1928 C1941 0.929 . S
H1929 C1939 0.929 . S
H1930 C1934 0.929 . S
H1931 C1940 0.929 . S
C1932 H1926 0.930 . S
C1932 C1933 1.367 . S
C1932 C1940 1.378 . S
C1933 C1932 1.367 . S
C1933 C1941 1.433 . S
C1934 H1930 0.929 . S
C1934 C1936 1.378 . S
C1934 C1938 1.350 . S
C1935 C1938 1.463 . S
C1935 C1940 1.350 . S
C1935 N1943 1.427 . S
C1936 H1927 0.930 . S
C1936 C1934 1.378 . S
C1936 C1937 1.367 . S
C1937 C1936 1.367 . S
C1937 C1939 1.433 . S
C1938 C1934 1.350 . S
C1938 C1935 1.463 . S
C1938 N1942 1.427 . S
C1939 H1929 0.929 . S
C1939 C1937 1.433 . S
C1939 N1942 1.384 . S
C1940 H1931 0.929 . S
C1940 C1932 1.378 . S
C1940 C1935 1.350 . S
C1941 H1928 0.929 . S
C1941 C1933 1.433 . S
C1941 N1943 1.384 . S
N1942 C1938 1.427 . S
N1942 C1939 1.384 . S
N1943 C1935 1.427 . S
N1943 C1941 1.384 . S
H1944 C1950 0.930 . S
H1945 C1954 0.930 . S
H1946 C1959 0.929 . S
H1947 C1957 0.929 . S
H1948 C1952 0.929 . S
H1949 C1958 0.929 . S
C1950 H1944 0.930 . S
C1950 C1951 1.367 . S
C1950 C1958 1.378 . S
C1951 C1950 1.367 . S
C1951 C1959 1.433 . S
C1952 H1948 0.929 . S
C1952 C1954 1.378 . S
C1952 C1956 1.350 . S
C1953 C1956 1.463 . S
C1953 C1958 1.350 . S
C1953 N1961 1.427 . S
C1954 H1945 0.930 . S
C1954 C1952 1.378 . S
C1954 C1955 1.367 . S
C1955 C1954 1.367 . S
C1955 C1957 1.433 . S
C1956 C1952 1.350 . S
C1956 C1953 1.463 . S
C1956 N1960 1.427 . S
C1957 H1947 0.929 . S
C1957 C1955 1.433 . S
C1957 N1960 1.384 . S
C1958 H1949 0.929 . S
C1958 C1950 1.378 . S
C1958 C1953 1.350 . S
C1959 H1946 0.929 . S
C1959 C1951 1.433 . S
C1959 N1961 1.384 . S
N1960 C1956 1.427 . S
N1960 C1957 1.384 . S
N1961 C1953 1.427 . S
N1961 C1959 1.384 . S
H1962 C1968 0.930 . S
H1963 C1972 0.930 . S
H1964 C1977 0.929 . S
H1965 C1975 0.929 . S
H1966 C1970 0.929 . S
H1967 C1976 0.929 . S
C1968 H1962 0.930 . S
C1968 C1969 1.367 . S
C1968 C1976 1.378 . S
C1969 C1968 1.367 . S
C1969 C1977 1.433 . S
C1970 H1966 0.929 . S
C1970 C1972 1.378 . S
C1970 C1974 1.350 . S
C1971 C1974 1.463 . S
C1971 C1976 1.350 . S
C1971 N1979 1.427 . S
C1972 H1963 0.930 . S
C1972 C1970 1.378 . S
C1972 C1973 1.367 . S
C1973 C1972 1.367 . S
C1973 C1975 1.433 . S
C1974 C1970 1.350 . S
C1974 C1971 1.463 . S
C1974 N1978 1.427 . S
C1975 H1965 0.929 . S
C1975 C1973 1.433 . S
C1975 N1978 1.384 . S
C1976 H1967 0.929 . S
C1976 C1968 1.378 . S
C1976 C1971 1.350 . S
C1977 H1964 0.929 . S
C1977 C1969 1.433 . S
C1977 N1979 1.384 . S
N1978 C1974 1.427 . S
N1978 C1975 1.384 . S
N1979 C1971 1.427 . S
N1979 C1977 1.384 . S
H1980 C1986 0.930 . S
H1981 C1990 0.930 . S
H1982 C1995 0.929 . S
H1983 C1993 0.929 . S
H1984 C1988 0.929 . S
H1985 C1994 0.929 . S
C1986 H1980 0.930 . S
C1986 C1987 1.367 . S
C1986 C1994 1.378 . S
C1987 C1986 1.367 . S
C1987 C1995 1.433 . S
C1988 H1984 0.929 . S
C1988 C1990 1.378 . S
C1988 C1992 1.350 . S
C1989 C1992 1.463 . S
C1989 C1994 1.350 . S
C1989 N1997 1.427 . S
C1990 H1981 0.930 . S
C1990 C1988 1.378 . S
C1990 C1991 1.367 . S
C1991 C1990 1.367 . S
C1991 C1993 1.433 . S
C1992 C1988 1.350 . S
C1992 C1989 1.463 . S
C1992 N1996 1.427 . S
C1993 H1983 0.929 . S
C1993 C1991 1.433 . S
C1993 N1996 1.384 . S
C1994 H1985 0.929 . S
C1994 C1986 1.378 . S
C1994 C1989 1.350 . S
C1995 H1982 0.929 . S
C1995 C1987 1.433 . S
C1995 N1997 1.384 . S
N1996 C1992 1.427 . S
N1996 C1993 1.384 . S
N1997 C1989 1.427 . S
N1997 C1995 1.384 . S
H1998 C2004 0.930 . S
H1999 C2008 0.930 . S
H2000 C2013 0.929 . S
H2001 C2011 0.929 . S
H2002 C2006 0.929 . S
H2003 C2012 0.929 . S
C2004 H1998 0.930 . S
C2004 C2005 1.367 . S
C2004 C2012 1.378 . S
C2005 C2004 1.367 . S
C2005 C2013 1.433 . S
C2006 H2002 0.929 . S
C2006 C2008 1.378 . S
C2006 C2010 1.350 . S
C2007 C2010 1.463 . S
C2007 C2012 1.350 . S
C2007 N2015 1.427 . S
C2008 H1999 0.930 . S
C2008 C2006 1.378 . S
C2008 C2009 1.367 . S
C2009 C2008 1.367 . S
C2009 C2011 1.433 . S
C2010 C2006 1.350 . S
C2010 C2007 1.463 . S
C2010 N2014 1.427 . S
C2011 H2001 0.929 . S
C2011 C2009 1.433 . S
C2011 N2014 1.384 . S
C2012 H2003 0.929 . S
C2012 C2004 1.378 . S
C2012 C2007 1.350 . S
C2013 H2000 0.929 . S
C2013 C2005 1.433 . S
C2013 N2015 1.384 . S
N2014 C2010 1.427 . S
N2014 C2011 1.384 . S
N2015 C2007 1.427 . S
N2015 C2013 1.384 . S
H2016 C2022 0.930 . S
H2017 C2026 0.930 . S
H2018 C2031 0.929 . S
H2019 C2029 0.929 . S
H2020 C2024 0.929 . S
H2021 C2030 0.929 . S
C2022 H2016 0.930 . S
C2022 C2023 1.367 . S
C2022 C2030 1.378 . S
C2023 C2022 1.367 . S
C2023 C2031 1.433 . S
C2024 H2020 0.929 . S
C2024 C2026 1.378 . S
C2024 C2028 1.350 . S
C2025 C2028 1.463 . S
C2025 C2030 1.350 . S
C2025 N2033 1.427 . S
C2026 H2017 0.930 . S
C2026 C2024 1.378 . S
C2026 C2027 1.367 . S
C2027 C2026 1.367 . S
C2027 C2029 1.433 . S
C2028 C2024 1.350 . S
C2028 C2025 1.463 . S
C2028 N2032 1.427 . S
C2029 H2019 0.929 . S
C2029 C2027 1.433 . S
C2029 N2032 1.384 . S
C2030 H2021 0.929 . S
C2030 C2022 1.378 . S
C2030 C2025 1.350 . S
C2031 H2018 0.929 . S
C2031 C2023 1.433 . S
C2031 N2033 1.384 . S
N2032 C2028 1.427 . S
N2032 C2029 1.384 . S
N2033 C2025 1.427 . S
N2033 C2031 1.384 . S
H2034 C2040 0.930 . S
H2035 C2044 0.930 . S
H2036 C2049 0.929 . S
H2037 C2047 0.929 . S
H2038 C2042 0.929 . S
H2039 C2048 0.929 . S
C2040 H2034 0.930 . S
C2040 C2041 1.367 . S
C2040 C2048 1.378 . S
C2041 C2040 1.367 . S
C2041 C2049 1.433 . S
C2042 H2038 0.929 . S
C2042 C2044 1.378 . S
C2042 C2046 1.350 . S
C2043 C2046 1.463 . S
C2043 C2048 1.350 . S
C2043 N2051 1.427 . S
C2044 H2035 0.930 . S
C2044 C2042 1.378 . S
C2044 C2045 1.367 . S
C2045 C2044 1.367 . S
C2045 C2047 1.433 . S
C2046 C2042 1.350 . S
C2046 C2043 1.463 . S
C2046 N2050 1.427 . S
C2047 H2037 0.929 . S
C2047 C2045 1.433 . S
C2047 N2050 1.384 . S
C2048 H2039 0.929 . S
C2048 C2040 1.378 . S
C2048 C2043 1.350 . S
C2049 H2036 0.929 . S
C2049 C2041 1.433 . S
C2049 N2051 1.384 . S
N2050 C2046 1.427 . S
N2050 C2047 1.384 . S
N2051 C2043 1.427 . S
N2051 C2049 1.384 . S
H2052 C2058 0.930 . S
H2053 C2062 0.930 . S
H2054 C2067 0.929 . S
H2055 C2065 0.929 . S
H2056 C2060 0.929 . S
H2057 C2066 0.929 . S
C2058 H2052 0.930 . S
C2058 C2059 1.367 . S
C2058 C2066 1.378 . S
C2059 C2058 1.367 . S
C2059 C2067 1.433 . S
C2060 H2056 0.929 . S
C2060 C2062 1.378 . S
C2060 C2064 1.350 . S
C2061 C2064 1.463 . S
C2061 C2066 1.350 . S
C2061 N2069 1.427 . S
C2062 H2053 0.930 . S
C2062 C2060 1.378 . S
C2062 C2063 1.367 . S
C2063 C2062 1.367 . S
C2063 C2065 1.433 . S
C2064 C2060 1.350 . S
C2064 C2061 1.463 . S
C2064 N2068 1.427 . S
C2065 H2055 0.929 . S
C2065 C2063 1.433 . S
C2065 N2068 1.384 . S
C2066 H2057 0.929 . S
C2066 C2058 1.378 . S
C2066 C2061 1.350 . S
C2067 H2054 0.929 . S
C2067 C2059 1.433 . S
C2067 N2069 1.384 . S
N2068 C2064 1.427 . S
N2068 C2065 1.384 . S
N2069 C2061 1.427 . S
N2069 C2067 1.384 . S
H2070 C2076 0.930 . S
H2071 C2080 0.930 . S
H2072 C2085 0.929 . S
H2073 C2083 0.929 . S
H2074 C2078 0.929 . S
H2075 C2084 0.929 . S
C2076 H2070 0.930 . S
C2076 C2077 1.367 . S
C2076 C2084 1.378 . S
C2077 C2076 1.367 . S
C2077 C2085 1.433 . S
C2078 H2074 0.929 . S
C2078 C2080 1.378 . S
C2078 C2082 1.350 . S
C2079 C2082 1.463 . S
C2079 C2084 1.350 . S
C2079 N2087 1.427 . S
C2080 H2071 0.930 . S
C2080 C2078 1.378 . S
C2080 C2081 1.367 . S
C2081 C2080 1.367 . S
C2081 C2083 1.433 . S
C2082 C2078 1.350 . S
C2082 C2079 1.463 . S
C2082 N2086 1.427 . S
C2083 H2073 0.929 . S
C2083 C2081 1.433 . S
C2083 N2086 1.384 . S
C2084 H2075 0.929 . S
C2084 C2076 1.378 . S
C2084 C2079 1.350 . S
C2085 H2072 0.929 . S
C2085 C2077 1.433 . S
C2085 N2087 1.384 . S
N2086 C2082 1.427 . S
N2086 C2083 1.384 . S
N2087 C2079 1.427 . S
N2087 C2085 1.384 . S
H2088 C2094 0.930 . S
H2089 C2098 0.930 . S
H2090 C2103 0.929 . S
H2091 C2101 0.929 . S
H2092 C2096 0.929 . S
H2093 C2102 0.929 . S
C2094 H2088 0.930 . S
C2094 C2095 1.367 . S
C2094 C2102 1.378 . S
C2095 C2094 1.367 . S
C2095 C2103 1.433 . S
C2096 H2092 0.929 . S
C2096 C2098 1.378 . S
C2096 C2100 1.350 . S
C2097 C2100 1.463 . S
C2097 C2102 1.350 . S
C2097 N2105 1.427 . S
C2098 H2089 0.930 . S
C2098 C2096 1.378 . S
C2098 C2099 1.367 . S
C2099 C2098 1.367 . S
C2099 C2101 1.433 . S
C2100 C2096 1.350 . S
C2100 C2097 1.463 . S
C2100 N2104 1.427 . S
C2101 H2091 0.929 . S
C2101 C2099 1.433 . S
C2101 N2104 1.384 . S
C2102 H2093 0.929 . S
C2102 C2094 1.378 . S
C2102 C2097 1.350 . S
C2103 H2090 0.929 . S
C2103 C2095 1.433 . S
C2103 N2105 1.384 . S
N2104 C2100 1.427 . S
N2104 C2101 1.384 . S
N2105 C2097 1.427 . S
N2105 C2103 1.384 . S
H2106 C2112 0.930 . S
H2107 C2116 0.930 . S
H2108 C2121 0.929 . S
H2109 C2119 0.929 . S
H2110 C2114 0.929 . S
H2111 C2120 0.929 . S
C2112 H2106 0.930 . S
C2112 C2113 1.367 . S
C2112 C2120 1.378 . S
C2113 C2112 1.367 . S
C2113 C2121 1.433 . S
C2114 H2110 0.929 . S
C2114 C2116 1.378 . S
C2114 C2118 1.350 . S
C2115 C2118 1.463 . S
C2115 C2120 1.350 . S
C2115 N2123 1.427 . S
C2116 H2107 0.930 . S
C2116 C2114 1.378 . S
C2116 C2117 1.367 . S
C2117 C2116 1.367 . S
C2117 C2119 1.433 . S
C2118 C2114 1.350 . S
C2118 C2115 1.463 . S
C2118 N2122 1.427 . S
C2119 H2109 0.929 . S
C2119 C2117 1.433 . S
C2119 N2122 1.384 . S
C2120 H2111 0.929 . S
C2120 C2112 1.378 . S
C2120 C2115 1.350 . S
C2121 H2108 0.929 . S
C2121 C2113 1.433 . S
C2121 N2123 1.384 . S
N2122 C2118 1.427 . S
N2122 C2119 1.384 . S
N2123 C2115 1.427 . S
N2123 C2121 1.384 . S
H2124 C2130 0.930 . S
H2125 C2134 0.930 . S
H2126 C2139 0.929 . S
H2127 C2137 0.929 . S
H2128 C2132 0.929 . S
H2129 C2138 0.929 . S
C2130 H2124 0.930 . S
C2130 C2131 1.367 . S
C2130 C2138 1.378 . S
C2131 C2130 1.367 . S
C2131 C2139 1.433 . S
C2132 H2128 0.929 . S
C2132 C2134 1.378 . S
C2132 C2136 1.350 . S
C2133 C2136 1.463 . S
C2133 C2138 1.350 . S
C2133 N2141 1.427 . S
C2134 H2125 0.930 . S
C2134 C2132 1.378 . S
C2134 C2135 1.367 . S
C2135 C2134 1.367 . S
C2135 C2137 1.433 . S
C2136 C2132 1.350 . S
C2136 C2133 1.463 . S
C2136 N2140 1.427 . S
C2137 H2127 0.929 . S
C2137 C2135 1.433 . S
C2137 N2140 1.384 . S
C2138 H2129 0.929 . S
C2138 C2130 1.378 . S
C2138 C2133 1.350 . S
C2139 H2126 0.929 . S
C2139 C2131 1.433 . S
C2139 N2141 1.384 . S
N2140 C2136 1.427 . S
N2140 C2137 1.384 . S
N2141 C2133 1.427 . S
N2141 C2139 1.384 . S
H2142 C2148 0.930 . S
H2143 C2152 0.930 . S
H2144 C2157 0.929 . S
H2145 C2155 0.929 . S
H2146 C2150 0.929 . S
H2147 C2156 0.929 . S
C2148 H2142 0.930 . S
C2148 C2149 1.367 . S
C2148 C2156 1.378 . S
C2149 C2148 1.367 . S
C2149 C2157 1.433 . S
C2150 H2146 0.929 . S
C2150 C2152 1.378 . S
C2150 C2154 1.350 . S
C2151 C2154 1.463 . S
C2151 C2156 1.350 . S
C2151 N2159 1.427 . S
C2152 H2143 0.930 . S
C2152 C2150 1.378 . S
C2152 C2153 1.367 . S
C2153 C2152 1.367 . S
C2153 C2155 1.433 . S
C2154 C2150 1.350 . S
C2154 C2151 1.463 . S
C2154 N2158 1.427 . S
C2155 H2145 0.929 . S
C2155 C2153 1.433 . S
C2155 N2158 1.384 . S
C2156 H2147 0.929 . S
C2156 C2148 1.378 . S
C2156 C2151 1.350 . S
C2157 H2144 0.929 . S
C2157 C2149 1.433 . S
C2157 N2159 1.384 . S
N2158 C2154 1.427 . S
N2158 C2155 1.384 . S
N2159 C2151 1.427 . S
N2159 C2157 1.384 . S
H2160 C2166 0.930 . S
H2161 C2170 0.930 . S
H2162 C2175 0.929 . S
H2163 C2173 0.929 . S
H2164 C2168 0.929 . S
H2165 C2174 0.929 . S
C2166 H2160 0.930 . S
C2166 C2167 1.367 . S
C2166 C2174 1.378 . S
C2167 C2166 1.367 . S
C2167 C2175 1.433 . S
C2168 H2164 0.929 . S
C2168 C2170 1.378 . S
C2168 C2172 1.350 . S
C2169 C2172 1.463 . S
C2169 C2174 1.350 . S
C2169 N2177 1.427 . S
C2170 H2161 0.930 . S
C2170 C2168 1.378 . S
C2170 C2171 1.367 . S
C2171 C2170 1.367 . S
C2171 C2173 1.433 . S
C2172 C2168 1.350 . S
C2172 C2169 1.463 . S
C2172 N2176 1.427 . S
C2173 H2163 0.929 . S
C2173 C2171 1.433 . S
C2173 N2176 1.384 . S
C2174 H2165 0.929 . S
C2174 C2166 1.378 . S
C2174 C2169 1.350 . S
C2175 H2162 0.929 . S
C2175 C2167 1.433 . S
C2175 N2177 1.384 . S
N2176 C2172 1.427 . S
N2176 C2173 1.384 . S
N2177 C2169 1.427 . S
N2177 C2175 1.384 . S
H2178 C2184 0.930 . S
H2179 C2188 0.930 . S
H2180 C2193 0.929 . S
H2181 C2191 0.929 . S
H2182 C2186 0.929 . S
H2183 C2192 0.929 . S
C2184 H2178 0.930 . S
C2184 C2185 1.367 . S
C2184 C2192 1.378 . S
C2185 C2184 1.367 . S
C2185 C2193 1.433 . S
C2186 H2182 0.929 . S
C2186 C2188 1.378 . S
C2186 C2190 1.350 . S
C2187 C2190 1.463 . S
C2187 C2192 1.350 . S
C2187 N2195 1.427 . S
C2188 H2179 0.930 . S
C2188 C2186 1.378 . S
C2188 C2189 1.367 . S
C2189 C2188 1.367 . S
C2189 C2191 1.433 . S
C2190 C2186 1.350 . S
C2190 C2187 1.463 . S
C2190 N2194 1.427 . S
C2191 H2181 0.929 . S
C2191 C2189 1.433 . S
C2191 N2194 1.384 . S
C2192 H2183 0.929 . S
C2192 C2184 1.378 . S
C2192 C2187 1.350 . S
C2193 H2180 0.929 . S
C2193 C2185 1.433 . S
C2193 N2195 1.384 . S
N2194 C2190 1.427 . S
N2194 C2191 1.384 . S
N2195 C2187 1.427 . S
N2195 C2193 1.384 . S
H2196 C2202 0.930 . S
H2197 C2206 0.930 . S
H2198 C2211 0.929 . S
H2199 C2209 0.929 . S
H2200 C2204 0.929 . S
H2201 C2210 0.929 . S
C2202 H2196 0.930 . S
C2202 C2203 1.367 . S
C2202 C2210 1.378 . S
C2203 C2202 1.367 . S
C2203 C2211 1.433 . S
C2204 H2200 0.929 . S
C2204 C2206 1.378 . S
C2204 C2208 1.350 . S
C2205 C2208 1.463 . S
C2205 C2210 1.350 . S
C2205 N2213 1.427 . S
C2206 H2197 0.930 . S
C2206 C2204 1.378 . S
C2206 C2207 1.367 . S
C2207 C2206 1.367 . S
C2207 C2209 1.433 . S
C2208 C2204 1.350 . S
C2208 C2205 1.463 . S
C2208 N2212 1.427 . S
C2209 H2199 0.929 . S
C2209 C2207 1.433 . S
C2209 N2212 1.384 . S
C2210 H2201 0.929 . S
C2210 C2202 1.378 . S
C2210 C2205 1.350 . S
C2211 H2198 0.929 . S
C2211 C2203 1.433 . S
C2211 N2213 1.384 . S
N2212 C2208 1.427 . S
N2212 C2209 1.384 . S
N2213 C2205 1.427 . S
N2213 C2211 1.384 . S
H2214 C2220 0.930 . S
H2215 C2224 0.930 . S
H2216 C2229 0.929 . S
H2217 C2227 0.929 . S
H2218 C2222 0.929 . S
H2219 C2228 0.929 . S
C2220 H2214 0.930 . S
C2220 C2221 1.367 . S
C2220 C2228 1.378 . S
C2221 C2220 1.367 . S
C2221 C2229 1.433 . S
C2222 H2218 0.929 . S
C2222 C2224 1.378 . S
C2222 C2226 1.350 . S
C2223 C2226 1.463 . S
C2223 C2228 1.350 . S
C2223 N2231 1.427 . S
C2224 H2215 0.930 . S
C2224 C2222 1.378 . S
C2224 C2225 1.367 . S
C2225 C2224 1.367 . S
C2225 C2227 1.433 . S
C2226 C2222 1.350 . S
C2226 C2223 1.463 . S
C2226 N2230 1.427 . S
C2227 H2217 0.929 . S
C2227 C2225 1.433 . S
C2227 N2230 1.384 . S
C2228 H2219 0.929 . S
C2228 C2220 1.378 . S
C2228 C2223 1.350 . S
C2229 H2216 0.929 . S
C2229 C2221 1.433 . S
C2229 N2231 1.384 . S
N2230 C2226 1.427 . S
N2230 C2227 1.384 . S
N2231 C2223 1.427 . S
N2231 C2229 1.384 . S
H2232 C2238 0.930 . S
H2233 C2242 0.930 . S
H2234 C2247 0.929 . S
H2235 C2245 0.929 . S
H2236 C2240 0.929 . S
H2237 C2246 0.929 . S
C2238 H2232 0.930 . S
C2238 C2239 1.367 . S
C2238 C2246 1.378 . S
C2239 C2238 1.367 . S
C2239 C2247 1.433 . S
C2240 H2236 0.929 . S
C2240 C2242 1.378 . S
C2240 C2244 1.350 . S
C2241 C2244 1.463 . S
C2241 C2246 1.350 . S
C2241 N2249 1.427 . S
C2242 H2233 0.930 . S
C2242 C2240 1.378 . S
C2242 C2243 1.367 . S
C2243 C2242 1.367 . S
C2243 C2245 1.433 . S
C2244 C2240 1.350 . S
C2244 C2241 1.463 . S
C2244 N2248 1.427 . S
C2245 H2235 0.929 . S
C2245 C2243 1.433 . S
C2245 N2248 1.384 . S
C2246 H2237 0.929 . S
C2246 C2238 1.378 . S
C2246 C2241 1.350 . S
C2247 H2234 0.929 . S
C2247 C2239 1.433 . S
C2247 N2249 1.384 . S
N2248 C2244 1.427 . S
N2248 C2245 1.384 . S
N2249 C2241 1.427 . S
N2249 C2247 1.384 . S
H2250 C2256 0.930 . S
H2251 C2260 0.930 . S
H2252 C2265 0.929 . S
H2253 C2263 0.929 . S
H2254 C2258 0.929 . S
H2255 C2264 0.929 . S
C2256 H2250 0.930 . S
C2256 C2257 1.367 . S
C2256 C2264 1.378 . S
C2257 C2256 1.367 . S
C2257 C2265 1.433 . S
C2258 H2254 0.929 . S
C2258 C2260 1.378 . S
C2258 C2262 1.350 . S
C2259 C2262 1.463 . S
C2259 C2264 1.350 . S
C2259 N2267 1.427 . S
C2260 H2251 0.930 . S
C2260 C2258 1.378 . S
C2260 C2261 1.367 . S
C2261 C2260 1.367 . S
C2261 C2263 1.433 . S
C2262 C2258 1.350 . S
C2262 C2259 1.463 . S
C2262 N2266 1.427 . S
C2263 H2253 0.929 . S
C2263 C2261 1.433 . S
C2263 N2266 1.384 . S
C2264 H2255 0.929 . S
C2264 C2256 1.378 . S
C2264 C2259 1.350 . S
C2265 H2252 0.929 . S
C2265 C2257 1.433 . S
C2265 N2267 1.384 . S
N2266 C2262 1.427 . S
N2266 C2263 1.384 . S
N2267 C2259 1.427 . S
N2267 C2265 1.384 . S
H2268 C2274 0.930 . S
H2269 C2278 0.930 . S
H2270 C2283 0.929 . S
H2271 C2281 0.929 . S
H2272 C2276 0.929 . S
H2273 C2282 0.929 . S
C2274 H2268 0.930 . S
C2274 C2275 1.367 . S
C2274 C2282 1.378 . S
C2275 C2274 1.367 . S
C2275 C2283 1.433 . S
C2276 H2272 0.929 . S
C2276 C2278 1.378 . S
C2276 C2280 1.350 . S
C2277 C2280 1.463 . S
C2277 C2282 1.350 . S
C2277 N2285 1.427 . S
C2278 H2269 0.930 . S
C2278 C2276 1.378 . S
C2278 C2279 1.367 . S
C2279 C2278 1.367 . S
C2279 C2281 1.433 . S
C2280 C2276 1.350 . S
C2280 C2277 1.463 . S
C2280 N2284 1.427 . S
C2281 H2271 0.929 . S
C2281 C2279 1.433 . S
C2281 N2284 1.384 . S
C2282 H2273 0.929 . S
C2282 C2274 1.378 . S
C2282 C2277 1.350 . S
C2283 H2270 0.929 . S
C2283 C2275 1.433 . S
C2283 N2285 1.384 . S
N2284 C2280 1.427 . S
N2284 C2281 1.384 . S
N2285 C2277 1.427 . S
N2285 C2283 1.384 . S
H2286 C2292 0.930 . S
H2287 C2296 0.930 . S
H2288 C2301 0.929 . S
H2289 C2299 0.929 . S
H2290 C2294 0.929 . S
H2291 C2300 0.929 . S
C2292 H2286 0.930 . S
C2292 C2293 1.367 . S
C2292 C2300 1.378 . S
C2293 C2292 1.367 . S
C2293 C2301 1.433 . S
C2294 H2290 0.929 . S
C2294 C2296 1.378 . S
C2294 C2298 1.350 . S
C2295 C2298 1.463 . S
C2295 C2300 1.350 . S
C2295 N2303 1.427 . S
C2296 H2287 0.930 . S
C2296 C2294 1.378 . S
C2296 C2297 1.367 . S
C2297 C2296 1.367 . S
C2297 C2299 1.433 . S
C2298 C2294 1.350 . S
C2298 C2295 1.463 . S
C2298 N2302 1.427 . S
C2299 H2289 0.929 . S
C2299 C2297 1.433 . S
C2299 N2302 1.384 . S
C2300 H2291 0.929 . S
C2300 C2292 1.378 . S
C2300 C2295 1.350 . S
C2301 H2288 0.929 . S
C2301 C2293 1.433 . S
C2301 N2303 1.384 . S
N2302 C2298 1.427 . S
N2302 C2299 1.384 . S
N2303 C2295 1.427 . S
N2303 C2301 1.384 . S
H2304 C2310 0.931 . S
H2305 C2314 0.930 . S
H2306 C2319 0.929 . S
H2307 C2317 0.929 . S
H2308 C2312 0.929 . S
H2309 C2318 0.929 . S
C2310 H2304 0.931 . S
C2310 C2311 1.367 . S
C2310 C2318 1.378 1_554 S
C2311 C2310 1.367 . S
C2311 C2319 1.433 . S
C2312 H2308 0.929 . S
C2312 C2314 1.378 1_554 S
C2312 C2316 1.350 1_554 S
C2313 C2316 1.463 1_554 S
C2313 C2318 1.350 1_554 S
C2313 N2321 1.427 . S
C2314 H2305 0.930 . S
C2314 C2312 1.378 1_556 S
C2314 C2315 1.367 . S
C2315 C2314 1.367 . S
C2315 C2317 1.433 . S
C2316 C2312 1.350 1_556 S
C2316 C2313 1.463 1_556 S
C2316 N2320 1.427 . S
C2317 H2307 0.929 . S
C2317 C2315 1.433 . S
C2317 N2320 1.384 . S
C2318 H2309 0.929 . S
C2318 C2310 1.378 1_556 S
C2318 C2313 1.350 1_556 S
C2319 H2306 0.929 . S
C2319 C2311 1.433 . S
C2319 N2321 1.384 . S
N2320 C2316 1.427 . S
N2320 C2317 1.384 . S
N2321 C2313 1.427 . S
N2321 C2319 1.384 . S
H2322 C2328 0.930 . S
H2323 C2332 0.930 . S
H2324 C2337 0.918 1_554 S
H2325 C2335 0.929 . S
H2326 C2330 0.929 . S
H2327 C2336 0.929 . S
C2328 H2322 0.930 . S
C2328 C2329 1.367 1_556 S
C2328 C2336 1.378 . S
C2329 C2328 1.367 1_554 S
C2329 C2337 1.429 1_554 S
C2330 H2326 0.929 . S
C2330 C2332 1.378 . S
C2330 C2334 1.350 . S
C2331 C2334 1.463 . S
C2331 C2336 1.350 . S
C2331 N2339 1.427 . S
C2332 H2323 0.930 . S
C2332 C2330 1.378 . S
C2332 C2333 1.367 . S
C2333 C2332 1.367 . S
C2333 C2335 1.433 . S
C2334 C2330 1.350 . S
C2334 C2331 1.463 . S
C2334 N2338 1.427 . S
C2335 H2325 0.929 . S
C2335 C2333 1.433 . S
C2335 N2338 1.384 . S
C2336 H2327 0.929 . S
C2336 C2328 1.378 . S
C2336 C2331 1.350 . S
C2337 H2324 0.918 1_556 S
C2337 C2329 1.429 1_556 S
C2337 N2339 1.400 . S
N2338 C2334 1.427 . S
N2338 C2335 1.384 . S
N2339 C2331 1.427 . S
N2339 C2337 1.400 . S
H2340 C2346 0.930 . S
H2341 C2350 0.930 . S
H2342 C2355 0.929 . S
H2343 C2353 0.929 . S
H2344 C2348 0.929 . S
H2345 C2354 0.929 . S
C2346 H2340 0.930 . S
C2346 C2347 1.367 . S
C2346 C2354 1.378 . S
C2347 C2346 1.367 . S
C2347 C2355 1.433 . S
C2348 H2344 0.929 . S
C2348 C2350 1.378 . S
C2348 C2352 1.350 . S
C2349 C2352 1.463 . S
C2349 C2354 1.350 . S
C2349 N2357 1.427 . S
C2350 H2341 0.930 . S
C2350 C2348 1.378 . S
C2350 C2351 1.367 . S
C2351 C2350 1.367 . S
C2351 C2353 1.433 . S
C2352 C2348 1.350 . S
C2352 C2349 1.463 . S
C2352 N2356 1.427 . S
C2353 H2343 0.929 . S
C2353 C2351 1.433 . S
C2353 N2356 1.384 . S
C2354 H2345 0.929 . S
C2354 C2346 1.378 . S
C2354 C2349 1.350 . S
C2355 H2342 0.929 . S
C2355 C2347 1.433 . S
C2355 N2357 1.384 . S
N2356 C2352 1.427 . S
N2356 C2353 1.384 . S
N2357 C2349 1.427 . S
N2357 C2355 1.384 . S
H2358 C2364 0.930 . S
H2359 C2368 0.930 . S
H2360 C2373 0.929 . S
H2361 C2371 0.929 . S
H2362 C2366 0.929 . S
H2363 C2372 0.930 . S
C2364 H2358 0.930 . S
C2364 C2365 1.367 . S
C2364 C2372 1.413 . S
C2365 C2364 1.367 . S
C2365 C2373 1.433 1_554 S
C2366 H2362 0.929 . S
C2366 C2368 1.378 . S
C2366 C2370 1.350 . S
C2367 C2370 1.463 . S
C2367 C2372 1.317 1_556 S
C2367 N2375 1.427 . S
C2368 H2359 0.930 . S
C2368 C2366 1.378 . S
C2368 C2369 1.367 . S
C2369 C2368 1.367 . S
C2369 C2371 1.433 . S
C2370 C2366 1.350 . S
C2370 C2367 1.463 . S
C2370 N2374 1.427 . S
C2371 H2361 0.929 . S
C2371 C2369 1.433 . S
C2371 N2374 1.384 . S
C2372 H2363 0.930 . S
C2372 C2364 1.413 . S
C2372 C2367 1.317 1_554 S
C2373 H2360 0.929 . S
C2373 C2365 1.433 1_556 S
C2373 N2375 1.384 . S
N2374 C2370 1.427 . S
N2374 C2371 1.384 . S
N2375 C2367 1.427 . S
N2375 C2373 1.384 . S
H2376 C2382 0.930 . S
H2377 C2386 0.930 . S
H2378 C2391 0.929 . S
H2379 C2389 0.929 . S
H2380 C2384 0.929 . S
H2381 C2390 0.929 . S
C2382 H2376 0.930 . S
C2382 C2383 1.367 . S
C2382 C2390 1.378 . S
C2383 C2382 1.367 . S
C2383 C2391 1.433 . S
C2384 H2380 0.929 . S
C2384 C2386 1.378 . S
C2384 C2388 1.350 . S
C2385 C2388 1.463 . S
C2385 C2390 1.350 . S
C2385 N2393 1.427 . S
C2386 H2377 0.930 . S
C2386 C2384 1.378 . S
C2386 C2387 1.367 . S
C2387 C2386 1.367 . S
C2387 C2389 1.433 . S
C2388 C2384 1.350 . S
C2388 C2385 1.463 . S
C2388 N2392 1.427 . S
C2389 H2379 0.929 . S
C2389 C2387 1.433 . S
C2389 N2392 1.384 . S
C2390 H2381 0.929 . S
C2390 C2382 1.378 . S
C2390 C2385 1.350 . S
C2391 H2378 0.929 . S
C2391 C2383 1.433 . S
C2391 N2393 1.384 . S
N2392 C2388 1.427 . S
N2392 C2389 1.384 . S
N2393 C2385 1.427 . S
N2393 C2391 1.384 . S
H2394 C2400 0.930 . S
H2395 C2404 0.930 . S
H2396 C2409 0.929 . S
H2397 C2407 0.929 . S
H2398 C2402 0.929 . S
H2399 C2408 0.929 . S
C2400 H2394 0.930 . S
C2400 C2401 1.367 . S
C2400 C2408 1.378 . S
C2401 C2400 1.367 . S
C2401 C2409 1.433 . S
C2402 H2398 0.929 . S
C2402 C2404 1.378 . S
C2402 C2406 1.350 . S
C2403 C2406 1.463 . S
C2403 C2408 1.350 . S
C2403 N2411 1.427 . S
C2404 H2395 0.930 . S
C2404 C2402 1.378 . S
C2404 C2405 1.367 . S
C2405 C2404 1.367 . S
C2405 C2407 1.433 . S
C2406 C2402 1.350 . S
C2406 C2403 1.463 . S
C2406 N2410 1.427 . S
C2407 H2397 0.929 . S
C2407 C2405 1.433 . S
C2407 N2410 1.384 . S
C2408 H2399 0.929 . S
C2408 C2400 1.378 . S
C2408 C2403 1.350 . S
C2409 H2396 0.929 . S
C2409 C2401 1.433 . S
C2409 N2411 1.384 . S
N2410 C2406 1.427 . S
N2410 C2407 1.384 . S
N2411 C2403 1.427 . S
N2411 C2409 1.384 . S
H2412 C2418 0.930 . S
H2413 C2422 0.930 . S
H2414 C2427 0.929 . S
H2415 C2425 0.929 . S
H2416 C2420 0.929 . S
H2417 C2426 0.929 . S
C2418 H2412 0.930 . S
C2418 C2419 1.367 . S
C2418 C2426 1.378 . S
C2419 C2418 1.367 . S
C2419 C2427 1.433 . S
C2420 H2416 0.929 . S
C2420 C2422 1.378 . S
C2420 C2424 1.350 . S
C2421 C2424 1.463 . S
C2421 C2426 1.350 . S
C2421 N2429 1.427 . S
C2422 H2413 0.930 . S
C2422 C2420 1.378 . S
C2422 C2423 1.367 . S
C2423 C2422 1.367 . S
C2423 C2425 1.433 . S
C2424 C2420 1.350 . S
C2424 C2421 1.463 . S
C2424 N2428 1.427 . S
C2425 H2415 0.929 . S
C2425 C2423 1.433 . S
C2425 N2428 1.384 . S
C2426 H2417 0.929 . S
C2426 C2418 1.378 . S
C2426 C2421 1.350 . S
C2427 H2414 0.929 . S
C2427 C2419 1.433 . S
C2427 N2429 1.384 . S
N2428 C2424 1.427 . S
N2428 C2425 1.384 . S
N2429 C2421 1.427 . S
N2429 C2427 1.384 . S
H2430 C2436 0.930 . S
H2431 C2440 0.930 . S
H2432 C2445 0.929 . S
H2433 C2443 0.929 . S
H2434 C2438 0.929 . S
H2435 C2444 0.929 . S
C2436 H2430 0.930 . S
C2436 C2437 1.367 . S
C2436 C2444 1.378 . S
C2437 C2436 1.367 . S
C2437 C2445 1.433 . S
C2438 H2434 0.929 . S
C2438 C2440 1.378 . S
C2438 C2442 1.350 . S
C2439 C2442 1.463 . S
C2439 C2444 1.350 . S
C2439 N2447 1.427 . S
C2440 H2431 0.930 . S
C2440 C2438 1.378 . S
C2440 C2441 1.367 . S
C2441 C2440 1.367 . S
C2441 C2443 1.433 . S
C2442 C2438 1.350 . S
C2442 C2439 1.463 . S
C2442 N2446 1.427 . S
C2443 H2433 0.929 . S
C2443 C2441 1.433 . S
C2443 N2446 1.384 . S
C2444 H2435 0.929 . S
C2444 C2436 1.378 . S
C2444 C2439 1.350 . S
C2445 H2432 0.929 . S
C2445 C2437 1.433 . S
C2445 N2447 1.384 . S
N2446 C2442 1.427 . S
N2446 C2443 1.384 . S
N2447 C2439 1.427 . S
N2447 C2445 1.384 . S
H2448 C2454 0.930 . S
H2449 C2458 0.930 . S
H2450 C2463 0.929 1_565 S
H2451 C2461 0.929 . S
H2452 C2456 0.929 . S
H2453 C2462 0.929 . S
C2454 H2448 0.930 . S
C2454 C2455 1.367 . S
C2454 C2462 1.378 . S
C2455 C2454 1.367 . S
C2455 C2463 1.433 . S
C2456 H2452 0.929 . S
C2456 C2458 1.378 . S
C2456 C2460 1.350 . S
C2457 C2460 1.463 . S
C2457 C2462 1.350 . S
C2457 N2465 1.427 . S
C2458 H2449 0.930 . S
C2458 C2456 1.378 . S
C2458 C2459 1.367 . S
C2459 C2458 1.367 . S
C2459 C2461 1.433 . S
C2460 C2456 1.350 . S
C2460 C2457 1.463 . S
C2460 N2464 1.427 . S
C2461 H2451 0.929 . S
C2461 C2459 1.433 . S
C2461 N2464 1.384 . S
C2462 H2453 0.929 . S
C2462 C2454 1.378 . S
C2462 C2457 1.350 . S
C2463 H2450 0.929 1_545 S
C2463 C2455 1.433 . S
C2463 N2465 1.384 . S
N2464 C2460 1.427 . S
N2464 C2461 1.384 . S
N2465 C2457 1.427 . S
N2465 C2463 1.384 . S
H2466 C2472 0.930 . S
H2467 C2476 0.930 . S
H2468 C2481 0.929 . S
H2469 C2479 0.929 . S
H2470 C2474 0.929 . S
H2471 C2480 0.929 . S
C2472 H2466 0.930 . S
C2472 C2473 1.367 . S
C2472 C2480 1.378 1_455 S
C2473 C2472 1.367 . S
C2473 C2481 1.433 1_455 S
C2474 H2470 0.929 . S
C2474 C2476 1.378 . S
C2474 C2478 1.350 . S
C2475 C2478 1.463 . S
C2475 C2480 1.350 . S
C2475 N2483 1.427 . S
C2476 H2467 0.930 . S
C2476 C2474 1.378 . S
C2476 C2477 1.367 . S
C2477 C2476 1.367 . S
C2477 C2479 1.433 . S
C2478 C2474 1.350 . S
C2478 C2475 1.463 . S
C2478 N2482 1.427 . S
C2479 H2469 0.929 . S
C2479 C2477 1.433 . S
C2479 N2482 1.384 . S
C2480 H2471 0.929 . S
C2480 C2472 1.378 1_655 S
C2480 C2475 1.350 . S
C2481 H2468 0.929 . S
C2481 C2473 1.433 1_655 S
C2481 N2483 1.384 . S
N2482 C2478 1.427 . S
N2482 C2479 1.384 . S
N2483 C2475 1.427 . S
N2483 C2481 1.384 . S
H2484 C2490 0.930 . S
H2485 C2494 0.930 . S
H2486 C2499 0.929 . S
H2487 C2497 0.929 . S
H2488 C2492 0.929 . S
H2489 C2498 0.929 . S
C2490 H2484 0.930 . S
C2490 C2491 1.367 . S
C2490 C2498 1.378 . S
C2491 C2490 1.367 . S
C2491 C2499 1.433 . S
C2492 H2488 0.929 . S
C2492 C2494 1.378 . S
C2492 C2496 1.350 . S
C2493 C2496 1.463 . S
C2493 C2498 1.350 . S
C2493 N2501 1.427 . S
C2494 H2485 0.930 . S
C2494 C2492 1.378 . S
C2494 C2495 1.367 . S
C2495 C2494 1.367 . S
C2495 C2497 1.433 . S
C2496 C2492 1.350 . S
C2496 C2493 1.463 . S
C2496 N2500 1.427 . S
C2497 H2487 0.929 . S
C2497 C2495 1.433 . S
C2497 N2500 1.384 . S
C2498 H2489 0.929 . S
C2498 C2490 1.378 . S
C2498 C2493 1.350 . S
C2499 H2486 0.929 . S
C2499 C2491 1.433 . S
C2499 N2501 1.384 . S
N2500 C2496 1.427 . S
N2500 C2497 1.384 . S
N2501 C2493 1.427 . S
N2501 C2499 1.384 . S
H2502 C2508 0.930 . S
H2503 C2512 0.930 . S
H2504 C2517 0.929 . S
H2505 C2515 0.929 . S
H2506 C2510 0.929 . S
H2507 C2516 0.929 . S
C2508 H2502 0.930 . S
C2508 C2509 1.367 . S
C2508 C2516 1.378 . S
C2509 C2508 1.367 . S
C2509 C2517 1.433 . S
C2510 H2506 0.929 . S
C2510 C2512 1.378 . S
C2510 C2514 1.350 . S
C2511 C2514 1.463 . S
C2511 C2516 1.350 . S
C2511 N2519 1.427 . S
C2512 H2503 0.930 . S
C2512 C2510 1.378 . S
C2512 C2513 1.367 . S
C2513 C2512 1.367 . S
C2513 C2515 1.433 . S
C2514 C2510 1.350 . S
C2514 C2511 1.463 . S
C2514 N2518 1.427 . S
C2515 H2505 0.929 . S
C2515 C2513 1.433 . S
C2515 N2518 1.384 . S
C2516 H2507 0.929 . S
C2516 C2508 1.378 . S
C2516 C2511 1.350 . S
C2517 H2504 0.929 . S
C2517 C2509 1.433 . S
C2517 N2519 1.384 . S
N2518 C2514 1.427 . S
N2518 C2515 1.384 . S
N2519 C2511 1.427 . S
N2519 C2517 1.384 . S
H2520 C2526 0.930 . S
H2521 C2530 0.942 . S
H2522 C2535 0.929 . S
H2523 C2533 0.929 . S
H2524 C2528 0.929 . S
H2525 C2534 0.929 . S
C2526 H2520 0.930 . S
C2526 C2527 1.367 . S
C2526 C2534 1.378 . S
C2527 C2526 1.367 . S
C2527 C2535 1.433 . S
C2528 H2524 0.929 . S
C2528 C2530 1.378 . S
C2528 C2532 1.350 . S
C2529 C2532 1.463 . S
C2529 C2534 1.350 . S
C2529 N2537 1.427 . S
C2530 H2521 0.942 . S
C2530 C2528 1.378 . S
C2530 C2531 1.367 . S
C2531 C2530 1.367 . S
C2531 C2533 1.433 . S
C2532 C2528 1.350 . S
C2532 C2529 1.463 . S
C2532 N2536 1.427 . S
C2533 H2523 0.929 . S
C2533 C2531 1.433 . S
C2533 N2536 1.384 . S
C2534 H2525 0.929 . S
C2534 C2526 1.378 . S
C2534 C2529 1.350 . S
C2535 H2522 0.929 . S
C2535 C2527 1.433 . S
C2535 N2537 1.384 . S
N2536 C2532 1.427 . S
N2536 C2533 1.384 . S
N2537 C2529 1.427 . S
N2537 C2535 1.384 . S
H2538 C2544 0.930 . S
H2539 C2548 0.930 . S
H2540 C2553 0.929 . S
H2541 C2551 0.935 . S
H2542 C2546 0.929 . S
H2543 C2552 0.929 . S
C2544 H2538 0.930 . S
C2544 C2545 1.367 . S
C2544 C2552 1.378 . S
C2545 C2544 1.367 . S
C2545 C2553 1.433 . S
C2546 H2542 0.929 . S
C2546 C2548 1.378 . S
C2546 C2550 1.350 . S
C2547 C2550 1.463 . S
C2547 C2552 1.350 . S
C2547 N2555 1.427 . S
C2548 H2539 0.930 . S
C2548 C2546 1.378 . S
C2548 C2549 1.372 . S
C2549 C2548 1.372 . S
C2549 C2551 1.459 1_565 S
C2550 C2546 1.350 . S
C2550 C2547 1.463 . S
C2550 N2554 1.427 . S
C2551 H2541 0.935 . S
C2551 C2549 1.459 1_545 S
C2551 N2554 1.365 1_545 S
C2552 H2543 0.929 . S
C2552 C2544 1.378 . S
C2552 C2547 1.350 . S
C2553 H2540 0.929 . S
C2553 C2545 1.433 . S
C2553 N2555 1.384 . S
N2554 C2550 1.427 . S
N2554 C2551 1.365 1_565 S
N2555 C2547 1.427 . S
N2555 C2553 1.384 . S
H2556 C2562 0.930 . S
H2557 C2566 0.930 . S
H2558 C2571 0.929 . S
H2559 C2569 0.929 . S
H2560 C2564 0.929 . S
H2561 C2570 0.929 . S
C2562 H2556 0.930 . S
C2562 C2563 1.367 . S
C2562 C2570 1.378 . S
C2563 C2562 1.367 . S
C2563 C2571 1.433 . S
C2564 H2560 0.929 . S
C2564 C2566 1.378 . S
C2564 C2568 1.350 1_655 S
C2565 C2568 1.463 . S
C2565 C2570 1.350 . S
C2565 N2573 1.427 . S
C2566 H2557 0.930 . S
C2566 C2564 1.378 . S
C2566 C2567 1.395 . S
C2567 C2566 1.395 . S
C2567 C2569 1.413 1_655 S
C2568 C2564 1.350 1_455 S
C2568 C2565 1.463 . S
C2568 N2572 1.427 . S
C2569 H2559 0.929 . S
C2569 C2567 1.413 1_455 S
C2569 N2572 1.384 . S
C2570 H2561 0.929 . S
C2570 C2562 1.378 . S
C2570 C2565 1.350 . S
C2571 H2558 0.929 . S
C2571 C2563 1.433 . S
C2571 N2573 1.384 . S
N2572 C2568 1.427 . S
N2572 C2569 1.384 . S
N2573 C2565 1.427 . S
N2573 C2571 1.384 . S
H2574 C2580 0.930 . S
H2575 C2584 0.930 . S
H2576 C2589 0.929 . S
H2577 C2587 0.929 . S
H2578 C2582 0.929 . S
H2579 C2588 0.929 . S
C2580 H2574 0.930 . S
C2580 C2581 1.367 . S
C2580 C2588 1.378 . S
C2581 C2580 1.367 . S
C2581 C2589 1.433 . S
C2582 H2578 0.929 . S
C2582 C2584 1.378 . S
C2582 C2586 1.350 . S
C2583 C2586 1.463 . S
C2583 C2588 1.350 . S
C2583 N2591 1.427 . S
C2584 H2575 0.930 . S
C2584 C2582 1.378 . S
C2584 C2585 1.367 . S
C2585 C2584 1.367 . S
C2585 C2587 1.433 . S
C2586 C2582 1.350 . S
C2586 C2583 1.463 . S
C2586 N2590 1.427 . S
C2587 H2577 0.929 . S
C2587 C2585 1.433 . S
C2587 N2590 1.384 . S
C2588 H2579 0.929 . S
C2588 C2580 1.378 . S
C2588 C2583 1.350 . S
C2589 H2576 0.929 . S
C2589 C2581 1.433 . S
C2589 N2591 1.384 . S
N2590 C2586 1.427 . S
N2590 C2587 1.384 . S
N2591 C2583 1.427 . S
N2591 C2589 1.384 . S
H2592 C2598 0.930 . S
H2593 C2602 0.930 . S
H2594 C2607 0.929 . S
H2595 C2605 0.929 . S
H2596 C2600 0.929 . S
H2597 C2606 0.929 . S
C2598 H2592 0.930 . S
C2598 C2599 1.367 . S
C2598 C2606 1.378 . S
C2599 C2598 1.367 . S
C2599 C2607 1.433 . S
C2600 H2596 0.929 . S
C2600 C2602 1.378 . S
C2600 C2604 1.350 . S
C2601 C2604 1.463 . S
C2601 C2606 1.350 . S
C2601 N2609 1.427 . S
C2602 H2593 0.930 . S
C2602 C2600 1.378 . S
C2602 C2603 1.367 . S
C2603 C2602 1.367 . S
C2603 C2605 1.433 . S
C2604 C2600 1.350 . S
C2604 C2601 1.463 . S
C2604 N2608 1.427 . S
C2605 H2595 0.929 . S
C2605 C2603 1.433 . S
C2605 N2608 1.384 . S
C2606 H2597 0.929 . S
C2606 C2598 1.378 . S
C2606 C2601 1.350 . S
C2607 H2594 0.929 . S
C2607 C2599 1.433 . S
C2607 N2609 1.384 . S
N2608 C2604 1.427 . S
N2608 C2605 1.384 . S
N2609 C2601 1.427 . S
N2609 C2607 1.384 . S
H2610 C2616 0.930 . S
H2611 C2620 0.930 . S
H2612 C2625 0.929 . S
H2613 C2623 0.929 . S
H2614 C2618 0.929 . S
H2615 C2624 0.929 . S
C2616 H2610 0.930 . S
C2616 C2617 1.367 . S
C2616 C2624 1.378 . S
C2617 C2616 1.367 . S
C2617 C2625 1.433 . S
C2618 H2614 0.929 . S
C2618 C2620 1.378 . S
C2618 C2622 1.350 . S
C2619 C2622 1.463 . S
C2619 C2624 1.350 . S
C2619 N2627 1.427 . S
C2620 H2611 0.930 . S
C2620 C2618 1.378 . S
C2620 C2621 1.367 . S
C2621 C2620 1.367 . S
C2621 C2623 1.433 . S
C2622 C2618 1.350 . S
C2622 C2619 1.463 . S
C2622 N2626 1.427 . S
C2623 H2613 0.929 . S
C2623 C2621 1.433 . S
C2623 N2626 1.384 . S
C2624 H2615 0.929 . S
C2624 C2616 1.378 . S
C2624 C2619 1.350 . S
C2625 H2612 0.929 . S
C2625 C2617 1.433 . S
C2625 N2627 1.384 . S
N2626 C2622 1.427 . S
N2626 C2623 1.384 . S
N2627 C2619 1.427 . S
N2627 C2625 1.384 . S
H2628 C2634 0.896 1_455 S
H2629 C2638 0.930 . S
H2630 C2643 0.929 . S
H2631 C2641 0.929 . S
H2632 C2636 0.929 . S
H2633 C2642 0.929 . S
C2634 H2628 0.896 1_655 S
C2634 C2635 1.367 . S
C2634 C2642 1.378 . S
C2635 C2634 1.367 . S
C2635 C2643 1.433 . S
C2636 H2632 0.929 . S
C2636 C2638 1.378 . S
C2636 C2640 1.350 . S
C2637 C2640 1.463 . S
C2637 C2642 1.350 . S
C2637 N2645 1.427 . S
C2638 H2629 0.930 . S
C2638 C2636 1.378 . S
C2638 C2639 1.367 . S
C2639 C2638 1.367 . S
C2639 C2641 1.433 . S
C2640 C2636 1.350 . S
C2640 C2637 1.463 . S
C2640 N2644 1.427 . S
C2641 H2631 0.929 . S
C2641 C2639 1.433 . S
C2641 N2644 1.384 . S
C2642 H2633 0.929 . S
C2642 C2634 1.378 . S
C2642 C2637 1.350 . S
C2643 H2630 0.929 . S
C2643 C2635 1.433 . S
C2643 N2645 1.384 . S
N2644 C2640 1.427 . S
N2644 C2641 1.384 . S
N2645 C2637 1.427 . S
N2645 C2643 1.384 . S
H2646 C2652 0.961 . S
H2647 C2656 0.930 . S
H2648 C2661 0.929 . S
H2649 C2659 0.971 . S
H2650 C2654 0.929 . S
H2651 C2660 0.929 1_565 S
C2652 H2646 0.961 . S
C2652 C2653 1.367 . S
C2652 C2660 1.378 . S
C2653 C2652 1.367 . S
C2653 C2661 1.433 . S
C2654 H2650 0.929 . S
C2654 C2656 1.378 . S
C2654 C2658 1.350 . S
C2655 C2658 1.463 . S
C2655 C2660 1.350 . S
C2655 N2663 1.427 . S
C2656 H2647 0.930 . S
C2656 C2654 1.378 . S
C2656 C2657 1.367 . S
C2657 C2656 1.367 . S
C2657 C2659 1.413 1_545 S
C2658 C2654 1.350 . S
C2658 C2655 1.463 . S
C2658 N2662 1.427 . S
C2659 H2649 0.971 . S
C2659 C2657 1.413 1_565 S
C2659 N2662 1.361 1_565 S
C2660 H2651 0.929 1_545 S
C2660 C2652 1.378 . S
C2660 C2655 1.350 . S
C2661 H2648 0.929 . S
C2661 C2653 1.433 . S
C2661 N2663 1.384 . S
N2662 C2658 1.427 . S
N2662 C2659 1.361 1_545 S
N2663 C2655 1.427 . S
N2663 C2661 1.384 . S
H2664 C2670 0.930 . S
H2665 C2674 0.930 . S
H2666 C2679 0.929 . S
H2667 C2677 0.929 . S
H2668 C2672 0.929 . S
H2669 C2678 0.929 . S
C2670 H2664 0.930 . S
C2670 C2671 1.367 . S
C2670 C2678 1.378 . S
C2671 C2670 1.367 . S
C2671 C2679 1.433 . S
C2672 H2668 0.929 . S
C2672 C2674 1.378 . S
C2672 C2676 1.350 . S
C2673 C2676 1.463 . S
C2673 C2678 1.350 . S
C2673 N2681 1.427 . S
C2674 H2665 0.930 . S
C2674 C2672 1.378 . S
C2674 C2675 1.367 . S
C2675 C2674 1.367 . S
C2675 C2677 1.433 . S
C2676 C2672 1.350 . S
C2676 C2673 1.463 . S
C2676 N2680 1.427 . S
C2677 H2667 0.929 . S
C2677 C2675 1.433 . S
C2677 N2680 1.384 . S
C2678 H2669 0.929 . S
C2678 C2670 1.378 . S
C2678 C2673 1.350 . S
C2679 H2666 0.929 . S
C2679 C2671 1.433 . S
C2679 N2681 1.384 . S
N2680 C2676 1.427 . S
N2680 C2677 1.384 . S
N2681 C2673 1.427 . S
N2681 C2679 1.384 . S
H2682 C2688 0.930 . S
H2683 C2692 0.930 . S
H2684 C2697 0.929 . S
H2685 C2695 0.929 . S
H2686 C2690 0.929 . S
H2687 C2696 0.929 . S
C2688 H2682 0.930 . S
C2688 C2689 1.367 . S
C2688 C2696 1.378 . S
C2689 C2688 1.367 . S
C2689 C2697 1.433 . S
C2690 H2686 0.929 . S
C2690 C2692 1.378 . S
C2690 C2694 1.350 . S
C2691 C2694 1.463 . S
C2691 C2696 1.350 . S
C2691 N2699 1.427 . S
C2692 H2683 0.930 . S
C2692 C2690 1.378 . S
C2692 C2693 1.367 . S
C2693 C2692 1.367 . S
C2693 C2695 1.433 . S
C2694 C2690 1.350 . S
C2694 C2691 1.463 . S
C2694 N2698 1.427 . S
C2695 H2685 0.929 . S
C2695 C2693 1.433 . S
C2695 N2698 1.384 . S
C2696 H2687 0.929 . S
C2696 C2688 1.378 . S
C2696 C2691 1.350 . S
C2697 H2684 0.929 . S
C2697 C2689 1.433 . S
C2697 N2699 1.384 . S
N2698 C2694 1.427 . S
N2698 C2695 1.384 . S
N2699 C2691 1.427 . S
N2699 C2697 1.384 . S
H2700 C2706 0.930 . S
H2701 C2710 0.930 . S
H2702 C2715 0.929 . S
H2703 C2713 0.929 . S
H2704 C2708 0.929 . S
H2705 C2714 0.929 . S
C2706 H2700 0.930 . S
C2706 C2707 1.367 . S
C2706 C2714 1.378 . S
C2707 C2706 1.367 . S
C2707 C2715 1.433 . S
C2708 H2704 0.929 . S
C2708 C2710 1.378 . S
C2708 C2712 1.350 . S
C2709 C2712 1.463 . S
C2709 C2714 1.350 . S
C2709 N2717 1.427 . S
C2710 H2701 0.930 . S
C2710 C2708 1.378 . S
C2710 C2711 1.367 . S
C2711 C2710 1.367 . S
C2711 C2713 1.433 . S
C2712 C2708 1.350 . S
C2712 C2709 1.463 . S
C2712 N2716 1.427 . S
C2713 H2703 0.929 . S
C2713 C2711 1.433 . S
C2713 N2716 1.384 . S
C2714 H2705 0.929 . S
C2714 C2706 1.378 . S
C2714 C2709 1.350 . S
C2715 H2702 0.929 . S
C2715 C2707 1.433 . S
C2715 N2717 1.384 . S
N2716 C2712 1.427 . S
N2716 C2713 1.384 . S
N2717 C2709 1.427 . S
N2717 C2715 1.384 . S
H2718 C2724 0.930 . S
H2719 C2728 0.930 . S
H2720 C2733 0.929 . S
H2721 C2731 0.929 . S
H2722 C2726 0.929 . S
H2723 C2732 0.929 . S
C2724 H2718 0.930 . S
C2724 C2725 1.367 . S
C2724 C2732 1.378 . S
C2725 C2724 1.367 . S
C2725 C2733 1.433 . S
C2726 H2722 0.929 . S
C2726 C2728 1.378 . S
C2726 C2730 1.350 . S
C2727 C2730 1.463 . S
C2727 C2732 1.350 . S
C2727 N2735 1.427 . S
C2728 H2719 0.930 . S
C2728 C2726 1.378 . S
C2728 C2729 1.367 . S
C2729 C2728 1.367 . S
C2729 C2731 1.433 . S
C2730 C2726 1.350 . S
C2730 C2727 1.463 . S
C2730 N2734 1.427 . S
C2731 H2721 0.929 . S
C2731 C2729 1.433 . S
C2731 N2734 1.384 . S
C2732 H2723 0.929 . S
C2732 C2724 1.378 . S
C2732 C2727 1.350 . S
C2733 H2720 0.929 . S
C2733 C2725 1.433 . S
C2733 N2735 1.384 . S
N2734 C2730 1.427 . S
N2734 C2731 1.384 . S
N2735 C2727 1.427 . S
N2735 C2733 1.384 . S
H2736 C2742 0.930 1_655 S
H2737 C2746 0.930 . S
H2738 C2751 0.929 . S
H2739 C2749 0.929 . S
H2740 C2744 0.929 . S
H2741 C2750 0.929 . S
C2742 H2736 0.930 1_455 S
C2742 C2743 1.367 . S
C2742 C2750 1.378 . S
C2743 C2742 1.367 . S
C2743 C2751 1.433 . S
C2744 H2740 0.929 . S
C2744 C2746 1.378 . S
C2744 C2748 1.350 . S
C2745 C2748 1.463 . S
C2745 C2750 1.350 . S
C2745 N2753 1.427 . S
C2746 H2737 0.930 . S
C2746 C2744 1.378 . S
C2746 C2747 1.367 . S
C2747 C2746 1.367 . S
C2747 C2749 1.433 . S
C2748 C2744 1.350 . S
C2748 C2745 1.463 . S
C2748 N2752 1.427 . S
C2749 H2739 0.929 . S
C2749 C2747 1.433 . S
C2749 N2752 1.384 . S
C2750 H2741 0.929 . S
C2750 C2742 1.378 . S
C2750 C2745 1.350 . S
C2751 H2738 0.929 . S
C2751 C2743 1.433 . S
C2751 N2753 1.384 . S
N2752 C2748 1.427 . S
N2752 C2749 1.384 . S
N2753 C2745 1.427 . S
N2753 C2751 1.384 . S
H2754 C2760 0.930 . S
H2755 C2764 0.930 . S
H2756 C2769 0.929 . S
H2757 C2767 0.929 . S
H2758 C2762 0.929 . S
H2759 C2768 0.929 . S
C2760 H2754 0.930 . S
C2760 C2761 1.367 . S
C2760 C2768 1.378 . S
C2761 C2760 1.367 . S
C2761 C2769 1.433 . S
C2762 H2758 0.929 . S
C2762 C2764 1.378 . S
C2762 C2766 1.350 . S
C2763 C2766 1.463 . S
C2763 C2768 1.350 . S
C2763 N2771 1.427 . S
C2764 H2755 0.930 . S
C2764 C2762 1.378 . S
C2764 C2765 1.367 . S
C2765 C2764 1.367 . S
C2765 C2767 1.433 . S
C2766 C2762 1.350 . S
C2766 C2763 1.463 . S
C2766 N2770 1.427 . S
C2767 H2757 0.929 . S
C2767 C2765 1.433 . S
C2767 N2770 1.384 . S
C2768 H2759 0.929 . S
C2768 C2760 1.378 . S
C2768 C2763 1.350 . S
C2769 H2756 0.929 . S
C2769 C2761 1.433 . S
C2769 N2771 1.384 . S
N2770 C2766 1.427 . S
N2770 C2767 1.384 . S
N2771 C2763 1.427 . S
N2771 C2769 1.384 . S
H2772 C2778 0.931 . S
H2773 C2782 0.930 . S
H2774 C2787 0.929 . S
H2775 C2785 0.929 . S
H2776 C2780 0.929 . S
H2777 C2786 0.929 . S
C2778 H2772 0.931 . S
C2778 C2779 1.367 . S
C2778 C2786 1.378 . S
C2779 C2778 1.367 . S
C2779 C2787 1.433 . S
C2780 H2776 0.929 . S
C2780 C2782 1.378 . S
C2780 C2784 1.350 . S
C2781 C2784 1.463 . S
C2781 C2786 1.350 . S
C2781 N2789 1.427 . S
C2782 H2773 0.930 . S
C2782 C2780 1.378 . S
C2782 C2783 1.367 . S
C2783 C2782 1.367 . S
C2783 C2785 1.433 . S
C2784 C2780 1.350 . S
C2784 C2781 1.463 . S
C2784 N2788 1.427 . S
C2785 H2775 0.929 . S
C2785 C2783 1.433 . S
C2785 N2788 1.384 . S
C2786 H2777 0.929 . S
C2786 C2778 1.378 . S
C2786 C2781 1.350 . S
C2787 H2774 0.929 . S
C2787 C2779 1.433 . S
C2787 N2789 1.384 . S
N2788 C2784 1.427 . S
N2788 C2785 1.384 . S
N2789 C2781 1.427 . S
N2789 C2787 1.384 . S
H2790 C2796 0.885 1_655 S
H2791 C2800 0.930 . S
H2792 C2805 0.929 . S
H2793 C2803 0.929 . S
H2794 C2798 0.929 . S
H2795 C2804 0.929 . S
C2796 H2790 0.885 1_455 S
C2796 C2797 1.366 . S
C2796 C2804 1.428 . S
C2797 C2796 1.366 . S
C2797 C2805 1.433 . S
C2798 H2794 0.929 . S
C2798 C2800 1.378 . S
C2798 C2802 1.350 . S
C2799 C2802 1.463 . S
C2799 C2804 1.350 . S
C2799 N2807 1.427 . S
C2800 H2791 0.930 . S
C2800 C2798 1.378 . S
C2800 C2801 1.367 . S
C2801 C2800 1.367 . S
C2801 C2803 1.433 . S
C2802 C2798 1.350 . S
C2802 C2799 1.463 . S
C2802 N2806 1.427 . S
C2803 H2793 0.929 . S
C2803 C2801 1.433 . S
C2803 N2806 1.384 . S
C2804 H2795 0.929 . S
C2804 C2796 1.428 . S
C2804 C2799 1.350 . S
C2805 H2792 0.929 . S
C2805 C2797 1.433 . S
C2805 N2807 1.384 . S
N2806 C2802 1.427 . S
N2806 C2803 1.384 . S
N2807 C2799 1.427 . S
N2807 C2805 1.384 . S
H2808 C2814 0.930 . S
H2809 C2818 0.930 . S
H2810 C2823 0.929 . S
H2811 C2821 0.929 . S
H2812 C2816 0.929 . S
H2813 C2822 0.929 . S
C2814 H2808 0.930 . S
C2814 C2815 1.367 . S
C2814 C2822 1.378 . S
C2815 C2814 1.367 . S
C2815 C2823 1.433 . S
C2816 H2812 0.929 . S
C2816 C2818 1.378 . S
C2816 C2820 1.350 . S
C2817 C2820 1.463 . S
C2817 C2822 1.350 . S
C2817 N2825 1.427 . S
C2818 H2809 0.930 . S
C2818 C2816 1.378 . S
C2818 C2819 1.367 . S
C2819 C2818 1.367 . S
C2819 C2821 1.433 1_655 S
C2820 C2816 1.350 . S
C2820 C2817 1.463 . S
C2820 N2824 1.427 . S
C2821 H2811 0.929 . S
C2821 C2819 1.433 1_455 S
C2821 N2824 1.384 1_455 S
C2822 H2813 0.929 . S
C2822 C2814 1.378 . S
C2822 C2817 1.350 . S
C2823 H2810 0.929 . S
C2823 C2815 1.433 . S
C2823 N2825 1.384 . S
N2824 C2820 1.427 . S
N2824 C2821 1.384 1_655 S
N2825 C2817 1.427 . S
N2825 C2823 1.384 . S
H2826 C2832 0.930 . S
H2827 C2836 0.930 . S
H2828 C2841 0.929 . S
H2829 C2839 0.929 . S
H2830 C2834 0.929 . S
H2831 C2840 0.929 . S
C2832 H2826 0.930 . S
C2832 C2833 1.367 . S
C2832 C2840 1.378 . S
C2833 C2832 1.367 . S
C2833 C2841 1.433 . S
C2834 H2830 0.929 . S
C2834 C2836 1.378 . S
C2834 C2838 1.350 . S
C2835 C2838 1.463 . S
C2835 C2840 1.350 . S
C2835 N2843 1.427 . S
C2836 H2827 0.930 . S
C2836 C2834 1.378 . S
C2836 C2837 1.367 . S
C2837 C2836 1.367 . S
C2837 C2839 1.433 . S
C2838 C2834 1.350 . S
C2838 C2835 1.463 . S
C2838 N2842 1.427 . S
C2839 H2829 0.929 . S
C2839 C2837 1.433 . S
C2839 N2842 1.384 . S
C2840 H2831 0.929 . S
C2840 C2832 1.378 . S
C2840 C2835 1.350 . S
C2841 H2828 0.929 . S
C2841 C2833 1.433 . S
C2841 N2843 1.384 . S
N2842 C2838 1.427 . S
N2842 C2839 1.384 . S
N2843 C2835 1.427 . S
N2843 C2841 1.384 . S
H2844 C2850 0.930 . S
H2845 C2854 0.930 . S
H2846 C2859 0.929 . S
H2847 C2857 0.929 . S
H2848 C2852 0.929 . S
H2849 C2858 0.929 . S
C2850 H2844 0.930 . S
C2850 C2851 1.367 . S
C2850 C2858 1.378 . S
C2851 C2850 1.367 . S
C2851 C2859 1.433 . S
C2852 H2848 0.929 . S
C2852 C2854 1.378 . S
C2852 C2856 1.350 . S
C2853 C2856 1.463 . S
C2853 C2858 1.350 . S
C2853 N2861 1.427 . S
C2854 H2845 0.930 . S
C2854 C2852 1.378 . S
C2854 C2855 1.367 . S
C2855 C2854 1.367 . S
C2855 C2857 1.433 1_545 S
C2856 C2852 1.350 . S
C2856 C2853 1.463 . S
C2856 N2860 1.426 . S
C2857 H2847 0.929 . S
C2857 C2855 1.433 1_565 S
C2857 N2860 1.383 1_565 S
C2858 H2849 0.929 . S
C2858 C2850 1.378 . S
C2858 C2853 1.350 . S
C2859 H2846 0.929 . S
C2859 C2851 1.433 . S
C2859 N2861 1.384 . S
N2860 C2856 1.426 . S
N2860 C2857 1.383 1_545 S
N2861 C2853 1.427 . S
N2861 C2859 1.384 . S
C1573 C10 1.222 1_655 S
C1577 C963 1.170 . S
C1591 C23 1.610 . S
C1595 C1043 1.576 . S
C1613 C1111 1.378 . S
C1609 C29 1.424 . S
C1627 C30 1.832 . S
C1631 C1191 1.796 . S
C1645 C5 1.605 . S
C1649 C1265 1.581 . S
C1663 C18 1.615 . S
C1667 C1333 1.555 . S
C1681 C49 1.120 1_556 S
C1685 C1259 1.094 . S
C1703 C1339 1.494 . S
C1699 C62 1.499 . S
C1721 C1185 1.348 . S
C1717 C70 1.350 1_556 S
C1735 C75 1.772 . S
C1739 C1117 1.753 . S
C1757 C969 1.531 . S
C1753 C44 1.521 . S
C1771 C57 1.463 . S
C1775 C1037 1.447 . S
C1789 C88 1.372 . S
C1793 C1407 1.287 . S
C1807 C101 1.645 . S
C1811 C1487 1.600 . S
C1829 C1555 1.496 . S
C1825 C107 1.556 . S
C1843 C108 1.941 . S
C1847 C303 1.889 . S
C1861 C83 1.716 . S
C1865 C377 1.672 . S
C1879 C96 1.634 . S
C1883 C445 1.573 . S
C1897 C127 1.149 . S
C1901 C371 1.122 . S
C1915 C140 1.525 . S
C1919 C451 1.523 . S
C1937 C297 1.392 . S
C1933 C146 1.400 . S
C1955 C1561 1.851 . S
C1951 C147 1.868 . S
C1973 C1413 1.574 . S
C1969 C122 1.583 . S
C1991 C1481 1.487 . S
C1987 C135 1.500 . S
C2005 C160 1.315 . S
C2009 C519 1.237 . S
C2023 C173 1.647 . S
C2027 C599 1.605 . S
C2041 C185 1.558 . S
C2045 C667 1.502 . S
C2059 C186 1.991 . S
C2063 C747 1.936 . S
C2081 C821 1.670 . S
C2077 C159 1.715 . S
C2099 C889 1.590 . S
C2095 C172 1.665 . S
C2117 C815 1.179 . S
C2113 C205 1.206 . S
C2135 C895 1.515 . S
C2131 C218 1.521 . S
C2149 C224 1.394 . S
C2153 C741 1.378 . S
C2171 C673 1.805 . S
C2167 C225 1.819 . S
C2185 C200 1.591 . S
C2189 C525 1.588 . S
C2207 C593 1.454 . S
C2203 C213 1.471 . S
C2225 C273 1.906 . S
C2221 C4 1.947 . S
C2239 C17 1.459 . S
C2243 C347 1.440 . S
C2261 C433 1.458 . S
C2257 C31 1.461 . S
C2279 C507 1.208 . S
C2275 C36 1.209 1_556 S
C2297 C569 1.585 . S
C2293 C3 1.606 . S
C2315 C655 1.532 . S
C2311 C16 1.533 . S
C2329 C43 2.075 . S
C2333 C643 1.998 . S
C2347 C56 1.598 . S
C2351 C495 1.536 . S
C2365 C68 1.629 . S
C2369 C581 1.596 . S
C2383 C69 1.414 . S
C2387 C359 1.375 . S
C2405 C421 1.680 . S
C2401 C42 1.748 . S
C2419 C55 1.701 . S
C2423 C285 1.668 . S
C2441 C717 1.894 . S
C2437 C82 1.937 . S
C2455 C95 1.541 1_545 S
C2459 C791 1.530 . S
C2473 C109 1.493 . S
C2477 C877 1.490 . S
C2495 C951 1.140 . S
C2491 C114 1.147 . S
C2509 C81 1.587 . S
C2513 C1013 1.566 . S
C2527 C94 1.482 . S
C2531 C1099 1.484 . S
C2545 C121 1.930 . S
C2549 C1087 1.842 1_565 S
C2563 C134 1.506 . S
C2567 C939 1.455 . S
C2585 C1025 1.565 . S
C2581 C148 1.596 . S
C2599 C153 1.413 . S
C2603 C803 1.361 . S
C2617 C120 1.786 1_545 S
C2621 C865 1.722 . S
C2639 C729 1.715 . S
C2635 C133 1.749 1_655 S
C2657 C1161 1.836 . S
C2653 C166 1.869 . S
C2671 C179 1.419 . S
C2675 C1235 1.412 . S
C2689 C187 1.451 . S
C2693 C1321 1.443 . S
C2711 C1395 1.209 . S
C2707 C192 1.226 . S
C2729 C1457 1.623 . S
C2725 C161 1.644 1_565 S
C2743 C174 1.587 1_455 S
C2747 C1543 1.585 . S
C2761 C199 2.064 . S
C2765 C1531 1.979 . S
C2779 C212 1.680 1_565 S
C2783 C1383 1.615 . S
C2801 C1469 1.619 . S
C2797 C226 1.651 1_455 S
C2819 C1247 1.224 . S
C2815 C231 1.253 . S
C2837 C1309 1.655 . S
C2833 C198 1.722 . S
C2851 C211 1.564 . S
C2855 C1173 1.540 . S
