# Generated by pormake.
# Topology ptr, (4,4)-cn, num edge types: 1
# Building blocks:
#     Node 0, Type 0, BuildingBlock: NAHDIM_clean_sbu_0, # of connection points: 4
#     Node 1, Type 0, BuildingBlock: NAHDIM_clean_sbu_0, # of connection points: 4
#     Node 2, Type 0, BuildingBlock: NAHDIM_clean_sbu_0, # of connection points: 4
#     Node 3, Type 0, BuildingBlock: NAHDIM_clean_sbu_0, # of connection points: 4
#     Node 4, Type 0, BuildingBlock: NAHDIM_clean_sbu_0, # of connection points: 4
#     Node 5, Type 0, BuildingBlock: NAHDIM_clean_sbu_0, # of connection points: 4
#     Node 6, Type 0, BuildingBlock: NAHDIM_clean_sbu_0, # of connection points: 4
#     Node 7, Type 0, BuildingBlock: NAHDIM_clean_sbu_0, # of connection points: 4
#     Node 8, Type 0, BuildingBlock: NAHDIM_clean_sbu_0, # of connection points: 4
#     Node 9, Type 0, BuildingBlock: NAHDIM_clean_sbu_0, # of connection points: 4
#     Node 10, Type 0, BuildingBlock: NAHDIM_clean_sbu_0, # of connection points: 4
#     Node 11, Type 0, BuildingBlock: NAHDIM_clean_sbu_0, # of connection points: 4
#     Node 12, Type 0, BuildingBlock: NAHDIM_clean_sbu_0, # of connection points: 4
#     Node 13, Type 0, BuildingBlock: NAHDIM_clean_sbu_0, # of connection points: 4
#     Node 14, Type 0, BuildingBlock: NAHDIM_clean_sbu_0, # of connection points: 4
#     Node 15, Type 0, BuildingBlock: NAHDIM_clean_sbu_0, # of connection points: 4
#     Node 16, Type 0, BuildingBlock: NAHDIM_clean_sbu_0, # of connection points: 4
#     Node 17, Type 0, BuildingBlock: NAHDIM_clean_sbu_0, # of connection points: 4
#     Node 18, Type 1, BuildingBlock: NAHDIM_clean_linker_0, # of connection points: 4
#     Node 19, Type 1, BuildingBlock: NAHDIM_clean_linker_0, # of connection points: 4
#     Node 20, Type 1, BuildingBlock: NAHDIM_clean_linker_0, # of connection points: 4
#     Node 21, Type 1, BuildingBlock: NAHDIM_clean_linker_0, # of connection points: 4
#     Node 22, Type 1, BuildingBlock: NAHDIM_clean_linker_0, # of connection points: 4
#     Node 23, Type 1, BuildingBlock: NAHDIM_clean_linker_0, # of connection points: 4
#     Node 24, Type 1, BuildingBlock: NAHDIM_clean_linker_0, # of connection points: 4
#     Node 25, Type 1, BuildingBlock: NAHDIM_clean_linker_0, # of connection points: 4
#     Node 26, Type 1, BuildingBlock: NAHDIM_clean_linker_0, # of connection points: 4
#     Node 27, Type 1, BuildingBlock: NAHDIM_clean_linker_0, # of connection points: 4
#     Node 28, Type 1, BuildingBlock: NAHDIM_clean_linker_0, # of connection points: 4
#     Node 29, Type 1, BuildingBlock: NAHDIM_clean_linker_0, # of connection points: 4
#     Node 30, Type 1, BuildingBlock: NAHDIM_clean_linker_0, # of connection points: 4
#     Node 31, Type 1, BuildingBlock: NAHDIM_clean_linker_0, # of connection points: 4
#     Node 32, Type 1, BuildingBlock: NAHDIM_clean_linker_0, # of connection points: 4
#     Node 33, Type 1, BuildingBlock: NAHDIM_clean_linker_0, # of connection points: 4
#     Node 34, Type 1, BuildingBlock: NAHDIM_clean_linker_0, # of connection points: 4
#     Node 35, Type 1, BuildingBlock: NAHDIM_clean_linker_0, # of connection points: 4
#     Edge 36, Type (0, 1), BuildingBlock: XUDNAN_clean_linker_2, # of connection points: 2
#     Edge 37, Type (0, 1), BuildingBlock: XUDNAN_clean_linker_2, # of connection points: 2
#     Edge 38, Type (0, 1), BuildingBlock: XUDNAN_clean_linker_2, # of connection points: 2
#     Edge 39, Type (0, 1), BuildingBlock: XUDNAN_clean_linker_2, # of connection points: 2
#     Edge 40, Type (0, 1), BuildingBlock: XUDNAN_clean_linker_2, # of connection points: 2
#     Edge 41, Type (0, 1), BuildingBlock: XUDNAN_clean_linker_2, # of connection points: 2
#     Edge 42, Type (0, 1), BuildingBlock: XUDNAN_clean_linker_2, # of connection points: 2
#     Edge 43, Type (0, 1), BuildingBlock: XUDNAN_clean_linker_2, # of connection points: 2
#     Edge 44, Type (0, 1), BuildingBlock: XUDNAN_clean_linker_2, # of connection points: 2
#     Edge 45, Type (0, 1), BuildingBlock: XUDNAN_clean_linker_2, # of connection points: 2
#     Edge 46, Type (0, 1), BuildingBlock: XUDNAN_clean_linker_2, # of connection points: 2
#     Edge 47, Type (0, 1), BuildingBlock: XUDNAN_clean_linker_2, # of connection points: 2
#     Edge 48, Type (0, 1), BuildingBlock: XUDNAN_clean_linker_2, # of connection points: 2
#     Edge 49, Type (0, 1), BuildingBlock: XUDNAN_clean_linker_2, # of connection points: 2
#     Edge 50, Type (0, 1), BuildingBlock: XUDNAN_clean_linker_2, # of connection points: 2
#     Edge 51, Type (0, 1), BuildingBlock: XUDNAN_clean_linker_2, # of connection points: 2
#     Edge 52, Type (0, 1), BuildingBlock: XUDNAN_clean_linker_2, # of connection points: 2
#     Edge 53, Type (0, 1), BuildingBlock: XUDNAN_clean_linker_2, # of connection points: 2
#     Edge 54, Type (0, 1), BuildingBlock: XUDNAN_clean_linker_2, # of connection points: 2
#     Edge 55, Type (0, 1), BuildingBlock: XUDNAN_clean_linker_2, # of connection points: 2
#     Edge 56, Type (0, 1), BuildingBlock: XUDNAN_clean_linker_2, # of connection points: 2
#     Edge 57, Type (0, 1), BuildingBlock: XUDNAN_clean_linker_2, # of connection points: 2
#     Edge 58, Type (0, 1), BuildingBlock: XUDNAN_clean_linker_2, # of connection points: 2
#     Edge 59, Type (0, 1), BuildingBlock: XUDNAN_clean_linker_2, # of connection points: 2
#     Edge 60, Type (0, 1), BuildingBlock: XUDNAN_clean_linker_2, # of connection points: 2
#     Edge 61, Type (0, 1), BuildingBlock: XUDNAN_clean_linker_2, # of connection points: 2
#     Edge 62, Type (0, 1), BuildingBlock: XUDNAN_clean_linker_2, # of connection points: 2
#     Edge 63, Type (0, 1), BuildingBlock: XUDNAN_clean_linker_2, # of connection points: 2
#     Edge 64, Type (0, 1), BuildingBlock: XUDNAN_clean_linker_2, # of connection points: 2
#     Edge 65, Type (0, 1), BuildingBlock: XUDNAN_clean_linker_2, # of connection points: 2
#     Edge 66, Type (0, 1), BuildingBlock: XUDNAN_clean_linker_2, # of connection points: 2
#     Edge 67, Type (0, 1), BuildingBlock: XUDNAN_clean_linker_2, # of connection points: 2
#     Edge 68, Type (0, 1), BuildingBlock: XUDNAN_clean_linker_2, # of connection points: 2
#     Edge 69, Type (0, 1), BuildingBlock: XUDNAN_clean_linker_2, # of connection points: 2
#     Edge 70, Type (0, 1), BuildingBlock: XUDNAN_clean_linker_2, # of connection points: 2
#     Edge 71, Type (0, 1), BuildingBlock: XUDNAN_clean_linker_2, # of connection points: 2
#     Edge 72, Type (0, 1), BuildingBlock: XUDNAN_clean_linker_2, # of connection points: 2
#     Edge 73, Type (0, 1), BuildingBlock: XUDNAN_clean_linker_2, # of connection points: 2
#     Edge 74, Type (0, 1), BuildingBlock: XUDNAN_clean_linker_2, # of connection points: 2
#     Edge 75, Type (0, 1), BuildingBlock: XUDNAN_clean_linker_2, # of connection points: 2
#     Edge 76, Type (0, 1), BuildingBlock: XUDNAN_clean_linker_2, # of connection points: 2
#     Edge 77, Type (0, 1), BuildingBlock: XUDNAN_clean_linker_2, # of connection points: 2
#     Edge 78, Type (0, 1), BuildingBlock: XUDNAN_clean_linker_2, # of connection points: 2
#     Edge 79, Type (0, 1), BuildingBlock: XUDNAN_clean_linker_2, # of connection points: 2
#     Edge 80, Type (0, 1), BuildingBlock: XUDNAN_clean_linker_2, # of connection points: 2
#     Edge 81, Type (0, 1), BuildingBlock: XUDNAN_clean_linker_2, # of connection points: 2
#     Edge 82, Type (0, 1), BuildingBlock: XUDNAN_clean_linker_2, # of connection points: 2
#     Edge 83, Type (0, 1), BuildingBlock: XUDNAN_clean_linker_2, # of connection points: 2
#     Edge 84, Type (0, 1), BuildingBlock: XUDNAN_clean_linker_2, # of connection points: 2
#     Edge 85, Type (0, 1), BuildingBlock: XUDNAN_clean_linker_2, # of connection points: 2
#     Edge 86, Type (0, 1), BuildingBlock: XUDNAN_clean_linker_2, # of connection points: 2
#     Edge 87, Type (0, 1), BuildingBlock: XUDNAN_clean_linker_2, # of connection points: 2
#     Edge 88, Type (0, 1), BuildingBlock: XUDNAN_clean_linker_2, # of connection points: 2
#     Edge 89, Type (0, 1), BuildingBlock: XUDNAN_clean_linker_2, # of connection points: 2
#     Edge 90, Type (0, 1), BuildingBlock: XUDNAN_clean_linker_2, # of connection points: 2
#     Edge 91, Type (0, 1), BuildingBlock: XUDNAN_clean_linker_2, # of connection points: 2
#     Edge 92, Type (0, 1), BuildingBlock: XUDNAN_clean_linker_2, # of connection points: 2
#     Edge 93, Type (0, 1), BuildingBlock: XUDNAN_clean_linker_2, # of connection points: 2
#     Edge 94, Type (0, 1), BuildingBlock: XUDNAN_clean_linker_2, # of connection points: 2
#     Edge 95, Type (0, 1), BuildingBlock: XUDNAN_clean_linker_2, # of connection points: 2
#     Edge 96, Type (0, 1), BuildingBlock: XUDNAN_clean_linker_2, # of connection points: 2
#     Edge 97, Type (0, 1), BuildingBlock: XUDNAN_clean_linker_2, # of connection points: 2
#     Edge 98, Type (0, 1), BuildingBlock: XUDNAN_clean_linker_2, # of connection points: 2
#     Edge 99, Type (0, 1), BuildingBlock: XUDNAN_clean_linker_2, # of connection points: 2
#     Edge 100, Type (0, 1), BuildingBlock: XUDNAN_clean_linker_2, # of connection points: 2
#     Edge 101, Type (0, 1), BuildingBlock: XUDNAN_clean_linker_2, # of connection points: 2
#     Edge 102, Type (0, 1), BuildingBlock: XUDNAN_clean_linker_2, # of connection points: 2
#     Edge 103, Type (0, 1), BuildingBlock: XUDNAN_clean_linker_2, # of connection points: 2
#     Edge 104, Type (0, 1), BuildingBlock: XUDNAN_clean_linker_2, # of connection points: 2
#     Edge 105, Type (0, 1), BuildingBlock: XUDNAN_clean_linker_2, # of connection points: 2
#     Edge 106, Type (0, 1), BuildingBlock: XUDNAN_clean_linker_2, # of connection points: 2
#     Edge 107, Type (0, 1), BuildingBlock: XUDNAN_clean_linker_2, # of connection points: 2
# Relax obj value: 0.084
# Max RMSD: 0.307
# Mean RMSD: 0.119
data_MOF--net-ptr--node1-NAHDIM_clean_sbu_0--node2-NAHDIM_clean_linker_0--edge1-XUDNAN_clean_linker_2
_symmetry_space_group_name_H-M    P1
_symmetry_Int_Tables_number       1
_symmetry_cell_setting            triclinic
loop_
_symmetry_equiv_pos_as_xyz
'x, y, z'
_cell_length_a     95.841879
_cell_length_b     93.665395
_cell_length_c     79.117884
_cell_angle_alpha  92.403357
_cell_angle_beta   89.634324
_cell_angle_gamma 122.1513
loop_
_atom_site_label
_atom_site_type_symbol
_atom_site_fract_x
_atom_site_fract_y
_atom_site_fract_z
_atom_type_partial_charge
C0 C 0.02435 0.33266 0.01464 0.0
O1 O 0.02006 0.32476 0.99969 0.0
O2 O 0.98354 0.32961 0.9989 0.0
Zn3 Zn 0.006 0.34933 0.00613 0.0
O4 O 0.00351 0.36528 0.02169 0.0
C5 C 0.00802 0.36703 0.97831 0.0
O6 O 0.9937 0.36261 0.98485 0.0
O7 O 0.01985 0.34284 0.01889 0.0
C8 C 0.99778 0.36179 0.03649 0.0
O9 O 0.99243 0.34668 0.04193 0.0
C10 C 0.97711 0.31393 0.00088 0.0
O11 O 0.98528 0.30877 0.00927 0.0
O12 O 0.01677 0.36237 0.98535 0.0
C13 C 0.69023 0.66498 1.00011 0.0
O14 O 0.68542 0.67567 0.99878 0.0
O15 O 0.66526 0.67045 0.029 0.0
Zn16 Zn 0.66074 0.64816 0.01896 0.0
O17 O 0.64258 0.63931 0.00115 0.0
C18 C 0.65201 0.63492 0.05261 0.0
O19 O 0.65831 0.65082 0.05737 0.0
O20 O 0.68144 0.65175 0.00832 0.0
C21 C 0.62778 0.62853 0.00501 0.0
O22 O 0.6246 0.62336 0.02054 0.0
C23 C 0.65365 0.67234 0.03385 0.0
O24 O 0.63833 0.65959 0.03196 0.0
O25 O 0.65288 0.63107 0.0372 0.0
C26 C 0.34489 0.03618 0.99018 0.0
O27 O 0.35402 0.03405 0.97916 0.0
O28 O 0.32624 0.99021 0.01748 0.0
Zn29 Zn 0.34677 0.01121 0.00964 0.0
O30 O 0.35666 0.00593 0.98971 0.0
C31 C 0.36739 0.01112 0.03526 0.0
O32 O 0.36049 0.99545 0.02927 0.0
O33 O 0.34099 0.02824 0.00378 0.0
C34 C 0.34828 0.99377 0.979 0.0
O35 O 0.33227 0.98397 0.98079 0.0
C36 C 0.31211 0.9881 0.01531 0.0
O37 O 0.31089 0.9993 0.0071 0.0
O38 O 0.36342 0.02067 0.02874 0.0
C39 C 0.98038 0.66572 0.99644 0.0
O40 O 0.99576 0.67509 0.99174 0.0
O41 O 0.01079 0.67714 0.02775 0.0
Zn42 Zn 0.99617 0.65414 0.01622 0.0
O43 O 0.00673 0.64902 0.99672 0.0
C44 C 0.99987 0.63995 0.04562 0.0
O45 O 0.01419 0.65429 0.04569 0.0
O46 O 0.97672 0.65447 0.00707 0.0
C47 C 0.02021 0.64951 0.99768 0.0
O48 O 0.02862 0.65444 0.01204 0.0
C49 C 0.02361 0.69012 0.02239 0.0
O50 O 0.02938 0.68929 0.00752 0.0
O51 O 0.98945 0.63661 0.03383 0.0
C52 C 0.32206 0.35796 0.01721 0.0
O53 O 0.33244 0.37285 0.02444 0.0
O54 O 0.35029 0.33891 0.99356 0.0
Zn55 Zn 0.35092 0.36 0.00111 0.0
O56 O 0.36511 0.37047 0.02214 0.0
C57 C 0.35769 0.37086 0.96701 0.0
O58 O 0.3517 0.35469 0.964 0.0
O59 O 0.32736 0.35126 0.00689 0.0
C60 C 0.37848 0.37088 0.02406 0.0
O61 O 0.38351 0.36497 0.0117 0.0
C62 C 0.34534 0.3273 0.00402 0.0
O63 O 0.34293 0.33039 0.01977 0.0
O64 O 0.35857 0.37634 0.9822 0.0
C65 C 0.6637 0.98872 0.02965 0.0
O66 O 0.66877 0.00412 0.03542 0.0
O67 O 0.67643 0.01656 0.99396 0.0
Zn68 Zn 0.65417 0.0017 0.00436 0.0
O69 O 0.64797 0.01312 0.02248 0.0
C70 C 0.63974 0.005 0.97564 0.0
O71 O 0.65238 0.02034 0.97909 0.0
O72 O 0.6558 0.98354 0.01558 0.0
C73 C 0.65056 0.02792 0.02359 0.0
O74 O 0.65877 0.03853 0.01172 0.0
C75 C 0.68956 0.0295 0.99995 0.0
O76 O 0.68967 0.03561 0.01523 0.0
O77 O 0.6372 0.99328 0.98522 0.0
C78 C 0.68281 0.672 0.3581 0.0
O79 O 0.66692 0.66134 0.35554 0.0
O80 O 0.6571 0.67333 0.32888 0.0
Zn81 Zn 0.67527 0.69399 0.34186 0.0
O82 O 0.66548 0.70247 0.35925 0.0
C83 C 0.68495 0.713 0.3112 0.0
O84 O 0.67059 0.70051 0.30537 0.0
O85 O 0.68931 0.6871 0.35358 0.0
C86 C 0.66126 0.71264 0.35506 0.0
O87 O 0.66353 0.71761 0.33945 0.0
C88 C 0.64272 0.67041 0.32627 0.0
O89 O 0.63922 0.6816 0.3316 0.0
O90 O 0.6895 0.71269 0.32617 0.0
C91 C 0.33911 0.98215 0.32414 0.0
O92 O 0.33552 0.99379 0.32276 0.0
O93 O 0.32652 0.99591 0.35902 0.0
Zn94 Zn 0.31444 0.97226 0.34855 0.0
O95 O 0.29549 0.96767 0.3335 0.0
C96 C 0.316 0.95262 0.37457 0.0
O97 O 0.33141 0.96012 0.36983 0.0
O98 O 0.33107 0.97053 0.33444 0.0
C99 C 0.28151 0.96347 0.33942 0.0
O100 O 0.27939 0.96238 0.35584 0.0
C101 C 0.32063 0.00498 0.36269 0.0
O102 O 0.30492 0.99891 0.35982 0.0
O103 O 0.30627 0.95573 0.36709 0.0
C104 C 0.03668 0.3726 0.31741 0.0
O105 O 0.0492 0.37077 0.31473 0.0
O106 O 0.00832 0.33053 0.35296 0.0
Zn107 Zn 0.02859 0.34631 0.33985 0.0
O108 O 0.03343 0.33262 0.3232 0.0
C109 C 0.05005 0.35284 0.36865 0.0
O110 O 0.03907 0.33701 0.37163 0.0
O111 O 0.02568 0.36308 0.32767 0.0
C112 C 0.02971 0.31791 0.32682 0.0
O113 O 0.02254 0.31185 0.34124 0.0
C114 C 0.99423 0.32847 0.35074 0.0
O115 O 0.9924 0.33733 0.33952 0.0
O116 O 0.04804 0.35939 0.35588 0.0
C117 C 0.65442 0.98935 0.32287 0.0
O118 O 0.6703 0.99934 0.3205 0.0
O119 O 0.68417 0.99636 0.35391 0.0
Zn120 Zn 0.66676 0.97391 0.34277 0.0
O121 O 0.67557 0.96704 0.32303 0.0
C122 C 0.66001 0.95718 0.37487 0.0
O123 O 0.67196 0.972 0.38089 0.0
O124 O 0.64945 0.97714 0.3326 0.0
C125 C 0.68722 0.96432 0.32283 0.0
O126 O 0.69514 0.96592 0.33697 0.0
C127 C 0.69749 0.00663 0.34661 0.0
O128 O 0.70074 0.00208 0.33192 0.0
O129 O 0.65603 0.95527 0.35926 0.0
C130 C 0.98119 0.67465 0.36924 0.0
O131 O 0.99081 0.66912 0.3729 0.0
O132 O 0.00783 0.67462 0.33929 0.0
Zn133 Zn 0.00934 0.69505 0.35081 0.0
O134 O 0.02453 0.7028 0.37114 0.0
C135 C 0.01262 0.71192 0.31956 0.0
O136 O 0.00225 0.69652 0.31343 0.0
O137 O 0.98653 0.68688 0.35945 0.0
C138 C 0.03835 0.70396 0.37124 0.0
O139 O 0.04354 0.70037 0.35725 0.0
C140 C 0.01568 0.67375 0.32669 0.0
O141 O 0.02693 0.68764 0.31965 0.0
O142 O 0.01705 0.71422 0.33505 0.0
C143 C 0.32191 0.3187 0.36853 0.0
O144 O 0.32548 0.33351 0.37476 0.0
O145 O 0.3302 0.34783 0.33621 0.0
Zn146 Zn 0.30835 0.32928 0.34497 0.0
O147 O 0.29974 0.33737 0.36399 0.0
C148 C 0.29268 0.32938 0.31491 0.0
O149 O 0.30379 0.34553 0.31751 0.0
O150 O 0.31333 0.31283 0.3549 0.0
C151 C 0.29891 0.35048 0.36503 0.0
O152 O 0.30381 0.36058 0.35233 0.0
C153 C 0.34093 0.36136 0.34419 0.0
O154 O 0.33771 0.36489 0.35941 0.0
O155 O 0.29183 0.31905 0.32543 0.0
C156 C 0.35681 0.01519 0.69846 0.0
O157 O 0.34077 0.00473 0.69706 0.0
O158 O 0.33815 0.00447 0.65638 0.0
Zn159 Zn 0.34914 0.02668 0.66984 0.0
O160 O 0.33216 0.0297 0.68171 0.0
C161 C 0.37704 0.05408 0.65245 0.0
O162 O 0.38609 0.0507 0.66184 0.0
O163 O 0.36403 0.02646 0.68764 0.0
C164 C 0.33666 0.04034 0.69416 0.0
O165 O 0.35231 0.0493 0.6987 0.0
C166 C 0.32308 0.993 0.65808 0.0
O167 O 0.31409 0.99565 0.66881 0.0
O168 O 0.36147 0.04558 0.65394 0.0
C169 C 0.02274 0.33872 0.65884 0.0
O170 O 0.00963 0.33746 0.65206 0.0
O171 O 0.99404 0.33499 0.69658 0.0
Zn172 Zn 0.99854 0.31918 0.68281 0.0
O173 O 0.98196 0.30794 0.66355 0.0
C174 C 0.9817 0.29361 0.70576 0.0
O175 O 0.97141 0.29864 0.70359 0.0
O176 O 0.02135 0.33174 0.67274 0.0
C177 C 0.96977 0.30959 0.66139 0.0
O178 O 0.96725 0.31885 0.67239 0.0
C179 C 1.00007 0.35048 0.69391 0.0
O180 O 0.01052 0.35747 0.6816 0.0
O181 O 0.99524 0.30084 0.6979 0.0
C182 C 0.6841 0.69588 0.66129 0.0
O183 O 0.67704 0.6808 0.65377 0.0
O184 O 0.67356 0.66471 0.69628 0.0
Zn185 Zn 0.69488 0.68074 0.68466 0.0
O186 O 0.69978 0.66812 0.66665 0.0
C187 C 0.71147 0.68213 0.71513 0.0
O188 O 0.6979 0.66722 0.71622 0.0
O189 O 0.69289 0.69907 0.67455 0.0
C190 C 0.69698 0.65359 0.66965 0.0
O191 O 0.69062 0.64707 0.68421 0.0
C192 C 0.65994 0.65367 0.68915 0.0
O193 O 0.6588 0.65208 0.67256 0.0
O194 O 0.71327 0.6908 0.70241 0.0
C195 C 0.31877 0.33725 0.65061 0.0
O196 O 0.33248 0.33909 0.6448 0.0
O197 O 0.33998 0.34519 0.69549 0.0
Zn198 Zn 0.32714 0.32506 0.6793 0.0
O199 O 0.34274 0.3219 0.66465 0.0
C200 C 0.31817 0.30183 0.70572 0.0
O201 O 0.33334 0.31311 0.71078 0.0
O202 O 0.31356 0.33066 0.66483 0.0
C203 C 0.34067 0.30755 0.66107 0.0
O204 O 0.3281 0.29404 0.6674 0.0
C205 C 0.35295 0.35828 0.69053 0.0
O206 O 0.35828 0.35796 0.67527 0.0
O207 O 0.31254 0.30422 0.69235 0.0
C208 C 0.66178 0.01291 0.68618 0.0
O209 O 0.66463 0.00071 0.68402 0.0
O210 O 0.68419 0.00989 0.65297 0.0
Zn211 Zn 0.69193 0.03088 0.668 0.0
O212 O 0.70913 0.03455 0.68524 0.0
C213 C 0.70411 0.05134 0.63843 0.0
O214 O 0.70281 0.03773 0.63137 0.0
O215 O 0.67201 0.02733 0.68058 0.0
C216 C 0.72455 0.044 0.683 0.0
O217 O 0.72982 0.05152 0.66863 0.0
C218 C 0.68649 0.99817 0.65651 0.0
O219 O 0.69532 9e-05 0.67003 0.0
O220 O 0.7004 0.05134 0.65389 0.0
C221 C 0.98906 0.65878 0.68902 0.0
O222 O 0.99908 0.67522 0.69115 0.0
O223 O 0.99778 0.68586 0.65663 0.0
Zn224 Zn 0.97533 0.67064 0.66657 0.0
O225 O 0.97017 0.68413 0.68317 0.0
C226 C 0.95906 0.66994 0.63647 0.0
O227 O 0.97063 0.68605 0.63789 0.0
O228 O 0.97687 0.65304 0.67878 0.0
C229 C 0.96325 0.6784 0.69717 0.0
O230 O 0.95878 0.663 0.70083 0.0
C231 C 0.00568 0.70187 0.65822 0.0
O232 O 0.99884 0.70918 0.66609 0.0
O233 O 0.95823 0.66022 0.64771 0.0
C234 C 0.19781 0.30644 0.04944 0.0
C235 C 0.21093 0.31139 0.06328 0.0
C236 C 0.1953 0.29619 0.08757 0.0
C237 C 0.19848 0.30955 0.09889 0.0
C238 C 0.18707 0.30738 0.1113 0.0
C239 C 0.17228 0.29145 0.11247 0.0
C240 C 0.1696 0.27766 0.10183 0.0
C241 C 0.18127 0.28019 0.08956 0.0
C242 C 0.19051 0.32226 0.12272 0.0
C243 C 0.1541 0.26045 0.10298 0.0
C244 C 0.07847 0.31153 0.06911 0.0
C245 C 0.08581 0.30248 0.07617 0.0
C246 C 0.1062 0.3069 0.09768 0.0
C247 C 0.10176 0.28997 0.09759 0.0
C248 C 0.11085 0.28523 0.10716 0.0
C249 C 0.12467 0.29768 0.11691 0.0
C250 C 0.12895 0.31466 0.11728 0.0
C251 C 0.11956 0.319 0.10774 0.0
C252 C 0.10588 0.26699 0.10663 0.0
C253 C 0.14371 0.3283 0.12739 0.0
C254 C 0.09409 0.28094 0.22567 0.0
C255 C 0.09099 0.26592 0.21732 0.0
C256 C 0.10322 0.26566 0.20772 0.0
C257 C 0.11882 0.28068 0.20633 0.0
C258 C 0.12207 0.29574 0.21488 0.0
C259 C 0.10964 0.29564 0.22446 0.0
C260 C 0.09941 0.24936 0.19881 0.0
C261 C 0.13859 0.31198 0.21366 0.0
C262 C 0.21852 0.25554 0.21449 0.0
C263 C 0.21549 0.2698 0.21852 0.0
C264 C 0.18872 0.26682 0.21691 0.0
C265 C 0.17233 0.25389 0.21384 0.0
C266 C 0.16115 0.25707 0.20611 0.0
C267 C 0.16643 0.27375 0.2019 0.0
C268 C 0.18281 0.28706 0.20591 0.0
C269 C 0.19383 0.28342 0.21317 0.0
C270 C 0.14378 0.24255 0.20222 0.0
C271 C 0.18871 0.30513 0.20241 0.0
C272 C 0.1589 0.28985 0.12334 0.0
C273 C 0.14774 0.29317 0.11606 0.0
C274 C 0.13545 0.29321 0.12559 0.0
C275 C 0.13417 0.2898 0.14296 0.0
C276 C 0.12204 0.28986 0.15298 0.0
C277 C 0.12113 0.28688 0.17015 0.0
C278 C 0.13227 0.28364 0.17795 0.0
C279 C 0.13153 0.28075 0.19543 0.0
C280 C 0.14285 0.2777 0.20283 0.0
C281 C 0.15489 0.2772 0.19318 0.0
C282 C 0.15573 0.27991 0.17562 0.0
C283 C 0.16751 0.27931 0.16543 0.0
C284 C 0.16857 0.28252 0.14829 0.0
C285 C 0.15772 0.28621 0.14063 0.0
C286 C 0.1454 0.28635 0.15052 0.0
C287 C 0.14446 0.28328 0.16804 0.0
C288 C 0.05564 0.26669 0.2217 0.0
C289 C 0.06629 0.2692 0.23727 0.0
O290 O 0.20537 0.29847 0.07444 0.0
O291 O 0.1993 0.26291 0.2234 0.0
O292 O 0.08253 0.28194 0.23483 0.0
O293 O 0.09811 0.31214 0.08822 0.0
H294 H 0.21306 0.32312 0.0699 0.0
H295 H 0.18647 0.30481 0.05518 0.0
H296 H 0.19457 0.29438 0.04272 0.0
H297 H 0.20234 0.31649 0.04014 0.0
H298 H 0.20976 0.32175 0.09793 0.0
H299 H 0.17911 0.26986 0.08096 0.0
H300 H 0.18128 0.32565 0.1201 0.0
H301 H 0.20303 0.33351 0.12093 0.0
H302 H 0.1893 0.31886 0.13616 0.0
H303 H 0.15456 0.25069 0.09496 0.0
H304 H 0.14335 0.26101 0.09886 0.0
H305 H 0.15211 0.25662 0.11631 0.0
H306 H 0.08911 0.29566 0.06669 0.0
H307 H 0.08161 0.31255 0.05528 0.0
H308 H 0.08732 0.3254 0.07228 0.0
H309 H 0.05369 0.29801 0.07772 0.0
H310 H 0.09132 0.28042 0.09001 0.0
H311 H 0.12283 0.33201 0.1078 0.0
H312 H 0.11558 0.26576 0.10028 0.0
H313 H 0.09399 0.2586 0.09972 0.0
H314 H 0.10479 0.26266 0.1197 0.0
H315 H 0.14541 0.34092 0.12632 0.0
H316 H 0.15502 0.32892 0.12294 0.0
H317 H 0.14228 0.32522 0.14093 0.0
H318 H 0.0656 0.25719 0.23948 0.0
H319 H 0.07907 0.25438 0.21806 0.0
H320 H 0.11197 0.30716 0.23094 0.0
H321 H 0.10022 0.25084 0.18492 0.0
H322 H 0.08692 0.23858 0.20171 0.0
H323 H 0.10867 0.24635 0.20255 0.0
H324 H 0.13923 0.32259 0.22121 0.0
H325 H 0.14105 0.31543 0.20024 0.0
H326 H 0.14848 0.31019 0.21818 0.0
H327 H 0.21767 0.2764 0.20647 0.0
H328 H 0.23158 0.26082 0.211 0.0
H329 H 0.21052 0.2475 0.20362 0.0
H330 H 0.2156 0.24744 0.22545 0.0
H331 H 0.16846 0.24116 0.217 0.0
H332 H 0.2064 0.29354 0.21604 0.0
H333 H 0.14043 0.24258 0.18882 0.0
H334 H 0.13508 0.24402 0.2103 0.0
H335 H 0.14216 0.23014 0.20454 0.0
H336 H 0.20072 0.31419 0.20882 0.0
H337 H 0.1795 0.30821 0.20664 0.0
H338 H 0.19023 0.30688 0.18859 0.0
H339 H 0.14885 0.29613 0.10281 0.0
H340 H 0.11318 0.29232 0.14765 0.0
H341 H 0.11161 0.28721 0.17725 0.0
H342 H 0.14223 0.27559 0.21627 0.0
H343 H 0.17615 0.27647 0.17061 0.0
H344 H 0.178 0.28208 0.14109 0.0
H345 H 0.04257 0.25672 0.22383 0.0
H346 H 0.05987 0.2627 0.2104 0.0
H347 H 0.05636 0.27861 0.21898 0.0
C348 C 0.72249 0.92737 0.04562 0.0
C349 C 0.71122 0.92306 0.06087 0.0
C350 C 0.71851 0.91521 0.0869 0.0
C351 C 0.7028 0.90317 0.09253 0.0
C352 C 0.70078 0.89125 0.10409 0.0
C353 C 0.71475 0.89126 0.10988 0.0
C354 C 0.73065 0.90373 0.10451 0.0
C355 C 0.73232 0.91579 0.09337 0.0
C356 C 0.68366 0.87841 0.10979 0.0
C357 C 0.74584 0.904 0.11005 0.0
C358 C 0.68176 0.76231 0.07091 0.0
C359 C 0.69228 0.78031 0.07669 0.0
C360 C 0.68914 0.80218 0.09074 0.0
C361 C 0.70603 0.81354 0.09425 0.0
C362 C 0.71151 0.82861 0.10384 0.0
C363 C 0.69986 0.83224 0.11025 0.0
C364 C 0.68286 0.82079 0.1068 0.0
C365 C 0.67775 0.80596 0.09696 0.0
C366 C 0.72976 0.84069 0.10706 0.0
C367 C 0.67011 0.82422 0.11352 0.0
C368 C 0.72146 0.81694 0.21655 0.0
C369 C 0.73589 0.82978 0.20914 0.0
C370 C 0.73588 0.84261 0.20062 0.0
C371 C 0.72123 0.84279 0.19964 0.0
C372 C 0.70677 0.83005 0.20727 0.0
C373 C 0.70706 0.81724 0.21554 0.0
C374 C 0.7515 0.85592 0.19247 0.0
C375 C 0.69096 0.8299 0.20651 0.0
C376 C 0.7605 0.97693 0.22327 0.0
C377 C 0.74577 0.9587 0.22285 0.0
C378 C 0.74509 0.93253 0.21774 0.0
C379 C 0.75587 0.92722 0.21371 0.0
C380 C 0.7503 0.91179 0.2048 0.0
C381 C 0.73335 0.90112 0.20042 0.0
C382 C 0.7222 0.90603 0.20537 0.0
C383 C 0.72824 0.92182 0.21372 0.0
C384 C 0.76261 0.90701 0.19998 0.0
C385 C 0.70393 0.89466 0.20178 0.0
C386 C 0.71258 0.87733 0.12019 0.0
C387 C 0.70732 0.86184 0.1117 0.0
C388 C 0.70547 0.84821 0.12024 0.0
C389 C 0.70905 0.84998 0.13778 0.0
C390 C 0.70751 0.83655 0.1467 0.0
C391 C 0.71145 0.83853 0.16387 0.0
C392 C 0.71682 0.85393 0.17286 0.0
C393 C 0.72105 0.8561 0.19027 0.0
C394 C 0.72605 0.87146 0.19891 0.0
C395 C 0.72736 0.88498 0.19054 0.0
C396 C 0.72353 0.88316 0.173 0.0
C397 C 0.7251 0.89659 0.16403 0.0
C398 C 0.72127 0.89465 0.1468 0.0
C399 C 0.71607 0.87932 0.13779 0.0
C400 C 0.71438 0.8656 0.14658 0.0
C401 C 0.71815 0.86753 0.16418 0.0
C402 C 0.7372 0.79397 0.21239 0.0
C403 C 0.73365 0.80179 0.22798 0.0
O404 O 0.72077 0.92654 0.07538 0.0
O405 O 0.75134 0.94802 0.22548 0.0
O406 O 0.72076 0.80399 0.22456 0.0
O407 O 0.68333 0.78749 0.08147 0.0
H408 H 0.70153 0.90937 0.05947 0.0
H409 H 0.72877 0.92026 0.04586 0.0
H410 H 0.73203 0.94109 0.04596 0.0
H411 H 0.71531 0.92382 0.03356 0.0
H412 H 0.69215 0.90311 0.08792 0.0
H413 H 0.74441 0.92534 0.08908 0.0
H414 H 0.67951 0.86602 0.10327 0.0
H415 H 0.67465 0.88201 0.10679 0.0
H416 H 0.68367 0.87684 0.12362 0.0
H417 H 0.75701 0.91335 0.10328 0.0
H418 H 0.74402 0.89132 0.10783 0.0
H419 H 0.74807 0.90726 0.12382 0.0
H420 H 0.70291 0.78834 0.06849 0.0
H421 H 0.68499 0.76198 0.05723 0.0
H422 H 0.66918 0.75993 0.06788 0.0
H423 H 0.68574 0.74909 0.08977 0.0
H424 H 0.71499 0.81079 0.08944 0.0
H425 H 0.66476 0.79711 0.09418 0.0
H426 H 0.73353 0.85344 0.10297 0.0
H427 H 0.73728 0.83653 0.10032 0.0
H428 H 0.73251 0.84181 0.12083 0.0
H429 H 0.65733 0.81342 0.11088 0.0
H430 H 0.67168 0.83551 0.1076 0.0
H431 H 0.67186 0.82701 0.12739 0.0
H432 H 0.74497 0.81418 0.23149 0.0
H433 H 0.74718 0.82984 0.20976 0.0
H434 H 0.69599 0.80732 0.22127 0.0
H435 H 0.74917 0.85614 0.17878 0.0
H436 H 0.76174 0.85373 0.19388 0.0
H437 H 0.75544 0.86853 0.19827 0.0
H438 H 0.68097 0.81956 0.21373 0.0
H439 H 0.68679 0.82834 0.19313 0.0
H440 H 0.69314 0.84215 0.21165 0.0
H441 H 0.74011 0.95607 0.20993 0.0
H442 H 0.75629 0.98573 0.22117 0.0
H443 H 0.76913 0.97841 0.21307 0.0
H444 H 0.76725 0.9804 0.2356 0.0
H445 H 0.76882 0.93549 0.21709 0.0
H446 H 0.71976 0.92567 0.21723 0.0
H447 H 0.76066 0.90216 0.1866 0.0
H448 H 0.76085 0.89681 0.20808 0.0
H449 H 0.77553 0.91783 0.2017 0.0
H450 H 0.69671 0.89884 0.20914 0.0
H451 H 0.69953 0.88146 0.2048 0.0
H452 H 0.70141 0.89474 0.18813 0.0
H453 H 0.70474 0.86041 0.09819 0.0
H454 H 0.70337 0.82439 0.14047 0.0
H455 H 0.71019 0.8278 0.17002 0.0
H456 H 0.72925 0.87301 0.21228 0.0
H457 H 0.72932 0.90878 0.1702 0.0
H458 H 0.72257 0.90536 0.14059 0.0
H459 H 0.72599 0.7818 0.20816 0.0
H460 H 0.74717 0.79173 0.21537 0.0
H461 H 0.74127 0.80256 0.20173 0.0
C462 C 0.19398 0.90017 0.05609 0.0
C463 C 0.20645 0.91261 0.06957 0.0
C464 C 0.19318 0.89662 0.0948 0.0
C465 C 0.18169 0.90149 0.09709 0.0
C466 C 0.1683 0.89278 0.10786 0.0
C467 C 0.16615 0.87871 0.11625 0.0
C468 C 0.17795 0.87408 0.11435 0.0
C469 C 0.19148 0.88332 0.10386 0.0
C470 C 0.15621 0.89836 0.10991 0.0
C471 C 0.17595 0.85899 0.12287 0.0
C472 C 0.06111 0.81273 0.04714 0.0
C473 C 0.07029 0.8084 0.05962 0.0
C474 C 0.08115 0.82083 0.08787 0.0
C475 C 0.09198 0.8152 0.0898 0.0
C476 C 0.10461 0.82278 0.10219 0.0
C477 C 0.10671 0.83655 0.1125 0.0
C478 C 0.09559 0.84204 0.1107 0.0
C479 C 0.08268 0.83375 0.09869 0.0
C480 C 0.11593 0.81629 0.10395 0.0
C481 C 0.09765 0.85705 0.12092 0.0
C482 C 0.07269 0.8173 0.22119 0.0
C483 C 0.08268 0.81093 0.21692 0.0
C484 C 0.09764 0.82092 0.20859 0.0
C485 C 0.10262 0.83752 0.20442 0.0
C486 C 0.09269 0.84402 0.20904 0.0
C487 C 0.07796 0.83387 0.21757 0.0
C488 C 0.10817 0.81378 0.20428 0.0
C489 C 0.09763 0.86169 0.20497 0.0
C490 C 0.21193 0.95032 0.23331 0.0
C491 C 0.20266 0.93612 0.24567 0.0
C492 C 0.1872 0.90945 0.22856 0.0
C493 C 0.18562 0.8939 0.22501 0.0
C494 C 0.17259 0.88126 0.21481 0.0
C495 C 0.16094 0.88436 0.20785 0.0
C496 C 0.16256 0.90013 0.21119 0.0
C497 C 0.17563 0.9125 0.22152 0.0
C498 C 0.17127 0.86461 0.2114 0.0
C499 C 0.15047 0.90394 0.20378 0.0
C500 C 0.15079 0.86794 0.12564 0.0
C501 C 0.13654 0.85695 0.11609 0.0
C502 C 0.12149 0.84638 0.12378 0.0
C503 C 0.12069 0.84629 0.14164 0.0
C504 C 0.10596 0.83524 0.14986 0.0
C505 C 0.10514 0.83574 0.16743 0.0
C506 C 0.11904 0.84726 0.17746 0.0
C507 C 0.11823 0.84818 0.19531 0.0
C508 C 0.1322 0.86006 0.20484 0.0
C509 C 0.14705 0.87117 0.19704 0.0
C510 C 0.14819 0.87023 0.17924 0.0
C511 C 0.16299 0.88111 0.17101 0.0
C512 C 0.16392 0.88031 0.15346 0.0
C513 C 0.15006 0.8687 0.14348 0.0
C514 C 0.13498 0.85769 0.15151 0.0
C515 C 0.1341 0.8583 0.16943 0.0
C516 C 0.03048 0.78776 0.22136 0.0
C517 C 0.04704 0.7908 0.22732 0.0
O518 O 0.20583 0.90415 0.08382 0.0
O519 O 0.20007 0.92106 0.23866 0.0
O520 O 0.05816 0.80808 0.22923 0.0
O521 O 0.06915 0.81415 0.07569 0.0
H522 H 0.20357 0.92238 0.07305 0.0
H523 H 0.18125 0.8941 0.06092 0.0
H524 H 0.19653 0.89016 0.0526 0.0
H525 H 0.19462 0.90687 0.04457 0.0
H526 H 0.18299 0.912 0.0905 0.0
H527 H 0.20046 0.87974 0.10212 0.0
H528 H 0.14461 0.88924 0.10288 0.0
H529 H 0.16106 0.91109 0.105 0.0
H530 H 0.15314 0.89856 0.12345 0.0
H531 H 0.18567 0.85644 0.11925 0.0
H532 H 0.16371 0.8476 0.1195 0.0
H533 H 0.17648 0.86117 0.13681 0.0
H534 H 0.08344 0.81514 0.05578 0.0
H535 H 0.06228 0.80889 0.03399 0.0
H536 H 0.06644 0.82657 0.04776 0.0
H537 H 0.04783 0.80624 0.05027 0.0
H538 H 0.09057 0.80491 0.08168 0.0
H539 H 0.07413 0.83786 0.09715 0.0
H540 H 0.11843 0.81568 0.11751 0.0
H541 H 0.12788 0.82508 0.09801 0.0
H542 H 0.11068 0.80357 0.09768 0.0
H543 H 0.08971 0.86134 0.11599 0.0
H544 H 0.11068 0.86778 0.12091 0.0
H545 H 0.09428 0.85362 0.13423 0.0
H546 H 0.05104 0.78504 0.21738 0.0
H547 H 0.07899 0.79833 0.22032 0.0
H548 H 0.07028 0.83873 0.22119 0.0
H549 H 0.10907 0.81284 0.19033 0.0
H550 H 0.10311 0.80107 0.20931 0.0
H551 H 0.12086 0.82239 0.20948 0.0
H552 H 0.08773 0.8642 0.20778 0.0
H553 H 0.10079 0.86386 0.1914 0.0
H554 H 0.10878 0.87091 0.21257 0.0
H555 H 0.19064 0.93481 0.24846 0.0
H556 H 0.21454 0.96249 0.23921 0.0
H557 H 0.2044 0.94761 0.22165 0.0
H558 H 0.22375 0.95164 0.22959 0.0
H559 H 0.19462 0.89166 0.23039 0.0
H560 H 0.17672 0.9245 0.22388 0.0
H561 H 0.17175 0.8624 0.19757 0.0
H562 H 0.15921 0.85418 0.21581 0.0
H563 H 0.18128 0.86413 0.2178 0.0
H564 H 0.15355 0.91691 0.20737 0.0
H565 H 0.13788 0.89477 0.20818 0.0
H566 H 0.15025 0.90249 0.18976 0.0
H567 H 0.1371 0.85689 0.10238 0.0
H568 H 0.09489 0.82615 0.14276 0.0
H569 H 0.09343 0.82706 0.17305 0.0
H570 H 0.1314 0.86095 0.21849 0.0
H571 H 0.17403 0.89037 0.17804 0.0
H572 H 0.1756 0.88903 0.1478 0.0
H573 H 0.02564 0.79302 0.23092 0.0
H574 H 0.02132 0.77404 0.21917 0.0
H575 H 0.03204 0.79402 0.20926 0.0
C576 C 0.32533 0.12922 0.95299 0.0
C577 C 0.31225 0.11144 0.94619 0.0
C578 C 0.30786 0.11652 0.91757 0.0
C579 C 0.29132 0.11179 0.9174 0.0
C580 C 0.28582 0.11941 0.90664 0.0
C581 C 0.29717 0.13212 0.89599 0.0
C582 C 0.31374 0.13639 0.89567 0.0
C583 C 0.31881 0.12829 0.90631 0.0
C584 C 0.26799 0.11424 0.90703 0.0
C585 C 0.32624 0.14999 0.88462 0.0
C586 C 0.2679 0.2183 0.93763 0.0
C587 C 0.28297 0.21771 0.94281 0.0
C588 C 0.29017 0.20541 0.9188 0.0
C589 C 0.30282 0.2087 0.90769 0.0
C590 C 0.30212 0.19575 0.89742 0.0
C591 C 0.28813 0.17916 0.89798 0.0
C592 C 0.27507 0.17579 0.90889 0.0
C593 C 0.27625 0.18892 0.91928 0.0
C594 C 0.31642 0.19978 0.88614 0.0
C595 C 0.2599 0.15827 0.90966 0.0
C596 C 0.2609 0.18768 0.79299 0.0
C597 C 0.27739 0.19277 0.79583 0.0
C598 C 0.28133 0.18199 0.80332 0.0
C599 C 0.2685 0.16584 0.80809 0.0
C600 C 0.2519 0.16042 0.80454 0.0
C601 C 0.24834 0.17139 0.79684 0.0
C602 C 0.29919 0.18795 0.80639 0.0
C603 C 0.23793 0.14323 0.80927 0.0
C604 C 0.27057 0.05658 0.7893 0.0
C605 C 0.27338 0.06707 0.77382 0.0
C606 C 0.28212 0.0952 0.78661 0.0
C607 C 0.2957 0.11156 0.78959 0.0
C608 C 0.29429 0.12374 0.79899 0.0
C609 C 0.27883 0.11938 0.80559 0.0
C610 C 0.26492 0.10292 0.80242 0.0
C611 C 0.26668 0.09097 0.79293 0.0
C612 C 0.30935 0.14121 0.80204 0.0
C613 C 0.24827 0.09793 0.80927 0.0
C614 C 0.29211 0.14205 0.88653 0.0
C615 C 0.29188 0.15509 0.89552 0.0
C616 C 0.28747 0.16522 0.88763 0.0
C617 C 0.28311 0.16234 0.87024 0.0
C618 C 0.27836 0.17213 0.86197 0.0
C619 C 0.27466 0.1696 0.84472 0.0
C620 C 0.27558 0.15717 0.83506 0.0
C621 C 0.27242 0.15491 0.81739 0.0
C622 C 0.27335 0.14237 0.80821 0.0
C623 C 0.27736 0.13194 0.8162 0.0
C624 C 0.28055 0.134 0.83386 0.0
C625 C 0.28456 0.12368 0.84231 0.0
C626 C 0.28811 0.12612 0.85961 0.0
C627 C 0.28796 0.13906 0.86908 0.0
C628 C 0.28358 0.14936 0.86088 0.0
C629 C 0.27983 0.14679 0.84327 0.0
C630 C 0.25199 0.21853 0.79928 0.0
C631 C 0.26431 0.21525 0.7904 0.0
O632 O 0.31361 0.11022 0.92879 0.0
O633 O 0.28463 0.08402 0.77776 0.0
O634 O 0.2567 0.19809 0.78646 0.0
O635 O 0.29193 0.21852 0.92867 0.0
H636 H 0.29989 0.10913 0.94933 0.0
H637 H 0.32342 0.13869 0.94727 0.0
H638 H 0.3379 0.13217 0.94986 0.0
H639 H 0.32444 0.13031 0.96694 0.0
H640 H 0.28276 0.10226 0.92577 0.0
H641 H 0.33152 0.13168 0.90647 0.0
H642 H 0.26709 0.12449 0.91343 0.0
H643 H 0.26026 0.10249 0.91392 0.0
H644 H 0.26294 0.11229 0.89395 0.0
H645 H 0.33878 0.15228 0.88637 0.0
H646 H 0.32677 0.16197 0.88753 0.0
H647 H 0.32246 0.14632 0.87112 0.0
H648 H 0.27872 0.20579 0.9493 0.0
H649 H 0.26083 0.21786 0.94899 0.0
H650 H 0.25962 0.20732 0.92902 0.0
H651 H 0.27171 0.23 0.93095 0.0
H652 H 0.31346 0.22146 0.90735 0.0
H653 H 0.26623 0.18618 0.92762 0.0
H654 H 0.31236 0.19786 0.87269 0.0
H655 H 0.32073 0.19111 0.88841 0.0
H656 H 0.32695 0.213 0.88825 0.0
H657 H 0.25001 0.15811 0.91722 0.0
H658 H 0.26324 0.14988 0.91547 0.0
H659 H 0.255 0.15299 0.89669 0.0
H660 H 0.27479 0.21967 0.7995 0.0
H661 H 0.28719 0.20512 0.79216 0.0
H662 H 0.23566 0.16748 0.79429 0.0
H663 H 0.3019 0.18975 0.82021 0.0
H664 H 0.30771 0.20007 0.80038 0.0
H665 H 0.30169 0.17827 0.80142 0.0
H666 H 0.22567 0.14108 0.80605 0.0
H667 H 0.23855 0.1418 0.82306 0.0
H668 H 0.23917 0.13331 0.80256 0.0
H669 H 0.26148 0.06527 0.76958 0.0
H670 H 0.26176 0.04296 0.78603 0.0
H671 H 0.26531 0.06038 0.79979 0.0
H672 H 0.28237 0.05837 0.79384 0.0
H673 H 0.30754 0.11472 0.78463 0.0
H674 H 0.25599 0.07841 0.79067 0.0
H675 H 0.31215 0.1438 0.81583 0.0
H676 H 0.30691 0.15077 0.79755 0.0
H677 H 0.32035 0.14277 0.79553 0.0
H678 H 0.2386 0.08467 0.8056 0.0
H679 H 0.24449 0.10641 0.80455 0.0
H680 H 0.24905 0.09946 0.8233 0.0
H681 H 0.29532 0.15747 0.90886 0.0
H682 H 0.27755 0.18195 0.86873 0.0
H683 H 0.27118 0.1776 0.83902 0.0
H684 H 0.2711 0.14082 0.79464 0.0
H685 H 0.28505 0.11363 0.83563 0.0
H686 H 0.29116 0.11784 0.86545 0.0
H687 H 0.25781 0.23222 0.80253 0.0
H688 H 0.24797 0.21162 0.81117 0.0
H689 H 0.24094 0.21415 0.79108 0.0
C690 C 0.80974 0.07487 0.97466 0.0
C691 C 0.80328 0.08103 0.96092 0.0
C692 C 0.81494 0.08866 0.93281 0.0
C693 C 0.81026 0.10007 0.92913 0.0
C694 C 0.8183 0.11181 0.91655 0.0
C695 C 0.83152 0.11237 0.90778 0.0
C696 C 0.83595 0.10055 0.91126 0.0
C697 C 0.82728 0.08857 0.92346 0.0
C698 C 0.81291 0.12389 0.91301 0.0
C699 C 0.85023 0.10092 0.90263 0.0
C700 C 0.90781 0.24694 0.94201 0.0
C701 C 0.89576 0.23161 0.9318 0.0
C702 C 0.89138 0.20493 0.92019 0.0
C703 C 0.89811 0.19495 0.91779 0.0
C704 C 0.8891 0.17896 0.90941 0.0
C705 C 0.873 0.17293 0.90318 0.0
C706 C 0.86609 0.18294 0.90558 0.0
C707 C 0.87528 0.19877 0.91413 0.0
C708 C 0.89674 0.1685 0.9072 0.0
C709 C 0.84895 0.1769 0.89909 0.0
C710 C 0.90545 0.18472 0.79536 0.0
C711 C 0.90775 0.17354 0.80449 0.0
C712 C 0.89475 0.16062 0.8134 0.0
C713 C 0.87915 0.15889 0.81331 0.0
C714 C 0.87667 0.16984 0.80382 0.0
C715 C 0.88986 0.18256 0.79489 0.0
C716 C 0.89775 0.14895 0.82314 0.0
C717 C 0.8602 0.16832 0.80343 0.0
C718 C 0.77728 0.02753 0.78697 0.0
C719 C 0.78336 0.04625 0.78594 0.0
C720 C 0.80984 0.07018 0.79718 0.0
C721 C 0.82546 0.07431 0.80254 0.0
C722 C 0.83599 0.08935 0.81196 0.0
C723 C 0.83084 0.10072 0.81584 0.0
C724 C 0.81512 0.09676 0.81022 0.0
C725 C 0.80473 0.08149 0.80096 0.0
C726 C 0.85267 0.09314 0.81767 0.0
C727 C 0.80941 0.10879 0.81381 0.0
C728 C 0.84178 0.12635 0.89638 0.0
C729 C 0.85252 0.14235 0.90397 0.0
C730 C 0.86317 0.15606 0.89434 0.0
C731 C 0.86368 0.15372 0.87664 0.0
C732 C 0.87485 0.16706 0.86669 0.0
C733 C 0.87553 0.16454 0.84933 0.0
C734 C 0.8648 0.1487 0.8412 0.0
C735 C 0.86566 0.14595 0.82362 0.0
C736 C 0.85426 0.13032 0.81577 0.0
C737 C 0.84223 0.11706 0.8251 0.0
C738 C 0.84171 0.11931 0.84286 0.0
C739 C 0.83031 0.10607 0.8528 0.0
C740 C 0.8302 0.10835 0.87032 0.0
C741 C 0.84145 0.12397 0.87855 0.0
C742 C 0.8527 0.13764 0.86871 0.0
C743 C 0.85301 0.13523 0.8509 0.0
C744 C 0.94171 0.21334 0.80526 0.0
C745 C 0.93458 0.20398 0.78809 0.0
O746 O 0.80784 0.07763 0.94532 0.0
O747 O 0.80036 0.05543 0.78805 0.0
O748 O 0.91783 0.19778 0.787 0.0
O749 O 0.90072 0.22034 0.92834 0.0
H750 H 0.80917 0.09491 0.96329 0.0
H751 H 0.82333 0.08114 0.97373 0.0
H752 H 0.80406 0.06099 0.97315 0.0
H753 H 0.80698 0.078 0.98745 0.0
H754 H 0.80036 0.09981 0.93608 0.0
H755 H 0.83062 0.07954 0.92631 0.0
H756 H 0.82161 0.13632 0.91943 0.0
H757 H 0.80035 0.11936 0.91777 0.0
H758 H 0.81305 0.12577 0.89922 0.0
H759 H 0.8536 0.0926 0.90861 0.0
H760 H 0.86123 0.11398 0.90296 0.0
H761 H 0.84691 0.09661 0.88917 0.0
H762 H 0.89053 0.23409 0.92054 0.0
H763 H 0.91996 0.24771 0.94127 0.0
H764 H 0.8955 0.24473 0.96528 0.0
H765 H 0.91171 0.25773 0.93346 0.0
H766 H 0.91048 0.19973 0.92254 0.0
H767 H 0.86977 0.20621 0.91601 0.0
H768 H 0.89755 0.16594 0.89352 0.0
H769 H 0.8888 0.15613 0.91299 0.0
H770 H 0.90928 0.17485 0.91304 0.0
H771 H 0.84553 0.18641 0.90148 0.0
H772 H 0.83986 0.16514 0.9053 0.0
H773 H 0.84805 0.17386 0.88527 0.0
H774 H 0.93662 0.19337 0.78652 0.0
H775 H 0.91964 0.17482 0.80485 0.0
H776 H 0.88814 0.19115 0.78774 0.0
H777 H 0.89693 0.15115 0.83691 0.0
H778 H 0.91005 0.15089 0.82064 0.0
H779 H 0.88814 0.13559 0.8198 0.0
H780 H 0.86035 0.17805 0.79574 0.0
H781 H 0.85659 0.16955 0.81652 0.0
H782 H 0.85063 0.15564 0.79811 0.0
H783 H 0.77754 0.0494 0.79646 0.0
H784 H 0.76361 0.01959 0.78657 0.0
H785 H 0.78159 0.02544 0.79908 0.0
H786 H 0.78217 0.02341 0.77635 0.0
H787 H 0.82935 0.06558 0.7994 0.0
H788 H 0.79284 0.07863 0.79643 0.0
H789 H 0.8545 0.09645 0.83146 0.0
H790 H 0.86245 0.1042 0.81105 0.0
H791 H 0.85421 0.08232 0.81501 0.0
H792 H 0.79704 0.10411 0.80817 0.0
H793 H 0.81838 0.12127 0.80871 0.0
H794 H 0.80893 0.11071 0.82769 0.0
H795 H 0.85254 0.14419 0.91761 0.0
H796 H 0.88339 0.17953 0.87225 0.0
H797 H 0.88454 0.17522 0.84234 0.0
H798 H 0.85496 0.12834 0.80226 0.0
H799 H 0.82144 0.09374 0.84715 0.0
H800 H 0.8212 0.09771 0.87736 0.0
H801 H 0.93961 0.22388 0.80709 0.0
H802 H 0.95517 0.21852 0.80602 0.0
H803 H 0.93582 0.20466 0.81575 0.0
C804 C 0.81136 0.7182 0.96155 0.0
C805 C 0.79843 0.7111 0.94711 0.0
C806 C 0.81369 0.70588 0.925 0.0
C807 C 0.82535 0.72288 0.92192 0.0
C808 C 0.83908 0.72725 0.91185 0.0
C809 C 0.84103 0.71439 0.90455 0.0
C810 C 0.82883 0.69726 0.90686 0.0
C811 C 0.8153 0.69325 0.91706 0.0
C812 C 0.85175 0.74563 0.90938 0.0
C813 C 0.83036 0.6832 0.89902 0.0
C814 C 0.92704 0.73283 0.97874 0.0
C815 C 0.92102 0.71957 0.96413 0.0
C816 C 0.9179 0.72652 0.93584 0.0
C817 C 0.90511 0.71084 0.92924 0.0
C818 C 0.89462 0.70984 0.91635 0.0
C819 C 0.89679 0.72489 0.91021 0.0
C820 C 0.91009 0.74074 0.91648 0.0
C821 C 0.92071 0.74131 0.92901 0.0
C822 C 0.88083 0.6927 0.90976 0.0
C823 C 0.91264 0.75705 0.91051 0.0
C824 C 0.93848 0.74505 0.80564 0.0
C825 C 0.926 0.72792 0.80666 0.0
C826 C 0.91067 0.7232 0.81358 0.0
C827 C 0.90776 0.73584 0.81949 0.0
C828 C 0.92006 0.75306 0.81784 0.0
C829 C 0.93525 0.75742 0.81085 0.0
C830 C 0.89766 0.70472 0.81484 0.0
C831 C 0.91725 0.76685 0.82375 0.0
C832 C 0.78953 0.70948 0.76653 0.0
C833 C 0.807 0.71806 0.77228 0.0
C834 C 0.82327 0.71243 0.79175 0.0
C835 C 0.82422 0.69967 0.79906 0.0
C836 C 0.83753 0.70343 0.80965 0.0
C837 C 0.85002 0.72049 0.81336 0.0
C838 C 0.84918 0.73354 0.80597 0.0
C839 C 0.83587 0.72937 0.79509 0.0
C840 C 0.83818 0.68911 0.81684 0.0
C841 C 0.86228 0.75185 0.80969 0.0
C842 C 0.85651 0.71881 0.89587 0.0
C843 C 0.86938 0.7206 0.90581 0.0
C844 C 0.88414 0.72397 0.89864 0.0
C845 C 0.88629 0.72585 0.881 0.0
C846 C 0.90093 0.72919 0.87331 0.0
C847 C 0.90294 0.73114 0.85595 0.0
C848 C 0.89022 0.72942 0.84554 0.0
C849 C 0.89206 0.73114 0.82785 0.0
C850 C 0.87889 0.72852 0.81779 0.0
C851 C 0.86393 0.72456 0.82495 0.0
C852 C 0.86213 0.72357 0.84271 0.0
C853 C 0.8475 0.72031 0.85041 0.0
C854 C 0.84566 0.71886 0.86784 0.0
C855 C 0.85837 0.72061 0.87821 0.0
C856 C 0.87333 0.72415 0.87076 0.0
C857 C 0.87525 0.72577 0.853 0.0
C858 C 0.97933 0.75233 0.80363 0.0
C859 C 0.96107 0.74082 0.79879 0.0
O860 O 0.80092 0.70103 0.93573 0.0
O861 O 0.80991 0.70775 0.78175 0.0
O862 O 0.95374 0.75019 0.79977 0.0
O863 O 0.92734 0.72764 0.94914 0.0
H864 H 0.7992 0.7217 0.9404 0.0
H865 H 0.82392 0.72673 0.95672 0.0
H866 H 0.81124 0.70782 0.96798 0.0
H867 H 0.80879 0.72561 0.97099 0.0
H868 H 0.82404 0.73281 0.92755 0.0
H869 H 0.80612 0.68018 0.9193 0.0
H870 H 0.86364 0.749 0.91537 0.0
H871 H 0.84795 0.7541 0.91495 0.0
H872 H 0.85391 0.74787 0.89567 0.0
H873 H 0.8193 0.67054 0.90112 0.0
H874 H 0.8413 0.68383 0.90452 0.0
H875 H 0.83226 0.68476 0.88519 0.0
H876 H 0.90728 0.71274 0.96387 0.0
H877 H 0.92202 0.72668 0.9909 0.0
H878 H 0.92276 0.74156 0.97664 0.0
H879 H 0.94073 0.74033 0.97965 0.0
H880 H 0.90324 0.6994 0.93436 0.0
H881 H 0.93075 0.75335 0.93416 0.0
H882 H 0.87955 0.6924 0.89579 0.0
H883 H 0.86906 0.69002 0.91534 0.0
H884 H 0.88283 0.68252 0.91317 0.0
H885 H 0.92293 0.76829 0.91744 0.0
H886 H 0.9012 0.75718 0.91221 0.0
H887 H 0.91538 0.75807 0.89682 0.0
H888 H 0.95567 0.73081 0.80822 0.0
H889 H 0.92815 0.71821 0.80207 0.0
H890 H 0.94486 0.77058 0.80977 0.0
H891 H 0.89464 0.70181 0.82833 0.0
H892 H 0.90167 0.69641 0.80931 0.0
H893 H 0.88619 0.70178 0.8082 0.0
H894 H 0.92789 0.77963 0.82114 0.0
H895 H 0.91507 0.76618 0.83758 0.0
H896 H 0.90607 0.76499 0.81739 0.0
H897 H 0.81643 0.72481 0.76247 0.0
H898 H 0.78053 0.72343 0.77946 0.0
H899 H 0.78384 0.69552 0.76797 0.0
H900 H 0.78999 0.70853 0.75231 0.0
H901 H 0.81445 0.68665 0.79635 0.0
H902 H 0.83531 0.73937 0.7894 0.0
H903 H 0.83591 0.68877 0.83063 0.0
H904 H 0.85059 0.69107 0.8151 0.0
H905 H 0.82882 0.67667 0.81086 0.0
H906 H 0.85906 0.76051 0.80426 0.0
H907 H 0.87414 0.75457 0.8043 0.0
H908 H 0.86419 0.75453 0.82357 0.0
H909 H 0.86779 0.71909 0.91935 0.0
H910 H 0.91104 0.73043 0.88066 0.0
H911 H 0.91453 0.73383 0.85075 0.0
H912 H 0.88026 0.72941 0.80418 0.0
H913 H 0.83729 0.71882 0.84304 0.0
H914 H 0.83411 0.71627 0.87308 0.0
H915 H 0.9855 0.7451 0.803 0.0
H916 H 0.98062 0.7576 0.81678 0.0
H917 H 0.98563 0.763 0.79502 0.0
C918 C 0.85611 0.61733 0.37553 0.0
C919 C 0.8638 0.62653 0.39254 0.0
C920 C 0.84685 0.61785 0.41792 0.0
C921 C 0.85207 0.63382 0.42538 0.0
C922 C 0.84271 0.63571 0.43799 0.0
C923 C 0.82789 0.62133 0.44322 0.0
C924 C 0.82296 0.60516 0.43615 0.0
C925 C 0.83266 0.60363 0.42372 0.0
C926 C 0.84853 0.65307 0.4456 0.0
C927 C 0.80728 0.58956 0.44146 0.0
C928 C 0.73955 0.65387 0.41013 0.0
C929 C 0.75403 0.65615 0.41946 0.0
C930 C 0.76152 0.63978 0.43623 0.0
C931 C 0.75598 0.62365 0.44169 0.0
C932 C 0.76688 0.61989 0.44903 0.0
C933 C 0.78367 0.63282 0.45152 0.0
C934 C 0.78934 0.64926 0.44619 0.0
C935 C 0.77826 0.65253 0.43842 0.0
C936 C 0.76043 0.60206 0.454 0.0
C937 C 0.80714 0.66339 0.44866 0.0
C938 C 0.76064 0.62136 0.56227 0.0
C939 C 0.75694 0.60648 0.55313 0.0
C940 C 0.7687 0.60613 0.54278 0.0
C941 C 0.78448 0.62094 0.54141 0.0
C942 C 0.78833 0.63587 0.55068 0.0
C943 C 0.77635 0.63587 0.56101 0.0
C944 C 0.7642 0.58994 0.53311 0.0
C945 C 0.80502 0.65189 0.54944 0.0
C946 C 0.88097 0.58936 0.54138 0.0
C947 C 0.87818 0.60387 0.54464 0.0
C948 C 0.85203 0.60235 0.54567 0.0
C949 C 0.83521 0.59021 0.54412 0.0
C950 C 0.82413 0.59429 0.53787 0.0
C951 C 0.83005 0.61111 0.53364 0.0
C952 C 0.84694 0.62369 0.53624 0.0
C953 C 0.8578 0.61913 0.54202 0.0
C954 C 0.8062 0.58054 0.53542 0.0
C955 C 0.8536 0.64191 0.53266 0.0
C956 C 0.81711 0.62332 0.45539 0.0
C957 C 0.80592 0.62702 0.44888 0.0
C958 C 0.79535 0.62912 0.45946 0.0
C959 C 0.79593 0.62754 0.4771 0.0
C960 C 0.78568 0.62987 0.48816 0.0
C961 C 0.78594 0.62773 0.50542 0.0
C962 C 0.79663 0.62342 0.51235 0.0
C963 C 0.79669 0.62083 0.52982 0.0
C964 C 0.80783 0.61708 0.53639 0.0
C965 C 0.81872 0.6154 0.52588 0.0
C966 C 0.81847 0.61743 0.50826 0.0
C967 C 0.82886 0.61531 0.4972 0.0
C968 C 0.82857 0.61739 0.47992 0.0
C969 C 0.8177 0.62143 0.47297 0.0
C970 C 0.80704 0.62353 0.48385 0.0
C971 C 0.80744 0.62154 0.50151 0.0
C972 C 0.72217 0.60782 0.56021 0.0
C973 C 0.73334 0.6097 0.57505 0.0
O974 O 0.85529 0.61559 0.40534 0.0
O975 O 0.86238 0.59747 0.55056 0.0
O976 O 0.74953 0.62239 0.57226 0.0
O977 O 0.75038 0.64248 0.42893 0.0
H978 H 0.86258 0.63771 0.39345 0.0
H979 H 0.84288 0.61315 0.37505 0.0
H980 H 0.85706 0.60604 0.37373 0.0
H981 H 0.8624 0.62585 0.36497 0.0
H982 H 0.86346 0.64479 0.42148 0.0
H983 H 0.82892 0.59133 0.41808 0.0
H984 H 0.83969 0.65674 0.44211 0.0
H985 H 0.86095 0.66277 0.4412 0.0
H986 H 0.84887 0.65296 0.45962 0.0
H987 H 0.80507 0.57793 0.43458 0.0
H988 H 0.79662 0.59088 0.43909 0.0
H989 H 0.80788 0.58812 0.45524 0.0
H990 H 0.76173 0.66862 0.42638 0.0
H991 H 0.74508 0.65247 0.38414 0.0
H992 H 0.7378 0.66411 0.41562 0.0
H993 H 0.72825 0.64337 0.41623 0.0
H994 H 0.74307 0.61388 0.43988 0.0
H995 H 0.78274 0.66509 0.43426 0.0
H996 H 0.76872 0.59785 0.44944 0.0
H997 H 0.74779 0.59303 0.44887 0.0
H998 H 0.76009 0.6016 0.468 0.0
H999 H 0.80909 0.67589 0.44605 0.0
H1000 H 0.8149 0.66103 0.43997 0.0
H1001 H 0.8114 0.66384 0.4618 0.0
H1002 H 0.73254 0.59751 0.57635 0.0
H1003 H 0.74489 0.59509 0.55383 0.0
H1004 H 0.77916 0.64729 0.56807 0.0
H1005 H 0.76448 0.59179 0.51932 0.0
H1006 H 0.75176 0.57924 0.53627 0.0
H1007 H 0.77339 0.58653 0.53588 0.0
H1008 H 0.80611 0.66249 0.55744 0.0
H1009 H 0.80731 0.65563 0.53609 0.0
H1010 H 0.81477 0.64964 0.55341 0.0
H1011 H 0.87945 0.60947 0.53213 0.0
H1012 H 0.89369 0.59427 0.53687 0.0
H1013 H 0.87214 0.58039 0.53147 0.0
H1014 H 0.87905 0.58235 0.55303 0.0
H1015 H 0.83086 0.57734 0.54721 0.0
H1016 H 0.87075 0.62869 0.54371 0.0
H1017 H 0.80196 0.58047 0.52236 0.0
H1018 H 0.79866 0.58305 0.5443 0.0
H1019 H 0.80389 0.56785 0.53771 0.0
H1020 H 0.86621 0.65048 0.53807 0.0
H1021 H 0.84537 0.64591 0.5379 0.0
H1022 H 0.85408 0.64332 0.51877 0.0
H1023 H 0.8054 0.62824 0.43536 0.0
H1024 H 0.77724 0.63325 0.48358 0.0
H1025 H 0.77765 0.62952 0.51328 0.0
H1026 H 0.80785 0.61518 0.54983 0.0
H1027 H 0.83735 0.61199 0.50177 0.0
H1028 H 0.83689 0.61568 0.47204 0.0
H1029 H 0.70915 0.59793 0.56268 0.0
H1030 H 0.72584 0.60402 0.54836 0.0
H1031 H 0.72301 0.61993 0.55824 0.0
C1032 C 0.37605 0.25066 0.38816 0.0
C1033 C 0.36516 0.24931 0.40301 0.0
C1034 C 0.37333 0.24104 0.42824 0.0
C1035 C 0.35832 0.22669 0.43259 0.0
C1036 C 0.35804 0.21485 0.44314 0.0
C1037 C 0.37306 0.21743 0.44938 0.0
C1038 C 0.38817 0.23216 0.44538 0.0
C1039 C 0.38805 0.24392 0.43508 0.0
C1040 C 0.3417 0.19948 0.44747 0.0
C1041 C 0.40447 0.23527 0.45158 0.0
C1042 C 0.37848 0.13352 0.38771 0.0
C1043 C 0.37678 0.12402 0.40367 0.0
C1044 C 0.36793 0.13747 0.42494 0.0
C1045 C 0.38329 0.15271 0.42716 0.0
C1046 C 0.38504 0.16588 0.43792 0.0
C1047 C 0.37116 0.16385 0.44654 0.0
C1048 C 0.35572 0.14854 0.4444 0.0
C1049 C 0.35435 0.13551 0.4337 0.0
C1050 C 0.4017 0.18204 0.44001 0.0
C1051 C 0.34064 0.14603 0.45328 0.0
C1052 C 0.39182 0.1486 0.55415 0.0
C1053 C 0.4048 0.16148 0.54509 0.0
C1054 C 0.40272 0.17318 0.53673 0.0
C1055 C 0.38727 0.17177 0.53712 0.0
C1056 C 0.37419 0.15882 0.5462 0.0
C1057 C 0.37671 0.14751 0.55471 0.0
C1058 C 0.41704 0.18704 0.52746 0.0
C1059 C 0.35755 0.15692 0.54691 0.0
C1060 C 0.41035 0.2693 0.5949 0.0
C1061 C 0.39916 0.27241 0.58389 0.0
C1062 C 0.38575 0.24671 0.56498 0.0
C1063 C 0.39976 0.25037 0.5557 0.0
C1064 C 0.39917 0.23843 0.54388 0.0
C1065 C 0.38422 0.22271 0.54105 0.0
C1066 C 0.36994 0.21934 0.5498 0.0
C1067 C 0.37094 0.23138 0.5617 0.0
C1068 C 0.41461 0.24242 0.53468 0.0
C1069 C 0.3537 0.20285 0.54689 0.0
C1070 C 0.37312 0.20415 0.45894 0.0
C1071 C 0.37167 0.19042 0.44959 0.0
C1072 C 0.37272 0.17793 0.45742 0.0
C1073 C 0.37551 0.17919 0.47508 0.0
C1074 C 0.37711 0.16709 0.48328 0.0
C1075 C 0.38005 0.16853 0.50065 0.0
C1076 C 0.38155 0.18216 0.51048 0.0
C1077 C 0.38481 0.18389 0.5281 0.0
C1078 C 0.38583 0.19736 0.53754 0.0
C1079 C 0.38371 0.20929 0.5299 0.0
C1080 C 0.38079 0.208 0.51224 0.0
C1081 C 0.37884 0.2199 0.50408 0.0
C1082 C 0.37626 0.21866 0.48662 0.0
C1083 C 0.37538 0.20537 0.47672 0.0
C1084 C 0.37682 0.19295 0.48477 0.0
C1085 C 0.37972 0.19438 0.50251 0.0
C1086 C 0.40563 0.12506 0.54556 0.0
C1087 C 0.40617 0.1344 0.56216 0.0
O1088 O 0.37407 0.25264 0.41797 0.0
O1089 O 0.38588 0.25728 0.57738 0.0
O1090 O 0.3932 0.13699 0.5625 0.0
O1091 O 0.36553 0.12441 0.41448 0.0
H1092 H 0.35402 0.23631 0.40246 0.0
H1093 H 0.38001 0.24155 0.38943 0.0
H1094 H 0.38721 0.2636 0.38795 0.0
H1095 H 0.36916 0.24764 0.37596 0.0
H1096 H 0.34684 0.22482 0.42796 0.0
H1097 H 0.39953 0.25522 0.43187 0.0
H1098 H 0.34048 0.1881 0.44105 0.0
H1099 H 0.33111 0.20039 0.44349 0.0
H1100 H 0.34111 0.19773 0.46132 0.0
H1101 H 0.41513 0.2467 0.44629 0.0
H1102 H 0.40543 0.22422 0.44809 0.0
H1103 H 0.40525 0.23688 0.46559 0.0
H1104 H 0.38899 0.12994 0.4102 0.0
H1105 H 0.38734 0.13302 0.37895 0.0
H1106 H 0.38316 0.14698 0.39102 0.0
H1107 H 0.36636 0.12787 0.38108 0.0
H1108 H 0.39397 0.15454 0.42051 0.0
H1109 H 0.34257 0.12374 0.43193 0.0
H1110 H 0.40113 0.19257 0.43486 0.0
H1111 H 0.41153 0.18123 0.43341 0.0
H1112 H 0.40511 0.18518 0.45365 0.0
H1113 H 0.3294 0.13359 0.44981 0.0
H1114 H 0.33851 0.15616 0.45006 0.0
H1115 H 0.34267 0.14696 0.46718 0.0
H1116 H 0.4181 0.14673 0.56336 0.0
H1117 H 0.4166 0.16259 0.54448 0.0
H1118 H 0.36678 0.13758 0.56175 0.0
H1119 H 0.41431 0.18499 0.51365 0.0
H1120 H 0.42869 0.18751 0.52983 0.0
H1121 H 0.41889 0.19948 0.53134 0.0
H1122 H 0.34816 0.1451 0.55286 0.0
H1123 H 0.35316 0.15699 0.53398 0.0
H1124 H 0.35866 0.16779 0.55438 0.0
H1125 H 0.40639 0.2805 0.57333 0.0
H1126 H 0.42058 0.28145 0.6006 0.0
H1127 H 0.41588 0.26342 0.58726 0.0
H1128 H 0.40324 0.26077 0.60521 0.0
H1129 H 0.41124 0.26235 0.55777 0.0
H1130 H 0.36015 0.22875 0.56878 0.0
H1131 H 0.41242 0.24165 0.52082 0.0
H1132 H 0.41776 0.23293 0.53745 0.0
H1133 H 0.4253 0.25519 0.53833 0.0
H1134 H 0.34339 0.20291 0.55331 0.0
H1135 H 0.35464 0.19245 0.55178 0.0
H1136 H 0.35078 0.20013 0.53313 0.0
H1137 H 0.36991 0.18955 0.43596 0.0
H1138 H 0.37617 0.15639 0.47635 0.0
H1139 H 0.38116 0.15884 0.50627 0.0
H1140 H 0.38819 0.19851 0.55108 0.0
H1141 H 0.37943 0.2304 0.51108 0.0
H1142 H 0.37496 0.22823 0.48098 0.0
H1143 H 0.39377 0.1127 0.54417 0.0
H1144 H 0.41595 0.12288 0.54528 0.0
H1145 H 0.40687 0.13264 0.5346 0.0
C1146 C 0.87656 0.23632 0.38455 0.0
C1147 C 0.8864 0.24866 0.39944 0.0
C1148 C 0.87101 0.23098 0.42319 0.0
C1149 C 0.85787 0.2336 0.42289 0.0
C1150 C 0.84387 0.22404 0.43271 0.0
C1151 C 0.84281 0.21137 0.44277 0.0
C1152 C 0.85602 0.2087 0.44311 0.0
C1153 C 0.87007 0.21877 0.43353 0.0
C1154 C 0.83012 0.2274 0.43219 0.0
C1155 C 0.85521 0.19507 0.45338 0.0
C1156 C 0.72462 0.11997 0.40202 0.0
C1157 C 0.74037 0.11977 0.39926 0.0
C1158 C 0.75979 0.13421 0.4232 0.0
C1159 C 0.76912 0.13191 0.43498 0.0
C1160 C 0.78219 0.14568 0.44409 0.0
C1161 C 0.78558 0.16215 0.44179 0.0
C1162 C 0.776 0.16456 0.43008 0.0
C1163 C 0.7633 0.15058 0.42078 0.0
C1164 C 0.79238 0.14258 0.45611 0.0
C1165 C 0.77913 0.18188 0.42741 0.0
C1166 C 0.7477 0.15723 0.54598 0.0
C1167 C 0.75795 0.15089 0.54312 0.0
C1168 C 0.77345 0.16085 0.53579 0.0
C1169 C 0.77869 0.17738 0.53109 0.0
C1170 C 0.76865 0.18399 0.53459 0.0
C1171 C 0.75334 0.17385 0.54217 0.0
C1172 C 0.7841 0.15362 0.53278 0.0
C1173 C 0.77392 0.20161 0.52993 0.0
C1174 C 0.89651 0.28172 0.5526 0.0
C1175 C 0.88903 0.26952 0.56704 0.0
C1176 C 0.86762 0.24286 0.55249 0.0
C1177 C 0.86363 0.22666 0.54735 0.0
C1178 C 0.84908 0.21554 0.53815 0.0
C1179 C 0.83833 0.22089 0.5338 0.0
C1180 C 0.84208 0.23716 0.53922 0.0
C1181 C 0.85666 0.24799 0.54862 0.0
C1182 C 0.84534 0.19815 0.53287 0.0
C1183 C 0.83081 0.24319 0.53482 0.0
C1184 C 0.82762 0.20056 0.45243 0.0
C1185 C 0.81403 0.18717 0.44361 0.0
C1186 C 0.79914 0.17678 0.45168 0.0
C1187 C 0.7976 0.17993 0.46901 0.0
C1188 C 0.78255 0.17034 0.47732 0.0
C1189 C 0.78134 0.17303 0.49454 0.0
C1190 C 0.7952 0.18525 0.50419 0.0
C1191 C 0.79432 0.18752 0.52188 0.0
C1192 C 0.80846 0.19947 0.53113 0.0
C1193 C 0.82346 0.20956 0.52312 0.0
C1194 C 0.82442 0.20796 0.50536 0.0
C1195 C 0.83913 0.21845 0.4968 0.0
C1196 C 0.84011 0.21635 0.4794 0.0
C1197 C 0.82654 0.2034 0.46996 0.0
C1198 C 0.81148 0.19297 0.47828 0.0
C1199 C 0.81034 0.19545 0.49594 0.0
C1200 C 0.70456 0.12576 0.54687 0.0
C1201 C 0.72212 0.13032 0.55072 0.0
O1202 O 0.88472 0.23978 0.41372 0.0
O1203 O 0.8822 0.25301 0.56092 0.0
O1204 O 0.73235 0.14774 0.55235 0.0
O1205 O 0.74747 0.1203 0.41466 0.0
H1206 H 0.88186 0.25725 0.40202 0.0
H1207 H 0.86327 0.22863 0.38756 0.0
H1208 H 0.88101 0.22768 0.38179 0.0
H1209 H 0.87781 0.24329 0.37305 0.0
H1210 H 0.85839 0.24308 0.41511 0.0
H1211 H 0.88026 0.21685 0.43373 0.0
H1212 H 0.81921 0.21656 0.42558 0.0
H1213 H 0.83367 0.23902 0.42549 0.0
H1214 H 0.82643 0.22865 0.44524 0.0
H1215 H 0.86572 0.19344 0.45088 0.0
H1216 H 0.84352 0.18285 0.45053 0.0
H1217 H 0.85538 0.19831 0.46706 0.0
H1218 H 0.74902 0.13099 0.39199 0.0
H1219 H 0.7184 0.11848 0.38968 0.0
H1220 H 0.72764 0.13215 0.40824 0.0
H1221 H 0.71593 0.10971 0.41023 0.0
H1222 H 0.7663 0.11924 0.43679 0.0
H1223 H 0.75604 0.15255 0.41185 0.0
H1224 H 0.78941 0.14426 0.46934 0.0
H1225 H 0.80573 0.1518 0.45438 0.0
H1226 H 0.78996 0.12961 0.45431 0.0
H1227 H 0.76918 0.18135 0.41975 0.0
H1228 H 0.79093 0.18945 0.42075 0.0
H1229 H 0.78027 0.18853 0.43977 0.0
H1230 H 0.72582 0.12532 0.53971 0.0
H1231 H 0.7539 0.13822 0.54661 0.0
H1232 H 0.74544 0.17869 0.54469 0.0
H1233 H 0.78489 0.15158 0.51897 0.0
H1234 H 0.77914 0.14139 0.53888 0.0
H1235 H 0.79681 0.16266 0.5377 0.0
H1236 H 0.76446 0.20469 0.53301 0.0
H1237 H 0.77641 0.20303 0.51618 0.0
H1238 H 0.78555 0.21091 0.53682 0.0
H1239 H 0.87938 0.27096 0.5733 0.0
H1240 H 0.9023 0.29497 0.55764 0.0
H1241 H 0.88686 0.27925 0.54319 0.0
H1242 H 0.906 0.28028 0.54601 0.0
H1243 H 0.87209 0.22278 0.55049 0.0
H1244 H 0.85945 0.26042 0.55266 0.0
H1245 H 0.8461 0.19715 0.5189 0.0
H1246 H 0.8326 0.18842 0.53642 0.0
H1247 H 0.85406 0.19532 0.53873 0.0
H1248 H 0.83574 0.25642 0.53947 0.0
H1249 H 0.81855 0.2349 0.54044 0.0
H1250 H 0.82898 0.24232 0.52088 0.0
H1251 H 0.81509 0.18474 0.43028 0.0
H1252 H 0.77153 0.1606 0.47059 0.0
H1253 H 0.76945 0.1652 0.50024 0.0
H1254 H 0.80782 0.2008 0.54475 0.0
H1255 H 0.85005 0.22842 0.50347 0.0
H1256 H 0.85173 0.2248 0.4735 0.0
H1257 H 0.69611 0.11184 0.54528 0.0
H1258 H 0.7043 0.13147 0.53494 0.0
H1259 H 0.70006 0.13058 0.55725 0.0
C1260 C 0.02681 0.4754 0.29964 0.0
C1261 C 0.01919 0.46237 0.28482 0.0
C1262 C 0.01776 0.4773 0.26075 0.0
C1263 C 0.00062 0.46928 0.25852 0.0
C1264 C 0.99391 0.47639 0.24864 0.0
C1265 C 0.00455 0.49179 0.24084 0.0
C1266 C 0.02182 0.49988 0.24309 0.0
C1267 C 0.02819 0.49238 0.25283 0.0
C1268 C 0.97546 0.46728 0.24624 0.0
C1269 C 0.03354 0.51636 0.23504 0.0
C1270 C 0.95412 0.5744 0.24503 0.0
C1271 C 0.96904 0.57383 0.25065 0.0
C1272 C 0.96978 0.54799 0.24945 0.0
C1273 C 0.98613 0.55514 0.24421 0.0
C1274 C 0.99165 0.54486 0.23766 0.0
C1275 C 0.98063 0.52713 0.23644 0.0
C1276 C 0.96444 0.51989 0.24256 0.0
C1277 C 0.95927 0.53045 0.24909 0.0
C1278 C 0.00913 0.55295 0.23164 0.0
C1279 C 0.95247 0.50103 0.24167 0.0
C1280 C 0.96069 0.52885 0.12829 0.0
C1281 C 0.97703 0.53862 0.13434 0.0
C1282 C 0.98428 0.53115 0.14267 0.0
C1283 C 0.97482 0.51361 0.14538 0.0
C1284 C 0.95859 0.50363 0.13854 0.0
C1285 C 0.95182 0.51138 0.12983 0.0
C1286 C 0.00189 0.5421 0.14902 0.0
C1287 C 0.9482 0.48489 0.14099 0.0
C1288 C 0.03352 0.43782 0.14062 0.0
C1289 C 0.01939 0.43902 0.1335 0.0
C1290 C 0.01667 0.46366 0.13748 0.0
C1291 C 0.026 0.48113 0.1405 0.0
C1292 C 0.01871 0.48988 0.14658 0.0
C1293 C 0.00159 0.48085 0.14962 0.0
C1294 C 0.99188 0.46329 0.14564 0.0
C1295 C 0.99951 0.45484 0.13951 0.0
C1296 C 0.0294 0.50867 0.15037 0.0
C1297 C 0.97353 0.45341 0.1484 0.0
C1298 C 0.99764 0.49909 0.22981 0.0
C1299 C 0.99238 0.50914 0.23742 0.0
C1300 C 0.98568 0.51629 0.22772 0.0
C1301 C 0.98408 0.51331 0.20995 0.0
C1302 C 0.977 0.51996 0.19988 0.0
C1303 C 0.97582 0.51729 0.18239 0.0
C1304 C 0.98191 0.50812 0.17422 0.0
C1305 C 0.98145 0.50598 0.15635 0.0
C1306 C 0.98767 0.49681 0.14868 0.0
C1307 C 0.99425 0.48956 0.1584 0.0
C1308 C 0.99465 0.49142 0.17626 0.0
C1309 C 0.001 0.4841 0.18641 0.0
C1310 C 0.00178 0.48639 0.20394 0.0
C1311 C 0.99642 0.49624 0.21202 0.0
C1312 C 0.98968 0.50346 0.20207 0.0
C1313 C 0.98869 0.50094 0.18417 0.0
C1314 C 0.93644 0.54678 0.12996 0.0
C1315 C 0.95392 0.55037 0.12802 0.0
O1316 O 0.02473 0.47054 0.26974 0.0
O1317 O 0.0248 0.45595 0.13267 0.0
O1318 O 0.95309 0.53602 0.12132 0.0
O1319 O 0.96366 0.55749 0.25494 0.0
H1320 H 0.00558 0.45581 0.28562 0.0
H1321 H 0.02309 0.48474 0.29878 0.0
H1322 H 0.04049 0.48222 0.29943 0.0
H1323 H 0.02247 0.46915 0.31187 0.0
H1324 H 0.99243 0.45722 0.26395 0.0
H1325 H 0.0414 0.49835 0.25444 0.0
H1326 H 0.97106 0.47542 0.25129 0.0
H1327 H 0.96886 0.45514 0.25271 0.0
H1328 H 0.9722 0.46472 0.23254 0.0
H1329 H 0.04652 0.52181 0.23927 0.0
H1330 H 0.02997 0.52566 0.23812 0.0
H1331 H 0.03281 0.5143 0.22107 0.0
H1332 H 0.97741 0.57759 0.23967 0.0
H1333 H 0.95803 0.58729 0.24124 0.0
H1334 H 0.94513 0.57075 0.25542 0.0
H1335 H 0.9479 0.56548 0.23397 0.0
H1336 H 0.9946 0.56869 0.24519 0.0
H1337 H 0.94678 0.52506 0.25348 0.0
H1338 H 0.00902 0.55071 0.21773 0.0
H1339 H 0.01524 0.54708 0.23758 0.0
H1340 H 0.01653 0.56678 0.2346 0.0
H1341 H 0.94042 0.49734 0.24732 0.0
H1342 H 0.95779 0.49479 0.24842 0.0
H1343 H 0.95035 0.49624 0.22827 0.0
H1344 H 0.95934 0.55348 0.1411 0.0
H1345 H 0.98406 0.55209 0.13265 0.0
H1346 H 0.93929 0.50395 0.12487 0.0
H1347 H 0.00203 0.54428 0.16293 0.0
H1348 H 0.00844 0.55457 0.14316 0.0
H1349 H 0.00874 0.53574 0.14637 0.0
H1350 H 0.93555 0.47905 0.13557 0.0
H1351 H 0.94732 0.48244 0.15469 0.0
H1352 H 0.95415 0.47864 0.13484 0.0
H1353 H 0.00903 0.43262 0.14243 0.0
H1354 H 0.02955 0.42442 0.14205 0.0
H1355 H 0.0374 0.44443 0.15328 0.0
H1356 H 0.04429 0.44378 0.13214 0.0
H1357 H 0.03919 0.48785 0.13857 0.0
H1358 H 0.99203 0.44142 0.13644 0.0
H1359 H 0.02983 0.51132 0.16423 0.0
H1360 H 0.02404 0.51519 0.14426 0.0
H1361 H 0.04221 0.51405 0.14595 0.0
H1362 H 0.96756 0.43998 0.14394 0.0
H1363 H 0.96777 0.4592 0.14164 0.0
H1364 H 0.97112 0.45393 0.16209 0.0
H1365 H 0.99353 0.51146 0.25104 0.0
H1366 H 0.97231 0.52732 0.2054 0.0
H1367 H 0.97021 0.52268 0.17535 0.0
H1368 H 0.98757 0.49548 0.13499 0.0
H1369 H 0.00548 0.47653 0.18093 0.0
H1370 H 0.0068 0.48045 0.21105 0.0
H1371 H 0.93687 0.55833 0.13478 0.0
H1372 H 0.92967 0.53677 0.13918 0.0
H1373 H 0.92949 0.54233 0.11773 0.0
C1374 C 0.44516 0.38676 0.28238 0.0
C1375 C 0.44545 0.40322 0.28535 0.0
C1376 C 0.45691 0.42073 0.26067 0.0
C1377 C 0.45361 0.42945 0.24908 0.0
C1378 C 0.46619 0.44192 0.23939 0.0
C1379 C 0.48238 0.44521 0.24085 0.0
C1380 C 0.48571 0.43605 0.25219 0.0
C1381 C 0.473 0.42405 0.26213 0.0
C1382 C 0.46218 0.45174 0.22785 0.0
C1383 C 0.50276 0.43905 0.25397 0.0
C1384 C 0.56231 0.54306 0.29949 0.0
C1385 C 0.56973 0.5529 0.28346 0.0
C1386 C 0.54907 0.53386 0.2617 0.0
C1387 C 0.55307 0.52142 0.26126 0.0
C1388 C 0.5437 0.5064 0.25135 0.0
C1389 C 0.53009 0.50378 0.24171 0.0
C1390 C 0.52618 0.51637 0.24194 0.0
C1391 C 0.53579 0.53128 0.25188 0.0
C1392 C 0.54826 0.49326 0.25123 0.0
C1393 C 0.51173 0.51399 0.23183 0.0
C1394 C 0.56369 0.52504 0.13552 0.0
C1395 C 0.565 0.51092 0.13685 0.0
C1396 C 0.55276 0.49657 0.14493 0.0
C1397 C 0.53878 0.49626 0.15138 0.0
C1398 C 0.53715 0.51026 0.14932 0.0
C1399 C 0.54989 0.52467 0.14187 0.0
C1400 C 0.55498 0.48194 0.14691 0.0
C1401 C 0.52213 0.51024 0.15527 0.0
C1402 C 0.43259 0.36413 0.13023 0.0
C1403 C 0.43889 0.38282 0.12855 0.0
C1404 C 0.467 0.4069 0.13323 0.0
C1405 C 0.48297 0.41059 0.13616 0.0
C1406 C 0.49481 0.42566 0.14478 0.0
C1407 C 0.49063 0.43749 0.15019 0.0
C1408 C 0.47476 0.43427 0.14635 0.0
C1409 C 0.46306 0.41894 0.13801 0.0
C1410 C 0.51165 0.42875 0.14849 0.0
C1411 C 0.47005 0.44687 0.15133 0.0
C1412 C 0.496 0.45881 0.23121 0.0
C1413 C 0.50674 0.47416 0.23992 0.0
C1414 C 0.51965 0.4877 0.23171 0.0
C1415 C 0.52195 0.48601 0.21425 0.0
C1416 C 0.53495 0.4993 0.20565 0.0
C1417 C 0.53668 0.49777 0.18833 0.0
C1418 C 0.52531 0.483 0.17887 0.0
C1419 C 0.52631 0.48174 0.16106 0.0
C1420 C 0.51492 0.46677 0.15211 0.0
C1421 C 0.50256 0.45288 0.16048 0.0
C1422 C 0.50137 0.45392 0.17828 0.0
C1423 C 0.48922 0.44014 0.18715 0.0
C1424 C 0.48763 0.44158 0.20454 0.0
C1425 C 0.49807 0.45688 0.21371 0.0
C1426 C 0.51092 0.47065 0.20516 0.0
C1427 C 0.51258 0.46916 0.18743 0.0
C1428 C 0.59467 0.5579 0.10852 0.0
C1429 C 0.58406 0.54039 0.11413 0.0
O1430 O 0.44426 0.40925 0.27008 0.0
O1431 O 0.45573 0.39161 0.12593 0.0
O1432 O 0.57585 0.53948 0.12892 0.0
O1433 O 0.55745 0.54842 0.27142 0.0
H1434 H 0.45725 0.41261 0.29201 0.0
H1435 H 0.45616 0.38911 0.2753 0.0
H1436 H 0.43406 0.37721 0.27491 0.0
H1437 H 0.44527 0.38152 0.29468 0.0
H1438 H 0.44116 0.42677 0.24799 0.0
H1439 H 0.47575 0.41729 0.27089 0.0
H1440 H 0.47144 0.46548 0.22955 0.0
H1441 H 0.44973 0.44951 0.23017 0.0
H1442 H 0.46256 0.4479 0.21448 0.0
H1443 H 0.50275 0.4291 0.26115 0.0
H1444 H 0.51095 0.45141 0.26076 0.0
H1445 H 0.50804 0.43952 0.24131 0.0
H1446 H 0.57894 0.55021 0.27824 0.0
H1447 H 0.57214 0.54688 0.30922 0.0
H1448 H 0.55629 0.5293 0.29668 0.0
H1449 H 0.55294 0.54548 0.30476 0.0
H1450 H 0.56339 0.52323 0.26864 0.0
H1451 H 0.53284 0.54097 0.25223 0.0
H1452 H 0.5381 0.48157 0.2567 0.0
H1453 H 0.55977 0.49759 0.2586 0.0
H1454 H 0.54986 0.48997 0.23801 0.0
H1455 H 0.50999 0.52475 0.23382 0.0
H1456 H 0.50026 0.50223 0.23538 0.0
H1457 H 0.51362 0.51259 0.21815 0.0
H1458 H 0.58982 0.53274 0.11376 0.0
H1459 H 0.57583 0.51131 0.1322 0.0
H1460 H 0.54905 0.53568 0.14079 0.0
H1461 H 0.55321 0.47828 0.1603 0.0
H1462 H 0.56736 0.48492 0.14293 0.0
H1463 H 0.54553 0.47089 0.13909 0.0
H1464 H 0.5209 0.51995 0.14907 0.0
H1465 H 0.5232 0.51306 0.16913 0.0
H1466 H 0.51072 0.49769 0.15268 0.0
H1467 H 0.43626 0.38716 0.14081 0.0
H1468 H 0.41908 0.35681 0.13226 0.0
H1469 H 0.43873 0.36262 0.14126 0.0
H1470 H 0.43529 0.35886 0.11871 0.0
H1471 H 0.48595 0.40132 0.13218 0.0
H1472 H 0.45088 0.41641 0.13525 0.0
H1473 H 0.51447 0.43134 0.16227 0.0
H1474 H 0.52111 0.44006 0.14192 0.0
H1475 H 0.51265 0.41786 0.1443 0.0
H1476 H 0.4582 0.44361 0.14531 0.0
H1477 H 0.47984 0.45972 0.14773 0.0
H1478 H 0.46878 0.44724 0.16526 0.0
H1479 H 0.50493 0.47566 0.25328 0.0
H1480 H 0.54387 0.51109 0.21221 0.0
H1481 H 0.54693 0.50845 0.18241 0.0
H1482 H 0.51557 0.46598 0.13843 0.0
H1483 H 0.48069 0.42812 0.18073 0.0
H1484 H 0.47797 0.43061 0.21068 0.0
H1485 H 0.60756 0.56044 0.10886 0.0
H1486 H 0.59682 0.56659 0.11986 0.0
H1487 H 0.58293 0.55808 0.08573 0.0
C1488 C 0.43691 0.96805 0.2972 0.0
C1489 C 0.4357 0.97978 0.28516 0.0
C1490 C 0.44736 0.97952 0.25771 0.0
C1491 C 0.45925 0.99679 0.25663 0.0
C1492 C 0.4728 0.0023 0.246 0.0
C1493 C 0.47436 0.99028 0.23615 0.0
C1494 C 0.46192 0.97295 0.23652 0.0
C1495 C 0.44846 0.96781 0.24721 0.0
C1496 C 0.48566 0.02091 0.24557 0.0
C1497 C 0.46311 0.95984 0.226 0.0
C1498 C 0.58367 0.99535 0.28145 0.0
C1499 C 0.56728 0.99045 0.27452 0.0
C1500 C 0.55496 0.00279 0.25821 0.0
C1501 C 0.54179 0.9873 0.25146 0.0
C1502 C 0.52981 0.98673 0.24087 0.0
C1503 C 0.53077 0.0019 0.23729 0.0
C1504 C 0.5439 0.0175 0.24424 0.0
C1505 C 0.55596 0.01772 0.25441 0.0
C1506 C 0.51602 0.96987 0.23366 0.0
C1507 C 0.54507 0.0339 0.24116 0.0
C1508 C 0.57058 0.03638 0.13281 0.0
C1509 C 0.55837 0.01912 0.133 0.0
C1510 C 0.54344 0.01358 0.14131 0.0
C1511 C 0.54072 0.02556 0.14958 0.0
C1512 C 0.55284 0.04298 0.14901 0.0
C1513 C 0.56755 0.04816 0.14044 0.0
C1514 C 0.53056 0.99494 0.14123 0.0
C1515 C 0.55031 0.05611 0.15758 0.0
C1516 C 0.43217 0.02543 0.146 0.0
C1517 C 0.44284 0.03147 0.13023 0.0
C1518 C 0.46073 0.02025 0.13383 0.0
C1519 C 0.46249 0.00667 0.12952 0.0
C1520 C 0.47452 0.00489 0.13743 0.0
C1521 C 0.48529 0.01725 0.14974 0.0
C1522 C 0.48396 0.03134 0.15379 0.0
C1523 C 0.47156 0.03257 0.14599 0.0
C1524 C 0.47556 0.9897 0.13284 0.0
C1525 C 0.49555 0.04506 0.16649 0.0
C1526 C 0.48962 0.99569 0.22657 0.0
C1527 C 0.5027 0.99646 0.23515 0.0
C1528 C 0.5175 0.00132 0.22712 0.0
C1529 C 0.51941 0.00557 0.20996 0.0
C1530 C 0.53403 0.01023 0.20137 0.0
C1531 C 0.53596 0.01488 0.18463 0.0
C1532 C 0.52327 0.01488 0.17578 0.0
C1533 C 0.52521 0.01989 0.15886 0.0
C1534 C 0.51249 0.02012 0.1506 0.0
C1535 C 0.49772 0.01534 0.15873 0.0
C1536 C 0.49538 0.00986 0.17548 0.0
C1537 C 0.48049 0.0045 0.18387 0.0
C1538 C 0.47852 0.99974 0.20056 0.0
C1539 C 0.49135 0.00013 0.2095 0.0
C1540 C 0.50634 0.00515 0.20118 0.0
C1541 C 0.5083 0.00988 0.18411 0.0
C1542 C 0.60736 0.04404 0.14038 0.0
C1543 C 0.59489 0.03531 0.12573 0.0
O1544 O 0.43465 0.97373 0.26862 0.0
O1545 O 0.44845 0.02086 0.12602 0.0
O1546 O 0.58515 0.04214 0.12492 0.0
O1547 O 0.5669 0.00389 0.26837 0.0
H1548 H 0.44717 0.99235 0.28753 0.0
H1549 H 0.44883 0.9689 0.29537 0.0
H1550 H 0.42686 0.9547 0.29456 0.0
H1551 H 0.43644 0.97185 0.31058 0.0
H1552 H 0.45802 0.00603 0.26404 0.0
H1553 H 0.43903 0.95453 0.24788 0.0
H1554 H 0.49758 0.02337 0.25056 0.0
H1555 H 0.48216 0.02874 0.25318 0.0
H1556 H 0.48759 0.02492 0.23231 0.0
H1557 H 0.45203 0.94696 0.22709 0.0
H1558 H 0.47412 0.95976 0.23013 0.0
H1559 H 0.46471 0.96308 0.2125 0.0
H1560 H 0.55652 0.98219 0.28248 0.0
H1561 H 0.59159 0.98266 0.26462 0.0
H1562 H 0.58159 0.99276 0.29532 0.0
H1563 H 0.5909 0.00951 0.28365 0.0
H1564 H 0.54077 0.9756 0.25437 0.0
H1565 H 0.56613 0.0296 0.2597 0.0
H1566 H 0.51424 0.97056 0.21993 0.0
H1567 H 0.50436 0.96651 0.24001 0.0
H1568 H 0.51838 0.95963 0.23548 0.0
H1569 H 0.55494 0.04462 0.24903 0.0
H1570 H 0.53315 0.03275 0.24394 0.0
H1571 H 0.54773 0.03686 0.22765 0.0
H1572 H 0.58731 0.02164 0.12819 0.0
H1573 H 0.56027 0.00995 0.1264 0.0
H1574 H 0.57694 0.06147 0.13994 0.0
H1575 H 0.52867 0.9906 0.15436 0.0
H1576 H 0.5341 0.98732 0.13331 0.0
H1577 H 0.51861 0.99256 0.13641 0.0
H1578 H 0.56132 0.06909 0.1568 0.0
H1579 H 0.5474 0.05333 0.17111 0.0
H1580 H 0.53965 0.05567 0.15157 0.0
H1581 H 0.45348 0.04457 0.13274 0.0
H1582 H 0.42753 0.0338 0.14932 0.0
H1583 H 0.43952 0.02571 0.15695 0.0
H1584 H 0.42151 0.01229 0.14377 0.0
H1585 H 0.45415 0.99725 0.1201 0.0
H1586 H 0.47052 0.04322 0.14955 0.0
H1587 H 0.47486 0.98307 0.14444 0.0
H1588 H 0.48762 0.99386 0.12697 0.0
H1589 H 0.46558 0.98064 0.12386 0.0
H1590 H 0.49459 0.05636 0.16626 0.0
H1591 H 0.5085 0.04896 0.16399 0.0
H1592 H 0.49259 0.04016 0.1794 0.0
H1593 H 0.50133 0.99322 0.24833 0.0
H1594 H 0.5442 0.01046 0.20754 0.0
H1595 H 0.54756 0.01854 0.17873 0.0
H1596 H 0.51422 0.02438 0.13778 0.0
H1597 H 0.47021 0.004 0.17763 0.0
H1598 H 0.46686 0.99586 0.20643 0.0
H1599 H 0.61534 0.03878 0.14116 0.0
H1600 H 0.60076 0.04193 0.15251 0.0
H1601 H 0.61523 0.05786 0.13872 0.0
C1602 C 0.56046 0.01759 0.724 0.0
C1603 C 0.56892 0.01437 0.73841 0.0
C1604 C 0.54646 0.00169 0.75891 0.0
C1605 C 0.54898 0.01681 0.76634 0.0
C1606 C 0.53756 0.01665 0.77763 0.0
C1607 C 0.52311 0.00112 0.78127 0.0
C1608 C 0.52049 0.98588 0.77377 0.0
C1609 C 0.53238 0.98637 0.76292 0.0
C1610 C 0.54089 0.03314 0.78558 0.0
C1611 C 0.50508 0.96911 0.77706 0.0
C1612 C 0.41451 0.01176 0.76652 0.0
C1613 C 0.42807 0.01587 0.77858 0.0
C1614 C 0.4543 0.01811 0.77568 0.0
C1615 C 0.4492 0.00127 0.77815 0.0
C1616 C 0.4604 0.99715 0.78389 0.0
C1617 C 0.47697 0.01019 0.78746 0.0
C1618 C 0.48229 0.02708 0.78416 0.0
C1619 C 0.47089 0.03078 0.77805 0.0
C1620 C 0.4544 0.97891 0.78657 0.0
C1621 C 0.4999 0.04128 0.78753 0.0
C1622 C 0.44813 0.99717 0.89258 0.0
C1623 C 0.44413 0.98191 0.88423 0.0
C1624 C 0.4563 0.98028 0.87612 0.0
C1625 C 0.47278 0.99421 0.87639 0.0
C1626 C 0.47701 0.00925 0.88572 0.0
C1627 C 0.46459 0.01047 0.89386 0.0
C1628 C 0.45143 0.9639 0.86667 0.0
C1629 C 0.49448 0.02427 0.88639 0.0
C1630 C 0.55711 0.94885 0.87556 0.0
C1631 C 0.55811 0.96503 0.88195 0.0
C1632 C 0.53427 0.96769 0.88282 0.0
C1633 C 0.51743 0.95693 0.87936 0.0
C1634 C 0.50818 0.96307 0.87266 0.0
C1635 C 0.51591 0.98054 0.86996 0.0
C1636 C 0.53278 0.99164 0.87445 0.0
C1637 C 0.54185 0.98505 0.88061 0.0
C1638 C 0.4902 0.9508 0.86822 0.0
C1639 C 0.54128 0.01043 0.87258 0.0
C1640 C 0.5106 0.001 0.79253 0.0
C1641 C 0.49978 0.00502 0.78559 0.0
C1642 C 0.48838 0.00624 0.79563 0.0
C1643 C 0.48782 0.00355 0.81315 0.0
C1644 C 0.477 0.00539 0.82376 0.0
C1645 C 0.47622 0.00234 0.84088 0.0
C1646 C 0.48621 0.99728 0.8481 0.0
C1647 C 0.48511 0.99364 0.8654 0.0
C1648 C 0.4952 0.98866 0.87222 0.0
C1649 C 0.50638 0.98702 0.86215 0.0
C1650 C 0.50768 0.99066 0.84478 0.0
C1651 C 0.51878 0.98921 0.83421 0.0
C1652 C 0.52001 0.99291 0.81719 0.0
C1653 C 0.50976 0.9976 0.8099 0.0
C1654 C 0.49836 0.99895 0.82025 0.0
C1655 C 0.49748 0.99571 0.83774 0.0
C1656 C 0.42589 0.01085 0.88031 0.0
C1657 C 0.42218 0.9958 0.89067 0.0
O1658 O 0.55718 0.00126 0.74785 0.0
O1659 O 0.54292 0.96098 0.88813 0.0
O1660 O 0.43635 0.99943 0.8993 0.0
O1661 O 0.44342 0.02247 0.77136 0.0
H1662 H 0.57609 0.02604 0.74659 0.0
H1663 H 0.55189 0.02116 0.72921 0.0
H1664 H 0.55332 0.00605 0.71561 0.0
H1665 H 0.56973 0.0281 0.71637 0.0
H1666 H 0.55982 0.02881 0.76356 0.0
H1667 H 0.53054 0.97477 0.75717 0.0
H1668 H 0.53209 0.03609 0.78021 0.0
H1669 H 0.55362 0.04381 0.78328 0.0
H1670 H 0.53899 0.03213 0.79945 0.0
H1671 H 0.5042 0.95863 0.76905 0.0
H1672 H 0.494 0.9697 0.77463 0.0
H1673 H 0.50494 0.96622 0.79054 0.0
H1674 H 0.42521 0.00651 0.7884 0.0
H1675 H 0.40578 0.99769 0.76703 0.0
H1676 H 0.41907 0.01113 0.7535 0.0
H1677 H 0.40756 0.0293 0.77388 0.0
H1678 H 0.43644 0.99138 0.77569 0.0
H1679 H 0.47473 0.0437 0.77581 0.0
H1680 H 0.45364 0.97683 0.80034 0.0
H1681 H 0.46321 0.97574 0.7812 0.0
H1682 H 0.44203 0.97015 0.7807 0.0
H1683 H 0.50173 0.05386 0.78574 0.0
H1684 H 0.50808 0.03964 0.77878 0.0
H1685 H 0.50374 0.04095 0.80065 0.0
H1686 H 0.41786 0.98475 0.88166 0.0
H1687 H 0.43149 0.97131 0.88392 0.0
H1688 H 0.46757 0.02209 0.90062 0.0
H1689 H 0.4526 0.96587 0.85286 0.0
H1690 H 0.43855 0.95371 0.8692 0.0
H1691 H 0.45984 0.95971 0.87024 0.0
H1692 H 0.49592 0.03475 0.89487 0.0
H1693 H 0.49828 0.02896 0.87347 0.0
H1694 H 0.50294 0.02046 0.89088 0.0
H1695 H 0.5612 0.97289 0.87068 0.0
H1696 H 0.56932 0.95178 0.87099 0.0
H1697 H 0.54807 0.94286 0.86486 0.0
H1698 H 0.55304 0.93964 0.88569 0.0
H1699 H 0.51168 0.94358 0.88135 0.0
H1700 H 0.55481 0.99344 0.88377 0.0
H1701 H 0.48741 0.95267 0.8552 0.0
H1702 H 0.48252 0.95315 0.87704 0.0
H1703 H 0.48661 0.93745 0.8691 0.0
H1704 H 0.55346 0.01753 0.87925 0.0
H1705 H 0.53349 0.01508 0.87761 0.0
H1706 H 0.54324 0.01321 0.85898 0.0
H1707 H 0.50032 0.00735 0.77221 0.0
H1708 H 0.46897 0.0092 0.81896 0.0
H1709 H 0.4676 0.00393 0.84834 0.0
H1710 H 0.49412 0.98571 0.88546 0.0
H1711 H 0.52674 0.9853 0.83899 0.0
H1712 H 0.52893 0.9918 0.80976 0.0
H1713 H 0.41457 0.00821 0.87356 0.0
H1714 H 0.43533 0.01319 0.87074 0.0
H1715 H 0.43067 0.02245 0.88861 0.0
C1716 C 0.0017 0.55963 0.71822 0.0
C1717 C 0.99581 0.5658 0.73323 0.0
C1718 C 0.00263 0.55543 0.75763 0.0
C1719 C 0.98701 0.54376 0.76377 0.0
C1720 C 0.9848 0.53097 0.77421 0.0
C1721 C 0.99848 0.52979 0.77841 0.0
C1722 C 0.01429 0.54171 0.77236 0.0
C1723 C 0.01618 0.5546 0.76231 0.0
C1724 C 0.96785 0.5187 0.78072 0.0
C1725 C 0.02913 0.5407 0.77625 0.0
C1726 C 0.94511 0.41623 0.72077 0.0
C1727 C 0.9605 0.42349 0.73209 0.0
C1728 C 0.96468 0.43972 0.75869 0.0
C1729 C 0.98176 0.4512 0.75769 0.0
C1730 C 0.98965 0.4662 0.76784 0.0
C1731 C 0.98026 0.46974 0.77917 0.0
C1732 C 0.96317 0.45787 0.78061 0.0
C1733 C 0.95566 0.44288 0.77049 0.0
C1734 C 0.00796 0.4784 0.7663 0.0
C1735 C 0.95276 0.46123 0.7925 0.0
C1736 C 0.01563 0.45845 0.88041 0.0
C1737 C 0.0271 0.46887 0.86844 0.0
C1738 C 0.0258 0.48145 0.86098 0.0
C1739 C 0.01252 0.48342 0.86521 0.0
C1740 C 0.00102 0.47306 0.87732 0.0
C1741 C 0.00284 0.46083 0.88488 0.0
C1742 C 0.03861 0.49258 0.84848 0.0
C1743 C 0.98669 0.47477 0.88209 0.0
C1744 C 0.04226 0.61078 0.87969 0.0
C1745 C 0.03278 0.59732 0.89262 0.0
C1746 C 0.0333 0.57199 0.88504 0.0
C1747 C 0.04453 0.56835 0.87801 0.0
C1748 C 0.03912 0.55299 0.86902 0.0
C1749 C 0.02203 0.54083 0.86739 0.0
C1750 C 0.01061 0.54416 0.8751 0.0
C1751 C 0.01637 0.55972 0.88385 0.0
C1752 C 0.05165 0.54984 0.86107 0.0
C1753 C 0.99233 0.53126 0.87405 0.0
C1754 C 0.99619 0.51573 0.78855 0.0
C1755 C 0.98973 0.49993 0.78028 0.0
C1756 C 0.98804 0.48628 0.78869 0.0
C1757 C 0.99336 0.48851 0.80575 0.0
C1758 C 0.99261 0.4753 0.81436 0.0
C1759 C 0.99814 0.47772 0.83108 0.0
C1760 C 0.00451 0.49341 0.83987 0.0
C1761 C 0.01062 0.49615 0.85669 0.0
C1762 C 0.01607 0.51162 0.86534 0.0
C1763 C 0.01607 0.52472 0.85746 0.0
C1764 C 0.01083 0.52251 0.84035 0.0
C1765 C 0.01147 0.53568 0.83175 0.0
C1766 C 0.00659 0.53347 0.81482 0.0
C1767 C 0.00081 0.51799 0.80586 0.0
C1768 C 0.99965 0.5044 0.8144 0.0
C1769 C 0.00493 0.50675 0.83158 0.0
C1770 C 0.01904 0.42825 0.8672 0.0
C1771 C 0.02602 0.43957 0.88336 0.0
O1772 O 0.00512 0.56791 0.74754 0.0
O1773 O 0.03928 0.58719 0.89336 0.0
O1774 O 0.01633 0.44601 0.88789 0.0
O1775 O 0.95649 0.4255 0.74852 0.0
H1776 H 0.98256 0.55627 0.7352 0.0
H1777 H 0.00017 0.54734 0.72093 0.0
H1778 H 0.01493 0.56888 0.71584 0.0
H1779 H 0.99434 0.5578 0.70663 0.0
H1780 H 0.9766 0.54479 0.76071 0.0
H1781 H 0.02822 0.56383 0.75763 0.0
H1782 H 0.96309 0.50602 0.7746 0.0
H1783 H 0.95897 0.52256 0.77808 0.0
H1784 H 0.96847 0.51759 0.79458 0.0
H1785 H 0.04008 0.5497 0.76898 0.0
H1786 H 0.02632 0.52772 0.77333 0.0
H1787 H 0.0323 0.54362 0.78994 0.0
H1788 H 0.96983 0.43592 0.72704 0.0
H1789 H 0.948 0.41467 0.70745 0.0
H1790 H 0.9406 0.42498 0.72117 0.0
H1791 H 0.93513 0.40379 0.72514 0.0
H1792 H 0.98893 0.44848 0.74904 0.0
H1793 H 0.94253 0.4338 0.77132 0.0
H1794 H 0.014 0.48195 0.77903 0.0
H1795 H 0.01025 0.49012 0.7607 0.0
H1796 H 0.01378 0.47307 0.75823 0.0
H1797 H 0.93954 0.45093 0.79176 0.0
H1798 H 0.95385 0.47326 0.78949 0.0
H1799 H 0.9573 0.46264 0.80571 0.0
H1800 H 0.03887 0.45008 0.88123 0.0
H1801 H 0.03714 0.46734 0.86482 0.0
H1802 H 0.99408 0.45281 0.89415 0.0
H1803 H 0.03306 0.48918 0.83555 0.0
H1804 H 0.04944 0.49122 0.84851 0.0
H1805 H 0.04294 0.50604 0.85136 0.0
H1806 H 0.97813 0.46491 0.89075 0.0
H1807 H 0.97972 0.47391 0.87053 0.0
H1808 H 0.99137 0.48735 0.88841 0.0
H1809 H 0.01965 0.58985 0.88836 0.0
H1810 H 0.03723 0.61904 0.87889 0.0
H1811 H 0.04099 0.60463 0.867 0.0
H1812 H 0.05556 0.61867 0.88323 0.0
H1813 H 0.05759 0.57778 0.87929 0.0
H1814 H 0.00763 0.5621 0.89 0.0
H1815 H 0.04883 0.5466 0.84734 0.0
H1816 H 0.05096 0.5389 0.86689 0.0
H1817 H 0.06443 0.56095 0.86269 0.0
H1818 H 0.98515 0.53522 0.88181 0.0
H1819 H 0.98975 0.51896 0.87836 0.0
H1820 H 0.98798 0.52927 0.86069 0.0
H1821 H 0.98598 0.49822 0.76706 0.0
H1822 H 0.9879 0.46299 0.8082 0.0
H1823 H 0.99734 0.46712 0.83704 0.0
H1824 H 0.02063 0.5136 0.87828 0.0
H1825 H 0.0159 0.54791 0.83796 0.0
H1826 H 0.00741 0.54407 0.80882 0.0
H1827 H 0.02668 0.42296 0.86359 0.0
H1828 H 0.01907 0.43562 0.85655 0.0
H1829 H 0.00616 0.41769 0.86911 0.0
C1830 C 0.54872 0.55309 0.72651 0.0
C1831 C 0.55362 0.56913 0.7373 0.0
C1832 C 0.53757 0.55812 0.76273 0.0
C1833 C 0.52764 0.56495 0.76306 0.0
C1834 C 0.51299 0.55744 0.77226 0.0
C1835 C 0.50813 0.54266 0.78105 0.0
C1836 C 0.5182 0.53577 0.78066 0.0
C1837 C 0.533 0.54385 0.7718 0.0
C1838 C 0.50278 0.56535 0.77267 0.0
C1839 C 0.51329 0.51978 0.78945 0.0
C1840 C 0.39777 0.48181 0.7163 0.0
C1841 C 0.40696 0.47697 0.72819 0.0
C1842 C 0.42015 0.49029 0.75543 0.0
C1843 C 0.43025 0.48374 0.75686 0.0
C1844 C 0.44377 0.49131 0.76822 0.0
C1845 C 0.44747 0.506 0.77798 0.0
C1846 C 0.43719 0.51255 0.77655 0.0
C1847 C 0.4234 0.5043 0.7656 0.0
C1848 C 0.45416 0.4837 0.76965 0.0
C1849 C 0.44095 0.5285 0.78622 0.0
C1850 C 0.41506 0.48433 0.88602 0.0
C1851 C 0.4234 0.47711 0.87871 0.0
C1852 C 0.43863 0.48719 0.87093 0.0
C1853 C 0.44536 0.50476 0.86997 0.0
C1854 C 0.43712 0.51208 0.87775 0.0
C1855 C 0.42221 0.50177 0.88597 0.0
C1856 C 0.44741 0.47899 0.8636 0.0
C1857 C 0.44387 0.53074 0.87716 0.0
C1858 C 0.5612 0.61318 0.89487 0.0
C1859 C 0.55173 0.59949 0.90771 0.0
C1860 C 0.53324 0.57281 0.89153 0.0
C1861 C 0.53001 0.5566 0.8877 0.0
C1862 C 0.51588 0.54459 0.87832 0.0
C1863 C 0.50479 0.54899 0.87255 0.0
C1864 C 0.50794 0.56535 0.87637 0.0
C1865 C 0.52214 0.57711 0.88579 0.0
C1866 C 0.51292 0.52728 0.87436 0.0
C1867 C 0.4964 0.57049 0.87027 0.0
C1868 C 0.4924 0.53415 0.79037 0.0
C1869 C 0.47773 0.52443 0.78098 0.0
C1870 C 0.46256 0.51506 0.78891 0.0
C1871 C 0.46199 0.51493 0.80679 0.0
C1872 C 0.4471 0.5049 0.81521 0.0
C1873 C 0.44665 0.5051 0.83281 0.0
C1874 C 0.4611 0.5152 0.84268 0.0
C1875 C 0.46081 0.51542 0.86059 0.0
C1876 C 0.47532 0.5262 0.86995 0.0
C1877 C 0.49019 0.53677 0.86192 0.0
C1878 C 0.49085 0.53623 0.84407 0.0
C1879 C 0.50573 0.54631 0.83562 0.0
C1880 C 0.50628 0.54566 0.81806 0.0
C1881 C 0.49193 0.53506 0.80824 0.0
C1882 C 0.47672 0.52514 0.81647 0.0
C1883 C 0.47623 0.52547 0.83442 0.0
C1884 C 0.37147 0.45967 0.88633 0.0
C1885 C 0.38733 0.45948 0.88628 0.0
O1886 O 0.55191 0.56533 0.75423 0.0
O1887 O 0.54726 0.58383 0.90054 0.0
O1888 O 0.40009 0.47478 0.89312 0.0
O1889 O 0.40721 0.48345 0.74434 0.0
H1890 H 0.54542 0.57362 0.73376 0.0
H1891 H 0.53588 0.54297 0.72928 0.0
H1892 H 0.55704 0.54857 0.72936 0.0
H1893 H 0.54926 0.55543 0.71281 0.0
H1894 H 0.5315 0.57634 0.75645 0.0
H1895 H 0.54089 0.53882 0.77155 0.0
H1896 H 0.49111 0.55701 0.76542 0.0
H1897 H 0.5093 0.57795 0.7671 0.0
H1898 H 0.49953 0.56667 0.7859 0.0
H1899 H 0.52108 0.5147 0.78571 0.0
H1900 H 0.50019 0.50994 0.78652 0.0
H1901 H 0.51458 0.5224 0.80335 0.0
H1902 H 0.41979 0.48286 0.7235 0.0
H1903 H 0.39777 0.47722 0.70312 0.0
H1904 H 0.40396 0.49576 0.71648 0.0
H1905 H 0.38482 0.47631 0.72033 0.0
H1906 H 0.42753 0.47265 0.74922 0.0
H1907 H 0.41542 0.50916 0.76442 0.0
H1908 H 0.46606 0.49175 0.76329 0.0
H1909 H 0.448 0.47077 0.76365 0.0
H1910 H 0.45692 0.48316 0.78314 0.0
H1911 H 0.43354 0.53347 0.78144 0.0
H1912 H 0.45422 0.53845 0.7854 0.0
H1913 H 0.43812 0.52586 0.79977 0.0
H1914 H 0.38978 0.45784 0.87276 0.0
H1915 H 0.41804 0.46363 0.87919 0.0
H1916 H 0.41574 0.50721 0.89188 0.0
H1917 H 0.44605 0.47793 0.84961 0.0
H1918 H 0.44231 0.46613 0.86825 0.0
H1919 H 0.46079 0.48679 0.86681 0.0
H1920 H 0.43484 0.534 0.8816 0.0
H1921 H 0.44748 0.53503 0.86408 0.0
H1922 H 0.45508 0.53782 0.88539 0.0
H1923 H 0.54061 0.59974 0.91128 0.0
H1924 H 0.56586 0.6259 0.90087 0.0
H1925 H 0.55294 0.61132 0.88412 0.0
H1926 H 0.57166 0.61253 0.88968 0.0
H1927 H 0.53865 0.55339 0.8921 0.0
H1928 H 0.5245 0.58964 0.88835 0.0
H1929 H 0.51279 0.52511 0.86044 0.0
H1930 H 0.50066 0.5175 0.87903 0.0
H1931 H 0.5225 0.52567 0.88016 0.0
H1932 H 0.50037 0.58356 0.87463 0.0
H1933 H 0.48379 0.56171 0.87488 0.0
H1934 H 0.49574 0.56961 0.85623 0.0
H1935 H 0.47814 0.52414 0.76726 0.0
H1936 H 0.43562 0.49677 0.80828 0.0
H1937 H 0.4348 0.49723 0.83856 0.0
H1938 H 0.47499 0.52658 0.88366 0.0
H1939 H 0.51717 0.55474 0.84251 0.0
H1940 H 0.51808 0.55367 0.81225 0.0
H1941 H 0.36837 0.4617 0.89942 0.0
H1942 H 0.36105 0.44754 0.88081 0.0
H1943 H 0.37306 0.47005 0.87859 0.0
C1944 C 0.62793 0.76085 0.63281 0.0
C1945 C 0.637 0.75858 0.61788 0.0
C1946 C 0.64168 0.78144 0.59966 0.0
C1947 C 0.62513 0.7743 0.59457 0.0
C1948 C 0.62049 0.78323 0.58461 0.0
C1949 C 0.63264 0.79947 0.57941 0.0
C1950 C 0.64935 0.80645 0.58406 0.0
C1951 C 0.65362 0.79733 0.59416 0.0
C1952 C 0.60256 0.77543 0.57984 0.0
C1953 C 0.66265 0.82365 0.57856 0.0
C1954 C 0.60007 0.87463 0.64273 0.0
C1955 C 0.61306 0.8777 0.62961 0.0
C1956 C 0.6093 0.86113 0.60352 0.0
C1957 C 0.62574 0.86596 0.60114 0.0
C1958 C 0.62963 0.85647 0.59012 0.0
C1959 C 0.61677 0.84168 0.58161 0.0
C1960 C 0.60017 0.83687 0.58397 0.0
C1961 C 0.59672 0.84694 0.5946 0.0
C1962 C 0.64747 0.86219 0.58772 0.0
C1963 C 0.58603 0.82093 0.57558 0.0
C1964 C 0.60014 0.85651 0.47463 0.0
C1965 C 0.61692 0.86277 0.47757 0.0
C1966 C 0.62187 0.85283 0.48519 0.0
C1967 C 0.60979 0.83637 0.48996 0.0
C1968 C 0.59294 0.82984 0.4864 0.0
C1969 C 0.58837 0.83997 0.47862 0.0
C1970 C 0.63996 0.86 0.48841 0.0
C1971 C 0.57974 0.81227 0.49113 0.0
C1972 C 0.60594 0.72462 0.46363 0.0
C1973 C 0.61173 0.7391 0.45157 0.0
C1974 C 0.62288 0.76572 0.46854 0.0
C1975 C 0.63711 0.7816 0.47185 0.0
C1976 C 0.63654 0.79424 0.48141 0.0
C1977 C 0.62136 0.79079 0.48801 0.0
C1978 C 0.60693 0.77469 0.48491 0.0
C1979 C 0.60782 0.76232 0.4752 0.0
C1980 C 0.65216 0.81127 0.48453 0.0
C1981 C 0.59056 0.77053 0.49195 0.0
C1982 C 0.62783 0.80952 0.56978 0.0
C1983 C 0.62477 0.8206 0.57898 0.0
C1984 C 0.6206 0.83083 0.57085 0.0
C1985 C 0.61961 0.83016 0.55298 0.0
C1986 C 0.61601 0.84066 0.54433 0.0
C1987 C 0.61446 0.83946 0.52678 0.0
C1988 C 0.6166 0.82781 0.51716 0.0
C1989 C 0.61467 0.82622 0.49933 0.0
C1990 C 0.61664 0.81433 0.49019 0.0
C1991 C 0.62053 0.8039 0.49838 0.0
C1992 C 0.62276 0.80548 0.51617 0.0
C1993 C 0.62691 0.79536 0.52479 0.0
C1994 C 0.6288 0.79681 0.54232 0.0
C1995 C 0.62635 0.80824 0.55194 0.0
C1996 C 0.62224 0.81862 0.54351 0.0
C1997 C 0.62063 0.81737 0.52559 0.0
C1998 C 0.59029 0.88827 0.47302 0.0
C1999 C 0.60283 0.88337 0.46874 0.0
O2000 O 0.6467 0.77369 0.61 0.0
O2001 O 0.62434 0.75411 0.45908 0.0
O2002 O 0.59477 0.86591 0.46795 0.0
O2003 O 0.60514 0.86984 0.61434 0.0
H2004 H 0.62783 0.74887 0.60862 0.0
H2005 H 0.61934 0.7645 0.62838 0.0
H2006 H 0.63682 0.77084 0.64201 0.0
H2007 H 0.62058 0.74882 0.63937 0.0
H2008 H 0.61571 0.7619 0.59844 0.0
H2009 H 0.66636 0.8027 0.59801 0.0
H2010 H 0.59827 0.78373 0.58469 0.0
H2011 H 0.59456 0.76271 0.58495 0.0
H2012 H 0.60107 0.77432 0.56586 0.0
H2013 H 0.67518 0.82686 0.58234 0.0
H2014 H 0.66056 0.83337 0.58429 0.0
H2015 H 0.66208 0.82418 0.5646 0.0
H2016 H 0.6198 0.8719 0.6343 0.0
H2017 H 0.60602 0.88043 0.65526 0.0
H2018 H 0.59151 0.86085 0.64408 0.0
H2019 H 0.59281 0.88007 0.63877 0.0
H2020 H 0.63554 0.87719 0.60778 0.0
H2021 H 0.58408 0.84341 0.59647 0.0
H2022 H 0.65001 0.86153 0.57409 0.0
H2023 H 0.65014 0.85366 0.59433 0.0
H2024 H 0.65598 0.87529 0.59288 0.0
H2025 H 0.57396 0.81756 0.58096 0.0
H2026 H 0.58771 0.81019 0.57697 0.0
H2027 H 0.58564 0.82272 0.56186 0.0
H2028 H 0.61224 0.88888 0.47918 0.0
H2029 H 0.62617 0.87535 0.47391 0.0
H2030 H 0.57548 0.83517 0.47603 0.0
H2031 H 0.64248 0.86145 0.50226 0.0
H2032 H 0.64789 0.87248 0.48282 0.0
H2033 H 0.6434 0.85115 0.48308 0.0
H2034 H 0.56714 0.80931 0.48808 0.0
H2035 H 0.58062 0.81086 0.50488 0.0
H2036 H 0.58165 0.8029 0.48423 0.0
H2037 H 0.60091 0.74006 0.44867 0.0
H2038 H 0.59723 0.71231 0.45697 0.0
H2039 H 0.59944 0.72627 0.47447 0.0
H2040 H 0.61653 0.72437 0.46884 0.0
H2041 H 0.64869 0.7841 0.46676 0.0
H2042 H 0.59671 0.75003 0.47307 0.0
H2043 H 0.65484 0.81382 0.49833 0.0
H2044 H 0.65048 0.82129 0.47986 0.0
H2045 H 0.66293 0.81209 0.4782 0.0
H2046 H 0.58051 0.75731 0.48868 0.0
H2047 H 0.58714 0.77917 0.48692 0.0
H2048 H 0.59158 0.77249 0.50593 0.0
H2049 H 0.62557 0.82122 0.5927 0.0
H2050 H 0.61424 0.84987 0.55106 0.0
H2051 H 0.61148 0.84775 0.52086 0.0
H2052 H 0.61484 0.81296 0.47656 0.0
H2053 H 0.62875 0.7862 0.51806 0.0
H2054 H 0.63202 0.78872 0.54827 0.0
H2055 H 0.59643 0.90223 0.47403 0.0
H2056 H 0.58459 0.88316 0.48535 0.0
H2057 H 0.58038 0.88307 0.46313 0.0
C2058 C 0.12481 0.73739 0.64403 0.0
C2059 C 0.1214 0.74684 0.631 0.0
C2060 C 0.13245 0.75264 0.60281 0.0
C2061 C 0.13105 0.76637 0.59933 0.0
C2062 C 0.14152 0.77826 0.58776 0.0
C2063 C 0.15386 0.77653 0.57982 0.0
C2064 C 0.15498 0.76239 0.58301 0.0
C2065 C 0.14395 0.75039 0.59421 0.0
C2066 C 0.1397 0.79294 0.58444 0.0
C2067 C 0.16822 0.76028 0.57516 0.0
C2068 C 0.25752 0.86536 0.62831 0.0
C2069 C 0.25893 0.87532 0.61282 0.0
C2070 C 0.23144 0.85925 0.59902 0.0
C2071 C 0.23254 0.84557 0.59286 0.0
C2072 C 0.2196 0.83216 0.58324 0.0
C2073 C 0.2053 0.83241 0.57968 0.0
C2074 C 0.2041 0.84609 0.58588 0.0
C2075 C 0.21722 0.85934 0.5955 0.0
C2076 C 0.2212 0.81767 0.57691 0.0
C2077 C 0.18899 0.84669 0.58232 0.0
C2078 C 0.23085 0.85552 0.4715 0.0
C2079 C 0.2332 0.84342 0.47854 0.0
C2080 C 0.22034 0.82971 0.48678 0.0
C2081 C 0.20486 0.82815 0.48812 0.0
C2082 C 0.20229 0.84 0.48054 0.0
C2083 C 0.2153 0.85344 0.47213 0.0
C2084 C 0.22335 0.81697 0.49421 0.0
C2085 C 0.18591 0.83865 0.48164 0.0
C2086 C 0.1019 0.69453 0.46819 0.0
C2087 C 0.10649 0.71286 0.46812 0.0
C2088 C 0.13357 0.73869 0.47145 0.0
C2089 C 0.14997 0.74369 0.47405 0.0
C2090 C 0.16116 0.75915 0.48249 0.0
C2091 C 0.15587 0.7701 0.4879 0.0
C2092 C 0.13952 0.76556 0.48429 0.0
C2093 C 0.12845 0.74977 0.47632 0.0
C2094 C 0.17854 0.76359 0.48591 0.0
C2095 C 0.13366 0.77726 0.4891 0.0
C2096 C 0.16649 0.7903 0.56952 0.0
C2097 C 0.17915 0.80469 0.57821 0.0
C2098 C 0.19157 0.81822 0.56956 0.0
C2099 C 0.1913 0.81764 0.55169 0.0
C2100 C 0.20336 0.83126 0.54262 0.0
C2101 C 0.20329 0.83038 0.52503 0.0
C2102 C 0.1913 0.81574 0.51583 0.0
C2103 C 0.19158 0.81445 0.49797 0.0
C2104 C 0.1796 0.79966 0.48923 0.0
C2105 C 0.16731 0.78595 0.49786 0.0
C2106 C 0.16671 0.78707 0.51573 0.0
C2107 C 0.15445 0.77359 0.52485 0.0
C2108 C 0.15407 0.77478 0.54243 0.0
C2109 C 0.16629 0.78924 0.55161 0.0
C2110 C 0.17875 0.80299 0.54269 0.0
C2111 C 0.17884 0.80198 0.52473 0.0
C2112 C 0.2613 0.89077 0.4841 0.0
C2113 C 0.2595 0.87883 0.46926 0.0
O2114 O 0.12327 0.74178 0.61488 0.0
O2115 O 0.12301 0.72308 0.46432 0.0
O2116 O 0.24315 0.86917 0.46381 0.0
O2117 O 0.24364 0.87251 0.60845 0.0
H2118 H 0.13083 0.76051 0.63356 0.0
H2119 H 0.13773 0.74061 0.64294 0.0
H2120 H 0.11646 0.72351 0.64193 0.0
H2121 H 0.12315 0.74111 0.65705 0.0
H2122 H 0.12187 0.76787 0.60577 0.0
H2123 H 0.14483 0.73965 0.59697 0.0
H2124 H 0.15005 0.80459 0.59075 0.0
H2125 H 0.12794 0.79099 0.58931 0.0
H2126 H 0.14026 0.79498 0.57066 0.0
H2127 H 0.16845 0.74956 0.58032 0.0
H2128 H 0.18051 0.772 0.57738 0.0
H2129 H 0.16606 0.758 0.56128 0.0
H2130 H 0.26378 0.87129 0.60207 0.0
H2131 H 0.26983 0.86786 0.63196 0.0
H2132 H 0.24923 0.8516 0.62545 0.0
H2133 H 0.25245 0.86892 0.63921 0.0
H2134 H 0.24334 0.84512 0.59553 0.0
H2135 H 0.21643 0.86988 0.60032 0.0
H2136 H 0.21078 0.80562 0.58151 0.0
H2137 H 0.23295 0.81914 0.58111 0.0
H2138 H 0.22055 0.81672 0.56287 0.0
H2139 H 0.19013 0.85843 0.58768 0.0
H2140 H 0.17803 0.83567 0.58778 0.0
H2141 H 0.18679 0.84583 0.56845 0.0
H2142 H 0.26377 0.87065 0.4736 0.0
H2143 H 0.24493 0.84441 0.47745 0.0
H2144 H 0.21353 0.86269 0.46641 0.0
H2145 H 0.22316 0.81802 0.50823 0.0
H2146 H 0.23541 0.81889 0.49047 0.0
H2147 H 0.21341 0.80397 0.49011 0.0
H2148 H 0.18604 0.84917 0.4755 0.0
H2149 H 0.18258 0.83863 0.49511 0.0
H2150 H 0.17616 0.82652 0.47545 0.0
H2151 H 0.10434 0.71617 0.48117 0.0
H2152 H 0.08868 0.68609 0.47124 0.0
H2153 H 0.10942 0.69328 0.47796 0.0
H2154 H 0.10424 0.69039 0.4557 0.0
H2155 H 0.15383 0.73513 0.47 0.0
H2156 H 0.11586 0.74615 0.47387 0.0
H2157 H 0.18184 0.76719 0.49952 0.0
H2158 H 0.18726 0.77463 0.47854 0.0
H2159 H 0.18021 0.75299 0.48238 0.0
H2160 H 0.1216 0.77315 0.483 0.0
H2161 H 0.14286 0.79031 0.48548 0.0
H2162 H 0.13227 0.77757 0.50302 0.0
H2163 H 0.17949 0.80525 0.59195 0.0
H2164 H 0.21301 0.84276 0.54902 0.0
H2165 H 0.21288 0.84127 0.51874 0.0
H2166 H 0.18008 0.79866 0.47555 0.0
H2167 H 0.14496 0.76195 0.51852 0.0
H2168 H 0.14424 0.76409 0.54875 0.0
H2169 H 0.25695 0.89908 0.48036 0.0
H2170 H 0.27439 0.89872 0.48841 0.0
H2171 H 0.25387 0.88334 0.49488 0.0
C2172 C 0.14732 0.40527 0.63346 0.0
C2173 C 0.13671 0.39656 0.61743 0.0
C2174 C 0.15151 0.38596 0.60091 0.0
C2175 C 0.16451 0.40181 0.59597 0.0
C2176 C 0.17705 0.40314 0.58559 0.0
C2177 C 0.17669 0.38839 0.58011 0.0
C2178 C 0.16367 0.37243 0.58502 0.0
C2179 C 0.15123 0.37144 0.59534 0.0
C2180 C 0.19082 0.42037 0.58063 0.0
C2181 C 0.16299 0.35647 0.57946 0.0
C2182 C 0.28329 0.41944 0.63988 0.0
C2183 C 0.2725 0.40528 0.6268 0.0
C2184 C 0.25996 0.4077 0.60117 0.0
C2185 C 0.24683 0.39084 0.59913 0.0
C2186 C 0.23333 0.38641 0.58846 0.0
C2187 C 0.23287 0.39916 0.57992 0.0
C2188 C 0.24623 0.41614 0.58187 0.0
C2189 C 0.25977 0.42009 0.59218 0.0
C2190 C 0.21947 0.36815 0.58646 0.0
C2191 C 0.24608 0.43022 0.5734 0.0
C2192 C 0.26183 0.40724 0.47128 0.0
C2193 C 0.25057 0.39061 0.47581 0.0
C2194 C 0.23594 0.38646 0.48407 0.0
C2195 C 0.2327 0.39928 0.48813 0.0
C2196 C 0.24378 0.41592 0.48304 0.0
C2197 C 0.2581 0.4196 0.47443 0.0
C2198 C 0.22408 0.36844 0.48866 0.0
C2199 C 0.24068 0.4299 0.48695 0.0
C2200 C 0.12842 0.40487 0.47318 0.0
C2201 C 0.13657 0.40181 0.4579 0.0
C2202 C 0.15178 0.39 0.46996 0.0
C2203 C 0.15201 0.37529 0.47134 0.0
C2204 C 0.16453 0.37538 0.48055 0.0
C2205 C 0.17719 0.39062 0.48851 0.0
C2206 C 0.17712 0.4056 0.48712 0.0
C2207 C 0.1644 0.40513 0.47795 0.0
C2208 C 0.1642 0.35919 0.48186 0.0
C2209 C 0.1905 0.42212 0.4954 0.0
C2210 C 0.19035 0.38978 0.56983 0.0
C2211 C 0.20429 0.39248 0.57845 0.0
C2212 C 0.21807 0.39492 0.56973 0.0
C2213 C 0.21792 0.39442 0.55183 0.0
C2214 C 0.23149 0.39665 0.54264 0.0
C2215 C 0.23156 0.39698 0.52507 0.0
C2216 C 0.21792 0.39478 0.51598 0.0
C2217 C 0.21801 0.39547 0.49813 0.0
C2218 C 0.20435 0.39352 0.48956 0.0
C2219 C 0.19056 0.39101 0.49831 0.0
C2220 C 0.19014 0.39006 0.51612 0.0
C2221 C 0.1764 0.3874 0.5253 0.0
C2222 C 0.17635 0.38712 0.54288 0.0
C2223 C 0.19005 0.38948 0.55195 0.0
C2224 C 0.20391 0.39185 0.54292 0.0
C2225 C 0.20393 0.39208 0.52498 0.0
C2226 C 0.30389 0.41942 0.46976 0.0
C2227 C 0.28587 0.40505 0.46726 0.0
O2228 O 0.13915 0.38404 0.6111 0.0
O2229 O 0.13919 0.38892 0.46091 0.0
O2230 O 0.2764 0.41181 0.46396 0.0
O2231 O 0.273 0.41248 0.61168 0.0
H2232 H 0.1403 0.40628 0.60789 0.0
H2233 H 0.1606 0.41197 0.6304 0.0
H2234 H 0.1449 0.39594 0.64307 0.0
H2235 H 0.14472 0.41471 0.63897 0.0
H2236 H 0.16515 0.41326 0.60022 0.0
H2237 H 0.14122 0.35928 0.5992 0.0
H2238 H 0.20273 0.42295 0.58581 0.0
H2239 H 0.18898 0.43059 0.58532 0.0
H2240 H 0.19176 0.42069 0.56663 0.0
H2241 H 0.15194 0.345 0.58421 0.0
H2242 H 0.1742 0.35707 0.58413 0.0
H2243 H 0.16288 0.35534 0.56543 0.0
H2244 H 0.25971 0.39842 0.6317 0.0
H2245 H 0.28276 0.41419 0.65238 0.0
H2246 H 0.27881 0.42817 0.6414 0.0
H2247 H 0.29631 0.42673 0.63577 0.0
H2248 H 0.24716 0.38115 0.60577 0.0
H2249 H 0.27007 0.43304 0.59377 0.0
H2250 H 0.21617 0.36446 0.57286 0.0
H2251 H 0.2084 0.36645 0.59291 0.0
H2252 H 0.22273 0.35955 0.59196 0.0
H2253 H 0.25613 0.44288 0.57828 0.0
H2254 H 0.2341 0.4292 0.57533 0.0
H2255 H 0.24764 0.42923 0.55958 0.0
H2256 H 0.28219 0.3985 0.47944 0.0
H2257 H 0.25317 0.38086 0.47287 0.0
H2258 H 0.26676 0.43234 0.47063 0.0
H2259 H 0.22424 0.36756 0.50259 0.0
H2260 H 0.22728 0.35963 0.48267 0.0
H2261 H 0.21132 0.36434 0.48473 0.0
H2262 H 0.25127 0.44245 0.4836 0.0
H2263 H 0.23815 0.43039 0.50061 0.0
H2264 H 0.22963 0.42732 0.47971 0.0
H2265 H 0.14852 0.41363 0.45554 0.0
H2266 H 0.12615 0.41507 0.47068 0.0
H2267 H 0.13654 0.40881 0.48458 0.0
H2268 H 0.1165 0.39319 0.47591 0.0
H2269 H 0.14224 0.36367 0.46519 0.0
H2270 H 0.16445 0.41665 0.47719 0.0
H2271 H 0.16433 0.3565 0.49538 0.0
H2272 H 0.17544 0.3606 0.47608 0.0
H2273 H 0.15318 0.34825 0.47545 0.0
H2274 H 0.18925 0.43285 0.49229 0.0
H2275 H 0.20279 0.42493 0.49133 0.0
H2276 H 0.19005 0.42111 0.50935 0.0
H2277 H 0.20458 0.39313 0.59218 0.0
H2278 H 0.24231 0.39837 0.54895 0.0
H2279 H 0.24249 0.39907 0.51872 0.0
H2280 H 0.20463 0.39441 0.47591 0.0
H2281 H 0.16555 0.38561 0.519 0.0
H2282 H 0.16549 0.38515 0.54929 0.0
H2283 H 0.31174 0.41427 0.47228 0.0
H2284 H 0.30505 0.42776 0.48078 0.0
H2285 H 0.30847 0.42715 0.45842 0.0
H2286 H 0.98866 0.35953 0.06976 0.0
H2287 H 0.00989 0.39464 0.02933 0.0
H2288 H 0.01484 0.4179 0.0492 0.0
H2289 H 0.96922 0.38044 0.09206 0.0
H2290 H 0.97382 0.37614 0.1126 0.0
H2291 H 0.96996 0.36183 0.09473 0.0
H2292 H 0.99809 0.3649 0.10021 0.0
H2293 H 0.00206 0.37924 0.118 0.0
H2294 H 0.01662 0.38564 0.10109 0.0
H2295 H 0.02122 0.43781 0.07397 0.0
H2296 H 0.0273 0.45289 0.10178 0.0
H2297 H 0.00082 0.405 0.12618 0.0
C2298 C 0.994 0.37204 0.06499 0.0
C2299 C 0.99888 0.37524 0.04798 0.0
C2300 C 0.00601 0.39184 0.04229 0.0
C2301 C 0.00885 0.40515 0.05348 0.0
C2302 C 0.00429 0.40165 0.07026 0.0
C2303 C 0.99684 0.38547 0.07597 0.0
C2304 C 0.99418 0.38534 0.09488 0.0
C2305 C 0.97569 0.37534 0.09879 0.0
C2306 C 0.00329 0.37837 0.10408 0.0
C2307 C 0.0019 0.40403 0.09898 0.0
C2308 C 0.00754 0.41319 0.08457 0.0
C2309 C 0.01646 0.43077 0.08531 0.0
C2310 C 0.01985 0.43923 0.1012 0.0
C2311 C 0.01414 0.4301 0.11617 0.0
C2312 C 0.0049 0.41227 0.11492 0.0
H2313 H 0.64424 0.60228 0.05215 0.0
H2314 H 0.63421 0.63746 0.07804 0.0
H2315 H 0.61219 0.61436 0.09397 0.0
H2316 H 0.60493 0.56828 0.04597 0.0
H2317 H 0.60985 0.55254 0.04949 0.0
H2318 H 0.62536 0.57272 0.04189 0.0
H2319 H 0.64476 0.57769 0.06694 0.0
H2320 H 0.62957 0.55733 0.07458 0.0
H2321 H 0.63751 0.57603 0.08827 0.0
H2322 H 0.58376 0.58659 0.10506 0.0
H2323 H 0.55914 0.55217 0.11321 0.0
H2324 H 0.59287 0.53309 0.07859 0.0
C2325 C 0.63752 0.60498 0.06145 0.0
C2326 C 0.64082 0.62152 0.06392 0.0
C2327 C 0.63196 0.62488 0.0761 0.0
C2328 C 0.61937 0.61184 0.08513 0.0
C2329 C 0.616 0.59556 0.08219 0.0
C2330 C 0.62514 0.59189 0.07076 0.0
C2331 C 0.61994 0.5732 0.0688 0.0
C2332 C 0.61472 0.56629 0.05045 0.0
C2333 C 0.63376 0.57093 0.07502 0.0
C2334 C 0.60545 0.56473 0.08017 0.0
C2335 C 0.60288 0.58044 0.08922 0.0
C2336 C 0.58517 0.57629 0.1009 0.0
C2337 C 0.56938 0.55496 0.10516 0.0
C2338 C 0.57518 0.53914 0.0996 0.0
C2339 C 0.59086 0.54286 0.08329 0.0
H2340 H 0.37781 0.99358 0.05258 0.0
H2341 H 0.38447 0.04306 0.04996 0.0
H2342 H 0.40473 0.05367 0.0736 0.0
H2343 H 0.38034 0.99373 0.09779 0.0
H2344 H 0.39134 0.98301 0.09763 0.0
H2345 H 0.37754 0.97937 0.08034 0.0
H2346 H 0.40121 0.98794 0.0592 0.0
H2347 H 0.4151 0.99163 0.07644 0.0
H2348 H 0.42017 0.00816 0.06216 0.0
H2349 H 0.42403 0.05883 0.09762 0.0
H2350 H 0.44102 0.05816 0.12058 0.0
H2351 H 0.42156 0.00527 0.10771 0.0
C2352 C 0.38354 0.00666 0.05694 0.0
C2353 C 0.37956 0.0175 0.04939 0.0
C2354 C 0.38732 0.03452 0.05553 0.0
C2355 C 0.39886 0.04067 0.06894 0.0
C2356 C 0.40248 0.02964 0.07608 0.0
C2357 C 0.39505 0.01299 0.07032 0.0
C2358 C 0.40101 0.00373 0.08031 0.0
C2359 C 0.38671 0.9891 0.08957 0.0
C2360 C 0.4099 0.9975 0.06884 0.0
C2361 C 0.41294 0.01778 0.09262 0.0
C2362 C 0.41364 0.03263 0.08992 0.0
C2363 C 0.42368 0.04732 0.09978 0.0
C2364 C 0.43331 0.04683 0.11273 0.0
C2365 C 0.43291 0.0318 0.11565 0.0
C2366 C 0.42241 0.01705 0.10554 0.0
H2367 H 0.38102 0.01259 0.97119 0.0
H2368 H 0.33431 0.96834 0.95435 0.0
H2369 H 0.34824 0.96358 0.93038 0.0
H2370 H 0.39625 0.02711 0.93002 0.0
H2371 H 0.4173 0.03436 0.93552 0.0
H2372 H 0.40369 0.03404 0.95151 0.0
H2373 H 0.40977 0.01553 0.96972 0.0
H2374 H 0.42338 0.01576 0.95376 0.0
H2375 H 0.40645 0.99593 0.9607 0.0
H2376 H 0.36717 0.96402 0.90793 0.0
H2377 H 0.38975 0.9697 0.88857 0.0
H2378 H 0.42402 0.01353 0.92024 0.0
C2379 C 0.3737 0.00185 0.96251 0.0
C2380 C 0.35656 0.99081 0.96467 0.0
C2381 C 0.34745 0.97696 0.95296 0.0
C2382 C 0.35525 0.97415 0.93932 0.0
C2383 C 0.37215 0.98529 0.93758 0.0
C2384 C 0.38126 0.99887 0.94885 0.0
C2385 C 0.39922 0.00912 0.944 0.0
C2386 C 0.40441 0.02723 0.94002 0.0
C2387 C 0.41036 0.00907 0.95787 0.0
C2388 C 0.39879 0.99919 0.92822 0.0
C2389 C 0.38307 0.98548 0.92473 0.0
C2390 C 0.37955 0.97464 0.9106 0.0
C2391 C 0.39244 0.97793 0.89971 0.0
C2392 C 0.40865 0.99188 0.90307 0.0
C2393 C 0.41179 0.00263 0.91752 0.0
H2394 H 0.99153 0.37842 0.96105 0.0
H2395 H 0.03764 0.38003 0.96212 0.0
H2396 H 0.04732 0.39877 0.93792 0.0
H2397 H 0.98753 0.37778 0.91579 0.0
H2398 H 0.97899 0.39091 0.91665 0.0
H2399 H 0.97578 0.3775 0.93381 0.0
H2400 H 0.98828 0.40345 0.95492 0.0
H2401 H 0.99161 0.41696 0.93781 0.0
H2402 H 0.00862 0.42142 0.95141 0.0
H2403 H 0.05201 0.41781 0.91386 0.0
H2404 H 0.05116 0.43514 0.89159 0.0
H2405 H 0.00176 0.42047 0.90637 0.0
C2406 C 0.00366 0.38263 0.95619 0.0
C2407 C 0.01384 0.37776 0.96349 0.0
C2408 C 0.02962 0.38359 0.95672 0.0
C2409 C 0.03522 0.39424 0.943 0.0
C2410 C 0.02487 0.39889 0.93622 0.0
C2411 C 0.0094 0.3932 0.94256 0.0
C2412 C 0.00067 0.40007 0.93314 0.0
C2413 C 0.98481 0.38571 0.92432 0.0
C2414 C 0.99709 0.41113 0.94503 0.0
C2415 C 0.01365 0.41056 0.92046 0.0
C2416 C 0.02755 0.40978 0.92246 0.0
C2417 C 0.04121 0.41855 0.91224 0.0
C2418 C 0.04065 0.4284 0.89969 0.0
C2419 C 0.02657 0.42947 0.89751 0.0
C2420 C 0.01283 0.42021 0.90794 0.0
H2421 H 0.62967 0.63682 0.97176 0.0
H2422 H 0.59511 0.6055 0.00973 0.0
H2423 H 0.57225 0.5948 0.98897 0.0
H2424 H 0.60327 0.64802 0.95229 0.0
H2425 H 0.61004 0.64733 0.93113 0.0
H2426 H 0.62381 0.65246 0.94892 0.0
H2427 H 0.62785 0.62807 0.9395 0.0
H2428 H 0.61413 0.6229 0.92166 0.0
H2429 H 0.61006 0.60698 0.93635 0.0
H2430 H 0.55308 0.58775 0.96434 0.0
H2431 H 0.53889 0.58463 0.93721 0.0
H2432 H 0.58606 0.62008 0.91524 0.0
C2433 C 0.61731 0.62768 0.9757 0.0
C2434 C 0.61419 0.62202 0.99238 0.0
C2435 C 0.59782 0.61006 0.99703 0.0
C2436 C 0.58473 0.60389 0.98534 0.0
C2437 C 0.58821 0.60977 0.96903 0.0
C2438 C 0.60408 0.62136 0.96418 0.0
C2439 C 0.60442 0.62565 0.94588 0.0
C2440 C 0.61076 0.64448 0.94448 0.0
C2441 C 0.61472 0.62059 0.93522 0.0
C2442 C 0.58626 0.61464 0.94122 0.0
C2443 C 0.57713 0.60564 0.95478 0.0
C2444 C 0.56009 0.59477 0.95363 0.0
C2445 C 0.55215 0.59312 0.93821 0.0
C2446 C 0.56117 0.60229 0.92412 0.0
C2447 C 0.57856 0.61302 0.92567 0.0
H2448 H 0.00378 0.63527 0.96748 0.0
H2449 H 0.0489 0.64977 0.99484 0.0
H2450 H 0.05725 0.63825 0.97093 0.0
H2451 H 0.99625 0.59623 0.94993 0.0
H2452 H 0.98837 0.5979 0.92998 0.0
H2453 H 0.98633 0.60799 0.94887 0.0
H2454 H 0.00124 0.63674 0.93455 0.0
H2455 H 0.00324 0.62672 0.91556 0.0
H2456 H 0.02128 0.64455 0.92565 0.0
H2457 H 0.06043 0.6247 0.94407 0.0
H2458 H 0.05812 0.61015 0.91643 0.0
H2459 H 0.01066 0.60407 0.90714 0.0
C2460 C 0.0155 0.63618 0.96843 0.0
C2461 C 0.02571 0.64346 0.98305 0.0
C2462 C 0.04088 0.64427 0.98377 0.0
C2463 C 0.04573 0.63776 0.97026 0.0
C2464 C 0.03526 0.63047 0.95613 0.0
C2465 C 0.02048 0.62969 0.95512 0.0
C2466 C 0.01128 0.62089 0.93871 0.0
C2467 C 0.99457 0.6048 0.94208 0.0
C2468 C 0.00914 0.63295 0.92798 0.0
C2469 C 0.02313 0.61672 0.93068 0.0
C2470 C 0.03693 0.62241 0.94088 0.0
C2471 C 0.04963 0.6201 0.93604 0.0
C2472 C 0.04818 0.61176 0.92038 0.0
C2473 C 0.03403 0.60563 0.90985 0.0
C2474 C 0.02146 0.60833 0.91508 0.0
H2475 H 0.36786 0.4045 0.96802 0.0
H2476 H 0.35987 0.36322 0.9338 0.0
H2477 H 0.36842 0.38197 0.90986 0.0
H2478 H 0.35214 0.42167 0.94027 0.0
H2479 H 0.36696 0.44336 0.94659 0.0
H2480 H 0.36121 0.42701 0.96126 0.0
H2481 H 0.39191 0.43677 0.96523 0.0
H2482 H 0.39775 0.45313 0.9505 0.0
H2483 H 0.40381 0.43805 0.94697 0.0
H2484 H 0.37648 0.4046 0.88943 0.0
H2485 H 0.38295 0.42962 0.87375 0.0
H2486 H 0.3858 0.45634 0.92099 0.0
C2487 C 0.36806 0.39945 0.95552 0.0
C2488 C 0.36324 0.38238 0.95281 0.0
C2489 C 0.36352 0.37623 0.93621 0.0
C2490 C 0.36841 0.3868 0.92252 0.0
C2491 C 0.37301 0.40351 0.9256 0.0
C2492 C 0.37288 0.40982 0.94167 0.0
C2493 C 0.37773 0.42808 0.94137 0.0
C2494 C 0.36367 0.43014 0.94775 0.0
C2495 C 0.39375 0.43969 0.95162 0.0
C2496 C 0.38037 0.43094 0.9226 0.0
C2497 C 0.37771 0.41663 0.91377 0.0
C2498 C 0.37878 0.41595 0.89622 0.0
C2499 C 0.38248 0.43021 0.88743 0.0
C2500 C 0.3851 0.44496 0.89618 0.0
C2501 C 0.38414 0.44532 0.91402 0.0
H2502 H 0.60934 0.97654 0.967 0.0
H2503 H 0.64598 0.02647 0.95054 0.0
H2504 H 0.62863 0.02203 0.9257 0.0
H2505 H 0.59771 0.9559 0.92571 0.0
H2506 H 0.5761 0.94272 0.93026 0.0
H2507 H 0.59127 0.94978 0.94705 0.0
H2508 H 0.57694 0.9627 0.96377 0.0
H2509 H 0.56175 0.95572 0.94699 0.0
H2510 H 0.57363 0.97769 0.95389 0.0
H2511 H 0.6081 0.01215 0.90219 0.0
H2512 H 0.58525 0.99716 0.88124 0.0
H2513 H 0.56104 0.95407 0.91309 0.0
C2514 C 0.61369 0.98651 0.95815 0.0
C2515 C 0.62904 0.00185 0.96074 0.0
C2516 C 0.63426 0.01462 0.9489 0.0
C2517 C 0.62449 0.01225 0.93472 0.0
C2518 C 0.60943 0.99706 0.93256 0.0
C2519 C 0.60398 0.98441 0.94393 0.0
C2520 C 0.58726 0.96929 0.93846 0.0
C2521 C 0.58815 0.95349 0.93517 0.0
C2522 C 0.57412 0.96617 0.95156 0.0
C2523 C 0.58436 0.97538 0.92215 0.0
C2524 C 0.59732 0.99145 0.91903 0.0
C2525 C 0.59781 0.99959 0.90451 0.0
C2526 C 0.58479 0.99099 0.8927 0.0
C2527 C 0.57144 0.97443 0.89548 0.0
C2528 C 0.57112 0.96669 0.91059 0.0
H2529 H 0.63333 0.0087 0.05012 0.0
H2530 H 0.65225 0.05795 0.02973 0.0
H2531 H 0.64002 0.06534 0.05353 0.0
H2532 H 0.59492 0.00203 0.06395 0.0
H2533 H 0.5946 0.99171 0.0828 0.0
H2534 H 0.60515 0.99053 0.06439 0.0
H2535 H 0.63204 0.00273 0.08223 0.0
H2536 H 0.62156 0.00387 0.10072 0.0
H2537 H 0.64013 0.02252 0.0941 0.0
H2538 H 0.62543 0.06714 0.0797 0.0
H2539 H 0.60993 0.06325 0.10605 0.0
H2540 H 0.60058 0.01274 0.10878 0.0
C2541 C 0.63498 0.02108 0.05063 0.0
C2542 C 0.64375 0.03275 0.03803 0.0
C2543 C 0.64559 0.0488 0.03923 0.0
C2544 C 0.63867 0.0531 0.0527 0.0
C2545 C 0.62999 0.04122 0.06483 0.0
C2546 C 0.62818 0.02555 0.06391 0.0
C2547 C 0.61824 0.01498 0.07846 0.0
C2548 C 0.60228 0.99886 0.07201 0.0
C2549 C 0.62862 0.01079 0.08953 0.0
C2550 C 0.61464 0.0271 0.0877 0.0
C2551 C 0.62153 0.04218 0.07968 0.0
C2552 C 0.61992 0.05534 0.08601 0.0
C2553 C 0.61105 0.05301 0.10092 0.0
C2554 C 0.60378 0.03757 0.10923 0.0
C2555 C 0.60576 0.02456 0.10253 0.0
H2556 H 0.97365 0.60708 0.04742 0.0
H2557 H 0.01743 0.64627 0.07491 0.0
H2558 H 0.01111 0.62722 0.09822 0.0
H2559 H 0.94778 0.59076 0.08307 0.0
H2560 H 0.93755 0.569 0.07553 0.0
H2561 H 0.94571 0.58552 0.06066 0.0
H2562 H 0.96299 0.57434 0.0471 0.0
H2563 H 0.95488 0.55778 0.06194 0.0
H2564 H 0.97684 0.57193 0.06023 0.0
H2565 H 0.99938 0.60471 0.11922 0.0
H2566 H 0.98317 0.57973 0.13636 0.0
H2567 H 0.94782 0.55442 0.09483 0.0
C2568 C 0.98193 0.61162 0.05832 0.0
C2569 C 0.99603 0.62819 0.05934 0.0
C2570 C 0.00658 0.63364 0.0738 0.0
C2571 C 0.00311 0.62291 0.08713 0.0
C2572 C 0.98912 0.60669 0.08576 0.0
C2573 C 0.97874 0.601 0.0717 0.0
C2574 C 0.96444 0.58302 0.07355 0.0
C2575 C 0.94789 0.58202 0.07319 0.0
C2576 C 0.96482 0.57106 0.05989 0.0
C2577 C 0.96827 0.57964 0.09095 0.0
C2578 C 0.98256 0.59348 0.09776 0.0
C2579 C 0.98824 0.59372 0.11399 0.0
C2580 C 0.97896 0.57949 0.12362 0.0
C2581 C 0.9642 0.56518 0.11698 0.0
C2582 C 0.95901 0.5652 0.10028 0.0
H2583 H 0.40587 0.37062 0.03339 0.0
H2584 H 0.37103 0.38344 0.0522 0.0
H2585 H 0.38439 0.39039 0.08045 0.0
H2586 H 0.40637 0.35025 0.06902 0.0
H2587 H 0.42802 0.35776 0.06835 0.0
H2588 H 0.41695 0.35559 0.04916 0.0
H2589 H 0.43789 0.38701 0.04331 0.0
H2590 H 0.44908 0.38927 0.06249 0.0
H2591 H 0.44174 0.40313 0.0592 0.0
H2592 H 0.39965 0.39319 0.10722 0.0
H2593 H 0.41607 0.39203 0.13049 0.0
H2594 H 0.44129 0.37793 0.09425 0.0
C2595 C 0.40123 0.3752 0.04335 0.0
C2596 C 0.38743 0.37652 0.04055 0.0
C2597 C 0.38162 0.38236 0.05401 0.0
C2598 C 0.38915 0.38638 0.07011 0.0
C2599 C 0.40253 0.38461 0.07252 0.0
C2600 C 0.40861 0.37927 0.05949 0.0
C2601 C 0.4225 0.37747 0.06566 0.0
C2602 C 0.41819 0.35918 0.06288 0.0
C2603 C 0.43877 0.38997 0.05716 0.0
C2604 C 0.42298 0.38217 0.08429 0.0
C2605 C 0.41146 0.38639 0.08796 0.0
C2606 C 0.4089 0.39018 0.10447 0.0
C2607 C 0.41826 0.38948 0.11759 0.0
C2608 C 0.43004 0.38506 0.11412 0.0
C2609 C 0.43253 0.38157 0.09721 0.0
H2610 H 0.6597 0.70993 0.38956 0.0
H2611 H 0.6443 0.7277 0.34808 0.0
H2612 H 0.62995 0.73621 0.36817 0.0
H2613 H 0.62281 0.69334 0.41351 0.0
H2614 H 0.63338 0.70012 0.43376 0.0
H2615 H 0.64248 0.69538 0.41615 0.0
H2616 H 0.66894 0.7252 0.4198 0.0
H2617 H 0.65996 0.72999 0.43748 0.0
H2618 H 0.66734 0.74353 0.41979 0.0
H2619 H 0.61672 0.74215 0.3926 0.0
H2620 H 0.60642 0.74619 0.41995 0.0
H2621 H 0.63162 0.72588 0.44562 0.0
C2622 C 0.65331 0.71562 0.38471 0.0
C2623 C 0.65307 0.71811 0.36725 0.0
C2624 C 0.64468 0.7257 0.36141 0.0
C2625 C 0.63646 0.73054 0.37272 0.0
C2626 C 0.63687 0.72785 0.38983 0.0
C2627 C 0.6452 0.72071 0.39585 0.0
C2628 C 0.64395 0.71948 0.41489 0.0
C2629 C 0.63513 0.70098 0.41986 0.0
C2630 C 0.66107 0.73019 0.42349 0.0
C2631 C 0.63351 0.72691 0.4186 0.0
C2632 C 0.62948 0.73157 0.40396 0.0
C2633 C 0.61975 0.73851 0.40415 0.0
C2634 C 0.61391 0.74069 0.41972 0.0
C2635 C 0.61775 0.73589 0.43491 0.0
C2636 C 0.628 0.72923 0.43428 0.0
H2637 H 0.28589 0.93781 0.3898 0.0
H2638 H 0.3329 0.94131 0.39139 0.0
H2639 H 0.32334 0.92234 0.41528 0.0
H2640 H 0.28069 0.93816 0.43459 0.0
H2641 H 0.25871 0.92343 0.43344 0.0
H2642 H 0.26907 0.93688 0.41614 0.0
H2643 H 0.25705 0.91061 0.3955 0.0
H2644 H 0.24666 0.89708 0.41274 0.0
H2645 H 0.26046 0.89395 0.39983 0.0
H2646 H 0.30889 0.90344 0.43929 0.0
H2647 H 0.29052 0.88599 0.4619 0.0
H2648 H 0.25312 0.89512 0.44487 0.0
C2649 C 0.29415 0.93452 0.39509 0.0
C2650 C 0.31014 0.94101 0.38868 0.0
C2651 C 0.3206 0.93649 0.39607 0.0
C2652 C 0.31528 0.92571 0.40964 0.0
C2653 C 0.29948 0.91959 0.41568 0.0
C2654 C 0.28907 0.92385 0.40867 0.0
C2655 C 0.27281 0.91584 0.41777 0.0
C2656 C 0.27017 0.92939 0.42597 0.0
C2657 C 0.2584 0.90364 0.40574 0.0
C2658 C 0.27571 0.90642 0.43099 0.0
C2659 C 0.29115 0.90871 0.42953 0.0
C2660 C 0.29672 0.90144 0.44047 0.0
C2661 C 0.28621 0.89153 0.45323 0.0
C2662 C 0.27029 0.8889 0.45488 0.0
C2663 C 0.26509 0.89661 0.44367 0.0
H2664 H 0.05777 0.34292 0.39747 0.0
H2665 H 0.07531 0.38565 0.36552 0.0
H2666 H 0.09957 0.40256 0.38447 0.0
H2667 H 0.07002 0.36675 0.43705 0.0
H2668 H 0.07601 0.35363 0.44664 0.0
H2669 H 0.06016 0.34478 0.43039 0.0
H2670 H 0.07655 0.3347 0.41289 0.0
H2671 H 0.09248 0.34356 0.42908 0.0
H2672 H 0.09761 0.34979 0.40755 0.0
H2673 H 0.12163 0.41502 0.40716 0.0
H2674 H 0.14001 0.42209 0.43206 0.0
H2675 H 0.10817 0.37128 0.44912 0.0
C2676 C 0.06672 0.35582 0.39442 0.0
C2677 C 0.06463 0.36295 0.37999 0.0
C2678 C 0.07663 0.3799 0.37649 0.0
C2679 C 0.09047 0.38961 0.38717 0.0
C2680 C 0.09213 0.3822 0.40129 0.0
C2681 C 0.0806 0.3657 0.40494 0.0
C2682 C 0.08521 0.36082 0.42102 0.0
C2683 C 0.07207 0.35623 0.43457 0.0
C2684 C 0.08814 0.34636 0.41741 0.0
C2685 C 0.10113 0.37718 0.42586 0.0
C2686 C 0.10491 0.38934 0.4143 0.0
C2687 C 0.11887 0.40556 0.41623 0.0
C2688 C 0.12924 0.40945 0.43036 0.0
C2689 C 0.12566 0.39714 0.44232 0.0
C2690 C 0.11135 0.38083 0.44002 0.0
H2691 H 0.04707 0.32763 0.2973 0.0
H2692 H 0.02123 0.2853 0.32998 0.0
H2693 H 0.02794 0.2684 0.31084 0.0
H2694 H 0.03468 0.30324 0.25777 0.0
H2695 H 0.05425 0.31653 0.24794 0.0
H2696 H 0.04732 0.3253 0.26417 0.0
H2697 H 0.0743 0.33609 0.2814 0.0
H2698 H 0.08129 0.32731 0.26526 0.0
H2699 H 0.08007 0.3214 0.28685 0.0
H2700 H 0.03719 0.25598 0.28809 0.0
H2701 H 0.04864 0.24899 0.26329 0.0
H2702 H 0.06885 0.29947 0.24567 0.0
C2703 C 0.04278 0.31479 0.30042 0.0
C2704 C 0.0336 0.30778 0.31514 0.0
C2705 C 0.02829 0.29096 0.31879 0.0
C2706 C 0.03203 0.28125 0.30799 0.0
C2707 C 0.04114 0.28855 0.29363 0.0
C2708 C 0.04647 0.30493 0.28981 0.0
C2709 C 0.05616 0.30978 0.27362 0.0
C2710 C 0.04758 0.31395 0.26007 0.0
C2711 C 0.07401 0.32452 0.27699 0.0
C2712 C 0.05543 0.29355 0.26893 0.0
C2713 C 0.04669 0.28146 0.28062 0.0
C2714 C 0.04415 0.26537 0.27889 0.0
C2715 C 0.05072 0.26153 0.26481 0.0
C2716 C 0.05983 0.27376 0.25272 0.0
C2717 C 0.06212 0.28995 0.25484 0.0
H2718 H 0.67809 0.71823 0.27928 0.0
H2719 H 0.71503 0.74126 0.31972 0.0
H2720 H 0.73165 0.76633 0.30281 0.0
H2721 H 0.70664 0.73391 0.24455 0.0
H2722 H 0.69328 0.7372 0.2316 0.0
H2723 H 0.6846 0.72086 0.24668 0.0
H2724 H 0.6689 0.73377 0.26044 0.0
H2725 H 0.67758 0.75018 0.24546 0.0
H2726 H 0.68022 0.75561 0.26783 0.0
H2727 H 0.74407 0.78909 0.28158 0.0
H2728 H 0.75129 0.80781 0.25762 0.0
H2729 H 0.7059 0.77012 0.23149 0.0
C2730 C 0.68972 0.72849 0.28456 0.0
C2731 C 0.69526 0.72775 0.30082 0.0
C2732 C 0.71053 0.7415 0.30727 0.0
C2733 C 0.72007 0.75581 0.29777 0.0
C2734 C 0.71416 0.75616 0.28184 0.0
C2735 C 0.69936 0.74285 0.27528 0.0
C2736 C 0.69567 0.74648 0.25795 0.0
C2737 C 0.69502 0.73386 0.2444 0.0
C2738 C 0.67964 0.74652 0.25793 0.0
C2739 C 0.71061 0.76401 0.25589 0.0
C2740 C 0.72119 0.76933 0.26975 0.0
C2741 C 0.73587 0.78506 0.27067 0.0
C2742 C 0.73985 0.79561 0.25703 0.0
C2743 C 0.72913 0.79043 0.24274 0.0
C2744 C 0.71431 0.77441 0.24226 0.0
H2745 H 0.27938 0.95736 0.30507 0.0
H2746 H 0.25251 0.96089 0.34775 0.0
H2747 H 0.22949 0.95448 0.32847 0.0
H2748 H 0.26666 0.97591 0.27471 0.0
H2749 H 0.26491 0.96185 0.25743 0.0
H2750 H 0.27938 0.96705 0.27454 0.0
H2751 H 0.26606 0.93524 0.27968 0.0
H2752 H 0.25155 0.92994 0.26258 0.0
H2753 H 0.24424 0.92236 0.28335 0.0
H2754 H 0.20961 0.9481 0.30444 0.0
H2755 H 0.19386 0.94118 0.27754 0.0
H2756 H 0.23322 0.94051 0.25087 0.0
C2757 C 0.26869 0.95686 0.31036 0.0
C2758 C 0.26776 0.9597 0.3279 0.0
C2759 C 0.25348 0.95875 0.33435 0.0
C2760 C 0.24036 0.95515 0.32351 0.0
C2761 C 0.24167 0.95238 0.30628 0.0
C2762 C 0.25543 0.95309 0.29976 0.0
C2763 C 0.2536 0.94923 0.28084 0.0
C2764 C 0.26693 0.96442 0.27132 0.0
C2765 C 0.25387 0.93324 0.27635 0.0
C2766 C 0.23669 0.94631 0.27772 0.0
C2767 C 0.23005 0.94828 0.29253 0.0
C2768 C 0.21465 0.94647 0.29276 0.0
C2769 C 0.20581 0.94254 0.27744 0.0
C2770 C 0.21234 0.94036 0.26212 0.0
C2771 C 0.22796 0.94219 0.26237 0.0
H2772 H 0.71488 0.96317 0.31617 0.0
H2773 H 0.67139 0.95741 0.29226 0.0
H2774 H 0.68072 0.9533 0.26447 0.0
H2775 H 0.74262 0.98687 0.28458 0.0
H2776 H 0.75467 0.97732 0.2857 0.0
H2777 H 0.74393 0.97826 0.30404 0.0
H2778 H 0.72893 0.94582 0.30608 0.0
H2779 H 0.73968 0.94478 0.28776 0.0
H2780 H 0.71747 0.93225 0.28799 0.0
H2781 H 0.69564 0.95222 0.23914 0.0
H2782 H 0.71521 0.95374 0.21774 0.0
H2783 H 0.7489 0.95966 0.25772 0.0
C2784 C 0.70719 0.96075 0.30513 0.0
C2785 C 0.69238 0.96058 0.30642 0.0
C2786 C 0.68278 0.9576 0.29162 0.0
C2787 C 0.68795 0.9552 0.27575 0.0
C2788 C 0.70271 0.95573 0.27487 0.0
C2789 C 0.71218 0.95834 0.28914 0.0
C2790 C 0.72798 0.9592 0.2845 0.0
C2791 C 0.74319 0.97644 0.29003 0.0
C2792 C 0.72854 0.94464 0.29203 0.0
C2793 C 0.72604 0.95703 0.2654 0.0
C2794 C 0.71132 0.95495 0.26014 0.0
C2795 C 0.7071 0.95359 0.24308 0.0
C2796 C 0.71828 0.95449 0.23104 0.0
C2797 C 0.73344 0.95663 0.2361 0.0
C2798 C 0.73728 0.95779 0.25353 0.0
H2799 H 0.01271 0.71106 0.2849 0.0
H2800 H 0.02824 0.74549 0.32906 0.0
H2801 H 0.03973 0.76966 0.31045 0.0
H2802 H 0.04856 0.73761 0.25997 0.0
H2803 H 0.03699 0.7316 0.24032 0.0
H2804 H 0.03 0.71703 0.25712 0.0
H2805 H 0.00167 0.71438 0.25645 0.0
H2806 H 0.00855 0.72888 0.23961 0.0
H2807 H 0.00088 0.73317 0.25877 0.0
H2808 H 0.04814 0.78991 0.28691 0.0
H2809 H 0.05384 0.8048 0.26032 0.0
H2810 H 0.03436 0.75729 0.23158 0.0
C2811 C 0.01849 0.72368 0.29066 0.0
C2812 C 0.0195 0.7264 0.30843 0.0
C2813 C 0.02733 0.74312 0.31548 0.0
C2814 C 0.03389 0.75692 0.30501 0.0
C2815 C 0.03271 0.75379 0.28754 0.0
C2816 C 0.02531 0.7376 0.28042 0.0
C2817 C 0.02572 0.73766 0.26129 0.0
C2818 C 0.03593 0.73055 0.25427 0.0
C2819 C 0.00816 0.72795 0.25358 0.0
C2820 C 0.03429 0.75641 0.25874 0.0
C2821 C 0.03818 0.76551 0.27403 0.0
C2822 C 0.04541 0.78296 0.27486 0.0
C2823 C 0.04866 0.79132 0.25966 0.0
C2824 C 0.04494 0.78225 0.24382 0.0
C2825 C 0.0377 0.76457 0.24348 0.0
H2826 H 0.26551 0.29763 0.30713 0.0
H2827 H 0.29537 0.34795 0.28808 0.0
H2828 H 0.27804 0.33853 0.2622 0.0
H2829 H 0.25903 0.27494 0.2678 0.0
H2830 H 0.23798 0.25871 0.27179 0.0
H2831 H 0.25234 0.26949 0.28921 0.0
H2832 H 0.23282 0.27789 0.30259 0.0
H2833 H 0.21839 0.26714 0.28519 0.0
H2834 H 0.22615 0.28908 0.29035 0.0
H2835 H 0.25873 0.32348 0.23773 0.0
H2836 H 0.2381 0.30368 0.21632 0.0
H2837 H 0.21964 0.26339 0.2515 0.0
C2838 C 0.26834 0.30667 0.29755 0.0
C2839 C 0.28182 0.32354 0.29965 0.0
C2840 C 0.2851 0.33499 0.28681 0.0
C2841 C 0.27532 0.32976 0.27205 0.0
C2842 C 0.26218 0.31308 0.27034 0.0
C2843 C 0.25857 0.30171 0.28275 0.0
C2844 C 0.24384 0.28443 0.27756 0.0
C2845 C 0.24859 0.27111 0.27653 0.0
C2846 C 0.22945 0.27934 0.28964 0.0
C2847 C 0.23997 0.28783 0.26018 0.0
C2848 C 0.25071 0.30445 0.25629 0.0
C2849 C 0.25013 0.31047 0.24067 0.0
C2850 C 0.23838 0.29914 0.2286 0.0
C2851 C 0.22731 0.28201 0.23221 0.0
C2852 C 0.22796 0.27641 0.24836 0.0
H2853 H 0.29875 0.37922 0.37346 0.0
H2854 H 0.2874 0.33159 0.393 0.0
H2855 H 0.28054 0.33943 0.42048 0.0
H2856 H 0.31839 0.40411 0.41019 0.0
H2857 H 0.31048 0.41768 0.40847 0.0
H2858 H 0.31293 0.40772 0.38973 0.0
H2859 H 0.28212 0.39445 0.38173 0.0
H2860 H 0.27958 0.40442 0.40046 0.0
H2861 H 0.26653 0.38188 0.39674 0.0
H2862 H 0.27737 0.35329 0.4465 0.0
H2863 H 0.27783 0.37236 0.46935 0.0
H2864 H 0.29059 0.41077 0.43309 0.0
C2865 C 0.29454 0.37032 0.38342 0.0
C2866 C 0.29358 0.35477 0.38103 0.0
C2867 C 0.28822 0.34356 0.39448 0.0
C2868 C 0.28425 0.34787 0.41015 0.0
C2869 C 0.28558 0.36339 0.41218 0.0
C2870 C 0.2905 0.37441 0.39918 0.0
C2871 C 0.29177 0.39069 0.40502 0.0
C2872 C 0.30944 0.40594 0.40325 0.0
C2873 C 0.27925 0.39299 0.39542 0.0
C2874 C 0.28724 0.38725 0.42343 0.0
C2875 C 0.28358 0.37136 0.42725 0.0
C2876 C 0.27996 0.36567 0.44364 0.0
C2877 C 0.28027 0.37657 0.45652 0.0
C2878 C 0.28412 0.39295 0.45294 0.0
C2879 C 0.28742 0.39823 0.43612 0.0
H2880 H 0.66393 0.95743 0.40927 0.0
H2881 H 0.63482 0.92493 0.36623 0.0
H2882 H 0.61832 0.90174 0.38531 0.0
H2883 H 0.66393 0.9247 0.43312 0.0
H2884 H 0.66223 0.93338 0.45323 0.0
H2885 H 0.67254 0.94708 0.43606 0.0
H2886 H 0.65301 0.95829 0.43865 0.0
H2887 H 0.64267 0.94467 0.45581 0.0
H2888 H 0.63102 0.94354 0.43746 0.0
H2889 H 0.6036 0.88282 0.40924 0.0
H2890 H 0.59195 0.8695 0.43633 0.0
H2891 H 0.63089 0.91406 0.4637 0.0
C2892 C 0.65423 0.94538 0.40381 0.0
C2893 C 0.65071 0.94301 0.38623 0.0
C2894 C 0.63779 0.92706 0.37964 0.0
C2895 C 0.62835 0.91379 0.39037 0.0
C2896 C 0.63204 0.91661 0.40765 0.0
C2897 C 0.6447 0.93199 0.41433 0.0
C2898 C 0.64563 0.93197 0.43344 0.0
C2899 C 0.66206 0.93443 0.4393 0.0
C2900 C 0.64291 0.94541 0.44182 0.0
C2901 C 0.63133 0.9143 0.43647 0.0
C2902 C 0.6237 0.9056 0.42143 0.0
C2903 C 0.60965 0.88938 0.42108 0.0
C2904 C 0.60316 0.88189 0.43651 0.0
C2905 C 0.61081 0.89057 0.45208 0.0
C2906 C 0.62508 0.90697 0.45197 0.0
H2907 H 0.06748 0.70557 0.37669 0.0
H2908 H 0.0306 0.71169 0.4022 0.0
H2909 H 0.04527 0.71679 0.42939 0.0
H2910 H 0.07214 0.6831 0.40812 0.0
H2911 H 0.09407 0.69285 0.4059 0.0
H2912 H 0.0816 0.69124 0.38814 0.0
H2913 H 0.09986 0.72361 0.38512 0.0
H2914 H 0.11244 0.72531 0.40287 0.0
H2915 H 0.10298 0.73758 0.40306 0.0
H2916 H 0.06238 0.71875 0.45405 0.0
H2917 H 0.08127 0.71794 0.47456 0.0
H2918 H 0.10735 0.71107 0.43319 0.0
C2919 C 0.06262 0.70824 0.38794 0.0
C2920 C 0.04789 0.70825 0.38729 0.0
C2921 C 0.04187 0.71164 0.40236 0.0
C2922 C 0.05013 0.71459 0.41787 0.0
C2923 C 0.06446 0.71423 0.41812 0.0
C2924 C 0.07074 0.71125 0.40356 0.0
C2925 C 0.08591 0.71073 0.40746 0.0
C2926 C 0.08326 0.69345 0.40209 0.0
C2927 C 0.1012 0.72517 0.39913 0.0
C2928 C 0.0869 0.71342 0.42653 0.0
C2929 C 0.07449 0.71555 0.4324 0.0
C2930 C 0.07232 0.71735 0.44961 0.0
C2931 C 0.08307 0.71686 0.46115 0.0
C2932 C 0.09585 0.71465 0.45542 0.0
C2933 C 0.09783 0.71304 0.43787 0.0
H2934 H 0.34209 0.06028 0.72273 0.0
H2935 H 0.30353 0.02478 0.68727 0.0
H2936 H 0.28313 0.0279 0.70354 0.0
H2937 H 0.31787 0.04609 0.76 0.0
H2938 H 0.32724 0.06695 0.7699 0.0
H2939 H 0.33879 0.06213 0.75526 0.0
H2940 H 0.3443 0.08704 0.73721 0.0
H2941 H 0.33276 0.09193 0.75179 0.0
H2942 H 0.32715 0.08803 0.72962 0.0
H2943 H 0.26689 0.03478 0.72396 0.0
H2944 H 0.25617 0.04491 0.74696 0.0
H2945 H 0.3054 0.07547 0.76902 0.0
C2946 C 0.32937 0.05319 0.71832 0.0
C2947 C 0.32442 0.04232 0.70369 0.0
C2948 C 0.30762 0.03321 0.69843 0.0
C2949 C 0.29595 0.0349 0.70758 0.0
C2950 C 0.30126 0.04571 0.72197 0.0
C2951 C 0.31757 0.05468 0.72731 0.0
C2952 C 0.32009 0.06529 0.7433 0.0
C2953 C 0.32637 0.05978 0.75798 0.0
C2954 C 0.33177 0.08419 0.74029 0.0
C2955 C 0.30265 0.06091 0.74612 0.0
C2956 C 0.29195 0.04963 0.73368 0.0
C2957 C 0.27517 0.0437 0.73371 0.0
C2958 C 0.26921 0.04953 0.74677 0.0
C2959 C 0.28001 0.06123 0.75953 0.0
C2960 C 0.29691 0.06678 0.75924 0.0
H2961 H 0.95514 0.27808 0.72639 0.0
H2962 H 0.9984 0.27763 0.7107 0.0
H2963 H 0.99066 0.25408 0.72942 0.0
H2964 H 0.95692 0.26993 0.76984 0.0
H2965 H 0.93485 0.25687 0.77171 0.0
H2966 H 0.94369 0.27337 0.75683 0.0
H2967 H 0.92631 0.25153 0.73259 0.0
H2968 H 0.91747 0.23493 0.7474 0.0
H2969 H 0.92774 0.23322 0.72898 0.0
H2970 H 0.9781 0.23059 0.75004 0.0
H2971 H 0.9622 0.20963 0.77153 0.0
H2972 H 0.92766 0.22615 0.77391 0.0
C2973 C 0.963 0.27303 0.72683 0.0
C2974 C 0.97736 0.27967 0.71704 0.0
C2975 C 0.98734 0.27275 0.71809 0.0
C2976 C 0.98302 0.25936 0.72865 0.0
C2977 C 0.96874 0.25309 0.73809 0.0
C2978 C 0.95893 0.25977 0.73732 0.0
C2979 C 0.9444 0.25105 0.74897 0.0
C2980 C 0.94501 0.26355 0.76265 0.0
C2981 C 0.92801 0.24215 0.73888 0.0
C2982 C 0.94756 0.23842 0.75647 0.0
C2983 C 0.9616 0.23971 0.74997 0.0
C2984 C 0.96704 0.2294 0.75512 0.0
C2985 C 0.95792 0.21751 0.76726 0.0
C2986 C 0.94349 0.21598 0.77407 0.0
C2987 C 0.9384 0.22673 0.76865 0.0
H2988 H 0.74242 0.71102 0.71591 0.0
H2989 H 0.70963 0.66719 0.74452 0.0
H2990 H 0.73104 0.67663 0.76662 0.0
H2991 H 0.77917 0.71236 0.7234 0.0
H2992 H 0.79194 0.73509 0.72422 0.0
H2993 H 0.7731 0.72441 0.7118 0.0
H2994 H 0.76266 0.74132 0.72786 0.0
H2995 H 0.78149 0.75241 0.74031 0.0
H2996 H 0.76187 0.74132 0.75062 0.0
H2997 H 0.75594 0.68859 0.79046 0.0
H2998 H 0.78846 0.70707 0.8063 0.0
H2999 H 0.80746 0.7474 0.75676 0.0
C3000 C 0.73984 0.70356 0.72693 0.0
C3001 C 0.72441 0.68839 0.72852 0.0
C3002 C 0.72136 0.67884 0.743 0.0
C3003 C 0.73343 0.6841 0.75565 0.0
C3004 C 0.74855 0.69895 0.75376 0.0
C3005 C 0.75206 0.70889 0.7396 0.0
C3006 C 0.76956 0.72493 0.73916 0.0
C3007 C 0.779 0.72414 0.72374 0.0
C3008 C 0.76885 0.74093 0.73951 0.0
C3009 C 0.77734 0.72416 0.75519 0.0
C3010 C 0.76257 0.70602 0.765 0.0
C3011 C 0.76587 0.69969 0.78479 0.0
C3012 C 0.78574 0.71152 0.79514 0.0
C3013 C 0.8023 0.72775 0.78171 0.0
C3014 C 0.7978 0.73733 0.76385 0.0
H3015 H 0.71268 0.66436 0.6393 0.0
H3016 H 0.69092 0.62175 0.67191 0.0
H3017 H 0.6983 0.60623 0.65161 0.0
H3018 H 0.69967 0.64001 0.59974 0.0
H3019 H 0.71839 0.65432 0.58903 0.0
H3020 H 0.71137 0.66213 0.60611 0.0
H3021 H 0.73948 0.6747 0.62172 0.0
H3022 H 0.74657 0.66687 0.60471 0.0
H3023 H 0.74697 0.66117 0.62609 0.0
H3024 H 0.70762 0.59513 0.62773 0.0
H3025 H 0.71839 0.5892 0.6017 0.0
H3026 H 0.73471 0.63915 0.58483 0.0
C3027 C 0.70943 0.65175 0.64216 0.0
C3028 C 0.7012 0.64427 0.65721 0.0
C3029 C 0.69722 0.62776 0.66048 0.0
C3030 C 0.70137 0.61883 0.64904 0.0
C3031 C 0.70953 0.62659 0.63438 0.0
C3032 C 0.71354 0.64267 0.63089 0.0
C3033 C 0.72234 0.64807 0.61421 0.0
C3034 C 0.71234 0.65132 0.60152 0.0
C3035 C 0.73988 0.66362 0.61685 0.0
C3036 C 0.72263 0.63251 0.60887 0.0
C3037 C 0.71515 0.62026 0.62069 0.0
C3038 C 0.7136 0.60465 0.61842 0.0
C3039 C 0.71978 0.60141 0.60364 0.0
C3040 C 0.72753 0.61377 0.59134 0.0
C3041 C 0.72899 0.62954 0.59409 0.0
H3042 H 0.36152 0.06321 0.63032 0.0
H3043 H 0.41 0.07524 0.64642 0.0
H3044 H 0.42275 0.09742 0.62549 0.0
H3045 H 0.36988 0.06851 0.5862 0.0
H3046 H 0.3577 0.07766 0.58293 0.0
H3047 H 0.35248 0.06304 0.59943 0.0
H3048 H 0.35427 0.08525 0.62149 0.0
H3049 H 0.35953 0.09995 0.60505 0.0
H3050 H 0.3729 0.10587 0.62336 0.0
H3051 H 0.43015 0.11811 0.60256 0.0
H3052 H 0.4316 0.13556 0.57916 0.0
H3053 H 0.37824 0.10945 0.57788 0.0
C3054 C 0.37483 0.07052 0.62952 0.0
C3055 C 0.38477 0.0675 0.64005 0.0
C3056 C 0.40213 0.07734 0.63851 0.0
C3057 C 0.40948 0.08997 0.62667 0.0
C3058 C 0.39931 0.09259 0.61648 0.0
C3059 C 0.38236 0.08312 0.61777 0.0
C3060 C 0.37417 0.08827 0.60519 0.0
C3061 C 0.3629 0.07349 0.5927 0.0
C3062 C 0.36466 0.09525 0.61432 0.0
C3063 C 0.38916 0.10205 0.59652 0.0
C3064 C 0.40355 0.10442 0.60327 0.0
C3065 C 0.41897 0.11643 0.59726 0.0
C3066 C 0.41968 0.1263 0.58402 0.0
C3067 C 0.40508 0.12415 0.57698 0.0
C3068 C 0.38963 0.11168 0.58323 0.0
H3069 H 0.94289 0.311 0.65242 0.0
H3070 H 0.97219 0.29029 0.63602 0.0
H3071 H 0.95463 0.27764 0.61036 0.0
H3072 H 0.9035 0.27551 0.63757 0.0
H3073 H 0.89601 0.28846 0.63095 0.0
H3074 H 0.91076 0.29574 0.64819 0.0
H3075 H 0.93035 0.32308 0.63263 0.0
H3076 H 0.91568 0.31589 0.61533 0.0
H3077 H 0.93653 0.32154 0.6114 0.0
H3078 H 0.93449 0.26792 0.58615 0.0
H3079 H 0.91247 0.26106 0.5653 0.0
H3080 H 0.89605 0.28776 0.59747 0.0
C3081 C 0.94558 0.30375 0.64348 0.0
C3082 C 0.95892 0.30163 0.64625 0.0
C3083 C 0.96204 0.29208 0.6342 0.0
C3084 C 0.95214 0.28484 0.61957 0.0
C3085 C 0.93916 0.28725 0.61718 0.0
C3086 C 0.93582 0.29642 0.62881 0.0
C3087 C 0.92118 0.2972 0.62312 0.0
C3088 C 0.90703 0.28872 0.63571 0.0
C3089 C 0.92625 0.31552 0.62046 0.0
C3090 C 0.91684 0.28704 0.60648 0.0
C3091 C 0.92739 0.28145 0.60329 0.0
C3092 C 0.92605 0.27208 0.58858 0.0
C3093 C 0.9135 0.26822 0.57684 0.0
C3094 C 0.90235 0.27357 0.57997 0.0
C3095 C 0.90421 0.28326 0.59492 0.0
H3096 H 0.34109 0.27912 0.65257 0.0
H3097 H 0.36559 0.33242 0.64287 0.0
H3098 H 0.38359 0.3295 0.6224 0.0
H3099 H 0.37764 0.27672 0.64987 0.0
H3100 H 0.36669 0.25587 0.63982 0.0
H3101 H 0.35612 0.26234 0.65405 0.0
H3102 H 0.33427 0.25508 0.63058 0.0
H3103 H 0.3448 0.24865 0.61626 0.0
H3104 H 0.34087 0.2646 0.6104 0.0
H3105 H 0.39844 0.32047 0.60231 0.0
H3106 H 0.40908 0.30603 0.58454 0.0
H3107 H 0.37487 0.25885 0.60767 0.0
C3108 C 0.35029 0.29021 0.64622 0.0
C3109 C 0.35192 0.30599 0.64932 0.0
C3110 C 0.36414 0.3202 0.64073 0.0
C3111 C 0.37441 0.31867 0.62907 0.0
C3112 C 0.37237 0.30288 0.62621 0.0
C3113 C 0.36067 0.28893 0.63461 0.0
C3114 C 0.36086 0.27335 0.62918 0.0
C3115 C 0.36561 0.26668 0.64412 0.0
C3116 C 0.34421 0.25961 0.62112 0.0
C3117 C 0.3743 0.28065 0.6162 0.0
C3118 C 0.38086 0.29771 0.6147 0.0
C3119 C 0.39339 0.30711 0.60338 0.0
C3120 C 0.39932 0.29882 0.59332 0.0
C3121 C 0.39263 0.28131 0.59457 0.0
C3122 C 0.38007 0.27222 0.60631 0.0
H3123 H 0.70958 0.05415 0.60432 0.0
H3124 H 0.70949 0.08204 0.64952 0.0
H3125 H 0.7162 0.10623 0.63231 0.0
H3126 H 0.74317 0.0902 0.58307 0.0
H3127 H 0.73355 0.0824 0.56244 0.0
H3128 H 0.73 0.06779 0.5785 0.0
H3129 H 0.69847 0.05433 0.5751 0.0
H3130 H 0.70192 0.06887 0.55905 0.0
H3131 H 0.69009 0.06756 0.57738 0.0
H3132 H 0.72097 0.12659 0.60989 0.0
H3133 H 0.72334 0.14147 0.58389 0.0
H3134 H 0.72042 0.10035 0.55347 0.0
C3135 C 0.71119 0.06542 0.61066 0.0
C3136 C 0.70906 0.06621 0.62829 0.0
C3137 C 0.71109 0.08114 0.63604 0.0
C3138 C 0.71494 0.09497 0.62637 0.0
C3139 C 0.71678 0.09369 0.60899 0.0
C3140 C 0.715 0.07931 0.60121 0.0
C3141 C 0.71676 0.08081 0.58222 0.0
C3142 C 0.73177 0.08027 0.57621 0.0
C3143 C 0.70087 0.06708 0.5729 0.0
C3144 C 0.71952 0.09817 0.58051 0.0
C3145 C 0.71962 0.10546 0.5961 0.0
C3146 C 0.72119 0.12113 0.59763 0.0
C3147 C 0.72258 0.12951 0.58283 0.0
C3148 C 0.72247 0.12223 0.56673 0.0
C3149 C 0.72095 0.10637 0.56564 0.0
H3150 H 0.93102 0.63836 0.63138 0.0
H3151 H 0.96155 0.68634 0.60783 0.0
H3152 H 0.94349 0.67506 0.58242 0.0
H3153 H 0.9228 0.61204 0.5945 0.0
H3154 H 0.90172 0.59681 0.59957 0.0
H3155 H 0.91663 0.6088 0.61628 0.0
H3156 H 0.89819 0.61932 0.62805 0.0
H3157 H 0.8832 0.60734 0.61138 0.0
H3158 H 0.89171 0.62969 0.61431 0.0
H3159 H 0.92344 0.65814 0.55888 0.0
H3160 H 0.90182 0.63688 0.53909 0.0
H3161 H 0.88328 0.60033 0.57825 0.0
C3162 C 0.93384 0.64652 0.62092 0.0
C3163 C 0.94772 0.66323 0.62159 0.0
C3164 C 0.95097 0.67352 0.60764 0.0
C3165 C 0.94079 0.66723 0.59314 0.0
C3166 C 0.9273 0.65069 0.59283 0.0
C3167 C 0.92369 0.64051 0.60638 0.0
C3168 C 0.90851 0.62312 0.60266 0.0
C3169 C 0.91267 0.60939 0.60329 0.0
C3170 C 0.89458 0.61967 0.61482 0.0
C3171 C 0.90438 0.62505 0.58478 0.0
C3172 C 0.91538 0.64106 0.57936 0.0
C3173 C 0.91461 0.64563 0.56303 0.0
C3174 C 0.90231 0.63348 0.55189 0.0
C3175 C 0.89086 0.617 0.55716 0.0
C3176 C 0.89183 0.61285 0.57391 0.0
H3177 H 0.9547 0.67241 0.73041 0.0
H3178 H 0.96775 0.70939 0.69233 0.0
H3179 H 0.96621 0.72845 0.71372 0.0
H3180 H 0.92641 0.68071 0.75416 0.0
H3181 H 0.93317 0.67797 0.7743 0.0
H3182 H 0.93366 0.66655 0.75563 0.0
H3183 H 0.96476 0.6788 0.76107 0.0
H3184 H 0.96436 0.69024 0.77972 0.0
H3185 H 0.97877 0.70136 0.76325 0.0
H3186 H 0.96518 0.74429 0.73967 0.0
H3187 H 0.9654 0.75593 0.7684 0.0
H3188 H 0.95348 0.70882 0.7895 0.0
C3189 C 0.95694 0.68439 0.72648 0.0
C3190 C 0.96125 0.68937 0.70967 0.0
C3191 C 0.96438 0.70528 0.70513 0.0
C3192 C 0.96348 0.71618 0.71717 0.0
C3193 C 0.95943 0.71097 0.73369 0.0
C3194 C 0.95621 0.69545 0.73835 0.0
C3195 C 0.95323 0.69334 0.75716 0.0
C3196 C 0.93556 0.67878 0.7605 0.0
C3197 C 0.96605 0.69079 0.7658 0.0
C3198 C 0.95563 0.71024 0.76242 0.0
C3199 C 0.95899 0.72015 0.74867 0.0
C3200 C 0.96234 0.73656 0.7505 0.0
C3201 C 0.96242 0.74306 0.76682 0.0
C3202 C 0.9592 0.73316 0.78109 0.0
C3203 C 0.95568 0.71653 0.77878 0.0
H3204 H 0.32523 0.29502 0.73675 0.0
H3205 H 0.28773 0.27424 0.69687 0.0
H3206 H 0.27048 0.24899 0.71341 0.0
H3207 H 0.32022 0.25548 0.7483 0.0
H3208 H 0.32339 0.26134 0.77058 0.0
H3209 H 0.3331 0.27738 0.75524 0.0
H3210 H 0.3197 0.29284 0.76874 0.0
H3211 H 0.31002 0.2769 0.78415 0.0
H3212 H 0.29765 0.28147 0.7711 0.0
H3213 H 0.25696 0.22638 0.7348 0.0
H3214 H 0.24788 0.20868 0.75979 0.0
H3215 H 0.29411 0.24454 0.78564 0.0
C3216 C 0.31345 0.28512 0.73141 0.0
C3217 C 0.30785 0.28659 0.71548 0.0
C3218 C 0.29228 0.2734 0.70905 0.0
C3219 C 0.28241 0.25899 0.71833 0.0
C3220 C 0.28829 0.25797 0.73401 0.0
C3221 C 0.30343 0.27072 0.74052 0.0
C3222 C 0.30664 0.26688 0.75796 0.0
C3223 C 0.32173 0.26516 0.75801 0.0
C3224 C 0.30861 0.28032 0.77127 0.0
C3225 C 0.29087 0.25005 0.76033 0.0
C3226 C 0.28049 0.24505 0.74633 0.0
C3227 C 0.26504 0.23011 0.74577 0.0
C3228 C 0.26001 0.22013 0.75997 0.0
C3229 C 0.2704 0.22514 0.77452 0.0
C3230 C 0.28603 0.24027 0.7746 0.0
H3231 H 0.71755 0.03167 0.71484 0.0
H3232 H 0.75834 0.06277 0.68212 0.0
H3233 H 0.77801 0.06759 0.70501 0.0
H3234 H 0.73589 0.05639 0.75341 0.0
H3235 H 0.72753 0.03829 0.76632 0.0
H3236 H 0.71671 0.03728 0.74734 0.0
H3237 H 0.71693 0.01096 0.73627 0.0
H3238 H 0.72771 0.01186 0.75523 0.0
H3239 H 0.73625 0.01206 0.73482 0.0
H3240 H 0.79322 0.06807 0.73127 0.0
H3241 H 0.80272 0.06469 0.75883 0.0
H3242 H 0.75194 0.03464 0.77485 0.0
C3243 C 0.73061 0.03951 0.71246 0.0
C3244 C 0.73639 0.04682 0.69665 0.0
C3245 C 0.7536 0.05701 0.6941 0.0
C3246 C 0.76488 0.05983 0.70704 0.0
C3247 C 0.75875 0.05245 0.72247 0.0
C3248 C 0.74202 0.04253 0.72523 0.0
C3249 C 0.7386 0.03596 0.7429 0.0
C3250 C 0.72913 0.04237 0.75309 0.0
C3251 C 0.72933 0.01656 0.74226 0.0
C3252 C 0.75603 0.04381 0.7497 0.0
C3253 C 0.76749 0.05315 0.73769 0.0
C3254 C 0.78435 0.06091 0.74083 0.0
C3255 C 0.78963 0.05892 0.75659 0.0
C3256 C 0.77807 0.04942 0.76913 0.0
C3257 C 0.76108 0.04202 0.76558 0.0
H3258 H 0.03009 0.30688 0.01331 0.0
H3259 H 0.03898 0.35037 0.04421 0.0
H3260 H 0.05271 0.34381 0.06595 0.0
H3261 H 0.01961 0.27875 0.04545 0.0
H3262 H 0.02893 0.26816 0.03566 0.0
H3263 H 0.02136 0.27811 0.02277 0.0
H3264 H 0.04989 0.29603 0.00935 0.0
H3265 H 0.0577 0.28611 0.02198 0.0
H3266 H 0.06786 0.30879 0.02277 0.0
H3267 H 0.06415 0.33272 0.09097 0.0
H3268 H 0.07501 0.31372 0.10882 0.0
H3269 H 0.05719 0.27325 0.05576 0.0
C3270 C 0.03515 0.31506 0.0246 0.0
C3271 C 0.03351 0.32912 0.02708 0.0
C3272 C 0.04006 0.3395 0.04203 0.0
C3273 C 0.04791 0.3359 0.05446 0.0
C3274 C 0.04916 0.32186 0.05189 0.0
C3275 C 0.0429 0.31129 0.03712 0.0
C3276 C 0.04459 0.29575 0.03634 0.0
C3277 C 0.02762 0.27923 0.03497 0.0
C3278 C 0.05567 0.29673 0.02175 0.0
C3279 C 0.05271 0.29735 0.05301 0.0
C3280 C 0.05597 0.31564 0.06349 0.0
C3281 C 0.06338 0.32177 0.08488 0.0
C3282 C 0.06923 0.30954 0.09639 0.0
C3283 C 0.07008 0.29307 0.08296 0.0
C3284 C 0.05793 0.28383 0.06272 0.0
H3285 H 0.6835 0.70196 0.03731 0.0
H3286 H 0.63233 0.67797 0.05156 0.0
H3287 H 0.63894 0.70342 0.0688 0.0
H3288 H 0.7022 0.72228 0.07588 0.0
H3289 H 0.71913 0.74055 0.06647 0.0
H3290 H 0.70893 0.72039 0.05505 0.0
H3291 H 0.70289 0.73311 0.02994 0.0
H3292 H 0.71319 0.75347 0.04104 0.0
H3293 H 0.69224 0.74403 0.03348 0.0
H3294 H 0.649 0.73126 0.09074 0.0
H3295 H 0.66885 0.76462 0.10723 0.0
H3296 H 0.71861 0.77148 0.07406 0.0
C3297 C 0.67374 0.70222 0.04401 0.0
C3298 C 0.65744 0.68805 0.04318 0.0
C3299 C 0.6449 0.68872 0.05199 0.0
C3300 C 0.64854 0.70309 0.06185 0.0
C3301 C 0.66473 0.7168 0.06269 0.0
C3302 C 0.67745 0.71669 0.05378 0.0
C3303 C 0.69487 0.73273 0.05599 0.0
C3304 C 0.70699 0.72874 0.06381 0.0
C3305 C 0.70117 0.74134 0.03911 0.0
C3306 C 0.69197 0.74356 0.06804 0.0
C3307 C 0.67102 0.73236 0.07247 0.0
C3308 C 0.66192 0.73929 0.0879 0.0
C3309 C 0.67429 0.75951 0.09889 0.0
C3310 C 0.69539 0.77297 0.09001 0.0
C3311 C 0.70591 0.76388 0.07788 0.0
H3312 H 0.28189 0.98414 0.01874 0.0
H3313 H 0.30917 0.96054 0.02989 0.0
H3314 H 0.28488 0.93803 0.04438 0.0
H3315 H 0.26209 0.97708 0.05798 0.0
H3316 H 0.24297 0.97314 0.04923 0.0
H3317 H 0.26202 0.9866 0.03867 0.0
H3318 H 0.25006 0.96787 0.0111 0.0
H3319 H 0.23091 0.9544 0.02154 0.0
H3320 H 0.24178 0.94553 0.0116 0.0
H3321 H 0.25753 0.91833 0.05807 0.0
H3322 H 0.22981 0.90361 0.07056 0.0
H3323 H 0.22126 0.94109 0.0514 0.0
C3324 C 0.28272 0.97413 0.02402 0.0
C3325 C 0.29739 0.97403 0.0231 0.0
C3326 C 0.29803 0.96083 0.03041 0.0
C3327 C 0.2843 0.948 0.03864 0.0
C3328 C 0.27009 0.94862 0.03951 0.0
C3329 C 0.26924 0.96136 0.03239 0.0
C3330 C 0.25284 0.95961 0.03567 0.0
C3331 C 0.25513 0.97502 0.046 0.0
C3332 C 0.24334 0.95667 0.01898 0.0
C3333 C 0.24464 0.94398 0.04592 0.0
C3334 C 0.25468 0.9377 0.04787 0.0
C3335 C 0.24962 0.92322 0.05674 0.0
C3336 C 0.2339 0.91501 0.06387 0.0
C3337 C 0.2236 0.92153 0.06237 0.0
C3338 C 0.22904 0.93607 0.05307 0.0
H3339 H 0.35203 0.05647 0.96324 0.0
H3340 H 0.32272 0.03997 0.00859 0.0
H3341 H 0.31084 0.05687 0.0019 0.0
H3342 H 0.36106 0.09917 0.96594 0.0
H3343 H 0.35975 0.10038 0.94338 0.0
H3344 H 0.36595 0.08694 0.95173 0.0
H3345 H 0.34249 0.06138 0.93433 0.0
H3346 H 0.33614 0.07472 0.92602 0.0
H3347 H 0.32154 0.05603 0.93677 0.0
H3348 H 0.3019 0.07525 0.99023 0.0
H3349 H 0.29729 0.09484 0.9748 0.0
H3350 H 0.33272 0.09983 0.93738 0.0
C3351 C 0.34315 0.05644 0.9718 0.0
C3352 C 0.33831 0.04688 0.98644 0.0
C3353 C 0.32666 0.04722 0.99732 0.0
C3354 C 0.3198 0.05674 0.99361 0.0
C3355 C 0.32475 0.06591 0.97902 0.0
C3356 C 0.33622 0.06595 0.96833 0.0
C3357 C 0.33953 0.07706 0.95356 0.0
C3358 C 0.35765 0.09176 0.95367 0.0
C3359 C 0.33463 0.06667 0.93667 0.0
C3360 C 0.3281 0.08324 0.95762 0.0
C3361 C 0.31963 0.07659 0.97231 0.0
C3362 C 0.3084 0.08048 0.97866 0.0
C3363 C 0.30581 0.09154 0.9698 0.0
C3364 C 0.31435 0.09853 0.95471 0.0
C3365 C 0.32574 0.09439 0.94866 0.0
H3366 H 0.96153 0.27941 0.99802 0.0
H3367 H 0.95638 0.32096 0.9851 0.0
H3368 H 0.93029 0.3011 0.97 0.0
H3369 H 0.94713 0.2555 0.95962 0.0
H3370 H 0.93729 0.23546 0.96948 0.0
H3371 H 0.95493 0.25372 0.97956 0.0
H3372 H 0.93845 0.24993 0.00665 0.0
H3373 H 0.92068 0.23149 0.99695 0.0
H3374 H 0.91908 0.24874 0.00538 0.0
H3375 H 0.90088 0.27747 0.95421 0.0
H3376 H 0.87468 0.24619 0.93815 0.0
H3377 H 0.90191 0.21664 0.96366 0.0
C3378 C 0.95475 0.28419 0.99209 0.0
C3379 C 0.96094 0.30168 0.99271 0.0
C3380 C 0.9519 0.30761 0.98479 0.0
C3381 C 0.93705 0.29644 0.97618 0.0
C3382 C 0.93133 0.27934 0.9755 0.0
C3383 C 0.93987 0.27291 0.98337 0.0
C3384 C 0.93203 0.25359 0.98136 0.0
C3385 C 0.94353 0.24933 0.97195 0.0
C3386 C 0.92728 0.24546 0.99861 0.0
C3387 C 0.91691 0.24803 0.97083 0.0
C3388 C 0.91675 0.26608 0.96686 0.0
C3389 C 0.90053 0.26585 0.9556 0.0
C3390 C 0.88372 0.24637 0.94643 0.0
C3391 C 0.88697 0.2284 0.94677 0.0
C3392 C 0.90105 0.22762 0.96256 0.0
H3393 H 0.71305 0.69348 0.98429 0.0
H3394 H 0.70262 0.64446 0.99844 0.0
H3395 H 0.72872 0.65053 0.98566 0.0
H3396 H 0.73162 0.69445 0.9442 0.0
H3397 H 0.74696 0.71671 0.9464 0.0
H3398 H 0.72729 0.70834 0.95631 0.0
H3399 H 0.74198 0.72115 0.98537 0.0
H3400 H 0.76169 0.72958 0.97555 0.0
H3401 H 0.75639 0.71603 0.9931 0.0
H3402 H 0.75621 0.6622 0.97187 0.0
H3403 H 0.7833 0.67877 0.95831 0.0
H3404 H 0.77575 0.72015 0.95333 0.0
C3405 C 0.71619 0.68396 0.98464 0.0
C3406 C 0.70576 0.66846 0.99233 0.0
C3407 C 0.71041 0.65642 0.99261 0.0
C3408 C 0.72519 0.65974 0.98537 0.0
C3409 C 0.73519 0.67516 0.97792 0.0
C3410 C 0.7309 0.68709 0.97754 0.0
C3411 C 0.74399 0.70281 0.9691 0.0
C3412 C 0.73705 0.70574 0.95305 0.0
C3413 C 0.75145 0.7183 0.98153 0.0
C3414 C 0.75633 0.69788 0.96481 0.0
C3415 C 0.751 0.68187 0.96997 0.0
C3416 C 0.76045 0.67469 0.96766 0.0
C3417 C 0.77576 0.68416 0.9599 0.0
C3418 C 0.78144 0.70059 0.95446 0.0
C3419 C 0.77157 0.70751 0.95707 0.0
H3420 H 0.98602 0.69254 0.97849 0.0
H3421 H 0.94696 0.64764 0.00159 0.0
H3422 H 0.92692 0.65526 0.99346 0.0
H3423 H 0.97296 0.71937 0.99263 0.0
H3424 H 0.97868 0.73131 0.9738 0.0
H3425 H 0.98948 0.72137 0.97981 0.0
H3426 H 0.98264 0.70553 0.95046 0.0
H3427 H 0.97179 0.71544 0.94435 0.0
H3428 H 0.96147 0.69276 0.94319 0.0
H3429 H 0.91166 0.66897 0.98471 0.0
H3430 H 0.90246 0.68794 0.97656 0.0
H3431 H 0.95167 0.72397 0.95961 0.0
C3432 C 0.9732 0.6841 0.98159 0.0
C3433 C 0.96802 0.66941 0.99058 0.0
C3434 C 0.95118 0.65891 0.99464 0.0
C3435 C 0.93972 0.66312 0.99003 0.0
C3436 C 0.94531 0.67784 0.98138 0.0
C3437 C 0.96166 0.68817 0.97719 0.0
C3438 C 0.96477 0.70388 0.96893 0.0
C3439 C 0.9772 0.71992 0.97943 0.0
C3440 C 0.9705 0.70442 0.95064 0.0
C3441 C 0.94766 0.70096 0.96938 0.0
C3442 C 0.93656 0.68579 0.97644 0.0
C3443 C 0.92018 0.68075 0.97893 0.0
C3444 C 0.91507 0.69157 0.97425 0.0
C3445 C 0.92628 0.70724 0.96714 0.0
C3446 C 0.94276 0.71189 0.96463 0.0
H3447 H 0.3407 0.31509 0.97114 0.0
H3448 H 0.33536 0.2998 0.02302 0.0
H3449 H 0.32084 0.26993 0.0128 0.0
H3450 H 0.30169 0.28389 0.9575 0.0
H3451 H 0.30739 0.28055 0.93663 0.0
H3452 H 0.31963 0.30076 0.94767 0.0
H3453 H 0.3457 0.29918 0.94446 0.0
H3454 H 0.33358 0.27902 0.93318 0.0
H3455 H 0.34549 0.28107 0.9517 0.0
H3456 H 0.30389 0.24176 0.99721 0.0
H3457 H 0.28689 0.21744 0.97724 0.0
H3458 H 0.30319 0.25122 0.93569 0.0
C3459 C 0.33694 0.30551 0.98035 0.0
C3460 C 0.33925 0.30978 0.99788 0.0
C3461 C 0.33379 0.29682 0.00952 0.0
C3462 C 0.32554 0.27982 0.00384 0.0
C3463 C 0.32292 0.27601 0.98649 0.0
C3464 C 0.32861 0.2885 0.97491 0.0
C3465 C 0.32301 0.28107 0.95708 0.0
C3466 C 0.31229 0.28692 0.94927 0.0
C3467 C 0.33783 0.28534 0.94595 0.0
C3468 C 0.31293 0.26246 0.9605 0.0
C3469 C 0.31313 0.25978 0.97751 0.0
C3470 C 0.3039 0.24368 0.98382 0.0
C3471 C 0.29426 0.22996 0.97241 0.0
C3472 C 0.29395 0.23245 0.95492 0.0
C3473 C 0.30344 0.24894 0.94896 0.0
H3474 H 0.7202 0.05754 0.00803 0.0
H3475 H 0.69374 0.01707 0.96977 0.0
H3476 H 0.71954 0.02702 0.95445 0.0
H3477 H 0.74896 0.08942 0.97868 0.0
H3478 H 0.76596 0.09843 0.99366 0.0
H3479 H 0.74516 0.08889 0.00106 0.0
H3480 H 0.7494 0.06913 0.01936 0.0
H3481 H 0.77016 0.07856 0.01199 0.0
H3482 H 0.75599 0.05606 0.00943 0.0
H3483 H 0.7485 0.03935 0.94489 0.0
H3484 H 0.77853 0.05431 0.94093 0.0
H3485 H 0.78622 0.0878 0.98431 0.0
C3486 C 0.71979 0.05093 0.99631 0.0
C3487 C 0.70491 0.03651 0.99015 0.0
C3488 C 0.70494 0.02817 0.97477 0.0
C3489 C 0.71955 0.03372 0.96594 0.0
C3490 C 0.73403 0.04778 0.97249 0.0
C3491 C 0.73426 0.0564 0.98722 0.0
C3492 C 0.75161 0.0708 0.9918 0.0
C3493 C 0.753 0.0879 0.99126 0.0
C3494 C 0.75711 0.06849 0.00917 0.0
C3495 C 0.76111 0.06862 0.9776 0.0
C3496 C 0.75073 0.05528 0.96659 0.0
C3497 C 0.75674 0.05007 0.9532 0.0
C3498 C 0.77385 0.05867 0.95104 0.0
C3499 C 0.78473 0.07251 0.9621 0.0
C3500 C 0.77817 0.07754 0.97545 0.0
H3501 H 0.66093 0.95884 0.01891 0.0
H3502 H 0.67843 0.99613 0.0608 0.0
H3503 H 0.69023 0.98181 0.07472 0.0
H3504 H 0.65134 0.92232 0.04485 0.0
H3505 H 0.65828 0.91348 0.0287 0.0
H3506 H 0.64942 0.92544 0.02286 0.0
H3507 H 0.67565 0.94525 0.00612 0.0
H3508 H 0.68462 0.93345 0.01199 0.0
H3509 H 0.69549 0.95587 0.01676 0.0
H3510 H 0.70334 0.96604 0.0823 0.0
H3511 H 0.71554 0.94873 0.08382 0.0
H3512 H 0.68852 0.92046 0.03801 0.0
C3513 C 0.66688 0.96373 0.0312 0.0
C3514 C 0.66874 0.97862 0.03874 0.0
C3515 C 0.67684 0.98477 0.05473 0.0
C3516 C 0.68357 0.9767 0.06279 0.0
C3517 C 0.68196 0.96236 0.05483 0.0
C3518 C 0.67364 0.95577 0.0395 0.0
C3519 C 0.67459 0.94079 0.03323 0.0
C3520 C 0.65738 0.92454 0.03236 0.0
C3521 C 0.6831 0.94405 0.01601 0.0
C3522 C 0.68518 0.9404 0.04714 0.0
C3523 C 0.68923 0.95291 0.0595 0.0
C3524 C 0.69998 0.95595 0.07289 0.0
C3525 C 0.70689 0.94603 0.07362 0.0
C3526 C 0.70293 0.93309 0.06106 0.0
C3527 C 0.69168 0.93014 0.04786 0.0
H3528 H 0.04899 0.72148 0.01354 0.0
H3529 H 0.01398 0.69566 0.05329 0.0
H3530 H 0.02361 0.72296 0.06838 0.0
H3531 H 0.08214 0.75505 0.04144 0.0
H3532 H 0.08804 0.77089 0.02607 0.0
H3533 H 0.07953 0.74917 0.01916 0.0
H3534 H 0.05693 0.74966 0.00184 0.0
H3535 H 0.0653 0.77131 0.00876 0.0
H3536 H 0.04396 0.75569 0.01235 0.0
H3537 H 0.03459 0.75305 0.07745 0.0
H3538 H 0.04743 0.78391 0.08068 0.0
H3539 H 0.07617 0.79032 0.03585 0.0
C3540 C 0.04357 0.72153 0.02557 0.0
C3541 C 0.03072 0.7064 0.0322 0.0
C3542 C 0.02385 0.70706 0.04793 0.0
C3543 C 0.02924 0.72251 0.05663 0.0
C3544 C 0.04165 0.73722 0.04956 0.0
C3545 C 0.04887 0.73687 0.03449 0.0
C3546 C 0.06139 0.75456 0.02924 0.0
C3547 C 0.07881 0.75759 0.02896 0.0
C3548 C 0.0566 0.758 0.01203 0.0
C3549 C 0.05977 0.76487 0.04348 0.0
C3550 C 0.04835 0.75463 0.0551 0.0
C3551 C 0.04385 0.76123 0.06867 0.0
C3552 C 0.05123 0.77879 0.07041 0.0
C3553 C 0.06314 0.78954 0.05875 0.0
C3554 C 0.06743 0.78241 0.04518 0.0
H3555 H 0.30489 0.36931 0.03521 0.0
H3556 H 0.29972 0.32438 0.01058 0.0
H3557 H 0.27102 0.30752 0.02004 0.0
H3558 H 0.28083 0.3496 0.07145 0.0
H3559 H 0.2714 0.3619 0.07238 0.0
H3560 H 0.2916 0.3706 0.06361 0.0
H3561 H 0.28144 0.3761 0.03576 0.0
H3562 H 0.26125 0.36754 0.0445 0.0
H3563 H 0.26363 0.35891 0.02469 0.0
H3564 H 0.24316 0.29527 0.033 0.0
H3565 H 0.2174 0.289 0.04693 0.0
H3566 H 0.24036 0.34196 0.06218 0.0
C3567 C 0.2977 0.35595 0.03176 0.0
C3568 C 0.30457 0.34818 0.02217 0.0
C3569 C 0.29472 0.33065 0.01785 0.0
C3570 C 0.27841 0.32093 0.02322 0.0
C3571 C 0.27206 0.32893 0.03278 0.0
C3572 C 0.28132 0.34606 0.03686 0.0
C3573 C 0.27142 0.35159 0.04703 0.0
C3574 C 0.27928 0.35885 0.06466 0.0
C3575 C 0.26931 0.36428 0.03742 0.0
C3576 C 0.25522 0.33487 0.04813 0.0
C3577 C 0.25587 0.32193 0.03991 0.0
C3578 C 0.24246 0.30531 0.0394 0.0
C3579 C 0.22792 0.30186 0.04734 0.0
C3580 C 0.22691 0.31499 0.05558 0.0
C3581 C 0.24079 0.33167 0.05599 0.0
H3582 H 0.71519 0.69128 0.36827 0.0
H3583 H 0.67345 0.63964 0.36431 0.0
H3584 H 0.69059 0.62972 0.37555 0.0
H3585 H 0.74639 0.68417 0.35572 0.0
H3586 H 0.76164 0.70055 0.36998 0.0
H3587 H 0.74502 0.70212 0.36186 0.0
H3588 H 0.7367 0.70509 0.39226 0.0
H3589 H 0.75325 0.70355 0.4007 0.0
H3590 H 0.73237 0.68921 0.4071 0.0
H3591 H 0.71222 0.62022 0.38553 0.0
H3592 H 0.74106 0.62182 0.39937 0.0
H3593 H 0.77153 0.68684 0.39776 0.0
C3594 C 0.70976 0.67791 0.36986 0.0
C3595 C 0.69305 0.66622 0.36542 0.0
C3596 C 0.68622 0.64883 0.36766 0.0
C3597 C 0.69587 0.64306 0.37399 0.0
C3598 C 0.7123 0.65478 0.37818 0.0
C3599 C 0.71945 0.67222 0.37634 0.0
C3600 C 0.73782 0.68378 0.38155 0.0
C3601 C 0.74833 0.69321 0.36638 0.0
C3602 C 0.74017 0.69613 0.39627 0.0
C3603 C 0.74198 0.67142 0.38718 0.0
C3604 C 0.72417 0.6514 0.38472 0.0
C3605 C 0.72348 0.63228 0.38813 0.0
C3606 C 0.74152 0.63309 0.39582 0.0
C3607 C 0.75866 0.65483 0.40296 0.0
C3608 C 0.76091 0.67438 0.39477 0.0
H3609 H 0.31236 0.02805 0.37246 0.0
H3610 H 0.35387 0.02148 0.36867 0.0
H3611 H 0.37248 0.05079 0.37958 0.0
H3612 H 0.33336 0.07027 0.35916 0.0
H3613 H 0.32312 0.07697 0.37364 0.0
H3614 H 0.31289 0.05523 0.36616 0.0
H3615 H 0.30871 0.04587 0.39711 0.0
H3616 H 0.31895 0.06761 0.40469 0.0
H3617 H 0.32632 0.05453 0.41126 0.0
H3618 H 0.38679 0.08105 0.38987 0.0
H3619 H 0.39573 0.11028 0.39919 0.0
H3620 H 0.34504 0.09723 0.39627 0.0
C3621 C 0.32535 0.03273 0.37401 0.0
C3622 C 0.33164 0.02244 0.36971 0.0
C3623 C 0.34873 0.02909 0.3719 0.0
C3624 C 0.35942 0.04573 0.3781 0.0
C3625 C 0.35284 0.05556 0.38212 0.0
C3626 C 0.3362 0.04932 0.38022 0.0
C3627 C 0.33236 0.06265 0.3852 0.0
C3628 C 0.325 0.06651 0.37014 0.0
C3629 C 0.32091 0.05734 0.40047 0.0
C3630 C 0.34947 0.0774 0.38995 0.0
C3631 C 0.36109 0.07301 0.38818 0.0
C3632 C 0.37779 0.0846 0.39149 0.0
C3633 C 0.38275 0.10113 0.39679 0.0
C3634 C 0.37105 0.10589 0.39881 0.0
C3635 C 0.35421 0.09385 0.39519 0.0
H3636 H 0.96275 0.32213 0.35072 0.0
H3637 H 0.99333 0.30584 0.37224 0.0
H3638 H 0.96934 0.28397 0.38747 0.0
H3639 H 0.93839 0.31635 0.38778 0.0
H3640 H 0.91962 0.30887 0.37582 0.0
H3641 H 0.93923 0.32333 0.3667 0.0
H3642 H 0.93207 0.30234 0.341 0.0
H3643 H 0.91244 0.2878 0.35004 0.0
H3644 H 0.92636 0.281 0.34452 0.0
H3645 H 0.94167 0.26291 0.39921 0.0
H3646 H 0.9127 0.24524 0.40781 0.0
H3647 H 0.90049 0.27609 0.37971 0.0
C3648 C 0.96444 0.31402 0.35868 0.0
C3649 C 0.97993 0.31571 0.36027 0.0
C3650 C 0.98159 0.30482 0.37083 0.0
C3651 C 0.96804 0.29233 0.37952 0.0
C3652 C 0.95292 0.29095 0.3776 0.0
C3653 C 0.95107 0.30156 0.36752 0.0
C3654 C 0.93348 0.29739 0.36758 0.0
C3655 C 0.93264 0.31238 0.37491 0.0
C3656 C 0.92563 0.2918 0.34973 0.0
C3657 C 0.92575 0.28281 0.37928 0.0
C3658 C 0.93713 0.2792 0.38482 0.0
C3659 C 0.9327 0.26578 0.39517 0.0
C3660 C 0.91621 0.25585 0.40004 0.0
C3661 C 0.9044 0.25958 0.39482 0.0
C3662 C 0.90933 0.2732 0.38421 0.0
H3663 H 0.01371 0.38142 0.32203 0.0
H3664 H 0.05821 0.39473 0.29472 0.0
H3665 H 0.05802 0.41841 0.28244 0.0
H3666 H 0.99433 0.39165 0.28922 0.0
H3667 H 0.98594 0.40009 0.30414 0.0
H3668 H 0.98913 0.38368 0.31017 0.0
H3669 H 0.00707 0.40254 0.33586 0.0
H3670 H 0.00396 0.419 0.32989 0.0
H3671 H 0.02457 0.42337 0.33245 0.0
H3672 H 0.05409 0.44179 0.27467 0.0
H3673 H 0.046 0.4625 0.27104 0.0
H3674 H 0.0037 0.4336 0.30275 0.0
C3675 C 0.02333 0.3892 0.31333 0.0
C3676 C 0.03598 0.3862 0.30933 0.0
C3677 C 0.04839 0.39676 0.29798 0.0
C3678 C 0.04839 0.41025 0.29093 0.0
C3679 C 0.03586 0.41298 0.29529 0.0
C3680 C 0.02351 0.40271 0.30616 0.0
C3681 C 0.01175 0.40868 0.30917 0.0
C3682 C 0.99425 0.39522 0.30279 0.0
C3683 C 0.01185 0.4137 0.32796 0.0
C3684 C 0.01948 0.42396 0.29837 0.0
C3685 C 0.03339 0.42624 0.2905 0.0
C3686 C 0.04305 0.43997 0.28052 0.0
C3687 C 0.03832 0.45164 0.27849 0.0
C3688 C 0.02391 0.44937 0.28619 0.0
C3689 C 0.0145 0.43538 0.29635 0.0
H3690 H 0.64492 0.64314 0.31696 0.0
H3691 H 0.61122 0.66083 0.31738 0.0
H3692 H 0.58921 0.63314 0.30522 0.0
H3693 H 0.62973 0.61754 0.27761 0.0
H3694 H 0.63225 0.60118 0.2853 0.0
H3695 H 0.6456 0.6227 0.29315 0.0
H3696 H 0.63743 0.6133 0.32387 0.0
H3697 H 0.62404 0.59177 0.31612 0.0
H3698 H 0.61597 0.60177 0.32935 0.0
H3699 H 0.57042 0.60303 0.29475 0.0
H3700 H 0.55637 0.57279 0.286 0.0
H3701 H 0.60239 0.57488 0.29207 0.0
C3702 C 0.63297 0.64128 0.31431 0.0
C3703 C 0.6298 0.65417 0.31809 0.0
C3704 C 0.61395 0.65115 0.31459 0.0
C3705 C 0.60137 0.63547 0.30766 0.0
C3706 C 0.60485 0.62298 0.30429 0.0
C3707 C 0.62028 0.62572 0.30744 0.0
C3708 C 0.62065 0.61001 0.30324 0.0
C3709 C 0.63277 0.61305 0.28897 0.0
C3710 C 0.62476 0.60385 0.31909 0.0
C3711 C 0.60298 0.59795 0.29736 0.0
C3712 C 0.59408 0.60569 0.29803 0.0
C3713 C 0.57732 0.5969 0.2939 0.0
C3714 C 0.56947 0.57976 0.28889 0.0
C3715 C 0.57842 0.57163 0.28787 0.0
C3716 C 0.59536 0.58089 0.2923 0.0
H3717 H 0.34986 0.96017 0.32393 0.0
H3718 H 0.36051 0.00737 0.30389 0.0
H3719 H 0.38543 0.01096 0.2905 0.0
H3720 H 0.39063 0.97326 0.33424 0.0
H3721 H 0.38857 0.95345 0.32819 0.0
H3722 H 0.37083 0.95382 0.33509 0.0
H3723 H 0.35528 0.93807 0.30714 0.0
H3724 H 0.37295 0.93755 0.30019 0.0
H3725 H 0.36451 0.94662 0.28719 0.0
H3726 H 0.41029 0.01059 0.28122 0.0
H3727 H 0.43295 0.00578 0.27597 0.0
H3728 H 0.40548 0.95837 0.30123 0.0
C3729 C 0.3573 0.97114 0.31653 0.0
C3730 C 0.35322 0.98348 0.31496 0.0
C3731 C 0.36334 0.99771 0.30524 0.0
C3732 C 0.37753 0.99987 0.29757 0.0
C3733 C 0.38135 0.98763 0.29961 0.0
C3734 C 0.37145 0.97345 0.3087 0.0
C3735 C 0.37864 0.96248 0.30944 0.0
C3736 C 0.38239 0.96065 0.32783 0.0
C3737 C 0.36716 0.94516 0.30045 0.0
C3738 C 0.39433 0.97292 0.29971 0.0
C3739 C 0.39563 0.98734 0.2941 0.0
C3740 C 0.40936 0.99928 0.28545 0.0
C3741 C 0.42218 0.99648 0.28259 0.0
C3742 C 0.42128 0.98193 0.28844 0.0
C3743 C 0.40689 0.9698 0.29677 0.0
H3744 H 0.62088 0.96813 0.32047 0.0
H3745 H 0.6615 0.01564 0.30338 0.0
H3746 H 0.64238 0.01861 0.28547 0.0
H3747 H 0.59982 0.95159 0.28257 0.0
H3748 H 0.57961 0.94133 0.29166 0.0
H3749 H 0.59699 0.94501 0.30406 0.0
H3750 H 0.59119 0.96131 0.32721 0.0
H3751 H 0.57353 0.95751 0.31518 0.0
H3752 H 0.58949 0.97878 0.32162 0.0
H3753 H 0.6205 0.01796 0.26257 0.0
H3754 H 0.59034 0.00808 0.24409 0.0
H3755 H 0.56067 0.95543 0.28028 0.0
C3756 C 0.62559 0.97922 0.31309 0.0
C3757 C 0.64261 0.99164 0.31327 0.0
C3758 C 0.6485 0.00596 0.30342 0.0
C3759 C 0.63774 0.00777 0.29322 0.0
C3760 C 0.62109 0.99523 0.29296 0.0
C3761 C 0.61475 0.9809 0.30277 0.0
C3762 C 0.59612 0.96763 0.30061 0.0
C3763 C 0.59297 0.95038 0.29436 0.0
C3764 C 0.58705 0.96623 0.31713 0.0
C3765 C 0.59103 0.97493 0.28733 0.0
C3766 C 0.6084 0.99424 0.28249 0.0
C3767 C 0.60901 0.00666 0.26563 0.0
C3768 C 0.59065 0.00014 0.25343 0.0
C3769 C 0.57148 0.98213 0.2624 0.0
C3770 C 0.57179 0.96668 0.27637 0.0
H3771 H 0.021 0.66612 0.29434 0.0
H3772 H 0.99837 0.64346 0.34157 0.0
H3773 H 0.98679 0.61513 0.32796 0.0
H3774 H 0.98786 0.63816 0.26856 0.0
H3775 H 0.99967 0.63723 0.2512 0.0
H3776 H 0.00848 0.65573 0.26519 0.0
H3777 H 0.03333 0.65284 0.27159 0.0
H3778 H 0.02462 0.63434 0.25752 0.0
H3779 H 0.02974 0.63328 0.27913 0.0
H3780 H 0.9746 0.58957 0.30859 0.0
H3781 H 0.96293 0.56843 0.28475 0.0
H3782 H 0.99342 0.60732 0.24995 0.0
C3783 C 0.01403 0.6552 0.30193 0.0
C3784 C 0.01068 0.65698 0.31904 0.0
C3785 C 0.00113 0.64238 0.32845 0.0
C3786 C 0.99455 0.62623 0.32085 0.0
C3787 C 0.99767 0.62487 0.30383 0.0
C3788 C 0.00726 0.63894 0.29449 0.0
C3789 C 0.00739 0.63398 0.27603 0.0
C3790 C 0.00043 0.64173 0.26458 0.0
C3791 C 0.02481 0.6389 0.27076 0.0
C3792 C 0.99594 0.61498 0.27639 0.0
C3793 C 0.99065 0.60998 0.29259 0.0
C3794 C 0.97898 0.59325 0.29591 0.0
C3795 C 0.97244 0.58132 0.28229 0.0
C3796 C 0.97766 0.58616 0.26556 0.0
C3797 C 0.98963 0.60321 0.26267 0.0
H3798 H 0.35138 0.35758 0.31297 0.0
H3799 H 0.36833 0.3885 0.35967 0.0
H3800 H 0.39678 0.40376 0.34909 0.0
H3801 H 0.38479 0.35251 0.30857 0.0
H3802 H 0.38562 0.35351 0.28586 0.0
H3803 H 0.36639 0.34611 0.29636 0.0
H3804 H 0.36331 0.36884 0.28235 0.0
H3805 H 0.38248 0.37622 0.27165 0.0
H3806 H 0.37972 0.39073 0.28472 0.0
H3807 H 0.42376 0.41369 0.3345 0.0
H3808 H 0.44689 0.41856 0.31638 0.0
H3809 H 0.41205 0.38178 0.27894 0.0
C3810 C 0.36101 0.36775 0.32088 0.0
C3811 C 0.35761 0.37184 0.33716 0.0
C3812 C 0.3706 0.38518 0.34713 0.0
C3813 C 0.38682 0.3939 0.34124 0.0
C3814 C 0.38979 0.38924 0.3253 0.0
C3815 C 0.37721 0.37661 0.31519 0.0
C3816 C 0.38372 0.37352 0.29886 0.0
C3817 C 0.3799 0.35534 0.29734 0.0
C3818 C 0.3769 0.37758 0.28349 0.0
C3819 C 0.40198 0.38617 0.30151 0.0
C3820 C 0.40526 0.39512 0.31682 0.0
C3821 C 0.42133 0.40689 0.3224 0.0
C3822 C 0.43438 0.40952 0.31206 0.0
C3823 C 0.43128 0.40044 0.29632 0.0
C3824 C 0.41482 0.38881 0.29095 0.0
H3825 H 0.31655 0.28711 0.36035 0.0
H3826 H 0.34344 0.33065 0.39532 0.0
H3827 H 0.35664 0.31734 0.40843 0.0
H3828 H 0.30959 0.25559 0.39064 0.0
H3829 H 0.31229 0.2426 0.37519 0.0
H3830 H 0.30443 0.25526 0.3687 0.0
H3831 H 0.32781 0.26945 0.34697 0.0
H3832 H 0.33576 0.25687 0.35343 0.0
H3833 H 0.34896 0.27955 0.35409 0.0
H3834 H 0.36851 0.30059 0.41648 0.0
H3835 H 0.37705 0.28036 0.42023 0.0
H3836 H 0.34158 0.2467 0.38136 0.0
C3837 C 0.3251 0.29376 0.37086 0.0
C3838 C 0.32893 0.30994 0.37678 0.0
C3839 C 0.34023 0.31824 0.39054 0.0
C3840 C 0.34784 0.3108 0.3981 0.0
C3841 C 0.34394 0.29497 0.39188 0.0
C3842 C 0.33274 0.28643 0.37869 0.0
C3843 C 0.33094 0.26959 0.37441 0.0
C3844 C 0.31326 0.25489 0.37742 0.0
C3845 C 0.33618 0.26883 0.35614 0.0
C3846 C 0.343 0.27014 0.38713 0.0
C3847 C 0.35041 0.28494 0.39701 0.0
C3848 C 0.3626 0.28879 0.40905 0.0
C3849 C 0.36733 0.27716 0.41111 0.0
C3850 C 0.35967 0.26169 0.40137 0.0
C3851 C 0.34738 0.25824 0.38922 0.0
H3852 H 0.69423 0.02054 0.3765 0.0
H3853 H 0.72379 0.03293 0.33134 0.0
H3854 H 0.73877 0.06307 0.34046 0.0
H3855 H 0.68937 0.05496 0.37725 0.0
H3856 H 0.69096 0.05844 0.39992 0.0
H3857 H 0.68349 0.03764 0.39074 0.0
H3858 H 0.70611 0.03632 0.40705 0.0
H3859 H 0.71354 0.05705 0.41647 0.0
H3860 H 0.72742 0.05291 0.40501 0.0
H3861 H 0.74867 0.09204 0.35305 0.0
H3862 H 0.75412 0.11767 0.36934 0.0
H3863 H 0.71896 0.08636 0.40681 0.0
C3864 C 0.70405 0.02954 0.36867 0.0
C3865 C 0.70782 0.02435 0.35319 0.0
C3866 C 0.7207 0.03657 0.34328 0.0
C3867 C 0.72928 0.05374 0.34833 0.0
C3868 C 0.72495 0.05847 0.36343 0.0
C3869 C 0.71282 0.04672 0.37359 0.0
C3870 C 0.7102 0.05519 0.38894 0.0
C3871 C 0.69245 0.05133 0.38921 0.0
C3872 C 0.71458 0.05006 0.40533 0.0
C3873 C 0.72247 0.07354 0.3856 0.0
C3874 C 0.73086 0.07517 0.37083 0.0
C3875 C 0.74229 0.09092 0.36473 0.0
C3876 C 0.74525 0.10539 0.37401 0.0
C3877 C 0.7368 0.10402 0.38921 0.0
C3878 C 0.72544 0.08783 0.39513 0.0
H3879 H 0.95791 0.68307 0.36509 0.0
H3880 H 0.96605 0.6468 0.38823 0.0
H3881 H 0.93751 0.63157 0.39827 0.0
H3882 H 0.93128 0.68383 0.39815 0.0
H3883 H 0.91811 0.68555 0.3833 0.0
H3884 H 0.93952 0.69422 0.37862 0.0
H3885 H 0.9311 0.67643 0.35033 0.0
H3886 H 0.9097 0.66773 0.3549 0.0
H3887 H 0.9171 0.65387 0.35053 0.0
H3888 H 0.90758 0.61894 0.40384 0.0
H3889 H 0.87841 0.61032 0.4054 0.0
H3890 H 0.88971 0.65522 0.37975 0.0
C3891 C 0.95374 0.67203 0.37241 0.0
C3892 C 0.96425 0.66615 0.37587 0.0
C3893 C 0.95828 0.65159 0.38543 0.0
C3894 C 0.94207 0.64284 0.39122 0.0
C3895 C 0.93199 0.64886 0.38748 0.0
C3896 C 0.93759 0.66317 0.3784 0.0
C3897 C 0.92404 0.66665 0.37571 0.0
C3898 C 0.92851 0.68357 0.38447 0.0
C3899 C 0.92026 0.66613 0.35674 0.0
C3900 C 0.90991 0.65189 0.38442 0.0
C3901 C 0.91477 0.64181 0.39116 0.0
C3902 C 0.90368 0.62691 0.39894 0.0
C3903 C 0.88714 0.62214 0.39982 0.0
C3904 C 0.88188 0.63238 0.39315 0.0
C3905 C 0.89349 0.64743 0.38538 0.0
H3906 H 0.39013 0.03445 0.70518 0.0
H3907 H 0.34405 0.99393 0.72447 0.0
H3908 H 0.35869 0.99305 0.74941 0.0
H3909 H 0.4166 0.02012 0.71895 0.0
H3910 H 0.43375 0.04144 0.72297 0.0
H3911 H 0.41862 0.03694 0.70678 0.0
H3912 H 0.41359 0.05908 0.72097 0.0
H3913 H 0.42848 0.0636 0.7374 0.0
H3914 H 0.40772 0.05728 0.74283 0.0
H3915 H 0.37546 0.99717 0.7789 0.0
H3916 H 0.40169 0.00858 0.80397 0.0
H3917 H 0.44164 0.05039 0.76061 0.0
C3918 C 0.38327 0.02534 0.71465 0.0
C3919 C 0.36599 0.01427 0.71293 0.0
C3920 C 0.35729 0.00251 0.72549 0.0
C3921 C 0.36549 0.00189 0.73971 0.0
C3922 C 0.38245 0.01298 0.74123 0.0
C3923 C 0.39159 0.02474 0.7289 0.0
C3924 C 0.41026 0.03667 0.73265 0.0
C3925 C 0.4204 0.03361 0.71956 0.0
C3926 C 0.4153 0.05525 0.73351 0.0
C3927 C 0.41218 0.0315 0.7497 0.0
C3928 C 0.39279 0.01491 0.75529 0.0
C3929 C 0.38803 0.00662 0.77592 0.0
C3930 C 0.40396 0.01441 0.79191 0.0
C3931 C 0.42524 0.02851 0.78381 0.0
C3932 C 0.42938 0.04067 0.76421 0.0
H3933 H 0.00699 0.38235 0.68857 0.0
H3934 H 0.97993 0.34031 0.72134 0.0
H3935 H 0.9688 0.35559 0.73649 0.0
H3936 H 0.01658 0.4162 0.72059 0.0
H3937 H 0.01373 0.42852 0.70569 0.0
H3938 H 0.02087 0.41501 0.69853 0.0
H3939 H 0.99668 0.39994 0.67669 0.0
H3940 H 0.98947 0.41337 0.68377 0.0
H3941 H 0.97583 0.39076 0.68385 0.0
H3942 H 0.95866 0.37427 0.74637 0.0
H3943 H 0.95032 0.39504 0.7502 0.0
H3944 H 0.98406 0.42489 0.71115 0.0
C3945 C 0.99896 0.37646 0.69913 0.0
C3946 C 0.9944 0.36015 0.70381 0.0
C3947 C 0.98365 0.35281 0.71754 0.0
C3948 C 0.97729 0.36141 0.72626 0.0
C3949 C 0.98184 0.37736 0.72115 0.0
C3950 C 0.99247 0.38484 0.70793 0.0
C3951 C 0.99457 0.40161 0.70423 0.0
C3952 C 0.01251 0.4162 0.70746 0.0
C3953 C 0.98879 0.40139 0.68606 0.0
C3954 C 0.98319 0.40222 0.71718 0.0
C3955 C 0.97607 0.38819 0.72692 0.0
C3956 C 0.96439 0.38547 0.73905 0.0
C3957 C 0.95977 0.39734 0.74118 0.0
C3958 C 0.96689 0.41179 0.73129 0.0
C3959 C 0.97878 0.41421 0.7192 0.0
H3960 H 0.62747 0.63351 0.67907 0.0
H3961 H 0.66027 0.6481 0.72274 0.0
H3962 H 0.63672 0.62855 0.74002 0.0
H3963 H 0.59308 0.63014 0.70209 0.0
H3964 H 0.57777 0.61223 0.68928 0.0
H3965 H 0.59722 0.62741 0.68032 0.0
H3966 H 0.60215 0.60345 0.6717 0.0
H3967 H 0.58274 0.58821 0.68065 0.0
H3968 H 0.60143 0.58984 0.68759 0.0
H3969 H 0.60993 0.60629 0.75211 0.0
H3970 H 0.58153 0.58416 0.75872 0.0
H3971 H 0.5657 0.58544 0.70775 0.0
C3972 C 0.62969 0.63261 0.69227 0.0
C3973 C 0.64571 0.64229 0.69955 0.0
C3974 C 0.6481 0.64084 0.7169 0.0
C3975 C 0.63481 0.62975 0.72682 0.0
C3976 C 0.61919 0.62034 0.71925 0.0
C3977 C 0.61653 0.62177 0.70242 0.0
C3978 C 0.59849 0.61033 0.69744 0.0
C3979 C 0.59122 0.62065 0.69196 0.0
C3980 C 0.59607 0.59718 0.68352 0.0
C3981 C 0.59146 0.60214 0.71405 0.0
C3982 C 0.60362 0.60799 0.72642 0.0
C3983 C 0.60025 0.60173 0.74258 0.0
C3984 C 0.58401 0.58913 0.7462 0.0
C3985 C 0.57124 0.58303 0.73375 0.0
C3986 C 0.57514 0.58983 0.71754 0.0
H3987 H 0.659 0.69019 0.64018 0.0
H3988 H 0.70143 0.72997 0.66881 0.0
H3989 H 0.69498 0.75074 0.65945 0.0
H3990 H 0.66138 0.71483 0.6047 0.0
H3991 H 0.63933 0.70479 0.60288 0.0
H3992 H 0.64801 0.69336 0.61082 0.0
H3993 H 0.63088 0.68741 0.63802 0.0
H3994 H 0.62215 0.69881 0.63016 0.0
H3995 H 0.63256 0.70483 0.6505 0.0
H3996 H 0.68323 0.76693 0.6478 0.0
H3997 H 0.66656 0.77711 0.63553 0.0
H3998 H 0.63141 0.7265 0.61536 0.0
C3999 C 0.6671 0.70332 0.64428 0.0
C4000 C 0.68082 0.70851 0.6551 0.0
C4001 C 0.69089 0.72574 0.66048 0.0
C4002 C 0.68735 0.73762 0.65519 0.0
C4003 C 0.67363 0.73203 0.64465 0.0
C4004 C 0.66362 0.71527 0.63931 0.0
C4005 C 0.64907 0.71233 0.62885 0.0
C4006 C 0.64948 0.70596 0.61073 0.0
C4007 C 0.6327 0.70013 0.6374 0.0
C4008 C 0.65242 0.73005 0.62914 0.0
C4009 C 0.6667 0.74127 0.63821 0.0
C4010 C 0.6721 0.75829 0.64056 0.0
C4011 C 0.66259 0.76396 0.63353 0.0
C4012 C 0.64785 0.75264 0.62428 0.0
C4013 C 0.64276 0.73548 0.62212 0.0
H4014 H 0.29163 0.96533 0.65974 0.0
H4015 H 0.33841 0.98345 0.63504 0.0
H4016 H 0.32679 0.95571 0.61998 0.0
H4017 H 0.28255 0.92396 0.66621 0.0
H4018 H 0.26072 0.91383 0.6622 0.0
H4019 H 0.27245 0.93535 0.67045 0.0
H4020 H 0.26229 0.94465 0.64536 0.0
H4021 H 0.2505 0.92314 0.63704 0.0
H4022 H 0.26539 0.93957 0.62399 0.0
H4023 H 0.31053 0.92564 0.60864 0.0
H4024 H 0.29054 0.89542 0.60147 0.0
H4025 H 0.25435 0.89704 0.63331 0.0
C4026 C 0.29941 0.96353 0.65107 0.0
C4027 C 0.31593 0.97658 0.64856 0.0
C4028 C 0.32571 0.97366 0.63716 0.0
C4029 C 0.31922 0.95794 0.62853 0.0
C4030 C 0.30294 0.94532 0.63141 0.0
C4031 C 0.29314 0.94794 0.64235 0.0
C4032 C 0.27616 0.93214 0.64352 0.0
C4033 C 0.27278 0.92596 0.66167 0.0
C4034 C 0.2628 0.93505 0.63709 0.0
C4035 C 0.27799 0.92018 0.63163 0.0
C4036 C 0.29352 0.92803 0.62475 0.0
C4037 C 0.29828 0.91939 0.61381 0.0
C4038 C 0.28686 0.90226 0.6098 0.0
C4039 C 0.27085 0.89399 0.61664 0.0
C4040 C 0.26643 0.90313 0.62771 0.0
H4041 H 0.05125 0.33914 0.6651 0.0
H4042 H 0.03056 0.36052 0.63361 0.0
H4043 H 0.05715 0.37712 0.61942 0.0
H4044 H 0.09168 0.37645 0.67048 0.0
H4045 H 0.10226 0.3653 0.6692 0.0
H4046 H 0.08157 0.355 0.677 0.0
H4047 H 0.07222 0.33068 0.65434 0.0
H4048 H 0.09289 0.34091 0.64647 0.0
H4049 H 0.07593 0.33549 0.63233 0.0
H4050 H 0.08597 0.39199 0.60916 0.0
H4051 H 0.11531 0.40379 0.60296 0.0
H4052 H 0.11722 0.37191 0.63997 0.0
C4053 C 0.05234 0.34734 0.65524 0.0
C4054 C 0.03883 0.34856 0.65049 0.0
C4055 C 0.04071 0.35933 0.63744 0.0
C4056 C 0.05577 0.36884 0.62931 0.0
C4057 C 0.06882 0.36733 0.63424 0.0
C4058 C 0.06728 0.3568 0.64682 0.0
C4059 C 0.08326 0.35744 0.64952 0.0
C4060 C 0.09009 0.36394 0.66763 0.0
C4061 C 0.08093 0.3401 0.64541 0.0
C4062 C 0.09403 0.37011 0.63663 0.0
C4063 C 0.08545 0.37567 0.628 0.0
C4064 C 0.09283 0.3877 0.61578 0.0
C4065 C 0.10948 0.39432 0.61235 0.0
C4066 C 0.11859 0.38888 0.62106 0.0
C4067 C 0.11062 0.37642 0.6332 0.0
H4068 H 0.29311 0.34011 0.66164 0.0
H4069 H 0.32705 0.3524 0.62021 0.0
H4070 H 0.31659 0.36868 0.60764 0.0
H4071 H 0.25884 0.33734 0.63659 0.0
H4072 H 0.25369 0.3469 0.65375 0.0
H4073 H 0.26217 0.33425 0.65819 0.0
H4074 H 0.28552 0.35925 0.67626 0.0
H4075 H 0.2772 0.37197 0.67181 0.0
H4076 H 0.29833 0.37938 0.66691 0.0
H4077 H 0.30545 0.38693 0.60187 0.0
H4078 H 0.29349 0.40467 0.60268 0.0
H4079 H 0.26617 0.37985 0.64727 0.0
C4080 C 0.29804 0.34583 0.64969 0.0
C4081 C 0.31088 0.34493 0.64189 0.0
C4082 C 0.31718 0.35286 0.6264 0.0
C4083 C 0.3113 0.36212 0.61914 0.0
C4084 C 0.299 0.3632 0.62742 0.0
C4085 C 0.2923 0.35511 0.64226 0.0
C4086 C 0.28015 0.35934 0.64935 0.0
C4087 C 0.26267 0.34351 0.64947 0.0
C4088 C 0.28564 0.368 0.66713 0.0
C4089 C 0.28144 0.37148 0.63648 0.0
C4090 C 0.29228 0.37345 0.62385 0.0
C4091 C 0.2966 0.38516 0.61142 0.0
C4092 C 0.28972 0.39517 0.61197 0.0
C4093 C 0.27852 0.39328 0.62477 0.0
C4094 C 0.27429 0.38117 0.63706 0.0
H4095 H 0.68432 0.96875 0.66404 0.0
H4096 H 0.66682 0.98992 0.62823 0.0
H4097 H 0.64813 0.96148 0.61513 0.0
H4098 H 0.68137 0.93492 0.63482 0.0
H4099 H 0.6745 0.92015 0.65144 0.0
H4100 H 0.68818 0.94242 0.65636 0.0
H4101 H 0.66742 0.94135 0.67824 0.0
H4102 H 0.65368 0.91916 0.67333 0.0
H4103 H 0.64647 0.93332 0.67156 0.0
H4104 H 0.62867 0.93042 0.60857 0.0
H4105 H 0.61076 0.8993 0.60847 0.0
H4106 H 0.64126 0.89848 0.64816 0.0
C4107 C 0.6769 0.9675 0.65316 0.0
C4108 C 0.67709 0.9816 0.64714 0.0
C4109 C 0.66694 0.97933 0.63304 0.0
C4110 C 0.65629 0.96322 0.62548 0.0
C4111 C 0.65604 0.94952 0.63207 0.0
C4112 C 0.6662 0.95152 0.64548 0.0
C4113 C 0.66262 0.93464 0.65108 0.0
C4114 C 0.67756 0.93294 0.64825 0.0
C4115 C 0.65722 0.93197 0.66965 0.0
C4116 C 0.64851 0.92281 0.63909 0.0
C4117 C 0.64498 0.93162 0.62811 0.0
C4118 C 0.63158 0.92339 0.61681 0.0
C4119 C 0.62149 0.90572 0.61682 0.0
C4120 C 0.62494 0.89648 0.62797 0.0
C4121 C 0.63867 0.90521 0.63915 0.0
H4122 H 0.02401 0.69049 0.64295 0.0
H4123 H 0.02638 0.73627 0.66066 0.0
H4124 H 0.05573 0.75305 0.65314 0.0
H4125 H 0.06241 0.70139 0.65899 0.0
H4126 H 0.06743 0.6921 0.64145 0.0
H4127 H 0.04621 0.68385 0.64652 0.0
H4128 H 0.04036 0.68848 0.61595 0.0
H4129 H 0.06158 0.69672 0.61076 0.0
H4130 H 0.05261 0.70912 0.60747 0.0
H4131 H 0.08533 0.7645 0.6464 0.0
H4132 H 0.11302 0.76982 0.64052 0.0
H4133 H 0.09132 0.71679 0.62645 0.0
C4134 C 0.0306 0.70408 0.64497 0.0
C4135 C 0.02287 0.71207 0.65237 0.0
C4136 C 0.03201 0.72986 0.65497 0.0
C4137 C 0.04869 0.73951 0.65071 0.0
C4138 C 0.05601 0.73121 0.64372 0.0
C4139 C 0.04724 0.71391 0.64075 0.0
C4140 C 0.05824 0.70797 0.63402 0.0
C4141 C 0.05859 0.6956 0.64596 0.0
C4142 C 0.05288 0.70011 0.61598 0.0
C4143 C 0.07466 0.72459 0.63412 0.0
C4144 C 0.07308 0.73785 0.63964 0.0
C4145 C 0.08669 0.75426 0.64182 0.0
C4146 C 0.10236 0.75716 0.63848 0.0
C4147 C 0.10429 0.74372 0.633 0.0
C4148 C 0.09018 0.7273 0.63051 0.0
H4149 H 0.97022 0.62406 0.68878 0.0
H4150 H 0.0156 0.66761 0.7094 0.0
H4151 H 0.02197 0.64872 0.72353 0.0
H4152 H 0.96026 0.5987 0.72562 0.0
H4153 H 0.95226 0.57919 0.71329 0.0
H4154 H 0.95104 0.59614 0.70503 0.0
H4155 H 0.96645 0.59553 0.67823 0.0
H4156 H 0.96774 0.5786 0.68642 0.0
H4157 H 0.98622 0.59773 0.68051 0.0
H4158 H 0.02428 0.62521 0.73401 0.0
H4159 H 0.0216 0.59857 0.74147 0.0
H4160 H 0.97423 0.57024 0.71513 0.0
C4161 C 0.98145 0.62963 0.69634 0.0
C4162 C 0.99242 0.64733 0.69796 0.0
C4163 C 0.00699 0.6541 0.70797 0.0
C4164 C 0.01073 0.64348 0.71605 0.0
C4165 C 0.99974 0.62611 0.71409 0.0
C4166 C 0.98534 0.61921 0.70458 0.0
C4167 C 0.97572 0.60011 0.70441 0.0
C4168 C 0.95882 0.59313 0.71258 0.0
C4169 C 0.97393 0.59255 0.68632 0.0
C4170 C 0.987 0.59737 0.71524 0.0
C4171 C 0.00083 0.61254 0.72062 0.0
C4172 C 0.01337 0.61325 0.73014 0.0
C4173 C 0.01171 0.59803 0.73437 0.0
C4174 C 0.99744 0.58231 0.72933 0.0
C4175 C 0.98504 0.58208 0.71952 0.0
H4176 H 0.38081 0.38839 0.68352 0.0
H4177 H 0.34258 0.36445 0.72084 0.0
H4178 H 0.35389 0.39195 0.73635 0.0
H4179 H 0.41386 0.41954 0.71325 0.0
H4180 H 0.4221 0.43571 0.69797 0.0
H4181 H 0.41215 0.41382 0.69098 0.0
H4182 H 0.39219 0.41705 0.6719 0.0
H4183 H 0.402 0.43887 0.67887 0.0
H4184 H 0.38009 0.42479 0.6812 0.0
H4185 H 0.36718 0.42262 0.74564 0.0
H4186 H 0.38224 0.45376 0.74868 0.0
H4187 H 0.41223 0.45742 0.70584 0.0
C4188 C 0.37501 0.38884 0.69514 0.0
C4189 C 0.36082 0.37425 0.70096 0.0
C4190 C 0.35351 0.37543 0.71616 0.0
C4191 C 0.35985 0.39101 0.72507 0.0
C4192 C 0.37361 0.40522 0.71873 0.0
C4193 C 0.38121 0.40423 0.70422 0.0
C4194 C 0.3952 0.42149 0.69946 0.0
C4195 C 0.41181 0.42271 0.70048 0.0
C4196 C 0.39218 0.4258 0.68182 0.0
C4197 C 0.39395 0.43242 0.71326 0.0
C4198 C 0.3815 0.42282 0.72433 0.0
C4199 C 0.37722 0.43024 0.73731 0.0
C4200 C 0.38585 0.44793 0.73896 0.0
C4201 C 0.39872 0.45797 0.72778 0.0
C4202 C 0.40279 0.45003 0.71485 0.0
H4203 H 0.65382 0.03603 0.69654 0.0
H4204 H 0.63526 0.98239 0.6946 0.0
H4205 H 0.60951 0.97675 0.70783 0.0
H4206 H 0.63704 0.0372 0.7371 0.0
H4207 H 0.63218 0.05248 0.73121 0.0
H4208 H 0.64912 0.05228 0.72148 0.0
H4209 H 0.63628 0.04934 0.69182 0.0
H4210 H 0.61929 0.04951 0.70145 0.0
H4211 H 0.61542 0.03223 0.68716 0.0
H4212 H 0.58527 0.97685 0.72013 0.0
H4213 H 0.56503 0.98287 0.73226 0.0
H4214 H 0.59997 0.03651 0.72744 0.0
C4215 C 0.64436 0.0231 0.69891 0.0
C4216 C 0.64655 0.00965 0.6945 0.0
C4217 C 0.63388 0.99291 0.69789 0.0
C4218 C 0.61919 0.98956 0.70537 0.0
C4219 C 0.61741 0.0031 0.70949 0.0
C4220 C 0.62969 0.01954 0.7065 0.0
C4221 C 0.62474 0.03182 0.71228 0.0
C4222 C 0.63647 0.04417 0.72636 0.0
C4223 C 0.62388 0.04128 0.69729 0.0
C4224 C 0.60777 0.01972 0.71899 0.0
C4225 C 0.6037 0.0032 0.71715 0.0
C4226 C 0.5884 0.98975 0.72188 0.0
C4227 C 0.57701 0.99331 0.72881 0.0
C4228 C 0.58111 0.01023 0.73123 0.0
C4229 C 0.59666 0.02351 0.72608 0.0
loop_
_geom_bond_atom_site_label_1
_geom_bond_atom_site_label_2
_geom_bond_distance
_geom_bond_site_symmetry_2
_ccdc_geom_bond_type
C0 O1 1.160 . S
C0 O7 1.185 . S
O1 C0 1.160 . S
O2 Zn3 1.899 1_656 S
O2 C10 1.284 . S
Zn3 O2 1.899 1_454 S
Zn3 O4 2.032 . S
Zn3 O7 2.086 . S
Zn3 O12 1.977 1_554 S
O4 Zn3 2.032 . S
O4 C8 1.278 1_455 S
C5 O6 1.203 1_455 S
C5 O12 1.267 . S
O6 C5 1.203 1_655 S
O7 C0 1.185 . S
O7 Zn3 2.086 . S
C8 O4 1.278 1_655 S
C8 O9 1.211 . S
O9 C8 1.211 . S
C10 O2 1.284 . S
C10 O11 1.273 1_556 S
O11 C10 1.273 1_554 S
O12 Zn3 1.977 1_556 S
O12 C5 1.267 . S
C13 O14 1.153 1_554 S
C13 O20 1.203 . S
O14 C13 1.153 1_556 S
O15 Zn16 1.899 . S
O15 C23 1.284 . S
Zn16 O15 1.899 . S
Zn16 O17 2.032 1_554 S
Zn16 O20 2.086 . S
Zn16 O25 1.977 . S
O17 Zn16 2.032 1_556 S
O17 C21 1.278 . S
C18 O19 1.203 . S
C18 O25 1.267 . S
O19 C18 1.203 . S
O20 C13 1.203 . S
O20 Zn16 2.086 . S
C21 O17 1.278 . S
C21 O22 1.211 1_556 S
O22 C21 1.211 1_554 S
C23 O15 1.284 . S
C23 O24 1.273 . S
O24 C23 1.273 . S
O25 Zn16 1.977 . S
O25 C18 1.267 . S
C26 O27 1.160 . S
C26 O33 1.185 1_556 S
O27 C26 1.160 . S
O28 Zn29 1.899 . S
O28 C36 1.284 1_545 S
Zn29 O28 1.899 . S
Zn29 O30 2.032 1_554 S
Zn29 O33 2.086 . S
Zn29 O38 1.977 . S
O30 Zn29 2.032 1_556 S
O30 C34 1.278 . S
C31 O32 1.203 . S
C31 O38 1.267 . S
O32 C31 1.203 . S
O33 C26 1.185 1_554 S
O33 Zn29 2.086 . S
C34 O30 1.278 . S
C34 O35 1.219 1_545 S
O35 C34 1.219 1_565 S
C36 O28 1.284 1_565 S
C36 O37 1.273 . S
O37 C36 1.273 . S
O38 Zn29 1.977 . S
O38 C31 1.267 . S
C39 O40 1.160 . S
C39 O46 1.185 1_556 S
O40 C39 1.160 . S
O41 Zn42 1.899 1_455 S
O41 C49 1.284 . S
Zn42 O41 1.899 1_655 S
Zn42 O43 2.032 1_654 S
Zn42 O46 2.086 . S
Zn42 O51 1.977 . S
O43 Zn42 2.032 1_456 S
O43 C47 1.278 . S
C44 O45 1.203 1_655 S
C44 O51 1.267 . S
O45 C44 1.203 1_455 S
O46 C39 1.185 1_554 S
O46 Zn42 2.086 . S
C47 O43 1.278 . S
C47 O48 1.223 . S
O48 C47 1.223 . S
C49 O41 1.284 . S
C49 O50 1.273 . S
O50 C49 1.273 . S
O51 Zn42 1.977 . S
O51 C44 1.267 . S
C52 O53 1.160 . S
C52 O59 1.185 . S
O53 C52 1.160 . S
O54 Zn55 1.881 1_556 S
O54 C62 1.284 . S
Zn55 O54 1.881 1_554 S
Zn55 O56 2.063 . S
Zn55 O59 2.101 . S
Zn55 O64 1.957 1_554 S
O56 Zn55 2.063 . S
O56 C60 1.278 . S
C57 O58 1.203 . S
C57 O64 1.267 . S
O58 C57 1.203 . S
O59 C52 1.185 . S
O59 Zn55 2.101 . S
C60 O56 1.278 . S
C60 O61 1.211 . S
O61 C60 1.211 . S
C62 O54 1.284 . S
C62 O63 1.273 . S
O63 C62 1.273 . S
O64 Zn55 1.957 1_556 S
O64 C57 1.267 . S
C65 O66 1.160 . S
C65 O72 1.185 . S
O66 C65 1.160 . S
O67 Zn68 1.899 1_546 S
O67 C75 1.280 1_556 S
Zn68 O67 1.899 1_564 S
Zn68 O69 2.032 1_565 S
Zn68 O72 2.086 . S
Zn68 O77 1.977 1_554 S
O69 Zn68 2.032 1_545 S
O69 C73 1.278 . S
C70 O71 1.203 1_565 S
C70 O77 1.267 . S
O71 C70 1.203 1_545 S
O72 C65 1.185 . S
O72 Zn68 2.086 . S
C73 O69 1.278 . S
C73 O74 1.211 . S
O74 C73 1.211 . S
C75 O67 1.280 1_554 S
C75 O76 1.292 . S
O76 C75 1.292 . S
O77 Zn68 1.977 1_556 S
O77 C70 1.267 . S
C78 O79 1.160 . S
C78 O85 1.185 . S
O79 C78 1.160 . S
O80 Zn81 1.899 . S
O80 C88 1.284 . S
Zn81 O80 1.899 . S
Zn81 O82 2.032 . S
Zn81 O85 2.086 . S
Zn81 O90 1.977 . S
O82 Zn81 2.032 . S
O82 C86 1.278 . S
C83 O84 1.203 . S
C83 O90 1.267 . S
O84 C83 1.203 . S
O85 C78 1.185 . S
O85 Zn81 2.086 . S
C86 O82 1.278 . S
C86 O87 1.211 . S
O87 C86 1.211 . S
C88 O80 1.284 . S
C88 O89 1.273 . S
O89 C88 1.273 . S
O90 Zn81 1.977 . S
O90 C83 1.267 . S
C91 O92 1.160 1_565 S
C91 O98 1.185 . S
O92 C91 1.160 1_545 S
O93 Zn94 1.899 1_545 S
O93 C101 1.284 . S
Zn94 O93 1.899 1_565 S
Zn94 O95 2.032 . S
Zn94 O98 2.086 . S
Zn94 O103 1.977 . S
O95 Zn94 2.032 . S
O95 C99 1.278 . S
C96 O97 1.203 . S
C96 O103 1.267 . S
O97 C96 1.203 . S
O98 C91 1.185 . S
O98 Zn94 2.086 . S
C99 O95 1.278 . S
C99 O100 1.211 . S
O100 C99 1.211 . S
C101 O93 1.284 . S
C101 O102 1.273 . S
O102 C101 1.273 . S
O103 Zn94 1.977 . S
O103 C96 1.267 . S
C104 O105 1.160 . S
C104 O111 1.185 . S
O105 C104 1.160 . S
O106 Zn107 1.899 . S
O106 C114 1.285 . S
Zn107 O106 1.899 . S
Zn107 O108 2.032 . S
Zn107 O111 2.086 . S
Zn107 O116 1.977 . S
O108 Zn107 2.032 . S
O108 C112 1.278 . S
C109 O110 1.203 . S
C109 O116 1.267 . S
O110 C109 1.203 . S
O111 C104 1.185 . S
O111 Zn107 2.086 . S
C112 O108 1.278 . S
C112 O113 1.211 . S
O113 C112 1.211 . S
C114 O106 1.285 . S
C114 O115 1.269 . S
O115 C114 1.269 . S
O116 Zn107 1.977 . S
O116 C109 1.267 . S
C117 O118 1.160 1_565 S
C117 O124 1.185 . S
O118 C117 1.160 1_545 S
O119 Zn120 1.899 1_545 S
O119 C127 1.284 . S
Zn120 O119 1.899 1_565 S
Zn120 O121 2.032 . S
Zn120 O124 2.086 . S
Zn120 O129 1.977 . S
O121 Zn120 2.032 . S
O121 C125 1.278 . S
C122 O123 1.203 . S
C122 O129 1.267 . S
O123 C122 1.203 . S
O124 C117 1.185 . S
O124 Zn120 2.086 . S
C125 O121 1.278 . S
C125 O126 1.211 . S
O126 C125 1.211 . S
C127 O119 1.284 . S
C127 O128 1.273 . S
O128 C127 1.273 . S
O129 Zn120 1.977 . S
O129 C122 1.267 . S
C130 O131 1.160 . S
C130 O137 1.185 . S
O131 C130 1.160 . S
O132 Zn133 1.899 . S
O132 C140 1.284 . S
Zn133 O132 1.899 . S
Zn133 O134 2.032 . S
Zn133 O137 2.086 1_455 S
Zn133 O142 1.977 . S
O134 Zn133 2.032 . S
O134 C138 1.278 . S
C135 O136 1.203 . S
C135 O142 1.267 . S
O136 C135 1.203 . S
O137 C130 1.185 . S
O137 Zn133 2.086 1_655 S
C138 O134 1.278 . S
C138 O139 1.211 . S
O139 C138 1.211 . S
C140 O132 1.284 . S
C140 O141 1.273 . S
O141 C140 1.273 . S
O142 Zn133 1.977 . S
O142 C135 1.267 . S
C143 O144 1.160 . S
C143 O150 1.185 . S
O144 C143 1.160 . S
O145 Zn146 1.899 . S
O145 C153 1.284 . S
Zn146 O145 1.899 . S
Zn146 O147 2.032 . S
Zn146 O150 2.086 . S
Zn146 O155 1.977 . S
O147 Zn146 2.032 . S
O147 C151 1.278 . S
C148 O149 1.203 . S
C148 O155 1.267 . S
O149 C148 1.203 . S
O150 C143 1.185 . S
O150 Zn146 2.086 . S
C151 O147 1.278 . S
C151 O152 1.211 . S
O152 C151 1.211 . S
C153 O145 1.284 . S
C153 O154 1.273 . S
O154 C153 1.273 . S
O155 Zn146 1.977 . S
O155 C148 1.267 . S
C156 O157 1.160 . S
C156 O163 1.185 . S
O157 C156 1.160 . S
O158 Zn159 1.899 . S
O158 C166 1.284 1_545 S
Zn159 O158 1.899 . S
Zn159 O160 2.032 . S
Zn159 O163 2.086 . S
Zn159 O168 1.977 . S
O160 Zn159 2.032 . S
O160 C164 1.278 . S
C161 O162 1.203 . S
C161 O168 1.267 . S
O162 C161 1.203 . S
O163 C156 1.185 . S
O163 Zn159 2.086 . S
C164 O160 1.278 . S
C164 O165 1.211 . S
O165 C164 1.211 . S
C166 O158 1.284 1_565 S
C166 O167 1.273 1_565 S
O167 C166 1.273 1_545 S
O168 Zn159 1.977 . S
O168 C161 1.267 . S
C169 O170 1.160 . S
C169 O176 1.185 . S
O170 C169 1.160 . S
O171 Zn172 1.899 . S
O171 C179 1.284 . S
Zn172 O171 1.899 . S
Zn172 O173 2.032 . S
Zn172 O176 2.086 1_655 S
Zn172 O181 1.977 . S
O173 Zn172 2.032 . S
O173 C177 1.278 . S
C174 O175 1.203 . S
C174 O181 1.267 . S
O175 C174 1.203 . S
O176 C169 1.185 . S
O176 Zn172 2.086 1_455 S
C177 O173 1.278 . S
C177 O178 1.211 . S
O178 C177 1.211 . S
C179 O171 1.284 . S
C179 O180 1.273 . S
O180 C179 1.273 . S
O181 Zn172 1.977 . S
O181 C174 1.267 . S
C182 O183 1.160 . S
C182 O189 1.185 . S
O183 C182 1.160 . S
O184 Zn185 1.899 . S
O184 C192 1.284 . S
Zn185 O184 1.899 . S
Zn185 O186 2.032 . S
Zn185 O189 2.086 . S
Zn185 O194 1.977 . S
O186 Zn185 2.032 . S
O186 C190 1.278 . S
C187 O188 1.203 . S
C187 O194 1.267 . S
O188 C187 1.203 . S
O189 C182 1.185 . S
O189 Zn185 2.086 . S
C190 O186 1.278 . S
C190 O191 1.211 . S
O191 C190 1.211 . S
C192 O184 1.284 . S
C192 O193 1.273 . S
O193 C192 1.273 . S
O194 Zn185 1.977 . S
O194 C187 1.267 . S
C195 O196 1.160 . S
C195 O202 1.185 . S
O196 C195 1.160 . S
O197 Zn198 1.899 . S
O197 C205 1.284 . S
Zn198 O197 1.899 . S
Zn198 O199 2.032 . S
Zn198 O202 2.086 . S
Zn198 O207 1.977 . S
O199 Zn198 2.032 . S
O199 C203 1.278 . S
C200 O201 1.203 . S
C200 O207 1.267 . S
O201 C200 1.203 . S
O202 C195 1.185 . S
O202 Zn198 2.086 . S
C203 O199 1.278 . S
C203 O204 1.211 . S
O204 C203 1.211 . S
C205 O197 1.284 . S
C205 O206 1.273 . S
O206 C205 1.273 . S
O207 Zn198 1.977 . S
O207 C200 1.267 . S
C208 O209 1.160 . S
C208 O215 1.185 . S
O209 C208 1.160 . S
O210 Zn211 1.899 . S
O210 C218 1.284 1_545 S
Zn211 O210 1.899 . S
Zn211 O212 2.032 . S
Zn211 O215 2.086 . S
Zn211 O220 1.977 . S
O212 Zn211 2.032 . S
O212 C216 1.278 . S
C213 O214 1.203 . S
C213 O220 1.267 . S
O214 C213 1.203 . S
O215 C208 1.185 . S
O215 Zn211 2.086 . S
C216 O212 1.278 . S
C216 O217 1.211 . S
O217 C216 1.211 . S
C218 O210 1.284 1_565 S
C218 O219 1.273 1_565 S
O219 C218 1.273 1_545 S
O220 Zn211 1.977 . S
O220 C213 1.267 . S
C221 O222 1.160 . S
C221 O228 1.185 . S
O222 C221 1.160 . S
O223 Zn224 1.899 . S
O223 C231 1.284 1_655 S
Zn224 O223 1.899 . S
Zn224 O225 2.032 . S
Zn224 O228 2.086 . S
Zn224 O233 1.977 . S
O225 Zn224 2.032 . S
O225 C229 1.278 . S
C226 O227 1.203 . S
C226 O233 1.267 . S
O227 C226 1.203 . S
O228 C221 1.185 . S
O228 Zn224 2.086 . S
C229 O225 1.278 . S
C229 O230 1.211 . S
O230 C229 1.211 . S
C231 O223 1.284 1_455 S
C231 O232 1.273 1_455 S
O232 C231 1.273 1_655 S
O233 Zn224 1.977 . S
O233 C226 1.267 . S
C234 C235 1.560 . S
C234 H295 0.959 . S
C234 H296 0.959 . S
C234 H297 0.960 . S
C235 C234 1.560 . S
C235 O290 1.426 . S
C235 H294 0.980 . S
C236 C237 1.407 . S
C236 C241 1.418 . S
C236 O290 1.334 . S
C237 C236 1.407 . S
C237 C238 1.360 . S
C237 H298 0.929 . S
C238 C237 1.360 . S
C238 C239 1.401 . S
C238 C242 1.527 . S
C239 C238 1.401 . S
C239 C240 1.405 . S
C239 C272 1.587 . S
C240 C239 1.405 . S
C240 C241 1.332 . S
C240 C243 1.496 . S
C241 C236 1.418 . S
C241 C240 1.332 . S
C241 H299 0.929 . S
C242 C238 1.527 . S
C242 H300 0.959 . S
C242 H301 0.961 . S
C242 H302 0.961 . S
C243 C240 1.496 . S
C243 H303 0.960 . S
C243 H304 0.960 . S
C243 H305 0.961 . S
C244 C245 1.517 . S
C244 H307 0.961 . S
C244 H308 0.960 . S
C244 H309 0.959 . S
C245 C244 1.517 . S
C245 O293 1.468 . S
C245 H306 0.980 . S
C246 C247 1.349 . S
C246 C251 1.367 . S
C246 O293 1.408 . S
C247 C246 1.349 . S
C247 C248 1.407 . S
C247 H310 0.930 . S
C248 C247 1.407 . S
C248 C249 1.449 . S
C248 C252 1.535 . S
C249 C248 1.449 . S
C249 C250 1.384 . S
C249 C274 1.553 . S
C250 C249 1.384 . S
C250 C251 1.364 . S
C250 C253 1.450 . S
C251 C246 1.367 . S
C251 C250 1.364 . S
C251 H311 0.931 . S
C252 C248 1.535 . S
C252 H312 0.959 . S
C252 H313 0.961 . S
C252 H314 0.959 . S
C253 C250 1.450 . S
C253 H315 0.960 . S
C253 H316 0.960 . S
C253 H317 0.960 . S
C254 C255 1.309 . S
C254 C259 1.304 . S
C254 O292 1.435 . S
C255 C254 1.309 . S
C255 C256 1.476 . S
C255 H319 0.930 . S
C256 C255 1.476 . S
C256 C257 1.400 . S
C256 C260 1.567 . S
C257 C256 1.400 . S
C257 C258 1.373 . S
C257 C279 1.432 . S
C258 C257 1.373 . S
C258 C259 1.339 . S
C258 C261 1.530 . S
C259 C254 1.304 . S
C259 C258 1.339 . S
C259 H320 0.930 . S
C260 C256 1.567 . S
C260 H321 0.961 . S
C260 H322 0.960 . S
C260 H323 0.958 . S
C261 C258 1.530 . S
C261 H324 0.961 . S
C261 H325 0.960 . S
C261 H326 0.960 . S
C262 C263 1.530 . S
C262 H328 0.961 . S
C262 H329 0.961 . S
C262 H330 0.959 . S
C263 C262 1.530 . S
C263 O291 1.412 . S
C263 H327 0.980 . S
C264 C265 1.288 . S
C264 C269 1.377 . S
C264 O291 1.393 . S
C265 C264 1.288 . S
C265 C266 1.369 . S
C265 H331 0.932 . S
C266 C265 1.369 . S
C266 C267 1.398 . S
C266 C270 1.527 . S
C267 C266 1.398 . S
C267 C268 1.380 . S
C267 C281 1.497 . S
C268 C267 1.380 . S
C268 C269 1.383 . S
C268 C271 1.603 . S
C269 C264 1.377 . S
C269 C268 1.383 . S
C269 H332 0.929 . S
C270 C266 1.527 . S
C270 H333 0.961 . S
C270 H334 0.959 . S
C270 H335 0.959 . S
C271 C268 1.603 . S
C271 H336 0.960 . S
C271 H337 0.962 . S
C271 H338 0.961 . S
C272 C239 1.587 . S
C272 C273 1.360 . S
C272 C285 1.412 . S
C273 C272 1.360 . S
C273 C274 1.365 . S
C273 H339 0.929 . S
C274 C249 1.553 . S
C274 C273 1.365 . S
C274 C275 1.404 . S
C275 C274 1.404 . S
C275 C276 1.395 . S
C275 C286 1.451 . S
C276 C275 1.395 . S
C276 C277 1.322 . S
C276 H340 0.930 . S
C277 C276 1.322 . S
C277 C278 1.459 . S
C277 H341 0.929 . S
C278 C277 1.459 . S
C278 C279 1.445 . S
C278 C287 1.395 . S
C279 C257 1.432 . S
C279 C278 1.445 . S
C279 C280 1.370 . S
C280 C279 1.370 . S
C280 C281 1.438 . S
C280 H342 0.930 . S
C281 C267 1.497 . S
C281 C280 1.438 . S
C281 C282 1.360 . S
C282 C281 1.360 . S
C282 C283 1.401 . S
C282 C287 1.446 . S
C283 C282 1.401 . S
C283 C284 1.347 . S
C283 H343 0.929 . S
C284 C283 1.347 . S
C284 C285 1.455 . S
C284 H344 0.930 . S
C285 C272 1.412 . S
C285 C284 1.455 . S
C285 C286 1.331 . S
C286 C275 1.451 . S
C286 C285 1.331 . S
C286 C287 1.497 . S
C287 C278 1.395 . S
C287 C282 1.446 . S
C287 C286 1.497 . S
C288 C289 1.582 . S
C288 H345 0.962 . S
C288 H346 0.959 . S
C288 H347 0.958 . S
C289 C288 1.582 . S
C289 O292 1.458 . S
C289 H318 0.980 . S
O290 C235 1.426 . S
O290 C236 1.334 . S
O291 C263 1.412 . S
O291 C264 1.393 . S
O292 C254 1.435 . S
O292 C289 1.458 . S
O293 C245 1.468 . S
O293 C246 1.408 . S
H294 C235 0.980 . S
H295 C234 0.959 . S
H296 C234 0.959 . S
H297 C234 0.960 . S
H298 C237 0.929 . S
H299 C241 0.929 . S
H300 C242 0.959 . S
H301 C242 0.961 . S
H302 C242 0.961 . S
H303 C243 0.960 . S
H304 C243 0.960 . S
H305 C243 0.961 . S
H306 C245 0.980 . S
H307 C244 0.961 . S
H308 C244 0.960 . S
H309 C244 0.959 . S
H310 C247 0.930 . S
H311 C251 0.931 . S
H312 C252 0.959 . S
H313 C252 0.961 . S
H314 C252 0.959 . S
H315 C253 0.960 . S
H316 C253 0.960 . S
H317 C253 0.960 . S
H318 C289 0.980 . S
H319 C255 0.930 . S
H320 C259 0.930 . S
H321 C260 0.961 . S
H322 C260 0.960 . S
H323 C260 0.958 . S
H324 C261 0.961 . S
H325 C261 0.960 . S
H326 C261 0.960 . S
H327 C263 0.980 . S
H328 C262 0.961 . S
H329 C262 0.961 . S
H330 C262 0.959 . S
H331 C265 0.932 . S
H332 C269 0.929 . S
H333 C270 0.961 . S
H334 C270 0.959 . S
H335 C270 0.959 . S
H336 C271 0.960 . S
H337 C271 0.962 . S
H338 C271 0.961 . S
H339 C273 0.929 . S
H340 C276 0.930 . S
H341 C277 0.929 . S
H342 C280 0.930 . S
H343 C283 0.929 . S
H344 C284 0.930 . S
H345 C288 0.962 . S
H346 C288 0.959 . S
H347 C288 0.958 . S
C348 C349 1.560 . S
C348 H409 0.959 . S
C348 H410 0.959 . S
C348 H411 0.960 . S
C349 C348 1.560 . S
C349 O404 1.426 . S
C349 H408 0.980 . S
C350 C351 1.407 . S
C350 C355 1.418 . S
C350 O404 1.334 . S
C351 C350 1.407 . S
C351 C352 1.360 . S
C351 H412 0.929 . S
C352 C351 1.360 . S
C352 C353 1.401 . S
C352 C356 1.527 . S
C353 C352 1.401 . S
C353 C354 1.405 . S
C353 C386 1.587 . S
C354 C353 1.405 . S
C354 C355 1.332 . S
C354 C357 1.496 . S
C355 C350 1.418 . S
C355 C354 1.332 . S
C355 H413 0.929 . S
C356 C352 1.527 . S
C356 H414 0.959 . S
C356 H415 0.961 . S
C356 H416 0.961 . S
C357 C354 1.496 . S
C357 H417 0.960 . S
C357 H418 0.960 . S
C357 H419 0.961 . S
C358 C359 1.517 . S
C358 H421 0.961 . S
C358 H422 0.960 . S
C358 H423 0.959 . S
C359 C358 1.517 . S
C359 O407 1.468 . S
C359 H420 0.980 . S
C360 C361 1.349 . S
C360 C365 1.367 . S
C360 O407 1.408 . S
C361 C360 1.349 . S
C361 C362 1.407 . S
C361 H424 0.930 . S
C362 C361 1.407 . S
C362 C363 1.449 . S
C362 C366 1.535 . S
C363 C362 1.449 . S
C363 C364 1.384 . S
C363 C388 1.553 . S
C364 C363 1.384 . S
C364 C365 1.364 . S
C364 C367 1.450 . S
C365 C360 1.367 . S
C365 C364 1.364 . S
C365 H425 0.931 . S
C366 C362 1.535 . S
C366 H426 0.959 . S
C366 H427 0.961 . S
C366 H428 0.959 . S
C367 C364 1.450 . S
C367 H429 0.960 . S
C367 H430 0.960 . S
C367 H431 0.960 . S
C368 C369 1.309 . S
C368 C373 1.304 . S
C368 O406 1.435 . S
C369 C368 1.309 . S
C369 C370 1.476 . S
C369 H433 0.930 . S
C370 C369 1.476 . S
C370 C371 1.400 . S
C370 C374 1.567 . S
C371 C370 1.400 . S
C371 C372 1.373 . S
C371 C393 1.432 . S
C372 C371 1.373 . S
C372 C373 1.339 . S
C372 C375 1.530 . S
C373 C368 1.304 . S
C373 C372 1.339 . S
C373 H434 0.930 . S
C374 C370 1.567 . S
C374 H435 0.961 . S
C374 H436 0.960 . S
C374 H437 0.958 . S
C375 C372 1.530 . S
C375 H438 0.961 . S
C375 H439 0.960 . S
C375 H440 0.960 . S
C376 C377 1.530 . S
C376 H442 0.961 . S
C376 H443 0.961 . S
C376 H444 0.959 . S
C377 C376 1.530 . S
C377 O405 1.412 . S
C377 H441 0.980 . S
C378 C379 1.288 . S
C378 C383 1.377 . S
C378 O405 1.393 . S
C379 C378 1.288 . S
C379 C380 1.369 . S
C379 H445 0.932 . S
C380 C379 1.369 . S
C380 C381 1.398 . S
C380 C384 1.527 . S
C381 C380 1.398 . S
C381 C382 1.380 . S
C381 C395 1.497 . S
C382 C381 1.380 . S
C382 C383 1.383 . S
C382 C385 1.603 . S
C383 C378 1.377 . S
C383 C382 1.383 . S
C383 H446 0.929 . S
C384 C380 1.527 . S
C384 H447 0.961 . S
C384 H448 0.959 . S
C384 H449 0.959 . S
C385 C382 1.603 . S
C385 H450 0.960 . S
C385 H451 0.962 . S
C385 H452 0.961 . S
C386 C353 1.587 . S
C386 C387 1.360 . S
C386 C399 1.412 . S
C387 C386 1.360 . S
C387 C388 1.365 . S
C387 H453 0.929 . S
C388 C363 1.553 . S
C388 C387 1.365 . S
C388 C389 1.404 . S
C389 C388 1.404 . S
C389 C390 1.395 . S
C389 C400 1.451 . S
C390 C389 1.395 . S
C390 C391 1.322 . S
C390 H454 0.930 . S
C391 C390 1.322 . S
C391 C392 1.459 . S
C391 H455 0.929 . S
C392 C391 1.459 . S
C392 C393 1.445 . S
C392 C401 1.395 . S
C393 C371 1.432 . S
C393 C392 1.445 . S
C393 C394 1.370 . S
C394 C393 1.370 . S
C394 C395 1.438 . S
C394 H456 0.930 . S
C395 C381 1.497 . S
C395 C394 1.438 . S
C395 C396 1.360 . S
C396 C395 1.360 . S
C396 C397 1.401 . S
C396 C401 1.446 . S
C397 C396 1.401 . S
C397 C398 1.347 . S
C397 H457 0.929 . S
C398 C397 1.347 . S
C398 C399 1.455 . S
C398 H458 0.930 . S
C399 C386 1.412 . S
C399 C398 1.455 . S
C399 C400 1.331 . S
C400 C389 1.451 . S
C400 C399 1.331 . S
C400 C401 1.497 . S
C401 C392 1.395 . S
C401 C396 1.446 . S
C401 C400 1.497 . S
C402 C403 1.582 . S
C402 H459 0.962 . S
C402 H460 0.959 . S
C402 H461 0.958 . S
C403 C402 1.582 . S
C403 O406 1.458 . S
C403 H432 0.980 . S
O404 C349 1.426 . S
O404 C350 1.334 . S
O405 C377 1.412 . S
O405 C378 1.393 . S
O406 C368 1.435 . S
O406 C403 1.458 . S
O407 C359 1.468 . S
O407 C360 1.408 . S
H408 C349 0.980 . S
H409 C348 0.959 . S
H410 C348 0.959 . S
H411 C348 0.960 . S
H412 C351 0.929 . S
H413 C355 0.929 . S
H414 C356 0.959 . S
H415 C356 0.961 . S
H416 C356 0.961 . S
H417 C357 0.960 . S
H418 C357 0.960 . S
H419 C357 0.961 . S
H420 C359 0.980 . S
H421 C358 0.961 . S
H422 C358 0.960 . S
H423 C358 0.959 . S
H424 C361 0.930 . S
H425 C365 0.931 . S
H426 C366 0.959 . S
H427 C366 0.961 . S
H428 C366 0.959 . S
H429 C367 0.960 . S
H430 C367 0.960 . S
H431 C367 0.960 . S
H432 C403 0.980 . S
H433 C369 0.930 . S
H434 C373 0.930 . S
H435 C374 0.961 . S
H436 C374 0.960 . S
H437 C374 0.958 . S
H438 C375 0.961 . S
H439 C375 0.960 . S
H440 C375 0.960 . S
H441 C377 0.980 . S
H442 C376 0.961 . S
H443 C376 0.961 . S
H444 C376 0.959 . S
H445 C379 0.932 . S
H446 C383 0.929 . S
H447 C384 0.961 . S
H448 C384 0.959 . S
H449 C384 0.959 . S
H450 C385 0.960 . S
H451 C385 0.962 . S
H452 C385 0.961 . S
H453 C387 0.929 . S
H454 C390 0.930 . S
H455 C391 0.929 . S
H456 C394 0.930 . S
H457 C397 0.929 . S
H458 C398 0.930 . S
H459 C402 0.962 . S
H460 C402 0.959 . S
H461 C402 0.958 . S
C462 C463 1.560 . S
C462 H523 0.959 . S
C462 H524 0.959 . S
C462 H525 0.960 . S
C463 C462 1.560 . S
C463 O518 1.426 . S
C463 H522 0.980 . S
C464 C465 1.407 . S
C464 C469 1.418 . S
C464 O518 1.334 . S
C465 C464 1.407 . S
C465 C466 1.360 . S
C465 H526 0.929 . S
C466 C465 1.360 . S
C466 C467 1.401 . S
C466 C470 1.527 . S
C467 C466 1.401 . S
C467 C468 1.405 . S
C467 C500 1.587 . S
C468 C467 1.405 . S
C468 C469 1.332 . S
C468 C471 1.496 . S
C469 C464 1.418 . S
C469 C468 1.332 . S
C469 H527 0.929 . S
C470 C466 1.527 . S
C470 H528 0.959 . S
C470 H529 0.961 . S
C470 H530 0.961 . S
C471 C468 1.496 . S
C471 H531 0.960 . S
C471 H532 0.960 . S
C471 H533 0.961 . S
C472 C473 1.517 . S
C472 H535 0.961 . S
C472 H536 0.960 . S
C472 H537 0.959 . S
C473 C472 1.517 . S
C473 O521 1.468 . S
C473 H534 0.980 . S
C474 C475 1.349 . S
C474 C479 1.367 . S
C474 O521 1.408 . S
C475 C474 1.349 . S
C475 C476 1.407 . S
C475 H538 0.930 . S
C476 C475 1.407 . S
C476 C477 1.449 . S
C476 C480 1.535 . S
C477 C476 1.449 . S
C477 C478 1.384 . S
C477 C502 1.553 . S
C478 C477 1.384 . S
C478 C479 1.364 . S
C478 C481 1.450 . S
C479 C474 1.367 . S
C479 C478 1.364 . S
C479 H539 0.931 . S
C480 C476 1.535 . S
C480 H540 0.959 . S
C480 H541 0.961 . S
C480 H542 0.959 . S
C481 C478 1.450 . S
C481 H543 0.960 . S
C481 H544 0.960 . S
C481 H545 0.960 . S
C482 C483 1.309 . S
C482 C487 1.304 . S
C482 O520 1.435 . S
C483 C482 1.309 . S
C483 C484 1.476 . S
C483 H547 0.930 . S
C484 C483 1.476 . S
C484 C485 1.400 . S
C484 C488 1.567 . S
C485 C484 1.400 . S
C485 C486 1.373 . S
C485 C507 1.432 . S
C486 C485 1.373 . S
C486 C487 1.339 . S
C486 C489 1.530 . S
C487 C482 1.304 . S
C487 C486 1.339 . S
C487 H548 0.930 . S
C488 C484 1.567 . S
C488 H549 0.961 . S
C488 H550 0.960 . S
C488 H551 0.958 . S
C489 C486 1.530 . S
C489 H552 0.961 . S
C489 H553 0.960 . S
C489 H554 0.960 . S
C490 C491 1.530 . S
C490 H556 0.961 . S
C490 H557 0.961 . S
C490 H558 0.959 . S
C491 C490 1.530 . S
C491 O519 1.412 . S
C491 H555 0.980 . S
C492 C493 1.288 . S
C492 C497 1.377 . S
C492 O519 1.393 . S
C493 C492 1.288 . S
C493 C494 1.369 . S
C493 H559 0.932 . S
C494 C493 1.369 . S
C494 C495 1.398 . S
C494 C498 1.527 . S
C495 C494 1.398 . S
C495 C496 1.380 . S
C495 C509 1.497 . S
C496 C495 1.380 . S
C496 C497 1.383 . S
C496 C499 1.603 . S
C497 C492 1.377 . S
C497 C496 1.383 . S
C497 H560 0.929 . S
C498 C494 1.527 . S
C498 H561 0.961 . S
C498 H562 0.959 . S
C498 H563 0.959 . S
C499 C496 1.603 . S
C499 H564 0.960 . S
C499 H565 0.962 . S
C499 H566 0.961 . S
C500 C467 1.587 . S
C500 C501 1.360 . S
C500 C513 1.412 . S
C501 C500 1.360 . S
C501 C502 1.365 . S
C501 H567 0.929 . S
C502 C477 1.553 . S
C502 C501 1.365 . S
C502 C503 1.404 . S
C503 C502 1.404 . S
C503 C504 1.395 . S
C503 C514 1.451 . S
C504 C503 1.395 . S
C504 C505 1.322 . S
C504 H568 0.930 . S
C505 C504 1.322 . S
C505 C506 1.459 . S
C505 H569 0.929 . S
C506 C505 1.459 . S
C506 C507 1.445 . S
C506 C515 1.395 . S
C507 C485 1.432 . S
C507 C506 1.445 . S
C507 C508 1.370 . S
C508 C507 1.370 . S
C508 C509 1.438 . S
C508 H570 0.930 . S
C509 C495 1.497 . S
C509 C508 1.438 . S
C509 C510 1.360 . S
C510 C509 1.360 . S
C510 C511 1.401 . S
C510 C515 1.446 . S
C511 C510 1.401 . S
C511 C512 1.347 . S
C511 H571 0.929 . S
C512 C511 1.347 . S
C512 C513 1.455 . S
C512 H572 0.930 . S
C513 C500 1.412 . S
C513 C512 1.455 . S
C513 C514 1.331 . S
C514 C503 1.451 . S
C514 C513 1.331 . S
C514 C515 1.497 . S
C515 C506 1.395 . S
C515 C510 1.446 . S
C515 C514 1.497 . S
C516 C517 1.582 . S
C516 H573 0.962 . S
C516 H574 0.959 . S
C516 H575 0.958 . S
C517 C516 1.582 . S
C517 O520 1.458 . S
C517 H546 0.980 . S
O518 C463 1.426 . S
O518 C464 1.334 . S
O519 C491 1.412 . S
O519 C492 1.393 . S
O520 C482 1.435 . S
O520 C517 1.458 . S
O521 C473 1.468 . S
O521 C474 1.408 . S
H522 C463 0.980 . S
H523 C462 0.959 . S
H524 C462 0.959 . S
H525 C462 0.960 . S
H526 C465 0.929 . S
H527 C469 0.929 . S
H528 C470 0.959 . S
H529 C470 0.961 . S
H530 C470 0.961 . S
H531 C471 0.960 . S
H532 C471 0.960 . S
H533 C471 0.961 . S
H534 C473 0.980 . S
H535 C472 0.961 . S
H536 C472 0.960 . S
H537 C472 0.959 . S
H538 C475 0.930 . S
H539 C479 0.931 . S
H540 C480 0.959 . S
H541 C480 0.961 . S
H542 C480 0.959 . S
H543 C481 0.960 . S
H544 C481 0.960 . S
H545 C481 0.960 . S
H546 C517 0.980 . S
H547 C483 0.930 . S
H548 C487 0.930 . S
H549 C488 0.961 . S
H550 C488 0.960 . S
H551 C488 0.958 . S
H552 C489 0.961 . S
H553 C489 0.960 . S
H554 C489 0.960 . S
H555 C491 0.980 . S
H556 C490 0.961 . S
H557 C490 0.961 . S
H558 C490 0.959 . S
H559 C493 0.932 . S
H560 C497 0.929 . S
H561 C498 0.961 . S
H562 C498 0.959 . S
H563 C498 0.959 . S
H564 C499 0.960 . S
H565 C499 0.962 . S
H566 C499 0.961 . S
H567 C501 0.929 . S
H568 C504 0.930 . S
H569 C505 0.929 . S
H570 C508 0.930 . S
H571 C511 0.929 . S
H572 C512 0.930 . S
H573 C516 0.962 . S
H574 C516 0.959 . S
H575 C516 0.958 . S
C576 C577 1.560 . S
C576 H637 0.959 . S
C576 H638 0.959 . S
C576 H639 0.960 . S
C577 C576 1.560 . S
C577 O632 1.426 . S
C577 H636 0.980 . S
C578 C579 1.407 . S
C578 C583 1.418 . S
C578 O632 1.334 . S
C579 C578 1.407 . S
C579 C580 1.360 . S
C579 H640 0.929 . S
C580 C579 1.360 . S
C580 C581 1.401 . S
C580 C584 1.527 . S
C581 C580 1.401 . S
C581 C582 1.405 . S
C581 C614 1.587 . S
C582 C581 1.405 . S
C582 C583 1.332 . S
C582 C585 1.496 . S
C583 C578 1.418 . S
C583 C582 1.332 . S
C583 H641 0.929 . S
C584 C580 1.527 . S
C584 H642 0.959 . S
C584 H643 0.961 . S
C584 H644 0.961 . S
C585 C582 1.496 . S
C585 H645 0.960 . S
C585 H646 0.960 . S
C585 H647 0.961 . S
C586 C587 1.517 . S
C586 H649 0.961 . S
C586 H650 0.960 . S
C586 H651 0.959 . S
C587 C586 1.517 . S
C587 O635 1.468 . S
C587 H648 0.980 . S
C588 C589 1.349 . S
C588 C593 1.367 . S
C588 O635 1.408 . S
C589 C588 1.349 . S
C589 C590 1.407 . S
C589 H652 0.930 . S
C590 C589 1.407 . S
C590 C591 1.449 . S
C590 C594 1.535 . S
C591 C590 1.449 . S
C591 C592 1.384 . S
C591 C616 1.553 . S
C592 C591 1.384 . S
C592 C593 1.364 . S
C592 C595 1.450 . S
C593 C588 1.367 . S
C593 C592 1.364 . S
C593 H653 0.931 . S
C594 C590 1.535 . S
C594 H654 0.959 . S
C594 H655 0.961 . S
C594 H656 0.959 . S
C595 C592 1.450 . S
C595 H657 0.960 . S
C595 H658 0.960 . S
C595 H659 0.960 . S
C596 C597 1.309 . S
C596 C601 1.304 . S
C596 O634 1.435 . S
C597 C596 1.309 . S
C597 C598 1.476 . S
C597 H661 0.930 . S
C598 C597 1.476 . S
C598 C599 1.400 . S
C598 C602 1.567 . S
C599 C598 1.400 . S
C599 C600 1.373 . S
C599 C621 1.432 . S
C600 C599 1.373 . S
C600 C601 1.339 . S
C600 C603 1.530 . S
C601 C596 1.304 . S
C601 C600 1.339 . S
C601 H662 0.930 . S
C602 C598 1.567 . S
C602 H663 0.961 . S
C602 H664 0.960 . S
C602 H665 0.958 . S
C603 C600 1.530 . S
C603 H666 0.961 . S
C603 H667 0.960 . S
C603 H668 0.960 . S
C604 C605 1.530 . S
C604 H670 0.961 . S
C604 H671 0.961 . S
C604 H672 0.959 . S
C605 C604 1.530 . S
C605 O633 1.412 . S
C605 H669 0.980 . S
C606 C607 1.288 . S
C606 C611 1.377 . S
C606 O633 1.393 . S
C607 C606 1.288 . S
C607 C608 1.369 . S
C607 H673 0.932 . S
C608 C607 1.369 . S
C608 C609 1.398 . S
C608 C612 1.527 . S
C609 C608 1.398 . S
C609 C610 1.380 . S
C609 C623 1.497 . S
C610 C609 1.380 . S
C610 C611 1.383 . S
C610 C613 1.603 . S
C611 C606 1.377 . S
C611 C610 1.383 . S
C611 H674 0.929 . S
C612 C608 1.527 . S
C612 H675 0.961 . S
C612 H676 0.959 . S
C612 H677 0.959 . S
C613 C610 1.603 . S
C613 H678 0.960 . S
C613 H679 0.962 . S
C613 H680 0.961 . S
C614 C581 1.587 . S
C614 C615 1.360 . S
C614 C627 1.412 . S
C615 C614 1.360 . S
C615 C616 1.365 . S
C615 H681 0.929 . S
C616 C591 1.553 . S
C616 C615 1.365 . S
C616 C617 1.404 . S
C617 C616 1.404 . S
C617 C618 1.395 . S
C617 C628 1.451 . S
C618 C617 1.395 . S
C618 C619 1.322 . S
C618 H682 0.930 . S
C619 C618 1.322 . S
C619 C620 1.459 . S
C619 H683 0.929 . S
C620 C619 1.459 . S
C620 C621 1.445 . S
C620 C629 1.395 . S
C621 C599 1.432 . S
C621 C620 1.445 . S
C621 C622 1.370 . S
C622 C621 1.370 . S
C622 C623 1.438 . S
C622 H684 0.930 . S
C623 C609 1.497 . S
C623 C622 1.438 . S
C623 C624 1.360 . S
C624 C623 1.360 . S
C624 C625 1.401 . S
C624 C629 1.446 . S
C625 C624 1.401 . S
C625 C626 1.347 . S
C625 H685 0.929 . S
C626 C625 1.347 . S
C626 C627 1.455 . S
C626 H686 0.930 . S
C627 C614 1.412 . S
C627 C626 1.455 . S
C627 C628 1.331 . S
C628 C617 1.451 . S
C628 C627 1.331 . S
C628 C629 1.497 . S
C629 C620 1.395 . S
C629 C624 1.446 . S
C629 C628 1.497 . S
C630 C631 1.582 . S
C630 H687 0.962 . S
C630 H688 0.959 . S
C630 H689 0.958 . S
C631 C630 1.582 . S
C631 O634 1.458 . S
C631 H660 0.980 . S
O632 C577 1.426 . S
O632 C578 1.334 . S
O633 C605 1.412 . S
O633 C606 1.393 . S
O634 C596 1.435 . S
O634 C631 1.458 . S
O635 C587 1.468 . S
O635 C588 1.408 . S
H636 C577 0.980 . S
H637 C576 0.959 . S
H638 C576 0.959 . S
H639 C576 0.960 . S
H640 C579 0.929 . S
H641 C583 0.929 . S
H642 C584 0.959 . S
H643 C584 0.961 . S
H644 C584 0.961 . S
H645 C585 0.960 . S
H646 C585 0.960 . S
H647 C585 0.961 . S
H648 C587 0.980 . S
H649 C586 0.961 . S
H650 C586 0.960 . S
H651 C586 0.959 . S
H652 C589 0.930 . S
H653 C593 0.931 . S
H654 C594 0.959 . S
H655 C594 0.961 . S
H656 C594 0.959 . S
H657 C595 0.960 . S
H658 C595 0.960 . S
H659 C595 0.960 . S
H660 C631 0.980 . S
H661 C597 0.930 . S
H662 C601 0.930 . S
H663 C602 0.961 . S
H664 C602 0.960 . S
H665 C602 0.958 . S
H666 C603 0.961 . S
H667 C603 0.960 . S
H668 C603 0.960 . S
H669 C605 0.980 . S
H670 C604 0.961 . S
H671 C604 0.961 . S
H672 C604 0.959 . S
H673 C607 0.932 . S
H674 C611 0.929 . S
H675 C612 0.961 . S
H676 C612 0.959 . S
H677 C612 0.959 . S
H678 C613 0.960 . S
H679 C613 0.962 . S
H680 C613 0.961 . S
H681 C615 0.929 . S
H682 C618 0.930 . S
H683 C619 0.929 . S
H684 C622 0.930 . S
H685 C625 0.929 . S
H686 C626 0.930 . S
H687 C630 0.962 . S
H688 C630 0.959 . S
H689 C630 0.958 . S
C690 C691 1.560 . S
C690 H751 0.959 . S
C690 H752 0.959 . S
C690 H753 0.960 . S
C691 C690 1.560 . S
C691 O746 1.426 . S
C691 H750 0.980 . S
C692 C693 1.407 . S
C692 C697 1.418 . S
C692 O746 1.334 . S
C693 C692 1.407 . S
C693 C694 1.360 . S
C693 H754 0.929 . S
C694 C693 1.360 . S
C694 C695 1.401 . S
C694 C698 1.527 . S
C695 C694 1.401 . S
C695 C696 1.405 . S
C695 C728 1.587 . S
C696 C695 1.405 . S
C696 C697 1.332 . S
C696 C699 1.496 . S
C697 C692 1.418 . S
C697 C696 1.332 . S
C697 H755 0.929 . S
C698 C694 1.527 . S
C698 H756 0.959 . S
C698 H757 0.961 . S
C698 H758 0.961 . S
C699 C696 1.496 . S
C699 H759 0.960 . S
C699 H760 0.960 . S
C699 H761 0.961 . S
C700 C701 1.517 . S
C700 H763 0.961 . S
C700 H764 0.960 . S
C700 H765 0.959 . S
C701 C700 1.517 . S
C701 O749 1.468 . S
C701 H762 0.980 . S
C702 C703 1.349 . S
C702 C707 1.367 . S
C702 O749 1.408 . S
C703 C702 1.349 . S
C703 C704 1.407 . S
C703 H766 0.930 . S
C704 C703 1.407 . S
C704 C705 1.449 . S
C704 C708 1.535 . S
C705 C704 1.449 . S
C705 C706 1.384 . S
C705 C730 1.553 . S
C706 C705 1.384 . S
C706 C707 1.364 . S
C706 C709 1.450 . S
C707 C702 1.367 . S
C707 C706 1.364 . S
C707 H767 0.931 . S
C708 C704 1.535 . S
C708 H768 0.959 . S
C708 H769 0.961 . S
C708 H770 0.959 . S
C709 C706 1.450 . S
C709 H771 0.960 . S
C709 H772 0.960 . S
C709 H773 0.960 . S
C710 C711 1.309 . S
C710 C715 1.304 . S
C710 O748 1.435 . S
C711 C710 1.309 . S
C711 C712 1.476 . S
C711 H775 0.930 . S
C712 C711 1.476 . S
C712 C713 1.400 . S
C712 C716 1.567 . S
C713 C712 1.400 . S
C713 C714 1.373 . S
C713 C735 1.432 . S
C714 C713 1.373 . S
C714 C715 1.339 . S
C714 C717 1.530 . S
C715 C710 1.304 . S
C715 C714 1.339 . S
C715 H776 0.930 . S
C716 C712 1.567 . S
C716 H777 0.961 . S
C716 H778 0.960 . S
C716 H779 0.958 . S
C717 C714 1.530 . S
C717 H780 0.961 . S
C717 H781 0.960 . S
C717 H782 0.960 . S
C718 C719 1.530 . S
C718 H784 0.961 . S
C718 H785 0.961 . S
C718 H786 0.959 . S
C719 C718 1.530 . S
C719 O747 1.412 . S
C719 H783 0.980 . S
C720 C721 1.288 . S
C720 C725 1.377 . S
C720 O747 1.393 . S
C721 C720 1.288 . S
C721 C722 1.369 . S
C721 H787 0.932 . S
C722 C721 1.369 . S
C722 C723 1.398 . S
C722 C726 1.527 . S
C723 C722 1.398 . S
C723 C724 1.380 . S
C723 C737 1.497 . S
C724 C723 1.380 . S
C724 C725 1.383 . S
C724 C727 1.603 . S
C725 C720 1.377 . S
C725 C724 1.383 . S
C725 H788 0.929 . S
C726 C722 1.527 . S
C726 H789 0.961 . S
C726 H790 0.959 . S
C726 H791 0.959 . S
C727 C724 1.603 . S
C727 H792 0.960 . S
C727 H793 0.962 . S
C727 H794 0.961 . S
C728 C695 1.587 . S
C728 C729 1.360 . S
C728 C741 1.412 . S
C729 C728 1.360 . S
C729 C730 1.365 . S
C729 H795 0.929 . S
C730 C705 1.553 . S
C730 C729 1.365 . S
C730 C731 1.404 . S
C731 C730 1.404 . S
C731 C732 1.395 . S
C731 C742 1.451 . S
C732 C731 1.395 . S
C732 C733 1.322 . S
C732 H796 0.930 . S
C733 C732 1.322 . S
C733 C734 1.459 . S
C733 H797 0.929 . S
C734 C733 1.459 . S
C734 C735 1.445 . S
C734 C743 1.395 . S
C735 C713 1.432 . S
C735 C734 1.445 . S
C735 C736 1.370 . S
C736 C735 1.370 . S
C736 C737 1.438 . S
C736 H798 0.930 . S
C737 C723 1.497 . S
C737 C736 1.438 . S
C737 C738 1.360 . S
C738 C737 1.360 . S
C738 C739 1.401 . S
C738 C743 1.446 . S
C739 C738 1.401 . S
C739 C740 1.347 . S
C739 H799 0.929 . S
C740 C739 1.347 . S
C740 C741 1.455 . S
C740 H800 0.930 . S
C741 C728 1.412 . S
C741 C740 1.455 . S
C741 C742 1.331 . S
C742 C731 1.451 . S
C742 C741 1.331 . S
C742 C743 1.497 . S
C743 C734 1.395 . S
C743 C738 1.446 . S
C743 C742 1.497 . S
C744 C745 1.582 . S
C744 H801 0.962 . S
C744 H802 0.959 . S
C744 H803 0.958 . S
C745 C744 1.582 . S
C745 O748 1.458 . S
C745 H774 0.980 . S
O746 C691 1.426 . S
O746 C692 1.334 . S
O747 C719 1.412 . S
O747 C720 1.393 . S
O748 C710 1.435 . S
O748 C745 1.458 . S
O749 C701 1.468 . S
O749 C702 1.408 . S
H750 C691 0.980 . S
H751 C690 0.959 . S
H752 C690 0.959 . S
H753 C690 0.960 . S
H754 C693 0.929 . S
H755 C697 0.929 . S
H756 C698 0.959 . S
H757 C698 0.961 . S
H758 C698 0.961 . S
H759 C699 0.960 . S
H760 C699 0.960 . S
H761 C699 0.961 . S
H762 C701 0.980 . S
H763 C700 0.961 . S
H764 C700 0.960 . S
H765 C700 0.959 . S
H766 C703 0.930 . S
H767 C707 0.931 . S
H768 C708 0.959 . S
H769 C708 0.961 . S
H770 C708 0.959 . S
H771 C709 0.960 . S
H772 C709 0.960 . S
H773 C709 0.960 . S
H774 C745 0.980 . S
H775 C711 0.930 . S
H776 C715 0.930 . S
H777 C716 0.961 . S
H778 C716 0.960 . S
H779 C716 0.958 . S
H780 C717 0.961 . S
H781 C717 0.960 . S
H782 C717 0.960 . S
H783 C719 0.980 . S
H784 C718 0.961 . S
H785 C718 0.961 . S
H786 C718 0.959 . S
H787 C721 0.932 . S
H788 C725 0.929 . S
H789 C726 0.961 . S
H790 C726 0.959 . S
H791 C726 0.959 . S
H792 C727 0.960 . S
H793 C727 0.962 . S
H794 C727 0.961 . S
H795 C729 0.929 . S
H796 C732 0.930 . S
H797 C733 0.929 . S
H798 C736 0.930 . S
H799 C739 0.929 . S
H800 C740 0.930 . S
H801 C744 0.962 . S
H802 C744 0.959 . S
H803 C744 0.958 . S
C804 C805 1.560 . S
C804 H865 0.959 . S
C804 H866 0.959 . S
C804 H867 0.960 . S
C805 C804 1.560 . S
C805 O860 1.426 . S
C805 H864 0.980 . S
C806 C807 1.407 . S
C806 C811 1.418 . S
C806 O860 1.334 . S
C807 C806 1.407 . S
C807 C808 1.360 . S
C807 H868 0.929 . S
C808 C807 1.360 . S
C808 C809 1.401 . S
C808 C812 1.527 . S
C809 C808 1.401 . S
C809 C810 1.405 . S
C809 C842 1.587 . S
C810 C809 1.405 . S
C810 C811 1.332 . S
C810 C813 1.496 . S
C811 C806 1.418 . S
C811 C810 1.332 . S
C811 H869 0.929 . S
C812 C808 1.527 . S
C812 H870 0.959 . S
C812 H871 0.961 . S
C812 H872 0.961 . S
C813 C810 1.496 . S
C813 H873 0.960 . S
C813 H874 0.960 . S
C813 H875 0.961 . S
C814 C815 1.517 . S
C814 H877 0.961 . S
C814 H878 0.960 . S
C814 H879 0.959 . S
C815 C814 1.517 . S
C815 O863 1.468 . S
C815 H876 0.980 . S
C816 C817 1.349 . S
C816 C821 1.367 . S
C816 O863 1.408 . S
C817 C816 1.349 . S
C817 C818 1.407 . S
C817 H880 0.930 . S
C818 C817 1.407 . S
C818 C819 1.449 . S
C818 C822 1.535 . S
C819 C818 1.449 . S
C819 C820 1.384 . S
C819 C844 1.553 . S
C820 C819 1.384 . S
C820 C821 1.364 . S
C820 C823 1.450 . S
C821 C816 1.367 . S
C821 C820 1.364 . S
C821 H881 0.931 . S
C822 C818 1.535 . S
C822 H882 0.959 . S
C822 H883 0.961 . S
C822 H884 0.959 . S
C823 C820 1.450 . S
C823 H885 0.960 . S
C823 H886 0.960 . S
C823 H887 0.960 . S
C824 C825 1.309 . S
C824 C829 1.304 . S
C824 O862 1.435 . S
C825 C824 1.309 . S
C825 C826 1.476 . S
C825 H889 0.930 . S
C826 C825 1.476 . S
C826 C827 1.400 . S
C826 C830 1.567 . S
C827 C826 1.400 . S
C827 C828 1.373 . S
C827 C849 1.432 . S
C828 C827 1.373 . S
C828 C829 1.339 . S
C828 C831 1.530 . S
C829 C824 1.304 . S
C829 C828 1.339 . S
C829 H890 0.930 . S
C830 C826 1.567 . S
C830 H891 0.961 . S
C830 H892 0.960 . S
C830 H893 0.958 . S
C831 C828 1.530 . S
C831 H894 0.961 . S
C831 H895 0.960 . S
C831 H896 0.960 . S
C832 C833 1.530 . S
C832 H898 0.961 . S
C832 H899 0.961 . S
C832 H900 0.959 . S
C833 C832 1.530 . S
C833 O861 1.412 . S
C833 H897 0.980 . S
C834 C835 1.288 . S
C834 C839 1.377 . S
C834 O861 1.393 . S
C835 C834 1.288 . S
C835 C836 1.369 . S
C835 H901 0.932 . S
C836 C835 1.369 . S
C836 C837 1.398 . S
C836 C840 1.527 . S
C837 C836 1.398 . S
C837 C838 1.380 . S
C837 C851 1.497 . S
C838 C837 1.380 . S
C838 C839 1.383 . S
C838 C841 1.603 . S
C839 C834 1.377 . S
C839 C838 1.383 . S
C839 H902 0.929 . S
C840 C836 1.527 . S
C840 H903 0.961 . S
C840 H904 0.959 . S
C840 H905 0.959 . S
C841 C838 1.603 . S
C841 H906 0.960 . S
C841 H907 0.962 . S
C841 H908 0.961 . S
C842 C809 1.587 . S
C842 C843 1.360 . S
C842 C855 1.412 . S
C843 C842 1.360 . S
C843 C844 1.365 . S
C843 H909 0.929 . S
C844 C819 1.553 . S
C844 C843 1.365 . S
C844 C845 1.404 . S
C845 C844 1.404 . S
C845 C846 1.395 . S
C845 C856 1.451 . S
C846 C845 1.395 . S
C846 C847 1.322 . S
C846 H910 0.930 . S
C847 C846 1.322 . S
C847 C848 1.459 . S
C847 H911 0.929 . S
C848 C847 1.459 . S
C848 C849 1.445 . S
C848 C857 1.395 . S
C849 C827 1.432 . S
C849 C848 1.445 . S
C849 C850 1.370 . S
C850 C849 1.370 . S
C850 C851 1.438 . S
C850 H912 0.930 . S
C851 C837 1.497 . S
C851 C850 1.438 . S
C851 C852 1.360 . S
C852 C851 1.360 . S
C852 C853 1.401 . S
C852 C857 1.446 . S
C853 C852 1.401 . S
C853 C854 1.347 . S
C853 H913 0.929 . S
C854 C853 1.347 . S
C854 C855 1.455 . S
C854 H914 0.930 . S
C855 C842 1.412 . S
C855 C854 1.455 . S
C855 C856 1.331 . S
C856 C845 1.451 . S
C856 C855 1.331 . S
C856 C857 1.497 . S
C857 C848 1.395 . S
C857 C852 1.446 . S
C857 C856 1.497 . S
C858 C859 1.582 . S
C858 H915 0.962 . S
C858 H916 0.959 . S
C858 H917 0.958 . S
C859 C858 1.582 . S
C859 O862 1.458 . S
C859 H888 0.980 . S
O860 C805 1.426 . S
O860 C806 1.334 . S
O861 C833 1.412 . S
O861 C834 1.393 . S
O862 C824 1.435 . S
O862 C859 1.458 . S
O863 C815 1.468 . S
O863 C816 1.408 . S
H864 C805 0.980 . S
H865 C804 0.959 . S
H866 C804 0.959 . S
H867 C804 0.960 . S
H868 C807 0.929 . S
H869 C811 0.929 . S
H870 C812 0.959 . S
H871 C812 0.961 . S
H872 C812 0.961 . S
H873 C813 0.960 . S
H874 C813 0.960 . S
H875 C813 0.961 . S
H876 C815 0.980 . S
H877 C814 0.961 . S
H878 C814 0.960 . S
H879 C814 0.959 . S
H880 C817 0.930 . S
H881 C821 0.931 . S
H882 C822 0.959 . S
H883 C822 0.961 . S
H884 C822 0.959 . S
H885 C823 0.960 . S
H886 C823 0.960 . S
H887 C823 0.960 . S
H888 C859 0.980 . S
H889 C825 0.930 . S
H890 C829 0.930 . S
H891 C830 0.961 . S
H892 C830 0.960 . S
H893 C830 0.958 . S
H894 C831 0.961 . S
H895 C831 0.960 . S
H896 C831 0.960 . S
H897 C833 0.980 . S
H898 C832 0.961 . S
H899 C832 0.961 . S
H900 C832 0.959 . S
H901 C835 0.932 . S
H902 C839 0.929 . S
H903 C840 0.961 . S
H904 C840 0.959 . S
H905 C840 0.959 . S
H906 C841 0.960 . S
H907 C841 0.962 . S
H908 C841 0.961 . S
H909 C843 0.929 . S
H910 C846 0.930 . S
H911 C847 0.929 . S
H912 C850 0.930 . S
H913 C853 0.929 . S
H914 C854 0.930 . S
H915 C858 0.962 . S
H916 C858 0.959 . S
H917 C858 0.958 . S
C918 C919 1.560 . S
C918 H979 0.959 . S
C918 H980 0.959 . S
C918 H981 0.960 . S
C919 C918 1.560 . S
C919 O974 1.426 . S
C919 H978 0.980 . S
C920 C921 1.407 . S
C920 C925 1.418 . S
C920 O974 1.334 . S
C921 C920 1.407 . S
C921 C922 1.360 . S
C921 H982 0.929 . S
C922 C921 1.360 . S
C922 C923 1.401 . S
C922 C926 1.527 . S
C923 C922 1.401 . S
C923 C924 1.405 . S
C923 C956 1.587 . S
C924 C923 1.405 . S
C924 C925 1.332 . S
C924 C927 1.496 . S
C925 C920 1.418 . S
C925 C924 1.332 . S
C925 H983 0.929 . S
C926 C922 1.527 . S
C926 H984 0.959 . S
C926 H985 0.961 . S
C926 H986 0.961 . S
C927 C924 1.496 . S
C927 H987 0.960 . S
C927 H988 0.960 . S
C927 H989 0.961 . S
C928 C929 1.517 . S
C928 H991 0.961 . S
C928 H992 0.960 . S
C928 H993 0.959 . S
C929 C928 1.517 . S
C929 O977 1.468 . S
C929 H990 0.980 . S
C930 C931 1.349 . S
C930 C935 1.367 . S
C930 O977 1.408 . S
C931 C930 1.349 . S
C931 C932 1.407 . S
C931 H994 0.930 . S
C932 C931 1.407 . S
C932 C933 1.449 . S
C932 C936 1.535 . S
C933 C932 1.449 . S
C933 C934 1.384 . S
C933 C958 1.553 . S
C934 C933 1.384 . S
C934 C935 1.364 . S
C934 C937 1.450 . S
C935 C930 1.367 . S
C935 C934 1.364 . S
C935 H995 0.931 . S
C936 C932 1.535 . S
C936 H996 0.959 . S
C936 H997 0.961 . S
C936 H998 0.959 . S
C937 C934 1.450 . S
C937 H999 0.960 . S
C937 H1000 0.960 . S
C937 H1001 0.960 . S
C938 C939 1.309 . S
C938 C943 1.304 . S
C938 O976 1.435 . S
C939 C938 1.309 . S
C939 C940 1.476 . S
C939 H1003 0.930 . S
C940 C939 1.476 . S
C940 C941 1.400 . S
C940 C944 1.567 . S
C941 C940 1.400 . S
C941 C942 1.373 . S
C941 C963 1.432 . S
C942 C941 1.373 . S
C942 C943 1.339 . S
C942 C945 1.530 . S
C943 C938 1.304 . S
C943 C942 1.339 . S
C943 H1004 0.930 . S
C944 C940 1.567 . S
C944 H1005 0.961 . S
C944 H1006 0.960 . S
C944 H1007 0.958 . S
C945 C942 1.530 . S
C945 H1008 0.961 . S
C945 H1009 0.960 . S
C945 H1010 0.960 . S
C946 C947 1.530 . S
C946 H1012 0.961 . S
C946 H1013 0.961 . S
C946 H1014 0.959 . S
C947 C946 1.530 . S
C947 O975 1.412 . S
C947 H1011 0.980 . S
C948 C949 1.288 . S
C948 C953 1.377 . S
C948 O975 1.393 . S
C949 C948 1.288 . S
C949 C950 1.369 . S
C949 H1015 0.932 . S
C950 C949 1.369 . S
C950 C951 1.398 . S
C950 C954 1.527 . S
C951 C950 1.398 . S
C951 C952 1.380 . S
C951 C965 1.497 . S
C952 C951 1.380 . S
C952 C953 1.383 . S
C952 C955 1.603 . S
C953 C948 1.377 . S
C953 C952 1.383 . S
C953 H1016 0.929 . S
C954 C950 1.527 . S
C954 H1017 0.961 . S
C954 H1018 0.959 . S
C954 H1019 0.959 . S
C955 C952 1.603 . S
C955 H1020 0.960 . S
C955 H1021 0.962 . S
C955 H1022 0.961 . S
C956 C923 1.587 . S
C956 C957 1.360 . S
C956 C969 1.412 . S
C957 C956 1.360 . S
C957 C958 1.365 . S
C957 H1023 0.929 . S
C958 C933 1.553 . S
C958 C957 1.365 . S
C958 C959 1.404 . S
C959 C958 1.404 . S
C959 C960 1.395 . S
C959 C970 1.451 . S
C960 C959 1.395 . S
C960 C961 1.322 . S
C960 H1024 0.930 . S
C961 C960 1.322 . S
C961 C962 1.459 . S
C961 H1025 0.929 . S
C962 C961 1.459 . S
C962 C963 1.445 . S
C962 C971 1.395 . S
C963 C941 1.432 . S
C963 C962 1.445 . S
C963 C964 1.370 . S
C964 C963 1.370 . S
C964 C965 1.438 . S
C964 H1026 0.930 . S
C965 C951 1.497 . S
C965 C964 1.438 . S
C965 C966 1.360 . S
C966 C965 1.360 . S
C966 C967 1.401 . S
C966 C971 1.446 . S
C967 C966 1.401 . S
C967 C968 1.347 . S
C967 H1027 0.929 . S
C968 C967 1.347 . S
C968 C969 1.455 . S
C968 H1028 0.930 . S
C969 C956 1.412 . S
C969 C968 1.455 . S
C969 C970 1.331 . S
C970 C959 1.451 . S
C970 C969 1.331 . S
C970 C971 1.497 . S
C971 C962 1.395 . S
C971 C966 1.446 . S
C971 C970 1.497 . S
C972 C973 1.582 . S
C972 H1029 0.962 . S
C972 H1030 0.959 . S
C972 H1031 0.958 . S
C973 C972 1.582 . S
C973 O976 1.458 . S
C973 H1002 0.980 . S
O974 C919 1.426 . S
O974 C920 1.334 . S
O975 C947 1.412 . S
O975 C948 1.393 . S
O976 C938 1.435 . S
O976 C973 1.458 . S
O977 C929 1.468 . S
O977 C930 1.408 . S
H978 C919 0.980 . S
H979 C918 0.959 . S
H980 C918 0.959 . S
H981 C918 0.960 . S
H982 C921 0.929 . S
H983 C925 0.929 . S
H984 C926 0.959 . S
H985 C926 0.961 . S
H986 C926 0.961 . S
H987 C927 0.960 . S
H988 C927 0.960 . S
H989 C927 0.961 . S
H990 C929 0.980 . S
H991 C928 0.961 . S
H992 C928 0.960 . S
H993 C928 0.959 . S
H994 C931 0.930 . S
H995 C935 0.931 . S
H996 C936 0.959 . S
H997 C936 0.961 . S
H998 C936 0.959 . S
H999 C937 0.960 . S
H1000 C937 0.960 . S
H1001 C937 0.960 . S
H1002 C973 0.980 . S
H1003 C939 0.930 . S
H1004 C943 0.930 . S
H1005 C944 0.961 . S
H1006 C944 0.960 . S
H1007 C944 0.958 . S
H1008 C945 0.961 . S
H1009 C945 0.960 . S
H1010 C945 0.960 . S
H1011 C947 0.980 . S
H1012 C946 0.961 . S
H1013 C946 0.961 . S
H1014 C946 0.959 . S
H1015 C949 0.932 . S
H1016 C953 0.929 . S
H1017 C954 0.961 . S
H1018 C954 0.959 . S
H1019 C954 0.959 . S
H1020 C955 0.960 . S
H1021 C955 0.962 . S
H1022 C955 0.961 . S
H1023 C957 0.929 . S
H1024 C960 0.930 . S
H1025 C961 0.929 . S
H1026 C964 0.930 . S
H1027 C967 0.929 . S
H1028 C968 0.930 . S
H1029 C972 0.962 . S
H1030 C972 0.959 . S
H1031 C972 0.958 . S
C1032 C1033 1.560 . S
C1032 H1093 0.959 . S
C1032 H1094 0.959 . S
C1032 H1095 0.960 . S
C1033 C1032 1.560 . S
C1033 O1088 1.426 . S
C1033 H1092 0.980 . S
C1034 C1035 1.407 . S
C1034 C1039 1.418 . S
C1034 O1088 1.334 . S
C1035 C1034 1.407 . S
C1035 C1036 1.360 . S
C1035 H1096 0.929 . S
C1036 C1035 1.360 . S
C1036 C1037 1.401 . S
C1036 C1040 1.527 . S
C1037 C1036 1.401 . S
C1037 C1038 1.405 . S
C1037 C1070 1.587 . S
C1038 C1037 1.405 . S
C1038 C1039 1.332 . S
C1038 C1041 1.496 . S
C1039 C1034 1.418 . S
C1039 C1038 1.332 . S
C1039 H1097 0.929 . S
C1040 C1036 1.527 . S
C1040 H1098 0.959 . S
C1040 H1099 0.961 . S
C1040 H1100 0.961 . S
C1041 C1038 1.496 . S
C1041 H1101 0.960 . S
C1041 H1102 0.960 . S
C1041 H1103 0.961 . S
C1042 C1043 1.517 . S
C1042 H1105 0.961 . S
C1042 H1106 0.960 . S
C1042 H1107 0.959 . S
C1043 C1042 1.517 . S
C1043 O1091 1.468 . S
C1043 H1104 0.980 . S
C1044 C1045 1.349 . S
C1044 C1049 1.367 . S
C1044 O1091 1.408 . S
C1045 C1044 1.349 . S
C1045 C1046 1.407 . S
C1045 H1108 0.930 . S
C1046 C1045 1.407 . S
C1046 C1047 1.449 . S
C1046 C1050 1.535 . S
C1047 C1046 1.449 . S
C1047 C1048 1.384 . S
C1047 C1072 1.553 . S
C1048 C1047 1.384 . S
C1048 C1049 1.364 . S
C1048 C1051 1.450 . S
C1049 C1044 1.367 . S
C1049 C1048 1.364 . S
C1049 H1109 0.931 . S
C1050 C1046 1.535 . S
C1050 H1110 0.959 . S
C1050 H1111 0.961 . S
C1050 H1112 0.959 . S
C1051 C1048 1.450 . S
C1051 H1113 0.960 . S
C1051 H1114 0.960 . S
C1051 H1115 0.960 . S
C1052 C1053 1.309 . S
C1052 C1057 1.304 . S
C1052 O1090 1.435 . S
C1053 C1052 1.309 . S
C1053 C1054 1.476 . S
C1053 H1117 0.930 . S
C1054 C1053 1.476 . S
C1054 C1055 1.400 . S
C1054 C1058 1.567 . S
C1055 C1054 1.400 . S
C1055 C1056 1.373 . S
C1055 C1077 1.432 . S
C1056 C1055 1.373 . S
C1056 C1057 1.339 . S
C1056 C1059 1.530 . S
C1057 C1052 1.304 . S
C1057 C1056 1.339 . S
C1057 H1118 0.930 . S
C1058 C1054 1.567 . S
C1058 H1119 0.961 . S
C1058 H1120 0.960 . S
C1058 H1121 0.958 . S
C1059 C1056 1.530 . S
C1059 H1122 0.961 . S
C1059 H1123 0.960 . S
C1059 H1124 0.960 . S
C1060 C1061 1.530 . S
C1060 H1126 0.961 . S
C1060 H1127 0.961 . S
C1060 H1128 0.959 . S
C1061 C1060 1.530 . S
C1061 O1089 1.412 . S
C1061 H1125 0.980 . S
C1062 C1063 1.288 . S
C1062 C1067 1.377 . S
C1062 O1089 1.393 . S
C1063 C1062 1.288 . S
C1063 C1064 1.369 . S
C1063 H1129 0.932 . S
C1064 C1063 1.369 . S
C1064 C1065 1.398 . S
C1064 C1068 1.527 . S
C1065 C1064 1.398 . S
C1065 C1066 1.380 . S
C1065 C1079 1.497 . S
C1066 C1065 1.380 . S
C1066 C1067 1.383 . S
C1066 C1069 1.603 . S
C1067 C1062 1.377 . S
C1067 C1066 1.383 . S
C1067 H1130 0.929 . S
C1068 C1064 1.527 . S
C1068 H1131 0.961 . S
C1068 H1132 0.959 . S
C1068 H1133 0.959 . S
C1069 C1066 1.603 . S
C1069 H1134 0.960 . S
C1069 H1135 0.962 . S
C1069 H1136 0.961 . S
C1070 C1037 1.587 . S
C1070 C1071 1.360 . S
C1070 C1083 1.412 . S
C1071 C1070 1.360 . S
C1071 C1072 1.365 . S
C1071 H1137 0.929 . S
C1072 C1047 1.553 . S
C1072 C1071 1.365 . S
C1072 C1073 1.404 . S
C1073 C1072 1.404 . S
C1073 C1074 1.395 . S
C1073 C1084 1.451 . S
C1074 C1073 1.395 . S
C1074 C1075 1.322 . S
C1074 H1138 0.930 . S
C1075 C1074 1.322 . S
C1075 C1076 1.459 . S
C1075 H1139 0.929 . S
C1076 C1075 1.459 . S
C1076 C1077 1.445 . S
C1076 C1085 1.395 . S
C1077 C1055 1.432 . S
C1077 C1076 1.445 . S
C1077 C1078 1.370 . S
C1078 C1077 1.370 . S
C1078 C1079 1.438 . S
C1078 H1140 0.930 . S
C1079 C1065 1.497 . S
C1079 C1078 1.438 . S
C1079 C1080 1.360 . S
C1080 C1079 1.360 . S
C1080 C1081 1.401 . S
C1080 C1085 1.446 . S
C1081 C1080 1.401 . S
C1081 C1082 1.347 . S
C1081 H1141 0.929 . S
C1082 C1081 1.347 . S
C1082 C1083 1.455 . S
C1082 H1142 0.930 . S
C1083 C1070 1.412 . S
C1083 C1082 1.455 . S
C1083 C1084 1.331 . S
C1084 C1073 1.451 . S
C1084 C1083 1.331 . S
C1084 C1085 1.497 . S
C1085 C1076 1.395 . S
C1085 C1080 1.446 . S
C1085 C1084 1.497 . S
C1086 C1087 1.582 . S
C1086 H1143 0.962 . S
C1086 H1144 0.959 . S
C1086 H1145 0.958 . S
C1087 C1086 1.582 . S
C1087 O1090 1.458 . S
C1087 H1116 0.980 . S
O1088 C1033 1.426 . S
O1088 C1034 1.334 . S
O1089 C1061 1.412 . S
O1089 C1062 1.393 . S
O1090 C1052 1.435 . S
O1090 C1087 1.458 . S
O1091 C1043 1.468 . S
O1091 C1044 1.408 . S
H1092 C1033 0.980 . S
H1093 C1032 0.959 . S
H1094 C1032 0.959 . S
H1095 C1032 0.960 . S
H1096 C1035 0.929 . S
H1097 C1039 0.929 . S
H1098 C1040 0.959 . S
H1099 C1040 0.961 . S
H1100 C1040 0.961 . S
H1101 C1041 0.960 . S
H1102 C1041 0.960 . S
H1103 C1041 0.961 . S
H1104 C1043 0.980 . S
H1105 C1042 0.961 . S
H1106 C1042 0.960 . S
H1107 C1042 0.959 . S
H1108 C1045 0.930 . S
H1109 C1049 0.931 . S
H1110 C1050 0.959 . S
H1111 C1050 0.961 . S
H1112 C1050 0.959 . S
H1113 C1051 0.960 . S
H1114 C1051 0.960 . S
H1115 C1051 0.960 . S
H1116 C1087 0.980 . S
H1117 C1053 0.930 . S
H1118 C1057 0.930 . S
H1119 C1058 0.961 . S
H1120 C1058 0.960 . S
H1121 C1058 0.958 . S
H1122 C1059 0.961 . S
H1123 C1059 0.960 . S
H1124 C1059 0.960 . S
H1125 C1061 0.980 . S
H1126 C1060 0.961 . S
H1127 C1060 0.961 . S
H1128 C1060 0.959 . S
H1129 C1063 0.932 . S
H1130 C1067 0.929 . S
H1131 C1068 0.961 . S
H1132 C1068 0.959 . S
H1133 C1068 0.959 . S
H1134 C1069 0.960 . S
H1135 C1069 0.962 . S
H1136 C1069 0.961 . S
H1137 C1071 0.929 . S
H1138 C1074 0.930 . S
H1139 C1075 0.929 . S
H1140 C1078 0.930 . S
H1141 C1081 0.929 . S
H1142 C1082 0.930 . S
H1143 C1086 0.962 . S
H1144 C1086 0.959 . S
H1145 C1086 0.958 . S
C1146 C1147 1.560 . S
C1146 H1207 0.959 . S
C1146 H1208 0.959 . S
C1146 H1209 0.960 . S
C1147 C1146 1.560 . S
C1147 O1202 1.426 . S
C1147 H1206 0.980 . S
C1148 C1149 1.407 . S
C1148 C1153 1.418 . S
C1148 O1202 1.334 . S
C1149 C1148 1.407 . S
C1149 C1150 1.360 . S
C1149 H1210 0.929 . S
C1150 C1149 1.360 . S
C1150 C1151 1.401 . S
C1150 C1154 1.527 . S
C1151 C1150 1.401 . S
C1151 C1152 1.405 . S
C1151 C1184 1.587 . S
C1152 C1151 1.405 . S
C1152 C1153 1.332 . S
C1152 C1155 1.496 . S
C1153 C1148 1.418 . S
C1153 C1152 1.332 . S
C1153 H1211 0.929 . S
C1154 C1150 1.527 . S
C1154 H1212 0.959 . S
C1154 H1213 0.961 . S
C1154 H1214 0.961 . S
C1155 C1152 1.496 . S
C1155 H1215 0.960 . S
C1155 H1216 0.960 . S
C1155 H1217 0.961 . S
C1156 C1157 1.517 . S
C1156 H1219 0.961 . S
C1156 H1220 0.960 . S
C1156 H1221 0.959 . S
C1157 C1156 1.517 . S
C1157 O1205 1.468 . S
C1157 H1218 0.980 . S
C1158 C1159 1.349 . S
C1158 C1163 1.367 . S
C1158 O1205 1.408 . S
C1159 C1158 1.349 . S
C1159 C1160 1.407 . S
C1159 H1222 0.930 . S
C1160 C1159 1.407 . S
C1160 C1161 1.449 . S
C1160 C1164 1.535 . S
C1161 C1160 1.449 . S
C1161 C1162 1.384 . S
C1161 C1186 1.553 . S
C1162 C1161 1.384 . S
C1162 C1163 1.364 . S
C1162 C1165 1.450 . S
C1163 C1158 1.367 . S
C1163 C1162 1.364 . S
C1163 H1223 0.931 . S
C1164 C1160 1.535 . S
C1164 H1224 0.959 . S
C1164 H1225 0.961 . S
C1164 H1226 0.959 . S
C1165 C1162 1.450 . S
C1165 H1227 0.960 . S
C1165 H1228 0.960 . S
C1165 H1229 0.960 . S
C1166 C1167 1.309 . S
C1166 C1171 1.304 . S
C1166 O1204 1.435 . S
C1167 C1166 1.309 . S
C1167 C1168 1.476 . S
C1167 H1231 0.930 . S
C1168 C1167 1.476 . S
C1168 C1169 1.400 . S
C1168 C1172 1.567 . S
C1169 C1168 1.400 . S
C1169 C1170 1.373 . S
C1169 C1191 1.432 . S
C1170 C1169 1.373 . S
C1170 C1171 1.339 . S
C1170 C1173 1.530 . S
C1171 C1166 1.304 . S
C1171 C1170 1.339 . S
C1171 H1232 0.930 . S
C1172 C1168 1.567 . S
C1172 H1233 0.961 . S
C1172 H1234 0.960 . S
C1172 H1235 0.958 . S
C1173 C1170 1.530 . S
C1173 H1236 0.961 . S
C1173 H1237 0.960 . S
C1173 H1238 0.960 . S
C1174 C1175 1.530 . S
C1174 H1240 0.961 . S
C1174 H1241 0.961 . S
C1174 H1242 0.959 . S
C1175 C1174 1.530 . S
C1175 O1203 1.412 . S
C1175 H1239 0.980 . S
C1176 C1177 1.288 . S
C1176 C1181 1.377 . S
C1176 O1203 1.393 . S
C1177 C1176 1.288 . S
C1177 C1178 1.369 . S
C1177 H1243 0.932 . S
C1178 C1177 1.369 . S
C1178 C1179 1.398 . S
C1178 C1182 1.527 . S
C1179 C1178 1.398 . S
C1179 C1180 1.380 . S
C1179 C1193 1.497 . S
C1180 C1179 1.380 . S
C1180 C1181 1.383 . S
C1180 C1183 1.603 . S
C1181 C1176 1.377 . S
C1181 C1180 1.383 . S
C1181 H1244 0.929 . S
C1182 C1178 1.527 . S
C1182 H1245 0.961 . S
C1182 H1246 0.959 . S
C1182 H1247 0.959 . S
C1183 C1180 1.603 . S
C1183 H1248 0.960 . S
C1183 H1249 0.962 . S
C1183 H1250 0.961 . S
C1184 C1151 1.587 . S
C1184 C1185 1.360 . S
C1184 C1197 1.412 . S
C1185 C1184 1.360 . S
C1185 C1186 1.365 . S
C1185 H1251 0.929 . S
C1186 C1161 1.553 . S
C1186 C1185 1.365 . S
C1186 C1187 1.404 . S
C1187 C1186 1.404 . S
C1187 C1188 1.395 . S
C1187 C1198 1.451 . S
C1188 C1187 1.395 . S
C1188 C1189 1.322 . S
C1188 H1252 0.930 . S
C1189 C1188 1.322 . S
C1189 C1190 1.459 . S
C1189 H1253 0.929 . S
C1190 C1189 1.459 . S
C1190 C1191 1.445 . S
C1190 C1199 1.395 . S
C1191 C1169 1.432 . S
C1191 C1190 1.445 . S
C1191 C1192 1.370 . S
C1192 C1191 1.370 . S
C1192 C1193 1.438 . S
C1192 H1254 0.930 . S
C1193 C1179 1.497 . S
C1193 C1192 1.438 . S
C1193 C1194 1.360 . S
C1194 C1193 1.360 . S
C1194 C1195 1.401 . S
C1194 C1199 1.446 . S
C1195 C1194 1.401 . S
C1195 C1196 1.347 . S
C1195 H1255 0.929 . S
C1196 C1195 1.347 . S
C1196 C1197 1.455 . S
C1196 H1256 0.930 . S
C1197 C1184 1.412 . S
C1197 C1196 1.455 . S
C1197 C1198 1.331 . S
C1198 C1187 1.451 . S
C1198 C1197 1.331 . S
C1198 C1199 1.497 . S
C1199 C1190 1.395 . S
C1199 C1194 1.446 . S
C1199 C1198 1.497 . S
C1200 C1201 1.582 . S
C1200 H1257 0.962 . S
C1200 H1258 0.959 . S
C1200 H1259 0.958 . S
C1201 C1200 1.582 . S
C1201 O1204 1.458 . S
C1201 H1230 0.980 . S
O1202 C1147 1.426 . S
O1202 C1148 1.334 . S
O1203 C1175 1.412 . S
O1203 C1176 1.393 . S
O1204 C1166 1.435 . S
O1204 C1201 1.458 . S
O1205 C1157 1.468 . S
O1205 C1158 1.408 . S
H1206 C1147 0.980 . S
H1207 C1146 0.959 . S
H1208 C1146 0.959 . S
H1209 C1146 0.960 . S
H1210 C1149 0.929 . S
H1211 C1153 0.929 . S
H1212 C1154 0.959 . S
H1213 C1154 0.961 . S
H1214 C1154 0.961 . S
H1215 C1155 0.960 . S
H1216 C1155 0.960 . S
H1217 C1155 0.961 . S
H1218 C1157 0.980 . S
H1219 C1156 0.961 . S
H1220 C1156 0.960 . S
H1221 C1156 0.959 . S
H1222 C1159 0.930 . S
H1223 C1163 0.931 . S
H1224 C1164 0.959 . S
H1225 C1164 0.961 . S
H1226 C1164 0.959 . S
H1227 C1165 0.960 . S
H1228 C1165 0.960 . S
H1229 C1165 0.960 . S
H1230 C1201 0.980 . S
H1231 C1167 0.930 . S
H1232 C1171 0.930 . S
H1233 C1172 0.961 . S
H1234 C1172 0.960 . S
H1235 C1172 0.958 . S
H1236 C1173 0.961 . S
H1237 C1173 0.960 . S
H1238 C1173 0.960 . S
H1239 C1175 0.980 . S
H1240 C1174 0.961 . S
H1241 C1174 0.961 . S
H1242 C1174 0.959 . S
H1243 C1177 0.932 . S
H1244 C1181 0.929 . S
H1245 C1182 0.961 . S
H1246 C1182 0.959 . S
H1247 C1182 0.959 . S
H1248 C1183 0.960 . S
H1249 C1183 0.962 . S
H1250 C1183 0.961 . S
H1251 C1185 0.929 . S
H1252 C1188 0.930 . S
H1253 C1189 0.929 . S
H1254 C1192 0.930 . S
H1255 C1195 0.929 . S
H1256 C1196 0.930 . S
H1257 C1200 0.962 . S
H1258 C1200 0.959 . S
H1259 C1200 0.958 . S
C1260 C1261 1.560 . S
C1260 H1321 0.959 . S
C1260 H1322 0.959 . S
C1260 H1323 0.960 . S
C1261 C1260 1.560 . S
C1261 O1316 1.426 . S
C1261 H1320 0.980 . S
C1262 C1263 1.407 1_455 S
C1262 C1267 1.418 . S
C1262 O1316 1.334 . S
C1263 C1262 1.407 1_655 S
C1263 C1264 1.360 . S
C1263 H1324 0.929 . S
C1264 C1263 1.360 . S
C1264 C1265 1.401 1_655 S
C1264 C1268 1.527 . S
C1265 C1264 1.401 1_455 S
C1265 C1266 1.405 . S
C1265 C1298 1.587 1_455 S
C1266 C1265 1.405 . S
C1266 C1267 1.332 . S
C1266 C1269 1.496 . S
C1267 C1262 1.418 . S
C1267 C1266 1.332 . S
C1267 H1325 0.929 . S
C1268 C1264 1.527 . S
C1268 H1326 0.959 . S
C1268 H1327 0.961 . S
C1268 H1328 0.961 . S
C1269 C1266 1.496 . S
C1269 H1329 0.960 . S
C1269 H1330 0.960 . S
C1269 H1331 0.961 . S
C1270 C1271 1.517 . S
C1270 H1333 0.961 . S
C1270 H1334 0.960 . S
C1270 H1335 0.959 . S
C1271 C1270 1.517 . S
C1271 O1319 1.468 . S
C1271 H1332 0.949 1_655 S
C1272 C1273 1.349 . S
C1272 C1277 1.367 . S
C1272 O1319 1.408 . S
C1273 C1272 1.349 . S
C1273 C1274 1.400 1_655 S
C1273 H1336 0.930 1_655 S
C1274 C1273 1.400 1_455 S
C1274 C1275 1.444 1_455 S
C1274 C1278 1.547 . S
C1275 C1274 1.444 1_655 S
C1275 C1276 1.384 . S
C1275 C1300 1.553 . S
C1276 C1275 1.384 . S
C1276 C1277 1.364 . S
C1276 C1279 1.450 . S
C1277 C1272 1.367 . S
C1277 C1276 1.364 . S
C1277 H1337 0.931 . S
C1278 C1274 1.547 . S
C1278 H1338 0.959 . S
C1278 H1339 0.961 . S
C1278 H1340 0.959 . S
C1279 C1276 1.450 . S
C1279 H1341 0.960 . S
C1279 H1342 0.960 . S
C1279 H1343 0.960 . S
C1280 C1281 1.309 . S
C1280 C1285 1.304 . S
C1280 O1318 1.435 . S
C1281 C1280 1.309 . S
C1281 C1282 1.487 . S
C1281 H1345 0.930 1_655 S
C1282 C1281 1.487 . S
C1282 C1283 1.406 . S
C1282 C1286 1.549 1_655 S
C1283 C1282 1.406 . S
C1283 C1284 1.373 . S
C1283 C1305 1.432 . S
C1284 C1283 1.373 . S
C1284 C1285 1.339 . S
C1284 C1287 1.530 . S
C1285 C1280 1.304 . S
C1285 C1284 1.339 . S
C1285 H1346 0.930 . S
C1286 C1282 1.549 1_455 S
C1286 H1347 0.961 . S
C1286 H1348 0.960 . S
C1286 H1349 0.958 . S
C1287 C1284 1.530 . S
C1287 H1350 0.961 . S
C1287 H1351 0.960 . S
C1287 H1352 0.960 . S
C1288 C1289 1.530 . S
C1288 H1354 0.961 . S
C1288 H1355 0.961 . S
C1288 H1356 0.959 . S
C1289 C1288 1.530 . S
C1289 O1317 1.412 . S
C1289 H1353 0.980 1_455 S
C1290 C1291 1.288 . S
C1290 C1295 1.377 1_455 S
C1290 O1317 1.393 . S
C1291 C1290 1.288 . S
C1291 C1292 1.369 . S
C1291 H1357 0.932 . S
C1292 C1291 1.369 . S
C1292 C1293 1.327 1_455 S
C1292 C1296 1.527 . S
C1293 C1292 1.327 1_655 S
C1293 C1294 1.401 . S
C1293 C1307 1.548 . S
C1294 C1293 1.401 . S
C1294 C1295 1.383 . S
C1294 C1297 1.603 . S
C1295 C1290 1.377 1_655 S
C1295 C1294 1.383 . S
C1295 H1358 0.929 . S
C1296 C1292 1.527 . S
C1296 H1359 0.961 . S
C1296 H1360 0.959 . S
C1296 H1361 0.959 . S
C1297 C1294 1.603 . S
C1297 H1362 0.960 . S
C1297 H1363 0.962 . S
C1297 H1364 0.961 . S
C1298 C1265 1.587 1_655 S
C1298 C1299 1.360 . S
C1298 C1311 1.412 . S
C1299 C1298 1.360 . S
C1299 C1300 1.365 . S
C1299 H1365 0.929 . S
C1300 C1275 1.553 . S
C1300 C1299 1.365 . S
C1300 C1301 1.404 . S
C1301 C1300 1.404 . S
C1301 C1302 1.395 . S
C1301 C1312 1.451 . S
C1302 C1301 1.395 . S
C1302 C1303 1.322 . S
C1302 H1366 0.930 . S
C1303 C1302 1.322 . S
C1303 C1304 1.459 . S
C1303 H1367 0.929 . S
C1304 C1303 1.459 . S
C1304 C1305 1.445 . S
C1304 C1313 1.395 . S
C1305 C1283 1.432 . S
C1305 C1304 1.445 . S
C1305 C1306 1.370 . S
C1306 C1305 1.370 . S
C1306 C1307 1.438 . S
C1306 H1368 0.930 . S
C1307 C1293 1.548 . S
C1307 C1306 1.438 . S
C1307 C1308 1.360 . S
C1308 C1307 1.360 . S
C1308 C1309 1.401 . S
C1308 C1313 1.446 . S
C1309 C1308 1.401 . S
C1309 C1310 1.347 . S
C1309 H1369 0.969 . S
C1310 C1309 1.347 . S
C1310 C1311 1.455 . S
C1310 H1370 0.968 . S
C1311 C1298 1.412 . S
C1311 C1310 1.455 . S
C1311 C1312 1.331 . S
C1312 C1301 1.451 . S
C1312 C1311 1.331 . S
C1312 C1313 1.497 . S
C1313 C1304 1.395 . S
C1313 C1308 1.446 . S
C1313 C1312 1.497 . S
C1314 C1315 1.582 . S
C1314 H1371 0.962 . S
C1314 H1372 0.959 . S
C1314 H1373 0.958 . S
C1315 C1314 1.582 . S
C1315 O1318 1.458 . S
C1315 H1344 0.980 . S
O1316 C1261 1.426 . S
O1316 C1262 1.334 . S
O1317 C1289 1.412 . S
O1317 C1290 1.393 . S
O1318 C1280 1.435 . S
O1318 C1315 1.458 . S
O1319 C1271 1.468 . S
O1319 C1272 1.408 . S
H1320 C1261 0.980 . S
H1321 C1260 0.959 . S
H1322 C1260 0.959 . S
H1323 C1260 0.960 . S
H1324 C1263 0.929 . S
H1325 C1267 0.929 . S
H1326 C1268 0.959 . S
H1327 C1268 0.961 . S
H1328 C1268 0.961 . S
H1329 C1269 0.960 . S
H1330 C1269 0.960 . S
H1331 C1269 0.961 . S
H1332 C1271 0.949 1_455 S
H1333 C1270 0.961 . S
H1334 C1270 0.960 . S
H1335 C1270 0.959 . S
H1336 C1273 0.930 1_455 S
H1337 C1277 0.931 . S
H1338 C1278 0.959 . S
H1339 C1278 0.961 . S
H1340 C1278 0.959 . S
H1341 C1279 0.960 . S
H1342 C1279 0.960 . S
H1343 C1279 0.960 . S
H1344 C1315 0.980 . S
H1345 C1281 0.930 1_455 S
H1346 C1285 0.930 . S
H1347 C1286 0.961 . S
H1348 C1286 0.960 . S
H1349 C1286 0.958 . S
H1350 C1287 0.961 . S
H1351 C1287 0.960 . S
H1352 C1287 0.960 . S
H1353 C1289 0.980 1_655 S
H1354 C1288 0.961 . S
H1355 C1288 0.961 . S
H1356 C1288 0.959 . S
H1357 C1291 0.932 . S
H1358 C1295 0.929 . S
H1359 C1296 0.961 . S
H1360 C1296 0.959 . S
H1361 C1296 0.959 . S
H1362 C1297 0.960 . S
H1363 C1297 0.962 . S
H1364 C1297 0.961 . S
H1365 C1299 0.929 . S
H1366 C1302 0.930 . S
H1367 C1303 0.929 . S
H1368 C1306 0.930 . S
H1369 C1309 0.969 . S
H1370 C1310 0.968 . S
H1371 C1314 0.962 . S
H1372 C1314 0.959 . S
H1373 C1314 0.958 . S
C1374 C1375 1.560 . S
C1374 H1435 0.959 . S
C1374 H1436 0.959 . S
C1374 H1437 0.960 . S
C1375 C1374 1.560 . S
C1375 O1430 1.426 . S
C1375 H1434 0.980 . S
C1376 C1377 1.407 . S
C1376 C1381 1.418 . S
C1376 O1430 1.334 . S
C1377 C1376 1.407 . S
C1377 C1378 1.360 . S
C1377 H1438 0.929 . S
C1378 C1377 1.360 . S
C1378 C1379 1.401 . S
C1378 C1382 1.527 . S
C1379 C1378 1.401 . S
C1379 C1380 1.405 . S
C1379 C1412 1.587 . S
C1380 C1379 1.405 . S
C1380 C1381 1.332 . S
C1380 C1383 1.496 . S
C1381 C1376 1.418 . S
C1381 C1380 1.332 . S
C1381 H1439 0.929 . S
C1382 C1378 1.527 . S
C1382 H1440 0.959 . S
C1382 H1441 0.961 . S
C1382 H1442 0.961 . S
C1383 C1380 1.496 . S
C1383 H1443 0.960 . S
C1383 H1444 0.960 . S
C1383 H1445 0.961 . S
C1384 C1385 1.517 . S
C1384 H1447 0.961 . S
C1384 H1448 0.960 . S
C1384 H1449 0.959 . S
C1385 C1384 1.517 . S
C1385 O1433 1.468 . S
C1385 H1446 0.980 . S
C1386 C1387 1.349 . S
C1386 C1391 1.367 . S
C1386 O1433 1.408 . S
C1387 C1386 1.349 . S
C1387 C1388 1.407 . S
C1387 H1450 0.930 . S
C1388 C1387 1.407 . S
C1388 C1389 1.449 . S
C1388 C1392 1.535 . S
C1389 C1388 1.449 . S
C1389 C1390 1.384 . S
C1389 C1414 1.553 . S
C1390 C1389 1.384 . S
C1390 C1391 1.364 . S
C1390 C1393 1.450 . S
C1391 C1386 1.367 . S
C1391 C1390 1.364 . S
C1391 H1451 0.931 . S
C1392 C1388 1.535 . S
C1392 H1452 0.959 . S
C1392 H1453 0.961 . S
C1392 H1454 0.959 . S
C1393 C1390 1.450 . S
C1393 H1455 0.960 . S
C1393 H1456 0.960 . S
C1393 H1457 0.960 . S
C1394 C1395 1.309 . S
C1394 C1399 1.304 . S
C1394 O1432 1.435 . S
C1395 C1394 1.309 . S
C1395 C1396 1.476 . S
C1395 H1459 0.930 . S
C1396 C1395 1.476 . S
C1396 C1397 1.400 . S
C1396 C1400 1.567 . S
C1397 C1396 1.400 . S
C1397 C1398 1.373 . S
C1397 C1419 1.432 . S
C1398 C1397 1.373 . S
C1398 C1399 1.339 . S
C1398 C1401 1.530 . S
C1399 C1394 1.304 . S
C1399 C1398 1.339 . S
C1399 H1460 0.930 . S
C1400 C1396 1.567 . S
C1400 H1461 0.961 . S
C1400 H1462 0.960 . S
C1400 H1463 0.958 . S
C1401 C1398 1.530 . S
C1401 H1464 0.961 . S
C1401 H1465 0.960 . S
C1401 H1466 0.960 . S
C1402 C1403 1.530 . S
C1402 H1468 0.961 . S
C1402 H1469 0.961 . S
C1402 H1470 0.959 . S
C1403 C1402 1.530 . S
C1403 O1431 1.412 . S
C1403 H1467 0.980 . S
C1404 C1405 1.288 . S
C1404 C1409 1.377 . S
C1404 O1431 1.393 . S
C1405 C1404 1.288 . S
C1405 C1406 1.369 . S
C1405 H1471 0.932 . S
C1406 C1405 1.369 . S
C1406 C1407 1.398 . S
C1406 C1410 1.527 . S
C1407 C1406 1.398 . S
C1407 C1408 1.380 . S
C1407 C1421 1.497 . S
C1408 C1407 1.380 . S
C1408 C1409 1.383 . S
C1408 C1411 1.603 . S
C1409 C1404 1.377 . S
C1409 C1408 1.383 . S
C1409 H1472 0.929 . S
C1410 C1406 1.527 . S
C1410 H1473 0.961 . S
C1410 H1474 0.959 . S
C1410 H1475 0.959 . S
C1411 C1408 1.603 . S
C1411 H1476 0.960 . S
C1411 H1477 0.962 . S
C1411 H1478 0.961 . S
C1412 C1379 1.587 . S
C1412 C1413 1.360 . S
C1412 C1425 1.412 . S
C1413 C1412 1.360 . S
C1413 C1414 1.365 . S
C1413 H1479 0.929 . S
C1414 C1389 1.553 . S
C1414 C1413 1.365 . S
C1414 C1415 1.404 . S
C1415 C1414 1.404 . S
C1415 C1416 1.395 . S
C1415 C1426 1.451 . S
C1416 C1415 1.395 . S
C1416 C1417 1.322 . S
C1416 H1480 0.930 . S
C1417 C1416 1.322 . S
C1417 C1418 1.459 . S
C1417 H1481 0.929 . S
C1418 C1417 1.459 . S
C1418 C1419 1.445 . S
C1418 C1427 1.395 . S
C1419 C1397 1.432 . S
C1419 C1418 1.445 . S
C1419 C1420 1.370 . S
C1420 C1419 1.370 . S
C1420 C1421 1.438 . S
C1420 H1482 0.930 . S
C1421 C1407 1.497 . S
C1421 C1420 1.438 . S
C1421 C1422 1.360 . S
C1422 C1421 1.360 . S
C1422 C1423 1.401 . S
C1422 C1427 1.446 . S
C1423 C1422 1.401 . S
C1423 C1424 1.347 . S
C1423 H1483 0.929 . S
C1424 C1423 1.347 . S
C1424 C1425 1.455 . S
C1424 H1484 0.930 . S
C1425 C1412 1.412 . S
C1425 C1424 1.455 . S
C1425 C1426 1.331 . S
C1426 C1415 1.451 . S
C1426 C1425 1.331 . S
C1426 C1427 1.497 . S
C1427 C1418 1.395 . S
C1427 C1422 1.446 . S
C1427 C1426 1.497 . S
C1428 C1429 1.582 . S
C1428 H1485 0.962 . S
C1428 H1486 0.959 . S
C1428 H1487 0.958 . S
C1429 C1428 1.582 . S
C1429 O1432 1.458 . S
C1429 H1458 0.980 . S
O1430 C1375 1.426 . S
O1430 C1376 1.334 . S
O1431 C1403 1.412 . S
O1431 C1404 1.393 . S
O1432 C1394 1.435 . S
O1432 C1429 1.458 . S
O1433 C1385 1.468 . S
O1433 C1386 1.408 . S
H1434 C1375 0.980 . S
H1435 C1374 0.959 . S
H1436 C1374 0.959 . S
H1437 C1374 0.960 . S
H1438 C1377 0.929 . S
H1439 C1381 0.929 . S
H1440 C1382 0.959 . S
H1441 C1382 0.961 . S
H1442 C1382 0.961 . S
H1443 C1383 0.960 . S
H1444 C1383 0.960 . S
H1445 C1383 0.961 . S
H1446 C1385 0.980 . S
H1447 C1384 0.961 . S
H1448 C1384 0.960 . S
H1449 C1384 0.959 . S
H1450 C1387 0.930 . S
H1451 C1391 0.931 . S
H1452 C1392 0.959 . S
H1453 C1392 0.961 . S
H1454 C1392 0.959 . S
H1455 C1393 0.960 . S
H1456 C1393 0.960 . S
H1457 C1393 0.960 . S
H1458 C1429 0.980 . S
H1459 C1395 0.930 . S
H1460 C1399 0.930 . S
H1461 C1400 0.961 . S
H1462 C1400 0.960 . S
H1463 C1400 0.958 . S
H1464 C1401 0.961 . S
H1465 C1401 0.960 . S
H1466 C1401 0.960 . S
H1467 C1403 0.980 . S
H1468 C1402 0.961 . S
H1469 C1402 0.961 . S
H1470 C1402 0.959 . S
H1471 C1405 0.932 . S
H1472 C1409 0.929 . S
H1473 C1410 0.961 . S
H1474 C1410 0.959 . S
H1475 C1410 0.959 . S
H1476 C1411 0.960 . S
H1477 C1411 0.962 . S
H1478 C1411 0.961 . S
H1479 C1413 0.929 . S
H1480 C1416 0.930 . S
H1481 C1417 0.929 . S
H1482 C1420 0.930 . S
H1483 C1423 0.929 . S
H1484 C1424 0.930 . S
H1485 C1428 0.962 . S
H1486 C1428 0.959 . S
H1487 C1428 0.958 . S
C1488 C1489 1.560 . S
C1488 H1549 0.959 . S
C1488 H1550 0.959 . S
C1488 H1551 0.960 . S
C1489 C1488 1.560 . S
C1489 O1544 1.426 . S
C1489 H1548 0.980 . S
C1490 C1491 1.407 1_565 S
C1490 C1495 1.418 . S
C1490 O1544 1.334 . S
C1491 C1490 1.407 1_545 S
C1491 C1492 1.360 . S
C1491 H1552 0.929 . S
C1492 C1491 1.360 . S
C1492 C1493 1.401 1_545 S
C1492 C1496 1.527 . S
C1493 C1492 1.401 1_565 S
C1493 C1494 1.405 . S
C1493 C1526 1.587 1_565 S
C1494 C1493 1.405 . S
C1494 C1495 1.332 . S
C1494 C1497 1.496 . S
C1495 C1490 1.418 . S
C1495 C1494 1.332 . S
C1495 H1553 0.929 . S
C1496 C1492 1.527 . S
C1496 H1554 0.959 . S
C1496 H1555 0.961 . S
C1496 H1556 0.961 . S
C1497 C1494 1.496 . S
C1497 H1557 0.960 . S
C1497 H1558 0.960 . S
C1497 H1559 0.961 . S
C1498 C1499 1.517 . S
C1498 H1561 0.961 1_545 S
C1498 H1562 0.960 . S
C1498 H1563 0.959 . S
C1499 C1498 1.517 . S
C1499 O1547 1.468 . S
C1499 H1560 0.980 1_545 S
C1500 C1501 1.329 1_545 S
C1500 C1505 1.367 . S
C1500 O1547 1.408 . S
C1501 C1500 1.329 1_565 S
C1501 C1502 1.393 . S
C1501 H1564 0.966 . S
C1502 C1501 1.393 . S
C1502 C1503 1.449 1_565 S
C1502 C1506 1.535 . S
C1503 C1502 1.449 1_545 S
C1503 C1504 1.384 . S
C1503 C1528 1.553 . S
C1504 C1503 1.384 . S
C1504 C1505 1.364 . S
C1504 C1507 1.450 . S
C1505 C1500 1.367 . S
C1505 C1504 1.364 . S
C1505 H1565 0.931 . S
C1506 C1502 1.535 . S
C1506 H1566 0.959 . S
C1506 H1567 0.961 . S
C1506 H1568 0.959 . S
C1507 C1504 1.450 . S
C1507 H1569 0.960 . S
C1507 H1570 0.960 . S
C1507 H1571 0.960 . S
C1508 C1509 1.309 . S
C1508 C1513 1.304 . S
C1508 O1546 1.435 . S
C1509 C1508 1.309 . S
C1509 C1510 1.494 1_545 S
C1509 H1573 0.930 1_545 S
C1510 C1509 1.494 1_565 S
C1510 C1511 1.346 1_565 S
C1510 C1514 1.604 . S
C1511 C1510 1.346 1_545 S
C1511 C1512 1.373 . S
C1511 C1533 1.432 . S
C1512 C1511 1.373 . S
C1512 C1513 1.339 . S
C1512 C1515 1.530 . S
C1513 C1508 1.304 . S
C1513 C1512 1.339 . S
C1513 H1574 0.930 . S
C1514 C1510 1.604 . S
C1514 H1575 0.961 . S
C1514 H1576 0.960 . S
C1514 H1577 0.958 . S
C1515 C1512 1.530 . S
C1515 H1578 0.961 . S
C1515 H1579 0.960 . S
C1515 H1580 0.960 . S
C1516 C1517 1.530 1_565 S
C1516 H1582 1.019 . S
C1516 H1583 0.961 . S
C1516 H1584 0.959 . S
C1517 C1516 1.530 1_545 S
C1517 O1545 1.412 1_545 S
C1517 H1581 0.980 . S
C1518 C1519 1.288 . S
C1518 C1523 1.377 1_565 S
C1518 O1545 1.393 . S
C1519 C1518 1.288 . S
C1519 C1520 1.369 . S
C1519 H1585 0.932 . S
C1520 C1519 1.369 . S
C1520 C1521 1.398 1_565 S
C1520 C1524 1.527 . S
C1521 C1520 1.398 1_545 S
C1521 C1522 1.380 . S
C1521 C1535 1.497 . S
C1522 C1521 1.380 . S
C1522 C1523 1.383 . S
C1522 C1525 1.603 . S
C1523 C1518 1.377 1_545 S
C1523 C1522 1.383 . S
C1523 H1586 0.929 . S
C1524 C1520 1.527 . S
C1524 H1587 0.961 . S
C1524 H1588 0.959 . S
C1524 H1589 0.959 . S
C1525 C1522 1.603 . S
C1525 H1590 0.960 . S
C1525 H1591 0.962 . S
C1525 H1592 0.961 . S
C1526 C1493 1.587 1_545 S
C1526 C1527 1.360 . S
C1526 C1539 1.412 . S
C1527 C1526 1.360 . S
C1527 C1528 1.365 . S
C1527 H1593 0.929 . S
C1528 C1503 1.553 . S
C1528 C1527 1.365 . S
C1528 C1529 1.404 . S
C1529 C1528 1.404 . S
C1529 C1530 1.395 . S
C1529 C1540 1.451 . S
C1530 C1529 1.395 . S
C1530 C1531 1.322 . S
C1530 H1594 0.930 . S
C1531 C1530 1.322 . S
C1531 C1532 1.459 . S
C1531 H1595 0.929 . S
C1532 C1531 1.459 . S
C1532 C1533 1.445 . S
C1532 C1541 1.395 . S
C1533 C1511 1.432 . S
C1533 C1532 1.445 . S
C1533 C1534 1.370 . S
C1534 C1533 1.370 . S
C1534 C1535 1.438 . S
C1534 H1596 0.930 . S
C1535 C1521 1.497 . S
C1535 C1534 1.438 . S
C1535 C1536 1.360 . S
C1536 C1535 1.360 . S
C1536 C1537 1.401 . S
C1536 C1541 1.446 . S
C1537 C1536 1.401 . S
C1537 C1538 1.347 . S
C1537 H1597 0.929 . S
C1538 C1537 1.347 . S
C1538 C1539 1.455 . S
C1538 H1598 0.930 . S
C1539 C1526 1.412 . S
C1539 C1538 1.455 . S
C1539 C1540 1.331 . S
C1540 C1529 1.451 . S
C1540 C1539 1.331 . S
C1540 C1541 1.497 . S
C1541 C1532 1.395 . S
C1541 C1536 1.446 . S
C1541 C1540 1.497 . S
C1542 C1543 1.582 . S
C1542 H1599 0.962 . S
C1542 H1600 0.959 . S
C1542 H1601 0.958 . S
C1543 C1542 1.582 . S
C1543 O1546 1.458 . S
C1543 H1572 0.980 . S
O1544 C1489 1.426 . S
O1544 C1490 1.334 . S
O1545 C1517 1.412 1_565 S
O1545 C1518 1.393 . S
O1546 C1508 1.435 . S
O1546 C1543 1.458 . S
O1547 C1499 1.468 . S
O1547 C1500 1.408 . S
H1548 C1489 0.980 . S
H1549 C1488 0.959 . S
H1550 C1488 0.959 . S
H1551 C1488 0.960 . S
H1552 C1491 0.929 . S
H1553 C1495 0.929 . S
H1554 C1496 0.959 . S
H1555 C1496 0.961 . S
H1556 C1496 0.961 . S
H1557 C1497 0.960 . S
H1558 C1497 0.960 . S
H1559 C1497 0.961 . S
H1560 C1499 0.980 1_565 S
H1561 C1498 0.961 1_565 S
H1562 C1498 0.960 . S
H1563 C1498 0.959 . S
H1564 C1501 0.966 . S
H1565 C1505 0.931 . S
H1566 C1506 0.959 . S
H1567 C1506 0.961 . S
H1568 C1506 0.959 . S
H1569 C1507 0.960 . S
H1570 C1507 0.960 . S
H1571 C1507 0.960 . S
H1572 C1543 0.980 . S
H1573 C1509 0.930 1_565 S
H1574 C1513 0.930 . S
H1575 C1514 0.961 . S
H1576 C1514 0.960 . S
H1577 C1514 0.958 . S
H1578 C1515 0.961 . S
H1579 C1515 0.960 . S
H1580 C1515 0.960 . S
H1581 C1517 0.980 . S
H1582 C1516 1.019 . S
H1583 C1516 0.961 . S
H1584 C1516 0.959 . S
H1585 C1519 0.932 . S
H1586 C1523 0.929 . S
H1587 C1524 0.961 . S
H1588 C1524 0.959 . S
H1589 C1524 0.959 . S
H1590 C1525 0.960 . S
H1591 C1525 0.962 . S
H1592 C1525 0.961 . S
H1593 C1527 0.929 . S
H1594 C1530 0.930 . S
H1595 C1531 0.929 . S
H1596 C1534 0.930 . S
H1597 C1537 0.929 . S
H1598 C1538 0.930 . S
H1599 C1542 0.962 . S
H1600 C1542 0.959 . S
H1601 C1542 0.958 . S
C1602 C1603 1.560 . S
C1602 H1663 0.959 . S
C1602 H1664 0.959 . S
C1602 H1665 0.960 . S
C1603 C1602 1.560 . S
C1603 O1658 1.426 . S
C1603 H1662 0.980 1_565 S
C1604 C1605 1.407 1_565 S
C1604 C1609 1.418 . S
C1604 O1658 1.334 . S
C1605 C1604 1.407 1_545 S
C1605 C1606 1.360 . S
C1605 H1666 0.929 . S
C1606 C1605 1.360 . S
C1606 C1607 1.401 . S
C1606 C1610 1.527 . S
C1607 C1606 1.401 . S
C1607 C1608 1.405 1_545 S
C1607 C1640 1.587 . S
C1608 C1607 1.405 1_565 S
C1608 C1609 1.332 . S
C1608 C1611 1.496 . S
C1609 C1604 1.418 . S
C1609 C1608 1.332 . S
C1609 H1667 0.929 . S
C1610 C1606 1.527 . S
C1610 H1668 0.959 . S
C1610 H1669 0.961 . S
C1610 H1670 0.961 . S
C1611 C1608 1.496 . S
C1611 H1671 0.960 . S
C1611 H1672 0.960 . S
C1611 H1673 0.961 . S
C1612 C1613 1.517 . S
C1612 H1675 0.961 . S
C1612 H1676 0.960 . S
C1612 H1677 0.959 . S
C1613 C1612 1.517 . S
C1613 O1661 1.468 . S
C1613 H1674 0.980 . S
C1614 C1615 1.349 . S
C1614 C1619 1.367 . S
C1614 O1661 1.408 . S
C1615 C1614 1.349 . S
C1615 C1616 1.407 . S
C1615 H1678 0.945 . S
C1616 C1615 1.407 . S
C1616 C1617 1.449 . S
C1616 C1620 1.535 1_545 S
C1617 C1616 1.449 . S
C1617 C1618 1.384 . S
C1617 C1642 1.553 . S
C1618 C1617 1.384 . S
C1618 C1619 1.364 . S
C1618 C1621 1.450 . S
C1619 C1614 1.367 . S
C1619 C1618 1.364 . S
C1619 H1679 0.931 . S
C1620 C1616 1.535 1_565 S
C1620 H1680 0.959 . S
C1620 H1681 0.961 . S
C1620 H1682 0.959 . S
C1621 C1618 1.450 . S
C1621 H1683 0.960 . S
C1621 H1684 0.960 . S
C1621 H1685 0.960 . S
C1622 C1623 1.309 1_545 S
C1622 C1627 1.304 . S
C1622 O1660 1.435 . S
C1623 C1622 1.309 1_565 S
C1623 C1624 1.476 . S
C1623 H1687 0.930 . S
C1624 C1623 1.476 . S
C1624 C1625 1.400 1_565 S
C1624 C1628 1.567 . S
C1625 C1624 1.400 1_545 S
C1625 C1626 1.373 . S
C1625 C1647 1.432 . S
C1626 C1625 1.373 . S
C1626 C1627 1.339 . S
C1626 C1629 1.530 . S
C1627 C1622 1.304 . S
C1627 C1626 1.339 . S
C1627 H1688 0.930 . S
C1628 C1624 1.567 . S
C1628 H1689 0.961 . S
C1628 H1690 0.960 . S
C1628 H1691 0.958 . S
C1629 C1626 1.530 . S
C1629 H1692 0.961 . S
C1629 H1693 0.960 . S
C1629 H1694 0.960 . S
C1630 C1631 1.530 . S
C1630 H1696 0.961 . S
C1630 H1697 0.961 . S
C1630 H1698 0.959 . S
C1631 C1630 1.530 . S
C1631 O1659 1.412 . S
C1631 H1695 0.980 . S
C1632 C1633 1.288 . S
C1632 C1637 1.377 1_565 S
C1632 O1659 1.393 . S
C1633 C1632 1.288 . S
C1633 C1634 1.369 . S
C1633 H1699 0.932 . S
C1634 C1633 1.369 . S
C1634 C1635 1.398 . S
C1634 C1638 1.527 . S
C1635 C1634 1.398 . S
C1635 C1636 1.380 1_565 S
C1635 C1649 1.497 1_565 S
C1636 C1635 1.380 1_545 S
C1636 C1637 1.383 . S
C1636 C1639 1.603 . S
C1637 C1632 1.377 1_545 S
C1637 C1636 1.383 . S
C1637 H1700 0.929 . S
C1638 C1634 1.527 . S
C1638 H1701 0.961 . S
C1638 H1702 0.959 . S
C1638 H1703 0.959 . S
C1639 C1636 1.603 . S
C1639 H1704 0.960 . S
C1639 H1705 0.962 . S
C1639 H1706 0.961 . S
C1640 C1607 1.587 . S
C1640 C1641 1.360 . S
C1640 C1653 1.412 . S
C1641 C1640 1.360 . S
C1641 C1642 1.365 . S
C1641 H1707 0.929 . S
C1642 C1617 1.553 . S
C1642 C1641 1.365 . S
C1642 C1643 1.404 . S
C1643 C1642 1.404 . S
C1643 C1644 1.395 . S
C1643 C1654 1.451 . S
C1644 C1643 1.395 . S
C1644 C1645 1.322 . S
C1644 H1708 0.930 . S
C1645 C1644 1.322 . S
C1645 C1646 1.459 . S
C1645 H1709 0.929 . S
C1646 C1645 1.459 . S
C1646 C1647 1.445 . S
C1646 C1655 1.395 . S
C1647 C1625 1.432 . S
C1647 C1646 1.445 . S
C1647 C1648 1.370 . S
C1648 C1647 1.370 . S
C1648 C1649 1.438 . S
C1648 H1710 0.930 . S
C1649 C1635 1.497 1_545 S
C1649 C1648 1.438 . S
C1649 C1650 1.360 . S
C1650 C1649 1.360 . S
C1650 C1651 1.401 . S
C1650 C1655 1.446 . S
C1651 C1650 1.401 . S
C1651 C1652 1.347 . S
C1651 H1711 0.935 . S
C1652 C1651 1.347 . S
C1652 C1653 1.455 . S
C1652 H1712 0.930 . S
C1653 C1640 1.412 . S
C1653 C1652 1.455 . S
C1653 C1654 1.331 . S
C1654 C1643 1.451 . S
C1654 C1653 1.331 . S
C1654 C1655 1.497 . S
C1655 C1646 1.395 . S
C1655 C1650 1.446 . S
C1655 C1654 1.497 . S
C1656 C1657 1.582 . S
C1656 H1713 0.962 . S
C1656 H1714 0.959 . S
C1656 H1715 0.958 . S
C1657 C1656 1.582 . S
C1657 O1660 1.458 . S
C1657 H1686 0.983 1_545 S
O1658 C1603 1.426 . S
O1658 C1604 1.334 . S
O1659 C1631 1.412 . S
O1659 C1632 1.393 . S
O1660 C1622 1.435 . S
O1660 C1657 1.458 . S
O1661 C1613 1.468 . S
O1661 C1614 1.408 . S
H1662 C1603 0.980 1_545 S
H1663 C1602 0.959 . S
H1664 C1602 0.959 . S
H1665 C1602 0.960 . S
H1666 C1605 0.929 . S
H1667 C1609 0.929 . S
H1668 C1610 0.959 . S
H1669 C1610 0.961 . S
H1670 C1610 0.961 . S
H1671 C1611 0.960 . S
H1672 C1611 0.960 . S
H1673 C1611 0.961 . S
H1674 C1613 0.980 . S
H1675 C1612 0.961 . S
H1676 C1612 0.960 . S
H1677 C1612 0.959 . S
H1678 C1615 0.945 . S
H1679 C1619 0.931 . S
H1680 C1620 0.959 . S
H1681 C1620 0.961 . S
H1682 C1620 0.959 . S
H1683 C1621 0.960 . S
H1684 C1621 0.960 . S
H1685 C1621 0.960 . S
H1686 C1657 0.983 1_565 S
H1687 C1623 0.930 . S
H1688 C1627 0.930 . S
H1689 C1628 0.961 . S
H1690 C1628 0.960 . S
H1691 C1628 0.958 . S
H1692 C1629 0.961 . S
H1693 C1629 0.960 . S
H1694 C1629 0.960 . S
H1695 C1631 0.980 . S
H1696 C1630 0.961 . S
H1697 C1630 0.961 . S
H1698 C1630 0.959 . S
H1699 C1633 0.932 . S
H1700 C1637 0.929 . S
H1701 C1638 0.961 . S
H1702 C1638 0.959 . S
H1703 C1638 0.959 . S
H1704 C1639 0.960 . S
H1705 C1639 0.962 . S
H1706 C1639 0.961 . S
H1707 C1641 0.929 . S
H1708 C1644 0.930 . S
H1709 C1645 0.929 . S
H1710 C1648 0.930 . S
H1711 C1651 0.935 . S
H1712 C1652 0.930 . S
H1713 C1656 0.962 . S
H1714 C1656 0.959 . S
H1715 C1656 0.958 . S
C1716 C1717 1.563 . S
C1716 H1777 0.959 . S
C1716 H1778 0.959 . S
C1716 H1779 0.960 . S
C1717 C1716 1.563 . S
C1717 O1772 1.432 . S
C1717 H1776 0.979 1_455 S
C1718 C1719 1.407 1_455 S
C1718 C1723 1.418 . S
C1718 O1772 1.334 . S
C1719 C1718 1.407 1_655 S
C1719 C1720 1.360 . S
C1719 H1780 0.929 . S
C1720 C1719 1.360 . S
C1720 C1721 1.401 . S
C1720 C1724 1.527 . S
C1721 C1720 1.401 . S
C1721 C1722 1.405 1_655 S
C1721 C1754 1.587 . S
C1722 C1721 1.405 1_455 S
C1722 C1723 1.332 . S
C1722 C1725 1.496 . S
C1723 C1718 1.418 . S
C1723 C1722 1.332 . S
C1723 H1781 0.929 . S
C1724 C1720 1.527 . S
C1724 H1782 0.959 . S
C1724 H1783 0.961 . S
C1724 H1784 0.961 . S
C1725 C1722 1.496 . S
C1725 H1785 0.960 . S
C1725 H1786 0.960 . S
C1725 H1787 0.961 . S
C1726 C1727 1.517 . S
C1726 H1789 0.961 . S
C1726 H1790 0.960 . S
C1726 H1791 0.959 . S
C1727 C1726 1.517 . S
C1727 O1775 1.468 . S
C1727 H1788 0.980 . S
C1728 C1729 1.349 . S
C1728 C1733 1.367 . S
C1728 O1775 1.408 . S
C1729 C1728 1.349 . S
C1729 C1730 1.407 . S
C1729 H1792 0.862 1_655 S
C1730 C1729 1.407 . S
C1730 C1731 1.449 . S
C1730 C1734 1.535 1_655 S
C1731 C1730 1.449 . S
C1731 C1732 1.384 . S
C1731 C1756 1.553 . S
C1732 C1731 1.384 . S
C1732 C1733 1.364 . S
C1732 C1735 1.450 . S
C1733 C1728 1.367 . S
C1733 C1732 1.364 . S
C1733 H1793 0.931 . S
C1734 C1730 1.535 1_455 S
C1734 H1794 0.959 . S
C1734 H1795 0.961 . S
C1734 H1796 0.959 . S
C1735 C1732 1.450 . S
C1735 H1797 0.960 . S
C1735 H1798 0.960 . S
C1735 H1799 0.960 . S
C1736 C1737 1.309 1_655 S
C1736 C1741 1.304 . S
C1736 O1774 1.435 . S
C1737 C1736 1.309 1_455 S
C1737 C1738 1.476 . S
C1737 H1801 0.930 . S
C1738 C1737 1.476 . S
C1738 C1739 1.400 1_455 S
C1738 C1742 1.567 . S
C1739 C1738 1.400 1_655 S
C1739 C1740 1.373 . S
C1739 C1761 1.432 . S
C1740 C1739 1.373 . S
C1740 C1741 1.339 . S
C1740 C1743 1.530 . S
C1741 C1736 1.304 . S
C1741 C1740 1.339 . S
C1741 H1802 0.930 . S
C1742 C1738 1.567 . S
C1742 H1803 0.961 . S
C1742 H1804 0.960 . S
C1742 H1805 0.958 . S
C1743 C1740 1.530 . S
C1743 H1806 0.961 . S
C1743 H1807 0.960 . S
C1743 H1808 0.960 . S
C1744 C1745 1.530 . S
C1744 H1810 0.961 . S
C1744 H1811 0.961 . S
C1744 H1812 0.959 . S
C1745 C1744 1.530 . S
C1745 O1773 1.412 . S
C1745 H1809 0.980 1_455 S
C1746 C1747 1.288 . S
C1746 C1751 1.377 1_455 S
C1746 O1773 1.393 . S
C1747 C1746 1.288 . S
C1747 C1748 1.369 . S
C1747 H1813 0.932 . S
C1748 C1747 1.369 . S
C1748 C1749 1.398 . S
C1748 C1752 1.527 . S
C1749 C1748 1.398 . S
C1749 C1750 1.380 1_455 S
C1749 C1763 1.497 1_455 S
C1750 C1749 1.380 1_655 S
C1750 C1751 1.383 . S
C1750 C1753 1.603 . S
C1751 C1746 1.377 1_655 S
C1751 C1750 1.383 . S
C1751 H1814 0.929 . S
C1752 C1748 1.527 . S
C1752 H1815 0.961 . S
C1752 H1816 0.959 . S
C1752 H1817 0.959 . S
C1753 C1750 1.603 . S
C1753 H1818 0.960 . S
C1753 H1819 0.962 . S
C1753 H1820 0.961 . S
C1754 C1721 1.587 . S
C1754 C1755 1.360 . S
C1754 C1767 1.412 . S
C1755 C1754 1.360 . S
C1755 C1756 1.365 . S
C1755 H1821 0.929 . S
C1756 C1731 1.553 . S
C1756 C1755 1.365 . S
C1756 C1757 1.404 . S
C1757 C1756 1.404 . S
C1757 C1758 1.395 . S
C1757 C1768 1.451 . S
C1758 C1757 1.395 . S
C1758 C1759 1.322 . S
C1758 H1822 0.930 . S
C1759 C1758 1.322 . S
C1759 C1760 1.459 . S
C1759 H1823 0.929 . S
C1760 C1759 1.459 . S
C1760 C1761 1.445 . S
C1760 C1769 1.395 . S
C1761 C1739 1.432 . S
C1761 C1760 1.445 . S
C1761 C1762 1.370 . S
C1762 C1761 1.370 . S
C1762 C1763 1.438 . S
C1762 H1824 0.930 . S
C1763 C1749 1.497 1_655 S
C1763 C1762 1.438 . S
C1763 C1764 1.360 . S
C1764 C1763 1.360 . S
C1764 C1765 1.401 . S
C1764 C1769 1.446 . S
C1765 C1764 1.401 . S
C1765 C1766 1.347 . S
C1765 H1825 0.929 . S
C1766 C1765 1.347 . S
C1766 C1767 1.455 . S
C1766 H1826 0.930 . S
C1767 C1754 1.412 . S
C1767 C1766 1.455 . S
C1767 C1768 1.331 . S
C1768 C1757 1.451 . S
C1768 C1767 1.331 . S
C1768 C1769 1.497 . S
C1769 C1760 1.395 . S
C1769 C1764 1.446 . S
C1769 C1768 1.497 . S
C1770 C1771 1.582 1_655 S
C1770 H1827 0.962 1_655 S
C1770 H1828 0.959 . S
C1770 H1829 0.958 . S
C1771 C1770 1.582 1_455 S
C1771 O1774 1.458 1_455 S
C1771 H1800 0.980 . S
O1772 C1717 1.432 . S
O1772 C1718 1.334 . S
O1773 C1745 1.412 . S
O1773 C1746 1.393 . S
O1774 C1736 1.435 . S
O1774 C1771 1.458 1_655 S
O1775 C1727 1.468 . S
O1775 C1728 1.408 . S
H1776 C1717 0.979 1_655 S
H1777 C1716 0.959 . S
H1778 C1716 0.959 . S
H1779 C1716 0.960 . S
H1780 C1719 0.929 . S
H1781 C1723 0.929 . S
H1782 C1724 0.959 . S
H1783 C1724 0.961 . S
H1784 C1724 0.961 . S
H1785 C1725 0.960 . S
H1786 C1725 0.960 . S
H1787 C1725 0.961 . S
H1788 C1727 0.980 . S
H1789 C1726 0.961 . S
H1790 C1726 0.960 . S
H1791 C1726 0.959 . S
H1792 C1729 0.862 1_455 S
H1793 C1733 0.931 . S
H1794 C1734 0.959 . S
H1795 C1734 0.961 . S
H1796 C1734 0.959 . S
H1797 C1735 0.960 . S
H1798 C1735 0.960 . S
H1799 C1735 0.960 . S
H1800 C1771 0.980 . S
H1801 C1737 0.930 . S
H1802 C1741 0.930 . S
H1803 C1742 0.961 . S
H1804 C1742 0.960 . S
H1805 C1742 0.958 . S
H1806 C1743 0.961 . S
H1807 C1743 0.960 . S
H1808 C1743 0.960 . S
H1809 C1745 0.980 1_655 S
H1810 C1744 0.961 . S
H1811 C1744 0.961 . S
H1812 C1744 0.959 . S
H1813 C1747 0.932 . S
H1814 C1751 0.929 . S
H1815 C1752 0.961 . S
H1816 C1752 0.959 . S
H1817 C1752 0.959 . S
H1818 C1753 0.960 . S
H1819 C1753 0.962 . S
H1820 C1753 0.961 . S
H1821 C1755 0.929 . S
H1822 C1758 0.930 . S
H1823 C1759 0.929 . S
H1824 C1762 0.930 . S
H1825 C1765 0.929 . S
H1826 C1766 0.930 . S
H1827 C1770 0.962 1_455 S
H1828 C1770 0.959 . S
H1829 C1770 0.958 . S
C1830 C1831 1.560 . S
C1830 H1891 0.959 . S
C1830 H1892 0.959 . S
C1830 H1893 0.960 . S
C1831 C1830 1.560 . S
C1831 O1886 1.426 . S
C1831 H1890 0.980 . S
C1832 C1833 1.407 . S
C1832 C1837 1.418 . S
C1832 O1886 1.334 . S
C1833 C1832 1.407 . S
C1833 C1834 1.360 . S
C1833 H1894 0.929 . S
C1834 C1833 1.360 . S
C1834 C1835 1.401 . S
C1834 C1838 1.527 . S
C1835 C1834 1.401 . S
C1835 C1836 1.405 . S
C1835 C1868 1.587 . S
C1836 C1835 1.405 . S
C1836 C1837 1.332 . S
C1836 C1839 1.496 . S
C1837 C1832 1.418 . S
C1837 C1836 1.332 . S
C1837 H1895 0.929 . S
C1838 C1834 1.527 . S
C1838 H1896 0.959 . S
C1838 H1897 0.961 . S
C1838 H1898 0.961 . S
C1839 C1836 1.496 . S
C1839 H1899 0.960 . S
C1839 H1900 0.960 . S
C1839 H1901 0.961 . S
C1840 C1841 1.517 . S
C1840 H1903 0.961 . S
C1840 H1904 0.960 . S
C1840 H1905 0.959 . S
C1841 C1840 1.517 . S
C1841 O1889 1.468 . S
C1841 H1902 0.980 . S
C1842 C1843 1.349 . S
C1842 C1847 1.367 . S
C1842 O1889 1.408 . S
C1843 C1842 1.349 . S
C1843 C1844 1.407 . S
C1843 H1906 0.930 . S
C1844 C1843 1.407 . S
C1844 C1845 1.449 . S
C1844 C1848 1.535 . S
C1845 C1844 1.449 . S
C1845 C1846 1.384 . S
C1845 C1870 1.553 . S
C1846 C1845 1.384 . S
C1846 C1847 1.364 . S
C1846 C1849 1.450 . S
C1847 C1842 1.367 . S
C1847 C1846 1.364 . S
C1847 H1907 0.931 . S
C1848 C1844 1.535 . S
C1848 H1908 0.959 . S
C1848 H1909 0.961 . S
C1848 H1910 0.959 . S
C1849 C1846 1.450 . S
C1849 H1911 0.960 . S
C1849 H1912 0.960 . S
C1849 H1913 0.960 . S
C1850 C1851 1.309 . S
C1850 C1855 1.304 . S
C1850 O1888 1.435 . S
C1851 C1850 1.309 . S
C1851 C1852 1.476 . S
C1851 H1915 0.930 . S
C1852 C1851 1.476 . S
C1852 C1853 1.400 . S
C1852 C1856 1.567 . S
C1853 C1852 1.400 . S
C1853 C1854 1.373 . S
C1853 C1875 1.432 . S
C1854 C1853 1.373 . S
C1854 C1855 1.339 . S
C1854 C1857 1.530 . S
C1855 C1850 1.304 . S
C1855 C1854 1.339 . S
C1855 H1916 0.930 . S
C1856 C1852 1.567 . S
C1856 H1917 0.961 . S
C1856 H1918 0.960 . S
C1856 H1919 0.958 . S
C1857 C1854 1.530 . S
C1857 H1920 0.961 . S
C1857 H1921 0.960 . S
C1857 H1922 0.960 . S
C1858 C1859 1.530 . S
C1858 H1924 0.961 . S
C1858 H1925 0.961 . S
C1858 H1926 0.959 . S
C1859 C1858 1.530 . S
C1859 O1887 1.412 . S
C1859 H1923 0.980 . S
C1860 C1861 1.288 . S
C1860 C1865 1.377 . S
C1860 O1887 1.393 . S
C1861 C1860 1.288 . S
C1861 C1862 1.369 . S
C1861 H1927 0.932 . S
C1862 C1861 1.369 . S
C1862 C1863 1.398 . S
C1862 C1866 1.527 . S
C1863 C1862 1.398 . S
C1863 C1864 1.380 . S
C1863 C1877 1.497 . S
C1864 C1863 1.380 . S
C1864 C1865 1.383 . S
C1864 C1867 1.603 . S
C1865 C1860 1.377 . S
C1865 C1864 1.383 . S
C1865 H1928 0.929 . S
C1866 C1862 1.527 . S
C1866 H1929 0.961 . S
C1866 H1930 0.959 . S
C1866 H1931 0.959 . S
C1867 C1864 1.603 . S
C1867 H1932 0.960 . S
C1867 H1933 0.962 . S
C1867 H1934 0.961 . S
C1868 C1835 1.587 . S
C1868 C1869 1.360 . S
C1868 C1881 1.412 . S
C1869 C1868 1.360 . S
C1869 C1870 1.365 . S
C1869 H1935 0.929 . S
C1870 C1845 1.553 . S
C1870 C1869 1.365 . S
C1870 C1871 1.404 . S
C1871 C1870 1.404 . S
C1871 C1872 1.395 . S
C1871 C1882 1.451 . S
C1872 C1871 1.395 . S
C1872 C1873 1.322 . S
C1872 H1936 0.930 . S
C1873 C1872 1.322 . S
C1873 C1874 1.459 . S
C1873 H1937 0.929 . S
C1874 C1873 1.459 . S
C1874 C1875 1.445 . S
C1874 C1883 1.395 . S
C1875 C1853 1.432 . S
C1875 C1874 1.445 . S
C1875 C1876 1.370 . S
C1876 C1875 1.370 . S
C1876 C1877 1.438 . S
C1876 H1938 0.930 . S
C1877 C1863 1.497 . S
C1877 C1876 1.438 . S
C1877 C1878 1.360 . S
C1878 C1877 1.360 . S
C1878 C1879 1.401 . S
C1878 C1883 1.446 . S
C1879 C1878 1.401 . S
C1879 C1880 1.347 . S
C1879 H1939 0.929 . S
C1880 C1879 1.347 . S
C1880 C1881 1.455 . S
C1880 H1940 0.930 . S
C1881 C1868 1.412 . S
C1881 C1880 1.455 . S
C1881 C1882 1.331 . S
C1882 C1871 1.451 . S
C1882 C1881 1.331 . S
C1882 C1883 1.497 . S
C1883 C1874 1.395 . S
C1883 C1878 1.446 . S
C1883 C1882 1.497 . S
C1884 C1885 1.582 . S
C1884 H1941 0.962 . S
C1884 H1942 0.959 . S
C1884 H1943 0.958 . S
C1885 C1884 1.582 . S
C1885 O1888 1.458 . S
C1885 H1914 0.980 . S
O1886 C1831 1.426 . S
O1886 C1832 1.334 . S
O1887 C1859 1.412 . S
O1887 C1860 1.393 . S
O1888 C1850 1.435 . S
O1888 C1885 1.458 . S
O1889 C1841 1.468 . S
O1889 C1842 1.408 . S
H1890 C1831 0.980 . S
H1891 C1830 0.959 . S
H1892 C1830 0.959 . S
H1893 C1830 0.960 . S
H1894 C1833 0.929 . S
H1895 C1837 0.929 . S
H1896 C1838 0.959 . S
H1897 C1838 0.961 . S
H1898 C1838 0.961 . S
H1899 C1839 0.960 . S
H1900 C1839 0.960 . S
H1901 C1839 0.961 . S
H1902 C1841 0.980 . S
H1903 C1840 0.961 . S
H1904 C1840 0.960 . S
H1905 C1840 0.959 . S
H1906 C1843 0.930 . S
H1907 C1847 0.931 . S
H1908 C1848 0.959 . S
H1909 C1848 0.961 . S
H1910 C1848 0.959 . S
H1911 C1849 0.960 . S
H1912 C1849 0.960 . S
H1913 C1849 0.960 . S
H1914 C1885 0.980 . S
H1915 C1851 0.930 . S
H1916 C1855 0.930 . S
H1917 C1856 0.961 . S
H1918 C1856 0.960 . S
H1919 C1856 0.958 . S
H1920 C1857 0.961 . S
H1921 C1857 0.960 . S
H1922 C1857 0.960 . S
H1923 C1859 0.980 . S
H1924 C1858 0.961 . S
H1925 C1858 0.961 . S
H1926 C1858 0.959 . S
H1927 C1861 0.932 . S
H1928 C1865 0.929 . S
H1929 C1866 0.961 . S
H1930 C1866 0.959 . S
H1931 C1866 0.959 . S
H1932 C1867 0.960 . S
H1933 C1867 0.962 . S
H1934 C1867 0.961 . S
H1935 C1869 0.929 . S
H1936 C1872 0.930 . S
H1937 C1873 0.929 . S
H1938 C1876 0.930 . S
H1939 C1879 0.929 . S
H1940 C1880 0.930 . S
H1941 C1884 0.962 . S
H1942 C1884 0.959 . S
H1943 C1884 0.958 . S
C1944 C1945 1.560 . S
C1944 H2005 0.959 . S
C1944 H2006 0.959 . S
C1944 H2007 0.960 . S
C1945 C1944 1.560 . S
C1945 O2000 1.426 . S
C1945 H2004 0.980 . S
C1946 C1947 1.407 . S
C1946 C1951 1.418 . S
C1946 O2000 1.334 . S
C1947 C1946 1.407 . S
C1947 C1948 1.360 . S
C1947 H2008 0.929 . S
C1948 C1947 1.360 . S
C1948 C1949 1.401 . S
C1948 C1952 1.527 . S
C1949 C1948 1.401 . S
C1949 C1950 1.405 . S
C1949 C1982 1.587 . S
C1950 C1949 1.405 . S
C1950 C1951 1.332 . S
C1950 C1953 1.496 . S
C1951 C1946 1.418 . S
C1951 C1950 1.332 . S
C1951 H2009 0.929 . S
C1952 C1948 1.527 . S
C1952 H2010 0.959 . S
C1952 H2011 0.961 . S
C1952 H2012 0.961 . S
C1953 C1950 1.496 . S
C1953 H2013 0.960 . S
C1953 H2014 0.960 . S
C1953 H2015 0.961 . S
C1954 C1955 1.517 . S
C1954 H2017 0.961 . S
C1954 H2018 0.960 . S
C1954 H2019 0.959 . S
C1955 C1954 1.517 . S
C1955 O2003 1.468 . S
C1955 H2016 0.980 . S
C1956 C1957 1.349 . S
C1956 C1961 1.367 . S
C1956 O2003 1.408 . S
C1957 C1956 1.349 . S
C1957 C1958 1.407 . S
C1957 H2020 0.930 . S
C1958 C1957 1.407 . S
C1958 C1959 1.449 . S
C1958 C1962 1.535 . S
C1959 C1958 1.449 . S
C1959 C1960 1.384 . S
C1959 C1984 1.553 . S
C1960 C1959 1.384 . S
C1960 C1961 1.364 . S
C1960 C1963 1.450 . S
C1961 C1956 1.367 . S
C1961 C1960 1.364 . S
C1961 H2021 0.931 . S
C1962 C1958 1.535 . S
C1962 H2022 0.959 . S
C1962 H2023 0.961 . S
C1962 H2024 0.959 . S
C1963 C1960 1.450 . S
C1963 H2025 0.960 . S
C1963 H2026 0.960 . S
C1963 H2027 0.960 . S
C1964 C1965 1.309 . S
C1964 C1969 1.304 . S
C1964 O2002 1.435 . S
C1965 C1964 1.309 . S
C1965 C1966 1.476 . S
C1965 H2029 0.930 . S
C1966 C1965 1.476 . S
C1966 C1967 1.400 . S
C1966 C1970 1.567 . S
C1967 C1966 1.400 . S
C1967 C1968 1.373 . S
C1967 C1989 1.432 . S
C1968 C1967 1.373 . S
C1968 C1969 1.339 . S
C1968 C1971 1.530 . S
C1969 C1964 1.304 . S
C1969 C1968 1.339 . S
C1969 H2030 0.930 . S
C1970 C1966 1.567 . S
C1970 H2031 0.961 . S
C1970 H2032 0.960 . S
C1970 H2033 0.958 . S
C1971 C1968 1.530 . S
C1971 H2034 0.961 . S
C1971 H2035 0.960 . S
C1971 H2036 0.960 . S
C1972 C1973 1.530 . S
C1972 H2038 0.961 . S
C1972 H2039 0.961 . S
C1972 H2040 0.959 . S
C1973 C1972 1.530 . S
C1973 O2001 1.412 . S
C1973 H2037 0.980 . S
C1974 C1975 1.288 . S
C1974 C1979 1.377 . S
C1974 O2001 1.393 . S
C1975 C1974 1.288 . S
C1975 C1976 1.369 . S
C1975 H2041 0.932 . S
C1976 C1975 1.369 . S
C1976 C1977 1.398 . S
C1976 C1980 1.527 . S
C1977 C1976 1.398 . S
C1977 C1978 1.380 . S
C1977 C1991 1.497 . S
C1978 C1977 1.380 . S
C1978 C1979 1.383 . S
C1978 C1981 1.603 . S
C1979 C1974 1.377 . S
C1979 C1978 1.383 . S
C1979 H2042 0.929 . S
C1980 C1976 1.527 . S
C1980 H2043 0.961 . S
C1980 H2044 0.959 . S
C1980 H2045 0.959 . S
C1981 C1978 1.603 . S
C1981 H2046 0.960 . S
C1981 H2047 0.962 . S
C1981 H2048 0.961 . S
C1982 C1949 1.587 . S
C1982 C1983 1.360 . S
C1982 C1995 1.412 . S
C1983 C1982 1.360 . S
C1983 C1984 1.365 . S
C1983 H2049 0.929 . S
C1984 C1959 1.553 . S
C1984 C1983 1.365 . S
C1984 C1985 1.404 . S
C1985 C1984 1.404 . S
C1985 C1986 1.395 . S
C1985 C1996 1.451 . S
C1986 C1985 1.395 . S
C1986 C1987 1.322 . S
C1986 H2050 0.930 . S
C1987 C1986 1.322 . S
C1987 C1988 1.459 . S
C1987 H2051 0.929 . S
C1988 C1987 1.459 . S
C1988 C1989 1.445 . S
C1988 C1997 1.395 . S
C1989 C1967 1.432 . S
C1989 C1988 1.445 . S
C1989 C1990 1.370 . S
C1990 C1989 1.370 . S
C1990 C1991 1.438 . S
C1990 H2052 0.930 . S
C1991 C1977 1.497 . S
C1991 C1990 1.438 . S
C1991 C1992 1.360 . S
C1992 C1991 1.360 . S
C1992 C1993 1.401 . S
C1992 C1997 1.446 . S
C1993 C1992 1.401 . S
C1993 C1994 1.347 . S
C1993 H2053 0.929 . S
C1994 C1993 1.347 . S
C1994 C1995 1.455 . S
C1994 H2054 0.930 . S
C1995 C1982 1.412 . S
C1995 C1994 1.455 . S
C1995 C1996 1.331 . S
C1996 C1985 1.451 . S
C1996 C1995 1.331 . S
C1996 C1997 1.497 . S
C1997 C1988 1.395 . S
C1997 C1992 1.446 . S
C1997 C1996 1.497 . S
C1998 C1999 1.582 . S
C1998 H2055 0.962 . S
C1998 H2056 0.959 . S
C1998 H2057 0.958 . S
C1999 C1998 1.582 . S
C1999 O2002 1.458 . S
C1999 H2028 0.980 . S
O2000 C1945 1.426 . S
O2000 C1946 1.334 . S
O2001 C1973 1.412 . S
O2001 C1974 1.393 . S
O2002 C1964 1.435 . S
O2002 C1999 1.458 . S
O2003 C1955 1.468 . S
O2003 C1956 1.408 . S
H2004 C1945 0.980 . S
H2005 C1944 0.959 . S
H2006 C1944 0.959 . S
H2007 C1944 0.960 . S
H2008 C1947 0.929 . S
H2009 C1951 0.929 . S
H2010 C1952 0.959 . S
H2011 C1952 0.961 . S
H2012 C1952 0.961 . S
H2013 C1953 0.960 . S
H2014 C1953 0.960 . S
H2015 C1953 0.961 . S
H2016 C1955 0.980 . S
H2017 C1954 0.961 . S
H2018 C1954 0.960 . S
H2019 C1954 0.959 . S
H2020 C1957 0.930 . S
H2021 C1961 0.931 . S
H2022 C1962 0.959 . S
H2023 C1962 0.961 . S
H2024 C1962 0.959 . S
H2025 C1963 0.960 . S
H2026 C1963 0.960 . S
H2027 C1963 0.960 . S
H2028 C1999 0.980 . S
H2029 C1965 0.930 . S
H2030 C1969 0.930 . S
H2031 C1970 0.961 . S
H2032 C1970 0.960 . S
H2033 C1970 0.958 . S
H2034 C1971 0.961 . S
H2035 C1971 0.960 . S
H2036 C1971 0.960 . S
H2037 C1973 0.980 . S
H2038 C1972 0.961 . S
H2039 C1972 0.961 . S
H2040 C1972 0.959 . S
H2041 C1975 0.932 . S
H2042 C1979 0.929 . S
H2043 C1980 0.961 . S
H2044 C1980 0.959 . S
H2045 C1980 0.959 . S
H2046 C1981 0.960 . S
H2047 C1981 0.962 . S
H2048 C1981 0.961 . S
H2049 C1983 0.929 . S
H2050 C1986 0.930 . S
H2051 C1987 0.929 . S
H2052 C1990 0.930 . S
H2053 C1993 0.929 . S
H2054 C1994 0.930 . S
H2055 C1998 0.962 . S
H2056 C1998 0.959 . S
H2057 C1998 0.958 . S
C2058 C2059 1.560 . S
C2058 H2119 0.959 . S
C2058 H2120 0.959 . S
C2058 H2121 0.960 . S
C2059 C2058 1.560 . S
C2059 O2114 1.426 . S
C2059 H2118 0.980 . S
C2060 C2061 1.407 . S
C2060 C2065 1.418 . S
C2060 O2114 1.334 . S
C2061 C2060 1.407 . S
C2061 C2062 1.360 . S
C2061 H2122 0.929 . S
C2062 C2061 1.360 . S
C2062 C2063 1.401 . S
C2062 C2066 1.527 . S
C2063 C2062 1.401 . S
C2063 C2064 1.405 . S
C2063 C2096 1.587 . S
C2064 C2063 1.405 . S
C2064 C2065 1.332 . S
C2064 C2067 1.496 . S
C2065 C2060 1.418 . S
C2065 C2064 1.332 . S
C2065 H2123 0.929 . S
C2066 C2062 1.527 . S
C2066 H2124 0.959 . S
C2066 H2125 0.961 . S
C2066 H2126 0.961 . S
C2067 C2064 1.496 . S
C2067 H2127 0.960 . S
C2067 H2128 0.960 . S
C2067 H2129 0.961 . S
C2068 C2069 1.517 . S
C2068 H2131 0.961 . S
C2068 H2132 0.960 . S
C2068 H2133 0.959 . S
C2069 C2068 1.517 . S
C2069 O2117 1.468 . S
C2069 H2130 0.980 . S
C2070 C2071 1.349 . S
C2070 C2075 1.367 . S
C2070 O2117 1.408 . S
C2071 C2070 1.349 . S
C2071 C2072 1.407 . S
C2071 H2134 0.930 . S
C2072 C2071 1.407 . S
C2072 C2073 1.449 . S
C2072 C2076 1.535 . S
C2073 C2072 1.449 . S
C2073 C2074 1.384 . S
C2073 C2098 1.553 . S
C2074 C2073 1.384 . S
C2074 C2075 1.364 . S
C2074 C2077 1.450 . S
C2075 C2070 1.367 . S
C2075 C2074 1.364 . S
C2075 H2135 0.931 . S
C2076 C2072 1.535 . S
C2076 H2136 0.959 . S
C2076 H2137 0.961 . S
C2076 H2138 0.959 . S
C2077 C2074 1.450 . S
C2077 H2139 0.960 . S
C2077 H2140 0.960 . S
C2077 H2141 0.960 . S
C2078 C2079 1.309 . S
C2078 C2083 1.304 . S
C2078 O2116 1.435 . S
C2079 C2078 1.309 . S
C2079 C2080 1.476 . S
C2079 H2143 0.930 . S
C2080 C2079 1.476 . S
C2080 C2081 1.400 . S
C2080 C2084 1.567 . S
C2081 C2080 1.400 . S
C2081 C2082 1.373 . S
C2081 C2103 1.432 . S
C2082 C2081 1.373 . S
C2082 C2083 1.339 . S
C2082 C2085 1.530 . S
C2083 C2078 1.304 . S
C2083 C2082 1.339 . S
C2083 H2144 0.930 . S
C2084 C2080 1.567 . S
C2084 H2145 0.961 . S
C2084 H2146 0.960 . S
C2084 H2147 0.958 . S
C2085 C2082 1.530 . S
C2085 H2148 0.961 . S
C2085 H2149 0.960 . S
C2085 H2150 0.960 . S
C2086 C2087 1.530 . S
C2086 H2152 0.961 . S
C2086 H2153 0.961 . S
C2086 H2154 0.959 . S
C2087 C2086 1.530 . S
C2087 O2115 1.412 . S
C2087 H2151 0.980 . S
C2088 C2089 1.288 . S
C2088 C2093 1.377 . S
C2088 O2115 1.393 . S
C2089 C2088 1.288 . S
C2089 C2090 1.369 . S
C2089 H2155 0.932 . S
C2090 C2089 1.369 . S
C2090 C2091 1.398 . S
C2090 C2094 1.527 . S
C2091 C2090 1.398 . S
C2091 C2092 1.380 . S
C2091 C2105 1.497 . S
C2092 C2091 1.380 . S
C2092 C2093 1.383 . S
C2092 C2095 1.603 . S
C2093 C2088 1.377 . S
C2093 C2092 1.383 . S
C2093 H2156 0.929 . S
C2094 C2090 1.527 . S
C2094 H2157 0.961 . S
C2094 H2158 0.959 . S
C2094 H2159 0.959 . S
C2095 C2092 1.603 . S
C2095 H2160 0.960 . S
C2095 H2161 0.962 . S
C2095 H2162 0.961 . S
C2096 C2063 1.587 . S
C2096 C2097 1.360 . S
C2096 C2109 1.412 . S
C2097 C2096 1.360 . S
C2097 C2098 1.365 . S
C2097 H2163 0.929 . S
C2098 C2073 1.553 . S
C2098 C2097 1.365 . S
C2098 C2099 1.404 . S
C2099 C2098 1.404 . S
C2099 C2100 1.395 . S
C2099 C2110 1.451 . S
C2100 C2099 1.395 . S
C2100 C2101 1.322 . S
C2100 H2164 0.930 . S
C2101 C2100 1.322 . S
C2101 C2102 1.459 . S
C2101 H2165 0.929 . S
C2102 C2101 1.459 . S
C2102 C2103 1.445 . S
C2102 C2111 1.395 . S
C2103 C2081 1.432 . S
C2103 C2102 1.445 . S
C2103 C2104 1.370 . S
C2104 C2103 1.370 . S
C2104 C2105 1.438 . S
C2104 H2166 0.930 . S
C2105 C2091 1.497 . S
C2105 C2104 1.438 . S
C2105 C2106 1.360 . S
C2106 C2105 1.360 . S
C2106 C2107 1.401 . S
C2106 C2111 1.446 . S
C2107 C2106 1.401 . S
C2107 C2108 1.347 . S
C2107 H2167 0.929 . S
C2108 C2107 1.347 . S
C2108 C2109 1.455 . S
C2108 H2168 0.930 . S
C2109 C2096 1.412 . S
C2109 C2108 1.455 . S
C2109 C2110 1.331 . S
C2110 C2099 1.451 . S
C2110 C2109 1.331 . S
C2110 C2111 1.497 . S
C2111 C2102 1.395 . S
C2111 C2106 1.446 . S
C2111 C2110 1.497 . S
C2112 C2113 1.582 . S
C2112 H2169 0.962 . S
C2112 H2170 0.959 . S
C2112 H2171 0.958 . S
C2113 C2112 1.582 . S
C2113 O2116 1.458 . S
C2113 H2142 0.980 . S
O2114 C2059 1.426 . S
O2114 C2060 1.334 . S
O2115 C2087 1.412 . S
O2115 C2088 1.393 . S
O2116 C2078 1.435 . S
O2116 C2113 1.458 . S
O2117 C2069 1.468 . S
O2117 C2070 1.408 . S
H2118 C2059 0.980 . S
H2119 C2058 0.959 . S
H2120 C2058 0.959 . S
H2121 C2058 0.960 . S
H2122 C2061 0.929 . S
H2123 C2065 0.929 . S
H2124 C2066 0.959 . S
H2125 C2066 0.961 . S
H2126 C2066 0.961 . S
H2127 C2067 0.960 . S
H2128 C2067 0.960 . S
H2129 C2067 0.961 . S
H2130 C2069 0.980 . S
H2131 C2068 0.961 . S
H2132 C2068 0.960 . S
H2133 C2068 0.959 . S
H2134 C2071 0.930 . S
H2135 C2075 0.931 . S
H2136 C2076 0.959 . S
H2137 C2076 0.961 . S
H2138 C2076 0.959 . S
H2139 C2077 0.960 . S
H2140 C2077 0.960 . S
H2141 C2077 0.960 . S
H2142 C2113 0.980 . S
H2143 C2079 0.930 . S
H2144 C2083 0.930 . S
H2145 C2084 0.961 . S
H2146 C2084 0.960 . S
H2147 C2084 0.958 . S
H2148 C2085 0.961 . S
H2149 C2085 0.960 . S
H2150 C2085 0.960 . S
H2151 C2087 0.980 . S
H2152 C2086 0.961 . S
H2153 C2086 0.961 . S
H2154 C2086 0.959 . S
H2155 C2089 0.932 . S
H2156 C2093 0.929 . S
H2157 C2094 0.961 . S
H2158 C2094 0.959 . S
H2159 C2094 0.959 . S
H2160 C2095 0.960 . S
H2161 C2095 0.962 . S
H2162 C2095 0.961 . S
H2163 C2097 0.929 . S
H2164 C2100 0.930 . S
H2165 C2101 0.929 . S
H2166 C2104 0.930 . S
H2167 C2107 0.929 . S
H2168 C2108 0.930 . S
H2169 C2112 0.962 . S
H2170 C2112 0.959 . S
H2171 C2112 0.958 . S
C2172 C2173 1.560 . S
C2172 H2233 0.959 . S
C2172 H2234 0.959 . S
C2172 H2235 0.960 . S
C2173 C2172 1.560 . S
C2173 O2228 1.426 . S
C2173 H2232 0.980 . S
C2174 C2175 1.407 . S
C2174 C2179 1.418 . S
C2174 O2228 1.334 . S
C2175 C2174 1.407 . S
C2175 C2176 1.360 . S
C2175 H2236 0.929 . S
C2176 C2175 1.360 . S
C2176 C2177 1.401 . S
C2176 C2180 1.527 . S
C2177 C2176 1.401 . S
C2177 C2178 1.405 . S
C2177 C2210 1.587 . S
C2178 C2177 1.405 . S
C2178 C2179 1.332 . S
C2178 C2181 1.496 . S
C2179 C2174 1.418 . S
C2179 C2178 1.332 . S
C2179 H2237 0.929 . S
C2180 C2176 1.527 . S
C2180 H2238 0.959 . S
C2180 H2239 0.961 . S
C2180 H2240 0.961 . S
C2181 C2178 1.496 . S
C2181 H2241 0.960 . S
C2181 H2242 0.960 . S
C2181 H2243 0.961 . S
C2182 C2183 1.517 . S
C2182 H2245 0.961 . S
C2182 H2246 0.960 . S
C2182 H2247 0.959 . S
C2183 C2182 1.517 . S
C2183 O2231 1.468 . S
C2183 H2244 0.980 . S
C2184 C2185 1.349 . S
C2184 C2189 1.367 . S
C2184 O2231 1.408 . S
C2185 C2184 1.349 . S
C2185 C2186 1.407 . S
C2185 H2248 0.930 . S
C2186 C2185 1.407 . S
C2186 C2187 1.449 . S
C2186 C2190 1.535 . S
C2187 C2186 1.449 . S
C2187 C2188 1.384 . S
C2187 C2212 1.553 . S
C2188 C2187 1.384 . S
C2188 C2189 1.364 . S
C2188 C2191 1.450 . S
C2189 C2184 1.367 . S
C2189 C2188 1.364 . S
C2189 H2249 0.931 . S
C2190 C2186 1.535 . S
C2190 H2250 0.959 . S
C2190 H2251 0.961 . S
C2190 H2252 0.959 . S
C2191 C2188 1.450 . S
C2191 H2253 0.960 . S
C2191 H2254 0.960 . S
C2191 H2255 0.960 . S
C2192 C2193 1.309 . S
C2192 C2197 1.304 . S
C2192 O2230 1.435 . S
C2193 C2192 1.309 . S
C2193 C2194 1.476 . S
C2193 H2257 0.930 . S
C2194 C2193 1.476 . S
C2194 C2195 1.400 . S
C2194 C2198 1.567 . S
C2195 C2194 1.400 . S
C2195 C2196 1.373 . S
C2195 C2217 1.432 . S
C2196 C2195 1.373 . S
C2196 C2197 1.339 . S
C2196 C2199 1.530 . S
C2197 C2192 1.304 . S
C2197 C2196 1.339 . S
C2197 H2258 0.930 . S
C2198 C2194 1.567 . S
C2198 H2259 0.961 . S
C2198 H2260 0.960 . S
C2198 H2261 0.958 . S
C2199 C2196 1.530 . S
C2199 H2262 0.961 . S
C2199 H2263 0.960 . S
C2199 H2264 0.960 . S
C2200 C2201 1.530 . S
C2200 H2266 0.961 . S
C2200 H2267 0.961 . S
C2200 H2268 0.959 . S
C2201 C2200 1.530 . S
C2201 O2229 1.412 . S
C2201 H2265 0.980 . S
C2202 C2203 1.288 . S
C2202 C2207 1.377 . S
C2202 O2229 1.393 . S
C2203 C2202 1.288 . S
C2203 C2204 1.369 . S
C2203 H2269 0.932 . S
C2204 C2203 1.369 . S
C2204 C2205 1.398 . S
C2204 C2208 1.527 . S
C2205 C2204 1.398 . S
C2205 C2206 1.380 . S
C2205 C2219 1.497 . S
C2206 C2205 1.380 . S
C2206 C2207 1.383 . S
C2206 C2209 1.603 . S
C2207 C2202 1.377 . S
C2207 C2206 1.383 . S
C2207 H2270 0.929 . S
C2208 C2204 1.527 . S
C2208 H2271 0.961 . S
C2208 H2272 0.959 . S
C2208 H2273 0.959 . S
C2209 C2206 1.603 . S
C2209 H2274 0.960 . S
C2209 H2275 0.962 . S
C2209 H2276 0.961 . S
C2210 C2177 1.587 . S
C2210 C2211 1.360 . S
C2210 C2223 1.412 . S
C2211 C2210 1.360 . S
C2211 C2212 1.365 . S
C2211 H2277 0.929 . S
C2212 C2187 1.553 . S
C2212 C2211 1.365 . S
C2212 C2213 1.404 . S
C2213 C2212 1.404 . S
C2213 C2214 1.395 . S
C2213 C2224 1.451 . S
C2214 C2213 1.395 . S
C2214 C2215 1.322 . S
C2214 H2278 0.930 . S
C2215 C2214 1.322 . S
C2215 C2216 1.459 . S
C2215 H2279 0.929 . S
C2216 C2215 1.459 . S
C2216 C2217 1.445 . S
C2216 C2225 1.395 . S
C2217 C2195 1.432 . S
C2217 C2216 1.445 . S
C2217 C2218 1.370 . S
C2218 C2217 1.370 . S
C2218 C2219 1.438 . S
C2218 H2280 0.930 . S
C2219 C2205 1.497 . S
C2219 C2218 1.438 . S
C2219 C2220 1.360 . S
C2220 C2219 1.360 . S
C2220 C2221 1.401 . S
C2220 C2225 1.446 . S
C2221 C2220 1.401 . S
C2221 C2222 1.347 . S
C2221 H2281 0.929 . S
C2222 C2221 1.347 . S
C2222 C2223 1.455 . S
C2222 H2282 0.930 . S
C2223 C2210 1.412 . S
C2223 C2222 1.455 . S
C2223 C2224 1.331 . S
C2224 C2213 1.451 . S
C2224 C2223 1.331 . S
C2224 C2225 1.497 . S
C2225 C2216 1.395 . S
C2225 C2220 1.446 . S
C2225 C2224 1.497 . S
C2226 C2227 1.582 . S
C2226 H2283 0.962 . S
C2226 H2284 0.959 . S
C2226 H2285 0.958 . S
C2227 C2226 1.582 . S
C2227 O2230 1.458 . S
C2227 H2256 0.980 . S
O2228 C2173 1.426 . S
O2228 C2174 1.334 . S
O2229 C2201 1.412 . S
O2229 C2202 1.393 . S
O2230 C2192 1.435 . S
O2230 C2227 1.458 . S
O2231 C2183 1.468 . S
O2231 C2184 1.408 . S
H2232 C2173 0.980 . S
H2233 C2172 0.959 . S
H2234 C2172 0.959 . S
H2235 C2172 0.960 . S
H2236 C2175 0.929 . S
H2237 C2179 0.929 . S
H2238 C2180 0.959 . S
H2239 C2180 0.961 . S
H2240 C2180 0.961 . S
H2241 C2181 0.960 . S
H2242 C2181 0.960 . S
H2243 C2181 0.961 . S
H2244 C2183 0.980 . S
H2245 C2182 0.961 . S
H2246 C2182 0.960 . S
H2247 C2182 0.959 . S
H2248 C2185 0.930 . S
H2249 C2189 0.931 . S
H2250 C2190 0.959 . S
H2251 C2190 0.961 . S
H2252 C2190 0.959 . S
H2253 C2191 0.960 . S
H2254 C2191 0.960 . S
H2255 C2191 0.960 . S
H2256 C2227 0.980 . S
H2257 C2193 0.930 . S
H2258 C2197 0.930 . S
H2259 C2198 0.961 . S
H2260 C2198 0.960 . S
H2261 C2198 0.958 . S
H2262 C2199 0.961 . S
H2263 C2199 0.960 . S
H2264 C2199 0.960 . S
H2265 C2201 0.980 . S
H2266 C2200 0.961 . S
H2267 C2200 0.961 . S
H2268 C2200 0.959 . S
H2269 C2203 0.932 . S
H2270 C2207 0.929 . S
H2271 C2208 0.961 . S
H2272 C2208 0.959 . S
H2273 C2208 0.959 . S
H2274 C2209 0.960 . S
H2275 C2209 0.962 . S
H2276 C2209 0.961 . S
H2277 C2211 0.929 . S
H2278 C2214 0.930 . S
H2279 C2215 0.929 . S
H2280 C2218 0.930 . S
H2281 C2221 0.929 . S
H2282 C2222 0.930 . S
H2283 C2226 0.962 . S
H2284 C2226 0.959 . S
H2285 C2226 0.958 . S
H2286 C2298 0.930 . S
H2287 C2300 0.930 . S
H2288 C2301 0.930 . S
H2289 C2305 0.959 . S
H2290 C2305 0.959 . S
H2291 C2305 0.961 . S
H2292 C2306 0.960 . S
H2293 C2306 0.961 . S
H2294 C2306 0.959 . S
H2295 C2309 0.929 . S
H2296 C2310 0.931 . S
H2297 C2312 0.930 . S
C2298 H2286 0.930 . S
C2298 C2299 1.399 . S
C2298 C2303 1.399 . S
C2299 C2298 1.399 . S
C2299 C2300 1.376 1_655 S
C2300 H2287 0.930 . S
C2300 C2299 1.376 1_455 S
C2300 C2301 1.388 . S
C2301 H2288 0.930 . S
C2301 C2300 1.388 . S
C2301 C2302 1.390 . S
C2302 C2301 1.390 . S
C2302 C2303 1.394 1_455 S
C2302 C2308 1.465 . S
C2303 C2298 1.399 . S
C2303 C2302 1.394 1_655 S
C2303 C2304 1.516 . S
C2304 C2303 1.516 . S
C2304 C2305 1.502 . S
C2304 C2306 1.561 . S
C2304 C2307 1.526 . S
C2305 H2289 0.959 . S
C2305 H2290 0.959 . S
C2305 H2291 0.961 . S
C2305 C2304 1.502 . S
C2306 H2292 0.960 . S
C2306 H2293 0.961 . S
C2306 H2294 0.959 . S
C2306 C2304 1.561 . S
C2307 C2304 1.526 . S
C2307 C2308 1.396 1_655 S
C2307 C2312 1.390 . S
C2308 C2302 1.465 . S
C2308 C2307 1.396 1_455 S
C2308 C2309 1.399 . S
C2309 H2295 0.929 . S
C2309 C2308 1.399 . S
C2309 C2310 1.385 . S
C2310 H2296 0.931 . S
C2310 C2309 1.385 . S
C2310 C2311 1.389 1_455 S
C2311 C2310 1.389 1_655 S
C2311 C2312 1.387 . S
C2312 H2297 0.930 . S
C2312 C2307 1.390 . S
C2312 C2311 1.387 . S
H2313 C2325 0.930 . S
H2314 C2327 0.930 . S
H2315 C2328 0.930 . S
H2316 C2332 0.959 . S
H2317 C2332 0.959 . S
H2318 C2332 0.961 . S
H2319 C2333 0.960 . S
H2320 C2333 0.961 . S
H2321 C2333 0.959 . S
H2322 C2336 0.929 . S
H2323 C2337 0.931 . S
H2324 C2339 0.930 . S
C2325 H2313 0.930 . S
C2325 C2326 1.399 . S
C2325 C2330 1.399 . S
C2326 C2325 1.399 . S
C2326 C2327 1.376 . S
C2327 H2314 0.930 . S
C2327 C2326 1.376 . S
C2327 C2328 1.388 . S
C2328 H2315 0.930 . S
C2328 C2327 1.388 . S
C2328 C2329 1.390 . S
C2329 C2328 1.390 . S
C2329 C2330 1.394 . S
C2329 C2335 1.465 . S
C2330 C2325 1.399 . S
C2330 C2329 1.394 . S
C2330 C2331 1.516 . S
C2331 C2330 1.516 . S
C2331 C2332 1.502 . S
C2331 C2333 1.561 . S
C2331 C2334 1.526 . S
C2332 H2316 0.959 . S
C2332 H2317 0.959 . S
C2332 H2318 0.961 . S
C2332 C2331 1.502 . S
C2333 H2319 0.960 . S
C2333 H2320 0.961 . S
C2333 H2321 0.959 . S
C2333 C2331 1.561 . S
C2334 C2331 1.526 . S
C2334 C2335 1.396 . S
C2334 C2339 1.390 . S
C2335 C2329 1.465 . S
C2335 C2334 1.396 . S
C2335 C2336 1.399 . S
C2336 H2322 0.929 . S
C2336 C2335 1.399 . S
C2336 C2337 1.385 . S
C2337 H2323 0.931 . S
C2337 C2336 1.385 . S
C2337 C2338 1.389 . S
C2338 C2337 1.389 . S
C2338 C2339 1.387 . S
C2339 H2324 0.930 . S
C2339 C2334 1.390 . S
C2339 C2338 1.387 . S
H2340 C2352 0.930 . S
H2341 C2354 0.930 . S
H2342 C2355 0.930 . S
H2343 C2359 0.959 1_545 S
H2344 C2359 0.959 . S
H2345 C2359 0.961 . S
H2346 C2360 0.960 . S
H2347 C2360 0.961 . S
H2348 C2360 0.959 . S
H2349 C2363 0.929 . S
H2350 C2364 0.931 . S
H2351 C2366 0.930 1_565 S
C2352 H2340 0.930 . S
C2352 C2353 1.399 . S
C2352 C2357 1.399 . S
C2353 C2352 1.399 . S
C2353 C2354 1.376 . S
C2354 H2341 0.930 . S
C2354 C2353 1.376 . S
C2354 C2355 1.388 . S
C2355 H2342 0.930 . S
C2355 C2354 1.388 . S
C2355 C2356 1.390 . S
C2356 C2355 1.390 . S
C2356 C2357 1.394 . S
C2356 C2362 1.465 . S
C2357 C2352 1.399 . S
C2357 C2356 1.394 . S
C2357 C2358 1.521 . S
C2358 C2357 1.521 . S
C2358 C2359 1.504 1_545 S
C2358 C2360 1.555 1_545 S
C2358 C2361 1.525 . S
C2359 H2343 0.959 1_565 S
C2359 H2344 0.959 . S
C2359 H2345 0.961 . S
C2359 C2358 1.504 1_565 S
C2360 H2346 0.960 . S
C2360 H2347 0.961 . S
C2360 H2348 0.959 . S
C2360 C2358 1.555 1_565 S
C2361 C2358 1.525 . S
C2361 C2362 1.396 . S
C2361 C2366 1.390 . S
C2362 C2356 1.465 . S
C2362 C2361 1.396 . S
C2362 C2363 1.399 . S
C2363 H2349 0.929 . S
C2363 C2362 1.399 . S
C2363 C2364 1.385 . S
C2364 H2350 0.931 . S
C2364 C2363 1.385 . S
C2364 C2365 1.389 . S
C2365 C2364 1.389 . S
C2365 C2366 1.387 . S
C2366 H2351 0.930 1_545 S
C2366 C2361 1.390 . S
C2366 C2365 1.387 . S
H2367 C2379 0.930 . S
H2368 C2381 0.930 . S
H2369 C2382 0.930 . S
H2370 C2386 0.959 . S
H2371 C2386 0.959 . S
H2372 C2386 0.961 . S
H2373 C2387 0.960 . S
H2374 C2387 0.961 . S
H2375 C2387 0.959 1_565 S
H2376 C2390 0.929 . S
H2377 C2391 0.931 . S
H2378 C2393 0.930 . S
C2379 H2367 0.930 . S
C2379 C2380 1.399 1_545 S
C2379 C2384 1.399 . S
C2380 C2379 1.399 1_565 S
C2380 C2381 1.376 . S
C2381 H2368 0.930 . S
C2381 C2380 1.376 . S
C2381 C2382 1.388 . S
C2382 H2369 0.930 . S
C2382 C2381 1.388 . S
C2382 C2383 1.390 . S
C2383 C2382 1.390 . S
C2383 C2384 1.394 1_565 S
C2383 C2389 1.465 . S
C2384 C2379 1.399 . S
C2384 C2383 1.394 1_545 S
C2384 C2385 1.516 . S
C2385 C2384 1.516 . S
C2385 C2386 1.502 . S
C2385 C2387 1.561 . S
C2385 C2388 1.526 . S
C2386 H2370 0.959 . S
C2386 H2371 0.959 . S
C2386 H2372 0.961 . S
C2386 C2385 1.502 . S
C2387 H2373 0.960 . S
C2387 H2374 0.961 . S
C2387 H2375 0.959 1_545 S
C2387 C2385 1.561 . S
C2388 C2385 1.526 . S
C2388 C2389 1.396 1_545 S
C2388 C2393 1.390 . S
C2389 C2383 1.465 . S
C2389 C2388 1.396 1_565 S
C2389 C2390 1.399 . S
C2390 H2376 0.929 . S
C2390 C2389 1.399 . S
C2390 C2391 1.385 . S
C2391 H2377 0.931 . S
C2391 C2390 1.385 . S
C2391 C2392 1.389 . S
C2392 C2391 1.389 . S
C2392 C2393 1.387 1_565 S
C2393 H2378 0.930 . S
C2393 C2388 1.390 . S
C2393 C2392 1.387 1_545 S
H2394 C2406 0.930 . S
H2395 C2408 0.930 . S
H2396 C2409 0.930 . S
H2397 C2413 0.959 . S
H2398 C2413 0.959 . S
H2399 C2413 0.961 . S
H2400 C2414 0.960 . S
H2401 C2414 0.961 . S
H2402 C2414 0.959 . S
H2403 C2417 0.929 . S
H2404 C2418 0.931 . S
H2405 C2420 0.930 . S
C2406 H2394 0.930 . S
C2406 C2407 1.399 . S
C2406 C2411 1.399 . S
C2407 C2406 1.399 . S
C2407 C2408 1.376 . S
C2408 H2395 0.930 . S
C2408 C2407 1.376 . S
C2408 C2409 1.388 . S
C2409 H2396 0.930 . S
C2409 C2408 1.388 . S
C2409 C2410 1.390 . S
C2410 C2409 1.390 . S
C2410 C2411 1.394 . S
C2410 C2416 1.465 . S
C2411 C2406 1.399 . S
C2411 C2410 1.394 . S
C2411 C2412 1.516 . S
C2412 C2411 1.516 . S
C2412 C2413 1.502 1_455 S
C2412 C2414 1.561 . S
C2412 C2415 1.526 . S
C2413 H2397 0.959 . S
C2413 H2398 0.959 . S
C2413 H2399 0.961 . S
C2413 C2412 1.502 1_655 S
C2414 H2400 0.960 . S
C2414 H2401 0.961 . S
C2414 H2402 0.959 . S
C2414 C2412 1.561 . S
C2415 C2412 1.526 . S
C2415 C2416 1.396 . S
C2415 C2420 1.390 . S
C2416 C2410 1.465 . S
C2416 C2415 1.396 . S
C2416 C2417 1.399 . S
C2417 H2403 0.929 . S
C2417 C2416 1.399 . S
C2417 C2418 1.385 . S
C2418 H2404 0.931 . S
C2418 C2417 1.385 . S
C2418 C2419 1.389 . S
C2419 C2418 1.389 . S
C2419 C2420 1.387 . S
C2420 H2405 0.930 . S
C2420 C2415 1.390 . S
C2420 C2419 1.387 . S
H2421 C2433 0.930 . S
H2422 C2435 0.930 . S
H2423 C2436 0.930 . S
H2424 C2440 0.959 . S
H2425 C2440 0.959 . S
H2426 C2440 0.961 . S
H2427 C2441 0.960 . S
H2428 C2441 0.961 . S
H2429 C2441 0.959 . S
H2430 C2444 0.929 . S
H2431 C2445 0.931 . S
H2432 C2447 0.930 . S
C2433 H2421 0.930 . S
C2433 C2434 1.399 . S
C2433 C2438 1.399 . S
C2434 C2433 1.399 . S
C2434 C2435 1.376 . S
C2435 H2422 0.930 . S
C2435 C2434 1.376 . S
C2435 C2436 1.388 . S
C2436 H2423 0.930 . S
C2436 C2435 1.388 . S
C2436 C2437 1.390 . S
C2437 C2436 1.390 . S
C2437 C2438 1.394 . S
C2437 C2443 1.465 . S
C2438 C2433 1.399 . S
C2438 C2437 1.394 . S
C2438 C2439 1.516 . S
C2439 C2438 1.516 . S
C2439 C2440 1.502 . S
C2439 C2441 1.561 . S
C2439 C2442 1.526 . S
C2440 H2424 0.959 . S
C2440 H2425 0.959 . S
C2440 H2426 0.961 . S
C2440 C2439 1.502 . S
C2441 H2427 0.960 . S
C2441 H2428 0.961 . S
C2441 H2429 0.959 . S
C2441 C2439 1.561 . S
C2442 C2439 1.526 . S
C2442 C2443 1.396 . S
C2442 C2447 1.390 . S
C2443 C2437 1.465 . S
C2443 C2442 1.396 . S
C2443 C2444 1.399 . S
C2444 H2430 0.929 . S
C2444 C2443 1.399 . S
C2444 C2445 1.385 . S
C2445 H2431 0.931 . S
C2445 C2444 1.385 . S
C2445 C2446 1.389 . S
C2446 C2445 1.389 . S
C2446 C2447 1.387 . S
C2447 H2432 0.930 . S
C2447 C2442 1.390 . S
C2447 C2446 1.387 . S
H2448 C2460 0.930 . S
H2449 C2462 0.930 . S
H2450 C2463 0.930 . S
H2451 C2467 0.959 . S
H2452 C2467 0.959 . S
H2453 C2467 0.961 . S
H2454 C2468 0.960 . S
H2455 C2468 0.961 . S
H2456 C2468 0.959 . S
H2457 C2471 0.929 . S
H2458 C2472 0.931 . S
H2459 C2474 0.944 . S
C2460 H2448 0.930 . S
C2460 C2461 1.399 . S
C2460 C2465 1.399 . S
C2461 C2460 1.399 . S
C2461 C2462 1.376 . S
C2462 H2449 0.930 . S
C2462 C2461 1.376 . S
C2462 C2463 1.388 . S
C2463 H2450 0.930 . S
C2463 C2462 1.388 . S
C2463 C2464 1.390 . S
C2464 C2463 1.390 . S
C2464 C2465 1.394 . S
C2464 C2470 1.465 . S
C2465 C2460 1.399 . S
C2465 C2464 1.394 . S
C2465 C2466 1.516 . S
C2466 C2465 1.516 . S
C2466 C2467 1.502 1_455 S
C2466 C2468 1.561 . S
C2466 C2469 1.526 . S
C2467 H2451 0.959 . S
C2467 H2452 0.959 . S
C2467 H2453 0.961 . S
C2467 C2466 1.502 1_655 S
C2468 H2454 0.960 . S
C2468 H2455 0.961 . S
C2468 H2456 0.959 . S
C2468 C2466 1.561 . S
C2469 C2466 1.526 . S
C2469 C2470 1.396 . S
C2469 C2474 1.395 1_455 S
C2470 C2464 1.465 . S
C2470 C2469 1.396 . S
C2470 C2471 1.399 . S
C2471 H2457 0.929 . S
C2471 C2470 1.399 . S
C2471 C2472 1.385 . S
C2472 H2458 0.931 . S
C2472 C2471 1.385 . S
C2472 C2473 1.389 . S
C2473 C2472 1.389 . S
C2473 C2474 1.368 1_455 S
C2474 H2459 0.944 . S
C2474 C2469 1.395 1_655 S
C2474 C2473 1.368 1_655 S
H2475 C2487 0.930 . S
H2476 C2489 0.930 . S
H2477 C2490 0.930 . S
H2478 C2494 0.959 . S
H2479 C2494 0.959 . S
H2480 C2494 0.961 . S
H2481 C2495 0.960 . S
H2482 C2495 0.961 . S
H2483 C2495 0.959 . S
H2484 C2498 0.929 . S
H2485 C2499 0.931 . S
H2486 C2501 0.930 . S
C2487 H2475 0.930 . S
C2487 C2488 1.399 . S
C2487 C2492 1.399 . S
C2488 C2487 1.399 . S
C2488 C2489 1.376 . S
C2489 H2476 0.930 . S
C2489 C2488 1.376 . S
C2489 C2490 1.388 . S
C2490 H2477 0.930 . S
C2490 C2489 1.388 . S
C2490 C2491 1.390 . S
C2491 C2490 1.390 . S
C2491 C2492 1.394 . S
C2491 C2497 1.465 . S
C2492 C2487 1.399 . S
C2492 C2491 1.394 . S
C2492 C2493 1.516 . S
C2493 C2492 1.516 . S
C2493 C2494 1.502 . S
C2493 C2495 1.561 . S
C2493 C2496 1.526 . S
C2494 H2478 0.959 . S
C2494 H2479 0.959 . S
C2494 H2480 0.961 . S
C2494 C2493 1.502 . S
C2495 H2481 0.960 . S
C2495 H2482 0.961 . S
C2495 H2483 0.959 . S
C2495 C2493 1.561 . S
C2496 C2493 1.526 . S
C2496 C2497 1.396 . S
C2496 C2501 1.390 . S
C2497 C2491 1.465 . S
C2497 C2496 1.396 . S
C2497 C2498 1.399 . S
C2498 H2484 0.929 . S
C2498 C2497 1.399 . S
C2498 C2499 1.385 . S
C2499 H2485 0.931 . S
C2499 C2498 1.385 . S
C2499 C2500 1.389 . S
C2500 C2499 1.389 . S
C2500 C2501 1.387 . S
C2501 H2486 0.930 . S
C2501 C2496 1.390 . S
C2501 C2500 1.387 . S
H2502 C2514 0.930 . S
H2503 C2516 0.930 . S
H2504 C2517 0.930 . S
H2505 C2521 0.959 . S
H2506 C2521 0.959 . S
H2507 C2521 0.961 . S
H2508 C2522 0.960 . S
H2509 C2522 0.961 . S
H2510 C2522 0.959 . S
H2511 C2525 0.929 . S
H2512 C2526 0.931 . S
H2513 C2528 0.930 . S
C2514 H2502 0.930 . S
C2514 C2515 1.399 . S
C2514 C2519 1.399 . S
C2515 C2514 1.399 . S
C2515 C2516 1.376 1_565 S
C2516 H2503 0.930 . S
C2516 C2515 1.376 1_545 S
C2516 C2517 1.388 . S
C2517 H2504 0.930 . S
C2517 C2516 1.388 . S
C2517 C2518 1.400 . S
C2518 C2517 1.400 . S
C2518 C2519 1.360 1_545 S
C2518 C2524 1.484 . S
C2519 C2514 1.399 . S
C2519 C2518 1.360 1_565 S
C2519 C2520 1.516 . S
C2520 C2519 1.516 . S
C2520 C2521 1.502 . S
C2520 C2522 1.561 . S
C2520 C2523 1.526 . S
C2521 H2505 0.959 . S
C2521 H2506 0.959 . S
C2521 H2507 0.961 . S
C2521 C2520 1.502 . S
C2522 H2508 0.960 . S
C2522 H2509 0.961 . S
C2522 H2510 0.959 . S
C2522 C2520 1.561 . S
C2523 C2520 1.526 . S
C2523 C2524 1.396 1_565 S
C2523 C2528 1.390 . S
C2524 C2518 1.484 . S
C2524 C2523 1.396 1_545 S
C2524 C2525 1.399 . S
C2525 H2511 0.929 . S
C2525 C2524 1.399 . S
C2525 C2526 1.385 . S
C2526 H2512 0.931 . S
C2526 C2525 1.385 . S
C2526 C2527 1.389 1_545 S
C2527 C2526 1.389 1_565 S
C2527 C2528 1.387 . S
C2528 H2513 0.930 . S
C2528 C2523 1.390 . S
C2528 C2527 1.387 . S
H2529 C2541 0.930 1_565 S
H2530 C2543 0.930 . S
H2531 C2544 0.930 . S
H2532 C2548 0.959 . S
H2533 C2548 0.959 . S
H2534 C2548 0.961 . S
H2535 C2549 0.960 . S
H2536 C2549 0.961 . S
H2537 C2549 0.959 1_545 S
H2538 C2552 0.929 . S
H2539 C2553 0.931 . S
H2540 C2555 0.930 . S
C2541 H2529 0.930 1_545 S
C2541 C2542 1.399 . S
C2541 C2546 1.399 . S
C2542 C2541 1.399 . S
C2542 C2543 1.376 . S
C2543 H2530 0.930 . S
C2543 C2542 1.376 . S
C2543 C2544 1.388 . S
C2544 H2531 0.930 . S
C2544 C2543 1.388 . S
C2544 C2545 1.390 . S
C2545 C2544 1.390 . S
C2545 C2546 1.394 . S
C2545 C2551 1.465 . S
C2546 C2541 1.399 . S
C2546 C2545 1.394 . S
C2546 C2547 1.516 1_545 S
C2547 C2546 1.516 1_565 S
C2547 C2548 1.502 . S
C2547 C2549 1.561 . S
C2547 C2550 1.577 . S
C2548 H2532 0.959 . S
C2548 H2533 0.959 . S
C2548 H2534 0.961 . S
C2548 C2547 1.502 . S
C2549 H2535 0.960 . S
C2549 H2536 0.961 . S
C2549 H2537 0.959 1_565 S
C2549 C2547 1.561 . S
C2550 C2547 1.577 . S
C2550 C2551 1.343 1_565 S
C2550 C2555 1.388 . S
C2551 C2545 1.465 . S
C2551 C2550 1.343 1_545 S
C2551 C2552 1.399 . S
C2552 H2538 0.929 . S
C2552 C2551 1.399 . S
C2552 C2553 1.385 . S
C2553 H2539 0.931 . S
C2553 C2552 1.385 . S
C2553 C2554 1.389 . S
C2554 C2553 1.389 . S
C2554 C2555 1.387 1_545 S
C2555 H2540 0.930 . S
C2555 C2550 1.388 . S
C2555 C2554 1.387 1_565 S
H2556 C2568 0.930 . S
H2557 C2570 0.930 . S
H2558 C2571 0.930 . S
H2559 C2575 0.959 . S
H2560 C2575 0.959 . S
H2561 C2575 0.961 . S
H2562 C2576 0.960 . S
H2563 C2576 0.961 . S
H2564 C2576 0.959 . S
H2565 C2579 0.929 . S
H2566 C2580 0.931 . S
H2567 C2582 0.930 . S
C2568 H2556 0.930 . S
C2568 C2569 1.399 . S
C2568 C2573 1.399 . S
C2569 C2568 1.399 . S
C2569 C2570 1.376 1_655 S
C2570 H2557 0.930 . S
C2570 C2569 1.376 1_455 S
C2570 C2571 1.388 . S
C2571 H2558 0.930 . S
C2571 C2570 1.388 . S
C2571 C2572 1.390 1_455 S
C2572 C2571 1.390 1_655 S
C2572 C2573 1.392 . S
C2572 C2578 1.466 1_655 S
C2573 C2568 1.399 . S
C2573 C2572 1.392 . S
C2573 C2574 1.516 . S
C2574 C2573 1.516 . S
C2574 C2575 1.502 . S
C2574 C2576 1.561 . S
C2574 C2577 1.526 . S
C2575 H2559 0.959 . S
C2575 H2560 0.959 . S
C2575 H2561 0.961 . S
C2575 C2574 1.502 . S
C2576 H2562 0.960 . S
C2576 H2563 0.961 . S
C2576 H2564 0.959 . S
C2576 C2574 1.561 . S
C2577 C2574 1.526 . S
C2577 C2578 1.396 1_655 S
C2577 C2582 1.390 . S
C2578 C2572 1.466 1_455 S
C2578 C2577 1.396 1_455 S
C2578 C2579 1.399 . S
C2579 H2565 0.929 . S
C2579 C2578 1.399 . S
C2579 C2580 1.385 . S
C2580 H2566 0.931 . S
C2580 C2579 1.385 . S
C2580 C2581 1.389 1_455 S
C2581 C2580 1.389 1_655 S
C2581 C2582 1.387 . S
C2582 H2567 0.930 . S
C2582 C2577 1.390 . S
C2582 C2581 1.387 . S
H2583 C2595 0.930 . S
H2584 C2597 0.930 . S
H2585 C2598 0.930 . S
H2586 C2602 0.959 . S
H2587 C2602 0.959 . S
H2588 C2602 0.961 . S
H2589 C2603 0.960 . S
H2590 C2603 0.961 . S
H2591 C2603 0.959 . S
H2592 C2606 0.929 . S
H2593 C2607 0.931 . S
H2594 C2609 0.930 . S
C2595 H2583 0.930 . S
C2595 C2596 1.399 . S
C2595 C2600 1.399 . S
C2596 C2595 1.399 . S
C2596 C2597 1.376 . S
C2597 H2584 0.930 . S
C2597 C2596 1.376 . S
C2597 C2598 1.388 . S
C2598 H2585 0.930 . S
C2598 C2597 1.388 . S
C2598 C2599 1.390 . S
C2599 C2598 1.390 . S
C2599 C2600 1.394 . S
C2599 C2605 1.465 . S
C2600 C2595 1.399 . S
C2600 C2599 1.394 . S
C2600 C2601 1.516 . S
C2601 C2600 1.516 . S
C2601 C2602 1.502 . S
C2601 C2603 1.561 . S
C2601 C2604 1.526 . S
C2602 H2586 0.959 . S
C2602 H2587 0.959 . S
C2602 H2588 0.961 . S
C2602 C2601 1.502 . S
C2603 H2589 0.960 . S
C2603 H2590 0.961 . S
C2603 H2591 0.959 . S
C2603 C2601 1.561 . S
C2604 C2601 1.526 . S
C2604 C2605 1.396 . S
C2604 C2609 1.390 . S
C2605 C2599 1.465 . S
C2605 C2604 1.396 . S
C2605 C2606 1.399 . S
C2606 H2592 0.929 . S
C2606 C2605 1.399 . S
C2606 C2607 1.385 . S
C2607 H2593 0.931 . S
C2607 C2606 1.385 . S
C2607 C2608 1.389 . S
C2608 C2607 1.389 . S
C2608 C2609 1.387 . S
C2609 H2594 0.930 . S
C2609 C2604 1.390 . S
C2609 C2608 1.387 . S
H2610 C2622 0.930 . S
H2611 C2624 0.930 . S
H2612 C2625 0.930 . S
H2613 C2629 0.959 . S
H2614 C2629 0.959 . S
H2615 C2629 0.961 . S
H2616 C2630 0.960 . S
H2617 C2630 0.961 . S
H2618 C2630 0.959 . S
H2619 C2633 0.929 . S
H2620 C2634 0.931 . S
H2621 C2636 0.930 . S
C2622 H2610 0.930 . S
C2622 C2623 1.399 . S
C2622 C2627 1.399 . S
C2623 C2622 1.399 . S
C2623 C2624 1.376 . S
C2624 H2611 0.930 . S
C2624 C2623 1.376 . S
C2624 C2625 1.388 . S
C2625 H2612 0.930 . S
C2625 C2624 1.388 . S
C2625 C2626 1.390 . S
C2626 C2625 1.390 . S
C2626 C2627 1.394 . S
C2626 C2632 1.465 . S
C2627 C2622 1.399 . S
C2627 C2626 1.394 . S
C2627 C2628 1.516 . S
C2628 C2627 1.516 . S
C2628 C2629 1.502 . S
C2628 C2630 1.561 . S
C2628 C2631 1.526 . S
C2629 H2613 0.959 . S
C2629 H2614 0.959 . S
C2629 H2615 0.961 . S
C2629 C2628 1.502 . S
C2630 H2616 0.960 . S
C2630 H2617 0.961 . S
C2630 H2618 0.959 . S
C2630 C2628 1.561 . S
C2631 C2628 1.526 . S
C2631 C2632 1.396 . S
C2631 C2636 1.390 . S
C2632 C2626 1.465 . S
C2632 C2631 1.396 . S
C2632 C2633 1.399 . S
C2633 H2619 0.929 . S
C2633 C2632 1.399 . S
C2633 C2634 1.385 . S
C2634 H2620 0.931 . S
C2634 C2633 1.385 . S
C2634 C2635 1.389 . S
C2635 C2634 1.389 . S
C2635 C2636 1.387 . S
C2636 H2621 0.930 . S
C2636 C2631 1.390 . S
C2636 C2635 1.387 . S
H2637 C2649 0.930 . S
H2638 C2651 0.930 . S
H2639 C2652 0.930 . S
H2640 C2656 0.959 . S
H2641 C2656 0.959 . S
H2642 C2656 0.961 . S
H2643 C2657 0.960 . S
H2644 C2657 0.961 . S
H2645 C2657 0.959 . S
H2646 C2660 0.929 . S
H2647 C2661 0.931 . S
H2648 C2663 0.930 . S
C2649 H2637 0.930 . S
C2649 C2650 1.399 . S
C2649 C2654 1.399 . S
C2650 C2649 1.399 . S
C2650 C2651 1.376 . S
C2651 H2638 0.930 . S
C2651 C2650 1.376 . S
C2651 C2652 1.388 . S
C2652 H2639 0.930 . S
C2652 C2651 1.388 . S
C2652 C2653 1.390 . S
C2653 C2652 1.390 . S
C2653 C2654 1.394 . S
C2653 C2659 1.465 . S
C2654 C2649 1.399 . S
C2654 C2653 1.394 . S
C2654 C2655 1.516 . S
C2655 C2654 1.516 . S
C2655 C2656 1.502 . S
C2655 C2657 1.561 . S
C2655 C2658 1.526 . S
C2656 H2640 0.959 . S
C2656 H2641 0.959 . S
C2656 H2642 0.961 . S
C2656 C2655 1.502 . S
C2657 H2643 0.960 . S
C2657 H2644 0.961 . S
C2657 H2645 0.959 . S
C2657 C2655 1.561 . S
C2658 C2655 1.526 . S
C2658 C2659 1.396 . S
C2658 C2663 1.390 . S
C2659 C2653 1.465 . S
C2659 C2658 1.396 . S
C2659 C2660 1.399 . S
C2660 H2646 0.929 . S
C2660 C2659 1.399 . S
C2660 C2661 1.385 . S
C2661 H2647 0.931 . S
C2661 C2660 1.385 . S
C2661 C2662 1.389 . S
C2662 C2661 1.389 . S
C2662 C2663 1.387 . S
C2663 H2648 0.930 . S
C2663 C2658 1.390 . S
C2663 C2662 1.387 . S
H2664 C2676 0.930 . S
H2665 C2678 0.930 . S
H2666 C2679 0.930 . S
H2667 C2683 0.959 . S
H2668 C2683 0.959 . S
H2669 C2683 0.961 . S
H2670 C2684 0.960 . S
H2671 C2684 0.961 . S
H2672 C2684 0.959 . S
H2673 C2687 0.929 . S
H2674 C2688 0.931 . S
H2675 C2690 0.930 . S
C2676 H2664 0.930 . S
C2676 C2677 1.399 . S
C2676 C2681 1.399 . S
C2677 C2676 1.399 . S
C2677 C2678 1.376 . S
C2678 H2665 0.930 . S
C2678 C2677 1.376 . S
C2678 C2679 1.388 . S
C2679 H2666 0.930 . S
C2679 C2678 1.388 . S
C2679 C2680 1.390 . S
C2680 C2679 1.390 . S
C2680 C2681 1.394 . S
C2680 C2686 1.465 . S
C2681 C2676 1.399 . S
C2681 C2680 1.394 . S
C2681 C2682 1.516 . S
C2682 C2681 1.516 . S
C2682 C2683 1.502 . S
C2682 C2684 1.561 . S
C2682 C2685 1.526 . S
C2683 H2667 0.959 . S
C2683 H2668 0.959 . S
C2683 H2669 0.961 . S
C2683 C2682 1.502 . S
C2684 H2670 0.960 . S
C2684 H2671 0.961 . S
C2684 H2672 0.959 . S
C2684 C2682 1.561 . S
C2685 C2682 1.526 . S
C2685 C2686 1.396 . S
C2685 C2690 1.390 . S
C2686 C2680 1.465 . S
C2686 C2685 1.396 . S
C2686 C2687 1.399 . S
C2687 H2673 0.929 . S
C2687 C2686 1.399 . S
C2687 C2688 1.385 . S
C2688 H2674 0.931 . S
C2688 C2687 1.385 . S
C2688 C2689 1.389 . S
C2689 C2688 1.389 . S
C2689 C2690 1.387 . S
C2690 H2675 0.930 . S
C2690 C2685 1.390 . S
C2690 C2689 1.387 . S
H2691 C2703 0.930 . S
H2692 C2705 0.930 . S
H2693 C2706 0.930 . S
H2694 C2710 0.959 . S
H2695 C2710 0.959 . S
H2696 C2710 0.961 . S
H2697 C2711 0.960 . S
H2698 C2711 0.961 . S
H2699 C2711 0.959 . S
H2700 C2714 0.929 . S
H2701 C2715 0.931 . S
H2702 C2717 0.930 . S
C2703 H2691 0.930 . S
C2703 C2704 1.399 . S
C2703 C2708 1.399 . S
C2704 C2703 1.399 . S
C2704 C2705 1.376 . S
C2705 H2692 0.930 . S
C2705 C2704 1.376 . S
C2705 C2706 1.388 . S
C2706 H2693 0.930 . S
C2706 C2705 1.388 . S
C2706 C2707 1.390 . S
C2707 C2706 1.390 . S
C2707 C2708 1.394 . S
C2707 C2713 1.465 . S
C2708 C2703 1.399 . S
C2708 C2707 1.394 . S
C2708 C2709 1.516 . S
C2709 C2708 1.516 . S
C2709 C2710 1.502 . S
C2709 C2711 1.561 . S
C2709 C2712 1.526 . S
C2710 H2694 0.959 . S
C2710 H2695 0.959 . S
C2710 H2696 0.961 . S
C2710 C2709 1.502 . S
C2711 H2697 0.960 . S
C2711 H2698 0.961 . S
C2711 H2699 0.959 . S
C2711 C2709 1.561 . S
C2712 C2709 1.526 . S
C2712 C2713 1.396 . S
C2712 C2717 1.390 . S
C2713 C2707 1.465 . S
C2713 C2712 1.396 . S
C2713 C2714 1.399 . S
C2714 H2700 0.929 . S
C2714 C2713 1.399 . S
C2714 C2715 1.385 . S
C2715 H2701 0.931 . S
C2715 C2714 1.385 . S
C2715 C2716 1.389 . S
C2716 C2715 1.389 . S
C2716 C2717 1.387 . S
C2717 H2702 0.930 . S
C2717 C2712 1.390 . S
C2717 C2716 1.387 . S
H2718 C2730 0.930 . S
H2719 C2732 0.930 . S
H2720 C2733 0.930 . S
H2721 C2737 0.959 . S
H2722 C2737 0.959 . S
H2723 C2737 0.961 . S
H2724 C2738 0.960 . S
H2725 C2738 0.961 . S
H2726 C2738 0.959 . S
H2727 C2741 0.929 . S
H2728 C2742 0.931 . S
H2729 C2744 0.930 . S
C2730 H2718 0.930 . S
C2730 C2731 1.399 . S
C2730 C2735 1.399 . S
C2731 C2730 1.399 . S
C2731 C2732 1.376 . S
C2732 H2719 0.930 . S
C2732 C2731 1.376 . S
C2732 C2733 1.388 . S
C2733 H2720 0.930 . S
C2733 C2732 1.388 . S
C2733 C2734 1.390 . S
C2734 C2733 1.390 . S
C2734 C2735 1.394 . S
C2734 C2740 1.465 . S
C2735 C2730 1.399 . S
C2735 C2734 1.394 . S
C2735 C2736 1.516 . S
C2736 C2735 1.516 . S
C2736 C2737 1.502 . S
C2736 C2738 1.561 . S
C2736 C2739 1.526 . S
C2737 H2721 0.959 . S
C2737 H2722 0.959 . S
C2737 H2723 0.961 . S
C2737 C2736 1.502 . S
C2738 H2724 0.960 . S
C2738 H2725 0.961 . S
C2738 H2726 0.959 . S
C2738 C2736 1.561 . S
C2739 C2736 1.526 . S
C2739 C2740 1.396 . S
C2739 C2744 1.390 . S
C2740 C2734 1.465 . S
C2740 C2739 1.396 . S
C2740 C2741 1.399 . S
C2741 H2727 0.929 . S
C2741 C2740 1.399 . S
C2741 C2742 1.385 . S
C2742 H2728 0.931 . S
C2742 C2741 1.385 . S
C2742 C2743 1.389 . S
C2743 C2742 1.389 . S
C2743 C2744 1.387 . S
C2744 H2729 0.930 . S
C2744 C2739 1.390 . S
C2744 C2743 1.387 . S
H2745 C2757 0.930 . S
H2746 C2759 0.930 . S
H2747 C2760 0.930 . S
H2748 C2764 0.959 . S
H2749 C2764 0.959 . S
H2750 C2764 0.961 . S
H2751 C2765 0.960 . S
H2752 C2765 0.961 . S
H2753 C2765 0.959 . S
H2754 C2768 0.929 . S
H2755 C2769 0.931 . S
H2756 C2771 0.930 . S
C2757 H2745 0.930 . S
C2757 C2758 1.399 . S
C2757 C2762 1.399 . S
C2758 C2757 1.399 . S
C2758 C2759 1.376 . S
C2759 H2746 0.930 . S
C2759 C2758 1.376 . S
C2759 C2760 1.388 . S
C2760 H2747 0.930 . S
C2760 C2759 1.388 . S
C2760 C2761 1.390 . S
C2761 C2760 1.390 . S
C2761 C2762 1.394 . S
C2761 C2767 1.465 . S
C2762 C2757 1.399 . S
C2762 C2761 1.394 . S
C2762 C2763 1.516 . S
C2763 C2762 1.516 . S
C2763 C2764 1.502 . S
C2763 C2765 1.561 . S
C2763 C2766 1.526 . S
C2764 H2748 0.959 . S
C2764 H2749 0.959 . S
C2764 H2750 0.961 . S
C2764 C2763 1.502 . S
C2765 H2751 0.960 . S
C2765 H2752 0.961 . S
C2765 H2753 0.959 . S
C2765 C2763 1.561 . S
C2766 C2763 1.526 . S
C2766 C2767 1.396 . S
C2766 C2771 1.390 . S
C2767 C2761 1.465 . S
C2767 C2766 1.396 . S
C2767 C2768 1.399 . S
C2768 H2754 0.929 . S
C2768 C2767 1.399 . S
C2768 C2769 1.385 . S
C2769 H2755 0.931 . S
C2769 C2768 1.385 . S
C2769 C2770 1.389 . S
C2770 C2769 1.389 . S
C2770 C2771 1.387 . S
C2771 H2756 0.930 . S
C2771 C2766 1.390 . S
C2771 C2770 1.387 . S
H2772 C2784 0.930 . S
H2773 C2786 0.930 . S
H2774 C2787 0.930 . S
H2775 C2791 0.959 . S
H2776 C2791 0.959 . S
H2777 C2791 0.961 . S
H2778 C2792 0.960 . S
H2779 C2792 0.961 . S
H2780 C2792 0.959 . S
H2781 C2795 0.929 . S
H2782 C2796 0.931 . S
H2783 C2798 0.930 . S
C2784 H2772 0.930 . S
C2784 C2785 1.399 . S
C2784 C2789 1.399 . S
C2785 C2784 1.399 . S
C2785 C2786 1.376 . S
C2786 H2773 0.930 . S
C2786 C2785 1.376 . S
C2786 C2787 1.388 . S
C2787 H2774 0.930 . S
C2787 C2786 1.388 . S
C2787 C2788 1.390 . S
C2788 C2787 1.390 . S
C2788 C2789 1.394 . S
C2788 C2794 1.465 . S
C2789 C2784 1.399 . S
C2789 C2788 1.394 . S
C2789 C2790 1.516 . S
C2790 C2789 1.516 . S
C2790 C2791 1.502 . S
C2790 C2792 1.561 . S
C2790 C2793 1.526 . S
C2791 H2775 0.959 . S
C2791 H2776 0.959 . S
C2791 H2777 0.961 . S
C2791 C2790 1.502 . S
C2792 H2778 0.960 . S
C2792 H2779 0.961 . S
C2792 H2780 0.959 . S
C2792 C2790 1.561 . S
C2793 C2790 1.526 . S
C2793 C2794 1.396 . S
C2793 C2798 1.390 . S
C2794 C2788 1.465 . S
C2794 C2793 1.396 . S
C2794 C2795 1.399 . S
C2795 H2781 0.929 . S
C2795 C2794 1.399 . S
C2795 C2796 1.385 . S
C2796 H2782 0.931 . S
C2796 C2795 1.385 . S
C2796 C2797 1.389 . S
C2797 C2796 1.389 . S
C2797 C2798 1.387 . S
C2798 H2783 0.930 . S
C2798 C2793 1.390 . S
C2798 C2797 1.387 . S
H2799 C2811 0.930 . S
H2800 C2813 0.930 . S
H2801 C2814 0.930 . S
H2802 C2818 0.959 . S
H2803 C2818 0.959 . S
H2804 C2818 0.961 . S
H2805 C2819 0.960 . S
H2806 C2819 0.961 . S
H2807 C2819 0.959 . S
H2808 C2822 0.929 . S
H2809 C2823 0.931 . S
H2810 C2825 0.930 . S
C2811 H2799 0.930 . S
C2811 C2812 1.399 . S
C2811 C2816 1.399 . S
C2812 C2811 1.399 . S
C2812 C2813 1.376 . S
C2813 H2800 0.930 . S
C2813 C2812 1.376 . S
C2813 C2814 1.388 . S
C2814 H2801 0.930 . S
C2814 C2813 1.388 . S
C2814 C2815 1.390 . S
C2815 C2814 1.390 . S
C2815 C2816 1.394 . S
C2815 C2821 1.465 . S
C2816 C2811 1.399 . S
C2816 C2815 1.394 . S
C2816 C2817 1.516 . S
C2817 C2816 1.516 . S
C2817 C2818 1.502 . S
C2817 C2819 1.561 . S
C2817 C2820 1.526 . S
C2818 H2802 0.959 . S
C2818 H2803 0.959 . S
C2818 H2804 0.961 . S
C2818 C2817 1.502 . S
C2819 H2805 0.960 . S
C2819 H2806 0.961 . S
C2819 H2807 0.959 . S
C2819 C2817 1.561 . S
C2820 C2817 1.526 . S
C2820 C2821 1.396 . S
C2820 C2825 1.390 . S
C2821 C2815 1.465 . S
C2821 C2820 1.396 . S
C2821 C2822 1.399 . S
C2822 H2808 0.929 . S
C2822 C2821 1.399 . S
C2822 C2823 1.385 . S
C2823 H2809 0.931 . S
C2823 C2822 1.385 . S
C2823 C2824 1.389 . S
C2824 C2823 1.389 . S
C2824 C2825 1.387 . S
C2825 H2810 0.930 . S
C2825 C2820 1.390 . S
C2825 C2824 1.387 . S
H2826 C2838 0.930 . S
H2827 C2840 0.930 . S
H2828 C2841 0.930 . S
H2829 C2845 0.959 . S
H2830 C2845 0.959 . S
H2831 C2845 0.961 . S
H2832 C2846 0.960 . S
H2833 C2846 0.961 . S
H2834 C2846 0.959 . S
H2835 C2849 0.929 . S
H2836 C2850 0.931 . S
H2837 C2852 0.930 . S
C2838 H2826 0.930 . S
C2838 C2839 1.399 . S
C2838 C2843 1.399 . S
C2839 C2838 1.399 . S
C2839 C2840 1.376 . S
C2840 H2827 0.930 . S
C2840 C2839 1.376 . S
C2840 C2841 1.388 . S
C2841 H2828 0.930 . S
C2841 C2840 1.388 . S
C2841 C2842 1.390 . S
C2842 C2841 1.390 . S
C2842 C2843 1.394 . S
C2842 C2848 1.465 . S
C2843 C2838 1.399 . S
C2843 C2842 1.394 . S
C2843 C2844 1.516 . S
C2844 C2843 1.516 . S
C2844 C2845 1.502 . S
C2844 C2846 1.561 . S
C2844 C2847 1.526 . S
C2845 H2829 0.959 . S
C2845 H2830 0.959 . S
C2845 H2831 0.961 . S
C2845 C2844 1.502 . S
C2846 H2832 0.960 . S
C2846 H2833 0.961 . S
C2846 H2834 0.959 . S
C2846 C2844 1.561 . S
C2847 C2844 1.526 . S
C2847 C2848 1.396 . S
C2847 C2852 1.390 . S
C2848 C2842 1.465 . S
C2848 C2847 1.396 . S
C2848 C2849 1.399 . S
C2849 H2835 0.929 . S
C2849 C2848 1.399 . S
C2849 C2850 1.385 . S
C2850 H2836 0.931 . S
C2850 C2849 1.385 . S
C2850 C2851 1.389 . S
C2851 C2850 1.389 . S
C2851 C2852 1.387 . S
C2852 H2837 0.930 . S
C2852 C2847 1.390 . S
C2852 C2851 1.387 . S
H2853 C2865 0.930 . S
H2854 C2867 0.930 . S
H2855 C2868 0.930 . S
H2856 C2872 0.959 . S
H2857 C2872 0.959 . S
H2858 C2872 0.961 . S
H2859 C2873 0.960 . S
H2860 C2873 0.961 . S
H2861 C2873 0.959 . S
H2862 C2876 0.929 . S
H2863 C2877 0.931 . S
H2864 C2879 0.930 . S
C2865 H2853 0.930 . S
C2865 C2866 1.399 . S
C2865 C2870 1.399 . S
C2866 C2865 1.399 . S
C2866 C2867 1.376 . S
C2867 H2854 0.930 . S
C2867 C2866 1.376 . S
C2867 C2868 1.388 . S
C2868 H2855 0.930 . S
C2868 C2867 1.388 . S
C2868 C2869 1.390 . S
C2869 C2868 1.390 . S
C2869 C2870 1.394 . S
C2869 C2875 1.465 . S
C2870 C2865 1.399 . S
C2870 C2869 1.394 . S
C2870 C2871 1.516 . S
C2871 C2870 1.516 . S
C2871 C2872 1.502 . S
C2871 C2873 1.561 . S
C2871 C2874 1.526 . S
C2872 H2856 0.959 . S
C2872 H2857 0.959 . S
C2872 H2858 0.961 . S
C2872 C2871 1.502 . S
C2873 H2859 0.960 . S
C2873 H2860 0.961 . S
C2873 H2861 0.959 . S
C2873 C2871 1.561 . S
C2874 C2871 1.526 . S
C2874 C2875 1.396 . S
C2874 C2879 1.390 . S
C2875 C2869 1.465 . S
C2875 C2874 1.396 . S
C2875 C2876 1.399 . S
C2876 H2862 0.929 . S
C2876 C2875 1.399 . S
C2876 C2877 1.385 . S
C2877 H2863 0.931 . S
C2877 C2876 1.385 . S
C2877 C2878 1.389 . S
C2878 C2877 1.389 . S
C2878 C2879 1.387 . S
C2879 H2864 0.930 . S
C2879 C2874 1.390 . S
C2879 C2878 1.387 . S
H2880 C2892 0.930 . S
H2881 C2894 0.930 . S
H2882 C2895 0.930 . S
H2883 C2899 0.959 . S
H2884 C2899 0.959 . S
H2885 C2899 0.961 . S
H2886 C2900 0.960 . S
H2887 C2900 0.961 . S
H2888 C2900 0.959 . S
H2889 C2903 0.929 . S
H2890 C2904 0.931 . S
H2891 C2906 0.930 . S
C2892 H2880 0.930 . S
C2892 C2893 1.399 . S
C2892 C2897 1.399 . S
C2893 C2892 1.399 . S
C2893 C2894 1.376 . S
C2894 H2881 0.930 . S
C2894 C2893 1.376 . S
C2894 C2895 1.388 . S
C2895 H2882 0.930 . S
C2895 C2894 1.388 . S
C2895 C2896 1.390 . S
C2896 C2895 1.390 . S
C2896 C2897 1.394 . S
C2896 C2902 1.465 . S
C2897 C2892 1.399 . S
C2897 C2896 1.394 . S
C2897 C2898 1.516 . S
C2898 C2897 1.516 . S
C2898 C2899 1.502 . S
C2898 C2900 1.561 . S
C2898 C2901 1.526 . S
C2899 H2883 0.959 . S
C2899 H2884 0.959 . S
C2899 H2885 0.961 . S
C2899 C2898 1.502 . S
C2900 H2886 0.960 . S
C2900 H2887 0.961 . S
C2900 H2888 0.959 . S
C2900 C2898 1.561 . S
C2901 C2898 1.526 . S
C2901 C2902 1.396 . S
C2901 C2906 1.390 . S
C2902 C2896 1.465 . S
C2902 C2901 1.396 . S
C2902 C2903 1.399 . S
C2903 H2889 0.929 . S
C2903 C2902 1.399 . S
C2903 C2904 1.385 . S
C2904 H2890 0.931 . S
C2904 C2903 1.385 . S
C2904 C2905 1.389 . S
C2905 C2904 1.389 . S
C2905 C2906 1.387 . S
C2906 H2891 0.930 . S
C2906 C2901 1.390 . S
C2906 C2905 1.387 . S
H2907 C2919 0.930 . S
H2908 C2921 0.930 . S
H2909 C2922 0.930 . S
H2910 C2926 0.959 . S
H2911 C2926 0.959 . S
H2912 C2926 0.961 . S
H2913 C2927 0.960 . S
H2914 C2927 0.961 . S
H2915 C2927 0.959 . S
H2916 C2930 0.929 . S
H2917 C2931 0.931 . S
H2918 C2933 0.930 . S
C2919 H2907 0.930 . S
C2919 C2920 1.399 . S
C2919 C2924 1.399 . S
C2920 C2919 1.399 . S
C2920 C2921 1.376 . S
C2921 H2908 0.930 . S
C2921 C2920 1.376 . S
C2921 C2922 1.388 . S
C2922 H2909 0.930 . S
C2922 C2921 1.388 . S
C2922 C2923 1.390 . S
C2923 C2922 1.390 . S
C2923 C2924 1.394 . S
C2923 C2929 1.465 . S
C2924 C2919 1.399 . S
C2924 C2923 1.394 . S
C2924 C2925 1.516 . S
C2925 C2924 1.516 . S
C2925 C2926 1.502 . S
C2925 C2927 1.561 . S
C2925 C2928 1.526 . S
C2926 H2910 0.959 . S
C2926 H2911 0.959 . S
C2926 H2912 0.961 . S
C2926 C2925 1.502 . S
C2927 H2913 0.960 . S
C2927 H2914 0.961 . S
C2927 H2915 0.959 . S
C2927 C2925 1.561 . S
C2928 C2925 1.526 . S
C2928 C2929 1.396 . S
C2928 C2933 1.390 . S
C2929 C2923 1.465 . S
C2929 C2928 1.396 . S
C2929 C2930 1.399 . S
C2930 H2916 0.929 . S
C2930 C2929 1.399 . S
C2930 C2931 1.385 . S
C2931 H2917 0.931 . S
C2931 C2930 1.385 . S
C2931 C2932 1.389 . S
C2932 C2931 1.389 . S
C2932 C2933 1.387 . S
C2933 H2918 0.930 . S
C2933 C2928 1.390 . S
C2933 C2932 1.387 . S
H2934 C2946 0.930 . S
H2935 C2948 0.930 . S
H2936 C2949 0.930 . S
H2937 C2953 0.959 . S
H2938 C2953 0.959 . S
H2939 C2953 0.961 . S
H2940 C2954 0.960 . S
H2941 C2954 0.961 . S
H2942 C2954 0.959 . S
H2943 C2957 0.929 . S
H2944 C2958 0.931 . S
H2945 C2960 0.930 . S
C2946 H2934 0.930 . S
C2946 C2947 1.399 . S
C2946 C2951 1.399 . S
C2947 C2946 1.399 . S
C2947 C2948 1.376 . S
C2948 H2935 0.930 . S
C2948 C2947 1.376 . S
C2948 C2949 1.388 . S
C2949 H2936 0.930 . S
C2949 C2948 1.388 . S
C2949 C2950 1.390 . S
C2950 C2949 1.390 . S
C2950 C2951 1.394 . S
C2950 C2956 1.465 . S
C2951 C2946 1.399 . S
C2951 C2950 1.394 . S
C2951 C2952 1.516 . S
C2952 C2951 1.516 . S
C2952 C2953 1.502 . S
C2952 C2954 1.561 . S
C2952 C2955 1.526 . S
C2953 H2937 0.959 . S
C2953 H2938 0.959 . S
C2953 H2939 0.961 . S
C2953 C2952 1.502 . S
C2954 H2940 0.960 . S
C2954 H2941 0.961 . S
C2954 H2942 0.959 . S
C2954 C2952 1.561 . S
C2955 C2952 1.526 . S
C2955 C2956 1.396 . S
C2955 C2960 1.390 . S
C2956 C2950 1.465 . S
C2956 C2955 1.396 . S
C2956 C2957 1.399 . S
C2957 H2943 0.929 . S
C2957 C2956 1.399 . S
C2957 C2958 1.385 . S
C2958 H2944 0.931 . S
C2958 C2957 1.385 . S
C2958 C2959 1.389 . S
C2959 C2958 1.389 . S
C2959 C2960 1.387 . S
C2960 H2945 0.930 . S
C2960 C2955 1.390 . S
C2960 C2959 1.387 . S
H2961 C2973 0.930 . S
H2962 C2975 0.930 . S
H2963 C2976 0.930 . S
H2964 C2980 0.959 . S
H2965 C2980 0.959 . S
H2966 C2980 0.961 . S
H2967 C2981 0.960 . S
H2968 C2981 0.961 . S
H2969 C2981 0.959 . S
H2970 C2984 0.929 . S
H2971 C2985 0.931 . S
H2972 C2987 0.930 . S
C2973 H2961 0.930 . S
C2973 C2974 1.399 . S
C2973 C2978 1.399 . S
C2974 C2973 1.399 . S
C2974 C2975 1.376 . S
C2975 H2962 0.930 . S
C2975 C2974 1.376 . S
C2975 C2976 1.388 . S
C2976 H2963 0.930 . S
C2976 C2975 1.388 . S
C2976 C2977 1.390 . S
C2977 C2976 1.390 . S
C2977 C2978 1.394 . S
C2977 C2983 1.465 . S
C2978 C2973 1.399 . S
C2978 C2977 1.394 . S
C2978 C2979 1.516 . S
C2979 C2978 1.516 . S
C2979 C2980 1.502 . S
C2979 C2981 1.561 . S
C2979 C2982 1.526 . S
C2980 H2964 0.959 . S
C2980 H2965 0.959 . S
C2980 H2966 0.961 . S
C2980 C2979 1.502 . S
C2981 H2967 0.960 . S
C2981 H2968 0.961 . S
C2981 H2969 0.959 . S
C2981 C2979 1.561 . S
C2982 C2979 1.526 . S
C2982 C2983 1.396 . S
C2982 C2987 1.390 . S
C2983 C2977 1.465 . S
C2983 C2982 1.396 . S
C2983 C2984 1.399 . S
C2984 H2970 0.929 . S
C2984 C2983 1.399 . S
C2984 C2985 1.385 . S
C2985 H2971 0.931 . S
C2985 C2984 1.385 . S
C2985 C2986 1.389 . S
C2986 C2985 1.389 . S
C2986 C2987 1.387 . S
C2987 H2972 0.930 . S
C2987 C2982 1.390 . S
C2987 C2986 1.387 . S
H2988 C3000 0.930 . S
H2989 C3002 0.930 . S
H2990 C3003 0.930 . S
H2991 C3007 0.959 . S
H2992 C3007 0.959 . S
H2993 C3007 0.961 . S
H2994 C3008 0.960 . S
H2995 C3008 0.961 . S
H2996 C3008 0.959 . S
H2997 C3011 0.929 . S
H2998 C3012 0.931 . S
H2999 C3014 0.930 . S
C3000 H2988 0.930 . S
C3000 C3001 1.399 . S
C3000 C3005 1.399 . S
C3001 C3000 1.399 . S
C3001 C3002 1.376 . S
C3002 H2989 0.930 . S
C3002 C3001 1.376 . S
C3002 C3003 1.388 . S
C3003 H2990 0.930 . S
C3003 C3002 1.388 . S
C3003 C3004 1.390 . S
C3004 C3003 1.390 . S
C3004 C3005 1.394 . S
C3004 C3010 1.465 . S
C3005 C3000 1.399 . S
C3005 C3004 1.394 . S
C3005 C3006 1.516 . S
C3006 C3005 1.516 . S
C3006 C3007 1.502 . S
C3006 C3008 1.561 . S
C3006 C3009 1.526 . S
C3007 H2991 0.959 . S
C3007 H2992 0.959 . S
C3007 H2993 0.961 . S
C3007 C3006 1.502 . S
C3008 H2994 0.960 . S
C3008 H2995 0.961 . S
C3008 H2996 0.959 . S
C3008 C3006 1.561 . S
C3009 C3006 1.526 . S
C3009 C3010 1.396 . S
C3009 C3014 1.390 . S
C3010 C3004 1.465 . S
C3010 C3009 1.396 . S
C3010 C3011 1.399 . S
C3011 H2997 0.929 . S
C3011 C3010 1.399 . S
C3011 C3012 1.385 . S
C3012 H2998 0.931 . S
C3012 C3011 1.385 . S
C3012 C3013 1.389 . S
C3013 C3012 1.389 . S
C3013 C3014 1.387 . S
C3014 H2999 0.930 . S
C3014 C3009 1.390 . S
C3014 C3013 1.387 . S
H3015 C3027 0.930 . S
H3016 C3029 0.930 . S
H3017 C3030 0.930 . S
H3018 C3034 0.959 . S
H3019 C3034 0.959 . S
H3020 C3034 0.961 . S
H3021 C3035 0.960 . S
H3022 C3035 0.961 . S
H3023 C3035 0.959 . S
H3024 C3038 0.929 . S
H3025 C3039 0.931 . S
H3026 C3041 0.930 . S
C3027 H3015 0.930 . S
C3027 C3028 1.399 . S
C3027 C3032 1.399 . S
C3028 C3027 1.399 . S
C3028 C3029 1.376 . S
C3029 H3016 0.930 . S
C3029 C3028 1.376 . S
C3029 C3030 1.388 . S
C3030 H3017 0.930 . S
C3030 C3029 1.388 . S
C3030 C3031 1.390 . S
C3031 C3030 1.390 . S
C3031 C3032 1.394 . S
C3031 C3037 1.465 . S
C3032 C3027 1.399 . S
C3032 C3031 1.394 . S
C3032 C3033 1.516 . S
C3033 C3032 1.516 . S
C3033 C3034 1.502 . S
C3033 C3035 1.561 . S
C3033 C3036 1.526 . S
C3034 H3018 0.959 . S
C3034 H3019 0.959 . S
C3034 H3020 0.961 . S
C3034 C3033 1.502 . S
C3035 H3021 0.960 . S
C3035 H3022 0.961 . S
C3035 H3023 0.959 . S
C3035 C3033 1.561 . S
C3036 C3033 1.526 . S
C3036 C3037 1.396 . S
C3036 C3041 1.390 . S
C3037 C3031 1.465 . S
C3037 C3036 1.396 . S
C3037 C3038 1.399 . S
C3038 H3024 0.929 . S
C3038 C3037 1.399 . S
C3038 C3039 1.385 . S
C3039 H3025 0.931 . S
C3039 C3038 1.385 . S
C3039 C3040 1.389 . S
C3040 C3039 1.389 . S
C3040 C3041 1.387 . S
C3041 H3026 0.930 . S
C3041 C3036 1.390 . S
C3041 C3040 1.387 . S
H3042 C3054 0.930 . S
H3043 C3056 0.930 . S
H3044 C3057 0.930 . S
H3045 C3061 0.959 . S
H3046 C3061 0.959 . S
H3047 C3061 0.961 . S
H3048 C3062 0.960 . S
H3049 C3062 0.961 . S
H3050 C3062 0.959 . S
H3051 C3065 0.929 . S
H3052 C3066 0.931 . S
H3053 C3068 0.930 . S
C3054 H3042 0.930 . S
C3054 C3055 1.399 . S
C3054 C3059 1.399 . S
C3055 C3054 1.399 . S
C3055 C3056 1.376 . S
C3056 H3043 0.930 . S
C3056 C3055 1.376 . S
C3056 C3057 1.388 . S
C3057 H3044 0.930 . S
C3057 C3056 1.388 . S
C3057 C3058 1.390 . S
C3058 C3057 1.390 . S
C3058 C3059 1.394 . S
C3058 C3064 1.465 . S
C3059 C3054 1.399 . S
C3059 C3058 1.394 . S
C3059 C3060 1.516 . S
C3060 C3059 1.516 . S
C3060 C3061 1.502 . S
C3060 C3062 1.561 . S
C3060 C3063 1.526 . S
C3061 H3045 0.959 . S
C3061 H3046 0.959 . S
C3061 H3047 0.961 . S
C3061 C3060 1.502 . S
C3062 H3048 0.960 . S
C3062 H3049 0.961 . S
C3062 H3050 0.959 . S
C3062 C3060 1.561 . S
C3063 C3060 1.526 . S
C3063 C3064 1.396 . S
C3063 C3068 1.390 . S
C3064 C3058 1.465 . S
C3064 C3063 1.396 . S
C3064 C3065 1.399 . S
C3065 H3051 0.929 . S
C3065 C3064 1.399 . S
C3065 C3066 1.385 . S
C3066 H3052 0.931 . S
C3066 C3065 1.385 . S
C3066 C3067 1.389 . S
C3067 C3066 1.389 . S
C3067 C3068 1.387 . S
C3068 H3053 0.930 . S
C3068 C3063 1.390 . S
C3068 C3067 1.387 . S
H3069 C3081 0.930 . S
H3070 C3083 0.930 . S
H3071 C3084 0.930 . S
H3072 C3088 0.959 . S
H3073 C3088 0.959 . S
H3074 C3088 0.961 . S
H3075 C3089 0.960 . S
H3076 C3089 0.961 . S
H3077 C3089 0.959 . S
H3078 C3092 0.929 . S
H3079 C3093 0.931 . S
H3080 C3095 0.930 . S
C3081 H3069 0.930 . S
C3081 C3082 1.399 . S
C3081 C3086 1.399 . S
C3082 C3081 1.399 . S
C3082 C3083 1.376 . S
C3083 H3070 0.930 . S
C3083 C3082 1.376 . S
C3083 C3084 1.388 . S
C3084 H3071 0.930 . S
C3084 C3083 1.388 . S
C3084 C3085 1.390 . S
C3085 C3084 1.390 . S
C3085 C3086 1.394 . S
C3085 C3091 1.465 . S
C3086 C3081 1.399 . S
C3086 C3085 1.394 . S
C3086 C3087 1.516 . S
C3087 C3086 1.516 . S
C3087 C3088 1.502 . S
C3087 C3089 1.561 . S
C3087 C3090 1.526 . S
C3088 H3072 0.959 . S
C3088 H3073 0.959 . S
C3088 H3074 0.961 . S
C3088 C3087 1.502 . S
C3089 H3075 0.960 . S
C3089 H3076 0.961 . S
C3089 H3077 0.959 . S
C3089 C3087 1.561 . S
C3090 C3087 1.526 . S
C3090 C3091 1.396 . S
C3090 C3095 1.390 . S
C3091 C3085 1.465 . S
C3091 C3090 1.396 . S
C3091 C3092 1.399 . S
C3092 H3078 0.929 . S
C3092 C3091 1.399 . S
C3092 C3093 1.385 . S
C3093 H3079 0.931 . S
C3093 C3092 1.385 . S
C3093 C3094 1.389 . S
C3094 C3093 1.389 . S
C3094 C3095 1.387 . S
C3095 H3080 0.930 . S
C3095 C3090 1.390 . S
C3095 C3094 1.387 . S
H3096 C3108 0.930 . S
H3097 C3110 0.930 . S
H3098 C3111 0.930 . S
H3099 C3115 0.959 . S
H3100 C3115 0.959 . S
H3101 C3115 0.961 . S
H3102 C3116 0.960 . S
H3103 C3116 0.961 . S
H3104 C3116 0.959 . S
H3105 C3119 0.929 . S
H3106 C3120 0.931 . S
H3107 C3122 0.930 . S
C3108 H3096 0.930 . S
C3108 C3109 1.399 . S
C3108 C3113 1.399 . S
C3109 C3108 1.399 . S
C3109 C3110 1.376 . S
C3110 H3097 0.930 . S
C3110 C3109 1.376 . S
C3110 C3111 1.388 . S
C3111 H3098 0.930 . S
C3111 C3110 1.388 . S
C3111 C3112 1.390 . S
C3112 C3111 1.390 . S
C3112 C3113 1.394 . S
C3112 C3118 1.465 . S
C3113 C3108 1.399 . S
C3113 C3112 1.394 . S
C3113 C3114 1.516 . S
C3114 C3113 1.516 . S
C3114 C3115 1.502 . S
C3114 C3116 1.561 . S
C3114 C3117 1.526 . S
C3115 H3099 0.959 . S
C3115 H3100 0.959 . S
C3115 H3101 0.961 . S
C3115 C3114 1.502 . S
C3116 H3102 0.960 . S
C3116 H3103 0.961 . S
C3116 H3104 0.959 . S
C3116 C3114 1.561 . S
C3117 C3114 1.526 . S
C3117 C3118 1.396 . S
C3117 C3122 1.390 . S
C3118 C3112 1.465 . S
C3118 C3117 1.396 . S
C3118 C3119 1.399 . S
C3119 H3105 0.929 . S
C3119 C3118 1.399 . S
C3119 C3120 1.385 . S
C3120 H3106 0.931 . S
C3120 C3119 1.385 . S
C3120 C3121 1.389 . S
C3121 C3120 1.389 . S
C3121 C3122 1.387 . S
C3122 H3107 0.930 . S
C3122 C3117 1.390 . S
C3122 C3121 1.387 . S
H3123 C3135 0.930 . S
H3124 C3137 0.930 . S
H3125 C3138 0.930 . S
H3126 C3142 0.959 . S
H3127 C3142 0.959 . S
H3128 C3142 0.961 . S
H3129 C3143 0.960 . S
H3130 C3143 0.961 . S
H3131 C3143 0.959 . S
H3132 C3146 0.929 . S
H3133 C3147 0.931 . S
H3134 C3149 0.930 . S
C3135 H3123 0.930 . S
C3135 C3136 1.399 . S
C3135 C3140 1.399 . S
C3136 C3135 1.399 . S
C3136 C3137 1.376 . S
C3137 H3124 0.930 . S
C3137 C3136 1.376 . S
C3137 C3138 1.388 . S
C3138 H3125 0.930 . S
C3138 C3137 1.388 . S
C3138 C3139 1.390 . S
C3139 C3138 1.390 . S
C3139 C3140 1.394 . S
C3139 C3145 1.465 . S
C3140 C3135 1.399 . S
C3140 C3139 1.394 . S
C3140 C3141 1.516 . S
C3141 C3140 1.516 . S
C3141 C3142 1.502 . S
C3141 C3143 1.561 . S
C3141 C3144 1.526 . S
C3142 H3126 0.959 . S
C3142 H3127 0.959 . S
C3142 H3128 0.961 . S
C3142 C3141 1.502 . S
C3143 H3129 0.960 . S
C3143 H3130 0.961 . S
C3143 H3131 0.959 . S
C3143 C3141 1.561 . S
C3144 C3141 1.526 . S
C3144 C3145 1.396 . S
C3144 C3149 1.390 . S
C3145 C3139 1.465 . S
C3145 C3144 1.396 . S
C3145 C3146 1.399 . S
C3146 H3132 0.929 . S
C3146 C3145 1.399 . S
C3146 C3147 1.385 . S
C3147 H3133 0.931 . S
C3147 C3146 1.385 . S
C3147 C3148 1.389 . S
C3148 C3147 1.389 . S
C3148 C3149 1.387 . S
C3149 H3134 0.930 . S
C3149 C3144 1.390 . S
C3149 C3148 1.387 . S
H3150 C3162 0.930 . S
H3151 C3164 0.930 . S
H3152 C3165 0.930 . S
H3153 C3169 0.959 . S
H3154 C3169 0.959 . S
H3155 C3169 0.961 . S
H3156 C3170 0.960 . S
H3157 C3170 0.961 . S
H3158 C3170 0.959 . S
H3159 C3173 0.929 . S
H3160 C3174 0.931 . S
H3161 C3176 0.930 . S
C3162 H3150 0.930 . S
C3162 C3163 1.399 . S
C3162 C3167 1.399 . S
C3163 C3162 1.399 . S
C3163 C3164 1.376 . S
C3164 H3151 0.930 . S
C3164 C3163 1.376 . S
C3164 C3165 1.388 . S
C3165 H3152 0.930 . S
C3165 C3164 1.388 . S
C3165 C3166 1.390 . S
C3166 C3165 1.390 . S
C3166 C3167 1.394 . S
C3166 C3172 1.465 . S
C3167 C3162 1.399 . S
C3167 C3166 1.394 . S
C3167 C3168 1.516 . S
C3168 C3167 1.516 . S
C3168 C3169 1.502 . S
C3168 C3170 1.561 . S
C3168 C3171 1.526 . S
C3169 H3153 0.959 . S
C3169 H3154 0.959 . S
C3169 H3155 0.961 . S
C3169 C3168 1.502 . S
C3170 H3156 0.960 . S
C3170 H3157 0.961 . S
C3170 H3158 0.959 . S
C3170 C3168 1.561 . S
C3171 C3168 1.526 . S
C3171 C3172 1.396 . S
C3171 C3176 1.390 . S
C3172 C3166 1.465 . S
C3172 C3171 1.396 . S
C3172 C3173 1.399 . S
C3173 H3159 0.929 . S
C3173 C3172 1.399 . S
C3173 C3174 1.385 . S
C3174 H3160 0.931 . S
C3174 C3173 1.385 . S
C3174 C3175 1.389 . S
C3175 C3174 1.389 . S
C3175 C3176 1.387 . S
C3176 H3161 0.930 . S
C3176 C3171 1.390 . S
C3176 C3175 1.387 . S
H3177 C3189 0.930 . S
H3178 C3191 0.930 . S
H3179 C3192 0.930 . S
H3180 C3196 0.959 . S
H3181 C3196 0.959 . S
H3182 C3196 0.961 . S
H3183 C3197 0.960 . S
H3184 C3197 0.961 . S
H3185 C3197 0.959 . S
H3186 C3200 0.929 . S
H3187 C3201 0.931 . S
H3188 C3203 0.930 . S
C3189 H3177 0.930 . S
C3189 C3190 1.399 . S
C3189 C3194 1.399 . S
C3190 C3189 1.399 . S
C3190 C3191 1.376 . S
C3191 H3178 0.930 . S
C3191 C3190 1.376 . S
C3191 C3192 1.388 . S
C3192 H3179 0.930 . S
C3192 C3191 1.388 . S
C3192 C3193 1.390 . S
C3193 C3192 1.390 . S
C3193 C3194 1.394 . S
C3193 C3199 1.465 . S
C3194 C3189 1.399 . S
C3194 C3193 1.394 . S
C3194 C3195 1.516 . S
C3195 C3194 1.516 . S
C3195 C3196 1.502 . S
C3195 C3197 1.561 . S
C3195 C3198 1.526 . S
C3196 H3180 0.959 . S
C3196 H3181 0.959 . S
C3196 H3182 0.961 . S
C3196 C3195 1.502 . S
C3197 H3183 0.960 . S
C3197 H3184 0.961 . S
C3197 H3185 0.959 . S
C3197 C3195 1.561 . S
C3198 C3195 1.526 . S
C3198 C3199 1.396 . S
C3198 C3203 1.390 . S
C3199 C3193 1.465 . S
C3199 C3198 1.396 . S
C3199 C3200 1.399 . S
C3200 H3186 0.929 . S
C3200 C3199 1.399 . S
C3200 C3201 1.385 . S
C3201 H3187 0.931 . S
C3201 C3200 1.385 . S
C3201 C3202 1.389 . S
C3202 C3201 1.389 . S
C3202 C3203 1.387 . S
C3203 H3188 0.930 . S
C3203 C3198 1.390 . S
C3203 C3202 1.387 . S
H3204 C3216 0.930 . S
H3205 C3218 0.930 . S
H3206 C3219 0.930 . S
H3207 C3223 0.959 . S
H3208 C3223 0.959 . S
H3209 C3223 0.961 . S
H3210 C3224 0.960 . S
H3211 C3224 0.961 . S
H3212 C3224 0.959 . S
H3213 C3227 0.929 . S
H3214 C3228 0.931 . S
H3215 C3230 0.930 . S
C3216 H3204 0.930 . S
C3216 C3217 1.399 . S
C3216 C3221 1.399 . S
C3217 C3216 1.399 . S
C3217 C3218 1.376 . S
C3218 H3205 0.930 . S
C3218 C3217 1.376 . S
C3218 C3219 1.388 . S
C3219 H3206 0.930 . S
C3219 C3218 1.388 . S
C3219 C3220 1.390 . S
C3220 C3219 1.390 . S
C3220 C3221 1.394 . S
C3220 C3226 1.465 . S
C3221 C3216 1.399 . S
C3221 C3220 1.394 . S
C3221 C3222 1.516 . S
C3222 C3221 1.516 . S
C3222 C3223 1.502 . S
C3222 C3224 1.561 . S
C3222 C3225 1.526 . S
C3223 H3207 0.959 . S
C3223 H3208 0.959 . S
C3223 H3209 0.961 . S
C3223 C3222 1.502 . S
C3224 H3210 0.960 . S
C3224 H3211 0.961 . S
C3224 H3212 0.959 . S
C3224 C3222 1.561 . S
C3225 C3222 1.526 . S
C3225 C3226 1.396 . S
C3225 C3230 1.390 . S
C3226 C3220 1.465 . S
C3226 C3225 1.396 . S
C3226 C3227 1.399 . S
C3227 H3213 0.929 . S
C3227 C3226 1.399 . S
C3227 C3228 1.385 . S
C3228 H3214 0.931 . S
C3228 C3227 1.385 . S
C3228 C3229 1.389 . S
C3229 C3228 1.389 . S
C3229 C3230 1.387 . S
C3230 H3215 0.930 . S
C3230 C3225 1.390 . S
C3230 C3229 1.387 . S
H3231 C3243 0.930 . S
H3232 C3245 0.930 . S
H3233 C3246 0.930 . S
H3234 C3250 0.959 . S
H3235 C3250 0.959 . S
H3236 C3250 0.961 . S
H3237 C3251 0.960 . S
H3238 C3251 0.961 . S
H3239 C3251 0.959 . S
H3240 C3254 0.929 . S
H3241 C3255 0.931 . S
H3242 C3257 0.930 . S
C3243 H3231 0.930 . S
C3243 C3244 1.399 . S
C3243 C3248 1.399 . S
C3244 C3243 1.399 . S
C3244 C3245 1.376 . S
C3245 H3232 0.930 . S
C3245 C3244 1.376 . S
C3245 C3246 1.388 . S
C3246 H3233 0.930 . S
C3246 C3245 1.388 . S
C3246 C3247 1.390 . S
C3247 C3246 1.390 . S
C3247 C3248 1.394 . S
C3247 C3253 1.465 . S
C3248 C3243 1.399 . S
C3248 C3247 1.394 . S
C3248 C3249 1.516 . S
C3249 C3248 1.516 . S
C3249 C3250 1.502 . S
C3249 C3251 1.561 . S
C3249 C3252 1.526 . S
C3250 H3234 0.959 . S
C3250 H3235 0.959 . S
C3250 H3236 0.961 . S
C3250 C3249 1.502 . S
C3251 H3237 0.960 . S
C3251 H3238 0.961 . S
C3251 H3239 0.959 . S
C3251 C3249 1.561 . S
C3252 C3249 1.526 . S
C3252 C3253 1.396 . S
C3252 C3257 1.390 . S
C3253 C3247 1.465 . S
C3253 C3252 1.396 . S
C3253 C3254 1.399 . S
C3254 H3240 0.929 . S
C3254 C3253 1.399 . S
C3254 C3255 1.385 . S
C3255 H3241 0.931 . S
C3255 C3254 1.385 . S
C3255 C3256 1.389 . S
C3256 C3255 1.389 . S
C3256 C3257 1.387 . S
C3257 H3242 0.930 . S
C3257 C3252 1.390 . S
C3257 C3256 1.387 . S
H3258 C3270 0.930 . S
H3259 C3272 0.930 . S
H3260 C3273 0.930 . S
H3261 C3277 0.959 . S
H3262 C3277 0.959 . S
H3263 C3277 0.961 . S
H3264 C3278 0.960 . S
H3265 C3278 0.961 . S
H3266 C3278 0.959 . S
H3267 C3281 0.929 . S
H3268 C3282 0.931 . S
H3269 C3284 0.930 . S
C3270 H3258 0.930 . S
C3270 C3271 1.399 . S
C3270 C3275 1.399 . S
C3271 C3270 1.399 . S
C3271 C3272 1.376 . S
C3272 H3259 0.930 . S
C3272 C3271 1.376 . S
C3272 C3273 1.388 . S
C3273 H3260 0.930 . S
C3273 C3272 1.388 . S
C3273 C3274 1.390 . S
C3274 C3273 1.390 . S
C3274 C3275 1.394 . S
C3274 C3280 1.465 . S
C3275 C3270 1.399 . S
C3275 C3274 1.394 . S
C3275 C3276 1.516 . S
C3276 C3275 1.516 . S
C3276 C3277 1.502 . S
C3276 C3278 1.561 . S
C3276 C3279 1.526 . S
C3277 H3261 0.959 . S
C3277 H3262 0.959 . S
C3277 H3263 0.961 . S
C3277 C3276 1.502 . S
C3278 H3264 0.960 . S
C3278 H3265 0.961 . S
C3278 H3266 0.959 . S
C3278 C3276 1.561 . S
C3279 C3276 1.526 . S
C3279 C3280 1.396 . S
C3279 C3284 1.390 . S
C3280 C3274 1.465 . S
C3280 C3279 1.396 . S
C3280 C3281 1.399 . S
C3281 H3267 0.929 . S
C3281 C3280 1.399 . S
C3281 C3282 1.385 . S
C3282 H3268 0.931 . S
C3282 C3281 1.385 . S
C3282 C3283 1.389 . S
C3283 C3282 1.389 . S
C3283 C3284 1.387 . S
C3284 H3269 0.930 . S
C3284 C3279 1.390 . S
C3284 C3283 1.387 . S
H3285 C3297 0.930 . S
H3286 C3299 0.930 . S
H3287 C3300 0.930 . S
H3288 C3304 0.959 . S
H3289 C3304 0.959 . S
H3290 C3304 0.961 . S
H3291 C3305 0.960 . S
H3292 C3305 0.961 . S
H3293 C3305 0.959 . S
H3294 C3308 0.929 . S
H3295 C3309 0.931 . S
H3296 C3311 0.930 . S
C3297 H3285 0.930 . S
C3297 C3298 1.399 . S
C3297 C3302 1.399 . S
C3298 C3297 1.399 . S
C3298 C3299 1.376 . S
C3299 H3286 0.930 . S
C3299 C3298 1.376 . S
C3299 C3300 1.388 . S
C3300 H3287 0.930 . S
C3300 C3299 1.388 . S
C3300 C3301 1.390 . S
C3301 C3300 1.390 . S
C3301 C3302 1.394 . S
C3301 C3307 1.465 . S
C3302 C3297 1.399 . S
C3302 C3301 1.394 . S
C3302 C3303 1.516 . S
C3303 C3302 1.516 . S
C3303 C3304 1.502 . S
C3303 C3305 1.561 . S
C3303 C3306 1.526 . S
C3304 H3288 0.959 . S
C3304 H3289 0.959 . S
C3304 H3290 0.961 . S
C3304 C3303 1.502 . S
C3305 H3291 0.960 . S
C3305 H3292 0.961 . S
C3305 H3293 0.959 . S
C3305 C3303 1.561 . S
C3306 C3303 1.526 . S
C3306 C3307 1.396 . S
C3306 C3311 1.390 . S
C3307 C3301 1.465 . S
C3307 C3306 1.396 . S
C3307 C3308 1.399 . S
C3308 H3294 0.929 . S
C3308 C3307 1.399 . S
C3308 C3309 1.385 . S
C3309 H3295 0.931 . S
C3309 C3308 1.385 . S
C3309 C3310 1.389 . S
C3310 C3309 1.389 . S
C3310 C3311 1.387 . S
C3311 H3296 0.930 . S
C3311 C3306 1.390 . S
C3311 C3310 1.387 . S
H3312 C3324 0.930 . S
H3313 C3326 0.930 . S
H3314 C3327 0.930 . S
H3315 C3331 0.959 . S
H3316 C3331 0.959 . S
H3317 C3331 0.961 . S
H3318 C3332 0.960 . S
H3319 C3332 0.961 . S
H3320 C3332 0.959 . S
H3321 C3335 0.929 . S
H3322 C3336 0.931 . S
H3323 C3338 0.930 . S
C3324 H3312 0.930 . S
C3324 C3325 1.399 . S
C3324 C3329 1.399 . S
C3325 C3324 1.399 . S
C3325 C3326 1.376 . S
C3326 H3313 0.930 . S
C3326 C3325 1.376 . S
C3326 C3327 1.388 . S
C3327 H3314 0.930 . S
C3327 C3326 1.388 . S
C3327 C3328 1.390 . S
C3328 C3327 1.390 . S
C3328 C3329 1.394 . S
C3328 C3334 1.465 . S
C3329 C3324 1.399 . S
C3329 C3328 1.394 . S
C3329 C3330 1.516 . S
C3330 C3329 1.516 . S
C3330 C3331 1.502 . S
C3330 C3332 1.561 . S
C3330 C3333 1.526 . S
C3331 H3315 0.959 . S
C3331 H3316 0.959 . S
C3331 H3317 0.961 . S
C3331 C3330 1.502 . S
C3332 H3318 0.960 . S
C3332 H3319 0.961 . S
C3332 H3320 0.959 . S
C3332 C3330 1.561 . S
C3333 C3330 1.526 . S
C3333 C3334 1.396 . S
C3333 C3338 1.390 . S
C3334 C3328 1.465 . S
C3334 C3333 1.396 . S
C3334 C3335 1.399 . S
C3335 H3321 0.929 . S
C3335 C3334 1.399 . S
C3335 C3336 1.385 . S
C3336 H3322 0.931 . S
C3336 C3335 1.385 . S
C3336 C3337 1.389 . S
C3337 C3336 1.389 . S
C3337 C3338 1.387 . S
C3338 H3323 0.930 . S
C3338 C3333 1.390 . S
C3338 C3337 1.387 . S
H3339 C3351 0.930 . S
H3340 C3353 0.928 . S
H3341 C3354 0.930 1_554 S
H3342 C3358 0.959 . S
H3343 C3358 0.959 . S
H3344 C3358 0.961 . S
H3345 C3359 0.960 . S
H3346 C3359 0.961 . S
H3347 C3359 0.959 . S
H3348 C3362 0.929 . S
H3349 C3363 0.931 . S
H3350 C3365 0.930 . S
C3351 H3339 0.930 . S
C3351 C3352 1.399 . S
C3351 C3356 1.399 . S
C3352 C3351 1.399 . S
C3352 C3353 1.378 1_556 S
C3353 H3340 0.928 . S
C3353 C3352 1.378 1_554 S
C3353 C3354 1.389 1_554 S
C3354 H3341 0.930 1_556 S
C3354 C3353 1.389 1_556 S
C3354 C3355 1.390 . S
C3355 C3354 1.390 . S
C3355 C3356 1.394 . S
C3355 C3361 1.465 . S
C3356 C3351 1.399 . S
C3356 C3355 1.394 . S
C3356 C3357 1.516 . S
C3357 C3356 1.516 . S
C3357 C3358 1.502 . S
C3357 C3359 1.561 . S
C3357 C3360 1.526 . S
C3358 H3342 0.959 . S
C3358 H3343 0.959 . S
C3358 H3344 0.961 . S
C3358 C3357 1.502 . S
C3359 H3345 0.960 . S
C3359 H3346 0.961 . S
C3359 H3347 0.959 . S
C3359 C3357 1.561 . S
C3360 C3357 1.526 . S
C3360 C3361 1.396 . S
C3360 C3365 1.390 . S
C3361 C3355 1.465 . S
C3361 C3360 1.396 . S
C3361 C3362 1.399 . S
C3362 H3348 0.929 . S
C3362 C3361 1.399 . S
C3362 C3363 1.385 . S
C3363 H3349 0.931 . S
C3363 C3362 1.385 . S
C3363 C3364 1.389 . S
C3364 C3363 1.389 . S
C3364 C3365 1.387 . S
C3365 H3350 0.930 . S
C3365 C3360 1.390 . S
C3365 C3364 1.387 . S
H3366 C3378 0.965 . S
H3367 C3380 0.930 . S
H3368 C3381 0.930 . S
H3369 C3385 0.959 . S
H3370 C3385 0.959 . S
H3371 C3385 1.018 . S
H3372 C3386 1.013 . S
H3373 C3386 0.961 . S
H3374 C3386 0.959 . S
H3375 C3389 0.929 . S
H3376 C3390 0.931 . S
H3377 C3392 0.930 . S
C3378 H3366 0.965 . S
C3378 C3379 1.399 . S
C3378 C3383 1.399 . S
C3379 C3378 1.399 . S
C3379 C3380 1.376 . S
C3380 H3367 0.930 . S
C3380 C3379 1.376 . S
C3380 C3381 1.388 . S
C3381 H3368 0.930 . S
C3381 C3380 1.388 . S
C3381 C3382 1.390 . S
C3382 C3381 1.390 . S
C3382 C3383 1.394 . S
C3382 C3388 1.465 . S
C3383 C3378 1.399 . S
C3383 C3382 1.394 . S
C3383 C3384 1.516 . S
C3384 C3383 1.516 . S
C3384 C3385 1.502 . S
C3384 C3386 1.561 . S
C3384 C3387 1.526 . S
C3385 H3369 0.959 . S
C3385 H3370 0.959 . S
C3385 H3371 1.018 . S
C3385 C3384 1.502 . S
C3386 H3372 1.013 . S
C3386 H3373 0.961 . S
C3386 H3374 0.959 . S
C3386 C3384 1.561 . S
C3387 C3384 1.526 . S
C3387 C3388 1.396 . S
C3387 C3392 1.390 . S
C3388 C3382 1.465 . S
C3388 C3387 1.396 . S
C3388 C3389 1.399 . S
C3389 H3375 0.929 . S
C3389 C3388 1.399 . S
C3389 C3390 1.385 . S
C3390 H3376 0.931 . S
C3390 C3389 1.385 . S
C3390 C3391 1.389 . S
C3391 C3390 1.389 . S
C3391 C3392 1.387 . S
C3392 H3377 0.930 . S
C3392 C3387 1.390 . S
C3392 C3391 1.387 . S
H3393 C3405 0.930 . S
H3394 C3407 0.930 . S
H3395 C3408 0.930 . S
H3396 C3412 0.959 . S
H3397 C3412 0.959 . S
H3398 C3412 0.961 . S
H3399 C3413 0.960 1_554 S
H3400 C3413 0.961 . S
H3401 C3413 0.985 . S
H3402 C3416 0.929 . S
H3403 C3417 0.931 . S
H3404 C3419 0.930 . S
C3405 H3393 0.930 . S
C3405 C3406 1.399 . S
C3405 C3410 1.399 . S
C3406 C3405 1.399 . S
C3406 C3407 1.376 . S
C3407 H3394 0.930 . S
C3407 C3406 1.376 . S
C3407 C3408 1.388 . S
C3408 H3395 0.930 . S
C3408 C3407 1.388 . S
C3408 C3409 1.390 . S
C3409 C3408 1.390 . S
C3409 C3410 1.394 . S
C3409 C3415 1.465 . S
C3410 C3405 1.399 . S
C3410 C3409 1.394 . S
C3410 C3411 1.516 . S
C3411 C3410 1.516 . S
C3411 C3412 1.502 . S
C3411 C3413 1.561 . S
C3411 C3414 1.526 . S
C3412 H3396 0.959 . S
C3412 H3397 0.959 . S
C3412 H3398 0.961 . S
C3412 C3411 1.502 . S
C3413 H3399 0.960 1_556 S
C3413 H3400 0.961 . S
C3413 H3401 0.985 . S
C3413 C3411 1.561 . S
C3414 C3411 1.526 . S
C3414 C3415 1.396 . S
C3414 C3419 1.390 . S
C3415 C3409 1.465 . S
C3415 C3414 1.396 . S
C3415 C3416 1.399 . S
C3416 H3402 0.929 . S
C3416 C3415 1.399 . S
C3416 C3417 1.385 . S
C3417 H3403 0.931 . S
C3417 C3416 1.385 . S
C3417 C3418 1.389 . S
C3418 C3417 1.389 . S
C3418 C3419 1.387 . S
C3419 H3404 0.930 . S
C3419 C3414 1.390 . S
C3419 C3418 1.387 . S
H3420 C3432 0.930 . S
H3421 C3434 0.930 . S
H3422 C3435 0.930 . S
H3423 C3439 0.959 . S
H3424 C3439 0.959 . S
H3425 C3439 0.961 . S
H3426 C3440 0.960 . S
H3427 C3440 0.961 . S
H3428 C3440 0.959 . S
H3429 C3443 0.929 . S
H3430 C3444 0.931 . S
H3431 C3446 0.930 . S
C3432 H3420 0.930 . S
C3432 C3433 1.399 . S
C3432 C3437 1.399 . S
C3433 C3432 1.399 . S
C3433 C3434 1.376 . S
C3434 H3421 0.930 . S
C3434 C3433 1.376 . S
C3434 C3435 1.388 . S
C3435 H3422 0.930 . S
C3435 C3434 1.388 . S
C3435 C3436 1.390 . S
C3436 C3435 1.390 . S
C3436 C3437 1.394 . S
C3436 C3442 1.465 . S
C3437 C3432 1.399 . S
C3437 C3436 1.394 . S
C3437 C3438 1.516 . S
C3438 C3437 1.516 . S
C3438 C3439 1.502 . S
C3438 C3440 1.561 . S
C3438 C3441 1.526 . S
C3439 H3423 0.959 . S
C3439 H3424 0.959 . S
C3439 H3425 0.961 . S
C3439 C3438 1.502 . S
C3440 H3426 0.960 . S
C3440 H3427 0.961 . S
C3440 H3428 0.959 . S
C3440 C3438 1.561 . S
C3441 C3438 1.526 . S
C3441 C3442 1.396 . S
C3441 C3446 1.390 . S
C3442 C3436 1.465 . S
C3442 C3441 1.396 . S
C3442 C3443 1.399 . S
C3443 H3429 0.929 . S
C3443 C3442 1.399 . S
C3443 C3444 1.385 . S
C3444 H3430 0.931 . S
C3444 C3443 1.385 . S
C3444 C3445 1.389 . S
C3445 C3444 1.389 . S
C3445 C3446 1.387 . S
C3446 H3431 0.930 . S
C3446 C3441 1.390 . S
C3446 C3445 1.387 . S
H3447 C3459 0.930 . S
H3448 C3461 0.930 . S
H3449 C3462 0.930 . S
H3450 C3466 0.959 . S
H3451 C3466 0.959 . S
H3452 C3466 0.961 . S
H3453 C3467 0.960 . S
H3454 C3467 0.961 . S
H3455 C3467 0.959 . S
H3456 C3470 0.929 . S
H3457 C3471 0.931 . S
H3458 C3473 0.930 . S
C3459 H3447 0.930 . S
C3459 C3460 1.399 . S
C3459 C3464 1.399 . S
C3460 C3459 1.399 . S
C3460 C3461 1.376 . S
C3461 H3448 0.930 . S
C3461 C3460 1.376 . S
C3461 C3462 1.388 . S
C3462 H3449 0.930 . S
C3462 C3461 1.388 . S
C3462 C3463 1.390 . S
C3463 C3462 1.390 . S
C3463 C3464 1.394 . S
C3463 C3469 1.465 . S
C3464 C3459 1.399 . S
C3464 C3463 1.394 . S
C3464 C3465 1.516 . S
C3465 C3464 1.516 . S
C3465 C3466 1.502 . S
C3465 C3467 1.561 . S
C3465 C3468 1.526 . S
C3466 H3450 0.959 . S
C3466 H3451 0.959 . S
C3466 H3452 0.961 . S
C3466 C3465 1.502 . S
C3467 H3453 0.960 . S
C3467 H3454 0.961 . S
C3467 H3455 0.959 . S
C3467 C3465 1.561 . S
C3468 C3465 1.526 . S
C3468 C3469 1.396 . S
C3468 C3473 1.390 . S
C3469 C3463 1.465 . S
C3469 C3468 1.396 . S
C3469 C3470 1.399 . S
C3470 H3456 0.929 . S
C3470 C3469 1.399 . S
C3470 C3471 1.385 . S
C3471 H3457 0.931 . S
C3471 C3470 1.385 . S
C3471 C3472 1.389 . S
C3472 C3471 1.389 . S
C3472 C3473 1.387 . S
C3473 H3458 0.930 . S
C3473 C3468 1.390 . S
C3473 C3472 1.387 . S
H3474 C3486 0.930 . S
H3475 C3488 0.930 . S
H3476 C3489 0.930 . S
H3477 C3493 0.959 . S
H3478 C3493 0.959 . S
H3479 C3493 0.961 . S
H3480 C3494 0.960 . S
H3481 C3494 0.961 . S
H3482 C3494 0.959 . S
H3483 C3497 0.929 . S
H3484 C3498 0.931 . S
H3485 C3500 0.930 . S
C3486 H3474 0.930 . S
C3486 C3487 1.399 . S
C3486 C3491 1.399 . S
C3487 C3486 1.399 . S
C3487 C3488 1.376 . S
C3488 H3475 0.930 . S
C3488 C3487 1.376 . S
C3488 C3489 1.388 . S
C3489 H3476 0.930 . S
C3489 C3488 1.388 . S
C3489 C3490 1.390 . S
C3490 C3489 1.390 . S
C3490 C3491 1.394 . S
C3490 C3496 1.465 . S
C3491 C3486 1.399 . S
C3491 C3490 1.394 . S
C3491 C3492 1.516 . S
C3492 C3491 1.516 . S
C3492 C3493 1.502 . S
C3492 C3494 1.561 . S
C3492 C3495 1.526 . S
C3493 H3477 0.959 . S
C3493 H3478 0.959 . S
C3493 H3479 0.961 . S
C3493 C3492 1.502 . S
C3494 H3480 0.960 . S
C3494 H3481 0.961 . S
C3494 H3482 0.959 . S
C3494 C3492 1.561 . S
C3495 C3492 1.526 . S
C3495 C3496 1.396 . S
C3495 C3500 1.390 . S
C3496 C3490 1.465 . S
C3496 C3495 1.396 . S
C3496 C3497 1.399 . S
C3497 H3483 0.929 . S
C3497 C3496 1.399 . S
C3497 C3498 1.385 . S
C3498 H3484 0.931 . S
C3498 C3497 1.385 . S
C3498 C3499 1.389 . S
C3499 C3498 1.389 . S
C3499 C3500 1.387 . S
C3500 H3485 0.930 . S
C3500 C3495 1.390 . S
C3500 C3499 1.387 . S
H3501 C3513 0.930 . S
H3502 C3515 0.930 . S
H3503 C3516 0.930 . S
H3504 C3520 0.959 . S
H3505 C3520 0.959 . S
H3506 C3520 0.961 . S
H3507 C3521 0.960 . S
H3508 C3521 0.961 . S
H3509 C3521 0.959 . S
H3510 C3524 0.929 . S
H3511 C3525 0.931 . S
H3512 C3527 0.930 . S
C3513 H3501 0.930 . S
C3513 C3514 1.399 . S
C3513 C3518 1.399 . S
C3514 C3513 1.399 . S
C3514 C3515 1.376 . S
C3515 H3502 0.930 . S
C3515 C3514 1.376 . S
C3515 C3516 1.388 . S
C3516 H3503 0.930 . S
C3516 C3515 1.388 . S
C3516 C3517 1.390 . S
C3517 C3516 1.390 . S
C3517 C3518 1.394 . S
C3517 C3523 1.465 . S
C3518 C3513 1.399 . S
C3518 C3517 1.394 . S
C3518 C3519 1.516 . S
C3519 C3518 1.516 . S
C3519 C3520 1.502 . S
C3519 C3521 1.561 . S
C3519 C3522 1.526 . S
C3520 H3504 0.959 . S
C3520 H3505 0.959 . S
C3520 H3506 0.961 . S
C3520 C3519 1.502 . S
C3521 H3507 0.960 . S
C3521 H3508 0.961 . S
C3521 H3509 0.959 . S
C3521 C3519 1.561 . S
C3522 C3519 1.526 . S
C3522 C3523 1.396 . S
C3522 C3527 1.390 . S
C3523 C3517 1.465 . S
C3523 C3522 1.396 . S
C3523 C3524 1.399 . S
C3524 H3510 0.929 . S
C3524 C3523 1.399 . S
C3524 C3525 1.385 . S
C3525 H3511 0.931 . S
C3525 C3524 1.385 . S
C3525 C3526 1.389 . S
C3526 C3525 1.389 . S
C3526 C3527 1.387 . S
C3527 H3512 0.930 . S
C3527 C3522 1.390 . S
C3527 C3526 1.387 . S
H3528 C3540 0.930 . S
H3529 C3542 0.930 . S
H3530 C3543 0.930 . S
H3531 C3547 0.959 . S
H3532 C3547 0.959 . S
H3533 C3547 0.961 . S
H3534 C3548 0.960 . S
H3535 C3548 0.961 . S
H3536 C3548 0.959 . S
H3537 C3551 0.929 . S
H3538 C3552 0.931 . S
H3539 C3554 0.930 . S
C3540 H3528 0.930 . S
C3540 C3541 1.399 . S
C3540 C3545 1.399 . S
C3541 C3540 1.399 . S
C3541 C3542 1.376 . S
C3542 H3529 0.930 . S
C3542 C3541 1.376 . S
C3542 C3543 1.388 . S
C3543 H3530 0.930 . S
C3543 C3542 1.388 . S
C3543 C3544 1.390 . S
C3544 C3543 1.390 . S
C3544 C3545 1.394 . S
C3544 C3550 1.465 . S
C3545 C3540 1.399 . S
C3545 C3544 1.394 . S
C3545 C3546 1.516 . S
C3546 C3545 1.516 . S
C3546 C3547 1.502 . S
C3546 C3548 1.561 . S
C3546 C3549 1.526 . S
C3547 H3531 0.959 . S
C3547 H3532 0.959 . S
C3547 H3533 0.961 . S
C3547 C3546 1.502 . S
C3548 H3534 0.960 . S
C3548 H3535 0.961 . S
C3548 H3536 0.959 . S
C3548 C3546 1.561 . S
C3549 C3546 1.526 . S
C3549 C3550 1.396 . S
C3549 C3554 1.390 . S
C3550 C3544 1.465 . S
C3550 C3549 1.396 . S
C3550 C3551 1.399 . S
C3551 H3537 0.929 . S
C3551 C3550 1.399 . S
C3551 C3552 1.385 . S
C3552 H3538 0.931 . S
C3552 C3551 1.385 . S
C3552 C3553 1.389 . S
C3553 C3552 1.389 . S
C3553 C3554 1.387 . S
C3554 H3539 0.930 . S
C3554 C3549 1.390 . S
C3554 C3553 1.387 . S
H3555 C3567 0.930 . S
H3556 C3569 0.930 . S
H3557 C3570 0.930 . S
H3558 C3574 0.959 . S
H3559 C3574 0.959 . S
H3560 C3574 0.961 . S
H3561 C3575 0.960 . S
H3562 C3575 0.961 . S
H3563 C3575 0.959 . S
H3564 C3578 0.929 . S
H3565 C3579 0.931 . S
H3566 C3581 0.930 . S
C3567 H3555 0.930 . S
C3567 C3568 1.399 . S
C3567 C3572 1.399 . S
C3568 C3567 1.399 . S
C3568 C3569 1.376 . S
C3569 H3556 0.930 . S
C3569 C3568 1.376 . S
C3569 C3570 1.388 . S
C3570 H3557 0.930 . S
C3570 C3569 1.388 . S
C3570 C3571 1.390 . S
C3571 C3570 1.390 . S
C3571 C3572 1.394 . S
C3571 C3577 1.465 . S
C3572 C3567 1.399 . S
C3572 C3571 1.394 . S
C3572 C3573 1.516 . S
C3573 C3572 1.516 . S
C3573 C3574 1.502 . S
C3573 C3575 1.561 . S
C3573 C3576 1.526 . S
C3574 H3558 0.959 . S
C3574 H3559 0.959 . S
C3574 H3560 0.961 . S
C3574 C3573 1.502 . S
C3575 H3561 0.960 . S
C3575 H3562 0.961 . S
C3575 H3563 0.959 . S
C3575 C3573 1.561 . S
C3576 C3573 1.526 . S
C3576 C3577 1.396 . S
C3576 C3581 1.390 . S
C3577 C3571 1.465 . S
C3577 C3576 1.396 . S
C3577 C3578 1.399 . S
C3578 H3564 0.929 . S
C3578 C3577 1.399 . S
C3578 C3579 1.385 . S
C3579 H3565 0.931 . S
C3579 C3578 1.385 . S
C3579 C3580 1.389 . S
C3580 C3579 1.389 . S
C3580 C3581 1.387 . S
C3581 H3566 0.930 . S
C3581 C3576 1.390 . S
C3581 C3580 1.387 . S
H3582 C3594 0.930 . S
H3583 C3596 0.930 . S
H3584 C3597 0.930 . S
H3585 C3601 0.959 . S
H3586 C3601 0.959 . S
H3587 C3601 0.961 . S
H3588 C3602 0.960 . S
H3589 C3602 0.961 . S
H3590 C3602 0.959 . S
H3591 C3605 0.929 . S
H3592 C3606 0.931 . S
H3593 C3608 0.930 . S
C3594 H3582 0.930 . S
C3594 C3595 1.399 . S
C3594 C3599 1.399 . S
C3595 C3594 1.399 . S
C3595 C3596 1.376 . S
C3596 H3583 0.930 . S
C3596 C3595 1.376 . S
C3596 C3597 1.388 . S
C3597 H3584 0.930 . S
C3597 C3596 1.388 . S
C3597 C3598 1.390 . S
C3598 C3597 1.390 . S
C3598 C3599 1.394 . S
C3598 C3604 1.465 . S
C3599 C3594 1.399 . S
C3599 C3598 1.394 . S
C3599 C3600 1.516 . S
C3600 C3599 1.516 . S
C3600 C3601 1.502 . S
C3600 C3602 1.561 . S
C3600 C3603 1.526 . S
C3601 H3585 0.959 . S
C3601 H3586 0.959 . S
C3601 H3587 0.961 . S
C3601 C3600 1.502 . S
C3602 H3588 0.960 . S
C3602 H3589 0.961 . S
C3602 H3590 0.959 . S
C3602 C3600 1.561 . S
C3603 C3600 1.526 . S
C3603 C3604 1.396 . S
C3603 C3608 1.390 . S
C3604 C3598 1.465 . S
C3604 C3603 1.396 . S
C3604 C3605 1.399 . S
C3605 H3591 0.929 . S
C3605 C3604 1.399 . S
C3605 C3606 1.385 . S
C3606 H3592 0.931 . S
C3606 C3605 1.385 . S
C3606 C3607 1.389 . S
C3607 C3606 1.389 . S
C3607 C3608 1.387 . S
C3608 H3593 0.930 . S
C3608 C3603 1.390 . S
C3608 C3607 1.387 . S
H3609 C3621 0.930 . S
H3610 C3623 0.930 . S
H3611 C3624 0.930 . S
H3612 C3628 0.959 . S
H3613 C3628 0.959 . S
H3614 C3628 0.961 . S
H3615 C3629 0.960 . S
H3616 C3629 0.961 . S
H3617 C3629 0.959 . S
H3618 C3632 0.929 . S
H3619 C3633 0.931 . S
H3620 C3635 0.930 . S
C3621 H3609 0.930 . S
C3621 C3622 1.399 . S
C3621 C3626 1.399 . S
C3622 C3621 1.399 . S
C3622 C3623 1.376 . S
C3623 H3610 0.930 . S
C3623 C3622 1.376 . S
C3623 C3624 1.388 . S
C3624 H3611 0.930 . S
C3624 C3623 1.388 . S
C3624 C3625 1.390 . S
C3625 C3624 1.390 . S
C3625 C3626 1.394 . S
C3625 C3631 1.465 . S
C3626 C3621 1.399 . S
C3626 C3625 1.394 . S
C3626 C3627 1.516 . S
C3627 C3626 1.516 . S
C3627 C3628 1.502 . S
C3627 C3629 1.561 . S
C3627 C3630 1.526 . S
C3628 H3612 0.959 . S
C3628 H3613 0.959 . S
C3628 H3614 0.961 . S
C3628 C3627 1.502 . S
C3629 H3615 0.960 . S
C3629 H3616 0.961 . S
C3629 H3617 0.959 . S
C3629 C3627 1.561 . S
C3630 C3627 1.526 . S
C3630 C3631 1.396 . S
C3630 C3635 1.390 . S
C3631 C3625 1.465 . S
C3631 C3630 1.396 . S
C3631 C3632 1.399 . S
C3632 H3618 0.929 . S
C3632 C3631 1.399 . S
C3632 C3633 1.385 . S
C3633 H3619 0.931 . S
C3633 C3632 1.385 . S
C3633 C3634 1.389 . S
C3634 C3633 1.389 . S
C3634 C3635 1.387 . S
C3635 H3620 0.930 . S
C3635 C3630 1.390 . S
C3635 C3634 1.387 . S
H3636 C3648 0.930 . S
H3637 C3650 0.930 . S
H3638 C3651 0.930 . S
H3639 C3655 0.959 . S
H3640 C3655 0.959 . S
H3641 C3655 0.961 . S
H3642 C3656 0.960 . S
H3643 C3656 0.961 . S
H3644 C3656 0.959 . S
H3645 C3659 0.929 . S
H3646 C3660 0.931 . S
H3647 C3662 0.930 . S
C3648 H3636 0.930 . S
C3648 C3649 1.399 . S
C3648 C3653 1.399 . S
C3649 C3648 1.399 . S
C3649 C3650 1.376 . S
C3650 H3637 0.930 . S
C3650 C3649 1.376 . S
C3650 C3651 1.388 . S
C3651 H3638 0.930 . S
C3651 C3650 1.388 . S
C3651 C3652 1.390 . S
C3652 C3651 1.390 . S
C3652 C3653 1.394 . S
C3652 C3658 1.465 . S
C3653 C3648 1.399 . S
C3653 C3652 1.394 . S
C3653 C3654 1.516 . S
C3654 C3653 1.516 . S
C3654 C3655 1.502 . S
C3654 C3656 1.561 . S
C3654 C3657 1.526 . S
C3655 H3639 0.959 . S
C3655 H3640 0.959 . S
C3655 H3641 0.961 . S
C3655 C3654 1.502 . S
C3656 H3642 0.960 . S
C3656 H3643 0.961 . S
C3656 H3644 0.959 . S
C3656 C3654 1.561 . S
C3657 C3654 1.526 . S
C3657 C3658 1.396 . S
C3657 C3662 1.390 . S
C3658 C3652 1.465 . S
C3658 C3657 1.396 . S
C3658 C3659 1.399 . S
C3659 H3645 0.929 . S
C3659 C3658 1.399 . S
C3659 C3660 1.385 . S
C3660 H3646 0.931 . S
C3660 C3659 1.385 . S
C3660 C3661 1.389 . S
C3661 C3660 1.389 . S
C3661 C3662 1.387 . S
C3662 H3647 0.930 . S
C3662 C3657 1.390 . S
C3662 C3661 1.387 . S
H3663 C3675 0.930 . S
H3664 C3677 0.930 . S
H3665 C3678 0.930 . S
H3666 C3682 0.959 . S
H3667 C3682 0.959 . S
H3668 C3682 0.961 . S
H3669 C3683 0.960 . S
H3670 C3683 0.961 . S
H3671 C3683 0.959 . S
H3672 C3686 0.929 . S
H3673 C3687 0.931 . S
H3674 C3689 0.930 . S
C3675 H3663 0.930 . S
C3675 C3676 1.399 . S
C3675 C3680 1.399 . S
C3676 C3675 1.399 . S
C3676 C3677 1.376 . S
C3677 H3664 0.930 . S
C3677 C3676 1.376 . S
C3677 C3678 1.388 . S
C3678 H3665 0.930 . S
C3678 C3677 1.388 . S
C3678 C3679 1.390 . S
C3679 C3678 1.390 . S
C3679 C3680 1.394 . S
C3679 C3685 1.465 . S
C3680 C3675 1.399 . S
C3680 C3679 1.394 . S
C3680 C3681 1.516 . S
C3681 C3680 1.516 . S
C3681 C3682 1.502 1_455 S
C3681 C3683 1.561 . S
C3681 C3684 1.526 . S
C3682 H3666 0.959 . S
C3682 H3667 0.959 . S
C3682 H3668 0.961 . S
C3682 C3681 1.502 1_655 S
C3683 H3669 0.960 . S
C3683 H3670 0.961 . S
C3683 H3671 0.959 . S
C3683 C3681 1.561 . S
C3684 C3681 1.526 . S
C3684 C3685 1.396 . S
C3684 C3689 1.390 . S
C3685 C3679 1.465 . S
C3685 C3684 1.396 . S
C3685 C3686 1.399 . S
C3686 H3672 0.929 . S
C3686 C3685 1.399 . S
C3686 C3687 1.385 . S
C3687 H3673 0.931 . S
C3687 C3686 1.385 . S
C3687 C3688 1.389 . S
C3688 C3687 1.389 . S
C3688 C3689 1.387 . S
C3689 H3674 0.930 . S
C3689 C3684 1.390 . S
C3689 C3688 1.387 . S
H3690 C3702 0.930 . S
H3691 C3704 0.930 . S
H3692 C3705 0.930 . S
H3693 C3709 0.959 . S
H3694 C3709 0.959 . S
H3695 C3709 0.961 . S
H3696 C3710 0.960 . S
H3697 C3710 0.961 . S
H3698 C3710 0.959 . S
H3699 C3713 0.929 . S
H3700 C3714 0.931 . S
H3701 C3716 0.930 . S
C3702 H3690 0.930 . S
C3702 C3703 1.399 . S
C3702 C3707 1.399 . S
C3703 C3702 1.399 . S
C3703 C3704 1.376 . S
C3704 H3691 0.930 . S
C3704 C3703 1.376 . S
C3704 C3705 1.388 . S
C3705 H3692 0.930 . S
C3705 C3704 1.388 . S
C3705 C3706 1.390 . S
C3706 C3705 1.390 . S
C3706 C3707 1.394 . S
C3706 C3712 1.465 . S
C3707 C3702 1.399 . S
C3707 C3706 1.394 . S
C3707 C3708 1.516 . S
C3708 C3707 1.516 . S
C3708 C3709 1.502 . S
C3708 C3710 1.561 . S
C3708 C3711 1.526 . S
C3709 H3693 0.959 . S
C3709 H3694 0.959 . S
C3709 H3695 0.961 . S
C3709 C3708 1.502 . S
C3710 H3696 0.960 . S
C3710 H3697 0.961 . S
C3710 H3698 0.959 . S
C3710 C3708 1.561 . S
C3711 C3708 1.526 . S
C3711 C3712 1.396 . S
C3711 C3716 1.390 . S
C3712 C3706 1.465 . S
C3712 C3711 1.396 . S
C3712 C3713 1.399 . S
C3713 H3699 0.929 . S
C3713 C3712 1.399 . S
C3713 C3714 1.385 . S
C3714 H3700 0.931 . S
C3714 C3713 1.385 . S
C3714 C3715 1.389 . S
C3715 C3714 1.389 . S
C3715 C3716 1.387 . S
C3716 H3701 0.930 . S
C3716 C3711 1.390 . S
C3716 C3715 1.387 . S
H3717 C3729 0.930 . S
H3718 C3731 0.930 . S
H3719 C3732 0.930 . S
H3720 C3736 0.959 . S
H3721 C3736 0.959 . S
H3722 C3736 0.961 . S
H3723 C3737 0.960 . S
H3724 C3737 0.961 . S
H3725 C3737 0.959 . S
H3726 C3740 0.929 . S
H3727 C3741 0.931 . S
H3728 C3743 0.930 . S
C3729 H3717 0.930 . S
C3729 C3730 1.399 . S
C3729 C3734 1.399 . S
C3730 C3729 1.399 . S
C3730 C3731 1.376 1_565 S
C3731 H3718 0.930 . S
C3731 C3730 1.376 1_545 S
C3731 C3732 1.388 . S
C3732 H3719 0.930 . S
C3732 C3731 1.388 . S
C3732 C3733 1.390 1_545 S
C3733 C3732 1.390 1_565 S
C3733 C3734 1.394 . S
C3733 C3739 1.465 . S
C3734 C3729 1.399 . S
C3734 C3733 1.394 . S
C3734 C3735 1.516 . S
C3735 C3734 1.516 . S
C3735 C3736 1.502 . S
C3735 C3737 1.561 . S
C3735 C3738 1.526 . S
C3736 H3720 0.959 . S
C3736 H3721 0.959 . S
C3736 H3722 0.961 . S
C3736 C3735 1.502 . S
C3737 H3723 0.960 . S
C3737 H3724 0.961 . S
C3737 H3725 0.959 . S
C3737 C3735 1.561 . S
C3738 C3735 1.526 . S
C3738 C3739 1.396 . S
C3738 C3743 1.390 . S
C3739 C3733 1.465 . S
C3739 C3738 1.396 . S
C3739 C3740 1.399 1_565 S
C3740 H3726 0.929 . S
C3740 C3739 1.399 1_545 S
C3740 C3741 1.385 . S
C3741 H3727 0.931 . S
C3741 C3740 1.385 . S
C3741 C3742 1.389 1_545 S
C3742 C3741 1.389 1_565 S
C3742 C3743 1.387 . S
C3743 H3728 0.930 . S
C3743 C3738 1.390 . S
C3743 C3742 1.387 . S
H3744 C3756 0.933 . S
H3745 C3758 0.930 . S
H3746 C3759 0.930 . S
H3747 C3763 0.963 . S
H3748 C3763 0.955 1_545 S
H3749 C3763 0.961 1_545 S
H3750 C3764 0.960 . S
H3751 C3764 0.961 . S
H3752 C3764 0.959 . S
H3753 C3767 0.929 . S
H3754 C3768 0.931 . S
H3755 C3770 0.930 . S
C3756 H3744 0.933 . S
C3756 C3757 1.399 . S
C3756 C3761 1.399 . S
C3757 C3756 1.399 . S
C3757 C3758 1.376 . S
C3758 H3745 0.930 . S
C3758 C3757 1.376 . S
C3758 C3759 1.388 . S
C3759 H3746 0.930 . S
C3759 C3758 1.388 . S
C3759 C3760 1.390 . S
C3760 C3759 1.390 . S
C3760 C3761 1.394 . S
C3760 C3766 1.465 . S
C3761 C3756 1.399 . S
C3761 C3760 1.394 . S
C3761 C3762 1.516 1_565 S
C3762 C3761 1.516 1_545 S
C3762 C3763 1.502 1_545 S
C3762 C3764 1.561 . S
C3762 C3765 1.526 1_545 S
C3763 H3747 0.963 . S
C3763 H3748 0.955 1_565 S
C3763 H3749 0.961 1_565 S
C3763 C3762 1.502 1_565 S
C3764 H3750 0.960 . S
C3764 H3751 0.961 . S
C3764 H3752 0.959 . S
C3764 C3762 1.561 . S
C3765 C3762 1.526 1_565 S
C3765 C3766 1.396 . S
C3765 C3770 1.390 1_565 S
C3766 C3760 1.465 . S
C3766 C3765 1.396 . S
C3766 C3767 1.399 . S
C3767 H3753 0.929 . S
C3767 C3766 1.399 . S
C3767 C3768 1.385 . S
C3768 H3754 0.931 . S
C3768 C3767 1.385 . S
C3768 C3769 1.389 . S
C3769 C3768 1.389 . S
C3769 C3770 1.387 1_565 S
C3770 H3755 0.930 . S
C3770 C3765 1.390 1_545 S
C3770 C3769 1.387 1_545 S
H3771 C3783 0.930 . S
H3772 C3785 0.933 1_655 S
H3773 C3786 0.935 . S
H3774 C3790 0.890 1_655 S
H3775 C3790 0.959 . S
H3776 C3790 0.961 . S
H3777 C3791 0.960 . S
H3778 C3791 0.961 . S
H3779 C3791 0.959 . S
H3780 C3794 0.929 . S
H3781 C3795 0.931 . S
H3782 C3797 0.930 . S
C3783 H3771 0.930 . S
C3783 C3784 1.399 . S
C3783 C3788 1.399 . S
C3784 C3783 1.399 . S
C3784 C3785 1.376 . S
C3785 H3772 0.933 1_455 S
C3785 C3784 1.376 . S
C3785 C3786 1.412 1_455 S
C3786 H3773 0.935 . S
C3786 C3785 1.412 1_655 S
C3786 C3787 1.367 1_655 S
C3787 C3786 1.367 1_455 S
C3787 C3788 1.394 . S
C3787 C3793 1.465 . S
C3788 C3783 1.399 . S
C3788 C3787 1.394 . S
C3788 C3789 1.516 . S
C3789 C3788 1.516 . S
C3789 C3790 1.502 . S
C3789 C3791 1.561 . S
C3789 C3792 1.526 . S
C3790 H3774 0.890 1_455 S
C3790 H3775 0.959 . S
C3790 H3776 0.961 . S
C3790 C3789 1.502 . S
C3791 H3777 0.960 . S
C3791 H3778 0.961 . S
C3791 H3779 0.959 . S
C3791 C3789 1.561 . S
C3792 C3789 1.526 . S
C3792 C3793 1.396 . S
C3792 C3797 1.390 . S
C3793 C3787 1.465 . S
C3793 C3792 1.396 . S
C3793 C3794 1.399 1_455 S
C3794 H3780 0.929 . S
C3794 C3793 1.399 1_655 S
C3794 C3795 1.385 . S
C3795 H3781 0.931 . S
C3795 C3794 1.385 . S
C3795 C3796 1.389 . S
C3796 C3795 1.389 . S
C3796 C3797 1.387 1_655 S
C3797 H3782 0.930 . S
C3797 C3792 1.390 . S
C3797 C3796 1.387 1_455 S
H3798 C3810 0.930 . S
H3799 C3812 0.930 . S
H3800 C3813 0.930 . S
H3801 C3817 0.959 . S
H3802 C3817 0.959 . S
H3803 C3817 0.961 . S
H3804 C3818 0.960 . S
H3805 C3818 0.961 . S
H3806 C3818 0.959 . S
H3807 C3821 0.929 . S
H3808 C3822 0.931 . S
H3809 C3824 0.930 . S
C3810 H3798 0.930 . S
C3810 C3811 1.399 . S
C3810 C3815 1.399 . S
C3811 C3810 1.399 . S
C3811 C3812 1.376 . S
C3812 H3799 0.930 . S
C3812 C3811 1.376 . S
C3812 C3813 1.388 . S
C3813 H3800 0.930 . S
C3813 C3812 1.388 . S
C3813 C3814 1.390 . S
C3814 C3813 1.390 . S
C3814 C3815 1.394 . S
C3814 C3820 1.465 . S
C3815 C3810 1.399 . S
C3815 C3814 1.394 . S
C3815 C3816 1.516 . S
C3816 C3815 1.516 . S
C3816 C3817 1.502 . S
C3816 C3818 1.561 . S
C3816 C3819 1.526 . S
C3817 H3801 0.959 . S
C3817 H3802 0.959 . S
C3817 H3803 0.961 . S
C3817 C3816 1.502 . S
C3818 H3804 0.960 . S
C3818 H3805 0.961 . S
C3818 H3806 0.959 . S
C3818 C3816 1.561 . S
C3819 C3816 1.526 . S
C3819 C3820 1.396 . S
C3819 C3824 1.390 . S
C3820 C3814 1.465 . S
C3820 C3819 1.396 . S
C3820 C3821 1.399 . S
C3821 H3807 0.929 . S
C3821 C3820 1.399 . S
C3821 C3822 1.385 . S
C3822 H3808 0.931 . S
C3822 C3821 1.385 . S
C3822 C3823 1.389 . S
C3823 C3822 1.389 . S
C3823 C3824 1.387 . S
C3824 H3809 0.930 . S
C3824 C3819 1.390 . S
C3824 C3823 1.387 . S
H3825 C3837 0.930 . S
H3826 C3839 0.930 . S
H3827 C3840 0.930 . S
H3828 C3844 0.959 . S
H3829 C3844 0.959 . S
H3830 C3844 0.961 . S
H3831 C3845 0.960 . S
H3832 C3845 0.961 . S
H3833 C3845 0.959 . S
H3834 C3848 0.929 . S
H3835 C3849 0.931 . S
H3836 C3851 0.930 . S
C3837 H3825 0.930 . S
C3837 C3838 1.399 . S
C3837 C3842 1.399 . S
C3838 C3837 1.399 . S
C3838 C3839 1.376 . S
C3839 H3826 0.930 . S
C3839 C3838 1.376 . S
C3839 C3840 1.388 . S
C3840 H3827 0.930 . S
C3840 C3839 1.388 . S
C3840 C3841 1.390 . S
C3841 C3840 1.390 . S
C3841 C3842 1.394 . S
C3841 C3847 1.465 . S
C3842 C3837 1.399 . S
C3842 C3841 1.394 . S
C3842 C3843 1.516 . S
C3843 C3842 1.516 . S
C3843 C3844 1.502 . S
C3843 C3845 1.561 . S
C3843 C3846 1.526 . S
C3844 H3828 0.959 . S
C3844 H3829 0.959 . S
C3844 H3830 0.961 . S
C3844 C3843 1.502 . S
C3845 H3831 0.960 . S
C3845 H3832 0.961 . S
C3845 H3833 0.959 . S
C3845 C3843 1.561 . S
C3846 C3843 1.526 . S
C3846 C3847 1.396 . S
C3846 C3851 1.390 . S
C3847 C3841 1.465 . S
C3847 C3846 1.396 . S
C3847 C3848 1.399 . S
C3848 H3834 0.929 . S
C3848 C3847 1.399 . S
C3848 C3849 1.385 . S
C3849 H3835 0.931 . S
C3849 C3848 1.385 . S
C3849 C3850 1.389 . S
C3850 C3849 1.389 . S
C3850 C3851 1.387 . S
C3851 H3836 0.930 . S
C3851 C3846 1.390 . S
C3851 C3850 1.387 . S
H3852 C3864 0.930 . S
H3853 C3866 0.930 . S
H3854 C3867 0.930 . S
H3855 C3871 0.959 . S
H3856 C3871 0.959 . S
H3857 C3871 0.961 . S
H3858 C3872 0.960 . S
H3859 C3872 0.961 . S
H3860 C3872 0.959 . S
H3861 C3875 0.929 . S
H3862 C3876 0.931 . S
H3863 C3878 0.930 . S
C3864 H3852 0.930 . S
C3864 C3865 1.399 . S
C3864 C3869 1.399 . S
C3865 C3864 1.399 . S
C3865 C3866 1.376 . S
C3866 H3853 0.930 . S
C3866 C3865 1.376 . S
C3866 C3867 1.388 . S
C3867 H3854 0.930 . S
C3867 C3866 1.388 . S
C3867 C3868 1.390 . S
C3868 C3867 1.390 . S
C3868 C3869 1.394 . S
C3868 C3874 1.465 . S
C3869 C3864 1.399 . S
C3869 C3868 1.394 . S
C3869 C3870 1.516 . S
C3870 C3869 1.516 . S
C3870 C3871 1.502 . S
C3870 C3872 1.561 . S
C3870 C3873 1.526 . S
C3871 H3855 0.959 . S
C3871 H3856 0.959 . S
C3871 H3857 0.961 . S
C3871 C3870 1.502 . S
C3872 H3858 0.960 . S
C3872 H3859 0.961 . S
C3872 H3860 0.959 . S
C3872 C3870 1.561 . S
C3873 C3870 1.526 . S
C3873 C3874 1.396 . S
C3873 C3878 1.390 . S
C3874 C3868 1.465 . S
C3874 C3873 1.396 . S
C3874 C3875 1.399 . S
C3875 H3861 0.929 . S
C3875 C3874 1.399 . S
C3875 C3876 1.385 . S
C3876 H3862 0.931 . S
C3876 C3875 1.385 . S
C3876 C3877 1.389 . S
C3877 C3876 1.389 . S
C3877 C3878 1.387 . S
C3878 H3863 0.930 . S
C3878 C3873 1.390 . S
C3878 C3877 1.387 . S
H3879 C3891 0.930 . S
H3880 C3893 0.930 . S
H3881 C3894 0.930 . S
H3882 C3898 0.959 . S
H3883 C3898 0.959 . S
H3884 C3898 0.961 . S
H3885 C3899 0.960 . S
H3886 C3899 0.961 . S
H3887 C3899 0.959 . S
H3888 C3902 0.929 . S
H3889 C3903 0.931 . S
H3890 C3905 0.930 . S
C3891 H3879 0.930 . S
C3891 C3892 1.399 . S
C3891 C3896 1.399 . S
C3892 C3891 1.399 . S
C3892 C3893 1.376 . S
C3893 H3880 0.930 . S
C3893 C3892 1.376 . S
C3893 C3894 1.388 . S
C3894 H3881 0.930 . S
C3894 C3893 1.388 . S
C3894 C3895 1.390 . S
C3895 C3894 1.390 . S
C3895 C3896 1.394 . S
C3895 C3901 1.465 . S
C3896 C3891 1.399 . S
C3896 C3895 1.394 . S
C3896 C3897 1.516 . S
C3897 C3896 1.516 . S
C3897 C3898 1.502 . S
C3897 C3899 1.561 . S
C3897 C3900 1.526 . S
C3898 H3882 0.959 . S
C3898 H3883 0.959 . S
C3898 H3884 0.961 . S
C3898 C3897 1.502 . S
C3899 H3885 0.960 . S
C3899 H3886 0.961 . S
C3899 H3887 0.959 . S
C3899 C3897 1.561 . S
C3900 C3897 1.526 . S
C3900 C3901 1.396 . S
C3900 C3905 1.390 . S
C3901 C3895 1.465 . S
C3901 C3900 1.396 . S
C3901 C3902 1.399 . S
C3902 H3888 0.929 . S
C3902 C3901 1.399 . S
C3902 C3903 1.385 . S
C3903 H3889 0.931 . S
C3903 C3902 1.385 . S
C3903 C3904 1.389 . S
C3904 C3903 1.389 . S
C3904 C3905 1.387 . S
C3905 H3890 0.930 . S
C3905 C3900 1.390 . S
C3905 C3904 1.387 . S
H3906 C3918 0.930 . S
H3907 C3920 0.930 1_565 S
H3908 C3921 0.930 . S
H3909 C3925 0.959 . S
H3910 C3925 0.959 . S
H3911 C3925 0.961 . S
H3912 C3926 0.960 . S
H3913 C3926 0.961 . S
H3914 C3926 0.959 . S
H3915 C3929 0.929 . S
H3916 C3930 0.931 . S
H3917 C3932 0.930 . S
C3918 H3906 0.930 . S
C3918 C3919 1.399 . S
C3918 C3923 1.399 . S
C3919 C3918 1.399 . S
C3919 C3920 1.376 . S
C3920 H3907 0.930 1_545 S
C3920 C3919 1.376 . S
C3920 C3921 1.388 1_545 S
C3921 H3908 0.930 . S
C3921 C3920 1.388 1_565 S
C3921 C3922 1.390 1_565 S
C3922 C3921 1.390 1_545 S
C3922 C3923 1.394 . S
C3922 C3928 1.465 . S
C3923 C3918 1.399 . S
C3923 C3922 1.394 . S
C3923 C3924 1.516 . S
C3924 C3923 1.516 . S
C3924 C3925 1.502 . S
C3924 C3926 1.561 . S
C3924 C3927 1.526 . S
C3925 H3909 0.959 . S
C3925 H3910 0.959 . S
C3925 H3911 0.961 . S
C3925 C3924 1.502 . S
C3926 H3912 0.960 . S
C3926 H3913 0.961 . S
C3926 H3914 0.959 . S
C3926 C3924 1.561 . S
C3927 C3924 1.526 . S
C3927 C3928 1.396 . S
C3927 C3932 1.390 . S
C3928 C3922 1.465 . S
C3928 C3927 1.396 . S
C3928 C3929 1.399 1_545 S
C3929 H3915 0.929 . S
C3929 C3928 1.399 1_565 S
C3929 C3930 1.385 . S
C3930 H3916 0.931 . S
C3930 C3929 1.385 . S
C3930 C3931 1.389 1_565 S
C3931 C3930 1.389 1_545 S
C3931 C3932 1.387 . S
C3932 H3917 0.930 . S
C3932 C3927 1.390 . S
C3932 C3931 1.387 . S
H3933 C3945 0.930 . S
H3934 C3947 0.930 . S
H3935 C3948 0.930 . S
H3936 C3952 0.959 . S
H3937 C3952 0.926 1_655 S
H3938 C3952 0.962 . S
H3939 C3953 0.960 . S
H3940 C3953 0.961 . S
H3941 C3953 0.959 . S
H3942 C3956 0.929 . S
H3943 C3957 0.931 . S
H3944 C3959 0.930 . S
C3945 H3933 0.930 . S
C3945 C3946 1.399 . S
C3945 C3950 1.399 . S
C3946 C3945 1.399 . S
C3946 C3947 1.376 . S
C3947 H3934 0.930 . S
C3947 C3946 1.376 . S
C3947 C3948 1.388 . S
C3948 H3935 0.930 . S
C3948 C3947 1.388 . S
C3948 C3949 1.390 . S
C3949 C3948 1.390 . S
C3949 C3950 1.394 . S
C3949 C3955 1.465 . S
C3950 C3945 1.399 . S
C3950 C3949 1.394 . S
C3950 C3951 1.516 . S
C3951 C3950 1.516 . S
C3951 C3952 1.502 1_655 S
C3951 C3953 1.561 . S
C3951 C3954 1.526 . S
C3952 H3936 0.959 . S
C3952 H3937 0.926 1_455 S
C3952 H3938 0.962 . S
C3952 C3951 1.502 1_455 S
C3953 H3939 0.960 . S
C3953 H3940 0.961 . S
C3953 H3941 0.959 . S
C3953 C3951 1.561 . S
C3954 C3951 1.526 . S
C3954 C3955 1.396 . S
C3954 C3959 1.390 . S
C3955 C3949 1.465 . S
C3955 C3954 1.396 . S
C3955 C3956 1.399 . S
C3956 H3942 0.929 . S
C3956 C3955 1.399 . S
C3956 C3957 1.385 . S
C3957 H3943 0.931 . S
C3957 C3956 1.385 . S
C3957 C3958 1.389 . S
C3958 C3957 1.389 . S
C3958 C3959 1.387 . S
C3959 H3944 0.930 . S
C3959 C3954 1.390 . S
C3959 C3958 1.387 . S
H3960 C3972 0.930 . S
H3961 C3974 0.930 . S
H3962 C3975 0.930 . S
H3963 C3979 0.959 . S
H3964 C3979 0.959 . S
H3965 C3979 0.961 . S
H3966 C3980 0.960 . S
H3967 C3980 0.961 . S
H3968 C3980 0.959 . S
H3969 C3983 0.929 . S
H3970 C3984 0.931 . S
H3971 C3986 0.930 . S
C3972 H3960 0.930 . S
C3972 C3973 1.399 . S
C3972 C3977 1.399 . S
C3973 C3972 1.399 . S
C3973 C3974 1.376 . S
C3974 H3961 0.930 . S
C3974 C3973 1.376 . S
C3974 C3975 1.388 . S
C3975 H3962 0.930 . S
C3975 C3974 1.388 . S
C3975 C3976 1.390 . S
C3976 C3975 1.390 . S
C3976 C3977 1.394 . S
C3976 C3982 1.465 . S
C3977 C3972 1.399 . S
C3977 C3976 1.394 . S
C3977 C3978 1.516 . S
C3978 C3977 1.516 . S
C3978 C3979 1.502 . S
C3978 C3980 1.561 . S
C3978 C3981 1.526 . S
C3979 H3963 0.959 . S
C3979 H3964 0.959 . S
C3979 H3965 0.961 . S
C3979 C3978 1.502 . S
C3980 H3966 0.960 . S
C3980 H3967 0.961 . S
C3980 H3968 0.959 . S
C3980 C3978 1.561 . S
C3981 C3978 1.526 . S
C3981 C3982 1.396 . S
C3981 C3986 1.390 . S
C3982 C3976 1.465 . S
C3982 C3981 1.396 . S
C3982 C3983 1.399 . S
C3983 H3969 0.929 . S
C3983 C3982 1.399 . S
C3983 C3984 1.385 . S
C3984 H3970 0.931 . S
C3984 C3983 1.385 . S
C3984 C3985 1.389 . S
C3985 C3984 1.389 . S
C3985 C3986 1.387 . S
C3986 H3971 0.930 . S
C3986 C3981 1.390 . S
C3986 C3985 1.387 . S
H3987 C3999 0.930 . S
H3988 C4001 0.930 . S
H3989 C4002 0.930 . S
H3990 C4006 0.959 . S
H3991 C4006 0.959 . S
H3992 C4006 0.961 . S
H3993 C4007 0.960 . S
H3994 C4007 0.961 . S
H3995 C4007 0.959 . S
H3996 C4010 0.929 . S
H3997 C4011 0.931 . S
H3998 C4013 0.930 . S
C3999 H3987 0.930 . S
C3999 C4000 1.399 . S
C3999 C4004 1.399 . S
C4000 C3999 1.399 . S
C4000 C4001 1.376 . S
C4001 H3988 0.930 . S
C4001 C4000 1.376 . S
C4001 C4002 1.388 . S
C4002 H3989 0.930 . S
C4002 C4001 1.388 . S
C4002 C4003 1.390 . S
C4003 C4002 1.390 . S
C4003 C4004 1.394 . S
C4003 C4009 1.465 . S
C4004 C3999 1.399 . S
C4004 C4003 1.394 . S
C4004 C4005 1.516 . S
C4005 C4004 1.516 . S
C4005 C4006 1.502 . S
C4005 C4007 1.561 . S
C4005 C4008 1.526 . S
C4006 H3990 0.959 . S
C4006 H3991 0.959 . S
C4006 H3992 0.961 . S
C4006 C4005 1.502 . S
C4007 H3993 0.960 . S
C4007 H3994 0.961 . S
C4007 H3995 0.959 . S
C4007 C4005 1.561 . S
C4008 C4005 1.526 . S
C4008 C4009 1.396 . S
C4008 C4013 1.390 . S
C4009 C4003 1.465 . S
C4009 C4008 1.396 . S
C4009 C4010 1.399 . S
C4010 H3996 0.929 . S
C4010 C4009 1.399 . S
C4010 C4011 1.385 . S
C4011 H3997 0.931 . S
C4011 C4010 1.385 . S
C4011 C4012 1.389 . S
C4012 C4011 1.389 . S
C4012 C4013 1.387 . S
C4013 H3998 0.930 . S
C4013 C4008 1.390 . S
C4013 C4012 1.387 . S
H4014 C4026 0.930 . S
H4015 C4028 0.930 . S
H4016 C4029 0.930 . S
H4017 C4033 0.959 . S
H4018 C4033 0.959 . S
H4019 C4033 0.961 . S
H4020 C4034 0.960 . S
H4021 C4034 0.961 . S
H4022 C4034 0.959 . S
H4023 C4037 0.929 . S
H4024 C4038 0.931 . S
H4025 C4040 0.930 . S
C4026 H4014 0.930 . S
C4026 C4027 1.399 . S
C4026 C4031 1.399 . S
C4027 C4026 1.399 . S
C4027 C4028 1.376 . S
C4028 H4015 0.930 . S
C4028 C4027 1.376 . S
C4028 C4029 1.388 . S
C4029 H4016 0.930 . S
C4029 C4028 1.388 . S
C4029 C4030 1.390 . S
C4030 C4029 1.390 . S
C4030 C4031 1.394 . S
C4030 C4036 1.465 . S
C4031 C4026 1.399 . S
C4031 C4030 1.394 . S
C4031 C4032 1.516 . S
C4032 C4031 1.516 . S
C4032 C4033 1.502 . S
C4032 C4034 1.561 . S
C4032 C4035 1.526 . S
C4033 H4017 0.959 . S
C4033 H4018 0.959 . S
C4033 H4019 0.961 . S
C4033 C4032 1.502 . S
C4034 H4020 0.960 . S
C4034 H4021 0.961 . S
C4034 H4022 0.959 . S
C4034 C4032 1.561 . S
C4035 C4032 1.526 . S
C4035 C4036 1.396 . S
C4035 C4040 1.390 . S
C4036 C4030 1.465 . S
C4036 C4035 1.396 . S
C4036 C4037 1.399 . S
C4037 H4023 0.929 . S
C4037 C4036 1.399 . S
C4037 C4038 1.385 . S
C4038 H4024 0.931 . S
C4038 C4037 1.385 . S
C4038 C4039 1.389 . S
C4039 C4038 1.389 . S
C4039 C4040 1.387 . S
C4040 H4025 0.930 . S
C4040 C4035 1.390 . S
C4040 C4039 1.387 . S
H4041 C4053 0.930 . S
H4042 C4055 0.930 . S
H4043 C4056 0.930 . S
H4044 C4060 0.959 . S
H4045 C4060 0.959 . S
H4046 C4060 0.961 . S
H4047 C4061 0.960 . S
H4048 C4061 0.961 . S
H4049 C4061 0.959 . S
H4050 C4064 0.929 . S
H4051 C4065 0.931 . S
H4052 C4067 0.930 . S
C4053 H4041 0.930 . S
C4053 C4054 1.399 . S
C4053 C4058 1.399 . S
C4054 C4053 1.399 . S
C4054 C4055 1.376 . S
C4055 H4042 0.930 . S
C4055 C4054 1.376 . S
C4055 C4056 1.388 . S
C4056 H4043 0.930 . S
C4056 C4055 1.388 . S
C4056 C4057 1.390 . S
C4057 C4056 1.390 . S
C4057 C4058 1.394 . S
C4057 C4063 1.465 . S
C4058 C4053 1.399 . S
C4058 C4057 1.394 . S
C4058 C4059 1.516 . S
C4059 C4058 1.516 . S
C4059 C4060 1.502 . S
C4059 C4061 1.561 . S
C4059 C4062 1.526 . S
C4060 H4044 0.959 . S
C4060 H4045 0.959 . S
C4060 H4046 0.961 . S
C4060 C4059 1.502 . S
C4061 H4047 0.960 . S
C4061 H4048 0.961 . S
C4061 H4049 0.959 . S
C4061 C4059 1.561 . S
C4062 C4059 1.526 . S
C4062 C4063 1.396 . S
C4062 C4067 1.390 . S
C4063 C4057 1.465 . S
C4063 C4062 1.396 . S
C4063 C4064 1.399 . S
C4064 H4050 0.929 . S
C4064 C4063 1.399 . S
C4064 C4065 1.385 . S
C4065 H4051 0.931 . S
C4065 C4064 1.385 . S
C4065 C4066 1.389 . S
C4066 C4065 1.389 . S
C4066 C4067 1.387 . S
C4067 H4052 0.930 . S
C4067 C4062 1.390 . S
C4067 C4066 1.387 . S
H4068 C4080 0.930 . S
H4069 C4082 0.930 . S
H4070 C4083 0.930 . S
H4071 C4087 0.959 . S
H4072 C4087 0.959 . S
H4073 C4087 0.961 . S
H4074 C4088 0.960 . S
H4075 C4088 0.961 . S
H4076 C4088 0.959 . S
H4077 C4091 0.929 . S
H4078 C4092 0.931 . S
H4079 C4094 0.930 . S
C4080 H4068 0.930 . S
C4080 C4081 1.399 . S
C4080 C4085 1.399 . S
C4081 C4080 1.399 . S
C4081 C4082 1.376 . S
C4082 H4069 0.930 . S
C4082 C4081 1.376 . S
C4082 C4083 1.388 . S
C4083 H4070 0.930 . S
C4083 C4082 1.388 . S
C4083 C4084 1.390 . S
C4084 C4083 1.390 . S
C4084 C4085 1.394 . S
C4084 C4090 1.465 . S
C4085 C4080 1.399 . S
C4085 C4084 1.394 . S
C4085 C4086 1.516 . S
C4086 C4085 1.516 . S
C4086 C4087 1.502 . S
C4086 C4088 1.561 . S
C4086 C4089 1.526 . S
C4087 H4071 0.959 . S
C4087 H4072 0.959 . S
C4087 H4073 0.961 . S
C4087 C4086 1.502 . S
C4088 H4074 0.960 . S
C4088 H4075 0.961 . S
C4088 H4076 0.959 . S
C4088 C4086 1.561 . S
C4089 C4086 1.526 . S
C4089 C4090 1.396 . S
C4089 C4094 1.390 . S
C4090 C4084 1.465 . S
C4090 C4089 1.396 . S
C4090 C4091 1.399 . S
C4091 H4077 0.929 . S
C4091 C4090 1.399 . S
C4091 C4092 1.385 . S
C4092 H4078 0.931 . S
C4092 C4091 1.385 . S
C4092 C4093 1.389 . S
C4093 C4092 1.389 . S
C4093 C4094 1.387 . S
C4094 H4079 0.930 . S
C4094 C4089 1.390 . S
C4094 C4093 1.387 . S
H4095 C4107 0.930 . S
H4096 C4109 0.930 . S
H4097 C4110 0.930 . S
H4098 C4114 0.959 . S
H4099 C4114 0.959 . S
H4100 C4114 0.961 . S
H4101 C4115 0.960 . S
H4102 C4115 0.961 . S
H4103 C4115 0.959 . S
H4104 C4118 0.929 . S
H4105 C4119 0.931 . S
H4106 C4121 0.930 . S
C4107 H4095 0.930 . S
C4107 C4108 1.399 . S
C4107 C4112 1.399 . S
C4108 C4107 1.399 . S
C4108 C4109 1.376 . S
C4109 H4096 0.930 . S
C4109 C4108 1.376 . S
C4109 C4110 1.388 . S
C4110 H4097 0.930 . S
C4110 C4109 1.388 . S
C4110 C4111 1.390 . S
C4111 C4110 1.390 . S
C4111 C4112 1.394 . S
C4111 C4117 1.465 . S
C4112 C4107 1.399 . S
C4112 C4111 1.394 . S
C4112 C4113 1.516 . S
C4113 C4112 1.516 . S
C4113 C4114 1.502 . S
C4113 C4115 1.561 . S
C4113 C4116 1.526 . S
C4114 H4098 0.959 . S
C4114 H4099 0.959 . S
C4114 H4100 0.961 . S
C4114 C4113 1.502 . S
C4115 H4101 0.960 . S
C4115 H4102 0.961 . S
C4115 H4103 0.959 . S
C4115 C4113 1.561 . S
C4116 C4113 1.526 . S
C4116 C4117 1.396 . S
C4116 C4121 1.390 . S
C4117 C4111 1.465 . S
C4117 C4116 1.396 . S
C4117 C4118 1.399 . S
C4118 H4104 0.929 . S
C4118 C4117 1.399 . S
C4118 C4119 1.385 . S
C4119 H4105 0.931 . S
C4119 C4118 1.385 . S
C4119 C4120 1.389 . S
C4120 C4119 1.389 . S
C4120 C4121 1.387 . S
C4121 H4106 0.930 . S
C4121 C4116 1.390 . S
C4121 C4120 1.387 . S
H4122 C4134 0.930 . S
H4123 C4136 0.930 . S
H4124 C4137 0.930 . S
H4125 C4141 0.959 . S
H4126 C4141 0.959 . S
H4127 C4141 0.961 . S
H4128 C4142 0.960 . S
H4129 C4142 0.961 . S
H4130 C4142 0.959 . S
H4131 C4145 0.929 . S
H4132 C4146 0.931 . S
H4133 C4148 0.930 . S
C4134 H4122 0.930 . S
C4134 C4135 1.399 . S
C4134 C4139 1.399 . S
C4135 C4134 1.399 . S
C4135 C4136 1.376 . S
C4136 H4123 0.930 . S
C4136 C4135 1.376 . S
C4136 C4137 1.388 . S
C4137 H4124 0.930 . S
C4137 C4136 1.388 . S
C4137 C4138 1.390 . S
C4138 C4137 1.390 . S
C4138 C4139 1.394 . S
C4138 C4144 1.465 . S
C4139 C4134 1.399 . S
C4139 C4138 1.394 . S
C4139 C4140 1.516 . S
C4140 C4139 1.516 . S
C4140 C4141 1.502 . S
C4140 C4142 1.561 . S
C4140 C4143 1.526 . S
C4141 H4125 0.959 . S
C4141 H4126 0.959 . S
C4141 H4127 0.961 . S
C4141 C4140 1.502 . S
C4142 H4128 0.960 . S
C4142 H4129 0.961 . S
C4142 H4130 0.959 . S
C4142 C4140 1.561 . S
C4143 C4140 1.526 . S
C4143 C4144 1.396 . S
C4143 C4148 1.390 . S
C4144 C4138 1.465 . S
C4144 C4143 1.396 . S
C4144 C4145 1.399 . S
C4145 H4131 0.929 . S
C4145 C4144 1.399 . S
C4145 C4146 1.385 . S
C4146 H4132 0.931 . S
C4146 C4145 1.385 . S
C4146 C4147 1.389 . S
C4147 C4146 1.389 . S
C4147 C4148 1.387 . S
C4148 H4133 0.930 . S
C4148 C4143 1.390 . S
C4148 C4147 1.387 . S
H4149 C4161 0.930 . S
H4150 C4163 0.930 . S
H4151 C4164 0.930 . S
H4152 C4168 0.959 . S
H4153 C4168 0.959 . S
H4154 C4168 0.961 . S
H4155 C4169 0.960 . S
H4156 C4169 0.961 . S
H4157 C4169 0.959 1_455 S
H4158 C4172 0.922 . S
H4159 C4173 0.931 1_455 S
H4160 C4175 0.930 . S
C4161 H4149 0.930 . S
C4161 C4162 1.399 . S
C4161 C4166 1.399 . S
C4162 C4161 1.399 . S
C4162 C4163 1.376 . S
C4163 H4150 0.930 . S
C4163 C4162 1.376 . S
C4163 C4164 1.388 . S
C4164 H4151 0.930 . S
C4164 C4163 1.388 . S
C4164 C4165 1.390 . S
C4165 C4164 1.390 . S
C4165 C4166 1.394 . S
C4165 C4171 1.465 . S
C4166 C4161 1.399 . S
C4166 C4165 1.394 . S
C4166 C4167 1.516 . S
C4167 C4166 1.516 . S
C4167 C4168 1.502 . S
C4167 C4169 1.561 . S
C4167 C4170 1.526 . S
C4168 H4152 0.959 . S
C4168 H4153 0.959 . S
C4168 H4154 0.961 . S
C4168 C4167 1.502 . S
C4169 H4155 0.960 . S
C4169 H4156 0.961 . S
C4169 H4157 0.959 1_655 S
C4169 C4167 1.561 . S
C4170 C4167 1.526 . S
C4170 C4171 1.396 . S
C4170 C4175 1.390 . S
C4171 C4165 1.465 . S
C4171 C4170 1.396 . S
C4171 C4172 1.399 . S
C4172 H4158 0.922 . S
C4172 C4171 1.399 . S
C4172 C4173 1.385 . S
C4173 H4159 0.931 1_655 S
C4173 C4172 1.385 . S
C4173 C4174 1.389 . S
C4174 C4173 1.389 . S
C4174 C4175 1.387 . S
C4175 H4160 0.930 . S
C4175 C4170 1.390 . S
C4175 C4174 1.387 . S
H4176 C4188 0.930 . S
H4177 C4190 0.930 . S
H4178 C4191 0.930 . S
H4179 C4195 0.959 . S
H4180 C4195 0.959 . S
H4181 C4195 0.961 . S
H4182 C4196 0.960 . S
H4183 C4196 0.961 . S
H4184 C4196 0.959 . S
H4185 C4199 0.929 . S
H4186 C4200 0.931 . S
H4187 C4202 0.930 . S
C4188 H4176 0.930 . S
C4188 C4189 1.399 . S
C4188 C4193 1.399 . S
C4189 C4188 1.399 . S
C4189 C4190 1.376 . S
C4190 H4177 0.930 . S
C4190 C4189 1.376 . S
C4190 C4191 1.388 . S
C4191 H4178 0.930 . S
C4191 C4190 1.388 . S
C4191 C4192 1.390 . S
C4192 C4191 1.390 . S
C4192 C4193 1.394 . S
C4192 C4198 1.465 . S
C4193 C4188 1.399 . S
C4193 C4192 1.394 . S
C4193 C4194 1.516 . S
C4194 C4193 1.516 . S
C4194 C4195 1.502 . S
C4194 C4196 1.561 . S
C4194 C4197 1.526 . S
C4195 H4179 0.959 . S
C4195 H4180 0.959 . S
C4195 H4181 0.961 . S
C4195 C4194 1.502 . S
C4196 H4182 0.960 . S
C4196 H4183 0.961 . S
C4196 H4184 0.959 . S
C4196 C4194 1.561 . S
C4197 C4194 1.526 . S
C4197 C4198 1.396 . S
C4197 C4202 1.390 . S
C4198 C4192 1.465 . S
C4198 C4197 1.396 . S
C4198 C4199 1.399 . S
C4199 H4185 0.929 . S
C4199 C4198 1.399 . S
C4199 C4200 1.385 . S
C4200 H4186 0.931 . S
C4200 C4199 1.385 . S
C4200 C4201 1.389 . S
C4201 C4200 1.389 . S
C4201 C4202 1.387 . S
C4202 H4187 0.930 . S
C4202 C4197 1.390 . S
C4202 C4201 1.387 . S
H4203 C4215 0.930 . S
H4204 C4217 0.930 1_565 S
H4205 C4218 0.930 . S
H4206 C4222 0.959 . S
H4207 C4222 0.959 . S
H4208 C4222 0.961 . S
H4209 C4223 0.960 . S
H4210 C4223 0.961 . S
H4211 C4223 0.959 . S
H4212 C4226 0.929 . S
H4213 C4227 0.931 . S
H4214 C4229 0.930 . S
C4215 H4203 0.930 . S
C4215 C4216 1.399 . S
C4215 C4220 1.399 . S
C4216 C4215 1.399 . S
C4216 C4217 1.376 . S
C4217 H4204 0.930 1_545 S
C4217 C4216 1.376 . S
C4217 C4218 1.388 1_545 S
C4218 H4205 0.930 . S
C4218 C4217 1.388 1_565 S
C4218 C4219 1.390 1_565 S
C4219 C4218 1.390 1_545 S
C4219 C4220 1.394 . S
C4219 C4225 1.458 . S
C4220 C4215 1.399 . S
C4220 C4219 1.394 . S
C4220 C4221 1.516 . S
C4221 C4220 1.516 . S
C4221 C4222 1.502 . S
C4221 C4223 1.561 . S
C4221 C4224 1.526 . S
C4222 H4206 0.959 . S
C4222 H4207 0.959 . S
C4222 H4208 0.961 . S
C4222 C4221 1.502 . S
C4223 H4209 0.960 . S
C4223 H4210 0.961 . S
C4223 H4211 0.959 . S
C4223 C4221 1.561 . S
C4224 C4221 1.526 . S
C4224 C4225 1.420 . S
C4224 C4229 1.390 . S
C4225 C4219 1.458 . S
C4225 C4224 1.420 . S
C4225 C4226 1.387 1_545 S
C4226 H4212 0.929 . S
C4226 C4225 1.387 1_565 S
C4226 C4227 1.385 . S
C4227 H4213 0.931 . S
C4227 C4226 1.385 . S
C4227 C4228 1.429 . S
C4228 C4227 1.429 . S
C4228 C4229 1.367 1_565 S
C4229 H4214 0.930 . S
C4229 C4224 1.390 . S
C4229 C4228 1.367 1_545 S
C2299 C8 1.212 . S
C2311 C1289 0.998 1_655 S
C2326 C18 1.540 . S
C2338 C1429 0.941 . S
C2365 C1517 1.227 . S
C2353 C31 1.300 . S
C2380 C34 1.377 1_565 S
C2392 C1657 1.085 1_565 S
C2407 C5 1.351 . S
C2419 C1771 1.033 . S
C2434 C21 1.601 . S
C2446 C1859 1.197 . S
C2461 C47 1.205 . S
C2473 C1745 1.076 . S
C2500 C1885 1.202 . S
C2488 C57 1.447 . S
C2527 C1631 1.201 . S
C2515 C70 1.257 . S
C2542 C73 1.335 . S
C2554 C1543 0.960 . S
C2581 C1315 1.085 . S
C2569 C44 1.277 . S
C2596 C60 1.518 . S
C2608 C1403 1.377 . S
C2623 C86 1.656 . S
C2635 C1973 1.266 . S
C2650 C96 1.666 . S
C2662 C2113 1.077 . S
C2689 C2201 1.329 . S
C2677 C109 1.713 . S
C2704 C112 1.770 . S
C2716 C289 1.246 . S
C2731 C83 1.757 . S
C2743 C403 1.179 . S
C2758 C99 1.699 . S
C2770 C491 1.375 . S
C2785 C125 1.418 . S
C2797 C377 1.340 . S
C2812 C135 1.574 . S
C2824 C517 1.413 . S
C2851 C263 1.516 . S
C2839 C148 1.601 . S
C2878 C2227 1.612 . S
C2866 C151 1.818 . S
C2905 C1999 1.377 . S
C2893 C122 1.642 . S
C2932 C2087 1.474 . S
C2920 C138 1.667 . S
C2947 C164 1.544 . S
C2959 C605 1.176 . S
C2974 C174 1.658 . S
C2986 C745 1.018 . S
C3001 C187 1.712 . S
C3013 C833 1.197 . S
C3028 C190 1.898 . S
C3040 C973 1.321 . S
C3067 C1087 1.086 . S
C3055 C161 1.758 . S
C3094 C1175 1.267 . S
C3082 C177 1.761 . S
C3121 C1061 1.410 . S
C3109 C203 1.616 . S
C3148 C1201 1.357 . S
C3136 C213 1.598 . S
C3163 C226 1.562 . S
C3175 C947 1.460 . S
C3202 C859 1.439 . S
C3190 C229 1.674 . S
C3217 C200 1.681 . S
C3229 C631 1.366 . S
C3256 C719 1.557 . S
C3244 C216 1.596 . S
C3283 C245 0.867 . S
C3271 C0 1.702 . S
C3298 C23 1.585 . S
C3310 C359 0.869 . S
C3337 C463 1.273 . S
C3325 C36 1.705 . S
C3364 C577 1.107 . S
C3352 C26 1.507 . S
C3391 C701 0.981 . S
C3379 C10 1.737 . S
C3418 C805 1.080 . S
C3406 C13 1.568 1_556 S
C3433 C39 1.790 . S
C3445 C815 1.502 . S
C3460 C62 1.673 . S
C3472 C587 1.249 . S
C3487 C75 1.757 1_556 S
C3499 C691 1.593 . S
C3514 C65 1.605 . S
C3526 C349 1.604 . S
C3553 C473 1.532 . S
C3541 C49 1.851 . S
C3568 C52 1.604 . S
C3580 C235 1.553 . S
C3607 C929 0.993 . S
C3595 C78 1.574 . S
C3622 C101 1.704 . S
C3634 C1043 0.963 . S
C3649 C114 1.720 1_655 S
C3661 C1147 1.340 . S
C3688 C1261 0.990 . S
C3676 C104 1.147 . S
C3703 C88 1.582 . S
C3715 C1385 0.891 . S
C3730 C91 1.105 . S
C3742 C1489 1.043 . S
C3757 C117 1.260 . S
C3769 C1499 0.947 1_565 S
C3784 C140 1.175 . S
C3796 C1271 0.705 . S
C3823 C1375 1.470 . S
C3811 C153 1.670 . S
C3838 C143 1.532 . S
C3850 C1033 1.540 . S
C3865 C127 1.838 . S
C3877 C1157 1.401 . S
C3904 C919 1.648 . S
C3892 C130 1.743 . S
C3931 C1613 0.917 . S
C3919 C156 1.244 . S
C3946 C179 1.149 . S
C3958 C1727 0.898 . S
C3973 C192 1.557 . S
C3985 C1831 1.203 . S
C4012 C1945 1.060 . S
C4000 C182 1.490 . S
C4039 C2069 1.040 . S
C4027 C166 1.748 . S
C4054 C169 1.653 . S
C4066 C2173 1.344 . S
C4081 C195 1.694 . S
C4093 C2183 1.448 . S
C4108 C218 1.817 . S
C4120 C1955 1.462 . S
C4147 C2059 1.605 . S
C4135 C231 1.793 . S
C4174 C1717 1.028 1_655 S
C4162 C221 1.083 . S
C4201 C1841 1.341 . S
C4189 C205 1.688 . S
C4216 C208 1.148 . S
C4228 C1603 0.910 . S
