# Generated by pormake.
# Topology pyr, (3,6)-cn, num edge types: 1
# Building blocks:
#     Node 0, Type 0, BuildingBlock: ESEHIV_clean_linker_0, # of connection points: 3
#     Node 1, Type 0, BuildingBlock: ESEHIV_clean_linker_0, # of connection points: 3
#     Node 2, Type 0, BuildingBlock: ESEHIV_clean_linker_0, # of connection points: 3
#     Node 3, Type 0, BuildingBlock: ESEHIV_clean_linker_0, # of connection points: 3
#     Node 4, Type 0, BuildingBlock: ESEHIV_clean_linker_0, # of connection points: 3
#     Node 5, Type 0, BuildingBlock: ESEHIV_clean_linker_0, # of connection points: 3
#     Node 6, Type 0, BuildingBlock: ESEHIV_clean_linker_0, # of connection points: 3
#     Node 7, Type 0, BuildingBlock: ESEHIV_clean_linker_0, # of connection points: 3
#     Node 8, Type 1, BuildingBlock: VOLQOD_clean_sbu_1, # of connection points: 6
#     Node 9, Type 1, BuildingBlock: VOLQOD_clean_sbu_1, # of connection points: 6
#     Node 10, Type 1, BuildingBlock: VOLQOD_clean_sbu_1, # of connection points: 6
#     Node 11, Type 1, BuildingBlock: VOLQOD_clean_sbu_1, # of connection points: 6
#     Edge 12, Type (0, 1), BuildingBlock: AJUNOK_clean_linker_0, # of connection points: 2
#     Edge 13, Type (0, 1), BuildingBlock: AJUNOK_clean_linker_0, # of connection points: 2
#     Edge 14, Type (0, 1), BuildingBlock: AJUNOK_clean_linker_0, # of connection points: 2
#     Edge 15, Type (0, 1), BuildingBlock: AJUNOK_clean_linker_0, # of connection points: 2
#     Edge 16, Type (0, 1), BuildingBlock: AJUNOK_clean_linker_0, # of connection points: 2
#     Edge 17, Type (0, 1), BuildingBlock: AJUNOK_clean_linker_0, # of connection points: 2
#     Edge 18, Type (0, 1), BuildingBlock: AJUNOK_clean_linker_0, # of connection points: 2
#     Edge 19, Type (0, 1), BuildingBlock: AJUNOK_clean_linker_0, # of connection points: 2
#     Edge 20, Type (0, 1), BuildingBlock: AJUNOK_clean_linker_0, # of connection points: 2
#     Edge 21, Type (0, 1), BuildingBlock: AJUNOK_clean_linker_0, # of connection points: 2
#     Edge 22, Type (0, 1), BuildingBlock: AJUNOK_clean_linker_0, # of connection points: 2
#     Edge 23, Type (0, 1), BuildingBlock: AJUNOK_clean_linker_0, # of connection points: 2
#     Edge 24, Type (0, 1), BuildingBlock: AJUNOK_clean_linker_0, # of connection points: 2
#     Edge 25, Type (0, 1), BuildingBlock: AJUNOK_clean_linker_0, # of connection points: 2
#     Edge 26, Type (0, 1), BuildingBlock: AJUNOK_clean_linker_0, # of connection points: 2
#     Edge 27, Type (0, 1), BuildingBlock: AJUNOK_clean_linker_0, # of connection points: 2
#     Edge 28, Type (0, 1), BuildingBlock: AJUNOK_clean_linker_0, # of connection points: 2
#     Edge 29, Type (0, 1), BuildingBlock: AJUNOK_clean_linker_0, # of connection points: 2
#     Edge 30, Type (0, 1), BuildingBlock: AJUNOK_clean_linker_0, # of connection points: 2
#     Edge 31, Type (0, 1), BuildingBlock: AJUNOK_clean_linker_0, # of connection points: 2
#     Edge 32, Type (0, 1), BuildingBlock: AJUNOK_clean_linker_0, # of connection points: 2
#     Edge 33, Type (0, 1), BuildingBlock: AJUNOK_clean_linker_0, # of connection points: 2
#     Edge 34, Type (0, 1), BuildingBlock: AJUNOK_clean_linker_0, # of connection points: 2
#     Edge 35, Type (0, 1), BuildingBlock: AJUNOK_clean_linker_0, # of connection points: 2
# Relax obj value: 0.035
# Max RMSD: 0.118
# Mean RMSD: 0.043
data_MOF--net-pry--node1-VOLQOD_clean_sbu_1--node2-ESEHIV_clean_linker_0--edge1-AJUNOK_clean_linker_0
_symmetry_space_group_name_H-M    P1
_symmetry_Int_Tables_number       1
_symmetry_cell_setting            triclinic
loop_
_symmetry_equiv_pos_as_xyz
'x, y, z'
_cell_length_a     25.927806
_cell_length_b     25.973113
_cell_length_c     26.153554
_cell_angle_alpha  89.959202
_cell_angle_beta   90.150075
_cell_angle_gamma 90.15394
loop_
_atom_site_label
_atom_site_type_symbol
_atom_site_fract_x
_atom_site_fract_y
_atom_site_fract_z
_atom_type_partial_charge
H0 H 0.05835 0.1748 0.18025 0.0
H1 H 0.17178 0.05526 0.17793 0.0
H2 H 0.15927 0.16046 0.05104 0.0
C3 C 0.08816 0.15412 0.15982 0.0
C4 C 0.10674 0.17317 0.11324 0.0
C5 C 0.11036 0.11031 0.18195 0.0
C6 C 0.1521 0.08611 0.15803 0.0
C7 C 0.17072 0.10435 0.11086 0.0
C8 C 0.14594 0.14642 0.08776 0.0
H9 H 0.33316 0.95012 0.67873 0.0
H10 H 0.46358 0.84863 0.67404 0.0
H11 H 0.34144 0.83264 0.56349 0.0
C12 C 0.35437 0.91947 0.66017 0.0
C13 C 0.33342 0.89516 0.6169 0.0
C14 C 0.4004 0.9015 0.68191 0.0
C15 C 0.42702 0.8611 0.65821 0.0
C16 C 0.40531 0.83464 0.61665 0.0
C17 C 0.35891 0.85272 0.59549 0.0
H18 H 0.66045 0.34706 0.96564 0.0
H19 H 0.67551 0.45657 0.84359 0.0
H20 H 0.5608 0.33695 0.83465 0.0
C21 C 0.64796 0.36177 0.92887 0.0
C22 C 0.6072 0.33734 0.90312 0.0
C23 C 0.67466 0.40291 0.90637 0.0
C24 C 0.65618 0.42362 0.86025 0.0
C25 C 0.61442 0.40063 0.83442 0.0
C26 C 0.59059 0.35703 0.85592 0.0
H27 H 0.83706 0.6749 0.45134 0.0
H28 H 0.95453 0.67043 0.33577 0.0
H29 H 0.84422 0.54711 0.34744 0.0
C30 C 0.85631 0.65463 0.42062 0.0
C31 C 0.83505 0.6088 0.40147 0.0
C32 C 0.89995 0.67659 0.39749 0.0
C33 C 0.92224 0.6523 0.35496 0.0
C34 C 0.90137 0.60634 0.33552 0.0
C35 C 0.85958 0.58351 0.36092 0.0
H36 H 0.84642 0.97108 0.86623 0.0
H37 H 0.96568 0.85765 0.84654 0.0
H38 H 0.86345 0.84835 0.97491 0.0
C39 C 0.86729 0.93758 0.87961 0.0
C40 C 0.85001 0.91174 0.92346 0.0
C41 C 0.90859 0.91801 0.85093 0.0
C42 C 0.93482 0.87427 0.86897 0.0
C43 C 0.91955 0.84975 0.91428 0.0
C44 C 0.87732 0.86891 0.94154 0.0
H45 H 0.53497 0.14708 0.35326 0.0
H46 H 0.66551 0.04671 0.36182 0.0
H47 H 0.64221 0.16197 0.47787 0.0
C48 C 0.56833 0.13305 0.3741 0.0
C49 C 0.58546 0.15935 0.41776 0.0
C50 C 0.59728 0.09262 0.35387 0.0
C51 C 0.6421 0.07649 0.3791 0.0
C52 C 0.659 0.10125 0.42388 0.0
C53 C 0.62936 0.14176 0.44392 0.0
H54 H 0.36434 0.65752 0.03953 0.0
H55 H 0.35506 0.53687 0.15183 0.0
H56 H 0.47274 0.65285 0.16348 0.0
C57 C 0.38086 0.63711 0.07184 0.0
C58 C 0.42321 0.65831 0.09758 0.0
C59 C 0.35636 0.5929 0.0908 0.0
C60 C 0.3759 0.56881 0.13482 0.0
C61 C 0.41832 0.59002 0.16067 0.0
C62 C 0.44237 0.63433 0.14152 0.0
H63 H 0.04097 0.35753 0.66326 0.0
H64 H 0.14938 0.36026 0.53873 0.0
H65 H 0.15538 0.47679 0.6546 0.0
C66 C 0.07086 0.37712 0.64175 0.0
C67 C 0.094 0.42129 0.66244 0.0
C68 C 0.09043 0.35482 0.59687 0.0
C69 C 0.13232 0.37839 0.57196 0.0
C70 C 0.15584 0.42216 0.59287 0.0
C71 C 0.13579 0.44417 0.6373 0.0
O72 O 0.9896 0.12521 0.56276 0.0
Zn73 Zn 0.95821 0.05465 0.55549 0.0
O74 O 0.00103 0.00966 0.51318 0.0
Zn75 Zn 0.96449 0.99348 0.44995 0.0
Zn76 Zn 0.06563 0.04487 0.49758 0.0
Zn77 Zn 0.01607 0.94568 0.54943 0.0
O78 O 0.95814 0.91752 0.44051 0.0
O79 O 0.98721 0.88318 0.5126 0.0
O80 O 0.88823 0.06451 0.52467 0.0
O81 O 0.89185 0.02058 0.4518 0.0
O82 O 0.00134 0.02239 0.38829 0.0
O83 O 0.07332 0.05437 0.422 0.0
O84 O 0.12753 0.00639 0.52452 0.0
O85 O 0.94805 0.02417 0.62554 0.0
O86 O 0.09228 0.93571 0.55686 0.0
O87 O 0.98811 0.94855 0.62086 0.0
C88 C 0.03318 0.14358 0.54977 0.0
C89 C 0.96699 0.87838 0.46837 0.0
C90 C 0.0447 0.04503 0.3835 0.0
C91 C 0.86739 0.04818 0.48373 0.0
C92 C 0.13182 0.96278 0.54641 0.0
C93 C 0.96241 0.98189 0.64561 0.0
O94 O 0.06633 0.11618 0.5266 0.0
O95 O 0.49568 0.11678 0.95826 0.0
Zn96 Zn 0.4634 0.04686 0.96988 0.0
O97 O 0.50744 0.0034 0.01343 0.0
Zn98 Zn 0.52913 0.94226 0.97668 0.0
Zn99 Zn 0.56889 0.0415 0.03368 0.0
Zn100 Zn 0.46937 0.98185 0.07406 0.0
O101 O 0.50605 0.87708 0.01072 0.0
O102 O 0.46361 0.90533 0.07846 0.0
O103 O 0.45152 0.01335 0.9008 0.0
O104 O 0.49788 0.94177 0.90727 0.0
O105 O 0.60574 0.93837 0.97002 0.0
O106 O 0.63457 0.00721 0.01115 0.0
O107 O 0.57222 0.04873 0.10964 0.0
O108 O 0.39375 0.05749 0.00274 0.0
O109 O 0.50344 0.00712 0.13856 0.0
O110 O 0.39713 0.0085 0.07246 0.0
C111 C 0.53777 0.13667 0.974 0.0
C112 C 0.47972 0.86859 0.05076 0.0
C113 C 0.64283 0.96615 0.98605 0.0
C114 C 0.46788 0.97113 0.88218 0.0
C115 C 0.54437 0.03311 0.14652 0.0
C116 C 0.37275 0.03837 0.04248 0.0
O117 O 0.56857 0.11179 0.00274 0.0
O118 O 0.56238 0.50868 0.61337 0.0
Zn119 Zn 0.54723 0.54401 0.54664 0.0
O120 O 0.50052 0.50271 0.50424 0.0
Zn121 Zn 0.53648 0.47965 0.44343 0.0
Zn122 Zn 0.47678 0.44327 0.54359 0.0
Zn123 Zn 0.44158 0.54384 0.48247 0.0
O124 O 0.50217 0.50269 0.37834 0.0
O125 O 0.43835 0.55132 0.40655 0.0
O126 O 0.61536 0.5563 0.51162 0.0
O127 O 0.60774 0.50886 0.44139 0.0
O128 O 0.54059 0.40315 0.44181 0.0
O129 O 0.49729 0.37635 0.50992 0.0
O130 O 0.39994 0.44426 0.55062 0.0
O131 O 0.51536 0.61301 0.56194 0.0
O132 O 0.37459 0.51205 0.50527 0.0
O133 O 0.44558 0.61474 0.5122 0.0
C134 C 0.54239 0.46986 0.63552 0.0
C135 C 0.46418 0.53239 0.36991 0.0
C136 C 0.52296 0.36696 0.46955 0.0
C137 C 0.63361 0.53911 0.46988 0.0
C138 C 0.36443 0.47293 0.53282 0.0
C139 C 0.47599 0.63614 0.54401 0.0
O140 O 0.50756 0.44271 0.6142 0.0
O141 O 0.95464 0.49787 0.11524 0.0
Zn142 Zn 0.96732 0.46417 0.04728 0.0
O143 O 0.01063 0.50856 0.00477 0.0
Zn144 Zn 0.97144 0.53149 0.94504 0.0
Zn145 Zn 0.03459 0.56813 0.0439 0.0
Zn146 Zn 0.07015 0.46974 0.9823 0.0
O147 O 0.00301 0.50605 0.87921 0.0
O148 O 0.07132 0.46285 0.90663 0.0
O149 O 0.8986 0.45197 0.01391 0.0
O150 O 0.89852 0.50496 0.94707 0.0
O151 O 0.96881 0.60841 0.94212 0.0
O152 O 0.01107 0.63451 0.01134 0.0
O153 O 0.1119 0.57016 0.04866 0.0
O154 O 0.00015 0.39478 0.0603 0.0
O155 O 0.1366 0.502 0.00416 0.0
O156 O 0.07058 0.39967 0.01259 0.0
C157 C 0.97394 0.5371 0.13743 0.0
C158 C 0.04298 0.47914 0.87039 0.0
C159 C 0.98557 0.64433 0.97083 0.0
C160 C 0.87606 0.47218 0.97559 0.0
C161 C 0.14726 0.54137 0.03097 0.0
C162 C 0.04161 0.37514 0.04324 0.0
O163 O 0.00641 0.56639 0.11536 0.0
C164 C 0.06326 0.0498 0.23958 0.0
C165 C 0.09413 0.09381 0.2333 0.0
C166 C 0.04692 0.03438 0.28837 0.0
C167 C 0.06188 0.062 0.33233 0.0
H168 H 0.05138 0.02753 0.20655 0.0
H169 H 0.023 0.00029 0.29175 0.0
S170 S 0.14227 0.18052 0.33512 0.0
N171 N 0.13851 0.1652 0.27395 0.0
N172 N 0.10885 0.13604 0.36584 0.0
C173 C 0.09305 0.10603 0.32619 0.0
C174 C 0.10892 0.12201 0.27656 0.0
C175 C 0.42241 0.97241 0.74382 0.0
C176 C 0.41713 0.9196 0.73304 0.0
C177 C 0.43837 0.98926 0.79243 0.0
C178 C 0.44979 0.95372 0.83148 0.0
H179 H 0.41473 0.00075 0.71437 0.0
H180 H 0.44265 0.03019 0.7992 0.0
S181 S 0.43515 0.81167 0.82442 0.0
N182 N 0.41925 0.83242 0.7669 0.0
N183 N 0.45051 0.8637 0.85731 0.0
C184 C 0.44319 0.90095 0.82143 0.0
C185 C 0.42651 0.88398 0.77245 0.0
C186 C 0.54402 0.42346 0.77263 0.0
C187 C 0.59712 0.42012 0.7837 0.0
C188 C 0.52651 0.43982 0.72459 0.0
C189 C 0.56144 0.45456 0.68632 0.0
H190 H 0.51569 0.41328 0.8013 0.0
H191 H 0.48535 0.44134 0.71745 0.0
S192 S 0.70402 0.4498 0.69388 0.0
N193 N 0.68439 0.42974 0.75051 0.0
N194 N 0.6511 0.46334 0.66137 0.0
C195 C 0.61446 0.45184 0.69669 0.0
C196 C 0.63241 0.43396 0.74511 0.0
C197 C 0.97272 0.58398 0.27451 0.0
C198 C 0.91965 0.5853 0.28586 0.0
C199 C 0.99029 0.56774 0.22648 0.0
C200 C 0.95546 0.5512 0.18863 0.0
H201 H 0.00088 0.59599 0.30278 0.0
H202 H 0.03135 0.56806 0.21891 0.0
S203 S 0.81292 0.55036 0.19698 0.0
N204 N 0.83251 0.5718 0.25316 0.0
N205 N 0.86598 0.53847 0.16442 0.0
C206 C 0.90257 0.55171 0.1994 0.0
C207 C 0.88455 0.56943 0.24765 0.0
C208 C 0.25635 0.1206 0.06963 0.0
C209 C 0.22017 0.08505 0.08929 0.0
C210 C 0.30485 0.10478 0.05257 0.0
C211 C 0.31969 0.05305 0.05577 0.0
H212 H 0.24801 0.16142 0.06891 0.0
H213 H 0.33174 0.13363 0.03882 0.0
S214 S 0.23883 0.94369 0.09934 0.0
N215 N 0.20156 0.99468 0.10627 0.0
N216 N 0.29422 0.96557 0.07694 0.0
C217 C 0.28399 0.01679 0.07421 0.0
C218 C 0.23394 0.03264 0.09038 0.0
C219 C 0.27378 0.96262 0.58303 0.0
C220 C 0.28244 0.91116 0.59708 0.0
C221 C 0.2253 0.97873 0.56544 0.0
C222 C 0.18354 0.94405 0.562 0.0
H223 H 0.30474 0.9906 0.58568 0.0
H224 H 0.22035 0.01891 0.5555 0.0
S225 S 0.18678 0.80482 0.59478 0.0
N226 N 0.2458 0.82557 0.60678 0.0
N227 N 0.15473 0.85541 0.57367 0.0
C228 C 0.19202 0.89227 0.57574 0.0
C229 C 0.24144 0.87593 0.59328 0.0
C230 C 0.7376 0.47324 0.92904 0.0
C231 C 0.72485 0.42049 0.92797 0.0
C232 C 0.78651 0.48994 0.94511 0.0
C233 C 0.82389 0.45457 0.96172 0.0
H234 H 0.7098 0.50181 0.91684 0.0
H235 H 0.79515 0.53078 0.94454 0.0
S236 S 0.81167 0.31247 0.9638 0.0
N237 N 0.75547 0.33293 0.94226 0.0
N238 N 0.84595 0.36486 0.97518 0.0
C239 C 0.81162 0.40198 0.96167 0.0
C240 C 0.76245 0.3848 0.94416 0.0
C241 C 0.7728 0.58536 0.47136 0.0
C242 C 0.78376 0.5907 0.41898 0.0
C243 C 0.724 0.56872 0.48786 0.0
C244 C 0.68486 0.55656 0.45243 0.0
H245 H 0.80222 0.59372 0.49968 0.0
H246 H 0.71708 0.56477 0.52851 0.0
S247 S 0.69223 0.57018 0.3114 0.0
N248 N 0.74987 0.58731 0.33222 0.0
N249 N 0.65918 0.55449 0.36296 0.0
C250 C 0.69512 0.56271 0.40007 0.0
C251 C 0.74431 0.58022 0.38342 0.0
C252 C 0.03754 0.23717 0.09147 0.0
C253 C 0.09016 0.22438 0.09447 0.0
C254 C 0.02182 0.28617 0.07507 0.0
C255 C 0.05825 0.32377 0.06088 0.0
H256 H 0.00839 0.20903 0.10161 0.0
H257 H 0.98094 0.29446 0.07292 0.0
S258 S 0.20075 0.31128 0.06745 0.0
N259 N 0.17861 0.25474 0.08614 0.0
N260 N 0.14924 0.346 0.05416 0.0
C261 C 0.11097 0.31166 0.06459 0.0
C262 C 0.12688 0.26218 0.08169 0.0
C263 C 0.62252 0.24985 0.93905 0.0
C264 C 0.58724 0.28742 0.9225 0.0
C265 C 0.60586 0.20171 0.95612 0.0
C266 C 0.55319 0.18871 0.95677 0.0
H267 H 0.66365 0.25726 0.93793 0.0
H268 H 0.63478 0.17408 0.96791 0.0
S269 S 0.44479 0.27409 0.9197 0.0
N270 N 0.49697 0.3093 0.90983 0.0
N271 N 0.46547 0.21785 0.94085 0.0
C272 C 0.51727 0.22588 0.94054 0.0
C273 C 0.53433 0.27539 0.9236 0.0
C274 C 0.93146 0.73614 0.46617 0.0
C275 C 0.91892 0.72762 0.41455 0.0
C276 C 0.94809 0.78468 0.48314 0.0
C277 C 0.95208 0.82663 0.44916 0.0
H278 H 0.92838 0.70501 0.49361 0.0
H279 H 0.95694 0.78951 0.52335 0.0
S280 S 0.92304 0.82387 0.30985 0.0
N281 N 0.91101 0.76473 0.32964 0.0
N282 N 0.94255 0.85572 0.36097 0.0
C283 C 0.93984 0.81827 0.39724 0.0
C284 C 0.9232 0.76886 0.38008 0.0
C285 C 0.42936 0.77397 0.5459 0.0
C286 C 0.42807 0.78536 0.59852 0.0
C287 C 0.44602 0.72585 0.52834 0.0
C288 C 0.46314 0.68791 0.56268 0.0
H289 H 0.41665 0.80214 0.51807 0.0
H290 H 0.4452 0.71812 0.48763 0.0
S291 S 0.46584 0.69676 0.70393 0.0
N292 N 0.44336 0.75296 0.68479 0.0
N293 N 0.4775 0.66398 0.6512 0.0
C294 C 0.46335 0.69893 0.61509 0.0
C295 C 0.44516 0.74732 0.63317 0.0
C296 C 0.97332 0.9436 0.78443 0.0
C297 C 0.92138 0.93944 0.79969 0.0
C298 C 0.9864 0.95816 0.73454 0.0
C299 C 0.94808 0.97043 0.69862 0.0
H300 H 0.00415 0.93462 0.81097 0.0
H301 H 0.02674 0.9596 0.72388 0.0
S302 S 0.80684 0.96506 0.71768 0.0
N303 N 0.8314 0.94724 0.77323 0.0
N304 N 0.85669 0.9779 0.68061 0.0
C305 C 0.89627 0.96807 0.71335 0.0
C306 C 0.88271 0.95185 0.76367 0.0
C307 C 0.53694 0.05326 0.29019 0.0
C308 C 0.58563 0.07388 0.30187 0.0
C309 C 0.52426 0.03914 0.23999 0.0
C310 C 0.5596 0.04599 0.19966 0.0
H311 H 0.50838 0.04846 0.32001 0.0
H312 H 0.48607 0.02377 0.23268 0.0
S313 S 0.69228 0.09947 0.21115 0.0
N314 N 0.66922 0.10104 0.26985 0.0
N315 N 0.64589 0.07452 0.17557 0.0
C316 C 0.6087 0.06634 0.21125 0.0
C317 C 0.62158 0.08029 0.26234 0.0
C318 C 0.45902 0.53094 0.22455 0.0
C319 C 0.42895 0.57434 0.21363 0.0
C320 C 0.47008 0.51735 0.27535 0.0
C321 C 0.45085 0.5465 0.31661 0.0
H322 H 0.47447 0.50785 0.19373 0.0
H323 H 0.4938 0.48379 0.28227 0.0
S324 S 0.36938 0.66365 0.30642 0.0
N325 N 0.37974 0.64615 0.24668 0.0
N326 N 0.39985 0.62095 0.34211 0.0
C327 C 0.42007 0.58976 0.3056 0.0
C328 C 0.40931 0.6036 0.25406 0.0
C329 C 0.03153 0.45383 0.72764 0.0
C330 C 0.08143 0.43749 0.71496 0.0
C331 C 0.01951 0.46829 0.77791 0.0
C332 C 0.05683 0.46591 0.81714 0.0
H333 H 0.00178 0.45555 0.69853 0.0
H334 H 0.98051 0.48049 0.7862 0.0
S335 S 0.19312 0.4244 0.80273 0.0
N336 N 0.16813 0.4189 0.74491 0.0
N337 N 0.14601 0.44595 0.83916 0.0
C338 C 0.10694 0.44944 0.80454 0.0
C339 C 0.1191 0.43521 0.7535 0.0
C340 C 0.78644 0.97484 0.95881 0.0
C341 C 0.79872 0.92416 0.9447 0.0
C342 C 0.73623 0.98788 0.9738 0.0
C343 C 0.69644 0.95082 0.97422 0.0
H344 H 0.81566 0.00471 0.95746 0.0
H345 H 0.72823 0.0276 0.98351 0.0
S346 S 0.70943 0.81232 0.94157 0.0
N347 N 0.76761 0.8366 0.93281 0.0
N348 N 0.67353 0.86079 0.96115 0.0
C349 C 0.70869 0.89974 0.96122 0.0
C350 C 0.75975 0.88649 0.94641 0.0
C351 C 0.72695 0.03678 0.44693 0.0
C352 C 0.71076 0.08852 0.44504 0.0
C353 C 0.77776 0.02392 0.45979 0.0
C354 C 0.81374 0.06221 0.47264 0.0
H355 H 0.70044 0.00596 0.43726 0.0
H356 H 0.78902 0.98377 0.45962 0.0
S357 S 0.79227 0.20302 0.47371 0.0
N358 N 0.73625 0.17835 0.45604 0.0
N359 N 0.83066 0.15338 0.48362 0.0
C360 C 0.79804 0.11377 0.47279 0.0
C361 C 0.74675 0.12715 0.45827 0.0
C362 C 0.26591 0.61655 0.07032 0.0
C363 C 0.3047 0.57884 0.07141 0.0
C364 C 0.21533 0.60411 0.05651 0.0
C365 C 0.20168 0.55354 0.04284 0.0
H366 H 0.27439 0.6558 0.0817 0.0
H367 H 0.18664 0.63436 0.05695 0.0
S368 S 0.28968 0.44096 0.03853 0.0
N369 N 0.3268 0.48929 0.05706 0.0
N370 N 0.2315 0.46548 0.03051 0.0
C371 C 0.24044 0.51557 0.04276 0.0
C372 C 0.29198 0.52829 0.05737 0.0
C373 C 0.24967 0.42692 0.60881 0.0
C374 C 0.20789 0.43713 0.57613 0.0
C375 C 0.30011 0.43846 0.59414 0.0
C376 C 0.3105 0.46138 0.54656 0.0
H377 H 0.24329 0.40921 0.64581 0.0
H378 H 0.33117 0.42978 0.62055 0.0
S379 S 0.214 0.49542 0.44717 0.0
N380 N 0.17947 0.47049 0.49415 0.0
N381 N 0.27469 0.49369 0.46659 0.0
C382 C 0.26887 0.47221 0.51361 0.0
C383 C 0.21741 0.45954 0.52835 0.0
C384 C 0.94248 0.75939 0.89281 0.0
C385 C 0.94207 0.79954 0.92875 0.0
C386 C 0.95783 0.70974 0.90664 0.0
C387 C 0.9737 0.69832 0.9569 0.0
H388 H 0.92899 0.76591 0.8541 0.0
H389 H 0.95637 0.6799 0.87775 0.0
S390 S 0.98274 0.79133 0.06442 0.0
N391 N 0.96108 0.8258 0.01586 0.0
N392 N 0.99031 0.73231 0.04222 0.0
C393 C 0.97527 0.73872 0.99281 0.0
C394 C 0.9592 0.78932 0.97869 0.0
C395 C 0.48229 0.72258 0.05724 0.0
C396 C 0.43837 0.71158 0.0864 0.0
C397 C 0.49569 0.77369 0.04599 0.0
C398 C 0.46584 0.81509 0.06421 0.0
H399 H 0.50599 0.69158 0.04275 0.0
H400 H 0.52971 0.78081 0.02306 0.0
S401 S 0.34665 0.80486 0.14211 0.0
N402 N 0.36496 0.74473 0.13311 0.0
N403 N 0.38989 0.84083 0.11254 0.0
C404 C 0.42194 0.80406 0.09385 0.0
C405 C 0.40825 0.7522 0.10479 0.0
C406 C 0.11163 0.26434 0.57334 0.0
C407 C 0.07394 0.30222 0.58186 0.0
C408 C 0.09791 0.21337 0.56289 0.0
C409 C 0.04592 0.19796 0.56109 0.0
H410 H 0.15228 0.27378 0.57603 0.0
H411 H 0.12849 0.18565 0.55709 0.0
S412 S 0.93224 0.28298 0.57752 0.0
N413 N 0.98237 0.32157 0.58536 0.0
N414 N 0.9563 0.22525 0.56647 0.0
C415 C 0.00767 0.23553 0.56896 0.0
C416 C 0.02174 0.28772 0.5792 0.0
C417 C 0.54903 0.22338 0.47969 0.0
C418 C 0.56425 0.21075 0.42974 0.0
C419 C 0.53376 0.27368 0.49204 0.0
C420 C 0.53413 0.31309 0.45498 0.0
H421 H 0.54973 0.19441 0.5095 0.0
H422 H 0.52332 0.28206 0.53123 0.0
S423 S 0.57005 0.29913 0.31828 0.0
N424 N 0.57836 0.24127 0.34295 0.0
N425 N 0.54915 0.33524 0.36573 0.0
C426 C 0.54821 0.30043 0.40461 0.0
C427 C 0.56344 0.24941 0.3921 0.0
loop_
_geom_bond_atom_site_label_1
_geom_bond_atom_site_label_2
_geom_bond_distance
_geom_bond_site_symmetry_2
_ccdc_geom_bond_type
H0 C3 0.931 . S
H1 C6 0.928 . S
H2 C8 0.930 . S
C3 H0 0.931 . S
C3 C4 1.413 . S
C3 C5 1.360 . S
C4 C3 1.413 . S
C4 C8 1.429 . S
C5 C3 1.360 . S
C5 C6 1.372 . S
C6 H1 0.928 . S
C6 C5 1.372 . S
C6 C7 1.404 . S
C7 C6 1.404 . S
C7 C8 1.391 . S
C8 H2 0.930 . S
C8 C4 1.429 . S
C8 C7 1.391 . S
H9 C12 0.931 . S
H10 C15 0.928 . S
H11 C17 0.930 . S
C12 H9 0.931 . S
C12 C13 1.413 . S
C12 C14 1.360 . S
C13 C12 1.413 . S
C13 C17 1.429 . S
C14 C12 1.360 . S
C14 C15 1.372 . S
C15 H10 0.928 . S
C15 C14 1.372 . S
C15 C16 1.404 . S
C16 C15 1.404 . S
C16 C17 1.391 . S
C17 H11 0.930 . S
C17 C13 1.429 . S
C17 C16 1.391 . S
H18 C21 0.931 . S
H19 C24 0.928 . S
H20 C26 0.930 . S
C21 H18 0.931 . S
C21 C22 1.413 . S
C21 C23 1.360 . S
C22 C21 1.413 . S
C22 C26 1.429 . S
C23 C21 1.360 . S
C23 C24 1.372 . S
C24 H19 0.928 . S
C24 C23 1.372 . S
C24 C25 1.404 . S
C25 C24 1.404 . S
C25 C26 1.391 . S
C26 H20 0.930 . S
C26 C22 1.429 . S
C26 C25 1.391 . S
H27 C30 0.931 . S
H28 C33 0.928 . S
H29 C35 0.930 . S
C30 H27 0.931 . S
C30 C31 1.413 . S
C30 C32 1.360 . S
C31 C30 1.413 . S
C31 C35 1.429 . S
C32 C30 1.360 . S
C32 C33 1.372 . S
C33 H28 0.928 . S
C33 C32 1.372 . S
C33 C34 1.404 . S
C34 C33 1.404 . S
C34 C35 1.391 . S
C35 H29 0.930 . S
C35 C31 1.429 . S
C35 C34 1.391 . S
H36 C39 0.931 1_545 S
H37 C42 0.928 . S
H38 C44 0.930 . S
C39 H36 0.931 1_565 S
C39 C40 1.413 . S
C39 C41 1.360 . S
C40 C39 1.413 . S
C40 C44 1.429 . S
C41 C39 1.360 . S
C41 C42 1.372 . S
C42 H37 0.928 . S
C42 C41 1.372 . S
C42 C43 1.404 . S
C43 C42 1.404 . S
C43 C44 1.391 . S
C44 H38 0.930 . S
C44 C40 1.429 . S
C44 C43 1.391 . S
H45 C48 0.931 . S
H46 C51 0.928 . S
H47 C53 0.930 . S
C48 H45 0.931 . S
C48 C49 1.413 . S
C48 C50 1.360 . S
C49 C48 1.413 . S
C49 C53 1.429 . S
C50 C48 1.360 . S
C50 C51 1.372 . S
C51 H46 0.928 . S
C51 C50 1.372 . S
C51 C52 1.404 . S
C52 C51 1.404 . S
C52 C53 1.391 . S
C53 H47 0.930 . S
C53 C49 1.429 . S
C53 C52 1.391 . S
H54 C57 0.931 . S
H55 C60 0.928 . S
H56 C62 0.930 . S
C57 H54 0.931 . S
C57 C58 1.413 . S
C57 C59 1.360 . S
C58 C57 1.413 . S
C58 C62 1.429 . S
C59 C57 1.360 . S
C59 C60 1.372 . S
C60 H55 0.928 . S
C60 C59 1.372 . S
C60 C61 1.404 . S
C61 C60 1.404 . S
C61 C62 1.391 . S
C62 H56 0.930 . S
C62 C58 1.429 . S
C62 C61 1.391 . S
H63 C66 0.931 . S
H64 C69 0.928 . S
H65 C71 0.930 . S
C66 H63 0.931 . S
C66 C67 1.413 . S
C66 C68 1.360 . S
C67 C66 1.413 . S
C67 C71 1.429 . S
C68 C66 1.360 . S
C68 C69 1.372 . S
C69 H64 0.928 . S
C69 C68 1.372 . S
C69 C70 1.404 . S
C70 C69 1.404 . S
C70 C71 1.391 . S
C71 H65 0.930 . S
C71 C67 1.429 . S
C71 C70 1.391 . S
O72 Zn73 1.953 . S
O72 C88 1.225 1_655 S
Zn73 O72 1.953 . S
Zn73 O74 1.949 1_655 S
Zn73 O80 1.919 . S
Zn73 O85 1.924 . S
O74 Zn73 1.949 1_455 S
O74 Zn75 1.923 1_445 S
O74 Zn76 1.950 . S
O74 Zn77 1.945 1_545 S
Zn75 O74 1.923 1_665 S
Zn75 O78 1.933 . S
Zn75 O81 1.941 1_565 S
Zn75 O82 1.965 1_665 S
Zn76 O74 1.950 . S
Zn76 O83 1.938 . S
Zn76 O84 1.906 1_545 S
Zn76 O94 1.953 . S
Zn77 O74 1.945 1_565 S
Zn77 O79 1.932 1_455 S
Zn77 O86 1.977 . S
Zn77 O87 1.910 1_455 S
O78 Zn75 1.933 . S
O78 C89 1.226 . S
O79 Zn77 1.932 1_655 S
O79 C89 1.307 . S
O80 Zn73 1.919 . S
O80 C91 1.253 . S
O81 Zn75 1.941 1_545 S
O81 C91 1.283 . S
O82 Zn75 1.965 1_445 S
O82 C90 1.303 . S
O83 Zn76 1.938 . S
O83 C90 1.247 . S
O84 Zn76 1.906 1_565 S
O84 C92 1.304 . S
O85 Zn73 1.924 . S
O85 C93 1.311 1_545 S
O86 Zn77 1.977 . S
O86 C92 1.272 . S
O87 Zn77 1.910 1_655 S
O87 C93 1.231 . S
C88 O72 1.225 1_455 S
C88 O94 1.298 . S
C89 O78 1.226 . S
C89 O79 1.307 . S
C90 O82 1.303 . S
C90 O83 1.247 . S
C91 O80 1.253 . S
C91 O81 1.283 . S
C92 O84 1.304 . S
C92 O86 1.272 . S
C93 O85 1.311 1_565 S
C93 O87 1.231 . S
O94 Zn76 1.953 . S
O94 C88 1.298 . S
O95 Zn96 1.953 . S
O95 C111 1.225 . S
Zn96 O95 1.953 . S
Zn96 O97 1.949 1_556 S
Zn96 O103 1.919 . S
Zn96 O108 1.924 . S
O97 Zn96 1.949 1_554 S
O97 Zn98 1.923 1_544 S
O97 Zn99 1.950 . S
O97 Zn100 1.945 1_545 S
Zn98 O97 1.923 1_566 S
Zn98 O101 1.933 1_556 S
Zn98 O104 1.941 . S
Zn98 O105 1.965 . S
Zn99 O97 1.950 . S
Zn99 O106 1.938 . S
Zn99 O107 1.906 . S
Zn99 O117 1.953 . S
Zn100 O97 1.945 1_565 S
Zn100 O102 1.932 . S
Zn100 O109 1.977 1_565 S
Zn100 O110 1.910 1_565 S
O101 Zn98 1.933 1_554 S
O101 C112 1.226 . S
O102 Zn100 1.932 . S
O102 C112 1.307 . S
O103 Zn96 1.919 . S
O103 C114 1.253 1_545 S
O104 Zn98 1.941 . S
O104 C114 1.283 . S
O105 Zn98 1.965 . S
O105 C113 1.303 . S
O106 Zn99 1.938 . S
O106 C113 1.247 1_544 S
O107 Zn99 1.906 . S
O107 C115 1.304 . S
O108 Zn96 1.924 . S
O108 C116 1.311 1_556 S
O109 Zn100 1.977 1_545 S
O109 C115 1.272 . S
O110 Zn100 1.910 1_545 S
O110 C116 1.231 . S
C111 O95 1.225 . S
C111 O117 1.298 1_556 S
C112 O101 1.226 . S
C112 O102 1.307 . S
C113 O105 1.303 . S
C113 O106 1.247 1_566 S
C114 O103 1.253 1_565 S
C114 O104 1.283 . S
C115 O107 1.304 . S
C115 O109 1.272 . S
C116 O108 1.311 1_554 S
C116 O110 1.231 . S
O117 Zn99 1.953 . S
O117 C111 1.298 1_554 S
O118 Zn119 1.953 . S
O118 C134 1.225 . S
Zn119 O118 1.953 . S
Zn119 O120 1.949 . S
Zn119 O126 1.919 . S
Zn119 O131 1.924 . S
O120 Zn119 1.949 . S
O120 Zn121 1.923 . S
O120 Zn122 1.950 . S
O120 Zn123 1.945 . S
Zn121 O120 1.923 . S
Zn121 O124 1.933 . S
Zn121 O127 1.941 . S
Zn121 O128 1.965 . S
Zn122 O120 1.950 . S
Zn122 O129 1.938 . S
Zn122 O130 1.906 . S
Zn122 O140 1.953 . S
Zn123 O120 1.945 . S
Zn123 O125 1.932 . S
Zn123 O132 1.977 . S
Zn123 O133 1.910 . S
O124 Zn121 1.933 . S
O124 C135 1.226 . S
O125 Zn123 1.932 . S
O125 C135 1.307 . S
O126 Zn119 1.919 . S
O126 C137 1.253 . S
O127 Zn121 1.941 . S
O127 C137 1.283 . S
O128 Zn121 1.965 . S
O128 C136 1.303 . S
O129 Zn122 1.938 . S
O129 C136 1.247 . S
O130 Zn122 1.906 . S
O130 C138 1.304 . S
O131 Zn119 1.924 . S
O131 C139 1.311 . S
O132 Zn123 1.977 . S
O132 C138 1.272 . S
O133 Zn123 1.910 . S
O133 C139 1.231 . S
C134 O118 1.225 . S
C134 O140 1.298 . S
C135 O124 1.226 . S
C135 O125 1.307 . S
C136 O128 1.303 . S
C136 O129 1.247 . S
C137 O126 1.253 . S
C137 O127 1.283 . S
C138 O130 1.304 . S
C138 O132 1.272 . S
C139 O131 1.311 . S
C139 O133 1.231 . S
O140 Zn122 1.953 . S
O140 C134 1.298 . S
O141 Zn142 1.953 . S
O141 C157 1.225 . S
Zn142 O141 1.953 . S
Zn142 O143 1.949 1_655 S
Zn142 O149 1.919 . S
Zn142 O154 1.924 . S
O143 Zn142 1.949 1_455 S
O143 Zn144 1.923 1_454 S
O143 Zn145 1.950 . S
O143 Zn146 1.945 1_554 S
Zn144 O143 1.923 1_656 S
Zn144 O147 1.933 1_655 S
Zn144 O150 1.941 . S
Zn144 O151 1.965 . S
Zn145 O143 1.950 . S
Zn145 O152 1.938 . S
Zn145 O153 1.906 . S
Zn145 O163 1.953 . S
Zn146 O143 1.945 1_556 S
Zn146 O148 1.932 . S
Zn146 O155 1.977 1_556 S
Zn146 O156 1.910 1_556 S
O147 Zn144 1.933 1_455 S
O147 C158 1.226 . S
O148 Zn146 1.932 . S
O148 C158 1.307 . S
O149 Zn142 1.919 . S
O149 C160 1.253 1_554 S
O150 Zn144 1.941 . S
O150 C160 1.283 . S
O151 Zn144 1.965 . S
O151 C159 1.303 . S
O152 Zn145 1.938 . S
O152 C159 1.247 1_454 S
O153 Zn145 1.906 . S
O153 C161 1.304 . S
O154 Zn142 1.924 . S
O154 C162 1.311 1_655 S
O155 Zn146 1.977 1_554 S
O155 C161 1.272 . S
O156 Zn146 1.910 1_554 S
O156 C162 1.231 . S
C157 O141 1.225 . S
C157 O163 1.298 1_655 S
C158 O147 1.226 . S
C158 O148 1.307 . S
C159 O151 1.303 . S
C159 O152 1.247 1_656 S
C160 O149 1.253 1_556 S
C160 O150 1.283 . S
C161 O153 1.304 . S
C161 O155 1.272 . S
C162 O154 1.311 1_455 S
C162 O156 1.231 . S
O163 Zn145 1.953 . S
O163 C157 1.298 1_455 S
C164 C165 1.369 . S
C164 C166 1.419 . S
C164 H168 0.930 . S
C165 C164 1.369 . S
C165 C174 1.429 . S
C166 C164 1.419 . S
C166 C167 1.363 . S
C166 H169 0.929 . S
C167 C166 1.363 . S
C167 C173 1.428 . S
H168 C164 0.930 . S
H169 C166 0.929 . S
S170 N171 1.613 . S
S170 N172 1.610 . S
N171 S170 1.613 . S
N171 C174 1.350 . S
N172 S170 1.610 . S
N172 C173 1.351 . S
C173 C167 1.428 . S
C173 N172 1.351 . S
C173 C174 1.434 . S
C174 C165 1.429 . S
C174 N171 1.350 . S
C174 C173 1.434 . S
C175 C176 1.369 . S
C175 C177 1.419 . S
C175 H179 0.930 . S
C176 C175 1.369 . S
C176 C185 1.429 . S
C177 C175 1.419 . S
C177 C178 1.363 . S
C177 H180 0.929 . S
C178 C177 1.363 . S
C178 C184 1.428 . S
H179 C175 0.930 . S
H180 C177 0.929 . S
S181 N182 1.613 . S
S181 N183 1.610 . S
N182 S181 1.613 . S
N182 C185 1.350 . S
N183 S181 1.610 . S
N183 C184 1.351 . S
C184 C178 1.428 . S
C184 N183 1.351 . S
C184 C185 1.434 . S
C185 C176 1.429 . S
C185 N182 1.350 . S
C185 C184 1.434 . S
C186 C187 1.369 . S
C186 C188 1.419 . S
C186 H190 0.930 . S
C187 C186 1.369 . S
C187 C196 1.429 . S
C188 C186 1.419 . S
C188 C189 1.363 . S
C188 H191 0.929 . S
C189 C188 1.363 . S
C189 C195 1.428 . S
H190 C186 0.930 . S
H191 C188 0.929 . S
S192 N193 1.613 . S
S192 N194 1.610 . S
N193 S192 1.613 . S
N193 C196 1.350 . S
N194 S192 1.610 . S
N194 C195 1.351 . S
C195 C189 1.428 . S
C195 N194 1.351 . S
C195 C196 1.434 . S
C196 C187 1.429 . S
C196 N193 1.350 . S
C196 C195 1.434 . S
C197 C198 1.369 . S
C197 C199 1.419 . S
C197 H201 0.930 . S
C198 C197 1.369 . S
C198 C207 1.429 . S
C199 C197 1.419 . S
C199 C200 1.363 . S
C199 H202 0.929 1_655 S
C200 C199 1.363 . S
C200 C206 1.428 . S
H201 C197 0.930 . S
H202 C199 0.929 1_455 S
S203 N204 1.613 . S
S203 N205 1.610 . S
N204 S203 1.613 . S
N204 C207 1.350 . S
N205 S203 1.610 . S
N205 C206 1.351 . S
C206 C200 1.428 . S
C206 N205 1.351 . S
C206 C207 1.434 . S
C207 C198 1.429 . S
C207 N204 1.350 . S
C207 C206 1.434 . S
C208 C209 1.369 . S
C208 C210 1.419 . S
C208 H212 0.930 . S
C209 C208 1.369 . S
C209 C218 1.429 . S
C210 C208 1.419 . S
C210 C211 1.363 . S
C210 H213 0.929 . S
C211 C210 1.363 . S
C211 C217 1.428 . S
H212 C208 0.930 . S
H213 C210 0.929 . S
S214 N215 1.613 1_565 S
S214 N216 1.610 1_565 S
N215 S214 1.613 1_545 S
N215 C218 1.350 . S
N216 S214 1.610 1_545 S
N216 C217 1.351 . S
C217 C211 1.428 . S
C217 N216 1.351 . S
C217 C218 1.434 . S
C218 C209 1.429 . S
C218 N215 1.350 . S
C218 C217 1.434 . S
C219 C220 1.369 . S
C219 C221 1.419 . S
C219 H223 0.930 . S
C220 C219 1.369 . S
C220 C229 1.429 . S
C221 C219 1.419 . S
C221 C222 1.363 . S
C221 H224 0.929 . S
C222 C221 1.363 . S
C222 C228 1.428 . S
H223 C219 0.930 . S
H224 C221 0.929 . S
S225 N226 1.613 . S
S225 N227 1.610 . S
N226 S225 1.613 . S
N226 C229 1.350 . S
N227 S225 1.610 . S
N227 C228 1.351 . S
C228 C222 1.428 . S
C228 N227 1.351 . S
C228 C229 1.434 . S
C229 C220 1.429 . S
C229 N226 1.350 . S
C229 C228 1.434 . S
C230 C231 1.369 . S
C230 C232 1.419 . S
C230 H234 0.930 . S
C231 C230 1.369 . S
C231 C240 1.429 . S
C232 C230 1.419 . S
C232 C233 1.363 . S
C232 H235 0.929 . S
C233 C232 1.363 . S
C233 C239 1.428 . S
H234 C230 0.930 . S
H235 C232 0.929 . S
S236 N237 1.613 . S
S236 N238 1.610 . S
N237 S236 1.613 . S
N237 C240 1.350 . S
N238 S236 1.610 . S
N238 C239 1.351 . S
C239 C233 1.428 . S
C239 N238 1.351 . S
C239 C240 1.434 . S
C240 C231 1.429 . S
C240 N237 1.350 . S
C240 C239 1.434 . S
C241 C242 1.369 . S
C241 C243 1.419 . S
C241 H245 0.930 . S
C242 C241 1.369 . S
C242 C251 1.429 . S
C243 C241 1.419 . S
C243 C244 1.363 . S
C243 H246 0.929 . S
C244 C243 1.363 . S
C244 C250 1.428 . S
H245 C241 0.930 . S
H246 C243 0.929 . S
S247 N248 1.613 . S
S247 N249 1.610 . S
N248 S247 1.613 . S
N248 C251 1.350 . S
N249 S247 1.610 . S
N249 C250 1.351 . S
C250 C244 1.428 . S
C250 N249 1.351 . S
C250 C251 1.434 . S
C251 C242 1.429 . S
C251 N248 1.350 . S
C251 C250 1.434 . S
C252 C253 1.369 . S
C252 C254 1.419 . S
C252 H256 0.930 . S
C253 C252 1.369 . S
C253 C262 1.429 . S
C254 C252 1.419 . S
C254 C255 1.363 . S
C254 H257 0.929 1_455 S
C255 C254 1.363 . S
C255 C261 1.428 . S
H256 C252 0.930 . S
H257 C254 0.929 1_655 S
S258 N259 1.613 . S
S258 N260 1.610 . S
N259 S258 1.613 . S
N259 C262 1.350 . S
N260 S258 1.610 . S
N260 C261 1.351 . S
C261 C255 1.428 . S
C261 N260 1.351 . S
C261 C262 1.434 . S
C262 C253 1.429 . S
C262 N259 1.350 . S
C262 C261 1.434 . S
C263 C264 1.369 . S
C263 C265 1.419 . S
C263 H267 0.930 . S
C264 C263 1.369 . S
C264 C273 1.429 . S
C265 C263 1.419 . S
C265 C266 1.363 . S
C265 H268 0.929 . S
C266 C265 1.363 . S
C266 C272 1.428 . S
H267 C263 0.930 . S
H268 C265 0.929 . S
S269 N270 1.613 . S
S269 N271 1.610 . S
N270 S269 1.613 . S
N270 C273 1.350 . S
N271 S269 1.610 . S
N271 C272 1.351 . S
C272 C266 1.428 . S
C272 N271 1.351 . S
C272 C273 1.434 . S
C273 C264 1.429 . S
C273 N270 1.350 . S
C273 C272 1.434 . S
C274 C275 1.369 . S
C274 C276 1.419 . S
C274 H278 0.930 . S
C275 C274 1.369 . S
C275 C284 1.429 . S
C276 C274 1.419 . S
C276 C277 1.363 . S
C276 H279 0.929 . S
C277 C276 1.363 . S
C277 C283 1.428 . S
H278 C274 0.930 . S
H279 C276 0.929 . S
S280 N281 1.613 1_455 S
S280 N282 1.610 . S
N281 S280 1.613 1_655 S
N281 C284 1.350 . S
N282 S280 1.610 . S
N282 C283 1.351 1_455 S
C283 C277 1.428 . S
C283 N282 1.351 1_655 S
C283 C284 1.434 . S
C284 C275 1.429 . S
C284 N281 1.350 . S
C284 C283 1.434 . S
C285 C286 1.369 . S
C285 C287 1.419 . S
C285 H289 0.930 . S
C286 C285 1.369 . S
C286 C295 1.429 . S
C287 C285 1.419 . S
C287 C288 1.363 . S
C287 H290 0.929 . S
C288 C287 1.363 . S
C288 C294 1.428 . S
H289 C285 0.930 . S
H290 C287 0.929 . S
S291 N292 1.613 . S
S291 N293 1.610 . S
N292 S291 1.613 . S
N292 C295 1.350 . S
N293 S291 1.610 . S
N293 C294 1.351 . S
C294 C288 1.428 . S
C294 N293 1.351 . S
C294 C295 1.434 . S
C295 C286 1.429 . S
C295 N292 1.350 . S
C295 C294 1.434 . S
C296 C297 1.369 . S
C296 C298 1.419 . S
C296 H300 0.930 1_655 S
C297 C296 1.369 . S
C297 C306 1.429 . S
C298 C296 1.419 . S
C298 C299 1.363 . S
C298 H301 0.929 1_655 S
C299 C298 1.363 . S
C299 C305 1.428 . S
H300 C296 0.930 1_455 S
H301 C298 0.929 1_455 S
S302 N303 1.613 1_545 S
S302 N304 1.610 . S
N303 S302 1.613 1_565 S
N303 C306 1.350 . S
N304 S302 1.610 . S
N304 C305 1.351 1_545 S
C305 C299 1.428 . S
C305 N304 1.351 1_565 S
C305 C306 1.434 . S
C306 C297 1.429 . S
C306 N303 1.350 . S
C306 C305 1.434 . S
C307 C308 1.369 . S
C307 C309 1.419 1_545 S
C307 H311 0.930 1_545 S
C308 C307 1.369 . S
C308 C317 1.429 . S
C309 C307 1.419 1_565 S
C309 C310 1.363 1_565 S
C309 H312 0.929 . S
C310 C309 1.363 1_545 S
C310 C316 1.428 . S
H311 C307 0.930 1_565 S
H312 C309 0.929 . S
S313 N314 1.613 . S
S313 N315 1.610 . S
N314 S313 1.613 . S
N314 C317 1.350 . S
N315 S313 1.610 . S
N315 C316 1.351 . S
C316 C310 1.428 . S
C316 N315 1.351 . S
C316 C317 1.434 . S
C317 C308 1.429 . S
C317 N314 1.350 . S
C317 C316 1.434 . S
C318 C319 1.369 . S
C318 C320 1.419 . S
C318 H322 0.930 . S
C319 C318 1.369 . S
C319 C328 1.429 . S
C320 C318 1.419 . S
C320 C321 1.363 . S
C320 H323 0.929 . S
C321 C320 1.363 . S
C321 C327 1.428 . S
H322 C318 0.930 . S
H323 C320 0.929 . S
S324 N325 1.613 . S
S324 N326 1.610 . S
N325 S324 1.613 . S
N325 C328 1.350 . S
N326 S324 1.610 . S
N326 C327 1.351 . S
C327 C321 1.428 . S
C327 N326 1.351 . S
C327 C328 1.434 . S
C328 C319 1.429 . S
C328 N325 1.350 . S
C328 C327 1.434 . S
C329 C330 1.369 . S
C329 C331 1.419 . S
C329 H333 0.930 . S
C330 C329 1.369 . S
C330 C339 1.429 . S
C331 C329 1.419 . S
C331 C332 1.363 . S
C331 H334 0.929 . S
C332 C331 1.363 . S
C332 C338 1.428 . S
H333 C329 0.930 . S
H334 C331 0.929 . S
S335 N336 1.613 . S
S335 N337 1.610 . S
N336 S335 1.613 . S
N336 C339 1.350 . S
N337 S335 1.610 . S
N337 C338 1.351 . S
C338 C332 1.428 . S
C338 N337 1.351 . S
C338 C339 1.434 . S
C339 C330 1.429 . S
C339 N336 1.350 . S
C339 C338 1.434 . S
C340 C341 1.369 1_545 S
C340 C342 1.419 . S
C340 H344 0.930 . S
C341 C340 1.369 1_565 S
C341 C350 1.429 . S
C342 C340 1.419 . S
C342 C343 1.363 1_545 S
C342 H345 0.929 . S
C343 C342 1.363 1_565 S
C343 C349 1.428 . S
H344 C340 0.930 . S
H345 C342 0.929 . S
S346 N347 1.613 . S
S346 N348 1.610 . S
N347 S346 1.613 . S
N347 C350 1.350 1_554 S
N348 S346 1.610 . S
N348 C349 1.351 1_554 S
C349 C343 1.428 . S
C349 N348 1.351 1_556 S
C349 C350 1.434 . S
C350 C341 1.429 . S
C350 N347 1.350 1_556 S
C350 C349 1.434 . S
C351 C352 1.369 . S
C351 C353 1.419 . S
C351 H355 0.930 1_545 S
C352 C351 1.369 . S
C352 C361 1.429 . S
C353 C351 1.419 . S
C353 C354 1.363 . S
C353 H356 0.929 1_545 S
C354 C353 1.363 . S
C354 C360 1.428 . S
H355 C351 0.930 1_565 S
H356 C353 0.929 1_565 S
S357 N358 1.613 . S
S357 N359 1.610 . S
N358 S357 1.613 . S
N358 C361 1.350 . S
N359 S357 1.610 . S
N359 C360 1.351 . S
C360 C354 1.428 . S
C360 N359 1.351 . S
C360 C361 1.434 . S
C361 C352 1.429 . S
C361 N358 1.350 . S
C361 C360 1.434 . S
C362 C363 1.369 . S
C362 C364 1.419 . S
C362 H366 0.930 . S
C363 C362 1.369 . S
C363 C372 1.429 . S
C364 C362 1.419 . S
C364 C365 1.363 . S
C364 H367 0.929 . S
C365 C364 1.363 . S
C365 C371 1.428 . S
H366 C362 0.930 . S
H367 C364 0.929 . S
S368 N369 1.613 . S
S368 N370 1.610 . S
N369 S368 1.613 . S
N369 C372 1.350 . S
N370 S368 1.610 . S
N370 C371 1.351 . S
C371 C365 1.428 . S
C371 N370 1.351 . S
C371 C372 1.434 . S
C372 C363 1.429 . S
C372 N369 1.350 . S
C372 C371 1.434 . S
C373 C374 1.369 . S
C373 C375 1.419 . S
C373 H377 0.930 . S
C374 C373 1.369 . S
C374 C383 1.429 . S
C375 C373 1.419 . S
C375 C376 1.363 . S
C375 H378 0.929 . S
C376 C375 1.363 . S
C376 C382 1.428 . S
H377 C373 0.930 . S
H378 C375 0.929 . S
S379 N380 1.613 . S
S379 N381 1.610 . S
N380 S379 1.613 . S
N380 C383 1.350 . S
N381 S379 1.610 . S
N381 C382 1.351 . S
C382 C376 1.428 . S
C382 N381 1.351 . S
C382 C383 1.434 . S
C383 C374 1.429 . S
C383 N380 1.350 . S
C383 C382 1.434 . S
C384 C385 1.369 . S
C384 C386 1.419 . S
C384 H388 0.930 . S
C385 C384 1.369 . S
C385 C394 1.429 1_556 S
C386 C384 1.419 . S
C386 C387 1.363 . S
C386 H389 0.929 . S
C387 C386 1.363 . S
C387 C393 1.428 1_556 S
H388 C384 0.930 . S
H389 C386 0.929 . S
S390 N391 1.613 . S
S390 N392 1.610 . S
N391 S390 1.613 . S
N391 C394 1.350 . S
N392 S390 1.610 . S
N392 C393 1.351 . S
C393 C387 1.428 1_554 S
C393 N392 1.351 . S
C393 C394 1.434 . S
C394 C385 1.429 1_554 S
C394 N391 1.350 . S
C394 C393 1.434 . S
C395 C396 1.369 . S
C395 C397 1.419 . S
C395 H399 0.930 . S
C396 C395 1.369 . S
C396 C405 1.429 . S
C397 C395 1.419 . S
C397 C398 1.363 . S
C397 H400 0.929 . S
C398 C397 1.363 . S
C398 C404 1.428 . S
H399 C395 0.930 . S
H400 C397 0.929 . S
S401 N402 1.613 . S
S401 N403 1.610 . S
N402 S401 1.613 . S
N402 C405 1.350 . S
N403 S401 1.610 . S
N403 C404 1.351 . S
C404 C398 1.428 . S
C404 N403 1.351 . S
C404 C405 1.434 . S
C405 C396 1.429 . S
C405 N402 1.350 . S
C405 C404 1.434 . S
C406 C407 1.369 . S
C406 C408 1.419 . S
C406 H410 0.930 . S
C407 C406 1.369 . S
C407 C416 1.429 . S
C408 C406 1.419 . S
C408 C409 1.363 . S
C408 H411 0.929 . S
C409 C408 1.363 . S
C409 C415 1.428 . S
H410 C406 0.930 . S
H411 C408 0.929 . S
S412 N413 1.613 . S
S412 N414 1.610 . S
N413 S412 1.613 . S
N413 C416 1.350 1_655 S
N414 S412 1.610 . S
N414 C415 1.351 1_655 S
C415 C409 1.428 . S
C415 N414 1.351 1_455 S
C415 C416 1.434 . S
C416 C407 1.429 . S
C416 N413 1.350 1_455 S
C416 C415 1.434 . S
C417 C418 1.369 . S
C417 C419 1.419 . S
C417 H421 0.930 . S
C418 C417 1.369 . S
C418 C427 1.429 . S
C419 C417 1.419 . S
C419 C420 1.363 . S
C419 H422 0.929 . S
C420 C419 1.363 . S
C420 C426 1.428 . S
H421 C417 0.930 . S
H422 C419 0.929 . S
S423 N424 1.613 . S
S423 N425 1.610 . S
N424 S423 1.613 . S
N424 C427 1.350 . S
N425 S423 1.610 . S
N425 C426 1.351 . S
C426 C420 1.428 . S
C426 N425 1.351 . S
C426 C427 1.434 . S
C427 C418 1.429 . S
C427 N424 1.350 . S
C427 C426 1.434 . S
C165 C5 1.566 . S
C167 C90 1.552 . S
C176 C14 1.554 . S
C178 C114 1.525 . S
C189 C134 1.432 . S
C187 C25 1.420 . S
C198 C34 1.423 . S
C200 C157 1.437 . S
C211 C116 1.587 . S
C209 C7 1.638 . S
C222 C92 1.584 . S
C220 C13 1.639 . S
C233 C160 1.512 . S
C231 C23 1.550 . S
C244 C137 1.502 . S
C242 C31 1.534 . S
C253 C4 1.468 . S
C255 C162 1.422 . S
C266 C111 1.561 . S
C264 C22 1.555 . S
C275 C32 1.549 . S
C277 C89 1.559 . S
C286 C16 1.452 . S
C288 C139 1.412 . S
C299 C93 1.562 . S
C297 C41 1.560 . S
C308 C50 1.552 . S
C310 C115 1.531 . S
C319 C61 1.601 . S
C321 C135 1.630 . S
C330 C67 1.609 . S
C332 C158 1.639 . S
C341 C40 1.506 . S
C343 C113 1.486 . S
C354 C91 1.507 . S
C352 C52 1.494 . S
C365 C161 1.461 . S
C363 C59 1.512 . S
C376 C138 1.475 . S
C374 C70 1.518 . S
C385 C43 1.698 . S
C387 C159 1.669 . S
C398 C112 1.518 . S
C396 C58 1.492 . S
C409 C88 1.517 . S
C407 C68 1.489 . S
C418 C49 1.684 . S
C420 C136 1.654 . S
