# Generated by pormake.
# Topology sqc, (4,8)-cn, num edge types: 1
# Building blocks:
#     Node 0, Type 0, BuildingBlock: NAHDIM_clean_linker_0, # of connection points: 4
#     Node 1, Type 0, BuildingBlock: NAHDIM_clean_linker_0, # of connection points: 4
#     Node 2, Type 0, BuildingBlock: NAHDIM_clean_linker_0, # of connection points: 4
#     Node 3, Type 0, BuildingBlock: NAHDIM_clean_linker_0, # of connection points: 4
#     Node 4, Type 0, BuildingBlock: NAHDIM_clean_linker_0, # of connection points: 4
#     Node 5, Type 0, BuildingBlock: NAHDIM_clean_linker_0, # of connection points: 4
#     Node 6, Type 0, BuildingBlock: NAHDIM_clean_linker_0, # of connection points: 4
#     Node 7, Type 0, BuildingBlock: NAHDIM_clean_linker_0, # of connection points: 4
#     Node 8, Type 1, BuildingBlock: VETTIZ_charged_sbu_0, # of connection points: 8
#     Node 9, Type 1, BuildingBlock: VETTIZ_charged_sbu_0, # of connection points: 8
#     Node 10, Type 1, BuildingBlock: VETTIZ_charged_sbu_0, # of connection points: 8
#     Node 11, Type 1, BuildingBlock: VETTIZ_charged_sbu_0, # of connection points: 8
#     Edge 12, Type (0, 1), BuildingBlock: TEMPAE_clean_linker_10, # of connection points: 2
#     Edge 13, Type (0, 1), BuildingBlock: TEMPAE_clean_linker_10, # of connection points: 2
#     Edge 14, Type (0, 1), BuildingBlock: TEMPAE_clean_linker_10, # of connection points: 2
#     Edge 15, Type (0, 1), BuildingBlock: TEMPAE_clean_linker_10, # of connection points: 2
#     Edge 16, Type (0, 1), BuildingBlock: TEMPAE_clean_linker_10, # of connection points: 2
#     Edge 17, Type (0, 1), BuildingBlock: TEMPAE_clean_linker_10, # of connection points: 2
#     Edge 18, Type (0, 1), BuildingBlock: TEMPAE_clean_linker_10, # of connection points: 2
#     Edge 19, Type (0, 1), BuildingBlock: TEMPAE_clean_linker_10, # of connection points: 2
#     Edge 20, Type (0, 1), BuildingBlock: TEMPAE_clean_linker_10, # of connection points: 2
#     Edge 21, Type (0, 1), BuildingBlock: TEMPAE_clean_linker_10, # of connection points: 2
#     Edge 22, Type (0, 1), BuildingBlock: TEMPAE_clean_linker_10, # of connection points: 2
#     Edge 23, Type (0, 1), BuildingBlock: TEMPAE_clean_linker_10, # of connection points: 2
#     Edge 24, Type (0, 1), BuildingBlock: TEMPAE_clean_linker_10, # of connection points: 2
#     Edge 25, Type (0, 1), BuildingBlock: TEMPAE_clean_linker_10, # of connection points: 2
#     Edge 26, Type (0, 1), BuildingBlock: TEMPAE_clean_linker_10, # of connection points: 2
#     Edge 27, Type (0, 1), BuildingBlock: TEMPAE_clean_linker_10, # of connection points: 2
#     Edge 28, Type (0, 1), BuildingBlock: TEMPAE_clean_linker_10, # of connection points: 2
#     Edge 29, Type (0, 1), BuildingBlock: TEMPAE_clean_linker_10, # of connection points: 2
#     Edge 30, Type (0, 1), BuildingBlock: TEMPAE_clean_linker_10, # of connection points: 2
#     Edge 31, Type (0, 1), BuildingBlock: TEMPAE_clean_linker_10, # of connection points: 2
#     Edge 32, Type (0, 1), BuildingBlock: TEMPAE_clean_linker_10, # of connection points: 2
#     Edge 33, Type (0, 1), BuildingBlock: TEMPAE_clean_linker_10, # of connection points: 2
#     Edge 34, Type (0, 1), BuildingBlock: TEMPAE_clean_linker_10, # of connection points: 2
#     Edge 35, Type (0, 1), BuildingBlock: TEMPAE_clean_linker_10, # of connection points: 2
#     Edge 36, Type (0, 1), BuildingBlock: TEMPAE_clean_linker_10, # of connection points: 2
#     Edge 37, Type (0, 1), BuildingBlock: TEMPAE_clean_linker_10, # of connection points: 2
#     Edge 38, Type (0, 1), BuildingBlock: TEMPAE_clean_linker_10, # of connection points: 2
#     Edge 39, Type (0, 1), BuildingBlock: TEMPAE_clean_linker_10, # of connection points: 2
#     Edge 40, Type (0, 1), BuildingBlock: TEMPAE_clean_linker_10, # of connection points: 2
#     Edge 41, Type (0, 1), BuildingBlock: TEMPAE_clean_linker_10, # of connection points: 2
#     Edge 42, Type (0, 1), BuildingBlock: TEMPAE_clean_linker_10, # of connection points: 2
#     Edge 43, Type (0, 1), BuildingBlock: TEMPAE_clean_linker_10, # of connection points: 2
# Relax obj value: 0.111
# Max RMSD: 0.262
# Mean RMSD: 0.120
data_MOF--net-sqc--node1-VETTIZ_charged_sbu_0--node2-NAHDIM_clean_linker_0--edge1-TEMPAE_clean_linker_10
_symmetry_space_group_name_H-M    P1
_symmetry_Int_Tables_number       1
_symmetry_cell_setting            triclinic
loop_
_symmetry_equiv_pos_as_xyz
'x, y, z'
_cell_length_a     31.756764
_cell_length_b     31.733225
_cell_length_c     102.89123
_cell_angle_alpha  89.449432
_cell_angle_beta   89.572549
_cell_angle_gamma 89.958464
loop_
_atom_site_label
_atom_site_type_symbol
_atom_site_fract_x
_atom_site_fract_y
_atom_site_fract_z
_atom_type_partial_charge
C0 C 0.84587 0.83952 0.45524 0.0
C1 C 0.81876 0.87006 0.46323 0.0
C2 C 0.87253 0.92139 0.46968 0.0
C3 C 0.89234 0.89527 0.47891 0.0
C4 C 0.9295 0.90798 0.48497 0.0
C5 C 0.94707 0.94779 0.48185 0.0
C6 C 0.92709 0.9744 0.47269 0.0
C7 C 0.8899 0.96083 0.46674 0.0
C8 C 0.95005 0.87877 0.49471 0.0
C9 C 0.94501 0.01709 0.46924 0.0
C10 C 0.16921 0.85412 0.44351 0.0
C11 C 0.19347 0.89537 0.4453 0.0
C12 C 0.16951 0.9174 0.46645 0.0
C13 C 0.15262 0.95768 0.4645 0.0
C14 C 0.11907 0.97205 0.47223 0.0
C15 C 0.10183 0.94521 0.48197 0.0
C16 C 0.11976 0.90488 0.48418 0.0
C17 C 0.15403 0.89182 0.47651 0.0
C18 C 0.10124 0.01544 0.46973 0.0
C19 C 0.10172 0.87494 0.49425 0.0
C20 C 0.17081 0.00629 0.56431 0.0
C21 C 0.16437 0.0406 0.55584 0.0
C22 C 0.12723 0.04403 0.54861 0.0
C23 C 0.09677 0.01158 0.54951 0.0
C24 C 0.10291 0.97738 0.55825 0.0
C25 C 0.13956 0.97574 0.56575 0.0
C26 C 0.12083 0.08211 0.53994 0.0
C27 C 0.07105 0.94229 0.55961 0.0
C28 C 0.77259 0.00502 0.55526 0.0
C29 C 0.7935 0.0214 0.56762 0.0
C30 C 0.8637 0.04129 0.5591 0.0
C31 C 0.88783 0.07536 0.55465 0.0
C32 C 0.927 0.06916 0.54857 0.0
C33 C 0.94257 0.02774 0.54706 0.0
C34 C 0.91896 0.99311 0.55192 0.0
C35 C 0.87966 0.00019 0.55783 0.0
C36 C 0.95136 0.10676 0.54351 0.0
C37 C 0.93492 0.94849 0.55066 0.0
C38 C 0.98615 0.9613 0.48837 0.0
C39 C 0.02458 0.95178 0.48243 0.0
C40 C 0.06263 0.95767 0.4889 0.0
C41 C 0.06238 0.97304 0.50177 0.0
C42 C 0.09975 0.97729 0.50886 0.0
C43 C 0.09874 0.98994 0.52178 0.0
C44 C 0.06048 0.00048 0.52795 0.0
C45 C 0.05891 0.01264 0.54116 0.0
C46 C 0.02029 0.02286 0.54694 0.0
C47 C 0.98278 0.02033 0.54 0.0
C48 C 0.98363 0.00801 0.52684 0.0
C49 C 0.94636 0.0048 0.51962 0.0
C50 C 0.94716 0.99004 0.50696 0.0
C51 C 0.98533 0.97862 0.50095 0.0
C52 C 0.0235 0.98364 0.50779 0.0
C53 C 0.02261 0.99789 0.52082 0.0
C54 C 0.2665 0.96331 0.56479 0.0
C55 C 0.24699 0.00715 0.5665 0.0
O56 O 0.83707 0.90973 0.46331 0.0
O57 O 0.82532 0.04969 0.56443 0.0
O58 O 0.2065 0.00214 0.57137 0.0
O59 O 0.19982 0.90221 0.45844 0.0
H60 H 0.81533 0.85799 0.47336 0.0
H61 H 0.87764 0.83597 0.45951 0.0
H62 H 0.84955 0.8513 0.44508 0.0
H63 H 0.83106 0.80781 0.45508 0.0
H64 H 0.87927 0.86482 0.48143 0.0
H65 H 0.87437 0.98086 0.45965 0.0
H66 H 0.98334 0.873 0.49187 0.0
H67 H 0.93363 0.84796 0.49557 0.0
H68 H 0.95014 0.89375 0.50442 0.0
H69 H 0.92525 0.03444 0.46211 0.0
H70 H 0.97715 0.01332 0.46509 0.0
H71 H 0.94784 0.03629 0.47816 0.0
H72 H 0.17448 0.9216 0.44108 0.0
H73 H 0.16411 0.84808 0.43301 0.0
H74 H 0.1379 0.85613 0.44834 0.0
H75 H 0.18684 0.8272 0.44782 0.0
H76 H 0.16543 0.97759 0.45683 0.0
H77 H 0.16762 0.86078 0.47792 0.0
H78 H 0.09716 0.03248 0.47904 0.0
H79 H 0.06972 0.01249 0.46524 0.0
H80 H 0.12167 0.03448 0.46313 0.0
H81 H 0.11746 0.84367 0.49411 0.0
H82 H 0.06753 0.87041 0.49258 0.0
H83 H 0.10532 0.8885 0.50408 0.0
H84 H 0.2467 0.02188 0.55664 0.0
H85 H 0.18804 0.06495 0.55493 0.0
H86 H 0.14465 0.94977 0.57248 0.0
H87 H 0.12576 0.07309 0.52965 0.0
H88 H 0.14317 0.10789 0.54222 0.0
H89 H 0.08815 0.09423 0.54093 0.0
H90 H 0.0833 0.91526 0.56539 0.0
H91 H 0.06164 0.9308 0.54989 0.0
H92 H 0.04239 0.95446 0.56454 0.0
H93 H 0.80674 0.99454 0.57328 0.0
H94 H 0.74663 0.98293 0.55782 0.0
H95 H 0.79571 0.9878 0.54916 0.0
H96 H 0.75962 0.03161 0.54942 0.0
H97 H 0.87539 0.10696 0.55574 0.0
H98 H 0.86168 0.97344 0.56133 0.0
H99 H 0.95745 0.10328 0.53293 0.0
H100 H 0.98237 0.10825 0.54839 0.0
H101 H 0.93439 0.13689 0.54514 0.0
H102 H 0.91533 0.92559 0.55626 0.0
H103 H 0.96791 0.94625 0.55409 0.0
H104 H 0.93471 0.93933 0.54027 0.0
H105 H 0.02481 0.93823 0.47278 0.0
H106 H 0.13009 0.96989 0.50459 0.0
H107 H 0.12841 0.99129 0.52686 0.0
H108 H 0.01927 0.03157 0.55711 0.0
H109 H 0.91602 0.01299 0.52376 0.0
H110 H 0.91742 0.98752 0.50194 0.0
H111 H 0.26846 0.94645 0.57428 0.0
H112 H 0.29831 0.96578 0.56028 0.0
H113 H 0.24654 0.94436 0.55823 0.0
C114 C 0.1706 0.00665 0.78446 0.0
C115 C 0.16993 0.98347 0.79763 0.0
C116 C 0.21805 0.92343 0.79477 0.0
C117 C 0.25678 0.90601 0.79834 0.0
C118 C 0.26948 0.86623 0.79387 0.0
C119 C 0.24266 0.84337 0.78559 0.0
C120 C 0.20354 0.86083 0.78186 0.0
C121 C 0.19171 0.90062 0.78642 0.0
C122 C 0.31147 0.84855 0.79797 0.0
C123 C 0.17398 0.8373 0.77307 0.0
C124 C 0.14389 0.53025 0.82222 0.0
C125 C 0.14862 0.5709 0.81502 0.0
C126 C 0.20198 0.62211 0.80832 0.0
C127 C 0.17593 0.6426 0.79922 0.0
C128 C 0.19103 0.67632 0.79163 0.0
C129 C 0.23303 0.69012 0.79315 0.0
C130 C 0.25926 0.66999 0.80237 0.0
C131 C 0.24335 0.63615 0.80983 0.0
C132 C 0.16206 0.69712 0.78192 0.0
C133 C 0.30418 0.68395 0.8042 0.0
C134 C 0.30958 0.57151 0.71731 0.0
C135 C 0.27092 0.59248 0.71892 0.0
C136 C 0.26948 0.63345 0.72392 0.0
C137 C 0.30732 0.65338 0.72769 0.0
C138 C 0.34625 0.6324 0.726 0.0
C139 C 0.34681 0.59186 0.72071 0.0
C140 C 0.22747 0.6554 0.72521 0.0
C141 C 0.38721 0.65266 0.72987 0.0
C142 C 0.319 0.88188 0.67088 0.0
C143 C 0.33186 0.91173 0.68181 0.0
C144 C 0.34485 0.86448 0.70055 0.0
C145 C 0.30256 0.85331 0.70289 0.0
C146 C 0.29184 0.82417 0.71273 0.0
C147 C 0.32393 0.80606 0.72044 0.0
C148 C 0.36631 0.81817 0.71838 0.0
C149 C 0.37617 0.84719 0.70844 0.0
C150 C 0.24631 0.81181 0.71466 0.0
C151 C 0.40128 0.79963 0.72647 0.0
C152 C 0.25463 0.80067 0.78107 0.0
C153 C 0.24424 0.76629 0.78908 0.0
C154 C 0.24949 0.72493 0.7848 0.0
C155 C 0.26597 0.71744 0.77223 0.0
C156 C 0.27116 0.67624 0.76757 0.0
C157 C 0.28508 0.66916 0.75493 0.0
C158 C 0.29416 0.703 0.74645 0.0
C159 C 0.30613 0.69615 0.73338 0.0
C160 C 0.31587 0.73039 0.72529 0.0
C161 C 0.31363 0.7717 0.72983 0.0
C162 C 0.30076 0.77934 0.74279 0.0
C163 C 0.29713 0.8205 0.74761 0.0
C164 C 0.28264 0.82761 0.76021 0.0
C165 C 0.27155 0.79379 0.7685 0.0
C166 C 0.2766 0.75201 0.76401 0.0
C167 C 0.29083 0.74478 0.7511 0.0
C168 C 0.26569 0.48444 0.72346 0.0
C169 C 0.28093 0.5029 0.71041 0.0
O170 O 0.20748 0.96201 0.79955 0.0
O171 O 0.35712 0.89095 0.69074 0.0
O172 O 0.31277 0.53186 0.71254 0.0
O173 O 0.18842 0.58874 0.81565 0.0
H174 H 0.14327 0.96076 0.79766 0.0
H175 H 0.17309 0.98389 0.77638 0.0
H176 H 0.19788 0.02844 0.78373 0.0
H177 H 0.14106 0.02497 0.78316 0.0
H178 H 0.27704 0.9237 0.80473 0.0
H179 H 0.1618 0.91337 0.78337 0.0
H180 H 0.30647 0.81923 0.80375 0.0
H181 H 0.3297 0.87114 0.80389 0.0
H182 H 0.33035 0.8401 0.78924 0.0
H183 H 0.14373 0.85423 0.7716 0.0
H184 H 0.1671 0.80566 0.77724 0.0
H185 H 0.18917 0.83267 0.76344 0.0
H186 H 0.12295 0.59423 0.81681 0.0
H187 H 0.12037 0.53689 0.83018 0.0
H188 H 0.17163 0.52777 0.82896 0.0
H189 H 0.13248 0.48656 0.80749 0.0
H190 H 0.14377 0.63235 0.79792 0.0
H191 H 0.26328 0.62029 0.81685 0.0
H192 H 0.17596 0.69519 0.77201 0.0
H193 H 0.15848 0.73098 0.78428 0.0
H194 H 0.13034 0.6824 0.78182 0.0
H195 H 0.32044 0.66541 0.81188 0.0
H196 H 0.30485 0.7178 0.80682 0.0
H197 H 0.32187 0.68059 0.79491 0.0
H198 H 0.25425 0.51839 0.70531 0.0
H199 H 0.2418 0.57732 0.71626 0.0
H200 H 0.37647 0.57549 0.71937 0.0
H201 H 0.21891 0.65797 0.73565 0.0
H202 H 0.20193 0.63816 0.72021 0.0
H203 H 0.22937 0.68786 0.72112 0.0
H204 H 0.41428 0.63061 0.72909 0.0
H205 H 0.385 0.66415 0.74001 0.0
H206 H 0.39348 0.68035 0.72347 0.0
H207 H 0.30284 0.9234 0.68672 0.0
H208 H 0.30029 0.8992 0.66347 0.0
H209 H 0.2993 0.85578 0.6748 0.0
H210 H 0.34713 0.86787 0.66611 0.0
H211 H 0.27773 0.86643 0.69697 0.0
H212 H 0.40866 0.85608 0.70664 0.0
H213 H 0.23653 0.81778 0.72486 0.0
H214 H 0.24259 0.77754 0.71291 0.0
H215 H 0.2249 0.82939 0.70805 0.0
H216 H 0.4321 0.81497 0.72443 0.0
H217 H 0.40421 0.76546 0.72443 0.0
H218 H 0.39369 0.80289 0.73697 0.0
H219 H 0.23019 0.7718 0.79855 0.0
H220 H 0.2641 0.64896 0.77359 0.0
H221 H 0.28816 0.63677 0.75185 0.0
H222 H 0.32492 0.72483 0.71526 0.0
H223 H 0.30487 0.84767 0.74161 0.0
H224 H 0.27991 0.85996 0.76336 0.0
H225 H 0.2397 0.46163 0.72196 0.0
H226 H 0.2536 0.50982 0.72983 0.0
H227 H 0.29198 0.46816 0.72852 0.0
C228 C 0.63945 0.94874 0.08674 0.0
C229 C 0.66909 0.93429 0.07584 0.0
C230 C 0.64824 0.96929 0.05603 0.0
C231 C 0.64639 0.93671 0.04697 0.0
C232 C 0.6169 0.93784 0.03688 0.0
C233 C 0.58844 0.9721 0.03596 0.0
C234 C 0.59192 0.00615 0.04469 0.0
C235 C 0.62233 0.00455 0.05454 0.0
C236 C 0.61485 0.90145 0.02757 0.0
C237 C 0.56194 0.04301 0.04411 0.0
C238 C 0.37735 0.76592 0.0623 0.0
C239 C 0.37176 0.81344 0.06034 0.0
C240 C 0.39353 0.85224 0.04109 0.0
C241 C 0.39682 0.89294 0.04613 0.0
C242 C 0.42356 0.92281 0.04026 0.0
C243 C 0.44824 0.91122 0.02933 0.0
C244 C 0.4441 0.8703 0.02407 0.0
C245 C 0.41586 0.84168 0.02986 0.0
C246 C 0.42629 0.96633 0.04597 0.0
C247 C 0.4707 0.85606 0.0127 0.0
C248 C 0.35753 0.00951 0.95273 0.0
C249 C 0.36066 0.04215 0.9618 0.0
C250 C 0.39764 0.04771 0.96901 0.0
C251 C 0.43211 0.02008 0.96709 0.0
C252 C 0.42958 0.98828 0.95758 0.0
C253 C 0.39241 0.98375 0.95042 0.0
C254 C 0.39975 0.08273 0.9788 0.0
C255 C 0.46582 0.95852 0.95518 0.0
C256 C 0.73686 0.14513 0.97627 0.0
C257 C 0.72725 0.12231 0.9636 0.0
C258 C 0.65154 0.11312 0.96298 0.0
C259 C 0.61823 0.13623 0.96827 0.0
C260 C 0.58176 0.11595 0.97293 0.0
C261 C 0.57839 0.07162 0.97195 0.0
C262 C 0.61109 0.04842 0.9659 0.0
C263 C 0.64744 0.06946 0.96152 0.0
C264 C 0.5474 0.14163 0.97924 0.0
C265 C 0.60798 0.0013 0.96431 0.0
C266 C 0.55144 0.96924 0.02724 0.0
C267 C 0.51772 0.94452 0.03159 0.0
C268 C 0.48121 0.94028 0.02424 0.0
C269 C 0.47768 0.96191 0.01223 0.0
C270 C 0.44078 0.95969 0.00481 0.0
C271 C 0.43816 0.97986 0.99277 0.0
C272 C 0.47224 0.00333 0.98774 0.0
C273 C 0.47013 0.0233 0.97539 0.0
C274 C 0.5049 0.04579 0.9706 0.0
C275 C 0.54184 0.04915 0.97785 0.0
C276 C 0.54424 0.03002 0.99031 0.0
C277 C 0.58067 0.03336 0.99796 0.0
C278 C 0.5831 0.01363 0.01008 0.0
C279 C 0.5492 0.98986 0.01502 0.0
C280 C 0.51206 0.98628 0.00751 0.0
C281 C 0.50945 0.00672 0.9952 0.0
C282 C 0.26635 0.95799 0.95351 0.0
C283 C 0.2811 0.0032 0.95091 0.0
O284 O 0.67332 0.96616 0.0666 0.0
O285 O 0.68734 0.13354 0.95939 0.0
O286 O 0.32179 0.00258 0.94589 0.0
O287 O 0.37007 0.82221 0.04714 0.0
H288 H 0.65423 0.90601 0.07146 0.0
H289 H 0.60757 0.95473 0.08276 0.0
H290 H 0.65093 0.97831 0.09119 0.0
H291 H 0.63677 0.92392 0.0944 0.0
H292 H 0.66733 0.90993 0.04802 0.0
H293 H 0.62439 0.02969 0.06156 0.0
H294 H 0.58689 0.88179 0.02997 0.0
H295 H 0.64335 0.8812 0.02812 0.0
H296 H 0.61128 0.91322 0.01744 0.0
H297 H 0.56895 0.06704 0.05156 0.0
H298 H 0.52914 0.03172 0.04559 0.0
H299 H 0.56366 0.05819 0.03436 0.0
H300 H 0.39986 0.82881 0.0647 0.0
H301 H 0.37931 0.75803 0.07283 0.0
H302 H 0.40694 0.75545 0.05749 0.0
H303 H 0.35059 0.7484 0.05802 0.0
H304 H 0.37871 0.90116 0.0547 0.0
H305 H 0.41274 0.81011 0.02606 0.0
H306 H 0.42676 0.99069 0.03814 0.0
H307 H 0.45601 0.96913 0.0515 0.0
H308 H 0.39956 0.97288 0.05268 0.0
H309 H 0.46818 0.82158 0.01109 0.0
H310 H 0.50432 0.86406 0.01426 0.0
H311 H 0.46033 0.87258 0.00373 0.0
H312 H 0.28004 0.01945 0.96043 0.0
H313 H 0.33448 0.06355 0.96318 0.0
H314 H 0.38995 0.9592 0.94321 0.0
H315 H 0.40204 0.06902 0.98873 0.0
H316 H 0.37167 0.10361 0.97841 0.0
H317 H 0.42843 0.10204 0.97705 0.0
H318 H 0.45855 0.93487 0.94763 0.0
H319 H 0.47389 0.94169 0.96435 0.0
H320 H 0.49403 0.9767 0.95204 0.0
H321 H 0.72885 0.08784 0.96565 0.0
H322 H 0.76881 0.13658 0.97976 0.0
H323 H 0.71359 0.13577 0.98388 0.0
H324 H 0.73513 0.17985 0.97484 0.0
H325 H 0.62157 0.17007 0.96916 0.0
H326 H 0.67266 0.05184 0.95696 0.0
H327 H 0.54215 0.13035 0.98937 0.0
H328 H 0.51746 0.13731 0.97391 0.0
H329 H 0.55506 0.17578 0.97941 0.0
H330 H 0.6338 0.98861 0.95814 0.0
H331 H 0.57731 0.99293 0.95991 0.0
H332 H 0.60943 0.98572 0.974 0.0
H333 H 0.52008 0.92796 0.04084 0.0
H334 H 0.41358 0.9421 0.0082 0.0
H335 H 0.40911 0.9766 0.98744 0.0
H336 H 0.50336 0.06045 0.96105 0.0
H337 H 0.60781 0.0512 0.99465 0.0
H338 H 0.61196 0.01701 0.01551 0.0
H339 H 0.2335 0.95789 0.95731 0.0
H340 H 0.28693 0.94287 0.96089 0.0
H341 H 0.26782 0.939 0.9445 0.0
C342 C 0.10375 0.04904 0.22029 0.0
C343 C 0.11901 0.05864 0.20637 0.0
C344 C 0.17702 0.10882 0.21007 0.0
C345 C 0.22073 0.11344 0.20965 0.0
C346 C 0.24013 0.15044 0.21391 0.0
C347 C 0.21504 0.18338 0.21897 0.0
C348 C 0.17066 0.17953 0.21908 0.0
C349 C 0.15202 0.14247 0.21449 0.0
C350 C 0.2875 0.15391 0.21324 0.0
C351 C 0.143 0.21421 0.22434 0.0
C352 C 0.24595 0.507 0.18645 0.0
C353 C 0.27453 0.4807 0.19458 0.0
C354 C 0.27272 0.40437 0.1975 0.0
C355 C 0.24066 0.40226 0.20696 0.0
C356 C 0.23499 0.36571 0.2146 0.0
C357 C 0.26236 0.3309 0.21286 0.0
C358 C 0.29378 0.33258 0.20304 0.0
C359 C 0.2981 0.36915 0.19536 0.0
C360 C 0.20014 0.36446 0.22464 0.0
C361 C 0.32344 0.29611 0.20085 0.0
C362 C 0.38651 0.40453 0.28559 0.0
C363 C 0.34444 0.39467 0.28821 0.0
C364 C 0.32686 0.35645 0.2842 0.0
C365 C 0.3521 0.32736 0.2773 0.0
C366 C 0.39491 0.33683 0.27472 0.0
C367 C 0.41166 0.37547 0.2788 0.0
C368 C 0.28102 0.34757 0.28705 0.0
C369 C 0.42258 0.3066 0.26731 0.0
C370 C 0.24623 0.01683 0.30037 0.0
C371 C 0.29326 0.02698 0.30084 0.0
C372 C 0.3024 0.103 0.29812 0.0
C373 C 0.27788 0.13811 0.30123 0.0
C374 C 0.28 0.17528 0.29371 0.0
C375 C 0.3085 0.17779 0.28307 0.0
C376 C 0.33499 0.14295 0.28031 0.0
C377 C 0.33136 0.10578 0.2878 0.0
C378 C 0.25139 0.21163 0.29706 0.0
C379 C 0.36705 0.14488 0.26942 0.0
C380 C 0.23542 0.22097 0.22465 0.0
C381 C 0.23854 0.25758 0.21703 0.0
C382 C 0.25919 0.29336 0.22159 0.0
C383 C 0.27754 0.29258 0.23409 0.0
C384 C 0.29921 0.32766 0.23891 0.0
C385 C 0.31697 0.32671 0.25121 0.0
C386 C 0.31438 0.29039 0.25914 0.0
C387 C 0.33243 0.28923 0.27167 0.0
C388 C 0.33039 0.2522 0.27917 0.0
C389 C 0.3097 0.21628 0.27462 0.0
C390 C 0.2902 0.2175 0.26227 0.0
C391 C 0.26758 0.18281 0.25757 0.0
C392 C 0.2493 0.18399 0.24532 0.0
C393 C 0.25285 0.21992 0.23727 0.0
C394 C 0.27439 0.2557 0.24194 0.0
C395 C 0.29307 0.2545 0.25446 0.0
C396 C 0.46566 0.4295 0.30108 0.0
C397 C 0.44264 0.45563 0.29064 0.0
O398 O 0.16079 0.07124 0.20632 0.0
O399 O 0.29856 0.06751 0.30555 0.0
O400 O 0.40114 0.44233 0.28975 0.0
O401 O 0.28004 0.43971 0.1903 0.0
H402 H 0.09917 0.08403 0.20207 0.0
H403 H 0.1045 0.07773 0.22634 0.0
H404 H 0.124 0.02479 0.22497 0.0
H405 H 0.07075 0.0374 0.22017 0.0
H406 H 0.23974 0.08756 0.20608 0.0
H407 H 0.11808 0.13992 0.21459 0.0
H408 H 0.2969 0.1848 0.20896 0.0
H409 H 0.30188 0.12835 0.20738 0.0
H410 H 0.30051 0.15209 0.22321 0.0
H411 H 0.1091 0.20558 0.22434 0.0
H412 H 0.14734 0.2432 0.21836 0.0
H413 H 0.15239 0.22173 0.23443 0.0
H414 H 0.27088 0.48332 0.20534 0.0
H415 H 0.21896 0.51515 0.19311 0.0
H416 H 0.22725 0.48446 0.18037 0.0
H417 H 0.28614 0.55272 0.17833 0.0
H418 H 0.21996 0.42902 0.20834 0.0
H419 H 0.32235 0.37093 0.1879 0.0
H420 H 0.21399 0.36461 0.23452 0.0
H421 H 0.18166 0.33494 0.22373 0.0
H422 H 0.17848 0.39181 0.22373 0.0
H423 H 0.34779 0.30336 0.19335 0.0
H424 H 0.3053 0.26816 0.19771 0.0
H425 H 0.33938 0.28758 0.21008 0.0
H426 H 0.45871 0.45205 0.28107 0.0
H427 H 0.32525 0.41728 0.29342 0.0
H428 H 0.44414 0.38286 0.27652 0.0
H429 H 0.26359 0.34492 0.27778 0.0
H430 H 0.26611 0.37263 0.29299 0.0
H431 H 0.27786 0.317 0.2923 0.0
H432 H 0.456 0.31691 0.26699 0.0
H433 H 0.41101 0.30393 0.2572 0.0
H434 H 0.42086 0.27474 0.27185 0.0
H435 H 0.306 0.02466 0.29076 0.0
H436 H 0.24124 0.98463 0.29652 0.0
H437 H 0.23005 0.03968 0.29385 0.0
H438 H 0.23185 0.01885 0.31022 0.0
H439 H 0.25619 0.13589 0.30939 0.0
H440 H 0.35164 0.07919 0.28572 0.0
H441 H 0.23449 0.2228 0.28826 0.0
H442 H 0.27058 0.23826 0.30065 0.0
H443 H 0.22786 0.20303 0.30467 0.0
H444 H 0.38968 0.1182 0.26988 0.0
H445 H 0.38488 0.17495 0.26973 0.0
H446 H 0.35064 0.14375 0.25995 0.0
H447 H 0.22516 0.25807 0.20735 0.0
H448 H 0.30265 0.35637 0.23323 0.0
H449 H 0.33303 0.35483 0.25438 0.0
H450 H 0.34467 0.25149 0.28871 0.0
H451 H 0.26377 0.15427 0.2633 0.0
H452 H 0.2324 0.15625 0.24224 0.0
H453 H 0.45014 0.43346 0.31071 0.0
H454 H 0.49908 0.43945 0.3018 0.0
H455 H 0.46557 0.39552 0.29869 0.0
C456 C 0.652 0.49884 0.28718 0.0
C457 C 0.6585 0.47959 0.30076 0.0
C458 C 0.70213 0.41727 0.29594 0.0
C459 C 0.74316 0.40134 0.29606 0.0
C460 C 0.753 0.36252 0.29033 0.0
C461 C 0.7208 0.33887 0.28439 0.0
C462 C 0.67888 0.35393 0.28465 0.0
C463 C 0.66995 0.39298 0.29036 0.0
C464 C 0.79801 0.34728 0.2903 0.0
C465 C 0.6437 0.32924 0.27853 0.0
C466 C 0.68775 0.9984 0.30145 0.0
C467 C 0.70691 0.02646 0.29136 0.0
C468 C 0.7335 0.09865 0.29312 0.0
C469 C 0.69715 0.11949 0.28872 0.0
C470 C 0.69911 0.16137 0.28422 0.0
C471 C 0.738 0.18312 0.28438 0.0
C472 C 0.77375 0.16344 0.28989 0.0
C473 C 0.771 0.12136 0.29419 0.0
C474 C 0.66001 0.18183 0.2788 0.0
C475 C 0.81536 0.18613 0.29058 0.0
C476 C 0.82725 0.11323 0.20688 0.0
C477 C 0.78413 0.12341 0.20738 0.0
C478 C 0.77048 0.16234 0.21225 0.0
C479 C 0.80045 0.19157 0.2168 0.0
C480 C 0.8439 0.18224 0.21575 0.0
C481 C 0.8567 0.14327 0.2107 0.0
C482 C 0.72391 0.17159 0.213 0.0
C483 C 0.87672 0.21278 0.22044 0.0
C484 C 0.69083 0.51421 0.2037 0.0
C485 C 0.73427 0.49498 0.20119 0.0
C486 C 0.74093 0.41854 0.20175 0.0
C487 C 0.71305 0.38461 0.20151 0.0
C488 C 0.72204 0.34693 0.20818 0.0
C489 C 0.7606 0.34278 0.21491 0.0
C490 C 0.79021 0.37614 0.21445 0.0
C491 C 0.77987 0.41391 0.20797 0.0
C492 C 0.68982 0.31199 0.20832 0.0
C493 C 0.83229 0.37221 0.22106 0.0
C494 C 0.73155 0.30008 0.27708 0.0
C495 C 0.73172 0.26134 0.28372 0.0
C496 C 0.74222 0.22402 0.27731 0.0
C497 C 0.75419 0.22543 0.26403 0.0
C498 C 0.76677 0.18882 0.25743 0.0
C499 C 0.77815 0.19038 0.24437 0.0
C500 C 0.77613 0.22834 0.23723 0.0
C501 C 0.78628 0.22986 0.22382 0.0
C502 C 0.78218 0.26777 0.21688 0.0
C503 C 0.76851 0.30457 0.22303 0.0
C504 C 0.75984 0.30392 0.23656 0.0
C505 C 0.74723 0.34051 0.24316 0.0
C506 C 0.73881 0.33953 0.25645 0.0
C507 C 0.74118 0.30162 0.26362 0.0
C508 C 0.75308 0.26425 0.25712 0.0
C509 C 0.76327 0.26556 0.24364 0.0
C510 C 0.80494 0.02172 0.21544 0.0
C511 C 0.81879 0.03788 0.20196 0.0
O512 O 0.69539 0.45616 0.30109 0.0
O513 O 0.72942 0.45526 0.1959 0.0
O514 O 0.8418 0.07485 0.20304 0.0
O515 O 0.73382 0.05689 0.29625 0.0
H516 H 0.63129 0.45884 0.30318 0.0
H517 H 0.64864 0.47372 0.27983 0.0
H518 H 0.67922 0.51897 0.28433 0.0
H519 H 0.62285 0.51825 0.28704 0.0
H520 H 0.76778 0.41997 0.30044 0.0
H521 H 0.63786 0.40433 0.29024 0.0
H522 H 0.79968 0.31525 0.29471 0.0
H523 H 0.81918 0.36858 0.29573 0.0
H524 H 0.80965 0.34499 0.28013 0.0
H525 H 0.61234 0.34369 0.28031 0.0
H526 H 0.64346 0.29649 0.28243 0.0
H527 H 0.64909 0.32746 0.26788 0.0
H528 H 0.68569 0.03795 0.28351 0.0
H529 H 0.65299 0.00503 0.3009 0.0
H530 H 0.69218 0.0146 0.31103 0.0
H531 H 0.71358 0.93922 0.2974 0.0
H532 H 0.66728 0.10312 0.2886 0.0
H533 H 0.79866 0.10544 0.29793 0.0
H534 H 0.66496 0.18938 0.26834 0.0
H535 H 0.65377 0.21193 0.28388 0.0
H536 H 0.63181 0.16132 0.27981 0.0
H537 H 0.83855 0.16872 0.29662 0.0
H538 H 0.8108 0.21813 0.29463 0.0
H539 H 0.8286 0.18995 0.28062 0.0
H540 H 0.79048 0.04391 0.19592 0.0
H541 H 0.76081 0.10102 0.20422 0.0
H542 H 0.88989 0.13544 0.21015 0.0
H543 H 0.71364 0.17173 0.22334 0.0
H544 H 0.7049 0.1479 0.20776 0.0
H545 H 0.71728 0.20331 0.20885 0.0
H546 H 0.90929 0.20149 0.21854 0.0
H547 H 0.87266 0.21763 0.23105 0.0
H548 H 0.87245 0.24383 0.21555 0.0
H549 H 0.74995 0.49278 0.21083 0.0
H550 H 0.69403 0.54619 0.20789 0.0
H551 H 0.67305 0.49415 0.21074 0.0
H552 H 0.6725 0.51646 0.19456 0.0
H553 H 0.6834 0.38836 0.19648 0.0
H554 H 0.80214 0.43976 0.20773 0.0
H555 H 0.68181 0.303 0.2185 0.0
H556 H 0.70325 0.28376 0.20353 0.0
H557 H 0.66042 0.3211 0.20323 0.0
H558 H 0.85393 0.39837 0.21832 0.0
H559 H 0.84741 0.34176 0.21854 0.0
H560 H 0.82759 0.3725 0.23176 0.0
H561 H 0.72305 0.26015 0.29394 0.0
H562 H 0.76829 0.15849 0.2623 0.0
H563 H 0.78794 0.16118 0.23991 0.0
H564 H 0.78893 0.26845 0.20653 0.0
H565 H 0.74403 0.37048 0.23816 0.0
H566 H 0.72974 0.36884 0.26099 0.0
H567 H 0.78752 0.99153 0.21456 0.0
H568 H 0.7837 0.04471 0.22022 0.0
H569 H 0.83275 0.0166 0.22176 0.0
C570 C 0.55152 0.65045 0.69033 0.0
C571 C 0.59579 0.63139 0.6905 0.0
C572 C 0.63957 0.65359 0.70845 0.0
C573 C 0.67912 0.6581 0.70248 0.0
C574 C 0.70966 0.68474 0.70779 0.0
C575 C 0.7 0.70777 0.71916 0.0
C576 C 0.66021 0.70245 0.72532 0.0
C577 C 0.63092 0.67451 0.72002 0.0
C578 C 0.7519 0.68892 0.7011 0.0
C579 C 0.64786 0.72719 0.73722 0.0
C580 C 0.69495 0.03399 0.68862 0.0
C581 C 0.69386 0.99464 0.69657 0.0
C582 C 0.73371 0.93098 0.70138 0.0
C583 C 0.70808 0.91922 0.71203 0.0
C584 C 0.71462 0.88115 0.7187 0.0
C585 C 0.74761 0.85415 0.71472 0.0
C586 C 0.77389 0.86596 0.70415 0.0
C587 C 0.76663 0.90438 0.69761 0.0
C588 C 0.68587 0.86953 0.72994 0.0
C589 C 0.80939 0.83782 0.69973 0.0
C590 C 0.89026 0.91332 0.78533 0.0
C591 C 0.84921 0.9011 0.78882 0.0
C592 C 0.83178 0.86383 0.78404 0.0
C593 C 0.85635 0.83768 0.77589 0.0
C594 C 0.89869 0.84848 0.77309 0.0
C595 C 0.91516 0.88626 0.77789 0.0
C596 C 0.78695 0.85266 0.78761 0.0
C597 C 0.92603 0.82072 0.76472 0.0
C598 C 0.75014 0.52529 0.80374 0.0
C599 C 0.79236 0.54842 0.80403 0.0
C600 C 0.79286 0.62325 0.79839 0.0
C601 C 0.7641 0.65645 0.79804 0.0
C602 C 0.76973 0.69058 0.78945 0.0
C603 C 0.80568 0.69182 0.78124 0.0
C604 C 0.83562 0.65885 0.78181 0.0
C605 C 0.82895 0.62484 0.79042 0.0
C606 C 0.73714 0.7252 0.78913 0.0
C607 C 0.87454 0.65963 0.77332 0.0
C608 C 0.72954 0.74051 0.72384 0.0
C609 C 0.73067 0.77868 0.71695 0.0
C610 C 0.75343 0.81308 0.72149 0.0
C611 C 0.77642 0.80939 0.73315 0.0
C612 C 0.79908 0.84366 0.73808 0.0
C613 C 0.81946 0.8406 0.74996 0.0
C614 C 0.81806 0.8031 0.75736 0.0
C615 C 0.83683 0.80043 0.76977 0.0
C616 C 0.83378 0.76315 0.77704 0.0
C617 C 0.81215 0.72824 0.7723 0.0
C618 C 0.79385 0.72998 0.75981 0.0
C619 C 0.7723 0.69526 0.75467 0.0
C620 C 0.75228 0.69817 0.74269 0.0
C621 C 0.75253 0.73608 0.73551 0.0
C622 C 0.77561 0.77088 0.74025 0.0
C623 C 0.79637 0.76778 0.75239 0.0
C624 C 0.89622 0.01489 0.77718 0.0
C625 C 0.88503 0.98874 0.78934 0.0
O626 O 0.60925 0.62905 0.70327 0.0
O627 O 0.78513 0.59056 0.80665 0.0
O628 O 0.90672 0.95083 0.78899 0.0
O629 O 0.72733 0.96735 0.69452 0.0
H630 H 0.61667 0.65249 0.6846 0.0
H631 H 0.55202 0.6821 0.69486 0.0
H632 H 0.52915 0.6301 0.69589 0.0
H633 H 0.54016 0.65413 0.6802 0.0
H634 H 0.68603 0.64076 0.6937 0.0
H635 H 0.60033 0.67025 0.72458 0.0
H636 H 0.75365 0.7199 0.69602 0.0
H637 H 0.75715 0.66376 0.69383 0.0
H638 H 0.77766 0.68773 0.70834 0.0
H639 H 0.61362 0.72481 0.7394 0.0
H640 H 0.65613 0.76098 0.73596 0.0
H641 H 0.66527 0.7149 0.74576 0.0
H642 H 0.66281 0.97811 0.69663 0.0
H643 H 0.66679 0.03192 0.68207 0.0
H644 H 0.7187 0.02864 0.6806 0.0
H645 H 0.70154 0.08139 0.70251 0.0
H646 H 0.68268 0.93948 0.71521 0.0
H647 H 0.7864 0.91363 0.68944 0.0
H648 H 0.70467 0.86464 0.73888 0.0
H649 H 0.66955 0.83945 0.72786 0.0
H650 H 0.66176 0.89411 0.73187 0.0
H651 H 0.82782 0.852 0.69158 0.0
H652 H 0.79645 0.80712 0.69656 0.0
H653 H 0.83089 0.83136 0.70798 0.0
H654 H 0.8504 0.98401 0.7888 0.0
H655 H 0.83059 0.92057 0.79525 0.0
H656 H 0.94717 0.89551 0.77551 0.0
H657 H 0.76859 0.84567 0.77875 0.0
H658 H 0.77084 0.87828 0.793 0.0
H659 H 0.78694 0.82388 0.79382 0.0
H660 H 0.95931 0.83148 0.76443 0.0
H661 H 0.9137 0.82076 0.75465 0.0
H662 H 0.92496 0.78773 0.7684 0.0
H663 H 0.80686 0.54454 0.79422 0.0
H664 H 0.75508 0.49134 0.80165 0.0
H665 H 0.73006 0.53899 0.79598 0.0
H666 H 0.73325 0.52829 0.81319 0.0
H667 H 0.73665 0.65508 0.80436 0.0
H668 H 0.85214 0.59988 0.79104 0.0
H669 H 0.72406 0.72825 0.77918 0.0
H670 H 0.75209 0.75569 0.79153 0.0
H671 H 0.7108 0.71933 0.79607 0.0
H672 H 0.89448 0.6312 0.77475 0.0
H673 H 0.8935 0.68805 0.77551 0.0
H674 H 0.86533 0.66177 0.76295 0.0
H675 H 0.71185 0.78236 0.70825 0.0
H676 H 0.80087 0.87342 0.73287 0.0
H677 H 0.83589 0.86825 0.75333 0.0
H678 H 0.84706 0.76183 0.78672 0.0
H679 H 0.77034 0.66558 0.75992 0.0
H680 H 0.7359 0.67059 0.73923 0.0
H681 H 0.88272 0.04712 0.77787 0.0
H682 H 0.88286 0.99958 0.76847 0.0
H683 H 0.93086 0.0169 0.77575 0.0
C684 C 0.66323 0.62546 0.07172 0.0
C685 C 0.68782 0.58395 0.0734 0.0
C686 C 0.65796 0.55055 0.05465 0.0
C687 C 0.6344 0.5156 0.0587 0.0
C688 C 0.59834 0.5035 0.05186 0.0
C689 C 0.58519 0.52779 0.04098 0.0
C690 C 0.60928 0.56323 0.03691 0.0
C691 C 0.64607 0.57343 0.04363 0.0
C692 C 0.57396 0.46525 0.0564 0.0
C693 C 0.59571 0.59119 0.02574 0.0
C694 C 0.26482 0.61347 0.071 0.0
C695 C 0.30354 0.61113 0.06282 0.0
C696 C 0.3594 0.56241 0.05657 0.0
C697 C 0.37795 0.58996 0.04737 0.0
C698 C 0.41349 0.57776 0.04015 0.0
C699 C 0.43036 0.53687 0.04195 0.0
C700 C 0.41151 0.50888 0.05106 0.0
C701 C 0.37637 0.52215 0.0583 0.0
C702 C 0.43323 0.60871 0.03068 0.0
C703 C 0.42869 0.46504 0.05319 0.0
C704 C 0.34796 0.47918 0.96109 0.0
C705 C 0.37537 0.51387 0.9617 0.0
C706 C 0.41367 0.51085 0.96838 0.0
C707 C 0.42485 0.47241 0.97454 0.0
C708 C 0.39781 0.43721 0.9737 0.0
C709 C 0.35967 0.44113 0.96699 0.0
C710 C 0.44192 0.54899 0.96906 0.0
C711 C 0.40887 0.39576 0.98012 0.0
C712 C 0.74209 0.40537 0.97765 0.0
C713 C 0.72508 0.38468 0.96535 0.0
C714 C 0.65595 0.41922 0.96466 0.0
C715 C 0.63773 0.45798 0.96145 0.0
C716 C 0.59932 0.4706 0.96704 0.0
C717 C 0.57808 0.44304 0.97577 0.0
C718 C 0.59505 0.40263 0.97842 0.0
C719 C 0.63405 0.39133 0.97298 0.0
C720 C 0.5821 0.51382 0.96392 0.0
C721 C 0.57245 0.37169 0.98726 0.0
C722 C 0.54504 0.51788 0.03435 0.0
C723 C 0.5075 0.52859 0.04068 0.0
C724 C 0.4686 0.52394 0.03462 0.0
C725 C 0.46689 0.50904 0.02172 0.0
C726 C 0.42847 0.5057 0.01511 0.0
C727 C 0.42738 0.49292 0.00222 0.0
C728 C 0.46458 0.48191 0.99555 0.0
C729 C 0.46394 0.46985 0.98235 0.0
C730 C 0.50118 0.45712 0.97619 0.0
C731 C 0.53959 0.45733 0.98277 0.0
C732 C 0.54114 0.47134 0.99578 0.0
C733 C 0.57948 0.47393 0.0025 0.0
C734 C 0.58077 0.48842 0.0152 0.0
C735 C 0.54383 0.50117 0.02167 0.0
C736 C 0.50469 0.49762 0.01523 0.0
C737 C 0.50343 0.48336 0.0022 0.0
C738 C 0.27201 0.54532 0.9585 0.0
C739 C 0.29143 0.51469 0.94869 0.0
O740 O 0.69146 0.5636 0.06158 0.0
O741 O 0.69471 0.41023 0.95966 0.0
O742 O 0.3099 0.48083 0.95511 0.0
O743 O 0.32544 0.57349 0.06393 0.0
H744 H 0.67055 0.56319 0.08041 0.0
H745 H 0.63065 0.61904 0.06844 0.0
H746 H 0.67909 0.64618 0.06442 0.0
H747 H 0.66071 0.64253 0.08107 0.0
H748 H 0.64421 0.49801 0.06723 0.0
H749 H 0.66474 0.60049 0.04067 0.0
H750 H 0.54462 0.47559 0.06136 0.0
H751 H 0.59231 0.44559 0.06333 0.0
H752 H 0.56487 0.4456 0.048 0.0
H753 H 0.61297 0.62164 0.02555 0.0
H754 H 0.56142 0.59786 0.02631 0.0
H755 H 0.60204 0.57498 0.01642 0.0
H756 H 0.32434 0.63938 0.06341 0.0
H757 H 0.27113 0.63933 0.07814 0.0
H758 H 0.26719 0.58728 0.07843 0.0
H759 H 0.21626 0.61702 0.05734 0.0
H760 H 0.36516 0.62119 0.04581 0.0
H761 H 0.36188 0.50106 0.06537 0.0
H762 H 0.43034 0.59664 0.02064 0.0
H763 H 0.46733 0.61214 0.03274 0.0
H764 H 0.4182 0.6403 0.03111 0.0
H765 H 0.40858 0.44599 0.05989 0.0
H766 H 0.46078 0.46705 0.05734 0.0
H767 H 0.4314 0.44851 0.04375 0.0
H768 H 0.31549 0.53154 0.9427 0.0
H769 H 0.36704 0.54353 0.95714 0.0
H770 H 0.33845 0.41448 0.96644 0.0
H771 H 0.44485 0.55895 0.97933 0.0
H772 H 0.42977 0.57599 0.96325 0.0
H773 H 0.47397 0.54089 0.96549 0.0
H774 H 0.38488 0.37106 0.97834 0.0
H775 H 0.4118 0.40019 0.99077 0.0
H776 H 0.43984 0.38461 0.97644 0.0
H777 H 0.71117 0.35359 0.96796 0.0
H778 H 0.76684 0.38532 0.98214 0.0
H779 H 0.71641 0.40939 0.98492 0.0
H780 H 0.75563 0.43684 0.9753 0.0
H781 H 0.65457 0.47908 0.9549 0.0
H782 H 0.64699 0.36068 0.97528 0.0
H783 H 0.57614 0.53138 0.97304 0.0
H784 H 0.55156 0.51068 0.95884 0.0
H785 H 0.60386 0.53255 0.95764 0.0
H786 H 0.58595 0.33946 0.9866 0.0
H787 H 0.53848 0.37032 0.98482 0.0
H788 H 0.57497 0.38228 0.99747 0.0
H789 H 0.50861 0.54162 0.05039 0.0
H790 H 0.39885 0.51364 0.01976 0.0
H791 H 0.39696 0.49165 0.99756 0.0
H792 H 0.50034 0.44735 0.96612 0.0
H793 H 0.60907 0.4652 0.99797 0.0
H794 H 0.61116 0.48978 0.01988 0.0
H795 H 0.25637 0.57184 0.95331 0.0
H796 H 0.29669 0.55867 0.96482 0.0
H797 H 0.24844 0.52899 0.96479 0.0
C798 C 0.81578 0.66603 0.46517 0.0
C799 C 0.83172 0.6429 0.45302 0.0
C800 C 0.88174 0.59126 0.46214 0.0
C801 C 0.88912 0.54845 0.46451 0.0
C802 C 0.92572 0.53465 0.47087 0.0
C803 C 0.95525 0.56464 0.47524 0.0
C804 C 0.94837 0.60799 0.47272 0.0
C805 C 0.91207 0.62081 0.46606 0.0
C806 C 0.93265 0.48805 0.47299 0.0
C807 C 0.97923 0.64093 0.47718 0.0
C808 C 0.28809 0.49821 0.46392 0.0
C809 C 0.26445 0.54 0.4624 0.0
C810 C 0.18794 0.53529 0.46223 0.0
C811 C 0.17677 0.5707 0.46953 0.0
C812 C 0.13728 0.573 0.4757 0.0
C813 C 0.10891 0.53875 0.47474 0.0
C814 C 0.11965 0.5037 0.46698 0.0
C815 C 0.15891 0.50279 0.46064 0.0
C816 C 0.12619 0.61172 0.48342 0.0
C817 C 0.09011 0.4668 0.46563 0.0
C818 C 0.178 0.48397 0.55827 0.0
C819 C 0.16174 0.52482 0.55646 0.0
C820 C 0.12466 0.53143 0.54937 0.0
C821 C 0.10321 0.49655 0.54409 0.0
C822 C 0.11901 0.45537 0.54611 0.0
C823 C 0.15624 0.44967 0.55319 0.0
C824 C 0.1085 0.57578 0.54743 0.0
C825 C 0.09678 0.4175 0.54067 0.0
C826 C 0.763 0.53641 0.55444 0.0
C827 C 0.79392 0.50036 0.55705 0.0
C828 C 0.86945 0.51376 0.5567 0.0
C829 C 0.89652 0.54826 0.55749 0.0
C830 C 0.93578 0.54815 0.55115 0.0
C831 C 0.94842 0.51216 0.5441 0.0
C832 C 0.92215 0.47616 0.54392 0.0
C833 C 0.88286 0.47733 0.55023 0.0
C834 C 0.96329 0.58683 0.5517 0.0
C835 C 0.93532 0.43676 0.53686 0.0
C836 C 0.99319 0.55096 0.48257 0.0
C837 C 0.0317 0.54939 0.4759 0.0
C838 C 0.06893 0.53872 0.48232 0.0
C839 C 0.06793 0.52888 0.49576 0.0
C840 C 0.10477 0.51778 0.5025 0.0
C841 C 0.10374 0.50953 0.5158 0.0
C842 C 0.06568 0.5112 0.52284 0.0
C843 C 0.06437 0.50339 0.5364 0.0
C844 C 0.02578 0.50364 0.54302 0.0
C845 C 0.98833 0.5127 0.53651 0.0
C846 C 0.9892 0.52235 0.52306 0.0
C847 C 0.95237 0.53356 0.51634 0.0
C848 C 0.9536 0.54319 0.50312 0.0
C849 C 0.99161 0.54142 0.49604 0.0
C850 C 0.02915 0.53033 0.50264 0.0
C851 C 0.02799 0.52113 0.51618 0.0
C852 C 0.26843 0.5248 0.55807 0.0
C853 C 0.24342 0.50484 0.56937 0.0
O854 O 0.84504 0.60248 0.45621 0.0
O855 O 0.8306 0.5167 0.5622 0.0
O856 O 0.21445 0.47602 0.56473 0.0
O857 O 0.22626 0.53195 0.45646 0.0
H858 H 0.85852 0.66099 0.44874 0.0
H859 H 0.84149 0.67059 0.47224 0.0
H860 H 0.79034 0.64787 0.47013 0.0
H861 H 0.80348 0.69767 0.46243 0.0
H862 H 0.86593 0.52575 0.46137 0.0
H863 H 0.90766 0.65403 0.46411 0.0
H864 H 0.96492 0.4791 0.46983 0.0
H865 H 0.90949 0.46868 0.46765 0.0
H866 H 0.92976 0.48046 0.48351 0.0
H867 H 0.96741 0.67351 0.47558 0.0
H868 H 0.0094 0.63732 0.47179 0.0
H869 H 0.98595 0.6365 0.48769 0.0
H870 H 0.25954 0.55299 0.47232 0.0
H871 H 0.31821 0.50286 0.46914 0.0
H872 H 0.29488 0.48433 0.45425 0.0
H873 H 0.26859 0.47558 0.46966 0.0
H874 H 0.19882 0.59656 0.47032 0.0
H875 H 0.16773 0.47597 0.45477 0.0
H876 H 0.09386 0.62255 0.48104 0.0
H877 H 0.14858 0.638 0.48153 0.0
H878 H 0.12681 0.60389 0.49395 0.0
H879 H 0.10416 0.44095 0.45982 0.0
H880 H 0.06067 0.4774 0.46086 0.0
H881 H 0.08143 0.45421 0.4754 0.0
H882 H 0.22668 0.52985 0.57488 0.0
H883 H 0.17777 0.55173 0.56046 0.0
H884 H 0.16885 0.41826 0.55468 0.0
H885 H 0.10707 0.58328 0.53688 0.0
H886 H 0.12864 0.59958 0.55221 0.0
H887 H 0.07602 0.57833 0.55141 0.0
H888 H 0.11292 0.38748 0.5432 0.0
H889 H 0.09509 0.42045 0.52993 0.0
H890 H 0.06396 0.41623 0.54446 0.0
H891 H 0.80011 0.48565 0.54744 0.0
H892 H 0.7331 0.52394 0.55046 0.0
H893 H 0.77685 0.55869 0.5472 0.0
H894 H 0.75601 0.55404 0.56348 0.0
H895 H 0.88611 0.57591 0.56272 0.0
H896 H 0.86266 0.44986 0.55009 0.0
H897 H 0.97081 0.59806 0.54169 0.0
H898 H 0.99349 0.57871 0.55647 0.0
H899 H 0.94812 0.6129 0.55714 0.0
H900 H 0.91323 0.41017 0.53867 0.0
H901 H 0.96738 0.42704 0.53992 0.0
H902 H 0.93658 0.44332 0.52625 0.0
H903 H 0.0328 0.55713 0.46561 0.0
H904 H 0.13497 0.51568 0.4976 0.0
H905 H 0.13316 0.50163 0.52049 0.0
H906 H 0.02495 0.49715 0.55339 0.0
H907 H 0.92216 0.53534 0.52125 0.0
H908 H 0.92429 0.55195 0.49851 0.0
H909 H 0.28491 0.50011 0.55237 0.0
H910 H 0.29213 0.54726 0.56184 0.0
H911 H 0.24731 0.54247 0.55144 0.0
Fe912 Fe 0.0157 0.71206 0.16129 0.0
O913 O 0.01779 0.71642 0.14223 0.0
Fe914 Fe 0.96987 0.75027 0.13307 0.0
Fe915 Fe 0.06616 0.74146 0.13239 0.0
O916 O 0.01393 0.71687 0.14227 0.0
O917 O 0.01817 0.77567 0.12322 0.0
O918 O 0.02197 0.77479 0.1231 0.0
Fe919 Fe 0.01882 0.7809 0.10418 0.0
C920 C 0.07293 0.78806 0.15766 0.0
O921 O 0.06241 0.66811 0.15795 0.0
O922 O 0.10655 0.70312 0.14357 0.0
O923 O 0.96742 0.74218 0.10168 0.0
O924 O 0.96394 0.70304 0.11968 0.0
O925 O 0.9245 0.71762 0.1445 0.0
O926 O 0.96433 0.67458 0.15793 0.0
O927 O 0.06402 0.69335 0.11916 0.0
O928 O 0.05807 0.73061 0.10069 0.0
C929 C 0.92953 0.68485 0.15214 0.0
O930 O 0.97403 0.82657 0.10807 0.0
O931 O 0.92997 0.78979 0.12214 0.0
O932 O 0.06342 0.75503 0.16417 0.0
O933 O 0.07074 0.78976 0.14535 0.0
C934 C 0.09822 0.673 0.15192 0.0
C935 C 0.06836 0.69724 0.10689 0.0
C936 C 0.10878 0.80139 0.11194 0.0
O937 O 0.11105 0.77168 0.12072 0.0
O938 O 0.07402 0.81516 0.10675 0.0
C939 C 0.95389 0.71008 0.10793 0.0
O940 O 0.97396 0.79802 0.1463 0.0
O941 O 0.9728 0.76021 0.16456 0.0
C942 C 0.93784 0.82026 0.11383 0.0
C943 C 0.96791 0.79501 0.15848 0.0
Fe944 Fe 0.52005 0.76754 0.3927 0.0
O945 O 0.5027 0.73203 0.37782 0.0
Fe946 Fe 0.53901 0.86534 0.37892 0.0
Fe947 Fe 0.5111 0.67082 0.37773 0.0
O948 O 0.54641 0.80398 0.37901 0.0
O949 O 0.54659 0.80411 0.37772 0.0
O950 O 0.50255 0.73231 0.3765 0.0
Fe951 Fe 0.52904 0.76885 0.36266 0.0
C952 C 0.5805 0.69662 0.39663 0.0
O953 O 0.48865 0.72507 0.40525 0.0
O954 O 0.46484 0.67242 0.39181 0.0
O955 O 0.4734 0.80273 0.36025 0.0
O956 O 0.49701 0.8679 0.36401 0.0
O957 O 0.48918 0.86486 0.39223 0.0
O958 O 0.46461 0.79956 0.39128 0.0
O959 O 0.47414 0.67374 0.36141 0.0
O960 O 0.50732 0.72486 0.34882 0.0
C961 C 0.45977 0.83806 0.39408 0.0
O962 O 0.5604 0.8125 0.35045 0.0
O963 O 0.584 0.86465 0.36429 0.0
O964 O 0.57558 0.73581 0.39468 0.0
O965 O 0.55377 0.66953 0.39289 0.0
C966 C 0.46506 0.69263 0.40272 0.0
C967 C 0.48453 0.69073 0.35028 0.0
C968 C 0.58965 0.69662 0.36214 0.0
O969 O 0.56079 0.67043 0.36502 0.0
O970 O 0.58528 0.73617 0.3636 0.0
C971 C 0.47134 0.84272 0.3587 0.0
O972 O 0.57796 0.8601 0.39475 0.0
O973 O 0.54324 0.80892 0.40677 0.0
C974 C 0.58285 0.84581 0.3531 0.0
C975 C 0.57127 0.83853 0.40534 0.0
Fe976 Fe 0.52143 0.25773 0.66488 0.0
O977 O 0.5246 0.25311 0.64612 0.0
Fe978 Fe 0.46831 0.25597 0.63462 0.0
Fe979 Fe 0.57162 0.26786 0.63389 0.0
O980 O 0.5165 0.26778 0.64634 0.0
O981 O 0.51709 0.25592 0.6223 0.0
O982 O 0.52132 0.27175 0.62243 0.0
Fe983 Fe 0.51791 0.2661 0.60373 0.0
C984 C 0.56092 0.34045 0.65434 0.0
O985 O 0.58109 0.23178 0.66436 0.0
O986 O 0.61894 0.25378 0.64677 0.0
O987 O 0.467 0.22512 0.60361 0.0
O988 O 0.42552 0.23564 0.6213 0.0
O989 O 0.47423 0.19384 0.64183 0.0
O990 O 0.49388 0.19887 0.66321 0.0
O991 O 0.58017 0.2084 0.62532 0.0
O992 O 0.55974 0.21615 0.60406 0.0
C993 C 0.47951 0.17812 0.6534 0.0
O994 O 0.4761 0.3156 0.60569 0.0
O995 O 0.45784 0.31743 0.62734 0.0
O996 O 0.54807 0.31713 0.66397 0.0
O997 O 0.56689 0.32793 0.64249 0.0
C998 C 0.61552 0.23525 0.65785 0.0
C999 C 0.57875 0.19619 0.61334 0.0
C1000 C 0.6044 0.30998 0.60935 0.0
O1001 O 0.61306 0.29114 0.62011 0.0
O1002 O 0.56884 0.30702 0.60354 0.0
C1003 C 0.43272 0.2196 0.61012 0.0
O1004 O 0.42253 0.26571 0.64846 0.0
O1005 O 0.46179 0.28367 0.66587 0.0
C1006 C 0.45773 0.33268 0.61559 0.0
C1007 C 0.42678 0.28148 0.65979 0.0
Fe1008 Fe 0.05226 0.266 0.90855 0.0
O1009 O 0.04583 0.2638 0.88961 0.0
Fe1010 Fe 0.01548 0.31505 0.88063 0.0
Fe1011 Fe 0.01598 0.21715 0.88059 0.0
O1012 O 0.04587 0.26813 0.88959 0.0
O1013 O 0.98608 0.26838 0.87152 0.0
O1014 O 0.9862 0.26423 0.8715 0.0
Fe1015 Fe 0.9783 0.26672 0.85271 0.0
C1016 C 0.08424 0.18091 0.89911 0.0
O1017 O 0.00608 0.22144 0.91247 0.0
O1018 O 0.96888 0.21649 0.89428 0.0
O1019 O 0.93812 0.31615 0.85673 0.0
O1020 O 0.97886 0.35815 0.86988 0.0
O1021 O 0.96852 0.31403 0.89448 0.0
O1022 O 0.00815 0.31249 0.91217 0.0
O1023 O 0.98014 0.17454 0.86965 0.0
O1024 O 0.93833 0.21714 0.85684 0.0
C1025 C 0.97309 0.31917 0.90661 0.0
O1026 O 0.02284 0.31227 0.84883 0.0
O1027 O 0.06195 0.31844 0.86664 0.0
O1028 O 0.09212 0.21636 0.9048 0.0
O1029 O 0.05229 0.17385 0.89152 0.0
C1030 C 0.97204 0.21299 0.90654 0.0
C1031 C 0.94897 0.18065 0.86165 0.0
C1032 C 0.05636 0.20891 0.8546 0.0
O1033 O 0.06264 0.21531 0.86663 0.0
O1034 O 0.02294 0.22122 0.84892 0.0
C1035 C 0.94738 0.35197 0.86204 0.0
O1036 O 0.05188 0.35778 0.89148 0.0
O1037 O 0.09314 0.31444 0.90436 0.0
C1038 C 0.05604 0.32447 0.85455 0.0
C1039 C 0.08472 0.35023 0.89871 0.0
C1040 C 0.27116 0.8763 0.44395 0.0
C1041 C 0.23511 0.89321 0.43805 0.0
C1042 C 0.30857 0.87066 0.43682 0.0
C1043 C 0.30967 0.88122 0.42342 0.0
C1044 C 0.27353 0.8986 0.41744 0.0
C1045 C 0.23671 0.90437 0.42484 0.0
C1046 C 0.3466 0.85232 0.44355 0.0
C1047 C 0.27326 0.90971 0.40314 0.0
C1048 C 0.41616 0.89059 0.40642 0.0
C1049 C 0.4204 0.85054 0.40088 0.0
C1050 C 0.38013 0.90123 0.4137 0.0
C1051 C 0.34759 0.87117 0.41545 0.0
C1052 C 0.35137 0.83099 0.40971 0.0
C1053 C 0.38759 0.82124 0.40248 0.0
C1054 C 0.37719 0.94432 0.41973 0.0
C1055 C 0.31721 0.79813 0.41122 0.0
H1056 H 0.26989 0.86675 0.45409 0.0
H1057 H 0.20865 0.91664 0.4202 0.0
H1058 H 0.35635 0.82271 0.43875 0.0
H1059 H 0.37344 0.87457 0.4427 0.0
H1060 H 0.34055 0.84555 0.45401 0.0
H1061 H 0.24357 0.92552 0.40018 0.0
H1062 H 0.30011 0.93073 0.40068 0.0
H1063 H 0.27711 0.88066 0.39734 0.0
H1064 H 0.44134 0.91339 0.40528 0.0
H1065 H 0.39034 0.79027 0.3982 0.0
H1066 H 0.37537 0.94115 0.43047 0.0
H1067 H 0.348 0.96045 0.41652 0.0
H1068 H 0.40461 0.96453 0.41715 0.0
H1069 H 0.30883 0.79356 0.42162 0.0
H1070 H 0.32669 0.7672 0.40715 0.0
H1071 H 0.28839 0.80905 0.40617 0.0
C1072 C 0.33893 0.98984 0.67713 0.0
C1073 C 0.35589 0.94915 0.67628 0.0
C1074 C 0.36127 0.02498 0.67242 0.0
C1075 C 0.40137 0.01927 0.66658 0.0
C1076 C 0.41826 0.9782 0.6654 0.0
C1077 C 0.39549 0.94365 0.67037 0.0
C1078 C 0.34235 0.06834 0.67397 0.0
C1079 C 0.46062 0.97085 0.65906 0.0
C1080 C 0.44025 0.11323 0.64677 0.0
C1081 C 0.46499 0.13431 0.65591 0.0
C1082 C 0.42092 0.07458 0.64986 0.0
C1083 C 0.42636 0.05669 0.66239 0.0
C1084 C 0.45321 0.07655 0.67138 0.0
C1085 C 0.47228 0.11499 0.66802 0.0
C1086 C 0.39296 0.05413 0.63993 0.0
C1087 C 0.45996 0.05846 0.68484 0.0
H1088 H 0.30834 0.99426 0.68166 0.0
H1089 H 0.40874 0.91225 0.66973 0.0
H1090 H 0.36306 0.08789 0.68012 0.0
H1091 H 0.34004 0.08431 0.66437 0.0
H1092 H 0.31048 0.0673 0.6785 0.0
H1093 H 0.46809 0.93678 0.65816 0.0
H1094 H 0.46143 0.98554 0.64923 0.0
H1095 H 0.48566 0.98599 0.66484 0.0
H1096 H 0.43442 0.1277 0.63736 0.0
H1097 H 0.49171 0.13065 0.67512 0.0
H1098 H 0.35951 0.05798 0.64288 0.0
H1099 H 0.39943 0.01983 0.63938 0.0
H1100 H 0.39718 0.06834 0.63009 0.0
H1101 H 0.43003 0.0599 0.69046 0.0
H1102 H 0.4845 0.07581 0.69027 0.0
H1103 H 0.46931 0.02484 0.68429 0.0
C1104 C 0.22602 0.05831 0.94579 0.0
C1105 C 0.25187 0.02542 0.94147 0.0
C1106 C 0.19829 0.07897 0.93731 0.0
C1107 C 0.19602 0.06622 0.92417 0.0
C1108 C 0.22157 0.03261 0.91977 0.0
C1109 C 0.24937 0.01272 0.92846 0.0
C1110 C 0.17187 0.11495 0.94237 0.0
C1111 C 0.21986 0.01802 0.90586 0.0
C1112 C 0.09818 0.10798 0.90734 0.0
C1113 C 0.11335 0.14628 0.90234 0.0
C1114 C 0.12544 0.07974 0.91374 0.0
C1115 C 0.16866 0.09014 0.91499 0.0
C1116 C 0.18454 0.12699 0.90886 0.0
C1117 C 0.15661 0.15474 0.90269 0.0
C1118 C 0.10731 0.04068 0.9201 0.0
C1119 C 0.2304 0.13908 0.90976 0.0
H1120 H 0.22765 0.06808 0.95584 0.0
H1121 H 0.26921 0.98718 0.9251 0.0
H1122 H 0.18013 0.14446 0.93707 0.0
H1123 H 0.13802 0.10869 0.94064 0.0
H1124 H 0.17643 0.12013 0.95293 0.0
H1125 H 0.24005 0.98998 0.90416 0.0
H1126 H 0.18699 0.01015 0.90324 0.0
H1127 H 0.23034 0.04379 0.89924 0.0
H1128 H 0.06464 0.10165 0.90716 0.0
H1129 H 0.16829 0.18438 0.89876 0.0
H1130 H 0.10521 0.04541 0.93076 0.0
H1131 H 0.12802 0.01308 0.91841 0.0
H1132 H 0.07529 0.03347 0.91646 0.0
H1133 H 0.2373 0.14931 0.91981 0.0
H1134 H 0.23872 0.16523 0.90296 0.0
H1135 H 0.25096 0.1117 0.90763 0.0
C1136 C 0.08243 0.01535 0.18925 0.0
C1137 C 0.11511 0.01933 0.19825 0.0
C1138 C 0.0773 0.97811 0.18218 0.0
C1139 C 0.10531 0.94399 0.18426 0.0
C1140 C 0.13855 0.94795 0.19323 0.0
C1141 C 0.14302 0.98554 0.20013 0.0
C1142 C 0.04158 0.97497 0.17263 0.0
C1143 C 0.16887 0.91217 0.19575 0.0
C1144 C 0.06671 0.83359 0.17714 0.0
C1145 C 0.08375 0.82674 0.16473 0.0
C1146 C 0.07316 0.87175 0.18355 0.0
C1147 C 0.09837 0.90335 0.17757 0.0
C1148 C 0.11654 0.89619 0.16518 0.0
C1149 C 0.10851 0.85814 0.15882 0.0
C1150 C 0.05309 0.87767 0.19677 0.0
C1151 C 0.14439 0.92873 0.15864 0.0
H1152 H 0.0606 0.04125 0.18785 0.0
H1153 H 0.16806 0.98839 0.20717 0.0
H1154 H 0.05443 0.97185 0.16264 0.0
H1155 H 0.02253 0.94635 0.17469 0.0
H1156 H 0.02063 0.003 0.17287 0.0
H1157 H 0.19496 0.92146 0.20226 0.0
H1158 H 0.15175 0.88533 0.20031 0.0
H1159 H 0.18251 0.90087 0.18645 0.0
H1160 H 0.04709 0.8096 0.18168 0.0
H1161 H 0.12172 0.85286 0.14922 0.0
H1162 H 0.04415 0.91093 0.1985 0.0
H1163 H 0.07596 0.86824 0.20436 0.0
H1164 H 0.02456 0.85771 0.198 0.0
H1165 H 0.12628 0.95809 0.15686 0.0
H1166 H 0.15739 0.9176 0.14922 0.0
H1167 H 0.17096 0.93685 0.1651 0.0
C1168 C 0.31022 0.02593 0.58091 0.0
C1169 C 0.27142 0.03677 0.57523 0.0
C1170 C 0.33371 0.05572 0.58776 0.0
C1171 C 0.31827 0.09733 0.58895 0.0
C1172 C 0.27848 0.10801 0.58383 0.0
C1173 C 0.25564 0.07764 0.57705 0.0
C1174 C 0.376 0.04314 0.59321 0.0
C1175 C 0.26086 0.15205 0.58497 0.0
C1176 C 0.37225 0.16967 0.61284 0.0
C1177 C 0.40093 0.19091 0.60467 0.0
C1178 C 0.34468 0.13936 0.60787 0.0
C1179 C 0.3456 0.13057 0.59441 0.0
C1180 C 0.37365 0.15278 0.58608 0.0
C1181 C 0.40109 0.18254 0.59132 0.0
C1182 C 0.31532 0.11608 0.61704 0.0
C1183 C 0.37538 0.14443 0.57165 0.0
H1184 H 0.32316 0.99464 0.57983 0.0
H1185 H 0.22568 0.08631 0.57286 0.0
H1186 H 0.40138 0.05985 0.58777 0.0
H1187 H 0.37833 0.05252 0.60353 0.0
H1188 H 0.38175 0.00869 0.59254 0.0
H1189 H 0.22776 0.15414 0.58161 0.0
H1190 H 0.26221 0.16276 0.59519 0.0
H1191 H 0.28028 0.17416 0.57905 0.0
H1192 H 0.37226 0.17571 0.6232 0.0
H1193 H 0.42302 0.19901 0.58495 0.0
H1194 H 0.32182 0.08175 0.6167 0.0
H1195 H 0.28222 0.12076 0.61398 0.0
H1196 H 0.31851 0.12667 0.62725 0.0
H1197 H 0.38476 0.11124 0.56995 0.0
H1198 H 0.39805 0.16541 0.56646 0.0
H1199 H 0.34377 0.14895 0.56734 0.0
C1200 C 0.12506 0.01243 0.81585 0.0
C1201 C 0.16251 0.01441 0.80856 0.0
C1202 C 0.11461 0.04399 0.82475 0.0
C1203 C 0.14195 0.07878 0.82627 0.0
C1204 C 0.18108 0.07963 0.81959 0.0
C1205 C 0.19107 0.04721 0.81087 0.0
C1206 C 0.07302 0.04138 0.8319 0.0
C1207 C 0.21115 0.11605 0.821 0.0
C1208 C 0.08182 0.17861 0.83373 0.0
C1209 C 0.08505 0.18073 0.8473 0.0
C1210 C 0.10222 0.14688 0.82672 0.0
C1211 C 0.12668 0.11645 0.83342 0.0
C1212 C 0.13245 0.12002 0.847 0.0
C1213 C 0.11155 0.15222 0.8538 0.0
C1214 C 0.09518 0.14432 0.81224 0.0
C1215 C 0.15835 0.08831 0.85449 0.0
H1216 H 0.10309 0.98691 0.81425 0.0
H1217 H 0.22036 0.0485 0.80541 0.0
H1218 H 0.07774 0.04559 0.84248 0.0
H1219 H 0.05213 0.06717 0.82853 0.0
H1220 H 0.0568 0.01085 0.83035 0.0
H1221 H 0.24254 0.10918 0.81668 0.0
H1222 H 0.19798 0.1443 0.81605 0.0
H1223 H 0.21518 0.124 0.8314 0.0
H1224 H 0.06174 0.20076 0.8286 0.0
H1225 H 0.11416 0.15352 0.86429 0.0
H1226 H 0.07569 0.11625 0.8101 0.0
H1227 H 0.12562 0.14064 0.80702 0.0
H1228 H 0.07886 0.17266 0.80833 0.0
H1229 H 0.14045 0.05842 0.85547 0.0
H1230 H 0.16596 0.09956 0.8644 0.0
H1231 H 0.18813 0.08115 0.84926 0.0
C1232 C 0.3346 0.84448 0.07976 0.0
C1233 C 0.33213 0.82808 0.06719 0.0
C1234 C 0.29814 0.85114 0.08724 0.0
C1235 C 0.25848 0.8399 0.08216 0.0
C1236 C 0.25551 0.82705 0.06903 0.0
C1237 C 0.29248 0.82108 0.06173 0.0
C1238 C 0.30239 0.86807 0.10082 0.0
C1239 C 0.21368 0.81852 0.06266 0.0
C1240 C 0.18314 0.78704 0.1058 0.0
C1241 C 0.14901 0.81512 0.10591 0.0
C1242 C 0.21923 0.7953 0.09834 0.0
C1243 C 0.2221 0.83351 0.09114 0.0
C1244 C 0.18899 0.86336 0.09189 0.0
C1245 C 0.15238 0.85343 0.09907 0.0
C1246 C 0.25366 0.76228 0.09805 0.0
C1247 C 0.19138 0.90508 0.08479 0.0
H1248 H 0.3652 0.85045 0.08397 0.0
H1249 H 0.29046 0.80906 0.05192 0.0
H1250 H 0.2755 0.88897 0.1033 0.0
H1251 H 0.30256 0.8415 0.1079 0.0
H1252 H 0.3322 0.88591 0.10195 0.0
H1253 H 0.2171 0.79631 0.05444 0.0
H1254 H 0.18996 0.80566 0.0696 0.0
H1255 H 0.20121 0.84858 0.05867 0.0
H1256 H 0.18083 0.75722 0.111 0.0
H1257 H 0.12618 0.87536 0.09916 0.0
H1258 H 0.27864 0.77109 0.10498 0.0
H1259 H 0.26839 0.75968 0.08828 0.0
H1260 H 0.24166 0.73068 0.10099 0.0
H1261 H 0.22409 0.91739 0.08449 0.0
H1262 H 0.17061 0.92893 0.08939 0.0
H1263 H 0.18075 0.90086 0.07464 0.0
C1264 C 0.33284 0.95842 0.30392 0.0
C1265 C 0.31571 0.99499 0.30942 0.0
C1266 C 0.35388 0.92833 0.3116 0.0
C1267 C 0.3579 0.93489 0.32513 0.0
C1268 C 0.33883 0.9707 0.33083 0.0
C1269 C 0.31765 1.0001 0.32293 0.0
C1270 C 0.37335 0.89042 0.30514 0.0
C1271 C 0.34244 0.97898 0.34521 0.0
C1272 C 0.40016 0.84916 0.348 0.0
C1273 C 0.44211 0.86204 0.34922 0.0
C1274 C 0.37221 0.87194 0.33995 0.0
C1275 C 0.38691 0.90791 0.33295 0.0
C1276 C 0.42975 0.91958 0.33376 0.0
C1277 C 0.45663 0.89661 0.34186 0.0
C1278 C 0.32675 0.85847 0.33927 0.0
C1279 C 0.4471 0.95729 0.3264 0.0
H1280 H 0.3303 0.9537 0.29354 0.0
H1281 H 0.3033 0.02759 0.32731 0.0
H1282 H 0.40816 0.89329 0.30525 0.0
H1283 H 0.36502 0.86118 0.31057 0.0
H1284 H 0.3631 0.88718 0.2949 0.0
H1285 H 0.32259 0.00594 0.34833 0.0
H1286 H 0.33312 0.9506 0.35091 0.0
H1287 H 0.3757 0.98604 0.34759 0.0
H1288 H 0.38888 0.8225 0.3537 0.0
H1289 H 0.48929 0.90624 0.34259 0.0
H1290 H 0.31659 0.85638 0.32901 0.0
H1291 H 0.30658 0.88244 0.34404 0.0
H1292 H 0.32127 0.82756 0.34416 0.0
H1293 H 0.44075 0.95424 0.31586 0.0
H1294 H 0.48158 0.96109 0.32771 0.0
H1295 H 0.43119 0.98641 0.32975 0.0
C1296 C 0.73771 0.02005 0.5853 0.0
C1297 C 0.76077 0.04316 0.57598 0.0
C1298 C 0.7059 0.03925 0.59274 0.0
C1299 C 0.69707 0.08255 0.5908 0.0
C1300 C 0.72008 0.10596 0.58135 0.0
C1301 C 0.7512 0.08586 0.57394 0.0
C1302 C 0.68136 0.01314 0.60251 0.0
C1303 C 0.71166 0.15228 0.57899 0.0
C1304 C 0.59381 0.13613 0.59858 0.0
C1305 C 0.60465 0.15964 0.60952 0.0
C1306 C 0.62254 0.10794 0.59298 0.0
C1307 C 0.66326 0.10379 0.59835 0.0
C1308 C 0.67319 0.12499 0.60998 0.0
C1309 C 0.64359 0.15256 0.61548 0.0
C1310 C 0.61042 0.08528 0.58073 0.0
C1311 C 0.7163 0.1215 0.61598 0.0
H1312 H 0.74437 0.9868 0.58666 0.0
H1313 H 0.76805 0.10363 0.56651 0.0
H1314 H 0.68375 0.02718 0.61231 0.0
H1315 H 0.64752 0.01306 0.5999 0.0
H1316 H 0.69265 0.98003 0.60301 0.0
H1317 H 0.73345 0.16626 0.57164 0.0
H1318 H 0.67889 0.15679 0.57559 0.0
H1319 H 0.71491 0.16991 0.58819 0.0
H1320 H 0.56355 0.1413 0.59401 0.0
H1321 H 0.65233 0.17109 0.62382 0.0
H1322 H 0.62078 0.05191 0.58112 0.0
H1323 H 0.62632 0.10042 0.57226 0.0
H1324 H 0.57589 0.0862 0.57908 0.0
H1325 H 0.71756 0.13642 0.6257 0.0
H1326 H 0.73978 0.13721 0.60953 0.0
H1327 H 0.72576 0.08798 0.61697 0.0
C1328 C 0.68123 0.95917 0.28269 0.0
C1329 C 0.72826 0.98943 0.28796 0.0
C1330 C 0.65281 0.93314 0.29568 0.0
C1331 C 0.67463 0.9302 0.31185 0.0
C1332 C 0.72643 0.95029 0.31552 0.0
C1333 C 0.75727 0.97701 0.30319 0.0
C1334 C 0.61045 0.91506 0.29303 0.0
C1335 C 0.74429 0.94406 0.32875 0.0
C1336 C 0.60626 0.91068 0.34152 0.0
C1337 C 0.6062 0.86657 0.34238 0.0
C1338 C 0.62774 0.93176 0.33146 0.0
C1339 C 0.65069 0.90821 0.32223 0.0
C1340 C 0.65092 0.86361 0.32305 0.0
C1341 C 0.62798 0.84318 0.33302 0.0
C1342 C 0.62511 0.97918 0.33061 0.0
C1343 C 0.67603 0.83754 0.31357 0.0
H1344 H 0.66682 0.96455 0.27332 0.0
H1345 H 0.78698 0.9918 0.30546 0.0
H1346 H 0.61426 0.88214 0.28969 0.0
H1347 H 0.59074 0.91495 0.30197 0.0
H1348 H 0.59488 0.9334 0.28519 0.0
H1349 H 0.77845 0.95133 0.32872 0.0
H1350 H 0.72787 0.96522 0.33565 0.0
H1351 H 0.73878 0.91113 0.33206 0.0
H1352 H 0.58869 0.92879 0.34862 0.0
H1353 H 0.62793 0.80905 0.3337 0.0
H1354 H 0.61256 0.98873 0.32098 0.0
H1355 H 0.65699 0.99299 0.33153 0.0
H1356 H 0.60452 0.99266 0.33829 0.0
H1357 H 0.66299 0.84157 0.30367 0.0
H1358 H 0.67562 0.80346 0.31614 0.0
H1359 H 0.7092 0.84859 0.31326 0.0
C1360 C 0.73734 0.9519 0.08732 0.0
C1361 C 0.71177 0.92209 0.0812 0.0
C1362 C 0.77549 0.93996 0.09315 0.0
C1363 C 0.78866 0.89737 0.09263 0.0
C1364 C 0.76353 0.86741 0.08616 0.0
C1365 C 0.72533 0.88009 0.0806 0.0
C1366 C 0.80129 0.97269 0.10005 0.0
C1367 C 0.77686 0.82183 0.08518 0.0
C1368 C 0.90276 0.86514 0.09698 0.0
C1369 C 0.90167 0.84598 0.10934 0.0
C1370 C 0.86661 0.88366 0.09163 0.0
C1371 C 0.82858 0.88362 0.09888 0.0
C1372 C 0.82795 0.86678 0.11168 0.0
C1373 C 0.86441 0.84784 0.11672 0.0
C1374 C 0.86853 0.90089 0.0779 0.0
C1375 C 0.7882 0.86687 0.11982 0.0
H1376 H 0.72706 0.98443 0.08774 0.0
H1377 H 0.70579 0.85694 0.07585 0.0
H1378 H 0.80458 0.96373 0.11044 0.0
H1379 H 0.83347 0.97417 0.09581 0.0
H1380 H 0.7869 0.00457 0.09945 0.0
H1381 H 0.75426 0.8027 0.07953 0.0
H1382 H 0.80829 0.81977 0.08044 0.0
H1383 H 0.77972 0.80772 0.09504 0.0
H1384 H 0.93129 0.86369 0.09115 0.0
H1385 H 0.86339 0.83346 0.12632 0.0
H1386 H 0.85454 0.93289 0.07742 0.0
H1387 H 0.8498 0.88041 0.07145 0.0
H1388 H 0.90129 0.90244 0.07406 0.0
H1389 H 0.77361 0.89865 0.11973 0.0
H1390 H 0.79416 0.85731 0.13006 0.0
H1391 H 0.76508 0.84469 0.11564 0.0
C1392 C 0.86924 0.00104 0.81304 0.0
C1393 C 0.89401 0.0108 0.80205 0.0
C1394 C 0.87505 0.02192 0.82486 0.0
C1395 C 0.90609 0.05368 0.82566 0.0
C1396 C 0.93274 0.0621 0.81483 0.0
C1397 C 0.92693 0.03998 0.80326 0.0
C1398 C 0.84682 0.01112 0.83627 0.0
C1399 C 0.96587 0.09626 0.81516 0.0
C1400 C 0.89591 0.14946 0.84681 0.0
C1401 C 0.9296 0.1435 0.85541 0.0
C1402 C 0.88562 0.11883 0.83767 0.0
C1403 C 0.9089 0.08086 0.83731 0.0
C1404 C 0.93932 0.07243 0.84698 0.0
C1405 C 0.94947 0.10398 0.85593 0.0
C1406 C 0.85279 0.12906 0.82756 0.0
C1407 C 0.96353 0.0315 0.84717 0.0
H1408 H 0.84463 0.97755 0.81229 0.0
H1409 H 0.94746 0.0468 0.79508 0.0
H1410 H 0.86508 0.00963 0.84542 0.0
H1411 H 0.82261 0.03604 0.83742 0.0
H1412 H 0.83045 0.98055 0.83494 0.0
H1413 H 0.98863 0.0938 0.80695 0.0
H1414 H 0.95021 0.12748 0.81454 0.0
H1415 H 0.98358 0.09523 0.82439 0.0
H1416 H 0.87963 0.17949 0.84651 0.0
H1417 H 0.97514 0.09872 0.86264 0.0
H1418 H 0.83084 0.10225 0.82638 0.0
H1419 H 0.86853 0.13471 0.81803 0.0
H1420 H 0.83421 0.15756 0.83008 0.0
H1421 H 0.9413 0.00459 0.84779 0.0
H1422 H 0.98573 0.02944 0.85545 0.0
H1423 H 0.98161 0.02814 0.83798 0.0
C1424 C 0.74524 0.84196 0.46082 0.0
C1425 C 0.77529 0.87244 0.45736 0.0
C1426 C 0.70731 0.83854 0.45405 0.0
C1427 C 0.69926 0.86644 0.44352 0.0
C1428 C 0.72801 0.89939 0.44065 0.0
C1429 C 0.76609 0.90148 0.44741 0.0
C1430 C 0.67772 0.80339 0.45797 0.0
C1431 C 0.71957 0.9312 0.42997 0.0
C1432 C 0.64274 0.82815 0.41368 0.0
C1433 C 0.60208 0.84365 0.4157 0.0
C1434 C 0.67424 0.83435 0.42288 0.0
C1435 C 0.66491 0.85749 0.43424 0.0
C1436 C 0.62353 0.8728 0.4364 0.0
C1437 C 0.59226 0.86533 0.42709 0.0
C1438 C 0.71773 0.81699 0.42019 0.0
C1439 C 0.61269 0.89765 0.44839 0.0
H1440 H 0.75227 0.81936 0.46848 0.0
H1441 H 0.78922 0.92502 0.4446 0.0
H1442 H 0.64797 0.80304 0.45242 0.0
H1443 H 0.69396 0.77268 0.45675 0.0
H1444 H 0.66983 0.80614 0.46846 0.0
H1445 H 0.74056 0.95908 0.43064 0.0
H1446 H 0.72484 0.91641 0.42037 0.0
H1447 H 0.68634 0.94201 0.43037 0.0
H1448 H 0.64994 0.81129 0.4048 0.0
H1449 H 0.56061 0.87734 0.42852 0.0
H1450 H 0.73166 0.80304 0.4291 0.0
H1451 H 0.73871 0.84289 0.41685 0.0
H1452 H 0.71727 0.79268 0.4125 0.0
H1453 H 0.57934 0.90826 0.44848 0.0
H1454 H 0.63344 0.92569 0.44898 0.0
H1455 H 0.61838 0.87806 0.4572 0.0
C1456 C 0.88791 0.9991 0.19837 0.0
C1457 C 0.84519 0.00437 0.19535 0.0
C1458 C 0.9117 0.96623 0.19295 0.0
C1459 C 0.89221 0.93771 0.18434 0.0
C1460 C 0.84892 0.94255 0.18143 0.0
C1461 C 0.82599 0.97572 0.18698 0.0
C1462 C 0.95739 0.96268 0.19672 0.0
C1463 C 0.82654 0.91214 0.17264 0.0
C1464 C 0.95174 0.87227 0.15955 0.0
C1465 C 0.95222 0.83241 0.1656 0.0
C1466 C 0.93432 0.90736 0.16583 0.0
C1467 C 0.9163 0.90242 0.17837 0.0
C1468 C 0.91869 0.86288 0.1848 0.0
C1469 C 0.93675 0.82837 0.17837 0.0
C1470 C 0.93417 0.94951 0.15891 0.0
C1471 C 0.90123 0.85685 0.19837 0.0
H1472 H 0.90273 0.02046 0.20511 0.0
H1473 H 0.79273 0.97899 0.1849 0.0
H1474 H 0.97315 0.93425 0.19288 0.0
H1475 H 0.97453 0.99104 0.19317 0.0
H1476 H 0.96002 0.96225 0.20748 0.0
H1477 H 0.7926 0.91979 0.17156 0.0
H1478 H 0.84149 0.91253 0.16286 0.0
H1479 H 0.82938 0.87959 0.17658 0.0
H1480 H 0.96449 0.87602 0.14981 0.0
H1481 H 0.93761 0.79794 0.18323 0.0
H1482 H 0.94519 0.97459 0.16552 0.0
H1483 H 0.90155 0.95756 0.156 0.0
H1484 H 0.95448 0.94955 0.15007 0.0
H1485 H 0.91638 0.87943 0.20505 0.0
H1486 H 0.90634 0.82436 0.20216 0.0
H1487 H 0.86693 0.86359 0.19845 0.0
C1488 C 0.79454 0.10675 0.95135 0.0
C1489 C 0.76004 0.13353 0.95337 0.0
C1490 C 0.82743 0.11821 0.94285 0.0
C1491 C 0.82629 0.15785 0.93643 0.0
C1492 C 0.79081 0.18449 0.93811 0.0
C1493 C 0.75826 0.17207 0.94662 0.0
C1494 C 0.86371 0.08809 0.94091 0.0
C1495 C 0.78632 0.22604 0.93098 0.0
C1496 C 0.93361 0.20341 0.92769 0.0
C1497 C 0.93482 0.19863 0.91416 0.0
C1498 C 0.89832 0.19081 0.93503 0.0
C1499 C 0.8635 0.17227 0.9287 0.0
C1500 C 0.86455 0.16721 0.91505 0.0
C1501 C 0.9 0.1808 0.90793 0.0
C1502 C 0.8993 0.19671 0.94957 0.0
C1503 C 0.82834 0.14721 0.90798 0.0
H1504 H 0.79614 0.07702 0.9566 0.0
H1505 H 0.73168 0.19295 0.94816 0.0
H1506 H 0.87094 0.08474 0.9304 0.0
H1507 H 0.89224 0.10073 0.94564 0.0
H1508 H 0.85702 0.05638 0.9451 0.0
H1509 H 0.77174 0.25004 0.93739 0.0
H1510 H 0.81659 0.23842 0.92715 0.0
H1511 H 0.76476 0.22173 0.92266 0.0
H1512 H 0.96018 0.2174 0.93261 0.0
H1513 H 0.90059 0.177 0.89747 0.0
H1514 H 0.91425 0.16871 0.95414 0.0
H1515 H 0.8674 0.20038 0.95386 0.0
H1516 H 0.91846 0.22466 0.95215 0.0
H1517 H 0.8199 0.11662 0.91263 0.0
H1518 H 0.83574 0.14178 0.89756 0.0
H1519 H 0.8003 0.16797 0.9086 0.0
C1520 C 0.75212 0.04738 0.70176 0.0
C1521 C 0.7012 0.02256 0.70679 0.0
C1522 C 0.74716 0.08965 0.68999 0.0
C1523 C 0.69586 0.11036 0.68586 0.0
C1524 C 0.64822 0.09221 0.69384 0.0
C1525 C 0.6499 0.05033 0.7057 0.0
C1526 C 0.78562 0.10797 0.68379 0.0
C1527 C 0.60691 0.11173 0.69049 0.0
C1528 C 0.66507 0.21862 0.67553 0.0
C1529 C 0.65111 0.21087 0.66292 0.0
C1530 C 0.68599 0.18718 0.68264 0.0
C1531 C 0.69167 0.14697 0.67709 0.0
C1532 C 0.68196 0.14067 0.66387 0.0
C1533 C 0.66186 0.173 0.65686 0.0
C1534 C 0.69738 0.19546 0.69659 0.0
C1535 C 0.68789 0.09831 0.65761 0.0
H1536 H 0.78214 0.03253 0.70368 0.0
H1537 H 0.62125 0.03679 0.70967 0.0
H1538 H 0.78442 0.10291 0.67315 0.0
H1539 H 0.78615 0.14248 0.68541 0.0
H1540 H 0.81439 0.09314 0.68784 0.0
H1541 H 0.58065 0.09415 0.6952 0.0
H1542 H 0.60651 0.14491 0.69378 0.0
H1543 H 0.603 0.11202 0.67978 0.0
H1544 H 0.65643 0.24789 0.68021 0.0
H1545 H 0.65033 0.16682 0.64718 0.0
H1546 H 0.72773 0.18008 0.69906 0.0
H1547 H 0.67268 0.182 0.70309 0.0
H1548 H 0.69979 0.22976 0.69853 0.0
H1549 H 0.7182 0.08392 0.66062 0.0
H1550 H 0.68711 0.10069 0.64684 0.0
H1551 H 0.66211 0.07696 0.66086 0.0
C1552 C 0.77327 0.40733 0.94663 0.0
C1553 C 0.76105 0.37687 0.9559 0.0
C1554 C 0.80779 0.40037 0.9383 0.0
C1555 C 0.83102 0.36242 0.93941 0.0
C1556 C 0.8195 0.33212 0.94899 0.0
C1557 C 0.78475 0.33978 0.9571 0.0
C1558 C 0.81978 0.43383 0.92843 0.0
C1559 C 0.84434 0.29207 0.95105 0.0
C1560 C 0.89547 0.3247 0.91047 0.0
C1561 C 0.93665 0.3327 0.91459 0.0
C1562 C 0.86069 0.33464 0.91837 0.0
C1563 C 0.86726 0.35412 0.93054 0.0
C1564 C 0.90874 0.36358 0.93452 0.0
C1565 C 0.94295 0.35224 0.92658 0.0
C1566 C 0.81712 0.32419 0.91358 0.0
C1567 C 0.91706 0.38521 0.94725 0.0
H1568 H 0.75594 0.43668 0.94593 0.0
H1569 H 0.77628 0.31681 0.96454 0.0
H1570 H 0.8533 0.44279 0.92963 0.0
H1571 H 0.81639 0.4212 0.91848 0.0
H1572 H 0.79999 0.46257 0.92928 0.0
H1573 H 0.82462 0.26702 0.95561 0.0
H1574 H 0.85781 0.28003 0.94183 0.0
H1575 H 0.87083 0.29848 0.9577 0.0
H1576 H 0.89039 0.30952 0.90122 0.0
H1577 H 0.97472 0.35881 0.92977 0.0
H1578 H 0.80388 0.35226 0.90857 0.0
H1579 H 0.79541 0.31547 0.92165 0.0
H1580 H 0.81795 0.29794 0.90651 0.0
H1581 H 0.89658 0.41336 0.94827 0.0
H1582 H 0.95044 0.39516 0.94815 0.0
H1583 H 0.90948 0.36345 0.95543 0.0
C1584 C 0.79324 0.54669 0.19697 0.0
C1585 C 0.75981 0.52296 0.1921 0.0
C1586 C 0.81659 0.57381 0.18886 0.0
C1587 C 0.80604 0.57762 0.17554 0.0
C1588 C 0.77192 0.55421 0.17058 0.0
C1589 C 0.74922 0.52706 0.17892 0.0
C1590 C 0.85295 0.598 0.19453 0.0
C1591 C 0.75971 0.55757 0.15646 0.0
C1592 C 0.85513 0.67427 0.15954 0.0
C1593 C 0.89332 0.65741 0.15513 0.0
C1594 C 0.82464 0.6481 0.16546 0.0
C1595 C 0.83267 0.60429 0.16681 0.0
C1596 C 0.86959 0.58688 0.16125 0.0
C1597 C 0.89959 0.61373 0.15557 0.0
C1598 C 0.78557 0.66782 0.1712 0.0
C1599 C 0.87917 0.54034 0.16227 0.0
H1600 H 0.80124 0.54392 0.20717 0.0
H1601 H 0.72308 0.50905 0.17517 0.0
H1602 H 0.88278 0.58855 0.18968 0.0
H1603 H 0.84869 0.63227 0.19275 0.0
H1604 H 0.8562 0.5925 0.20515 0.0
H1605 H 0.73118 0.53877 0.15426 0.0
H1606 H 0.75371 0.59097 0.15377 0.0
H1607 H 0.78602 0.54641 0.15022 0.0
H1608 H 0.85045 0.70812 0.15925 0.0
H1609 H 0.9291 0.60074 0.15204 0.0
H1610 H 0.78858 0.66888 0.18193 0.0
H1611 H 0.75732 0.64871 0.16901 0.0
H1612 H 0.78062 0.70047 0.16753 0.0
H1613 H 0.88737 0.53223 0.17245 0.0
H1614 H 0.90593 0.53111 0.15588 0.0
H1615 H 0.85121 0.52138 0.15966 0.0
C1616 C 0.79991 0.66428 0.43145 0.0
C1617 C 0.7968 0.64084 0.44305 0.0
C1618 C 0.76568 0.66764 0.42296 0.0
C1619 C 0.72706 0.64782 0.42625 0.0
C1620 C 0.72442 0.6222 0.43758 0.0
C1621 C 0.75947 0.61868 0.44577 0.0
C1622 C 0.77006 0.6947 0.41088 0.0
C1623 C 0.6838 0.60075 0.4415 0.0
C1624 C 0.63016 0.70695 0.41483 0.0
C1625 C 0.61711 0.68275 0.4043 0.0
C1626 C 0.66503 0.69499 0.42226 0.0
C1627 C 0.68835 0.65864 0.41883 0.0
C1628 C 0.67531 0.634 0.40818 0.0
C1629 C 0.63929 0.64599 0.40115 0.0
C1630 C 0.67657 0.72105 0.43389 0.0
C1631 C 0.69978 0.59553 0.40407 0.0
H1632 H 0.82871 0.68129 0.42924 0.0
H1633 H 0.75706 0.60021 0.45466 0.0
H1634 H 0.75714 0.67818 0.40233 0.0
H1635 H 0.75167 0.72409 0.41215 0.0
H1636 H 0.80335 0.70332 0.40881 0.0
H1637 H 0.6884 0.57762 0.44954 0.0
H1638 H 0.66076 0.6248 0.44476 0.0
H1639 H 0.6698 0.58429 0.43312 0.0
H1640 H 0.61256 0.73501 0.4174 0.0
H1641 H 0.62915 0.62733 0.39298 0.0
H1642 H 0.71013 0.73052 0.43336 0.0
H1643 H 0.67242 0.70192 0.44289 0.0
H1644 H 0.65681 0.74978 0.43471 0.0
H1645 H 0.73262 0.60453 0.40156 0.0
H1646 H 0.68554 0.57985 0.39555 0.0
H1647 H 0.70136 0.57251 0.41223 0.0
C1648 C 0.59309 0.58519 0.67074 0.0
C1649 C 0.59541 0.5882 0.68431 0.0
C1650 C 0.58886 0.54601 0.66468 0.0
C1651 C 0.58763 0.50885 0.67238 0.0
C1652 C 0.59104 0.51152 0.68607 0.0
C1653 C 0.59418 0.55117 0.69188 0.0
C1654 C 0.58416 0.54449 0.65011 0.0
C1655 C 0.5905 0.47251 0.6946 0.0
C1656 C 0.53322 0.4096 0.66117 0.0
C1657 C 0.56747 0.38506 0.65719 0.0
C1658 C 0.53918 0.45088 0.66549 0.0
C1659 C 0.58057 0.46725 0.66626 0.0
C1660 C 0.6152 0.44272 0.66196 0.0
C1661 C 0.60812 0.40189 0.6573 0.0
C1662 C 0.50129 0.47628 0.66969 0.0
C1663 C 0.65982 0.45871 0.66292 0.0
H1664 H 0.59346 0.61379 0.66489 0.0
H1665 H 0.59526 0.55305 0.70238 0.0
H1666 H 0.60814 0.5232 0.64583 0.0
H1667 H 0.55279 0.53146 0.64768 0.0
H1668 H 0.58733 0.5761 0.64547 0.0
H1669 H 0.59708 0.47972 0.70493 0.0
H1670 H 0.55922 0.45711 0.69407 0.0
H1671 H 0.61423 0.44949 0.6911 0.0
H1672 H 0.50182 0.39616 0.66109 0.0
H1673 H 0.6345 0.38236 0.65436 0.0
H1674 H 0.50284 0.50868 0.66557 0.0
H1675 H 0.50088 0.47898 0.68043 0.0
H1676 H 0.47126 0.46152 0.66665 0.0
H1677 H 0.66281 0.49001 0.65812 0.0
H1678 H 0.68293 0.43682 0.65844 0.0
H1679 H 0.66805 0.46278 0.6733 0.0
C1680 C 0.73391 0.60747 0.09179 0.0
C1681 C 0.73099 0.59325 0.07895 0.0
C1682 C 0.77209 0.62235 0.09673 0.0
C1683 C 0.80868 0.62155 0.08879 0.0
C1684 C 0.80668 0.60449 0.07616 0.0
C1685 C 0.76774 0.59137 0.07128 0.0
C1686 C 0.77261 0.64142 0.11012 0.0
C1687 C 0.84532 0.60199 0.06755 0.0
C1688 C 0.89008 0.70649 0.09425 0.0
C1689 C 0.91904 0.68579 0.10231 0.0
C1690 C 0.8542 0.68579 0.08977 0.0
C1691 C 0.84765 0.64293 0.09314 0.0
C1692 C 0.87753 0.62138 0.10092 0.0
C1693 C 0.91261 0.64335 0.10562 0.0
C1694 C 0.8225 0.7104 0.08186 0.0
C1695 C 0.87219 0.57535 0.10437 0.0
H1696 H 0.70567 0.60886 0.09775 0.0
H1697 H 0.76615 0.58053 0.06134 0.0
H1698 H 0.79799 0.62717 0.11606 0.0
H1699 H 0.77929 0.67567 0.10928 0.0
H1700 H 0.74216 0.63719 0.11536 0.0
H1701 H 0.83992 0.58229 0.05886 0.0
H1702 H 0.85436 0.6341 0.06422 0.0
H1703 H 0.87229 0.58877 0.07305 0.0
H1704 H 0.89453 0.73957 0.09188 0.0
H1705 H 0.935 0.62739 0.11187 0.0
H1706 H 0.7923 0.71239 0.08732 0.0
H1707 H 0.816 0.69417 0.07259 0.0
H1708 H 0.83342 0.74289 0.07957 0.0
H1709 H 0.84411 0.57111 0.11072 0.0
H1710 H 0.90005 0.56234 0.1095 0.0
H1711 H 0.86685 0.55678 0.09545 0.0
C1712 C 0.69537 0.54106 0.31159 0.0
C1713 C 0.6602 0.51441 0.31074 0.0
C1714 C 0.6954 0.57555 0.32008 0.0
C1715 C 0.65932 0.58363 0.32783 0.0
C1716 C 0.62417 0.55625 0.3272 0.0
C1717 C 0.62494 0.52227 0.31861 0.0
C1718 C 0.73354 0.60378 0.32058 0.0
C1719 C 0.58513 0.5634 0.33539 0.0
C1720 C 0.64736 0.64614 0.35845 0.0
C1721 C 0.62351 0.68019 0.35386 0.0
C1722 C 0.66473 0.61685 0.34979 0.0
C1723 C 0.65673 0.62129 0.33632 0.0
C1724 C 0.63712 0.65849 0.3316 0.0
C1725 C 0.6211 0.68788 0.34047 0.0
C1726 C 0.68646 0.57834 0.35525 0.0
C1727 C 0.62758 0.6645 0.31735 0.0
H1728 H 0.72254 0.53531 0.30541 0.0
H1729 H 0.5975 0.50214 0.31788 0.0
H1730 H 0.72547 0.63541 0.31665 0.0
H1731 H 0.7436 0.60804 0.33079 0.0
H1732 H 0.76043 0.59103 0.31488 0.0
H1733 H 0.56194 0.53753 0.33439 0.0
H1734 H 0.59343 0.56586 0.3458 0.0
H1735 H 0.56996 0.59352 0.33246 0.0
H1736 H 0.64882 0.6401 0.36882 0.0
H1737 H 0.602 0.71389 0.33695 0.0
H1738 H 0.71298 0.5685 0.34888 0.0
H1739 H 0.66369 0.55186 0.3558 0.0
H1740 H 0.69857 0.584 0.36518 0.0
H1741 H 0.65416 0.65367 0.31119 0.0
H1742 H 0.62071 0.69802 0.31496 0.0
H1743 H 0.59951 0.64545 0.31487 0.0
C1744 C 0.7662 0.47892 0.57929 0.0
C1745 C 0.77471 0.46832 0.56633 0.0
C1746 C 0.74305 0.45171 0.58746 0.0
C1747 C 0.72842 0.41288 0.58256 0.0
C1748 C 0.7393 0.40087 0.56975 0.0
C1749 C 0.76208 0.42887 0.56176 0.0
C1750 C 0.73195 0.46575 0.60104 0.0
C1751 C 0.72472 0.35952 0.56421 0.0
C1752 C 0.67978 0.33045 0.60524 0.0
C1753 C 0.6367 0.3373 0.60317 0.0
C1754 C 0.71027 0.35506 0.59872 0.0
C1755 C 0.6972 0.38755 0.59011 0.0
C1756 C 0.65373 0.39533 0.58831 0.0
C1757 C 0.6241 0.36997 0.59479 0.0
C1758 C 0.75635 0.34562 0.60075 0.0
C1759 C 0.63842 0.43007 0.57937 0.0
H1760 H 0.77613 0.50934 0.58286 0.0
H1761 H 0.76878 0.42049 0.55176 0.0
H1762 H 0.69786 0.47329 0.60157 0.0
H1763 H 0.73803 0.44012 0.60818 0.0
H1764 H 0.74999 0.49412 0.60391 0.0
H1765 H 0.74032 0.35248 0.55477 0.0
H1766 H 0.7311 0.33326 0.57111 0.0
H1767 H 0.6902 0.36065 0.56266 0.0
H1768 H 0.68967 0.30512 0.61168 0.0
H1769 H 0.59084 0.37582 0.59327 0.0
H1770 H 0.77326 0.37455 0.60367 0.0
H1771 H 0.77072 0.33494 0.59149 0.0
H1772 H 0.76135 0.32083 0.60828 0.0
H1773 H 0.65236 0.46066 0.58221 0.0
H1774 H 0.60357 0.4332 0.57952 0.0
H1775 H 0.64874 0.4237 0.56925 0.0
C1776 C 0.81303 0.53624 0.82753 0.0
C1777 C 0.82051 0.52903 0.81427 0.0
C1778 C 0.83521 0.51379 0.83712 0.0
C1779 C 0.86511 0.4831 0.83333 0.0
C1780 C 0.87424 0.47725 0.81997 0.0
C1781 C 0.8517 0.50017 0.81061 0.0
C1782 C 0.8248 0.52116 0.85125 0.0
C1783 C 0.90605 0.44494 0.81551 0.0
C1784 C 0.94254 0.42823 0.85578 0.0
C1785 C 0.92311 0.38881 0.85738 0.0
C1786 C 0.92292 0.46057 0.84861 0.0
C1787 C 0.88296 0.4532 0.84304 0.0
C1788 C 0.8619 0.41463 0.84555 0.0
C1789 C 0.88226 0.38293 0.85267 0.0
C1790 C 0.94591 0.5016 0.84632 0.0
C1791 C 0.81914 0.40555 0.83988 0.0
H1792 H 0.78869 0.55832 0.83039 0.0
H1793 H 0.85737 0.49437 0.80038 0.0
H1794 H 0.80559 0.49453 0.85506 0.0
H1795 H 0.8539 0.52253 0.85713 0.0
H1796 H 0.80672 0.55078 0.85265 0.0
H1797 H 0.91218 0.44693 0.80488 0.0
H1798 H 0.93629 0.44913 0.82067 0.0
H1799 H 0.8943 0.41283 0.81789 0.0
H1800 H 0.97418 0.43291 0.85938 0.0
H1801 H 0.86694 0.35265 0.85401 0.0
H1802 H 0.92589 0.52838 0.84943 0.0
H1803 H 0.95241 0.50601 0.83579 0.0
H1804 H 0.97622 0.50287 0.85162 0.0
H1805 H 0.79697 0.43169 0.84196 0.0
H1806 H 0.8054 0.37576 0.84376 0.0
H1807 H 0.82196 0.40301 0.82916 0.0
C1808 C 0.25379 0.66476 0.05518 0.0
C1809 C 0.27434 0.61065 0.05266 0.0
C1810 C 0.21314 0.66875 0.06735 0.0
C1811 C 0.18923 0.62196 0.0743 0.0
C1812 C 0.20262 0.56968 0.0688 0.0
C1813 C 0.24314 0.56233 0.05662 0.0
C1814 C 0.19936 0.71124 0.07166 0.0
C1815 C 0.17964 0.53245 0.07419 0.0
C1816 C 0.13114 0.65065 0.10495 0.0
C1817 C 0.09344 0.66599 0.09969 0.0
C1818 C 0.16178 0.6321 0.0969 0.0
C1819 C 0.15396 0.62828 0.08345 0.0
C1820 C 0.11414 0.63946 0.07844 0.0
C1821 C 0.08442 0.65861 0.08661 0.0
C1822 C 0.20399 0.62066 0.10254 0.0
C1823 C 0.10432 0.63487 0.0642 0.0
H1824 H 0.27078 0.69235 0.05179 0.0
H1825 H 0.25369 0.53121 0.05388 0.0
H1826 H 0.17261 0.72181 0.06557 0.0
H1827 H 0.18882 0.71029 0.08195 0.0
H1828 H 0.22569 0.73376 0.07036 0.0
H1829 H 0.18982 0.50323 0.06923 0.0
H1830 H 0.18594 0.52974 0.08475 0.0
H1831 H 0.14527 0.53722 0.07301 0.0
H1832 H 0.13835 0.65669 0.11505 0.0
H1833 H 0.05516 0.67031 0.08256 0.0
H1834 H 0.22736 0.64508 0.09965 0.0
H1835 H 0.21507 0.59004 0.09866 0.0
H1836 H 0.20286 0.61871 0.11333 0.0
H1837 H 0.12061 0.66017 0.05859 0.0
H1838 H 0.07 0.63732 0.06232 0.0
H1839 H 0.11595 0.60413 0.06056 0.0
C1840 C 0.0886 0.52904 0.80764 0.0
C1841 C 0.14386 0.54491 0.80417 0.0
C1842 C 0.08298 0.48542 0.8188 0.0
C1843 C 0.12837 0.45512 0.82379 0.0
C1844 C 0.18041 0.46503 0.81722 0.0
C1845 C 0.18934 0.50813 0.80597 0.0
C1846 C 0.04034 0.47414 0.8239 0.0
C1847 C 0.21608 0.43703 0.82096 0.0
C1848 C 0.10243 0.38788 0.85315 0.0
C1849 C 0.08459 0.35266 0.84717 0.0
C1850 C 0.12017 0.42063 0.84563 0.0
C1851 C 0.12053 0.41753 0.83193 0.0
C1852 C 0.10634 0.38026 0.82598 0.0
C1853 C 0.0882 0.34834 0.83367 0.0
C1854 C 0.13535 0.4599 0.85226 0.0
C1855 C 0.10728 0.37542 0.8114 0.0
H1856 H 0.06231 0.54954 0.80545 0.0
H1857 H 0.2207 0.51641 0.80266 0.0
H1858 H 0.03205 0.44193 0.82072 0.0
H1859 H 0.04087 0.47383 0.83468 0.0
H1860 H 0.01644 0.49692 0.82035 0.0
H1861 H 0.24576 0.44771 0.81623 0.0
H1862 H 0.2195 0.43715 0.83168 0.0
H1863 H 0.2089 0.40425 0.81807 0.0
H1864 H 0.09958 0.39141 0.8636 0.0
H1865 H 0.07482 0.32091 0.82904 0.0
H1866 H 0.11243 0.48576 0.85054 0.0
H1867 H 0.16612 0.47002 0.8481 0.0
H1868 H 0.13871 0.45515 0.86291 0.0
H1869 H 0.08282 0.39596 0.807 0.0
H1870 H 0.1012 0.3424 0.80845 0.0
H1871 H 0.13825 0.3855 0.80739 0.0
C1872 C 0.28757 0.44158 0.57578 0.0
C1873 C 0.27368 0.48257 0.57847 0.0
C1874 C 0.31765 0.42161 0.5836 0.0
C1875 C 0.3351 0.44346 0.59423 0.0
C1876 C 0.32137 0.48487 0.597 0.0
C1877 C 0.29085 0.50398 0.58906 0.0
C1878 C 0.33133 0.37732 0.58032 0.0
C1879 C 0.33971 0.50933 0.60812 0.0
C1880 C 0.38921 0.3698 0.61796 0.0
C1881 C 0.43004 0.36884 0.61272 0.0
C1882 C 0.35834 0.3964 0.61264 0.0
C1883 C 0.36892 0.42302 0.60199 0.0
C1884 C 0.41116 0.42502 0.59751 0.0
C1885 C 0.44115 0.39753 0.60285 0.0
C1886 C 0.31362 0.39319 0.61764 0.0
C1887 C 0.42396 0.45349 0.58633 0.0
H1888 H 0.27522 0.42524 0.56743 0.0
H1889 H 0.28086 0.536 0.59099 0.0
H1890 H 0.36521 0.37716 0.57762 0.0
H1891 H 0.32742 0.35632 0.58893 0.0
H1892 H 0.31313 0.36399 0.57215 0.0
H1893 H 0.32376 0.54015 0.6095 0.0
H1894 H 0.33723 0.49082 0.61729 0.0
H1895 H 0.37369 0.51511 0.60626 0.0
H1896 H 0.38036 0.34706 0.62541 0.0
H1897 H 0.47278 0.39683 0.5988 0.0
H1898 H 0.29328 0.37975 0.61 0.0
H1899 H 0.30116 0.42493 0.61993 0.0
H1900 H 0.31105 0.37289 0.62647 0.0
H1901 H 0.41181 0.44044 0.57712 0.0
H1902 H 0.45873 0.45645 0.58545 0.0
H1903 H 0.41019 0.48538 0.58749 0.0
C1904 C 0.48304 0.52326 0.29373 0.0
C1905 C 0.44436 0.50194 0.29435 0.0
C1906 C 0.48861 0.56194 0.30001 0.0
C1907 C 0.45435 0.58014 0.30684 0.0
C1908 C 0.41394 0.56164 0.30598 0.0
C1909 C 0.40954 0.52234 0.3 0.0
C1910 C 0.53243 0.58004 0.30072 0.0
C1911 C 0.37613 0.58092 0.31262 0.0
C1912 C 0.47588 0.62032 0.34054 0.0
C1913 C 0.47607 0.66424 0.3388 0.0
C1914 C 0.46966 0.59314 0.33016 0.0
C1915 C 0.4627 0.61004 0.31759 0.0
C1916 C 0.46286 0.65438 0.31565 0.0
C1917 C 0.4702 0.68111 0.3263 0.0
C1918 C 0.4699 0.54611 0.33279 0.0
C1919 C 0.45432 0.67345 0.30245 0.0
H1920 H 0.50994 0.50792 0.28926 0.0
H1921 H 0.37921 0.50677 0.30044 0.0
H1922 H 0.53195 0.61494 0.30095 0.0
H1923 H 0.54736 0.56869 0.30979 0.0
H1924 H 0.55234 0.56971 0.29241 0.0
H1925 H 0.34621 0.56949 0.30838 0.0
H1926 H 0.37625 0.57211 0.32308 0.0
H1927 H 0.37698 0.61581 0.3119 0.0
H1928 H 0.48143 0.60682 0.3501 0.0
H1929 H 0.47058 0.71501 0.3249 0.0
H1930 H 0.48992 0.52957 0.32558 0.0
H1931 H 0.43748 0.53355 0.33193 0.0
H1932 H 0.48154 0.53819 0.34268 0.0
H1933 H 0.47611 0.66017 0.29508 0.0
H1934 H 0.45762 0.70831 0.3024 0.0
H1935 H 0.42186 0.66536 0.29943 0.0
C1936 C 0.25392 0.51322 0.927 0.0
C1937 C 0.25754 0.49811 0.93981 0.0
C1938 C 0.22389 0.49637 0.91853 0.0
C1939 C 0.19694 0.46375 0.92302 0.0
C1940 C 0.19911 0.44991 0.93613 0.0
C1941 C 0.2292 0.4674 0.94437 0.0
C1942 C 0.22215 0.51225 0.90468 0.0
C1943 C 0.17088 0.41524 0.94133 0.0
C1944 C 0.09903 0.42328 0.90633 0.0
C1945 C 0.11396 0.38472 0.90167 0.0
C1946 C 0.12647 0.45145 0.91249 0.0
C1947 C 0.16955 0.44061 0.91385 0.0
C1948 C 0.18523 0.40357 0.90798 0.0
C1949 C 0.15716 0.37597 0.90203 0.0
C1950 C 0.10863 0.49081 0.91852 0.0
C1951 C 0.23098 0.39101 0.90903 0.0
H1952 H 0.27522 0.53757 0.92352 0.0
H1953 H 0.23136 0.45628 0.95434 0.0
H1954 H 0.23425 0.48758 0.89806 0.0
H1955 H 0.18915 0.51897 0.90185 0.0
H1956 H 0.24124 0.54124 0.90318 0.0
H1957 H 0.17457 0.41018 0.95196 0.0
H1958 H 0.13742 0.42277 0.93933 0.0
H1959 H 0.17836 0.38528 0.93633 0.0
H1960 H 0.06553 0.42988 0.9061 0.0
H1961 H 0.16865 0.34618 0.89831 0.0
H1962 H 0.1302 0.51793 0.91701 0.0
H1963 H 0.10501 0.48576 0.92916 0.0
H1964 H 0.07728 0.49894 0.91447 0.0
H1965 H 0.25179 0.41806 0.90661 0.0
H1966 H 0.23908 0.36445 0.9025 0.0
H1967 H 0.23776 0.38118 0.91918 0.0
C1968 C 0.26829 0.43969 0.69618 0.0
C1969 C 0.29699 0.46781 0.70174 0.0
C1970 C 0.28222 0.40571 0.68862 0.0
C1971 C 0.32584 0.40033 0.68633 0.0
C1972 C 0.35495 0.42908 0.69166 0.0
C1973 C 0.34028 0.46192 0.69947 0.0
C1974 C 0.25043 0.37503 0.68338 0.0
C1975 C 0.4018 0.42491 0.68923 0.0
C1976 C 0.38175 0.29855 0.67878 0.0
C1977 C 0.39123 0.30431 0.66559 0.0
C1978 C 0.35652 0.32765 0.68542 0.0
C1979 C 0.34191 0.36402 0.67876 0.0
C1980 C 0.34903 0.36836 0.6652 0.0
C1981 C 0.37324 0.33798 0.65873 0.0
C1982 C 0.34874 0.32133 0.6998 0.0
C1983 C 0.33485 0.40712 0.65782 0.0
H1984 H 0.23488 0.44395 0.69797 0.0
H1985 H 0.363 0.48291 0.70379 0.0
H1986 H 0.25398 0.37237 0.67269 0.0
H1987 H 0.25615 0.34325 0.6876 0.0
H1988 H 0.21752 0.38449 0.68566 0.0
H1989 H 0.41362 0.39563 0.69392 0.0
H1990 H 0.40839 0.42251 0.67866 0.0
H1991 H 0.41981 0.452 0.69309 0.0
H1992 H 0.39598 0.27251 0.68406 0.0
H1993 H 0.38139 0.34271 0.64858 0.0
H1994 H 0.31569 0.32917 0.70238 0.0
H1995 H 0.36949 0.3427 0.70532 0.0
H1996 H 0.35538 0.28842 0.70295 0.0
H1997 H 0.30092 0.41316 0.65962 0.0
H1998 H 0.34026 0.40428 0.64719 0.0
H1999 H 0.35245 0.435 0.66129 0.0
C2000 C 0.2822 0.57968 0.44136 0.0
C2001 C 0.29074 0.57105 0.4545 0.0
C2002 C 0.30938 0.60496 0.43383 0.0
C2003 C 0.34671 0.62081 0.43941 0.0
C2004 C 0.35482 0.61343 0.45274 0.0
C2005 C 0.32651 0.589 0.46014 0.0
C2006 C 0.29912 0.61308 0.41972 0.0
C2007 C 0.39455 0.62928 0.45899 0.0
C2008 C 0.43666 0.63212 0.41531 0.0
C2009 C 0.43755 0.67568 0.41307 0.0
C2010 C 0.4084 0.61423 0.42428 0.0
C2011 C 0.37946 0.64049 0.43091 0.0
C2012 C 0.38087 0.68474 0.42891 0.0
C2013 C 0.41035 0.70194 0.42007 0.0
C2014 C 0.40885 0.56705 0.42641 0.0
C2015 C 0.35001 0.71371 0.43556 0.0
H2016 H 0.25481 0.56597 0.43684 0.0
H2017 H 0.33323 0.58235 0.47027 0.0
H2018 H 0.30275 0.64706 0.41732 0.0
H2019 H 0.32142 0.59543 0.41345 0.0
H2020 H 0.26657 0.60321 0.4173 0.0
H2021 H 0.39446 0.62396 0.46968 0.0
H2022 H 0.42218 0.61281 0.45475 0.0
H2023 H 0.39868 0.66345 0.457 0.0
H2024 H 0.45804 0.61194 0.40994 0.0
H2025 H 0.41087 0.73563 0.41821 0.0
H2026 H 0.37909 0.55322 0.42283 0.0
H2027 H 0.41094 0.55952 0.43694 0.0
H2028 H 0.4356 0.55163 0.4213 0.0
H2029 H 0.31895 0.71117 0.43076 0.0
H2030 H 0.36041 0.74706 0.435 0.0
H2031 H 0.34556 0.70474 0.44593 0.0
C2032 C 0.28575 0.55698 0.1971 0.0
C2033 C 0.3052 0.50784 0.18937 0.0
C2034 C 0.24414 0.58328 0.18843 0.0
C2035 C 0.22989 0.56694 0.17228 0.0
C2036 C 0.25812 0.52601 0.16378 0.0
C2037 C 0.30029 0.49768 0.17161 0.0
C2038 C 0.22107 0.6187 0.19469 0.0
C2039 C 0.24647 0.51553 0.1502 0.0
C2040 C 0.1225 0.60523 0.16199 0.0
C2041 C 0.13236 0.64329 0.15557 0.0
C2042 C 0.15419 0.5789 0.16692 0.0
C2043 C 0.19675 0.59094 0.16549 0.0
C2044 C 0.20714 0.62818 0.15851 0.0
C2045 C 0.17481 0.65387 0.15355 0.0
C2046 C 0.142 0.53901 0.17409 0.0
C2047 C 0.25235 0.64181 0.15677 0.0
H2048 H 0.29198 0.56398 0.20717 0.0
H2049 H 0.31534 0.47101 0.16704 0.0
H2050 H 0.22533 0.64776 0.18875 0.0
H2051 H 0.1869 0.61142 0.19495 0.0
H2052 H 0.23273 0.62386 0.20469 0.0
H2053 H 0.26603 0.48915 0.14653 0.0
H2054 H 0.21264 0.50692 0.14991 0.0
H2055 H 0.25087 0.54376 0.1439 0.0
H2056 H 0.08983 0.59633 0.16342 0.0
H2057 H 0.18282 0.6831 0.14859 0.0
H2058 H 0.14989 0.54215 0.18453 0.0
H2059 H 0.16011 0.51192 0.17021 0.0
H2060 H 0.10784 0.53204 0.17331 0.0
H2061 H 0.26576 0.64971 0.16638 0.0
H2062 H 0.25547 0.66974 0.15024 0.0
H2063 H 0.27137 0.61561 0.15272 0.0
loop_
_geom_bond_atom_site_label_1
_geom_bond_atom_site_label_2
_geom_bond_distance
_geom_bond_site_symmetry_2
_ccdc_geom_bond_type
C0 C1 1.560 . S
C0 H61 0.959 . S
C0 H62 0.959 . S
C0 H63 0.960 . S
C1 C0 1.560 . S
C1 O56 1.426 . S
C1 H60 0.980 . S
C2 C3 1.407 . S
C2 C7 1.418 . S
C2 O56 1.334 . S
C3 C2 1.407 . S
C3 C4 1.360 . S
C3 H64 0.929 . S
C4 C3 1.360 . S
C4 C5 1.401 . S
C4 C8 1.527 . S
C5 C4 1.401 . S
C5 C6 1.405 . S
C5 C38 1.587 . S
C6 C5 1.405 . S
C6 C7 1.332 . S
C6 C9 1.496 1_565 S
C7 C2 1.418 . S
C7 C6 1.332 . S
C7 H65 0.929 1_565 S
C8 C4 1.527 . S
C8 H66 0.959 . S
C8 H67 0.961 . S
C8 H68 0.961 . S
C9 C6 1.496 1_545 S
C9 H69 0.960 . S
C9 H70 0.960 . S
C9 H71 0.961 . S
C10 C11 1.517 . S
C10 H73 0.961 . S
C10 H74 0.960 . S
C10 H75 0.959 . S
C11 C10 1.517 . S
C11 O59 1.468 . S
C11 H72 0.980 . S
C12 C13 1.349 . S
C12 C17 1.367 . S
C12 O59 1.408 . S
C13 C12 1.349 . S
C13 C14 1.407 . S
C13 H76 0.930 . S
C14 C13 1.407 . S
C14 C15 1.449 . S
C14 C18 1.535 . S
C15 C14 1.449 . S
C15 C16 1.384 . S
C15 C40 1.553 . S
C16 C15 1.384 . S
C16 C17 1.364 . S
C16 C19 1.450 . S
C17 C12 1.367 . S
C17 C16 1.364 . S
C17 H77 0.931 . S
C18 C14 1.535 . S
C18 H78 0.959 . S
C18 H79 0.961 . S
C18 H80 0.959 1_565 S
C19 C16 1.450 . S
C19 H81 0.960 . S
C19 H82 0.960 . S
C19 H83 0.960 . S
C20 C21 1.309 . S
C20 C25 1.304 . S
C20 O58 1.435 . S
C21 C20 1.309 . S
C21 C22 1.476 . S
C21 H85 0.930 . S
C22 C21 1.476 . S
C22 C23 1.400 . S
C22 C26 1.567 . S
C23 C22 1.400 . S
C23 C24 1.373 . S
C23 C45 1.432 . S
C24 C23 1.373 . S
C24 C25 1.339 . S
C24 C27 1.530 1_545 S
C25 C20 1.304 . S
C25 C24 1.339 . S
C25 H86 0.930 . S
C26 C22 1.567 . S
C26 H87 0.961 . S
C26 H88 0.960 . S
C26 H89 0.958 . S
C27 C24 1.530 1_565 S
C27 H90 0.961 . S
C27 H91 0.960 . S
C27 H92 0.960 . S
C28 C29 1.530 . S
C28 H94 0.961 . S
C28 H95 0.961 . S
C28 H96 0.959 . S
C29 C28 1.530 . S
C29 O57 1.412 . S
C29 H93 0.980 . S
C30 C31 1.288 . S
C30 C35 1.377 . S
C30 O57 1.393 . S
C31 C30 1.288 . S
C31 C32 1.369 . S
C31 H97 0.932 . S
C32 C31 1.369 . S
C32 C33 1.398 . S
C32 C36 1.527 . S
C33 C32 1.398 . S
C33 C34 1.380 . S
C33 C47 1.497 . S
C34 C33 1.380 . S
C34 C35 1.383 . S
C34 C37 1.603 . S
C35 C30 1.377 . S
C35 C34 1.383 . S
C35 H98 0.929 . S
C36 C32 1.527 . S
C36 H99 0.961 . S
C36 H100 0.959 . S
C36 H101 0.959 . S
C37 C34 1.603 . S
C37 H102 0.960 . S
C37 H103 0.962 1_545 S
C37 H104 0.961 1_545 S
C38 C5 1.587 . S
C38 C39 1.360 1_655 S
C38 C51 1.412 . S
C39 C38 1.360 1_455 S
C39 C40 1.365 . S
C39 H105 0.929 . S
C40 C15 1.553 . S
C40 C39 1.365 . S
C40 C41 1.404 . S
C41 C40 1.404 . S
C41 C42 1.395 . S
C41 C52 1.451 . S
C42 C41 1.395 . S
C42 C43 1.322 . S
C42 H106 0.930 . S
C43 C42 1.322 . S
C43 C44 1.459 1_565 S
C43 H107 0.929 . S
C44 C43 1.459 1_545 S
C44 C45 1.445 . S
C44 C53 1.395 . S
C45 C23 1.432 . S
C45 C44 1.445 . S
C45 C46 1.370 . S
C46 C45 1.370 . S
C46 C47 1.438 1_455 S
C46 H108 0.930 . S
C47 C33 1.497 . S
C47 C46 1.438 1_655 S
C47 C48 1.360 . S
C48 C47 1.360 . S
C48 C49 1.401 . S
C48 C53 1.446 1_655 S
C49 C48 1.401 . S
C49 C50 1.347 1_545 S
C49 H109 0.929 . S
C50 C49 1.347 1_565 S
C50 C51 1.455 . S
C50 H110 0.930 . S
C51 C38 1.412 . S
C51 C50 1.455 . S
C51 C52 1.331 1_655 S
C52 C41 1.451 . S
C52 C51 1.331 1_455 S
C52 C53 1.497 1_565 S
C53 C44 1.395 . S
C53 C48 1.446 1_455 S
C53 C52 1.497 1_545 S
C54 C55 1.582 . S
C54 H111 0.962 . S
C54 H112 0.959 . S
C54 H113 0.958 . S
C55 C54 1.582 . S
C55 O58 1.458 . S
C55 H84 0.980 . S
O56 C1 1.426 . S
O56 C2 1.334 . S
O57 C29 1.412 . S
O57 C30 1.393 . S
O58 C20 1.435 . S
O58 C55 1.458 . S
O59 C11 1.468 . S
O59 C12 1.408 . S
H60 C1 0.980 . S
H61 C0 0.959 . S
H62 C0 0.959 . S
H63 C0 0.960 . S
H64 C3 0.929 . S
H65 C7 0.929 1_545 S
H66 C8 0.959 . S
H67 C8 0.961 . S
H68 C8 0.961 . S
H69 C9 0.960 . S
H70 C9 0.960 . S
H71 C9 0.961 . S
H72 C11 0.980 . S
H73 C10 0.961 . S
H74 C10 0.960 . S
H75 C10 0.959 . S
H76 C13 0.930 . S
H77 C17 0.931 . S
H78 C18 0.959 . S
H79 C18 0.961 . S
H80 C18 0.959 1_545 S
H81 C19 0.960 . S
H82 C19 0.960 . S
H83 C19 0.960 . S
H84 C55 0.980 . S
H85 C21 0.930 . S
H86 C25 0.930 . S
H87 C26 0.961 . S
H88 C26 0.960 . S
H89 C26 0.958 . S
H90 C27 0.961 . S
H91 C27 0.960 . S
H92 C27 0.960 . S
H93 C29 0.980 . S
H94 C28 0.961 . S
H95 C28 0.961 . S
H96 C28 0.959 . S
H97 C31 0.932 . S
H98 C35 0.929 . S
H99 C36 0.961 . S
H100 C36 0.959 . S
H101 C36 0.959 . S
H102 C37 0.960 . S
H103 C37 0.962 1_565 S
H104 C37 0.961 1_565 S
H105 C39 0.929 . S
H106 C42 0.930 . S
H107 C43 0.929 . S
H108 C46 0.930 . S
H109 C49 0.929 . S
H110 C50 0.930 . S
H111 C54 0.962 . S
H112 C54 0.959 . S
H113 C54 0.958 . S
C114 C115 1.560 . S
C114 H175 0.959 . S
C114 H176 0.959 . S
C114 H177 0.960 . S
C115 C114 1.560 . S
C115 O170 1.426 . S
C115 H174 0.980 . S
C116 C117 1.407 . S
C116 C121 1.418 . S
C116 O170 1.334 . S
C117 C116 1.407 . S
C117 C118 1.360 . S
C117 H178 0.929 . S
C118 C117 1.360 . S
C118 C119 1.401 . S
C118 C122 1.527 . S
C119 C118 1.401 . S
C119 C120 1.405 . S
C119 C152 1.587 . S
C120 C119 1.405 . S
C120 C121 1.332 . S
C120 C123 1.496 . S
C121 C116 1.418 . S
C121 C120 1.332 . S
C121 H179 0.929 . S
C122 C118 1.527 . S
C122 H180 0.959 . S
C122 H181 0.961 . S
C122 H182 0.961 . S
C123 C120 1.496 . S
C123 H183 0.960 . S
C123 H184 0.960 . S
C123 H185 0.961 . S
C124 C125 1.517 . S
C124 H187 0.961 . S
C124 H188 0.960 . S
C124 H189 0.959 . S
C125 C124 1.517 . S
C125 O173 1.468 . S
C125 H186 0.980 . S
C126 C127 1.349 . S
C126 C131 1.367 . S
C126 O173 1.408 . S
C127 C126 1.349 . S
C127 C128 1.407 . S
C127 H190 0.930 . S
C128 C127 1.407 . S
C128 C129 1.449 . S
C128 C132 1.535 . S
C129 C128 1.449 . S
C129 C130 1.384 . S
C129 C154 1.553 . S
C130 C129 1.384 . S
C130 C131 1.364 . S
C130 C133 1.450 . S
C131 C126 1.367 . S
C131 C130 1.364 . S
C131 H191 0.931 . S
C132 C128 1.535 . S
C132 H192 0.959 . S
C132 H193 0.961 . S
C132 H194 0.959 . S
C133 C130 1.450 . S
C133 H195 0.960 . S
C133 H196 0.960 . S
C133 H197 0.960 . S
C134 C135 1.309 . S
C134 C139 1.304 . S
C134 O172 1.435 . S
C135 C134 1.309 . S
C135 C136 1.476 . S
C135 H199 0.930 . S
C136 C135 1.476 . S
C136 C137 1.400 . S
C136 C140 1.567 . S
C137 C136 1.400 . S
C137 C138 1.373 . S
C137 C159 1.432 . S
C138 C137 1.373 . S
C138 C139 1.339 . S
C138 C141 1.530 . S
C139 C134 1.304 . S
C139 C138 1.339 . S
C139 H200 0.930 . S
C140 C136 1.567 . S
C140 H201 0.961 . S
C140 H202 0.960 . S
C140 H203 0.958 . S
C141 C138 1.530 . S
C141 H204 0.961 . S
C141 H205 0.960 . S
C141 H206 0.960 . S
C142 C143 1.530 1_545 S
C142 H208 0.961 . S
C142 H209 0.961 . S
C142 H210 0.959 1_545 S
C143 C142 1.530 1_565 S
C143 O171 1.412 . S
C143 H207 0.980 . S
C144 C145 1.288 . S
C144 C149 1.377 . S
C144 O171 1.393 . S
C145 C144 1.288 . S
C145 C146 1.369 . S
C145 H211 0.932 . S
C146 C145 1.369 . S
C146 C147 1.398 . S
C146 C150 1.527 . S
C147 C146 1.398 . S
C147 C148 1.380 . S
C147 C161 1.497 . S
C148 C147 1.380 . S
C148 C149 1.383 . S
C148 C151 1.603 . S
C149 C144 1.377 . S
C149 C148 1.383 . S
C149 H212 0.929 . S
C150 C146 1.527 . S
C150 H213 0.961 . S
C150 H214 0.959 . S
C150 H215 0.959 . S
C151 C148 1.603 . S
C151 H216 0.960 . S
C151 H217 0.962 . S
C151 H218 0.961 . S
C152 C119 1.587 . S
C152 C153 1.360 . S
C152 C165 1.412 . S
C153 C152 1.360 . S
C153 C154 1.365 . S
C153 H219 0.929 . S
C154 C129 1.553 . S
C154 C153 1.365 . S
C154 C155 1.404 . S
C155 C154 1.404 . S
C155 C156 1.395 . S
C155 C166 1.451 . S
C156 C155 1.395 . S
C156 C157 1.322 . S
C156 H220 0.930 . S
C157 C156 1.322 . S
C157 C158 1.459 . S
C157 H221 0.929 . S
C158 C157 1.459 . S
C158 C159 1.445 . S
C158 C167 1.395 . S
C159 C137 1.432 . S
C159 C158 1.445 . S
C159 C160 1.370 . S
C160 C159 1.370 . S
C160 C161 1.438 . S
C160 H222 0.930 . S
C161 C147 1.497 . S
C161 C160 1.438 . S
C161 C162 1.360 . S
C162 C161 1.360 . S
C162 C163 1.401 . S
C162 C167 1.446 . S
C163 C162 1.401 . S
C163 C164 1.347 . S
C163 H223 0.929 . S
C164 C163 1.347 . S
C164 C165 1.455 . S
C164 H224 0.930 . S
C165 C152 1.412 . S
C165 C164 1.455 . S
C165 C166 1.331 . S
C166 C155 1.451 . S
C166 C165 1.331 . S
C166 C167 1.497 . S
C167 C158 1.395 . S
C167 C162 1.446 . S
C167 C166 1.497 . S
C168 C169 1.582 . S
C168 H225 0.962 . S
C168 H226 0.959 . S
C168 H227 0.958 . S
C169 C168 1.582 . S
C169 O172 1.458 . S
C169 H198 0.980 . S
O170 C115 1.426 . S
O170 C116 1.334 . S
O171 C143 1.412 . S
O171 C144 1.393 . S
O172 C134 1.435 . S
O172 C169 1.458 . S
O173 C125 1.468 . S
O173 C126 1.408 . S
H174 C115 0.980 . S
H175 C114 0.959 . S
H176 C114 0.959 . S
H177 C114 0.960 . S
H178 C117 0.929 . S
H179 C121 0.929 . S
H180 C122 0.959 . S
H181 C122 0.961 . S
H182 C122 0.961 . S
H183 C123 0.960 . S
H184 C123 0.960 . S
H185 C123 0.961 . S
H186 C125 0.980 . S
H187 C124 0.961 . S
H188 C124 0.960 . S
H189 C124 0.959 . S
H190 C127 0.930 . S
H191 C131 0.931 . S
H192 C132 0.959 . S
H193 C132 0.961 . S
H194 C132 0.959 . S
H195 C133 0.960 . S
H196 C133 0.960 . S
H197 C133 0.960 . S
H198 C169 0.980 . S
H199 C135 0.930 . S
H200 C139 0.930 . S
H201 C140 0.961 . S
H202 C140 0.960 . S
H203 C140 0.958 . S
H204 C141 0.961 . S
H205 C141 0.960 . S
H206 C141 0.960 . S
H207 C143 0.980 . S
H208 C142 0.961 . S
H209 C142 0.961 . S
H210 C142 0.959 1_565 S
H211 C145 0.932 . S
H212 C149 0.929 . S
H213 C150 0.961 . S
H214 C150 0.959 . S
H215 C150 0.959 . S
H216 C151 0.960 . S
H217 C151 0.962 . S
H218 C151 0.961 . S
H219 C153 0.929 . S
H220 C156 0.930 . S
H221 C157 0.929 . S
H222 C160 0.930 . S
H223 C163 0.929 . S
H224 C164 0.930 . S
H225 C168 0.962 . S
H226 C168 0.959 . S
H227 C168 0.958 . S
C228 C229 1.560 . S
C228 H289 0.959 . S
C228 H290 0.959 . S
C228 H291 0.960 . S
C229 C228 1.560 . S
C229 O284 1.426 . S
C229 H288 0.980 . S
C230 C231 1.407 . S
C230 C235 1.418 . S
C230 O284 1.334 . S
C231 C230 1.407 . S
C231 C232 1.360 . S
C231 H292 0.929 . S
C232 C231 1.360 . S
C232 C233 1.401 . S
C232 C236 1.527 . S
C233 C232 1.401 . S
C233 C234 1.405 . S
C233 C266 1.587 . S
C234 C233 1.405 . S
C234 C235 1.332 . S
C234 C237 1.496 1_565 S
C235 C230 1.418 . S
C235 C234 1.332 . S
C235 H293 0.929 . S
C236 C232 1.527 . S
C236 H294 0.959 . S
C236 H295 0.961 . S
C236 H296 0.961 . S
C237 C234 1.496 1_545 S
C237 H297 0.960 . S
C237 H298 0.960 1_545 S
C237 H299 0.961 . S
C238 C239 1.517 . S
C238 H301 0.961 . S
C238 H302 0.960 . S
C238 H303 0.959 . S
C239 C238 1.517 . S
C239 O287 1.468 . S
C239 H300 0.980 . S
C240 C241 1.349 . S
C240 C245 1.367 . S
C240 O287 1.408 . S
C241 C240 1.349 . S
C241 C242 1.407 . S
C241 H304 0.930 . S
C242 C241 1.407 . S
C242 C243 1.449 . S
C242 C246 1.535 . S
C243 C242 1.449 . S
C243 C244 1.384 . S
C243 C268 1.553 . S
C244 C243 1.384 . S
C244 C245 1.364 . S
C244 C247 1.450 . S
C245 C240 1.367 . S
C245 C244 1.364 . S
C245 H305 0.931 . S
C246 C242 1.535 . S
C246 H306 0.959 . S
C246 H307 0.961 . S
C246 H308 0.959 . S
C247 C244 1.450 . S
C247 H309 0.960 . S
C247 H310 0.960 . S
C247 H311 0.960 . S
C248 C249 1.309 . S
C248 C253 1.304 . S
C248 O286 1.435 . S
C249 C248 1.309 . S
C249 C250 1.476 . S
C249 H313 0.930 . S
C250 C249 1.476 . S
C250 C251 1.400 . S
C250 C254 1.567 . S
C251 C250 1.400 . S
C251 C252 1.373 . S
C251 C273 1.432 . S
C252 C251 1.373 . S
C252 C253 1.339 . S
C252 C255 1.530 1_545 S
C253 C248 1.304 . S
C253 C252 1.339 . S
C253 H314 0.930 1_545 S
C254 C250 1.567 . S
C254 H315 0.961 . S
C254 H316 0.960 . S
C254 H317 0.958 . S
C255 C252 1.530 1_565 S
C255 H318 0.961 . S
C255 H319 0.960 . S
C255 H320 0.960 . S
C256 C257 1.530 . S
C256 H322 0.961 . S
C256 H323 0.961 . S
C256 H324 0.959 . S
C257 C256 1.530 . S
C257 O285 1.412 . S
C257 H321 0.980 . S
C258 C259 1.288 . S
C258 C263 1.377 . S
C258 O285 1.393 . S
C259 C258 1.288 . S
C259 C260 1.369 . S
C259 H325 0.932 . S
C260 C259 1.369 . S
C260 C261 1.398 . S
C260 C264 1.527 . S
C261 C260 1.398 . S
C261 C262 1.380 . S
C261 C275 1.497 . S
C262 C261 1.380 . S
C262 C263 1.383 . S
C262 C265 1.603 1_545 S
C263 C258 1.377 . S
C263 C262 1.383 . S
C263 H326 0.929 . S
C264 C260 1.527 . S
C264 H327 0.961 . S
C264 H328 0.959 . S
C264 H329 0.959 . S
C265 C262 1.603 1_565 S
C265 H330 0.960 . S
C265 H331 0.962 . S
C265 H332 0.961 . S
C266 C233 1.587 . S
C266 C267 1.360 . S
C266 C279 1.412 . S
C267 C266 1.360 . S
C267 C268 1.365 . S
C267 H333 0.929 . S
C268 C243 1.553 . S
C268 C267 1.365 . S
C268 C269 1.404 . S
C269 C268 1.404 . S
C269 C270 1.395 . S
C269 C280 1.451 . S
C270 C269 1.395 . S
C270 C271 1.322 1_554 S
C270 H334 0.930 . S
C271 C270 1.322 1_556 S
C271 C272 1.459 . S
C271 H335 0.929 . S
C272 C271 1.459 . S
C272 C273 1.445 1_565 S
C272 C281 1.395 . S
C273 C251 1.432 . S
C273 C272 1.445 1_545 S
C273 C274 1.370 . S
C274 C273 1.370 . S
C274 C275 1.438 . S
C274 H336 0.930 . S
C275 C261 1.497 . S
C275 C274 1.438 . S
C275 C276 1.360 . S
C276 C275 1.360 . S
C276 C277 1.422 . S
C276 C281 1.446 1_545 S
C277 C276 1.422 . S
C277 C278 1.314 1_546 S
C277 H337 0.943 . S
C278 C277 1.314 1_564 S
C278 C279 1.455 . S
C278 H338 0.930 . S
C279 C266 1.412 . S
C279 C278 1.455 . S
C279 C280 1.331 . S
C280 C269 1.451 . S
C280 C279 1.331 . S
C280 C281 1.497 1_554 S
C281 C272 1.395 . S
C281 C276 1.446 1_565 S
C281 C280 1.497 1_556 S
C282 C283 1.582 . S
C282 H339 0.962 . S
C282 H340 0.959 . S
C282 H341 0.958 . S
C283 C282 1.582 . S
C283 O286 1.458 . S
C283 H312 0.980 . S
O284 C229 1.426 . S
O284 C230 1.334 . S
O285 C257 1.412 . S
O285 C258 1.393 . S
O286 C248 1.435 . S
O286 C283 1.458 . S
O287 C239 1.468 . S
O287 C240 1.408 . S
H288 C229 0.980 . S
H289 C228 0.959 . S
H290 C228 0.959 . S
H291 C228 0.960 . S
H292 C231 0.929 . S
H293 C235 0.929 . S
H294 C236 0.959 . S
H295 C236 0.961 . S
H296 C236 0.961 . S
H297 C237 0.960 . S
H298 C237 0.960 1_565 S
H299 C237 0.961 . S
H300 C239 0.980 . S
H301 C238 0.961 . S
H302 C238 0.960 . S
H303 C238 0.959 . S
H304 C241 0.930 . S
H305 C245 0.931 . S
H306 C246 0.959 . S
H307 C246 0.961 . S
H308 C246 0.959 . S
H309 C247 0.960 . S
H310 C247 0.960 . S
H311 C247 0.960 . S
H312 C283 0.980 . S
H313 C249 0.930 . S
H314 C253 0.930 1_565 S
H315 C254 0.961 . S
H316 C254 0.960 . S
H317 C254 0.958 . S
H318 C255 0.961 . S
H319 C255 0.960 . S
H320 C255 0.960 . S
H321 C257 0.980 . S
H322 C256 0.961 . S
H323 C256 0.961 . S
H324 C256 0.959 . S
H325 C259 0.932 . S
H326 C263 0.929 . S
H327 C264 0.961 . S
H328 C264 0.959 . S
H329 C264 0.959 . S
H330 C265 0.960 . S
H331 C265 0.962 . S
H332 C265 0.961 . S
H333 C267 0.929 . S
H334 C270 0.930 . S
H335 C271 0.929 . S
H336 C274 0.930 . S
H337 C277 0.943 . S
H338 C278 0.930 . S
H339 C282 0.962 . S
H340 C282 0.959 . S
H341 C282 0.958 . S
C342 C343 1.560 . S
C342 H403 0.959 . S
C342 H404 0.959 . S
C342 H405 0.960 . S
C343 C342 1.560 . S
C343 O398 1.426 . S
C343 H402 0.980 . S
C344 C345 1.407 . S
C344 C349 1.418 . S
C344 O398 1.334 . S
C345 C344 1.407 . S
C345 C346 1.360 . S
C345 H406 0.929 . S
C346 C345 1.360 . S
C346 C347 1.401 . S
C346 C350 1.527 . S
C347 C346 1.401 . S
C347 C348 1.405 . S
C347 C380 1.587 . S
C348 C347 1.405 . S
C348 C349 1.332 . S
C348 C351 1.496 . S
C349 C344 1.418 . S
C349 C348 1.332 . S
C349 H407 0.929 . S
C350 C346 1.527 . S
C350 H408 0.959 . S
C350 H409 0.961 . S
C350 H410 0.961 . S
C351 C348 1.496 . S
C351 H411 0.960 . S
C351 H412 0.960 . S
C351 H413 0.961 . S
C352 C353 1.517 . S
C352 H415 0.961 . S
C352 H416 0.960 . S
C352 H417 0.959 . S
C353 C352 1.517 . S
C353 O401 1.468 . S
C353 H414 0.980 . S
C354 C355 1.349 . S
C354 C359 1.367 . S
C354 O401 1.408 . S
C355 C354 1.349 . S
C355 C356 1.407 . S
C355 H418 0.930 . S
C356 C355 1.407 . S
C356 C357 1.449 . S
C356 C360 1.535 . S
C357 C356 1.449 . S
C357 C358 1.384 . S
C357 C382 1.553 . S
C358 C357 1.384 . S
C358 C359 1.364 . S
C358 C361 1.450 . S
C359 C354 1.367 . S
C359 C358 1.364 . S
C359 H419 0.931 . S
C360 C356 1.535 . S
C360 H420 0.959 . S
C360 H421 0.961 . S
C360 H422 0.959 . S
C361 C358 1.450 . S
C361 H423 0.960 . S
C361 H424 0.960 . S
C361 H425 0.960 . S
C362 C363 1.309 . S
C362 C367 1.304 . S
C362 O400 1.435 . S
C363 C362 1.309 . S
C363 C364 1.476 . S
C363 H427 0.930 . S
C364 C363 1.476 . S
C364 C365 1.400 . S
C364 C368 1.567 . S
C365 C364 1.400 . S
C365 C366 1.373 . S
C365 C387 1.432 . S
C366 C365 1.373 . S
C366 C367 1.339 . S
C366 C369 1.530 . S
C367 C362 1.304 . S
C367 C366 1.339 . S
C367 H428 0.930 . S
C368 C364 1.567 . S
C368 H429 0.961 . S
C368 H430 0.960 . S
C368 H431 0.958 . S
C369 C366 1.530 . S
C369 H432 0.961 . S
C369 H433 0.960 . S
C369 H434 0.960 . S
C370 C371 1.530 . S
C370 H436 0.961 1_545 S
C370 H437 0.961 . S
C370 H438 0.959 . S
C371 C370 1.530 . S
C371 O399 1.412 . S
C371 H435 0.980 . S
C372 C373 1.288 . S
C372 C377 1.377 . S
C372 O399 1.393 . S
C373 C372 1.288 . S
C373 C374 1.369 . S
C373 H439 0.932 . S
C374 C373 1.369 . S
C374 C375 1.398 . S
C374 C378 1.527 . S
C375 C374 1.398 . S
C375 C376 1.380 . S
C375 C389 1.497 . S
C376 C375 1.380 . S
C376 C377 1.383 . S
C376 C379 1.603 . S
C377 C372 1.377 . S
C377 C376 1.383 . S
C377 H440 0.929 . S
C378 C374 1.527 . S
C378 H441 0.961 . S
C378 H442 0.959 . S
C378 H443 0.959 . S
C379 C376 1.603 . S
C379 H444 0.960 . S
C379 H445 0.962 . S
C379 H446 0.961 . S
C380 C347 1.587 . S
C380 C381 1.360 . S
C380 C393 1.412 . S
C381 C380 1.360 . S
C381 C382 1.365 . S
C381 H447 0.929 . S
C382 C357 1.553 . S
C382 C381 1.365 . S
C382 C383 1.404 . S
C383 C382 1.404 . S
C383 C384 1.395 . S
C383 C394 1.451 . S
C384 C383 1.395 . S
C384 C385 1.322 . S
C384 H448 0.930 . S
C385 C384 1.322 . S
C385 C386 1.459 . S
C385 H449 0.929 . S
C386 C385 1.459 . S
C386 C387 1.445 . S
C386 C395 1.395 . S
C387 C365 1.432 . S
C387 C386 1.445 . S
C387 C388 1.370 . S
C388 C387 1.370 . S
C388 C389 1.438 . S
C388 H450 0.930 . S
C389 C375 1.497 . S
C389 C388 1.438 . S
C389 C390 1.360 . S
C390 C389 1.360 . S
C390 C391 1.401 . S
C390 C395 1.446 . S
C391 C390 1.401 . S
C391 C392 1.347 . S
C391 H451 0.929 . S
C392 C391 1.347 . S
C392 C393 1.455 . S
C392 H452 0.930 . S
C393 C380 1.412 . S
C393 C392 1.455 . S
C393 C394 1.331 . S
C394 C383 1.451 . S
C394 C393 1.331 . S
C394 C395 1.497 . S
C395 C386 1.395 . S
C395 C390 1.446 . S
C395 C394 1.497 . S
C396 C397 1.582 . S
C396 H453 0.962 . S
C396 H454 0.959 . S
C396 H455 0.958 . S
C397 C396 1.582 . S
C397 O400 1.458 . S
C397 H426 0.980 . S
O398 C343 1.426 . S
O398 C344 1.334 . S
O399 C371 1.412 . S
O399 C372 1.393 . S
O400 C362 1.435 . S
O400 C397 1.458 . S
O401 C353 1.468 . S
O401 C354 1.408 . S
H402 C343 0.980 . S
H403 C342 0.959 . S
H404 C342 0.959 . S
H405 C342 0.960 . S
H406 C345 0.929 . S
H407 C349 0.929 . S
H408 C350 0.959 . S
H409 C350 0.961 . S
H410 C350 0.961 . S
H411 C351 0.960 . S
H412 C351 0.960 . S
H413 C351 0.961 . S
H414 C353 0.980 . S
H415 C352 0.961 . S
H416 C352 0.960 . S
H417 C352 0.959 . S
H418 C355 0.930 . S
H419 C359 0.931 . S
H420 C360 0.959 . S
H421 C360 0.961 . S
H422 C360 0.959 . S
H423 C361 0.960 . S
H424 C361 0.960 . S
H425 C361 0.960 . S
H426 C397 0.980 . S
H427 C363 0.930 . S
H428 C367 0.930 . S
H429 C368 0.961 . S
H430 C368 0.960 . S
H431 C368 0.958 . S
H432 C369 0.961 . S
H433 C369 0.960 . S
H434 C369 0.960 . S
H435 C371 0.980 . S
H436 C370 0.961 1_565 S
H437 C370 0.961 . S
H438 C370 0.959 . S
H439 C373 0.932 . S
H440 C377 0.929 . S
H441 C378 0.961 . S
H442 C378 0.959 . S
H443 C378 0.959 . S
H444 C379 0.960 . S
H445 C379 0.962 . S
H446 C379 0.961 . S
H447 C381 0.929 . S
H448 C384 0.930 . S
H449 C385 0.929 . S
H450 C388 0.930 . S
H451 C391 0.929 . S
H452 C392 0.930 . S
H453 C396 0.962 . S
H454 C396 0.959 . S
H455 C396 0.958 . S
C456 C457 1.560 . S
C456 H517 0.959 . S
C456 H518 0.959 . S
C456 H519 0.960 . S
C457 C456 1.560 . S
C457 O512 1.426 . S
C457 H516 0.980 . S
C458 C459 1.407 . S
C458 C463 1.418 . S
C458 O512 1.334 . S
C459 C458 1.407 . S
C459 C460 1.360 . S
C459 H520 0.929 . S
C460 C459 1.360 . S
C460 C461 1.401 . S
C460 C464 1.527 . S
C461 C460 1.401 . S
C461 C462 1.405 . S
C461 C494 1.587 . S
C462 C461 1.405 . S
C462 C463 1.332 . S
C462 C465 1.496 . S
C463 C458 1.418 . S
C463 C462 1.332 . S
C463 H521 0.929 . S
C464 C460 1.527 . S
C464 H522 0.959 . S
C464 H523 0.961 . S
C464 H524 0.961 . S
C465 C462 1.496 . S
C465 H525 0.960 . S
C465 H526 0.960 . S
C465 H527 0.961 . S
C466 C467 1.517 . S
C466 H529 0.961 1_545 S
C466 H530 0.960 . S
C466 H531 0.959 1_545 S
C467 C466 1.517 . S
C467 O515 1.468 . S
C467 H528 0.980 . S
C468 C469 1.349 . S
C468 C473 1.367 . S
C468 O515 1.408 . S
C469 C468 1.349 . S
C469 C470 1.407 . S
C469 H532 0.930 . S
C470 C469 1.407 . S
C470 C471 1.449 . S
C470 C474 1.535 . S
C471 C470 1.449 . S
C471 C472 1.384 . S
C471 C496 1.553 . S
C472 C471 1.384 . S
C472 C473 1.364 . S
C472 C475 1.450 . S
C473 C468 1.367 . S
C473 C472 1.364 . S
C473 H533 0.931 . S
C474 C470 1.535 . S
C474 H534 0.959 . S
C474 H535 0.961 . S
C474 H536 0.959 . S
C475 C472 1.450 . S
C475 H537 0.960 . S
C475 H538 0.960 . S
C475 H539 0.960 . S
C476 C477 1.309 . S
C476 C481 1.304 . S
C476 O514 1.435 . S
C477 C476 1.309 . S
C477 C478 1.476 . S
C477 H541 0.930 . S
C478 C477 1.476 . S
C478 C479 1.400 . S
C478 C482 1.567 . S
C479 C478 1.400 . S
C479 C480 1.373 . S
C479 C501 1.432 . S
C480 C479 1.373 . S
C480 C481 1.339 . S
C480 C483 1.530 . S
C481 C476 1.304 . S
C481 C480 1.339 . S
C481 H542 0.930 . S
C482 C478 1.567 . S
C482 H543 0.961 . S
C482 H544 0.960 . S
C482 H545 0.958 . S
C483 C480 1.530 . S
C483 H546 0.961 . S
C483 H547 0.960 . S
C483 H548 0.960 . S
C484 C485 1.530 . S
C484 H550 0.961 . S
C484 H551 0.961 . S
C484 H552 0.959 . S
C485 C484 1.530 . S
C485 O513 1.412 . S
C485 H549 0.980 . S
C486 C487 1.288 . S
C486 C491 1.377 . S
C486 O513 1.393 . S
C487 C486 1.288 . S
C487 C488 1.369 . S
C487 H553 0.932 . S
C488 C487 1.369 . S
C488 C489 1.398 . S
C488 C492 1.527 . S
C489 C488 1.398 . S
C489 C490 1.380 . S
C489 C503 1.497 . S
C490 C489 1.380 . S
C490 C491 1.383 . S
C490 C493 1.603 . S
C491 C486 1.377 . S
C491 C490 1.383 . S
C491 H554 0.929 . S
C492 C488 1.527 . S
C492 H555 0.961 . S
C492 H556 0.959 . S
C492 H557 0.959 . S
C493 C490 1.603 . S
C493 H558 0.960 . S
C493 H559 0.962 . S
C493 H560 0.961 . S
C494 C461 1.587 . S
C494 C495 1.360 . S
C494 C507 1.412 . S
C495 C494 1.360 . S
C495 C496 1.365 . S
C495 H561 0.929 . S
C496 C471 1.553 . S
C496 C495 1.365 . S
C496 C497 1.404 . S
C497 C496 1.404 . S
C497 C498 1.395 . S
C497 C508 1.451 . S
C498 C497 1.395 . S
C498 C499 1.322 . S
C498 H562 0.930 . S
C499 C498 1.322 . S
C499 C500 1.459 . S
C499 H563 0.929 . S
C500 C499 1.459 . S
C500 C501 1.445 . S
C500 C509 1.395 . S
C501 C479 1.432 . S
C501 C500 1.445 . S
C501 C502 1.370 . S
C502 C501 1.370 . S
C502 C503 1.438 . S
C502 H564 0.930 . S
C503 C489 1.497 . S
C503 C502 1.438 . S
C503 C504 1.360 . S
C504 C503 1.360 . S
C504 C505 1.401 . S
C504 C509 1.446 . S
C505 C504 1.401 . S
C505 C506 1.347 . S
C505 H565 0.929 . S
C506 C505 1.347 . S
C506 C507 1.455 . S
C506 H566 0.930 . S
C507 C494 1.412 . S
C507 C506 1.455 . S
C507 C508 1.331 . S
C508 C497 1.451 . S
C508 C507 1.331 . S
C508 C509 1.497 . S
C509 C500 1.395 . S
C509 C504 1.446 . S
C509 C508 1.497 . S
C510 C511 1.582 1_565 S
C510 H567 0.962 . S
C510 H568 0.959 . S
C510 H569 0.958 1_565 S
C511 C510 1.582 1_545 S
C511 O514 1.458 . S
C511 H540 0.980 . S
O512 C457 1.426 . S
O512 C458 1.334 . S
O513 C485 1.412 . S
O513 C486 1.393 . S
O514 C476 1.435 . S
O514 C511 1.458 . S
O515 C467 1.468 . S
O515 C468 1.408 . S
H516 C457 0.980 . S
H517 C456 0.959 . S
H518 C456 0.959 . S
H519 C456 0.960 . S
H520 C459 0.929 . S
H521 C463 0.929 . S
H522 C464 0.959 . S
H523 C464 0.961 . S
H524 C464 0.961 . S
H525 C465 0.960 . S
H526 C465 0.960 . S
H527 C465 0.961 . S
H528 C467 0.980 . S
H529 C466 0.961 1_565 S
H530 C466 0.960 . S
H531 C466 0.959 1_565 S
H532 C469 0.930 . S
H533 C473 0.931 . S
H534 C474 0.959 . S
H535 C474 0.961 . S
H536 C474 0.959 . S
H537 C475 0.960 . S
H538 C475 0.960 . S
H539 C475 0.960 . S
H540 C511 0.980 . S
H541 C477 0.930 . S
H542 C481 0.930 . S
H543 C482 0.961 . S
H544 C482 0.960 . S
H545 C482 0.958 . S
H546 C483 0.961 . S
H547 C483 0.960 . S
H548 C483 0.960 . S
H549 C485 0.980 . S
H550 C484 0.961 . S
H551 C484 0.961 . S
H552 C484 0.959 . S
H553 C487 0.932 . S
H554 C491 0.929 . S
H555 C492 0.961 . S
H556 C492 0.959 . S
H557 C492 0.959 . S
H558 C493 0.960 . S
H559 C493 0.962 . S
H560 C493 0.961 . S
H561 C495 0.929 . S
H562 C498 0.930 . S
H563 C499 0.929 . S
H564 C502 0.930 . S
H565 C505 0.929 . S
H566 C506 0.930 . S
H567 C510 0.962 . S
H568 C510 0.959 . S
H569 C510 0.958 1_545 S
C570 C571 1.560 . S
C570 H631 0.959 . S
C570 H632 0.959 . S
C570 H633 0.960 . S
C571 C570 1.560 . S
C571 O626 1.426 . S
C571 H630 0.980 . S
C572 C573 1.407 . S
C572 C577 1.418 . S
C572 O626 1.334 . S
C573 C572 1.407 . S
C573 C574 1.360 . S
C573 H634 0.929 . S
C574 C573 1.360 . S
C574 C575 1.401 . S
C574 C578 1.527 . S
C575 C574 1.401 . S
C575 C576 1.405 . S
C575 C608 1.587 . S
C576 C575 1.405 . S
C576 C577 1.332 . S
C576 C579 1.496 . S
C577 C572 1.418 . S
C577 C576 1.332 . S
C577 H635 0.929 . S
C578 C574 1.527 . S
C578 H636 0.959 . S
C578 H637 0.961 . S
C578 H638 0.961 . S
C579 C576 1.496 . S
C579 H639 0.960 . S
C579 H640 0.960 . S
C579 H641 0.961 . S
C580 C581 1.517 1_545 S
C580 H643 0.961 . S
C580 H644 0.960 . S
C580 H645 0.959 . S
C581 C580 1.517 1_565 S
C581 O629 1.468 . S
C581 H642 0.980 . S
C582 C583 1.349 . S
C582 C587 1.367 . S
C582 O629 1.408 . S
C583 C582 1.349 . S
C583 C584 1.407 . S
C583 H646 0.930 . S
C584 C583 1.407 . S
C584 C585 1.449 . S
C584 C588 1.535 . S
C585 C584 1.449 . S
C585 C586 1.384 . S
C585 C610 1.553 . S
C586 C585 1.384 . S
C586 C587 1.364 . S
C586 C589 1.450 . S
C587 C582 1.367 . S
C587 C586 1.364 . S
C587 H647 0.931 . S
C588 C584 1.535 . S
C588 H648 0.959 . S
C588 H649 0.961 . S
C588 H650 0.959 . S
C589 C586 1.450 . S
C589 H651 0.960 . S
C589 H652 0.960 . S
C589 H653 0.960 . S
C590 C591 1.309 . S
C590 C595 1.304 . S
C590 O628 1.435 . S
C591 C590 1.309 . S
C591 C592 1.476 . S
C591 H655 0.930 . S
C592 C591 1.476 . S
C592 C593 1.400 . S
C592 C596 1.567 . S
C593 C592 1.400 . S
C593 C594 1.373 . S
C593 C615 1.432 . S
C594 C593 1.373 . S
C594 C595 1.339 . S
C594 C597 1.530 . S
C595 C590 1.304 . S
C595 C594 1.339 . S
C595 H656 0.930 . S
C596 C592 1.567 . S
C596 H657 0.961 . S
C596 H658 0.960 . S
C596 H659 0.958 . S
C597 C594 1.530 . S
C597 H660 0.961 . S
C597 H661 0.960 . S
C597 H662 0.960 . S
C598 C599 1.530 . S
C598 H664 0.961 . S
C598 H665 0.961 . S
C598 H666 0.959 . S
C599 C598 1.530 . S
C599 O627 1.412 . S
C599 H663 0.980 . S
C600 C601 1.288 . S
C600 C605 1.377 . S
C600 O627 1.393 . S
C601 C600 1.288 . S
C601 C602 1.369 . S
C601 H667 0.932 . S
C602 C601 1.369 . S
C602 C603 1.398 . S
C602 C606 1.527 . S
C603 C602 1.398 . S
C603 C604 1.380 . S
C603 C617 1.497 . S
C604 C603 1.380 . S
C604 C605 1.383 . S
C604 C607 1.603 . S
C605 C600 1.377 . S
C605 C604 1.383 . S
C605 H668 0.929 . S
C606 C602 1.527 . S
C606 H669 0.961 . S
C606 H670 0.959 . S
C606 H671 0.959 . S
C607 C604 1.603 . S
C607 H672 0.960 . S
C607 H673 0.962 . S
C607 H674 0.961 . S
C608 C575 1.587 . S
C608 C609 1.360 . S
C608 C621 1.412 . S
C609 C608 1.360 . S
C609 C610 1.365 . S
C609 H675 0.929 . S
C610 C585 1.553 . S
C610 C609 1.365 . S
C610 C611 1.404 . S
C611 C610 1.404 . S
C611 C612 1.395 . S
C611 C622 1.451 . S
C612 C611 1.395 . S
C612 C613 1.322 . S
C612 H676 0.930 . S
C613 C612 1.322 . S
C613 C614 1.459 . S
C613 H677 0.929 . S
C614 C613 1.459 . S
C614 C615 1.445 . S
C614 C623 1.395 . S
C615 C593 1.432 . S
C615 C614 1.445 . S
C615 C616 1.370 . S
C616 C615 1.370 . S
C616 C617 1.438 . S
C616 H678 0.930 . S
C617 C603 1.497 . S
C617 C616 1.438 . S
C617 C618 1.360 . S
C618 C617 1.360 . S
C618 C619 1.401 . S
C618 C623 1.446 . S
C619 C618 1.401 . S
C619 C620 1.347 . S
C619 H679 0.929 . S
C620 C619 1.347 . S
C620 C621 1.455 . S
C620 H680 0.930 . S
C621 C608 1.412 . S
C621 C620 1.455 . S
C621 C622 1.331 . S
C622 C611 1.451 . S
C622 C621 1.331 . S
C622 C623 1.497 . S
C623 C614 1.395 . S
C623 C618 1.446 . S
C623 C622 1.497 . S
C624 C625 1.582 1_545 S
C624 H681 0.962 . S
C624 H682 0.959 . S
C624 H683 0.958 . S
C625 C624 1.582 1_565 S
C625 O628 1.458 . S
C625 H654 0.980 . S
O626 C571 1.426 . S
O626 C572 1.334 . S
O627 C599 1.412 . S
O627 C600 1.393 . S
O628 C590 1.435 . S
O628 C625 1.458 . S
O629 C581 1.468 . S
O629 C582 1.408 . S
H630 C571 0.980 . S
H631 C570 0.959 . S
H632 C570 0.959 . S
H633 C570 0.960 . S
H634 C573 0.929 . S
H635 C577 0.929 . S
H636 C578 0.959 . S
H637 C578 0.961 . S
H638 C578 0.961 . S
H639 C579 0.960 . S
H640 C579 0.960 . S
H641 C579 0.961 . S
H642 C581 0.980 . S
H643 C580 0.961 . S
H644 C580 0.960 . S
H645 C580 0.959 . S
H646 C583 0.930 . S
H647 C587 0.931 . S
H648 C588 0.959 . S
H649 C588 0.961 . S
H650 C588 0.959 . S
H651 C589 0.960 . S
H652 C589 0.960 . S
H653 C589 0.960 . S
H654 C625 0.980 . S
H655 C591 0.930 . S
H656 C595 0.930 . S
H657 C596 0.961 . S
H658 C596 0.960 . S
H659 C596 0.958 . S
H660 C597 0.961 . S
H661 C597 0.960 . S
H662 C597 0.960 . S
H663 C599 0.980 . S
H664 C598 0.961 . S
H665 C598 0.961 . S
H666 C598 0.959 . S
H667 C601 0.932 . S
H668 C605 0.929 . S
H669 C606 0.961 . S
H670 C606 0.959 . S
H671 C606 0.959 . S
H672 C607 0.960 . S
H673 C607 0.962 . S
H674 C607 0.961 . S
H675 C609 0.929 . S
H676 C612 0.930 . S
H677 C613 0.929 . S
H678 C616 0.930 . S
H679 C619 0.929 . S
H680 C620 0.930 . S
H681 C624 0.962 . S
H682 C624 0.959 . S
H683 C624 0.958 . S
C684 C685 1.560 . S
C684 H745 0.959 . S
C684 H746 0.959 . S
C684 H747 0.960 . S
C685 C684 1.560 . S
C685 O740 1.426 . S
C685 H744 0.980 . S
C686 C687 1.407 . S
C686 C691 1.418 . S
C686 O740 1.334 . S
C687 C686 1.407 . S
C687 C688 1.360 . S
C687 H748 0.929 . S
C688 C687 1.360 . S
C688 C689 1.401 . S
C688 C692 1.527 . S
C689 C688 1.401 . S
C689 C690 1.405 . S
C689 C722 1.587 . S
C690 C689 1.405 . S
C690 C691 1.332 . S
C690 C693 1.496 . S
C691 C686 1.418 . S
C691 C690 1.332 . S
C691 H749 0.929 . S
C692 C688 1.527 . S
C692 H750 0.959 . S
C692 H751 0.961 . S
C692 H752 0.961 . S
C693 C690 1.496 . S
C693 H753 0.960 . S
C693 H754 0.960 . S
C693 H755 0.961 . S
C694 C695 1.517 . S
C694 H757 0.961 . S
C694 H758 0.960 . S
C694 H759 0.959 . S
C695 C694 1.517 . S
C695 O743 1.468 . S
C695 H756 0.980 . S
C696 C697 1.349 . S
C696 C701 1.367 . S
C696 O743 1.408 . S
C697 C696 1.349 . S
C697 C698 1.407 . S
C697 H760 0.930 . S
C698 C697 1.407 . S
C698 C699 1.449 . S
C698 C702 1.535 . S
C699 C698 1.449 . S
C699 C700 1.384 . S
C699 C724 1.553 . S
C700 C699 1.384 . S
C700 C701 1.364 . S
C700 C703 1.450 . S
C701 C696 1.367 . S
C701 C700 1.364 . S
C701 H761 0.931 . S
C702 C698 1.535 . S
C702 H762 0.959 . S
C702 H763 0.961 . S
C702 H764 0.959 . S
C703 C700 1.450 . S
C703 H765 0.960 . S
C703 H766 0.960 . S
C703 H767 0.960 . S
C704 C705 1.309 . S
C704 C709 1.304 . S
C704 O742 1.435 . S
C705 C704 1.309 . S
C705 C706 1.476 . S
C705 H769 0.930 . S
C706 C705 1.476 . S
C706 C707 1.400 . S
C706 C710 1.567 . S
C707 C706 1.400 . S
C707 C708 1.373 . S
C707 C729 1.432 . S
C708 C707 1.373 . S
C708 C709 1.339 . S
C708 C711 1.530 . S
C709 C704 1.304 . S
C709 C708 1.339 . S
C709 H770 0.930 . S
C710 C706 1.567 . S
C710 H771 0.961 . S
C710 H772 0.960 . S
C710 H773 0.958 . S
C711 C708 1.530 . S
C711 H774 0.961 . S
C711 H775 0.960 1_556 S
C711 H776 0.960 . S
C712 C713 1.530 . S
C712 H778 0.961 . S
C712 H779 0.961 . S
C712 H780 0.959 . S
C713 C712 1.530 . S
C713 O741 1.412 . S
C713 H777 0.980 . S
C714 C715 1.288 . S
C714 C719 1.377 . S
C714 O741 1.393 . S
C715 C714 1.288 . S
C715 C716 1.369 . S
C715 H781 0.932 . S
C716 C715 1.369 . S
C716 C717 1.398 . S
C716 C720 1.527 . S
C717 C716 1.398 . S
C717 C718 1.380 . S
C717 C731 1.497 . S
C718 C717 1.380 . S
C718 C719 1.383 . S
C718 C721 1.603 . S
C719 C714 1.377 . S
C719 C718 1.383 . S
C719 H782 0.929 . S
C720 C716 1.527 . S
C720 H783 0.961 . S
C720 H784 0.959 . S
C720 H785 0.959 . S
C721 C718 1.603 . S
C721 H786 0.960 . S
C721 H787 0.962 . S
C721 H788 0.961 . S
C722 C689 1.587 . S
C722 C723 1.360 . S
C722 C735 1.412 . S
C723 C722 1.360 . S
C723 C724 1.365 . S
C723 H789 0.929 . S
C724 C699 1.553 . S
C724 C723 1.365 . S
C724 C725 1.404 . S
C725 C724 1.404 . S
C725 C726 1.395 . S
C725 C736 1.451 . S
C726 C725 1.395 . S
C726 C727 1.322 . S
C726 H790 0.930 . S
C727 C726 1.322 . S
C727 C728 1.462 1_554 S
C727 H791 0.929 . S
C728 C727 1.462 1_556 S
C728 C729 1.439 . S
C728 C737 1.398 1_556 S
C729 C707 1.432 . S
C729 C728 1.439 . S
C729 C730 1.370 . S
C730 C729 1.370 . S
C730 C731 1.438 . S
C730 H792 0.930 . S
C731 C717 1.497 . S
C731 C730 1.438 . S
C731 C732 1.360 . S
C732 C731 1.360 . S
C732 C733 1.401 1_556 S
C732 C737 1.446 1_556 S
C733 C732 1.401 1_554 S
C733 C734 1.347 . S
C733 H793 0.929 1_554 S
C734 C733 1.347 . S
C734 C735 1.455 . S
C734 H794 0.930 . S
C735 C722 1.412 . S
C735 C734 1.455 . S
C735 C736 1.331 . S
C736 C725 1.451 . S
C736 C735 1.331 . S
C736 C737 1.497 . S
C737 C728 1.398 1_554 S
C737 C732 1.446 1_554 S
C737 C736 1.497 . S
C738 C739 1.582 . S
C738 H795 0.962 . S
C738 H796 0.959 . S
C738 H797 0.958 . S
C739 C738 1.582 . S
C739 O742 1.458 . S
C739 H768 0.980 . S
O740 C685 1.426 . S
O740 C686 1.334 . S
O741 C713 1.412 . S
O741 C714 1.393 . S
O742 C704 1.435 . S
O742 C739 1.458 . S
O743 C695 1.468 . S
O743 C696 1.408 . S
H744 C685 0.980 . S
H745 C684 0.959 . S
H746 C684 0.959 . S
H747 C684 0.960 . S
H748 C687 0.929 . S
H749 C691 0.929 . S
H750 C692 0.959 . S
H751 C692 0.961 . S
H752 C692 0.961 . S
H753 C693 0.960 . S
H754 C693 0.960 . S
H755 C693 0.961 . S
H756 C695 0.980 . S
H757 C694 0.961 . S
H758 C694 0.960 . S
H759 C694 0.959 . S
H760 C697 0.930 . S
H761 C701 0.931 . S
H762 C702 0.959 . S
H763 C702 0.961 . S
H764 C702 0.959 . S
H765 C703 0.960 . S
H766 C703 0.960 . S
H767 C703 0.960 . S
H768 C739 0.980 . S
H769 C705 0.930 . S
H770 C709 0.930 . S
H771 C710 0.961 . S
H772 C710 0.960 . S
H773 C710 0.958 . S
H774 C711 0.961 . S
H775 C711 0.960 1_554 S
H776 C711 0.960 . S
H777 C713 0.980 . S
H778 C712 0.961 . S
H779 C712 0.961 . S
H780 C712 0.959 . S
H781 C715 0.932 . S
H782 C719 0.929 . S
H783 C720 0.961 . S
H784 C720 0.959 . S
H785 C720 0.959 . S
H786 C721 0.960 . S
H787 C721 0.962 . S
H788 C721 0.961 . S
H789 C723 0.929 . S
H790 C726 0.930 . S
H791 C727 0.929 . S
H792 C730 0.930 . S
H793 C733 0.929 1_556 S
H794 C734 0.930 . S
H795 C738 0.962 . S
H796 C738 0.959 . S
H797 C738 0.958 . S
C798 C799 1.560 . S
C798 H859 0.959 . S
C798 H860 0.959 . S
C798 H861 0.960 . S
C799 C798 1.560 . S
C799 O854 1.426 . S
C799 H858 0.980 . S
C800 C801 1.407 . S
C800 C805 1.418 . S
C800 O854 1.334 . S
C801 C800 1.407 . S
C801 C802 1.360 . S
C801 H862 0.929 . S
C802 C801 1.360 . S
C802 C803 1.401 . S
C802 C806 1.527 . S
C803 C802 1.401 . S
C803 C804 1.405 . S
C803 C836 1.587 . S
C804 C803 1.405 . S
C804 C805 1.332 . S
C804 C807 1.496 . S
C805 C800 1.418 . S
C805 C804 1.332 . S
C805 H863 0.929 . S
C806 C802 1.527 . S
C806 H864 0.959 . S
C806 H865 0.961 . S
C806 H866 0.961 . S
C807 C804 1.496 . S
C807 H867 0.960 . S
C807 H868 0.960 . S
C807 H869 0.961 . S
C808 C809 1.517 . S
C808 H871 0.961 . S
C808 H872 0.960 . S
C808 H873 0.959 . S
C809 C808 1.517 . S
C809 O857 1.468 . S
C809 H870 0.980 . S
C810 C811 1.349 . S
C810 C815 1.367 . S
C810 O857 1.408 . S
C811 C810 1.349 . S
C811 C812 1.407 . S
C811 H874 0.930 . S
C812 C811 1.407 . S
C812 C813 1.449 . S
C812 C816 1.535 . S
C813 C812 1.449 . S
C813 C814 1.384 . S
C813 C838 1.553 . S
C814 C813 1.384 . S
C814 C815 1.364 . S
C814 C817 1.450 . S
C815 C810 1.367 . S
C815 C814 1.364 . S
C815 H875 0.931 . S
C816 C812 1.535 . S
C816 H876 0.959 . S
C816 H877 0.961 . S
C816 H878 0.959 . S
C817 C814 1.450 . S
C817 H879 0.960 . S
C817 H880 0.960 . S
C817 H881 0.960 . S
C818 C819 1.309 . S
C818 C823 1.304 . S
C818 O856 1.435 . S
C819 C818 1.309 . S
C819 C820 1.476 . S
C819 H883 0.930 . S
C820 C819 1.476 . S
C820 C821 1.400 . S
C820 C824 1.567 . S
C821 C820 1.400 . S
C821 C822 1.373 . S
C821 C843 1.432 . S
C822 C821 1.373 . S
C822 C823 1.339 . S
C822 C825 1.530 . S
C823 C818 1.304 . S
C823 C822 1.339 . S
C823 H884 0.930 . S
C824 C820 1.567 . S
C824 H885 0.961 . S
C824 H886 0.960 . S
C824 H887 0.958 . S
C825 C822 1.530 . S
C825 H888 0.961 . S
C825 H889 0.960 . S
C825 H890 0.960 . S
C826 C827 1.530 . S
C826 H892 0.961 . S
C826 H893 0.961 . S
C826 H894 0.959 . S
C827 C826 1.530 . S
C827 O855 1.412 . S
C827 H891 0.980 . S
C828 C829 1.288 . S
C828 C833 1.377 . S
C828 O855 1.393 . S
C829 C828 1.288 . S
C829 C830 1.369 . S
C829 H895 0.932 . S
C830 C829 1.369 . S
C830 C831 1.398 . S
C830 C834 1.527 . S
C831 C830 1.398 . S
C831 C832 1.380 . S
C831 C845 1.497 . S
C832 C831 1.380 . S
C832 C833 1.383 . S
C832 C835 1.603 . S
C833 C828 1.377 . S
C833 C832 1.383 . S
C833 H896 0.929 . S
C834 C830 1.527 . S
C834 H897 0.961 . S
C834 H898 0.959 . S
C834 H899 0.959 . S
C835 C832 1.603 . S
C835 H900 0.960 . S
C835 H901 0.962 . S
C835 H902 0.961 . S
C836 C803 1.587 . S
C836 C837 1.360 1_655 S
C836 C849 1.412 . S
C837 C836 1.360 1_455 S
C837 C838 1.365 . S
C837 H903 0.929 . S
C838 C813 1.553 . S
C838 C837 1.365 . S
C838 C839 1.404 . S
C839 C838 1.404 . S
C839 C840 1.395 . S
C839 C850 1.451 . S
C840 C839 1.395 . S
C840 C841 1.322 . S
C840 H904 0.930 . S
C841 C840 1.322 . S
C841 C842 1.459 . S
C841 H905 0.929 . S
C842 C841 1.459 . S
C842 C843 1.445 . S
C842 C851 1.395 . S
C843 C821 1.432 . S
C843 C842 1.445 . S
C843 C844 1.370 . S
C844 C843 1.370 . S
C844 C845 1.438 1_455 S
C844 H906 0.930 . S
C845 C831 1.497 . S
C845 C844 1.438 1_655 S
C845 C846 1.360 . S
C846 C845 1.360 . S
C846 C847 1.401 . S
C846 C851 1.446 1_655 S
C847 C846 1.401 . S
C847 C848 1.347 . S
C847 H907 0.929 . S
C848 C847 1.347 . S
C848 C849 1.455 . S
C848 H908 0.930 . S
C849 C836 1.412 . S
C849 C848 1.455 . S
C849 C850 1.331 1_655 S
C850 C839 1.451 . S
C850 C849 1.331 1_455 S
C850 C851 1.497 . S
C851 C842 1.395 . S
C851 C846 1.446 1_455 S
C851 C850 1.497 . S
C852 C853 1.582 . S
C852 H909 0.962 . S
C852 H910 0.959 . S
C852 H911 0.958 . S
C853 C852 1.582 . S
C853 O856 1.458 . S
C853 H882 0.980 . S
O854 C799 1.426 . S
O854 C800 1.334 . S
O855 C827 1.412 . S
O855 C828 1.393 . S
O856 C818 1.435 . S
O856 C853 1.458 . S
O857 C809 1.468 . S
O857 C810 1.408 . S
H858 C799 0.980 . S
H859 C798 0.959 . S
H860 C798 0.959 . S
H861 C798 0.960 . S
H862 C801 0.929 . S
H863 C805 0.929 . S
H864 C806 0.959 . S
H865 C806 0.961 . S
H866 C806 0.961 . S
H867 C807 0.960 . S
H868 C807 0.960 . S
H869 C807 0.961 . S
H870 C809 0.980 . S
H871 C808 0.961 . S
H872 C808 0.960 . S
H873 C808 0.959 . S
H874 C811 0.930 . S
H875 C815 0.931 . S
H876 C816 0.959 . S
H877 C816 0.961 . S
H878 C816 0.959 . S
H879 C817 0.960 . S
H880 C817 0.960 . S
H881 C817 0.960 . S
H882 C853 0.980 . S
H883 C819 0.930 . S
H884 C823 0.930 . S
H885 C824 0.961 . S
H886 C824 0.960 . S
H887 C824 0.958 . S
H888 C825 0.961 . S
H889 C825 0.960 . S
H890 C825 0.960 . S
H891 C827 0.980 . S
H892 C826 0.961 . S
H893 C826 0.961 . S
H894 C826 0.959 . S
H895 C829 0.932 . S
H896 C833 0.929 . S
H897 C834 0.961 . S
H898 C834 0.959 . S
H899 C834 0.959 . S
H900 C835 0.960 . S
H901 C835 0.962 . S
H902 C835 0.961 . S
H903 C837 0.929 . S
H904 C840 0.930 . S
H905 C841 0.929 . S
H906 C844 0.930 . S
H907 C847 0.929 . S
H908 C848 0.930 . S
H909 C852 0.962 . S
H910 C852 0.959 . S
H911 C852 0.958 . S
Fe912 O913 1.886 . S
Fe912 O916 1.715 1_455 S
Fe912 O921 2.077 . S
Fe912 O926 1.935 1_455 S
Fe912 O932 2.077 . S
Fe912 O941 1.935 1_455 S
O913 Fe912 1.886 . S
O913 Fe915 1.715 . S
Fe914 O916 1.886 . S
Fe914 O917 1.715 . S
Fe914 O924 1.935 . S
Fe914 O925 2.077 . S
Fe914 O931 1.935 . S
Fe914 O940 2.077 . S
Fe915 O913 1.715 . S
Fe915 O918 1.886 . S
Fe915 O922 1.935 . S
Fe915 O927 2.077 . S
Fe915 O933 1.935 . S
Fe915 O937 2.077 . S
O916 Fe912 1.715 1_655 S
O916 Fe914 1.886 . S
O917 Fe914 1.715 . S
O917 Fe919 1.886 1_655 S
O918 Fe915 1.886 . S
O918 Fe919 1.715 . S
Fe919 O917 1.886 1_455 S
Fe919 O918 1.715 . S
Fe919 O923 2.077 1_455 S
Fe919 O928 1.935 . S
Fe919 O930 2.077 1_455 S
Fe919 O938 1.935 . S
C920 O932 1.381 . S
C920 O933 1.421 . S
O921 Fe912 2.077 . S
O921 C934 1.381 . S
O922 Fe915 1.935 . S
O922 C934 1.421 . S
O923 Fe919 2.077 1_655 S
O923 C939 1.381 . S
O924 Fe914 1.935 . S
O924 C939 1.421 . S
O925 Fe914 2.077 . S
O925 C929 1.381 . S
O926 Fe912 1.935 1_655 S
O926 C929 1.421 . S
O927 Fe915 2.077 . S
O927 C935 1.381 . S
O928 Fe919 1.935 . S
O928 C935 1.421 . S
C929 O925 1.381 . S
C929 O926 1.421 . S
O930 Fe919 2.077 1_655 S
O930 C942 1.381 . S
O931 Fe914 1.935 . S
O931 C942 1.421 . S
O932 Fe912 2.077 . S
O932 C920 1.381 . S
O933 Fe915 1.935 . S
O933 C920 1.421 . S
C934 O921 1.381 . S
C934 O922 1.421 . S
C935 O927 1.381 . S
C935 O928 1.421 . S
C936 O937 1.381 . S
C936 O938 1.421 . S
O937 Fe915 2.077 . S
O937 C936 1.381 . S
O938 Fe919 1.935 . S
O938 C936 1.421 . S
C939 O923 1.381 . S
C939 O924 1.421 . S
O940 Fe914 2.077 . S
O940 C943 1.381 . S
O941 Fe912 1.935 1_655 S
O941 C943 1.421 . S
C942 O930 1.381 . S
C942 O931 1.421 . S
C943 O940 1.381 . S
C943 O941 1.421 . S
Fe944 O945 1.886 . S
Fe944 O948 1.715 . S
Fe944 O953 2.077 . S
Fe944 O958 1.935 . S
Fe944 O964 2.077 . S
Fe944 O973 1.935 . S
O945 Fe944 1.886 . S
O945 Fe947 1.715 . S
Fe946 O948 1.886 . S
Fe946 O949 1.715 . S
Fe946 O956 1.935 . S
Fe946 O957 2.077 . S
Fe946 O963 1.935 . S
Fe946 O972 2.077 . S
Fe947 O945 1.715 . S
Fe947 O950 1.886 . S
Fe947 O954 1.935 . S
Fe947 O959 2.077 . S
Fe947 O965 1.935 . S
Fe947 O969 2.077 . S
O948 Fe944 1.715 . S
O948 Fe946 1.886 . S
O949 Fe946 1.715 . S
O949 Fe951 1.886 . S
O950 Fe947 1.886 . S
O950 Fe951 1.715 . S
Fe951 O949 1.886 . S
Fe951 O950 1.715 . S
Fe951 O955 2.077 . S
Fe951 O960 1.935 . S
Fe951 O962 2.077 . S
Fe951 O970 1.935 . S
C952 O964 1.381 . S
C952 O965 1.421 . S
O953 Fe944 2.077 . S
O953 C966 1.381 . S
O954 Fe947 1.935 . S
O954 C966 1.421 . S
O955 Fe951 2.077 . S
O955 C971 1.381 . S
O956 Fe946 1.935 . S
O956 C971 1.421 . S
O957 Fe946 2.077 . S
O957 C961 1.381 . S
O958 Fe944 1.935 . S
O958 C961 1.421 . S
O959 Fe947 2.077 . S
O959 C967 1.381 . S
O960 Fe951 1.935 . S
O960 C967 1.421 . S
C961 O957 1.381 . S
C961 O958 1.421 . S
O962 Fe951 2.077 . S
O962 C974 1.381 . S
O963 Fe946 1.935 . S
O963 C974 1.421 . S
O964 Fe944 2.077 . S
O964 C952 1.381 . S
O965 Fe947 1.935 . S
O965 C952 1.421 . S
C966 O953 1.381 . S
C966 O954 1.421 . S
C967 O959 1.381 . S
C967 O960 1.421 . S
C968 O969 1.381 . S
C968 O970 1.421 . S
O969 Fe947 2.077 . S
O969 C968 1.381 . S
O970 Fe951 1.935 . S
O970 C968 1.421 . S
C971 O955 1.381 . S
C971 O956 1.421 . S
O972 Fe946 2.077 . S
O972 C975 1.381 . S
O973 Fe944 1.935 . S
O973 C975 1.421 . S
C974 O962 1.381 . S
C974 O963 1.421 . S
C975 O972 1.381 . S
C975 O973 1.421 . S
Fe976 O977 1.886 . S
Fe976 O980 1.715 . S
Fe976 O985 2.077 . S
Fe976 O990 1.935 . S
Fe976 O996 2.077 . S
Fe976 O1005 1.935 . S
O977 Fe976 1.886 . S
O977 Fe979 1.715 . S
Fe978 O980 1.886 . S
Fe978 O981 1.715 . S
Fe978 O988 1.935 . S
Fe978 O989 2.077 . S
Fe978 O995 1.935 . S
Fe978 O1004 2.077 . S
Fe979 O977 1.715 . S
Fe979 O982 1.886 . S
Fe979 O986 1.935 . S
Fe979 O991 2.077 . S
Fe979 O997 1.935 . S
Fe979 O1001 2.077 . S
O980 Fe976 1.715 . S
O980 Fe978 1.886 . S
O981 Fe978 1.715 . S
O981 Fe983 1.886 . S
O982 Fe979 1.886 . S
O982 Fe983 1.715 . S
Fe983 O981 1.886 . S
Fe983 O982 1.715 . S
Fe983 O987 2.077 . S
Fe983 O992 1.935 . S
Fe983 O994 2.077 . S
Fe983 O1002 1.935 . S
C984 O996 1.381 . S
C984 O997 1.421 . S
O985 Fe976 2.077 . S
O985 C998 1.381 . S
O986 Fe979 1.935 . S
O986 C998 1.421 . S
O987 Fe983 2.077 . S
O987 C1003 1.381 . S
O988 Fe978 1.935 . S
O988 C1003 1.421 . S
O989 Fe978 2.077 . S
O989 C993 1.381 . S
O990 Fe976 1.935 . S
O990 C993 1.421 . S
O991 Fe979 2.077 . S
O991 C999 1.381 . S
O992 Fe983 1.935 . S
O992 C999 1.421 . S
C993 O989 1.381 . S
C993 O990 1.421 . S
O994 Fe983 2.077 . S
O994 C1006 1.381 . S
O995 Fe978 1.935 . S
O995 C1006 1.421 . S
O996 Fe976 2.077 . S
O996 C984 1.381 . S
O997 Fe979 1.935 . S
O997 C984 1.421 . S
C998 O985 1.381 . S
C998 O986 1.421 . S
C999 O991 1.381 . S
C999 O992 1.421 . S
C1000 O1001 1.381 . S
C1000 O1002 1.421 . S
O1001 Fe979 2.077 . S
O1001 C1000 1.381 . S
O1002 Fe983 1.935 . S
O1002 C1000 1.421 . S
C1003 O987 1.381 . S
C1003 O988 1.421 . S
O1004 Fe978 2.077 . S
O1004 C1007 1.381 . S
O1005 Fe976 1.935 . S
O1005 C1007 1.421 . S
C1006 O994 1.381 . S
C1006 O995 1.421 . S
C1007 O1004 1.381 . S
C1007 O1005 1.421 . S
Fe1008 O1009 1.886 . S
Fe1008 O1012 1.715 . S
Fe1008 O1017 2.077 1_455 S
Fe1008 O1022 1.935 1_455 S
Fe1008 O1028 2.077 . S
Fe1008 O1037 1.935 . S
O1009 Fe1008 1.886 . S
O1009 Fe1011 1.715 . S
Fe1010 O1012 1.886 . S
Fe1010 O1013 1.715 . S
Fe1010 O1020 1.935 1_455 S
Fe1010 O1021 2.077 1_455 S
Fe1010 O1027 1.935 . S
Fe1010 O1036 2.077 . S
Fe1011 O1009 1.715 . S
Fe1011 O1014 1.886 . S
Fe1011 O1018 1.935 1_455 S
Fe1011 O1023 2.077 1_455 S
Fe1011 O1029 1.935 . S
Fe1011 O1033 2.077 . S
O1012 Fe1008 1.715 . S
O1012 Fe1010 1.886 . S
O1013 Fe1010 1.715 . S
O1013 Fe1015 1.886 . S
O1014 Fe1011 1.886 . S
O1014 Fe1015 1.715 . S
Fe1015 O1013 1.886 . S
Fe1015 O1014 1.715 . S
Fe1015 O1019 2.077 1_455 S
Fe1015 O1024 1.935 1_455 S
Fe1015 O1026 2.077 . S
Fe1015 O1034 1.935 . S
C1016 O1028 1.381 . S
C1016 O1029 1.421 . S
O1017 Fe1008 2.077 1_655 S
O1017 C1030 1.381 . S
O1018 Fe1011 1.935 1_655 S
O1018 C1030 1.421 . S
O1019 Fe1015 2.077 1_655 S
O1019 C1035 1.381 . S
O1020 Fe1010 1.935 1_655 S
O1020 C1035 1.421 . S
O1021 Fe1010 2.077 1_655 S
O1021 C1025 1.381 . S
O1022 Fe1008 1.935 1_655 S
O1022 C1025 1.421 . S
O1023 Fe1011 2.077 1_655 S
O1023 C1031 1.381 . S
O1024 Fe1015 1.935 1_655 S
O1024 C1031 1.421 . S
C1025 O1021 1.381 . S
C1025 O1022 1.421 . S
O1026 Fe1015 2.077 . S
O1026 C1038 1.381 . S
O1027 Fe1010 1.935 . S
O1027 C1038 1.421 . S
O1028 Fe1008 2.077 . S
O1028 C1016 1.381 . S
O1029 Fe1011 1.935 . S
O1029 C1016 1.421 . S
C1030 O1017 1.381 . S
C1030 O1018 1.421 . S
C1031 O1023 1.381 . S
C1031 O1024 1.421 . S
C1032 O1033 1.381 . S
C1032 O1034 1.421 . S
O1033 Fe1011 2.077 . S
O1033 C1032 1.381 . S
O1034 Fe1015 1.935 . S
O1034 C1032 1.421 . S
C1035 O1019 1.381 . S
C1035 O1020 1.421 . S
O1036 Fe1010 2.077 . S
O1036 C1039 1.381 . S
O1037 Fe1008 1.935 . S
O1037 C1039 1.421 . S
C1038 O1026 1.381 . S
C1038 O1027 1.421 . S
C1039 O1036 1.381 . S
C1039 O1037 1.421 . S
C1040 C1041 1.391 . S
C1040 C1042 1.394 . S
C1040 H1056 0.931 . S
C1041 C1040 1.391 . S
C1041 C1045 1.376 . S
C1042 C1040 1.394 . S
C1042 C1043 1.369 . S
C1042 C1046 1.531 . S
C1043 C1042 1.369 . S
C1043 C1044 1.410 . S
C1043 C1051 1.503 . S
C1044 C1043 1.410 . S
C1044 C1045 1.392 . S
C1044 C1047 1.511 . S
C1045 C1041 1.376 . S
C1045 C1044 1.392 . S
C1045 H1057 0.929 . S
C1046 C1042 1.531 . S
C1046 H1058 0.960 . S
C1046 H1059 0.962 . S
C1046 H1060 0.960 . S
C1047 C1044 1.511 . S
C1047 H1061 0.961 . S
C1047 H1062 0.961 . S
C1047 H1063 0.961 . S
C1048 C1049 1.370 . S
C1048 C1050 1.363 . S
C1048 H1064 0.931 . S
C1049 C1048 1.370 . S
C1049 C1053 1.408 . S
C1050 C1048 1.363 . S
C1050 C1051 1.370 . S
C1050 C1054 1.524 . S
C1051 C1043 1.503 . S
C1051 C1050 1.370 . S
C1051 C1052 1.403 . S
C1052 C1051 1.403 . S
C1052 C1053 1.404 . S
C1052 C1055 1.539 . S
C1053 C1049 1.408 . S
C1053 C1052 1.404 . S
C1053 H1065 0.930 . S
C1054 C1050 1.524 . S
C1054 H1066 0.956 . S
C1054 H1067 0.961 . S
C1054 H1068 0.961 . S
C1055 C1052 1.539 . S
C1055 H1069 0.958 . S
C1055 H1070 0.961 . S
C1055 H1071 0.960 . S
H1056 C1040 0.931 . S
H1057 C1045 0.929 . S
H1058 C1046 0.960 . S
H1059 C1046 0.962 . S
H1060 C1046 0.960 . S
H1061 C1047 0.961 . S
H1062 C1047 0.961 . S
H1063 C1047 0.961 . S
H1064 C1048 0.931 . S
H1065 C1053 0.930 . S
H1066 C1054 0.956 . S
H1067 C1054 0.961 . S
H1068 C1054 0.961 . S
H1069 C1055 0.958 . S
H1070 C1055 0.961 . S
H1071 C1055 0.960 . S
C1072 C1073 1.391 1_545 S
C1072 C1074 1.394 . S
C1072 H1088 0.931 . S
C1073 C1072 1.391 1_565 S
C1073 C1077 1.376 . S
C1074 C1072 1.394 . S
C1074 C1075 1.369 . S
C1074 C1078 1.531 . S
C1075 C1074 1.369 . S
C1075 C1076 1.410 . S
C1075 C1083 1.503 . S
C1076 C1075 1.410 . S
C1076 C1077 1.392 1_545 S
C1076 C1079 1.511 . S
C1077 C1073 1.376 . S
C1077 C1076 1.392 1_565 S
C1077 H1089 0.929 . S
C1078 C1074 1.531 . S
C1078 H1090 0.960 . S
C1078 H1091 0.962 . S
C1078 H1092 0.960 . S
C1079 C1076 1.511 . S
C1079 H1093 0.961 1_545 S
C1079 H1094 0.961 . S
C1079 H1095 0.961 . S
C1080 C1081 1.370 . S
C1080 C1082 1.363 . S
C1080 H1096 0.931 . S
C1081 C1080 1.370 . S
C1081 C1085 1.408 . S
C1082 C1080 1.363 . S
C1082 C1083 1.370 . S
C1082 C1086 1.524 . S
C1083 C1075 1.503 . S
C1083 C1082 1.370 . S
C1083 C1084 1.403 . S
C1084 C1083 1.403 . S
C1084 C1085 1.404 . S
C1084 C1087 1.539 . S
C1085 C1081 1.408 . S
C1085 C1084 1.404 . S
C1085 H1097 0.930 . S
C1086 C1082 1.524 . S
C1086 H1098 0.956 . S
C1086 H1099 0.961 . S
C1086 H1100 0.961 . S
C1087 C1084 1.539 . S
C1087 H1101 0.958 . S
C1087 H1102 0.961 . S
C1087 H1103 0.960 . S
H1088 C1072 0.931 . S
H1089 C1077 0.929 . S
H1090 C1078 0.960 . S
H1091 C1078 0.962 . S
H1092 C1078 0.960 . S
H1093 C1079 0.961 1_565 S
H1094 C1079 0.961 . S
H1095 C1079 0.961 . S
H1096 C1080 0.931 . S
H1097 C1085 0.930 . S
H1098 C1086 0.956 . S
H1099 C1086 0.961 . S
H1100 C1086 0.961 . S
H1101 C1087 0.958 . S
H1102 C1087 0.961 . S
H1103 C1087 0.960 . S
C1104 C1105 1.391 . S
C1104 C1106 1.394 . S
C1104 H1120 0.931 . S
C1105 C1104 1.391 . S
C1105 C1109 1.376 . S
C1106 C1104 1.394 . S
C1106 C1107 1.369 . S
C1106 C1110 1.531 . S
C1107 C1106 1.369 . S
C1107 C1108 1.410 . S
C1107 C1115 1.503 . S
C1108 C1107 1.410 . S
C1108 C1109 1.392 . S
C1108 C1111 1.511 . S
C1109 C1105 1.376 . S
C1109 C1108 1.392 . S
C1109 H1121 0.929 . S
C1110 C1106 1.531 . S
C1110 H1122 0.960 . S
C1110 H1123 0.962 . S
C1110 H1124 0.960 . S
C1111 C1108 1.511 . S
C1111 H1125 0.961 . S
C1111 H1126 0.961 . S
C1111 H1127 0.961 . S
C1112 C1113 1.370 . S
C1112 C1114 1.363 . S
C1112 H1128 0.931 . S
C1113 C1112 1.370 . S
C1113 C1117 1.408 . S
C1114 C1112 1.363 . S
C1114 C1115 1.370 . S
C1114 C1118 1.524 . S
C1115 C1107 1.503 . S
C1115 C1114 1.370 . S
C1115 C1116 1.403 . S
C1116 C1115 1.403 . S
C1116 C1117 1.404 . S
C1116 C1119 1.539 . S
C1117 C1113 1.408 . S
C1117 C1116 1.404 . S
C1117 H1129 0.930 . S
C1118 C1114 1.524 . S
C1118 H1130 0.956 . S
C1118 H1131 0.961 . S
C1118 H1132 0.961 . S
C1119 C1116 1.539 . S
C1119 H1133 0.958 . S
C1119 H1134 0.961 . S
C1119 H1135 0.960 . S
H1120 C1104 0.931 . S
H1121 C1109 0.929 . S
H1122 C1110 0.960 . S
H1123 C1110 0.962 . S
H1124 C1110 0.960 . S
H1125 C1111 0.961 . S
H1126 C1111 0.961 . S
H1127 C1111 0.961 . S
H1128 C1112 0.931 . S
H1129 C1117 0.930 . S
H1130 C1118 0.956 . S
H1131 C1118 0.961 . S
H1132 C1118 0.961 . S
H1133 C1119 0.958 . S
H1134 C1119 0.961 . S
H1135 C1119 0.960 . S
C1136 C1137 1.391 . S
C1136 C1138 1.394 1_545 S
C1136 H1152 0.931 . S
C1137 C1136 1.391 . S
C1137 C1141 1.368 1_545 S
C1138 C1136 1.394 1_565 S
C1138 C1139 1.369 . S
C1138 C1142 1.531 . S
C1139 C1138 1.369 . S
C1139 C1140 1.410 . S
C1139 C1147 1.503 . S
C1140 C1139 1.410 . S
C1140 C1141 1.402 . S
C1140 C1143 1.511 . S
C1141 C1137 1.368 1_565 S
C1141 C1140 1.402 . S
C1141 H1153 0.928 1_565 S
C1142 C1138 1.531 . S
C1142 H1154 0.960 . S
C1142 H1155 0.962 . S
C1142 H1156 0.960 1_565 S
C1143 C1140 1.511 . S
C1143 H1157 0.961 . S
C1143 H1158 0.961 . S
C1143 H1159 0.961 . S
C1144 C1145 1.370 . S
C1144 C1146 1.363 . S
C1144 H1160 0.931 . S
C1145 C1144 1.370 . S
C1145 C1149 1.408 . S
C1146 C1144 1.363 . S
C1146 C1147 1.370 . S
C1146 C1150 1.524 . S
C1147 C1139 1.503 . S
C1147 C1146 1.370 . S
C1147 C1148 1.403 . S
C1148 C1147 1.403 . S
C1148 C1149 1.404 . S
C1148 C1151 1.539 . S
C1149 C1145 1.408 . S
C1149 C1148 1.404 . S
C1149 H1161 0.930 . S
C1150 C1146 1.524 . S
C1150 H1162 0.956 . S
C1150 H1163 0.961 . S
C1150 H1164 0.961 . S
C1151 C1148 1.539 . S
C1151 H1165 0.958 . S
C1151 H1166 0.961 . S
C1151 H1167 0.960 . S
H1152 C1136 0.931 . S
H1153 C1141 0.928 1_545 S
H1154 C1142 0.960 . S
H1155 C1142 0.962 . S
H1156 C1142 0.960 1_545 S
H1157 C1143 0.961 . S
H1158 C1143 0.961 . S
H1159 C1143 0.961 . S
H1160 C1144 0.931 . S
H1161 C1149 0.930 . S
H1162 C1150 0.956 . S
H1163 C1150 0.961 . S
H1164 C1150 0.961 . S
H1165 C1151 0.958 . S
H1166 C1151 0.961 . S
H1167 C1151 0.960 . S
C1168 C1169 1.391 . S
C1168 C1170 1.394 . S
C1168 H1184 0.931 . S
C1169 C1168 1.391 . S
C1169 C1173 1.376 . S
C1170 C1168 1.394 . S
C1170 C1171 1.369 . S
C1170 C1174 1.531 . S
C1171 C1170 1.369 . S
C1171 C1172 1.410 . S
C1171 C1179 1.503 . S
C1172 C1171 1.410 . S
C1172 C1173 1.392 . S
C1172 C1175 1.511 . S
C1173 C1169 1.376 . S
C1173 C1172 1.392 . S
C1173 H1185 0.929 . S
C1174 C1170 1.531 . S
C1174 H1186 0.960 . S
C1174 H1187 0.962 . S
C1174 H1188 0.960 . S
C1175 C1172 1.511 . S
C1175 H1189 0.961 . S
C1175 H1190 0.961 . S
C1175 H1191 0.961 . S
C1176 C1177 1.370 . S
C1176 C1178 1.363 . S
C1176 H1192 0.931 . S
C1177 C1176 1.370 . S
C1177 C1181 1.408 . S
C1178 C1176 1.363 . S
C1178 C1179 1.370 . S
C1178 C1182 1.524 . S
C1179 C1171 1.503 . S
C1179 C1178 1.370 . S
C1179 C1180 1.403 . S
C1180 C1179 1.403 . S
C1180 C1181 1.404 . S
C1180 C1183 1.539 . S
C1181 C1177 1.408 . S
C1181 C1180 1.404 . S
C1181 H1193 0.930 . S
C1182 C1178 1.524 . S
C1182 H1194 0.956 . S
C1182 H1195 0.961 . S
C1182 H1196 0.961 . S
C1183 C1180 1.539 . S
C1183 H1197 0.958 . S
C1183 H1198 0.961 . S
C1183 H1199 0.960 . S
H1184 C1168 0.931 . S
H1185 C1173 0.929 . S
H1186 C1174 0.960 . S
H1187 C1174 0.962 . S
H1188 C1174 0.960 . S
H1189 C1175 0.961 . S
H1190 C1175 0.961 . S
H1191 C1175 0.961 . S
H1192 C1176 0.931 . S
H1193 C1181 0.930 . S
H1194 C1182 0.956 . S
H1195 C1182 0.961 . S
H1196 C1182 0.961 . S
H1197 C1183 0.958 . S
H1198 C1183 0.961 . S
H1199 C1183 0.960 . S
C1200 C1201 1.391 . S
C1200 C1202 1.394 1_565 S
C1200 H1216 0.931 . S
C1201 C1200 1.391 . S
C1201 C1205 1.376 1_565 S
C1202 C1200 1.394 1_545 S
C1202 C1203 1.369 . S
C1202 C1206 1.531 . S
C1203 C1202 1.369 . S
C1203 C1204 1.410 . S
C1203 C1211 1.503 . S
C1204 C1203 1.410 . S
C1204 C1205 1.392 . S
C1204 C1207 1.511 . S
C1205 C1201 1.376 1_545 S
C1205 C1204 1.392 . S
C1205 H1217 0.929 . S
C1206 C1202 1.531 . S
C1206 H1218 0.960 . S
C1206 H1219 0.962 . S
C1206 H1220 0.960 1_545 S
C1207 C1204 1.511 . S
C1207 H1221 0.961 . S
C1207 H1222 0.961 . S
C1207 H1223 0.961 . S
C1208 C1209 1.370 . S
C1208 C1210 1.363 . S
C1208 H1224 0.931 . S
C1209 C1208 1.370 . S
C1209 C1213 1.408 . S
C1210 C1208 1.363 . S
C1210 C1211 1.370 . S
C1210 C1214 1.524 . S
C1211 C1203 1.503 . S
C1211 C1210 1.370 . S
C1211 C1212 1.403 . S
C1212 C1211 1.403 . S
C1212 C1213 1.404 . S
C1212 C1215 1.539 . S
C1213 C1209 1.408 . S
C1213 C1212 1.404 . S
C1213 H1225 0.930 . S
C1214 C1210 1.524 . S
C1214 H1226 0.956 . S
C1214 H1227 0.961 . S
C1214 H1228 0.961 . S
C1215 C1212 1.539 . S
C1215 H1229 0.958 . S
C1215 H1230 0.961 . S
C1215 H1231 0.960 . S
H1216 C1200 0.931 . S
H1217 C1205 0.929 . S
H1218 C1206 0.960 . S
H1219 C1206 0.962 . S
H1220 C1206 0.960 1_565 S
H1221 C1207 0.961 . S
H1222 C1207 0.961 . S
H1223 C1207 0.961 . S
H1224 C1208 0.931 . S
H1225 C1213 0.930 . S
H1226 C1214 0.956 . S
H1227 C1214 0.961 . S
H1228 C1214 0.961 . S
H1229 C1215 0.958 . S
H1230 C1215 0.961 . S
H1231 C1215 0.960 . S
C1232 C1233 1.391 . S
C1232 C1234 1.394 . S
C1232 H1248 0.931 . S
C1233 C1232 1.391 . S
C1233 C1237 1.376 . S
C1234 C1232 1.394 . S
C1234 C1235 1.369 . S
C1234 C1238 1.531 . S
C1235 C1234 1.369 . S
C1235 C1236 1.410 . S
C1235 C1243 1.503 . S
C1236 C1235 1.410 . S
C1236 C1237 1.392 . S
C1236 C1239 1.511 . S
C1237 C1233 1.376 . S
C1237 C1236 1.392 . S
C1237 H1249 0.929 . S
C1238 C1234 1.531 . S
C1238 H1250 0.960 . S
C1238 H1251 0.962 . S
C1238 H1252 0.960 . S
C1239 C1236 1.511 . S
C1239 H1253 0.961 . S
C1239 H1254 0.961 . S
C1239 H1255 0.961 . S
C1240 C1241 1.370 . S
C1240 C1242 1.363 . S
C1240 H1256 0.931 . S
C1241 C1240 1.370 . S
C1241 C1245 1.408 . S
C1242 C1240 1.363 . S
C1242 C1243 1.370 . S
C1242 C1246 1.524 . S
C1243 C1235 1.503 . S
C1243 C1242 1.370 . S
C1243 C1244 1.403 . S
C1244 C1243 1.403 . S
C1244 C1245 1.404 . S
C1244 C1247 1.539 . S
C1245 C1241 1.408 . S
C1245 C1244 1.404 . S
C1245 H1257 0.930 . S
C1246 C1242 1.524 . S
C1246 H1258 0.956 . S
C1246 H1259 0.961 . S
C1246 H1260 0.961 . S
C1247 C1244 1.539 . S
C1247 H1261 0.958 . S
C1247 H1262 0.961 . S
C1247 H1263 0.960 . S
H1248 C1232 0.931 . S
H1249 C1237 0.929 . S
H1250 C1238 0.960 . S
H1251 C1238 0.962 . S
H1252 C1238 0.960 . S
H1253 C1239 0.961 . S
H1254 C1239 0.961 . S
H1255 C1239 0.961 . S
H1256 C1240 0.931 . S
H1257 C1245 0.930 . S
H1258 C1246 0.956 . S
H1259 C1246 0.961 . S
H1260 C1246 0.961 . S
H1261 C1247 0.958 . S
H1262 C1247 0.961 . S
H1263 C1247 0.960 . S
C1264 C1265 1.391 1_565 S
C1264 C1266 1.394 . S
C1264 H1280 0.931 . S
C1265 C1264 1.391 1_545 S
C1265 C1269 1.376 . S
C1266 C1264 1.394 . S
C1266 C1267 1.369 . S
C1266 C1270 1.531 . S
C1267 C1266 1.369 . S
C1267 C1268 1.410 1_565 S
C1267 C1275 1.503 . S
C1268 C1267 1.410 1_545 S
C1268 C1269 1.392 . S
C1268 C1271 1.511 . S
C1269 C1265 1.376 . S
C1269 C1268 1.392 . S
C1269 H1281 0.929 . S
C1270 C1266 1.531 . S
C1270 H1282 0.960 . S
C1270 H1283 0.962 . S
C1270 H1284 0.960 . S
C1271 C1268 1.511 . S
C1271 H1285 0.961 . S
C1271 H1286 0.961 1_545 S
C1271 H1287 0.961 . S
C1272 C1273 1.370 . S
C1272 C1274 1.363 . S
C1272 H1288 0.931 . S
C1273 C1272 1.370 . S
C1273 C1277 1.408 . S
C1274 C1272 1.363 . S
C1274 C1275 1.370 . S
C1274 C1278 1.524 . S
C1275 C1267 1.503 . S
C1275 C1274 1.370 . S
C1275 C1276 1.403 . S
C1276 C1275 1.403 . S
C1276 C1277 1.404 . S
C1276 C1279 1.539 . S
C1277 C1273 1.408 . S
C1277 C1276 1.404 . S
C1277 H1289 0.930 . S
C1278 C1274 1.524 . S
C1278 H1290 0.956 . S
C1278 H1291 0.961 . S
C1278 H1292 0.961 . S
C1279 C1276 1.539 . S
C1279 H1293 0.958 . S
C1279 H1294 0.961 . S
C1279 H1295 0.960 . S
H1280 C1264 0.931 . S
H1281 C1269 0.929 . S
H1282 C1270 0.960 . S
H1283 C1270 0.962 . S
H1284 C1270 0.960 . S
H1285 C1271 0.961 . S
H1286 C1271 0.961 1_565 S
H1287 C1271 0.961 . S
H1288 C1272 0.931 . S
H1289 C1277 0.930 . S
H1290 C1278 0.956 . S
H1291 C1278 0.961 . S
H1292 C1278 0.961 . S
H1293 C1279 0.958 . S
H1294 C1279 0.961 . S
H1295 C1279 0.960 . S
C1296 C1297 1.391 . S
C1296 C1298 1.394 . S
C1296 H1312 0.931 . S
C1297 C1296 1.391 . S
C1297 C1301 1.376 . S
C1298 C1296 1.394 . S
C1298 C1299 1.369 . S
C1298 C1302 1.531 . S
C1299 C1298 1.369 . S
C1299 C1300 1.410 . S
C1299 C1307 1.503 . S
C1300 C1299 1.410 . S
C1300 C1301 1.392 . S
C1300 C1303 1.511 . S
C1301 C1297 1.376 . S
C1301 C1300 1.392 . S
C1301 H1313 0.929 . S
C1302 C1298 1.531 . S
C1302 H1314 0.960 . S
C1302 H1315 0.962 . S
C1302 H1316 0.960 . S
C1303 C1300 1.511 . S
C1303 H1317 0.961 . S
C1303 H1318 0.961 . S
C1303 H1319 0.961 . S
C1304 C1305 1.370 . S
C1304 C1306 1.363 . S
C1304 H1320 0.931 . S
C1305 C1304 1.370 . S
C1305 C1309 1.408 . S
C1306 C1304 1.363 . S
C1306 C1307 1.370 . S
C1306 C1310 1.524 . S
C1307 C1299 1.503 . S
C1307 C1306 1.370 . S
C1307 C1308 1.403 . S
C1308 C1307 1.403 . S
C1308 C1309 1.404 . S
C1308 C1311 1.539 . S
C1309 C1305 1.408 . S
C1309 C1308 1.404 . S
C1309 H1321 0.930 . S
C1310 C1306 1.524 . S
C1310 H1322 0.956 . S
C1310 H1323 0.961 . S
C1310 H1324 0.961 . S
C1311 C1308 1.539 . S
C1311 H1325 0.958 . S
C1311 H1326 0.961 . S
C1311 H1327 0.960 . S
H1312 C1296 0.931 . S
H1313 C1301 0.929 . S
H1314 C1302 0.960 . S
H1315 C1302 0.962 . S
H1316 C1302 0.960 . S
H1317 C1303 0.961 . S
H1318 C1303 0.961 . S
H1319 C1303 0.961 . S
H1320 C1304 0.931 . S
H1321 C1309 0.930 . S
H1322 C1310 0.956 . S
H1323 C1310 0.961 . S
H1324 C1310 0.961 . S
H1325 C1311 0.958 . S
H1326 C1311 0.961 . S
H1327 C1311 0.960 . S
C1328 C1329 1.391 1_565 S
C1328 C1330 1.394 . S
C1328 H1344 0.930 1_565 S
C1329 C1328 1.391 1_545 S
C1329 C1333 1.376 . S
C1330 C1328 1.394 . S
C1330 C1331 1.369 . S
C1330 C1334 1.531 . S
C1331 C1330 1.369 . S
C1331 C1332 1.410 . S
C1331 C1339 1.503 . S
C1332 C1331 1.410 . S
C1332 C1333 1.392 1_565 S
C1332 C1335 1.511 . S
C1333 C1329 1.376 . S
C1333 C1332 1.392 1_545 S
C1333 H1345 0.929 . S
C1334 C1330 1.531 . S
C1334 H1346 0.960 . S
C1334 H1347 0.962 . S
C1334 H1348 0.960 . S
C1335 C1332 1.511 . S
C1335 H1349 0.961 . S
C1335 H1350 0.961 . S
C1335 H1351 0.961 . S
C1336 C1337 1.370 . S
C1336 C1338 1.363 . S
C1336 H1352 0.931 . S
C1337 C1336 1.370 . S
C1337 C1341 1.408 . S
C1338 C1336 1.363 . S
C1338 C1339 1.370 . S
C1338 C1342 1.524 . S
C1339 C1331 1.503 . S
C1339 C1338 1.370 . S
C1339 C1340 1.403 . S
C1340 C1339 1.403 . S
C1340 C1341 1.404 . S
C1340 C1343 1.539 . S
C1341 C1337 1.408 . S
C1341 C1340 1.404 . S
C1341 H1353 0.930 . S
C1342 C1338 1.524 . S
C1342 H1354 0.956 . S
C1342 H1355 0.961 . S
C1342 H1356 0.961 . S
C1343 C1340 1.539 . S
C1343 H1357 0.958 . S
C1343 H1358 0.961 . S
C1343 H1359 0.960 . S
H1344 C1328 0.930 1_545 S
H1345 C1333 0.929 . S
H1346 C1334 0.960 . S
H1347 C1334 0.962 . S
H1348 C1334 0.960 . S
H1349 C1335 0.961 . S
H1350 C1335 0.961 . S
H1351 C1335 0.961 . S
H1352 C1336 0.931 . S
H1353 C1341 0.930 . S
H1354 C1342 0.956 . S
H1355 C1342 0.961 . S
H1356 C1342 0.961 . S
H1357 C1343 0.958 . S
H1358 C1343 0.961 . S
H1359 C1343 0.960 . S
C1360 C1361 1.391 . S
C1360 C1362 1.394 . S
C1360 H1376 0.931 . S
C1361 C1360 1.391 . S
C1361 C1365 1.376 . S
C1362 C1360 1.394 . S
C1362 C1363 1.369 . S
C1362 C1366 1.531 . S
C1363 C1362 1.369 . S
C1363 C1364 1.410 . S
C1363 C1371 1.503 . S
C1364 C1363 1.410 . S
C1364 C1365 1.392 . S
C1364 C1367 1.511 . S
C1365 C1361 1.376 . S
C1365 C1364 1.392 . S
C1365 H1377 0.929 . S
C1366 C1362 1.531 . S
C1366 H1378 0.960 . S
C1366 H1379 0.962 . S
C1366 H1380 0.960 . S
C1367 C1364 1.511 . S
C1367 H1381 0.961 . S
C1367 H1382 0.961 . S
C1367 H1383 0.961 . S
C1368 C1369 1.370 . S
C1368 C1370 1.363 . S
C1368 H1384 0.931 . S
C1369 C1368 1.370 . S
C1369 C1373 1.408 . S
C1370 C1368 1.363 . S
C1370 C1371 1.370 . S
C1370 C1374 1.524 . S
C1371 C1363 1.503 . S
C1371 C1370 1.370 . S
C1371 C1372 1.403 . S
C1372 C1371 1.403 . S
C1372 C1373 1.404 . S
C1372 C1375 1.539 . S
C1373 C1369 1.408 . S
C1373 C1372 1.404 . S
C1373 H1385 0.930 . S
C1374 C1370 1.524 . S
C1374 H1386 0.956 . S
C1374 H1387 0.961 . S
C1374 H1388 0.961 . S
C1375 C1372 1.539 . S
C1375 H1389 0.958 . S
C1375 H1390 0.961 . S
C1375 H1391 0.960 . S
H1376 C1360 0.931 . S
H1377 C1365 0.929 . S
H1378 C1366 0.960 . S
H1379 C1366 0.962 . S
H1380 C1366 0.960 . S
H1381 C1367 0.961 . S
H1382 C1367 0.961 . S
H1383 C1367 0.961 . S
H1384 C1368 0.931 . S
H1385 C1373 0.930 . S
H1386 C1374 0.956 . S
H1387 C1374 0.961 . S
H1388 C1374 0.961 . S
H1389 C1375 0.958 . S
H1390 C1375 0.961 . S
H1391 C1375 0.960 . S
C1392 C1393 1.391 . S
C1392 C1394 1.394 1_565 S
C1392 H1408 0.931 . S
C1393 C1392 1.391 . S
C1393 C1397 1.376 1_565 S
C1394 C1392 1.394 1_545 S
C1394 C1395 1.369 . S
C1394 C1398 1.531 . S
C1395 C1394 1.369 . S
C1395 C1396 1.410 . S
C1395 C1403 1.503 . S
C1396 C1395 1.410 . S
C1396 C1397 1.392 . S
C1396 C1399 1.511 . S
C1397 C1393 1.376 1_545 S
C1397 C1396 1.392 . S
C1397 H1409 0.929 . S
C1398 C1394 1.531 . S
C1398 H1410 0.960 . S
C1398 H1411 0.962 . S
C1398 H1412 0.960 . S
C1399 C1396 1.511 . S
C1399 H1413 0.961 . S
C1399 H1414 0.961 . S
C1399 H1415 0.961 . S
C1400 C1401 1.370 . S
C1400 C1402 1.363 . S
C1400 H1416 0.931 . S
C1401 C1400 1.370 . S
C1401 C1405 1.408 . S
C1402 C1400 1.363 . S
C1402 C1403 1.370 . S
C1402 C1406 1.524 . S
C1403 C1395 1.503 . S
C1403 C1402 1.370 . S
C1403 C1404 1.403 . S
C1404 C1403 1.403 . S
C1404 C1405 1.404 . S
C1404 C1407 1.539 . S
C1405 C1401 1.408 . S
C1405 C1404 1.404 . S
C1405 H1417 0.930 . S
C1406 C1402 1.524 . S
C1406 H1418 0.956 . S
C1406 H1419 0.961 . S
C1406 H1420 0.961 . S
C1407 C1404 1.539 . S
C1407 H1421 0.958 . S
C1407 H1422 0.961 . S
C1407 H1423 0.960 . S
H1408 C1392 0.931 . S
H1409 C1397 0.929 . S
H1410 C1398 0.960 . S
H1411 C1398 0.962 . S
H1412 C1398 0.960 . S
H1413 C1399 0.961 . S
H1414 C1399 0.961 . S
H1415 C1399 0.961 . S
H1416 C1400 0.931 . S
H1417 C1405 0.930 . S
H1418 C1406 0.956 . S
H1419 C1406 0.961 . S
H1420 C1406 0.961 . S
H1421 C1407 0.958 . S
H1422 C1407 0.961 . S
H1423 C1407 0.960 . S
C1424 C1425 1.391 . S
C1424 C1426 1.394 . S
C1424 H1440 0.931 . S
C1425 C1424 1.391 . S
C1425 C1429 1.376 . S
C1426 C1424 1.394 . S
C1426 C1427 1.369 . S
C1426 C1430 1.531 . S
C1427 C1426 1.369 . S
C1427 C1428 1.410 . S
C1427 C1435 1.503 . S
C1428 C1427 1.410 . S
C1428 C1429 1.392 . S
C1428 C1431 1.511 . S
C1429 C1425 1.376 . S
C1429 C1428 1.392 . S
C1429 H1441 0.929 . S
C1430 C1426 1.531 . S
C1430 H1442 0.960 . S
C1430 H1443 0.962 . S
C1430 H1444 0.960 . S
C1431 C1428 1.511 . S
C1431 H1445 0.961 . S
C1431 H1446 0.961 . S
C1431 H1447 0.961 . S
C1432 C1433 1.370 . S
C1432 C1434 1.363 . S
C1432 H1448 0.931 . S
C1433 C1432 1.370 . S
C1433 C1437 1.408 . S
C1434 C1432 1.363 . S
C1434 C1435 1.370 . S
C1434 C1438 1.524 . S
C1435 C1427 1.503 . S
C1435 C1434 1.370 . S
C1435 C1436 1.403 . S
C1436 C1435 1.403 . S
C1436 C1437 1.404 . S
C1436 C1439 1.539 . S
C1437 C1433 1.408 . S
C1437 C1436 1.404 . S
C1437 H1449 0.930 . S
C1438 C1434 1.524 . S
C1438 H1450 0.956 . S
C1438 H1451 0.961 . S
C1438 H1452 0.961 . S
C1439 C1436 1.539 . S
C1439 H1453 0.958 . S
C1439 H1454 0.961 . S
C1439 H1455 0.960 . S
H1440 C1424 0.931 . S
H1441 C1429 0.929 . S
H1442 C1430 0.960 . S
H1443 C1430 0.962 . S
H1444 C1430 0.960 . S
H1445 C1431 0.961 . S
H1446 C1431 0.961 . S
H1447 C1431 0.961 . S
H1448 C1432 0.931 . S
H1449 C1437 0.930 . S
H1450 C1438 0.956 . S
H1451 C1438 0.961 . S
H1452 C1438 0.961 . S
H1453 C1439 0.958 . S
H1454 C1439 0.961 . S
H1455 C1439 0.960 . S
C1456 C1457 1.391 . S
C1456 C1458 1.394 1_545 S
C1456 H1472 0.931 . S
C1457 C1456 1.391 . S
C1457 C1461 1.376 1_545 S
C1458 C1456 1.394 1_565 S
C1458 C1459 1.369 . S
C1458 C1462 1.531 . S
C1459 C1458 1.369 . S
C1459 C1460 1.410 . S
C1459 C1467 1.503 . S
C1460 C1459 1.410 . S
C1460 C1461 1.392 . S
C1460 C1463 1.511 . S
C1461 C1457 1.376 1_565 S
C1461 C1460 1.392 . S
C1461 H1473 0.929 . S
C1462 C1458 1.531 . S
C1462 H1474 0.960 . S
C1462 H1475 0.962 1_565 S
C1462 H1476 0.960 1_565 S
C1463 C1460 1.511 . S
C1463 H1477 0.961 . S
C1463 H1478 0.961 . S
C1463 H1479 0.961 . S
C1464 C1465 1.370 . S
C1464 C1466 1.363 . S
C1464 H1480 0.931 . S
C1465 C1464 1.370 . S
C1465 C1469 1.408 . S
C1466 C1464 1.363 . S
C1466 C1467 1.370 . S
C1466 C1470 1.524 . S
C1467 C1459 1.503 . S
C1467 C1466 1.370 . S
C1467 C1468 1.403 . S
C1468 C1467 1.403 . S
C1468 C1469 1.404 . S
C1468 C1471 1.539 . S
C1469 C1465 1.408 . S
C1469 C1468 1.404 . S
C1469 H1481 0.930 . S
C1470 C1466 1.524 . S
C1470 H1482 0.956 . S
C1470 H1483 0.961 . S
C1470 H1484 0.961 . S
C1471 C1468 1.539 . S
C1471 H1485 0.958 . S
C1471 H1486 0.961 . S
C1471 H1487 0.960 . S
H1472 C1456 0.931 . S
H1473 C1461 0.929 . S
H1474 C1462 0.960 . S
H1475 C1462 0.962 1_545 S
H1476 C1462 0.960 1_545 S
H1477 C1463 0.961 . S
H1478 C1463 0.961 . S
H1479 C1463 0.961 . S
H1480 C1464 0.931 . S
H1481 C1469 0.930 . S
H1482 C1470 0.956 . S
H1483 C1470 0.961 . S
H1484 C1470 0.961 . S
H1485 C1471 0.958 . S
H1486 C1471 0.961 . S
H1487 C1471 0.960 . S
C1488 C1489 1.391 . S
C1488 C1490 1.394 . S
C1488 H1504 0.931 . S
C1489 C1488 1.391 . S
C1489 C1493 1.376 . S
C1490 C1488 1.394 . S
C1490 C1491 1.369 . S
C1490 C1494 1.531 . S
C1491 C1490 1.369 . S
C1491 C1492 1.410 . S
C1491 C1499 1.503 . S
C1492 C1491 1.410 . S
C1492 C1493 1.392 . S
C1492 C1495 1.511 . S
C1493 C1489 1.376 . S
C1493 C1492 1.392 . S
C1493 H1505 0.929 . S
C1494 C1490 1.531 . S
C1494 H1506 0.960 . S
C1494 H1507 0.962 . S
C1494 H1508 0.960 . S
C1495 C1492 1.511 . S
C1495 H1509 0.961 . S
C1495 H1510 0.961 . S
C1495 H1511 0.961 . S
C1496 C1497 1.370 . S
C1496 C1498 1.363 . S
C1496 H1512 0.931 . S
C1497 C1496 1.370 . S
C1497 C1501 1.408 . S
C1498 C1496 1.363 . S
C1498 C1499 1.370 . S
C1498 C1502 1.524 . S
C1499 C1491 1.503 . S
C1499 C1498 1.370 . S
C1499 C1500 1.403 . S
C1500 C1499 1.403 . S
C1500 C1501 1.404 . S
C1500 C1503 1.539 . S
C1501 C1497 1.408 . S
C1501 C1500 1.404 . S
C1501 H1513 0.930 . S
C1502 C1498 1.524 . S
C1502 H1514 0.956 . S
C1502 H1515 0.961 . S
C1502 H1516 0.961 . S
C1503 C1500 1.539 . S
C1503 H1517 0.958 . S
C1503 H1518 0.961 . S
C1503 H1519 0.960 . S
H1504 C1488 0.931 . S
H1505 C1493 0.929 . S
H1506 C1494 0.960 . S
H1507 C1494 0.962 . S
H1508 C1494 0.960 . S
H1509 C1495 0.961 . S
H1510 C1495 0.961 . S
H1511 C1495 0.961 . S
H1512 C1496 0.931 . S
H1513 C1501 0.930 . S
H1514 C1502 0.956 . S
H1515 C1502 0.961 . S
H1516 C1502 0.961 . S
H1517 C1503 0.958 . S
H1518 C1503 0.961 . S
H1519 C1503 0.960 . S
C1520 C1521 1.391 1_545 S
C1520 C1522 1.394 . S
C1520 H1536 0.931 . S
C1521 C1520 1.391 1_565 S
C1521 C1525 1.376 1_565 S
C1522 C1520 1.394 . S
C1522 C1523 1.369 . S
C1522 C1526 1.531 . S
C1523 C1522 1.369 . S
C1523 C1524 1.410 . S
C1523 C1531 1.503 . S
C1524 C1523 1.410 . S
C1524 C1525 1.392 . S
C1524 C1527 1.511 . S
C1525 C1521 1.376 1_545 S
C1525 C1524 1.392 . S
C1525 H1537 0.929 1_545 S
C1526 C1522 1.531 . S
C1526 H1538 0.960 . S
C1526 H1539 0.962 . S
C1526 H1540 0.960 . S
C1527 C1524 1.511 . S
C1527 H1541 0.961 . S
C1527 H1542 0.961 . S
C1527 H1543 0.961 . S
C1528 C1529 1.370 . S
C1528 C1530 1.363 . S
C1528 H1544 0.931 . S
C1529 C1528 1.370 . S
C1529 C1533 1.408 . S
C1530 C1528 1.363 . S
C1530 C1531 1.370 . S
C1530 C1534 1.524 . S
C1531 C1523 1.503 . S
C1531 C1530 1.370 . S
C1531 C1532 1.403 . S
C1532 C1531 1.403 . S
C1532 C1533 1.404 . S
C1532 C1535 1.539 . S
C1533 C1529 1.408 . S
C1533 C1532 1.404 . S
C1533 H1545 0.930 . S
C1534 C1530 1.524 . S
C1534 H1546 0.956 . S
C1534 H1547 0.961 . S
C1534 H1548 0.961 . S
C1535 C1532 1.539 . S
C1535 H1549 0.958 . S
C1535 H1550 0.961 . S
C1535 H1551 0.960 . S
H1536 C1520 0.931 . S
H1537 C1525 0.929 1_565 S
H1538 C1526 0.960 . S
H1539 C1526 0.962 . S
H1540 C1526 0.960 . S
H1541 C1527 0.961 . S
H1542 C1527 0.961 . S
H1543 C1527 0.961 . S
H1544 C1528 0.931 . S
H1545 C1533 0.930 . S
H1546 C1534 0.956 . S
H1547 C1534 0.961 . S
H1548 C1534 0.961 . S
H1549 C1535 0.958 . S
H1550 C1535 0.961 . S
H1551 C1535 0.960 . S
C1552 C1553 1.391 . S
C1552 C1554 1.394 . S
C1552 H1568 0.931 . S
C1553 C1552 1.391 . S
C1553 C1557 1.376 . S
C1554 C1552 1.394 . S
C1554 C1555 1.369 . S
C1554 C1558 1.531 . S
C1555 C1554 1.369 . S
C1555 C1556 1.410 . S
C1555 C1563 1.503 . S
C1556 C1555 1.410 . S
C1556 C1557 1.392 . S
C1556 C1559 1.511 . S
C1557 C1553 1.376 . S
C1557 C1556 1.392 . S
C1557 H1569 0.929 . S
C1558 C1554 1.531 . S
C1558 H1570 0.960 . S
C1558 H1571 0.962 . S
C1558 H1572 0.960 . S
C1559 C1556 1.511 . S
C1559 H1573 0.961 . S
C1559 H1574 0.961 . S
C1559 H1575 0.961 . S
C1560 C1561 1.370 . S
C1560 C1562 1.363 . S
C1560 H1576 0.931 . S
C1561 C1560 1.370 . S
C1561 C1565 1.408 . S
C1562 C1560 1.363 . S
C1562 C1563 1.370 . S
C1562 C1566 1.524 . S
C1563 C1555 1.503 . S
C1563 C1562 1.370 . S
C1563 C1564 1.403 . S
C1564 C1563 1.403 . S
C1564 C1565 1.404 . S
C1564 C1567 1.539 . S
C1565 C1561 1.408 . S
C1565 C1564 1.404 . S
C1565 H1577 0.930 . S
C1566 C1562 1.524 . S
C1566 H1578 0.956 . S
C1566 H1579 0.961 . S
C1566 H1580 0.961 . S
C1567 C1564 1.539 . S
C1567 H1581 0.958 . S
C1567 H1582 0.961 . S
C1567 H1583 0.960 . S
H1568 C1552 0.931 . S
H1569 C1557 0.929 . S
H1570 C1558 0.960 . S
H1571 C1558 0.962 . S
H1572 C1558 0.960 . S
H1573 C1559 0.961 . S
H1574 C1559 0.961 . S
H1575 C1559 0.961 . S
H1576 C1560 0.931 . S
H1577 C1565 0.930 . S
H1578 C1566 0.956 . S
H1579 C1566 0.961 . S
H1580 C1566 0.961 . S
H1581 C1567 0.958 . S
H1582 C1567 0.961 . S
H1583 C1567 0.960 . S
C1584 C1585 1.391 . S
C1584 C1586 1.394 . S
C1584 H1600 0.931 . S
C1585 C1584 1.391 . S
C1585 C1589 1.376 . S
C1586 C1584 1.394 . S
C1586 C1587 1.369 . S
C1586 C1590 1.531 . S
C1587 C1586 1.369 . S
C1587 C1588 1.410 . S
C1587 C1595 1.503 . S
C1588 C1587 1.410 . S
C1588 C1589 1.392 . S
C1588 C1591 1.511 . S
C1589 C1585 1.376 . S
C1589 C1588 1.392 . S
C1589 H1601 0.929 . S
C1590 C1586 1.531 . S
C1590 H1602 0.960 . S
C1590 H1603 0.962 . S
C1590 H1604 0.960 . S
C1591 C1588 1.511 . S
C1591 H1605 0.961 . S
C1591 H1606 0.961 . S
C1591 H1607 0.961 . S
C1592 C1593 1.370 . S
C1592 C1594 1.363 . S
C1592 H1608 0.931 . S
C1593 C1592 1.370 . S
C1593 C1597 1.408 . S
C1594 C1592 1.363 . S
C1594 C1595 1.370 . S
C1594 C1598 1.524 . S
C1595 C1587 1.503 . S
C1595 C1594 1.370 . S
C1595 C1596 1.403 . S
C1596 C1595 1.403 . S
C1596 C1597 1.404 . S
C1596 C1599 1.539 . S
C1597 C1593 1.408 . S
C1597 C1596 1.404 . S
C1597 H1609 0.930 . S
C1598 C1594 1.524 . S
C1598 H1610 0.956 . S
C1598 H1611 0.961 . S
C1598 H1612 0.961 . S
C1599 C1596 1.539 . S
C1599 H1613 0.958 . S
C1599 H1614 0.961 . S
C1599 H1615 0.960 . S
H1600 C1584 0.931 . S
H1601 C1589 0.929 . S
H1602 C1590 0.960 . S
H1603 C1590 0.962 . S
H1604 C1590 0.960 . S
H1605 C1591 0.961 . S
H1606 C1591 0.961 . S
H1607 C1591 0.961 . S
H1608 C1592 0.931 . S
H1609 C1597 0.930 . S
H1610 C1598 0.956 . S
H1611 C1598 0.961 . S
H1612 C1598 0.961 . S
H1613 C1599 0.958 . S
H1614 C1599 0.961 . S
H1615 C1599 0.960 . S
C1616 C1617 1.391 . S
C1616 C1618 1.394 . S
C1616 H1632 0.931 . S
C1617 C1616 1.391 . S
C1617 C1621 1.376 . S
C1618 C1616 1.394 . S
C1618 C1619 1.369 . S
C1618 C1622 1.531 . S
C1619 C1618 1.369 . S
C1619 C1620 1.410 . S
C1619 C1627 1.503 . S
C1620 C1619 1.410 . S
C1620 C1621 1.392 . S
C1620 C1623 1.511 . S
C1621 C1617 1.376 . S
C1621 C1620 1.392 . S
C1621 H1633 0.929 . S
C1622 C1618 1.531 . S
C1622 H1634 0.960 . S
C1622 H1635 0.962 . S
C1622 H1636 0.960 . S
C1623 C1620 1.511 . S
C1623 H1637 0.961 . S
C1623 H1638 0.961 . S
C1623 H1639 0.961 . S
C1624 C1625 1.370 . S
C1624 C1626 1.363 . S
C1624 H1640 0.931 . S
C1625 C1624 1.370 . S
C1625 C1629 1.408 . S
C1626 C1624 1.363 . S
C1626 C1627 1.370 . S
C1626 C1630 1.524 . S
C1627 C1619 1.503 . S
C1627 C1626 1.370 . S
C1627 C1628 1.403 . S
C1628 C1627 1.403 . S
C1628 C1629 1.404 . S
C1628 C1631 1.539 . S
C1629 C1625 1.408 . S
C1629 C1628 1.404 . S
C1629 H1641 0.930 . S
C1630 C1626 1.524 . S
C1630 H1642 0.956 . S
C1630 H1643 0.961 . S
C1630 H1644 0.961 . S
C1631 C1628 1.539 . S
C1631 H1645 0.958 . S
C1631 H1646 0.961 . S
C1631 H1647 0.960 . S
H1632 C1616 0.931 . S
H1633 C1621 0.929 . S
H1634 C1622 0.960 . S
H1635 C1622 0.962 . S
H1636 C1622 0.960 . S
H1637 C1623 0.961 . S
H1638 C1623 0.961 . S
H1639 C1623 0.961 . S
H1640 C1624 0.931 . S
H1641 C1629 0.930 . S
H1642 C1630 0.956 . S
H1643 C1630 0.961 . S
H1644 C1630 0.961 . S
H1645 C1631 0.958 . S
H1646 C1631 0.961 . S
H1647 C1631 0.960 . S
C1648 C1649 1.391 . S
C1648 C1650 1.394 . S
C1648 H1664 0.931 . S
C1649 C1648 1.391 . S
C1649 C1653 1.376 . S
C1650 C1648 1.394 . S
C1650 C1651 1.369 . S
C1650 C1654 1.531 . S
C1651 C1650 1.369 . S
C1651 C1652 1.410 . S
C1651 C1659 1.503 . S
C1652 C1651 1.410 . S
C1652 C1653 1.392 . S
C1652 C1655 1.511 . S
C1653 C1649 1.376 . S
C1653 C1652 1.392 . S
C1653 H1665 0.929 . S
C1654 C1650 1.531 . S
C1654 H1666 0.960 . S
C1654 H1667 0.962 . S
C1654 H1668 0.960 . S
C1655 C1652 1.511 . S
C1655 H1669 0.961 . S
C1655 H1670 0.961 . S
C1655 H1671 0.961 . S
C1656 C1657 1.370 . S
C1656 C1658 1.363 . S
C1656 H1672 0.931 . S
C1657 C1656 1.370 . S
C1657 C1661 1.408 . S
C1658 C1656 1.363 . S
C1658 C1659 1.370 . S
C1658 C1662 1.524 . S
C1659 C1651 1.503 . S
C1659 C1658 1.370 . S
C1659 C1660 1.403 . S
C1660 C1659 1.403 . S
C1660 C1661 1.404 . S
C1660 C1663 1.539 . S
C1661 C1657 1.408 . S
C1661 C1660 1.404 . S
C1661 H1673 0.930 . S
C1662 C1658 1.524 . S
C1662 H1674 0.956 . S
C1662 H1675 0.961 . S
C1662 H1676 0.961 . S
C1663 C1660 1.539 . S
C1663 H1677 0.958 . S
C1663 H1678 0.961 . S
C1663 H1679 0.960 . S
H1664 C1648 0.931 . S
H1665 C1653 0.929 . S
H1666 C1654 0.960 . S
H1667 C1654 0.962 . S
H1668 C1654 0.960 . S
H1669 C1655 0.961 . S
H1670 C1655 0.961 . S
H1671 C1655 0.961 . S
H1672 C1656 0.931 . S
H1673 C1661 0.930 . S
H1674 C1662 0.956 . S
H1675 C1662 0.961 . S
H1676 C1662 0.961 . S
H1677 C1663 0.958 . S
H1678 C1663 0.961 . S
H1679 C1663 0.960 . S
C1680 C1681 1.391 . S
C1680 C1682 1.394 . S
C1680 H1696 0.931 . S
C1681 C1680 1.391 . S
C1681 C1685 1.376 . S
C1682 C1680 1.394 . S
C1682 C1683 1.369 . S
C1682 C1686 1.531 . S
C1683 C1682 1.369 . S
C1683 C1684 1.410 . S
C1683 C1691 1.503 . S
C1684 C1683 1.410 . S
C1684 C1685 1.392 . S
C1684 C1687 1.511 . S
C1685 C1681 1.376 . S
C1685 C1684 1.392 . S
C1685 H1697 0.929 . S
C1686 C1682 1.531 . S
C1686 H1698 0.960 . S
C1686 H1699 0.962 . S
C1686 H1700 0.960 . S
C1687 C1684 1.511 . S
C1687 H1701 0.961 . S
C1687 H1702 0.961 . S
C1687 H1703 0.961 . S
C1688 C1689 1.370 . S
C1688 C1690 1.363 . S
C1688 H1704 0.931 . S
C1689 C1688 1.370 . S
C1689 C1693 1.408 . S
C1690 C1688 1.363 . S
C1690 C1691 1.370 . S
C1690 C1694 1.524 . S
C1691 C1683 1.503 . S
C1691 C1690 1.370 . S
C1691 C1692 1.403 . S
C1692 C1691 1.403 . S
C1692 C1693 1.404 . S
C1692 C1695 1.539 . S
C1693 C1689 1.408 . S
C1693 C1692 1.404 . S
C1693 H1705 0.930 . S
C1694 C1690 1.524 . S
C1694 H1706 0.956 . S
C1694 H1707 0.961 . S
C1694 H1708 0.961 . S
C1695 C1692 1.539 . S
C1695 H1709 0.958 . S
C1695 H1710 0.961 . S
C1695 H1711 0.960 . S
H1696 C1680 0.931 . S
H1697 C1685 0.929 . S
H1698 C1686 0.960 . S
H1699 C1686 0.962 . S
H1700 C1686 0.960 . S
H1701 C1687 0.961 . S
H1702 C1687 0.961 . S
H1703 C1687 0.961 . S
H1704 C1688 0.931 . S
H1705 C1693 0.930 . S
H1706 C1694 0.956 . S
H1707 C1694 0.961 . S
H1708 C1694 0.961 . S
H1709 C1695 0.958 . S
H1710 C1695 0.961 . S
H1711 C1695 0.960 . S
C1712 C1713 1.391 . S
C1712 C1714 1.394 . S
C1712 H1728 0.931 . S
C1713 C1712 1.391 . S
C1713 C1717 1.376 . S
C1714 C1712 1.394 . S
C1714 C1715 1.369 . S
C1714 C1718 1.531 . S
C1715 C1714 1.369 . S
C1715 C1716 1.410 . S
C1715 C1723 1.503 . S
C1716 C1715 1.410 . S
C1716 C1717 1.392 . S
C1716 C1719 1.511 . S
C1717 C1713 1.376 . S
C1717 C1716 1.392 . S
C1717 H1729 0.929 . S
C1718 C1714 1.531 . S
C1718 H1730 0.960 . S
C1718 H1731 0.962 . S
C1718 H1732 0.960 . S
C1719 C1716 1.511 . S
C1719 H1733 0.961 . S
C1719 H1734 0.961 . S
C1719 H1735 0.961 . S
C1720 C1721 1.370 . S
C1720 C1722 1.363 . S
C1720 H1736 0.931 . S
C1721 C1720 1.370 . S
C1721 C1725 1.408 . S
C1722 C1720 1.363 . S
C1722 C1723 1.370 . S
C1722 C1726 1.524 . S
C1723 C1715 1.503 . S
C1723 C1722 1.370 . S
C1723 C1724 1.403 . S
C1724 C1723 1.403 . S
C1724 C1725 1.404 . S
C1724 C1727 1.539 . S
C1725 C1721 1.408 . S
C1725 C1724 1.404 . S
C1725 H1737 0.930 . S
C1726 C1722 1.524 . S
C1726 H1738 0.956 . S
C1726 H1739 0.961 . S
C1726 H1740 0.961 . S
C1727 C1724 1.539 . S
C1727 H1741 0.958 . S
C1727 H1742 0.961 . S
C1727 H1743 0.960 . S
H1728 C1712 0.931 . S
H1729 C1717 0.929 . S
H1730 C1718 0.960 . S
H1731 C1718 0.962 . S
H1732 C1718 0.960 . S
H1733 C1719 0.961 . S
H1734 C1719 0.961 . S
H1735 C1719 0.961 . S
H1736 C1720 0.931 . S
H1737 C1725 0.930 . S
H1738 C1726 0.956 . S
H1739 C1726 0.961 . S
H1740 C1726 0.961 . S
H1741 C1727 0.958 . S
H1742 C1727 0.961 . S
H1743 C1727 0.960 . S
C1744 C1745 1.391 . S
C1744 C1746 1.394 . S
C1744 H1760 0.931 . S
C1745 C1744 1.391 . S
C1745 C1749 1.376 . S
C1746 C1744 1.394 . S
C1746 C1747 1.369 . S
C1746 C1750 1.531 . S
C1747 C1746 1.369 . S
C1747 C1748 1.410 . S
C1747 C1755 1.503 . S
C1748 C1747 1.410 . S
C1748 C1749 1.392 . S
C1748 C1751 1.511 . S
C1749 C1745 1.376 . S
C1749 C1748 1.392 . S
C1749 H1761 0.929 . S
C1750 C1746 1.531 . S
C1750 H1762 0.960 . S
C1750 H1763 0.962 . S
C1750 H1764 0.960 . S
C1751 C1748 1.511 . S
C1751 H1765 0.961 . S
C1751 H1766 0.961 . S
C1751 H1767 0.961 . S
C1752 C1753 1.370 . S
C1752 C1754 1.363 . S
C1752 H1768 0.931 . S
C1753 C1752 1.370 . S
C1753 C1757 1.408 . S
C1754 C1752 1.363 . S
C1754 C1755 1.370 . S
C1754 C1758 1.524 . S
C1755 C1747 1.503 . S
C1755 C1754 1.370 . S
C1755 C1756 1.403 . S
C1756 C1755 1.403 . S
C1756 C1757 1.404 . S
C1756 C1759 1.539 . S
C1757 C1753 1.408 . S
C1757 C1756 1.404 . S
C1757 H1769 0.930 . S
C1758 C1754 1.524 . S
C1758 H1770 0.956 . S
C1758 H1771 0.961 . S
C1758 H1772 0.961 . S
C1759 C1756 1.539 . S
C1759 H1773 0.958 . S
C1759 H1774 0.961 . S
C1759 H1775 0.960 . S
H1760 C1744 0.931 . S
H1761 C1749 0.929 . S
H1762 C1750 0.960 . S
H1763 C1750 0.962 . S
H1764 C1750 0.960 . S
H1765 C1751 0.961 . S
H1766 C1751 0.961 . S
H1767 C1751 0.961 . S
H1768 C1752 0.931 . S
H1769 C1757 0.930 . S
H1770 C1758 0.956 . S
H1771 C1758 0.961 . S
H1772 C1758 0.961 . S
H1773 C1759 0.958 . S
H1774 C1759 0.961 . S
H1775 C1759 0.960 . S
C1776 C1777 1.391 . S
C1776 C1778 1.394 . S
C1776 H1792 0.931 . S
C1777 C1776 1.391 . S
C1777 C1781 1.376 . S
C1778 C1776 1.394 . S
C1778 C1779 1.369 . S
C1778 C1782 1.531 . S
C1779 C1778 1.369 . S
C1779 C1780 1.410 . S
C1779 C1787 1.503 . S
C1780 C1779 1.410 . S
C1780 C1781 1.392 . S
C1780 C1783 1.511 . S
C1781 C1777 1.376 . S
C1781 C1780 1.392 . S
C1781 H1793 0.929 . S
C1782 C1778 1.531 . S
C1782 H1794 0.960 . S
C1782 H1795 0.962 . S
C1782 H1796 0.960 . S
C1783 C1780 1.511 . S
C1783 H1797 0.961 . S
C1783 H1798 0.961 . S
C1783 H1799 0.961 . S
C1784 C1785 1.370 . S
C1784 C1786 1.363 . S
C1784 H1800 0.931 . S
C1785 C1784 1.370 . S
C1785 C1789 1.408 . S
C1786 C1784 1.363 . S
C1786 C1787 1.370 . S
C1786 C1790 1.524 . S
C1787 C1779 1.503 . S
C1787 C1786 1.370 . S
C1787 C1788 1.403 . S
C1788 C1787 1.403 . S
C1788 C1789 1.404 . S
C1788 C1791 1.539 . S
C1789 C1785 1.408 . S
C1789 C1788 1.404 . S
C1789 H1801 0.930 . S
C1790 C1786 1.524 . S
C1790 H1802 0.956 . S
C1790 H1803 0.961 . S
C1790 H1804 0.961 . S
C1791 C1788 1.539 . S
C1791 H1805 0.958 . S
C1791 H1806 0.961 . S
C1791 H1807 0.960 . S
H1792 C1776 0.931 . S
H1793 C1781 0.929 . S
H1794 C1782 0.960 . S
H1795 C1782 0.962 . S
H1796 C1782 0.960 . S
H1797 C1783 0.961 . S
H1798 C1783 0.961 . S
H1799 C1783 0.961 . S
H1800 C1784 0.931 . S
H1801 C1789 0.930 . S
H1802 C1790 0.956 . S
H1803 C1790 0.961 . S
H1804 C1790 0.961 . S
H1805 C1791 0.958 . S
H1806 C1791 0.961 . S
H1807 C1791 0.960 . S
C1808 C1809 1.391 . S
C1808 C1810 1.394 . S
C1808 H1824 0.931 . S
C1809 C1808 1.391 . S
C1809 C1813 1.376 . S
C1810 C1808 1.394 . S
C1810 C1811 1.369 . S
C1810 C1814 1.531 . S
C1811 C1810 1.369 . S
C1811 C1812 1.410 . S
C1811 C1819 1.503 . S
C1812 C1811 1.410 . S
C1812 C1813 1.392 . S
C1812 C1815 1.511 . S
C1813 C1809 1.376 . S
C1813 C1812 1.392 . S
C1813 H1825 0.929 . S
C1814 C1810 1.531 . S
C1814 H1826 0.960 . S
C1814 H1827 0.962 . S
C1814 H1828 0.960 . S
C1815 C1812 1.511 . S
C1815 H1829 0.961 . S
C1815 H1830 0.961 . S
C1815 H1831 0.961 . S
C1816 C1817 1.370 . S
C1816 C1818 1.363 . S
C1816 H1832 0.931 . S
C1817 C1816 1.370 . S
C1817 C1821 1.408 . S
C1818 C1816 1.363 . S
C1818 C1819 1.370 . S
C1818 C1822 1.524 . S
C1819 C1811 1.503 . S
C1819 C1818 1.370 . S
C1819 C1820 1.403 . S
C1820 C1819 1.403 . S
C1820 C1821 1.404 . S
C1820 C1823 1.539 . S
C1821 C1817 1.408 . S
C1821 C1820 1.404 . S
C1821 H1833 0.930 . S
C1822 C1818 1.524 . S
C1822 H1834 0.956 . S
C1822 H1835 0.961 . S
C1822 H1836 0.961 . S
C1823 C1820 1.539 . S
C1823 H1837 0.958 . S
C1823 H1838 0.961 . S
C1823 H1839 0.960 . S
H1824 C1808 0.931 . S
H1825 C1813 0.929 . S
H1826 C1814 0.960 . S
H1827 C1814 0.962 . S
H1828 C1814 0.960 . S
H1829 C1815 0.961 . S
H1830 C1815 0.961 . S
H1831 C1815 0.961 . S
H1832 C1816 0.931 . S
H1833 C1821 0.930 . S
H1834 C1822 0.956 . S
H1835 C1822 0.961 . S
H1836 C1822 0.961 . S
H1837 C1823 0.958 . S
H1838 C1823 0.961 . S
H1839 C1823 0.960 . S
C1840 C1841 1.391 . S
C1840 C1842 1.394 . S
C1840 H1856 0.931 . S
C1841 C1840 1.391 . S
C1841 C1845 1.376 . S
C1842 C1840 1.394 . S
C1842 C1843 1.369 . S
C1842 C1846 1.531 . S
C1843 C1842 1.369 . S
C1843 C1844 1.410 . S
C1843 C1851 1.503 . S
C1844 C1843 1.410 . S
C1844 C1845 1.392 . S
C1844 C1847 1.511 . S
C1845 C1841 1.376 . S
C1845 C1844 1.392 . S
C1845 H1857 0.929 . S
C1846 C1842 1.531 . S
C1846 H1858 0.960 . S
C1846 H1859 0.962 . S
C1846 H1860 0.960 . S
C1847 C1844 1.511 . S
C1847 H1861 0.961 . S
C1847 H1862 0.961 . S
C1847 H1863 0.961 . S
C1848 C1849 1.370 . S
C1848 C1850 1.363 . S
C1848 H1864 0.931 . S
C1849 C1848 1.370 . S
C1849 C1853 1.408 . S
C1850 C1848 1.363 . S
C1850 C1851 1.370 . S
C1850 C1854 1.524 . S
C1851 C1843 1.503 . S
C1851 C1850 1.370 . S
C1851 C1852 1.403 . S
C1852 C1851 1.403 . S
C1852 C1853 1.404 . S
C1852 C1855 1.539 . S
C1853 C1849 1.408 . S
C1853 C1852 1.404 . S
C1853 H1865 0.930 . S
C1854 C1850 1.524 . S
C1854 H1866 0.956 . S
C1854 H1867 0.961 . S
C1854 H1868 0.961 . S
C1855 C1852 1.539 . S
C1855 H1869 0.958 . S
C1855 H1870 0.961 . S
C1855 H1871 0.960 . S
H1856 C1840 0.931 . S
H1857 C1845 0.929 . S
H1858 C1846 0.960 . S
H1859 C1846 0.962 . S
H1860 C1846 0.960 . S
H1861 C1847 0.961 . S
H1862 C1847 0.961 . S
H1863 C1847 0.961 . S
H1864 C1848 0.931 . S
H1865 C1853 0.930 . S
H1866 C1854 0.956 . S
H1867 C1854 0.961 . S
H1868 C1854 0.961 . S
H1869 C1855 0.958 . S
H1870 C1855 0.961 . S
H1871 C1855 0.960 . S
C1872 C1873 1.391 . S
C1872 C1874 1.394 . S
C1872 H1888 0.931 . S
C1873 C1872 1.391 . S
C1873 C1877 1.376 . S
C1874 C1872 1.394 . S
C1874 C1875 1.369 . S
C1874 C1878 1.531 . S
C1875 C1874 1.369 . S
C1875 C1876 1.410 . S
C1875 C1883 1.503 . S
C1876 C1875 1.410 . S
C1876 C1877 1.392 . S
C1876 C1879 1.511 . S
C1877 C1873 1.376 . S
C1877 C1876 1.392 . S
C1877 H1889 0.929 . S
C1878 C1874 1.531 . S
C1878 H1890 0.960 . S
C1878 H1891 0.962 . S
C1878 H1892 0.960 . S
C1879 C1876 1.511 . S
C1879 H1893 0.961 . S
C1879 H1894 0.961 . S
C1879 H1895 0.961 . S
C1880 C1881 1.370 . S
C1880 C1882 1.363 . S
C1880 H1896 0.931 . S
C1881 C1880 1.370 . S
C1881 C1885 1.408 . S
C1882 C1880 1.363 . S
C1882 C1883 1.370 . S
C1882 C1886 1.524 . S
C1883 C1875 1.503 . S
C1883 C1882 1.370 . S
C1883 C1884 1.403 . S
C1884 C1883 1.403 . S
C1884 C1885 1.404 . S
C1884 C1887 1.539 . S
C1885 C1881 1.408 . S
C1885 C1884 1.404 . S
C1885 H1897 0.930 . S
C1886 C1882 1.524 . S
C1886 H1898 0.956 . S
C1886 H1899 0.961 . S
C1886 H1900 0.961 . S
C1887 C1884 1.539 . S
C1887 H1901 0.958 . S
C1887 H1902 0.961 . S
C1887 H1903 0.960 . S
H1888 C1872 0.931 . S
H1889 C1877 0.929 . S
H1890 C1878 0.960 . S
H1891 C1878 0.962 . S
H1892 C1878 0.960 . S
H1893 C1879 0.961 . S
H1894 C1879 0.961 . S
H1895 C1879 0.961 . S
H1896 C1880 0.931 . S
H1897 C1885 0.930 . S
H1898 C1886 0.956 . S
H1899 C1886 0.961 . S
H1900 C1886 0.961 . S
H1901 C1887 0.958 . S
H1902 C1887 0.961 . S
H1903 C1887 0.960 . S
C1904 C1905 1.391 . S
C1904 C1906 1.394 . S
C1904 H1920 0.931 . S
C1905 C1904 1.391 . S
C1905 C1909 1.376 . S
C1906 C1904 1.394 . S
C1906 C1907 1.369 . S
C1906 C1910 1.531 . S
C1907 C1906 1.369 . S
C1907 C1908 1.410 . S
C1907 C1915 1.503 . S
C1908 C1907 1.410 . S
C1908 C1909 1.392 . S
C1908 C1911 1.511 . S
C1909 C1905 1.376 . S
C1909 C1908 1.392 . S
C1909 H1921 0.929 . S
C1910 C1906 1.531 . S
C1910 H1922 0.960 . S
C1910 H1923 0.962 . S
C1910 H1924 0.960 . S
C1911 C1908 1.511 . S
C1911 H1925 0.961 . S
C1911 H1926 0.961 . S
C1911 H1927 0.961 . S
C1912 C1913 1.370 . S
C1912 C1914 1.363 . S
C1912 H1928 0.931 . S
C1913 C1912 1.370 . S
C1913 C1917 1.408 . S
C1914 C1912 1.363 . S
C1914 C1915 1.370 . S
C1914 C1918 1.524 . S
C1915 C1907 1.503 . S
C1915 C1914 1.370 . S
C1915 C1916 1.403 . S
C1916 C1915 1.403 . S
C1916 C1917 1.404 . S
C1916 C1919 1.539 . S
C1917 C1913 1.408 . S
C1917 C1916 1.404 . S
C1917 H1929 0.930 . S
C1918 C1914 1.524 . S
C1918 H1930 0.956 . S
C1918 H1931 0.961 . S
C1918 H1932 0.961 . S
C1919 C1916 1.539 . S
C1919 H1933 0.958 . S
C1919 H1934 0.961 . S
C1919 H1935 0.960 . S
H1920 C1904 0.931 . S
H1921 C1909 0.929 . S
H1922 C1910 0.960 . S
H1923 C1910 0.962 . S
H1924 C1910 0.960 . S
H1925 C1911 0.961 . S
H1926 C1911 0.961 . S
H1927 C1911 0.961 . S
H1928 C1912 0.931 . S
H1929 C1917 0.930 . S
H1930 C1918 0.956 . S
H1931 C1918 0.961 . S
H1932 C1918 0.961 . S
H1933 C1919 0.958 . S
H1934 C1919 0.961 . S
H1935 C1919 0.960 . S
C1936 C1937 1.391 . S
C1936 C1938 1.394 . S
C1936 H1952 0.931 . S
C1937 C1936 1.391 . S
C1937 C1941 1.376 . S
C1938 C1936 1.394 . S
C1938 C1939 1.369 . S
C1938 C1942 1.531 . S
C1939 C1938 1.369 . S
C1939 C1940 1.410 . S
C1939 C1947 1.503 . S
C1940 C1939 1.410 . S
C1940 C1941 1.392 . S
C1940 C1943 1.511 . S
C1941 C1937 1.376 . S
C1941 C1940 1.392 . S
C1941 H1953 0.929 . S
C1942 C1938 1.531 . S
C1942 H1954 0.960 . S
C1942 H1955 0.962 . S
C1942 H1956 0.960 . S
C1943 C1940 1.511 . S
C1943 H1957 0.961 . S
C1943 H1958 0.961 . S
C1943 H1959 0.961 . S
C1944 C1945 1.370 . S
C1944 C1946 1.363 . S
C1944 H1960 0.931 . S
C1945 C1944 1.370 . S
C1945 C1949 1.408 . S
C1946 C1944 1.363 . S
C1946 C1947 1.370 . S
C1946 C1950 1.524 . S
C1947 C1939 1.503 . S
C1947 C1946 1.370 . S
C1947 C1948 1.403 . S
C1948 C1947 1.403 . S
C1948 C1949 1.404 . S
C1948 C1951 1.539 . S
C1949 C1945 1.408 . S
C1949 C1948 1.404 . S
C1949 H1961 0.930 . S
C1950 C1946 1.524 . S
C1950 H1962 0.956 . S
C1950 H1963 0.961 . S
C1950 H1964 0.961 . S
C1951 C1948 1.539 . S
C1951 H1965 0.958 . S
C1951 H1966 0.961 . S
C1951 H1967 0.960 . S
H1952 C1936 0.931 . S
H1953 C1941 0.929 . S
H1954 C1942 0.960 . S
H1955 C1942 0.962 . S
H1956 C1942 0.960 . S
H1957 C1943 0.961 . S
H1958 C1943 0.961 . S
H1959 C1943 0.961 . S
H1960 C1944 0.931 . S
H1961 C1949 0.930 . S
H1962 C1950 0.956 . S
H1963 C1950 0.961 . S
H1964 C1950 0.961 . S
H1965 C1951 0.958 . S
H1966 C1951 0.961 . S
H1967 C1951 0.960 . S
C1968 C1969 1.391 . S
C1968 C1970 1.394 . S
C1968 H1984 0.931 . S
C1969 C1968 1.391 . S
C1969 C1973 1.376 . S
C1970 C1968 1.394 . S
C1970 C1971 1.369 . S
C1970 C1974 1.531 . S
C1971 C1970 1.369 . S
C1971 C1972 1.410 . S
C1971 C1979 1.503 . S
C1972 C1971 1.410 . S
C1972 C1973 1.392 . S
C1972 C1975 1.511 . S
C1973 C1969 1.376 . S
C1973 C1972 1.392 . S
C1973 H1985 0.929 . S
C1974 C1970 1.531 . S
C1974 H1986 0.960 . S
C1974 H1987 0.962 . S
C1974 H1988 0.960 . S
C1975 C1972 1.511 . S
C1975 H1989 0.961 . S
C1975 H1990 0.961 . S
C1975 H1991 0.961 . S
C1976 C1977 1.370 . S
C1976 C1978 1.363 . S
C1976 H1992 0.931 . S
C1977 C1976 1.370 . S
C1977 C1981 1.408 . S
C1978 C1976 1.363 . S
C1978 C1979 1.370 . S
C1978 C1982 1.524 . S
C1979 C1971 1.503 . S
C1979 C1978 1.370 . S
C1979 C1980 1.403 . S
C1980 C1979 1.403 . S
C1980 C1981 1.404 . S
C1980 C1983 1.539 . S
C1981 C1977 1.408 . S
C1981 C1980 1.404 . S
C1981 H1993 0.930 . S
C1982 C1978 1.524 . S
C1982 H1994 0.956 . S
C1982 H1995 0.961 . S
C1982 H1996 0.961 . S
C1983 C1980 1.539 . S
C1983 H1997 0.958 . S
C1983 H1998 0.961 . S
C1983 H1999 0.960 . S
H1984 C1968 0.931 . S
H1985 C1973 0.929 . S
H1986 C1974 0.960 . S
H1987 C1974 0.962 . S
H1988 C1974 0.960 . S
H1989 C1975 0.961 . S
H1990 C1975 0.961 . S
H1991 C1975 0.961 . S
H1992 C1976 0.931 . S
H1993 C1981 0.930 . S
H1994 C1982 0.956 . S
H1995 C1982 0.961 . S
H1996 C1982 0.961 . S
H1997 C1983 0.958 . S
H1998 C1983 0.961 . S
H1999 C1983 0.960 . S
C2000 C2001 1.391 . S
C2000 C2002 1.394 . S
C2000 H2016 0.931 . S
C2001 C2000 1.391 . S
C2001 C2005 1.376 . S
C2002 C2000 1.394 . S
C2002 C2003 1.369 . S
C2002 C2006 1.531 . S
C2003 C2002 1.369 . S
C2003 C2004 1.410 . S
C2003 C2011 1.503 . S
C2004 C2003 1.410 . S
C2004 C2005 1.392 . S
C2004 C2007 1.511 . S
C2005 C2001 1.376 . S
C2005 C2004 1.392 . S
C2005 H2017 0.929 . S
C2006 C2002 1.531 . S
C2006 H2018 0.960 . S
C2006 H2019 0.962 . S
C2006 H2020 0.960 . S
C2007 C2004 1.511 . S
C2007 H2021 0.961 . S
C2007 H2022 0.961 . S
C2007 H2023 0.961 . S
C2008 C2009 1.370 . S
C2008 C2010 1.363 . S
C2008 H2024 0.931 . S
C2009 C2008 1.370 . S
C2009 C2013 1.408 . S
C2010 C2008 1.363 . S
C2010 C2011 1.370 . S
C2010 C2014 1.524 . S
C2011 C2003 1.503 . S
C2011 C2010 1.370 . S
C2011 C2012 1.403 . S
C2012 C2011 1.403 . S
C2012 C2013 1.404 . S
C2012 C2015 1.539 . S
C2013 C2009 1.408 . S
C2013 C2012 1.404 . S
C2013 H2025 0.930 . S
C2014 C2010 1.524 . S
C2014 H2026 0.956 . S
C2014 H2027 0.961 . S
C2014 H2028 0.961 . S
C2015 C2012 1.539 . S
C2015 H2029 0.958 . S
C2015 H2030 0.961 . S
C2015 H2031 0.960 . S
H2016 C2000 0.931 . S
H2017 C2005 0.929 . S
H2018 C2006 0.960 . S
H2019 C2006 0.962 . S
H2020 C2006 0.960 . S
H2021 C2007 0.961 . S
H2022 C2007 0.961 . S
H2023 C2007 0.961 . S
H2024 C2008 0.931 . S
H2025 C2013 0.930 . S
H2026 C2014 0.956 . S
H2027 C2014 0.961 . S
H2028 C2014 0.961 . S
H2029 C2015 0.958 . S
H2030 C2015 0.961 . S
H2031 C2015 0.960 . S
C2032 C2033 1.391 . S
C2032 C2034 1.394 . S
C2032 H2048 0.931 . S
C2033 C2032 1.391 . S
C2033 C2037 1.376 . S
C2034 C2032 1.394 . S
C2034 C2035 1.369 . S
C2034 C2038 1.531 . S
C2035 C2034 1.369 . S
C2035 C2036 1.410 . S
C2035 C2043 1.503 . S
C2036 C2035 1.410 . S
C2036 C2037 1.392 . S
C2036 C2039 1.511 . S
C2037 C2033 1.376 . S
C2037 C2036 1.392 . S
C2037 H2049 0.929 . S
C2038 C2034 1.531 . S
C2038 H2050 0.960 . S
C2038 H2051 0.962 . S
C2038 H2052 0.960 . S
C2039 C2036 1.511 . S
C2039 H2053 0.961 . S
C2039 H2054 0.961 . S
C2039 H2055 0.961 . S
C2040 C2041 1.370 . S
C2040 C2042 1.363 . S
C2040 H2056 0.931 . S
C2041 C2040 1.370 . S
C2041 C2045 1.408 . S
C2042 C2040 1.363 . S
C2042 C2043 1.370 . S
C2042 C2046 1.524 . S
C2043 C2035 1.503 . S
C2043 C2042 1.370 . S
C2043 C2044 1.403 . S
C2044 C2043 1.403 . S
C2044 C2045 1.404 . S
C2044 C2047 1.539 . S
C2045 C2041 1.408 . S
C2045 C2044 1.404 . S
C2045 H2057 0.930 . S
C2046 C2042 1.524 . S
C2046 H2058 0.956 . S
C2046 H2059 0.961 . S
C2046 H2060 0.961 . S
C2047 C2044 1.539 . S
C2047 H2061 0.958 . S
C2047 H2062 0.961 . S
C2047 H2063 0.960 . S
H2048 C2032 0.931 . S
H2049 C2037 0.929 . S
H2050 C2038 0.960 . S
H2051 C2038 0.962 . S
H2052 C2038 0.960 . S
H2053 C2039 0.961 . S
H2054 C2039 0.961 . S
H2055 C2039 0.961 . S
H2056 C2040 0.931 . S
H2057 C2045 0.930 . S
H2058 C2046 0.956 . S
H2059 C2046 0.961 . S
H2060 C2046 0.961 . S
H2061 C2047 0.958 . S
H2062 C2047 0.961 . S
H2063 C2047 0.960 . S
C1049 C961 1.516 . S
C1041 C11 0.886 . S
C1073 C143 1.178 . S
C1081 C993 1.446 . S
C1105 C283 1.144 . S
C1113 C1016 1.588 . S
C1145 C920 1.401 . S
C1137 C343 1.105 . S
C1177 C1003 1.405 . S
C1169 C55 1.139 . S
C1209 C1032 1.242 . S
C1201 C115 1.106 . S
C1241 C936 1.372 . S
C1233 C239 1.044 . S
C1273 C971 1.283 . S
C1265 C371 1.178 . S
C1297 C29 1.180 . S
C1305 C999 1.267 . S
C1329 C467 0.917 . S
C1337 C974 1.354 . S
C1361 C229 0.943 . S
C1369 C942 1.176 . S
C1401 C1031 1.382 . S
C1393 C625 1.197 . S
C1433 C975 1.340 . S
C1425 C1 1.120 . S
C1457 C511 1.088 . S
C1465 C943 1.524 . S
C1489 C257 1.220 . S
C1497 C1030 1.442 . S
C1529 C998 1.507 . S
C1521 C581 0.808 . S
C1553 C713 1.079 . S
C1561 C1025 1.457 . S
C1585 C485 1.170 . S
C1593 C929 1.450 . S
C1617 C799 1.136 . S
C1625 C952 1.373 . S
C1649 C571 1.188 . S
C1657 C984 1.373 . S
C1689 C939 1.245 . S
C1681 C685 1.175 . S
C1713 C457 1.124 . S
C1721 C968 1.200 . S
C1745 C827 1.031 . S
C1753 C1000 1.311 . S
C1785 C1035 1.302 . S
C1777 C599 1.071 . S
C1809 C695 0.924 . S
C1817 C935 1.374 . S
C1841 C125 0.923 . S
C1849 C1038 1.369 . S
C1873 C853 1.210 . S
C1881 C1006 1.407 . S
C1913 C967 1.431 . S
C1905 C397 1.163 . S
C1945 C1039 1.564 . S
C1937 C739 1.260 . S
C1977 C1007 1.552 . S
C1969 C169 1.206 . S
C2009 C966 1.500 . S
C2001 C809 0.925 . S
C2041 C934 1.517 . S
C2033 C353 0.964 . S
