# Generated by pormake.
# Topology sit, (3,6)-cn, num edge types: 1
# Building blocks:
#     Node 0, Type 0, BuildingBlock: CUQRIR_clean_linker_1, # of connection points: 3
#     Node 1, Type 0, BuildingBlock: CUQRIR_clean_linker_1, # of connection points: 3
#     Node 2, Type 0, BuildingBlock: CUQRIR_clean_linker_1, # of connection points: 3
#     Node 3, Type 0, BuildingBlock: CUQRIR_clean_linker_1, # of connection points: 3
#     Node 4, Type 1, BuildingBlock: MIDCAF_clean_sbu_0, # of connection points: 6
#     Node 5, Type 1, BuildingBlock: MIDCAF_clean_sbu_0, # of connection points: 6
#     Edge 6, Type (0, 1), BuildingBlock: MIFKUJ_clean_linker_0, # of connection points: 2
#     Edge 7, Type (0, 1), BuildingBlock: MIFKUJ_clean_linker_0, # of connection points: 2
#     Edge 8, Type (0, 1), BuildingBlock: MIFKUJ_clean_linker_0, # of connection points: 2
#     Edge 9, Type (0, 1), BuildingBlock: MIFKUJ_clean_linker_0, # of connection points: 2
#     Edge 10, Type (0, 1), BuildingBlock: MIFKUJ_clean_linker_0, # of connection points: 2
#     Edge 11, Type (0, 1), BuildingBlock: MIFKUJ_clean_linker_0, # of connection points: 2
#     Edge 12, Type (0, 1), BuildingBlock: MIFKUJ_clean_linker_0, # of connection points: 2
#     Edge 13, Type (0, 1), BuildingBlock: MIFKUJ_clean_linker_0, # of connection points: 2
#     Edge 14, Type (0, 1), BuildingBlock: MIFKUJ_clean_linker_0, # of connection points: 2
#     Edge 15, Type (0, 1), BuildingBlock: MIFKUJ_clean_linker_0, # of connection points: 2
#     Edge 16, Type (0, 1), BuildingBlock: MIFKUJ_clean_linker_0, # of connection points: 2
#     Edge 17, Type (0, 1), BuildingBlock: MIFKUJ_clean_linker_0, # of connection points: 2
# Relax obj value: 0.072
# Max RMSD: 0.180
# Mean RMSD: 0.122
data_MOF--net-sit--node1-MIDCAF_clean_sbu_0--node2-CUQRIR_clean_linker_1--edge1-MIFKUJ_clean_linker_0
_symmetry_space_group_name_H-M    P1
_symmetry_Int_Tables_number       1
_symmetry_cell_setting            triclinic
loop_
_symmetry_equiv_pos_as_xyz
'x, y, z'
_cell_length_a     25.409982
_cell_length_b     41.645573
_cell_length_c     45.5491
_cell_angle_alpha  89.984356
_cell_angle_beta   89.391352
_cell_angle_gamma 84.306706
loop_
_atom_site_label
_atom_site_type_symbol
_atom_site_fract_x
_atom_site_fract_y
_atom_site_fract_z
_atom_type_partial_charge
C0 C 0.07752 0.29927 0.06307 0.0
N1 N 0.09512 0.3227 0.04604 0.0
N2 N 0.11859 0.27845 0.07211 0.0
C3 C 0.02013 0.29503 0.06857 0.0
C4 C 0.16168 0.29003 0.05982 0.0
N5 N 0.14732 0.31684 0.04389 0.0
C6 C 0.21776 0.27597 0.06447 0.0
H7 H 0.0064 0.30907 0.08838 0.0
H8 H 0.01432 0.26931 0.0724 0.0
H9 H 0.99553 0.3042 0.0498 0.0
H10 H 0.22903 0.258 0.04696 0.0
H11 H 0.22179 0.26358 0.08602 0.0
H12 H 0.24528 0.29504 0.06333 0.0
C13 C 0.03185 0.7052 0.06542 0.0
N14 N 0.04641 0.67925 0.0481 0.0
N15 N 0.07447 0.72051 0.07276 0.0
C16 C 0.97697 0.71378 0.07763 0.0
C17 C 0.11564 0.70274 0.05964 0.0
N18 N 0.09873 0.67757 0.04482 0.0
C19 C 0.17168 0.71156 0.05917 0.0
H20 H 0.95557 0.7322 0.06337 0.0
H21 H 0.97867 0.72412 0.10001 0.0
H22 H 0.95447 0.69228 0.07855 0.0
H23 H 0.19325 0.69975 0.07796 0.0
H24 H 0.17266 0.73804 0.06122 0.0
H25 H 0.19241 0.70319 0.03859 0.0
C26 C 0.5255 0.78232 0.54178 0.0
N27 N 0.54016 0.80827 0.52699 0.0
N28 N 0.56803 0.76085 0.54695 0.0
C29 C 0.47035 0.77897 0.55286 0.0
C30 C 0.60905 0.77466 0.53466 0.0
N31 N 0.59222 0.80362 0.52267 0.0
C32 C 0.66446 0.75833 0.53194 0.0
H33 H 0.47128 0.76554 0.57391 0.0
H34 H 0.44948 0.7653 0.53648 0.0
H35 H 0.44783 0.80296 0.55601 0.0
H36 H 0.66427 0.73169 0.53172 0.0
H37 H 0.68782 0.76498 0.55105 0.0
H38 H 0.68409 0.76599 0.51159 0.0
C39 C 0.49128 0.25619 0.52841 0.0
N40 N 0.50381 0.22652 0.5167 0.0
N41 N 0.53408 0.26677 0.54144 0.0
C42 C 0.43787 0.27513 0.52613 0.0
C43 C 0.57283 0.2423 0.53749 0.0
N44 N 0.55424 0.21774 0.5226 0.0
C45 C 0.62929 0.24329 0.54686 0.0
H46 H 0.43491 0.28709 0.50437 0.0
H47 H 0.43153 0.29411 0.54315 0.0
H48 H 0.40604 0.25877 0.52783 0.0
H49 H 0.63125 0.25792 0.56711 0.0
H50 H 0.6513 0.2547 0.52916 0.0
H51 H 0.64915 0.2188 0.55074 0.0
Zn52 Zn 0.01743 0.07383 0.33445 0.0
Zn53 Zn 0.07506 0.94989 0.34774 0.0
Zn54 Zn 0.05121 0.01166 0.34052 0.0
C55 C 0.05665 0.96014 0.28806 0.0
C56 C 0.98434 0.96424 0.38007 0.0
O57 O 0.11198 0.03787 0.361 0.0
O58 O 0.07655 0.08855 0.35797 0.0
C59 C 0.03854 0.04951 0.27817 0.0
O60 O 0.05593 0.9898 0.29616 0.0
O61 O 0.06098 0.9377 0.30675 0.0
O62 O 0.0214 0.94178 0.37827 0.0
O63 O 0.9878 0.99102 0.36625 0.0
O64 O 0.02197 0.07524 0.29135 0.0
O65 O 0.05111 0.02332 0.2927 0.0
O66 O 0.97355 0.02431 0.36305 0.0
O67 O 0.94655 0.07514 0.3524 0.0
C68 C 0.93874 0.04901 0.36489 0.0
O69 O 0.12743 0.00447 0.36448 0.0
O70 O 0.14909 0.9519 0.36002 0.0
C71 C 0.11369 0.06815 0.36615 0.0
C72 C 0.16039 0.97927 0.36836 0.0
Zn73 Zn 0.58203 0.56366 0.83645 0.0
Zn74 Zn 0.61496 0.43749 0.83052 0.0
Zn75 Zn 0.60173 0.49983 0.83377 0.0
C76 C 0.59637 0.45928 0.77381 0.0
C77 C 0.52835 0.4507 0.86632 0.0
O78 O 0.66674 0.51696 0.85924 0.0
O79 O 0.64238 0.56949 0.86255 0.0
C80 C 0.59668 0.54885 0.77759 0.0
O81 O 0.60021 0.48657 0.78654 0.0
O82 O 0.59834 0.43358 0.78858 0.0
O83 O 0.56067 0.42689 0.85942 0.0
O84 O 0.53607 0.47928 0.85749 0.0
O85 O 0.59141 0.57295 0.79451 0.0
O86 O 0.59883 0.51997 0.7881 0.0
O87 O 0.52784 0.51301 0.85903 0.0
O88 O 0.50952 0.56582 0.85383 0.0
C89 C 0.49739 0.53918 0.86372 0.0
O90 O 0.67963 0.48353 0.8541 0.0
O91 O 0.68923 0.43159 0.8431 0.0
C92 C 0.67403 0.54525 0.86893 0.0
C93 C 0.70731 0.45581 0.85446 0.0
H94 H 0.15698 0.21814 0.05643 0.0
H95 H 0.152 0.16847 0.08511 0.0
H96 H 0.06957 0.22404 0.15446 0.0
H97 H 0.07524 0.27361 0.12583 0.0
H98 H 0.14593 0.17994 0.17605 0.0
H99 H 0.00273 0.18273 0.10692 0.0
H100 H 0.96355 0.1851 0.05758 0.0
H101 H 0.05688 0.09713 0.03381 0.0
H102 H 0.09721 0.09451 0.08292 0.0
H103 H 0.96822 0.07195 0.23732 0.0
H104 H 0.99145 0.09835 0.19183 0.0
H105 H 0.15494 0.0622 0.20322 0.0
H106 H 0.13137 0.03518 0.2487 0.0
H107 H 0.04895 0.09123 0.13775 0.0
H108 H 0.21929 0.13009 0.20472 0.0
H109 H 0.24941 0.1287 0.25617 0.0
H110 H 0.08808 0.13719 0.28659 0.0
H111 H 0.05716 0.1392 0.2354 0.0
C112 C 0.13831 0.21958 0.07793 0.0
C113 C 0.11652 0.24946 0.08911 0.0
C114 C 0.13521 0.1913 0.09419 0.0
C115 C 0.11024 0.19254 0.12188 0.0
C116 C 0.08915 0.22254 0.13319 0.0
C117 C 0.09206 0.25074 0.11687 0.0
C118 C 0.10488 0.16264 0.13897 0.0
C119 C 0.1254 0.16038 0.16746 0.0
C120 C 0.0778 0.13713 0.12791 0.0
C121 C 0.05345 0.13864 0.09845 0.0
C122 C 0.01523 0.16405 0.09108 0.0
C123 C 0.99276 0.16541 0.06318 0.0
C124 C 0.00784 0.14133 0.04254 0.0
C125 C 0.04532 0.1158 0.0498 0.0
C126 C 0.06799 0.11436 0.07766 0.0
C127 C 0.00856 0.06805 0.22916 0.0
C128 C 0.04811 0.05176 0.24642 0.0
C129 C 0.02186 0.08319 0.20317 0.0
C130 C 0.07504 0.08276 0.19449 0.0
C131 C 0.11368 0.0629 0.20966 0.0
C132 C 0.10018 0.0473 0.23552 0.0
C133 C 0.09023 0.10858 0.17462 0.0
C134 C 0.07115 0.11029 0.14582 0.0
C135 C 0.11782 0.13393 0.1855 0.0
C136 C 0.13603 0.13441 0.21629 0.0
C137 C 0.19034 0.13188 0.22242 0.0
C138 C 0.20752 0.13096 0.25152 0.0
C139 C 0.17067 0.13271 0.27462 0.0
C140 C 0.11658 0.13574 0.26869 0.0
C141 C 0.09922 0.1368 0.23965 0.0
H142 H 0.18398 0.13174 0.29712 0.0
H143 H 0.99038 0.14242 0.02094 0.0
H144 H 0.01419 0.77712 0.06606 0.0
H145 H 0.01309 0.82509 0.09734 0.0
H146 H 0.13852 0.77707 0.14927 0.0
H147 H 0.1372 0.72858 0.11898 0.0
H148 H 0.06731 0.8033 0.18376 0.0
H149 H 0.15752 0.84053 0.09982 0.0
H150 H 0.17153 0.85248 0.04746 0.0
H151 H 0.03085 0.91876 0.04796 0.0
H152 H 0.01557 0.90686 0.10024 0.0
H153 H 0.1288 0.96304 0.24372 0.0
H154 H 0.13224 0.92961 0.19907 0.0
H155 H 0.97693 0.90191 0.2196 0.0
H156 H 0.97416 0.93446 0.26432 0.0
H157 H 0.07119 0.91563 0.14785 0.0
H158 H 0.98963 0.82098 0.22368 0.0
H159 H 0.98288 0.80944 0.27667 0.0
H160 H 0.12246 0.8569 0.29235 0.0
H161 H 0.13058 0.86815 0.23943 0.0
C162 C 0.0412 0.7769 0.08429 0.0
C163 C 0.07561 0.74923 0.09028 0.0
C164 C 0.04115 0.80442 0.10188 0.0
C165 C 0.0762 0.80493 0.1255 0.0
C166 C 0.11118 0.77736 0.13115 0.0
C167 C 0.11073 0.74975 0.11378 0.0
C168 C 0.0741 0.83324 0.14555 0.0
C169 C 0.06841 0.82777 0.17576 0.0
C170 C 0.07602 0.86531 0.13533 0.0
C171 C 0.08517 0.87258 0.1039 0.0
C172 C 0.12935 0.85747 0.08872 0.0
C173 C 0.13755 0.86427 0.05906 0.0
C174 C 0.10204 0.88631 0.04438 0.0
C175 C 0.05831 0.90166 0.05935 0.0
C176 C 0.04988 0.89493 0.08901 0.0
C177 C 0.09454 0.95097 0.23783 0.0
C178 C 0.05123 0.95112 0.25722 0.0
C179 C 0.09653 0.93187 0.21242 0.0
C180 C 0.05521 0.91287 0.20638 0.0
C181 C 0.00937 0.91618 0.22402 0.0
C182 C 0.00769 0.93486 0.24946 0.0
C183 C 0.06353 0.88538 0.18563 0.0
C184 C 0.07031 0.89104 0.15555 0.0
C185 C 0.06391 0.85328 0.19589 0.0
C186 C 0.06035 0.84568 0.22765 0.0
C187 C 0.01904 0.82876 0.23843 0.0
C188 C 0.01497 0.82229 0.26845 0.0
C189 C 0.05212 0.83252 0.28788 0.0
C190 C 0.09362 0.84907 0.2773 0.0
C191 C 0.09796 0.8555 0.2473 0.0
H192 H 0.0488 0.82757 0.31112 0.0
H193 H 0.10847 0.89154 0.02142 0.0
H194 H 0.63172 0.74486 0.59242 0.0
H195 H 0.63681 0.69503 0.62111 0.0
H196 H 0.51333 0.66079 0.56874 0.0
H197 H 0.50903 0.7108 0.53954 0.0
H198 H 0.49679 0.65282 0.62811 0.0
H199 H 0.63544 0.62546 0.55974 0.0
H200 H 0.71439 0.63357 0.52979 0.0
H201 H 0.80495 0.6417 0.60801 0.0
H202 H 0.72635 0.63418 0.63847 0.0
H203 H 0.54078 0.52549 0.73229 0.0
H204 H 0.53698 0.54643 0.68167 0.0
H205 H 0.65708 0.60898 0.70235 0.0
H206 H 0.66155 0.5878 0.75216 0.0
H207 H 0.66816 0.58843 0.64659 0.0
H208 H 0.52357 0.63158 0.71252 0.0
H209 H 0.44464 0.62584 0.74336 0.0
H210 H 0.36573 0.58917 0.66943 0.0
H211 H 0.44446 0.59446 0.63824 0.0
C212 C 0.60627 0.72647 0.58681 0.0
C213 C 0.5703 0.73143 0.56373 0.0
C214 C 0.60914 0.69803 0.60315 0.0
C215 C 0.57605 0.67393 0.59675 0.0
C216 C 0.53946 0.67898 0.5739 0.0
C217 C 0.53684 0.70749 0.55738 0.0
C218 C 0.5787 0.64433 0.61508 0.0
C219 C 0.53389 0.63811 0.63156 0.0
C220 C 0.62712 0.62517 0.6196 0.0
C221 C 0.67484 0.62932 0.60141 0.0
C222 C 0.6721 0.62915 0.57057 0.0
C223 C 0.71682 0.63364 0.5535 0.0
C224 C 0.76465 0.63816 0.56699 0.0
C225 C 0.76788 0.63816 0.59759 0.0
C226 C 0.72326 0.63373 0.61477 0.0
C227 C 0.56766 0.54278 0.72552 0.0
C228 C 0.60158 0.55506 0.74592 0.0
C229 C 0.56515 0.55493 0.69676 0.0
C230 C 0.59621 0.57963 0.68833 0.0
C231 C 0.63279 0.58995 0.70823 0.0
C232 C 0.6352 0.57794 0.73675 0.0
C233 C 0.58699 0.5981 0.66063 0.0
C234 C 0.63059 0.6023 0.64234 0.0
C235 C 0.53756 0.61554 0.65454 0.0
C236 C 0.49012 0.61288 0.67321 0.0
C237 C 0.48949 0.6221 0.70291 0.0
C238 C 0.44478 0.61898 0.72044 0.0
C239 C 0.40027 0.60702 0.70839 0.0
C240 C 0.40026 0.59836 0.67875 0.0
C241 C 0.44489 0.60144 0.66114 0.0
H242 H 0.36572 0.60457 0.722 0.0
H243 H 0.79922 0.64165 0.55373 0.0
H244 H 0.59775 0.31272 0.52759 0.0
H245 H 0.60946 0.36167 0.55619 0.0
H246 H 0.49044 0.33656 0.61803 0.0
H247 H 0.47996 0.28746 0.58985 0.0
H248 H 0.48321 0.40392 0.60356 0.0
H249 H 0.61452 0.3149 0.63183 0.0
H250 H 0.68893 0.27408 0.62028 0.0
H251 H 0.78179 0.34858 0.59027 0.0
H252 H 0.70747 0.38981 0.60121 0.0
H253 H 0.51482 0.43341 0.74976 0.0
H254 H 0.50505 0.41835 0.69867 0.0
H255 H 0.64573 0.46334 0.67558 0.0
H256 H 0.65547 0.47857 0.72747 0.0
H257 H 0.6521 0.40143 0.65761 0.0
H258 H 0.52921 0.49143 0.64436 0.0
H259 H 0.4552 0.53228 0.65605 0.0
H260 H 0.34747 0.45919 0.6568 0.0
H261 H 0.42088 0.41768 0.64548 0.0
C262 C 0.57392 0.31804 0.54715 0.0
C263 C 0.53775 0.29672 0.5566 0.0
C264 C 0.58037 0.34592 0.56333 0.0
C265 C 0.55059 0.35278 0.58912 0.0
C266 C 0.51328 0.33193 0.59798 0.0
C267 C 0.50731 0.30396 0.582 0.0
C268 C 0.56135 0.37971 0.60868 0.0
C269 C 0.52016 0.40365 0.6153 0.0
C270 C 0.61042 0.38007 0.62299 0.0
C271 C 0.6553 0.35535 0.61697 0.0
C272 C 0.65068 0.32254 0.62258 0.0
C273 C 0.69283 0.29934 0.61616 0.0
C274 C 0.74 0.30872 0.60446 0.0
C275 C 0.74518 0.34134 0.59926 0.0
C276 C 0.70307 0.36463 0.60556 0.0
C277 C 0.54272 0.44095 0.73361 0.0
C278 C 0.58573 0.45715 0.7423 0.0
C279 C 0.537 0.43252 0.70437 0.0
C280 C 0.57439 0.43994 0.68316 0.0
C281 C 0.61624 0.45758 0.69156 0.0
C282 C 0.62169 0.46635 0.72104 0.0
C283 C 0.5729 0.42485 0.6537 0.0
C284 C 0.61579 0.40286 0.64514 0.0
C285 C 0.52548 0.42652 0.63747 0.0
C286 C 0.48074 0.45137 0.64403 0.0
C287 C 0.4898 0.48398 0.64713 0.0
C288 C 0.44792 0.50729 0.65371 0.0
C289 C 0.39668 0.49837 0.65719 0.0
C290 C 0.38719 0.46608 0.65404 0.0
C291 C 0.42893 0.44265 0.64745 0.0
H292 H 0.36434 0.51648 0.66231 0.0
H293 H 0.77259 0.29072 0.59949 0.0
H294 H 0.21575 0.29489 0.00131 0.0
H295 H 0.2716 0.32694 0.97111 0.0
H296 H 0.20796 0.4133 0.01665 0.0
H297 H 0.15297 0.3809 0.04728 0.0
H298 H 0.24654 0.37715 0.93324 0.0
H299 H 0.311 0.46203 0.02176 0.0
H300 H 0.3204 0.4645 0.07559 0.0
H301 H 0.34854 0.36117 0.07918 0.0
H302 H 0.34 0.35816 0.02539 0.0
H303 H 0.42518 0.47617 0.86178 0.0
H304 H 0.35046 0.46426 0.89346 0.0
H305 H 0.4564 0.39989 0.94496 0.0
H306 H 0.53066 0.41236 0.91401 0.0
H307 H 0.38526 0.4353 0.97972 0.0
H308 H 0.38575 0.37159 0.88913 0.0
H309 H 0.38046 0.36587 0.83535 0.0
H310 H 0.2286 0.42126 0.83605 0.0
H311 H 0.23335 0.42761 0.88983 0.0
C312 C 0.21442 0.32063 0.005 0.0
C313 C 0.18106 0.33553 0.02675 0.0
C314 C 0.24561 0.33896 0.98758 0.0
C315 C 0.24399 0.37247 0.99172 0.0
C316 C 0.21005 0.38746 0.01325 0.0
C317 C 0.17882 0.36906 0.03067 0.0
C318 C 0.27951 0.39122 0.97411 0.0
C319 C 0.27647 0.3902 0.94339 0.0
C320 C 0.3183 0.40841 0.98736 0.0
C321 C 0.32419 0.40989 0.01965 0.0
C322 C 0.31931 0.43987 0.03407 0.0
C323 C 0.32449 0.44135 0.06456 0.0
C324 C 0.33486 0.413 0.08081 0.0
C325 C 0.3403 0.38311 0.06659 0.0
C326 C 0.33524 0.38149 0.03611 0.0
C327 C 0.43235 0.46002 0.88026 0.0
C328 C 0.48346 0.44536 0.88575 0.0
C329 C 0.38979 0.4531 0.89818 0.0
C330 C 0.39795 0.43114 0.92152 0.0
C331 C 0.44928 0.4171 0.92724 0.0
C332 C 0.49156 0.424 0.90943 0.0
C333 C 0.35327 0.42042 0.93885 0.0
C334 C 0.35438 0.42305 0.96955 0.0
C335 C 0.31311 0.40438 0.9256 0.0
C336 C 0.31017 0.40037 0.89338 0.0
C337 C 0.35141 0.38271 0.87776 0.0
C338 C 0.34848 0.37933 0.84731 0.0
C339 C 0.30429 0.39328 0.83228 0.0
C340 C 0.26285 0.41054 0.84771 0.0
C341 C 0.26563 0.41402 0.87817 0.0
H342 H 0.30209 0.39064 0.8087 0.0
H343 H 0.3388 0.4142 0.10441 0.0
H344 H 0.05505 0.61363 0.0437 0.0
H345 H -0.00091 0.58135 0.01411 0.0
H346 H 0.90027 0.66784 0.99169 0.0
H347 H 0.95906 0.70029 0.01822 0.0
H348 H 0.85139 0.60508 0.01565 0.0
H349 H 0.9648 0.654 0.94623 0.0
H350 H 0.04876 0.66533 0.9231 0.0
H351 H 0.08257 0.56527 0.90111 0.0
H352 H 0.00107 0.55272 0.92687 0.0
H353 H 0.74102 0.59086 0.86174 0.0
H354 H 0.81127 0.6038 0.89457 0.0
H355 H 0.77889 0.52472 0.95111 0.0
H356 H 0.70716 0.51228 0.91837 0.0
H357 H 0.90092 0.57419 0.9131 0.0
H358 H 0.79829 0.54827 0.0221 0.0
H359 H 0.7085 0.54371 0.04193 0.0
H360 H 0.64291 0.60989 0.97651 0.0
H361 H 0.73233 0.61511 0.95656 0.0
C362 C 0.02184 0.6257 0.03206 0.0
C363 C 0.01151 0.65952 0.03312 0.0
C364 C 0.98976 0.60726 0.01546 0.0
C365 C 0.94587 0.62237 0.00072 0.0
C366 C 0.93405 0.65585 0.00297 0.0
C367 C 0.9673 0.67431 0.01836 0.0
C368 C 0.91223 0.60383 0.98232 0.0
C369 C 0.86252 0.59772 0.9934 0.0
C370 C 0.92663 0.59499 0.95312 0.0
C371 C 0.97758 0.60221 0.93956 0.0
C372 C 0.99116 0.63411 0.93778 0.0
C373 C 0.03839 0.64077 0.92413 0.0
C374 C 0.07158 0.61588 0.9112 0.0
C375 C 0.05755 0.58432 0.91191 0.0
C376 C 0.01112 0.57738 0.92629 0.0
C377 C 0.74933 0.57608 0.88104 0.0
C378 C 0.71934 0.55044 0.8875 0.0
C379 C 0.78964 0.58332 0.89968 0.0
C380 C 0.80035 0.56529 0.92533 0.0
C381 C 0.77104 0.53912 0.93155 0.0
C382 C 0.73039 0.53193 0.91285 0.0
C383 C 0.83962 0.57578 0.94625 0.0
C384 C 0.89042 0.58046 0.93568 0.0
C385 C 0.82568 0.58429 0.97561 0.0
C386 C 0.77186 0.58173 0.98766 0.0
C387 C 0.76468 0.56189 0.01203 0.0
C388 C 0.71388 0.55919 0.02327 0.0
C389 C 0.67002 0.5764 0.01041 0.0
C390 C 0.67689 0.59647 0.98637 0.0
C391 C 0.7276 0.59929 0.97508 0.0
H392 H 0.63072 0.57425 0.01912 0.0
H393 H 0.10779 0.62112 0.90029 0.0
H394 H 0.02753 0.37204 0.06597 0.0
H395 H 0.96988 0.40987 0.03606 0.0
H396 H 0.03387 0.36236 0.95737 0.0
H397 H 0.09202 0.32543 0.98733 0.0
H398 H 0.01366 0.42578 0.94747 0.0
H399 H 0.92101 0.34018 0.9922 0.0
H400 H 0.8895 0.31002 0.03446 0.0
H401 H 0.80642 0.3971 0.06861 0.0
H402 H 0.83804 0.42783 0.02669 0.0
H403 H 0.74326 0.40018 0.88094 0.0
H404 H 0.81624 0.39044 0.91446 0.0
H405 H 0.85428 0.48846 0.90295 0.0
H406 H 0.78294 0.49738 0.8667 0.0
H407 H 0.82321 0.41555 0.96518 0.0
H408 H 0.98701 0.49017 0.9275 0.0
H409 H 0.02046 0.51549 0.88289 0.0
H410 H 0.96138 0.44235 0.8295 0.0
H411 H 0.92829 0.41636 0.87378 0.0
C412 C 0.02934 0.37018 0.04227 0.0
C413 C 0.06339 0.34593 0.02873 0.0
C414 C 0.99681 0.39173 0.02522 0.0
C415 C 0.9972 0.38877 0.99445 0.0
C416 C 0.03306 0.3653 0.981 0.0
C417 C 0.06588 0.34407 0.99803 0.0
C418 C 0.95627 0.407 0.97628 0.0
C419 C 0.9719 0.42388 0.95145 0.0
C420 C 0.9018 0.40483 0.98157 0.0
C421 C 0.88237 0.38633 0.00657 0.0
C422 C 0.89625 0.35289 0.00882 0.0
C423 C 0.87838 0.33571 0.03269 0.0
C424 C 0.84613 0.35165 0.05426 0.0
C425 C 0.83152 0.3848 0.05193 0.0
C426 C 0.8494 0.40212 0.02814 0.0
C427 C 0.76758 0.41963 0.88501 0.0
C428 C 0.75601 0.45008 0.87204 0.0
C429 C 0.80911 0.4141 0.90453 0.0
C430 C 0.84008 0.4389 0.91197 0.0
C431 C 0.83064 0.46898 0.89788 0.0
C432 C 0.78934 0.4743 0.87761 0.0
C433 C 0.88061 0.43242 0.93513 0.0
C434 C 0.86479 0.4182 0.96136 0.0
C435 C 0.93481 0.43641 0.93065 0.0
C436 C 0.9545 0.45165 0.90387 0.0
C437 C 0.98117 0.47953 0.90622 0.0
C438 C 8e-05 0.49397 0.88102 0.0
C439 C 0.99276 0.48064 0.85339 0.0
C440 C 0.96677 0.45274 0.85091 0.0
C441 C 0.9479 0.43816 0.87604 0.0
H442 H 0.0074 0.49187 0.83391 0.0
H443 H 0.83234 0.33831 0.07273 0.0
H444 H 0.09237 0.66052 0.9876 0.0
H445 H 0.15383 0.62119 0.9608 0.0
H446 H 0.242 0.60116 0.04025 0.0
H447 H 0.1796 0.63947 0.06709 0.0
H448 H 0.30211 0.62092 0.99436 0.0
H449 H 0.1819 0.54735 0.01524 0.0
H450 H 0.10023 0.52064 0.01956 0.0
H451 H 0.0965 0.50956 0.92602 0.0
H452 H 0.17617 0.5383 0.92077 0.0
H453 H 0.49165 0.51434 0.91858 0.0
H454 H 0.41669 0.52292 0.95318 0.0
H455 H 0.32257 0.57251 0.88575 0.0
H456 H 0.39779 0.5647 0.85139 0.0
H457 H 0.26876 0.52749 0.93202 0.0
H458 H 0.3778 0.62052 0.91878 0.0
H459 H 0.46591 0.64071 0.91807 0.0
H460 H 0.49539 0.60321 0.00484 0.0
H461 H 0.40761 0.58244 0.00582 0.0
C462 C 0.12423 0.64709 -0.00068 0.0
C463 C 0.13178 0.65296 0.02926 0.0
C464 C 0.15909 0.62463 0.98412 0.0
C465 C 0.2023 0.60821 0.99862 0.0
C466 C 0.20883 0.6135 0.02871 0.0
C467 C 0.17359 0.63547 0.04393 0.0
C468 C 0.24442 0.58895 0.98174 0.0
C469 C 0.29467 0.60021 0.98113 0.0
C470 C 0.23497 0.56159 0.96474 0.0
C471 C 0.18492 0.54583 0.96756 0.0
C472 C 0.16299 0.54023 0.99542 0.0
C473 C 0.11693 0.52461 0.99806 0.0
C474 C 0.09291 0.51366 0.97305 0.0
C475 C 0.11494 0.5183 0.94536 0.0
C476 C 0.16038 0.53452 0.94254 0.0
C477 C 0.45443 0.52629 0.91103 0.0
C478 C 0.4501 0.53895 0.8825 0.0
C479 C 0.41171 0.53098 0.93068 0.0
C480 C 0.36418 0.54815 0.92187 0.0
C481 C 0.35874 0.55881 0.89275 0.0
C482 C 0.40171 0.55464 0.87329 0.0
C483 C 0.32442 0.56064 0.94397 0.0
C484 C 0.27523 0.54812 0.94556 0.0
C485 C 0.33467 0.58635 0.96253 0.0
C486 C 0.38651 0.59975 0.96228 0.0
C487 C 0.40322 0.61648 0.93763 0.0
C488 C 0.45305 0.62803 0.93718 0.0
C489 C 0.48628 0.62318 0.96137 0.0
C490 C 0.46963 0.60692 0.98611 0.0
C491 C 0.41985 0.59528 0.98663 0.0
H492 H 0.52489 0.63208 0.96098 0.0
H493 H 0.05746 0.50138 0.97513 0.0
H494 H 0.57496 0.83385 0.47032 0.0
H495 H 0.6281 0.8728 0.44773 0.0
H496 H 0.7397 0.85914 0.51868 0.0
H497 H 0.6823 0.8238 0.54315 0.0
H498 H 0.73896 0.91501 0.5067 0.0
H499 H 0.75024 0.82263 0.44133 0.0
H500 H 0.71535 0.7826 0.40875 0.0
H501 H 0.64609 0.85883 0.3537 0.0
H502 H 0.68035 0.8993 0.38606 0.0
H503 H 0.98081 0.93506 0.43318 0.0
H504 H 0.90256 0.92041 0.45968 0.0
H505 H 0.8027 0.96629 0.3926 0.0
H506 H 0.88126 0.98032 0.36571 0.0
H507 H 0.78456 0.90538 0.40085 0.0
H508 H 0.78906 0.99653 0.47002 0.0
H509 H 0.83031 0.03084 0.50549 0.0
H510 H 0.88727 0.94689 0.55477 0.0
H511 H 0.84528 0.91222 0.5199 0.0
C512 C 0.6101 0.8399 0.48141 0.0
C513 C 0.62451 0.82583 0.50853 0.0
C514 C 0.64116 0.86184 0.46821 0.0
C515 C 0.68891 0.86882 0.481 0.0
C516 C 0.70317 0.85455 0.50816 0.0
C517 C 0.67088 0.8338 0.52196 0.0
C518 C 0.72479 0.89036 0.46628 0.0
C519 C 0.74914 0.91253 0.48358 0.0
C520 C 0.7374 0.88826 0.43587 0.0
C521 C 0.71719 0.86396 0.41631 0.0
C522 C 0.72735 0.83082 0.42235 0.0
C523 C 0.70774 0.80807 0.40391 0.0
C524 C 0.67836 0.81817 0.37923 0.0
C525 C 0.66874 0.85104 0.37286 0.0
C526 C 0.68828 0.87389 0.39121 0.0
C527 C 0.94202 0.94255 0.42444 0.0
C528 C 0.93686 0.95903 0.39759 0.0
C529 C 0.89726 0.93459 0.4398 0.0
C530 C 0.84649 0.94284 0.42851 0.0
C531 C 0.84131 0.96013 0.40202 0.0
C532 C 0.88615 0.9681 0.38665 0.0
C533 C 0.80042 0.92856 0.44163 0.0
C534 C 0.77375 0.90802 0.42391 0.0
C535 C 0.78757 0.93102 0.47187 0.0
C536 C 0.81445 0.95181 0.49213 0.0
C537 C 0.81071 0.98539 0.48822 0.0
C538 C 0.834 0.00491 0.50832 0.0
C539 C 0.86178 0.99103 0.5322 0.0
C540 C 0.86589 0.95762 0.53621 0.0
C541 C 0.84207 0.93806 0.51639 0.0
H542 H 0.8799 0.00618 0.54768 0.0
H543 H 0.66317 0.80051 0.365 0.0
H544 H 0.4481 0.24317 0.46803 0.0
H545 H 0.3877 0.21059 0.44231 0.0
H546 H 0.42522 0.13267 0.50348 0.0
H547 H 0.48396 0.16593 0.52979 0.0
H548 H 0.39944 0.15383 0.41414 0.0
H549 H 0.31314 0.09542 0.51621 0.0
H550 H 0.29963 0.10614 0.56919 0.0
H551 H 0.29311 0.20809 0.55327 0.0
H552 H 0.30583 0.19798 0.5002 0.0
H553 H 0.2183 0.0447 0.36418 0.0
H554 H 0.29133 0.06529 0.39098 0.0
H555 H 0.18189 0.13986 0.42943 0.0
H556 H 0.10903 0.11859 0.40376 0.0
H557 H 0.24906 0.11498 0.46964 0.0
H558 H 0.25983 0.15597 0.37023 0.0
H559 H 0.26809 0.15077 0.31638 0.0
H560 H 0.41592 0.09229 0.32564 0.0
H561 H 0.4085 0.09718 0.37959 0.0
C562 C 0.44275 0.21924 0.47606 0.0
C563 C 0.46948 0.20714 0.50111 0.0
C564 C 0.40897 0.20049 0.4612 0.0
C565 C 0.40156 0.16931 0.47115 0.0
C566 C 0.4298 0.15681 0.49564 0.0
C567 C 0.46332 0.17567 0.51058 0.0
C568 C 0.36235 0.15067 0.45668 0.0
C569 C 0.3668 0.1451 0.42632 0.0
C570 C 0.31953 0.13947 0.4725 0.0
C571 C 0.31108 0.14589 0.50431 0.0
C572 C 0.30866 0.12011 0.52404 0.0
C573 C 0.30114 0.12609 0.55407 0.0
C574 C 0.29571 0.15777 0.5646 0.0
C575 C 0.29753 0.18356 0.54511 0.0
C576 C 0.30493 0.17772 0.51505 0.0
C577 C 0.20989 0.06499 0.3789 0.0
C578 C 0.15805 0.07972 0.38235 0.0
C579 C 0.25161 0.07699 0.39389 0.0
C580 C 0.24203 0.10419 0.41215 0.0
C581 C 0.19015 0.11874 0.41563 0.0
C582 C 0.14863 0.10671 0.4008 0.0
C583 C 0.28574 0.11851 0.42705 0.0
C584 C 0.28224 0.12317 0.45755 0.0
C585 C 0.32871 0.1295 0.41125 0.0
C586 C 0.33334 0.12665 0.37889 0.0
C587 C 0.29392 0.14184 0.36076 0.0
C588 C 0.29847 0.13898 0.33024 0.0
C589 C 0.34232 0.12104 0.3176 0.0
C590 C 0.3819 0.10611 0.33546 0.0
C591 C 0.37762 0.10898 0.36601 0.0
H592 H 0.34571 0.11882 0.29396 0.0
H593 H 0.28997 0.16234 0.58786 0.0
H594 H 0.45998 0.80527 0.48984 0.0
H595 H 0.40399 0.85068 0.46883 0.0
H596 H 0.48712 0.91731 0.51882 0.0
H597 H 0.54383 0.87153 0.53955 0.0
H598 H 0.33887 0.90015 0.50226 0.0
H599 H 0.49975 0.96372 0.48541 0.0
H600 H 0.59371 0.96494 0.47129 0.0
H601 H 0.5709 0.90636 0.39581 0.0
H602 H 0.47702 0.90444 0.40982 0.0
H603 H 0.17465 0.01064 0.41993 0.0
H604 H 0.25004 0.99962 0.45304 0.0
H605 H 0.33096 0.93808 0.3872 0.0
H606 H 0.25629 0.94922 0.35427 0.0
H607 H 0.40186 0.96703 0.42146 0.0
H608 H 0.24577 0.90724 0.43335 0.0
H609 H 0.15061 0.90424 0.44293 0.0
H610 H 0.16333 0.95172 0.52588 0.0
H611 H 0.2585 0.95536 0.51654 0.0
C612 C 0.46584 0.82964 0.49641 0.0
C613 C 0.50573 0.83514 0.51624 0.0
C614 C 0.43428 0.85551 0.48435 0.0
C615 C 0.44195 0.88737 0.49193 0.0
C616 C 0.48132 0.89298 0.51217 0.0
C617 C 0.51321 0.86695 0.52418 0.0
C618 C 0.40706 0.91408 0.47886 0.0
C619 C 0.35277 0.91562 0.48526 0.0
C620 C 0.42509 0.93395 0.45649 0.0
C621 C 0.48182 0.93359 0.44886 0.0
C622 C 0.51506 0.95078 0.46603 0.0
C623 C 0.56818 0.95171 0.45799 0.0
C624 C 0.58822 0.93583 0.43262 0.0
C625 C 0.5553 0.91872 0.41541 0.0
C626 C 0.50223 0.91759 0.42345 0.0
C627 C 0.20954 0.99588 0.41219 0.0
C628 C 0.20983 0.98063 0.38469 0.0
C629 C 0.25246 0.98951 0.4311 0.0
C630 C 0.2958 0.96765 0.42272 0.0
C631 C 0.29809 0.95505 0.39413 0.0
C632 C 0.25529 0.96128 0.37537 0.0
C633 C 0.33354 0.95289 0.44471 0.0
C634 C 0.38812 0.95304 0.43958 0.0
C635 C 0.31581 0.93449 0.46834 0.0
C636 C 0.25892 0.93192 0.47411 0.0
C637 C 0.22814 0.91718 0.45355 0.0
C638 C 0.17425 0.91537 0.45893 0.0
C639 C 0.1509 0.92787 0.48496 0.0
C640 C 0.18145 0.94212 0.5057 0.0
C641 C 0.23534 0.94408 0.50038 0.0
H642 H 0.10917 0.92645 0.48909 0.0
H643 H 0.62929 0.93665 0.42642 0.0
H644 H 0.60321 0.16823 0.55326 0.0
H645 H 0.65859 0.12139 0.53292 0.0
H646 H 0.62614 0.15701 0.44529 0.0
H647 H 0.57135 0.20366 0.46578 0.0
H648 H 0.62821 0.08976 0.44918 0.0
H649 H 0.73301 0.17608 0.48081 0.0
H650 H 0.76393 0.21221 0.51844 0.0
H651 H 0.8244 0.13015 0.56935 0.0
H652 H 0.79288 0.09353 0.53222 0.0
H653 H 0.83852 0.07103 0.35062 0.0
H654 H 0.76268 0.07987 0.38392 0.0
H655 H 0.85681 0.03565 0.45417 0.0
H656 H 0.93278 0.02718 0.42084 0.0
H657 H 0.81905 0.09093 0.47025 0.0
H658 H 0.73612 0.00457 0.43073 0.0
H659 H 0.70152 0.96763 0.39531 0.0
H660 H 0.60008 0.04612 0.35937 0.0
H661 H 0.63412 0.08362 0.39466 0.0
C662 C 0.60814 0.16577 0.5297 0.0
C663 C 0.58449 0.18956 0.51093 0.0
C664 C 0.63915 0.13903 0.51812 0.0
C665 C 0.64667 0.13587 0.48761 0.0
C666 C 0.62066 0.15891 0.46888 0.0
C667 C 0.58988 0.18559 0.48048 0.0
C668 C 0.68611 0.11094 0.47501 0.0
C669 C 0.67004 0.08977 0.45368 0.0
C670 C 0.74029 0.11009 0.48198 0.0
C671 C 0.75996 0.13211 0.50399 0.0
C672 C 0.75256 0.16576 0.50014 0.0
C673 C 0.7702 0.18632 0.52136 0.0
C674 C 0.79597 0.17348 0.54632 0.0
C675 C 0.80429 0.14005 0.55005 0.0
C676 C 0.7865 0.11939 0.52895 0.0
C677 C 0.84228 0.06227 0.37298 0.0
C678 C 0.89104 0.04819 0.38322 0.0
C679 C 0.79875 0.06694 0.39196 0.0
C680 C 0.80336 0.05784 0.42161 0.0
C681 C 0.85166 0.04229 0.43139 0.0
C682 C 0.89518 0.03752 0.41236 0.0
C683 C 0.76181 0.07052 0.44297 0.0
C684 C 0.77733 0.08966 0.46614 0.0
C685 C 0.70718 0.06925 0.43766 0.0
C686 C 0.68791 0.04702 0.4155 0.0
C687 C 0.70679 0.01409 0.41523 0.0
C688 C 0.68713 0.99299 0.39517 0.0
C689 C 0.64868 0.00452 0.37507 0.0
C690 C 0.62983 0.0372 0.37499 0.0
C691 C 0.64918 0.05837 0.39512 0.0
H692 H 0.63346 0.98814 0.35958 0.0
H693 H 0.80961 0.18944 0.56272 0.0
loop_
_geom_bond_atom_site_label_1
_geom_bond_atom_site_label_2
_geom_bond_distance
_geom_bond_site_symmetry_2
_ccdc_geom_bond_type
C0 N1 1.317 . S
C0 N2 1.348 . S
C0 C3 1.485 . S
N1 C0 1.317 . S
N1 N5 1.370 . S
N2 C0 1.348 . S
N2 C4 1.346 . S
C3 C0 1.485 . S
C3 H7 0.960 . S
C3 H8 0.961 . S
C3 H9 0.960 . S
C4 N2 1.346 . S
C4 N5 1.307 . S
C4 C6 1.486 . S
N5 N1 1.370 . S
N5 C4 1.307 . S
C6 C4 1.486 . S
C6 H10 0.960 . S
C6 H11 0.960 . S
C6 H12 0.959 . S
H7 C3 0.960 . S
H8 C3 0.961 . S
H9 C3 0.960 . S
H10 C6 0.960 . S
H11 C6 0.960 . S
H12 C6 0.959 . S
C13 N14 1.317 . S
C13 N15 1.346 1_655 S
C13 C16 1.485 . S
N14 C13 1.317 . S
N14 N18 1.370 1_655 S
N15 C13 1.346 1_455 S
N15 C17 1.348 . S
C16 C13 1.485 . S
C16 H20 0.960 . S
C16 H21 0.961 . S
C16 H22 0.960 . S
C17 N15 1.348 . S
C17 N18 1.307 . S
C17 C19 1.486 . S
N18 N14 1.370 1_455 S
N18 C17 1.307 . S
C19 C17 1.486 . S
C19 H23 0.960 . S
C19 H24 0.960 . S
C19 H25 0.959 . S
H20 C16 0.960 . S
H21 C16 0.961 . S
H22 C16 0.960 . S
H23 C19 0.960 . S
H24 C19 0.960 . S
H25 C19 0.959 . S
C26 N27 1.317 . S
C26 N28 1.348 . S
C26 C29 1.485 . S
N27 C26 1.317 . S
N27 N31 1.370 . S
N28 C26 1.348 . S
N28 C30 1.346 . S
C29 C26 1.485 . S
C29 H33 0.960 . S
C29 H34 0.961 . S
C29 H35 0.960 . S
C30 N28 1.346 . S
C30 N31 1.307 . S
C30 C32 1.486 . S
N31 N27 1.370 . S
N31 C30 1.307 . S
C32 C30 1.486 . S
C32 H36 0.960 . S
C32 H37 0.960 . S
C32 H38 0.959 . S
H33 C29 0.960 . S
H34 C29 0.961 . S
H35 C29 0.960 . S
H36 C32 0.960 . S
H37 C32 0.960 . S
H38 C32 0.959 . S
C39 N40 1.317 . S
C39 N41 1.348 . S
C39 C42 1.485 . S
N40 C39 1.317 . S
N40 N44 1.370 . S
N41 C39 1.348 . S
N41 C43 1.346 . S
C42 C39 1.485 . S
C42 H46 0.960 . S
C42 H47 0.961 . S
C42 H48 0.960 . S
C43 N41 1.346 . S
C43 N44 1.307 . S
C43 C45 1.486 . S
N44 N40 1.370 . S
N44 C43 1.307 . S
C45 C43 1.486 . S
C45 H49 0.960 . S
C45 H50 0.960 . S
C45 H51 0.959 . S
H46 C42 0.960 . S
H47 C42 0.961 . S
H48 C42 0.960 . S
H49 C45 0.960 . S
H50 C45 0.960 . S
H51 C45 0.959 . S
Zn52 O58 1.920 . S
Zn52 O64 1.898 . S
Zn52 O67 1.905 1_455 S
Zn53 O61 1.905 . S
Zn53 O62 1.898 . S
Zn53 O70 1.920 . S
Zn54 O57 2.080 . S
Zn54 O60 2.114 1_545 S
Zn54 O63 2.120 1_545 S
Zn54 O65 2.120 . S
Zn54 O66 2.114 . S
Zn54 O69 2.080 1_545 S
C55 O60 1.166 . S
C55 O61 1.182 . S
C56 O62 1.167 . S
C56 O63 1.299 . S
O57 Zn54 2.080 . S
O57 C71 1.305 . S
O58 Zn52 1.920 . S
O58 C71 1.234 . S
C59 O64 1.167 . S
C59 O65 1.299 . S
O60 Zn54 2.114 1_565 S
O60 C55 1.166 . S
O61 Zn53 1.905 . S
O61 C55 1.182 . S
O62 Zn53 1.898 . S
O62 C56 1.167 . S
O63 Zn54 2.120 1_565 S
O63 C56 1.299 . S
O64 Zn52 1.898 . S
O64 C59 1.167 . S
O65 Zn54 2.120 . S
O65 C59 1.299 . S
O66 Zn54 2.114 . S
O66 C68 1.166 1_455 S
O67 Zn52 1.905 1_655 S
O67 C68 1.182 . S
C68 O66 1.166 1_655 S
C68 O67 1.182 . S
O69 Zn54 2.080 1_565 S
O69 C72 1.305 . S
O70 Zn53 1.920 . S
O70 C72 1.234 . S
C71 O57 1.305 . S
C71 O58 1.234 . S
C72 O69 1.305 . S
C72 O70 1.234 . S
Zn73 O79 1.920 . S
Zn73 O85 1.898 . S
Zn73 O88 1.905 . S
Zn74 O82 1.905 . S
Zn74 O83 1.898 . S
Zn74 O91 1.920 . S
Zn75 O78 2.080 . S
Zn75 O81 2.114 . S
Zn75 O84 2.120 . S
Zn75 O86 2.120 . S
Zn75 O87 2.114 . S
Zn75 O90 2.080 . S
C76 O81 1.166 . S
C76 O82 1.182 . S
C77 O83 1.167 . S
C77 O84 1.299 . S
O78 Zn75 2.080 . S
O78 C92 1.305 . S
O79 Zn73 1.920 . S
O79 C92 1.234 . S
C80 O85 1.167 . S
C80 O86 1.299 . S
O81 Zn75 2.114 . S
O81 C76 1.166 . S
O82 Zn74 1.905 . S
O82 C76 1.182 . S
O83 Zn74 1.898 . S
O83 C77 1.167 . S
O84 Zn75 2.120 . S
O84 C77 1.299 . S
O85 Zn73 1.898 . S
O85 C80 1.167 . S
O86 Zn75 2.120 . S
O86 C80 1.299 . S
O87 Zn75 2.114 . S
O87 C89 1.166 . S
O88 Zn73 1.905 . S
O88 C89 1.182 . S
C89 O87 1.166 . S
C89 O88 1.182 . S
O90 Zn75 2.080 . S
O90 C93 1.305 . S
O91 Zn74 1.920 . S
O91 C93 1.234 . S
C92 O78 1.305 . S
C92 O79 1.234 . S
C93 O90 1.305 . S
C93 O91 1.234 . S
H94 C112 0.951 . S
H95 C114 0.951 . S
H96 C116 0.950 . S
H97 C117 0.950 . S
H98 C119 0.950 . S
H99 C122 0.950 . S
H100 C123 0.950 . S
H101 C125 0.950 . S
H102 C126 0.950 . S
H103 C127 0.951 . S
H104 C129 0.951 . S
H105 C131 0.950 . S
H106 C132 0.950 . S
H107 C134 0.950 . S
H108 C137 0.950 . S
H109 C138 0.950 . S
H110 C140 0.950 . S
H111 C141 0.950 . S
C112 H94 0.951 . S
C112 C113 1.366 . S
C112 C114 1.388 . S
C113 C112 1.366 . S
C113 C117 1.385 . S
C114 H95 0.951 . S
C114 C112 1.388 . S
C114 C115 1.366 . S
C115 C114 1.366 . S
C115 C116 1.414 . S
C115 C118 1.499 . S
C116 H96 0.950 . S
C116 C115 1.414 . S
C116 C117 1.374 . S
C117 H97 0.950 . S
C117 C113 1.385 . S
C117 C116 1.374 . S
C118 C115 1.499 . S
C118 C119 1.373 . S
C118 C120 1.389 . S
C119 H98 0.950 . S
C119 C118 1.373 . S
C119 C135 1.377 . S
C120 C118 1.389 . S
C120 C121 1.524 . S
C120 C134 1.377 . S
C121 C120 1.524 . S
C121 C122 1.397 . S
C121 C126 1.363 . S
C122 H99 0.950 . S
C122 C121 1.397 . S
C122 C123 1.334 . S
C123 H100 0.950 . S
C123 C122 1.334 . S
C123 C124 1.287 . S
C124 C123 1.287 . S
C124 C125 1.524 . S
C124 H143 0.913 . S
C125 H101 0.950 . S
C125 C124 1.524 . S
C125 C126 1.415 . S
C126 H102 0.950 . S
C126 C121 1.363 . S
C126 C125 1.415 . S
C127 H103 0.951 . S
C127 C128 1.366 . S
C127 C129 1.388 . S
C128 C127 1.366 . S
C128 C132 1.385 . S
C129 H104 0.951 . S
C129 C127 1.388 . S
C129 C130 1.366 . S
C130 C129 1.366 . S
C130 C131 1.414 . S
C130 C133 1.499 . S
C131 H105 0.950 . S
C131 C130 1.414 . S
C131 C132 1.374 . S
C132 H106 0.950 . S
C132 C128 1.385 . S
C132 C131 1.374 . S
C133 C130 1.499 . S
C133 C134 1.373 . S
C133 C135 1.389 . S
C134 H107 0.950 . S
C134 C120 1.377 . S
C134 C133 1.373 . S
C135 C119 1.377 . S
C135 C133 1.389 . S
C135 C136 1.524 . S
C136 C135 1.524 . S
C136 C137 1.397 . S
C136 C141 1.363 . S
C137 H108 0.950 . S
C137 C136 1.397 . S
C137 C138 1.334 . S
C138 H109 0.950 . S
C138 C137 1.334 . S
C138 C139 1.287 . S
C139 C138 1.287 . S
C139 C140 1.524 . S
C139 H142 0.999 . S
C140 H110 0.950 . S
C140 C139 1.524 . S
C140 C141 1.415 . S
C141 H111 0.950 . S
C141 C136 1.363 . S
C141 C140 1.415 . S
H142 C139 0.999 . S
H143 C124 0.913 . S
H144 C162 0.951 . S
H145 C164 0.951 . S
H146 C166 0.950 . S
H147 C167 0.950 . S
H148 C169 0.950 . S
H149 C172 0.950 . S
H150 C173 0.950 . S
H151 C175 0.950 . S
H152 C176 0.950 . S
H153 C177 0.951 . S
H154 C179 0.951 . S
H155 C181 0.950 . S
H156 C182 0.955 . S
H157 C184 0.950 1_655 S
H158 C187 0.950 1_655 S
H159 C188 0.950 . S
H160 C190 0.950 . S
H161 C191 0.950 . S
C162 H144 0.951 . S
C162 C163 1.366 1_655 S
C162 C164 1.388 . S
C163 C162 1.366 1_455 S
C163 C167 1.385 . S
C164 H145 0.951 . S
C164 C162 1.388 . S
C164 C165 1.366 1_655 S
C165 C164 1.366 1_455 S
C165 C166 1.414 . S
C165 C168 1.499 . S
C166 H146 0.950 . S
C166 C165 1.414 . S
C166 C167 1.374 . S
C167 H147 0.950 . S
C167 C163 1.385 . S
C167 C166 1.374 . S
C168 C165 1.499 . S
C168 C169 1.373 . S
C168 C170 1.389 . S
C169 H148 0.950 . S
C169 C168 1.373 . S
C169 C185 1.377 . S
C170 C168 1.389 . S
C170 C171 1.524 1_455 S
C170 C184 1.377 . S
C171 C170 1.524 1_655 S
C171 C172 1.397 1_655 S
C171 C176 1.363 . S
C172 H149 0.950 . S
C172 C171 1.397 1_455 S
C172 C173 1.334 . S
C173 H150 0.950 . S
C173 C172 1.334 . S
C173 C174 1.287 1_455 S
C174 C173 1.287 1_655 S
C174 C175 1.524 . S
C174 H193 0.913 . S
C175 H151 0.950 . S
C175 C174 1.524 . S
C175 C176 1.415 . S
C176 H152 0.950 . S
C176 C171 1.363 . S
C176 C175 1.415 . S
C177 H153 0.951 . S
C177 C178 1.366 . S
C177 C179 1.388 . S
C178 C177 1.366 . S
C178 C182 1.378 1_455 S
C179 H154 0.951 . S
C179 C177 1.388 . S
C179 C180 1.366 . S
C180 C179 1.366 . S
C180 C181 1.414 1_455 S
C180 C183 1.499 . S
C181 H155 0.950 . S
C181 C180 1.414 1_655 S
C181 C182 1.375 . S
C182 H156 0.955 . S
C182 C178 1.378 1_655 S
C182 C181 1.375 . S
C183 C180 1.499 . S
C183 C184 1.373 . S
C183 C185 1.389 . S
C184 H157 0.950 1_455 S
C184 C170 1.377 . S
C184 C183 1.373 . S
C185 C169 1.377 . S
C185 C183 1.389 . S
C185 C186 1.524 . S
C186 C185 1.524 . S
C186 C187 1.397 . S
C186 C191 1.363 . S
C187 H158 0.950 1_455 S
C187 C186 1.397 . S
C187 C188 1.334 . S
C188 H159 0.950 . S
C188 C187 1.334 . S
C188 C189 1.287 . S
C189 C188 1.287 . S
C189 C190 1.524 . S
C189 H192 0.999 . S
C190 H160 0.950 . S
C190 C189 1.524 . S
C190 C191 1.415 . S
C191 H161 0.950 . S
C191 C186 1.363 . S
C191 C190 1.415 . S
H192 C189 0.999 . S
H193 C174 0.913 . S
H194 C212 0.951 . S
H195 C214 0.951 . S
H196 C216 0.950 . S
H197 C217 0.950 . S
H198 C219 0.950 . S
H199 C222 0.950 . S
H200 C223 0.950 . S
H201 C225 0.950 . S
H202 C226 0.950 . S
H203 C227 0.951 . S
H204 C229 0.951 . S
H205 C231 0.950 . S
H206 C232 0.950 . S
H207 C234 0.950 . S
H208 C237 0.950 . S
H209 C238 0.950 . S
H210 C240 0.950 . S
H211 C241 0.950 . S
C212 H194 0.951 . S
C212 C213 1.366 . S
C212 C214 1.388 . S
C213 C212 1.366 . S
C213 C217 1.385 . S
C214 H195 0.951 . S
C214 C212 1.388 . S
C214 C215 1.366 . S
C215 C214 1.366 . S
C215 C216 1.414 . S
C215 C218 1.499 . S
C216 H196 0.950 . S
C216 C215 1.414 . S
C216 C217 1.374 . S
C217 H197 0.950 . S
C217 C213 1.385 . S
C217 C216 1.374 . S
C218 C215 1.499 . S
C218 C219 1.373 . S
C218 C220 1.389 . S
C219 H198 0.950 . S
C219 C218 1.373 . S
C219 C235 1.377 . S
C220 C218 1.389 . S
C220 C221 1.524 . S
C220 C234 1.377 . S
C221 C220 1.524 . S
C221 C222 1.397 . S
C221 C226 1.363 . S
C222 H199 0.950 . S
C222 C221 1.397 . S
C222 C223 1.334 . S
C223 H200 0.950 . S
C223 C222 1.334 . S
C223 C224 1.287 . S
C224 C223 1.287 . S
C224 C225 1.524 . S
C224 H243 0.913 . S
C225 H201 0.950 . S
C225 C224 1.524 . S
C225 C226 1.415 . S
C226 H202 0.950 . S
C226 C221 1.363 . S
C226 C225 1.415 . S
C227 H203 0.951 . S
C227 C228 1.366 . S
C227 C229 1.388 . S
C228 C227 1.366 . S
C228 C232 1.385 . S
C229 H204 0.951 . S
C229 C227 1.388 . S
C229 C230 1.366 . S
C230 C229 1.366 . S
C230 C231 1.414 . S
C230 C233 1.499 . S
C231 H205 0.950 . S
C231 C230 1.414 . S
C231 C232 1.374 . S
C232 H206 0.950 . S
C232 C228 1.385 . S
C232 C231 1.374 . S
C233 C230 1.499 . S
C233 C234 1.373 . S
C233 C235 1.389 . S
C234 H207 0.950 . S
C234 C220 1.377 . S
C234 C233 1.373 . S
C235 C219 1.377 . S
C235 C233 1.389 . S
C235 C236 1.524 . S
C236 C235 1.524 . S
C236 C237 1.397 . S
C236 C241 1.363 . S
C237 H208 0.950 . S
C237 C236 1.397 . S
C237 C238 1.334 . S
C238 H209 0.950 . S
C238 C237 1.334 . S
C238 C239 1.287 . S
C239 C238 1.287 . S
C239 C240 1.524 . S
C239 H242 0.999 . S
C240 H210 0.950 . S
C240 C239 1.524 . S
C240 C241 1.415 . S
C241 H211 0.950 . S
C241 C236 1.363 . S
C241 C240 1.415 . S
H242 C239 0.999 . S
H243 C224 0.913 . S
H244 C262 0.951 . S
H245 C264 0.951 . S
H246 C266 0.950 . S
H247 C267 0.950 . S
H248 C269 0.950 . S
H249 C272 0.950 . S
H250 C273 0.950 . S
H251 C275 0.950 . S
H252 C276 0.950 . S
H253 C277 0.951 . S
H254 C279 0.951 . S
H255 C281 0.950 . S
H256 C282 0.950 . S
H257 C284 0.950 . S
H258 C287 0.950 . S
H259 C288 0.950 . S
H260 C290 0.950 . S
H261 C291 0.950 . S
C262 H244 0.951 . S
C262 C263 1.366 . S
C262 C264 1.388 . S
C263 C262 1.366 . S
C263 C267 1.385 . S
C264 H245 0.951 . S
C264 C262 1.388 . S
C264 C265 1.366 . S
C265 C264 1.366 . S
C265 C266 1.414 . S
C265 C268 1.499 . S
C266 H246 0.950 . S
C266 C265 1.414 . S
C266 C267 1.374 . S
C267 H247 0.950 . S
C267 C263 1.385 . S
C267 C266 1.374 . S
C268 C265 1.499 . S
C268 C269 1.373 . S
C268 C270 1.389 . S
C269 H248 0.950 . S
C269 C268 1.373 . S
C269 C285 1.377 . S
C270 C268 1.389 . S
C270 C271 1.524 . S
C270 C284 1.377 . S
C271 C270 1.524 . S
C271 C272 1.397 . S
C271 C276 1.363 . S
C272 H249 0.950 . S
C272 C271 1.397 . S
C272 C273 1.334 . S
C273 H250 0.950 . S
C273 C272 1.334 . S
C273 C274 1.287 . S
C274 C273 1.287 . S
C274 C275 1.524 . S
C274 H293 0.913 . S
C275 H251 0.950 . S
C275 C274 1.524 . S
C275 C276 1.415 . S
C276 H252 0.950 . S
C276 C271 1.363 . S
C276 C275 1.415 . S
C277 H253 0.951 . S
C277 C278 1.366 . S
C277 C279 1.388 . S
C278 C277 1.366 . S
C278 C282 1.385 . S
C279 H254 0.951 . S
C279 C277 1.388 . S
C279 C280 1.366 . S
C280 C279 1.366 . S
C280 C281 1.414 . S
C280 C283 1.499 . S
C281 H255 0.950 . S
C281 C280 1.414 . S
C281 C282 1.374 . S
C282 H256 0.950 . S
C282 C278 1.385 . S
C282 C281 1.374 . S
C283 C280 1.499 . S
C283 C284 1.373 . S
C283 C285 1.389 . S
C284 H257 0.950 . S
C284 C270 1.377 . S
C284 C283 1.373 . S
C285 C269 1.377 . S
C285 C283 1.389 . S
C285 C286 1.524 . S
C286 C285 1.524 . S
C286 C287 1.397 . S
C286 C291 1.363 . S
C287 H258 0.950 . S
C287 C286 1.397 . S
C287 C288 1.334 . S
C288 H259 0.950 . S
C288 C287 1.334 . S
C288 C289 1.287 . S
C289 C288 1.287 . S
C289 C290 1.524 . S
C289 H292 0.999 . S
C290 H260 0.950 . S
C290 C289 1.524 . S
C290 C291 1.415 . S
C291 H261 0.950 . S
C291 C286 1.363 . S
C291 C290 1.415 . S
H292 C289 0.999 . S
H293 C274 0.913 . S
H294 C312 0.938 1_554 S
H295 C314 0.951 . S
H296 C316 0.950 . S
H297 C317 0.950 . S
H298 C319 0.950 . S
H299 C322 0.950 . S
H300 C323 0.950 . S
H301 C325 0.950 . S
H302 C326 0.950 . S
H303 C327 0.951 . S
H304 C329 0.951 . S
H305 C331 0.950 . S
H306 C332 0.950 . S
H307 C334 0.950 . S
H308 C337 0.950 . S
H309 C338 0.950 . S
H310 C340 0.950 . S
H311 C341 0.950 . S
C312 H294 0.938 1_556 S
C312 C313 1.366 . S
C312 C314 1.401 . S
C313 C312 1.366 . S
C313 C317 1.398 . S
C314 H295 0.951 . S
C314 C312 1.401 . S
C314 C315 1.366 . S
C315 C314 1.366 . S
C315 C316 1.414 . S
C315 C318 1.499 . S
C316 H296 0.950 . S
C316 C315 1.414 . S
C316 C317 1.374 . S
C317 H297 0.950 . S
C317 C313 1.398 . S
C317 C316 1.374 . S
C318 C315 1.499 . S
C318 C319 1.373 . S
C318 C320 1.389 . S
C319 H298 0.950 . S
C319 C318 1.373 . S
C319 C335 1.377 . S
C320 C318 1.389 . S
C320 C321 1.524 1_556 S
C320 C334 1.377 . S
C321 C320 1.524 1_554 S
C321 C322 1.397 . S
C321 C326 1.363 . S
C322 H299 0.950 . S
C322 C321 1.397 . S
C322 C323 1.334 . S
C323 H300 0.950 . S
C323 C322 1.334 . S
C323 C324 1.287 . S
C324 C323 1.287 . S
C324 C325 1.524 . S
C324 H343 0.913 . S
C325 H301 0.950 . S
C325 C324 1.524 . S
C325 C326 1.415 . S
C326 H302 0.950 . S
C326 C321 1.363 . S
C326 C325 1.415 . S
C327 H303 0.951 . S
C327 C328 1.366 . S
C327 C329 1.388 . S
C328 C327 1.366 . S
C328 C332 1.385 . S
C329 H304 0.951 . S
C329 C327 1.388 . S
C329 C330 1.366 . S
C330 C329 1.366 . S
C330 C331 1.414 . S
C330 C333 1.499 . S
C331 H305 0.950 . S
C331 C330 1.414 . S
C331 C332 1.374 . S
C332 H306 0.950 . S
C332 C328 1.385 . S
C332 C331 1.374 . S
C333 C330 1.499 . S
C333 C334 1.373 . S
C333 C335 1.389 . S
C334 H307 0.950 . S
C334 C320 1.377 . S
C334 C333 1.373 . S
C335 C319 1.377 . S
C335 C333 1.389 . S
C335 C336 1.524 . S
C336 C335 1.524 . S
C336 C337 1.397 . S
C336 C341 1.363 . S
C337 H308 0.950 . S
C337 C336 1.397 . S
C337 C338 1.334 . S
C338 H309 0.950 . S
C338 C337 1.334 . S
C338 C339 1.287 . S
C339 C338 1.287 . S
C339 C340 1.524 . S
C339 H342 0.999 . S
C340 H310 0.950 . S
C340 C339 1.524 . S
C340 C341 1.415 . S
C341 H311 0.950 . S
C341 C336 1.363 . S
C341 C340 1.415 . S
H342 C339 0.999 . S
H343 C324 0.913 . S
H344 C362 0.951 . S
H345 C364 0.951 . S
H346 C366 0.950 . S
H347 C367 0.950 . S
H348 C369 0.950 . S
H349 C372 0.950 . S
H350 C373 0.950 1_455 S
H351 C375 0.950 1_455 S
H352 C376 0.950 . S
H353 C377 0.951 . S
H354 C379 0.951 . S
H355 C381 0.950 . S
H356 C382 0.950 . S
H357 C384 0.950 . S
H358 C387 0.950 . S
H359 C388 0.938 1_554 S
H360 C390 0.950 . S
H361 C391 0.950 . S
C362 H344 0.951 . S
C362 C363 1.366 . S
C362 C364 1.388 1_554 S
C363 C362 1.366 . S
C363 C367 1.385 1_554 S
C364 H345 0.951 . S
C364 C362 1.388 1_556 S
C364 C365 1.366 . S
C365 C364 1.366 . S
C365 C366 1.414 . S
C365 C368 1.499 . S
C366 H346 0.950 . S
C366 C365 1.414 . S
C366 C367 1.374 . S
C367 H347 0.950 . S
C367 C363 1.385 1_556 S
C367 C366 1.374 . S
C368 C365 1.499 . S
C368 C369 1.373 . S
C368 C370 1.389 . S
C369 H348 0.950 . S
C369 C368 1.373 . S
C369 C385 1.377 . S
C370 C368 1.389 . S
C370 C371 1.524 . S
C370 C384 1.377 . S
C371 C370 1.524 . S
C371 C372 1.397 . S
C371 C376 1.363 . S
C372 H349 0.950 . S
C372 C371 1.397 . S
C372 C373 1.334 . S
C373 H350 0.950 1_655 S
C373 C372 1.334 . S
C373 C374 1.287 1_655 S
C374 C373 1.287 1_455 S
C374 C375 1.524 1_455 S
C374 H393 0.913 . S
C375 H351 0.950 1_655 S
C375 C374 1.524 1_655 S
C375 C376 1.415 . S
C376 H352 0.950 . S
C376 C371 1.363 . S
C376 C375 1.415 . S
C377 H353 0.951 . S
C377 C378 1.366 . S
C377 C379 1.388 . S
C378 C377 1.366 . S
C378 C382 1.385 . S
C379 H354 0.951 . S
C379 C377 1.388 . S
C379 C380 1.366 . S
C380 C379 1.366 . S
C380 C381 1.414 . S
C380 C383 1.499 . S
C381 H355 0.950 . S
C381 C380 1.414 . S
C381 C382 1.374 . S
C382 H356 0.950 . S
C382 C378 1.385 . S
C382 C381 1.374 . S
C383 C380 1.499 . S
C383 C384 1.373 . S
C383 C385 1.389 . S
C384 H357 0.950 . S
C384 C370 1.377 . S
C384 C383 1.373 . S
C385 C369 1.377 . S
C385 C383 1.389 . S
C385 C386 1.524 . S
C386 C385 1.524 . S
C386 C387 1.397 . S
C386 C391 1.363 . S
C387 H358 0.950 . S
C387 C386 1.397 . S
C387 C388 1.334 . S
C388 H359 0.938 1_556 S
C388 C387 1.334 . S
C388 C389 1.287 . S
C389 C388 1.287 . S
C389 C390 1.524 . S
C389 H392 0.999 . S
C390 H360 0.950 . S
C390 C389 1.524 . S
C390 C391 1.415 . S
C391 H361 0.950 . S
C391 C386 1.363 . S
C391 C390 1.415 . S
H392 C389 0.999 . S
H393 C374 0.913 . S
H394 C412 0.950 . S
H395 C414 0.951 . S
H396 C416 0.950 . S
H397 C417 0.950 . S
H398 C419 0.950 . S
H399 C422 0.950 . S
H400 C423 0.950 . S
H401 C425 0.950 . S
H402 C426 0.950 1_556 S
H403 C427 0.951 . S
H404 C429 0.951 . S
H405 C431 0.950 . S
H406 C432 0.950 . S
H407 C434 0.950 . S
H408 C437 0.950 . S
H409 C438 0.950 . S
H410 C440 0.950 . S
H411 C441 0.950 . S
C412 H394 0.950 . S
C412 C413 1.366 . S
C412 C414 1.388 . S
C413 C412 1.366 . S
C413 C417 1.385 . S
C414 H395 0.951 . S
C414 C412 1.388 . S
C414 C415 1.366 1_455 S
C415 C414 1.366 1_655 S
C415 C416 1.414 . S
C415 C418 1.499 . S
C416 H396 0.950 . S
C416 C415 1.414 . S
C416 C417 1.374 1_655 S
C417 H397 0.950 . S
C417 C413 1.385 . S
C417 C416 1.374 1_455 S
C418 C415 1.499 . S
C418 C419 1.373 . S
C418 C420 1.389 . S
C419 H398 0.950 . S
C419 C418 1.373 . S
C419 C435 1.377 . S
C420 C418 1.389 . S
C420 C421 1.524 . S
C420 C434 1.377 . S
C421 C420 1.524 . S
C421 C422 1.397 1_556 S
C421 C426 1.363 1_556 S
C422 H399 0.950 . S
C422 C421 1.397 1_554 S
C422 C423 1.334 . S
C423 H400 0.950 . S
C423 C422 1.334 . S
C423 C424 1.287 . S
C424 C423 1.287 . S
C424 C425 1.524 . S
C424 H443 0.913 . S
C425 H401 0.950 . S
C425 C424 1.524 . S
C425 C426 1.415 . S
C426 H402 0.950 1_554 S
C426 C421 1.363 1_554 S
C426 C425 1.415 . S
C427 H403 0.951 . S
C427 C428 1.366 . S
C427 C429 1.388 . S
C428 C427 1.366 . S
C428 C432 1.385 . S
C429 H404 0.951 . S
C429 C427 1.388 . S
C429 C430 1.366 . S
C430 C429 1.366 . S
C430 C431 1.414 . S
C430 C433 1.499 . S
C431 H405 0.950 . S
C431 C430 1.414 . S
C431 C432 1.374 . S
C432 H406 0.950 . S
C432 C428 1.385 . S
C432 C431 1.374 . S
C433 C430 1.499 . S
C433 C434 1.373 . S
C433 C435 1.389 . S
C434 H407 0.950 . S
C434 C420 1.377 . S
C434 C433 1.373 . S
C435 C419 1.377 . S
C435 C433 1.389 . S
C435 C436 1.524 . S
C436 C435 1.524 . S
C436 C437 1.397 . S
C436 C441 1.363 . S
C437 H408 0.950 . S
C437 C436 1.397 . S
C437 C438 1.334 . S
C438 H409 0.950 . S
C438 C437 1.334 . S
C438 C439 1.287 . S
C439 C438 1.287 . S
C439 C440 1.524 . S
C439 H442 0.999 . S
C440 H410 0.950 . S
C440 C439 1.524 . S
C440 C441 1.415 . S
C441 H411 0.950 . S
C441 C436 1.363 . S
C441 C440 1.415 . S
H442 C439 0.999 . S
H443 C424 0.913 . S
H444 C462 0.951 . S
H445 C464 0.951 . S
H446 C466 0.950 . S
H447 C467 0.950 1_554 S
H448 C469 0.950 . S
H449 C472 0.950 . S
H450 C473 0.950 . S
H451 C475 0.950 . S
H452 C476 0.950 . S
H453 C477 0.951 . S
H454 C479 0.951 . S
H455 C481 0.950 . S
H456 C482 0.950 . S
H457 C484 0.950 . S
H458 C487 0.950 . S
H459 C488 0.950 . S
H460 C490 0.950 . S
H461 C491 0.950 . S
C462 H444 0.951 . S
C462 C463 1.366 . S
C462 C464 1.388 . S
C463 C462 1.366 . S
C463 C467 1.385 . S
C464 H445 0.951 . S
C464 C462 1.388 . S
C464 C465 1.366 . S
C465 C464 1.366 . S
C465 C466 1.414 . S
C465 C468 1.499 . S
C466 H446 0.950 . S
C466 C465 1.414 . S
C466 C467 1.374 . S
C467 H447 0.950 1_556 S
C467 C463 1.385 . S
C467 C466 1.374 . S
C468 C465 1.499 . S
C468 C469 1.373 . S
C468 C470 1.389 . S
C469 H448 0.950 . S
C469 C468 1.373 . S
C469 C485 1.377 . S
C470 C468 1.389 . S
C470 C471 1.524 . S
C470 C484 1.377 . S
C471 C470 1.524 . S
C471 C472 1.397 1_556 S
C471 C476 1.363 . S
C472 H449 0.950 . S
C472 C471 1.397 1_554 S
C472 C473 1.334 . S
C473 H450 0.950 . S
C473 C472 1.334 . S
C473 C474 1.287 . S
C474 C473 1.287 . S
C474 C475 1.524 1_554 S
C474 H493 0.913 . S
C475 H451 0.950 . S
C475 C474 1.524 1_556 S
C475 C476 1.415 . S
C476 H452 0.950 . S
C476 C471 1.363 . S
C476 C475 1.415 . S
C477 H453 0.951 . S
C477 C478 1.366 . S
C477 C479 1.388 . S
C478 C477 1.366 . S
C478 C482 1.385 . S
C479 H454 0.951 . S
C479 C477 1.388 . S
C479 C480 1.366 . S
C480 C479 1.366 . S
C480 C481 1.414 . S
C480 C483 1.499 . S
C481 H455 0.950 . S
C481 C480 1.414 . S
C481 C482 1.374 . S
C482 H456 0.950 . S
C482 C478 1.385 . S
C482 C481 1.374 . S
C483 C480 1.499 . S
C483 C484 1.373 . S
C483 C485 1.389 . S
C484 H457 0.950 . S
C484 C470 1.377 . S
C484 C483 1.373 . S
C485 C469 1.377 . S
C485 C483 1.389 . S
C485 C486 1.524 . S
C486 C485 1.524 . S
C486 C487 1.397 . S
C486 C491 1.363 . S
C487 H458 0.950 . S
C487 C486 1.397 . S
C487 C488 1.334 . S
C488 H459 0.950 . S
C488 C487 1.334 . S
C488 C489 1.287 . S
C489 C488 1.287 . S
C489 C490 1.524 . S
C489 H492 0.999 . S
C490 H460 0.950 . S
C490 C489 1.524 . S
C490 C491 1.415 . S
C491 H461 0.950 . S
C491 C486 1.363 . S
C491 C490 1.415 . S
H492 C489 0.999 . S
H493 C474 0.913 . S
H494 C512 0.951 . S
H495 C514 0.951 . S
H496 C516 0.950 . S
H497 C517 0.950 . S
H498 C519 0.950 . S
H499 C522 0.950 . S
H500 C523 0.950 . S
H501 C525 0.950 . S
H502 C526 0.950 . S
H503 C527 0.951 1_455 S
H504 C529 0.951 . S
H505 C531 0.950 . S
H506 C532 0.950 . S
H507 C534 0.950 . S
H508 C537 0.950 . S
H509 C538 0.950 1_545 S
H510 C540 0.950 . S
H511 C541 0.950 . S
C512 H494 0.951 . S
C512 C513 1.366 . S
C512 C514 1.388 . S
C513 C512 1.366 . S
C513 C517 1.385 . S
C514 H495 0.951 . S
C514 C512 1.388 . S
C514 C515 1.366 . S
C515 C514 1.366 . S
C515 C516 1.414 . S
C515 C518 1.499 . S
C516 H496 0.950 . S
C516 C515 1.414 . S
C516 C517 1.374 . S
C517 H497 0.950 . S
C517 C513 1.385 . S
C517 C516 1.374 . S
C518 C515 1.499 . S
C518 C519 1.373 . S
C518 C520 1.389 . S
C519 H498 0.950 . S
C519 C518 1.373 . S
C519 C535 1.377 . S
C520 C518 1.389 . S
C520 C521 1.524 . S
C520 C534 1.377 . S
C521 C520 1.524 . S
C521 C522 1.397 . S
C521 C526 1.363 . S
C522 H499 0.950 . S
C522 C521 1.397 . S
C522 C523 1.334 . S
C523 H500 0.950 . S
C523 C522 1.334 . S
C523 C524 1.287 . S
C524 C523 1.287 . S
C524 C525 1.524 . S
C524 H543 0.913 . S
C525 H501 0.950 . S
C525 C524 1.524 . S
C525 C526 1.415 . S
C526 H502 0.950 . S
C526 C521 1.363 . S
C526 C525 1.415 . S
C527 H503 0.951 1_655 S
C527 C528 1.366 . S
C527 C529 1.388 . S
C528 C527 1.366 . S
C528 C532 1.385 . S
C529 H504 0.951 . S
C529 C527 1.388 . S
C529 C530 1.366 . S
C530 C529 1.366 . S
C530 C531 1.414 . S
C530 C533 1.499 . S
C531 H505 0.950 . S
C531 C530 1.414 . S
C531 C532 1.374 . S
C532 H506 0.950 . S
C532 C528 1.385 . S
C532 C531 1.374 . S
C533 C530 1.499 . S
C533 C534 1.373 . S
C533 C535 1.389 . S
C534 H507 0.950 . S
C534 C520 1.377 . S
C534 C533 1.373 . S
C535 C519 1.377 . S
C535 C533 1.389 . S
C535 C536 1.524 . S
C536 C535 1.524 . S
C536 C537 1.397 . S
C536 C541 1.363 . S
C537 H508 0.950 . S
C537 C536 1.397 . S
C537 C538 1.334 . S
C538 H509 0.950 1_565 S
C538 C537 1.334 . S
C538 C539 1.287 . S
C539 C538 1.287 . S
C539 C540 1.524 . S
C539 H542 0.999 1_565 S
C540 H510 0.950 . S
C540 C539 1.524 . S
C540 C541 1.415 . S
C541 H511 0.950 . S
C541 C536 1.363 . S
C541 C540 1.415 . S
H542 C539 0.999 1_545 S
H543 C524 0.913 . S
H544 C562 0.951 . S
H545 C564 0.951 . S
H546 C566 0.950 . S
H547 C567 0.950 . S
H548 C569 0.950 . S
H549 C572 0.950 . S
H550 C573 0.950 . S
H551 C575 0.950 . S
H552 C576 0.950 . S
H553 C577 0.951 . S
H554 C579 0.951 . S
H555 C581 0.950 . S
H556 C582 0.950 . S
H557 C584 0.950 . S
H558 C587 0.950 . S
H559 C588 0.950 . S
H560 C590 0.950 . S
H561 C591 0.950 . S
C562 H544 0.951 . S
C562 C563 1.366 . S
C562 C564 1.388 . S
C563 C562 1.366 . S
C563 C567 1.385 . S
C564 H545 0.951 . S
C564 C562 1.388 . S
C564 C565 1.366 . S
C565 C564 1.366 . S
C565 C566 1.414 . S
C565 C568 1.499 . S
C566 H546 0.950 . S
C566 C565 1.414 . S
C566 C567 1.374 . S
C567 H547 0.950 . S
C567 C563 1.385 . S
C567 C566 1.374 . S
C568 C565 1.499 . S
C568 C569 1.373 . S
C568 C570 1.389 . S
C569 H548 0.950 . S
C569 C568 1.373 . S
C569 C585 1.377 . S
C570 C568 1.389 . S
C570 C571 1.524 . S
C570 C584 1.377 . S
C571 C570 1.524 . S
C571 C572 1.397 . S
C571 C576 1.363 . S
C572 H549 0.950 . S
C572 C571 1.397 . S
C572 C573 1.334 . S
C573 H550 0.950 . S
C573 C572 1.334 . S
C573 C574 1.287 . S
C574 C573 1.287 . S
C574 C575 1.524 . S
C574 H593 0.913 . S
C575 H551 0.950 . S
C575 C574 1.524 . S
C575 C576 1.415 . S
C576 H552 0.950 . S
C576 C571 1.363 . S
C576 C575 1.415 . S
C577 H553 0.951 . S
C577 C578 1.366 . S
C577 C579 1.388 . S
C578 C577 1.366 . S
C578 C582 1.385 . S
C579 H554 0.951 . S
C579 C577 1.388 . S
C579 C580 1.366 . S
C580 C579 1.366 . S
C580 C581 1.414 . S
C580 C583 1.499 . S
C581 H555 0.950 . S
C581 C580 1.414 . S
C581 C582 1.374 . S
C582 H556 0.950 . S
C582 C578 1.385 . S
C582 C581 1.374 . S
C583 C580 1.499 . S
C583 C584 1.373 . S
C583 C585 1.389 . S
C584 H557 0.950 . S
C584 C570 1.377 . S
C584 C583 1.373 . S
C585 C569 1.377 . S
C585 C583 1.389 . S
C585 C586 1.524 . S
C586 C585 1.524 . S
C586 C587 1.397 . S
C586 C591 1.363 . S
C587 H558 0.950 . S
C587 C586 1.397 . S
C587 C588 1.334 . S
C588 H559 0.950 . S
C588 C587 1.334 . S
C588 C589 1.287 . S
C589 C588 1.287 . S
C589 C590 1.524 . S
C589 H592 0.999 . S
C590 H560 0.950 . S
C590 C589 1.524 . S
C590 C591 1.415 . S
C591 H561 0.950 . S
C591 C586 1.363 . S
C591 C590 1.415 . S
H592 C589 0.999 . S
H593 C574 0.913 . S
H594 C612 0.951 . S
H595 C614 0.951 . S
H596 C616 0.950 . S
H597 C617 0.950 . S
H598 C619 0.950 . S
H599 C622 0.950 . S
H600 C623 0.950 . S
H601 C625 0.950 . S
H602 C626 0.950 . S
H603 C627 0.951 . S
H604 C629 0.951 . S
H605 C631 0.950 . S
H606 C632 0.950 . S
H607 C634 0.950 . S
H608 C637 0.950 . S
H609 C638 0.950 . S
H610 C640 0.950 . S
H611 C641 0.950 . S
C612 H594 0.951 . S
C612 C613 1.366 . S
C612 C614 1.388 . S
C613 C612 1.366 . S
C613 C617 1.385 . S
C614 H595 0.951 . S
C614 C612 1.388 . S
C614 C615 1.366 . S
C615 C614 1.366 . S
C615 C616 1.414 . S
C615 C618 1.499 . S
C616 H596 0.950 . S
C616 C615 1.414 . S
C616 C617 1.374 . S
C617 H597 0.950 . S
C617 C613 1.385 . S
C617 C616 1.374 . S
C618 C615 1.499 . S
C618 C619 1.373 . S
C618 C620 1.389 . S
C619 H598 0.950 . S
C619 C618 1.373 . S
C619 C635 1.377 . S
C620 C618 1.389 . S
C620 C621 1.524 . S
C620 C634 1.377 . S
C621 C620 1.524 . S
C621 C622 1.397 . S
C621 C626 1.363 . S
C622 H599 0.950 . S
C622 C621 1.397 . S
C622 C623 1.334 . S
C623 H600 0.950 . S
C623 C622 1.334 . S
C623 C624 1.287 . S
C624 C623 1.287 . S
C624 C625 1.524 . S
C624 H643 0.913 . S
C625 H601 0.950 . S
C625 C624 1.524 . S
C625 C626 1.415 . S
C626 H602 0.950 . S
C626 C621 1.363 . S
C626 C625 1.415 . S
C627 H603 0.951 . S
C627 C628 1.366 . S
C627 C629 1.388 . S
C628 C627 1.366 . S
C628 C632 1.385 . S
C629 H604 0.951 . S
C629 C627 1.388 . S
C629 C630 1.366 . S
C630 C629 1.366 . S
C630 C631 1.414 . S
C630 C633 1.499 . S
C631 H605 0.950 . S
C631 C630 1.414 . S
C631 C632 1.374 . S
C632 H606 0.950 . S
C632 C628 1.385 . S
C632 C631 1.374 . S
C633 C630 1.499 . S
C633 C634 1.373 . S
C633 C635 1.389 . S
C634 H607 0.950 . S
C634 C620 1.377 . S
C634 C633 1.373 . S
C635 C619 1.377 . S
C635 C633 1.389 . S
C635 C636 1.524 . S
C636 C635 1.524 . S
C636 C637 1.397 . S
C636 C641 1.363 . S
C637 H608 0.950 . S
C637 C636 1.397 . S
C637 C638 1.334 . S
C638 H609 0.950 . S
C638 C637 1.334 . S
C638 C639 1.287 . S
C639 C638 1.287 . S
C639 C640 1.524 . S
C639 H642 0.999 . S
C640 H610 0.950 . S
C640 C639 1.524 . S
C640 C641 1.415 . S
C641 H611 0.950 . S
C641 C636 1.363 . S
C641 C640 1.415 . S
H642 C639 0.999 . S
H643 C624 0.913 . S
H644 C662 0.951 . S
H645 C664 0.951 . S
H646 C666 0.950 . S
H647 C667 0.950 . S
H648 C669 0.950 . S
H649 C672 0.950 . S
H650 C673 0.950 . S
H651 C675 0.950 . S
H652 C676 0.950 . S
H653 C677 0.951 . S
H654 C679 0.951 . S
H655 C681 0.950 . S
H656 C682 0.950 . S
H657 C684 0.950 . S
H658 C687 0.950 . S
H659 C688 0.950 . S
H660 C690 0.950 . S
H661 C691 0.950 . S
C662 H644 0.951 . S
C662 C663 1.366 . S
C662 C664 1.388 . S
C663 C662 1.366 . S
C663 C667 1.385 . S
C664 H645 0.951 . S
C664 C662 1.388 . S
C664 C665 1.366 . S
C665 C664 1.366 . S
C665 C666 1.414 . S
C665 C668 1.499 . S
C666 H646 0.950 . S
C666 C665 1.414 . S
C666 C667 1.374 . S
C667 H647 0.950 . S
C667 C663 1.385 . S
C667 C666 1.374 . S
C668 C665 1.499 . S
C668 C669 1.373 . S
C668 C670 1.389 . S
C669 H648 0.950 . S
C669 C668 1.373 . S
C669 C685 1.377 . S
C670 C668 1.389 . S
C670 C671 1.524 . S
C670 C684 1.377 . S
C671 C670 1.524 . S
C671 C672 1.397 . S
C671 C676 1.363 . S
C672 H649 0.950 . S
C672 C671 1.397 . S
C672 C673 1.334 . S
C673 H650 0.950 . S
C673 C672 1.334 . S
C673 C674 1.287 . S
C674 C673 1.287 . S
C674 C675 1.524 . S
C674 H693 0.913 . S
C675 H651 0.950 . S
C675 C674 1.524 . S
C675 C676 1.415 . S
C676 H652 0.950 . S
C676 C671 1.363 . S
C676 C675 1.415 . S
C677 H653 0.951 . S
C677 C678 1.366 . S
C677 C679 1.388 . S
C678 C677 1.366 . S
C678 C682 1.385 . S
C679 H654 0.951 . S
C679 C677 1.388 . S
C679 C680 1.366 . S
C680 C679 1.366 . S
C680 C681 1.414 . S
C680 C683 1.499 . S
C681 H655 0.950 . S
C681 C680 1.414 . S
C681 C682 1.374 . S
C682 H656 0.950 . S
C682 C678 1.385 . S
C682 C681 1.374 . S
C683 C680 1.499 . S
C683 C684 1.373 . S
C683 C685 1.389 . S
C684 H657 0.950 . S
C684 C670 1.377 . S
C684 C683 1.373 . S
C685 C669 1.377 . S
C685 C683 1.389 . S
C685 C686 1.524 . S
C686 C685 1.524 . S
C686 C687 1.397 . S
C686 C691 1.363 . S
C687 H658 0.950 . S
C687 C686 1.397 . S
C687 C688 1.334 . S
C688 H659 0.950 . S
C688 C687 1.334 . S
C688 C689 1.287 . S
C689 C688 1.287 . S
C689 C690 1.524 . S
C689 H692 0.999 . S
C690 H660 0.950 . S
C690 C689 1.524 . S
C690 C691 1.415 . S
C691 H661 0.950 . S
C691 C686 1.363 . S
C691 C690 1.415 . S
H692 C689 0.999 . S
H693 C674 0.913 . S
C128 C59 1.384 . S
C113 N2 1.514 . S
C178 C55 1.393 . S
C163 N15 1.511 . S
C228 C80 1.383 . S
C213 N28 1.514 . S
C263 N41 1.511 . S
C278 C76 1.392 . S
C313 N5 1.172 1_556 S
C328 C77 1.068 . S
C378 C92 1.087 . S
C363 N14 1.201 . S
C413 N1 1.795 1_556 S
C428 C93 1.643 . S
C478 C89 1.663 . S
C463 N18 1.803 1_556 S
C528 C56 1.066 1_655 S
C513 N31 1.189 . S
C563 N40 1.201 . S
C578 C71 1.088 . S
C628 C72 1.643 . S
C613 N27 1.795 . S
C678 C68 1.662 . S
C663 N44 1.803 . S
