# Generated by pormake.
# Topology zzz, (3,6)-cn, num edge types: 1
# Building blocks:
#     Node 0, Type 0, BuildingBlock: MIDCAF_clean_linker_0, # of connection points: 3
#     Node 1, Type 0, BuildingBlock: MIDCAF_clean_linker_0, # of connection points: 3
#     Node 2, Type 0, BuildingBlock: MIDCAF_clean_linker_0, # of connection points: 3
#     Node 3, Type 0, BuildingBlock: MIDCAF_clean_linker_0, # of connection points: 3
#     Node 4, Type 0, BuildingBlock: MIDCAF_clean_linker_0, # of connection points: 3
#     Node 5, Type 0, BuildingBlock: MIDCAF_clean_linker_0, # of connection points: 3
#     Node 6, Type 0, BuildingBlock: MIDCAF_clean_linker_0, # of connection points: 3
#     Node 7, Type 0, BuildingBlock: MIDCAF_clean_linker_0, # of connection points: 3
#     Node 8, Type 1, BuildingBlock: KUMBUR_clean_sbu_1, # of connection points: 6
#     Node 9, Type 1, BuildingBlock: KUMBUR_clean_sbu_1, # of connection points: 6
#     Node 10, Type 1, BuildingBlock: KUMBUR_clean_sbu_1, # of connection points: 6
#     Node 11, Type 1, BuildingBlock: KUMBUR_clean_sbu_1, # of connection points: 6
#     Edge 12, Type (0, 1), BuildingBlock: KIFKEQ_clean_linker_1, # of connection points: 2
#     Edge 13, Type (0, 1), BuildingBlock: KIFKEQ_clean_linker_1, # of connection points: 2
#     Edge 14, Type (0, 1), BuildingBlock: KIFKEQ_clean_linker_1, # of connection points: 2
#     Edge 15, Type (0, 1), BuildingBlock: KIFKEQ_clean_linker_1, # of connection points: 2
#     Edge 16, Type (0, 1), BuildingBlock: KIFKEQ_clean_linker_1, # of connection points: 2
#     Edge 17, Type (0, 1), BuildingBlock: KIFKEQ_clean_linker_1, # of connection points: 2
#     Edge 18, Type (0, 1), BuildingBlock: KIFKEQ_clean_linker_1, # of connection points: 2
#     Edge 19, Type (0, 1), BuildingBlock: KIFKEQ_clean_linker_1, # of connection points: 2
#     Edge 20, Type (0, 1), BuildingBlock: KIFKEQ_clean_linker_1, # of connection points: 2
#     Edge 21, Type (0, 1), BuildingBlock: KIFKEQ_clean_linker_1, # of connection points: 2
#     Edge 22, Type (0, 1), BuildingBlock: KIFKEQ_clean_linker_1, # of connection points: 2
#     Edge 23, Type (0, 1), BuildingBlock: KIFKEQ_clean_linker_1, # of connection points: 2
#     Edge 24, Type (0, 1), BuildingBlock: KIFKEQ_clean_linker_1, # of connection points: 2
#     Edge 25, Type (0, 1), BuildingBlock: KIFKEQ_clean_linker_1, # of connection points: 2
#     Edge 26, Type (0, 1), BuildingBlock: KIFKEQ_clean_linker_1, # of connection points: 2
#     Edge 27, Type (0, 1), BuildingBlock: KIFKEQ_clean_linker_1, # of connection points: 2
#     Edge 28, Type (0, 1), BuildingBlock: KIFKEQ_clean_linker_1, # of connection points: 2
#     Edge 29, Type (0, 1), BuildingBlock: KIFKEQ_clean_linker_1, # of connection points: 2
#     Edge 30, Type (0, 1), BuildingBlock: KIFKEQ_clean_linker_1, # of connection points: 2
#     Edge 31, Type (0, 1), BuildingBlock: KIFKEQ_clean_linker_1, # of connection points: 2
#     Edge 32, Type (0, 1), BuildingBlock: KIFKEQ_clean_linker_1, # of connection points: 2
#     Edge 33, Type (0, 1), BuildingBlock: KIFKEQ_clean_linker_1, # of connection points: 2
#     Edge 34, Type (0, 1), BuildingBlock: KIFKEQ_clean_linker_1, # of connection points: 2
#     Edge 35, Type (0, 1), BuildingBlock: KIFKEQ_clean_linker_1, # of connection points: 2
# Relax obj value: 0.314
# Max RMSD: 0.210
# Mean RMSD: 0.182
data_MOF--net-zzz--node1-KUMBUR_clean_sbu_1--node2-MIDCAF_clean_linker_0--edge1-KIFKEQ_clean_linker_1
_symmetry_space_group_name_H-M    P1
_symmetry_Int_Tables_number       1
_symmetry_cell_setting            triclinic
loop_
_symmetry_equiv_pos_as_xyz
'x, y, z'
_cell_length_a     57.371051
_cell_length_b     57.381035
_cell_length_c     21.271317
_cell_angle_alpha  89.998346
_cell_angle_beta   89.824241
_cell_angle_gamma 90.348034
loop_
_atom_site_label
_atom_site_type_symbol
_atom_site_fract_x
_atom_site_fract_y
_atom_site_fract_z
_atom_type_partial_charge
C0 C 0.80176 0.55636 0.38301 0.0
C1 C 0.81844 0.53862 0.37374 0.0
C2 C 0.81568 0.52409 0.32081 0.0
C3 C 0.79803 0.52815 0.27668 0.0
H4 H 0.70408 0.53092 0.18743 0.0
H5 H 0.66626 0.52693 0.13445 0.0
H6 H 0.68016 0.59088 0.03296 0.0
H7 H 0.71638 0.59536 0.08815 0.0
H8 H 0.76605 0.59023 1.01025 0.0
H9 H 0.79058 0.58952 0.9167 0.0
H10 H 0.84841 0.5657 0.02903 0.0
H11 H 0.82428 0.56706 0.12228 0.0
H12 H 0.7728 0.57535 0.34449 0.0
H13 H 0.8029 0.56775 0.42344 0.0
H14 H 0.82812 0.51048 0.31076 0.0
H15 H 0.79775 0.51778 0.23409 0.0
N16 N 0.74722 0.5555 0.21627 0.0
N17 N 0.75371 0.57223 0.11651 0.0
N18 N 0.78535 0.56415 0.18093 0.0
C19 C 0.73859 0.56399 0.16051 0.0
C20 C 0.77697 0.57238 0.126 0.0
C21 C 0.7709 0.55599 0.22652 0.0
C22 C 0.7134 0.56344 0.14222 0.0
C23 C 0.69852 0.54449 0.15553 0.0
C24 C 0.67697 0.54203 0.12394 0.0
C25 C 0.66981 0.5584 0.07801 0.0
C26 C 0.68432 0.57794 0.06805 0.0
C27 C 0.70548 0.58047 0.09978 0.0
C28 C 0.793 0.57795 0.07345 0.0
C29 C 0.78419 0.58548 0.01528 0.0
C30 C 0.79823 0.58505 0.96157 0.0
C31 C 0.82127 0.57699 0.96503 0.0
C32 C 0.83076 0.57205 0.02442 0.0
C33 C 0.81679 0.57262 0.07811 0.0
C34 C 0.7824 0.54674 0.28387 0.0
C35 C 0.78406 0.56043 0.33848 0.0
C36 C 0.97001 0.80406 0.37581 0.0
C37 C 0.98743 0.82131 0.36694 0.0
C38 C 1.00188 0.81927 0.3135 0.0
C39 C 0.99807 0.80169 0.26868 0.0
H40 H 0.99825 0.70733 0.17846 0.0
H41 H 1.00325 0.66979 0.12476 0.0
H42 H 0.93883 0.68137 0.0244 0.0
H43 H 0.93328 0.71701 0.08088 0.0
H44 H 0.93807 0.76578 1.00202 0.0
H45 H 0.93736 0.79037 0.90888 0.0
H46 H 0.9536 0.85046 0.0233 0.0
H47 H 0.95412 0.82609 0.11642 0.0
H48 H 0.95161 0.77458 0.33673 0.0
H49 H 0.95867 0.80468 0.41652 0.0
H50 H 0.01524 0.83218 0.30382 0.0
H51 H 0.00837 0.8019 0.22588 0.0
N52 N 0.97242 0.74968 0.2082 0.0
N53 N 0.95491 0.75513 0.10935 0.0
N54 N 0.96191 0.78728 0.17336 0.0
C55 C 0.96403 0.74053 0.15279 0.0
C56 C 0.95375 0.77835 0.11883 0.0
C57 C 0.97096 0.77334 0.21855 0.0
C58 C 0.96539 0.71536 0.13417 0.0
C59 C 0.98481 0.70127 0.14669 0.0
C60 C 0.98784 0.67987 0.11456 0.0
C61 C 0.97166 0.67212 0.06861 0.0
C62 C 0.9517 0.68587 0.05942 0.0
C63 C 0.94855 0.70677 0.09192 0.0
C64 C 0.94697 0.79385 0.06646 0.0
C65 C 0.94084 0.78434 1.00773 0.0
C66 C 0.94036 0.79841 0.95425 0.0
C67 C 0.94589 0.82221 0.9586 0.0
C68 C 0.94922 0.83216 0.01834 0.0
C69 C 0.94975 0.8181 0.07182 0.0
C70 C 0.97989 0.78535 0.2758 0.0
C71 C 0.96625 0.78639 0.33074 0.0
C72 C 0.71291 0.96657 0.3471 0.0
C73 C 0.70875 0.98998 0.36302 0.0
C74 C 0.72305 1.00727 0.33509 0.0
C75 C 0.74038 1.00129 0.29078 0.0
H76 H 0.81022 0.01449 0.13438 0.0
H77 H 0.84603 0.02328 0.07514 0.0
H78 H 0.86247 0.94992 0.07128 0.0
H79 H 0.82716 0.94148 0.13076 0.0
H80 H 0.77607 0.92779 0.01817 0.0
H81 H 0.75582 0.91913 0.92041 0.0
H82 H 0.69085 0.94027 1.00616 0.0
H83 H 0.71083 0.94792 0.10382 0.0
H84 H 0.73166 0.94257 0.28921 0.0
H85 H 0.7022 0.95274 0.36667 0.0
H86 H 0.72049 0.02547 0.34646 0.0
H87 H 0.75034 0.01501 0.26801 0.0
N88 N 0.77998 0.97846 0.20622 0.0
N89 N 0.78044 0.95703 0.11172 0.0
N90 N 0.74664 0.95768 0.17274 0.0
C91 C 0.79166 0.97078 0.15383 0.0
C92 C 0.75797 0.95058 0.12026 0.0
C93 C 0.75737 0.97134 0.21625 0.0
C94 C 0.81608 0.97734 0.13818 0.0
C95 C 0.82209 1.00045 0.12324 0.0
C96 C 0.84241 1.00538 0.08816 0.0
C97 C 0.85717 0.9873 0.06736 0.0
C98 C 0.85185 0.9644 0.08659 0.0
C99 C 0.83158 0.95952 0.1211 0.0
C100 C 0.74516 0.93922 0.0682 0.0
C101 C 0.75733 0.92989 0.01661 0.0
C102 C 0.74573 0.92499 0.96043 0.0
C103 C 0.72179 0.92962 0.95451 0.0
C104 C 0.70926 0.93638 1.00851 0.0
C105 C 0.7208 0.94099 0.06484 0.0
C106 C 0.74352 0.97794 0.27282 0.0
C107 C 0.72986 0.9607 0.30248 0.0
C108 C 0.56744 0.71066 0.0149 0.0
C109 C 0.57124 0.72227 0.9574 0.0
C110 C 0.57555 0.74642 0.95845 0.0
C111 C 0.57331 0.75898 0.01441 0.0
H112 H 0.57249 0.8309 0.14492 0.0
H113 H 0.56514 0.86672 0.08715 0.0
H114 H 0.49137 0.85117 0.08861 0.0
H115 H 0.49908 0.81494 0.14615 0.0
H116 H 0.5022 0.75658 0.29695 0.0
H117 H 0.49453 0.72745 0.37979 0.0
H118 H 0.56664 0.70646 0.37169 0.0
H119 H 0.57405 0.73524 0.29024 0.0
H120 H 0.56086 0.71376 0.11331 0.0
H121 H 0.56389 0.69211 0.01635 0.0
H122 H 0.57915 0.75585 0.91537 0.0
H123 H 0.57515 0.77777 0.01279 0.0
N124 N 0.55292 0.78377 0.11839 0.0
N125 N 0.5367 0.7846 0.22035 0.0
N126 N 0.55379 0.75033 0.1806 0.0
C127 C 0.5421 0.7957 0.16496 0.0
C128 C 0.54305 0.76176 0.22842 0.0
C129 C 0.55866 0.76111 0.12542 0.0
C130 C 0.53633 0.82036 0.15144 0.0
C131 C 0.5546 0.83568 0.13534 0.0
C132 C 0.55034 0.85621 0.10171 0.0
C133 C 0.52764 0.86193 0.08227 0.0
C134 C 0.50913 0.84727 0.10188 0.0
C135 C 0.51344 0.82671 0.13605 0.0
C136 C 0.53879 0.7484 0.2875 0.0
C137 C 0.51648 0.74619 0.31447 0.0
C138 C 0.51206 0.72925 0.36129 0.0
C139 C 0.52994 0.71442 0.38268 0.0
C140 C 0.55244 0.71761 0.35748 0.0
C141 C 0.55672 0.73418 0.31053 0.0
C142 C 0.56698 0.7476 0.07054 0.0
C143 C 0.56547 0.72317 0.07086 0.0
C144 C 0.1953 0.50699 0.04087 0.0
C145 C 0.19976 0.50693 0.97575 0.0
C146 C 0.22283 0.50226 0.95581 0.0
C147 C 0.2405 0.49688 0.99967 0.0
H148 H 0.3077 0.5239 0.17133 0.0
H149 H 0.3442 0.53391 0.22553 0.0
H150 H 0.35609 0.46077 0.26093 0.0
H151 H 0.32068 0.45108 0.20539 0.0
H152 H 0.2731 0.431 0.28797 0.0
H153 H 0.25316 0.41621 0.38113 0.0
H154 H 0.18719 0.43742 0.30205 0.0
H155 H 0.20684 0.45088 0.20878 0.0
H156 H 0.20815 0.50083 0.13354 0.0
H157 H 0.17791 0.50999 0.05886 0.0
H158 H 0.22715 0.50225 0.90624 0.0
H159 H 0.25766 0.49217 0.98275 0.0
N160 N 0.27414 0.49096 0.12002 0.0
N161 N 0.27631 0.46363 0.20265 0.0
N162 N 0.24139 0.4683 0.14887 0.0
C163 C 0.28682 0.4801 0.16627 0.0
C164 C 0.25371 0.45763 0.19453 0.0
C165 C 0.25122 0.48464 0.11088 0.0
C166 C 0.31123 0.48667 0.18363 0.0
C167 C 0.31863 0.51001 0.18872 0.0
C168 C 0.33941 0.51572 0.22096 0.0
C169 C 0.35331 0.49823 0.24875 0.0
C170 C 0.34638 0.47488 0.24 0.0
C171 C 0.32583 0.46925 0.20802 0.0
C172 C 0.24164 0.44291 0.24188 0.0
C173 C 0.25425 0.43181 0.28981 0.0
C174 C 0.2428 0.4234 0.34344 0.0
C175 C 0.21859 0.42631 0.35062 0.0
C176 C 0.20582 0.43478 0.29903 0.0
C177 C 0.2172 0.44282 0.2452 0.0
C178 C 0.23545 0.49596 0.06438 0.0
C179 C 0.21276 0.50164 0.08413 0.0
C180 C 0.01162 0.22052 0.9712 0.0
C181 C 0.02941 0.21159 0.93198 0.0
C182 C 0.05089 0.2236 0.93086 0.0
C183 C 0.05508 0.24259 0.97076 0.0
H184 H 0.03614 0.34222 0.09807 0.0
H185 H 0.028 0.376 0.16586 0.0
H186 H 0.0095 0.32946 0.3175 0.0
H187 H 0.01749 0.29606 0.24994 0.0
H188 H 0.08071 0.28222 0.27203 0.0
H189 H 0.09759 0.25615 0.34785 0.0
H190 H 0.12193 0.21178 0.19741 0.0
H191 H 0.1037 0.23743 0.12102 0.0
H192 H 1.00232 0.24519 0.0436 0.0
H193 H 0.99484 0.21184 0.97383 0.0
H194 H 0.06487 0.21791 0.90032 0.0
H195 H 0.07233 0.25041 0.97093 0.0
N196 N 0.03233 0.28461 0.0871 0.0
N197 N 0.05932 0.28988 0.16932 0.0
N198 N 0.06471 0.25976 0.09738 0.0
C199 C 0.03991 0.29689 0.13872 0.0
C200 C 0.07186 0.27146 0.14919 0.0
C201 C 0.04517 0.26602 0.06583 0.0
C202 C 0.02692 0.31643 0.16811 0.0
C203 C 0.02919 0.33929 0.14483 0.0
C204 C 0.0248 0.35864 0.18404 0.0
C205 C 0.01847 0.3555 0.24766 0.0
C206 C 0.01467 0.3326 0.2692 0.0
C207 C 0.01884 0.31341 0.23007 0.0
C208 C 0.08978 0.26122 0.19066 0.0
C209 C 0.09029 0.26733 0.25466 0.0
C210 C 0.10028 0.25237 0.29851 0.0
C211 C 0.11019 0.2312 0.27899 0.0
C212 C 0.11351 0.22745 0.21415 0.0
C213 C 0.10309 0.24218 0.17028 0.0
C214 C 0.03788 0.25062 1.01263 0.0
C215 C 0.01581 0.23981 1.01102 0.0
C216 C 0.31207 0.00957 0.97985 0.0
C217 C 0.31725 0.02511 0.93018 0.0
C218 C 0.30148 0.04338 0.91889 0.0
C219 C 0.28247 0.04724 0.95913 0.0
H220 H 0.18897 0.03308 0.0942 0.0
H221 H 0.154 0.02563 0.15916 0.0
H222 H 0.19781 0.01529 0.32117 0.0
H223 H 0.23226 0.02266 0.25688 0.0
H224 H 0.24536 0.09437 0.24617 0.0
H225 H 0.26799 0.11182 0.33069 0.0
H226 H 0.33137 0.09637 0.22797 0.0
H227 H 0.30881 0.08075 0.14312 0.0
H228 H 0.29047 1.00222 0.06051 0.0
H229 H 0.32374 0.99539 0.99076 0.0
H230 H 0.30435 0.05542 0.88042 0.0
H231 H 0.27187 0.06257 0.95197 0.0
N232 N 0.24444 0.03094 0.08664 0.0
N233 N 0.24323 0.05813 0.1696 0.0
N234 N 0.27322 0.06026 0.09564 0.0
C235 C 0.23369 0.0396 0.13935 0.0
C236 C 0.26287 0.06862 0.1482 0.0
C237 C 0.26423 0.04171 0.06428 0.0
C238 C 0.21336 0.02823 0.17034 0.0
C239 C 0.19106 0.02826 0.14308 0.0
C240 C 0.17105 0.0242 0.18045 0.0
C241 C 0.17309 0.02032 0.24572 0.0
C242 C 0.19554 0.01864 0.27145 0.0
C243 C 0.21533 0.02258 0.23439 0.0
C244 C 0.27535 0.08541 0.18898 0.0
C245 C 0.26412 0.09551 0.241 0.0
C246 C 0.27717 0.10534 0.28982 0.0
C247 C 0.30171 0.10465 0.28827 0.0
C248 C 0.31261 0.09731 0.23217 0.0
C249 C 0.29957 0.08803 0.18295 0.0
C250 C 0.27825 0.03264 1.01098 0.0
C251 C 0.29281 0.01331 0.01974 0.0
C252 C 0.41076 0.31463 0.19757 0.0
C253 C 0.41554 0.3128 0.2623 0.0
C254 C 0.42413 0.29146 0.28514 0.0
C255 C 0.43162 0.27425 0.24352 0.0
H256 H 0.44791 0.19763 0.14421 0.0
H257 H 0.45678 0.16375 0.20832 0.0
H258 H 0.52786 0.18777 0.22732 0.0
H259 H 0.51887 0.22186 0.16158 0.0
H260 H 0.4858 0.26856 0.93681 0.0
H261 H 0.49633 0.30168 0.86895 0.0
H262 H 0.5078 0.34401 0.03434 0.0
H263 H 0.49836 0.31091 0.10042 0.0
H264 H 0.41768 0.30092 0.10577 0.0
H265 H 0.40308 0.33026 0.17838 0.0
H266 H 0.4279 0.28898 0.33449 0.0
H267 H 0.44063 0.25928 0.26249 0.0
N268 N 0.45567 0.24476 0.15272 0.0
N269 N 0.48696 0.24872 0.08117 0.0
N270 N 0.45967 0.27886 0.09409 0.0
C271 C 0.47484 0.23563 0.12453 0.0
C272 C 0.47892 0.27041 0.06519 0.0
C273 C 0.44793 0.26626 0.13767 0.0
C274 C 0.48268 0.21245 0.1476 0.0
C275 C 0.46564 0.19537 0.16049 0.0
C276 C 0.47067 0.17605 0.19803 0.0
C277 C 0.49289 0.17322 0.22456 0.0
C278 C 0.51053 0.18936 0.20783 0.0
C279 C 0.50546 0.20883 0.16972 0.0
C280 C 0.49182 0.28696 0.02395 0.0
C281 C 0.49165 0.28469 0.9582 0.0
C282 C 0.49719 0.30392 0.91941 0.0
C283 C 0.50281 0.32591 0.94556 0.0
C284 C 0.50406 0.32755 1.01157 0.0
C285 C 0.49869 0.30843 0.0499 0.0
C286 C 0.43104 0.27829 0.17852 0.0
C287 C 0.4189 0.29771 0.15584 0.0
Tb288 Tb 0.98544 0.03088 0.58716 0.0
C289 C 0.04474 0.03835 0.82101 0.0
N290 N 0.05319 0.03521 0.76225 0.0
C291 C 0.08151 0.06549 0.77894 0.0
C292 C 0.05346 0.05611 0.8603 0.0
C293 C 0.07224 0.04752 0.74192 0.0
C294 C 0.07165 0.07022 0.83778 0.0
C295 C 0.02234 0.02247 0.90735 0.0
C296 C 0.0294 0.02189 0.84386 0.0
C297 C 0.02915 0.04135 0.94539 0.0
C298 C 0.04473 0.05819 0.92183 0.0
Tb299 Tb 0.03526 1.00744 0.70233 0.0
N300 N 0.02405 1.00363 0.80602 0.0
C301 C 0.0101 1.00331 0.93166 0.0
C302 C 0.01463 0.98379 0.83167 0.0
C303 C 0.00687 0.98359 0.89413 0.0
H304 H 0.07957 0.04404 0.69598 0.0
H305 H 0.99842 0.96821 0.91323 0.0
H306 H 0.94903 0.06173 0.67373 0.0
H307 H 0.9695 0.98222 0.37448 0.0
H308 H 0.01206 0.96842 0.80316 0.0
H309 H 1.00432 1.00303 0.98019 0.0
H310 H 0.99306 1.00503 0.44995 0.0
H311 H 0.09607 0.07579 0.76188 0.0
H312 H 0.02355 0.04237 0.994 0.0
H313 H 0.05085 0.07198 0.95254 0.0
H314 H 0.90668 0.06276 0.69511 0.0
H315 H 0.07887 0.08409 0.86645 0.0
H316 H 0.92715 0.97676 0.3928 0.0
N317 N 0.9463 0.03505 0.60465 0.0
C318 C 0.93175 0.02188 0.56938 0.0
C319 C 0.91351 0.05103 0.65984 0.0
C320 C 0.90745 0.02215 0.57876 0.0
C321 C 0.9375 0.05031 0.64783 0.0
C322 C 0.89841 0.03662 0.62574 0.0
N323 N 0.96457 0.01159 0.51152 0.0
C324 C 0.97464 1.00267 0.45847 0.0
C325 C 0.92704 0.99707 0.47862 0.0
C326 C 0.94131 0.00964 0.52053 0.0
C327 C 0.93746 0.98662 0.42621 0.0
C328 C 0.96134 0.98974 0.41562 0.0
H329 H 0.87982 0.03736 0.63464 0.0
H330 H 0.87432 1.00841 0.54612 0.0
H331 H 0.89155 0.98636 0.45808 0.0
O332 O 0.00964 0.05518 0.55324 0.0
O333 O 0.9902 0.9929 0.57821 0.0
O334 O 0.01715 0.9787 0.65188 0.0
O335 O 0.97318 0.05865 0.5314 0.0
O336 O 0.01694 0.01516 0.54496 0.0
O337 O 0.04327 0.02713 0.6175 0.0
O338 O 0.06282 0.99099 0.74985 0.0
O339 O 0.03157 0.04501 0.67977 0.0
O340 O 0.9924 0.04998 0.67471 0.0
O341 O 0.06015 0.9888 0.65014 0.0
O342 O 0.99886 0.99569 0.7199 0.0
O343 O 0.97694 0.02669 0.6871 0.0
C344 C 1.00208 0.97582 0.60498 0.0
C345 C 0.9963 0.09327 0.54292 0.0
C346 C 0.02134 0.12797 0.53816 0.0
C347 C 1.00224 0.14139 0.55881 0.0
C348 C 0.97764 0.10689 0.56387 0.0
C349 C 0.98077 0.13082 0.57258 0.0
C350 C 0.01814 0.10371 0.53295 0.0
C351 C 0.03874 0.01896 0.56134 0.0
C352 C 0.9938 0.06829 0.52856 0.0
C353 C 0.89305 0.00867 0.53942 0.0
C354 C 0.90285 0.99612 0.48931 0.0
C355 C 0.01299 0.05755 0.69215 0.0
C356 C 0.07346 0.95588 0.70165 0.0
C357 C 0.05568 0.9179 0.72038 0.0
C358 C 0.07576 0.90715 0.69632 0.0
C359 C 0.09348 0.94509 0.67804 0.0
C360 C 0.05477 0.94226 0.7228 0.0
C361 C 0.09462 0.92074 0.67556 0.0
C362 C 0.98002 0.00862 0.72394 0.0
C363 C 0.07091 0.98123 0.69934 0.0
H364 H 1.00339 0.16015 0.56248 0.0
H365 H 0.96068 0.09917 0.57289 0.0
H366 H 0.96629 0.14137 0.58819 0.0
H367 H 0.03253 0.09262 0.51977 0.0
H368 H 0.07697 0.88834 0.69423 0.0
H369 H 0.10799 0.95543 0.66069 0.0
H370 H 0.03905 0.95072 0.73884 0.0
H371 H 0.11007 0.9124 0.65714 0.0
Tb372 Tb 0.52826 0.04172 0.70553 0.0
C373 C 0.52324 0.95113 0.51864 0.0
N374 N 0.52467 0.97471 0.51654 0.0
C375 C 0.55097 0.97235 0.42883 0.0
C376 C 0.53589 0.9371 0.47641 0.0
C377 C 0.53785 0.9855 0.4714 0.0
C378 C 0.55014 0.94804 0.43163 0.0
C379 C 0.50495 0.91679 0.56353 0.0
C380 C 0.50814 0.94113 0.56154 0.0
C381 C 0.51803 0.90258 0.52295 0.0
C382 C 0.5335 0.91273 0.4795 0.0
Tb383 Tb 0.50422 0.99417 0.59235 0.0
N384 N 0.49567 0.95547 0.59917 0.0
C385 C 0.48834 0.90759 0.60519 0.0
C386 C 0.47885 0.94673 0.63826 0.0
C387 C 0.47507 0.92266 0.64228 0.0
H388 H 0.53881 1.00425 0.46881 0.0
H389 H 0.46196 0.91576 0.674 0.0
H390 H 0.50703 0.03316 0.84856 0.0
H391 H 0.55412 0.12039 0.58451 0.0
H392 H 0.4686 0.95828 0.66713 0.0
H393 H 0.48534 0.88896 0.60823 0.0
H394 H 0.55337 0.07793 0.60418 0.0
H395 H 0.56174 0.98099 0.39395 0.0
H396 H 0.51598 0.8838 0.52399 0.0
H397 H 0.54318 0.90161 0.44771 0.0
H398 H 0.48862 0.05684 0.93185 0.0
H399 H 0.56023 0.9379 0.39841 0.0
H400 H 0.53323 0.14708 0.65643 0.0
N401 N 0.51257 0.06194 0.78731 0.0
C402 C 0.51092 0.0853 0.77935 0.0
C403 C 0.49478 0.06507 0.88908 0.0
C404 C 0.50068 0.09956 0.82554 0.0
C405 C 0.50527 0.05169 0.84189 0.0
C406 C 0.49224 0.08908 0.8806 0.0
N407 N 0.53172 0.0806 0.6852 0.0
C408 C 0.54417 0.08944 0.63574 0.0
C409 C 0.52098 0.11932 0.71738 0.0
C410 C 0.52088 0.095 0.72624 0.0
C411 C 0.53275 0.12847 0.66507 0.0
C412 C 0.54463 0.11347 0.62448 0.0
H413 H 0.4842 0.09941 0.91729 0.0
H414 H 0.49183 0.13506 0.85061 0.0
H415 H 0.50964 0.15239 0.75578 0.0
O416 O 0.55627 0.02053 0.7317 0.0
O417 O 0.51055 0.05436 0.62021 0.0
O418 O 0.51663 0.0262 0.54525 0.0
O419 O 0.55509 0.05709 0.75855 0.0
O420 O 0.5499 0.03442 0.62241 0.0
O421 O 0.54244 0.99582 0.60226 0.0
O422 O 0.47736 0.01716 0.57036 0.0
O423 O 0.51252 0.97916 0.68449 0.0
O424 O 0.51963 0.0092 0.75614 0.0
O425 O 0.48034 0.98355 0.52327 0.0
O426 O 0.48052 1.00058 0.67185 0.0
O427 O 0.49088 0.03528 0.72199 0.0
C428 C 0.51251 0.04802 0.56096 0.0
C429 C 0.59153 0.04149 0.72624 0.0
C430 C 0.62894 0.02424 0.69807 0.0
C431 C 0.63541 0.04513 0.66801 0.0
C432 C 0.59839 0.06232 0.69645 0.0
C433 C 0.62019 0.06403 0.66736 0.0
C434 C 0.60691 0.02261 0.72694 0.0
C435 C 0.55661 0.01393 0.6016 0.0
C436 C 0.56798 0.03846 0.75327 0.0
C437 C 0.4998 0.12378 0.81592 0.0
C438 C 0.50994 0.13365 0.76191 0.0
C439 C 0.51728 0.98687 0.74163 0.0
C440 C 0.44231 0.99929 0.53899 0.0
C441 C 0.4039 0.01778 0.53765 0.0
C442 C 0.39367 0.9953 0.53883 0.0
C443 C 0.4317 0.97723 0.54094 0.0
C444 C 0.42841 0.01931 0.54001 0.0
C445 C 0.40748 0.97534 0.54174 0.0
C446 C 0.4757 0.0186 0.70827 0.0
C447 C 0.46769 1.00223 0.53188 0.0
H448 H 0.65224 0.04686 0.64522 0.0
H449 H 0.58691 0.07718 0.69499 0.0
H450 H 0.62529 0.08005 0.64409 0.0
H451 H 0.60179 1.00674 0.75112 0.0
H452 H 0.37506 0.99273 0.53532 0.0
H453 H 0.44203 0.9615 0.5408 0.0
H454 H 0.43711 0.03606 0.54115 0.0
H455 H 0.39932 0.95828 0.54241 0.0
Tb456 Tb 0.53725 0.51029 0.6103 0.0
C457 C 0.46395 0.48724 0.80049 0.0
N458 N 0.46133 0.49895 0.7455 0.0
C459 C 0.42825 0.47504 0.7196 0.0
C460 C 0.44911 0.46846 0.81648 0.0
C461 C 0.44352 0.49341 0.7055 0.0
C462 C 0.43111 0.46243 0.77518 0.0
C463 C 0.48537 0.48198 0.89731 0.0
C464 C 0.48191 0.49389 0.84008 0.0
C465 C 0.47108 0.46282 0.9127 0.0
C466 C 0.45293 0.45614 0.87251 0.0
Tb467 Tb 0.4866 0.52922 0.72844 0.0
N468 N 0.49535 0.51256 0.8237 0.0
C469 C 0.50257 0.49015 0.93831 0.0
C470 C 0.51026 0.522 0.86686 0.0
C471 C 0.51471 0.51057 0.92359 0.0
H472 H 0.44106 0.50312 0.66264 0.0
H473 H 0.52703 0.5179 0.9567 0.0
H474 H 0.5828 0.48961 0.68521 0.0
H475 H 0.53152 0.56305 0.39999 0.0
H476 H 0.51801 0.53886 0.85935 0.0
H477 H 0.5058 0.4815 0.98269 0.0
H478 H 0.51689 0.5357 0.48041 0.0
H479 H 0.41429 0.4706 0.68755 0.0
H480 H 0.47363 0.45335 0.95619 0.0
H481 H 0.4419 0.44148 0.88528 0.0
H482 H 0.62504 0.49853 0.69258 0.0
H483 H 0.41935 0.4481 0.78574 0.0
H484 H 0.57248 0.57678 0.4032 0.0
N485 N 0.57661 0.51528 0.61553 0.0
C486 C 0.58608 0.53109 0.57549 0.0
C487 C 0.61424 0.50796 0.65974 0.0
C488 C 0.61006 0.53643 0.57675 0.0
C489 C 0.59034 0.50312 0.65603 0.0
C490 C 0.62412 0.5249 0.62041 0.0
N491 N 0.54903 0.53443 0.53028 0.0
C492 C 0.53479 0.54145 0.48243 0.0
C493 C 0.58099 0.55638 0.48556 0.0
C494 C 0.57181 0.54087 0.53077 0.0
C495 C 0.56615 0.56476 0.43873 0.0
C496 C 0.54302 0.55702 0.43672 0.0
H497 H 0.64265 0.52851 0.62302 0.0
H498 H 0.63761 0.5571 0.53391 0.0
H499 H 0.6121 0.5746 0.45394 0.0
O500 O 0.5199 0.48137 0.57206 0.0
O501 O 0.53109 0.54788 0.60903 0.0
O502 O 0.49718 0.55746 0.66415 0.0
O503 O 0.55773 0.48591 0.56059 0.0
O504 O 0.50215 0.51256 0.56836 0.0
O505 O 0.47387 0.52964 0.63232 0.0
O506 O 0.47719 0.55292 0.79965 0.0
O507 O 0.49283 0.49287 0.69697 0.0
O508 O 0.53205 0.49046 0.69658 0.0
O509 O 0.45268 0.5429 0.72906 0.0
O510 O 0.52228 0.54302 0.74773 0.0
O511 O 0.54612 0.51403 0.71015 0.0
C512 C 0.51467 0.56256 0.62593 0.0
C513 C 0.54016 0.45107 0.51436 0.0
C514 C 0.51975 0.41801 0.46776 0.0
C515 C 0.54132 0.40811 0.45173 0.0
C516 C 0.56158 0.44109 0.49759 0.0
C517 C 0.5621 0.41968 0.4664 0.0
C518 C 0.51932 0.43952 0.49896 0.0
C519 C 0.48092 0.52062 0.5787 0.0
C520 C 0.53939 0.47301 0.54988 0.0
C521 C 0.61924 0.55259 0.53345 0.0
C522 C 0.60472 0.56255 0.4879 0.0
C523 C 0.51181 0.48123 0.71055 0.0
C524 C 0.4536 0.58238 0.75524 0.0
C525 C 0.46905 0.62135 0.73291 0.0
C526 C 0.44733 0.62755 0.70761 0.0
C527 C 0.43199 0.58905 0.73057 0.0
C528 C 0.47201 0.59867 0.75652 0.0
C529 C 0.42894 0.6115 0.70676 0.0
C530 C 0.54245 0.53195 0.74749 0.0
C531 C 0.4575 0.55782 0.77282 0.0
H532 H 0.54211 0.39161 0.4271 0.0
H533 H 0.57788 0.44967 0.50914 0.0
H534 H 0.57865 0.41202 0.45367 0.0
H535 H 0.50271 0.44705 0.51206 0.0
H536 H 0.44456 0.64479 0.68843 0.0
H537 H 0.41765 0.5767 0.72837 0.0
H538 H 0.48865 0.59372 0.77619 0.0
H539 H 0.41229 0.61643 0.68716 0.0
Tb540 Tb 0.02803 0.54212 0.59869 0.0
C541 C 0.03282 0.47938 0.82852 0.0
N542 N 0.03023 0.47222 0.7684 0.0
C543 C 0.06021 0.44377 0.78272 0.0
C544 C 0.05009 0.46988 0.86763 0.0
C545 C 0.04271 0.45378 0.74592 0.0
C546 C 0.06432 0.45227 0.84335 0.0
C547 C 0.01621 0.49985 0.91689 0.0
C548 C 0.01626 0.49417 0.85243 0.0
C549 C 0.03462 0.49227 0.95516 0.0
C550 C 0.05159 0.47727 0.93048 0.0
Tb551 Tb 1.00309 0.49118 0.70949 0.0
N552 N 0.99844 0.50023 0.81422 0.0
C553 C 0.99685 0.51142 0.94163 0.0
C554 C 0.97834 0.50881 0.83987 0.0
C555 C 0.97752 0.51527 0.90331 0.0
H556 H 0.0397 0.44747 0.69872 0.0
H557 H 0.96193 0.52306 0.92264 0.0
H558 H 0.05432 0.58066 0.68968 0.0
H559 H 0.98643 0.55422 0.37381 0.0
H560 H 0.96315 0.51144 0.81088 0.0
H561 H 0.99607 0.51612 0.99092 0.0
H562 H 0.00746 0.53242 0.45565 0.0
H563 H 0.07061 0.42967 0.76415 0.0
H564 H 0.03516 0.49681 1.00458 0.0
H565 H 0.06499 0.47054 0.96117 0.0
H566 H 0.05333 0.62317 0.70791 0.0
H567 H 0.07781 0.44447 0.87184 0.0
H568 H 0.97889 0.59636 0.38778 0.0
N569 N 0.03015 0.58159 0.61419 0.0
C570 C 0.01785 0.59523 0.57472 0.0
C571 C 0.04309 0.61554 0.67045 0.0
C572 C 0.01698 0.61959 0.58235 0.0
C573 C 0.04354 0.59145 0.66015 0.0
C574 C 0.02945 0.62967 0.63193 0.0
N575 N 0.01095 0.56156 0.51678 0.0
C576 C 1.00415 0.5507 0.46257 0.0
C577 C 0.9962 0.59808 0.47799 0.0
C578 C 0.00779 0.58474 0.52372 0.0
C579 C 0.98794 0.5868 0.4241 0.0
C580 C 0.99223 0.56304 0.41598 0.0
H581 H 0.02927 0.64834 0.63958 0.0
H582 H 1.00332 0.65177 0.54414 0.0
H583 H 0.985 0.63284 0.45245 0.0
O584 O 0.05484 0.51896 0.57465 0.0
O585 O 0.9909 0.53503 0.58118 0.0
O586 O 0.9753 0.50983 0.65797 0.0
O587 O 0.05724 0.55526 0.54961 0.0
O588 O 0.01445 0.51022 0.55282 0.0
O589 O 0.02456 0.48377 0.62706 0.0
O590 O 0.98515 0.46339 0.7533 0.0
O591 O 0.0409 0.49692 0.69472 0.0
O592 O 0.04376 0.53627 0.69117 0.0
O593 O 0.98595 0.46634 0.65331 0.0
O594 O 0.98999 0.52693 0.72915 0.0
O595 O 0.01956 0.55163 0.6964 0.0
C596 C 0.97335 0.52372 0.6082 0.0
C597 C 0.09144 0.53629 0.58592 0.0
C598 C 0.12663 0.51546 0.61645 0.0
C599 C 0.13335 0.53458 0.65362 0.0
C600 C 0.09858 0.55535 0.62275 0.0
C601 C 0.1194 0.55441 0.65651 0.0
C602 C 0.10558 0.51647 0.58293 0.0
C603 C 0.01797 0.48844 0.5695 0.0
C604 C 0.06843 0.53565 0.5552 0.0
C605 C 1.00445 0.63303 0.53888 0.0
C606 C 0.99403 0.62226 0.48669 0.0
C607 C 0.05201 0.5162 0.70974 0.0
C608 C 0.95159 0.45232 0.69732 0.0
C609 C 0.91283 0.46901 0.70903 0.0
C610 C 0.90344 0.44975 0.67664 0.0
C611 C 0.94203 0.43326 0.66515 0.0
C612 C 0.93693 0.46982 0.72016 0.0
C613 C 0.91798 0.43192 0.65536 0.0
C614 C 1.00158 0.54685 0.73308 0.0
C615 C 0.97692 0.45539 0.70074 0.0
H616 H 0.14942 0.53423 0.6802 0.0
H617 H 0.08801 0.57083 0.62621 0.0
H618 H 0.12468 0.56907 0.68528 0.0
H619 H 0.10022 0.50192 0.55372 0.0
H620 H 0.88498 0.44865 0.66663 0.0
H621 H 0.95319 0.41974 0.6465 0.0
H622 H 0.9445 0.48443 0.74506 0.0
H623 H 0.91065 0.41726 0.63003 0.0
H624 H 0.13141 0.99616 0.23355 0.0
H625 H 0.16755 0.04447 0.35475 0.0
H626 H 0.09872 0.99486 0.30812 0.0
H627 H 0.13495 0.04398 0.42759 0.0
H628 H 0.08568 0.02219 0.58089 0.0
H629 H 0.11699 0.0215 0.50405 0.0
H630 H 0.06657 0.01407 0.35472 0.0
H631 H 0.03517 0.01369 0.43261 0.0
C632 C 0.13228 1.00666 0.2758 0.0
C633 C 0.1523 0.02011 0.28858 0.0
C634 C 0.11348 1.00601 0.31862 0.0
C635 C 0.11411 0.01904 0.37497 0.0
C636 C 0.1339 0.03307 0.38618 0.0
C637 C 0.15267 0.03347 0.34402 0.0
C638 C 0.08119 0.02029 0.53172 0.0
C639 C 0.05777 0.01805 0.51325 0.0
C640 C 0.09925 0.02011 0.48723 0.0
C641 C 0.09455 0.01805 0.42241 0.0
C642 C 0.07108 0.01548 0.40395 0.0
C643 C 0.05296 0.01539 0.44875 0.0
H644 H 0.53086 0.14414 0.2401 0.0
H645 H 0.46366 0.16024 0.32028 0.0
H646 H 0.53632 0.11393 0.32046 0.0
H647 H 0.46887 0.13006 0.39905 0.0
H648 H 0.49548 0.09232 0.57257 0.0
H649 H 0.4921 0.12225 0.49203 0.0
H650 H 0.52086 0.07511 0.35442 0.0
H651 H 0.52456 0.04509 0.4356 0.0
C652 C 0.51727 0.14128 0.27473 0.0
C653 C 0.49674 0.15461 0.27312 0.0
C654 C 0.5203 0.12382 0.32054 0.0
C655 C 0.50305 0.11948 0.36655 0.0
C656 C 0.48266 0.13296 0.36501 0.0
C657 C 0.47955 0.15017 0.31913 0.0
C658 C 0.50117 0.08826 0.52524 0.0
C659 C 0.5103 0.06617 0.51087 0.0
C660 C 0.49909 0.10546 0.47878 0.0
C661 C 0.50611 0.10118 0.41635 0.0
C662 C 0.51545 0.07915 0.40198 0.0
C663 C 0.5174 0.06184 0.44852 0.0
H664 H 0.39415 0.47347 0.26461 0.0
H665 H 0.35966 0.53587 0.32847 0.0
H666 H 0.4247 0.47963 0.3414 0.0
H667 H 0.39123 0.54305 0.40211 0.0
H668 H 0.43534 0.53533 0.57914 0.0
H669 H 0.40619 0.5311 0.49762 0.0
H670 H 0.45747 0.49958 0.37564 0.0
H671 H 0.48642 0.50274 0.45883 0.0
C672 C 0.39307 0.48867 0.29458 0.0
C673 C 0.37393 0.50393 0.29023 0.0
C674 C 0.41098 0.49243 0.33841 0.0
C675 C 0.41068 0.5118 0.37917 0.0
C676 C 0.39206 0.52762 0.37297 0.0
C677 C 0.37399 0.52371 0.32954 0.0
C678 C 0.44053 0.52748 0.535 0.0
C679 C 0.46345 0.51933 0.52627 0.0
C680 C 0.4237 0.52525 0.48754 0.0
C681 C 0.42915 0.51499 0.4291 0.0
C682 C 0.45224 0.50723 0.41995 0.0
C683 C 0.46905 0.50927 0.46775 0.0
H684 H 0.99812 0.39885 0.23441 0.0
H685 H 0.03825 0.35774 0.3641 0.0
H686 H 0.99709 0.43076 0.31073 0.0
H687 H 0.03828 0.38964 0.43891 0.0
H688 H 0.0188 0.44122 0.58902 0.0
H689 H 0.01762 0.41004 0.51208 0.0
H690 H 0.0162 0.46093 0.3623 0.0
H691 H 0.01604 0.49212 0.44008 0.0
C692 C 0.00687 0.39668 0.27905 0.0
C693 C 0.01797 0.37553 0.29324 0.0
C694 C 1.00643 0.41509 0.32299 0.0
C695 C 0.01743 0.41306 0.38213 0.0
C696 C 0.02894 0.39196 0.39527 0.0
C697 C 0.02905 0.37354 0.35193 0.0
C698 C 0.01811 0.44583 0.53971 0.0
C699 C 0.01744 0.46937 0.52124 0.0
C700 C 0.01767 0.42781 0.49506 0.0
C701 C 0.01703 0.4326 0.42997 0.0
C702 C 0.01633 0.45623 0.41156 0.0
C703 C 0.0164 0.47428 0.45644 0.0
H704 H 0.90046 0.96646 0.06095 0.0
H705 H 0.85803 0.0177 0.96747 0.0
H706 H 0.93048 0.97124 0.98022 0.0
H707 H 0.88793 0.02248 0.88713 0.0
H708 H 0.9543 0.04185 0.78272 0.0
H709 H 0.92608 0.03732 0.86726 0.0
H710 H 0.93886 0.96323 0.87036 0.0
H711 H 0.96738 0.96792 0.78506 0.0
C712 C 0.89747 0.97877 0.0233 0.0
C713 C 0.87667 0.99172 0.02129 0.0
C714 C 0.91473 0.98145 0.97671 0.0
C715 C 0.91176 0.99721 0.92664 0.0
C716 C 0.89114 0.01043 0.92527 0.0
C717 C 0.87391 1.00774 0.97175 0.0
C718 C 0.95105 0.02453 0.80106 0.0
C719 C 0.96316 1.00524 0.77686 0.0
C720 C 0.93475 0.02192 0.84974 0.0
C721 C 0.92991 0.99988 0.87589 0.0
C722 C 0.94223 0.98054 0.85211 0.0
C723 C 0.95858 0.98318 0.80307 0.0
H724 H 0.49763 0.86383 0.98167 0.0
H725 H 0.54937 0.90502 0.07903 0.0
H726 H 0.49394 0.89438 0.90288 0.0
H727 H 0.54635 0.9352 0.99876 0.0
H728 H 0.52207 0.99423 0.86939 0.0
H729 H 0.52279 0.96532 0.95346 0.0
H730 H 0.51543 0.91034 0.81626 0.0
H731 H 0.51443 0.93911 0.73261 0.0
C732 C 0.50804 0.8795 0.9869 0.0
C733 C 0.52383 0.88177 0.03717 0.0
C734 C 0.50618 0.89696 0.94093 0.0
C735 C 0.52001 0.91732 0.94361 0.0
C736 C 0.53528 0.91992 0.99494 0.0
C737 C 0.53718 0.90243 0.04088 0.0
C738 C 0.52045 0.97601 0.857 0.0
C739 C 0.51785 0.96924 0.79371 0.0
C740 C 0.52102 0.95933 0.90544 0.0
C741 C 0.51903 0.93533 0.89219 0.0
C742 C 0.51653 0.92859 0.82887 0.0
C743 C 0.51601 0.94522 0.78054 0.0
H744 H 0.64139 0.59144 0.02179 0.0
H745 H 0.64897 0.51689 0.04042 0.0
H746 H 0.61147 0.58564 0.94376 0.0
H747 H 0.61711 0.51107 0.96778 0.0
H748 H 0.5775 0.50348 0.78742 0.0
H749 H 0.60662 0.51027 0.86665 0.0
H750 H 0.57529 0.57685 0.90924 0.0
H751 H 0.54745 0.57081 0.82413 0.0
C752 C 0.6367 0.57371 1.00982 0.0
C753 C 0.64847 0.55469 0.03724 0.0
C754 C 0.61894 0.57035 0.9653 0.0
C755 C 0.61166 0.5478 0.94738 0.0
C756 C 0.62245 0.52879 0.97776 0.0
C757 C 0.64062 0.53215 0.02117 0.0
C758 C 0.57712 0.51991 0.8122 0.0
C759 C 0.5602 0.53674 0.79786 0.0
C760 C 0.59367 0.52361 0.85954 0.0
C761 C 0.59364 0.54409 0.89618 0.0
C762 C 0.57649 0.56095 0.88216 0.0
C763 C 0.56024 0.55744 0.83338 0.0
H764 H 0.93934 0.64346 1.00819 0.0
H765 H 0.01365 0.6516 0.03385 0.0
H766 H 0.94604 0.61425 0.92949 0.0
H767 H 0.0203 0.62 0.9614 0.0
H768 H 0.03104 0.57919 0.78405 0.0
H769 H 0.02368 0.60779 0.86402 0.0
H770 H 0.95394 0.57984 0.88839 0.0
H771 H 0.96068 0.55327 0.80122 0.0
C772 C 0.95724 0.6391 0.99762 0.0
C773 C 0.97589 0.65095 0.02722 0.0
C774 C 0.96113 0.6216 0.95263 0.0
C775 C 0.98386 0.61444 0.93658 0.0
C776 C 1.00247 0.62521 0.96938 0.0
C777 C 0.99859 0.64328 0.01294 0.0
C778 C 0.0139 0.57945 0.80523 0.0
C779 C 0.99649 0.56374 0.78532 0.0
C780 C 0.00976 0.5957 0.85311 0.0
C781 C 0.98817 0.59655 0.88501 0.0
C782 C 0.97076 0.58048 0.86547 0.0
C783 C 0.97474 0.56468 0.8158 0.0
H784 H 0.09797 0.18627 0.25465 0.0
H785 H 0.12196 0.23085 0.40534 0.0
H786 H 0.08479 0.15807 0.32921 0.0
H787 H 0.10875 0.20183 0.48183 0.0
H788 H 0.04062 0.1707 0.57239 0.0
H789 H 0.07119 0.19189 0.51802 0.0
H790 H 0.08625 0.13081 0.40666 0.0
H791 H 0.05378 0.11096 0.45284 0.0
C792 C 0.10156 0.18966 0.30374 0.0
C793 C 0.1106 0.21123 0.32368 0.0
C794 C 0.09384 0.17325 0.34724 0.0
C795 C 0.0951 0.17778 0.41216 0.0
C796 C 0.10682 0.19807 0.43224 0.0
C797 C 0.11452 0.21465 0.38836 0.0
C798 C 0.05012 0.16177 0.53572 0.0
C799 C 0.04362 0.13919 0.5161 0.0
C800 C 0.06825 0.17383 0.50551 0.0
C801 C 0.08086 0.16334 0.45631 0.0
C802 C 0.07638 0.13982 0.44259 0.0
C803 C 0.05773 0.12815 0.47062 0.0
H804 H 0.34767 0.11845 0.30273 0.0
H805 H 0.28782 0.09554 0.4107 0.0
H806 H 0.37295 0.10444 0.38318 0.0
H807 H 0.31287 0.08505 0.49609 0.0
H808 H 0.35679 0.02436 0.56248 0.0
H809 H 0.33236 0.05412 0.52132 0.0
H810 H 0.39345 0.09319 0.46214 0.0
H811 H 0.41745 0.06149 0.49186 0.0
C812 C 0.33978 0.11098 0.34447 0.0
C813 C 0.3157 0.10647 0.34732 0.0
C814 C 0.35445 0.10318 0.39212 0.0
C815 C 0.34531 0.09169 0.44559 0.0
C816 C 0.32094 0.0919 0.45393 0.0
C817 C 0.30631 0.09867 0.40491 0.0
C818 C 0.36517 0.03888 0.53902 0.0
C819 C 0.38935 0.03921 0.52768 0.0
C820 C 0.35094 0.0567 0.51667 0.0
C821 C 0.36049 0.07614 0.48478 0.0
C822 C 0.38493 0.07808 0.48232 0.0
C823 C 0.39905 0.05971 0.5015 0.0
H824 H 0.42747 0.35693 0.22372 0.0
H825 H 0.40987 0.3176 0.3912 0.0
H826 H 0.44552 0.38651 0.28736 0.0
H827 H 0.42934 0.34721 0.45494 0.0
H828 H 0.50839 0.37241 0.48675 0.0
H829 H 0.47378 0.35176 0.44975 0.0
H830 H 0.44659 0.41608 0.37512 0.0
H831 H 0.4814 0.43677 0.41198 0.0
C832 C 0.42641 0.35489 0.27421 0.0
C833 C 0.41783 0.3342 0.30183 0.0
C834 C 0.437 0.37203 0.3109 0.0
C835 C 0.43943 0.3688 0.37587 0.0
C836 C 0.42813 0.3498 0.40462 0.0
C837 C 0.41711 0.3328 0.36794 0.0
C838 C 0.49486 0.38216 0.46316 0.0
C839 C 0.49768 0.40606 0.45132 0.0
C840 C 0.47488 0.37044 0.4429 0.0
C841 C 0.45744 0.38236 0.40982 0.0
C842 C 0.45974 0.40652 0.40069 0.0
C843 C 0.47964 0.4183 0.42163 0.0
H844 H 0.23833 0.43727 0.46455 0.0
H845 H 0.17337 0.41413 0.38216 0.0
H846 H 0.21758 0.4504 0.55677 0.0
H847 H 0.15241 0.42941 0.47196 0.0
H848 H 0.11541 0.46887 0.61514 0.0
H849 H 0.13975 0.43724 0.57547 0.0
H850 H 0.1974 0.48571 0.55615 0.0
H851 H 0.17336 0.51672 0.59628 0.0
C852 C 0.21972 0.43421 0.46653 0.0
C853 C 0.20744 0.42562 0.41408 0.0
C854 C 0.20773 0.44214 0.51947 0.0
C855 C 0.18323 0.44219 0.52046 0.0
C856 C 0.17126 0.43015 0.47265 0.0
C857 C 0.18331 0.42167 0.42035 0.0
C858 C 0.13348 0.47249 0.60367 0.0
C859 C 0.14237 0.49534 0.60746 0.0
C860 C 0.14742 0.4544 0.58103 0.0
C861 C 0.17047 0.45889 0.56146 0.0
C862 C 0.17988 0.48133 0.57126 0.0
C863 C 0.16601 0.4993 0.59413 0.0
H864 H 0.97354 0.80704 0.86351 0.0
H865 H 0.93565 0.86743 0.92751 0.0
H866 H 0.9956 0.83115 0.79117 0.0
H867 H 0.95756 0.89174 0.85353 0.0
H868 H 0.03061 0.92524 0.82687 0.0
H869 H 0.99762 0.90309 0.86619 0.0
H870 H 1.0015 0.85751 0.70461 0.0
H871 H 0.03504 0.87979 0.66543 0.0
C872 C 0.96913 0.82532 0.86005 0.0
C873 C 0.95315 0.83544 0.90203 0.0
C874 C 0.98186 0.83921 0.8184 0.0
C875 C 0.97877 0.86346 0.81775 0.0
C876 C 0.96077 0.87315 0.85428 0.0
C877 C 0.94815 0.85927 0.89638 0.0
C878 C 0.02423 0.9107 0.7992 0.0
C879 C 0.03547 0.90416 0.74325 0.0
C880 C 1.00513 0.89811 0.82142 0.0
C881 C 0.99673 0.87863 0.78825 0.0
C882 C 0.00763 0.87236 0.7314 0.0
C883 C 0.0269 0.88498 0.7092 0.0
H884 H 0.67667 0.91958 0.91914 0.0
H885 H 0.74213 0.946 0.8463 0.0
H886 H 0.65641 0.93727 0.83141 0.0
H887 H 0.72206 0.96215 0.7565 0.0
H888 H 0.67491 0.0277 0.72731 0.0
H889 H 0.69984 0.99695 0.76487 0.0
H890 H 0.64611 0.94601 0.72427 0.0
H891 H 0.62092 0.97721 0.68635 0.0
C892 C 0.68686 0.92841 0.88332 0.0
C893 C 0.71092 0.93213 0.89139 0.0
C894 C 0.67525 0.93831 0.83233 0.0
C895 C 0.68756 0.95183 0.78795 0.0
C896 C 0.71201 0.95244 0.79094 0.0
C897 C 0.72357 0.94285 0.84235 0.0
C898 C 0.66869 0.00988 0.72406 0.0
C899 C 0.64578 1.00494 0.70526 0.0
C900 C 0.68306 0.99211 0.74551 0.0
C901 C 0.67487 0.96896 0.74857 0.0
C902 C 0.65277 0.96371 0.7237 0.0
C903 C 0.63835 0.98156 0.70216 0.0
H904 H 0.54924 0.7397 0.85358 0.0
H905 H 0.58093 0.67687 0.92482 0.0
H906 H 0.52981 0.71723 0.77266 0.0
H907 H 0.56011 0.65418 0.84641 0.0
H908 H 0.51613 0.61499 0.71464 0.0
H909 H 0.54751 0.64174 0.74361 0.0
H910 H 0.49642 0.69352 0.79473 0.0
H911 H 0.46536 0.66708 0.7656 0.0
C912 C 0.55278 0.72122 0.85091 0.0
C913 C 0.5661 0.71 0.89729 0.0
C914 C 0.54132 0.70827 0.80475 0.0
C915 C 0.54266 0.68384 0.80453 0.0
C916 C 0.55845 0.67297 0.84545 0.0
C917 C 0.5702 0.68597 0.89111 0.0
C918 C 0.51165 0.63227 0.73092 0.0
C919 C 0.48819 0.63877 0.73868 0.0
C920 C 0.52966 0.6476 0.74738 0.0
C921 C 0.52454 0.66971 0.77207 0.0
C922 C 0.50112 0.67679 0.77502 0.0
C923 C 0.48319 0.66153 0.75848 0.0
H924 H 0.86804 0.58073 0.93831 0.0
H925 H 0.8029 0.5551 0.86253 0.0
H926 H 0.88926 0.55756 0.86154 0.0
H927 H 0.82408 0.53299 0.78398 0.0
H928 H 0.86881 0.46622 0.75826 0.0
H929 H 0.84576 0.49748 0.80287 0.0
H930 H 0.89978 0.54717 0.75437 0.0
H931 H 0.92298 0.51591 0.71011 0.0
C932 C 0.85824 0.57076 0.90403 0.0
C933 C 0.83381 0.56937 0.90757 0.0
C934 C 0.8704 0.55763 0.85962 0.0
C935 C 0.8583 0.54301 0.81769 0.0
C936 C 0.83385 0.54369 0.81668 0.0
C937 C 0.82171 0.55668 0.86127 0.0
C938 C 0.87557 0.48385 0.75565 0.0
C939 C 0.89781 0.48843 0.73074 0.0
C940 C 0.8623 0.50184 0.78107 0.0
C941 C 0.87095 0.52484 0.78205 0.0
C942 C 0.89275 0.52961 0.75482 0.0
C943 C 0.90605 0.51161 0.72952 0.0
H944 H 0.9901 0.19456 0.87086 0.0
H945 H 0.06173 0.17722 0.90999 0.0
H946 H 0.9858 0.15827 0.81149 0.0
H947 H 0.05746 0.14126 0.85082 0.0
H948 H 0.04978 0.08848 0.69105 0.0
H949 H 0.05334 0.12553 0.74702 0.0
H950 H 0.98366 0.11646 0.8208 0.0
H951 H 0.98029 0.0794 0.7648 0.0
C952 C 1.00493 0.18306 0.86719 0.0
C953 C 0.02635 0.18924 0.89511 0.0
C954 C 1.00247 0.16213 0.83298 0.0
C955 C 0.02133 0.14667 0.82556 0.0
C956 C 0.04264 0.1528 0.85391 0.0
C957 C 0.04509 0.17362 0.88805 0.0
C958 C 0.03537 0.09423 0.71998 0.0
C959 C 0.01499 0.08062 0.72456 0.0
C960 C 0.03734 0.1156 0.75204 0.0
C961 C 0.01887 0.12415 0.78934 0.0
C962 C 0.99823 0.11073 0.79241 0.0
C963 C 0.99632 0.08935 0.76041 0.0
H964 H 0.34181 0.98584 0.89345 0.0
H965 H 0.34463 0.06102 0.88517 0.0
H966 H 0.3796 0.984 0.84056 0.0
H967 H 0.38152 0.05913 0.82961 0.0
H968 H 0.45895 0.05067 0.79324 0.0
H969 H 0.42125 0.05141 0.84532 0.0
H970 H 0.40041 0.98951 0.74398 0.0
H971 H 0.4386 0.98826 0.69359 0.0
C972 C 0.35032 1.002 0.88017 0.0
C973 C 0.33984 0.02358 0.89391 0.0
C974 C 0.37199 1.00094 0.84904 0.0
C975 C 0.38392 0.02142 0.83069 0.0
C976 C 0.37324 0.04293 0.84364 0.0
C977 C 0.35169 0.04399 0.8748 0.0
C978 C 0.44654 0.03699 0.78249 0.0
C979 C 0.45228 0.01915 0.73984 0.0
C980 C 0.42463 0.03759 0.81195 0.0
C981 C 0.40749 0.02051 0.79927 0.0
C982 C 0.41314 1.00276 0.75611 0.0
C983 C 0.43515 1.0021 0.72688 0.0
H984 H 0.53126 0.36417 0.96634 0.0
H985 H 0.48108 0.33725 0.83344 0.0
H986 H 0.53264 0.40067 0.90989 0.0
H987 H 0.48411 0.37318 0.77326 0.0
H988 H 0.47586 0.44913 0.71086 0.0
H989 H 0.47396 0.41186 0.76598 0.0
H990 H 0.5454 0.4214 0.82558 0.0
H991 H 0.54628 0.45939 0.77544 0.0
C992 C 0.52058 0.36585 0.92475 0.0
C993 C 0.50583 0.34747 0.9055 0.0
C994 C 0.5217 0.3869 0.89131 0.0
C995 C 0.5085 0.39033 0.8363 0.0
C996 C 0.49428 0.37167 0.8158 0.0
C997 C 0.49288 0.35069 0.84995 0.0
C998 C 0.49093 0.44342 0.73698 0.0
C999 C 0.51091 0.45765 0.74032 0.0
C1000 C 0.49007 0.42173 0.76778 0.0
C1001 C 0.50945 0.41328 0.80143 0.0
C1002 C 0.52977 0.42727 0.80223 0.0
C1003 C 0.53043 0.44909 0.77255 0.0
H1004 H 0.16156 0.53553 0.98825 0.0
H1005 H 0.19245 0.48646 0.85912 0.0
H1006 H 0.12716 0.5375 0.92312 0.0
H1007 H 0.15854 0.48985 0.79076 0.0
H1008 H 0.0836 0.48035 0.71732 0.0
H1009 H 0.11963 0.47896 0.7778 0.0
H1010 H 0.10943 0.55064 0.83355 0.0
H1011 H 0.07267 0.5512 0.77694 0.0
C1012 C 0.16119 0.52523 0.94564 0.0
C1013 C 0.17995 0.51051 0.93012 0.0
C1014 C 0.14139 0.52666 0.9073 0.0
C1015 C 0.13963 0.51376 0.8511 0.0
C1016 C 0.15879 0.49974 0.83409 0.0
C1017 C 0.17857 0.49809 0.87301 0.0
C1018 C 0.08877 0.49557 0.74393 0.0
C1019 C 0.07474 0.51558 0.74395 0.0
C1020 C 0.10981 0.495 0.77773 0.0
C1021 C 0.11768 0.5146 0.81194 0.0
C1022 C 0.10391 0.53489 0.8098 0.0
C1023 C 0.0828 0.53533 0.77662 0.0
H1024 H 0.95242 0.84536 0.42824 0.0
H1025 H 0.02712 0.84548 0.4031 0.0
H1026 H 0.95543 0.88071 0.49105 0.0
H1027 H 0.03 0.88149 0.46297 0.0
H1028 H 0.03198 0.93856 0.61023 0.0
H1029 H 0.02812 0.90049 0.5605 0.0
H1030 H 0.96187 0.92114 0.48297 0.0
H1031 H 0.96533 0.95868 0.53563 0.0
C1032 C 0.96957 0.85271 0.43642 0.0
C1033 C 0.9895 0.84225 0.40989 0.0
C1034 C 0.97126 0.87337 0.47189 0.0
C1035 C 0.99295 0.88443 0.48218 0.0
C1036 C 0.01294 0.87364 0.457 0.0
C1037 C 0.01125 0.85296 0.42167 0.0
C1038 C 0.0163 0.93477 0.58417 0.0
C1039 C 0.9989 0.95181 0.57796 0.0
C1040 C 0.01422 0.91294 0.55442 0.0
C1041 C 0.99466 0.90737 0.51707 0.0
C1042 C 0.97708 0.92435 0.51178 0.0
C1043 C 0.97916 0.94614 0.54166 0.0
H1044 H 0.67711 0.02556 0.35019 0.0
H1045 H 0.69417 0.96777 0.47108 0.0
H1046 H 0.64159 0.03222 0.41094 0.0
H1047 H 0.65885 0.97457 0.53231 0.0
H1048 H 0.58018 0.97374 0.57446 0.0
H1049 H 0.6177 0.96949 0.52195 0.0
H1050 H 0.62403 0.04436 0.50809 0.0
H1051 H 0.58613 0.04853 0.5594 0.0
C1052 C 0.67357 0.01455 0.3905 0.0
C1053 C 0.68855 0.99598 0.40514 0.0
C1054 C 0.6531 0.01836 0.42548 0.0
C1055 C 0.64699 1.00377 0.47637 0.0
C1056 C 0.66252 0.98583 0.4926 0.0
C1057 C 0.68291 0.98198 0.45752 0.0
C1058 C 0.58957 0.98933 0.56036 0.0
C1059 C 0.58003 0.01149 0.57139 0.0
C1060 C 0.61128 0.9869 0.53057 0.0
C1061 C 0.62416 1.00656 0.51055 0.0
C1062 C 0.61463 0.02876 0.52195 0.0
C1063 C 0.59292 0.03118 0.55199 0.0
H1064 H 0.55738 0.69938 0.48029 0.0
H1065 H 0.49221 0.68435 0.38747 0.0
H1066 H 0.55266 0.66449 0.54445 0.0
H1067 H 0.48748 0.64931 0.45184 0.0
H1068 H 0.47905 0.59393 0.6076 0.0
H1069 H 0.4812 0.63215 0.55636 0.0
H1070 H 0.55517 0.62311 0.5281 0.0
H1071 H 0.55311 0.58555 0.58069 0.0
C1072 C 0.54197 0.68869 0.47359 0.0
C1073 C 0.52533 0.69471 0.42786 0.0
C1074 C 0.53927 0.66857 0.51046 0.0
C1075 C 0.51984 0.65371 0.50298 0.0
C1076 C 0.50261 0.6603 0.45941 0.0
C1077 C 0.50532 0.68049 0.42241 0.0
C1078 C 0.49581 0.60025 0.59109 0.0
C1079 C 0.51589 0.5865 0.59816 0.0
C1080 C 0.49702 0.62212 0.56113 0.0
C1081 C 0.51836 0.63089 0.5377 0.0
C1082 C 0.53845 0.61724 0.54602 0.0
C1083 C 0.53723 0.59546 0.5757 0.0
H1084 H 0.84224 0.49872 0.40783 0.0
H1085 H 0.84341 0.57333 0.43445 0.0
H1086 H 0.87871 0.49555 0.46468 0.0
H1087 H 0.8791 0.56998 0.49505 0.0
H1088 H 0.95668 0.56051 0.53904 0.0
H1089 H 0.91916 0.56395 0.48648 0.0
H1090 H 0.89876 0.49644 0.55908 0.0
H1091 H 0.93701 0.49251 0.60712 0.0
C1092 C 0.8501 0.51452 0.42611 0.0
C1093 C 0.83961 0.53634 0.41549 0.0
C1094 C 0.87106 0.51264 0.45981 0.0
C1095 C 0.88231 0.5325 0.48479 0.0
C1096 C 0.87144 0.55424 0.47588 0.0
C1097 C 0.85056 0.55613 0.44176 0.0
C1098 C 0.94418 0.5464 0.5438 0.0
C1099 C 0.94978 0.5264 0.57887 0.0
C1100 C 0.92241 0.54846 0.51406 0.0
C1101 C 0.90544 0.53059 0.51837 0.0
C1102 C 0.91116 0.5106 0.55366 0.0
C1103 C 0.93304 0.50847 0.58267 0.0
loop_
_geom_bond_atom_site_label_1
_geom_bond_atom_site_label_2
_geom_bond_distance
_geom_bond_site_symmetry_2
_ccdc_geom_bond_type
C0 C1 1.384 . S
C0 H13 0.947 . S
C0 C35 1.382 . S
C1 C0 1.384 . S
C1 C2 1.378 . S
C2 C1 1.378 . S
C2 C3 1.378 . S
C2 H14 0.952 . S
C3 C2 1.378 . S
C3 H15 0.950 . S
C3 C34 1.383 . S
H4 C23 0.947 . S
H5 C24 0.946 . S
H6 C26 0.953 . S
H7 C27 0.945 . S
H8 C29 0.952 . S
H9 C30 0.949 1_556 S
H10 C32 0.950 . S
H11 C33 0.948 . S
H12 C35 0.951 . S
H13 C0 0.947 . S
H14 C2 0.952 . S
H15 C3 0.950 . S
N16 C19 1.382 . S
N16 C21 1.363 . S
N17 C19 1.371 . S
N17 C20 1.372 . S
N18 C20 1.361 . S
N18 C21 1.377 . S
C19 N16 1.382 . S
C19 N17 1.371 . S
C19 C22 1.480 . S
C20 N17 1.372 . S
C20 N18 1.361 . S
C20 C28 1.457 . S
C21 N16 1.363 . S
C21 N18 1.377 . S
C21 C34 1.479 . S
C22 C19 1.480 . S
C22 C23 1.383 . S
C22 C27 1.385 . S
C23 H4 0.947 . S
C23 C22 1.383 . S
C23 C24 1.388 . S
C24 H5 0.946 . S
C24 C23 1.388 . S
C24 C25 1.384 . S
C25 C24 1.384 . S
C25 C26 1.377 . S
C26 H6 0.953 . S
C26 C25 1.377 . S
C26 C27 1.369 . S
C27 H7 0.945 . S
C27 C22 1.385 . S
C27 C26 1.369 . S
C28 C20 1.457 . S
C28 C29 1.372 . S
C28 C33 1.364 . S
C29 H8 0.952 . S
C29 C28 1.372 . S
C29 C30 1.389 . S
C30 H9 0.949 1_554 S
C30 C29 1.389 . S
C30 C31 1.387 . S
C31 C30 1.387 . S
C31 C32 1.372 . S
C32 H10 0.950 . S
C32 C31 1.372 . S
C32 C33 1.379 . S
C33 H11 0.948 . S
C33 C28 1.364 . S
C33 C32 1.379 . S
C34 C3 1.383 . S
C34 C21 1.479 . S
C34 C35 1.398 . S
C35 C0 1.382 . S
C35 H12 0.951 . S
C35 C34 1.398 . S
C36 C37 1.384 . S
C36 H49 0.947 . S
C36 C71 1.382 . S
C37 C36 1.384 . S
C37 C38 1.378 . S
C38 C37 1.378 . S
C38 C39 1.378 . S
C38 H50 0.952 . S
C39 C38 1.378 . S
C39 H51 0.950 . S
C39 C70 1.383 . S
H40 C59 0.947 . S
H41 C60 0.946 . S
H42 C62 0.953 . S
H43 C63 0.945 . S
H44 C65 0.952 . S
H45 C66 0.949 1_556 S
H46 C68 0.950 . S
H47 C69 0.948 . S
H48 C71 0.951 . S
H49 C36 0.947 . S
H50 C38 0.952 . S
H51 C39 0.950 . S
N52 C55 1.382 . S
N52 C57 1.363 . S
N53 C55 1.371 . S
N53 C56 1.372 . S
N54 C56 1.361 . S
N54 C57 1.377 . S
C55 N52 1.382 . S
C55 N53 1.371 . S
C55 C58 1.480 . S
C56 N53 1.372 . S
C56 N54 1.361 . S
C56 C64 1.457 . S
C57 N52 1.363 . S
C57 N54 1.377 . S
C57 C70 1.479 . S
C58 C55 1.480 . S
C58 C59 1.383 . S
C58 C63 1.385 . S
C59 H40 0.947 . S
C59 C58 1.383 . S
C59 C60 1.388 . S
C60 H41 0.946 . S
C60 C59 1.388 . S
C60 C61 1.384 . S
C61 C60 1.384 . S
C61 C62 1.377 . S
C62 H42 0.953 . S
C62 C61 1.377 . S
C62 C63 1.369 . S
C63 H43 0.945 . S
C63 C58 1.385 . S
C63 C62 1.369 . S
C64 C56 1.457 . S
C64 C65 1.372 . S
C64 C69 1.364 . S
C65 H44 0.952 . S
C65 C64 1.372 . S
C65 C66 1.389 . S
C66 H45 0.949 1_554 S
C66 C65 1.389 . S
C66 C67 1.387 . S
C67 C66 1.387 . S
C67 C68 1.372 . S
C68 H46 0.950 . S
C68 C67 1.372 . S
C68 C69 1.379 . S
C69 H47 0.948 . S
C69 C64 1.364 . S
C69 C68 1.379 . S
C70 C39 1.383 . S
C70 C57 1.479 . S
C70 C71 1.398 . S
C71 C36 1.382 . S
C71 H48 0.951 . S
C71 C70 1.398 . S
C72 C73 1.384 . S
C72 H85 0.947 . S
C72 C107 1.382 . S
C73 C72 1.384 . S
C73 C74 1.378 . S
C74 C73 1.378 . S
C74 C75 1.378 . S
C74 H86 0.952 . S
C75 C74 1.378 . S
C75 H87 0.950 . S
C75 C106 1.383 . S
H76 C95 0.947 . S
H77 C96 0.946 . S
H78 C98 0.953 . S
H79 C99 0.945 . S
H80 C101 0.952 . S
H81 C102 0.949 1_556 S
H82 C104 0.950 . S
H83 C105 0.948 . S
H84 C107 0.951 . S
H85 C72 0.947 . S
H86 C74 0.952 . S
H87 C75 0.950 . S
N88 C91 1.382 . S
N88 C93 1.363 . S
N89 C91 1.371 . S
N89 C92 1.372 . S
N90 C92 1.361 . S
N90 C93 1.377 . S
C91 N88 1.382 . S
C91 N89 1.371 . S
C91 C94 1.480 . S
C92 N89 1.372 . S
C92 N90 1.361 . S
C92 C100 1.457 . S
C93 N88 1.363 . S
C93 N90 1.377 . S
C93 C106 1.479 . S
C94 C91 1.480 . S
C94 C95 1.383 . S
C94 C99 1.385 . S
C95 H76 0.947 . S
C95 C94 1.383 . S
C95 C96 1.388 . S
C96 H77 0.946 . S
C96 C95 1.388 . S
C96 C97 1.384 . S
C97 C96 1.384 . S
C97 C98 1.377 . S
C98 H78 0.953 . S
C98 C97 1.377 . S
C98 C99 1.369 . S
C99 H79 0.945 . S
C99 C94 1.385 . S
C99 C98 1.369 . S
C100 C92 1.457 . S
C100 C101 1.372 . S
C100 C105 1.364 . S
C101 H80 0.952 . S
C101 C100 1.372 . S
C101 C102 1.389 . S
C102 H81 0.949 1_554 S
C102 C101 1.389 . S
C102 C103 1.387 . S
C103 C102 1.387 . S
C103 C104 1.372 . S
C104 H82 0.950 . S
C104 C103 1.372 . S
C104 C105 1.379 . S
C105 H83 0.948 . S
C105 C100 1.364 . S
C105 C104 1.379 . S
C106 C75 1.383 . S
C106 C93 1.479 . S
C106 C107 1.398 . S
C107 C72 1.382 . S
C107 H84 0.951 . S
C107 C106 1.398 . S
C108 C109 1.384 . S
C108 H121 0.947 . S
C108 C143 1.382 . S
C109 C108 1.384 . S
C109 C110 1.378 . S
C110 C109 1.378 . S
C110 C111 1.378 . S
C110 H122 0.952 1_554 S
C111 C110 1.378 . S
C111 H123 0.950 . S
C111 C142 1.383 . S
H112 C131 0.947 . S
H113 C132 0.946 . S
H114 C134 0.953 . S
H115 C135 0.945 . S
H116 C137 0.952 . S
H117 C138 0.949 . S
H118 C140 0.950 . S
H119 C141 0.948 . S
H120 C143 0.951 . S
H121 C108 0.947 . S
H122 C110 0.952 1_556 S
H123 C111 0.950 . S
N124 C127 1.382 . S
N124 C129 1.363 . S
N125 C127 1.371 . S
N125 C128 1.372 . S
N126 C128 1.361 . S
N126 C129 1.377 . S
C127 N124 1.382 . S
C127 N125 1.371 . S
C127 C130 1.480 . S
C128 N125 1.372 . S
C128 N126 1.361 . S
C128 C136 1.457 . S
C129 N124 1.363 . S
C129 N126 1.377 . S
C129 C142 1.479 . S
C130 C127 1.480 . S
C130 C131 1.383 . S
C130 C135 1.385 . S
C131 H112 0.947 . S
C131 C130 1.383 . S
C131 C132 1.388 . S
C132 H113 0.946 . S
C132 C131 1.388 . S
C132 C133 1.384 . S
C133 C132 1.384 . S
C133 C134 1.377 . S
C134 H114 0.953 . S
C134 C133 1.377 . S
C134 C135 1.369 . S
C135 H115 0.945 . S
C135 C130 1.385 . S
C135 C134 1.369 . S
C136 C128 1.457 . S
C136 C137 1.372 . S
C136 C141 1.364 . S
C137 H116 0.952 . S
C137 C136 1.372 . S
C137 C138 1.389 . S
C138 H117 0.949 . S
C138 C137 1.389 . S
C138 C139 1.387 . S
C139 C138 1.387 . S
C139 C140 1.372 . S
C140 H118 0.950 . S
C140 C139 1.372 . S
C140 C141 1.379 . S
C141 H119 0.948 . S
C141 C136 1.364 . S
C141 C140 1.379 . S
C142 C111 1.383 . S
C142 C129 1.479 . S
C142 C143 1.398 . S
C143 C108 1.382 . S
C143 H120 0.951 . S
C143 C142 1.398 . S
C144 C145 1.384 . S
C144 H157 0.947 . S
C144 C179 1.382 . S
C145 C144 1.384 . S
C145 C146 1.378 . S
C146 C145 1.378 . S
C146 C147 1.378 . S
C146 H158 0.952 . S
C147 C146 1.378 . S
C147 H159 0.950 . S
C147 C178 1.383 . S
H148 C167 0.947 1_556 S
H149 C168 0.946 . S
H150 C170 0.953 . S
H151 C171 0.945 . S
H152 C173 0.952 . S
H153 C174 0.949 . S
H154 C176 0.950 . S
H155 C177 0.948 . S
H156 C179 0.951 . S
H157 C144 0.947 . S
H158 C146 0.952 . S
H159 C147 0.950 . S
N160 C163 1.382 1_556 S
N160 C165 1.363 . S
N161 C163 1.371 . S
N161 C164 1.372 . S
N162 C164 1.361 . S
N162 C165 1.377 1_554 S
C163 N160 1.382 1_554 S
C163 N161 1.371 . S
C163 C166 1.480 . S
C164 N161 1.372 . S
C164 N162 1.361 . S
C164 C172 1.457 . S
C165 N160 1.363 . S
C165 N162 1.377 1_556 S
C165 C178 1.479 . S
C166 C163 1.480 . S
C166 C167 1.383 . S
C166 C171 1.385 . S
C167 H148 0.947 1_554 S
C167 C166 1.383 . S
C167 C168 1.388 . S
C168 H149 0.946 . S
C168 C167 1.388 . S
C168 C169 1.384 . S
C169 C168 1.384 . S
C169 C170 1.377 . S
C170 H150 0.953 . S
C170 C169 1.377 . S
C170 C171 1.369 . S
C171 H151 0.945 . S
C171 C166 1.385 . S
C171 C170 1.369 . S
C172 C164 1.457 . S
C172 C173 1.372 . S
C172 C177 1.364 . S
C173 H152 0.952 . S
C173 C172 1.372 . S
C173 C174 1.389 . S
C174 H153 0.949 . S
C174 C173 1.389 . S
C174 C175 1.387 . S
C175 C174 1.387 . S
C175 C176 1.372 . S
C176 H154 0.950 . S
C176 C175 1.372 . S
C176 C177 1.379 . S
C177 H155 0.948 . S
C177 C172 1.364 . S
C177 C176 1.379 . S
C178 C147 1.383 . S
C178 C165 1.479 . S
C178 C179 1.398 . S
C179 C144 1.382 . S
C179 H156 0.951 . S
C179 C178 1.398 . S
C180 C181 1.384 . S
C180 H193 0.947 . S
C180 C215 1.382 . S
C181 C180 1.384 . S
C181 C182 1.378 . S
C182 C181 1.378 . S
C182 C183 1.378 . S
C182 H194 0.952 . S
C183 C182 1.378 . S
C183 H195 0.950 . S
C183 C214 1.383 . S
H184 C203 0.947 1_556 S
H185 C204 0.946 . S
H186 C206 0.953 . S
H187 C207 0.945 . S
H188 C209 0.952 . S
H189 C210 0.949 . S
H190 C212 0.950 . S
H191 C213 0.948 . S
H192 C215 0.951 . S
H193 C180 0.947 . S
H194 C182 0.952 . S
H195 C183 0.950 . S
N196 C199 1.369 1_556 S
N196 C201 1.366 . S
N197 C199 1.371 . S
N197 C200 1.372 . S
N198 C200 1.361 . S
N198 C201 1.377 1_554 S
C199 N196 1.369 1_554 S
C199 N197 1.371 . S
C199 C202 1.480 . S
C200 N197 1.372 . S
C200 N198 1.361 . S
C200 C208 1.457 . S
C201 N196 1.366 . S
C201 N198 1.377 1_556 S
C201 C214 1.479 . S
C202 C199 1.480 . S
C202 C203 1.383 . S
C202 C207 1.385 . S
C203 H184 0.947 1_554 S
C203 C202 1.383 . S
C203 C204 1.388 . S
C204 H185 0.946 . S
C204 C203 1.388 . S
C204 C205 1.384 . S
C205 C204 1.384 . S
C205 C206 1.377 . S
C206 H186 0.953 . S
C206 C205 1.377 . S
C206 C207 1.369 . S
C207 H187 0.945 . S
C207 C202 1.385 . S
C207 C206 1.369 . S
C208 C200 1.457 . S
C208 C209 1.372 . S
C208 C213 1.364 . S
C209 H188 0.952 . S
C209 C208 1.372 . S
C209 C210 1.389 . S
C210 H189 0.949 . S
C210 C209 1.389 . S
C210 C211 1.387 . S
C211 C210 1.387 . S
C211 C212 1.372 . S
C212 H190 0.950 . S
C212 C211 1.372 . S
C212 C213 1.379 . S
C213 H191 0.948 . S
C213 C208 1.364 . S
C213 C212 1.379 . S
C214 C183 1.383 . S
C214 C201 1.479 . S
C214 C215 1.398 . S
C215 C180 1.382 . S
C215 H192 0.951 . S
C215 C214 1.398 . S
C216 C217 1.384 . S
C216 H229 0.947 . S
C216 C251 1.382 . S
C217 C216 1.384 . S
C217 C218 1.378 . S
C218 C217 1.378 . S
C218 C219 1.378 . S
C218 H230 0.952 . S
C219 C218 1.378 . S
C219 H231 0.950 . S
C219 C250 1.383 . S
H220 C239 0.947 1_556 S
H221 C240 0.946 . S
H222 C242 0.953 . S
H223 C243 0.945 . S
H224 C245 0.952 . S
H225 C246 0.949 . S
H226 C248 0.950 . S
H227 C249 0.948 . S
H228 C251 0.951 . S
H229 C216 0.947 . S
H230 C218 0.952 . S
H231 C219 0.950 . S
N232 C235 1.379 1_556 S
N232 C237 1.364 . S
N233 C235 1.371 . S
N233 C236 1.372 . S
N234 C236 1.361 . S
N234 C237 1.377 1_554 S
C235 N232 1.379 1_554 S
C235 N233 1.371 . S
C235 C238 1.480 . S
C236 N233 1.372 . S
C236 N234 1.361 . S
C236 C244 1.457 . S
C237 N232 1.364 . S
C237 N234 1.377 1_556 S
C237 C250 1.479 . S
C238 C235 1.480 . S
C238 C239 1.383 . S
C238 C243 1.385 . S
C239 H220 0.947 1_554 S
C239 C238 1.383 . S
C239 C240 1.388 . S
C240 H221 0.946 . S
C240 C239 1.388 . S
C240 C241 1.384 . S
C241 C240 1.384 . S
C241 C242 1.377 . S
C242 H222 0.953 . S
C242 C241 1.377 . S
C242 C243 1.369 . S
C243 H223 0.945 . S
C243 C238 1.385 . S
C243 C242 1.369 . S
C244 C236 1.457 . S
C244 C245 1.372 . S
C244 C249 1.364 . S
C245 H224 0.952 . S
C245 C244 1.372 . S
C245 C246 1.389 . S
C246 H225 0.949 . S
C246 C245 1.389 . S
C246 C247 1.387 . S
C247 C246 1.387 . S
C247 C248 1.372 . S
C248 H226 0.950 . S
C248 C247 1.372 . S
C248 C249 1.379 . S
C249 H227 0.948 . S
C249 C244 1.364 . S
C249 C248 1.379 . S
C250 C219 1.383 . S
C250 C237 1.479 . S
C250 C251 1.398 . S
C251 C216 1.382 . S
C251 H228 0.951 . S
C251 C250 1.398 . S
C252 C253 1.384 . S
C252 H265 0.947 . S
C252 C287 1.382 . S
C253 C252 1.384 . S
C253 C254 1.378 . S
C254 C253 1.378 . S
C254 C255 1.378 . S
C254 H266 0.952 . S
C255 C254 1.378 . S
C255 H267 0.950 . S
C255 C286 1.383 . S
H256 C275 0.947 . S
H257 C276 0.946 . S
H258 C278 0.953 . S
H259 C279 0.945 1_556 S
H260 C281 0.952 . S
H261 C282 0.949 . S
H262 C284 0.950 . S
H263 C285 0.948 . S
H264 C287 0.951 . S
H265 C252 0.947 . S
H266 C254 0.952 . S
H267 C255 0.950 . S
N268 C271 1.382 . S
N268 C273 1.363 . S
N269 C271 1.371 1_556 S
N269 C272 1.372 . S
N270 C272 1.361 1_554 S
N270 C273 1.377 . S
C271 N268 1.382 . S
C271 N269 1.371 1_554 S
C271 C274 1.480 . S
C272 N269 1.372 . S
C272 N270 1.361 1_556 S
C272 C280 1.457 . S
C273 N268 1.363 . S
C273 N270 1.377 . S
C273 C286 1.479 . S
C274 C271 1.480 . S
C274 C275 1.383 . S
C274 C279 1.385 . S
C275 H256 0.947 . S
C275 C274 1.383 . S
C275 C276 1.388 . S
C276 H257 0.946 . S
C276 C275 1.388 . S
C276 C277 1.384 . S
C277 C276 1.384 . S
C277 C278 1.377 . S
C278 H258 0.953 . S
C278 C277 1.377 . S
C278 C279 1.369 . S
C279 H259 0.945 1_554 S
C279 C274 1.385 . S
C279 C278 1.369 . S
C280 C272 1.457 . S
C280 C281 1.372 . S
C280 C285 1.364 . S
C281 H260 0.952 . S
C281 C280 1.372 . S
C281 C282 1.389 . S
C282 H261 0.949 . S
C282 C281 1.389 . S
C282 C283 1.387 . S
C283 C282 1.387 . S
C283 C284 1.372 . S
C284 H262 0.950 . S
C284 C283 1.372 . S
C284 C285 1.379 . S
C285 H263 0.948 . S
C285 C280 1.364 . S
C285 C284 1.379 . S
C286 C255 1.383 . S
C286 C273 1.479 . S
C286 C287 1.398 . S
C287 C252 1.382 . S
C287 H264 0.951 . S
C287 C286 1.398 . S
Tb288 N317 2.617 . S
Tb288 N323 2.572 . S
Tb288 O332 2.465 . S
Tb288 O333 2.387 1_545 S
Tb288 O335 2.428 . S
Tb288 O336 2.308 1_655 S
Tb288 O340 2.349 1_655 S
Tb288 O343 2.393 . S
Tb288 C352 2.802 . S
C289 N290 1.379 . S
C289 C292 1.416 . S
C289 C296 1.424 . S
N290 C289 1.379 . S
N290 C293 1.335 1_545 S
N290 Tb299 2.617 1_545 S
C291 C293 1.390 1_545 S
C291 C294 1.339 . S
C291 H311 0.930 . S
C292 C289 1.416 . S
C292 C294 1.416 . S
C292 C298 1.448 . S
C293 N290 1.335 1_565 S
C293 C291 1.390 1_565 S
C293 H304 0.930 . S
C294 C291 1.339 . S
C294 C292 1.416 . S
C294 H315 0.930 . S
C295 C296 1.413 . S
C295 C297 1.427 . S
C295 C301 1.416 . S
C296 C289 1.424 . S
C296 C295 1.413 . S
C296 N300 1.361 . S
C297 C295 1.427 . S
C297 C298 1.328 . S
C297 H312 0.929 . S
C298 C292 1.448 . S
C298 C297 1.328 . S
C298 H313 0.930 . S
Tb299 N290 2.617 1_565 S
Tb299 N300 2.572 1_565 S
Tb299 O334 2.349 . S
Tb299 O337 2.393 . S
Tb299 O338 2.465 . S
Tb299 O339 2.387 1_565 S
Tb299 O341 2.428 . S
Tb299 O342 2.308 1_465 S
Tb299 C363 2.802 . S
N300 C296 1.361 . S
N300 Tb299 2.572 1_545 S
N300 C302 1.340 . S
C301 C295 1.416 . S
C301 C303 1.332 . S
C301 H309 0.931 . S
C302 N300 1.340 . S
C302 C303 1.407 . S
C302 H308 0.910 1_455 S
C303 C301 1.332 . S
C303 C302 1.407 . S
C303 H305 0.929 . S
H304 C293 0.930 . S
H305 C303 0.929 . S
H306 C321 0.930 . S
H307 C328 0.929 1_455 S
H308 C302 0.910 1_655 S
H309 C301 0.931 . S
H310 C324 0.930 1_455 S
H311 C291 0.930 . S
H312 C297 0.929 . S
H313 C298 0.930 . S
H314 C319 0.930 . S
H315 C294 0.930 . S
H316 C327 0.931 . S
N317 Tb288 2.617 . S
N317 C318 1.379 . S
N317 C321 1.334 . S
C318 N317 1.379 . S
C318 C320 1.416 1_545 S
C318 C326 1.424 . S
C319 H314 0.930 . S
C319 C321 1.390 . S
C319 C322 1.328 1_545 S
C320 C318 1.416 1_565 S
C320 C322 1.418 . S
C320 C353 1.448 . S
C321 H306 0.930 . S
C321 N317 1.334 . S
C321 C319 1.390 . S
C322 C319 1.328 1_565 S
C322 C320 1.418 . S
C322 H329 0.939 . S
N323 Tb288 2.572 . S
N323 C324 1.340 . S
N323 C326 1.361 . S
C324 H310 0.930 1_655 S
C324 N323 1.340 . S
C324 C328 1.407 1_545 S
C325 C326 1.413 1_565 S
C325 C327 1.416 . S
C325 C354 1.427 . S
C326 C318 1.424 . S
C326 N323 1.361 . S
C326 C325 1.413 1_545 S
C327 H316 0.931 . S
C327 C325 1.416 . S
C327 C328 1.332 . S
C328 H307 0.929 1_655 S
C328 C324 1.407 1_565 S
C328 C327 1.332 . S
H329 C322 0.939 . S
H330 C353 0.930 . S
H331 C354 0.929 . S
O332 Tb288 2.465 . S
O332 C352 1.264 . S
O333 Tb288 2.387 1_565 S
O333 C344 1.264 . S
O334 Tb299 2.349 . S
O334 C344 1.243 1_455 S
O335 Tb288 2.428 . S
O335 C352 1.256 . S
O336 Tb288 2.308 1_455 S
O336 C351 1.266 . S
O337 Tb299 2.393 . S
O337 C351 1.248 1_565 S
O338 Tb299 2.465 . S
O338 C363 1.264 . S
O339 Tb299 2.387 1_545 S
O339 C355 1.264 . S
O340 Tb288 2.349 1_455 S
O340 C355 1.243 . S
O341 Tb299 2.428 . S
O341 C363 1.256 . S
O342 Tb299 2.308 1_645 S
O342 C362 1.266 . S
O343 Tb288 2.393 . S
O343 C362 1.248 . S
C344 O333 1.264 . S
C344 O334 1.243 1_655 S
C345 C348 1.399 . S
C345 C350 1.383 . S
C345 C352 1.496 . S
C346 C347 1.399 . S
C346 C350 1.389 . S
C347 C346 1.399 . S
C347 C349 1.380 . S
C347 H364 0.929 . S
C348 C345 1.399 . S
C348 C349 1.392 . S
C348 H365 0.929 . S
C349 C347 1.380 . S
C349 C348 1.392 . S
C349 H366 0.929 . S
C350 C345 1.383 . S
C350 C346 1.389 . S
C350 H367 0.931 1_655 S
C351 O336 1.266 . S
C351 O337 1.248 1_545 S
C352 Tb288 2.802 . S
C352 O332 1.264 . S
C352 O335 1.256 . S
C352 C345 1.496 . S
C353 C320 1.448 . S
C353 H330 0.930 . S
C353 C354 1.328 . S
C354 C325 1.427 . S
C354 H331 0.929 . S
C354 C353 1.328 . S
C355 O339 1.264 . S
C355 O340 1.243 . S
C356 C359 1.399 . S
C356 C360 1.383 . S
C356 C363 1.496 . S
C357 C358 1.399 . S
C357 C360 1.389 . S
C358 C357 1.399 . S
C358 C361 1.380 . S
C358 H368 0.929 . S
C359 C356 1.399 . S
C359 C361 1.392 . S
C359 H369 0.929 . S
C360 C356 1.383 . S
C360 C357 1.389 . S
C360 H370 0.931 . S
C361 C358 1.380 . S
C361 C359 1.392 . S
C361 H371 0.929 . S
C362 O342 1.266 . S
C362 O343 1.248 . S
C363 Tb299 2.802 . S
C363 O338 1.264 . S
C363 O341 1.256 . S
C363 C356 1.496 . S
H364 C347 0.929 . S
H365 C348 0.929 . S
H366 C349 0.929 . S
H367 C350 0.931 1_455 S
H368 C358 0.929 . S
H369 C359 0.929 . S
H370 C360 0.931 . S
H371 C361 0.929 . S
Tb372 N401 2.617 . S
Tb372 N407 2.572 . S
Tb372 O416 2.465 . S
Tb372 O417 2.387 . S
Tb372 O419 2.428 . S
Tb372 O420 2.308 . S
Tb372 O424 2.349 1_545 S
Tb372 O427 2.393 . S
Tb372 C436 2.802 . S
C373 N374 1.379 . S
C373 C376 1.416 . S
C373 C380 1.424 . S
N374 C373 1.379 . S
N374 C377 1.334 . S
N374 Tb383 2.617 . S
C375 C377 1.390 . S
C375 C378 1.339 . S
C375 H395 0.930 . S
C376 C373 1.416 . S
C376 C378 1.416 . S
C376 C382 1.448 . S
C377 N374 1.334 . S
C377 C375 1.390 . S
C377 H388 0.930 . S
C378 C375 1.339 . S
C378 C376 1.416 . S
C378 H399 0.930 . S
C379 C380 1.413 . S
C379 C381 1.427 . S
C379 C385 1.416 . S
C380 C373 1.424 . S
C380 C379 1.413 . S
C380 N384 1.361 . S
C381 C379 1.427 . S
C381 C382 1.328 . S
C381 H396 0.929 . S
C382 C376 1.448 . S
C382 C381 1.328 . S
C382 H397 0.930 . S
Tb383 N374 2.617 . S
Tb383 N384 2.572 . S
Tb383 O418 2.349 1_565 S
Tb383 O421 2.393 . S
Tb383 O422 2.465 . S
Tb383 O423 2.387 . S
Tb383 O425 2.428 . S
Tb383 O426 2.308 1_565 S
Tb383 C447 2.802 . S
N384 C380 1.361 . S
N384 Tb383 2.572 . S
N384 C386 1.340 . S
C385 C379 1.416 . S
C385 C387 1.332 . S
C385 H393 0.931 . S
C386 N384 1.340 . S
C386 C387 1.407 . S
C386 H392 0.930 . S
C387 C385 1.332 . S
C387 C386 1.407 . S
C387 H389 0.929 . S
H388 C377 0.930 . S
H389 C387 0.929 . S
H390 C405 0.930 . S
H391 C412 0.929 . S
H392 C386 0.930 . S
H393 C385 0.931 . S
H394 C408 0.930 . S
H395 C375 0.930 . S
H396 C381 0.929 . S
H397 C382 0.930 . S
H398 C403 0.930 . S
H399 C378 0.930 . S
H400 C411 0.931 . S
N401 Tb372 2.617 . S
N401 C402 1.379 . S
N401 C405 1.334 . S
C402 N401 1.379 . S
C402 C404 1.416 . S
C402 C410 1.424 . S
C403 H398 0.930 . S
C403 C405 1.390 . S
C403 C406 1.339 . S
C404 C402 1.416 . S
C404 C406 1.416 . S
C404 C437 1.448 . S
C405 H390 0.930 . S
C405 N401 1.334 . S
C405 C403 1.390 . S
C406 C403 1.339 . S
C406 C404 1.416 . S
C406 H413 0.930 . S
N407 Tb372 2.572 . S
N407 C408 1.340 . S
N407 C410 1.361 . S
C408 H394 0.930 . S
C408 N407 1.340 . S
C408 C412 1.407 . S
C409 C410 1.413 . S
C409 C411 1.416 . S
C409 C438 1.427 . S
C410 C402 1.424 . S
C410 N407 1.361 . S
C410 C409 1.413 . S
C411 H400 0.931 . S
C411 C409 1.416 . S
C411 C412 1.332 . S
C412 H391 0.929 . S
C412 C408 1.407 . S
C412 C411 1.332 . S
H413 C406 0.930 . S
H414 C437 0.930 . S
H415 C438 0.929 . S
O416 Tb372 2.465 . S
O416 C436 1.264 . S
O417 Tb372 2.387 . S
O417 C428 1.264 . S
O418 Tb383 2.349 1_545 S
O418 C428 1.243 . S
O419 Tb372 2.428 . S
O419 C436 1.256 . S
O420 Tb372 2.308 . S
O420 C435 1.252 1_545 S
O421 Tb383 2.393 . S
O421 C435 1.257 . S
O422 Tb383 2.465 . S
O422 C447 1.264 . S
O423 Tb383 2.387 . S
O423 C439 1.264 . S
O424 Tb372 2.349 1_565 S
O424 C439 1.243 . S
O425 Tb383 2.428 . S
O425 C447 1.256 . S
O426 Tb383 2.308 1_545 S
O426 C446 1.266 . S
O427 Tb372 2.393 . S
O427 C446 1.248 . S
C428 O417 1.264 . S
C428 O418 1.243 . S
C429 C432 1.399 . S
C429 C434 1.383 . S
C429 C436 1.496 . S
C430 C431 1.399 . S
C430 C434 1.389 . S
C431 C430 1.399 . S
C431 C433 1.380 . S
C431 H448 0.929 . S
C432 C429 1.399 . S
C432 C433 1.392 . S
C432 H449 0.929 . S
C433 C431 1.380 . S
C433 C432 1.392 . S
C433 H450 0.929 . S
C434 C429 1.383 . S
C434 C430 1.389 . S
C434 H451 0.931 . S
C435 O420 1.252 1_565 S
C435 O421 1.257 . S
C436 Tb372 2.802 . S
C436 O416 1.264 . S
C436 O419 1.256 . S
C436 C429 1.496 . S
C437 C404 1.448 . S
C437 H414 0.930 . S
C437 C438 1.328 . S
C438 C409 1.427 . S
C438 H415 0.929 . S
C438 C437 1.328 . S
C439 O423 1.264 . S
C439 O424 1.243 . S
C440 C443 1.399 . S
C440 C444 1.383 1_565 S
C440 C447 1.496 . S
C441 C442 1.399 1_545 S
C441 C444 1.389 . S
C442 C441 1.399 1_565 S
C442 C445 1.380 . S
C442 H452 0.929 . S
C443 C440 1.399 . S
C443 C445 1.392 . S
C443 H453 0.929 . S
C444 C440 1.383 1_545 S
C444 C441 1.389 . S
C444 H454 0.931 . S
C445 C442 1.380 . S
C445 C443 1.392 . S
C445 H455 0.929 . S
C446 O426 1.266 . S
C446 O427 1.248 . S
C447 Tb383 2.802 . S
C447 O422 1.264 . S
C447 O425 1.256 . S
C447 C440 1.496 . S
H448 C431 0.929 . S
H449 C432 0.929 . S
H450 C433 0.929 . S
H451 C434 0.931 . S
H452 C442 0.929 . S
H453 C443 0.929 . S
H454 C444 0.931 . S
H455 C445 0.929 . S
Tb456 N485 2.617 . S
Tb456 N491 2.572 . S
Tb456 O500 2.465 . S
Tb456 O501 2.387 . S
Tb456 O503 2.428 . S
Tb456 O504 2.308 . S
Tb456 O508 2.349 . S
Tb456 O511 2.393 . S
Tb456 C520 2.802 . S
C457 N458 1.379 . S
C457 C460 1.416 . S
C457 C464 1.424 . S
N458 C457 1.379 . S
N458 C461 1.334 . S
N458 Tb467 2.617 . S
C459 C461 1.390 . S
C459 C462 1.339 . S
C459 H479 0.930 . S
C460 C457 1.416 . S
C460 C462 1.416 . S
C460 C466 1.448 . S
C461 N458 1.334 . S
C461 C459 1.390 . S
C461 H472 0.930 . S
C462 C459 1.339 . S
C462 C460 1.416 . S
C462 H483 0.930 . S
C463 C464 1.413 . S
C463 C465 1.427 . S
C463 C469 1.416 . S
C464 C457 1.424 . S
C464 C463 1.413 . S
C464 N468 1.361 . S
C465 C463 1.427 . S
C465 C466 1.328 . S
C465 H480 0.929 . S
C466 C460 1.448 . S
C466 C465 1.328 . S
C466 H481 0.930 . S
Tb467 N458 2.617 . S
Tb467 N468 2.572 . S
Tb467 O502 2.349 . S
Tb467 O505 2.393 . S
Tb467 O506 2.465 . S
Tb467 O507 2.387 . S
Tb467 O509 2.428 . S
Tb467 O510 2.308 . S
Tb467 C531 2.802 . S
N468 C464 1.361 . S
N468 Tb467 2.572 . S
N468 C470 1.340 . S
C469 C463 1.416 . S
C469 C471 1.332 . S
C469 H477 0.931 . S
C470 N468 1.340 . S
C470 C471 1.407 . S
C470 H476 0.930 . S
C471 C469 1.332 . S
C471 C470 1.407 . S
C471 H473 0.929 . S
H472 C461 0.930 . S
H473 C471 0.929 . S
H474 C489 0.930 . S
H475 C496 0.929 . S
H476 C470 0.930 . S
H477 C469 0.931 . S
H478 C492 0.930 . S
H479 C459 0.930 . S
H480 C465 0.929 . S
H481 C466 0.930 . S
H482 C487 0.930 . S
H483 C462 0.930 . S
H484 C495 0.931 . S
N485 Tb456 2.617 . S
N485 C486 1.379 . S
N485 C489 1.334 . S
C486 N485 1.379 . S
C486 C488 1.416 . S
C486 C494 1.424 . S
C487 H482 0.930 . S
C487 C489 1.390 . S
C487 C490 1.339 . S
C488 C486 1.416 . S
C488 C490 1.416 . S
C488 C521 1.448 . S
C489 H474 0.930 . S
C489 N485 1.334 . S
C489 C487 1.390 . S
C490 C487 1.339 . S
C490 C488 1.416 . S
C490 H497 0.930 . S
N491 Tb456 2.572 . S
N491 C492 1.340 . S
N491 C494 1.361 . S
C492 H478 0.930 . S
C492 N491 1.340 . S
C492 C496 1.407 . S
C493 C494 1.413 . S
C493 C495 1.416 . S
C493 C522 1.427 . S
C494 C486 1.424 . S
C494 N491 1.361 . S
C494 C493 1.413 . S
C495 H484 0.931 . S
C495 C493 1.416 . S
C495 C496 1.332 . S
C496 H475 0.929 . S
C496 C492 1.407 . S
C496 C495 1.332 . S
H497 C490 0.930 . S
H498 C521 0.930 . S
H499 C522 0.929 . S
O500 Tb456 2.465 . S
O500 C520 1.264 . S
O501 Tb456 2.387 . S
O501 C512 1.264 . S
O502 Tb467 2.349 . S
O502 C512 1.243 . S
O503 Tb456 2.428 . S
O503 C520 1.256 . S
O504 Tb456 2.308 . S
O504 C519 1.266 . S
O505 Tb467 2.393 . S
O505 C519 1.248 . S
O506 Tb467 2.465 . S
O506 C531 1.264 . S
O507 Tb467 2.387 . S
O507 C523 1.264 . S
O508 Tb456 2.349 . S
O508 C523 1.243 . S
O509 Tb467 2.428 . S
O509 C531 1.256 . S
O510 Tb467 2.308 . S
O510 C530 1.266 . S
O511 Tb456 2.393 . S
O511 C530 1.248 . S
C512 O501 1.264 . S
C512 O502 1.243 . S
C513 C516 1.399 . S
C513 C518 1.383 . S
C513 C520 1.496 . S
C514 C515 1.399 . S
C514 C518 1.389 . S
C515 C514 1.399 . S
C515 C517 1.380 . S
C515 H532 0.929 . S
C516 C513 1.399 . S
C516 C517 1.392 . S
C516 H533 0.929 . S
C517 C515 1.380 . S
C517 C516 1.392 . S
C517 H534 0.929 . S
C518 C513 1.383 . S
C518 C514 1.389 . S
C518 H535 0.931 . S
C519 O504 1.266 . S
C519 O505 1.248 . S
C520 Tb456 2.802 . S
C520 O500 1.264 . S
C520 O503 1.256 . S
C520 C513 1.496 . S
C521 C488 1.448 . S
C521 H498 0.930 . S
C521 C522 1.328 . S
C522 C493 1.427 . S
C522 H499 0.929 . S
C522 C521 1.328 . S
C523 O507 1.264 . S
C523 O508 1.243 . S
C524 C527 1.399 . S
C524 C528 1.383 . S
C524 C531 1.496 . S
C525 C526 1.399 . S
C525 C528 1.389 . S
C526 C525 1.399 . S
C526 C529 1.380 . S
C526 H536 0.929 . S
C527 C524 1.399 . S
C527 C529 1.392 . S
C527 H537 0.929 . S
C528 C524 1.383 . S
C528 C525 1.389 . S
C528 H538 0.931 . S
C529 C526 1.380 . S
C529 C527 1.392 . S
C529 H539 0.929 . S
C530 O510 1.266 . S
C530 O511 1.248 . S
C531 Tb467 2.802 . S
C531 O506 1.264 . S
C531 O509 1.256 . S
C531 C524 1.496 . S
H532 C515 0.929 . S
H533 C516 0.929 . S
H534 C517 0.929 . S
H535 C518 0.931 . S
H536 C526 0.929 . S
H537 C527 0.929 . S
H538 C528 0.931 . S
H539 C529 0.929 . S
Tb540 N569 2.617 . S
Tb540 N575 2.572 . S
Tb540 O584 2.465 . S
Tb540 O585 2.387 1_455 S
Tb540 O587 2.428 . S
Tb540 O588 2.308 . S
Tb540 O592 2.349 . S
Tb540 O595 2.393 . S
Tb540 C604 2.802 . S
C541 N542 1.379 1_455 S
C541 C544 1.416 . S
C541 C548 1.424 . S
N542 C541 1.379 1_655 S
N542 C545 1.334 . S
N542 Tb551 2.617 . S
C543 C545 1.390 1_455 S
C543 C546 1.339 . S
C543 H563 0.930 1_455 S
C544 C541 1.416 . S
C544 C546 1.416 . S
C544 C550 1.448 . S
C545 N542 1.334 . S
C545 C543 1.390 1_655 S
C545 H556 0.930 . S
C546 C543 1.339 . S
C546 C544 1.416 . S
C546 H567 0.930 . S
C547 C548 1.413 . S
C547 C549 1.427 . S
C547 C553 1.416 . S
C548 C541 1.424 . S
C548 C547 1.413 . S
C548 N552 1.361 . S
C549 C547 1.427 . S
C549 C550 1.328 . S
C549 H564 0.929 . S
C550 C544 1.448 . S
C550 C549 1.328 . S
C550 H565 0.930 . S
Tb551 N542 2.617 . S
Tb551 N552 2.572 1_655 S
Tb551 O586 2.349 . S
Tb551 O589 2.393 . S
Tb551 O590 2.465 . S
Tb551 O591 2.387 1_655 S
Tb551 O593 2.428 . S
Tb551 O594 2.320 . S
Tb551 C615 2.802 . S
N552 C548 1.361 . S
N552 Tb551 2.572 1_455 S
N552 C554 1.340 . S
C553 C547 1.416 . S
C553 C555 1.332 . S
C553 H561 0.931 . S
C554 N552 1.340 . S
C554 C555 1.407 . S
C554 H560 0.930 1_455 S
C555 C553 1.332 . S
C555 C554 1.407 . S
C555 H557 0.929 . S
H556 C545 0.930 . S
H557 C555 0.929 . S
H558 C573 0.930 . S
H559 C580 0.929 . S
H560 C554 0.930 1_655 S
H561 C553 0.931 . S
H562 C576 0.930 . S
H563 C543 0.930 1_655 S
H564 C549 0.929 . S
H565 C550 0.930 . S
H566 C571 0.930 . S
H567 C546 0.930 . S
H568 C579 0.931 . S
N569 Tb540 2.617 . S
N569 C570 1.379 . S
N569 C573 1.334 . S
C570 N569 1.379 . S
C570 C572 1.416 1_455 S
C570 C578 1.427 . S
C571 H566 0.930 . S
C571 C573 1.390 . S
C571 C574 1.339 1_455 S
C572 C570 1.416 1_655 S
C572 C574 1.416 . S
C572 C605 1.448 . S
C573 H558 0.930 . S
C573 N569 1.334 . S
C573 C571 1.390 . S
C574 C571 1.339 1_655 S
C574 C572 1.416 . S
C574 H581 0.930 . S
N575 Tb540 2.572 . S
N575 C576 1.340 . S
N575 C578 1.374 . S
C576 H562 0.930 . S
C576 N575 1.340 . S
C576 C580 1.407 1_455 S
C577 C578 1.397 1_655 S
C577 C579 1.416 . S
C577 C606 1.427 . S
C578 C570 1.427 . S
C578 N575 1.374 . S
C578 C577 1.397 1_455 S
C579 H568 0.931 . S
C579 C577 1.416 . S
C579 C580 1.332 . S
C580 H559 0.929 . S
C580 C576 1.407 1_655 S
C580 C579 1.332 . S
H581 C574 0.930 . S
H582 C605 0.930 . S
H583 C606 0.929 . S
O584 Tb540 2.465 . S
O584 C604 1.264 . S
O585 Tb540 2.387 1_655 S
O585 C596 1.264 . S
O586 Tb551 2.349 . S
O586 C596 1.243 . S
O587 Tb540 2.428 . S
O587 C604 1.256 . S
O588 Tb540 2.308 . S
O588 C603 1.266 . S
O589 Tb551 2.393 . S
O589 C603 1.248 1_655 S
O590 Tb551 2.465 . S
O590 C615 1.264 . S
O591 Tb551 2.387 1_455 S
O591 C607 1.264 . S
O592 Tb540 2.349 . S
O592 C607 1.243 . S
O593 Tb551 2.428 . S
O593 C615 1.256 . S
O594 Tb551 2.320 . S
O594 C614 1.258 1_655 S
O595 Tb540 2.393 . S
O595 C614 1.248 . S
C596 O585 1.264 . S
C596 O586 1.243 . S
C597 C600 1.399 . S
C597 C602 1.383 . S
C597 C604 1.496 . S
C598 C599 1.399 . S
C598 C602 1.389 . S
C599 C598 1.399 . S
C599 C601 1.380 . S
C599 H616 0.929 . S
C600 C597 1.399 . S
C600 C601 1.392 . S
C600 H617 0.929 . S
C601 C599 1.380 . S
C601 C600 1.392 . S
C601 H618 0.929 . S
C602 C597 1.383 . S
C602 C598 1.389 . S
C602 H619 0.931 . S
C603 O588 1.266 . S
C603 O589 1.248 1_455 S
C604 Tb540 2.802 . S
C604 O584 1.264 . S
C604 O587 1.256 . S
C604 C597 1.496 . S
C605 C572 1.448 . S
C605 H582 0.930 . S
C605 C606 1.328 . S
C606 C577 1.427 . S
C606 H583 0.929 . S
C606 C605 1.328 . S
C607 O591 1.264 . S
C607 O592 1.243 . S
C608 C611 1.399 . S
C608 C612 1.383 . S
C608 C615 1.496 . S
C609 C610 1.399 . S
C609 C612 1.389 . S
C610 C609 1.399 . S
C610 C613 1.380 . S
C610 H620 0.929 . S
C611 C608 1.399 . S
C611 C613 1.392 . S
C611 H621 0.929 . S
C612 C608 1.383 . S
C612 C609 1.389 . S
C612 H622 0.931 . S
C613 C610 1.380 . S
C613 C611 1.392 . S
C613 H623 0.929 . S
C614 O594 1.258 1_455 S
C614 O595 1.248 . S
C615 Tb551 2.802 . S
C615 O590 1.264 . S
C615 O593 1.256 . S
C615 C608 1.496 . S
H616 C599 0.929 . S
H617 C600 0.929 . S
H618 C601 0.929 . S
H619 C602 0.931 . S
H620 C610 0.929 . S
H621 C611 0.929 . S
H622 C612 0.931 . S
H623 C613 0.929 . S
H624 C632 0.950 . S
H625 C637 0.950 . S
H626 C634 0.950 . S
H627 C636 0.950 . S
H628 C638 0.950 . S
H629 C640 0.950 . S
H630 C642 0.950 . S
H631 C643 0.950 . S
C632 H624 0.950 . S
C632 C633 1.386 . S
C632 C634 1.391 . S
C633 C632 1.386 . S
C633 C637 1.393 . S
C634 H626 0.950 . S
C634 C632 1.391 . S
C634 C635 1.400 . S
C635 C634 1.400 . S
C635 C636 1.398 . S
C635 C641 1.491 . S
C636 H627 0.950 . S
C636 C635 1.398 . S
C636 C637 1.391 . S
C637 H625 0.950 . S
C637 C633 1.393 . S
C637 C636 1.391 . S
C638 H628 0.950 . S
C638 C639 1.386 . S
C638 C640 1.391 . S
C639 C638 1.386 . S
C639 C643 1.393 . S
C640 H629 0.950 . S
C640 C638 1.391 . S
C640 C641 1.400 . S
C641 C635 1.491 . S
C641 C640 1.400 . S
C641 C642 1.398 . S
C642 H630 0.950 . S
C642 C641 1.398 . S
C642 C643 1.391 . S
C643 H631 0.950 . S
C643 C639 1.393 . S
C643 C642 1.391 . S
H644 C652 0.950 . S
H645 C657 0.950 . S
H646 C654 0.950 . S
H647 C656 0.950 . S
H648 C658 0.950 . S
H649 C660 0.950 . S
H650 C662 0.950 . S
H651 C663 0.950 . S
C652 H644 0.950 . S
C652 C653 1.386 . S
C652 C654 1.391 . S
C653 C652 1.386 . S
C653 C657 1.393 . S
C654 H646 0.950 . S
C654 C652 1.391 . S
C654 C655 1.400 . S
C655 C654 1.400 . S
C655 C656 1.398 . S
C655 C661 1.491 . S
C656 H647 0.950 . S
C656 C655 1.398 . S
C656 C657 1.391 . S
C657 H645 0.950 . S
C657 C653 1.393 . S
C657 C656 1.391 . S
C658 H648 0.950 . S
C658 C659 1.386 . S
C658 C660 1.391 . S
C659 C658 1.386 . S
C659 C663 1.393 . S
C660 H649 0.950 . S
C660 C658 1.391 . S
C660 C661 1.400 . S
C661 C655 1.491 . S
C661 C660 1.400 . S
C661 C662 1.398 . S
C662 H650 0.950 . S
C662 C661 1.398 . S
C662 C663 1.391 . S
C663 H651 0.950 . S
C663 C659 1.393 . S
C663 C662 1.391 . S
H664 C672 0.950 . S
H665 C677 0.950 . S
H666 C674 0.950 . S
H667 C676 0.950 . S
H668 C678 0.950 . S
H669 C680 0.950 . S
H670 C682 0.950 . S
H671 C683 0.950 . S
C672 H664 0.950 . S
C672 C673 1.386 . S
C672 C674 1.391 . S
C673 C672 1.386 . S
C673 C677 1.393 . S
C674 H666 0.950 . S
C674 C672 1.391 . S
C674 C675 1.400 . S
C675 C674 1.400 . S
C675 C676 1.398 . S
C675 C681 1.491 . S
C676 H667 0.950 . S
C676 C675 1.398 . S
C676 C677 1.391 . S
C677 H665 0.950 . S
C677 C673 1.393 . S
C677 C676 1.391 . S
C678 H668 0.950 . S
C678 C679 1.386 . S
C678 C680 1.391 . S
C679 C678 1.386 . S
C679 C683 1.393 . S
C680 H669 0.950 . S
C680 C678 1.391 . S
C680 C681 1.400 . S
C681 C675 1.491 . S
C681 C680 1.400 . S
C681 C682 1.398 . S
C682 H670 0.950 . S
C682 C681 1.398 . S
C682 C683 1.391 . S
C683 H671 0.950 . S
C683 C679 1.393 . S
C683 C682 1.391 . S
H684 C692 0.950 . S
H685 C697 0.950 . S
H686 C694 0.950 . S
H687 C696 0.950 . S
H688 C698 0.950 . S
H689 C700 0.950 . S
H690 C702 0.950 . S
H691 C703 0.950 . S
C692 H684 0.950 . S
C692 C693 1.386 . S
C692 C694 1.391 . S
C693 C692 1.386 . S
C693 C697 1.393 . S
C694 H686 0.950 . S
C694 C692 1.391 . S
C694 C695 1.400 . S
C695 C694 1.400 . S
C695 C696 1.398 . S
C695 C701 1.491 . S
C696 H687 0.950 . S
C696 C695 1.398 . S
C696 C697 1.391 . S
C697 H685 0.950 . S
C697 C693 1.393 . S
C697 C696 1.391 . S
C698 H688 0.950 . S
C698 C699 1.386 . S
C698 C700 1.391 . S
C699 C698 1.386 . S
C699 C703 1.393 . S
C700 H689 0.950 . S
C700 C698 1.391 . S
C700 C701 1.400 . S
C701 C695 1.491 . S
C701 C700 1.400 . S
C701 C702 1.398 . S
C702 H690 0.950 . S
C702 C701 1.398 . S
C702 C703 1.391 . S
C703 H691 0.950 . S
C703 C699 1.393 . S
C703 C702 1.391 . S
H704 C712 0.950 . S
H705 C717 0.950 . S
H706 C714 0.950 . S
H707 C716 0.950 . S
H708 C718 0.950 . S
H709 C720 0.950 1_545 S
H710 C722 0.950 . S
H711 C723 0.950 . S
C712 H704 0.950 . S
C712 C713 1.386 . S
C712 C714 1.391 . S
C713 C712 1.386 . S
C713 C717 1.393 . S
C714 H706 0.950 . S
C714 C712 1.391 . S
C714 C715 1.400 1_554 S
C715 C714 1.400 1_556 S
C715 C716 1.398 . S
C715 C721 1.491 . S
C716 H707 0.950 . S
C716 C715 1.398 . S
C716 C717 1.391 1_556 S
C717 H705 0.950 . S
C717 C713 1.393 . S
C717 C716 1.391 1_554 S
C718 H708 0.950 . S
C718 C719 1.386 1_545 S
C718 C720 1.391 1_545 S
C719 C718 1.386 1_565 S
C719 C723 1.393 . S
C720 H709 0.950 1_565 S
C720 C718 1.391 1_565 S
C720 C721 1.400 . S
C721 C715 1.491 . S
C721 C720 1.400 . S
C721 C722 1.398 . S
C722 H710 0.950 . S
C722 C721 1.398 . S
C722 C723 1.391 . S
C723 H711 0.950 . S
C723 C719 1.393 . S
C723 C722 1.391 . S
H724 C732 0.950 . S
H725 C737 0.950 . S
H726 C734 0.950 . S
H727 C736 0.950 . S
H728 C738 0.950 . S
H729 C740 0.950 . S
H730 C742 0.950 . S
H731 C743 0.950 . S
C732 H724 0.950 . S
C732 C733 1.386 . S
C732 C734 1.391 1_554 S
C733 C732 1.386 . S
C733 C737 1.393 . S
C734 H726 0.950 . S
C734 C732 1.391 1_556 S
C734 C735 1.400 . S
C735 C734 1.400 . S
C735 C736 1.398 1_556 S
C735 C741 1.491 . S
C736 H727 0.950 . S
C736 C735 1.398 1_554 S
C736 C737 1.391 . S
C737 H725 0.950 . S
C737 C733 1.393 . S
C737 C736 1.391 . S
C738 H728 0.950 . S
C738 C739 1.386 . S
C738 C740 1.391 . S
C739 C738 1.386 . S
C739 C743 1.393 . S
C740 H729 0.950 . S
C740 C738 1.391 . S
C740 C741 1.400 . S
C741 C735 1.491 . S
C741 C740 1.400 . S
C741 C742 1.398 . S
C742 H730 0.950 . S
C742 C741 1.398 . S
C742 C743 1.391 . S
C743 H731 0.950 . S
C743 C739 1.393 . S
C743 C742 1.391 . S
H744 C752 0.950 . S
H745 C757 0.950 . S
H746 C754 0.950 1_556 S
H747 C756 0.950 1_556 S
H748 C758 0.950 . S
H749 C760 0.950 . S
H750 C762 0.950 . S
H751 C763 0.950 . S
C752 H744 0.950 . S
C752 C753 1.386 . S
C752 C754 1.391 . S
C753 C752 1.386 . S
C753 C757 1.393 . S
C754 H746 0.950 1_554 S
C754 C752 1.391 . S
C754 C755 1.400 1_554 S
C755 C754 1.400 1_556 S
C755 C756 1.398 1_556 S
C755 C761 1.491 . S
C756 H747 0.950 1_554 S
C756 C755 1.398 1_554 S
C756 C757 1.391 . S
C757 H745 0.950 . S
C757 C753 1.393 . S
C757 C756 1.391 . S
C758 H748 0.950 . S
C758 C759 1.386 . S
C758 C760 1.391 . S
C759 C758 1.386 . S
C759 C763 1.393 . S
C760 H749 0.950 . S
C760 C758 1.391 . S
C760 C761 1.400 . S
C761 C755 1.491 . S
C761 C760 1.400 . S
C761 C762 1.398 . S
C762 H750 0.950 . S
C762 C761 1.398 . S
C762 C763 1.391 . S
C763 H751 0.950 . S
C763 C759 1.393 . S
C763 C762 1.391 . S
H764 C772 0.950 . S
H765 C777 0.950 1_455 S
H766 C774 0.950 1_556 S
H767 C776 0.950 1_456 S
H768 C778 0.950 . S
H769 C780 0.950 . S
H770 C782 0.950 . S
H771 C783 0.950 . S
C772 H764 0.950 . S
C772 C773 1.386 . S
C772 C774 1.391 . S
C773 C772 1.386 . S
C773 C777 1.393 . S
C774 H766 0.950 1_554 S
C774 C772 1.391 . S
C774 C775 1.400 1_554 S
C775 C774 1.400 1_556 S
C775 C776 1.398 1_556 S
C775 C781 1.491 . S
C776 H767 0.950 1_654 S
C776 C775 1.398 1_554 S
C776 C777 1.391 . S
C777 H765 0.950 1_655 S
C777 C773 1.393 . S
C777 C776 1.391 . S
C778 H768 0.950 . S
C778 C779 1.386 1_455 S
C778 C780 1.391 . S
C779 C778 1.386 1_655 S
C779 C783 1.393 . S
C780 H769 0.950 . S
C780 C778 1.391 . S
C780 C781 1.400 1_455 S
C781 C775 1.491 . S
C781 C780 1.400 1_655 S
C781 C782 1.398 . S
C782 H770 0.950 . S
C782 C781 1.398 . S
C782 C783 1.391 . S
C783 H771 0.950 . S
C783 C779 1.393 . S
C783 C782 1.391 . S
H784 C792 0.950 . S
H785 C797 0.950 . S
H786 C794 0.950 . S
H787 C796 0.950 . S
H788 C798 0.950 . S
H789 C800 0.950 . S
H790 C802 0.964 . S
H791 C803 0.950 . S
C792 H784 0.950 . S
C792 C793 1.386 . S
C792 C794 1.391 . S
C793 C792 1.386 . S
C793 C797 1.393 . S
C794 H786 0.950 . S
C794 C792 1.391 . S
C794 C795 1.400 . S
C795 C794 1.400 . S
C795 C796 1.398 . S
C795 C801 1.491 . S
C796 H787 0.950 . S
C796 C795 1.398 . S
C796 C797 1.391 . S
C797 H785 0.950 . S
C797 C793 1.393 . S
C797 C796 1.391 . S
C798 H788 0.950 . S
C798 C799 1.386 1_455 S
C798 C800 1.391 . S
C799 C798 1.386 1_655 S
C799 C803 1.393 . S
C800 H789 0.950 . S
C800 C798 1.391 . S
C800 C801 1.400 . S
C801 C795 1.491 . S
C801 C800 1.400 . S
C801 C802 1.371 1_455 S
C802 H790 0.964 . S
C802 C801 1.371 1_655 S
C802 C803 1.405 . S
C803 H791 0.950 . S
C803 C799 1.393 . S
C803 C802 1.405 . S
H804 C812 0.950 . S
H805 C817 0.950 . S
H806 C814 0.950 . S
H807 C816 0.950 . S
H808 C818 0.950 . S
H809 C820 0.950 . S
H810 C822 0.950 . S
H811 C823 0.950 . S
C812 H804 0.950 . S
C812 C813 1.386 . S
C812 C814 1.391 . S
C813 C812 1.386 . S
C813 C817 1.393 . S
C814 H806 0.950 . S
C814 C812 1.391 . S
C814 C815 1.400 . S
C815 C814 1.400 . S
C815 C816 1.398 . S
C815 C821 1.491 . S
C816 H807 0.950 . S
C816 C815 1.398 . S
C816 C817 1.391 . S
C817 H805 0.950 . S
C817 C813 1.393 . S
C817 C816 1.391 . S
C818 H808 0.950 . S
C818 C819 1.386 1_565 S
C818 C820 1.391 1_565 S
C819 C818 1.386 1_545 S
C819 C823 1.393 . S
C820 H809 0.950 . S
C820 C818 1.391 1_545 S
C820 C821 1.400 . S
C821 C815 1.491 . S
C821 C820 1.400 . S
C821 C822 1.398 . S
C822 H810 0.950 . S
C822 C821 1.398 . S
C822 C823 1.391 . S
C823 H811 0.950 . S
C823 C819 1.393 . S
C823 C822 1.391 . S
H824 C832 0.950 . S
H825 C837 0.950 . S
H826 C834 0.950 . S
H827 C836 0.950 . S
H828 C838 0.950 . S
H829 C840 0.950 . S
H830 C842 0.950 . S
H831 C843 0.950 . S
C832 H824 0.950 . S
C832 C833 1.386 . S
C832 C834 1.391 . S
C833 C832 1.386 . S
C833 C837 1.393 . S
C834 H826 0.950 . S
C834 C832 1.391 . S
C834 C835 1.400 . S
C835 C834 1.400 . S
C835 C836 1.398 . S
C835 C841 1.491 . S
C836 H827 0.950 . S
C836 C835 1.398 . S
C836 C837 1.391 . S
C837 H825 0.950 . S
C837 C833 1.393 . S
C837 C836 1.391 . S
C838 H828 0.950 . S
C838 C839 1.386 . S
C838 C840 1.391 . S
C839 C838 1.386 . S
C839 C843 1.393 . S
C840 H829 0.950 . S
C840 C838 1.391 . S
C840 C841 1.400 . S
C841 C835 1.491 . S
C841 C840 1.400 . S
C841 C842 1.398 . S
C842 H830 0.950 . S
C842 C841 1.398 . S
C842 C843 1.391 . S
C843 H831 0.950 . S
C843 C839 1.393 . S
C843 C842 1.391 . S
H844 C852 0.950 . S
H845 C857 0.950 . S
H846 C854 0.950 . S
H847 C856 0.950 . S
H848 C858 0.950 . S
H849 C860 0.950 . S
H850 C862 0.950 . S
H851 C863 0.950 . S
C852 H844 0.950 . S
C852 C853 1.386 . S
C852 C854 1.391 . S
C853 C852 1.386 . S
C853 C857 1.393 . S
C854 H846 0.950 . S
C854 C852 1.391 . S
C854 C855 1.400 . S
C855 C854 1.400 . S
C855 C856 1.398 . S
C855 C861 1.491 . S
C856 H847 0.950 . S
C856 C855 1.398 . S
C856 C857 1.391 . S
C857 H845 0.950 . S
C857 C853 1.393 . S
C857 C856 1.391 . S
C858 H848 0.950 . S
C858 C859 1.386 . S
C858 C860 1.391 . S
C859 C858 1.386 . S
C859 C863 1.393 . S
C860 H849 0.950 . S
C860 C858 1.391 . S
C860 C861 1.400 . S
C861 C855 1.491 . S
C861 C860 1.400 . S
C861 C862 1.398 . S
C862 H850 0.950 . S
C862 C861 1.398 . S
C862 C863 1.391 . S
C863 H851 0.950 . S
C863 C859 1.393 . S
C863 C862 1.391 . S
H864 C872 0.950 . S
H865 C877 0.950 . S
H866 C874 0.950 . S
H867 C876 0.950 . S
H868 C878 0.950 . S
H869 C880 0.950 . S
H870 C882 0.950 . S
H871 C883 0.950 . S
C872 H864 0.950 . S
C872 C873 1.386 1_556 S
C872 C874 1.391 . S
C873 C872 1.386 1_554 S
C873 C877 1.393 . S
C874 H866 0.950 . S
C874 C872 1.391 . S
C874 C875 1.400 . S
C875 C874 1.400 . S
C875 C876 1.398 1_556 S
C875 C881 1.491 . S
C876 H867 0.950 . S
C876 C875 1.398 1_554 S
C876 C877 1.391 . S
C877 H865 0.950 . S
C877 C873 1.393 . S
C877 C876 1.391 . S
C878 H868 0.950 . S
C878 C879 1.386 . S
C878 C880 1.391 1_455 S
C879 C878 1.386 . S
C879 C883 1.393 . S
C880 H869 0.950 . S
C880 C878 1.391 1_655 S
C880 C881 1.400 . S
C881 C875 1.491 . S
C881 C880 1.400 . S
C881 C882 1.398 1_655 S
C882 H870 0.950 . S
C882 C881 1.398 1_455 S
C882 C883 1.391 . S
C883 H871 0.950 . S
C883 C879 1.393 . S
C883 C882 1.391 . S
H884 C892 0.950 . S
H885 C897 0.950 . S
H886 C894 0.950 . S
H887 C896 0.950 . S
H888 C898 0.950 . S
H889 C900 0.950 1_565 S
H890 C902 0.950 1_554 S
H891 C903 0.950 . S
C892 H884 0.950 . S
C892 C893 1.386 . S
C892 C894 1.391 . S
C893 C892 1.386 . S
C893 C897 1.393 1_554 S
C894 H886 0.950 . S
C894 C892 1.391 . S
C894 C895 1.400 1_554 S
C895 C894 1.400 1_556 S
C895 C896 1.398 . S
C895 C901 1.491 . S
C896 H887 0.950 . S
C896 C895 1.398 . S
C896 C897 1.391 . S
C897 H885 0.950 . S
C897 C893 1.393 1_556 S
C897 C896 1.391 . S
C898 H888 0.950 . S
C898 C899 1.386 . S
C898 C900 1.391 . S
C899 C898 1.386 . S
C899 C903 1.393 . S
C900 H889 0.950 1_545 S
C900 C898 1.391 . S
C900 C901 1.400 1_545 S
C901 C895 1.491 . S
C901 C900 1.400 1_565 S
C901 C902 1.398 . S
C902 H890 0.950 1_556 S
C902 C901 1.398 . S
C902 C903 1.391 1_565 S
C903 H891 0.950 . S
C903 C899 1.393 . S
C903 C902 1.391 1_545 S
H904 C912 0.950 . S
H905 C917 0.950 . S
H906 C914 0.950 . S
H907 C916 0.950 . S
H908 C918 0.950 . S
H909 C920 0.950 . S
H910 C922 0.950 . S
H911 C923 0.950 . S
C912 H904 0.950 . S
C912 C913 1.386 . S
C912 C914 1.391 . S
C913 C912 1.386 . S
C913 C917 1.393 1_554 S
C914 H906 0.950 . S
C914 C912 1.391 . S
C914 C915 1.400 1_554 S
C915 C914 1.400 1_556 S
C915 C916 1.398 . S
C915 C921 1.491 . S
C916 H907 0.950 . S
C916 C915 1.398 . S
C916 C917 1.391 . S
C917 H905 0.950 . S
C917 C913 1.393 1_556 S
C917 C916 1.391 . S
C918 H908 0.950 . S
C918 C919 1.386 . S
C918 C920 1.391 . S
C919 C918 1.386 . S
C919 C923 1.393 . S
C920 H909 0.950 . S
C920 C918 1.391 . S
C920 C921 1.400 . S
C921 C915 1.491 . S
C921 C920 1.400 . S
C921 C922 1.398 . S
C922 H910 0.950 . S
C922 C921 1.398 . S
C922 C923 1.391 . S
C923 H911 0.950 . S
C923 C919 1.393 . S
C923 C922 1.391 . S
H924 C932 0.950 . S
H925 C937 0.950 . S
H926 C934 0.950 . S
H927 C936 0.950 . S
H928 C938 0.950 . S
H929 C940 0.950 . S
H930 C942 0.950 . S
H931 C943 0.950 . S
C932 H924 0.950 . S
C932 C933 1.386 . S
C932 C934 1.391 1_554 S
C933 C932 1.386 . S
C933 C937 1.393 . S
C934 H926 0.950 . S
C934 C932 1.391 1_556 S
C934 C935 1.400 . S
C935 C934 1.400 . S
C935 C936 1.398 . S
C935 C941 1.491 . S
C936 H927 0.950 . S
C936 C935 1.398 . S
C936 C937 1.391 1_556 S
C937 H925 0.950 . S
C937 C933 1.393 . S
C937 C936 1.391 1_554 S
C938 H928 0.950 . S
C938 C939 1.386 . S
C938 C940 1.391 . S
C939 C938 1.386 . S
C939 C943 1.393 . S
C940 H929 0.950 . S
C940 C938 1.391 . S
C940 C941 1.400 . S
C941 C935 1.491 . S
C941 C940 1.400 . S
C941 C942 1.398 . S
C942 H930 0.950 . S
C942 C941 1.398 . S
C942 C943 1.391 . S
C943 H931 0.950 . S
C943 C939 1.393 . S
C943 C942 1.391 . S
H944 C952 0.950 . S
H945 C957 0.950 . S
H946 C954 0.950 . S
H947 C956 0.950 . S
H948 C958 0.950 . S
H949 C960 0.950 . S
H950 C962 0.950 . S
H951 C963 0.950 . S
C952 H944 0.950 . S
C952 C953 1.386 . S
C952 C954 1.391 . S
C953 C952 1.386 . S
C953 C957 1.393 . S
C954 H946 0.950 . S
C954 C952 1.391 . S
C954 C955 1.400 . S
C955 C954 1.400 . S
C955 C956 1.398 . S
C955 C961 1.491 . S
C956 H947 0.950 . S
C956 C955 1.398 . S
C956 C957 1.391 . S
C957 H945 0.950 . S
C957 C953 1.393 . S
C957 C956 1.391 . S
C958 H948 0.950 . S
C958 C959 1.386 . S
C958 C960 1.391 . S
C959 C958 1.386 . S
C959 C963 1.393 . S
C960 H949 0.950 . S
C960 C958 1.391 . S
C960 C961 1.400 . S
C961 C955 1.491 . S
C961 C960 1.400 . S
C961 C962 1.398 . S
C962 H950 0.950 . S
C962 C961 1.398 . S
C962 C963 1.391 . S
C963 H951 0.950 . S
C963 C959 1.393 . S
C963 C962 1.391 . S
H964 C972 0.950 . S
H965 C977 0.950 . S
H966 C974 0.950 . S
H967 C976 0.950 . S
H968 C978 0.950 . S
H969 C980 0.950 . S
H970 C982 0.937 1_565 S
H971 C983 0.950 1_565 S
C972 H964 0.950 . S
C972 C973 1.386 . S
C972 C974 1.391 . S
C973 C972 1.386 . S
C973 C977 1.393 . S
C974 H966 0.950 . S
C974 C972 1.391 . S
C974 C975 1.400 . S
C975 C974 1.400 . S
C975 C976 1.398 . S
C975 C981 1.491 . S
C976 H967 0.950 . S
C976 C975 1.398 . S
C976 C977 1.391 . S
C977 H965 0.950 . S
C977 C973 1.393 . S
C977 C976 1.391 . S
C978 H968 0.950 . S
C978 C979 1.386 . S
C978 C980 1.391 . S
C979 C978 1.386 . S
C979 C983 1.393 . S
C980 H969 0.950 . S
C980 C978 1.391 . S
C980 C981 1.400 . S
C981 C975 1.491 . S
C981 C980 1.400 . S
C981 C982 1.398 . S
C982 H970 0.937 1_545 S
C982 C981 1.398 . S
C982 C983 1.391 . S
C983 H971 0.950 1_545 S
C983 C979 1.393 . S
C983 C982 1.391 . S
H984 C992 0.950 . S
H985 C997 0.950 . S
H986 C994 0.950 . S
H987 C996 0.950 . S
H988 C998 0.950 . S
H989 C1000 0.950 . S
H990 C1002 0.950 . S
H991 C1003 0.950 . S
C992 H984 0.950 . S
C992 C993 1.386 . S
C992 C994 1.391 . S
C993 C992 1.386 . S
C993 C997 1.393 . S
C994 H986 0.950 . S
C994 C992 1.391 . S
C994 C995 1.400 . S
C995 C994 1.400 . S
C995 C996 1.398 . S
C995 C1001 1.491 . S
C996 H987 0.950 . S
C996 C995 1.398 . S
C996 C997 1.391 . S
C997 H985 0.950 . S
C997 C993 1.393 . S
C997 C996 1.391 . S
C998 H988 0.950 . S
C998 C999 1.386 . S
C998 C1000 1.391 . S
C999 C998 1.386 . S
C999 C1003 1.393 . S
C1000 H989 0.950 . S
C1000 C998 1.391 . S
C1000 C1001 1.400 . S
C1001 C995 1.491 . S
C1001 C1000 1.400 . S
C1001 C1002 1.398 . S
C1002 H990 0.950 . S
C1002 C1001 1.398 . S
C1002 C1003 1.391 . S
C1003 H991 0.950 . S
C1003 C999 1.393 . S
C1003 C1002 1.391 . S
H1004 C1012 0.950 . S
H1005 C1017 0.950 . S
H1006 C1014 0.950 . S
H1007 C1016 0.950 . S
H1008 C1018 0.950 . S
H1009 C1020 0.950 . S
H1010 C1022 0.950 . S
H1011 C1023 0.950 . S
C1012 H1004 0.950 . S
C1012 C1013 1.386 . S
C1012 C1014 1.391 . S
C1013 C1012 1.386 . S
C1013 C1017 1.393 . S
C1014 H1006 0.950 . S
C1014 C1012 1.391 . S
C1014 C1015 1.400 . S
C1015 C1014 1.400 . S
C1015 C1016 1.398 . S
C1015 C1021 1.491 . S
C1016 H1007 0.950 . S
C1016 C1015 1.398 . S
C1016 C1017 1.391 . S
C1017 H1005 0.950 . S
C1017 C1013 1.393 . S
C1017 C1016 1.391 . S
C1018 H1008 0.950 . S
C1018 C1019 1.386 . S
C1018 C1020 1.391 . S
C1019 C1018 1.386 . S
C1019 C1023 1.393 . S
C1020 H1009 0.950 . S
C1020 C1018 1.391 . S
C1020 C1021 1.400 . S
C1021 C1015 1.491 . S
C1021 C1020 1.400 . S
C1021 C1022 1.398 . S
C1022 H1010 0.950 . S
C1022 C1021 1.398 . S
C1022 C1023 1.391 . S
C1023 H1011 0.950 . S
C1023 C1019 1.393 . S
C1023 C1022 1.391 . S
H1024 C1032 0.950 . S
H1025 C1037 0.950 . S
H1026 C1034 0.950 . S
H1027 C1036 0.950 . S
H1028 C1038 0.950 1_455 S
H1029 C1040 0.959 . S
H1030 C1042 0.950 . S
H1031 C1043 0.950 . S
C1032 H1024 0.950 . S
C1032 C1033 1.386 . S
C1032 C1034 1.391 . S
C1033 C1032 1.386 . S
C1033 C1037 1.393 . S
C1034 H1026 0.950 . S
C1034 C1032 1.391 . S
C1034 C1035 1.400 . S
C1035 C1034 1.400 . S
C1035 C1036 1.398 . S
C1035 C1041 1.491 . S
C1036 H1027 0.950 . S
C1036 C1035 1.398 . S
C1036 C1037 1.391 . S
C1037 H1025 0.950 . S
C1037 C1033 1.393 . S
C1037 C1036 1.391 . S
C1038 H1028 0.950 1_655 S
C1038 C1039 1.386 . S
C1038 C1040 1.391 . S
C1039 C1038 1.386 . S
C1039 C1043 1.393 . S
C1040 H1029 0.959 . S
C1040 C1038 1.391 . S
C1040 C1041 1.400 . S
C1041 C1035 1.491 . S
C1041 C1040 1.400 . S
C1041 C1042 1.398 . S
C1042 H1030 0.950 . S
C1042 C1041 1.398 . S
C1042 C1043 1.391 . S
C1043 H1031 0.950 . S
C1043 C1039 1.393 . S
C1043 C1042 1.391 . S
H1044 C1052 0.934 1_545 S
H1045 C1057 0.950 . S
H1046 C1054 0.950 1_545 S
H1047 C1056 0.950 . S
H1048 C1058 0.950 . S
H1049 C1060 0.950 . S
H1050 C1062 0.950 . S
H1051 C1063 0.950 . S
C1052 H1044 0.934 1_565 S
C1052 C1053 1.386 . S
C1052 C1054 1.391 . S
C1053 C1052 1.386 . S
C1053 C1057 1.393 . S
C1054 H1046 0.950 1_565 S
C1054 C1052 1.391 . S
C1054 C1055 1.400 . S
C1055 C1054 1.400 . S
C1055 C1056 1.398 . S
C1055 C1061 1.491 . S
C1056 H1047 0.950 . S
C1056 C1055 1.398 . S
C1056 C1057 1.391 . S
C1057 H1045 0.950 . S
C1057 C1053 1.393 . S
C1057 C1056 1.391 . S
C1058 H1048 0.950 . S
C1058 C1059 1.386 . S
C1058 C1060 1.391 . S
C1059 C1058 1.386 . S
C1059 C1063 1.393 1_565 S
C1060 H1049 0.950 . S
C1060 C1058 1.391 . S
C1060 C1061 1.400 . S
C1061 C1055 1.491 . S
C1061 C1060 1.400 . S
C1061 C1062 1.398 1_565 S
C1062 H1050 0.950 . S
C1062 C1061 1.398 1_545 S
C1062 C1063 1.391 . S
C1063 H1051 0.950 . S
C1063 C1059 1.393 1_545 S
C1063 C1062 1.391 . S
H1064 C1072 0.950 . S
H1065 C1077 0.950 . S
H1066 C1074 0.950 . S
H1067 C1076 0.950 . S
H1068 C1078 0.950 . S
H1069 C1080 0.950 . S
H1070 C1082 0.950 . S
H1071 C1083 0.950 . S
C1072 H1064 0.950 . S
C1072 C1073 1.386 . S
C1072 C1074 1.391 . S
C1073 C1072 1.386 . S
C1073 C1077 1.393 . S
C1074 H1066 0.950 . S
C1074 C1072 1.391 . S
C1074 C1075 1.400 . S
C1075 C1074 1.400 . S
C1075 C1076 1.398 . S
C1075 C1081 1.491 . S
C1076 H1067 0.950 . S
C1076 C1075 1.398 . S
C1076 C1077 1.391 . S
C1077 H1065 0.950 . S
C1077 C1073 1.393 . S
C1077 C1076 1.391 . S
C1078 H1068 0.950 . S
C1078 C1079 1.386 . S
C1078 C1080 1.391 . S
C1079 C1078 1.386 . S
C1079 C1083 1.393 . S
C1080 H1069 0.950 . S
C1080 C1078 1.391 . S
C1080 C1081 1.400 . S
C1081 C1075 1.491 . S
C1081 C1080 1.400 . S
C1081 C1082 1.398 . S
C1082 H1070 0.950 . S
C1082 C1081 1.398 . S
C1082 C1083 1.391 . S
C1083 H1071 0.950 . S
C1083 C1079 1.393 . S
C1083 C1082 1.391 . S
H1084 C1092 0.950 . S
H1085 C1097 0.950 . S
H1086 C1094 0.950 . S
H1087 C1096 0.950 . S
H1088 C1098 0.950 . S
H1089 C1100 0.950 . S
H1090 C1102 0.950 . S
H1091 C1103 0.950 . S
C1092 H1084 0.950 . S
C1092 C1093 1.386 . S
C1092 C1094 1.391 . S
C1093 C1092 1.386 . S
C1093 C1097 1.393 . S
C1094 H1086 0.950 . S
C1094 C1092 1.391 . S
C1094 C1095 1.400 . S
C1095 C1094 1.400 . S
C1095 C1096 1.398 . S
C1095 C1101 1.491 . S
C1096 H1087 0.950 . S
C1096 C1095 1.398 . S
C1096 C1097 1.391 . S
C1097 H1085 0.950 . S
C1097 C1093 1.393 . S
C1097 C1096 1.391 . S
C1098 H1088 0.950 . S
C1098 C1099 1.386 . S
C1098 C1100 1.391 . S
C1099 C1098 1.386 . S
C1099 C1103 1.393 . S
C1100 H1089 0.950 . S
C1100 C1098 1.391 . S
C1100 C1101 1.400 . S
C1101 C1095 1.491 . S
C1101 C1100 1.400 . S
C1101 C1102 1.398 . S
C1102 H1090 0.950 . S
C1102 C1101 1.398 . S
C1102 C1103 1.391 . S
C1103 H1091 0.950 . S
C1103 C1099 1.393 . S
C1103 C1102 1.391 . S
C633 C241 2.219 . S
C639 C351 2.412 . S
C659 C428 2.427 . S
C653 C277 2.269 . S
C679 C519 2.412 . S
C673 C169 2.232 . S
C699 C603 2.399 . S
C693 C205 2.207 . S
C719 C362 2.405 1_565 S
C713 C97 2.192 . S
C733 C133 2.316 . S
C739 C439 2.434 . S
C753 C25 2.179 . S
C759 C530 2.404 . S
C773 C61 2.171 . S
C779 C614 2.392 1_655 S
C799 C346 0.450 . S
C793 C211 0.459 . S
C819 C441 0.504 . S
C813 C247 0.466 . S
C839 C514 0.453 . S
C833 C253 0.527 . S
C853 C175 0.420 . S
C859 C598 0.467 . S
C873 C67 0.543 . S
C879 C357 0.459 . S
C899 C430 0.531 . S
C893 C103 0.461 . S
C919 C525 0.515 . S
C913 C109 0.456 . S
C933 C31 0.470 . S
C939 C609 0.474 . S
C953 C181 2.630 . S
C959 C355 2.888 . S
C973 C217 2.623 . S
C979 C446 2.918 . S
C999 C523 2.914 . S
C993 C283 2.569 . S
C1019 C607 2.907 . S
C1013 C145 2.653 . S
C1033 C37 2.619 . S
C1039 C344 2.889 . S
C1059 C435 2.924 . S
C1053 C73 2.582 . S
C1079 C512 2.913 . S
C1073 C139 2.591 . S
C1093 C1 2.614 . S
C1099 C596 2.897 . S
