# Generated by pormake.
# Topology anh, (6,3)-cn, num edge types: 1
# Building blocks:
#     Node 0, Type 0, BuildingBlock: NUHQIS_clean_sbu_0, # of connection points: 6
#     Node 1, Type 0, BuildingBlock: NUHQIS_clean_sbu_0, # of connection points: 6
#     Node 2, Type 0, BuildingBlock: NUHQIS_clean_sbu_0, # of connection points: 6
#     Node 3, Type 1, BuildingBlock: KAKCAD_clean_linker_0, # of connection points: 3
#     Node 4, Type 1, BuildingBlock: KAKCAD_clean_linker_0, # of connection points: 3
#     Node 5, Type 1, BuildingBlock: KAKCAD_clean_linker_0, # of connection points: 3
#     Node 6, Type 1, BuildingBlock: KAKCAD_clean_linker_0, # of connection points: 3
#     Node 7, Type 1, BuildingBlock: KAKCAD_clean_linker_0, # of connection points: 3
#     Node 8, Type 1, BuildingBlock: KAKCAD_clean_linker_0, # of connection points: 3
#     Edge 9, Type (0, 1), BuildingBlock: EZIPEK_clean_linker_0, # of connection points: 2
#     Edge 10, Type (0, 1), BuildingBlock: EZIPEK_clean_linker_0, # of connection points: 2
#     Edge 11, Type (0, 1), BuildingBlock: EZIPEK_clean_linker_0, # of connection points: 2
#     Edge 12, Type (0, 1), BuildingBlock: EZIPEK_clean_linker_0, # of connection points: 2
#     Edge 13, Type (0, 1), BuildingBlock: EZIPEK_clean_linker_0, # of connection points: 2
#     Edge 14, Type (0, 1), BuildingBlock: EZIPEK_clean_linker_0, # of connection points: 2
#     Edge 15, Type (0, 1), BuildingBlock: EZIPEK_clean_linker_0, # of connection points: 2
#     Edge 16, Type (0, 1), BuildingBlock: EZIPEK_clean_linker_0, # of connection points: 2
#     Edge 17, Type (0, 1), BuildingBlock: EZIPEK_clean_linker_0, # of connection points: 2
#     Edge 18, Type (0, 1), BuildingBlock: EZIPEK_clean_linker_0, # of connection points: 2
#     Edge 19, Type (0, 1), BuildingBlock: EZIPEK_clean_linker_0, # of connection points: 2
#     Edge 20, Type (0, 1), BuildingBlock: EZIPEK_clean_linker_0, # of connection points: 2
#     Edge 21, Type (0, 1), BuildingBlock: EZIPEK_clean_linker_0, # of connection points: 2
#     Edge 22, Type (0, 1), BuildingBlock: EZIPEK_clean_linker_0, # of connection points: 2
#     Edge 23, Type (0, 1), BuildingBlock: EZIPEK_clean_linker_0, # of connection points: 2
#     Edge 24, Type (0, 1), BuildingBlock: EZIPEK_clean_linker_0, # of connection points: 2
#     Edge 25, Type (0, 1), BuildingBlock: EZIPEK_clean_linker_0, # of connection points: 2
#     Edge 26, Type (0, 1), BuildingBlock: EZIPEK_clean_linker_0, # of connection points: 2
# Relax obj value: 0.298
# Max RMSD: 0.197
# Mean RMSD: 0.163
data_MOF--net-anh--node1-NUHQIS_clean_sbu_0--node2-KAKCAD_clean_linker_0--edge1-EZIPEK_clean_linker_0
_symmetry_space_group_name_H-M    P1
_symmetry_Int_Tables_number       1
_symmetry_cell_setting            triclinic
loop_
_symmetry_equiv_pos_as_xyz
'x, y, z'
_cell_length_a     27.98299
_cell_length_b     28.083713
_cell_length_c     52.945217
_cell_angle_alpha  90.75558
_cell_angle_beta   94.24655
_cell_angle_gamma 120.41497
loop_
_atom_site_label
_atom_site_type_symbol
_atom_site_fract_x
_atom_site_fract_y
_atom_site_fract_z
_atom_type_partial_charge
Tb0 Tb 0.19566 0.63139 0.16608 0.0
Eu1 Eu 1.12555 0.69058 0.14624 0.0
C2 C 0.14894 0.67834 0.20514 0.0
C3 C 1.05971 0.56056 0.15963 0.0
C4 C 0.30621 0.59924 0.17847 0.0
C5 C 0.37122 0.57295 0.16582 0.0
C6 C 0.31796 0.55822 0.17168 0.0
C7 C 0.34906 0.65511 0.18074 0.0
C8 C 0.40261 0.66981 0.17512 0.0
C9 C 0.4132 0.62881 0.16679 0.0
C10 C 0.24822 0.58388 0.18001 0.0
O11 O 0.20862 0.64316 0.1256 0.0
O12 O 1.14004 0.66054 0.11 0.0
O13 O 0.21767 0.75712 0.14718 0.0
O14 O 0.26377 0.71659 0.16611 0.0
C15 C 0.17902 0.64893 0.1066 0.0
O16 O 1.06349 0.70093 0.12348 0.0
O17 O 1.11895 0.76386 0.1525 0.0
O18 O 1.11281 0.67554 0.18725 0.0
O19 O 0.19074 0.6725 0.20005 0.0
O20 O 1.10824 0.56495 0.1663 0.0
O21 O 1.05609 0.6024 0.15079 0.0
C22 C 0.26386 0.76002 0.15707 0.0
O23 O 0.23987 0.6153 0.1951 0.0
O24 O 0.21876 0.5727 0.15824 0.0
C25 C 1.02311 0.73286 0.15167 0.0
C26 C 0.93407 0.67221 0.18082 0.0
C27 C 0.9254 0.66744 0.15419 0.0
C28 C 0.96959 0.69782 0.13968 0.0
C29 C 1.02923 0.74478 0.17811 0.0
C30 C 0.9848 0.71437 0.19267 0.0
C31 C 1.07166 0.74246 0.1384 0.0
H32 H 0.37914 0.54097 0.15943 0.0
H33 H 0.28534 0.51509 0.16972 0.0
H34 H 0.34068 0.6875 0.1858 0.0
H35 H 0.4348 0.71306 0.17589 0.0
H36 H 0.8859 0.636 0.14465 0.0
H37 H 0.96326 0.68873 0.11934 0.0
H38 H 1.06957 0.77315 0.18787 0.0
H39 H 0.9917 0.71981 0.21317 0.0
Tb40 Tb 0.7564 0.11263 0.4904 0.0
Eu41 Eu 0.6223 1.04708 0.47942 0.0
C42 C 0.67848 1.07326 0.53469 0.0
C43 C 0.69042 0.98123 0.48633 0.0
C44 C 0.89719 0.22706 0.49345 0.0
C45 C 0.93561 0.32359 0.50713 0.0
C46 C 0.91561 0.26872 0.51297 0.0
C47 C 0.90484 0.24227 0.46819 0.0
C48 C 0.92517 0.29717 0.46241 0.0
C49 C 0.9382 0.33748 0.48176 0.0
C50 C 0.86033 0.16869 0.49902 0.0
O51 O 0.74012 0.1309 0.45196 0.0
O52 O 0.65806 1.0506 0.44227 0.0
O53 O 0.64402 0.13685 0.48555 0.0
O54 O 0.7391 0.1809 0.49384 0.0
C55 C 0.70172 1.09453 0.43515 0.0
O56 O 0.53982 0.98139 0.48707 0.0
O57 O 0.54905 1.03305 0.45548 0.0
O58 O 0.64045 1.0762 0.52016 0.0
O59 O 0.72115 1.07447 0.52528 0.0
O60 O 0.73442 1.02695 0.48005 0.0
O61 O 0.64464 0.98162 0.49033 0.0
C62 C 0.69253 0.18247 0.49141 0.0
O63 O 0.82625 0.16119 0.51612 0.0
O64 O 0.83505 0.13337 0.47948 0.0
C65 C 0.46842 1.00089 0.47675 0.0
C66 C 0.37828 1.01037 0.49005 0.0
C67 C 0.37221 0.97632 0.46896 0.0
C68 C 0.41695 0.97162 0.46236 0.0
C69 C 0.47508 1.03569 0.49773 0.0
C70 C 0.43 1.04034 0.50441 0.0
C71 C 0.51454 0.9948 0.46936 0.0
H72 H 0.94579 0.35453 0.52224 0.0
H73 H 0.91043 0.25825 0.53259 0.0
H74 H 0.89141 0.21138 0.45268 0.0
H75 H 0.92726 0.30757 0.44273 0.0
H76 H 0.33244 0.95283 0.45774 0.0
H77 H 0.41128 0.94487 0.44608 0.0
H78 H 0.51489 1.05883 0.50893 0.0
H79 H 0.43518 1.06662 0.52078 0.0
Tb80 Tb 0.70472 0.6678 0.82454 0.0
Eu81 Eu 0.63573 0.53361 0.81909 0.0
C82 C 0.6871 0.60047 0.87271 0.0
C83 C 0.77221 0.60348 0.82292 0.0
C84 C 0.72969 0.8039 0.84066 0.0
C85 C 0.67837 0.81189 0.87409 0.0
C86 C 0.71386 0.79487 0.86563 0.0
C87 C 0.71413 0.83501 0.82534 0.0
C88 C 0.67787 0.85088 0.8336 0.0
C89 C 0.65732 0.83664 0.85744 0.0
C90 C 0.7505 0.77122 0.82858 0.0
O91 O 0.70584 0.64281 0.78518 0.0
O92 O 0.62279 0.56175 0.78111 0.0
O93 O 0.56907 0.55319 0.82725 0.0
O94 O 0.61731 0.64783 0.8255 0.0
C95 C 0.66355 0.60303 0.77085 0.0
O96 O 0.61315 0.45513 0.79964 0.0
O97 O 0.57704 0.45594 0.83444 0.0
O98 O 0.67939 0.55859 0.8583 0.0
O99 O 0.68677 0.643 0.86303 0.0
O100 O 0.77171 0.64841 0.83018 0.0
O101 O 0.72578 0.55812 0.8141 0.0
C102 C 0.57074 0.60079 0.82817 0.0
O103 O 0.76516 0.74328 0.84348 0.0
O104 O 0.71971 0.74128 0.80834 0.0
C105 C 0.60542 0.39117 0.82914 0.0
C106 C 0.66139 0.33583 0.84411 0.0
C107 C 0.62168 0.31535 0.82297 0.0
C108 C 0.59385 0.34298 0.81548 0.0
C109 C 0.64256 0.40958 0.8513 0.0
C110 C 0.67047 0.38193 0.85877 0.0
C111 C 0.58582 0.42649 0.81819 0.0
H112 H 0.66383 0.80172 0.89276 0.0
H113 H 0.72532 0.77109 0.87797 0.0
H114 H 0.72585 0.84259 0.8061 0.0
H115 H 0.66263 0.87079 0.82061 0.0
H116 H 0.61462 0.27976 0.81147 0.0
H117 H 0.56574 0.32856 0.79828 0.0
H118 H 0.65232 0.447 0.86203 0.0
H119 H 0.7012 0.39814 0.87506 0.0
C120 C 0.72772 0.17943 0.31743 0.0
C121 C 0.71467 0.12836 0.32712 0.0
C122 C 0.72534 0.18505 0.29117 0.0
C123 C 0.70952 0.13957 0.27408 0.0
C124 C 0.69818 1.08892 0.28397 0.0
C125 C 0.70079 1.08341 0.31022 0.0
C126 C 0.70065 0.1438 0.2462 0.0
C127 C 0.7381 0.19035 0.23391 0.0
C128 C 0.72812 0.19665 0.20797 0.0
C129 C 0.67863 0.15394 0.19415 0.0
C130 C 0.63958 0.10682 0.20647 0.0
C131 C 0.65249 0.10231 0.23224 0.0
C132 C 0.58371 1.06231 0.19399 0.0
C133 C 0.57708 1.03741 0.16968 0.0
C134 C 0.53667 1.04032 0.20797 0.0
C135 C 0.48629 0.9932 0.19895 0.0
C136 C 0.48008 0.96678 0.17523 0.0
C137 C 0.76961 0.24951 0.19667 0.0
C138 C 0.79225 0.30035 0.21087 0.0
C139 C 0.79163 0.24991 0.17349 0.0
C140 C 0.83658 0.29922 0.1655 0.0
C141 C 0.86043 0.34945 0.1804 0.0
C142 C 0.83693 0.34903 0.20304 0.0
C143 C 0.52575 0.99042 0.16034 0.0
H144 H 0.73835 0.21453 0.3302 0.0
H145 H 0.73373 0.22443 0.28425 0.0
H146 H 0.68644 1.05324 0.27138 0.0
H147 H 0.69063 1.0437 0.31735 0.0
H148 H 0.77576 0.22189 0.24472 0.0
H149 H 0.62372 1.0665 0.24187 0.0
H150 H 0.66948 0.15851 0.1744 0.0
H151 H 0.61202 1.05291 0.15829 0.0
H152 H 0.5391 1.05886 0.22644 0.0
H153 H 0.452 0.97686 0.21078 0.0
H154 H 0.77637 0.3023 0.22867 0.0
H155 H 0.7758 0.21172 0.16211 0.0
H156 H 0.52213 0.97163 0.14178 0.0
H157 H 0.85439 0.38629 0.21526 0.0
H158 H 0.85378 0.2978 0.14804 0.0
C159 C 0.62715 0.5968 0.64396 0.0
C160 C 0.66484 0.59065 0.66072 0.0
C161 C 0.62898 0.59323 0.6176 0.0
C162 C 0.66779 0.5823 0.60745 0.0
C163 C 0.70492 0.57545 0.62428 0.0
C164 C 0.70375 0.58002 0.65057 0.0
C165 C 0.67204 0.58081 0.57951 0.0
C166 C 0.67651 0.6242 0.56532 0.0
C167 C 0.68813 0.62834 0.53969 0.0
C168 C 0.693 0.58466 0.52794 0.0
C169 C 0.6873 0.5387 0.54199 0.0
C170 C 0.67545 0.53798 0.5676 0.0
C171 C 0.69404 0.49118 0.53148 0.0
C172 C 0.68426 0.47368 0.50545 0.0
C173 C 0.70829 0.46028 0.54824 0.0
C174 C 0.70774 0.4122 0.54004 0.0
C175 C 0.69699 0.39393 0.5143 0.0
C176 C 0.69642 0.6803 0.52702 0.0
C177 C 0.72247 0.73143 0.54145 0.0
C178 C 0.67356 0.67952 0.5022 0.0
C179 C 0.67439 0.72726 0.49291 0.0
C180 C 0.69697 0.77696 0.50831 0.0
C181 C 0.72164 0.77797 0.53259 0.0
C182 C 0.68667 0.42659 0.497 0.0
H183 H 0.59656 0.6047 0.65132 0.0
H184 H 0.59984 0.59867 0.60513 0.0
H185 H 0.73578 0.56775 0.61708 0.0
H186 H 0.73323 0.57512 0.66307 0.0
H187 H 0.67201 0.65597 0.57477 0.0
H188 H 0.6679 0.50341 0.57884 0.0
H189 H 0.70279 0.58743 0.50844 0.0
H190 H 0.67373 0.4956 0.49156 0.0
H191 H 0.72014 0.47271 0.56817 0.0
H192 H 0.71659 0.38935 0.5541 0.0
H193 H 0.74249 0.73533 0.56029 0.0
H194 H 0.65319 0.64156 0.49031 0.0
H195 H 0.67925 0.41499 0.47689 0.0
H196 H 0.74013 0.81512 0.54501 0.0
H197 H 0.65582 0.72482 0.4739 0.0
C198 C 0.2518 0.66122 0.98708 0.0
C199 C 0.20295 0.63207 -0.0006 0.0
C200 C 0.24965 0.65762 0.96048 0.0
C201 C 0.19858 0.6248 0.94571 0.0
C202 C 0.15017 0.59438 0.95832 0.0
C203 C 0.15234 0.59809 0.98479 0.0
C204 C 0.19465 0.62291 0.9173 0.0
C205 C 0.23423 0.61974 0.90376 0.0
C206 C 0.2292 0.61545 0.87698 0.0
C207 C 0.18069 0.61147 0.86365 0.0
C208 C 1.13976 0.61483 0.87711 0.0
C209 C 0.14987 0.62323 0.90379 0.0
C210 C 1.08587 0.60968 0.86488 0.0
C211 C 1.08029 0.62626 0.84024 0.0
C212 C 1.03904 0.59026 0.87903 0.0
C213 C 0.99136 0.59167 0.87018 0.0
C214 C 0.98572 0.60869 0.84586 0.0
C215 C 0.27621 0.61556 0.86432 0.0
C216 C 0.33189 0.65483 0.87298 0.0
C217 C 0.26739 0.5732 0.84663 0.0
C218 C 0.31274 0.56918 0.8388 0.0
C219 C 0.36821 0.60766 0.84826 0.0
C220 C 0.37679 0.65082 0.86524 0.0
C221 C 1.03067 0.62493 0.83075 0.0
H222 H 0.29131 0.68769 -0.00197 0.0
H223 H 0.28768 0.68175 0.95147 0.0
H224 H 1.11028 0.56779 0.94767 0.0
H225 H 1.11423 0.57506 0.9939 0.0
H226 H 0.26899 0.61967 0.91421 0.0
H227 H 1.1227 0.63063 0.91459 0.0
H228 H 0.17525 0.60624 0.84315 0.0
H229 H 1.11445 0.64116 0.82842 0.0
H230 H 1.03864 0.57374 0.8974 0.0
H231 H 0.95786 0.57807 0.88236 0.0
H232 H 0.34076 0.68803 0.88662 0.0
H233 H 0.22537 0.54169 0.83977 0.0
H234 H 1.02775 0.6374 0.81171 0.0
H235 H 0.41843 0.68076 0.87326 0.0
H236 H 0.3044 0.53512 0.82586 0.0
C237 C 1.0392 0.68956 0.30724 0.0
C238 C 1.09444 0.7238 0.30185 0.0
C239 C 1.02214 0.69706 0.33035 0.0
C240 C 1.06018 0.73884 0.34842 0.0
C241 C 1.1152 0.77398 0.34254 0.0
C242 C 1.13213 0.76653 0.31941 0.0
C243 C 1.04456 0.74206 0.37431 0.0
C244 C 1.01657 0.69353 0.38728 0.0
C245 C 1.01017 0.69569 0.41326 0.0
C246 C 1.03082 0.74742 0.42612 0.0
C247 C 1.05997 0.7965 0.41357 0.0
C248 C 1.06499 0.79337 0.38747 0.0
C249 C 1.09603 0.84927 0.42878 0.0
C250 C 1.07719 0.86495 0.4495 0.0
C251 C 0.15271 0.87974 0.42488 0.0
C252 C 0.19038 0.92179 0.44234 0.0
C253 C 0.1724 0.93483 0.46404 0.0
C254 C 0.99105 0.64474 0.42741 0.0
C255 C 0.94884 0.59324 0.41627 0.0
C256 C 1.01988 0.64624 0.45066 0.0
C257 C 1.00883 0.59728 0.46173 0.0
C258 C 0.96949 0.54608 0.44955 0.0
C259 C 0.93849 0.5443 0.42715 0.0
C260 C 1.11518 0.90815 0.46689 0.0
H261 H 1.00962 0.65662 0.2937 0.0
H262 H 0.97948 0.66953 0.33431 0.0
H263 H 1.14583 0.8058 0.35621 0.0
H264 H 0.17494 0.79326 0.31542 0.0
H265 H 1.00433 0.6542 0.37763 0.0
H266 H 1.08815 0.83115 0.3778 0.0
H267 H 1.02835 0.74964 0.44639 0.0
H268 H 1.03359 0.84227 0.45283 0.0
H269 H 0.16884 0.86836 0.40937 0.0
H270 H 0.23433 0.94194 0.43969 0.0
H271 H 0.92535 0.59069 0.39859 0.0
H272 H 1.05325 0.68497 0.45961 0.0
H273 H 1.10034 0.91854 0.4832 0.0
H274 H 0.90756 0.50499 0.41766 0.0
H275 H 1.0329 0.59921 0.47912 0.0
C276 C 0.62393 0.98887 0.65135 0.0
C277 C 0.62991 1.03508 0.63887 0.0
C278 C 0.61259 0.98322 0.67674 0.0
C279 C 0.60764 1.02402 0.68992 0.0
C280 C 0.61213 1.0694 0.67708 0.0
C281 C 0.62308 1.07482 0.65171 0.0
C282 C 0.60304 1.02228 0.7175 0.0
C283 C 0.56388 0.97387 0.72839 0.0
C284 C 0.56088 0.9739 0.75473 0.0
C285 C 0.59859 1.02106 0.77006 0.0
C286 C 0.63849 1.06842 0.75951 0.0
C287 C 0.63997 1.06953 0.73322 0.0
C288 C 0.67517 0.11767 0.77628 0.0
C289 C 0.67058 0.16464 0.77371 0.0
C290 C 0.70734 0.11484 0.79729 0.0
C291 C 0.73169 0.1573 0.81641 0.0
C292 C 0.72225 0.20168 0.81497 0.0
C293 C 0.52573 0.92378 0.76785 0.0
C294 C 0.54429 0.88617 0.77063 0.0
C295 C 0.4916 0.92596 0.78553 0.0
C296 C 0.48523 0.89885 0.80809 0.0
C297 C 0.51375 0.87043 0.81301 0.0
C298 C 0.53886 0.86004 0.79327 0.0
C299 C 0.69347 0.20607 0.79301 0.0
H300 H 0.62896 0.9578 0.64154 0.0
H301 H 0.60984 0.9482 0.68634 0.0
H302 H 0.60809 0.10118 0.68683 0.0
H303 H 0.62718 0.11046 0.6422 0.0
H304 H 0.53605 0.93674 0.71656 0.0
H305 H 0.67082 0.10677 0.72511 0.0
H306 H 0.59741 1.02063 0.79052 0.0
H307 H 0.64556 0.16727 0.75776 0.0
H308 H 0.71124 1.07861 0.79945 0.0
H309 H 0.75482 0.15387 0.83291 0.0
H310 H 0.57064 0.88384 0.75725 0.0
H311 H 0.47666 0.9547 0.78358 0.0
H312 H 0.68579 0.24013 0.79145 0.0
H313 H 0.5601 0.83705 0.79646 0.0
H314 H 0.46358 0.90531 0.82267 0.0
C315 C 0.68096 0.49162 0.9797 0.0
C316 C 0.70932 0.54841 0.97567 0.0
C317 C 0.67537 0.47376 0.00443 0.0
C318 C 0.69821 0.51268 0.02516 0.0
C319 C 0.72989 0.56929 0.02097 0.0
C320 C 0.73536 0.58706 0.99636 0.0
C321 C 0.6796 0.49637 0.05052 0.0
C322 C 0.69873 0.46811 0.06609 0.0
C323 C 0.68534 0.45985 0.09146 0.0
C324 C 0.65089 0.47818 0.10037 0.0
C325 C 0.63345 0.50771 0.08514 0.0
C326 C 0.64694 0.51576 0.06015 0.0
C327 C 0.6088 0.53728 0.09663 0.0
C328 C 0.56274 0.50897 0.11063 0.0
C329 C 0.63379 0.59486 0.09502 0.0
C330 C 0.61274 0.62371 0.1072 0.0
C331 C 0.566 0.59503 0.12073 0.0
C332 C 0.71888 0.44873 0.11091 0.0
C333 C 0.77686 0.48378 0.11256 0.0
C334 C 0.69435 0.421 0.13257 0.0
C335 C 0.72475 0.43845 0.15642 0.0
C336 C 0.77969 0.48289 0.15839 0.0
C337 C 0.80707 0.50104 0.13627 0.0
C338 C 0.54127 0.53768 0.1225 0.0
H339 H 0.66063 0.46143 0.96379 0.0
H340 H 0.6501 0.43004 0.00735 0.0
H341 H 0.74731 0.59988 0.0368 0.0
H342 H 0.75737 0.63099 0.99347 0.0
H343 H 0.72711 0.45649 0.05915 0.0
H344 H 0.63396 0.53939 0.04844 0.0
H345 H 0.64312 0.47562 0.12022 0.0
H346 H 0.54331 0.4647 0.11227 0.0
H347 H 0.67017 0.61759 0.08473 0.0
H348 H 0.6323 0.66805 0.10586 0.0
H349 H 0.79749 0.50499 0.09624 0.0
H350 H 0.64987 0.39248 0.13166 0.0
H351 H 0.50516 0.51518 0.13299 0.0
H352 H 0.85025 0.53393 0.1374 0.0
H353 H 0.7035 0.4225 0.1733 0.0
C354 C 0.50618 0.63663 0.17168 0.0
C355 C 0.46612 0.64299 0.15659 0.0
C356 C 0.50435 0.63547 0.11783 0.0
C357 C 0.54102 0.62385 0.13276 0.0
N358 N 0.58939 0.62958 0.1732 0.0
N359 N 0.43794 0.66689 0.117 0.0
C360 C 0.54639 0.63038 0.15957 0.0
C361 C 0.46945 0.64931 0.1302 0.0
N362 N 0.50351 0.63362 0.19731 0.0
N363 N 0.49985 0.62909 0.09195 0.0
H364 H 0.41121 0.67635 0.12563 0.0
H365 H 0.44199 0.67702 0.09813 0.0
H366 H 0.52535 0.61981 0.08215 0.0
H367 H 0.46895 0.63006 0.08015 0.0
H368 H 0.52725 0.6227 0.20924 0.0
H369 H 0.47578 0.64063 0.20658 0.0
H370 H 0.59815 0.63783 0.19274 0.0
H371 H 0.61929 0.62515 0.16448 0.0
C372 C 1.00036 0.43318 0.46821 0.0
C373 C 0.94767 0.39235 0.47512 0.0
C374 C 0.91216 0.45549 0.4689 0.0
C375 C 0.96289 0.49409 0.45936 0.0
N376 N 1.05193 0.51598 0.4456 0.0
N377 N 0.85027 0.36021 0.47786 0.0
C378 C 1.00633 0.48213 0.45793 0.0
C379 C 0.90264 0.40226 0.47437 0.0
N380 N 1.04472 0.42531 0.47169 0.0
N381 N 0.87371 0.47021 0.47334 0.0
H382 H 0.84144 0.32073 0.48244 0.0
H383 H 0.81484 0.36318 0.47408 0.0
H384 H 0.87968 0.50927 0.4699 0.0
H385 H 0.83824 0.44555 0.48251 0.0
H386 H 1.08548 0.45607 0.46953 0.0
H387 H 1.04143 0.38942 0.47885 0.0
H388 H 1.08193 0.50616 0.44161 0.0
H389 H 1.05747 0.55163 0.43725 0.0
C390 C 0.61715 0.89612 0.8642 0.0
C391 C 0.60907 0.84227 0.86262 0.0
C392 C 0.51414 0.80536 0.84347 0.0
C393 C 0.52786 0.86004 0.83914 0.0
N394 N 0.57877 0.9553 0.85486 0.0
N395 N 0.54476 0.74419 0.86048 0.0
C396 C 0.57441 0.90471 0.8533 0.0
C397 C 0.55512 0.79617 0.85608 0.0
N398 N 0.66745 0.93886 0.87416 0.0
N399 N 0.46449 0.76315 0.83274 0.0
H400 H 0.57445 0.73688 0.86966 0.0
H401 H 0.50592 0.70882 0.8569 0.0
H402 H 0.43449 0.77066 0.82388 0.0
H403 H 0.45374 0.72198 0.83204 0.0
H404 H 0.67909 0.98036 0.87377 0.0
H405 H 0.69806 0.93185 0.88269 0.0
H406 H 0.6109 0.98951 0.86544 0.0
H407 H 0.54711 0.96158 0.84728 0.0
C408 C 0.90211 0.58099 0.19847 0.0
C409 C 0.89321 0.62594 0.19483 0.0
C410 C 0.79381 0.56257 0.1855 0.0
C411 C 0.8058 0.51966 0.18177 0.0
N412 N 0.86186 0.48108 0.19431 0.0
N413 N 0.8315 0.66083 0.19612 0.0
C414 C 0.85679 0.52658 0.19224 0.0
C415 C 0.83868 0.61668 0.19289 0.0
N416 N 0.95458 0.59109 0.20524 0.0
N417 N 0.74101 0.55235 0.17965 0.0
H418 H 0.86554 0.70037 0.20104 0.0
H419 H 0.79297 0.65814 0.19551 0.0
H420 H 0.70749 0.51253 0.17518 0.0
H421 H 0.73002 0.5826 0.17962 0.0
H422 H 0.9655 0.56079 0.20582 0.0
H423 H 0.98756 0.63068 0.21075 0.0
H424 H 0.89702 0.48189 0.20275 0.0
H425 H 0.82814 0.44172 0.18884 0.0
C426 C 0.28902 0.96605 0.50962 0.0
C427 C 0.32839 1.0113 0.49686 0.0
C428 C 0.25505 1.02535 0.47743 0.0
C429 C 0.21595 0.97183 0.48424 0.0
N430 N 0.19113 0.90205 0.51451 0.0
N431 N 0.35298 1.09361 0.47493 0.0
C432 C 0.23149 0.94647 0.5035 0.0
C433 C 0.31267 1.04519 0.48343 0.0
N434 N 0.30712 0.9399 0.52587 0.0
N435 N 0.23626 1.0541 0.4635 0.0
H436 H 0.3952 0.10819 0.47967 0.0
H437 H 0.34515 0.11956 0.46378 0.0
H438 H 0.19365 1.03824 0.4591 0.0
H439 H 0.26164 1.09355 0.45745 0.0
H440 H 0.28121 0.90416 0.53476 0.0
H441 H 0.34944 0.95517 0.5307 0.0
H442 H 0.19882 0.88103 0.52877 0.0
H443 H 0.14903 0.88834 0.51038 0.0
C444 C 0.74523 0.3319 0.83461 0.0
C445 C 0.6977 0.31236 0.84838 0.0
C446 C 0.6963 0.22617 0.85454 0.0
C447 C 0.73612 0.24154 0.83667 0.0
N448 N 0.81625 0.315 0.82029 0.0
N449 N 0.63694 0.24749 0.87688 0.0
C450 C 0.76793 0.29748 0.83123 0.0
C451 C 0.67739 0.26238 0.86074 0.0
N452 N 0.76421 0.3798 0.82237 0.0
N453 N 0.67263 0.17555 0.86435 0.0
H454 H 0.62223 0.27356 0.88181 0.0
H455 H 0.61983 0.21003 0.88571 0.0
H456 H 0.68462 0.14673 0.86071 0.0
H457 H 0.68462 0.14673 0.86071 0.0
H458 H 0.79415 0.3924 0.80946 0.0
H459 H 0.74815 0.40588 0.82434 0.0
H460 H 0.84335 0.35623 0.81686 0.0
H461 H 0.83073 0.28796 0.81687 0.0
C462 C 0.74212 0.93058 0.50112 0.0
C463 C 0.69295 0.92845 0.48995 0.0
C464 C 0.6447 0.82613 0.49152 0.0
C465 C 0.6955 0.82827 0.4998 0.0
N466 N 0.79569 0.88458 0.50473 0.0
N467 N 0.60159 0.87024 0.46789 0.0
C468 C 0.74512 0.88116 0.50209 0.0
C469 C 0.64547 0.87502 0.48318 0.0
N470 N 0.78503 0.97879 0.51255 0.0
N471 N 0.59507 0.77832 0.49273 0.0
H472 H 0.60183 0.90401 0.45983 0.0
H473 H 0.56819 0.83217 0.46069 0.0
H474 H 0.59197 0.7425 0.49977 0.0
H475 H 0.55685 0.7762 0.4893 0.0
H476 H 0.8194 0.98092 0.5228 0.0
H477 H 0.78333 1.01478 0.51476 0.0
H478 H 0.83311 0.92185 0.50427 0.0
H479 H 0.79983 0.84969 0.50435 0.0
C480 C 0.82897 0.55828 0.83761 0.0
C481 C 0.82674 0.60321 0.82646 0.0
C482 C 0.92997 0.65364 0.82819 0.0
C483 C 0.93136 0.60635 0.8367 0.0
N484 N 0.87885 0.50864 0.84267 0.0
N485 N 0.87634 0.68837 0.80541 0.0
C486 C 0.87969 0.55713 0.83915 0.0
C487 C 0.87766 0.64929 0.82004 0.0
N488 N 0.78391 0.51812 0.8483 0.0
N489 N 0.97806 0.70372 0.82913 0.0
H490 H 0.83929 0.68553 0.79809 0.0
H491 H 0.91162 0.72001 0.79821 0.0
H492 H 1.01668 0.70951 0.83587 0.0
H493 H 0.97871 0.74048 0.82568 0.0
H494 H 0.78552 0.48824 0.85918 0.0
H495 H 0.74712 0.51852 0.84917 0.0
H496 H 0.84256 0.47109 0.84402 0.0
H497 H 0.91399 0.505 0.84177 0.0
C498 C 0.32276 0.86585 0.1651 0.0
C499 C 0.31885 0.81447 0.15839 0.0
C500 C 0.4218 0.86312 0.16197 0.0
C501 C 0.42525 0.91486 0.16662 0.0
N502 N 0.37715 0.96581 0.16462 0.0
N503 N 0.36652 0.77023 0.14247 0.0
C504 C 0.37506 0.91622 0.16552 0.0
C505 C 0.36898 0.81494 0.1544 0.0
N506 N 0.2779 0.86708 0.17283 0.0
N507 N 0.46826 0.8589 0.16591 0.0
H508 H 0.3292 0.73597 0.1349 0.0
H509 H 0.40173 0.77016 0.13731 0.0
H510 H 0.50736 0.89237 0.1721 0.0
H511 H 0.46679 0.82105 0.16537 0.0
H512 H 0.2806 0.90293 0.18037 0.0
H513 H 0.23964 0.83188 0.17457 0.0
H514 H 0.34168 0.96898 0.1614 0.0
H515 H 0.41443 1.0033 0.16421 0.0
C516 C 0.73535 0.27929 0.51439 0.0
C517 C 0.6949 0.23785 0.49613 0.0
C518 C 0.65271 0.29708 0.49073 0.0
C519 C 0.69755 0.34134 0.50628 0.0
N520 N 0.79091 0.37739 0.52609 0.0
N521 N 0.62513 0.2187 0.46137 0.0
C522 C 0.74174 0.33327 0.51594 0.0
C523 C 0.65651 0.25009 0.48266 0.0
N524 N 0.76573 0.26693 0.53158 0.0
N525 N 0.60493 0.29791 0.48453 0.0
H526 H 0.6298 0.1874 0.45338 0.0
H527 H 0.59998 0.22872 0.44986 0.0
H528 H 0.59857 0.32916 0.49116 0.0
H529 H 0.56939 0.2643 0.47523 0.0
H530 H 0.7925 0.29476 0.54634 0.0
H531 H 0.75869 0.2271 0.53342 0.0
H532 H 0.8259 0.3744 0.53138 0.0
H533 H 0.79876 0.41787 0.52618 0.0
C534 C 0.49056 0.57931 0.85526 0.0
C535 C 0.51765 0.60104 0.83281 0.0
C536 C 0.44121 0.61829 0.81853 0.0
C537 C 0.41737 0.60162 0.84202 0.0
N538 N 0.42168 0.56938 0.88354 0.0
N539 N 0.51961 0.644 0.79349 0.0
C540 C 0.44275 0.58288 0.86051 0.0
C541 C 0.49312 0.62137 0.81461 0.0
N542 N 0.50995 0.55431 0.87162 0.0
N543 N 0.41375 0.63069 0.79974 0.0
H544 H 0.55465 0.64303 0.78881 0.0
H545 H 0.50872 0.66624 0.78117 0.0
H546 H 0.37738 0.63117 0.80223 0.0
H547 H 0.42473 0.63715 0.78121 0.0
H548 H 0.48837 0.53118 0.88637 0.0
H549 H 0.54626 0.55348 0.8697 0.0
H550 H 0.44227 0.56341 0.89926 0.0
H551 H 0.38458 0.56697 0.88749 0.0
C552 C 0.961 0.47905 0.14556 0.0
C553 C 1.00727 0.50672 0.1643 0.0
C554 C 0.96085 0.4265 0.19075 0.0
C555 C 0.91184 0.40195 0.17363 0.0
N556 N 0.86239 0.41144 0.13659 0.0
N557 N 1.04122 0.51194 0.20808 0.0
C558 C 0.91113 0.43006 0.15149 0.0
C559 C 1.0044 0.48171 0.1878 0.0
N560 N 0.96513 0.498 0.12174 0.0
N561 N 0.96661 0.39677 0.20971 0.0
H562 H 1.0701 0.55387 0.20743 0.0
H563 H 1.03802 0.4975 0.22627 0.0
H564 H 0.9367 0.35569 0.21207 0.0
H565 H 1.00361 0.41095 0.22126 0.0
H566 H 0.935 0.47656 0.10665 0.0
H567 H 1.00104 0.53226 0.1164 0.0
H568 H 0.85787 0.43319 0.12172 0.0
H569 H 0.82513 0.37678 0.14051 0.0
C570 C 0.20933 0.69329 0.06543 0.0
C571 C 0.19236 0.64625 0.08005 0.0
C572 C 0.19471 0.59419 0.0429 0.0
C573 C 0.20365 0.63859 0.02754 0.0
N574 N 0.21269 0.72827 0.02363 0.0
N575 N 0.16395 0.54988 0.08233 0.0
C576 C 0.20952 0.68776 0.03868 0.0
C577 C 0.18426 0.59622 0.06876 0.0
N578 N 0.22685 0.74376 0.07724 0.0
N579 N 0.19706 0.55046 0.0328 0.0
H580 H 0.15591 0.54971 0.10125 0.0
H581 H 0.15113 0.5107 0.07434 0.0
H582 H 0.20464 0.5478 0.01398 0.0
H583 H 0.19649 0.51943 0.04355 0.0
H584 H 0.24509 0.78058 0.068 0.0
H585 H 0.2285 0.74962 0.09684 0.0
H586 H 0.21036 0.76198 0.03037 0.0
H587 H 0.21302 0.72607 0.00398 0.0
C588 C 0.66406 0.10959 0.39331 0.0
C589 C 0.7061 0.10455 0.40763 0.0
C590 C 0.75707 0.1215 0.3697 0.0
C591 C 0.71229 0.12096 0.35496 0.0
N592 N 0.61932 0.10632 0.3518 0.0
N593 N 0.78889 0.09797 0.4089 0.0
C594 C 0.66468 0.1127 0.36652 0.0
C595 C 0.75182 0.10869 0.39571 0.0
N596 N 0.62485 0.11395 0.40545 0.0
N597 N 0.80507 0.13537 0.35896 0.0
H598 H 0.78607 1.08781 0.42782 0.0
H599 H 0.81965 1.0945 0.4006 0.0
H600 H 0.80996 0.14411 0.33991 0.0
H601 H 0.84145 0.14251 0.36929 0.0
H602 H 0.59689 0.12381 0.39643 0.0
H603 H 0.62359 0.113 0.42507 0.0
H604 H 0.58108 1.09379 0.35874 0.0
H605 H 0.61834 0.10912 0.33216 0.0
C606 C 0.67099 0.64598 0.72841 0.0
C607 C 0.66469 0.60097 0.74268 0.0
C608 C 0.65062 0.5472 0.703 0.0
C609 C 0.66324 0.59417 0.68891 0.0
N610 N 0.69589 0.69192 0.68899 0.0
N611 N 0.66298 0.51414 0.74347 0.0
C612 C 0.67633 0.64467 0.70184 0.0
C613 C 0.65845 0.553 0.72994 0.0
N614 N 0.66975 0.68907 0.73998 0.0
N615 N 0.62959 0.49649 0.69071 0.0
H616 H 0.67231 0.51844 0.76308 0.0
H617 H 0.66405 0.48105 0.73497 0.0
H618 H 0.62184 0.49012 0.67102 0.0
H619 H 0.61449 0.46 0.70017 0.0
H620 H 0.66834 0.72018 0.73005 0.0
H621 H 0.66477 0.69099 0.75922 0.0
H622 H 0.71155 0.73091 0.69793 0.0
H623 H 0.70136 0.69298 0.66969 0.0
C624 C 0.61763 1.01479 0.56723 0.0
C625 C 0.66871 1.0611 0.56151 0.0
C626 C 0.69801 1.08393 0.60688 0.0
C627 C 0.64397 1.04251 0.6123 0.0
N628 N 0.54934 0.97375 0.59763 0.0
N629 N 0.75527 0.14403 0.57572 0.0
C630 C 0.6029 1.00927 0.59248 0.0
C631 C 0.7086 1.09671 0.58129 0.0
N632 N 0.58421 0.97479 0.54873 0.0
N633 N 0.73943 0.11023 0.62616 0.0
H634 H 0.76451 0.15498 0.55722 0.0
H635 H 0.78256 0.17468 0.5894 0.0
H636 H 0.73315 0.10181 0.64516 0.0
H637 H 0.78099 0.13666 0.62318 0.0
H638 H 0.54926 0.93754 0.55237 0.0
H639 H 0.59473 0.97599 0.53021 0.0
H640 H 0.51642 0.95326 0.58356 0.0
H641 H 0.53676 0.96835 0.61595 0.0
C642 C 0.74542 0.59348 0.90898 0.0
C643 C 0.6997 0.59985 0.90038 0.0
C644 C 0.66299 0.57665 0.94181 0.0
C645 C 0.70728 0.56788 0.95001 0.0
N646 N 0.79565 0.5766 0.94384 0.0
N647 N 0.62518 0.6142 0.91063 0.0
C648 C 0.75019 0.57909 0.93431 0.0
C649 C 0.66173 0.59687 0.91746 0.0
N650 N 0.78425 0.60148 0.89275 0.0
N651 N 0.62108 0.56379 0.95702 0.0
H652 H 0.62365 0.63018 0.89317 0.0
H653 H 0.60004 0.61802 0.92307 0.0
H654 H 0.62132 0.55063 0.97533 0.0
H655 H 0.58416 0.56249 0.95097 0.0
H656 H 0.8148 0.59107 0.8962 0.0
H657 H 0.78563 0.61883 0.87539 0.0
H658 H 0.83095 0.58874 0.93436 0.0
H659 H 0.79958 0.56487 0.96213 0.0
C660 C 1.13863 0.741 0.23501 0.0
C661 C 1.14422 0.69401 0.2313 0.0
C662 C 1.12768 0.673 0.27573 0.0
C663 C 1.11318 0.71447 0.27784 0.0
N664 N 1.09935 0.78471 0.25887 0.0
N665 N 1.14432 0.61444 0.24808 0.0
C666 C 1.11734 0.74776 0.25734 0.0
C667 C 1.13954 0.66005 0.25174 0.0
N668 N 0.15614 0.78055 0.21761 0.0
N669 N 1.13105 0.64678 0.29679 0.0
H670 H 0.15589 0.60501 0.23135 0.0
H671 H 1.13391 0.5841 0.26115 0.0
H672 H 1.12172 0.65462 0.31454 0.0
H673 H 0.14717 0.62052 0.29722 0.0
H674 H 0.15855 0.8185 0.22052 0.0
H675 H 0.17385 0.77777 0.20144 0.0
H676 H 1.09532 0.80527 0.24335 0.0
H677 H 1.08413 0.79152 0.27509 0.0
loop_
_geom_bond_atom_site_label_1
_geom_bond_atom_site_label_2
_geom_bond_distance
_geom_bond_site_symmetry_2
_ccdc_geom_bond_type
Tb0 C10 2.825 . S
Tb0 O11 2.347 . S
Tb0 O14 2.366 . S
Tb0 O19 2.418 . S
Tb0 O20 2.384 1_455 S
Tb0 O23 2.479 . S
Tb0 O24 2.471 . S
Eu1 O12 2.418 . S
Eu1 O13 2.384 1_655 S
Eu1 O16 2.479 . S
Eu1 O17 2.471 . S
Eu1 O18 2.347 1_655 S
Eu1 O21 2.366 . S
Eu1 C31 2.825 . S
C2 O18 1.259 . S
C2 O19 1.265 . S
C3 O20 1.255 . S
C3 O21 1.265 . S
C4 C6 1.380 . S
C4 C7 1.374 . S
C4 C10 1.507 . S
C5 C6 1.384 . S
C5 C9 1.387 . S
C5 H32 0.930 . S
C6 C4 1.380 . S
C6 C5 1.384 . S
C6 H33 0.931 . S
C7 C4 1.374 . S
C7 C8 1.390 . S
C7 H34 0.930 . S
C8 C7 1.390 . S
C8 C9 1.391 . S
C8 H35 0.930 . S
C9 C5 1.387 . S
C9 C8 1.391 . S
C10 Tb0 2.825 . S
C10 C4 1.507 . S
C10 O23 1.238 . S
C10 O24 1.247 . S
O11 Tb0 2.347 . S
O11 C15 1.259 . S
O12 Eu1 2.418 . S
O12 C15 1.265 1_655 S
O13 Eu1 2.384 1_455 S
O13 C22 1.255 . S
O14 Tb0 2.366 . S
O14 C22 1.265 . S
C15 O11 1.259 . S
C15 O12 1.265 1_455 S
O16 Eu1 2.479 . S
O16 C31 1.238 . S
O17 Eu1 2.471 . S
O17 C31 1.247 . S
O18 Eu1 2.347 1_455 S
O18 C2 1.259 . S
O19 Tb0 2.418 . S
O19 C2 1.265 . S
O20 Tb0 2.384 1_655 S
O20 C3 1.255 . S
O21 Eu1 2.366 . S
O21 C3 1.265 . S
C22 O13 1.255 . S
C22 O14 1.265 . S
O23 Tb0 2.479 . S
O23 C10 1.238 . S
O24 Tb0 2.471 . S
O24 C10 1.247 . S
C25 C28 1.380 . S
C25 C29 1.374 . S
C25 C31 1.507 . S
C26 C27 1.387 . S
C26 C30 1.391 . S
C27 C26 1.387 . S
C27 C28 1.384 . S
C27 H36 0.930 . S
C28 C25 1.380 . S
C28 C27 1.384 . S
C28 H37 0.931 . S
C29 C25 1.374 . S
C29 C30 1.390 . S
C29 H38 0.930 . S
C30 C26 1.391 . S
C30 C29 1.390 . S
C30 H39 0.930 . S
C31 Eu1 2.825 . S
C31 O16 1.238 . S
C31 O17 1.247 . S
C31 C25 1.507 . S
H32 C5 0.930 . S
H33 C6 0.931 . S
H34 C7 0.930 . S
H35 C8 0.930 . S
H36 C27 0.930 . S
H37 C28 0.931 . S
H38 C29 0.930 . S
H39 C30 0.930 . S
Tb40 C50 2.825 . S
Tb40 O51 2.347 . S
Tb40 O54 2.366 . S
Tb40 O59 2.418 . S
Tb40 O60 2.384 1_545 S
Tb40 O63 2.479 . S
Tb40 O64 2.471 . S
Eu41 O52 2.418 . S
Eu41 O53 2.384 . S
Eu41 O56 2.479 1_545 S
Eu41 O57 2.471 1_545 S
Eu41 O58 2.347 . S
Eu41 O61 2.366 1_545 S
Eu41 C71 2.825 1_545 S
C42 O58 1.259 . S
C42 O59 1.265 . S
C43 O60 1.255 . S
C43 O61 1.265 . S
C44 C46 1.380 . S
C44 C47 1.374 . S
C44 C50 1.507 . S
C45 C46 1.384 . S
C45 C49 1.387 . S
C45 H72 0.930 . S
C46 C44 1.380 . S
C46 C45 1.384 . S
C46 H73 0.931 . S
C47 C44 1.374 . S
C47 C48 1.390 . S
C47 H74 0.930 . S
C48 C47 1.390 . S
C48 C49 1.391 . S
C48 H75 0.930 . S
C49 C45 1.387 . S
C49 C48 1.391 . S
C50 Tb40 2.825 . S
C50 C44 1.507 . S
C50 O63 1.238 . S
C50 O64 1.247 . S
O51 Tb40 2.347 . S
O51 C55 1.259 . S
O52 Eu41 2.418 . S
O52 C55 1.265 . S
O53 Eu41 2.384 . S
O53 C62 1.255 . S
O54 Tb40 2.366 . S
O54 C62 1.265 . S
C55 O51 1.259 . S
C55 O52 1.265 . S
O56 Eu41 2.479 1_565 S
O56 C71 1.238 . S
O57 Eu41 2.471 1_565 S
O57 C71 1.247 . S
O58 Eu41 2.347 . S
O58 C42 1.259 . S
O59 Tb40 2.418 . S
O59 C42 1.265 . S
O60 Tb40 2.384 1_565 S
O60 C43 1.255 . S
O61 Eu41 2.366 1_565 S
O61 C43 1.265 . S
C62 O53 1.255 . S
C62 O54 1.265 . S
O63 Tb40 2.479 . S
O63 C50 1.238 . S
O64 Tb40 2.471 . S
O64 C50 1.247 . S
C65 C68 1.380 . S
C65 C69 1.374 . S
C65 C71 1.507 . S
C66 C67 1.387 . S
C66 C70 1.391 . S
C67 C66 1.387 . S
C67 C68 1.384 . S
C67 H76 0.930 . S
C68 C65 1.380 . S
C68 C67 1.384 . S
C68 H77 0.931 . S
C69 C65 1.374 . S
C69 C70 1.390 . S
C69 H78 0.930 . S
C70 C66 1.391 . S
C70 C69 1.390 . S
C70 H79 0.930 . S
C71 Eu41 2.825 1_565 S
C71 O56 1.238 . S
C71 O57 1.247 . S
C71 C65 1.507 . S
H72 C45 0.930 . S
H73 C46 0.931 . S
H74 C47 0.930 . S
H75 C48 0.930 . S
H76 C67 0.930 . S
H77 C68 0.931 . S
H78 C69 0.930 . S
H79 C70 0.930 . S
Tb80 C90 2.825 . S
Tb80 O91 2.347 . S
Tb80 O94 2.366 . S
Tb80 O99 2.418 . S
Tb80 O100 2.384 . S
Tb80 O103 2.479 . S
Tb80 O104 2.471 . S
Eu81 O92 2.418 . S
Eu81 O93 2.384 . S
Eu81 O96 2.479 . S
Eu81 O97 2.471 . S
Eu81 O98 2.347 . S
Eu81 O101 2.366 . S
Eu81 C111 2.825 . S
C82 O98 1.259 . S
C82 O99 1.265 . S
C83 O100 1.255 . S
C83 O101 1.265 . S
C84 C86 1.380 . S
C84 C87 1.374 . S
C84 C90 1.507 . S
C85 C86 1.384 . S
C85 C89 1.387 . S
C85 H112 0.930 . S
C86 C84 1.380 . S
C86 C85 1.384 . S
C86 H113 0.931 . S
C87 C84 1.374 . S
C87 C88 1.390 . S
C87 H114 0.930 . S
C88 C87 1.390 . S
C88 C89 1.391 . S
C88 H115 0.930 . S
C89 C85 1.387 . S
C89 C88 1.391 . S
C90 Tb80 2.825 . S
C90 C84 1.507 . S
C90 O103 1.238 . S
C90 O104 1.247 . S
O91 Tb80 2.347 . S
O91 C95 1.259 . S
O92 Eu81 2.418 . S
O92 C95 1.265 . S
O93 Eu81 2.384 . S
O93 C102 1.255 . S
O94 Tb80 2.366 . S
O94 C102 1.265 . S
C95 O91 1.259 . S
C95 O92 1.265 . S
O96 Eu81 2.479 . S
O96 C111 1.238 . S
O97 Eu81 2.471 . S
O97 C111 1.247 . S
O98 Eu81 2.347 . S
O98 C82 1.259 . S
O99 Tb80 2.418 . S
O99 C82 1.265 . S
O100 Tb80 2.384 . S
O100 C83 1.255 . S
O101 Eu81 2.366 . S
O101 C83 1.265 . S
C102 O93 1.255 . S
C102 O94 1.265 . S
O103 Tb80 2.479 . S
O103 C90 1.238 . S
O104 Tb80 2.471 . S
O104 C90 1.247 . S
C105 C108 1.380 . S
C105 C109 1.374 . S
C105 C111 1.507 . S
C106 C107 1.387 . S
C106 C110 1.391 . S
C107 C106 1.387 . S
C107 C108 1.384 . S
C107 H116 0.930 . S
C108 C105 1.380 . S
C108 C107 1.384 . S
C108 H117 0.931 . S
C109 C105 1.374 . S
C109 C110 1.390 . S
C109 H118 0.930 . S
C110 C106 1.391 . S
C110 C109 1.390 . S
C110 H119 0.930 . S
C111 Eu81 2.825 . S
C111 O96 1.238 . S
C111 O97 1.247 . S
C111 C105 1.507 . S
H112 C85 0.930 . S
H113 C86 0.931 . S
H114 C87 0.930 . S
H115 C88 0.930 . S
H116 C107 0.930 . S
H117 C108 0.931 . S
H118 C109 0.930 . S
H119 C110 0.930 . S
C120 C121 1.386 . S
C120 C122 1.397 . S
C120 H144 0.931 . S
C121 C120 1.386 . S
C121 C125 1.397 1_545 S
C122 C120 1.397 . S
C122 C123 1.384 . S
C122 H145 0.930 . S
C123 C122 1.384 . S
C123 C124 1.377 1_545 S
C123 C126 1.481 . S
C124 C123 1.377 1_565 S
C124 C125 1.389 . S
C124 H146 0.929 . S
C125 C121 1.397 1_565 S
C125 C124 1.389 . S
C125 H147 0.931 . S
C126 C123 1.481 . S
C126 C127 1.387 . S
C126 C131 1.390 1_545 S
C127 C126 1.387 . S
C127 C128 1.401 . S
C127 H148 0.930 . S
C128 C127 1.401 . S
C128 C129 1.376 . S
C128 C137 1.511 . S
C129 C128 1.376 . S
C129 C130 1.392 1_545 S
C129 H150 0.931 . S
C130 C129 1.392 1_565 S
C130 C131 1.361 . S
C130 C132 1.500 . S
C131 C126 1.390 1_565 S
C131 C130 1.361 . S
C131 H149 0.931 . S
C132 C130 1.500 . S
C132 C133 1.371 . S
C132 C134 1.365 . S
C133 C132 1.371 . S
C133 C143 1.386 . S
C133 H151 0.931 . S
C134 C132 1.365 . S
C134 C135 1.409 . S
C134 H152 0.929 . S
C135 C134 1.409 . S
C135 C136 1.380 . S
C135 H153 0.930 . S
C136 C135 1.380 . S
C136 C143 1.357 . S
C137 C128 1.511 . S
C137 C138 1.341 . S
C137 C139 1.371 . S
C138 C137 1.341 . S
C138 C142 1.394 . S
C138 H154 0.930 . S
C139 C137 1.371 . S
C139 C140 1.392 . S
C139 H155 0.931 . S
C140 C139 1.392 . S
C140 C141 1.331 . S
C140 H158 0.932 . S
C141 C140 1.331 . S
C141 C142 1.336 . S
C142 C138 1.394 . S
C142 C141 1.336 . S
C142 H157 0.929 . S
C143 C133 1.386 . S
C143 C136 1.357 . S
C143 H156 0.928 . S
H144 C120 0.931 . S
H145 C122 0.930 . S
H146 C124 0.929 . S
H147 C125 0.931 . S
H148 C127 0.930 . S
H149 C131 0.931 . S
H150 C129 0.931 . S
H151 C133 0.931 . S
H152 C134 0.929 . S
H153 C135 0.930 . S
H154 C138 0.930 . S
H155 C139 0.931 . S
H156 C143 0.928 . S
H157 C142 0.929 . S
H158 C140 0.932 . S
C159 C160 1.386 . S
C159 C161 1.397 . S
C159 H183 0.931 . S
C160 C159 1.386 . S
C160 C164 1.397 . S
C161 C159 1.397 . S
C161 C162 1.384 . S
C161 H184 0.930 . S
C162 C161 1.384 . S
C162 C163 1.377 . S
C162 C165 1.481 . S
C163 C162 1.377 . S
C163 C164 1.389 . S
C163 H185 0.929 . S
C164 C160 1.397 . S
C164 C163 1.389 . S
C164 H186 0.931 . S
C165 C162 1.481 . S
C165 C166 1.387 . S
C165 C170 1.390 . S
C166 C165 1.387 . S
C166 C167 1.401 . S
C166 H187 0.930 . S
C167 C166 1.401 . S
C167 C168 1.376 . S
C167 C176 1.511 . S
C168 C167 1.376 . S
C168 C169 1.392 . S
C168 H189 0.931 . S
C169 C168 1.392 . S
C169 C170 1.361 . S
C169 C171 1.500 . S
C170 C165 1.390 . S
C170 C169 1.361 . S
C170 H188 0.931 . S
C171 C169 1.500 . S
C171 C172 1.371 . S
C171 C173 1.365 . S
C172 C171 1.371 . S
C172 C182 1.386 . S
C172 H190 0.931 . S
C173 C171 1.365 . S
C173 C174 1.409 . S
C173 H191 0.929 . S
C174 C173 1.409 . S
C174 C175 1.380 . S
C174 H192 0.930 . S
C175 C174 1.380 . S
C175 C182 1.357 . S
C176 C167 1.511 . S
C176 C177 1.341 . S
C176 C178 1.371 . S
C177 C176 1.341 . S
C177 C181 1.394 . S
C177 H193 0.930 . S
C178 C176 1.371 . S
C178 C179 1.392 . S
C178 H194 0.931 . S
C179 C178 1.392 . S
C179 C180 1.331 . S
C179 H197 0.932 . S
C180 C179 1.331 . S
C180 C181 1.336 . S
C181 C177 1.394 . S
C181 C180 1.336 . S
C181 H196 0.929 . S
C182 C172 1.386 . S
C182 C175 1.357 . S
C182 H195 0.928 . S
H183 C159 0.931 . S
H184 C161 0.930 . S
H185 C163 0.929 . S
H186 C164 0.931 . S
H187 C166 0.930 . S
H188 C170 0.931 . S
H189 C168 0.931 . S
H190 C172 0.931 . S
H191 C173 0.929 . S
H192 C174 0.930 . S
H193 C177 0.930 . S
H194 C178 0.931 . S
H195 C182 0.928 . S
H196 C181 0.929 . S
H197 C179 0.932 . S
C198 C199 1.387 . S
C198 C200 1.397 . S
C198 H222 0.931 . S
C199 C198 1.387 . S
C199 C203 1.399 1_455 S
C200 C198 1.397 . S
C200 C201 1.384 . S
C200 H223 0.930 . S
C201 C200 1.384 . S
C201 C202 1.377 1_455 S
C201 C204 1.481 . S
C202 C201 1.377 1_655 S
C202 C203 1.389 . S
C202 H224 0.929 . S
C203 C199 1.399 1_655 S
C203 C202 1.389 . S
C203 H225 0.931 . S
C204 C201 1.481 . S
C204 C205 1.387 . S
C204 C209 1.390 1_455 S
C205 C204 1.387 . S
C205 C206 1.401 . S
C205 H226 0.930 . S
C206 C205 1.401 . S
C206 C207 1.376 . S
C206 C215 1.511 . S
C207 C206 1.376 . S
C207 C208 1.392 1_455 S
C207 H228 0.931 . S
C208 C207 1.392 1_655 S
C208 C209 1.361 . S
C208 C210 1.500 . S
C209 C204 1.390 1_655 S
C209 C208 1.361 . S
C209 H227 0.931 . S
C210 C208 1.500 . S
C210 C211 1.371 . S
C210 C212 1.365 . S
C211 C210 1.371 . S
C211 C221 1.386 . S
C211 H229 0.931 . S
C212 C210 1.365 . S
C212 C213 1.409 . S
C212 H230 0.929 . S
C213 C212 1.409 . S
C213 C214 1.380 . S
C213 H231 0.930 . S
C214 C213 1.380 . S
C214 C221 1.357 . S
C215 C206 1.511 . S
C215 C216 1.341 . S
C215 C217 1.371 . S
C216 C215 1.341 . S
C216 C220 1.394 . S
C216 H232 0.930 . S
C217 C215 1.371 . S
C217 C218 1.392 . S
C217 H233 0.931 . S
C218 C217 1.392 . S
C218 C219 1.331 . S
C218 H236 0.932 . S
C219 C218 1.331 . S
C219 C220 1.336 . S
C220 C216 1.394 . S
C220 C219 1.336 . S
C220 H235 0.929 . S
C221 C211 1.386 . S
C221 C214 1.357 . S
C221 H234 0.928 . S
H222 C198 0.931 . S
H223 C200 0.930 . S
H224 C202 0.929 . S
H225 C203 0.931 . S
H226 C205 0.930 . S
H227 C209 0.931 . S
H228 C207 0.931 . S
H229 C211 0.931 . S
H230 C212 0.929 . S
H231 C213 0.930 . S
H232 C216 0.930 . S
H233 C217 0.931 . S
H234 C221 0.928 . S
H235 C220 0.929 . S
H236 C218 0.932 . S
C237 C238 1.386 1_655 S
C237 C239 1.397 . S
C237 H261 0.931 . S
C238 C237 1.386 1_455 S
C238 C242 1.397 . S
C239 C237 1.397 . S
C239 C240 1.384 1_655 S
C239 H262 0.930 . S
C240 C239 1.384 1_455 S
C240 C241 1.377 . S
C240 C243 1.481 . S
C241 C240 1.377 . S
C241 C242 1.389 . S
C241 H263 0.929 . S
C242 C238 1.397 . S
C242 C241 1.389 . S
C242 H264 0.931 . S
C243 C240 1.481 . S
C243 C244 1.387 1_455 S
C243 C248 1.390 . S
C244 C243 1.387 1_655 S
C244 C245 1.401 . S
C244 H265 0.930 . S
C245 C244 1.401 . S
C245 C246 1.376 1_655 S
C245 C254 1.511 . S
C246 C245 1.376 1_455 S
C246 C247 1.392 . S
C246 H267 0.931 . S
C247 C246 1.392 . S
C247 C248 1.361 . S
C247 C249 1.500 . S
C248 C243 1.390 . S
C248 C247 1.361 . S
C248 H266 0.931 . S
C249 C247 1.500 . S
C249 C250 1.371 . S
C249 C251 1.365 . S
C250 C249 1.371 . S
C250 C260 1.386 . S
C250 H268 0.931 . S
C251 C249 1.365 . S
C251 C252 1.409 . S
C251 H269 0.929 . S
C252 C251 1.409 . S
C252 C253 1.380 . S
C252 H270 0.930 . S
C253 C252 1.380 . S
C253 C260 1.357 . S
C254 C245 1.511 . S
C254 C255 1.341 . S
C254 C256 1.371 . S
C255 C254 1.341 . S
C255 C259 1.394 . S
C255 H271 0.930 . S
C256 C254 1.371 . S
C256 C257 1.392 . S
C256 H272 0.931 . S
C257 C256 1.392 . S
C257 C258 1.331 . S
C257 H275 0.932 . S
C258 C257 1.331 . S
C258 C259 1.336 . S
C259 C255 1.394 . S
C259 C258 1.336 . S
C259 H274 0.929 . S
C260 C250 1.386 . S
C260 C253 1.357 . S
C260 H273 0.928 . S
H261 C237 0.931 . S
H262 C239 0.930 . S
H263 C241 0.929 . S
H264 C242 0.931 . S
H265 C244 0.930 . S
H266 C248 0.931 . S
H267 C246 0.931 . S
H268 C250 0.931 . S
H269 C251 0.929 . S
H270 C252 0.930 . S
H271 C255 0.930 . S
H272 C256 0.931 . S
H273 C260 0.928 . S
H274 C259 0.929 . S
H275 C257 0.932 . S
C276 C277 1.386 1_565 S
C276 C278 1.397 . S
C276 H300 0.931 . S
C277 C276 1.386 1_545 S
C277 C281 1.397 . S
C278 C276 1.397 . S
C278 C279 1.379 1_565 S
C278 H301 0.930 . S
C279 C278 1.379 1_545 S
C279 C280 1.382 . S
C279 C282 1.480 1_545 S
C280 C279 1.382 . S
C280 C281 1.389 . S
C280 H302 0.929 . S
C281 C277 1.397 . S
C281 C280 1.389 . S
C281 H303 0.931 . S
C282 C279 1.480 1_565 S
C282 C283 1.405 . S
C282 C287 1.372 1_565 S
C283 C282 1.405 . S
C283 C284 1.401 . S
C283 H304 0.930 . S
C284 C283 1.401 . S
C284 C285 1.376 . S
C284 C293 1.511 . S
C285 C284 1.376 . S
C285 C286 1.392 1_565 S
C285 H306 0.931 . S
C286 C285 1.392 1_545 S
C286 C287 1.361 . S
C286 C288 1.500 . S
C287 C282 1.372 1_545 S
C287 C286 1.361 . S
C287 H305 0.931 . S
C288 C286 1.500 . S
C288 C289 1.371 . S
C288 C290 1.365 . S
C289 C288 1.371 . S
C289 C299 1.386 . S
C289 H307 0.931 . S
C290 C288 1.365 . S
C290 C291 1.409 . S
C290 H308 0.929 . S
C291 C290 1.409 . S
C291 C292 1.380 . S
C291 H309 0.930 . S
C292 C291 1.380 . S
C292 C299 1.357 . S
C293 C284 1.511 . S
C293 C294 1.341 . S
C293 C295 1.371 . S
C294 C293 1.341 . S
C294 C298 1.394 . S
C294 H310 0.930 . S
C295 C293 1.371 . S
C295 C296 1.392 . S
C295 H311 0.931 . S
C296 C295 1.392 . S
C296 C297 1.331 . S
C296 H314 0.932 . S
C297 C296 1.331 . S
C297 C298 1.336 . S
C298 C294 1.394 . S
C298 C297 1.336 . S
C298 H313 0.929 . S
C299 C289 1.386 . S
C299 C292 1.357 . S
C299 H312 0.928 . S
H300 C276 0.931 . S
H301 C278 0.930 . S
H302 C280 0.929 . S
H303 C281 0.931 . S
H304 C283 0.930 . S
H305 C287 0.931 . S
H306 C285 0.931 . S
H307 C289 0.931 . S
H308 C290 0.929 . S
H309 C291 0.930 . S
H310 C294 0.930 . S
H311 C295 0.931 . S
H312 C299 0.928 . S
H313 C298 0.929 . S
H314 C296 0.932 . S
C315 C316 1.386 . S
C315 C317 1.397 1_556 S
C315 H339 0.931 . S
C316 C315 1.386 . S
C316 C320 1.397 . S
C317 C315 1.397 1_554 S
C317 C318 1.384 . S
C317 H340 0.930 . S
C318 C317 1.384 . S
C318 C319 1.377 . S
C318 C321 1.481 . S
C319 C318 1.377 . S
C319 C320 1.389 1_554 S
C319 H341 0.929 . S
C320 C316 1.397 . S
C320 C319 1.389 1_556 S
C320 H342 0.931 . S
C321 C318 1.481 . S
C321 C322 1.387 . S
C321 C326 1.390 . S
C322 C321 1.387 . S
C322 C323 1.401 . S
C322 H343 0.930 . S
C323 C322 1.401 . S
C323 C324 1.376 . S
C323 C332 1.511 . S
C324 C323 1.376 . S
C324 C325 1.392 . S
C324 H345 0.931 . S
C325 C324 1.392 . S
C325 C326 1.361 . S
C325 C327 1.500 . S
C326 C321 1.390 . S
C326 C325 1.361 . S
C326 H344 0.931 . S
C327 C325 1.500 . S
C327 C328 1.371 . S
C327 C329 1.365 . S
C328 C327 1.371 . S
C328 C338 1.386 . S
C328 H346 0.931 . S
C329 C327 1.365 . S
C329 C330 1.409 . S
C329 H347 0.929 . S
C330 C329 1.409 . S
C330 C331 1.380 . S
C330 H348 0.930 . S
C331 C330 1.380 . S
C331 C338 1.357 . S
C332 C323 1.511 . S
C332 C333 1.341 . S
C332 C334 1.371 . S
C333 C332 1.341 . S
C333 C337 1.394 . S
C333 H349 0.930 . S
C334 C332 1.371 . S
C334 C335 1.392 . S
C334 H350 0.931 . S
C335 C334 1.392 . S
C335 C336 1.331 . S
C335 H353 0.932 . S
C336 C335 1.331 . S
C336 C337 1.336 . S
C337 C333 1.394 . S
C337 C336 1.336 . S
C337 H352 0.929 . S
C338 C328 1.386 . S
C338 C331 1.357 . S
C338 H351 0.928 . S
H339 C315 0.931 . S
H340 C317 0.930 . S
H341 C319 0.929 . S
H342 C320 0.931 . S
H343 C322 0.930 . S
H344 C326 0.931 . S
H345 C324 0.931 . S
H346 C328 0.931 . S
H347 C329 0.929 . S
H348 C330 0.930 . S
H349 C333 0.930 . S
H350 C334 0.931 . S
H351 C338 0.928 . S
H352 C337 0.929 . S
H353 C335 0.932 . S
C354 C355 1.363 . S
C354 C360 1.379 . S
C354 N362 1.356 . S
C355 C354 1.363 . S
C355 C361 1.363 . S
C356 C357 1.363 . S
C356 C361 1.379 . S
C356 N363 1.356 . S
C357 C356 1.363 . S
C357 C360 1.363 . S
N358 C360 1.356 . S
N358 H370 0.984 . S
N358 H371 0.985 . S
N359 C361 1.356 . S
N359 H364 0.984 . S
N359 H365 0.985 . S
C360 C354 1.379 . S
C360 C357 1.363 . S
C360 N358 1.356 . S
C361 C355 1.363 . S
C361 C356 1.379 . S
C361 N359 1.356 . S
N362 C354 1.356 . S
N362 H368 0.984 . S
N362 H369 0.984 . S
N363 C356 1.356 . S
N363 H366 0.984 . S
N363 H367 0.985 . S
H364 N359 0.984 . S
H365 N359 0.985 . S
H366 N363 0.984 . S
H367 N363 0.985 . S
H368 N362 0.984 . S
H369 N362 0.984 . S
H370 N358 0.984 . S
H371 N358 0.985 . S
C372 C373 1.363 . S
C372 C378 1.379 . S
C372 N380 1.356 . S
C373 C372 1.363 . S
C373 C379 1.363 . S
C374 C375 1.363 . S
C374 C379 1.379 . S
C374 N381 1.356 . S
C375 C374 1.363 . S
C375 C378 1.363 . S
N376 C378 1.356 . S
N376 H388 0.984 . S
N376 H389 0.985 . S
N377 C379 1.356 . S
N377 H382 0.984 . S
N377 H383 0.985 . S
C378 C372 1.379 . S
C378 C375 1.363 . S
C378 N376 1.356 . S
C379 C373 1.363 . S
C379 C374 1.379 . S
C379 N377 1.356 . S
N380 C372 1.356 . S
N380 H386 0.984 . S
N380 H387 0.984 . S
N381 C374 1.356 . S
N381 H384 0.984 . S
N381 H385 0.985 . S
H382 N377 0.984 . S
H383 N377 0.985 . S
H384 N381 0.984 . S
H385 N381 0.985 . S
H386 N380 0.984 . S
H387 N380 0.984 . S
H388 N376 0.984 . S
H389 N376 0.985 . S
C390 C391 1.363 . S
C390 C396 1.379 . S
C390 N398 1.356 . S
C391 C390 1.363 . S
C391 C397 1.363 . S
C392 C393 1.363 . S
C392 C397 1.379 . S
C392 N399 1.356 . S
C393 C392 1.363 . S
C393 C396 1.363 . S
N394 C396 1.356 . S
N394 H406 0.984 . S
N394 H407 0.985 . S
N395 C397 1.356 . S
N395 H400 0.984 . S
N395 H401 0.985 . S
C396 C390 1.379 . S
C396 C393 1.363 . S
C396 N394 1.356 . S
C397 C391 1.363 . S
C397 C392 1.379 . S
C397 N395 1.356 . S
N398 C390 1.356 . S
N398 H404 0.984 . S
N398 H405 0.984 . S
N399 C392 1.356 . S
N399 H402 0.984 . S
N399 H403 0.985 . S
H400 N395 0.984 . S
H401 N395 0.985 . S
H402 N399 0.984 . S
H403 N399 0.985 . S
H404 N398 0.984 . S
H405 N398 0.984 . S
H406 N394 0.984 . S
H407 N394 0.985 . S
C408 C409 1.363 . S
C408 C414 1.379 . S
C408 N416 1.356 . S
C409 C408 1.363 . S
C409 C415 1.363 . S
C410 C411 1.363 . S
C410 C415 1.379 . S
C410 N417 1.356 . S
C411 C410 1.363 . S
C411 C414 1.363 . S
N412 C414 1.356 . S
N412 H424 0.984 . S
N412 H425 0.985 . S
N413 C415 1.356 . S
N413 H418 0.984 . S
N413 H419 0.985 . S
C414 C408 1.379 . S
C414 C411 1.363 . S
C414 N412 1.356 . S
C415 C409 1.363 . S
C415 C410 1.379 . S
C415 N413 1.356 . S
N416 C408 1.356 . S
N416 H422 0.984 . S
N416 H423 0.984 . S
N417 C410 1.356 . S
N417 H420 0.984 . S
N417 H421 0.985 . S
H418 N413 0.984 . S
H419 N413 0.985 . S
H420 N417 0.984 . S
H421 N417 0.985 . S
H422 N416 0.984 . S
H423 N416 0.984 . S
H424 N412 0.984 . S
H425 N412 0.985 . S
C426 C427 1.363 . S
C426 C432 1.379 . S
C426 N434 1.356 . S
C427 C426 1.363 . S
C427 C433 1.363 . S
C428 C429 1.363 . S
C428 C433 1.379 . S
C428 N435 1.356 . S
C429 C428 1.363 . S
C429 C432 1.363 . S
N430 C432 1.356 . S
N430 H442 0.984 . S
N430 H443 0.985 . S
N431 C433 1.356 . S
N431 H436 0.984 . S
N431 H437 0.985 . S
C432 C426 1.379 . S
C432 C429 1.363 . S
C432 N430 1.356 . S
C433 C427 1.363 . S
C433 C428 1.379 . S
C433 N431 1.356 . S
N434 C426 1.356 . S
N434 H440 0.984 . S
N434 H441 0.984 . S
N435 C428 1.356 . S
N435 H438 0.984 . S
N435 H439 0.985 . S
H436 N431 0.984 . S
H437 N431 0.985 . S
H438 N435 0.984 . S
H439 N435 0.985 . S
H440 N434 0.984 . S
H441 N434 0.984 . S
H442 N430 0.984 . S
H443 N430 0.985 . S
C444 C445 1.363 . S
C444 C450 1.379 . S
C444 N452 1.356 . S
C445 C444 1.363 . S
C445 C451 1.363 . S
C446 C447 1.363 . S
C446 C451 1.379 . S
C446 N453 1.356 . S
C447 C446 1.363 . S
C447 C450 1.363 . S
N448 C450 1.356 . S
N448 H460 0.984 . S
N448 H461 0.985 . S
N449 C451 1.356 . S
N449 H454 0.984 . S
N449 H455 0.985 . S
C450 C444 1.379 . S
C450 C447 1.363 . S
C450 N448 1.356 . S
C451 C445 1.363 . S
C451 C446 1.379 . S
C451 N449 1.356 . S
N452 C444 1.356 . S
N452 H458 0.984 . S
N452 H459 0.984 . S
N453 C446 1.356 . S
N453 H456 0.984 . S
N453 H457 0.985 . S
H454 N449 0.984 . S
H455 N449 0.985 . S
H456 N453 0.984 . S
H457 N453 0.985 . S
H458 N452 0.984 . S
H459 N452 0.984 . S
H460 N448 0.984 . S
H461 N448 0.985 . S
C462 C463 1.363 . S
C462 C468 1.379 . S
C462 N470 1.356 . S
C463 C462 1.363 . S
C463 C469 1.363 . S
C464 C465 1.363 . S
C464 C469 1.379 . S
C464 N471 1.356 . S
C465 C464 1.363 . S
C465 C468 1.363 . S
N466 C468 1.356 . S
N466 H478 0.984 . S
N466 H479 0.985 . S
N467 C469 1.356 . S
N467 H472 0.984 . S
N467 H473 0.985 . S
C468 C462 1.379 . S
C468 C465 1.363 . S
C468 N466 1.356 . S
C469 C463 1.363 . S
C469 C464 1.379 . S
C469 N467 1.356 . S
N470 C462 1.356 . S
N470 H476 0.984 . S
N470 H477 0.984 . S
N471 C464 1.356 . S
N471 H474 0.984 . S
N471 H475 0.985 . S
H472 N467 0.984 . S
H473 N467 0.985 . S
H474 N471 0.984 . S
H475 N471 0.985 . S
H476 N470 0.984 . S
H477 N470 0.984 . S
H478 N466 0.984 . S
H479 N466 0.985 . S
C480 C481 1.363 . S
C480 C486 1.379 . S
C480 N488 1.356 . S
C481 C480 1.363 . S
C481 C487 1.363 . S
C482 C483 1.363 . S
C482 C487 1.379 . S
C482 N489 1.356 . S
C483 C482 1.363 . S
C483 C486 1.363 . S
N484 C486 1.356 . S
N484 H496 0.984 . S
N484 H497 0.985 . S
N485 C487 1.356 . S
N485 H490 0.984 . S
N485 H491 0.985 . S
C486 C480 1.379 . S
C486 C483 1.363 . S
C486 N484 1.356 . S
C487 C481 1.363 . S
C487 C482 1.379 . S
C487 N485 1.356 . S
N488 C480 1.356 . S
N488 H494 0.984 . S
N488 H495 0.984 . S
N489 C482 1.356 . S
N489 H492 0.984 . S
N489 H493 0.985 . S
H490 N485 0.984 . S
H491 N485 0.985 . S
H492 N489 0.984 . S
H493 N489 0.985 . S
H494 N488 0.984 . S
H495 N488 0.984 . S
H496 N484 0.984 . S
H497 N484 0.985 . S
C498 C499 1.363 . S
C498 C504 1.379 . S
C498 N506 1.356 . S
C499 C498 1.363 . S
C499 C505 1.363 . S
C500 C501 1.363 . S
C500 C505 1.379 . S
C500 N507 1.356 . S
C501 C500 1.363 . S
C501 C504 1.363 . S
N502 C504 1.356 . S
N502 H514 0.984 . S
N502 H515 0.985 . S
N503 C505 1.356 . S
N503 H508 0.984 . S
N503 H509 0.985 . S
C504 C498 1.379 . S
C504 C501 1.363 . S
C504 N502 1.356 . S
C505 C499 1.363 . S
C505 C500 1.379 . S
C505 N503 1.356 . S
N506 C498 1.356 . S
N506 H512 0.984 . S
N506 H513 0.984 . S
N507 C500 1.356 . S
N507 H510 0.984 . S
N507 H511 0.985 . S
H508 N503 0.984 . S
H509 N503 0.985 . S
H510 N507 0.984 . S
H511 N507 0.985 . S
H512 N506 0.984 . S
H513 N506 0.984 . S
H514 N502 0.984 . S
H515 N502 0.985 . S
C516 C517 1.363 . S
C516 C522 1.379 . S
C516 N524 1.356 . S
C517 C516 1.363 . S
C517 C523 1.363 . S
C518 C519 1.363 . S
C518 C523 1.379 . S
C518 N525 1.356 . S
C519 C518 1.363 . S
C519 C522 1.363 . S
N520 C522 1.356 . S
N520 H532 0.984 . S
N520 H533 0.985 . S
N521 C523 1.356 . S
N521 H526 0.984 . S
N521 H527 0.985 . S
C522 C516 1.379 . S
C522 C519 1.363 . S
C522 N520 1.356 . S
C523 C517 1.363 . S
C523 C518 1.379 . S
C523 N521 1.356 . S
N524 C516 1.356 . S
N524 H530 0.984 . S
N524 H531 0.984 . S
N525 C518 1.356 . S
N525 H528 0.984 . S
N525 H529 0.985 . S
H526 N521 0.984 . S
H527 N521 0.985 . S
H528 N525 0.984 . S
H529 N525 0.985 . S
H530 N524 0.984 . S
H531 N524 0.984 . S
H532 N520 0.984 . S
H533 N520 0.985 . S
C534 C535 1.363 . S
C534 C540 1.379 . S
C534 N542 1.356 . S
C535 C534 1.363 . S
C535 C541 1.363 . S
C536 C537 1.363 . S
C536 C541 1.379 . S
C536 N543 1.356 . S
C537 C536 1.363 . S
C537 C540 1.363 . S
N538 C540 1.356 . S
N538 H550 0.984 . S
N538 H551 0.985 . S
N539 C541 1.356 . S
N539 H544 0.984 . S
N539 H545 0.985 . S
C540 C534 1.379 . S
C540 C537 1.363 . S
C540 N538 1.356 . S
C541 C535 1.363 . S
C541 C536 1.379 . S
C541 N539 1.356 . S
N542 C534 1.356 . S
N542 H548 0.984 . S
N542 H549 0.984 . S
N543 C536 1.356 . S
N543 H546 0.984 . S
N543 H547 0.985 . S
H544 N539 0.984 . S
H545 N539 0.985 . S
H546 N543 0.984 . S
H547 N543 0.985 . S
H548 N542 0.984 . S
H549 N542 0.984 . S
H550 N538 0.984 . S
H551 N538 0.985 . S
C552 C553 1.363 . S
C552 C558 1.379 . S
C552 N560 1.356 . S
C553 C552 1.363 . S
C553 C559 1.363 . S
C554 C555 1.363 . S
C554 C559 1.379 . S
C554 N561 1.356 . S
C555 C554 1.363 . S
C555 C558 1.363 . S
N556 C558 1.356 . S
N556 H568 0.984 . S
N556 H569 0.985 . S
N557 C559 1.356 . S
N557 H562 0.984 . S
N557 H563 0.985 . S
C558 C552 1.379 . S
C558 C555 1.363 . S
C558 N556 1.356 . S
C559 C553 1.363 . S
C559 C554 1.379 . S
C559 N557 1.356 . S
N560 C552 1.356 . S
N560 H566 0.984 . S
N560 H567 0.984 . S
N561 C554 1.356 . S
N561 H564 0.984 . S
N561 H565 0.985 . S
H562 N557 0.984 . S
H563 N557 0.985 . S
H564 N561 0.984 . S
H565 N561 0.985 . S
H566 N560 0.984 . S
H567 N560 0.984 . S
H568 N556 0.984 . S
H569 N556 0.985 . S
C570 C571 1.363 . S
C570 C576 1.379 . S
C570 N578 1.356 . S
C571 C570 1.363 . S
C571 C577 1.363 . S
C572 C573 1.363 . S
C572 C577 1.379 . S
C572 N579 1.356 . S
C573 C572 1.363 . S
C573 C576 1.363 . S
N574 C576 1.356 . S
N574 H586 0.984 . S
N574 H587 0.985 . S
N575 C577 1.356 . S
N575 H580 0.984 . S
N575 H581 0.985 . S
C576 C570 1.379 . S
C576 C573 1.363 . S
C576 N574 1.356 . S
C577 C571 1.363 . S
C577 C572 1.379 . S
C577 N575 1.356 . S
N578 C570 1.356 . S
N578 H584 0.984 . S
N578 H585 0.984 . S
N579 C572 1.356 . S
N579 H582 0.984 . S
N579 H583 0.985 . S
H580 N575 0.984 . S
H581 N575 0.985 . S
H582 N579 0.984 . S
H583 N579 0.985 . S
H584 N578 0.984 . S
H585 N578 0.984 . S
H586 N574 0.984 . S
H587 N574 0.985 . S
C588 C589 1.363 . S
C588 C594 1.379 . S
C588 N596 1.356 . S
C589 C588 1.363 . S
C589 C595 1.363 . S
C590 C591 1.363 . S
C590 C595 1.379 . S
C590 N597 1.356 1_545 S
C591 C590 1.363 . S
C591 C594 1.363 . S
N592 C594 1.356 . S
N592 H604 0.984 . S
N592 H605 0.985 . S
N593 C595 1.356 1_565 S
N593 H598 0.984 . S
N593 H599 0.985 . S
C594 C588 1.379 . S
C594 C591 1.363 . S
C594 N592 1.356 . S
C595 C589 1.363 . S
C595 C590 1.379 . S
C595 N593 1.356 1_545 S
N596 C588 1.356 . S
N596 H602 0.984 . S
N596 H603 0.984 . S
N597 C590 1.356 1_565 S
N597 H600 0.984 . S
N597 H601 0.985 . S
H598 N593 0.984 . S
H599 N593 0.985 . S
H600 N597 0.984 . S
H601 N597 0.985 . S
H602 N596 0.984 . S
H603 N596 0.984 . S
H604 N592 0.984 . S
H605 N592 0.985 . S
C606 C607 1.363 . S
C606 C612 1.379 . S
C606 N614 1.356 . S
C607 C606 1.363 . S
C607 C613 1.363 . S
C608 C609 1.363 . S
C608 C613 1.379 . S
C608 N615 1.356 . S
C609 C608 1.363 . S
C609 C612 1.363 . S
N610 C612 1.356 . S
N610 H622 0.984 . S
N610 H623 0.985 . S
N611 C613 1.356 . S
N611 H616 0.984 . S
N611 H617 0.985 . S
C612 C606 1.379 . S
C612 C609 1.363 . S
C612 N610 1.356 . S
C613 C607 1.363 . S
C613 C608 1.379 . S
C613 N611 1.356 . S
N614 C606 1.356 . S
N614 H620 0.984 . S
N614 H621 0.984 . S
N615 C608 1.356 . S
N615 H618 0.984 . S
N615 H619 0.985 . S
H616 N611 0.984 . S
H617 N611 0.985 . S
H618 N615 0.984 . S
H619 N615 0.985 . S
H620 N614 0.984 . S
H621 N614 0.984 . S
H622 N610 0.984 . S
H623 N610 0.985 . S
C624 C625 1.363 1_565 S
C624 C630 1.379 . S
C624 N632 1.356 . S
C625 C624 1.363 1_545 S
C625 C631 1.363 . S
C626 C627 1.363 . S
C626 C631 1.379 . S
C626 N633 1.356 . S
C627 C626 1.363 . S
C627 C630 1.363 1_545 S
N628 C630 1.356 . S
N628 H640 0.984 . S
N628 H641 0.985 . S
N629 C631 1.356 . S
N629 H634 0.984 . S
N629 H635 0.985 . S
C630 C624 1.379 . S
C630 C627 1.363 1_565 S
C630 N628 1.356 . S
C631 C625 1.363 . S
C631 C626 1.379 . S
C631 N629 1.356 . S
N632 C624 1.356 . S
N632 H638 0.984 . S
N632 H639 0.984 . S
N633 C626 1.356 . S
N633 H636 0.984 . S
N633 H637 0.985 . S
H634 N629 0.984 . S
H635 N629 0.985 . S
H636 N633 0.984 . S
H637 N633 0.985 . S
H638 N632 0.984 . S
H639 N632 0.984 . S
H640 N628 0.984 . S
H641 N628 0.985 . S
C642 C643 1.363 . S
C642 C648 1.379 . S
C642 N650 1.356 . S
C643 C642 1.363 . S
C643 C649 1.363 . S
C644 C645 1.363 . S
C644 C649 1.379 . S
C644 N651 1.356 . S
C645 C644 1.363 . S
C645 C648 1.363 . S
N646 C648 1.356 . S
N646 H658 0.984 . S
N646 H659 0.985 . S
N647 C649 1.356 . S
N647 H652 0.984 . S
N647 H653 0.985 . S
C648 C642 1.379 . S
C648 C645 1.363 . S
C648 N646 1.356 . S
C649 C643 1.363 . S
C649 C644 1.379 . S
C649 N647 1.356 . S
N650 C642 1.356 . S
N650 H656 0.984 . S
N650 H657 0.984 . S
N651 C644 1.356 . S
N651 H654 0.984 . S
N651 H655 0.985 . S
H652 N647 0.984 . S
H653 N647 0.985 . S
H654 N651 0.984 . S
H655 N651 0.985 . S
H656 N650 0.984 . S
H657 N650 0.984 . S
H658 N646 0.984 . S
H659 N646 0.985 . S
C660 C661 1.363 . S
C660 C666 1.379 . S
C660 N668 1.356 . S
C661 C660 1.363 . S
C661 C667 1.363 1_455 S
C662 C663 1.363 1_655 S
C662 C667 1.379 . S
C662 N669 1.356 . S
C663 C662 1.363 1_455 S
C663 C666 1.363 . S
N664 C666 1.356 . S
N664 H676 0.984 . S
N664 H677 0.985 . S
N665 C667 1.356 . S
N665 H670 0.984 . S
N665 H671 0.985 . S
C666 C660 1.379 . S
C666 C663 1.363 . S
C666 N664 1.356 . S
C667 C661 1.363 1_655 S
C667 C662 1.379 . S
C667 N665 1.356 . S
N668 C660 1.356 . S
N668 H674 0.984 . S
N668 H675 0.984 . S
N669 C662 1.356 . S
N669 H672 0.984 . S
N669 H673 0.985 . S
H670 N665 0.984 . S
H671 N665 0.985 . S
H672 N669 0.984 . S
H673 N669 0.985 . S
H674 N668 0.984 . S
H675 N668 0.984 . S
H676 N664 0.984 . S
H677 N664 0.985 . S
C355 C9 0.743 . S
C357 C331 0.741 . S
C373 C49 0.509 . S
C375 C258 0.448 . S
C391 C89 0.514 . S
C393 C297 0.479 . S
C409 C26 0.648 . S
C411 C336 0.590 . S
C429 C253 0.691 . S
C427 C66 0.718 . S
C447 C292 0.764 . S
C445 C106 0.757 . S
C463 C43 3.066 . S
C465 C180 2.998 . S
C481 C83 3.193 . S
C483 C214 3.109 . S
C499 C22 3.233 . S
C501 C136 3.143 . S
C519 C175 3.144 . S
C517 C62 3.231 . S
C537 C219 3.029 . S
C535 C102 3.101 . S
C553 C3 3.064 . S
C555 C141 3.003 . S
C573 C199 1.809 1_554 S
C571 C15 1.744 . S
C589 C55 1.763 . S
C591 C121 1.811 . S
C607 C95 1.757 . S
C609 C160 1.806 . S
C627 C277 1.054 . S
C625 C42 1.057 . S
C645 C316 1.063 . S
C643 C82 1.068 . S
C661 C2 1.044 . S
C663 C238 1.042 . S
