# Generated by pormake.
# Topology dag, (6,3)-cn, num edge types: 1
# Building blocks:
#     Node 0, Type 0, BuildingBlock: IZENUY_clean_sbu_0, # of connection points: 6
#     Node 1, Type 0, BuildingBlock: IZENUY_clean_sbu_0, # of connection points: 6
#     Node 2, Type 0, BuildingBlock: IZENUY_clean_sbu_0, # of connection points: 6
#     Node 3, Type 0, BuildingBlock: IZENUY_clean_sbu_0, # of connection points: 6
#     Node 4, Type 1, BuildingBlock: CUQRIR_clean_linker_1, # of connection points: 3
#     Node 5, Type 1, BuildingBlock: CUQRIR_clean_linker_1, # of connection points: 3
#     Node 6, Type 1, BuildingBlock: CUQRIR_clean_linker_1, # of connection points: 3
#     Node 7, Type 1, BuildingBlock: CUQRIR_clean_linker_1, # of connection points: 3
#     Node 8, Type 1, BuildingBlock: CUQRIR_clean_linker_1, # of connection points: 3
#     Node 9, Type 1, BuildingBlock: CUQRIR_clean_linker_1, # of connection points: 3
#     Node 10, Type 1, BuildingBlock: CUQRIR_clean_linker_1, # of connection points: 3
#     Node 11, Type 1, BuildingBlock: CUQRIR_clean_linker_1, # of connection points: 3
#     Edge 12, Type (0, 1), BuildingBlock: XUDNAN_clean_linker_2, # of connection points: 2
#     Edge 13, Type (0, 1), BuildingBlock: XUDNAN_clean_linker_2, # of connection points: 2
#     Edge 14, Type (0, 1), BuildingBlock: XUDNAN_clean_linker_2, # of connection points: 2
#     Edge 15, Type (0, 1), BuildingBlock: XUDNAN_clean_linker_2, # of connection points: 2
#     Edge 16, Type (0, 1), BuildingBlock: XUDNAN_clean_linker_2, # of connection points: 2
#     Edge 17, Type (0, 1), BuildingBlock: XUDNAN_clean_linker_2, # of connection points: 2
#     Edge 18, Type (0, 1), BuildingBlock: XUDNAN_clean_linker_2, # of connection points: 2
#     Edge 19, Type (0, 1), BuildingBlock: XUDNAN_clean_linker_2, # of connection points: 2
#     Edge 20, Type (0, 1), BuildingBlock: XUDNAN_clean_linker_2, # of connection points: 2
#     Edge 21, Type (0, 1), BuildingBlock: XUDNAN_clean_linker_2, # of connection points: 2
#     Edge 22, Type (0, 1), BuildingBlock: XUDNAN_clean_linker_2, # of connection points: 2
#     Edge 23, Type (0, 1), BuildingBlock: XUDNAN_clean_linker_2, # of connection points: 2
#     Edge 24, Type (0, 1), BuildingBlock: XUDNAN_clean_linker_2, # of connection points: 2
#     Edge 25, Type (0, 1), BuildingBlock: XUDNAN_clean_linker_2, # of connection points: 2
#     Edge 26, Type (0, 1), BuildingBlock: XUDNAN_clean_linker_2, # of connection points: 2
#     Edge 27, Type (0, 1), BuildingBlock: XUDNAN_clean_linker_2, # of connection points: 2
#     Edge 28, Type (0, 1), BuildingBlock: XUDNAN_clean_linker_2, # of connection points: 2
#     Edge 29, Type (0, 1), BuildingBlock: XUDNAN_clean_linker_2, # of connection points: 2
#     Edge 30, Type (0, 1), BuildingBlock: XUDNAN_clean_linker_2, # of connection points: 2
#     Edge 31, Type (0, 1), BuildingBlock: XUDNAN_clean_linker_2, # of connection points: 2
#     Edge 32, Type (0, 1), BuildingBlock: XUDNAN_clean_linker_2, # of connection points: 2
#     Edge 33, Type (0, 1), BuildingBlock: XUDNAN_clean_linker_2, # of connection points: 2
#     Edge 34, Type (0, 1), BuildingBlock: XUDNAN_clean_linker_2, # of connection points: 2
#     Edge 35, Type (0, 1), BuildingBlock: XUDNAN_clean_linker_2, # of connection points: 2
# Relax obj value: 0.081
# Max RMSD: 0.077
# Mean RMSD: 0.071
data_MOF--net-dag--node1-IZENUY_clean_sbu_0--node2-CUQRIR_clean_linker_1--edge1-XUDNAN_clean_linker_2
_symmetry_space_group_name_H-M    P1
_symmetry_Int_Tables_number       1
_symmetry_cell_setting            triclinic
loop_
_symmetry_equiv_pos_as_xyz
'x, y, z'
_cell_length_a     36.919435
_cell_length_b     37.491712
_cell_length_c     33.435426
_cell_angle_alpha  91.969068
_cell_angle_beta   89.980044
_cell_angle_gamma 90.008659
loop_
_atom_site_label
_atom_site_type_symbol
_atom_site_fract_x
_atom_site_fract_y
_atom_site_fract_z
_atom_type_partial_charge
Fe0 Fe 0.17629 0.892 0.03186 0.0
Fe1 Fe 0.09737 0.91617 0.02908 0.0
O2 O 0.12962 0.88132 0.02938 0.0
Fe3 Fe 0.11566 0.83608 0.02664 0.0
O4 O 0.15252 0.82055 0.05951 0.0
O5 O 0.18056 0.87014 0.07873 0.0
O6 O 0.16984 0.93381 0.06114 0.0
C7 C 0.14438 0.94391 0.08422 0.0
C8 C 0.17511 0.83279 0.97794 0.0
O9 O 0.11235 0.93349 0.07772 0.0
C10 C 0.06974 0.86992 0.97154 0.0
O11 O 0.17412 0.91477 0.98487 0.0
O12 O 0.12677 0.94727 0.0024 0.0
O13 O 0.14162 0.82767 0.98131 0.0
O14 O 0.19197 0.8521 0.00339 0.0
C15 C 0.06302 0.86382 0.0759 0.0
O16 O 0.08081 0.90101 0.9805 0.0
O17 O 0.07659 0.84399 0.99372 0.0
C18 C 0.15371 0.94121 0.97958 0.0
O19 O 0.06193 0.89145 0.05518 0.0
O20 O 0.08803 0.84119 0.07121 0.0
C21 C 0.17226 0.8381 0.08443 0.0
Fe22 Fe 0.67639 0.61644 0.50271 0.0
Fe23 Fe 0.60967 0.66533 0.51298 0.0
O24 O 0.629 0.62186 0.51057 0.0
Fe25 Fe 0.60142 0.58362 0.51585 0.0
O26 O 0.62726 0.56914 0.55862 0.0
O27 O 0.68021 0.57511 0.53019 0.0
O28 O 0.68631 0.64069 0.54889 0.0
C29 C 0.67467 0.67148 0.55809 0.0
C30 C 0.65005 0.56342 0.45331 0.0
O31 O 0.64905 0.68572 0.53893 0.0
C32 C 0.55819 0.6241 0.46806 0.0
O33 O 0.68222 0.65678 0.47374 0.0
O34 O 0.62684 0.67533 0.46362 0.0
O35 O 0.62784 0.55565 0.48055 0.0
O36 O 0.66911 0.59139 0.45602 0.0
C37 C 0.57207 0.63326 0.57302 0.0
O38 O 0.56688 0.65213 0.48812 0.0
O39 O 0.57383 0.59486 0.4736 0.0
C40 C 0.6598 0.6745 0.45393 0.0
O41 O 0.59091 0.65921 0.56228 0.0
O42 O 0.56997 0.60474 0.55185 0.0
C43 C 0.66053 0.56184 0.55682 0.0
Fe44 Fe 0.88695 0.17049 0.00525 0.0
Fe45 Fe 0.91303 0.09365 0.01652 0.0
O46 O 0.87767 0.12413 0.00679 0.0
Fe47 Fe 0.83304 0.10838 0.99834 0.0
O48 O 0.83201 0.12672 0.94879 0.0
O49 O 0.85184 0.17979 0.96797 0.0
O50 O 0.91826 0.16334 0.9638 0.0
C51 C 0.94459 0.14188 0.96408 0.0
C52 C 0.82275 0.17193 0.04536 0.0
O53 O 0.94782 0.11916 0.99095 0.0
C54 C 0.85381 0.06674 0.0598 0.0
O55 O 0.92401 0.16981 0.04176 0.0
O56 O 0.92282 0.11563 0.06466 0.0
O57 O 0.81124 0.14807 0.02083 0.0
O58 O 0.85592 0.18027 0.04659 0.0
C59 C 0.87625 0.05747 0.95702 0.0
O60 O 0.88431 0.06239 0.04317 0.0
O61 O 0.83118 0.08898 0.04738 0.0
C62 C 0.93209 0.14796 0.06838 0.0
O63 O 0.90606 0.0699 0.96915 0.0
O64 O 0.84678 0.06601 0.97398 0.0
C65 C 0.83657 0.15933 0.9422 0.0
Fe66 Fe 0.40885 0.40837 0.5149 0.0
Fe67 Fe 0.33015 0.39526 0.5393 0.0
O68 O 0.37355 0.3786 0.52677 0.0
Fe69 Fe 0.38171 0.33204 0.52633 0.0
O70 O 0.4155 0.33795 0.56515 0.0
O71 O 0.44512 0.38111 0.53635 0.0
O72 O 0.40584 0.43162 0.5631 0.0
C73 C 0.37731 0.44607 0.57645 0.0
C74 C 0.42238 0.3552 0.45991 0.0
O75 O 0.34661 0.43729 0.56249 0.0
C76 C 0.31469 0.33235 0.49255 0.0
O77 O 0.37895 0.44092 0.49175 0.0
O78 O 0.32537 0.41514 0.49079 0.0
O79 O 0.4164 0.33258 0.48644 0.0
O80 O 0.41409 0.38748 0.46576 0.0
C81 C 0.33664 0.34359 0.59411 0.0
O82 O 0.30582 0.35628 0.51841 0.0
O83 O 0.34753 0.32356 0.48775 0.0
C84 C 0.34729 0.4377 0.47754 0.0
O85 O 0.33239 0.37642 0.58846 0.0
O86 O 0.34919 0.32308 0.56653 0.0
C87 C 0.44292 0.35778 0.56277 0.0
C88 C 0.12007 0.19026 0.30909 0.0
N89 N 0.11321 0.16439 0.28083 0.0
N90 N 0.1497 0.18193 0.33086 0.0
C91 C 0.10006 0.22518 0.31308 0.0
C92 C 0.16066 0.15018 0.31456 0.0
N93 N 0.13864 0.13962 0.28411 0.0
C94 C 0.19301 0.12947 0.32817 0.0
H95 H 0.08219 0.22968 0.2871 0.0
H96 H 0.11958 0.24758 0.31654 0.0
H97 H 0.083 0.22511 0.34039 0.0
H98 H 0.1985 0.13515 0.36039 0.0
H99 H 0.21712 0.1373 0.31071 0.0
H100 H 0.18859 0.1004 0.32291 0.0
C101 C 0.32743 0.66987 0.77077 0.0
N102 N 0.35812 0.65654 0.7542 0.0
N103 N 0.33482 0.69926 0.79421 0.0
C104 C 0.2902 0.65477 0.76306 0.0
C105 C 0.37131 0.70308 0.79131 0.0
N106 N 0.38538 0.67698 0.76705 0.0
C107 C 0.39281 0.73277 0.81112 0.0
H108 H 0.27919 0.6661 0.73537 0.0
H109 H 0.27163 0.66148 0.7883 0.0
H110 H 0.29119 0.62538 0.75853 0.0
H111 H 0.39795 0.72616 0.8427 0.0
H112 H 0.37729 0.75811 0.81106 0.0
H113 H 0.4193 0.73644 0.79619 0.0
C114 C 0.79066 0.85841 0.25999 0.0
N115 N 0.81818 0.86788 0.23573 0.0
N116 N 0.794 0.82385 0.27005 0.0
C117 C 0.75924 0.88214 0.27166 0.0
C118 C 0.82459 0.81264 0.25095 0.0
N119 N 0.83916 0.83936 0.22975 0.0
C120 C 0.83934 0.77522 0.25173 0.0
H121 H 0.74377 0.87143 0.29702 0.0
H122 H 0.74094 0.88429 0.24553 0.0
H123 H 0.76866 0.90937 0.28023 0.0
H124 H 0.82584 0.75865 0.22798 0.0
H125 H 0.8339 0.76283 0.28068 0.0
H126 H 0.86897 0.77487 0.24629 0.0
C127 C 0.72342 0.33045 0.72758 0.0
N128 N 0.69606 0.34704 0.70855 0.0
N129 N 0.71103 0.30102 0.74557 0.0
C130 C 0.76223 0.34271 0.72841 0.0
C131 C 0.67518 0.30038 0.73712 0.0
N132 N 0.66603 0.32846 0.71482 0.0
C133 C 0.64904 0.2724 0.75062 0.0
H134 H 0.77682 0.32987 0.70273 0.0
H135 H 0.77601 0.33492 0.75622 0.0
H136 H 0.76397 0.37209 0.72592 0.0
H137 H 0.63448 0.28286 0.77757 0.0
H138 H 0.66296 0.24747 0.75856 0.0
H139 H 0.62869 0.26629 0.72694 0.0
C140 C 0.63711 0.29972 0.25363 0.0
N141 N 0.63007 0.32521 0.28217 0.0
N142 N 0.66994 0.30511 0.23681 0.0
C143 C 0.61232 0.26895 0.24322 0.0
C144 C 0.68253 0.335 0.25596 0.0
N145 N 0.65846 0.34708 0.28396 0.0
C146 C 0.71594 0.35488 0.24349 0.0
H147 H 0.59623 0.26151 0.26971 0.0
H148 H 0.62793 0.24542 0.23189 0.0
H149 H 0.59321 0.27702 0.21958 0.0
H150 H 0.72135 0.35038 0.21107 0.0
H151 H 0.73962 0.34503 0.26029 0.0
H152 H 0.71307 0.38398 0.24982 0.0
C153 C 0.17945 0.20225 0.79929 0.0
N154 N 0.1686 0.17252 0.81764 0.0
N155 N 0.2154 0.20082 0.79152 0.0
C156 C 0.15452 0.23143 0.7863 0.0
C157 C 0.22603 0.16902 0.80564 0.0
N158 N 0.1975 0.15174 0.82163 0.0
C159 C 0.26462 0.15625 0.80626 0.0
H160 H 0.12674 0.22108 0.78086 0.0
H161 H 0.1647 0.2436 0.75868 0.0
H162 H 0.15321 0.25251 0.81036 0.0
H163 H 0.2837 0.17914 0.80697 0.0
H164 H 0.26997 0.13979 0.77869 0.0
H165 H 0.26963 0.13967 0.83255 0.0
C166 C 0.28444 0.65992 0.2913 0.0
N167 N 0.31102 0.64226 0.31038 0.0
N168 N 0.29759 0.69023 0.2758 0.0
C169 C 0.24512 0.64942 0.29075 0.0
C170 C 0.33304 0.69052 0.28629 0.0
N171 N 0.3412 0.6614 0.30725 0.0
C172 C 0.36007 0.71817 0.27424 0.0
H173 H 0.23981 0.63219 0.26375 0.0
H174 H 0.22747 0.6733 0.28943 0.0
H175 H 0.23801 0.63434 0.31763 0.0
H176 H 0.35191 0.73039 0.24587 0.0
H177 H 0.38746 0.7063 0.27066 0.0
H178 H 0.36144 0.73947 0.29806 0.0
C179 C 0.82431 0.83567 0.75958 0.0
N180 N 0.85419 0.84917 0.77788 0.0
N181 N 0.82947 0.80087 0.74873 0.0
C182 C 0.7904 0.85673 0.75191 0.0
C183 C 0.86363 0.79374 0.76109 0.0
N184 N 0.87857 0.82314 0.77896 0.0
C185 C 0.88214 0.75815 0.75665 0.0
H186 H 0.78435 0.87505 0.77783 0.0
H187 H 0.76657 0.83955 0.74575 0.0
H188 H 0.79479 0.87312 0.72534 0.0
H189 H 0.86891 0.7406 0.73365 0.0
H190 H 0.88101 0.74479 0.78571 0.0
H191 H 0.91109 0.76185 0.74886 0.0
H192 H 0.10176 0.96526 0.14826 0.0
H193 H 0.203 0.98808 0.08803 0.0
H194 H 0.21345 0.0391 0.13485 0.0
H195 H 0.07354 0.05346 0.16709 0.0
H196 H 0.05571 0.0455 0.21633 0.0
H197 H 0.05741 0.0097 0.17922 0.0
H198 H 0.09411 0.97239 0.2291 0.0
H199 H 0.09258 0.00888 0.26561 0.0
H200 H 0.13556 0.99031 0.25004 0.0
H201 H 0.21098 0.09006 0.18419 0.0
H202 H 0.19665 0.13681 0.23591 0.0
H203 H 0.09795 0.08128 0.26539 0.0
C204 C 0.12628 0.98081 0.14522 0.0
C205 C 0.15147 0.97276 0.11441 0.0
C206 C 0.18334 0.99361 0.11149 0.0
C207 C 0.18955 0.0227 0.13792 0.0
C208 C 0.16395 0.03027 0.16753 0.0
C209 C 0.13322 0.0097 0.17178 0.0
C210 C 0.10984 0.02409 0.2059 0.0
C211 C 0.07186 0.03378 0.19116 0.0
C212 C 0.10793 0.99732 0.23966 0.0
C213 C 0.13128 0.05701 0.21872 0.0
C214 C 0.16271 0.05967 0.19653 0.0
C215 C 0.18671 0.08807 0.20212 0.0
C216 C 0.17845 0.11439 0.23138 0.0
C217 C 0.14651 0.11215 0.25441 0.0
C218 C 0.12255 0.08325 0.24798 0.0
H219 H 0.53383 0.6913 0.60144 0.0
H220 H 0.56155 0.58221 0.62758 0.0
H221 H 0.52439 0.58658 0.68912 0.0
H222 H 0.52699 0.72788 0.70547 0.0
H223 H 0.48767 0.75435 0.69462 0.0
H224 H 0.52087 0.74487 0.65614 0.0
H225 H 0.47089 0.7177 0.60975 0.0
H226 H 0.43765 0.7277 0.64779 0.0
H227 H 0.44245 0.68265 0.62791 0.0
H228 H 0.48027 0.60053 0.74366 0.0
H229 H 0.42626 0.6202 0.78224 0.0
H230 H 0.42475 0.71916 0.71984 0.0
C231 C 0.53266 0.6687 0.62072 0.0
C232 C 0.55083 0.63658 0.61029 0.0
C233 C 0.54785 0.60706 0.63531 0.0
C234 C 0.52711 0.60943 0.67043 0.0
C235 C 0.50926 0.6414 0.67985 0.0
C236 C 0.51138 0.67036 0.65543 0.0
C237 C 0.48568 0.69977 0.66937 0.0
C238 C 0.50656 0.73373 0.68216 0.0
C239 C 0.45751 0.70738 0.63678 0.0
C240 C 0.46836 0.68265 0.70506 0.0
C241 C 0.48294 0.64925 0.71105 0.0
C242 C 0.46919 0.62691 0.73984 0.0
C243 C 0.43881 0.63833 0.76185 0.0
C244 C 0.42232 0.6715 0.75467 0.0
C245 C 0.43802 0.69444 0.72697 0.0
H246 H 0.83757 0.99615 0.05244 0.0
H247 H 0.84948 0.08393 0.13905 0.0
H248 H 0.84054 0.04225 0.19428 0.0
H249 H 0.76653 0.94897 0.10915 0.0
H250 H 0.78348 0.90563 0.09344 0.0
H251 H 0.78861 0.94291 0.0613 0.0
H252 H 0.85699 0.9307 0.05825 0.0
H253 H 0.85359 0.89466 0.09233 0.0
H254 H 0.88318 0.93188 0.1036 0.0
H255 H 0.83565 0.99025 0.23957 0.0
H256 H 0.82948 0.93211 0.27213 0.0
H257 H 0.8173 0.87869 0.15617 0.0
C258 C 0.83752 0.00651 0.08309 0.0
C259 C 0.84382 0.04302 0.09194 0.0
C260 C 0.84416 0.05598 0.13209 0.0
C261 C 0.83929 0.03253 0.16347 0.0
C262 C 0.83362 0.99643 0.1539 0.0
C263 C 0.83198 0.98358 0.11467 0.0
C264 C 0.82562 0.94361 0.11252 0.0
C265 C 0.78887 0.93477 0.09296 0.0
C266 C 0.85669 0.92404 0.09038 0.0
C267 C 0.82529 0.93578 0.15666 0.0
C268 C 0.82982 0.96664 0.18001 0.0
C269 C 0.83143 0.96603 0.22163 0.0
C270 C 0.82777 0.9331 0.23986 0.0
C271 C 0.82224 0.90143 0.21655 0.0
C272 C 0.82123 0.90277 0.17446 0.0
H273 H 0.51562 0.35229 0.54689 0.0
H274 H 0.43662 0.35403 0.64293 0.0
H275 H 0.48595 0.3499 0.69258 0.0
H276 H 0.57384 0.28604 0.59278 0.0
H277 H 0.61492 0.30547 0.57414 0.0
H278 H 0.57327 0.30947 0.5466 0.0
H279 H 0.5829 0.37667 0.54756 0.0
H280 H 0.62247 0.37572 0.5791 0.0
H281 H 0.58341 0.40183 0.5942 0.0
H282 H 0.54316 0.34709 0.73157 0.0
H283 H 0.60521 0.33913 0.75778 0.0
H284 H 0.64735 0.3347 0.63687 0.0
C285 C 0.50893 0.35183 0.57842 0.0
C286 C 0.4726 0.3538 0.59145 0.0
C287 C 0.46445 0.35254 0.63268 0.0
C288 C 0.49222 0.35036 0.66099 0.0
C289 C 0.52785 0.34866 0.64736 0.0
C290 C 0.5363 0.34852 0.60706 0.0
C291 C 0.57674 0.34433 0.60047 0.0
C292 C 0.58518 0.30923 0.57713 0.0
C293 C 0.59238 0.37655 0.5791 0.0
C294 C 0.58972 0.34306 0.64346 0.0
C295 C 0.56099 0.34572 0.66994 0.0
C296 C 0.56587 0.3447 0.71119 0.0
C297 C 0.60101 0.34003 0.7258 0.0
C298 C 0.63062 0.33602 0.69927 0.0
C299 C 0.62499 0.33799 0.65763 0.0
H300 H 0.60486 0.52799 0.40133 0.0
H301 H 0.71623 0.53383 0.44194 0.0
H302 H 0.7302 0.4781 0.40313 0.0
H303 H 0.59413 0.43585 0.40381 0.0
H304 H 0.5681 0.43015 0.35844 0.0
H305 H 0.56628 0.47181 0.38689 0.0
H306 H 0.58644 0.50698 0.32556 0.0
H307 H 0.58683 0.46586 0.29603 0.0
H308 H 0.62677 0.49353 0.2986 0.0
H309 H 0.72927 0.41777 0.36877 0.0
H310 H 0.71765 0.36267 0.32823 0.0
H311 H 0.60978 0.40061 0.30105 0.0
C312 C 0.63237 0.51793 0.40099 0.0
C313 C 0.65969 0.53507 0.42401 0.0
C314 C 0.69528 0.52121 0.42371 0.0
C315 C 0.70329 0.48948 0.40217 0.0
C316 C 0.67554 0.4726 0.38053 0.0
C317 C 0.64109 0.48687 0.37867 0.0
C318 C 0.61642 0.46357 0.35263 0.0
C319 C 0.58432 0.44952 0.37689 0.0
C320 C 0.60336 0.48368 0.31602 0.0
C321 C 0.64227 0.4337 0.34072 0.0
C322 C 0.67594 0.43909 0.35791 0.0
C323 C 0.70339 0.4138 0.35408 0.0
C324 C 0.6966 0.38269 0.33098 0.0
C325 C 0.66314 0.37763 0.31089 0.0
C326 C 0.63553 0.40344 0.31619 0.0
H327 H 0.99326 0.19547 0.95304 0.0
H328 H 0.96076 0.09032 0.9089 0.0
H329 H 0.01251 0.08883 0.86176 0.0
H330 H 0.02897 0.22914 0.85856 0.0
H331 H 0.06674 0.25137 0.8828 0.0
H332 H 0.02477 0.24604 0.90949 0.0
H333 H 0.0591 0.21447 0.96602 0.0
H334 H 0.10108 0.21977 0.9395 0.0
H335 H 0.08671 0.176 0.95357 0.0
H336 H 0.06952 0.09717 0.82271 0.0
H337 H 0.12965 0.11403 0.79615 0.0
H338 H 0.12685 0.21209 0.8682 0.0
C339 C 0.99665 0.17269 0.93256 0.0
C340 C 0.97294 0.14333 0.93358 0.0
C341 C 0.97862 0.11321 0.90777 0.0
C342 C 0.00781 0.11217 0.88101 0.0
C343 C 0.03118 0.14133 0.88092 0.0
C344 C 0.02608 0.17097 0.90613 0.0
C345 C 0.05702 0.19719 0.90272 0.0
C346 C 0.04356 0.23306 0.88748 0.0
C347 C 0.07716 0.20213 0.94283 0.0
C348 C 0.08024 0.17768 0.87174 0.0
C349 C 0.06472 0.14564 0.85931 0.0
C350 C 0.0818 0.12233 0.83193 0.0
C351 C 0.1158 0.13198 0.8171 0.0
C352 C 0.13237 0.1643 0.83015 0.0
C353 C 0.11421 0.18754 0.85742 0.0
H354 H 0.36278 0.50851 0.47881 0.0
H355 H 0.30315 0.42618 0.4127 0.0
H356 H 0.28462 0.47057 0.36321 0.0
H357 H 0.29674 0.57901 0.46452 0.0
H358 H 0.33091 0.61311 0.46085 0.0
H359 H 0.33919 0.57478 0.49059 0.0
H360 H 0.39783 0.56114 0.45008 0.0
H361 H 0.38954 0.59944 0.42044 0.0
H362 H 0.39537 0.55611 0.39632 0.0
H363 H 0.27848 0.52308 0.31757 0.0
H364 H 0.28 0.58058 0.28318 0.0
H365 H 0.33574 0.62965 0.3849 0.0
C366 C 0.34576 0.49989 0.45392 0.0
C367 C 0.3346 0.46402 0.44908 0.0
C368 C 0.31189 0.45366 0.41667 0.0
C369 C 0.30136 0.47861 0.38851 0.0
C370 C 0.3131 0.51383 0.39395 0.0
C371 C 0.33426 0.52456 0.42629 0.0
C372 C 0.34271 0.56403 0.42588 0.0
C373 C 0.32639 0.5839 0.46264 0.0
C374 C 0.3838 0.57052 0.42299 0.0
C375 C 0.32359 0.57377 0.38782 0.0
C376 C 0.30707 0.54444 0.36948 0.0
C377 C 0.29055 0.54641 0.33213 0.0
C378 C 0.29129 0.57914 0.31295 0.0
C379 C 0.30776 0.6095 0.33152 0.0
C380 C 0.32323 0.60681 0.36986 0.0
H381 H 0.01955 0.81684 0.95609 0.0
H382 H 0.06798 0.91092 0.90597 0.0
H383 H 0.0292 0.90331 0.84629 0.0
H384 H 0.00656 0.76619 0.85989 0.0
H385 H 0.96355 0.74826 0.87494 0.0
H386 H 0.99793 0.75831 0.91192 0.0
H387 H 0.95297 0.79886 0.95151 0.0
H388 H 0.91842 0.78884 0.91491 0.0
H389 H 0.93047 0.83451 0.92673 0.0
H390 H 0.98353 0.88812 0.79421 0.0
H391 H 0.92863 0.87004 0.75629 0.0
H392 H 0.9075 0.78747 0.84045 0.0
C393 C 0.02237 0.83545 0.93221 0.0
C394 C 0.04695 0.86434 0.9355 0.0
C395 C 0.04933 0.88861 0.90407 0.0
C396 C 0.02763 0.88435 0.86991 0.0
C397 C 0.0036 0.85573 0.86761 0.0
C398 C 1.00052 0.83185 0.89802 0.0
C399 C 0.97029 0.80524 0.88941 0.0
C400 C 0.9855 0.76725 0.8837 0.0
C401 C 0.94133 0.80702 0.92257 0.0
C402 C 0.95598 0.81886 0.85024 0.0
C403 C 0.97632 0.84739 0.83774 0.0
C404 C 0.96765 0.86556 0.8034 0.0
C405 C 0.93666 0.85509 0.78198 0.0
C406 C 0.91442 0.82723 0.79534 0.0
C407 C 0.92475 0.80819 0.82919 0.0
H408 H 0.89199 0.98672 0.95852 0.0
H409 H 0.85786 0.07045 0.88087 0.0
H410 H 0.85237 0.02633 0.82424 0.0
H411 H 0.94281 0.93417 0.88112 0.0
H412 H 0.92895 0.89191 0.89974 0.0
H413 H 0.93422 0.92984 0.93383 0.0
H414 H 0.86834 0.92326 0.95894 0.0
H415 H 0.86283 0.88454 0.92624 0.0
H416 H 0.83175 0.92145 0.92322 0.0
H417 H 0.84876 0.97274 0.77708 0.0
H418 H 0.84374 0.91288 0.74375 0.0
H419 H 0.87413 0.86403 0.85433 0.0
C420 C 0.88401 0.99561 0.92932 0.0
C421 C 0.8756 0.03163 0.92339 0.0
C422 C 0.86455 0.04275 0.88538 0.0
C423 C 0.86152 0.01799 0.85321 0.0
C424 C 0.86954 0.98237 0.85992 0.0
C425 C 0.88052 0.97116 0.89703 0.0
C426 C 0.88518 0.93108 0.89694 0.0
C427 C 0.92515 0.9212 0.90333 0.0
C428 C 0.86054 0.9141 0.92818 0.0
C429 C 0.87328 0.92138 0.8547 0.0
C430 C 0.86549 0.95137 0.83341 0.0
C431 C 0.85456 0.94904 0.79351 0.0
C432 C 0.85136 0.91507 0.77497 0.0
C433 C 0.85809 0.88407 0.79672 0.0
C434 C 0.86914 0.88739 0.83703 0.0
H435 H 0.49137 0.33045 0.46481 0.0
H436 H 0.40972 0.36382 0.38094 0.0
H437 H 0.45426 0.35787 0.32564 0.0
H438 H 0.56151 0.38048 0.4235 0.0
H439 H 0.59727 0.34877 0.43141 0.0
H440 H 0.5585 0.35029 0.46415 0.0
H441 H 0.545 0.28369 0.44909 0.0
H442 H 0.5844 0.28101 0.41731 0.0
H443 H 0.54078 0.26748 0.3979 0.0
H444 H 0.50767 0.35015 0.28034 0.0
H445 H 0.56755 0.34264 0.2476 0.0
H446 H 0.61614 0.31911 0.3614 0.0
C447 C 0.48274 0.33533 0.43452 0.0
C448 C 0.44701 0.34648 0.42654 0.0
C449 C 0.43683 0.35443 0.38712 0.0
C450 C 0.46194 0.35126 0.35572 0.0
C451 C 0.49722 0.34086 0.36458 0.0
C452 C 0.50773 0.33313 0.40301 0.0
C453 C 0.54803 0.32541 0.40494 0.0
C454 C 0.56748 0.35287 0.43264 0.0
C455 C 0.55495 0.28711 0.41808 0.0
C456 C 0.5585 0.32984 0.36155 0.0
C457 C 0.52866 0.33846 0.3388 0.0
C458 C 0.53122 0.34344 0.29781 0.0
C459 C 0.56511 0.33916 0.2795 0.0
C460 C 0.59596 0.3305 0.3022 0.0
C461 C 0.59275 0.32599 0.34374 0.0
H462 H 0.13718 0.01238 0.98191 0.0
H463 H 0.19448 0.93083 0.91177 0.0
H464 H 0.21289 0.97621 0.86364 0.0
H465 H 0.10518 0.06399 0.89942 0.0
H466 H 0.11194 0.1062 0.92573 0.0
H467 H 0.10187 0.06693 0.95323 0.0
H468 H 0.16016 0.07727 0.9955 0.0
H469 H 0.17035 0.1164 0.96783 0.0
H470 H 0.20321 0.081 0.9705 0.0
H471 H 0.22269 0.03046 0.82168 0.0
H472 H 0.22588 0.08985 0.79151 0.0
H473 H 0.16851 0.1364 0.89353 0.0
C474 C 0.15334 0.00399 0.95623 0.0
C475 C 0.16421 0.96805 0.95033 0.0
C476 C 0.18588 0.95825 0.91677 0.0
C477 C 0.19638 0.98379 0.88929 0.0
C478 C 0.18539 0.01906 0.89614 0.0
C479 C 0.16457 0.02921 0.92897 0.0
C480 C 0.15748 0.06903 0.93036 0.0
C481 C 0.11671 0.07698 0.92698 0.0
C482 C 0.17379 0.08697 0.9683 0.0
C483 C 0.17758 0.0797 0.8932 0.0
C484 C 0.19304 0.05049 0.8735 0.0
C485 C 0.21117 0.05359 0.83719 0.0
C486 C 0.21317 0.08738 0.82045 0.0
C487 C 0.19772 0.11762 0.84037 0.0
C488 C 0.18038 0.11367 0.87758 0.0
H489 H 0.50759 0.67721 0.45737 0.0
H490 H 0.54069 0.57222 0.41205 0.0
H491 H 0.49056 0.57201 0.36352 0.0
H492 H 0.41221 0.66069 0.45063 0.0
H493 H 0.40105 0.70512 0.43584 0.0
H494 H 0.4405 0.69784 0.46612 0.0
H495 H 0.48054 0.72842 0.41362 0.0
H496 H 0.44122 0.73568 0.38304 0.0
H497 H 0.47977 0.71206 0.36228 0.0
H498 H 0.43589 0.582 0.3212 0.0
H499 H 0.37892 0.6015 0.28926 0.0
H500 H 0.38093 0.69945 0.36147 0.0
C501 C 0.50447 0.65431 0.43703 0.0
C502 C 0.5282 0.62478 0.43857 0.0
C503 C 0.52288 0.59516 0.41164 0.0
C504 C 0.49453 0.5948 0.3838 0.0
C505 C 0.47162 0.62424 0.38314 0.0
C506 C 0.47613 0.6534 0.4091 0.0
C507 C 0.44678 0.68098 0.40307 0.0
C508 C 0.42378 0.68646 0.44117 0.0
C509 C 0.46306 0.71638 0.3897 0.0
C510 C 0.42519 0.66276 0.36967 0.0
C511 C 0.44007 0.63008 0.35855 0.0
C512 C 0.42419 0.60769 0.32935 0.0
C513 C 0.39202 0.61887 0.31138 0.0
C514 C 0.37614 0.65197 0.32277 0.0
C515 C 0.39316 0.67435 0.35187 0.0
H516 H 0.35634 0.46095 0.65367 0.0
H517 H 0.40366 0.50743 0.54888 0.0
H518 H 0.40261 0.56705 0.58298 0.0
H519 H 0.29744 0.53178 0.68153 0.0
H520 H 0.30468 0.52932 0.73467 0.0
H521 H 0.30993 0.48997 0.70277 0.0
H522 H 0.37534 0.48139 0.7289 0.0
H523 H 0.37005 0.52037 0.76141 0.0
H524 H 0.40725 0.51767 0.72651 0.0
H525 H 0.39174 0.62163 0.62585 0.0
H526 H 0.37908 0.66764 0.67884 0.0
H527 H 0.34442 0.5857 0.75851 0.0
C528 C 0.36694 0.48373 0.63839 0.0
C529 C 0.38033 0.48004 0.599 0.0
C530 C 0.39378 0.51007 0.57937 0.0
C531 C 0.39307 0.54391 0.59835 0.0
C532 C 0.37933 0.54694 0.63712 0.0
C533 C 0.36722 0.51763 0.65731 0.0
C534 C 0.35452 0.52832 0.69913 0.0
C535 C 0.31425 0.51931 0.70484 0.0
C536 C 0.37821 0.5109 0.73086 0.0
C537 C 0.36055 0.56827 0.69887 0.0
C538 C 0.37458 0.57841 0.66263 0.0
C539 C 0.38123 0.61399 0.65453 0.0
C540 C 0.37396 0.63985 0.6846 0.0
C541 C 0.36097 0.62992 0.7224 0.0
C542 C 0.35398 0.59375 0.72958 0.0
H543 H 0.02821 0.90036 0.13755 0.0
H544 H 0.0236 0.80422 0.06189 0.0
H545 H 0.96516 0.7881 0.09253 0.0
H546 H 0.99027 0.8577 0.22653 0.0
H547 H 0.9662 0.89736 0.24307 0.0
H548 H 0.00778 0.90112 0.21527 0.0
H549 H 0.97441 0.93958 0.16521 0.0
H550 H 0.93146 0.9345 0.19004 0.0
H551 H 0.9363 0.92152 0.13789 0.0
H552 H 0.90543 0.78489 0.127 0.0
H553 H 0.85124 0.79032 0.17016 0.0
H554 H 0.89675 0.88469 0.22924 0.0
C555 C 0.01494 0.87577 0.12792 0.0
C556 C 0.03018 0.85337 0.09753 0.0
C557 C 0.01234 0.82141 0.08546 0.0
C558 C 0.97911 0.81219 0.10249 0.0
C559 C 0.96452 0.83486 0.13218 0.0
C560 C 0.98218 0.86554 0.14557 0.0
C561 C 0.96097 0.88441 0.17898 0.0
C562 C 0.9826 0.88518 0.21829 0.0
C563 C 0.95011 0.92226 0.16736 0.0
C564 C 0.92824 0.86005 0.18137 0.0
C565 C 0.93081 0.83181 0.15386 0.0
C566 C 0.90345 0.80642 0.14929 0.0
C567 C 0.87293 0.80953 0.17406 0.0
C568 C 0.87032 0.8373 0.20364 0.0
C569 C 0.89823 0.86307 0.20701 0.0
H570 H 0.63352 0.53381 0.62609 0.0
H571 H 0.71947 0.52108 0.53799 0.0
H572 H 0.73966 0.46642 0.56986 0.0
H573 H 0.68849 0.49933 0.71103 0.0
H574 H 0.6497 0.47804 0.73267 0.0
H575 H 0.64397 0.51818 0.70517 0.0
H576 H 0.59714 0.4855 0.66048 0.0
H577 H 0.60358 0.44413 0.68542 0.0
H578 H 0.61026 0.44596 0.63215 0.0
H579 H 0.74602 0.40973 0.60523 0.0
H580 H 0.74175 0.35676 0.64703 0.0
H581 H 0.65515 0.40714 0.71566 0.0
C582 C 0.657 0.51985 0.61405 0.0
C583 C 0.67489 0.53175 0.57954 0.0
C584 C 0.70547 0.51272 0.56456 0.0
C585 C 0.71714 0.48153 0.58237 0.0
C586 C 0.69848 0.47005 0.6157 0.0
C587 C 0.66959 0.48895 0.63205 0.0
C588 C 0.654 0.47015 0.66767 0.0
C589 C 0.65937 0.49277 0.70643 0.0
C590 C 0.61384 0.46087 0.66107 0.0
C591 C 0.67748 0.43694 0.66735 0.0
C592 C 0.70311 0.43763 0.63727 0.0
C593 C 0.72667 0.40921 0.62953 0.0
C594 C 0.7242 0.37936 0.65342 0.0
C595 C 0.69864 0.3783 0.68483 0.0
C596 C 0.67505 0.40751 0.6919 0.0
H597 H 0.93975 0.12428 0.14501 0.0
H598 H 0.98722 0.19475 0.05904 0.0
H599 H 0.03772 0.20792 0.10538 0.0
H600 H 0.96747 0.18146 0.23485 0.0
H601 H 0.97485 0.14297 0.26465 0.0
H602 H 0.94078 0.14171 0.22601 0.0
H603 H 0.97051 0.08533 0.1955 0.0
H604 H 0.00638 0.08672 0.23193 0.0
H605 H 0.01684 0.08678 0.17906 0.0
H606 H 0.08575 0.20916 0.15755 0.0
H607 H 0.12621 0.2023 0.21602 0.0
H608 H 0.04756 0.13321 0.2699 0.0
C609 C 0.96051 0.14293 0.13638 0.0
C610 C 0.95965 0.15849 0.09852 0.0
C611 C 0.98719 0.1828 0.08809 0.0
C612 C 0.01606 0.19038 0.11415 0.0
C613 C 0.01654 0.17413 0.15094 0.0
C614 C 0.98909 0.15165 0.16259 0.0
C615 C 0.9965 0.1376 0.20379 0.0
C616 C 0.96822 0.15179 0.23412 0.0
C617 C 0.99769 0.09664 0.20252 0.0
C618 C 0.03348 0.15388 0.21228 0.0
C619 C 0.0442 0.1753 0.18156 0.0
C620 C 0.07749 0.19286 0.18203 0.0
C621 C 0.10028 0.1888 0.21504 0.0
C622 C 0.08964 0.16745 0.24694 0.0
C623 C 0.05596 0.14969 0.24561 0.0
H624 H 0.18302 0.76608 0.09572 0.0
H625 H 0.19896 0.87116 0.15169 0.0
H626 H 0.22996 0.84408 0.20826 0.0
H627 H 0.16868 0.71827 0.18883 0.0
H628 H 0.19324 0.6793 0.17112 0.0
H629 H 0.16966 0.70648 0.13611 0.0
H630 H 0.22915 0.71427 0.09621 0.0
H631 H 0.25291 0.68722 0.13111 0.0
H632 H 0.2688 0.73161 0.12164 0.0
H633 H 0.2621 0.80675 0.25689 0.0
H634 H 0.29352 0.76041 0.29495 0.0
H635 H 0.2582 0.67947 0.2081 0.0
C636 C 0.19254 0.78327 0.12019 0.0
C637 C 0.18855 0.82075 0.11924 0.0
C638 C 0.20185 0.8424 0.15161 0.0
C639 C 0.21939 0.82729 0.184 0.0
C640 C 0.2235 0.79042 0.18373 0.0
C641 C 0.21044 0.76859 0.15282 0.0
C642 C 0.22016 0.72988 0.15922 0.0
C643 C 0.18589 0.70714 0.16411 0.0
C644 C 0.24419 0.71488 0.12501 0.0
C645 C 0.24109 0.73356 0.19818 0.0
C646 C 0.24245 0.76872 0.21188 0.0
C647 C 0.26109 0.77908 0.24662 0.0
C648 C 0.27897 0.75278 0.26788 0.0
C649 C 0.27817 0.7167 0.25426 0.0
C650 C 0.25879 0.70695 0.21915 0.0
H651 H 0.74416 0.69579 0.56126 0.0
H652 H 0.64438 0.69118 0.62911 0.0
H653 H 0.6751 0.71993 0.68778 0.0
H654 H 0.80644 0.68022 0.64135 0.0
H655 H 0.83958 0.71195 0.62516 0.0
H656 H 0.81034 0.68977 0.58904 0.0
H657 H 0.78842 0.75087 0.5643 0.0
H658 H 0.81802 0.77321 0.59987 0.0
H659 H 0.77031 0.78341 0.59989 0.0
H660 H 0.71744 0.74651 0.73954 0.0
H661 H 0.76567 0.77879 0.77765 0.0
H662 H 0.83607 0.77125 0.67429 0.0
C663 C 0.72893 0.70108 0.58852 0.0
C664 C 0.69213 0.69145 0.59117 0.0
C665 C 0.67262 0.69874 0.62686 0.0
C666 C 0.6899 0.71471 0.66026 0.0
C667 C 0.72644 0.7236 0.657 0.0
C668 C 0.74553 0.71779 0.62178 0.0
C669 C 0.78386 0.73194 0.6254 0.0
C670 C 0.81169 0.70166 0.61992 0.0
C671 C 0.79053 0.76163 0.59561 0.0
C672 C 0.78338 0.74657 0.66818 0.0
C673 C 0.75023 0.7408 0.6861 0.0
C674 C 0.74338 0.75146 0.72571 0.0
C675 C 0.77079 0.76956 0.74713 0.0
C676 C 0.80409 0.77747 0.72858 0.0
C677 C 0.81074 0.76525 0.68893 0.0
H678 H 0.8303 0.2049 0.11985 0.0
H679 H 0.75405 0.18639 0.02253 0.0
H680 H 0.70705 0.21932 0.06077 0.0
H681 H 0.76615 0.19224 0.19831 0.0
H682 H 0.78483 0.22634 0.23156 0.0
H683 H 0.81362 0.20324 0.19572 0.0
H684 H 0.83306 0.26365 0.16699 0.0
H685 H 0.80441 0.28696 0.20285 0.0
H686 H 0.79889 0.29403 0.15015 0.0
H687 H 0.66823 0.25388 0.10886 0.0
H688 H 0.63933 0.28697 0.16565 0.0
H689 H 0.73859 0.27978 0.23392 0.0
C690 C 0.80382 0.20822 0.10655 0.0
C691 C 0.79578 0.19324 0.06826 0.0
C692 C 0.7607 0.19755 0.05194 0.0
C693 C 0.73384 0.2163 0.07333 0.0
C694 C 0.74236 0.2303 0.1112 0.0
C695 C 0.77637 0.22644 0.12784 0.0
C696 C 0.77769 0.24287 0.16987 0.0
C697 C 0.78606 0.21447 0.20068 0.0
C698 C 0.80514 0.27371 0.17261 0.0
C699 C 0.73916 0.25645 0.17408 0.0
C700 C 0.71937 0.24915 0.13973 0.0
C701 C 0.68331 0.25952 0.13609 0.0
C702 C 0.66703 0.27797 0.16848 0.0
C703 C 0.68666 0.28537 0.2041 0.0
C704 C 0.72312 0.27439 0.20689 0.0
H705 H 0.32629 0.27287 0.60886 0.0
H706 H 0.31349 0.37929 0.66243 0.0
H707 H 0.28543 0.35343 0.72194 0.0
H708 H 0.24247 0.23999 0.63949 0.0
H709 H 0.25852 0.19561 0.6487 0.0
H710 H 0.28096 0.22212 0.61232 0.0
H711 H 0.34197 0.21431 0.64936 0.0
H712 H 0.31968 0.18772 0.68593 0.0
H713 H 0.34517 0.22668 0.70182 0.0
H714 H 0.25456 0.31637 0.77322 0.0
H715 H 0.22264 0.27063 0.81192 0.0
H716 H 0.255 0.18899 0.72455 0.0
C717 C 0.31819 0.29076 0.63337 0.0
C718 C 0.32218 0.32813 0.631 0.0
C719 C 0.3107 0.35058 0.66354 0.0
C720 C 0.29485 0.33614 0.69753 0.0
C721 C 0.29078 0.29922 0.69856 0.0
C722 C 0.30219 0.27683 0.66737 0.0
C723 C 0.29259 0.23833 0.67467 0.0
C724 C 0.26712 0.22314 0.64185 0.0
C725 C 0.3269 0.21541 0.67816 0.0
C726 C 0.27334 0.2426 0.71449 0.0
C727 C 0.27287 0.27789 0.72798 0.0
C728 C 0.2551 0.28863 0.76316 0.0
C729 C 0.23701 0.26266 0.78483 0.0
C730 C 0.23675 0.22657 0.77111 0.0
C731 C 0.25552 0.2164 0.73584 0.0
H732 H 0.7285 0.70039 0.44455 0.0
H733 H 0.62146 0.7006 0.39101 0.0
H734 H 0.64438 0.73857 0.33734 0.0
H735 H 0.74889 0.79208 0.42581 0.0
H736 H 0.79622 0.78372 0.41612 0.0
H737 H 0.77154 0.75572 0.44932 0.0
H738 H 0.79027 0.69985 0.40641 0.0
H739 H 0.81491 0.72768 0.37298 0.0
H740 H 0.78027 0.69795 0.3536 0.0
H741 H 0.6799 0.77531 0.28837 0.0
H742 H 0.72428 0.81075 0.25053 0.0
H743 H 0.8064 0.78996 0.33901 0.0
C744 C 0.70989 0.70823 0.42141 0.0
C745 C 0.67323 0.6973 0.42174 0.0
C746 C 0.64964 0.70865 0.3913 0.0
C747 C 0.66245 0.73013 0.36067 0.0
C748 C 0.69878 0.74041 0.36126 0.0
C749 C 0.72205 0.73011 0.39109 0.0
C750 C 0.75954 0.74571 0.38572 0.0
C751 C 0.76962 0.7708 0.42136 0.0
C752 C 0.78791 0.71602 0.37929 0.0
C753 C 0.75388 0.7662 0.348 0.0
C754 C 0.71874 0.76259 0.33412 0.0
C755 C 0.70739 0.77847 0.29915 0.0
C756 C 0.73262 0.79853 0.27791 0.0
C757 C 0.76857 0.8028 0.29191 0.0
C758 C 0.77916 0.78663 0.32753 0.0
H759 H 0.81758 0.22898 0.9321 0.0
H760 H 0.81684 0.12445 0.87217 0.0
H761 H 0.78725 0.15025 0.81342 0.0
H762 H 0.73027 0.25467 0.89947 0.0
H763 H 0.74205 0.30091 0.89406 0.0
H764 H 0.76558 0.27472 0.92994 0.0
H765 H 0.8269 0.29062 0.89725 0.0
H766 H 0.80354 0.31685 0.86119 0.0
H767 H 0.83352 0.28145 0.84446 0.0
H768 H 0.75689 0.18753 0.76159 0.0
H769 H 0.72478 0.23293 0.72244 0.0
H770 H 0.7425 0.31184 0.81779 0.0
C771 C 0.81165 0.21157 0.90642 0.0
C772 C 0.81983 0.17475 0.90651 0.0
C773 C 0.81092 0.15275 0.87266 0.0
C774 C 0.79421 0.16718 0.83914 0.0
C775 C 0.78633 0.20357 0.84015 0.0
C776 C 0.79453 0.22541 0.87304 0.0
C777 C 0.78135 0.26319 0.8676 0.0
C778 C 0.75313 0.27399 0.89966 0.0
C779 C 0.81324 0.28958 0.86762 0.0
C780 C 0.76427 0.25921 0.82656 0.0
C781 C 0.76779 0.22471 0.81101 0.0
C782 C 0.75399 0.21458 0.77349 0.0
C783 C 0.73586 0.24034 0.75153 0.0
C784 C 0.73139 0.27549 0.76739 0.0
C785 C 0.74592 0.28506 0.8052 0.0
H786 H 0.3182 0.28864 0.42416 0.0
H787 H 0.24455 0.32817 0.51686 0.0
H788 H 0.19501 0.29315 0.48612 0.0
H789 H 0.25311 0.29116 0.34368 0.0
H790 H 0.26957 0.25104 0.31858 0.0
H791 H 0.29999 0.2785 0.3484 0.0
H792 H 0.31669 0.22394 0.39019 0.0
H793 H 0.28619 0.19635 0.36061 0.0
H794 H 0.28127 0.19944 0.41425 0.0
H795 H 0.15333 0.25332 0.4466 0.0
H796 H 0.12162 0.21297 0.39793 0.0
H797 H 0.22032 0.20182 0.32859 0.0
C798 C 0.29168 0.28979 0.43799 0.0
C799 C 0.28537 0.31116 0.47296 0.0
C800 C 0.25014 0.31219 0.48996 0.0
C801 C 0.22175 0.29226 0.47284 0.0
C802 C 0.22877 0.27156 0.43844 0.0
C803 C 0.26272 0.27033 0.42093 0.0
C804 C 0.26245 0.24662 0.38326 0.0
C805 C 0.27183 0.26812 0.3463 0.0
C806 C 0.28818 0.21469 0.38734 0.0
C807 C 0.22317 0.23474 0.38259 0.0
C808 C 0.20431 0.24926 0.41488 0.0
C809 C 0.16773 0.24193 0.42103 0.0
C810 C 0.1499 0.21921 0.39327 0.0
C811 C 0.16856 0.20441 0.35975 0.0
C812 C 0.20563 0.21238 0.35437 0.0
H813 H 0.2427 0.80266 0.97976 0.0
H814 H 0.15189 0.82265 0.9014 0.0
H815 H 0.18511 0.79398 0.84465 0.0
H816 H 0.31505 0.81454 0.90794 0.0
H817 H 0.34183 0.77811 0.92561 0.0
H818 H 0.3122 0.80245 0.95957 0.0
H819 H 0.28022 0.74357 0.9775 0.0
H820 H 0.30992 0.71904 0.94386 0.0
H821 H 0.26153 0.71522 0.93804 0.0
H822 H 0.22855 0.76471 0.79639 0.0
H823 H 0.27611 0.72938 0.76125 0.0
H824 H 0.33593 0.72243 0.87211 0.0
C825 C 0.23005 0.80119 0.95053 0.0
C826 C 0.19496 0.81506 0.94463 0.0
C827 C 0.17879 0.81211 0.90632 0.0
C828 C 0.19751 0.79611 0.87395 0.0
C829 C 0.2321 0.78268 0.88065 0.0
C830 C 0.248 0.78446 0.91809 0.0
C831 C 0.28431 0.76553 0.91774 0.0
C832 C 0.31517 0.79173 0.92834 0.0
C833 C 0.28395 0.73397 0.94595 0.0
C834 C 0.28629 0.75285 0.87427 0.0
C835 C 0.25618 0.76364 0.85331 0.0
C836 C 0.25202 0.75571 0.81259 0.0
C837 C 0.27898 0.73552 0.79295 0.0
C838 C 0.30919 0.72272 0.81419 0.0
C839 C 0.31312 0.732 0.85523 0.0
loop_
_geom_bond_atom_site_label_1
_geom_bond_atom_site_label_2
_geom_bond_distance
_geom_bond_site_symmetry_2
_ccdc_geom_bond_type
Fe0 O2 1.918 . S
Fe0 O5 1.997 . S
Fe0 O6 2.002 . S
Fe0 O11 1.994 . S
Fe0 O14 1.996 . S
Fe1 O2 1.918 . S
Fe1 O9 1.997 . S
Fe1 O12 1.996 1_554 S
Fe1 O16 1.976 1_554 S
Fe1 O19 2.002 . S
O2 Fe0 1.918 . S
O2 Fe1 1.918 . S
O2 Fe3 1.918 . S
Fe3 O2 1.918 . S
Fe3 O4 2.002 . S
Fe3 O13 1.976 1_554 S
Fe3 O17 1.996 1_554 S
Fe3 O20 1.997 . S
O4 Fe3 2.002 . S
O4 C21 1.295 . S
O5 Fe0 1.997 . S
O5 C21 1.235 . S
O6 Fe0 2.002 . S
O6 C7 1.295 . S
C7 O6 1.295 . S
C7 O9 1.235 . S
C8 O13 1.287 . S
C8 O14 1.255 1_556 S
O9 Fe1 1.997 . S
O9 C7 1.235 . S
C10 O16 1.287 . S
C10 O17 1.255 . S
O11 Fe0 1.994 . S
O11 C18 1.275 1_554 S
O12 Fe1 1.996 1_556 S
O12 C18 1.255 . S
O13 Fe3 1.976 1_556 S
O13 C8 1.287 . S
O14 Fe0 1.996 . S
O14 C8 1.255 1_554 S
C15 O19 1.295 . S
C15 O20 1.235 . S
O16 Fe1 1.976 1_556 S
O16 C10 1.287 . S
O17 Fe3 1.996 1_556 S
O17 C10 1.255 . S
C18 O11 1.275 1_556 S
C18 O12 1.255 . S
O19 Fe1 2.002 . S
O19 C15 1.295 . S
O20 Fe3 1.997 . S
O20 C15 1.235 . S
C21 O4 1.295 . S
C21 O5 1.235 . S
Fe22 O24 1.918 . S
Fe22 O27 1.997 . S
Fe22 O28 2.002 . S
Fe22 O33 1.976 . S
Fe22 O36 1.996 . S
Fe23 O24 1.918 . S
Fe23 O31 1.997 . S
Fe23 O34 1.996 . S
Fe23 O38 1.976 . S
Fe23 O41 2.002 . S
O24 Fe22 1.918 . S
O24 Fe23 1.918 . S
O24 Fe25 1.918 . S
Fe25 O24 1.918 . S
Fe25 O26 2.002 . S
Fe25 O35 1.976 . S
Fe25 O39 1.996 . S
Fe25 O42 1.997 . S
O26 Fe25 2.002 . S
O26 C43 1.295 . S
O27 Fe22 1.997 . S
O27 C43 1.235 . S
O28 Fe22 2.002 . S
O28 C29 1.295 . S
C29 O28 1.295 . S
C29 O31 1.235 . S
C30 O35 1.287 . S
C30 O36 1.255 . S
O31 Fe23 1.997 . S
O31 C29 1.235 . S
C32 O38 1.287 . S
C32 O39 1.255 . S
O33 Fe22 1.976 . S
O33 C40 1.287 . S
O34 Fe23 1.996 . S
O34 C40 1.255 . S
O35 Fe25 1.976 . S
O35 C30 1.287 . S
O36 Fe22 1.996 . S
O36 C30 1.255 . S
C37 O41 1.295 . S
C37 O42 1.235 . S
O38 Fe23 1.976 . S
O38 C32 1.287 . S
O39 Fe25 1.996 . S
O39 C32 1.255 . S
C40 O33 1.287 . S
C40 O34 1.255 . S
O41 Fe23 2.002 . S
O41 C37 1.295 . S
O42 Fe25 1.997 . S
O42 C37 1.235 . S
C43 O26 1.295 . S
C43 O27 1.235 . S
Fe44 O46 1.918 . S
Fe44 O49 1.997 1_554 S
Fe44 O50 2.002 1_554 S
Fe44 O55 1.976 . S
Fe44 O58 1.996 . S
Fe45 O46 1.918 . S
Fe45 O53 1.997 1_554 S
Fe45 O56 1.996 . S
Fe45 O60 1.976 . S
Fe45 O63 2.002 1_554 S
O46 Fe44 1.918 . S
O46 Fe45 1.918 . S
O46 Fe47 1.918 1_554 S
Fe47 O46 1.918 1_556 S
Fe47 O48 2.002 . S
Fe47 O57 1.976 1_556 S
Fe47 O61 1.996 1_556 S
Fe47 O64 1.997 . S
O48 Fe47 2.002 . S
O48 C65 1.295 . S
O49 Fe44 1.997 1_556 S
O49 C65 1.235 . S
O50 Fe44 2.002 1_556 S
O50 C51 1.295 . S
C51 O50 1.295 . S
C51 O53 1.235 . S
C52 O57 1.287 . S
C52 O58 1.255 . S
O53 Fe45 1.997 1_556 S
O53 C51 1.235 . S
C54 O60 1.287 . S
C54 O61 1.255 . S
O55 Fe44 1.976 . S
O55 C62 1.287 . S
O56 Fe45 1.996 . S
O56 C62 1.255 . S
O57 Fe47 1.976 1_554 S
O57 C52 1.287 . S
O58 Fe44 1.996 . S
O58 C52 1.255 . S
C59 O63 1.295 . S
C59 O64 1.235 . S
O60 Fe45 1.976 . S
O60 C54 1.287 . S
O61 Fe47 1.996 1_554 S
O61 C54 1.255 . S
C62 O55 1.287 . S
C62 O56 1.255 . S
O63 Fe45 2.002 1_556 S
O63 C59 1.295 . S
O64 Fe47 1.997 . S
O64 C59 1.235 . S
C65 O48 1.295 . S
C65 O49 1.235 . S
Fe66 O68 1.918 . S
Fe66 O71 1.997 . S
Fe66 O72 2.002 . S
Fe66 O77 1.976 . S
Fe66 O80 1.996 . S
Fe67 O68 1.918 . S
Fe67 O75 1.997 . S
Fe67 O78 1.996 . S
Fe67 O82 1.976 . S
Fe67 O85 2.002 . S
O68 Fe66 1.918 . S
O68 Fe67 1.918 . S
O68 Fe69 1.918 . S
Fe69 O68 1.918 . S
Fe69 O70 2.002 . S
Fe69 O79 1.976 . S
Fe69 O83 1.996 . S
Fe69 O86 1.997 . S
O70 Fe69 2.002 . S
O70 C87 1.295 . S
O71 Fe66 1.997 . S
O71 C87 1.235 . S
O72 Fe66 2.002 . S
O72 C73 1.295 . S
C73 O72 1.295 . S
C73 O75 1.235 . S
C74 O79 1.287 . S
C74 O80 1.255 . S
O75 Fe67 1.997 . S
O75 C73 1.235 . S
C76 O82 1.287 . S
C76 O83 1.255 . S
O77 Fe66 1.976 . S
O77 C84 1.287 . S
O78 Fe67 1.996 . S
O78 C84 1.255 . S
O79 Fe69 1.976 . S
O79 C74 1.287 . S
O80 Fe66 1.996 . S
O80 C74 1.255 . S
C81 O85 1.295 . S
C81 O86 1.235 . S
O82 Fe67 1.976 . S
O82 C76 1.287 . S
O83 Fe69 1.996 . S
O83 C76 1.255 . S
C84 O77 1.287 . S
C84 O78 1.255 . S
O85 Fe67 2.002 . S
O85 C81 1.295 . S
O86 Fe69 1.997 . S
O86 C81 1.235 . S
C87 O70 1.295 . S
C87 O71 1.235 . S
C88 N89 1.317 . S
C88 N90 1.348 . S
C88 C91 1.485 . S
N89 C88 1.317 . S
N89 N93 1.370 . S
N90 C88 1.348 . S
N90 C92 1.346 . S
C91 C88 1.485 . S
C91 H95 0.960 . S
C91 H96 0.961 . S
C91 H97 0.960 . S
C92 N90 1.346 . S
C92 N93 1.307 . S
C92 C94 1.486 . S
N93 N89 1.370 . S
N93 C92 1.307 . S
C94 C92 1.486 . S
C94 H98 0.960 . S
C94 H99 0.960 . S
C94 H100 0.959 . S
H95 C91 0.960 . S
H96 C91 0.961 . S
H97 C91 0.960 . S
H98 C94 0.960 . S
H99 C94 0.960 . S
H100 C94 0.959 . S
C101 N102 1.317 . S
C101 N103 1.348 . S
C101 C104 1.485 . S
N102 C101 1.317 . S
N102 N106 1.370 . S
N103 C101 1.348 . S
N103 C105 1.346 . S
C104 C101 1.485 . S
C104 H108 0.960 . S
C104 H109 0.961 . S
C104 H110 0.960 . S
C105 N103 1.346 . S
C105 N106 1.307 . S
C105 C107 1.486 . S
N106 N102 1.370 . S
N106 C105 1.307 . S
C107 C105 1.486 . S
C107 H111 0.960 . S
C107 H112 0.960 . S
C107 H113 0.959 . S
H108 C104 0.960 . S
H109 C104 0.961 . S
H110 C104 0.960 . S
H111 C107 0.960 . S
H112 C107 0.960 . S
H113 C107 0.959 . S
C114 N115 1.317 . S
C114 N116 1.348 . S
C114 C117 1.485 . S
N115 C114 1.317 . S
N115 N119 1.370 . S
N116 C114 1.348 . S
N116 C118 1.346 . S
C117 C114 1.485 . S
C117 H121 0.960 . S
C117 H122 0.961 . S
C117 H123 0.960 . S
C118 N116 1.346 . S
C118 N119 1.307 . S
C118 C120 1.486 . S
N119 N115 1.370 . S
N119 C118 1.307 . S
C120 C118 1.486 . S
C120 H124 0.960 . S
C120 H125 0.960 . S
C120 H126 0.959 . S
H121 C117 0.960 . S
H122 C117 0.961 . S
H123 C117 0.960 . S
H124 C120 0.960 . S
H125 C120 0.960 . S
H126 C120 0.959 . S
C127 N128 1.317 . S
C127 N129 1.348 . S
C127 C130 1.485 . S
N128 C127 1.317 . S
N128 N132 1.370 . S
N129 C127 1.348 . S
N129 C131 1.346 . S
C130 C127 1.485 . S
C130 H134 0.960 . S
C130 H135 0.961 . S
C130 H136 0.960 . S
C131 N129 1.346 . S
C131 N132 1.307 . S
C131 C133 1.486 . S
N132 N128 1.370 . S
N132 C131 1.307 . S
C133 C131 1.486 . S
C133 H137 0.960 . S
C133 H138 0.960 . S
C133 H139 0.959 . S
H134 C130 0.960 . S
H135 C130 0.961 . S
H136 C130 0.960 . S
H137 C133 0.960 . S
H138 C133 0.960 . S
H139 C133 0.959 . S
C140 N141 1.317 . S
C140 N142 1.348 . S
C140 C143 1.485 . S
N141 C140 1.317 . S
N141 N145 1.370 . S
N142 C140 1.348 . S
N142 C144 1.346 . S
C143 C140 1.485 . S
C143 H147 0.960 . S
C143 H148 0.961 . S
C143 H149 0.960 . S
C144 N142 1.346 . S
C144 N145 1.307 . S
C144 C146 1.486 . S
N145 N141 1.370 . S
N145 C144 1.307 . S
C146 C144 1.486 . S
C146 H150 0.960 . S
C146 H151 0.960 . S
C146 H152 0.959 . S
H147 C143 0.960 . S
H148 C143 0.961 . S
H149 C143 0.960 . S
H150 C146 0.960 . S
H151 C146 0.960 . S
H152 C146 0.959 . S
C153 N154 1.317 . S
C153 N155 1.348 . S
C153 C156 1.485 . S
N154 C153 1.317 . S
N154 N158 1.370 . S
N155 C153 1.348 . S
N155 C157 1.346 . S
C156 C153 1.485 . S
C156 H160 0.960 . S
C156 H161 0.961 . S
C156 H162 0.960 . S
C157 N155 1.346 . S
C157 N158 1.307 . S
C157 C159 1.486 . S
N158 N154 1.370 . S
N158 C157 1.307 . S
C159 C157 1.486 . S
C159 H163 0.960 . S
C159 H164 0.960 . S
C159 H165 0.959 . S
H160 C156 0.960 . S
H161 C156 0.961 . S
H162 C156 0.960 . S
H163 C159 0.960 . S
H164 C159 0.960 . S
H165 C159 0.959 . S
C166 N167 1.317 . S
C166 N168 1.348 . S
C166 C169 1.485 . S
N167 C166 1.317 . S
N167 N171 1.370 . S
N168 C166 1.348 . S
N168 C170 1.346 . S
C169 C166 1.485 . S
C169 H173 0.960 . S
C169 H174 0.961 . S
C169 H175 0.960 . S
C170 N168 1.346 . S
C170 N171 1.307 . S
C170 C172 1.486 . S
N171 N167 1.370 . S
N171 C170 1.307 . S
C172 C170 1.486 . S
C172 H176 0.960 . S
C172 H177 0.960 . S
C172 H178 0.959 . S
H173 C169 0.960 . S
H174 C169 0.961 . S
H175 C169 0.960 . S
H176 C172 0.960 . S
H177 C172 0.960 . S
H178 C172 0.959 . S
C179 N180 1.317 . S
C179 N181 1.348 . S
C179 C182 1.485 . S
N180 C179 1.317 . S
N180 N184 1.370 . S
N181 C179 1.348 . S
N181 C183 1.346 . S
C182 C179 1.485 . S
C182 H186 0.960 . S
C182 H187 0.961 . S
C182 H188 0.960 . S
C183 N181 1.346 . S
C183 N184 1.307 . S
C183 C185 1.486 . S
N184 N180 1.370 . S
N184 C183 1.307 . S
C185 C183 1.486 . S
C185 H189 0.960 . S
C185 H190 0.960 . S
C185 H191 0.959 . S
H186 C182 0.960 . S
H187 C182 0.961 . S
H188 C182 0.960 . S
H189 C185 0.960 . S
H190 C185 0.960 . S
H191 C185 0.959 . S
H192 C204 0.930 . S
H193 C206 0.930 . S
H194 C207 0.930 . S
H195 C211 0.959 1_545 S
H196 C211 0.959 1_545 S
H197 C211 0.961 . S
H198 C212 0.960 . S
H199 C212 0.961 . S
H200 C212 0.959 . S
H201 C215 0.929 . S
H202 C216 0.931 . S
H203 C218 0.930 . S
C204 H192 0.930 . S
C204 C205 1.399 . S
C204 C209 1.399 . S
C205 C204 1.399 . S
C205 C206 1.376 . S
C206 H193 0.930 . S
C206 C205 1.376 . S
C206 C207 1.388 1_565 S
C207 H194 0.930 . S
C207 C206 1.388 1_545 S
C207 C208 1.390 . S
C208 C207 1.390 . S
C208 C209 1.394 1_545 S
C208 C214 1.465 . S
C209 C204 1.399 . S
C209 C208 1.394 1_565 S
C209 C210 1.516 1_565 S
C210 C209 1.516 1_545 S
C210 C211 1.502 1_545 S
C210 C212 1.561 1_545 S
C210 C213 1.526 . S
C211 H195 0.959 1_565 S
C211 H196 0.959 1_565 S
C211 H197 0.961 . S
C211 C210 1.502 1_565 S
C212 H198 0.960 . S
C212 H199 0.961 . S
C212 H200 0.959 . S
C212 C210 1.561 1_565 S
C213 C210 1.526 . S
C213 C214 1.396 . S
C213 C218 1.390 . S
C214 C208 1.465 . S
C214 C213 1.396 . S
C214 C215 1.399 . S
C215 H201 0.929 . S
C215 C214 1.399 . S
C215 C216 1.385 . S
C216 H202 0.931 . S
C216 C215 1.385 . S
C216 C217 1.389 . S
C217 C216 1.389 . S
C217 C218 1.387 . S
C218 H203 0.930 . S
C218 C213 1.390 . S
C218 C217 1.387 . S
H219 C231 0.930 . S
H220 C233 0.930 . S
H221 C234 0.930 . S
H222 C238 0.959 . S
H223 C238 0.959 . S
H224 C238 0.961 . S
H225 C239 0.960 . S
H226 C239 0.961 . S
H227 C239 0.959 . S
H228 C242 0.929 . S
H229 C243 0.931 . S
H230 C245 0.930 . S
C231 H219 0.930 . S
C231 C232 1.399 . S
C231 C236 1.399 . S
C232 C231 1.399 . S
C232 C233 1.376 . S
C233 H220 0.930 . S
C233 C232 1.376 . S
C233 C234 1.388 . S
C234 H221 0.930 . S
C234 C233 1.388 . S
C234 C235 1.390 . S
C235 C234 1.390 . S
C235 C236 1.394 . S
C235 C241 1.465 . S
C236 C231 1.399 . S
C236 C235 1.394 . S
C236 C237 1.516 . S
C237 C236 1.516 . S
C237 C238 1.502 . S
C237 C239 1.561 . S
C237 C240 1.526 . S
C238 H222 0.959 . S
C238 H223 0.959 . S
C238 H224 0.961 . S
C238 C237 1.502 . S
C239 H225 0.960 . S
C239 H226 0.961 . S
C239 H227 0.959 . S
C239 C237 1.561 . S
C240 C237 1.526 . S
C240 C241 1.396 . S
C240 C245 1.390 . S
C241 C235 1.465 . S
C241 C240 1.396 . S
C241 C242 1.399 . S
C242 H228 0.929 . S
C242 C241 1.399 . S
C242 C243 1.385 . S
C243 H229 0.931 . S
C243 C242 1.385 . S
C243 C244 1.389 . S
C244 C243 1.389 . S
C244 C245 1.387 . S
C245 H230 0.930 . S
C245 C240 1.390 . S
C245 C244 1.387 . S
H246 C258 0.930 1_565 S
H247 C260 0.930 . S
H248 C261 0.930 . S
H249 C265 0.959 . S
H250 C265 0.959 . S
H251 C265 0.961 . S
H252 C266 0.960 . S
H253 C266 0.961 . S
H254 C266 0.959 . S
H255 C269 0.929 . S
H256 C270 0.931 . S
H257 C272 0.930 . S
C258 H246 0.930 1_545 S
C258 C259 1.399 . S
C258 C263 1.399 1_545 S
C259 C258 1.399 . S
C259 C260 1.376 . S
C260 H247 0.930 . S
C260 C259 1.376 . S
C260 C261 1.388 . S
C261 H248 0.930 . S
C261 C260 1.388 . S
C261 C262 1.390 1_545 S
C262 C261 1.390 1_565 S
C262 C263 1.394 . S
C262 C268 1.465 . S
C263 C258 1.399 1_565 S
C263 C262 1.394 . S
C263 C264 1.516 . S
C264 C263 1.516 . S
C264 C265 1.502 . S
C264 C266 1.561 . S
C264 C267 1.526 . S
C265 H249 0.959 . S
C265 H250 0.959 . S
C265 H251 0.961 . S
C265 C264 1.502 . S
C266 H252 0.960 . S
C266 H253 0.961 . S
C266 H254 0.959 . S
C266 C264 1.561 . S
C267 C264 1.526 . S
C267 C268 1.396 . S
C267 C272 1.390 . S
C268 C262 1.465 . S
C268 C267 1.396 . S
C268 C269 1.399 . S
C269 H255 0.929 . S
C269 C268 1.399 . S
C269 C270 1.385 . S
C270 H256 0.931 . S
C270 C269 1.385 . S
C270 C271 1.389 . S
C271 C270 1.389 . S
C271 C272 1.387 . S
C272 H257 0.930 . S
C272 C267 1.390 . S
C272 C271 1.387 . S
H273 C285 0.930 . S
H274 C287 0.930 . S
H275 C288 0.930 . S
H276 C292 0.959 . S
H277 C292 0.959 . S
H278 C292 0.961 . S
H279 C293 0.960 . S
H280 C293 0.961 . S
H281 C293 0.959 . S
H282 C296 0.929 . S
H283 C297 0.931 . S
H284 C299 0.930 . S
C285 H273 0.930 . S
C285 C286 1.399 . S
C285 C290 1.399 . S
C286 C285 1.399 . S
C286 C287 1.376 . S
C287 H274 0.930 . S
C287 C286 1.376 . S
C287 C288 1.388 . S
C288 H275 0.930 . S
C288 C287 1.388 . S
C288 C289 1.390 . S
C289 C288 1.390 . S
C289 C290 1.394 . S
C289 C295 1.465 . S
C290 C285 1.399 . S
C290 C289 1.394 . S
C290 C291 1.516 . S
C291 C290 1.516 . S
C291 C292 1.502 . S
C291 C293 1.561 . S
C291 C294 1.526 . S
C292 H276 0.959 . S
C292 H277 0.959 . S
C292 H278 0.961 . S
C292 C291 1.502 . S
C293 H279 0.960 . S
C293 H280 0.961 . S
C293 H281 0.959 . S
C293 C291 1.561 . S
C294 C291 1.526 . S
C294 C295 1.396 . S
C294 C299 1.390 . S
C295 C289 1.465 . S
C295 C294 1.396 . S
C295 C296 1.399 . S
C296 H282 0.929 . S
C296 C295 1.399 . S
C296 C297 1.385 . S
C297 H283 0.931 . S
C297 C296 1.385 . S
C297 C298 1.389 . S
C298 C297 1.389 . S
C298 C299 1.387 . S
C299 H284 0.930 . S
C299 C294 1.390 . S
C299 C298 1.387 . S
H300 C312 0.930 . S
H301 C314 0.930 . S
H302 C315 0.930 . S
H303 C319 0.959 . S
H304 C319 0.959 . S
H305 C319 0.961 . S
H306 C320 0.960 . S
H307 C320 0.961 . S
H308 C320 0.959 . S
H309 C323 0.929 . S
H310 C324 0.931 . S
H311 C326 0.930 . S
C312 H300 0.930 . S
C312 C313 1.399 . S
C312 C317 1.399 . S
C313 C312 1.399 . S
C313 C314 1.376 . S
C314 H301 0.930 . S
C314 C313 1.376 . S
C314 C315 1.388 . S
C315 H302 0.930 . S
C315 C314 1.388 . S
C315 C316 1.390 . S
C316 C315 1.390 . S
C316 C317 1.394 . S
C316 C322 1.465 . S
C317 C312 1.399 . S
C317 C316 1.394 . S
C317 C318 1.516 . S
C318 C317 1.516 . S
C318 C319 1.502 . S
C318 C320 1.561 . S
C318 C321 1.526 . S
C319 H303 0.959 . S
C319 H304 0.959 . S
C319 H305 0.961 . S
C319 C318 1.502 . S
C320 H306 0.960 . S
C320 H307 0.961 . S
C320 H308 0.959 . S
C320 C318 1.561 . S
C321 C318 1.526 . S
C321 C322 1.396 . S
C321 C326 1.390 . S
C322 C316 1.465 . S
C322 C321 1.396 . S
C322 C323 1.399 . S
C323 H309 0.929 . S
C323 C322 1.399 . S
C323 C324 1.385 . S
C324 H310 0.931 . S
C324 C323 1.385 . S
C324 C325 1.389 . S
C325 C324 1.389 . S
C325 C326 1.387 . S
C326 H311 0.930 . S
C326 C321 1.390 . S
C326 C325 1.387 . S
H327 C339 0.930 . S
H328 C341 0.930 . S
H329 C342 0.930 . S
H330 C346 0.959 . S
H331 C346 0.959 . S
H332 C346 0.961 . S
H333 C347 0.960 . S
H334 C347 0.961 . S
H335 C347 0.959 . S
H336 C350 0.929 . S
H337 C351 0.931 . S
H338 C353 0.930 . S
C339 H327 0.930 . S
C339 C340 1.399 . S
C339 C344 1.399 1_655 S
C340 C339 1.399 . S
C340 C341 1.376 . S
C341 H328 0.930 . S
C341 C340 1.376 . S
C341 C342 1.388 1_655 S
C342 H329 0.930 . S
C342 C341 1.388 1_455 S
C342 C343 1.390 . S
C343 C342 1.390 . S
C343 C344 1.394 . S
C343 C349 1.465 . S
C344 C339 1.399 1_455 S
C344 C343 1.394 . S
C344 C345 1.516 . S
C345 C344 1.516 . S
C345 C346 1.502 . S
C345 C347 1.561 . S
C345 C348 1.526 . S
C346 H330 0.959 . S
C346 H331 0.959 . S
C346 H332 0.961 . S
C346 C345 1.502 . S
C347 H333 0.960 . S
C347 H334 0.961 . S
C347 H335 0.959 . S
C347 C345 1.561 . S
C348 C345 1.526 . S
C348 C349 1.396 . S
C348 C353 1.390 . S
C349 C343 1.465 . S
C349 C348 1.396 . S
C349 C350 1.399 . S
C350 H336 0.929 . S
C350 C349 1.399 . S
C350 C351 1.385 . S
C351 H337 0.931 . S
C351 C350 1.385 . S
C351 C352 1.389 . S
C352 C351 1.389 . S
C352 C353 1.387 . S
C353 H338 0.930 . S
C353 C348 1.390 . S
C353 C352 1.387 . S
H354 C366 0.930 . S
H355 C368 0.930 . S
H356 C369 0.930 . S
H357 C373 0.959 . S
H358 C373 0.959 . S
H359 C373 0.961 . S
H360 C374 0.960 . S
H361 C374 0.961 . S
H362 C374 0.959 . S
H363 C377 0.929 . S
H364 C378 0.931 . S
H365 C380 0.930 . S
C366 H354 0.930 . S
C366 C367 1.399 . S
C366 C371 1.399 . S
C367 C366 1.399 . S
C367 C368 1.376 . S
C368 H355 0.930 . S
C368 C367 1.376 . S
C368 C369 1.388 . S
C369 H356 0.930 . S
C369 C368 1.388 . S
C369 C370 1.390 . S
C370 C369 1.390 . S
C370 C371 1.394 . S
C370 C376 1.465 . S
C371 C366 1.399 . S
C371 C370 1.394 . S
C371 C372 1.516 . S
C372 C371 1.516 . S
C372 C373 1.502 . S
C372 C374 1.561 . S
C372 C375 1.526 . S
C373 H357 0.959 . S
C373 H358 0.959 . S
C373 H359 0.961 . S
C373 C372 1.502 . S
C374 H360 0.960 . S
C374 H361 0.961 . S
C374 H362 0.959 . S
C374 C372 1.561 . S
C375 C372 1.526 . S
C375 C376 1.396 . S
C375 C380 1.390 . S
C376 C370 1.465 . S
C376 C375 1.396 . S
C376 C377 1.399 . S
C377 H363 0.929 . S
C377 C376 1.399 . S
C377 C378 1.385 . S
C378 H364 0.931 . S
C378 C377 1.385 . S
C378 C379 1.389 . S
C379 C378 1.389 . S
C379 C380 1.387 . S
C380 H365 0.930 . S
C380 C375 1.390 . S
C380 C379 1.387 . S
H381 C393 0.930 . S
H382 C395 0.930 . S
H383 C396 0.930 1_655 S
H384 C400 0.959 . S
H385 C400 0.959 . S
H386 C400 0.961 . S
H387 C401 0.960 . S
H388 C401 0.961 . S
H389 C401 0.959 . S
H390 C404 0.929 . S
H391 C405 0.931 . S
H392 C407 0.930 . S
C393 H381 0.930 . S
C393 C394 1.399 . S
C393 C398 1.399 . S
C394 C393 1.399 . S
C394 C395 1.376 . S
C395 H382 0.930 . S
C395 C394 1.376 . S
C395 C396 1.388 . S
C396 H383 0.930 1_455 S
C396 C395 1.388 . S
C396 C397 1.390 1_455 S
C397 C396 1.390 1_655 S
C397 C398 1.394 1_655 S
C397 C403 1.465 . S
C398 C393 1.399 . S
C398 C397 1.394 1_455 S
C398 C399 1.516 1_455 S
C399 C398 1.516 1_655 S
C399 C400 1.502 1_655 S
C399 C401 1.561 . S
C399 C402 1.526 . S
C400 H384 0.959 . S
C400 H385 0.959 . S
C400 H386 0.961 . S
C400 C399 1.502 1_455 S
C401 H387 0.960 . S
C401 H388 0.961 . S
C401 H389 0.959 . S
C401 C399 1.561 . S
C402 C399 1.526 . S
C402 C403 1.396 . S
C402 C407 1.390 . S
C403 C397 1.465 . S
C403 C402 1.396 . S
C403 C404 1.399 . S
C404 H390 0.929 . S
C404 C403 1.399 . S
C404 C405 1.385 . S
C405 H391 0.931 . S
C405 C404 1.385 . S
C405 C406 1.389 . S
C406 C405 1.389 . S
C406 C407 1.387 . S
C407 H392 0.930 . S
C407 C402 1.390 . S
C407 C406 1.387 . S
H408 C420 0.930 . S
H409 C422 0.930 . S
H410 C423 0.930 . S
H411 C427 0.959 . S
H412 C427 0.959 . S
H413 C427 0.961 . S
H414 C428 0.960 . S
H415 C428 0.961 . S
H416 C428 0.959 . S
H417 C431 0.929 . S
H418 C432 0.931 . S
H419 C434 0.930 . S
C420 H408 0.930 . S
C420 C421 1.399 . S
C420 C425 1.399 1_545 S
C421 C420 1.399 . S
C421 C422 1.376 . S
C422 H409 0.930 . S
C422 C421 1.376 . S
C422 C423 1.388 . S
C423 H410 0.930 . S
C423 C422 1.388 . S
C423 C424 1.390 1_545 S
C424 C423 1.390 1_565 S
C424 C425 1.394 . S
C424 C430 1.465 . S
C425 C420 1.399 1_565 S
C425 C424 1.394 . S
C425 C426 1.516 . S
C426 C425 1.516 . S
C426 C427 1.502 . S
C426 C428 1.561 . S
C426 C429 1.526 . S
C427 H411 0.959 . S
C427 H412 0.959 . S
C427 H413 0.961 . S
C427 C426 1.502 . S
C428 H414 0.960 . S
C428 H415 0.961 . S
C428 H416 0.959 . S
C428 C426 1.561 . S
C429 C426 1.526 . S
C429 C430 1.396 . S
C429 C434 1.390 . S
C430 C424 1.465 . S
C430 C429 1.396 . S
C430 C431 1.399 . S
C431 H417 0.929 . S
C431 C430 1.399 . S
C431 C432 1.385 . S
C432 H418 0.931 . S
C432 C431 1.385 . S
C432 C433 1.389 . S
C433 C432 1.389 . S
C433 C434 1.387 . S
C434 H419 0.930 . S
C434 C429 1.390 . S
C434 C433 1.387 . S
H435 C447 0.930 . S
H436 C449 0.930 . S
H437 C450 0.930 . S
H438 C454 0.959 . S
H439 C454 0.959 . S
H440 C454 0.961 . S
H441 C455 0.960 . S
H442 C455 0.961 . S
H443 C455 0.959 . S
H444 C458 0.929 . S
H445 C459 0.931 . S
H446 C461 0.930 . S
C447 H435 0.930 . S
C447 C448 1.399 . S
C447 C452 1.399 . S
C448 C447 1.399 . S
C448 C449 1.376 . S
C449 H436 0.930 . S
C449 C448 1.376 . S
C449 C450 1.388 . S
C450 H437 0.930 . S
C450 C449 1.388 . S
C450 C451 1.390 . S
C451 C450 1.390 . S
C451 C452 1.394 . S
C451 C457 1.465 . S
C452 C447 1.399 . S
C452 C451 1.394 . S
C452 C453 1.516 . S
C453 C452 1.516 . S
C453 C454 1.502 . S
C453 C455 1.561 . S
C453 C456 1.526 . S
C454 H438 0.959 . S
C454 H439 0.959 . S
C454 H440 0.961 . S
C454 C453 1.502 . S
C455 H441 0.960 . S
C455 H442 0.961 . S
C455 H443 0.959 . S
C455 C453 1.561 . S
C456 C453 1.526 . S
C456 C457 1.396 . S
C456 C461 1.390 . S
C457 C451 1.465 . S
C457 C456 1.396 . S
C457 C458 1.399 . S
C458 H444 0.929 . S
C458 C457 1.399 . S
C458 C459 1.385 . S
C459 H445 0.931 . S
C459 C458 1.385 . S
C459 C460 1.389 . S
C460 C459 1.389 . S
C460 C461 1.387 . S
C461 H446 0.930 . S
C461 C456 1.390 . S
C461 C460 1.387 . S
H462 C474 0.930 1_544 S
H463 C476 0.930 . S
H464 C477 0.930 . S
H465 C481 0.959 . S
H466 C481 0.959 . S
H467 C481 0.961 1_554 S
H468 C482 0.960 1_554 S
H469 C482 0.961 . S
H470 C482 0.959 . S
H471 C485 0.929 . S
H472 C486 0.931 . S
H473 C488 0.930 . S
C474 H462 0.930 1_566 S
C474 C475 1.399 . S
C474 C479 1.399 1_565 S
C475 C474 1.399 . S
C475 C476 1.376 . S
C476 H463 0.930 . S
C476 C475 1.376 . S
C476 C477 1.388 . S
C477 H464 0.930 . S
C477 C476 1.388 . S
C477 C478 1.390 1_565 S
C478 C477 1.390 1_545 S
C478 C479 1.394 . S
C478 C484 1.465 . S
C479 C474 1.399 1_545 S
C479 C478 1.394 . S
C479 C480 1.516 . S
C480 C479 1.516 . S
C480 C481 1.502 . S
C480 C482 1.561 . S
C480 C483 1.526 . S
C481 H465 0.959 . S
C481 H466 0.959 . S
C481 H467 0.961 1_556 S
C481 C480 1.502 . S
C482 H468 0.960 1_556 S
C482 H469 0.961 . S
C482 H470 0.959 . S
C482 C480 1.561 . S
C483 C480 1.526 . S
C483 C484 1.396 . S
C483 C488 1.390 . S
C484 C478 1.465 . S
C484 C483 1.396 . S
C484 C485 1.399 . S
C485 H471 0.929 . S
C485 C484 1.399 . S
C485 C486 1.385 . S
C486 H472 0.931 . S
C486 C485 1.385 . S
C486 C487 1.389 . S
C487 C486 1.389 . S
C487 C488 1.387 . S
C488 H473 0.930 . S
C488 C483 1.390 . S
C488 C487 1.387 . S
H489 C501 0.930 . S
H490 C503 0.930 . S
H491 C504 0.930 . S
H492 C508 0.959 . S
H493 C508 0.959 . S
H494 C508 0.961 . S
H495 C509 0.960 . S
H496 C509 0.961 . S
H497 C509 0.959 . S
H498 C512 0.929 . S
H499 C513 0.931 . S
H500 C515 0.930 . S
C501 H489 0.930 . S
C501 C502 1.399 . S
C501 C506 1.399 . S
C502 C501 1.399 . S
C502 C503 1.376 . S
C503 H490 0.930 . S
C503 C502 1.376 . S
C503 C504 1.388 . S
C504 H491 0.930 . S
C504 C503 1.388 . S
C504 C505 1.390 . S
C505 C504 1.390 . S
C505 C506 1.394 . S
C505 C511 1.465 . S
C506 C501 1.399 . S
C506 C505 1.394 . S
C506 C507 1.516 . S
C507 C506 1.516 . S
C507 C508 1.502 . S
C507 C509 1.561 . S
C507 C510 1.526 . S
C508 H492 0.959 . S
C508 H493 0.959 . S
C508 H494 0.961 . S
C508 C507 1.502 . S
C509 H495 0.960 . S
C509 H496 0.961 . S
C509 H497 0.959 . S
C509 C507 1.561 . S
C510 C507 1.526 . S
C510 C511 1.396 . S
C510 C515 1.390 . S
C511 C505 1.465 . S
C511 C510 1.396 . S
C511 C512 1.399 . S
C512 H498 0.929 . S
C512 C511 1.399 . S
C512 C513 1.385 . S
C513 H499 0.931 . S
C513 C512 1.385 . S
C513 C514 1.389 . S
C514 C513 1.389 . S
C514 C515 1.387 . S
C515 H500 0.930 . S
C515 C510 1.390 . S
C515 C514 1.387 . S
H516 C528 0.930 . S
H517 C530 0.930 . S
H518 C531 0.930 . S
H519 C535 0.959 . S
H520 C535 0.959 . S
H521 C535 0.961 . S
H522 C536 0.960 . S
H523 C536 0.961 . S
H524 C536 0.959 . S
H525 C539 0.929 . S
H526 C540 0.931 . S
H527 C542 0.930 . S
C528 H516 0.930 . S
C528 C529 1.399 . S
C528 C533 1.399 . S
C529 C528 1.399 . S
C529 C530 1.376 . S
C530 H517 0.930 . S
C530 C529 1.376 . S
C530 C531 1.388 . S
C531 H518 0.930 . S
C531 C530 1.388 . S
C531 C532 1.390 . S
C532 C531 1.390 . S
C532 C533 1.394 . S
C532 C538 1.465 . S
C533 C528 1.399 . S
C533 C532 1.394 . S
C533 C534 1.516 . S
C534 C533 1.516 . S
C534 C535 1.502 . S
C534 C536 1.561 . S
C534 C537 1.526 . S
C535 H519 0.959 . S
C535 H520 0.959 . S
C535 H521 0.961 . S
C535 C534 1.502 . S
C536 H522 0.960 . S
C536 H523 0.961 . S
C536 H524 0.959 . S
C536 C534 1.561 . S
C537 C534 1.526 . S
C537 C538 1.396 . S
C537 C542 1.390 . S
C538 C532 1.465 . S
C538 C537 1.396 . S
C538 C539 1.399 . S
C539 H525 0.929 . S
C539 C538 1.399 . S
C539 C540 1.385 . S
C540 H526 0.931 . S
C540 C539 1.385 . S
C540 C541 1.389 . S
C541 C540 1.389 . S
C541 C542 1.387 . S
C542 H527 0.930 . S
C542 C537 1.390 . S
C542 C541 1.387 . S
H543 C555 0.930 . S
H544 C557 0.930 . S
H545 C558 0.930 . S
H546 C562 0.959 . S
H547 C562 0.959 . S
H548 C562 0.961 . S
H549 C563 0.960 . S
H550 C563 0.961 . S
H551 C563 0.959 . S
H552 C566 0.929 . S
H553 C567 0.931 . S
H554 C569 0.930 . S
C555 H543 0.930 . S
C555 C556 1.399 . S
C555 C560 1.399 1_455 S
C556 C555 1.399 . S
C556 C557 1.376 . S
C557 H544 0.930 . S
C557 C556 1.376 . S
C557 C558 1.388 1_455 S
C558 H545 0.930 . S
C558 C557 1.388 1_655 S
C558 C559 1.390 . S
C559 C558 1.390 . S
C559 C560 1.394 . S
C559 C565 1.465 . S
C560 C555 1.399 1_655 S
C560 C559 1.394 . S
C560 C561 1.516 . S
C561 C560 1.516 . S
C561 C562 1.502 . S
C561 C563 1.561 . S
C561 C564 1.526 . S
C562 H546 0.959 . S
C562 H547 0.959 . S
C562 H548 0.961 . S
C562 C561 1.502 . S
C563 H549 0.960 . S
C563 H550 0.961 . S
C563 H551 0.959 . S
C563 C561 1.561 . S
C564 C561 1.526 . S
C564 C565 1.396 . S
C564 C569 1.390 . S
C565 C559 1.465 . S
C565 C564 1.396 . S
C565 C566 1.399 . S
C566 H552 0.929 . S
C566 C565 1.399 . S
C566 C567 1.385 . S
C567 H553 0.931 . S
C567 C566 1.385 . S
C567 C568 1.389 . S
C568 C567 1.389 . S
C568 C569 1.387 . S
C569 H554 0.930 . S
C569 C564 1.390 . S
C569 C568 1.387 . S
H570 C582 0.930 . S
H571 C584 0.930 . S
H572 C585 0.930 . S
H573 C589 0.959 . S
H574 C589 0.959 . S
H575 C589 0.961 . S
H576 C590 0.960 . S
H577 C590 0.961 . S
H578 C590 0.959 . S
H579 C593 0.929 . S
H580 C594 0.931 . S
H581 C596 0.930 . S
C582 H570 0.930 . S
C582 C583 1.399 . S
C582 C587 1.399 . S
C583 C582 1.399 . S
C583 C584 1.376 . S
C584 H571 0.930 . S
C584 C583 1.376 . S
C584 C585 1.388 . S
C585 H572 0.930 . S
C585 C584 1.388 . S
C585 C586 1.390 . S
C586 C585 1.390 . S
C586 C587 1.394 . S
C586 C592 1.465 . S
C587 C582 1.399 . S
C587 C586 1.394 . S
C587 C588 1.516 . S
C588 C587 1.516 . S
C588 C589 1.502 . S
C588 C590 1.561 . S
C588 C591 1.526 . S
C589 H573 0.959 . S
C589 H574 0.959 . S
C589 H575 0.961 . S
C589 C588 1.502 . S
C590 H576 0.960 . S
C590 H577 0.961 . S
C590 H578 0.959 . S
C590 C588 1.561 . S
C591 C588 1.526 . S
C591 C592 1.396 . S
C591 C596 1.390 . S
C592 C586 1.465 . S
C592 C591 1.396 . S
C592 C593 1.399 . S
C593 H579 0.929 . S
C593 C592 1.399 . S
C593 C594 1.385 . S
C594 H580 0.931 . S
C594 C593 1.385 . S
C594 C595 1.389 . S
C595 C594 1.389 . S
C595 C596 1.387 . S
C596 H581 0.930 . S
C596 C591 1.390 . S
C596 C595 1.387 . S
H597 C609 0.930 . S
H598 C611 0.930 . S
H599 C612 0.930 . S
H600 C616 0.959 . S
H601 C616 0.959 . S
H602 C616 0.961 . S
H603 C617 0.960 . S
H604 C617 0.961 . S
H605 C617 0.959 . S
H606 C620 0.929 . S
H607 C621 0.931 . S
H608 C623 0.930 . S
C609 H597 0.930 . S
C609 C610 1.399 . S
C609 C614 1.399 . S
C610 C609 1.399 . S
C610 C611 1.376 . S
C611 H598 0.930 . S
C611 C610 1.376 . S
C611 C612 1.388 1_655 S
C612 H599 0.930 . S
C612 C611 1.388 1_455 S
C612 C613 1.390 . S
C613 C612 1.390 . S
C613 C614 1.394 1_455 S
C613 C619 1.465 . S
C614 C609 1.399 . S
C614 C613 1.394 1_655 S
C614 C615 1.516 . S
C615 C614 1.516 . S
C615 C616 1.502 . S
C615 C617 1.561 . S
C615 C618 1.526 1_655 S
C616 H600 0.959 . S
C616 H601 0.959 . S
C616 H602 0.961 . S
C616 C615 1.502 . S
C617 H603 0.960 . S
C617 H604 0.961 . S
C617 H605 0.959 . S
C617 C615 1.561 . S
C618 C615 1.526 1_455 S
C618 C619 1.396 . S
C618 C623 1.390 . S
C619 C613 1.465 . S
C619 C618 1.396 . S
C619 C620 1.399 . S
C620 H606 0.929 . S
C620 C619 1.399 . S
C620 C621 1.385 . S
C621 H607 0.931 . S
C621 C620 1.385 . S
C621 C622 1.389 . S
C622 C621 1.389 . S
C622 C623 1.387 . S
C623 H608 0.930 . S
C623 C618 1.390 . S
C623 C622 1.387 . S
H624 C636 0.930 . S
H625 C638 0.930 . S
H626 C639 0.930 . S
H627 C643 0.959 . S
H628 C643 0.959 . S
H629 C643 0.961 . S
H630 C644 0.960 . S
H631 C644 0.961 . S
H632 C644 0.959 . S
H633 C647 0.929 . S
H634 C648 0.931 . S
H635 C650 0.930 . S
C636 H624 0.930 . S
C636 C637 1.399 . S
C636 C641 1.399 . S
C637 C636 1.399 . S
C637 C638 1.376 . S
C638 H625 0.930 . S
C638 C637 1.376 . S
C638 C639 1.388 . S
C639 H626 0.930 . S
C639 C638 1.388 . S
C639 C640 1.390 . S
C640 C639 1.390 . S
C640 C641 1.394 . S
C640 C646 1.465 . S
C641 C636 1.399 . S
C641 C640 1.394 . S
C641 C642 1.516 . S
C642 C641 1.516 . S
C642 C643 1.502 . S
C642 C644 1.561 . S
C642 C645 1.526 . S
C643 H627 0.959 . S
C643 H628 0.959 . S
C643 H629 0.961 . S
C643 C642 1.502 . S
C644 H630 0.960 . S
C644 H631 0.961 . S
C644 H632 0.959 . S
C644 C642 1.561 . S
C645 C642 1.526 . S
C645 C646 1.396 . S
C645 C650 1.390 . S
C646 C640 1.465 . S
C646 C645 1.396 . S
C646 C647 1.399 . S
C647 H633 0.929 . S
C647 C646 1.399 . S
C647 C648 1.385 . S
C648 H634 0.931 . S
C648 C647 1.385 . S
C648 C649 1.389 . S
C649 C648 1.389 . S
C649 C650 1.387 . S
C650 H635 0.930 . S
C650 C645 1.390 . S
C650 C649 1.387 . S
H651 C663 0.930 . S
H652 C665 0.930 . S
H653 C666 0.930 . S
H654 C670 0.959 . S
H655 C670 0.959 . S
H656 C670 0.961 . S
H657 C671 0.960 . S
H658 C671 0.961 . S
H659 C671 0.959 . S
H660 C674 0.929 . S
H661 C675 0.931 . S
H662 C677 0.930 . S
C663 H651 0.930 . S
C663 C664 1.399 . S
C663 C668 1.399 . S
C664 C663 1.399 . S
C664 C665 1.376 . S
C665 H652 0.930 . S
C665 C664 1.376 . S
C665 C666 1.388 . S
C666 H653 0.930 . S
C666 C665 1.388 . S
C666 C667 1.390 . S
C667 C666 1.390 . S
C667 C668 1.394 . S
C667 C673 1.465 . S
C668 C663 1.399 . S
C668 C667 1.394 . S
C668 C669 1.516 . S
C669 C668 1.516 . S
C669 C670 1.502 . S
C669 C671 1.561 . S
C669 C672 1.526 . S
C670 H654 0.959 . S
C670 H655 0.959 . S
C670 H656 0.961 . S
C670 C669 1.502 . S
C671 H657 0.960 . S
C671 H658 0.961 . S
C671 H659 0.959 . S
C671 C669 1.561 . S
C672 C669 1.526 . S
C672 C673 1.396 . S
C672 C677 1.390 . S
C673 C667 1.465 . S
C673 C672 1.396 . S
C673 C674 1.399 . S
C674 H660 0.929 . S
C674 C673 1.399 . S
C674 C675 1.385 . S
C675 H661 0.931 . S
C675 C674 1.385 . S
C675 C676 1.389 . S
C676 C675 1.389 . S
C676 C677 1.387 . S
C677 H662 0.930 . S
C677 C672 1.390 . S
C677 C676 1.387 . S
H678 C690 0.930 . S
H679 C692 0.930 . S
H680 C693 0.930 . S
H681 C697 0.959 . S
H682 C697 0.959 . S
H683 C697 0.961 . S
H684 C698 0.960 . S
H685 C698 0.961 . S
H686 C698 0.959 . S
H687 C701 0.929 . S
H688 C702 0.931 . S
H689 C704 0.930 . S
C690 H678 0.930 . S
C690 C691 1.399 . S
C690 C695 1.399 . S
C691 C690 1.399 . S
C691 C692 1.376 . S
C692 H679 0.930 . S
C692 C691 1.376 . S
C692 C693 1.388 . S
C693 H680 0.930 . S
C693 C692 1.388 . S
C693 C694 1.390 . S
C694 C693 1.390 . S
C694 C695 1.394 . S
C694 C700 1.465 . S
C695 C690 1.399 . S
C695 C694 1.394 . S
C695 C696 1.516 . S
C696 C695 1.516 . S
C696 C697 1.502 . S
C696 C698 1.561 . S
C696 C699 1.526 . S
C697 H681 0.959 . S
C697 H682 0.959 . S
C697 H683 0.961 . S
C697 C696 1.502 . S
C698 H684 0.960 . S
C698 H685 0.961 . S
C698 H686 0.959 . S
C698 C696 1.561 . S
C699 C696 1.526 . S
C699 C700 1.396 . S
C699 C704 1.390 . S
C700 C694 1.465 . S
C700 C699 1.396 . S
C700 C701 1.399 . S
C701 H687 0.929 . S
C701 C700 1.399 . S
C701 C702 1.385 . S
C702 H688 0.931 . S
C702 C701 1.385 . S
C702 C703 1.389 . S
C703 C702 1.389 . S
C703 C704 1.387 . S
C704 H689 0.930 . S
C704 C699 1.390 . S
C704 C703 1.387 . S
H705 C717 0.930 . S
H706 C719 0.930 . S
H707 C720 0.930 . S
H708 C724 0.959 . S
H709 C724 0.959 . S
H710 C724 0.961 . S
H711 C725 0.960 . S
H712 C725 0.961 . S
H713 C725 0.959 . S
H714 C728 0.929 . S
H715 C729 0.931 . S
H716 C731 0.930 . S
C717 H705 0.930 . S
C717 C718 1.399 . S
C717 C722 1.399 . S
C718 C717 1.399 . S
C718 C719 1.376 . S
C719 H706 0.930 . S
C719 C718 1.376 . S
C719 C720 1.388 . S
C720 H707 0.930 . S
C720 C719 1.388 . S
C720 C721 1.390 . S
C721 C720 1.390 . S
C721 C722 1.394 . S
C721 C727 1.465 . S
C722 C717 1.399 . S
C722 C721 1.394 . S
C722 C723 1.516 . S
C723 C722 1.516 . S
C723 C724 1.502 . S
C723 C725 1.561 . S
C723 C726 1.526 . S
C724 H708 0.959 . S
C724 H709 0.959 . S
C724 H710 0.961 . S
C724 C723 1.502 . S
C725 H711 0.960 . S
C725 H712 0.961 . S
C725 H713 0.959 . S
C725 C723 1.561 . S
C726 C723 1.526 . S
C726 C727 1.396 . S
C726 C731 1.390 . S
C727 C721 1.465 . S
C727 C726 1.396 . S
C727 C728 1.399 . S
C728 H714 0.929 . S
C728 C727 1.399 . S
C728 C729 1.385 . S
C729 H715 0.931 . S
C729 C728 1.385 . S
C729 C730 1.389 . S
C730 C729 1.389 . S
C730 C731 1.387 . S
C731 H716 0.930 . S
C731 C726 1.390 . S
C731 C730 1.387 . S
H732 C744 0.930 . S
H733 C746 0.930 . S
H734 C747 0.930 . S
H735 C751 0.959 . S
H736 C751 0.959 . S
H737 C751 0.961 . S
H738 C752 0.960 . S
H739 C752 0.961 . S
H740 C752 0.959 . S
H741 C755 0.929 . S
H742 C756 0.931 . S
H743 C758 0.930 . S
C744 H732 0.930 . S
C744 C745 1.399 . S
C744 C749 1.399 . S
C745 C744 1.399 . S
C745 C746 1.376 . S
C746 H733 0.930 . S
C746 C745 1.376 . S
C746 C747 1.388 . S
C747 H734 0.930 . S
C747 C746 1.388 . S
C747 C748 1.390 . S
C748 C747 1.390 . S
C748 C749 1.394 . S
C748 C754 1.465 . S
C749 C744 1.399 . S
C749 C748 1.394 . S
C749 C750 1.516 . S
C750 C749 1.516 . S
C750 C751 1.502 . S
C750 C752 1.561 . S
C750 C753 1.526 . S
C751 H735 0.959 . S
C751 H736 0.959 . S
C751 H737 0.961 . S
C751 C750 1.502 . S
C752 H738 0.960 . S
C752 H739 0.961 . S
C752 H740 0.959 . S
C752 C750 1.561 . S
C753 C750 1.526 . S
C753 C754 1.396 . S
C753 C758 1.390 . S
C754 C748 1.465 . S
C754 C753 1.396 . S
C754 C755 1.399 . S
C755 H741 0.929 . S
C755 C754 1.399 . S
C755 C756 1.385 . S
C756 H742 0.931 . S
C756 C755 1.385 . S
C756 C757 1.389 . S
C757 C756 1.389 . S
C757 C758 1.387 . S
C758 H743 0.930 . S
C758 C753 1.390 . S
C758 C757 1.387 . S
H759 C771 0.930 . S
H760 C773 0.930 . S
H761 C774 0.930 . S
H762 C778 0.959 . S
H763 C778 0.959 . S
H764 C778 0.961 . S
H765 C779 0.960 . S
H766 C779 0.961 . S
H767 C779 0.959 . S
H768 C782 0.929 . S
H769 C783 0.931 . S
H770 C785 0.930 . S
C771 H759 0.930 . S
C771 C772 1.399 . S
C771 C776 1.399 . S
C772 C771 1.399 . S
C772 C773 1.376 . S
C773 H760 0.930 . S
C773 C772 1.376 . S
C773 C774 1.388 . S
C774 H761 0.930 . S
C774 C773 1.388 . S
C774 C775 1.390 . S
C775 C774 1.390 . S
C775 C776 1.394 . S
C775 C781 1.465 . S
C776 C771 1.399 . S
C776 C775 1.394 . S
C776 C777 1.516 . S
C777 C776 1.516 . S
C777 C778 1.502 . S
C777 C779 1.561 . S
C777 C780 1.526 . S
C778 H762 0.959 . S
C778 H763 0.959 . S
C778 H764 0.961 . S
C778 C777 1.502 . S
C779 H765 0.960 . S
C779 H766 0.961 . S
C779 H767 0.959 . S
C779 C777 1.561 . S
C780 C777 1.526 . S
C780 C781 1.396 . S
C780 C785 1.390 . S
C781 C775 1.465 . S
C781 C780 1.396 . S
C781 C782 1.399 . S
C782 H768 0.929 . S
C782 C781 1.399 . S
C782 C783 1.385 . S
C783 H769 0.931 . S
C783 C782 1.385 . S
C783 C784 1.389 . S
C784 C783 1.389 . S
C784 C785 1.387 . S
C785 H770 0.930 . S
C785 C780 1.390 . S
C785 C784 1.387 . S
H786 C798 0.930 . S
H787 C800 0.930 . S
H788 C801 0.930 . S
H789 C805 0.959 . S
H790 C805 0.959 . S
H791 C805 0.961 . S
H792 C806 0.960 . S
H793 C806 0.961 . S
H794 C806 0.959 . S
H795 C809 0.929 . S
H796 C810 0.931 . S
H797 C812 0.930 . S
C798 H786 0.930 . S
C798 C799 1.399 . S
C798 C803 1.399 . S
C799 C798 1.399 . S
C799 C800 1.376 . S
C800 H787 0.930 . S
C800 C799 1.376 . S
C800 C801 1.388 . S
C801 H788 0.930 . S
C801 C800 1.388 . S
C801 C802 1.390 . S
C802 C801 1.390 . S
C802 C803 1.394 . S
C802 C808 1.465 . S
C803 C798 1.399 . S
C803 C802 1.394 . S
C803 C804 1.516 . S
C804 C803 1.516 . S
C804 C805 1.502 . S
C804 C806 1.561 . S
C804 C807 1.526 . S
C805 H789 0.959 . S
C805 H790 0.959 . S
C805 H791 0.961 . S
C805 C804 1.502 . S
C806 H792 0.960 . S
C806 H793 0.961 . S
C806 H794 0.959 . S
C806 C804 1.561 . S
C807 C804 1.526 . S
C807 C808 1.396 . S
C807 C812 1.390 . S
C808 C802 1.465 . S
C808 C807 1.396 . S
C808 C809 1.399 . S
C809 H795 0.929 . S
C809 C808 1.399 . S
C809 C810 1.385 . S
C810 H796 0.931 . S
C810 C809 1.385 . S
C810 C811 1.389 . S
C811 C810 1.389 . S
C811 C812 1.387 . S
C812 H797 0.930 . S
C812 C807 1.390 . S
C812 C811 1.387 . S
H813 C825 0.930 . S
H814 C827 0.930 . S
H815 C828 0.930 . S
H816 C832 0.959 . S
H817 C832 0.959 . S
H818 C832 0.940 1_554 S
H819 C833 0.960 . S
H820 C833 0.961 . S
H821 C833 0.959 . S
H822 C836 0.929 . S
H823 C837 0.931 . S
H824 C839 0.930 . S
C825 H813 0.930 . S
C825 C826 1.399 . S
C825 C830 1.399 . S
C826 C825 1.399 . S
C826 C827 1.376 . S
C827 H814 0.930 . S
C827 C826 1.376 . S
C827 C828 1.388 . S
C828 H815 0.930 . S
C828 C827 1.388 . S
C828 C829 1.390 . S
C829 C828 1.390 . S
C829 C830 1.394 . S
C829 C835 1.465 . S
C830 C825 1.399 . S
C830 C829 1.394 . S
C830 C831 1.516 . S
C831 C830 1.516 . S
C831 C832 1.502 . S
C831 C833 1.561 . S
C831 C834 1.526 . S
C832 H816 0.959 . S
C832 H817 0.959 . S
C832 H818 0.940 1_556 S
C832 C831 1.502 . S
C833 H819 0.960 . S
C833 H820 0.961 . S
C833 H821 0.959 . S
C833 C831 1.561 . S
C834 C831 1.526 . S
C834 C835 1.396 . S
C834 C839 1.390 . S
C835 C829 1.465 . S
C835 C834 1.396 . S
C835 C836 1.399 . S
C836 H822 0.929 . S
C836 C835 1.399 . S
C836 C837 1.385 . S
C837 H823 0.931 . S
C837 C836 1.385 . S
C837 C838 1.389 . S
C838 C837 1.389 . S
C838 C839 1.387 . S
C839 H824 0.930 . S
C839 C834 1.390 . S
C839 C838 1.387 . S
C205 C7 1.346 . S
C217 N93 1.356 . S
C232 C37 1.274 . S
C244 N106 1.295 . S
C259 C54 1.297 . S
C271 N115 1.291 . S
C298 N132 1.375 . S
C286 C87 1.393 . S
C325 N145 1.323 . S
C313 C30 1.339 . S
C340 C51 1.361 . S
C352 N154 1.392 . S
C367 C84 1.321 . S
C379 N167 1.315 . S
C394 C10 1.256 . S
C406 N184 1.263 . S
C421 C59 1.389 . S
C433 N180 1.394 . S
C460 N141 1.272 . S
C448 C74 1.264 . S
C487 N158 1.316 . S
C475 C18 1.333 . S
C502 C32 1.373 . S
C514 N171 1.361 . S
C541 N102 1.376 . S
C529 C73 1.341 . S
C556 C15 1.341 . S
C568 N119 1.397 . S
C595 N128 1.344 . S
C583 C43 1.312 . S
C622 N89 1.261 . S
C610 C62 1.247 . S
C649 N168 1.407 . S
C637 C21 1.406 . S
C676 N181 1.365 . S
C664 C29 1.373 . S
C691 C52 1.344 . S
C703 N142 1.355 . S
C730 N155 1.398 . S
C718 C81 1.399 . S
C757 N116 1.377 . S
C745 C40 1.369 . S
C772 C65 1.406 . S
C784 N129 1.406 . S
C811 N90 1.358 . S
C799 C76 1.344 . S
C838 N103 1.373 . S
C826 C8 1.391 . S
