# Generated by pormake.
# Topology myd, (4,6)-cn, num edge types: 1
# Building blocks:
#     Node 0, Type 0, BuildingBlock: IZENUY_clean_linker_0, # of connection points: 4
#     Node 1, Type 0, BuildingBlock: IZENUY_clean_linker_0, # of connection points: 4
#     Node 2, Type 0, BuildingBlock: IZENUY_clean_linker_0, # of connection points: 4
#     Node 3, Type 0, BuildingBlock: IZENUY_clean_linker_0, # of connection points: 4
#     Node 4, Type 0, BuildingBlock: IZENUY_clean_linker_0, # of connection points: 4
#     Node 5, Type 0, BuildingBlock: IZENUY_clean_linker_0, # of connection points: 4
#     Node 6, Type 0, BuildingBlock: IZENUY_clean_linker_0, # of connection points: 4
#     Node 7, Type 0, BuildingBlock: IZENUY_clean_linker_0, # of connection points: 4
#     Node 8, Type 0, BuildingBlock: IZENUY_clean_linker_0, # of connection points: 4
#     Node 9, Type 0, BuildingBlock: IZENUY_clean_linker_0, # of connection points: 4
#     Node 10, Type 0, BuildingBlock: IZENUY_clean_linker_0, # of connection points: 4
#     Node 11, Type 0, BuildingBlock: IZENUY_clean_linker_0, # of connection points: 4
#     Node 12, Type 1, BuildingBlock: VOLQOD_clean_sbu_1, # of connection points: 6
#     Node 13, Type 1, BuildingBlock: VOLQOD_clean_sbu_1, # of connection points: 6
#     Node 14, Type 1, BuildingBlock: VOLQOD_clean_sbu_1, # of connection points: 6
#     Node 15, Type 1, BuildingBlock: VOLQOD_clean_sbu_1, # of connection points: 6
#     Node 16, Type 1, BuildingBlock: VOLQOD_clean_sbu_1, # of connection points: 6
#     Node 17, Type 1, BuildingBlock: VOLQOD_clean_sbu_1, # of connection points: 6
#     Node 18, Type 1, BuildingBlock: VOLQOD_clean_sbu_1, # of connection points: 6
#     Node 19, Type 1, BuildingBlock: VOLQOD_clean_sbu_1, # of connection points: 6
#     Edge 20, Type (0, 1), None
#     Edge 21, Type (0, 1), None
#     Edge 22, Type (0, 1), None
#     Edge 23, Type (0, 1), None
#     Edge 24, Type (0, 1), None
#     Edge 25, Type (0, 1), None
#     Edge 26, Type (0, 1), None
#     Edge 27, Type (0, 1), None
#     Edge 28, Type (0, 1), None
#     Edge 29, Type (0, 1), None
#     Edge 30, Type (0, 1), None
#     Edge 31, Type (0, 1), None
#     Edge 32, Type (0, 1), None
#     Edge 33, Type (0, 1), None
#     Edge 34, Type (0, 1), None
#     Edge 35, Type (0, 1), None
#     Edge 36, Type (0, 1), None
#     Edge 37, Type (0, 1), None
#     Edge 38, Type (0, 1), None
#     Edge 39, Type (0, 1), None
#     Edge 40, Type (0, 1), None
#     Edge 41, Type (0, 1), None
#     Edge 42, Type (0, 1), None
#     Edge 43, Type (0, 1), None
#     Edge 44, Type (0, 1), None
#     Edge 45, Type (0, 1), None
#     Edge 46, Type (0, 1), None
#     Edge 47, Type (0, 1), None
#     Edge 48, Type (0, 1), None
#     Edge 49, Type (0, 1), None
#     Edge 50, Type (0, 1), None
#     Edge 51, Type (0, 1), None
#     Edge 52, Type (0, 1), None
#     Edge 53, Type (0, 1), None
#     Edge 54, Type (0, 1), None
#     Edge 55, Type (0, 1), None
#     Edge 56, Type (0, 1), None
#     Edge 57, Type (0, 1), None
#     Edge 58, Type (0, 1), None
#     Edge 59, Type (0, 1), None
#     Edge 60, Type (0, 1), None
#     Edge 61, Type (0, 1), None
#     Edge 62, Type (0, 1), None
#     Edge 63, Type (0, 1), None
#     Edge 64, Type (0, 1), None
#     Edge 65, Type (0, 1), None
#     Edge 66, Type (0, 1), None
#     Edge 67, Type (0, 1), None
# Relax obj value: 0.208
# Max RMSD: 0.237
# Mean RMSD: 0.195
data_MOF--net-myd--node1-VOLQOD_clean_sbu_1--node2-IZENUY_clean_linker_0--edge1-none
_symmetry_space_group_name_H-M    P1
_symmetry_Int_Tables_number       1
_symmetry_cell_setting            triclinic
loop_
_symmetry_equiv_pos_as_xyz
'x, y, z'
_cell_length_a     26.107856
_cell_length_b     26.129102
_cell_length_c     26.129089
_cell_angle_alpha  92.042296
_cell_angle_beta   91.560911
_cell_angle_gamma 92.088359
loop_
_atom_site_label
_atom_site_type_symbol
_atom_site_fract_x
_atom_site_fract_y
_atom_site_fract_z
_atom_type_partial_charge
H0 H 0.01213 0.35263 0.41425 0.0
H1 H 0.02146 0.3193 0.25251 0.0
H2 H 0.96104 0.46125 0.3041 0.0
H3 H 0.04399 0.21515 0.27013 0.0
H4 H 0.02769 0.16208 0.42449 0.0
H5 H 0.04903 0.05632 0.29627 0.0
N6 N 0.03981 0.28166 0.33854 0.0
N7 N 0.02079 0.24653 0.36406 0.0
C8 C 0.00715 0.36416 0.37509 0.0
C9 C 0.98675 0.41217 0.36416 0.0
C10 C 0.02003 0.33112 0.33385 0.0
C11 C 0.01197 0.34586 0.28337 0.0
C12 C 0.98912 0.39184 0.27205 0.0
C13 C 0.97821 0.4253 0.31263 0.0
C14 C 0.04247 0.18449 0.29696 0.0
C15 C 0.05002 0.13487 0.27846 0.0
C16 C 0.03261 0.19512 0.34927 0.0
C17 C 0.03216 0.1543 0.38391 0.0
C18 C 0.04044 0.10377 0.36504 0.0
C19 C 0.04525 0.09505 0.31182 0.0
H20 H 1.00062 0.65974 0.10777 0.0
H21 H 0.97961 0.69797 0.26689 0.0
H22 H 0.9626 0.54162 0.21447 0.0
H23 H 0.0476 0.79805 0.24548 0.0
H24 H 0.03078 0.84872 0.08973 0.0
H25 H 0.05102 0.95664 0.21909 0.0
N26 N 1.00473 0.73744 0.18609 0.0
N27 N 0.01991 0.76436 0.15063 0.0
C28 C 0.99354 0.64784 0.14629 0.0
C29 C 0.98195 0.59568 0.15624 0.0
C30 C 0.99286 0.6843 0.18749 0.0
C31 C 0.98047 0.66883 0.23629 0.0
C32 C 0.96954 0.61781 0.2467 0.0
C33 C 0.97165 0.58134 0.20677 0.0
C34 C 0.04459 0.8283 0.21835 0.0
C35 C 0.05169 0.87837 0.23713 0.0
C36 C 0.03341 0.81659 0.1656 0.0
C37 C 0.03517 0.85698 0.13054 0.0
C38 C 0.04376 0.90815 0.14982 0.0
C39 C 0.04768 0.9176 0.20333 0.0
H40 H 0.27553 0.03703 0.22151 0.0
H41 H 0.42845 0.01666 0.16515 0.0
H42 H 0.29989 0.04002 0.06182 0.0
H43 H 0.42148 1.00428 0.35746 0.0
H44 H 0.25991 0.0128 0.32398 0.0
H45 H 0.31003 0.95185 0.46564 0.0
N46 N 0.36894 0.01115 0.25058 0.0
N47 N 0.34657 0.03238 0.2868 0.0
C48 C 0.30181 0.03483 0.19018 0.0
C49 C 0.28292 0.04221 0.14074 0.0
C50 C 0.3539 0.02373 0.19968 0.0
C51 C 0.38799 0.02218 0.15818 0.0
C52 C 0.36887 0.03065 0.10804 0.0
C53 C 0.31575 0.03647 0.10033 0.0
C54 C 0.38215 0.99894 0.36891 0.0
C55 C 0.37074 0.97796 0.41672 0.0
C56 C 0.3412 0.01183 0.33592 0.0
C57 C 0.29052 1.0033 0.35049 0.0
C58 C 0.27872 0.98019 0.39635 0.0
C59 C 0.31899 0.96923 0.42977 0.0
H60 H 0.61295 0.48874 0.16502 0.0
H61 H 0.77146 0.46625 0.20326 0.0
H62 H 0.72067 0.45267 0.04662 0.0
H63 H 0.75059 0.53578 0.30223 0.0
H64 H 0.59453 0.5201 0.35428 0.0
H65 H 0.72408 0.54125 0.46105 0.0
N66 N 0.69053 0.49151 0.24289 0.0
N67 N 0.65553 0.50849 0.26949 0.0
C68 C 0.65155 0.48173 0.15311 0.0
C69 C 0.66194 0.47094 0.10084 0.0
C70 C 0.69233 0.4802 0.18966 0.0
C71 C 0.74117 0.4678 0.17411 0.0
C72 C 0.7521 0.45804 0.12296 0.0
C73 C 0.71259 0.46091 0.08646 0.0
C74 C 0.72341 0.53323 0.33275 0.0
C75 C 0.7422 0.54092 0.38262 0.0
C76 C 0.67052 0.52215 0.32156 0.0
C77 C 0.6354 0.52449 0.3622 0.0
C78 C 0.65475 0.53359 0.41318 0.0
C79 C 0.70829 0.53755 0.42215 0.0
H80 H 0.36353 0.41012 0.00877 0.0
H81 H 0.32941 0.2485 0.0175 0.0
H82 H 0.47187 0.29941 0.95649 0.0
H83 H 0.22598 0.26531 0.04145 0.0
H84 H 0.17193 0.41851 0.02133 0.0
H85 H 0.0666 0.29025 0.04443 0.0
N86 N 0.2922 0.33491 0.03654 0.0
N87 N 0.2568 0.35867 0.01617 0.0
C88 C 0.37492 0.37088 1.00353 0.0
C89 C 0.42291 0.35973 0.9827 0.0
C90 C 0.34167 0.3298 0.01643 0.0
C91 C 0.35617 0.27922 0.00802 0.0
C92 C 0.40219 0.26768 0.98485 0.0
C93 C 0.43588 0.30812 0.97391 0.0
C94 C 0.19506 0.29177 0.03919 0.0
C95 C 0.14534 0.27307 0.04655 0.0
C96 C 0.20542 0.34382 0.02828 0.0
C97 C 0.16435 0.37807 0.02668 0.0
C98 C 0.1138 0.3591 0.03494 0.0
C99 C 0.10534 0.30599 0.04078 0.0
H100 H 0.30799 0.74074 0.5389 0.0
H101 H 0.35844 0.58456 0.52487 0.0
H102 H 0.46649 0.71387 0.54647 0.0
H103 H 0.16996 0.60308 0.49233 0.0
H104 H 0.2093 0.76177 0.47043 0.0
H105 H 0.05234 0.71043 0.45678 0.0
N106 N 0.27444 0.6457 0.51232 0.0
N107 N 0.24833 0.6807 0.49524 0.0
C108 C 0.33824 0.71348 0.53682 0.0
C109 C 0.38821 0.73216 0.54496 0.0
C110 C 0.32658 0.6606 0.52605 0.0
C111 C 0.36679 0.6254 0.52905 0.0
C112 C 0.4179 0.64463 0.53859 0.0
C113 C 0.42746 0.69815 0.54236 0.0
C114 C 0.15832 0.64165 0.48548 0.0
C115 C 0.10616 0.65189 0.47479 0.0
C116 C 0.19514 0.68252 0.48405 0.0
C117 C 0.17996 0.73138 0.47188 0.0
C118 C 0.12886 0.74217 0.46223 0.0
C119 C 0.09211 0.7025 0.46496 0.0
H120 H 0.72598 0.76531 0.54145 0.0
H121 H 0.67193 0.91851 0.52133 0.0
H122 H 0.5666 0.79025 0.54443 0.0
H123 H 0.86353 0.91012 0.50877 0.0
H124 H 0.82941 0.7485 0.5175 0.0
H125 H 0.97187 0.79941 0.45649 0.0
N126 N 0.7568 0.85867 0.51617 0.0
N127 N 0.7922 0.83491 0.53654 0.0
C128 C 0.69506 0.79177 0.53919 0.0
C129 C 0.64534 0.77307 0.54655 0.0
C130 C 0.70542 0.84382 0.52828 0.0
C131 C 0.66435 0.87807 0.52668 0.0
C132 C 0.6138 0.8591 0.53494 0.0
C133 C 0.60534 0.80599 0.54079 0.0
C134 C 0.87492 0.87088 0.50353 0.0
C135 C 0.92291 0.85973 0.4827 0.0
C136 C 0.84167 0.8298 0.51643 0.0
C137 C 0.85617 0.77923 0.50802 0.0
C138 C 0.90219 0.76768 0.48485 0.0
C139 C 0.93588 0.80812 0.47391 0.0
H140 H 0.51213 0.85263 0.91425 0.0
H141 H 0.52145 0.81929 0.75251 0.0
H142 H 0.46104 0.96125 0.8041 0.0
H143 H 0.54399 0.71515 0.77013 0.0
H144 H 0.52769 0.66208 0.92449 0.0
H145 H 0.54903 0.55632 0.79627 0.0
N146 N 0.53981 0.78166 0.83853 0.0
N147 N 0.52079 0.74653 0.86406 0.0
C148 C 0.50715 0.86416 0.87509 0.0
C149 C 0.48675 0.91217 0.86416 0.0
C150 C 0.52003 0.83112 0.83385 0.0
C151 C 0.51197 0.84586 0.78337 0.0
C152 C 0.48912 0.89184 0.77204 0.0
C153 C 0.47821 0.9253 0.81263 0.0
C154 C 0.54247 0.68449 0.79696 0.0
C155 C 0.55002 0.63487 0.77846 0.0
C156 C 0.53261 0.69512 0.84927 0.0
C157 C 0.53216 0.6543 0.88391 0.0
C158 C 0.54044 0.60377 0.86504 0.0
C159 C 0.54525 0.59505 0.81182 0.0
H160 H 0.50063 0.15974 0.60777 0.0
H161 H 0.47962 0.19797 0.76689 0.0
H162 H 0.4626 0.04162 0.71447 0.0
H163 H 0.5476 0.29805 0.74548 0.0
H164 H 0.53078 0.34872 0.58973 0.0
H165 H 0.55102 0.45664 0.71909 0.0
N166 N 0.50473 0.23744 0.68609 0.0
N167 N 0.51991 0.26436 0.65064 0.0
C168 C 0.49354 0.14784 0.64629 0.0
C169 C 0.48195 0.09568 0.65624 0.0
C170 C 0.49286 0.1843 0.68749 0.0
C171 C 0.48047 0.16883 0.73629 0.0
C172 C 0.46954 0.11781 0.7467 0.0
C173 C 0.47165 0.08134 0.70677 0.0
C174 C 0.54459 0.3283 0.71836 0.0
C175 C 0.55169 0.37838 0.73713 0.0
C176 C 0.53341 0.31659 0.6656 0.0
C177 C 0.53517 0.35698 0.63054 0.0
C178 C 0.54376 0.40815 0.64982 0.0
C179 C 0.54768 0.4176 0.70333 0.0
H180 H 0.77553 0.53703 0.72151 0.0
H181 H 0.92845 0.51666 0.66515 0.0
H182 H 0.79989 0.54002 0.56182 0.0
H183 H 0.92148 0.50428 0.85746 0.0
H184 H 0.75992 0.5128 0.82398 0.0
H185 H 0.81003 0.45185 0.96564 0.0
N186 N 0.86894 0.51115 0.75058 0.0
N187 N 0.84657 0.53238 0.78681 0.0
C188 C 0.80181 0.53483 0.69019 0.0
C189 C 0.78292 0.54221 0.64074 0.0
C190 C 0.8539 0.52373 0.69968 0.0
C191 C 0.88799 0.52218 0.65818 0.0
C192 C 0.86887 0.53065 0.60804 0.0
C193 C 0.81575 0.53647 0.60033 0.0
C194 C 0.88215 0.49893 0.86892 0.0
C195 C 0.87074 0.47796 0.91672 0.0
C196 C 0.8412 0.51183 0.83592 0.0
C197 C 0.79052 0.50329 0.85049 0.0
C198 C 0.77872 0.48019 0.89635 0.0
C199 C 0.81899 0.46923 0.92977 0.0
H200 H 0.25059 0.03578 0.80223 0.0
H201 H 0.09453 0.0201 0.85428 0.0
H202 H 0.22408 0.04125 0.96105 0.0
H203 H 0.11295 0.98874 0.66502 0.0
H204 H 0.27146 0.96625 0.70326 0.0
H205 H 0.22066 0.95267 0.54662 0.0
N206 N 0.15553 0.00849 0.76949 0.0
N207 N 0.19053 0.99151 0.74289 0.0
C208 C 0.22341 0.03323 0.83275 0.0
C209 C 0.2422 0.04092 0.88262 0.0
C210 C 0.17052 0.02215 0.82156 0.0
C211 C 0.1354 0.02449 0.8622 0.0
C212 C 0.15475 0.03359 0.91318 0.0
C213 C 0.20829 0.03755 0.92215 0.0
C214 C 0.15155 0.98173 0.65311 0.0
C215 C 0.16194 0.97094 0.60084 0.0
C216 C 0.19233 0.98021 0.68966 0.0
C217 C 0.24117 0.9678 0.67411 0.0
C218 C 0.2521 0.95804 0.62295 0.0
C219 C 0.21259 0.96091 0.58646 0.0
H220 H 0.66996 0.10308 0.99233 0.0
H221 H 0.7093 0.26177 0.97043 0.0
H222 H 0.55234 0.21043 0.95678 0.0
H223 H 0.80799 0.24074 0.03891 0.0
H224 H 0.85844 0.08455 0.02487 0.0
H225 H 0.96649 0.21386 0.04647 0.0
N226 N 0.74833 0.1807 0.99524 0.0
N227 N 0.77444 0.1457 0.01232 0.0
C228 C 0.65832 0.14165 0.98548 0.0
C229 C 0.60616 0.15189 0.97479 0.0
C230 C 0.69514 0.18252 0.98405 0.0
C231 C 0.67996 0.23138 0.97188 0.0
C232 C 0.62886 0.24217 0.96223 0.0
C233 C 0.59211 0.20249 0.96496 0.0
C234 C 0.83824 0.21348 0.03682 0.0
C235 C 0.88821 0.23216 0.04496 0.0
C236 C 0.82658 0.1606 0.02605 0.0
C237 C 0.86679 0.1254 0.02905 0.0
C238 C 0.9179 0.14463 0.03859 0.0
C239 C 0.92745 0.19815 0.04236 0.0
O240 O 0.19426 0.04565 0.16033 0.0
Zn241 Zn 0.11813 0.05289 0.1506 0.0
O242 O 0.09431 0.08481 0.09002 0.0
Zn243 Zn 0.06203 0.14536 0.11396 0.0
Zn244 Zn 0.15529 0.10861 0.05804 0.0
Zn245 Zn 0.04695 0.0373 0.04269 0.0
O246 O 0.99378 0.13872 0.08462 0.0
O247 O 0.97638 0.07335 0.02979 0.0
O248 O 0.0893 0.08339 0.21501 0.0
O249 O 0.0538 0.15419 0.19003 0.0
O250 O 0.09348 0.20992 0.08604 0.0
O251 O 0.16439 0.18464 0.05008 0.0
O252 O 0.14888 0.07894 0.98983 0.0
O253 O 0.08928 0.98449 0.1436 0.0
O254 O 0.08329 0.02442 0.97196 0.0
O255 O 0.03406 0.96674 0.07892 0.0
C256 C 0.2296 0.05737 0.13002 0.0
C257 C 0.96304 0.11445 0.05331 0.0
C258 C 0.13416 0.21983 0.06188 0.0
C259 C 0.06514 0.12381 0.22507 0.0
C260 C 0.12463 0.04783 0.95882 0.0
C261 C 0.05796 0.95352 0.1196 0.0
O262 O 0.21969 0.08101 0.08933 0.0
O263 O 0.84022 0.4523 0.14349 0.0
Zn264 Zn 0.91537 0.46059 0.13839 0.0
O265 O 0.94007 0.42293 0.08135 0.0
Zn266 Zn 0.97329 0.36677 0.10812 0.0
Zn267 Zn 0.88168 0.39744 0.04016 0.0
Zn268 Zn 0.98641 0.46871 0.04199 0.0
O269 O 0.04033 0.36911 0.08036 0.0
O270 O 0.05471 0.42999 0.02502 0.0
O271 O 0.94948 0.44222 0.20722 0.0
O272 O 0.98302 0.36888 0.18357 0.0
O273 O 0.94058 0.29942 0.08385 0.0
O274 O 0.87167 0.32077 0.03931 0.0
O275 O 0.89681 0.41369 0.96848 0.0
O276 O 0.92521 0.53368 0.12227 0.0
O277 O 0.94181 0.48729 0.97758 0.0
O278 O 1.00235 0.53395 0.08969 0.0
C279 C 0.80502 0.44536 0.10914 0.0
C280 C 0.06909 0.39037 0.04846 0.0
C281 C 0.90031 0.28697 0.05711 0.0
C282 C 0.97372 0.40225 0.21821 0.0
C283 C 0.90937 0.45748 0.95222 0.0
C284 C 0.96831 0.55609 0.11604 0.0
O285 O 0.81512 0.42884 0.06409 0.0
O286 O 0.14985 0.8304 0.45641 0.0
Zn287 Zn 0.14459 0.90548 0.46509 0.0
O288 O 0.08791 0.93024 0.42771 0.0
Zn289 Zn 0.11465 0.96422 0.37154 0.0
Zn290 Zn 0.04688 0.87156 0.40231 0.0
Zn291 Zn 0.04856 0.97598 0.47396 0.0
O292 O 0.08719 0.03145 0.37445 0.0
O293 O 0.03144 0.0442 0.43571 0.0
O294 O 0.2134 0.94016 0.44665 0.0
O295 O 0.19029 0.97396 0.37349 0.0
O296 O 0.09023 0.93142 0.30412 0.0
O297 O 0.04654 0.86155 0.32573 0.0
O298 O 0.97515 0.88645 0.41851 0.0
O299 O 0.12821 0.91477 0.53827 0.0
O300 O 0.98402 0.93088 0.49238 0.0
O301 O 0.09601 0.99175 0.53921 0.0
C302 C 0.11533 0.79508 0.44974 0.0
C303 C 0.05496 0.05944 0.39617 0.0
C304 C 0.06397 0.89061 0.29183 0.0
C305 C 0.22471 0.96462 0.40674 0.0
C306 C 0.95868 0.89861 0.46239 0.0
C307 C 0.12202 0.95761 0.56104 0.0
O308 O 0.07029 0.80506 0.43365 0.0
O309 O 0.96238 0.63884 0.33471 0.0
Zn310 Zn 0.97061 0.63395 0.40964 0.0
O311 O 0.93287 0.5771 0.4343 0.0
Zn312 Zn 0.87652 0.60375 0.46789 0.0
Zn313 Zn 0.90756 0.5358 0.37584 0.0
Zn314 Zn 0.97867 0.53797 0.48007 0.0
O315 O 0.87854 0.57555 0.53445 0.0
O316 O 0.94011 0.52117 0.5486 0.0
O317 O 0.95232 0.70273 0.44431 0.0
O318 O 0.87893 0.67923 0.47845 0.0
O319 O 0.8093 0.57967 0.43503 0.0
O320 O 0.83094 0.53544 0.36553 0.0
O321 O 0.92283 0.46417 0.39141 0.0
O322 O 0.04372 0.61809 0.4187 0.0
O323 O 0.99681 0.47332 0.43514 0.0
O324 O 0.04414 0.58558 0.49555 0.0
C325 C 0.95625 0.60419 0.29949 0.0
C326 C 0.90001 0.54407 0.56305 0.0
C327 C 0.797 0.55321 0.39445 0.0
C328 C 0.9124 0.71379 0.46906 0.0
C329 C 0.96662 0.44781 0.40323 0.0
C330 C 0.06624 0.61186 0.46145 0.0
O331 O 0.94 0.55906 0.30948 0.0
O332 O 0.34022 0.9523 0.64349 0.0
Zn333 Zn 0.41537 0.9606 0.63839 0.0
O334 O 0.44007 0.92293 0.58135 0.0
Zn335 Zn 0.47329 0.86677 0.60812 0.0
Zn336 Zn 0.38168 0.89744 0.54016 0.0
Zn337 Zn 0.48641 0.96871 0.54199 0.0
O338 O 0.54033 0.86911 0.58036 0.0
O339 O 0.55471 0.92999 0.52502 0.0
O340 O 0.44948 0.94222 0.70721 0.0
O341 O 0.48302 0.86888 0.68357 0.0
O342 O 0.44058 0.79943 0.58385 0.0
O343 O 0.37167 0.82077 0.53931 0.0
O344 O 0.39681 0.91369 0.46848 0.0
O345 O 0.42521 0.03368 0.62227 0.0
O346 O 0.44181 0.98729 0.47758 0.0
O347 O 0.50235 0.03395 0.58969 0.0
C348 C 0.30502 0.94536 0.60914 0.0
C349 C 0.56909 0.89037 0.54846 0.0
C350 C 0.40031 0.78697 0.55711 0.0
C351 C 0.47372 0.90225 0.71821 0.0
C352 C 0.40937 0.95748 0.45222 0.0
C353 C 0.46831 0.05609 0.61604 0.0
O354 O 0.31512 0.92884 0.56408 0.0
O355 O 0.69426 0.54565 0.66033 0.0
Zn356 Zn 0.61813 0.55289 0.6506 0.0
O357 O 0.59431 0.58481 0.59002 0.0
Zn358 Zn 0.56203 0.64536 0.61396 0.0
Zn359 Zn 0.65529 0.60861 0.55804 0.0
Zn360 Zn 0.54695 0.5373 0.54269 0.0
O361 O 0.49378 0.63872 0.58462 0.0
O362 O 0.47638 0.57335 0.52979 0.0
O363 O 0.5893 0.58339 0.71501 0.0
O364 O 0.5538 0.65419 0.69003 0.0
O365 O 0.59348 0.70992 0.58605 0.0
O366 O 0.66439 0.68464 0.55009 0.0
O367 O 0.64888 0.57894 0.48983 0.0
O368 O 0.58929 0.48449 0.6436 0.0
O369 O 0.58329 0.52442 0.47196 0.0
O370 O 0.53406 0.46674 0.57892 0.0
C371 C 0.7296 0.55737 0.63002 0.0
C372 C 0.46304 0.61445 0.55331 0.0
C373 C 0.63416 0.71983 0.56188 0.0
C374 C 0.56514 0.62381 0.72507 0.0
C375 C 0.62463 0.54783 0.45882 0.0
C376 C 0.55797 0.45353 0.6196 0.0
O377 O 0.71969 0.58101 0.58933 0.0
O378 O 0.64985 0.3304 0.95641 0.0
Zn379 Zn 0.64459 0.40548 0.96509 0.0
O380 O 0.58791 0.43024 0.92771 0.0
Zn381 Zn 0.61465 0.46422 0.87154 0.0
Zn382 Zn 0.54688 0.37156 0.90231 0.0
Zn383 Zn 0.54856 0.47598 0.97396 0.0
O384 O 0.58719 0.53145 0.87445 0.0
O385 O 0.53144 0.5442 0.93571 0.0
O386 O 0.7134 0.44016 0.94665 0.0
O387 O 0.69029 0.47396 0.87349 0.0
O388 O 0.59023 0.43142 0.80412 0.0
O389 O 0.54654 0.36155 0.82573 0.0
O390 O 0.47515 0.38645 0.91851 0.0
O391 O 0.62821 0.41476 0.03827 0.0
O392 O 0.48402 0.43088 0.99238 0.0
O393 O 0.59601 0.49175 0.03921 0.0
C394 C 0.61533 0.29508 0.94974 0.0
C395 C 0.55496 0.55944 0.89617 0.0
C396 C 0.56397 0.39062 0.79183 0.0
C397 C 0.72471 0.46461 0.90675 0.0
C398 C 0.45868 0.39861 0.96239 0.0
C399 C 0.62202 0.45761 0.06104 0.0
O400 O 0.57029 0.30506 0.93365 0.0
O401 O 0.46238 0.13884 0.83471 0.0
Zn402 Zn 0.47061 0.13395 0.90964 0.0
O403 O 0.43287 0.0771 0.9343 0.0
Zn404 Zn 0.37652 0.10375 0.96789 0.0
Zn405 Zn 0.40756 0.0358 0.87584 0.0
Zn406 Zn 0.47867 0.03797 0.98007 0.0
O407 O 0.37854 0.07555 0.03445 0.0
O408 O 0.44011 0.02117 0.0486 0.0
O409 O 0.45232 0.20273 0.94431 0.0
O410 O 0.37893 0.17923 0.97845 0.0
O411 O 0.3093 0.07967 0.93503 0.0
O412 O 0.33094 0.03544 0.86553 0.0
O413 O 0.42283 0.96417 0.89141 0.0
O414 O 0.54372 0.11809 0.9187 0.0
O415 O 0.49681 0.97332 0.93514 0.0
O416 O 0.54414 0.08558 0.99555 0.0
C417 C 0.45625 0.10419 0.79949 0.0
C418 C 0.40001 0.04407 0.06305 0.0
C419 C 0.297 0.05321 0.89445 0.0
C420 C 0.4124 0.21379 0.96906 0.0
C421 C 0.46661 0.94781 0.90323 0.0
C422 C 0.56624 0.11186 0.96145 0.0
O423 O 0.44 0.05906 0.80948 0.0
loop_
_geom_bond_atom_site_label_1
_geom_bond_atom_site_label_2
_geom_bond_distance
_geom_bond_site_symmetry_2
_ccdc_geom_bond_type
H0 C8 0.940 . S
H1 C11 0.940 . S
H2 C13 0.940 . S
H3 C14 0.940 . S
H4 C17 0.940 . S
H5 C19 0.940 . S
N6 N7 1.190 . S
N6 C10 1.477 . S
N7 N6 1.190 . S
N7 C16 1.477 1_655 S
C8 H0 0.940 . S
C8 C9 1.390 . S
C8 C10 1.322 . S
C9 C8 1.390 . S
C9 C13 1.370 . S
C10 N6 1.477 . S
C10 C8 1.322 . S
C10 C11 1.447 . S
C11 H1 0.940 . S
C11 C10 1.447 . S
C11 C12 1.373 . S
C12 C11 1.373 . S
C12 C13 1.417 . S
C13 H2 0.940 . S
C13 C9 1.370 . S
C13 C12 1.417 . S
C14 H3 0.940 . S
C14 C15 1.390 . S
C14 C16 1.322 . S
C15 C14 1.390 . S
C15 C19 1.370 . S
C16 N7 1.477 1_455 S
C16 C14 1.322 . S
C16 C17 1.447 . S
C17 H4 0.940 . S
C17 C16 1.447 . S
C17 C18 1.373 . S
C18 C17 1.373 . S
C18 C19 1.417 . S
C19 H5 0.940 . S
C19 C15 1.370 . S
C19 C18 1.417 . S
H20 C28 0.940 . S
H21 C31 0.940 . S
H22 C33 0.940 . S
H23 C34 0.940 . S
H24 C37 0.940 . S
H25 C39 0.940 . S
N26 N27 1.190 . S
N26 C30 1.477 1_455 S
N27 N26 1.190 . S
N27 C36 1.477 . S
C28 H20 0.940 . S
C28 C29 1.390 . S
C28 C30 1.322 . S
C29 C28 1.390 . S
C29 C33 1.370 . S
C30 N26 1.477 1_655 S
C30 C28 1.322 . S
C30 C31 1.447 . S
C31 H21 0.940 . S
C31 C30 1.447 . S
C31 C32 1.373 . S
C32 C31 1.373 . S
C32 C33 1.417 . S
C33 H22 0.940 . S
C33 C29 1.370 . S
C33 C32 1.417 . S
C34 H23 0.940 . S
C34 C35 1.390 . S
C34 C36 1.322 . S
C35 C34 1.390 . S
C35 C39 1.370 . S
C36 N27 1.477 . S
C36 C34 1.322 . S
C36 C37 1.447 . S
C37 H24 0.940 . S
C37 C36 1.447 . S
C37 C38 1.373 . S
C38 C37 1.373 . S
C38 C39 1.417 . S
C39 H25 0.940 . S
C39 C35 1.370 . S
C39 C38 1.417 . S
H40 C48 0.940 . S
H41 C51 0.940 . S
H42 C53 0.940 . S
H43 C54 0.940 . S
H44 C57 0.940 . S
H45 C59 0.940 . S
N46 N47 1.190 . S
N46 C50 1.477 1_565 S
N47 N46 1.190 . S
N47 C56 1.477 . S
C48 H40 0.940 . S
C48 C49 1.390 . S
C48 C50 1.322 . S
C49 C48 1.390 . S
C49 C53 1.370 . S
C50 N46 1.477 1_545 S
C50 C48 1.322 . S
C50 C51 1.447 . S
C51 H41 0.940 . S
C51 C50 1.447 . S
C51 C52 1.373 . S
C52 C51 1.373 . S
C52 C53 1.417 . S
C53 H42 0.940 . S
C53 C49 1.370 . S
C53 C52 1.417 . S
C54 H43 0.940 . S
C54 C55 1.390 . S
C54 C56 1.322 . S
C55 C54 1.390 . S
C55 C59 1.370 . S
C56 N47 1.477 . S
C56 C54 1.322 . S
C56 C57 1.447 . S
C57 H44 0.940 . S
C57 C56 1.447 . S
C57 C58 1.373 . S
C58 C57 1.373 . S
C58 C59 1.417 . S
C59 H45 0.940 . S
C59 C55 1.370 . S
C59 C58 1.417 . S
H60 C68 0.940 . S
H61 C71 0.940 . S
H62 C73 0.940 . S
H63 C74 0.940 . S
H64 C77 0.940 . S
H65 C79 0.940 . S
N66 N67 1.190 . S
N66 C70 1.477 . S
N67 N66 1.190 . S
N67 C76 1.477 . S
C68 H60 0.940 . S
C68 C69 1.390 . S
C68 C70 1.322 . S
C69 C68 1.390 . S
C69 C73 1.370 . S
C70 N66 1.477 . S
C70 C68 1.322 . S
C70 C71 1.447 . S
C71 H61 0.940 . S
C71 C70 1.447 . S
C71 C72 1.373 . S
C72 C71 1.373 . S
C72 C73 1.417 . S
C73 H62 0.940 . S
C73 C69 1.370 . S
C73 C72 1.417 . S
C74 H63 0.940 . S
C74 C75 1.390 . S
C74 C76 1.322 . S
C75 C74 1.390 . S
C75 C79 1.370 . S
C76 N67 1.477 . S
C76 C74 1.322 . S
C76 C77 1.447 . S
C77 H64 0.940 . S
C77 C76 1.447 . S
C77 C78 1.373 . S
C78 C77 1.373 . S
C78 C79 1.417 . S
C79 H65 0.940 . S
C79 C75 1.370 . S
C79 C78 1.417 . S
H80 C88 0.940 . S
H81 C91 0.940 . S
H82 C93 0.940 . S
H83 C94 0.940 . S
H84 C97 0.940 . S
H85 C99 0.940 . S
N86 N87 1.190 . S
N86 C90 1.477 1_554 S
N87 N86 1.190 . S
N87 C96 1.477 . S
C88 H80 0.940 . S
C88 C89 1.390 . S
C88 C90 1.322 . S
C89 C88 1.390 . S
C89 C93 1.370 . S
C90 N86 1.477 1_556 S
C90 C88 1.322 . S
C90 C91 1.447 . S
C91 H81 0.940 . S
C91 C90 1.447 . S
C91 C92 1.373 . S
C92 C91 1.373 . S
C92 C93 1.417 . S
C93 H82 0.940 . S
C93 C89 1.370 . S
C93 C92 1.417 . S
C94 H83 0.940 . S
C94 C95 1.390 . S
C94 C96 1.322 . S
C95 C94 1.390 . S
C95 C99 1.370 . S
C96 N87 1.477 . S
C96 C94 1.322 . S
C96 C97 1.447 . S
C97 H84 0.940 . S
C97 C96 1.447 . S
C97 C98 1.373 . S
C98 C97 1.373 . S
C98 C99 1.417 . S
C99 H85 0.940 . S
C99 C95 1.370 . S
C99 C98 1.417 . S
H100 C108 0.940 . S
H101 C111 0.940 . S
H102 C113 0.940 . S
H103 C114 0.940 . S
H104 C117 0.940 . S
H105 C119 0.940 . S
N106 N107 1.190 . S
N106 C110 1.477 . S
N107 N106 1.190 . S
N107 C116 1.477 . S
C108 H100 0.940 . S
C108 C109 1.390 . S
C108 C110 1.322 . S
C109 C108 1.390 . S
C109 C113 1.370 . S
C110 N106 1.477 . S
C110 C108 1.322 . S
C110 C111 1.447 . S
C111 H101 0.940 . S
C111 C110 1.447 . S
C111 C112 1.373 . S
C112 C111 1.373 . S
C112 C113 1.417 . S
C113 H102 0.940 . S
C113 C109 1.370 . S
C113 C112 1.417 . S
C114 H103 0.940 . S
C114 C115 1.390 . S
C114 C116 1.322 . S
C115 C114 1.390 . S
C115 C119 1.370 . S
C116 N107 1.477 . S
C116 C114 1.322 . S
C116 C117 1.447 . S
C117 H104 0.940 . S
C117 C116 1.447 . S
C117 C118 1.373 . S
C118 C117 1.373 . S
C118 C119 1.417 . S
C119 H105 0.940 . S
C119 C115 1.370 . S
C119 C118 1.417 . S
H120 C128 0.940 . S
H121 C131 0.940 . S
H122 C133 0.940 . S
H123 C134 0.940 . S
H124 C137 0.940 . S
H125 C139 0.940 . S
N126 N127 1.190 . S
N126 C130 1.477 . S
N127 N126 1.190 . S
N127 C136 1.477 . S
C128 H120 0.940 . S
C128 C129 1.390 . S
C128 C130 1.322 . S
C129 C128 1.390 . S
C129 C133 1.370 . S
C130 N126 1.477 . S
C130 C128 1.322 . S
C130 C131 1.447 . S
C131 H121 0.940 . S
C131 C130 1.447 . S
C131 C132 1.373 . S
C132 C131 1.373 . S
C132 C133 1.417 . S
C133 H122 0.940 . S
C133 C129 1.370 . S
C133 C132 1.417 . S
C134 H123 0.940 . S
C134 C135 1.390 . S
C134 C136 1.322 . S
C135 C134 1.390 . S
C135 C139 1.370 . S
C136 N127 1.477 . S
C136 C134 1.322 . S
C136 C137 1.447 . S
C137 H124 0.940 . S
C137 C136 1.447 . S
C137 C138 1.373 . S
C138 C137 1.373 . S
C138 C139 1.417 . S
C139 H125 0.940 . S
C139 C135 1.370 . S
C139 C138 1.417 . S
H140 C148 0.940 . S
H141 C151 0.940 . S
H142 C153 0.940 . S
H143 C154 0.940 . S
H144 C157 0.940 . S
H145 C159 0.940 . S
N146 N147 1.190 . S
N146 C150 1.477 . S
N147 N146 1.190 . S
N147 C156 1.477 . S
C148 H140 0.940 . S
C148 C149 1.390 . S
C148 C150 1.322 . S
C149 C148 1.390 . S
C149 C153 1.370 . S
C150 N146 1.477 . S
C150 C148 1.322 . S
C150 C151 1.447 . S
C151 H141 0.940 . S
C151 C150 1.447 . S
C151 C152 1.373 . S
C152 C151 1.373 . S
C152 C153 1.417 . S
C153 H142 0.940 . S
C153 C149 1.370 . S
C153 C152 1.417 . S
C154 H143 0.940 . S
C154 C155 1.390 . S
C154 C156 1.322 . S
C155 C154 1.390 . S
C155 C159 1.370 . S
C156 N147 1.477 . S
C156 C154 1.322 . S
C156 C157 1.447 . S
C157 H144 0.940 . S
C157 C156 1.447 . S
C157 C158 1.373 . S
C158 C157 1.373 . S
C158 C159 1.417 . S
C159 H145 0.940 . S
C159 C155 1.370 . S
C159 C158 1.417 . S
H160 C168 0.940 . S
H161 C171 0.940 . S
H162 C173 0.940 . S
H163 C174 0.940 . S
H164 C177 0.940 . S
H165 C179 0.940 . S
N166 N167 1.190 . S
N166 C170 1.477 . S
N167 N166 1.190 . S
N167 C176 1.477 . S
C168 H160 0.940 . S
C168 C169 1.390 . S
C168 C170 1.322 . S
C169 C168 1.390 . S
C169 C173 1.370 . S
C170 N166 1.477 . S
C170 C168 1.322 . S
C170 C171 1.447 . S
C171 H161 0.940 . S
C171 C170 1.447 . S
C171 C172 1.373 . S
C172 C171 1.373 . S
C172 C173 1.417 . S
C173 H162 0.940 . S
C173 C169 1.370 . S
C173 C172 1.417 . S
C174 H163 0.940 . S
C174 C175 1.390 . S
C174 C176 1.322 . S
C175 C174 1.390 . S
C175 C179 1.370 . S
C176 N167 1.477 . S
C176 C174 1.322 . S
C176 C177 1.447 . S
C177 H164 0.940 . S
C177 C176 1.447 . S
C177 C178 1.373 . S
C178 C177 1.373 . S
C178 C179 1.417 . S
C179 H165 0.940 . S
C179 C175 1.370 . S
C179 C178 1.417 . S
H180 C188 0.940 . S
H181 C191 0.940 . S
H182 C193 0.940 . S
H183 C194 0.940 . S
H184 C197 0.940 . S
H185 C199 0.940 . S
N186 N187 1.190 . S
N186 C190 1.477 . S
N187 N186 1.190 . S
N187 C196 1.477 . S
C188 H180 0.940 . S
C188 C189 1.390 . S
C188 C190 1.322 . S
C189 C188 1.390 . S
C189 C193 1.370 . S
C190 N186 1.477 . S
C190 C188 1.322 . S
C190 C191 1.447 . S
C191 H181 0.940 . S
C191 C190 1.447 . S
C191 C192 1.373 . S
C192 C191 1.373 . S
C192 C193 1.417 . S
C193 H182 0.940 . S
C193 C189 1.370 . S
C193 C192 1.417 . S
C194 H183 0.940 . S
C194 C195 1.390 . S
C194 C196 1.322 . S
C195 C194 1.390 . S
C195 C199 1.370 . S
C196 N187 1.477 . S
C196 C194 1.322 . S
C196 C197 1.447 . S
C197 H184 0.940 . S
C197 C196 1.447 . S
C197 C198 1.373 . S
C198 C197 1.373 . S
C198 C199 1.417 . S
C199 H185 0.940 . S
C199 C195 1.370 . S
C199 C198 1.417 . S
H200 C208 0.940 . S
H201 C211 0.940 . S
H202 C213 0.940 . S
H203 C214 0.940 . S
H204 C217 0.940 . S
H205 C219 0.940 . S
N206 N207 1.190 . S
N206 C210 1.477 1_565 S
N207 N206 1.190 . S
N207 C216 1.477 . S
C208 H200 0.940 . S
C208 C209 1.390 . S
C208 C210 1.322 . S
C209 C208 1.390 . S
C209 C213 1.370 . S
C210 N206 1.477 1_545 S
C210 C208 1.322 . S
C210 C211 1.447 . S
C211 H201 0.940 . S
C211 C210 1.447 . S
C211 C212 1.373 . S
C212 C211 1.373 . S
C212 C213 1.417 . S
C213 H202 0.940 . S
C213 C209 1.370 . S
C213 C212 1.417 . S
C214 H203 0.940 . S
C214 C215 1.390 . S
C214 C216 1.322 . S
C215 C214 1.390 . S
C215 C219 1.370 . S
C216 N207 1.477 . S
C216 C214 1.322 . S
C216 C217 1.447 . S
C217 H204 0.940 . S
C217 C216 1.447 . S
C217 C218 1.373 . S
C218 C217 1.373 . S
C218 C219 1.417 . S
C219 H205 0.940 . S
C219 C215 1.370 . S
C219 C218 1.417 . S
H220 C228 0.940 . S
H221 C231 0.940 . S
H222 C233 0.940 . S
H223 C234 0.940 . S
H224 C237 0.940 . S
H225 C239 0.940 . S
N226 N227 1.190 . S
N226 C230 1.477 . S
N227 N226 1.190 . S
N227 C236 1.477 1_556 S
C228 H220 0.940 . S
C228 C229 1.390 . S
C228 C230 1.322 . S
C229 C228 1.390 . S
C229 C233 1.370 . S
C230 N226 1.477 . S
C230 C228 1.322 . S
C230 C231 1.447 . S
C231 H221 0.940 . S
C231 C230 1.447 . S
C231 C232 1.373 . S
C232 C231 1.373 . S
C232 C233 1.417 . S
C233 H222 0.940 . S
C233 C229 1.370 . S
C233 C232 1.417 . S
C234 H223 0.940 . S
C234 C235 1.390 . S
C234 C236 1.322 . S
C235 C234 1.390 . S
C235 C239 1.370 . S
C236 N227 1.477 1_554 S
C236 C234 1.322 . S
C236 C237 1.447 . S
C237 H224 0.940 . S
C237 C236 1.447 . S
C237 C238 1.373 . S
C238 C237 1.373 . S
C238 C239 1.417 . S
C239 H225 0.940 . S
C239 C235 1.370 . S
C239 C238 1.417 . S
O240 Zn241 1.953 . S
O240 C256 1.225 . S
Zn241 O240 1.953 . S
Zn241 O242 1.949 . S
Zn241 O248 1.919 . S
Zn241 O253 1.924 1_545 S
O242 Zn241 1.949 . S
O242 Zn243 1.923 . S
O242 Zn244 1.950 . S
O242 Zn245 1.945 . S
Zn243 O242 1.923 . S
Zn243 O246 1.933 1_455 S
Zn243 O249 1.941 . S
Zn243 O250 1.965 . S
Zn244 O242 1.950 . S
Zn244 O251 1.938 . S
Zn244 O252 1.906 1_554 S
Zn244 O262 1.953 . S
Zn245 O242 1.945 . S
Zn245 O247 1.932 1_455 S
Zn245 O254 1.977 1_554 S
Zn245 O255 1.910 1_545 S
O246 Zn243 1.933 1_655 S
O246 C257 1.226 . S
O247 Zn245 1.932 1_655 S
O247 C257 1.307 . S
O248 Zn241 1.919 . S
O248 C259 1.253 . S
O249 Zn243 1.941 . S
O249 C259 1.283 . S
O250 Zn243 1.965 . S
O250 C258 1.303 . S
O251 Zn244 1.938 . S
O251 C258 1.247 . S
O252 Zn244 1.906 1_556 S
O252 C260 1.304 . S
O253 Zn241 1.924 1_565 S
O253 C261 1.311 . S
O254 Zn245 1.977 1_556 S
O254 C260 1.272 . S
O255 Zn245 1.910 1_565 S
O255 C261 1.231 . S
C256 O240 1.225 . S
C256 O262 1.298 . S
C257 O246 1.226 . S
C257 O247 1.307 . S
C258 O250 1.303 . S
C258 O251 1.247 . S
C259 O248 1.253 . S
C259 O249 1.283 . S
C260 O252 1.304 . S
C260 O254 1.272 . S
C261 O253 1.311 . S
C261 O255 1.231 . S
O262 Zn244 1.953 . S
O262 C256 1.298 . S
O263 Zn264 1.953 . S
O263 C279 1.225 . S
Zn264 O263 1.953 . S
Zn264 O265 1.949 . S
Zn264 O271 1.919 . S
Zn264 O276 1.924 . S
O265 Zn264 1.949 . S
O265 Zn266 1.923 . S
O265 Zn267 1.950 . S
O265 Zn268 1.945 . S
Zn266 O265 1.923 . S
Zn266 O269 1.933 1_655 S
Zn266 O272 1.941 . S
Zn266 O273 1.965 . S
Zn267 O265 1.950 . S
Zn267 O274 1.938 . S
Zn267 O275 1.906 1_554 S
Zn267 O285 1.953 . S
Zn268 O265 1.945 . S
Zn268 O270 1.932 1_655 S
Zn268 O277 1.977 1_554 S
Zn268 O278 1.910 1_655 S
O269 Zn266 1.933 1_455 S
O269 C280 1.226 . S
O270 Zn268 1.932 1_455 S
O270 C280 1.307 . S
O271 Zn264 1.919 . S
O271 C282 1.253 . S
O272 Zn266 1.941 . S
O272 C282 1.283 . S
O273 Zn266 1.965 . S
O273 C281 1.303 . S
O274 Zn267 1.938 . S
O274 C281 1.247 . S
O275 Zn267 1.906 1_556 S
O275 C283 1.304 . S
O276 Zn264 1.924 . S
O276 C284 1.311 . S
O277 Zn268 1.977 1_556 S
O277 C283 1.272 . S
O278 Zn268 1.910 1_455 S
O278 C284 1.231 1_455 S
C279 O263 1.225 . S
C279 O285 1.298 . S
C280 O269 1.226 . S
C280 O270 1.307 . S
C281 O273 1.303 . S
C281 O274 1.247 . S
C282 O271 1.253 . S
C282 O272 1.283 . S
C283 O275 1.304 . S
C283 O277 1.272 . S
C284 O276 1.311 . S
C284 O278 1.231 1_655 S
O285 Zn267 1.953 . S
O285 C279 1.298 . S
O286 Zn287 1.953 . S
O286 C302 1.225 . S
Zn287 O286 1.953 . S
Zn287 O288 1.949 . S
Zn287 O294 1.919 . S
Zn287 O299 1.924 . S
O288 Zn287 1.949 . S
O288 Zn289 1.923 . S
O288 Zn290 1.950 . S
O288 Zn291 1.945 . S
Zn289 O288 1.923 . S
Zn289 O292 1.933 1_565 S
Zn289 O295 1.941 . S
Zn289 O296 1.965 . S
Zn290 O288 1.950 . S
Zn290 O297 1.938 . S
Zn290 O298 1.906 1_455 S
Zn290 O308 1.953 . S
Zn291 O288 1.945 . S
Zn291 O293 1.932 1_565 S
Zn291 O300 1.977 1_455 S
Zn291 O301 1.910 . S
O292 Zn289 1.933 1_545 S
O292 C303 1.226 . S
O293 Zn291 1.932 1_545 S
O293 C303 1.307 . S
O294 Zn287 1.919 . S
O294 C305 1.253 . S
O295 Zn289 1.941 . S
O295 C305 1.283 . S
O296 Zn289 1.965 . S
O296 C304 1.303 . S
O297 Zn290 1.938 . S
O297 C304 1.247 . S
O298 Zn290 1.906 1_655 S
O298 C306 1.304 . S
O299 Zn287 1.924 . S
O299 C307 1.311 . S
O300 Zn291 1.977 1_655 S
O300 C306 1.272 . S
O301 Zn291 1.910 . S
O301 C307 1.231 . S
C302 O286 1.225 . S
C302 O308 1.298 . S
C303 O292 1.226 . S
C303 O293 1.307 . S
C304 O296 1.303 . S
C304 O297 1.247 . S
C305 O294 1.253 . S
C305 O295 1.283 . S
C306 O298 1.304 . S
C306 O300 1.272 . S
C307 O299 1.311 . S
C307 O301 1.231 . S
O308 Zn290 1.953 . S
O308 C302 1.298 . S
O309 Zn310 1.953 . S
O309 C325 1.225 . S
Zn310 O309 1.953 . S
Zn310 O311 1.949 . S
Zn310 O317 1.919 . S
Zn310 O322 1.924 1_655 S
O311 Zn310 1.949 . S
O311 Zn312 1.923 . S
O311 Zn313 1.950 . S
O311 Zn314 1.945 . S
Zn312 O311 1.923 . S
Zn312 O315 1.933 . S
Zn312 O318 1.941 . S
Zn312 O319 1.965 . S
Zn313 O311 1.950 . S
Zn313 O320 1.938 . S
Zn313 O321 1.906 . S
Zn313 O331 1.953 . S
Zn314 O311 1.945 . S
Zn314 O316 1.932 . S
Zn314 O323 1.973 1_655 S
Zn314 O324 1.910 1_655 S
O315 Zn312 1.933 . S
O315 C326 1.226 . S
O316 Zn314 1.932 . S
O316 C326 1.307 . S
O317 Zn310 1.919 . S
O317 C328 1.253 . S
O318 Zn312 1.941 . S
O318 C328 1.283 . S
O319 Zn312 1.965 . S
O319 C327 1.303 . S
O320 Zn313 1.938 . S
O320 C327 1.247 . S
O321 Zn313 1.906 . S
O321 C329 1.304 . S
O322 Zn310 1.924 1_455 S
O322 C330 1.311 . S
O323 Zn314 1.973 1_455 S
O323 C329 1.268 1_455 S
O324 Zn314 1.910 1_455 S
O324 C330 1.231 . S
C325 O309 1.225 . S
C325 O331 1.298 . S
C326 O315 1.226 . S
C326 O316 1.307 . S
C327 O319 1.303 . S
C327 O320 1.247 . S
C328 O317 1.253 . S
C328 O318 1.283 . S
C329 O321 1.304 . S
C329 O323 1.268 1_655 S
C330 O322 1.311 . S
C330 O324 1.231 . S
O331 Zn313 1.953 . S
O331 C325 1.298 . S
O332 Zn333 1.953 . S
O332 C348 1.225 . S
Zn333 O332 1.953 . S
Zn333 O334 1.949 . S
Zn333 O340 1.919 . S
Zn333 O345 1.924 1_565 S
O334 Zn333 1.949 . S
O334 Zn335 1.923 . S
O334 Zn336 1.950 . S
O334 Zn337 1.945 . S
Zn335 O334 1.923 . S
Zn335 O338 1.933 . S
Zn335 O341 1.941 . S
Zn335 O342 1.965 . S
Zn336 O334 1.950 . S
Zn336 O343 1.938 . S
Zn336 O344 1.906 . S
Zn336 O354 1.953 . S
Zn337 O334 1.945 . S
Zn337 O339 1.932 . S
Zn337 O346 1.977 . S
Zn337 O347 1.910 1_565 S
O338 Zn335 1.933 . S
O338 C349 1.226 . S
O339 Zn337 1.932 . S
O339 C349 1.307 . S
O340 Zn333 1.919 . S
O340 C351 1.253 . S
O341 Zn335 1.941 . S
O341 C351 1.283 . S
O342 Zn335 1.965 . S
O342 C350 1.303 . S
O343 Zn336 1.938 . S
O343 C350 1.247 . S
O344 Zn336 1.906 . S
O344 C352 1.304 . S
O345 Zn333 1.924 1_545 S
O345 C353 1.311 . S
O346 Zn337 1.977 . S
O346 C352 1.272 . S
O347 Zn337 1.910 1_545 S
O347 C353 1.231 . S
C348 O332 1.225 . S
C348 O354 1.298 . S
C349 O338 1.226 . S
C349 O339 1.307 . S
C350 O342 1.303 . S
C350 O343 1.247 . S
C351 O340 1.253 . S
C351 O341 1.283 . S
C352 O344 1.304 . S
C352 O346 1.272 . S
C353 O345 1.311 . S
C353 O347 1.231 . S
O354 Zn336 1.953 . S
O354 C348 1.298 . S
O355 Zn356 1.953 . S
O355 C371 1.225 . S
Zn356 O355 1.953 . S
Zn356 O357 1.949 . S
Zn356 O363 1.919 . S
Zn356 O368 1.924 . S
O357 Zn356 1.949 . S
O357 Zn358 1.923 . S
O357 Zn359 1.950 . S
O357 Zn360 1.945 . S
Zn358 O357 1.923 . S
Zn358 O361 1.933 . S
Zn358 O364 1.941 . S
Zn358 O365 1.965 . S
Zn359 O357 1.950 . S
Zn359 O366 1.938 . S
Zn359 O367 1.906 . S
Zn359 O377 1.953 . S
Zn360 O357 1.945 . S
Zn360 O362 1.932 . S
Zn360 O369 1.977 . S
Zn360 O370 1.910 . S
O361 Zn358 1.933 . S
O361 C372 1.226 . S
O362 Zn360 1.932 . S
O362 C372 1.307 . S
O363 Zn356 1.919 . S
O363 C374 1.253 . S
O364 Zn358 1.941 . S
O364 C374 1.283 . S
O365 Zn358 1.965 . S
O365 C373 1.303 . S
O366 Zn359 1.938 . S
O366 C373 1.247 . S
O367 Zn359 1.906 . S
O367 C375 1.304 . S
O368 Zn356 1.924 . S
O368 C376 1.311 . S
O369 Zn360 1.977 . S
O369 C375 1.272 . S
O370 Zn360 1.910 . S
O370 C376 1.231 . S
C371 O355 1.225 . S
C371 O377 1.298 . S
C372 O361 1.226 . S
C372 O362 1.307 . S
C373 O365 1.303 . S
C373 O366 1.247 . S
C374 O363 1.253 . S
C374 O364 1.283 . S
C375 O367 1.304 . S
C375 O369 1.272 . S
C376 O368 1.311 . S
C376 O370 1.231 . S
O377 Zn359 1.953 . S
O377 C371 1.298 . S
O378 Zn379 1.953 . S
O378 C394 1.225 . S
Zn379 O378 1.953 . S
Zn379 O380 1.949 . S
Zn379 O386 1.919 . S
Zn379 O391 1.924 1_556 S
O380 Zn379 1.949 . S
O380 Zn381 1.923 . S
O380 Zn382 1.950 . S
O380 Zn383 1.945 . S
Zn381 O380 1.923 . S
Zn381 O384 1.933 . S
Zn381 O387 1.941 . S
Zn381 O388 1.965 . S
Zn382 O380 1.950 . S
Zn382 O389 1.938 . S
Zn382 O390 1.906 . S
Zn382 O400 1.953 . S
Zn383 O380 1.945 . S
Zn383 O385 1.932 . S
Zn383 O392 1.977 . S
Zn383 O393 1.910 1_556 S
O384 Zn381 1.933 . S
O384 C395 1.226 . S
O385 Zn383 1.932 . S
O385 C395 1.307 . S
O386 Zn379 1.919 . S
O386 C397 1.253 . S
O387 Zn381 1.941 . S
O387 C397 1.283 . S
O388 Zn381 1.965 . S
O388 C396 1.303 . S
O389 Zn382 1.938 . S
O389 C396 1.247 . S
O390 Zn382 1.906 . S
O390 C398 1.304 . S
O391 Zn379 1.924 1_554 S
O391 C399 1.311 . S
O392 Zn383 1.977 . S
O392 C398 1.272 . S
O393 Zn383 1.910 1_554 S
O393 C399 1.231 . S
C394 O378 1.225 . S
C394 O400 1.298 . S
C395 O384 1.226 . S
C395 O385 1.307 . S
C396 O388 1.303 . S
C396 O389 1.247 . S
C397 O386 1.253 . S
C397 O387 1.283 . S
C398 O390 1.304 . S
C398 O392 1.272 . S
C399 O391 1.311 . S
C399 O393 1.231 . S
O400 Zn382 1.953 . S
O400 C394 1.298 . S
O401 Zn402 1.953 . S
O401 C417 1.225 . S
Zn402 O401 1.953 . S
Zn402 O403 1.949 . S
Zn402 O409 1.919 . S
Zn402 O414 1.924 . S
O403 Zn402 1.949 . S
O403 Zn404 1.923 . S
O403 Zn405 1.950 . S
O403 Zn406 1.945 . S
Zn404 O403 1.923 . S
Zn404 O407 1.933 1_556 S
Zn404 O410 1.941 . S
Zn404 O411 1.965 . S
Zn405 O403 1.950 . S
Zn405 O412 1.938 . S
Zn405 O413 1.906 1_545 S
Zn405 O423 1.953 . S
Zn406 O403 1.945 . S
Zn406 O408 1.932 1_556 S
Zn406 O415 1.977 1_545 S
Zn406 O416 1.910 . S
O407 Zn404 1.933 1_554 S
O407 C418 1.226 . S
O408 Zn406 1.932 1_554 S
O408 C418 1.307 . S
O409 Zn402 1.919 . S
O409 C420 1.253 . S
O410 Zn404 1.941 . S
O410 C420 1.283 . S
O411 Zn404 1.965 . S
O411 C419 1.303 . S
O412 Zn405 1.938 . S
O412 C419 1.247 . S
O413 Zn405 1.906 1_565 S
O413 C421 1.304 . S
O414 Zn402 1.924 . S
O414 C422 1.311 . S
O415 Zn406 1.977 1_565 S
O415 C421 1.272 . S
O416 Zn406 1.910 . S
O416 C422 1.231 . S
C417 O401 1.225 . S
C417 O423 1.298 . S
C418 O407 1.226 . S
C418 O408 1.307 . S
C419 O411 1.303 . S
C419 O412 1.247 . S
C420 O409 1.253 . S
C420 O410 1.283 . S
C421 O413 1.304 . S
C421 O415 1.272 . S
C422 O414 1.311 . S
C422 O416 1.231 . S
O423 Zn405 1.953 . S
O423 C417 1.298 . S
C18 C303 1.941 . S
C329 C9 2.037 . S
C261 C38 1.995 . S
C29 C284 1.648 . S
C52 C418 1.986 . S
C69 C399 1.651 . S
C352 C55 1.998 . S
C78 C375 2.123 . S
C280 C98 2.242 . S
C330 C115 1.725 . S
C135 C306 1.845 . S
C112 C372 2.026 . S
C395 C158 1.940 . S
C421 C149 2.038 . S
C178 C376 1.996 . S
C353 C169 1.648 . S
C192 C326 1.986 . S
C215 C307 1.651 . S
C283 C195 1.998 . S
C212 C260 2.123 . S
C349 C132 2.242 . S
C422 C229 1.724 . S
C89 C398 1.845 . S
C238 C257 2.027 . S
C259 C15 2.464 . S
C12 C282 2.639 . S
C304 C35 2.655 . S
C325 C32 2.327 . S
C49 C256 2.433 . S
C72 C279 2.424 . S
C305 C58 2.737 . S
C75 C327 2.721 . S
C95 C258 2.544 . S
C302 C118 2.434 . S
C138 C328 2.578 . S
C109 C350 2.642 . S
C374 C155 2.464 . S
C152 C351 2.640 . S
C175 C396 2.655 . S
C172 C417 2.327 . S
C189 C371 2.433 . S
C348 C218 2.424 . S
C198 C397 2.737 . S
C419 C209 2.721 . S
C373 C129 2.544 . S
C394 C232 2.433 . S
C420 C92 2.577 . S
C235 C281 2.642 . S
