# Generated by pormake.
# Topology nom, (4,4)-cn, num edge types: 1
# Building blocks:
#     Node 0, Type 0, BuildingBlock: NAHDIM_clean_linker_0, # of connection points: 4
#     Node 1, Type 0, BuildingBlock: NAHDIM_clean_linker_0, # of connection points: 4
#     Node 2, Type 0, BuildingBlock: NAHDIM_clean_linker_0, # of connection points: 4
#     Node 3, Type 0, BuildingBlock: NAHDIM_clean_linker_0, # of connection points: 4
#     Node 4, Type 0, BuildingBlock: NAHDIM_clean_linker_0, # of connection points: 4
#     Node 5, Type 0, BuildingBlock: NAHDIM_clean_linker_0, # of connection points: 4
#     Node 6, Type 1, BuildingBlock: QUQFOY_clean_sbu_3, # of connection points: 4
#     Node 7, Type 1, BuildingBlock: QUQFOY_clean_sbu_3, # of connection points: 4
#     Node 8, Type 1, BuildingBlock: QUQFOY_clean_sbu_3, # of connection points: 4
#     Node 9, Type 1, BuildingBlock: QUQFOY_clean_sbu_3, # of connection points: 4
#     Node 10, Type 1, BuildingBlock: QUQFOY_clean_sbu_3, # of connection points: 4
#     Node 11, Type 1, BuildingBlock: QUQFOY_clean_sbu_3, # of connection points: 4
#     Edge 12, Type (0, 1), None
#     Edge 13, Type (0, 1), None
#     Edge 14, Type (0, 1), None
#     Edge 15, Type (0, 1), None
#     Edge 16, Type (0, 1), None
#     Edge 17, Type (0, 1), None
#     Edge 18, Type (0, 1), None
#     Edge 19, Type (0, 1), None
#     Edge 20, Type (0, 1), None
#     Edge 21, Type (0, 1), None
#     Edge 22, Type (0, 1), None
#     Edge 23, Type (0, 1), None
#     Edge 24, Type (0, 1), None
#     Edge 25, Type (0, 1), None
#     Edge 26, Type (0, 1), None
#     Edge 27, Type (0, 1), None
#     Edge 28, Type (0, 1), None
#     Edge 29, Type (0, 1), None
#     Edge 30, Type (0, 1), None
#     Edge 31, Type (0, 1), None
#     Edge 32, Type (0, 1), None
#     Edge 33, Type (0, 1), None
#     Edge 34, Type (0, 1), None
#     Edge 35, Type (0, 1), None
# Relax obj value: 0.050
# Max RMSD: 0.134
# Mean RMSD: 0.100
data_MOF--net-nom--node1-QUQFOY_clean_sbu_3--node2-NAHDIM_clean_linker_0--edge1-none
_symmetry_space_group_name_H-M    P1
_symmetry_Int_Tables_number       1
_symmetry_cell_setting            triclinic
loop_
_symmetry_equiv_pos_as_xyz
'x, y, z'
_cell_length_a     35.043032
_cell_length_b     36.195893
_cell_length_c     42.538039
_cell_angle_alpha  90.26962
_cell_angle_beta   90.000516
_cell_angle_gamma 120.16769
loop_
_atom_site_label
_atom_site_type_symbol
_atom_site_fract_x
_atom_site_fract_y
_atom_site_fract_z
_atom_type_partial_charge
C0 C 0.21823 0.75023 0.16959 0.0
C1 C 0.23536 0.73288 0.19539 0.0
C2 C 0.18218 0.70499 0.23829 0.0
C3 C 0.17245 0.66234 0.23877 0.0
C4 C 0.13297 0.63029 0.252 0.0
C5 C 0.10289 0.64128 0.26517 0.0
C6 C 0.11376 0.68457 0.26618 0.0
C7 C 0.15362 0.71598 0.25299 0.0
C8 C 0.12294 0.58458 0.25139 0.0
C9 C 0.08259 0.69741 0.28029 0.0
C10 C 0.80776 0.39308 0.17171 0.0
C11 C 0.84742 0.42269 0.15119 0.0
C12 C 0.89281 0.48556 0.18474 0.0
C13 C 0.90269 0.52718 0.19194 0.0
C14 C 0.93164 0.55047 0.21662 0.0
C15 C 0.95207 0.5319 0.23405 0.0
C16 C 0.94297 0.49008 0.22649 0.0
C17 C 0.91273 0.46704 0.20248 0.0
C18 C 0.94017 0.59476 0.22415 0.0
C19 C 0.96521 0.46949 0.24365 0.0
C20 C 0.8101 0.4013 0.4055 0.0
C21 C 0.82485 0.44266 0.41664 0.0
C22 C 0.86835 0.4754 0.41121 0.0
C23 C 0.89771 0.46588 0.39504 0.0
C24 C 0.88345 0.42326 0.3856 0.0
C25 C 0.83942 0.39149 0.39054 0.0
C26 C 0.88245 0.52035 0.4217 0.0
C27 C 0.91422 0.41147 0.36942 0.0
C28 C 0.2095 0.58675 0.47773 0.0
C29 C 0.17477 0.57767 0.50325 0.0
C30 C 0.118 0.58323 0.4729 0.0
C31 C 0.09906 0.60858 0.4673 0.0
C32 C 0.06664 0.59751 0.444 0.0
C33 C 0.05336 0.56038 0.42555 0.0
C34 C 0.07211 0.53435 0.4312 0.0
C35 C 0.10381 0.54572 0.45503 0.0
C36 C 0.04653 0.62539 0.4391 0.0
C37 C 0.05858 0.49438 0.41204 0.0
C38 C 0.05863 0.60727 0.27547 0.0
C39 C 0.02594 0.58771 0.25239 0.0
C40 C 0.98317 0.55589 0.2601 0.0
C41 C 0.97206 0.54437 0.29189 0.0
C42 C 0.92857 0.51484 0.30074 0.0
C43 C 0.91846 0.50147 0.33172 0.0
C44 C 0.95161 0.5166 0.35494 0.0
C45 C 0.94221 0.50079 0.38599 0.0
C46 C 0.97578 0.51663 0.40854 0.0
C47 C 0.01895 0.54782 0.40091 0.0
C48 C 0.02908 0.56403 0.36992 0.0
C49 C 0.07216 0.59528 0.36129 0.0
C50 C 0.08184 0.61018 0.3305 0.0
C51 C 0.049 0.59373 0.30707 0.0
C52 C 0.00539 0.56232 0.3153 0.0
C53 C -0.00471 0.54794 0.34681 0.0
C54 C 0.71105 0.30843 0.38333 0.0
C55 C 0.73802 0.35733 0.38321 0.0
O56 O 0.21895 0.73632 0.22421 0.0
O57 O 0.14991 0.59636 0.49544 0.0
O58 O 0.76707 0.37123 0.40838 0.0
O59 O 0.86421 0.4648 0.1606 0.0
H60 H 0.22437 0.69912 0.18919 0.0
H61 H 0.18169 0.73047 0.16814 0.0
H62 H 0.22721 0.78379 0.17475 0.0
H63 H 0.23214 0.74889 0.14642 0.0
H64 H 0.1956 0.65394 0.22897 0.0
H65 H 0.16194 0.74915 0.25307 0.0
H66 H 0.09452 0.56547 0.23545 0.0
H67 H 0.15148 0.58181 0.24315 0.0
H68 H 0.11339 0.57049 0.27522 0.0
H69 H 0.09619 0.73252 0.27965 0.0
H70 H 0.05078 0.68146 0.26726 0.0
H71 H 0.07548 0.68662 0.30507 0.0
H72 H 0.87313 0.41347 0.15315 0.0
H73 H 0.79424 0.35925 0.16438 0.0
H74 H 0.8181 0.39614 0.1967 0.0
H75 H 0.78146 0.40157 0.16981 0.0
H76 H 0.8872 0.54128 0.17827 0.0
H77 H 0.90533 0.43474 0.19786 0.0
H78 H 0.97467 0.6186 0.21783 0.0
H79 H 0.91759 0.60246 0.21111 0.0
H80 H 0.93627 0.59797 0.24976 0.0
H81 H 0.96194 0.44128 0.23074 0.0
H82 H 0.00086 0.49266 0.24728 0.0
H83 H 0.94982 0.45864 0.2671 0.0
H84 H 0.75611 0.36714 0.36042 0.0
H85 H 0.80171 0.44953 0.42847 0.0
H86 H 0.82755 0.35907 0.38243 0.0
H87 H 0.89486 0.54224 0.40125 0.0
H88 H 0.85505 0.52273 0.43278 0.0
H89 H 0.90994 0.53145 0.43888 0.0
H90 H 0.90082 0.37638 0.36923 0.0
H91 H 0.91915 0.4226 0.34471 0.0
H92 H 0.947 0.42728 0.38117 0.0
H93 H 0.15274 0.54263 0.50604 0.0
H94 H 0.22901 0.57128 0.48383 0.0
H95 H 0.1937 0.57395 0.45458 0.0
H96 H 0.23219 0.62174 0.4753 0.0
H97 H 0.10987 0.63726 0.4813 0.0
H98 H 0.11737 0.52518 0.45929 0.0
H99 H 0.05451 0.63922 0.41513 0.0
H100 H 0.01002 0.60584 0.44084 0.0
H101 H 0.05869 0.65191 0.45651 0.0
H102 H 0.07916 0.47978 0.41732 0.0
H103 H 0.02359 0.47052 0.41706 0.0
H104 H 0.06112 0.50176 0.38656 0.0
H105 H 0.03422 0.5967 0.22797 0.0
H106 H 0.90191 0.50156 0.28374 0.0
H107 H 0.88441 0.47852 0.33708 0.0
H108 H 0.96843 0.50378 0.43217 0.0
H109 H 0.09889 0.6085 0.37823 0.0
H110 H 0.11555 0.63416 0.32513 0.0
H111 H 0.69229 0.29666 0.40563 0.0
H112 H 0.68762 0.29653 0.36318 0.0
H113 H 0.73353 0.29527 0.38107 0.0
C114 C 0.18754 0.72996 0.64044 0.0
C115 C 0.22856 0.74176 0.62066 0.0
C116 C 0.2622 0.79938 0.58177 0.0
C117 C 0.3065 0.81069 0.58649 0.0
C118 C 0.34099 0.84849 0.57367 0.0
C119 C 0.33098 0.87576 0.55622 0.0
C120 C 0.28631 0.86394 0.551 0.0
C121 C 0.25259 0.82549 0.56338 0.0
C122 C 0.38812 0.85949 0.57907 0.0
C123 C 0.27401 0.89243 0.53311 0.0
C124 C 0.55684 0.20105 0.61102 0.0
C125 C 0.55514 0.16714 0.6332 0.0
C126 C 0.48811 0.09935 0.62103 0.0
C127 C 0.44368 0.08499 0.61467 0.0
C128 C 0.41864 0.04897 0.59554 0.0
C129 C 0.43854 0.02645 0.58305 0.0
C130 C 0.48257 0.03904 0.59129 0.0
C131 C 0.50693 0.07535 0.61024 0.0
C132 C 0.37165 0.03613 0.58748 0.0
C133 C 0.50436 0.01489 0.57918 0.0
C134 C 0.50307 0.16567 0.41144 0.0
C135 C 0.45695 0.13909 0.41099 0.0
C136 C 0.43766 0.09474 0.41435 0.0
C137 C 0.46502 0.07671 0.41806 0.0
C138 C 0.51135 0.10295 0.4159 0.0
C139 C 0.52979 0.14723 0.41256 0.0
C140 C 0.38803 0.06741 0.41577 0.0
C141 C 0.54135 0.08454 0.41918 0.0
C142 C 0.41114 0.79238 0.32403 0.0
C143 C 0.41399 0.8299 0.3053 0.0
C144 C 0.39098 0.86748 0.34234 0.0
C145 C 0.35841 0.8779 0.3489 0.0
C146 C 0.36348 0.90589 0.37363 0.0
C147 C 0.40203 0.92355 0.3924 0.0
C148 C 0.43465 0.91233 0.38646 0.0
C149 C 0.42887 0.8845 0.36151 0.0
C150 C 0.3281 0.91721 0.3794 0.0
C151 C 0.47615 0.93053 0.40612 0.0
C152 C 0.36675 0.91806 0.54537 0.0
C153 C 0.38656 0.95101 0.56771 0.0
C154 C 0.41551 0.99306 0.55857 0.0
C155 C 0.4232 0.00304 0.5263 0.0
C156 C 0.44815 0.0456 0.51617 0.0
C157 C 0.45493 0.05521 0.48441 0.0
C158 C 0.43855 0.02256 0.46155 0.0
C159 C 0.44541 0.0321 0.42918 0.0
C160 C 0.43204 -0.00089 0.40719 0.0
C161 C 0.41027 0.95634 0.41666 0.0
C162 C 0.39948 0.94604 0.44873 0.0
C163 C 0.37426 0.90346 0.45888 0.0
C164 C 0.36309 0.89407 0.49051 0.0
C165 C 0.37824 0.92685 0.51325 0.0
C166 C 0.40542 0.96973 0.50364 0.0
C167 C 0.41451 0.97942 0.47128 0.0
C168 C 0.48916 0.22965 0.45195 0.0
C169 C 0.50388 0.23374 0.41752 0.0
O170 O 0.22779 0.76366 0.59427 0.0
O171 O 0.38449 0.84116 0.31741 0.0
O172 O 0.52317 0.20902 0.41188 0.0
O173 O 0.51142 0.13596 0.63797 0.0
H174 H 0.25771 0.76248 0.63564 0.0
H175 H 0.15702 0.7085 0.62698 0.0
H176 H 0.1881 0.71382 0.66246 0.0
H177 H 0.18684 0.75937 0.64696 0.0
H178 H 0.3144 0.79013 0.59997 0.0
H179 H 0.21833 0.81624 0.55961 0.0
H180 H 0.40399 0.88628 0.5962 0.0
H181 H 0.39025 0.83198 0.58845 0.0
H182 H 0.40711 0.87016 0.55681 0.0
H183 H 0.23818 0.88124 0.53467 0.0
H184 H 0.2928 0.9257 0.54225 0.0
H185 H 0.28264 0.89303 0.50795 0.0
H186 H 0.5748 0.15406 0.62249 0.0
H187 H 0.59158 0.22668 0.60719 0.0
H188 H 0.54232 0.18625 0.5879 0.0
H189 H 0.53785 0.21546 0.62084 0.0
H190 H 0.42915 0.10314 0.62375 0.0
H191 H 0.54048 0.08464 0.61657 0.0
H192 H 0.36867 0.03919 0.56176 0.0
H193 H 0.34932 0.00211 0.59368 0.0
H194 H 0.36049 0.05606 0.59995 0.0
H195 H 0.5366 0.02527 0.59082 0.0
H196 H 0.48245 0.98005 0.58288 0.0
H197 H 0.50999 0.02019 0.5535 0.0
H198 H 0.47523 0.22417 0.40156 0.0
H199 H 0.43576 0.1527 0.40908 0.0
H200 H 0.56533 0.16792 0.41227 0.0
H201 H 0.37797 0.05553 0.44011 0.0
H202 H 0.3713 0.08532 0.40886 0.0
H203 H 0.37648 0.03913 0.40009 0.0
H204 H 0.57625 0.10837 0.41377 0.0
H205 H 0.53962 0.07319 0.44363 0.0
H206 H 0.53024 0.05655 0.40327 0.0
H207 H 0.44833 0.85738 0.30653 0.0
H208 H 0.43496 0.78338 0.31463 0.0
H209 H 0.41929 0.80128 0.34914 0.0
H210 H 0.37723 0.76423 0.32271 0.0
H211 H 0.32916 0.8645 0.33419 0.0
H212 H 0.45429 0.87655 0.35717 0.0
H213 H 0.31727 0.91085 0.40429 0.0
H214 H 0.34178 0.95187 0.37523 0.0
H215 H 0.29892 0.89892 0.3639 0.0
H216 H 0.49775 0.91759 0.39919 0.0
H217 H 0.4951 0.96584 0.40371 0.0
H218 H 0.4674 0.92329 0.43131 0.0
H219 H 0.37884 0.94398 0.59243 0.0
H220 H 0.46198 0.0721 0.53264 0.0
H221 H 0.47377 0.08862 0.4781 0.0
H222 H 0.43894 0.00682 0.38247 0.0
H223 H 0.36209 0.87707 0.44236 0.0
H224 H 0.34294 0.86084 0.49706 0.0
H225 H 0.51724 0.23771 0.46811 0.0
H226 H 0.47612 0.25145 0.45685 0.0
H227 H 0.46248 0.19661 0.45703 0.0
C228 C 0.64821 0.3693 0.76604 0.0
C229 C 0.63012 0.35113 0.73328 0.0
C230 C 0.57937 0.37762 0.72091 0.0
C231 C 0.61187 0.4207 0.71661 0.0
C232 C 0.60001 0.45135 0.70913 0.0
C233 C 0.55491 0.43862 0.70557 0.0
C234 C 0.52224 0.39521 0.70927 0.0
C235 C 0.53497 0.36533 0.71702 0.0
C236 C 0.63558 0.4975 0.70548 0.0
C237 C 0.47384 0.38049 0.7054 0.0
C238 C 0.39355 0.49292 0.85282 0.0
C239 C 0.41486 0.54053 0.8444 0.0
C240 C 0.47053 0.54848 0.80545 0.0
C241 C 0.44052 0.52304 0.78188 0.0
C242 C 0.45522 0.51277 0.75431 0.0
C243 C 0.5011 0.53012 0.74943 0.0
C244 C 0.5315 0.55752 0.7724 0.0
C245 C 0.51571 0.56593 0.80026 0.0
C246 C 0.42142 0.48252 0.73085 0.0
C247 C 0.58063 0.57737 0.76781 0.0
C248 C 0.44053 0.64595 0.58664 0.0
C249 C 0.41564 0.6056 0.60051 0.0
C250 C 0.43236 0.57772 0.60271 0.0
C251 C 0.47628 0.59174 0.593 0.0
C252 C 0.50148 0.63252 0.57906 0.0
C253 C 0.48269 0.65855 0.57529 0.0
C254 C 0.40279 0.53348 0.61571 0.0
C255 C 0.54845 0.64908 0.56855 0.0
C256 C 0.63201 0.44375 0.49948 0.0
C257 C 0.61035 0.45181 0.47087 0.0
C258 C 0.55669 0.46408 0.49946 0.0
C259 C 0.51344 0.44331 0.51078 0.0
C260 C 0.50071 0.46132 0.53501 0.0
C261 C 0.53213 0.50125 0.54802 0.0
C262 C 0.57522 0.52365 0.53539 0.0
C263 C 0.58704 0.50496 0.51114 0.0
C264 C 0.45426 0.43696 0.54757 0.0
C265 C 0.60925 0.56671 0.54833 0.0
C266 C 0.54172 0.47094 0.69934 0.0
C267 C 0.53056 0.4876 0.72512 0.0
C268 C 0.51692 0.51753 0.7212 0.0
C269 C 0.51515 0.53199 0.69073 0.0
C270 C 0.5039 0.56374 0.68602 0.0
C271 C 0.4991 0.57547 0.65584 0.0
C272 C 0.50479 0.55548 0.62923 0.0
C273 C 0.49614 0.56438 0.59851 0.0
C274 C 0.50459 0.54566 0.57255 0.0
C275 C 0.52127 0.51807 0.57644 0.0
C276 C 0.52795 0.50716 0.60703 0.0
C277 C 0.54284 0.47802 0.61184 0.0
C278 C 0.54778 0.46636 0.64204 0.0
C279 C 0.53834 0.48363 0.66858 0.0
C280 C 0.5246 0.51401 0.66428 0.0
C281 C 0.51929 0.52569 0.63348 0.0
C282 C 0.40814 0.72366 0.60543 0.0
C283 C 0.39522 0.67656 0.60302 0.0
O284 O 0.58893 0.34696 0.72927 0.0
O285 O 0.568 0.44309 0.47813 0.0
O286 O 0.42467 0.67311 0.58317 0.0
O287 O 0.45758 0.55626 0.83368 0.0
H288 H 0.65357 0.37217 0.71498 0.0
H289 H 0.62513 0.34854 0.78459 0.0
H290 H 0.68082 0.37176 0.76963 0.0
H291 H 0.65268 0.40175 0.76872 0.0
H292 H 0.64643 0.43085 0.71944 0.0
H293 H 0.51015 0.33206 0.7203 0.0
H294 H 0.6301 0.51764 0.72258 0.0
H295 H 0.66919 0.50239 0.70921 0.0
H296 H 0.63381 0.50868 0.68155 0.0
H297 H 0.45274 0.34521 0.70704 0.0
H298 H 0.46356 0.39541 0.72391 0.0
H299 H 0.46803 0.39096 0.68229 0.0
H300 H 0.39453 0.54465 0.82618 0.0
H301 H 0.36041 0.48135 0.86329 0.0
H302 H 0.3892 0.47315 0.8317 0.0
H303 H 0.41444 0.48777 0.86987 0.0
H304 H 0.40549 0.51025 0.78499 0.0
H305 H 0.5387 0.58591 0.81838 0.0
H306 H 0.42097 0.5008 0.71013 0.0
H307 H 0.42986 0.45838 0.72252 0.0
H308 H 0.38763 0.46551 0.74092 0.0
H309 H 0.59976 0.60335 0.7851 0.0
H310 H 0.58999 0.55248 0.77064 0.0
H311 H 0.59008 0.59049 0.7437 0.0
H312 H 0.39766 0.66624 0.62719 0.0
H313 H 0.38283 0.59526 0.60923 0.0
H314 H 0.5015 0.68962 0.56437 0.0
H315 H 0.4081 0.53386 0.64145 0.0
H316 H 0.36739 0.5229 0.61181 0.0
H317 H 0.40987 0.50962 0.60484 0.0
H318 H 0.56582 0.68389 0.56359 0.0
H319 H 0.56731 0.64295 0.58672 0.0
H320 H 0.5484 0.63213 0.54673 0.0
H321 H 0.63104 0.48555 0.46328 0.0
H322 H 0.66616 0.4514 0.4938 0.0
H323 H 0.63424 0.4642 0.51969 0.0
H324 H 0.61245 0.40978 0.50683 0.0
H325 H 0.49003 0.41211 0.50133 0.0
H326 H 0.62029 0.52206 0.502 0.0
H327 H 0.45499 0.4273 0.5722 0.0
H328 H 0.43942 0.4578 0.54781 0.0
H329 H 0.43286 0.40785 0.53343 0.0
H330 H 0.64069 0.58103 0.53497 0.0
H331 H 0.59617 0.58899 0.54773 0.0
H332 H 0.61628 0.56333 0.57327 0.0
H333 H 0.53161 0.4764 0.74855 0.0
H334 H 0.49823 0.57952 0.70565 0.0
H335 H 0.4902 0.59997 0.65368 0.0
H336 H 0.49809 0.5526 0.54902 0.0
H337 H 0.55025 0.46338 0.59232 0.0
H338 H 0.5587 0.44332 0.64432 0.0
H339 H 0.40466 0.73564 0.58221 0.0
H340 H 0.38714 0.72805 0.62289 0.0
H341 H 0.44304 0.74307 0.61325 0.0
C342 C 0.27005 0.52209 -0.00533 0.0
C343 C 0.27939 0.54068 0.96145 0.0
C344 C 0.21858 0.49386 0.92564 0.0
C345 C 0.20189 0.52107 0.9188 0.0
C346 C 0.15988 0.50488 0.90523 0.0
C347 C 0.13433 0.4608 0.89804 0.0
C348 C 0.15199 0.4338 0.90341 0.0
C349 C 0.19407 0.45082 0.91693 0.0
C350 C 0.14238 0.53469 0.89907 0.0
C351 C 0.12585 0.38672 0.89568 0.0
C352 C 0.86681 0.30589 0.03676 0.0
C353 C 0.85548 0.33112 0.0134 0.0
C354 C 0.92023 0.37755 0.98104 0.0
C355 C 0.92368 0.34545 0.96482 0.0
C356 C 0.95355 0.35581 0.93984 0.0
C357 C 0.97924 0.39892 0.9302 0.0
C358 C 0.97545 0.43118 0.94639 0.0
C359 C 0.9465 0.42006 0.97193 0.0
C360 C 0.95794 0.32071 0.92402 0.0
C361 C 0.00215 0.4775 0.93692 0.0
C362 C 0.81937 0.29733 0.75669 0.0
C363 C 0.84643 0.28051 0.7651 0.0
C364 C 0.89183 0.30744 0.77023 0.0
C365 C 0.91063 0.35221 0.76738 0.0
C366 C 0.88383 0.36924 0.75817 0.0
C367 C 0.83855 0.34148 0.75277 0.0
C368 C 0.91956 0.28802 0.77946 0.0
C369 C 0.90281 0.41678 0.75497 0.0
C370 C 0.23374 0.49883 0.67184 0.0
C371 C 0.20221 0.5153 0.66424 0.0
C372 C 0.12903 0.46646 0.68415 0.0
C373 C 0.10705 0.42306 0.69162 0.0
C374 C 0.07642 0.40704 0.71634 0.0
C375 C 0.06672 0.43507 0.73332 0.0
C376 C 0.08755 0.47876 0.72488 0.0
C377 C 0.11871 0.49403 0.70049 0.0
C378 C 0.05487 0.36029 0.72455 0.0
C379 C 0.07689 0.50933 0.7416 0.0
C380 C 0.08775 0.44222 0.88773 0.0
C381 C 0.05571 0.42905 0.91121 0.0
C382 C 0.01098 0.41067 0.90379 0.0
C383 C -0.00253 0.40447 0.87195 0.0
C384 C 0.9527 0.38563 0.86359 0.0
C385 C 0.93959 0.37792 0.83227 0.0
C386 C 0.97084 0.38994 0.80802 0.0
C387 C 0.95764 0.38092 0.77619 0.0
C388 C 0.98953 0.3962 0.75248 0.0
C389 C 0.03464 0.41877 0.75975 0.0
C390 C 0.04841 0.42515 0.79163 0.0
C391 C 0.09332 0.44481 0.79999 0.0
C392 C 0.10637 0.45043 0.83144 0.0
C393 C 0.07503 0.43699 0.85572 0.0
C394 C 0.02964 0.41759 0.84784 0.0
C395 C 0.01632 0.4111 0.8158 0.0
C396 C 0.74143 0.22265 0.7946 0.0
C397 C 0.74878 0.22929 0.75906 0.0
O398 O 0.25832 0.50765 0.93982 0.0
O399 O 0.15972 0.48094 0.66093 0.0
O400 O 0.77489 0.2725 0.75256 0.0
O401 O 0.89311 0.3693 0.00607 0.0
H402 H 0.26758 0.56386 0.96001 0.0
H403 H 0.23413 0.50662 -0.00042 0.0
H404 H 0.28024 0.49771 -0.00287 0.0
H405 H 0.28798 0.54788 0.01234 0.0
H406 H 0.22134 0.55494 0.92362 0.0
H407 H 0.2076 0.43025 0.92161 0.0
H408 H 0.1133 0.5258 0.91426 0.0
H409 H 0.16745 0.56863 0.90377 0.0
H410 H 0.13123 0.53147 0.87426 0.0
H411 H 0.14506 0.37041 0.89987 0.0
H412 H 0.09556 0.37123 0.91031 0.0
H413 H 0.11526 0.38214 0.87068 0.0
H414 H 0.84072 0.3116 0.9918 0.0
H415 H 0.83704 0.27459 0.04191 0.0
H416 H 0.89235 0.2997 0.02682 0.0
H417 H 0.87978 0.32418 0.05905 0.0
H418 H 0.90394 0.31246 0.97195 0.0
H419 H 0.9438 0.44459 0.98476 0.0
H420 H 0.94324 0.31477 0.90013 0.0
H421 H -0.00671 0.33039 0.9214 0.0
H422 H 0.94098 0.29029 0.93734 0.0
H423 H 0.99059 0.49754 0.94872 0.0
H424 H 0.03725 0.49008 0.94337 0.0
H425 H 0.00051 0.48068 0.91107 0.0
H426 H 0.7644 0.21109 0.75018 0.0
H427 H 0.83255 0.24651 0.76809 0.0
H428 H 0.81761 0.35427 0.74613 0.0
H429 H 0.92961 0.2957 0.80447 0.0
H430 H 0.90145 0.25272 0.77655 0.0
H431 H 0.9501 0.30176 0.7651 0.0
H432 H 0.87751 0.42505 0.74789 0.0
H433 H 0.91766 0.43285 0.77769 0.0
H434 H 0.92955 0.42955 0.73717 0.0
H435 H 0.20442 0.53641 0.68413 0.0
H436 H 0.26816 0.52593 0.67402 0.0
H437 H 0.22425 0.48144 0.69454 0.0
H438 H 0.23238 0.47655 0.65322 0.0
H439 H 0.11489 0.40197 0.67854 0.0
H440 H 0.13467 0.52739 0.69392 0.0
H441 H 0.05819 0.35656 0.75014 0.0
H442 H 0.01909 0.3443 0.71901 0.0
H443 H 0.0694 0.34377 0.71137 0.0
H444 H 0.0919 0.54091 0.72985 0.0
H445 H 0.04058 0.49567 0.74273 0.0
H446 H 0.08946 0.51428 0.7661 0.0
H447 H 0.06579 0.43331 0.93571 0.0
H448 H 0.92717 0.37598 0.8812 0.0
H449 H 0.90459 0.36264 0.82729 0.0
H450 H 0.97912 0.38983 0.72807 0.0
H451 H 0.11887 0.45567 0.78229 0.0
H452 H 0.14133 0.46548 0.83652 0.0
H453 H 0.72591 0.24071 0.80396 0.0
H454 H 0.71973 0.18817 0.79989 0.0
H455 H 0.7733 0.2339 0.80698 0.0
C456 C 0.37199 0.74687 0.85207 0.0
C457 C 0.39449 0.75244 0.88396 0.0
C458 C 0.44969 0.82744 0.89549 0.0
C459 C 0.41998 0.84131 0.9036 0.0
C460 C 0.43528 0.88228 0.91625 0.0
C461 C 0.48116 0.91024 0.92024 0.0
C462 C 0.51117 0.8967 0.91151 0.0
C463 C 0.49494 0.85538 0.89932 0.0
C464 C 0.40244 0.89597 0.92497 0.0
C465 C 0.56036 0.92607 0.91475 0.0
C466 C 0.46911 0.10273 0.77507 0.0
C467 C 0.51265 0.10725 0.78644 0.0
C468 C 0.52381 0.10656 0.84192 0.0
C469 C 0.5583 0.09843 0.84693 0.0
C470 C 0.55766 0.07424 0.8728 0.0
C471 C 0.52123 0.05734 0.8936 0.0
C472 C 0.48676 0.06639 0.88882 0.0
C473 C 0.48884 0.09154 0.86314 0.0
C474 C 0.59523 0.06569 0.87736 0.0
C475 C 0.447 0.04822 0.9101 0.0
C476 C 0.60192 0.20637 0.07066 0.0
C477 C 0.63153 0.19623 0.05642 0.0
C478 C 0.61921 0.15354 0.0502 0.0
C479 C 0.57569 0.12064 0.05721 0.0
C480 C 0.54635 0.13089 0.07265 0.0
C481 C 0.56027 0.17374 0.07974 0.0
C482 C 0.65232 0.14384 0.03532 0.0
C483 C 0.49982 0.09684 0.08068 0.0
C484 C 0.51167 0.80964 0.13549 0.0
C485 C 0.48498 0.8322 0.13976 0.0
C486 C 0.51936 0.90734 0.12748 0.0
C487 C 0.56205 0.93758 0.11823 0.0
C488 C 0.56919 0.96945 0.09644 0.0
C489 C 0.53268 0.97172 0.08452 0.0
C490 C 0.48962 0.94275 0.0955 0.0
C491 C 0.48338 0.91048 0.11658 0.0
C492 C 0.61555 -0.00014 0.08547 0.0
C493 C 0.45007 0.94533 0.08451 0.0
C494 C 0.49782 0.9545 0.93174 0.0
C495 C 0.50246 0.98497 0.90975 0.0
C496 C 0.51745 0.02726 0.91861 0.0
C497 C 0.52815 0.03979 0.95039 0.0
C498 C 0.54304 0.08201 0.96014 0.0
C499 C 0.55283 0.09385 0.99155 0.0
C500 C 0.54917 0.06418 0.01437 0.0
C501 C 0.55984 0.07616 0.04631 0.0
C502 C 0.55463 0.04553 0.06847 0.0
C503 C 0.5392 0.00305 0.05963 0.0
C504 C 0.52941 0.99074 0.02766 0.0
C505 C 0.51488 0.94855 0.01775 0.0
C506 C 0.50435 0.93652 0.9864 0.0
C507 C 0.5085 0.96635 0.96365 0.0
C508 C 0.52366 0.00918 0.973 0.0
C509 C 0.5342 0.0214 0.00503 0.0
C510 C 0.60172 0.30243 0.05509 0.0
C511 C 0.62593 0.27742 0.05154 0.0
O512 O 0.43648 0.78794 0.88346 0.0
O513 O 0.5135 0.87496 0.14651 0.0
O514 O 0.61268 0.24752 0.07536 0.0
O515 O 0.52288 0.12694 0.81565 0.0
H516 H 0.37371 0.75532 0.90247 0.0
H517 H 0.36805 0.77492 0.84731 0.0
H518 H 0.39205 0.74421 0.83291 0.0
H519 H 0.33873 0.71775 0.85206 0.0
H520 H 0.38494 0.82076 0.89971 0.0
H521 H 0.51764 0.84461 0.89266 0.0
H522 H 0.40674 0.92216 0.90921 0.0
H523 H 0.36777 0.86933 0.92304 0.0
H524 H 0.40853 0.90859 0.94942 0.0
H525 H 0.57935 0.91106 0.90613 0.0
H526 H 0.5707 0.95588 0.90135 0.0
H527 H 0.56893 0.93519 0.93981 0.0
H528 H 0.50811 0.07446 0.78758 0.0
H529 H 0.46008 0.08692 0.75162 0.0
H530 H 0.44233 0.08278 0.79184 0.0
H531 H 0.47166 0.13454 0.77345 0.0
H532 H 0.58524 0.11045 0.83024 0.0
H533 H 0.46236 0.0981 0.85878 0.0
H534 H 0.60649 0.07159 0.90223 0.0
H535 H 0.58361 0.03162 0.87192 0.0
H536 H 0.62372 0.08589 0.86191 0.0
H537 H 0.42191 0.05631 0.90209 0.0
H538 H 0.43144 0.0129 0.91115 0.0
H539 H 0.45744 0.06083 0.93431 0.0
H540 H 0.61699 0.26132 0.02808 0.0
H541 H 0.6642 0.22172 0.05013 0.0
H542 H 0.53796 0.18214 0.0911 0.0
H543 H 0.64512 0.13768 0.00982 0.0
H544 H 0.68664 0.17093 0.03804 0.0
H545 H 0.65015 0.11482 0.04585 0.0
H546 H 0.48004 0.11055 0.0902 0.0
H547 H 0.48292 0.07747 0.05946 0.0
H548 H 0.50071 0.07498 0.09849 0.0
H549 H 0.46702 0.82822 0.11721 0.0
H550 H 0.48936 0.77512 0.13037 0.0
H551 H 0.53477 0.82401 0.11544 0.0
H552 H 0.53127 0.81305 0.15697 0.0
H553 H 0.5896 0.93504 0.12716 0.0
H554 H 0.45046 0.88756 0.12453 0.0
H555 H 0.61706 -0.0009 0.05941 0.0
H556 H 0.62512 0.03296 0.09258 0.0
H557 H 0.63996 0.99205 0.09541 0.0
H558 H 0.42046 0.92553 0.09915 0.0
H559 H 0.45737 0.97894 0.08508 0.0
H560 H 0.44219 0.9338 0.05984 0.0
H561 H 0.49413 0.97556 0.88531 0.0
H562 H 0.54697 0.10633 0.94361 0.0
H563 H 0.56341 0.12668 -0.00236 0.0
H564 H 0.56232 0.0548 0.09297 0.0
H565 H 0.51132 0.92424 0.03414 0.0
H566 H 0.49299 0.90355 0.98019 0.0
H567 H 0.60971 0.31944 0.0781 0.0
H568 H 0.6111 0.32614 0.03587 0.0
H569 H 0.56551 0.28016 0.05383 0.0
C570 C 0.80827 0.53187 0.98962 0.0
C571 C 0.77925 0.50163 0.01559 0.0
C572 C 0.74663 0.53383 0.04891 0.0
C573 C 0.70168 0.50315 0.04552 0.0
C574 C 0.66889 0.51307 0.05328 0.0
C575 C 0.68133 0.5542 0.06513 0.0
C576 C 0.72651 0.58461 0.06961 0.0
C577 C 0.75858 0.57385 0.06164 0.0
C578 C 0.62094 0.47962 0.04894 0.0
C579 C 0.74085 0.62853 0.08267 0.0
C580 C 0.57961 0.73213 0.93705 0.0
C581 C 0.54175 0.69474 0.95449 0.0
C582 C 0.56216 0.64567 0.97823 0.0
C583 C 0.59225 0.67346 0.00082 0.0
C584 C 0.60652 0.65761 0.02546 0.0
C585 C 0.58933 0.61301 0.02798 0.0
C586 C 0.55939 0.58506 0.005 0.0
C587 C 0.54679 0.60193 0.98011 0.0
C588 C 0.6399 0.68853 0.04877 0.0
C589 C 0.54045 0.53735 0.0068 0.0
C590 C 0.44568 0.62449 0.20432 0.0
C591 C 0.49083 0.64691 0.21079 0.0
C592 C 0.51832 0.6313 0.2011 0.0
C593 C 0.49977 0.59138 0.1854 0.0
C594 C 0.45383 0.56802 0.17923 0.0
C595 C 0.42725 0.58508 0.18841 0.0
C596 C 0.56713 0.65738 0.208 0.0
C597 C 0.43281 0.52487 0.16326 0.0
C598 C 0.62794 0.40845 0.27381 0.0
C599 C 0.60688 0.42543 0.29704 0.0
C600 C 0.60709 0.48407 0.26773 0.0
C601 C 0.62881 0.52841 0.26441 0.0
C602 C 0.61712 0.54746 0.24053 0.0
C603 C 0.58238 0.52133 0.21965 0.0
C604 C 0.55967 0.47643 0.22312 0.0
C605 C 0.57234 0.45818 0.24704 0.0
C606 C 0.64216 0.59545 0.2374 0.0
C607 C 0.52236 0.44774 0.20127 0.0
C608 C 0.64714 0.56553 0.07275 0.0
C609 C 0.63418 0.58354 0.04904 0.0
C610 C 0.60248 0.59541 0.05461 0.0
C611 C 0.58342 0.58975 0.0848 0.0
C612 C 0.55197 0.60199 0.09141 0.0
C613 C 0.53433 0.59731 0.12142 0.0
C614 C 0.54631 0.57889 0.14571 0.0
C615 C 0.52859 0.57395 0.1763 0.0
C616 C 0.54055 0.55464 0.19969 0.0
C617 C 0.57063 0.54091 0.19361 0.0
C618 C 0.58961 0.54658 0.16343 0.0
C619 C 0.62094 0.53419 0.15681 0.0
C620 C 0.63986 0.54039 0.12716 0.0
C621 C 0.62796 0.55895 0.10292 0.0
C622 C 0.59618 0.57135 0.109 0.0
C623 C 0.5772 0.56542 0.13936 0.0
C624 C 0.34357 0.60025 0.22383 0.0
C625 C 0.38076 0.63373 0.20347 0.0
O626 O 0.77929 0.52571 0.04102 0.0
O627 O 0.62112 0.46798 0.29096 0.0
O628 O 0.42123 0.64157 0.21473 0.0
O629 O 0.54786 0.65983 0.954 0.0
H630 H 0.74561 0.48154 0.00565 0.0
H631 H 0.79395 0.55141 0.98138 0.0
H632 H 0.84223 0.55383 -0.00156 0.0
H633 H 0.8099 0.51333 0.96928 0.0
H634 H 0.69192 0.47125 0.03736 0.0
H635 H 0.79331 0.59698 0.06476 0.0
H636 H 0.60507 0.49155 0.03245 0.0
H637 H 0.61662 0.44901 0.03963 0.0
H638 H 0.60345 0.47342 0.07177 0.0
H639 H 0.7773 0.64846 0.08492 0.0
H640 H 0.72889 0.64515 0.0671 0.0
H641 H 0.72583 0.62566 0.10617 0.0
H642 H 0.54031 0.70454 0.97912 0.0
H643 H 0.61136 0.74231 0.94931 0.0
H644 H 0.58232 0.72272 0.9126 0.0
H645 H 0.57413 0.7598 0.93639 0.0
H646 H 0.60517 0.70752 -0.00097 0.0
H647 H 0.52395 0.58088 0.96233 0.0
H648 H 0.62371 0.68514 0.07184 0.0
H649 H 0.66684 0.68124 0.05227 0.0
H650 H 0.65456 0.72225 0.04108 0.0
H651 H 0.51406 0.51975 0.98905 0.0
H652 H 0.56712 0.52983 0.00278 0.0
H653 H 0.5267 0.52563 0.03058 0.0
H654 H 0.37585 0.62247 0.17861 0.0
H655 H 0.50461 0.67713 0.22326 0.0
H656 H 0.39215 0.56713 0.18371 0.0
H657 H 0.58657 0.65941 0.18679 0.0
H658 H 0.57717 0.69029 0.21603 0.0
H659 H 0.57557 0.64148 0.22674 0.0
H660 H 0.39625 0.50921 0.16244 0.0
H661 H 0.44531 0.52854 0.13884 0.0
H662 H 0.44203 0.50361 0.17577 0.0
H663 H 0.57029 0.40596 0.29542 0.0
H664 H 0.61677 0.37439 0.27878 0.0
H665 H 0.6182 0.4105 0.24935 0.0
H666 H 0.66453 0.4274 0.27555 0.0
H667 H 0.65548 0.54812 0.28047 0.0
H668 H 0.55506 0.42378 0.24916 0.0
H669 H 0.65569 0.60451 0.21327 0.0
H670 H 0.6193 0.60786 0.24121 0.0
H671 H 0.66976 0.61112 0.25456 0.0
H672 H 0.50648 0.41355 0.20802 0.0
H673 H 0.49695 0.45749 0.20118 0.0
H674 H 0.53509 0.4512 0.17692 0.0
H675 H 0.64889 0.58827 0.02589 0.0
H676 H 0.54099 0.61581 0.07357 0.0
H677 H 0.51087 0.60802 0.12524 0.0
H678 H 0.52684 0.55094 0.22311 0.0
H679 H 0.6314 0.51977 0.17454 0.0
H680 H 0.66391 0.53039 0.12348 0.0
H681 H 0.34767 0.61123 0.2487 0.0
H682 H 0.31105 0.59418 0.21501 0.0
H683 H 0.34374 0.56969 0.22305 0.0
C684 C 0.70972 0.37767 0.38551 0.0
O685 O 0.72829 0.41815 0.38494 0.0
Cd686 Cd 0.68882 0.45575 0.39291 0.0
O687 O 0.66818 0.35477 0.3895 0.0
Cd688 Cd 0.60382 0.36467 0.39718 0.0
C689 C 0.61952 0.42132 0.32999 0.0
O690 O 0.64143 0.41988 0.4371 0.0
O691 O 0.57438 0.40351 0.42686 0.0
O692 O 0.57506 0.29706 0.42454 0.0
C693 C 0.60865 0.42423 0.44369 0.0
O694 O 0.65283 0.45263 0.34302 0.0
C695 C 0.53767 0.27929 0.41101 0.0
O696 O 0.59801 0.38561 0.34385 0.0
O697 O 0.53055 0.3014 0.39132 0.0
C698 C 0.34824 0.64914 0.59171 0.0
O699 O 0.33778 0.61621 0.57501 0.0
Cd700 Cd 0.26268 0.56599 0.56124 0.0
O701 O 0.31888 0.65784 0.60062 0.0
Cd702 Cd 0.23878 0.63083 0.59353 0.0
C703 C 0.21607 0.54168 0.63473 0.0
O704 O 0.23726 0.61065 0.53892 0.0
O705 O 0.17354 0.59172 0.55892 0.0
O706 O 0.25905 0.70586 0.59061 0.0
C707 C 0.19613 0.59465 0.5348 0.0
O708 O 0.22733 0.52869 0.61047 0.0
C709 C 0.23116 0.70305 0.61089 0.0
O710 O 0.21808 0.57774 0.63491 0.0
O711 O 0.20666 0.66654 0.62299 0.0
C712 C 0.70495 0.21197 0.74282 0.0
O713 O 0.68786 0.17573 0.72932 0.0
Cd714 Cd 0.61724 0.14168 0.7033 0.0
O715 O 0.68482 0.23308 0.74353 0.0
Cd716 Cd 0.61414 0.22447 0.72357 0.0
C717 C 0.54869 0.1332 0.76346 0.0
O718 O 0.61389 0.19464 0.67169 0.0
O719 O 0.5544 0.1948 0.68479 0.0
O720 O 0.65107 0.3013 0.71303 0.0
C721 C 0.57566 0.18721 0.66416 0.0
O722 O 0.55979 0.11401 0.7435 0.0
C723 C 0.62519 0.30769 0.73009 0.0
O724 O 0.56584 0.17364 0.76304 0.0
O725 O 0.59454 0.27562 0.74413 0.0
C726 C 0.32788 0.56425 0.95416 0.0
O727 O 0.35302 0.55193 0.96572 0.0
Cd728 Cd 0.42996 0.58372 0.95256 0.0
O729 O 0.34277 0.59529 0.93498 0.0
Cd730 Cd 0.41353 0.64711 0.91028 0.0
C731 C 0.41658 0.56592 0.87294 0.0
O732 O 0.46244 0.65985 0.95482 0.0
O733 O 0.49411 0.68344 0.90998 0.0
O734 O 0.39318 0.70104 0.92019 0.0
C735 C 0.49791 0.68118 0.93945 0.0
O736 O 0.42931 0.55867 0.89908 0.0
C737 C 0.39856 0.71434 0.8921 0.0
O738 O 0.40653 0.59507 0.87045 0.0
O739 O 0.41149 0.69667 0.87222 0.0
C740 C 0.79563 0.4725 0.02627 0.0
O741 O 0.83671 0.48538 0.02608 0.0
Cd742 Cd 0.86757 0.44148 0.03987 0.0
O743 O 0.76775 0.43485 0.03524 0.0
Cd744 Cd 0.76665 0.36968 0.05466 0.0
C745 C 0.83618 0.41867 0.11674 0.0
O746 O 0.81961 0.37301 0.01643 0.0
O747 O 0.79853 0.32251 0.05035 0.0
O748 O 0.69578 0.32724 0.02823 0.0
C749 C 0.82201 0.34142 0.02657 0.0
O750 O 0.86759 0.437 0.09711 0.0
C751 C 0.67488 0.30739 0.05266 0.0
O752 O 0.79647 0.39506 0.10746 0.0
O753 O 0.69649 0.31646 0.07824 0.0
C754 C 0.28486 0.75703 0.19677 0.0
O755 O 0.30589 0.79752 0.19504 0.0
Cd756 Cd 0.38506 0.83829 0.19673 0.0
O757 O 0.30525 0.73662 0.20098 0.0
Cd758 Cd 0.38323 0.75518 0.20698 0.0
C759 C 0.40395 0.81916 0.27091 0.0
O760 O 0.41203 0.80336 0.1617 0.0
O761 O 0.46073 0.80087 0.19133 0.0
O762 O 0.3631 0.6857 0.18291 0.0
C763 C 0.45148 0.81186 0.16548 0.0
O764 O 0.40744 0.84788 0.2521 0.0
C765 C 0.38043 0.67498 0.20461 0.0
O766 O 0.39261 0.78194 0.26075 0.0
O767 O 0.39764 0.70075 0.22751 0.0
loop_
_geom_bond_atom_site_label_1
_geom_bond_atom_site_label_2
_geom_bond_distance
_geom_bond_site_symmetry_2
_ccdc_geom_bond_type
C0 C1 1.560 . S
C0 H61 0.959 . S
C0 H62 0.959 . S
C0 H63 0.960 . S
C1 C0 1.560 . S
C1 O56 1.426 . S
C1 H60 0.980 . S
C2 C3 1.407 . S
C2 C7 1.418 . S
C2 O56 1.334 . S
C3 C2 1.407 . S
C3 C4 1.360 . S
C3 H64 0.929 . S
C4 C3 1.360 . S
C4 C5 1.401 . S
C4 C8 1.527 . S
C5 C4 1.401 . S
C5 C6 1.405 . S
C5 C38 1.587 . S
C6 C5 1.405 . S
C6 C7 1.332 . S
C6 C9 1.496 . S
C7 C2 1.418 . S
C7 C6 1.332 . S
C7 H65 0.929 . S
C8 C4 1.527 . S
C8 H66 0.959 . S
C8 H67 0.961 . S
C8 H68 0.961 . S
C9 C6 1.496 . S
C9 H69 0.960 . S
C9 H70 0.960 . S
C9 H71 0.961 . S
C10 C11 1.517 . S
C10 H73 0.961 . S
C10 H74 0.960 . S
C10 H75 0.959 . S
C11 C10 1.517 . S
C11 O59 1.468 . S
C11 H72 0.980 . S
C12 C13 1.349 . S
C12 C17 1.367 . S
C12 O59 1.408 . S
C13 C12 1.349 . S
C13 C14 1.407 . S
C13 H76 0.930 . S
C14 C13 1.407 . S
C14 C15 1.449 . S
C14 C18 1.535 . S
C15 C14 1.449 . S
C15 C16 1.384 . S
C15 C40 1.553 1_655 S
C16 C15 1.384 . S
C16 C17 1.364 . S
C16 C19 1.450 . S
C17 C12 1.367 . S
C17 C16 1.364 . S
C17 H77 0.931 . S
C18 C14 1.535 . S
C18 H78 0.959 1_655 S
C18 H79 0.961 1_655 S
C18 H80 0.959 . S
C19 C16 1.450 . S
C19 H81 0.960 . S
C19 H82 0.960 1_655 S
C19 H83 0.960 . S
C20 C21 1.309 . S
C20 C25 1.304 . S
C20 O58 1.435 . S
C21 C20 1.309 . S
C21 C22 1.476 . S
C21 H85 0.930 . S
C22 C21 1.476 . S
C22 C23 1.400 . S
C22 C26 1.567 . S
C23 C22 1.400 . S
C23 C24 1.373 . S
C23 C45 1.432 . S
C24 C23 1.373 . S
C24 C25 1.339 . S
C24 C27 1.530 . S
C25 C20 1.304 . S
C25 C24 1.339 . S
C25 H86 0.930 . S
C26 C22 1.567 . S
C26 H87 0.961 . S
C26 H88 0.960 . S
C26 H89 0.958 . S
C27 C24 1.530 . S
C27 H90 0.961 . S
C27 H91 0.960 . S
C27 H92 0.960 . S
C28 C29 1.530 . S
C28 H94 0.961 . S
C28 H95 0.961 . S
C28 H96 0.959 . S
C29 C28 1.530 . S
C29 O57 1.412 . S
C29 H93 0.980 . S
C30 C31 1.288 . S
C30 C35 1.377 . S
C30 O57 1.393 . S
C31 C30 1.288 . S
C31 C32 1.369 . S
C31 H97 0.932 . S
C32 C31 1.369 . S
C32 C33 1.398 . S
C32 C36 1.527 . S
C33 C32 1.398 . S
C33 C34 1.380 . S
C33 C47 1.497 . S
C34 C33 1.380 . S
C34 C35 1.383 . S
C34 C37 1.603 . S
C35 C30 1.377 . S
C35 C34 1.383 . S
C35 H98 0.929 . S
C36 C32 1.527 . S
C36 H99 0.961 . S
C36 H100 0.959 1_455 S
C36 H101 0.959 . S
C37 C34 1.603 . S
C37 H102 0.960 . S
C37 H103 0.962 . S
C37 H104 0.961 . S
C38 C5 1.587 . S
C38 C39 1.360 . S
C38 C51 1.412 . S
C39 C38 1.360 . S
C39 C40 1.365 . S
C39 H105 0.929 . S
C40 C15 1.553 1_455 S
C40 C39 1.365 . S
C40 C41 1.404 . S
C41 C40 1.404 . S
C41 C42 1.395 1_455 S
C41 C52 1.451 . S
C42 C41 1.395 1_655 S
C42 C43 1.322 . S
C42 H106 0.930 . S
C43 C42 1.322 . S
C43 C44 1.459 . S
C43 H107 0.929 . S
C44 C43 1.459 . S
C44 C45 1.445 . S
C44 C53 1.395 1_655 S
C45 C23 1.432 . S
C45 C44 1.445 . S
C45 C46 1.370 . S
C46 C45 1.370 . S
C46 C47 1.438 1_655 S
C46 H108 0.930 . S
C47 C33 1.497 . S
C47 C46 1.438 1_455 S
C47 C48 1.360 . S
C48 C47 1.360 . S
C48 C49 1.401 . S
C48 C53 1.446 . S
C49 C48 1.401 . S
C49 C50 1.347 . S
C49 H109 0.929 . S
C50 C49 1.347 . S
C50 C51 1.455 . S
C50 H110 0.930 . S
C51 C38 1.412 . S
C51 C50 1.455 . S
C51 C52 1.331 . S
C52 C41 1.451 . S
C52 C51 1.331 . S
C52 C53 1.497 . S
C53 C44 1.395 1_455 S
C53 C48 1.446 . S
C53 C52 1.497 . S
C54 C55 1.582 . S
C54 H111 0.962 . S
C54 H112 0.959 . S
C54 H113 0.958 . S
C55 C54 1.582 . S
C55 O58 1.458 . S
C55 H84 0.980 . S
O56 C1 1.426 . S
O56 C2 1.334 . S
O57 C29 1.412 . S
O57 C30 1.393 . S
O58 C20 1.435 . S
O58 C55 1.458 . S
O59 C11 1.468 . S
O59 C12 1.408 . S
H60 C1 0.980 . S
H61 C0 0.959 . S
H62 C0 0.959 . S
H63 C0 0.960 . S
H64 C3 0.929 . S
H65 C7 0.929 . S
H66 C8 0.959 . S
H67 C8 0.961 . S
H68 C8 0.961 . S
H69 C9 0.960 . S
H70 C9 0.960 . S
H71 C9 0.961 . S
H72 C11 0.980 . S
H73 C10 0.961 . S
H74 C10 0.960 . S
H75 C10 0.959 . S
H76 C13 0.930 . S
H77 C17 0.931 . S
H78 C18 0.959 1_455 S
H79 C18 0.961 1_455 S
H80 C18 0.959 . S
H81 C19 0.960 . S
H82 C19 0.960 1_455 S
H83 C19 0.960 . S
H84 C55 0.980 . S
H85 C21 0.930 . S
H86 C25 0.930 . S
H87 C26 0.961 . S
H88 C26 0.960 . S
H89 C26 0.958 . S
H90 C27 0.961 . S
H91 C27 0.960 . S
H92 C27 0.960 . S
H93 C29 0.980 . S
H94 C28 0.961 . S
H95 C28 0.961 . S
H96 C28 0.959 . S
H97 C31 0.932 . S
H98 C35 0.929 . S
H99 C36 0.961 . S
H100 C36 0.959 1_655 S
H101 C36 0.959 . S
H102 C37 0.960 . S
H103 C37 0.962 . S
H104 C37 0.961 . S
H105 C39 0.929 . S
H106 C42 0.930 . S
H107 C43 0.929 . S
H108 C46 0.930 . S
H109 C49 0.929 . S
H110 C50 0.930 . S
H111 C54 0.962 . S
H112 C54 0.959 . S
H113 C54 0.958 . S
C114 C115 1.560 . S
C114 H175 0.959 . S
C114 H176 0.959 . S
C114 H177 0.960 . S
C115 C114 1.560 . S
C115 O170 1.426 . S
C115 H174 0.980 . S
C116 C117 1.407 . S
C116 C121 1.418 . S
C116 O170 1.334 . S
C117 C116 1.407 . S
C117 C118 1.360 . S
C117 H178 0.929 . S
C118 C117 1.360 . S
C118 C119 1.401 . S
C118 C122 1.527 . S
C119 C118 1.401 . S
C119 C120 1.405 . S
C119 C152 1.587 . S
C120 C119 1.405 . S
C120 C121 1.332 . S
C120 C123 1.496 . S
C121 C116 1.418 . S
C121 C120 1.332 . S
C121 H179 0.929 . S
C122 C118 1.527 . S
C122 H180 0.959 . S
C122 H181 0.961 . S
C122 H182 0.961 . S
C123 C120 1.496 . S
C123 H183 0.960 . S
C123 H184 0.960 . S
C123 H185 0.961 . S
C124 C125 1.517 . S
C124 H187 0.961 . S
C124 H188 0.960 . S
C124 H189 0.959 . S
C125 C124 1.517 . S
C125 O173 1.468 . S
C125 H186 0.980 . S
C126 C127 1.349 . S
C126 C131 1.367 . S
C126 O173 1.408 . S
C127 C126 1.349 . S
C127 C128 1.407 . S
C127 H190 0.930 . S
C128 C127 1.407 . S
C128 C129 1.449 . S
C128 C132 1.535 . S
C129 C128 1.449 . S
C129 C130 1.384 . S
C129 C154 1.553 . S
C130 C129 1.384 . S
C130 C131 1.364 . S
C130 C133 1.450 . S
C131 C126 1.367 . S
C131 C130 1.364 . S
C131 H191 0.931 . S
C132 C128 1.535 . S
C132 H192 0.959 . S
C132 H193 0.961 . S
C132 H194 0.959 . S
C133 C130 1.450 . S
C133 H195 0.960 . S
C133 H196 0.960 . S
C133 H197 0.960 . S
C134 C135 1.309 . S
C134 C139 1.304 . S
C134 O172 1.435 . S
C135 C134 1.309 . S
C135 C136 1.476 . S
C135 H199 0.930 . S
C136 C135 1.476 . S
C136 C137 1.400 . S
C136 C140 1.567 . S
C137 C136 1.400 . S
C137 C138 1.373 . S
C137 C159 1.432 . S
C138 C137 1.373 . S
C138 C139 1.339 . S
C138 C141 1.530 . S
C139 C134 1.304 . S
C139 C138 1.339 . S
C139 H200 0.930 . S
C140 C136 1.567 . S
C140 H201 0.961 . S
C140 H202 0.960 . S
C140 H203 0.958 . S
C141 C138 1.530 . S
C141 H204 0.961 . S
C141 H205 0.960 . S
C141 H206 0.960 . S
C142 C143 1.530 . S
C142 H208 0.961 . S
C142 H209 0.961 . S
C142 H210 0.959 . S
C143 C142 1.530 . S
C143 O171 1.412 . S
C143 H207 0.980 . S
C144 C145 1.288 . S
C144 C149 1.377 . S
C144 O171 1.393 . S
C145 C144 1.288 . S
C145 C146 1.369 . S
C145 H211 0.932 . S
C146 C145 1.369 . S
C146 C147 1.398 . S
C146 C150 1.547 . S
C147 C146 1.398 . S
C147 C148 1.380 . S
C147 C161 1.497 1_565 S
C148 C147 1.380 . S
C148 C149 1.383 . S
C148 C151 1.603 . S
C149 C144 1.377 . S
C149 C148 1.383 . S
C149 H212 0.929 . S
C150 C146 1.547 . S
C150 H213 0.965 . S
C150 H214 0.937 1_565 S
C150 H215 0.957 . S
C151 C148 1.603 . S
C151 H216 0.960 . S
C151 H217 0.962 . S
C151 H218 0.961 . S
C152 C119 1.587 . S
C152 C153 1.360 . S
C152 C165 1.412 . S
C153 C152 1.360 . S
C153 C154 1.365 1_565 S
C153 H219 0.929 . S
C154 C129 1.553 . S
C154 C153 1.365 1_545 S
C154 C155 1.404 . S
C155 C154 1.404 . S
C155 C156 1.395 . S
C155 C166 1.451 1_545 S
C156 C155 1.395 . S
C156 C157 1.322 . S
C156 H220 0.930 . S
C157 C156 1.322 . S
C157 C158 1.459 . S
C157 H221 0.929 . S
C158 C157 1.459 . S
C158 C159 1.445 . S
C158 C167 1.395 . S
C159 C137 1.432 . S
C159 C158 1.445 . S
C159 C160 1.370 . S
C160 C159 1.370 . S
C160 C161 1.438 . S
C160 H222 0.930 . S
C161 C147 1.497 1_545 S
C161 C160 1.438 . S
C161 C162 1.360 1_545 S
C162 C161 1.360 1_565 S
C162 C163 1.401 . S
C162 C167 1.446 1_565 S
C163 C162 1.401 . S
C163 C164 1.347 . S
C163 H223 0.929 . S
C164 C163 1.347 . S
C164 C165 1.455 . S
C164 H224 0.930 . S
C165 C152 1.412 . S
C165 C164 1.455 . S
C165 C166 1.331 . S
C166 C155 1.451 1_565 S
C166 C165 1.331 . S
C166 C167 1.497 1_565 S
C167 C158 1.395 . S
C167 C162 1.446 1_545 S
C167 C166 1.497 1_545 S
C168 C169 1.582 . S
C168 H225 0.962 . S
C168 H226 0.959 . S
C168 H227 0.958 . S
C169 C168 1.582 . S
C169 O172 1.458 . S
C169 H198 0.980 . S
O170 C115 1.426 . S
O170 C116 1.334 . S
O171 C143 1.412 . S
O171 C144 1.393 . S
O172 C134 1.435 . S
O172 C169 1.458 . S
O173 C125 1.468 . S
O173 C126 1.408 . S
H174 C115 0.980 . S
H175 C114 0.959 . S
H176 C114 0.959 . S
H177 C114 0.960 . S
H178 C117 0.929 . S
H179 C121 0.929 . S
H180 C122 0.959 . S
H181 C122 0.961 . S
H182 C122 0.961 . S
H183 C123 0.960 . S
H184 C123 0.960 . S
H185 C123 0.961 . S
H186 C125 0.980 . S
H187 C124 0.961 . S
H188 C124 0.960 . S
H189 C124 0.959 . S
H190 C127 0.930 . S
H191 C131 0.931 . S
H192 C132 0.959 . S
H193 C132 0.961 . S
H194 C132 0.959 . S
H195 C133 0.960 . S
H196 C133 0.960 . S
H197 C133 0.960 . S
H198 C169 0.980 . S
H199 C135 0.930 . S
H200 C139 0.930 . S
H201 C140 0.961 . S
H202 C140 0.960 . S
H203 C140 0.958 . S
H204 C141 0.961 . S
H205 C141 0.960 . S
H206 C141 0.960 . S
H207 C143 0.980 . S
H208 C142 0.961 . S
H209 C142 0.961 . S
H210 C142 0.959 . S
H211 C145 0.932 . S
H212 C149 0.929 . S
H213 C150 0.965 . S
H214 C150 0.937 1_545 S
H215 C150 0.957 . S
H216 C151 0.960 . S
H217 C151 0.962 . S
H218 C151 0.961 . S
H219 C153 0.929 . S
H220 C156 0.930 . S
H221 C157 0.929 . S
H222 C160 0.930 . S
H223 C163 0.929 . S
H224 C164 0.930 . S
H225 C168 0.962 . S
H226 C168 0.959 . S
H227 C168 0.958 . S
C228 C229 1.560 . S
C228 H289 0.959 . S
C228 H290 0.959 . S
C228 H291 0.960 . S
C229 C228 1.560 . S
C229 O284 1.426 . S
C229 H288 0.980 . S
C230 C231 1.407 . S
C230 C235 1.418 . S
C230 O284 1.334 . S
C231 C230 1.407 . S
C231 C232 1.360 . S
C231 H292 0.929 . S
C232 C231 1.360 . S
C232 C233 1.401 . S
C232 C236 1.527 . S
C233 C232 1.401 . S
C233 C234 1.405 . S
C233 C266 1.587 . S
C234 C233 1.405 . S
C234 C235 1.332 . S
C234 C237 1.496 . S
C235 C230 1.418 . S
C235 C234 1.332 . S
C235 H293 0.929 . S
C236 C232 1.527 . S
C236 H294 0.959 . S
C236 H295 0.961 . S
C236 H296 0.961 . S
C237 C234 1.496 . S
C237 H297 0.960 . S
C237 H298 0.960 . S
C237 H299 0.961 . S
C238 C239 1.517 . S
C238 H301 0.961 . S
C238 H302 0.960 . S
C238 H303 0.959 . S
C239 C238 1.517 . S
C239 O287 1.468 . S
C239 H300 0.980 . S
C240 C241 1.349 . S
C240 C245 1.367 . S
C240 O287 1.408 . S
C241 C240 1.349 . S
C241 C242 1.407 . S
C241 H304 0.930 . S
C242 C241 1.407 . S
C242 C243 1.449 . S
C242 C246 1.535 . S
C243 C242 1.449 . S
C243 C244 1.384 . S
C243 C268 1.553 . S
C244 C243 1.384 . S
C244 C245 1.364 . S
C244 C247 1.450 . S
C245 C240 1.367 . S
C245 C244 1.364 . S
C245 H305 0.931 . S
C246 C242 1.535 . S
C246 H306 0.959 . S
C246 H307 0.961 . S
C246 H308 0.959 . S
C247 C244 1.450 . S
C247 H309 0.960 . S
C247 H310 0.960 . S
C247 H311 0.960 . S
C248 C249 1.309 . S
C248 C253 1.304 . S
C248 O286 1.435 . S
C249 C248 1.309 . S
C249 C250 1.476 . S
C249 H313 0.930 . S
C250 C249 1.476 . S
C250 C251 1.400 . S
C250 C254 1.567 . S
C251 C250 1.400 . S
C251 C252 1.373 . S
C251 C273 1.432 . S
C252 C251 1.373 . S
C252 C253 1.339 . S
C252 C255 1.530 . S
C253 C248 1.304 . S
C253 C252 1.339 . S
C253 H314 0.930 . S
C254 C250 1.567 . S
C254 H315 0.961 . S
C254 H316 0.960 . S
C254 H317 0.958 . S
C255 C252 1.530 . S
C255 H318 0.961 . S
C255 H319 0.960 . S
C255 H320 0.960 . S
C256 C257 1.530 . S
C256 H322 0.961 . S
C256 H323 0.961 . S
C256 H324 0.959 . S
C257 C256 1.530 . S
C257 O285 1.412 . S
C257 H321 0.980 . S
C258 C259 1.288 . S
C258 C263 1.377 . S
C258 O285 1.393 . S
C259 C258 1.288 . S
C259 C260 1.369 . S
C259 H325 0.932 . S
C260 C259 1.369 . S
C260 C261 1.398 . S
C260 C264 1.527 . S
C261 C260 1.398 . S
C261 C262 1.380 . S
C261 C275 1.497 . S
C262 C261 1.380 . S
C262 C263 1.383 . S
C262 C265 1.603 . S
C263 C258 1.377 . S
C263 C262 1.383 . S
C263 H326 0.929 . S
C264 C260 1.527 . S
C264 H327 0.961 . S
C264 H328 0.959 . S
C264 H329 0.959 . S
C265 C262 1.603 . S
C265 H330 0.960 . S
C265 H331 0.962 . S
C265 H332 0.961 . S
C266 C233 1.587 . S
C266 C267 1.360 . S
C266 C279 1.412 . S
C267 C266 1.360 . S
C267 C268 1.365 . S
C267 H333 0.929 . S
C268 C243 1.553 . S
C268 C267 1.365 . S
C268 C269 1.404 . S
C269 C268 1.404 . S
C269 C270 1.395 . S
C269 C280 1.451 . S
C270 C269 1.395 . S
C270 C271 1.322 . S
C270 H334 0.930 . S
C271 C270 1.322 . S
C271 C272 1.459 . S
C271 H335 0.929 . S
C272 C271 1.459 . S
C272 C273 1.445 . S
C272 C281 1.395 . S
C273 C251 1.432 . S
C273 C272 1.445 . S
C273 C274 1.370 . S
C274 C273 1.370 . S
C274 C275 1.438 . S
C274 H336 0.930 . S
C275 C261 1.497 . S
C275 C274 1.438 . S
C275 C276 1.360 . S
C276 C275 1.360 . S
C276 C277 1.401 . S
C276 C281 1.446 . S
C277 C276 1.401 . S
C277 C278 1.347 . S
C277 H337 0.929 . S
C278 C277 1.347 . S
C278 C279 1.455 . S
C278 H338 0.930 . S
C279 C266 1.412 . S
C279 C278 1.455 . S
C279 C280 1.331 . S
C280 C269 1.451 . S
C280 C279 1.331 . S
C280 C281 1.497 . S
C281 C272 1.395 . S
C281 C276 1.446 . S
C281 C280 1.497 . S
C282 C283 1.582 . S
C282 H339 0.962 . S
C282 H340 0.959 . S
C282 H341 0.958 . S
C283 C282 1.582 . S
C283 O286 1.458 . S
C283 H312 0.980 . S
O284 C229 1.426 . S
O284 C230 1.334 . S
O285 C257 1.412 . S
O285 C258 1.393 . S
O286 C248 1.435 . S
O286 C283 1.458 . S
O287 C239 1.468 . S
O287 C240 1.408 . S
H288 C229 0.980 . S
H289 C228 0.959 . S
H290 C228 0.959 . S
H291 C228 0.960 . S
H292 C231 0.929 . S
H293 C235 0.929 . S
H294 C236 0.959 . S
H295 C236 0.961 . S
H296 C236 0.961 . S
H297 C237 0.960 . S
H298 C237 0.960 . S
H299 C237 0.961 . S
H300 C239 0.980 . S
H301 C238 0.961 . S
H302 C238 0.960 . S
H303 C238 0.959 . S
H304 C241 0.930 . S
H305 C245 0.931 . S
H306 C246 0.959 . S
H307 C246 0.961 . S
H308 C246 0.959 . S
H309 C247 0.960 . S
H310 C247 0.960 . S
H311 C247 0.960 . S
H312 C283 0.980 . S
H313 C249 0.930 . S
H314 C253 0.930 . S
H315 C254 0.961 . S
H316 C254 0.960 . S
H317 C254 0.958 . S
H318 C255 0.961 . S
H319 C255 0.960 . S
H320 C255 0.960 . S
H321 C257 0.980 . S
H322 C256 0.961 . S
H323 C256 0.961 . S
H324 C256 0.959 . S
H325 C259 0.932 . S
H326 C263 0.929 . S
H327 C264 0.961 . S
H328 C264 0.959 . S
H329 C264 0.959 . S
H330 C265 0.960 . S
H331 C265 0.962 . S
H332 C265 0.961 . S
H333 C267 0.929 . S
H334 C270 0.930 . S
H335 C271 0.929 . S
H336 C274 0.930 . S
H337 C277 0.929 . S
H338 C278 0.930 . S
H339 C282 0.962 . S
H340 C282 0.959 . S
H341 C282 0.958 . S
C342 C343 1.560 . S
C342 H403 0.959 . S
C342 H404 0.959 . S
C342 H405 0.960 . S
C343 C342 1.560 . S
C343 O398 1.426 . S
C343 H402 0.980 . S
C344 C345 1.407 . S
C344 C349 1.418 . S
C344 O398 1.334 . S
C345 C344 1.407 . S
C345 C346 1.360 . S
C345 H406 0.929 . S
C346 C345 1.360 . S
C346 C347 1.401 . S
C346 C350 1.527 . S
C347 C346 1.401 . S
C347 C348 1.405 . S
C347 C380 1.587 . S
C348 C347 1.405 . S
C348 C349 1.332 . S
C348 C351 1.496 . S
C349 C344 1.418 . S
C349 C348 1.332 . S
C349 H407 0.929 . S
C350 C346 1.527 . S
C350 H408 0.959 . S
C350 H409 0.961 . S
C350 H410 0.961 . S
C351 C348 1.496 . S
C351 H411 0.960 . S
C351 H412 0.960 . S
C351 H413 0.961 . S
C352 C353 1.517 . S
C352 H415 0.961 . S
C352 H416 0.960 . S
C352 H417 0.959 . S
C353 C352 1.517 . S
C353 O401 1.468 . S
C353 H414 0.980 . S
C354 C355 1.349 . S
C354 C359 1.367 . S
C354 O401 1.408 1_556 S
C355 C354 1.349 . S
C355 C356 1.407 . S
C355 H418 0.930 . S
C356 C355 1.407 . S
C356 C357 1.449 . S
C356 C360 1.535 . S
C357 C356 1.449 . S
C357 C358 1.384 . S
C357 C382 1.553 1_655 S
C358 C357 1.384 . S
C358 C359 1.364 . S
C358 C361 1.450 . S
C359 C354 1.367 . S
C359 C358 1.364 . S
C359 H419 0.931 . S
C360 C356 1.535 . S
C360 H420 0.959 1_655 S
C360 H421 0.955 1_655 S
C360 H422 0.959 . S
C361 C358 1.450 . S
C361 H423 0.960 . S
C361 H424 0.960 1_655 S
C361 H425 0.960 . S
C362 C363 1.309 . S
C362 C367 1.304 . S
C362 O400 1.435 . S
C363 C362 1.309 . S
C363 C364 1.476 . S
C363 H427 0.930 . S
C364 C363 1.476 . S
C364 C365 1.400 . S
C364 C368 1.567 . S
C365 C364 1.400 . S
C365 C366 1.373 . S
C365 C387 1.432 . S
C366 C365 1.373 . S
C366 C367 1.339 . S
C366 C369 1.530 . S
C367 C362 1.304 . S
C367 C366 1.339 . S
C367 H428 0.930 . S
C368 C364 1.567 . S
C368 H429 0.961 . S
C368 H430 0.960 . S
C368 H431 0.958 . S
C369 C366 1.530 . S
C369 H432 0.961 . S
C369 H433 0.960 . S
C369 H434 0.960 . S
C370 C371 1.530 . S
C370 H436 0.961 . S
C370 H437 0.961 . S
C370 H438 0.959 . S
C371 C370 1.530 . S
C371 O399 1.412 . S
C371 H435 0.980 . S
C372 C373 1.288 . S
C372 C377 1.377 . S
C372 O399 1.393 . S
C373 C372 1.288 . S
C373 C374 1.369 . S
C373 H439 0.932 . S
C374 C373 1.369 . S
C374 C375 1.398 . S
C374 C378 1.527 . S
C375 C374 1.398 . S
C375 C376 1.380 . S
C375 C389 1.497 . S
C376 C375 1.380 . S
C376 C377 1.383 . S
C376 C379 1.603 . S
C377 C372 1.377 . S
C377 C376 1.383 . S
C377 H440 0.929 . S
C378 C374 1.527 . S
C378 H441 0.961 . S
C378 H442 0.959 1_455 S
C378 H443 0.959 . S
C379 C376 1.603 . S
C379 H444 0.960 . S
C379 H445 0.962 . S
C379 H446 0.961 . S
C380 C347 1.587 . S
C380 C381 1.360 . S
C380 C393 1.412 . S
C381 C380 1.360 . S
C381 C382 1.365 . S
C381 H447 0.929 . S
C382 C357 1.553 1_455 S
C382 C381 1.365 . S
C382 C383 1.404 1_455 S
C383 C382 1.404 1_655 S
C383 C384 1.395 . S
C383 C394 1.451 1_655 S
C384 C383 1.395 . S
C384 C385 1.322 . S
C384 H448 0.930 . S
C385 C384 1.322 . S
C385 C386 1.459 . S
C385 H449 0.929 . S
C386 C385 1.459 . S
C386 C387 1.445 . S
C386 C395 1.395 1_655 S
C387 C365 1.432 . S
C387 C386 1.445 . S
C387 C388 1.370 . S
C388 C387 1.370 . S
C388 C389 1.438 1_655 S
C388 H450 0.930 . S
C389 C375 1.497 . S
C389 C388 1.438 1_455 S
C389 C390 1.360 . S
C390 C389 1.360 . S
C390 C391 1.401 . S
C390 C395 1.446 . S
C391 C390 1.401 . S
C391 C392 1.347 . S
C391 H451 0.929 . S
C392 C391 1.347 . S
C392 C393 1.455 . S
C392 H452 0.930 . S
C393 C380 1.412 . S
C393 C392 1.455 . S
C393 C394 1.331 . S
C394 C383 1.451 1_455 S
C394 C393 1.331 . S
C394 C395 1.497 . S
C395 C386 1.395 1_455 S
C395 C390 1.446 . S
C395 C394 1.497 . S
C396 C397 1.582 . S
C396 H453 0.962 . S
C396 H454 0.959 . S
C396 H455 0.958 . S
C397 C396 1.582 . S
C397 O400 1.458 . S
C397 H426 0.980 . S
O398 C343 1.426 . S
O398 C344 1.334 . S
O399 C371 1.412 . S
O399 C372 1.393 . S
O400 C362 1.435 . S
O400 C397 1.458 . S
O401 C353 1.468 . S
O401 C354 1.408 1_554 S
H402 C343 0.980 . S
H403 C342 0.959 . S
H404 C342 0.959 . S
H405 C342 0.960 . S
H406 C345 0.929 . S
H407 C349 0.929 . S
H408 C350 0.959 . S
H409 C350 0.961 . S
H410 C350 0.961 . S
H411 C351 0.960 . S
H412 C351 0.960 . S
H413 C351 0.961 . S
H414 C353 0.980 . S
H415 C352 0.961 . S
H416 C352 0.960 . S
H417 C352 0.959 . S
H418 C355 0.930 . S
H419 C359 0.931 . S
H420 C360 0.959 1_455 S
H421 C360 0.955 1_455 S
H422 C360 0.959 . S
H423 C361 0.960 . S
H424 C361 0.960 1_455 S
H425 C361 0.960 . S
H426 C397 0.980 . S
H427 C363 0.930 . S
H428 C367 0.930 . S
H429 C368 0.961 . S
H430 C368 0.960 . S
H431 C368 0.958 . S
H432 C369 0.961 . S
H433 C369 0.960 . S
H434 C369 0.960 . S
H435 C371 0.980 . S
H436 C370 0.961 . S
H437 C370 0.961 . S
H438 C370 0.959 . S
H439 C373 0.932 . S
H440 C377 0.929 . S
H441 C378 0.961 . S
H442 C378 0.959 1_655 S
H443 C378 0.959 . S
H444 C379 0.960 . S
H445 C379 0.962 . S
H446 C379 0.961 . S
H447 C381 0.929 . S
H448 C384 0.930 . S
H449 C385 0.929 . S
H450 C388 0.930 . S
H451 C391 0.929 . S
H452 C392 0.930 . S
H453 C396 0.962 . S
H454 C396 0.959 . S
H455 C396 0.958 . S
C456 C457 1.560 . S
C456 H517 0.959 . S
C456 H518 0.959 . S
C456 H519 0.960 . S
C457 C456 1.560 . S
C457 O512 1.426 . S
C457 H516 0.980 . S
C458 C459 1.407 . S
C458 C463 1.418 . S
C458 O512 1.334 . S
C459 C458 1.407 . S
C459 C460 1.360 . S
C459 H520 0.929 . S
C460 C459 1.360 . S
C460 C461 1.401 . S
C460 C464 1.527 . S
C461 C460 1.401 . S
C461 C462 1.405 . S
C461 C494 1.587 . S
C462 C461 1.405 . S
C462 C463 1.332 . S
C462 C465 1.496 . S
C463 C458 1.418 . S
C463 C462 1.332 . S
C463 H521 0.929 . S
C464 C460 1.527 . S
C464 H522 0.959 . S
C464 H523 0.961 . S
C464 H524 0.961 . S
C465 C462 1.496 . S
C465 H525 0.960 . S
C465 H526 0.960 . S
C465 H527 0.961 . S
C466 C467 1.517 . S
C466 H529 0.961 . S
C466 H530 0.960 . S
C466 H531 0.959 . S
C467 C466 1.517 . S
C467 O515 1.468 . S
C467 H528 0.980 . S
C468 C469 1.349 . S
C468 C473 1.367 . S
C468 O515 1.408 . S
C469 C468 1.349 . S
C469 C470 1.407 . S
C469 H532 0.930 . S
C470 C469 1.407 . S
C470 C471 1.449 . S
C470 C474 1.535 . S
C471 C470 1.449 . S
C471 C472 1.384 . S
C471 C496 1.553 . S
C472 C471 1.384 . S
C472 C473 1.364 . S
C472 C475 1.450 . S
C473 C468 1.367 . S
C473 C472 1.364 . S
C473 H533 0.931 . S
C474 C470 1.535 . S
C474 H534 0.959 . S
C474 H535 0.961 . S
C474 H536 0.959 . S
C475 C472 1.450 . S
C475 H537 0.960 . S
C475 H538 0.953 1_545 S
C475 H539 0.960 . S
C476 C477 1.309 . S
C476 C481 1.304 . S
C476 O514 1.435 . S
C477 C476 1.309 . S
C477 C478 1.476 . S
C477 H541 0.930 . S
C478 C477 1.476 . S
C478 C479 1.400 . S
C478 C482 1.567 . S
C479 C478 1.400 . S
C479 C480 1.373 . S
C479 C501 1.432 . S
C480 C479 1.373 . S
C480 C481 1.339 . S
C480 C483 1.530 . S
C481 C476 1.304 . S
C481 C480 1.339 . S
C481 H542 0.930 . S
C482 C478 1.567 . S
C482 H543 0.961 . S
C482 H544 0.960 . S
C482 H545 0.958 . S
C483 C480 1.530 . S
C483 H546 0.961 . S
C483 H547 0.960 . S
C483 H548 0.960 . S
C484 C485 1.530 . S
C484 H550 0.961 . S
C484 H551 0.961 . S
C484 H552 0.959 . S
C485 C484 1.530 . S
C485 O513 1.412 . S
C485 H549 0.980 . S
C486 C487 1.288 . S
C486 C491 1.377 . S
C486 O513 1.393 . S
C487 C486 1.288 . S
C487 C488 1.369 . S
C487 H553 0.932 . S
C488 C487 1.369 . S
C488 C489 1.398 . S
C488 C492 1.527 . S
C489 C488 1.398 . S
C489 C490 1.380 . S
C489 C503 1.497 1_565 S
C490 C489 1.380 . S
C490 C491 1.383 . S
C490 C493 1.603 . S
C491 C486 1.377 . S
C491 C490 1.383 . S
C491 H554 0.929 . S
C492 C488 1.527 . S
C492 H555 0.961 . S
C492 H556 0.959 1_565 S
C492 H557 0.959 . S
C493 C490 1.603 . S
C493 H558 0.960 . S
C493 H559 0.962 . S
C493 H560 0.961 . S
C494 C461 1.587 . S
C494 C495 1.360 . S
C494 C507 1.412 . S
C495 C494 1.360 . S
C495 C496 1.365 1_565 S
C495 H561 0.929 . S
C496 C471 1.553 . S
C496 C495 1.365 1_545 S
C496 C497 1.404 . S
C497 C496 1.404 . S
C497 C498 1.395 . S
C497 C508 1.451 1_545 S
C498 C497 1.395 . S
C498 C499 1.322 . S
C498 H562 0.930 . S
C499 C498 1.322 . S
C499 C500 1.459 1_556 S
C499 H563 0.929 . S
C500 C499 1.459 1_554 S
C500 C501 1.445 . S
C500 C509 1.395 . S
C501 C479 1.432 . S
C501 C500 1.445 . S
C501 C502 1.370 . S
C502 C501 1.370 . S
C502 C503 1.438 . S
C502 H564 0.930 . S
C503 C489 1.497 1_545 S
C503 C502 1.438 . S
C503 C504 1.360 1_545 S
C504 C503 1.360 1_565 S
C504 C505 1.401 . S
C504 C509 1.446 1_565 S
C505 C504 1.401 . S
C505 C506 1.347 1_554 S
C505 H565 0.929 . S
C506 C505 1.347 1_556 S
C506 C507 1.455 . S
C506 H566 0.930 . S
C507 C494 1.412 . S
C507 C506 1.455 . S
C507 C508 1.331 . S
C508 C497 1.451 1_565 S
C508 C507 1.331 . S
C508 C509 1.497 1_566 S
C509 C500 1.395 . S
C509 C504 1.446 1_545 S
C509 C508 1.497 1_544 S
C510 C511 1.582 . S
C510 H567 0.962 . S
C510 H568 0.959 . S
C510 H569 0.958 . S
C511 C510 1.582 . S
C511 O514 1.458 . S
C511 H540 0.980 . S
O512 C457 1.426 . S
O512 C458 1.334 . S
O513 C485 1.412 . S
O513 C486 1.393 . S
O514 C476 1.435 . S
O514 C511 1.458 . S
O515 C467 1.468 . S
O515 C468 1.408 . S
H516 C457 0.980 . S
H517 C456 0.959 . S
H518 C456 0.959 . S
H519 C456 0.960 . S
H520 C459 0.929 . S
H521 C463 0.929 . S
H522 C464 0.959 . S
H523 C464 0.961 . S
H524 C464 0.961 . S
H525 C465 0.960 . S
H526 C465 0.960 . S
H527 C465 0.961 . S
H528 C467 0.980 . S
H529 C466 0.961 . S
H530 C466 0.960 . S
H531 C466 0.959 . S
H532 C469 0.930 . S
H533 C473 0.931 . S
H534 C474 0.959 . S
H535 C474 0.961 . S
H536 C474 0.959 . S
H537 C475 0.960 . S
H538 C475 0.953 1_565 S
H539 C475 0.960 . S
H540 C511 0.980 . S
H541 C477 0.930 . S
H542 C481 0.930 . S
H543 C482 0.961 . S
H544 C482 0.960 . S
H545 C482 0.958 . S
H546 C483 0.961 . S
H547 C483 0.960 . S
H548 C483 0.960 . S
H549 C485 0.980 . S
H550 C484 0.961 . S
H551 C484 0.961 . S
H552 C484 0.959 . S
H553 C487 0.932 . S
H554 C491 0.929 . S
H555 C492 0.961 . S
H556 C492 0.959 1_545 S
H557 C492 0.959 . S
H558 C493 0.960 . S
H559 C493 0.962 . S
H560 C493 0.961 . S
H561 C495 0.929 . S
H562 C498 0.930 . S
H563 C499 0.929 . S
H564 C502 0.930 . S
H565 C505 0.929 . S
H566 C506 0.930 . S
H567 C510 0.962 . S
H568 C510 0.959 . S
H569 C510 0.958 . S
C570 C571 1.560 . S
C570 H631 0.959 . S
C570 H632 0.959 . S
C570 H633 0.960 . S
C571 C570 1.560 . S
C571 O626 1.426 . S
C571 H630 0.980 . S
C572 C573 1.407 . S
C572 C577 1.418 . S
C572 O626 1.334 . S
C573 C572 1.407 . S
C573 C574 1.360 . S
C573 H634 0.929 . S
C574 C573 1.360 . S
C574 C575 1.401 . S
C574 C578 1.527 . S
C575 C574 1.401 . S
C575 C576 1.405 . S
C575 C608 1.587 . S
C576 C575 1.405 . S
C576 C577 1.332 . S
C576 C579 1.496 . S
C577 C572 1.418 . S
C577 C576 1.332 . S
C577 H635 0.929 . S
C578 C574 1.527 . S
C578 H636 0.959 . S
C578 H637 0.961 . S
C578 H638 0.961 . S
C579 C576 1.496 . S
C579 H639 0.960 . S
C579 H640 0.960 . S
C579 H641 0.961 . S
C580 C581 1.517 . S
C580 H643 0.961 . S
C580 H644 0.960 . S
C580 H645 0.959 . S
C581 C580 1.517 . S
C581 O629 1.468 . S
C581 H642 0.980 . S
C582 C583 1.349 1_556 S
C582 C587 1.367 1_556 S
C582 O629 1.408 . S
C583 C582 1.349 1_554 S
C583 C584 1.407 . S
C583 H646 0.930 1_554 S
C584 C583 1.407 . S
C584 C585 1.449 . S
C584 C588 1.535 . S
C585 C584 1.449 . S
C585 C586 1.384 . S
C585 C610 1.553 . S
C586 C585 1.384 . S
C586 C587 1.364 . S
C586 C589 1.450 . S
C587 C582 1.367 1_554 S
C587 C586 1.364 . S
C587 H647 0.931 . S
C588 C584 1.535 . S
C588 H648 0.959 . S
C588 H649 0.961 . S
C588 H650 0.959 . S
C589 C586 1.450 . S
C589 H651 0.960 . S
C589 H652 0.960 . S
C589 H653 0.960 . S
C590 C591 1.309 . S
C590 C595 1.304 . S
C590 O628 1.435 . S
C591 C590 1.309 . S
C591 C592 1.476 . S
C591 H655 0.930 . S
C592 C591 1.476 . S
C592 C593 1.400 . S
C592 C596 1.567 . S
C593 C592 1.400 . S
C593 C594 1.373 . S
C593 C615 1.432 . S
C594 C593 1.373 . S
C594 C595 1.339 . S
C594 C597 1.530 . S
C595 C590 1.304 . S
C595 C594 1.339 . S
C595 H656 0.930 . S
C596 C592 1.567 . S
C596 H657 0.961 . S
C596 H658 0.960 . S
C596 H659 0.958 . S
C597 C594 1.530 . S
C597 H660 0.961 . S
C597 H661 0.960 . S
C597 H662 0.960 . S
C598 C599 1.530 . S
C598 H664 0.961 . S
C598 H665 0.961 . S
C598 H666 0.959 . S
C599 C598 1.530 . S
C599 O627 1.412 . S
C599 H663 0.980 . S
C600 C601 1.288 . S
C600 C605 1.377 . S
C600 O627 1.393 . S
C601 C600 1.288 . S
C601 C602 1.369 . S
C601 H667 0.932 . S
C602 C601 1.369 . S
C602 C603 1.398 . S
C602 C606 1.527 . S
C603 C602 1.398 . S
C603 C604 1.380 . S
C603 C617 1.497 . S
C604 C603 1.380 . S
C604 C605 1.383 . S
C604 C607 1.603 . S
C605 C600 1.377 . S
C605 C604 1.383 . S
C605 H668 0.929 . S
C606 C602 1.527 . S
C606 H669 0.961 . S
C606 H670 0.959 . S
C606 H671 0.959 . S
C607 C604 1.603 . S
C607 H672 0.960 . S
C607 H673 0.962 . S
C607 H674 0.961 . S
C608 C575 1.587 . S
C608 C609 1.360 . S
C608 C621 1.412 . S
C609 C608 1.360 . S
C609 C610 1.365 . S
C609 H675 0.929 . S
C610 C585 1.553 . S
C610 C609 1.365 . S
C610 C611 1.404 . S
C611 C610 1.404 . S
C611 C612 1.395 . S
C611 C622 1.451 . S
C612 C611 1.395 . S
C612 C613 1.322 . S
C612 H676 0.930 . S
C613 C612 1.322 . S
C613 C614 1.459 . S
C613 H677 0.929 . S
C614 C613 1.459 . S
C614 C615 1.445 . S
C614 C623 1.395 . S
C615 C593 1.432 . S
C615 C614 1.445 . S
C615 C616 1.370 . S
C616 C615 1.370 . S
C616 C617 1.438 . S
C616 H678 0.930 . S
C617 C603 1.497 . S
C617 C616 1.438 . S
C617 C618 1.360 . S
C618 C617 1.360 . S
C618 C619 1.401 . S
C618 C623 1.446 . S
C619 C618 1.401 . S
C619 C620 1.347 . S
C619 H679 0.929 . S
C620 C619 1.347 . S
C620 C621 1.455 . S
C620 H680 0.930 . S
C621 C608 1.412 . S
C621 C620 1.455 . S
C621 C622 1.331 . S
C622 C611 1.451 . S
C622 C621 1.331 . S
C622 C623 1.497 . S
C623 C614 1.395 . S
C623 C618 1.446 . S
C623 C622 1.497 . S
C624 C625 1.582 . S
C624 H681 0.962 . S
C624 H682 0.959 . S
C624 H683 0.958 . S
C625 C624 1.582 . S
C625 O628 1.458 . S
C625 H654 0.980 . S
O626 C571 1.426 . S
O626 C572 1.334 . S
O627 C599 1.412 . S
O627 C600 1.393 . S
O628 C590 1.435 . S
O628 C625 1.458 . S
O629 C581 1.468 . S
O629 C582 1.408 . S
H630 C571 0.980 . S
H631 C570 0.959 . S
H632 C570 0.959 . S
H633 C570 0.960 . S
H634 C573 0.929 . S
H635 C577 0.929 . S
H636 C578 0.959 . S
H637 C578 0.961 . S
H638 C578 0.961 . S
H639 C579 0.960 . S
H640 C579 0.960 . S
H641 C579 0.961 . S
H642 C581 0.980 . S
H643 C580 0.961 . S
H644 C580 0.960 . S
H645 C580 0.959 . S
H646 C583 0.930 1_556 S
H647 C587 0.931 . S
H648 C588 0.959 . S
H649 C588 0.961 . S
H650 C588 0.959 . S
H651 C589 0.960 . S
H652 C589 0.960 . S
H653 C589 0.960 . S
H654 C625 0.980 . S
H655 C591 0.930 . S
H656 C595 0.930 . S
H657 C596 0.961 . S
H658 C596 0.960 . S
H659 C596 0.958 . S
H660 C597 0.961 . S
H661 C597 0.960 . S
H662 C597 0.960 . S
H663 C599 0.980 . S
H664 C598 0.961 . S
H665 C598 0.961 . S
H666 C598 0.959 . S
H667 C601 0.932 . S
H668 C605 0.929 . S
H669 C606 0.961 . S
H670 C606 0.959 . S
H671 C606 0.959 . S
H672 C607 0.960 . S
H673 C607 0.962 . S
H674 C607 0.961 . S
H675 C609 0.929 . S
H676 C612 0.930 . S
H677 C613 0.929 . S
H678 C616 0.930 . S
H679 C619 0.929 . S
H680 C620 0.930 . S
H681 C624 0.962 . S
H682 C624 0.959 . S
H683 C624 0.958 . S
C684 O685 1.306 . S
C684 O687 1.160 . S
O685 C684 1.306 . S
O685 Cd686 2.228 . S
Cd686 O685 2.228 . S
Cd686 O690 2.273 . S
Cd686 O694 2.277 . S
O687 C684 1.160 . S
O687 Cd688 2.203 . S
Cd688 O687 2.203 . S
Cd688 O690 2.411 . S
Cd688 O691 2.333 . S
Cd688 O692 2.352 . S
Cd688 O696 2.277 . S
Cd688 O697 2.356 . S
C689 O694 1.209 . S
C689 O696 1.226 . S
O690 Cd686 2.273 . S
O690 Cd688 2.411 . S
O690 C693 1.320 . S
O691 Cd688 2.333 . S
O691 C693 1.214 . S
O692 Cd688 2.352 . S
O692 C695 1.258 . S
C693 O690 1.320 . S
C693 O691 1.214 . S
O694 Cd686 2.277 . S
O694 C689 1.209 . S
C695 O692 1.258 . S
C695 O697 1.282 . S
O696 Cd688 2.277 . S
O696 C689 1.226 . S
O697 Cd688 2.356 . S
O697 C695 1.282 . S
C698 O699 1.306 . S
C698 O701 1.160 . S
O699 C698 1.306 . S
O699 Cd700 2.228 . S
Cd700 O699 2.228 . S
Cd700 O704 2.273 . S
Cd700 O708 2.277 . S
O701 C698 1.160 . S
O701 Cd702 2.203 . S
Cd702 O701 2.203 . S
Cd702 O704 2.411 . S
Cd702 O705 2.333 . S
Cd702 O706 2.352 . S
Cd702 O710 2.277 . S
Cd702 O711 2.356 . S
C703 O708 1.209 . S
C703 O710 1.226 . S
O704 Cd700 2.273 . S
O704 Cd702 2.411 . S
O704 C707 1.320 . S
O705 Cd702 2.333 . S
O705 C707 1.214 . S
O706 Cd702 2.352 . S
O706 C709 1.258 . S
C707 O704 1.320 . S
C707 O705 1.214 . S
O708 Cd700 2.277 . S
O708 C703 1.209 . S
C709 O706 1.258 . S
C709 O711 1.282 . S
O710 Cd702 2.277 . S
O710 C703 1.226 . S
O711 Cd702 2.356 . S
O711 C709 1.282 . S
C712 O713 1.306 . S
C712 O715 1.160 . S
O713 C712 1.306 . S
O713 Cd714 2.228 . S
Cd714 O713 2.228 . S
Cd714 O718 2.273 . S
Cd714 O722 2.277 . S
O715 C712 1.160 . S
O715 Cd716 2.203 . S
Cd716 O715 2.203 . S
Cd716 O718 2.411 . S
Cd716 O719 2.333 . S
Cd716 O720 2.352 . S
Cd716 O724 2.277 . S
Cd716 O725 2.356 . S
C717 O722 1.209 . S
C717 O724 1.226 . S
O718 Cd714 2.273 . S
O718 Cd716 2.411 . S
O718 C721 1.320 . S
O719 Cd716 2.333 . S
O719 C721 1.214 . S
O720 Cd716 2.352 . S
O720 C723 1.258 . S
C721 O718 1.320 . S
C721 O719 1.214 . S
O722 Cd714 2.277 . S
O722 C717 1.209 . S
C723 O720 1.258 . S
C723 O725 1.282 . S
O724 Cd716 2.277 . S
O724 C717 1.226 . S
O725 Cd716 2.356 . S
O725 C723 1.282 . S
C726 O727 1.306 . S
C726 O729 1.160 . S
O727 C726 1.306 . S
O727 Cd728 2.228 . S
Cd728 O727 2.228 . S
Cd728 O732 2.273 . S
Cd728 O736 2.277 . S
O729 C726 1.160 . S
O729 Cd730 2.203 . S
Cd730 O729 2.203 . S
Cd730 O732 2.411 . S
Cd730 O733 2.333 . S
Cd730 O734 2.352 . S
Cd730 O738 2.277 . S
Cd730 O739 2.356 . S
C731 O736 1.209 . S
C731 O738 1.226 . S
O732 Cd728 2.273 . S
O732 Cd730 2.411 . S
O732 C735 1.320 . S
O733 Cd730 2.333 . S
O733 C735 1.214 . S
O734 Cd730 2.352 . S
O734 C737 1.258 . S
C735 O732 1.320 . S
C735 O733 1.214 . S
O736 Cd728 2.277 . S
O736 C731 1.209 . S
C737 O734 1.258 . S
C737 O739 1.282 . S
O738 Cd730 2.277 . S
O738 C731 1.226 . S
O739 Cd730 2.356 . S
O739 C737 1.282 . S
C740 O741 1.306 . S
C740 O743 1.160 . S
O741 C740 1.306 . S
O741 Cd742 2.228 . S
Cd742 O741 2.228 . S
Cd742 O746 2.273 . S
Cd742 O750 2.277 . S
O743 C740 1.160 . S
O743 Cd744 2.203 . S
Cd744 O743 2.203 . S
Cd744 O746 2.411 . S
Cd744 O747 2.333 . S
Cd744 O748 2.352 . S
Cd744 O752 2.277 . S
Cd744 O753 2.356 . S
C745 O750 1.209 . S
C745 O752 1.226 . S
O746 Cd742 2.273 . S
O746 Cd744 2.411 . S
O746 C749 1.320 . S
O747 Cd744 2.333 . S
O747 C749 1.214 . S
O748 Cd744 2.352 . S
O748 C751 1.258 . S
C749 O746 1.320 . S
C749 O747 1.214 . S
O750 Cd742 2.277 . S
O750 C745 1.209 . S
C751 O748 1.258 . S
C751 O753 1.282 . S
O752 Cd744 2.277 . S
O752 C745 1.226 . S
O753 Cd744 2.356 . S
O753 C751 1.282 . S
C754 O755 1.306 . S
C754 O757 1.160 . S
O755 C754 1.306 . S
O755 Cd756 2.228 . S
Cd756 O755 2.228 . S
Cd756 O760 2.273 . S
Cd756 O764 2.277 . S
O757 C754 1.160 . S
O757 Cd758 2.203 . S
Cd758 O757 2.203 . S
Cd758 O760 2.411 . S
Cd758 O761 2.333 . S
Cd758 O762 2.352 . S
Cd758 O766 2.277 . S
Cd758 O767 2.356 . S
C759 O764 1.209 . S
C759 O766 1.226 . S
O760 Cd756 2.273 . S
O760 Cd758 2.411 . S
O760 C763 1.320 . S
O761 Cd758 2.333 . S
O761 C763 1.214 . S
O762 Cd758 2.352 . S
O762 C765 1.258 . S
C763 O760 1.320 . S
C763 O761 1.214 . S
O764 Cd756 2.277 . S
O764 C759 1.209 . S
C765 O762 1.258 . S
C765 O767 1.282 . S
O766 Cd758 2.277 . S
O766 C759 1.226 . S
O767 Cd758 2.356 . S
O767 C765 1.282 . S
C754 C1 2.449 . S
C169 C695 2.802 . S
C283 C698 3.017 . S
C397 C712 2.435 . S
C737 C457 2.461 . S
C571 C740 2.241 . S
C115 C709 2.310 . S
C229 C723 2.257 . S
C343 C726 2.158 . S
C751 C511 2.874 . S
C765 C625 2.623 . S
C684 C55 2.896 . S
C29 C707 1.101 . S
C125 C721 0.884 . S
C731 C239 0.788 . S
C353 C749 0.757 . S
C763 C485 0.867 . S
C689 C599 1.219 . S
C759 C143 1.147 . S
C257 C693 1.072 . S
C703 C371 1.234 . S
C467 C717 1.114 . S
C581 C735 0.824 . S
C11 C745 0.836 . S
