# Generated by pormake.
# Topology eea, (3,6)-cn, num edge types: 1
# Building blocks:
#     Node 0, Type 0, BuildingBlock: PAMTOO_clean_linker_0, # of connection points: 3
#     Node 1, Type 0, BuildingBlock: PAMTOO_clean_linker_0, # of connection points: 3
#     Node 2, Type 0, BuildingBlock: PAMTOO_clean_linker_0, # of connection points: 3
#     Node 3, Type 0, BuildingBlock: PAMTOO_clean_linker_0, # of connection points: 3
#     Node 4, Type 0, BuildingBlock: PAMTOO_clean_linker_0, # of connection points: 3
#     Node 5, Type 0, BuildingBlock: PAMTOO_clean_linker_0, # of connection points: 3
#     Node 6, Type 0, BuildingBlock: PAMTOO_clean_linker_0, # of connection points: 3
#     Node 7, Type 0, BuildingBlock: PAMTOO_clean_linker_0, # of connection points: 3
#     Node 8, Type 0, BuildingBlock: PAMTOO_clean_linker_0, # of connection points: 3
#     Node 9, Type 0, BuildingBlock: PAMTOO_clean_linker_0, # of connection points: 3
#     Node 10, Type 0, BuildingBlock: PAMTOO_clean_linker_0, # of connection points: 3
#     Node 11, Type 0, BuildingBlock: PAMTOO_clean_linker_0, # of connection points: 3
#     Node 12, Type 0, BuildingBlock: PAMTOO_clean_linker_0, # of connection points: 3
#     Node 13, Type 0, BuildingBlock: PAMTOO_clean_linker_0, # of connection points: 3
#     Node 14, Type 0, BuildingBlock: PAMTOO_clean_linker_0, # of connection points: 3
#     Node 15, Type 0, BuildingBlock: PAMTOO_clean_linker_0, # of connection points: 3
#     Node 16, Type 0, BuildingBlock: PAMTOO_clean_linker_0, # of connection points: 3
#     Node 17, Type 0, BuildingBlock: PAMTOO_clean_linker_0, # of connection points: 3
#     Node 18, Type 1, BuildingBlock: NUHQIS_clean_sbu_0, # of connection points: 6
#     Node 19, Type 1, BuildingBlock: NUHQIS_clean_sbu_0, # of connection points: 6
#     Node 20, Type 1, BuildingBlock: NUHQIS_clean_sbu_0, # of connection points: 6
#     Node 21, Type 1, BuildingBlock: NUHQIS_clean_sbu_0, # of connection points: 6
#     Node 22, Type 1, BuildingBlock: NUHQIS_clean_sbu_0, # of connection points: 6
#     Node 23, Type 1, BuildingBlock: NUHQIS_clean_sbu_0, # of connection points: 6
#     Node 24, Type 1, BuildingBlock: NUHQIS_clean_sbu_0, # of connection points: 6
#     Node 25, Type 1, BuildingBlock: NUHQIS_clean_sbu_0, # of connection points: 6
#     Node 26, Type 1, BuildingBlock: NUHQIS_clean_sbu_0, # of connection points: 6
#     Edge 27, Type (0, 1), BuildingBlock: ZUJKAS_clean_linker_0, # of connection points: 2
#     Edge 28, Type (0, 1), BuildingBlock: ZUJKAS_clean_linker_0, # of connection points: 2
#     Edge 29, Type (0, 1), BuildingBlock: ZUJKAS_clean_linker_0, # of connection points: 2
#     Edge 30, Type (0, 1), BuildingBlock: ZUJKAS_clean_linker_0, # of connection points: 2
#     Edge 31, Type (0, 1), BuildingBlock: ZUJKAS_clean_linker_0, # of connection points: 2
#     Edge 32, Type (0, 1), BuildingBlock: ZUJKAS_clean_linker_0, # of connection points: 2
#     Edge 33, Type (0, 1), BuildingBlock: ZUJKAS_clean_linker_0, # of connection points: 2
#     Edge 34, Type (0, 1), BuildingBlock: ZUJKAS_clean_linker_0, # of connection points: 2
#     Edge 35, Type (0, 1), BuildingBlock: ZUJKAS_clean_linker_0, # of connection points: 2
#     Edge 36, Type (0, 1), BuildingBlock: ZUJKAS_clean_linker_0, # of connection points: 2
#     Edge 37, Type (0, 1), BuildingBlock: ZUJKAS_clean_linker_0, # of connection points: 2
#     Edge 38, Type (0, 1), BuildingBlock: ZUJKAS_clean_linker_0, # of connection points: 2
#     Edge 39, Type (0, 1), BuildingBlock: ZUJKAS_clean_linker_0, # of connection points: 2
#     Edge 40, Type (0, 1), BuildingBlock: ZUJKAS_clean_linker_0, # of connection points: 2
#     Edge 41, Type (0, 1), BuildingBlock: ZUJKAS_clean_linker_0, # of connection points: 2
#     Edge 42, Type (0, 1), BuildingBlock: ZUJKAS_clean_linker_0, # of connection points: 2
#     Edge 43, Type (0, 1), BuildingBlock: ZUJKAS_clean_linker_0, # of connection points: 2
#     Edge 44, Type (0, 1), BuildingBlock: ZUJKAS_clean_linker_0, # of connection points: 2
#     Edge 45, Type (0, 1), BuildingBlock: ZUJKAS_clean_linker_0, # of connection points: 2
#     Edge 46, Type (0, 1), BuildingBlock: ZUJKAS_clean_linker_0, # of connection points: 2
#     Edge 47, Type (0, 1), BuildingBlock: ZUJKAS_clean_linker_0, # of connection points: 2
#     Edge 48, Type (0, 1), BuildingBlock: ZUJKAS_clean_linker_0, # of connection points: 2
#     Edge 49, Type (0, 1), BuildingBlock: ZUJKAS_clean_linker_0, # of connection points: 2
#     Edge 50, Type (0, 1), BuildingBlock: ZUJKAS_clean_linker_0, # of connection points: 2
#     Edge 51, Type (0, 1), BuildingBlock: ZUJKAS_clean_linker_0, # of connection points: 2
#     Edge 52, Type (0, 1), BuildingBlock: ZUJKAS_clean_linker_0, # of connection points: 2
#     Edge 53, Type (0, 1), BuildingBlock: ZUJKAS_clean_linker_0, # of connection points: 2
#     Edge 54, Type (0, 1), BuildingBlock: ZUJKAS_clean_linker_0, # of connection points: 2
#     Edge 55, Type (0, 1), BuildingBlock: ZUJKAS_clean_linker_0, # of connection points: 2
#     Edge 56, Type (0, 1), BuildingBlock: ZUJKAS_clean_linker_0, # of connection points: 2
#     Edge 57, Type (0, 1), BuildingBlock: ZUJKAS_clean_linker_0, # of connection points: 2
#     Edge 58, Type (0, 1), BuildingBlock: ZUJKAS_clean_linker_0, # of connection points: 2
#     Edge 59, Type (0, 1), BuildingBlock: ZUJKAS_clean_linker_0, # of connection points: 2
#     Edge 60, Type (0, 1), BuildingBlock: ZUJKAS_clean_linker_0, # of connection points: 2
#     Edge 61, Type (0, 1), BuildingBlock: ZUJKAS_clean_linker_0, # of connection points: 2
#     Edge 62, Type (0, 1), BuildingBlock: ZUJKAS_clean_linker_0, # of connection points: 2
#     Edge 63, Type (0, 1), BuildingBlock: ZUJKAS_clean_linker_0, # of connection points: 2
#     Edge 64, Type (0, 1), BuildingBlock: ZUJKAS_clean_linker_0, # of connection points: 2
#     Edge 65, Type (0, 1), BuildingBlock: ZUJKAS_clean_linker_0, # of connection points: 2
#     Edge 66, Type (0, 1), BuildingBlock: ZUJKAS_clean_linker_0, # of connection points: 2
#     Edge 67, Type (0, 1), BuildingBlock: ZUJKAS_clean_linker_0, # of connection points: 2
#     Edge 68, Type (0, 1), BuildingBlock: ZUJKAS_clean_linker_0, # of connection points: 2
#     Edge 69, Type (0, 1), BuildingBlock: ZUJKAS_clean_linker_0, # of connection points: 2
#     Edge 70, Type (0, 1), BuildingBlock: ZUJKAS_clean_linker_0, # of connection points: 2
#     Edge 71, Type (0, 1), BuildingBlock: ZUJKAS_clean_linker_0, # of connection points: 2
#     Edge 72, Type (0, 1), BuildingBlock: ZUJKAS_clean_linker_0, # of connection points: 2
#     Edge 73, Type (0, 1), BuildingBlock: ZUJKAS_clean_linker_0, # of connection points: 2
#     Edge 74, Type (0, 1), BuildingBlock: ZUJKAS_clean_linker_0, # of connection points: 2
#     Edge 75, Type (0, 1), BuildingBlock: ZUJKAS_clean_linker_0, # of connection points: 2
#     Edge 76, Type (0, 1), BuildingBlock: ZUJKAS_clean_linker_0, # of connection points: 2
#     Edge 77, Type (0, 1), BuildingBlock: ZUJKAS_clean_linker_0, # of connection points: 2
#     Edge 78, Type (0, 1), BuildingBlock: ZUJKAS_clean_linker_0, # of connection points: 2
#     Edge 79, Type (0, 1), BuildingBlock: ZUJKAS_clean_linker_0, # of connection points: 2
#     Edge 80, Type (0, 1), BuildingBlock: ZUJKAS_clean_linker_0, # of connection points: 2
# Relax obj value: 0.056
# Max RMSD: 0.196
# Mean RMSD: 0.137
data_MOF--net-eea--node1-NUHQIS_clean_sbu_0--node2-PAMTOO_clean_linker_0--edge1-ZUJKAS_clean_linker_0
_symmetry_space_group_name_H-M    P1
_symmetry_Int_Tables_number       1
_symmetry_cell_setting            triclinic
loop_
_symmetry_equiv_pos_as_xyz
'x, y, z'
_cell_length_a     70.982308
_cell_length_b     71.749867
_cell_length_c     85.879646
_cell_angle_alpha  93.323361
_cell_angle_beta   93.326013
_cell_angle_gamma 119.85971
loop_
_atom_site_label
_atom_site_type_symbol
_atom_site_fract_x
_atom_site_fract_y
_atom_site_fract_z
_atom_type_partial_charge
H0 H 0.26506 0.10332 0.43117 0.0
H1 H 0.26536 0.16286 0.42601 0.0
H2 H 0.2402 0.11359 0.38749 0.0
H3 H 0.26425 0.15906 0.3778 0.0
C4 C 0.26232 0.16724 0.38848 0.0
O5 O 0.24754 0.15191 0.39715 0.0
H6 H 0.27855 0.17686 0.39542 0.0
C7 C 0.26166 0.1135 0.42406 0.0
C8 C 0.25221 0.10588 0.40851 0.0
C9 C 0.26649 0.13403 0.43059 0.0
C10 C 0.26177 0.14696 0.42131 0.0
C11 C 0.25258 0.13961 0.40579 0.0
C12 C 0.24783 0.11919 0.39941 0.0
H13 H 0.93539 0.16498 0.43165 0.0
H14 H 0.87613 0.10313 0.42581 0.0
H15 H 0.9165 0.124 0.38813 0.0
H16 H 0.86934 0.09883 0.37706 0.0
C17 C 0.86339 0.09074 0.38785 0.0
O18 O 0.88092 0.09293 0.3973 0.0
H19 H 0.85537 0.09859 0.39399 0.0
C20 C 0.92399 0.15025 0.4244 0.0
C21 C 0.92848 0.1466 0.4091 0.0
C22 C 0.90518 0.13468 0.43061 0.0
C23 C 0.89084 0.11527 0.42136 0.0
C24 C 0.895 0.11156 0.40612 0.0
C25 C 0.91373 0.12711 0.40003 0.0
H26 H 0.85953 0.77357 0.44246 0.0
H27 H 0.92235 0.77778 0.44431 0.0
H28 H 0.89969 0.79727 0.40449 0.0
H29 H 0.92126 0.77314 0.39643 0.0
C30 C 0.9329 0.7777 0.40711 0.0
O31 O 0.93153 0.79274 0.41702 0.0
H32 H 0.9282 0.76279 0.41302 0.0
C33 C 0.8745 0.77766 0.43725 0.0
C34 C 0.87755 0.78578 0.42253 0.0
C35 C 0.89052 0.77475 0.44531 0.0
C36 C 0.90975 0.77986 0.43833 0.0
C37 C 0.913 0.78796 0.42365 0.0
C38 C 0.89704 0.79112 0.41587 0.0
H39 H 0.08414 0.23853 0.58657 0.0
H40 H 0.14113 0.23162 0.58724 0.0
H41 H 0.1003 0.21096 0.62479 0.0
H42 H 0.14743 0.23296 0.63502 0.0
C43 C 0.15335 0.22916 0.62424 0.0
O44 O 0.13564 0.21482 0.61389 0.0
H45 H 0.16325 0.24451 0.61892 0.0
C46 C 0.09492 0.23381 0.5923 0.0
C47 C 0.08994 0.22452 0.60657 0.0
C48 C 0.11321 0.23627 0.58507 0.0
C49 C 0.12674 0.22957 0.59243 0.0
C50 C 0.12215 0.22066 0.60676 0.0
C51 C 0.10368 0.21792 0.61371 0.0
H52 H 0.75932 0.84185 0.60215 0.0
H53 H 0.75791 0.90112 0.60864 0.0
H54 H 0.78108 0.8799 0.64702 0.0
H55 H 0.75817 0.90384 0.65791 0.0
C56 C 0.75832 0.91076 0.64664 0.0
O57 O 0.7737 0.90994 0.638 0.0
H58 H 0.74168 0.90111 0.64026 0.0
C59 C 0.76215 0.85588 0.60963 0.0
C60 C 0.77067 0.85885 0.62535 0.0
C61 C 0.75753 0.87103 0.60341 0.0
C62 C 0.7614 0.88923 0.61315 0.0
C63 C 0.76957 0.89215 0.62885 0.0
C64 C 0.77423 0.87707 0.63493 0.0
H65 H 0.15753 0.91092 0.59003 0.0
H66 H 0.09697 0.85081 0.58917 0.0
H67 H 0.1196 0.89712 0.62957 0.0
H68 H 0.10103 0.85179 0.63644 0.0
C69 C 0.08859 0.84367 0.62614 0.0
O70 O 0.08875 0.85909 0.61718 0.0
H71 H 0.09279 0.83296 0.61913 0.0
C72 C 0.14325 0.90021 0.59564 0.0
C73 C 0.14061 0.90661 0.61076 0.0
C74 C 0.12765 0.88016 0.58767 0.0
C75 C 0.10915 0.86642 0.59501 0.0
C76 C 0.10649 0.8725 0.61015 0.0
C77 C 0.12211 0.89253 0.61797 0.0
H78 H 0.93252 0.43433 0.76062 0.0
H79 H 0.93063 0.49327 0.7584 0.0
H80 H 0.90727 0.44665 0.71812 0.0
H81 H 0.9307 0.49235 0.71018 0.0
C82 C 0.92848 0.50002 0.72101 0.0
O83 O 0.91359 0.4842 0.72931 0.0
H84 H 0.94459 0.50946 0.72813 0.0
C85 C 0.92907 0.44495 0.75408 0.0
C86 C 0.91973 0.43825 0.73848 0.0
C87 C 0.93292 0.46469 0.76151 0.0
C88 C 0.92762 0.47788 0.753 0.0
C89 C 0.91862 0.47142 0.73737 0.0
C90 C 0.91447 0.45158 0.73018 0.0
H91 H 0.60347 0.50029 0.76504 0.0
H92 H 0.54419 0.43847 0.7596 0.0
H93 H 0.58402 0.45901 0.72161 0.0
H94 H 0.5367 0.43385 0.71089 0.0
C95 C 0.53096 0.42576 0.72171 0.0
O96 O 0.54863 0.42807 0.73103 0.0
H97 H 0.5229 0.43351 0.72795 0.0
C98 C 0.59199 0.48553 0.75785 0.0
C99 C 0.59629 0.48175 0.74252 0.0
C100 C 0.57327 0.47003 0.76418 0.0
C101 C 0.55882 0.45056 0.75504 0.0
C102 C 0.56278 0.44676 0.73976 0.0
C103 C 0.5814 0.46223 0.73354 0.0
H104 H 0.52902 0.10401 0.77567 0.0
H105 H 0.59138 0.10744 0.77587 0.0
H106 H 0.56858 0.12936 0.73762 0.0
H107 H 0.58966 0.10557 0.72805 0.0
C108 C 0.60137 0.1094 0.73857 0.0
O109 O 0.60041 0.1241 0.74912 0.0
H110 H 0.59648 0.09407 0.74393 0.0
C111 C 0.54366 0.10788 0.77008 0.0
C112 C 0.54661 0.11685 0.75568 0.0
C113 C 0.55965 0.10442 0.77756 0.0
C114 C 0.57894 0.11021 0.77045 0.0
C115 C 0.58206 0.11912 0.75607 0.0
C116 C 0.56604 0.12262 0.7488 0.0
H117 H 0.75012 0.57096 0.91938 0.0
H118 H 0.80751 0.56482 0.92097 0.0
H119 H 0.76535 0.5426 0.95759 0.0
H120 H 0.81183 0.56338 0.96951 0.0
C121 C 0.81845 0.56179 0.95839 0.0
O122 O 0.80145 0.54765 0.94747 0.0
H123 H 0.82729 0.57813 0.95419 0.0
C124 C 0.76054 0.56588 0.92517 0.0
C125 C 0.75517 0.55638 0.93936 0.0
C126 C 0.77923 0.5688 0.91829 0.0
C127 C 0.79285 0.56242 0.92591 0.0
C128 C 0.78796 0.55333 0.94014 0.0
C129 C 0.76911 0.55013 0.94676 0.0
H130 H 0.43571 0.18378 0.93932 0.0
H131 H 0.43336 0.24259 0.94559 0.0
H132 H 0.45203 0.21912 0.98497 0.0
H133 H 0.42719 0.24235 0.9938 0.0
C134 C 0.42936 0.25036 0.98281 0.0
O135 O 0.44602 0.24997 0.97557 0.0
H136 H 0.41367 0.24144 0.97512 0.0
C137 C 0.43767 0.19744 0.94683 0.0
C138 C 0.44439 0.19959 0.96285 0.0
C139 C 0.43346 0.21274 0.94045 0.0
C140 C 0.43646 0.23056 0.95026 0.0
C141 C 0.44295 0.23268 0.96628 0.0
C142 C 0.44677 0.21718 0.97258 0.0
H143 H 0.82081 0.24659 0.91986 0.0
H144 H 0.76102 0.18596 0.9198 0.0
H145 H 0.78243 0.23387 0.9591 0.0
H146 H 0.7641 0.19006 0.96797 0.0
C147 C 0.75266 0.18089 0.95733 0.0
O148 O 0.75222 0.19511 0.94738 0.0
H149 H 0.75868 0.1709 0.95145 0.0
C150 C 0.80657 0.23597 0.92555 0.0
C151 C 0.80361 0.24287 0.9404 0.0
C152 C 0.79134 0.21552 0.91794 0.0
C153 C 0.7729 0.20186 0.92538 0.0
C154 C 0.7699 0.20845 0.94025 0.0
C155 C 0.78515 0.2289 0.9477 0.0
H156 H 0.59872 0.77214 0.09278 0.0
H157 H 0.60033 0.83251 0.08876 0.0
H158 H 0.57521 0.78451 0.04942 0.0
H159 H 0.59958 0.82833 0.04012 0.0
C160 C 0.59817 0.83728 0.05059 0.0
O161 O 0.5833 0.82287 0.0597 0.0
H162 H 0.61459 0.8467 0.05732 0.0
C163 C 0.59564 0.78271 0.0859 0.0
C164 C 0.58659 0.77578 0.0702 0.0
C165 C 0.60057 0.8031 0.09282 0.0
C166 C 0.5965 0.81665 0.08378 0.0
C167 C 0.58759 0.80993 0.06817 0.0
C168 C 0.58256 0.78958 0.06143 0.0
H169 H 0.27071 0.83641 0.10109 0.0
H170 H 0.21223 0.77385 0.09631 0.0
H171 H 0.25314 0.79332 0.05885 0.0
H172 H 0.20606 0.76589 0.04684 0.0
C173 C 0.20012 0.75978 0.05821 0.0
O174 O 0.21743 0.7626 0.06825 0.0
H175 H 0.19276 0.76915 0.06309 0.0
C176 C 0.25972 0.82112 0.09428 0.0
C177 C 0.26431 0.81694 0.07916 0.0
C178 C 0.24104 0.80566 0.10069 0.0
C179 C 0.22688 0.7859 0.09175 0.0
C180 C 0.23121 0.78166 0.07669 0.0
C181 C 0.24987 0.79705 0.07045 0.0
H182 H 0.19549 0.44117 0.10981 0.0
H183 H 0.25604 0.44083 0.10994 0.0
H184 H 0.23678 0.46701 0.07269 0.0
H185 H 0.25736 0.44349 0.0619 0.0
C186 C 0.26769 0.44513 0.07271 0.0
O187 O 0.26693 0.45919 0.084 0.0
H188 H 0.26115 0.42894 0.0771 0.0
C189 C 0.21026 0.44486 0.10447 0.0
C190 C 0.21411 0.45457 0.09034 0.0
C191 C 0.2252 0.43979 0.11174 0.0
C192 C 0.24435 0.44473 0.10469 0.0
C193 C 0.2484 0.45442 0.09062 0.0
C194 C 0.23335 0.45935 0.0835 0.0
H195 H 0.41488 0.90576 0.25272 0.0
H196 H 0.47139 0.89796 0.25373 0.0
H197 H 0.42963 0.87686 0.29068 0.0
H198 H 0.47663 0.89768 0.30179 0.0
C199 C 0.4828 0.89489 0.29079 0.0
O200 O 0.46525 0.88083 0.2802 0.0
H201 H 0.4924 0.91072 0.28601 0.0
C202 C 0.42521 0.90043 0.25833 0.0
C203 C 0.41981 0.89084 0.27246 0.0
C204 C 0.4438 0.90313 0.25138 0.0
C205 C 0.45709 0.89626 0.25887 0.0
C206 C 0.45203 0.88696 0.27302 0.0
C207 C 0.43334 0.88406 0.27971 0.0
H208 H 0.09516 0.51125 0.2685 0.0
H209 H 0.09525 0.57116 0.27623 0.0
H210 H 0.11644 0.54749 0.31406 0.0
H211 H 0.09439 0.57245 0.32561 0.0
C212 C 0.09454 0.57925 0.31428 0.0
O213 O 0.10998 0.57839 0.30574 0.0
H214 H 0.0779 0.56949 0.3079 0.0
C215 C 0.09846 0.52528 0.27619 0.0
C216 C 0.10643 0.52739 0.29195 0.0
C217 C 0.09429 0.54092 0.27034 0.0
C218 C 0.09798 0.5587 0.28051 0.0
C219 C 0.10571 0.56082 0.29623 0.0
C220 C 0.10994 0.54527 0.30194 0.0
H221 H 0.48766 0.57569 0.254 0.0
H222 H 0.42667 0.51607 0.25358 0.0
H223 H 0.45105 0.56206 0.29424 0.0
H224 H 0.43246 0.51659 0.30093 0.0
C225 C 0.41965 0.50862 0.29083 0.0
O226 O 0.41973 0.52416 0.28205 0.0
H227 H 0.4234 0.49775 0.28355 0.0
C228 C 0.47332 0.56523 0.25966 0.0
C229 C 0.47129 0.57158 0.27498 0.0
C230 C 0.45737 0.54527 0.25174 0.0
C231 C 0.4393 0.53145 0.25945 0.0
C232 C 0.43725 0.53748 0.27479 0.0
C233 C 0.45312 0.55748 0.28249 0.0
Tb234 Tb 0.49411 0.9978 0.99638 0.0
Eu235 Eu 0.51 0.0167 0.03371 0.0
C236 C 0.51311 0.97705 0.01914 0.0
C237 C 0.46211 0.97695 0.02197 0.0
C238 C 0.48918 0.99524 0.95283 0.0
C239 C 0.48813 0.99195 0.92446 0.0
C240 C 0.48178 0.98248 0.93843 0.0
C241 C 0.50285 0.01767 0.95315 0.0
C242 C 0.50924 0.02718 0.93918 0.0
C243 C 0.50207 0.0144 0.92466 0.0
C244 C 0.48359 0.98485 0.96745 0.0
O245 O 0.48097 0.01881 0.00214 0.0
O246 O 0.50703 0.04211 0.02157 0.0
O247 O 0.54017 0.03097 0.0208 0.0
O248 O 0.5239 0.02874 0.99633 0.0
C249 C 0.49132 0.03761 0.01062 0.0
O250 O 0.50609 0.03153 0.05526 0.0
O251 O 0.53156 0.02324 0.05498 0.0
O252 O 0.50705 0.98407 0.03117 0.0
O253 O 0.51369 0.98445 0.00545 0.0
O254 O 0.46952 0.97321 0.00916 0.0
O255 O 0.47349 0.99501 0.03122 0.0
C256 C 0.54135 0.03658 0.00642 0.0
O257 O 0.49966 0.98505 0.97569 0.0
O258 O 0.47209 0.98981 0.97626 0.0
C259 C 0.51432 0.01938 0.07814 0.0
C260 C 0.50175 0.99973 0.10617 0.0
C261 C 0.51798 0.02162 0.10657 0.0
C262 C 0.52419 0.03134 0.09267 0.0
C263 C 0.49812 0.99756 0.07762 0.0
C264 C 0.49187 0.98781 0.09151 0.0
C265 C 0.52096 0.02973 0.0636 0.0
H266 H 0.48254 0.98159 0.91353 0.0
H267 H 0.47138 0.96511 0.93799 0.0
H268 H 0.50876 0.02777 0.9642 0.0
H269 H 0.51976 0.04453 0.93976 0.0
H270 H 0.5257 0.03134 0.11764 0.0
H271 H 0.53668 0.04823 0.09327 0.0
H272 H 0.49036 0.98807 0.06646 0.0
H273 H 0.47953 0.97088 0.09075 0.0
Tb274 Tb 0.0186 0.49618 0.99854 0.0
Eu275 Eu 0.99876 0.48976 0.03282 0.0
C276 C 0.03905 0.53449 0.02522 0.0
C277 C 0.03994 0.48479 0.02696 0.0
C278 C 0.0252 0.49921 0.95588 0.0
C279 C 0.03192 0.50385 0.92864 0.0
C280 C 0.03961 0.50538 0.94427 0.0
C281 C 1.00296 0.49154 0.95179 0.0
C282 C 0.99521 0.48998 0.93614 0.0
C283 C 0.00963 0.49609 0.92438 0.0
C284 C 0.03368 0.50117 0.97222 0.0
O285 O 0.98679 0.46695 0.99463 0.0
O286 O 0.98435 0.45684 0.01955 0.0
O287 O 0.97381 0.49046 0.01597 0.0
O288 O 0.99646 0.5091 0.99756 0.0
C289 C 0.97824 0.4522 0.00445 0.0
O290 O 0.98881 0.47134 0.05304 0.0
O291 O 0.98503 0.49938 0.05165 0.0
O292 O 0.02089 0.5255 0.03203 0.0
O293 O 0.0429 0.52359 0.0143 0.0
O294 O 0.03309 0.48063 0.01193 0.0
O295 O 0.03165 0.49263 0.03688 0.0
C296 C 0.978 0.50202 0.004 0.0
O297 O 0.03444 0.5167 0.98138 0.0
O298 O 0.02603 0.48325 0.97886 0.0
C299 C 0.99341 0.49197 0.07662 0.0
C300 C 0.01144 0.50434 0.1081 0.0
C301 C 0.98866 0.4924 0.10434 0.0
C302 C 0.97974 0.48625 0.08871 0.0
C303 C 0.01612 0.50417 0.08024 0.0
C304 C 0.02508 0.5103 0.09587 0.0
C305 C 0.9839 0.48458 0.06032 0.0
H306 H 0.0435 0.50902 0.91993 0.0
H307 H 0.05686 0.51147 0.94729 0.0
H308 H 0.99163 0.48675 0.96068 0.0
H309 H 0.97793 0.48373 0.93322 0.0
H310 H 0.97774 0.48732 0.11348 0.0
H311 H 0.96217 0.47676 0.08607 0.0
H312 H 0.02689 0.50874 0.07099 0.0
H313 H 0.04266 0.5197 0.09838 0.0
Tb314 Tb 0.52775 0.52107 0.02692 0.0
Eu315 Eu 0.50864 0.51822 0.99029 0.0
C316 C 0.50416 0.47741 0.0056 0.0
C317 C 0.55732 0.52643 0.99932 0.0
C318 C 0.53094 0.51879 0.07007 0.0
C319 C 0.53484 0.52051 0.09844 0.0
C320 C 0.54404 0.52358 0.0842 0.0
C321 C 0.50839 0.51039 0.07026 0.0
C322 C 0.49915 0.50734 0.08451 0.0
C323 C 0.51233 0.51263 0.09879 0.0
C324 C 0.54119 0.52408 0.05538 0.0
O325 O 0.54312 0.55332 0.01928 0.0
O326 O 0.51423 0.54886 0.00331 0.0
O327 O 0.47936 0.50533 0.00406 0.0
O328 O 0.49684 0.52026 0.02878 0.0
C329 C 0.53194 0.56134 0.01272 0.0
O330 O 0.51017 0.53454 0.96934 0.0
O331 O 0.48618 0.50058 0.96941 0.0
O332 O 0.51003 0.48806 0.99321 0.0
O333 O 0.50499 0.48718 0.01926 0.0
O334 O 0.55226 0.52006 0.01332 0.0
O335 O 0.54445 0.52988 0.98978 0.0
C336 C 0.47901 0.51054 0.01893 0.0
O337 O 0.53673 0.50786 0.04522 0.0
O338 O 0.54014 0.53943 0.04873 0.0
C339 C 0.50142 0.51251 0.94564 0.0
C340 C 0.51407 0.50575 0.91622 0.0
C341 C 0.50588 0.5199 0.91845 0.0
C342 C 0.49958 0.52319 0.933 0.0
C343 C 0.50968 0.49847 0.94357 0.0
C344 C 0.51585 0.49504 0.92898 0.0
C345 C 0.49546 0.51686 0.961 0.0
H346 H 0.54552 0.52506 0.1092 0.0
H347 H 0.5615 0.53024 0.08425 0.0
H348 H 0.49803 0.50663 0.05942 0.0
H349 H 0.48173 0.50104 0.08436 0.0
H350 H 0.50466 0.52874 0.90902 0.0
H351 H 0.49348 0.53428 0.93444 0.0
H352 H 0.51142 0.4902 0.95323 0.0
H353 H 0.52182 0.48384 0.92767 0.0
Tb354 Tb 0.16115 0.32758 0.32891 0.0
Eu355 Eu 0.17431 0.34773 0.36621 0.0
C356 C 0.17899 0.30804 0.35377 0.0
C357 C 0.1273 0.30754 0.35347 0.0
C358 C 0.15744 0.32384 0.28538 0.0
C359 C 0.16346 0.32181 0.25794 0.0
C360 C 0.15754 0.31205 0.27183 0.0
C361 C 0.16314 0.34553 0.28484 0.0
C362 C 0.16893 0.35529 0.2709 0.0
C363 C 0.16936 0.34358 0.25732 0.0
C364 C 0.15279 0.31371 0.30015 0.0
O365 O 0.1484 0.34947 0.33213 0.0
O366 O 0.17145 0.37246 0.35313 0.0
O367 O 0.20545 0.36227 0.35439 0.0
O368 O 0.19063 0.35876 0.32917 0.0
C369 C 0.15741 0.36804 0.3409 0.0
O370 O 0.16768 0.36124 0.38726 0.0
O371 O 0.19564 0.35663 0.38792 0.0
O372 O 0.17217 0.31546 0.36508 0.0
O373 O 0.18011 0.31459 0.33971 0.0
O374 O 0.13585 0.30338 0.34151 0.0
O375 O 0.13786 0.32596 0.36237 0.0
C376 C 0.20748 0.36727 0.33986 0.0
O377 O 0.16985 0.31666 0.30887 0.0
O378 O 0.13926 0.31625 0.30843 0.0
C379 C 0.17728 0.35112 0.41072 0.0
C380 C 0.16579 0.33175 0.43898 0.0
C381 C 0.17328 0.35394 0.43851 0.0
C382 C 0.17899 0.36351 0.42451 0.0
C383 C 0.16961 0.32896 0.41104 0.0
C384 C 0.16399 0.31938 0.42504 0.0
C385 C 0.18336 0.36138 0.39607 0.0
H386 H 0.16338 0.31229 0.24764 0.0
H387 H 0.15333 0.29533 0.27207 0.0
H388 H 0.16343 0.35499 0.29526 0.0
H389 H 0.17359 0.37214 0.27084 0.0
H390 H 0.17453 0.36389 0.44893 0.0
H391 H 0.18472 0.3806 0.42444 0.0
H392 H 0.16809 0.3191 0.40047 0.0
H393 H 0.15855 0.30235 0.42498 0.0
Tb394 Tb 0.67967 0.82407 0.32902 0.0
Eu395 Eu 0.66386 0.82302 0.36449 0.0
C396 C 0.70149 0.86548 0.35285 0.0
C397 C 0.70363 0.8151 0.35745 0.0
C398 C 0.68637 0.82988 0.28626 0.0
C399 C 0.69751 0.83981 0.26042 0.0
C400 C 0.70225 0.83648 0.27567 0.0
C401 C 0.66592 0.8275 0.28164 0.0
C402 C 0.66111 0.83071 0.26635 0.0
C403 C 0.6767 0.83645 0.25545 0.0
C404 C 0.69091 0.82411 0.30161 0.0
O405 O 0.66113 0.79057 0.33422 0.0
O406 O 0.6377 0.79403 0.34942 0.0
O407 O 0.64754 0.83731 0.35027 0.0
O408 O 0.64997 0.82586 0.32523 0.0
C409 C 0.64205 0.78223 0.33977 0.0
O410 O 0.64967 0.80505 0.38439 0.0
O411 O 0.65822 0.83865 0.38473 0.0
O412 O 0.69619 0.85331 0.36447 0.0
O413 O 0.69211 0.85742 0.33853 0.0
O414 O 0.7051 0.82353 0.34406 0.0
O415 O 0.68721 0.81037 0.36587 0.0
C416 C 0.64172 0.83392 0.3351 0.0
O417 O 0.70202 0.83989 0.3126 0.0
O418 O 0.67462 0.80767 0.30685 0.0
C419 C 0.66111 0.82581 0.40885 0.0
C420 C 0.67907 0.83339 0.44021 0.0
C421 C 0.65631 0.82218 0.43644 0.0
C422 C 0.64742 0.81845 0.42088 0.0
C423 C 0.68384 0.83687 0.41248 0.0
C424 C 0.69277 0.8407 0.42807 0.0
C425 C 0.65141 0.8218 0.39262 0.0
H426 H 0.71003 0.84464 0.25243 0.0
H427 H 0.71815 0.83851 0.27907 0.0
H428 H 0.65344 0.82248 0.28968 0.0
H429 H 0.64488 0.8278 0.26291 0.0
H430 H 0.64535 0.81659 0.44554 0.0
H431 H 0.62983 0.80989 0.41823 0.0
H432 H 0.69462 0.84253 0.40328 0.0
H433 H 0.71036 0.84918 0.43062 0.0
Tb434 Tb 0.19085 0.84675 0.36095 0.0
Eu435 Eu 0.17355 0.85019 0.32533 0.0
C436 C 0.16887 0.80639 0.33627 0.0
C437 C 0.22056 0.85586 0.33325 0.0
C438 C 0.19634 0.84661 0.40401 0.0
C439 C 0.19807 0.84333 0.43193 0.0
C440 C 0.20495 0.84179 0.41723 0.0
C441 C 0.18081 0.85306 0.40559 0.0
C442 C 0.17393 0.85464 0.42029 0.0
C443 C 0.18244 0.84973 0.43364 0.0
C444 C 0.20304 0.84411 0.38855 0.0
O445 O 0.18816 0.87558 0.36263 0.0
O446 O 0.19423 0.88386 0.33747 0.0
O447 O 0.14881 0.8499 0.3407 0.0
O448 O 0.15574 0.83385 0.36098 0.0
C449 C 0.19412 0.88961 0.35222 0.0
O450 O 0.17912 0.86894 0.30529 0.0
O451 O 0.15031 0.83732 0.3043 0.0
O452 O 0.15907 0.81489 0.32845 0.0
O453 O 0.18548 0.81815 0.34683 0.0
O454 O 0.21969 0.86132 0.34798 0.0
O455 O 0.2031 0.84685 0.32315 0.0
C456 C 0.14323 0.83981 0.35341 0.0
O457 O 0.18834 0.82765 0.37917 0.0
O458 O 0.21257 0.86155 0.38135 0.0
C459 C 0.16706 0.84816 0.28097 0.0
C460 C 0.17855 0.84062 0.25135 0.0
C461 C 0.16608 0.8508 0.25293 0.0
C462 C 0.16041 0.85454 0.26763 0.0
C463 C 0.17925 0.83774 0.27948 0.0
C464 C 0.18491 0.83396 0.26479 0.0
C465 C 0.16238 0.85353 0.29649 0.0
H466 H 0.20472 0.83912 0.44191 0.0
H467 H 0.21683 0.83661 0.41616 0.0
H468 H 0.17394 0.85677 0.39544 0.0
H469 H 0.16207 0.85986 0.42121 0.0
H470 H 0.1607 0.85587 0.24279 0.0
H471 H 0.15105 0.86267 0.26861 0.0
H472 H 0.18469 0.83288 0.28972 0.0
H473 H 0.19474 0.82632 0.26402 0.0
Tb474 Tb 0.82926 0.66241 0.66271 0.0
Eu475 Eu 0.8425 0.68219 0.70011 0.0
C476 C 0.84663 0.64222 0.68736 0.0
C477 C 0.79541 0.64229 0.68723 0.0
C478 C 0.8253 0.65953 0.61926 0.0
C479 C 0.82652 0.65703 0.59106 0.0
C480 C 0.82089 0.64709 0.60492 0.0
C481 C 0.83519 0.68207 0.61959 0.0
C482 C 0.84081 0.69204 0.60572 0.0
C483 C 0.83672 0.67964 0.59129 0.0
C484 C 0.82074 0.64899 0.63385 0.0
O485 O 0.81651 0.68422 0.66628 0.0
O486 O 0.83979 0.70714 0.68721 0.0
O487 O 0.87363 0.69671 0.68832 0.0
O488 O 0.85886 0.69354 0.66315 0.0
C489 C 0.82563 0.70277 0.67508 0.0
O490 O 0.83596 0.69566 0.72122 0.0
O491 O 0.8637 0.69069 0.72185 0.0
O492 O 0.84004 0.64978 0.69876 0.0
O493 O 0.8478 0.64887 0.67333 0.0
O494 O 0.80391 0.63814 0.67523 0.0
O495 O 0.80605 0.66067 0.69618 0.0
C496 C 0.87569 0.7019 0.67383 0.0
O497 O 0.83786 0.65185 0.64246 0.0
O498 O 0.80725 0.65135 0.64229 0.0
C499 C 0.84524 0.68512 0.7446 0.0
C500 C 0.8334 0.66548 0.77273 0.0
C501 C 0.84101 0.6877 0.77237 0.0
C502 C 0.84689 0.69741 0.75843 0.0
C503 C 0.83744 0.66292 0.74481 0.0
C504 C 0.83164 0.65321 0.75875 0.0
C505 C 0.8515 0.69552 0.73002 0.0
H506 H 0.82287 0.64699 0.58014 0.0
H507 H 0.81332 0.62968 0.60447 0.0
H508 H 0.8389 0.69195 0.6306 0.0
H509 H 0.84884 0.70949 0.60634 0.0
H510 H 0.84222 0.69758 0.78282 0.0
H511 H 0.8527 0.71453 0.75844 0.0
H512 H 0.83595 0.65313 0.73421 0.0
H513 H 0.82612 0.63615 0.75861 0.0
Tb514 Tb 0.34885 0.15813 0.66604 0.0
Eu515 Eu 0.33353 0.15754 0.70169 0.0
C516 C 0.37044 0.19987 0.68943 0.0
C517 C 0.37314 0.14946 0.69435 0.0
C518 C 0.35527 0.16372 0.62326 0.0
C519 C 0.3664 0.17384 0.59744 0.0
C520 C 0.37113 0.17037 0.61265 0.0
C521 C 0.33484 0.16143 0.61869 0.0
C522 C 0.33004 0.16476 0.60345 0.0
C523 C 0.34561 0.17056 0.59253 0.0
C524 C 0.35981 0.15787 0.63857 0.0
O525 O 0.33044 0.12476 0.67153 0.0
O526 O 0.30722 0.12824 0.68698 0.0
O527 O 0.31644 0.17103 0.68735 0.0
O528 O 0.31909 0.15972 0.66231 0.0
C529 C 0.31143 0.11646 0.67719 0.0
O530 O 0.32071 0.1403 0.72219 0.0
O531 O 0.32762 0.17334 0.72166 0.0
O532 O 0.36564 0.18792 0.70118 0.0
O533 O 0.36085 0.19149 0.67521 0.0
O534 O 0.37452 0.15793 0.68099 0.0
O535 O 0.35683 0.14479 0.70287 0.0
C536 C 0.31067 0.16761 0.67216 0.0
O537 O 0.37116 0.17364 0.64953 0.0
O538 O 0.34345 0.14157 0.64388 0.0
C539 C 0.33241 0.16227 0.74626 0.0
C540 C 0.35115 0.17212 0.77763 0.0
C541 C 0.32973 0.15486 0.7735 0.0
C542 C 0.32046 0.15005 0.75797 0.0
C543 C 0.35392 0.17926 0.75021 0.0
C544 C 0.36318 0.18419 0.76578 0.0
C545 C 0.32208 0.15711 0.73007 0.0
H546 H 0.37891 0.17871 0.58944 0.0
H547 H 0.38703 0.17234 0.61601 0.0
H548 H 0.32237 0.15636 0.62674 0.0
H549 H 0.31381 0.1619 0.60005 0.0
H550 H 0.32015 0.14496 0.78225 0.0
H551 H 0.30389 0.13677 0.7551 0.0
H552 H 0.36348 0.18883 0.74131 0.0
H553 H 0.37962 0.1977 0.76855 0.0
Tb554 Tb 0.85901 0.17899 0.693 0.0
Eu555 Eu 0.84288 0.18272 0.65707 0.0
C556 C 0.83767 0.13872 0.66814 0.0
C557 C 0.88944 0.18787 0.66579 0.0
C558 C 0.86339 0.17902 0.73615 0.0
C559 C 0.86415 0.17543 0.76406 0.0
C560 C 0.87132 0.17377 0.7495 0.0
C561 C 0.84822 0.186 0.73747 0.0
C562 C 0.84106 0.18771 0.75203 0.0
C563 C 0.8489 0.18239 0.76551 0.0
C564 C 0.87043 0.17645 0.72083 0.0
O565 O 0.85604 0.20768 0.69428 0.0
O566 O 0.86378 0.21623 0.66938 0.0
O567 O 0.81777 0.18251 0.67206 0.0
O568 O 0.82384 0.16594 0.69234 0.0
C569 C 0.86278 0.22184 0.68397 0.0
O570 O 0.84983 0.2014 0.63689 0.0
O571 O 0.8198 0.17073 0.63599 0.0
O572 O 0.82835 0.14736 0.65994 0.0
O573 O 0.85379 0.15029 0.67909 0.0
O574 O 0.88822 0.19344 0.68041 0.0
O575 O 0.87221 0.17888 0.65547 0.0
C576 C 0.81168 0.17217 0.68463 0.0
O577 O 0.85592 0.15996 0.71139 0.0
O578 O 0.88021 0.19385 0.71363 0.0
C579 C 0.8367 0.18063 0.61254 0.0
C580 C 0.84721 0.1717 0.58286 0.0
C581 C 0.84055 0.18707 0.58516 0.0
C582 C 0.83534 0.19146 0.59986 0.0
C583 C 0.84321 0.1652 0.61036 0.0
C584 C 0.84833 0.16071 0.59563 0.0
C585 C 0.83263 0.18655 0.62814 0.0
H586 H 0.87027 0.1709 0.77413 0.0
H587 H 0.88289 0.16818 0.74863 0.0
H588 H 0.84186 0.19004 0.72722 0.0
H589 H 0.82952 0.19336 0.75275 0.0
H590 H 0.83985 0.19612 0.5757 0.0
H591 H 0.8306 0.20361 0.6014 0.0
H592 H 0.84453 0.1568 0.62008 0.0
H593 H 0.85313 0.1486 0.59426 0.0
H594 H 0.3057 0.84158 0.0939 0.0
H595 H 0.33835 0.86844 0.08291 0.0
H596 H 0.30077 0.85556 0.03831 0.0
H597 H 0.26792 0.82903 0.0493 0.0
H598 H 0.35805 0.86214 0.05671 0.0
H599 H 0.33119 0.92188 0.04799 0.0
H600 H 0.31818 0.90037 0.06042 0.0
H601 H 0.31242 0.89478 0.0395 0.0
C602 C 0.30432 0.84464 0.0818 0.0
C603 C 0.28418 0.83324 0.0725 0.0
C604 C 0.32301 0.85987 0.07552 0.0
C605 C 0.32191 0.86414 0.05985 0.0
C606 C 0.3019 0.85271 0.05049 0.0
H607 H 0.43464 0.93618 0.00735 0.0
H608 H 0.40016 0.90829 0.01573 0.0
C609 C 0.2832 0.83742 0.05675 0.0
C610 C 0.34181 0.88038 0.05331 0.0
H611 H 0.36458 0.92928 0.03844 0.0
C612 C 0.35948 0.87679 0.05266 0.0
C613 C 0.34365 0.89954 0.04818 0.0
C614 C 0.32545 0.90456 0.04914 0.0
C615 C 0.37899 0.89189 0.04699 0.0
C616 C 0.38074 0.91095 0.04171 0.0
C617 C 0.36308 0.91454 0.04237 0.0
C618 C 0.40121 0.9279 0.03623 0.0
C619 C 0.39777 0.88763 0.04708 0.0
C620 C 0.41293 0.94829 0.04479 0.0
C621 C 0.43256 0.96424 0.04005 0.0
C622 C 0.44083 0.96018 0.02656 0.0
C623 C 0.4288 0.93984 0.01782 0.0
C624 C 0.40915 0.92384 0.02262 0.0
H625 H 0.39532 0.87444 0.05437 0.0
H626 H 0.39932 0.88282 0.03492 0.0
H627 H 0.41335 0.90243 0.05158 0.0
H628 H 0.40704 0.95175 0.05532 0.0
H629 H 0.44133 0.9797 0.04707 0.0
H630 H 0.19908 0.44767 0.05919 0.0
H631 H 0.17016 0.453 0.04717 0.0
H632 H 0.163 0.47708 0.0923 0.0
H633 H 0.19192 0.47194 0.10437 0.0
H634 H 0.12357 0.44466 0.07624 0.0
H635 H 0.17086 0.5089 0.03805 0.0
H636 H 0.17378 0.48544 0.03574 0.0
H637 H 0.18379 0.50249 0.05393 0.0
C638 C 0.19162 0.45447 0.0665 0.0
C639 C 0.19776 0.45931 0.08275 0.0
C640 C 0.17509 0.4575 0.05962 0.0
C641 C 0.16453 0.46559 0.06882 0.0
C642 C 0.17091 0.47079 0.08498 0.0
H643 H 0.05846 0.49179 0.05714 0.0
H644 H 0.08824 0.48636 0.06673 0.0
C645 C 0.18738 0.46777 0.09187 0.0
C646 C 0.14608 0.46763 0.06186 0.0
H647 H 0.13252 0.49397 0.03552 0.0
C648 C 0.12553 0.45547 0.06735 0.0
C649 C 0.14864 0.48161 0.05018 0.0
C650 C 0.17047 0.49551 0.04418 0.0
C651 C 0.10745 0.45688 0.06147 0.0
C652 C 0.11008 0.47115 0.05001 0.0
C653 C 0.13055 0.48306 0.04432 0.0
C654 C 0.09193 0.47436 0.04409 0.0
C655 C 0.08563 0.44285 0.06746 0.0
C656 C 0.0844 0.46988 0.02808 0.0
C657 C 0.06738 0.47306 0.02251 0.0
C658 C 0.05767 0.48094 0.03284 0.0
C659 C 0.06541 0.48556 0.04885 0.0
C660 C 0.08239 0.48237 0.05439 0.0
H661 H 0.08493 0.42873 0.07268 0.0
H662 H 0.08292 0.45248 0.07671 0.0
H663 H 0.07212 0.4369 0.05792 0.0
H664 H 0.09162 0.4638 0.01992 0.0
H665 H 0.06193 0.46943 0.0101 0.0
H666 H 0.59272 0.76479 0.04061 0.0
H667 H 0.58298 0.72891 0.02874 0.0
H668 H 0.55929 0.70207 0.0719 0.0
H669 H 0.56805 0.73763 0.08362 0.0
H670 H 0.59765 0.70204 0.03734 0.0
H671 H 0.50825 0.66243 0.03994 0.0
H672 H 0.52593 0.69135 0.04309 0.0
H673 H 0.5234 0.67478 0.05869 0.0
C674 C 0.58513 0.75119 0.0475 0.0
C675 C 0.58106 0.75407 0.06304 0.0
C676 C 0.57973 0.73074 0.04073 0.0
C677 C 0.57009 0.71278 0.04935 0.0
C678 C 0.56629 0.71563 0.06493 0.0
H679 H 0.56434 0.59035 0.0347 0.0
H680 H 0.57412 0.62765 0.0422 0.0
C681 C 0.5716 0.73604 0.07168 0.0
C682 C 0.56451 0.69113 0.04221 0.0
H683 H 0.52262 0.63909 0.03474 0.0
C684 C 0.58121 0.68829 0.03664 0.0
C685 C 0.54298 0.67332 0.04105 0.0
C686 C 0.52407 0.67562 0.04585 0.0
C687 C 0.5771 0.66795 0.03042 0.0
C688 C 0.55582 0.6499 0.03008 0.0
C689 C 0.53898 0.65289 0.03516 0.0
C690 C 0.55071 0.62767 0.0249 0.0
C691 C 0.59557 0.66602 0.02419 0.0
C692 C 0.534 0.61514 0.01287 0.0
C693 C 0.52817 0.59369 0.00868 0.0
C694 C 0.53894 0.58439 0.01646 0.0
C695 C 0.55586 0.59708 0.02837 0.0
C696 C 0.56157 0.61846 0.03261 0.0
H697 H 0.60845 0.68171 0.02075 0.0
H698 H 0.60317 0.66105 0.03349 0.0
H699 H 0.58964 0.65375 0.01388 0.0
H700 H 0.52533 0.6219 0.00682 0.0
H701 H 0.51507 0.58435 0.99946 0.0
H702 H 0.82062 0.25393 0.97121 0.0
H703 H 0.84898 0.28952 0.98353 0.0
H704 H 0.85256 0.31614 0.93932 0.0
H705 H 0.82381 0.28094 0.92709 0.0
H706 H 0.89131 0.31362 0.9756 0.0
H707 H 0.84774 0.35928 0.9692 0.0
H708 H 0.83379 0.33014 0.9668 0.0
H709 H 0.84755 0.34541 0.95107 0.0
C710 C 0.82716 0.26747 0.9642 0.0
C711 C 0.81997 0.2646 0.94817 0.0
C712 C 0.84346 0.28774 0.97122 0.0
C713 C 0.85269 0.30553 0.96238 0.0
C714 C 0.84539 0.30274 0.94643 0.0
H715 H 0.95905 0.43727 0.97436 0.0
H716 H 0.92884 0.40126 0.9648 0.0
C717 C 0.82913 0.28254 0.93942 0.0
C718 C 0.87072 0.32677 0.96957 0.0
H719 H 0.88638 0.38021 0.97558 0.0
C720 C 0.89017 0.32816 0.97576 0.0
C721 C 0.86919 0.3457 0.96974 0.0
C722 C 0.84837 0.34508 0.96398 0.0
C723 C 0.90839 0.34809 0.98166 0.0
C724 C 0.90698 0.36706 0.98152 0.0
C725 C 0.88743 0.36563 0.97557 0.0
C726 C 0.92569 0.38861 0.98736 0.0
C727 C 0.92921 0.3488 0.98755 0.0
C728 C 0.93386 0.39343 0.00323 0.0
C729 C 0.95113 0.41399 0.00875 0.0
C730 C 0.9605 0.43016 0.9985 0.0
C731 C 0.95229 0.42521 0.98258 0.0
C732 C 0.93499 0.40466 0.97709 0.0
H733 H 0.92915 0.33373 0.98366 0.0
H734 H 0.94361 0.36272 0.98344 0.0
H735 H 0.93106 0.3508 1.00056 0.0
H736 H 0.92667 0.38136 0.01139 0.0
H737 H 0.95696 0.41725 0.02109 0.0
H738 H 0.715 0.54394 0.92412 0.0
H739 H 0.68245 0.53948 0.93547 0.0
H740 H 0.71642 0.55503 0.98182 0.0
H741 H 0.7495 0.56079 0.97052 0.0
H742 H 0.65762 0.51175 0.9551 0.0
H743 H 0.69249 0.59533 0.98327 0.0
H744 H 0.70649 0.58803 0.96945 0.0
H745 H 0.70722 0.58234 0.98954 0.0
C746 C 0.71574 0.54683 0.93672 0.0
C747 C 0.73505 0.55299 0.94636 0.0
C748 C 0.697 0.54406 0.94321 0.0
C749 C 0.69705 0.54729 0.95949 0.0
C750 C 0.71611 0.55295 0.9692 0.0
H751 H 0.59191 0.52815 0.01676 0.0
H752 H 0.62594 0.53285 0.00754 0.0
C753 C 0.73495 0.55592 0.96271 0.0
C754 C 0.67697 0.54428 0.96622 0.0
H755 H 0.65686 0.56971 0.98901 0.0
C756 C 0.65749 0.52446 0.96249 0.0
C757 C 0.67674 0.56086 0.97587 0.0
C758 C 0.69679 0.5829 0.97966 0.0
C759 C 0.63786 0.52078 0.96814 0.0
C760 C 0.63768 0.53733 0.97775 0.0
C761 C 0.65714 0.55703 0.98169 0.0
C762 C 0.61722 0.53468 0.98337 0.0
C763 C 0.6174 0.49919 0.96385 0.0
C764 C 0.60122 0.53441 0.97284 0.0
C765 C 0.58187 0.5319 0.97805 0.0
C766 C 0.57808 0.5295 0.99392 0.0
C767 C 0.59424 0.52987 0.00446 0.0
C768 C 0.61371 0.53259 0.99924 0.0
H769 H 0.62099 0.48687 0.95869 0.0
H770 H 0.60851 0.49322 0.97433 0.0
H771 H 0.60644 0.50105 0.95513 0.0
H772 H 0.60373 0.53617 0.96056 0.0
H773 H 0.56979 0.53163 0.96959 0.0
H774 H 0.47134 0.18613 0.95218 0.0
H775 H 0.47811 0.15845 0.962 0.0
H776 H 0.43425 0.14864 0.99746 0.0
H777 H 0.42812 0.17701 0.98799 0.0
H778 H 0.46922 0.14809 0.00935 0.0
H779 H 0.43724 0.09483 0.95373 0.0
H780 H 0.45916 0.12109 0.95085 0.0
H781 H 0.43412 0.11814 0.95717 0.0
C782 C 0.46317 0.17803 0.96207 0.0
C783 C 0.44906 0.18348 0.96926 0.0
C784 C 0.46692 0.16215 0.96761 0.0
C785 C 0.45621 0.15104 0.98018 0.0
C786 C 0.44255 0.15688 0.98766 0.0
H787 H 0.45237 0.03081 0.99726 0.0
H788 H 0.44247 0.05797 0.99152 0.0
C789 C 0.43907 0.17306 0.98228 0.0
C790 C 0.45937 0.1334 0.98551 0.0
H791 H 0.45813 0.08701 0.97232 0.0
C792 C 0.4666 0.1346 1.0013 0.0
C793 C 0.45545 0.11554 0.97509 0.0
C794 C 0.44583 0.11218 0.95832 0.0
C795 C 0.47069 0.11879 0.00684 0.0
C796 C 0.46819 0.10173 0.99617 0.0
C797 C 0.46034 0.10022 0.98048 0.0
C798 C 0.47375 0.08531 1.00084 0.0
C799 C 0.4773 0.12042 0.02411 0.0
C800 C 0.4946 0.09158 0.00804 0.0
C801 C 0.50014 0.07604 0.0116 0.0
C802 C 0.48513 0.05398 0.00764 0.0
C803 C 0.46431 0.04771 1.0004 0.0
C804 C 0.45863 0.06322 0.99712 0.0
H805 H 0.4712 0.12941 0.03118 0.0
H806 H 0.47102 0.10422 0.02831 0.0
H807 H 0.49537 0.12941 0.02623 0.0
H808 H 0.50681 0.1085 0.01056 0.0
H809 H 0.51641 0.08134 0.01701 0.0
H810 H 0.72121 0.14135 0.94312 0.0
H811 H 0.68462 0.11762 0.95095 0.0
H812 H 0.6968 0.16465 0.98959 0.0
H813 H 0.73332 0.18847 0.98167 0.0
H814 H 0.6745 0.10013 0.97969 0.0
H815 H 0.63728 0.15082 0.96841 0.0
H816 H 0.66217 0.15547 0.96057 0.0
H817 H 0.66273 0.16445 0.98066 0.0
C818 C 0.71599 0.14657 0.95326 0.0
C819 C 0.7301 0.16652 0.96197 0.0
C820 C 0.69515 0.13307 0.95771 0.0
C821 C 0.68795 0.13944 0.97079 0.0
C822 C 0.70191 0.15955 0.97934 0.0
H823 H 0.58138 0.05606 0.02357 0.0
H824 H 0.61685 0.08115 0.01496 0.0
C825 C 0.72277 0.17305 0.9749 0.0
C826 C 0.66617 0.12465 0.97583 0.0
H827 H 0.61699 0.12005 0.98206 0.0
C828 C 0.6619 0.10445 0.98017 0.0
C829 C 0.6497 0.13026 0.9763 0.0
C830 C 0.65305 0.15134 0.97111 0.0
C831 C 0.64169 0.0898 0.98519 0.0
C832 C 0.62544 0.09565 0.98609 0.0
C833 C 0.62958 0.11571 0.98151 0.0
C834 C 0.60389 0.08097 0.99149 0.0
C835 C 0.63777 0.06805 0.98926 0.0
C836 C 0.58479 0.07299 0.98127 0.0
C837 C 0.56447 0.05871 0.98615 0.0
C838 C 0.56285 0.05223 1.00141 0.0
C839 C 0.58202 0.0606 0.01172 0.0
C840 C 0.60233 0.07487 0.0068 0.0
H841 H 0.64967 0.06409 0.98438 0.0
H842 H 0.63955 0.06821 0.00219 0.0
H843 H 0.621 0.05508 0.98479 0.0
H844 H 0.58564 0.07758 0.96941 0.0
H845 H 0.55008 0.05265 0.9779 0.0
H846 H 0.85353 0.56927 0.94249 0.0
H847 H 0.88006 0.55738 0.94794 0.0
H848 H 0.84493 0.52411 0.98615 0.0
H849 H 0.81831 0.53579 0.98059 0.0
H850 H 0.90672 0.56696 0.9758 0.0
H851 H 0.85349 0.4784 0.96224 0.0
H852 H 0.84566 0.49739 0.95594 0.0
H853 H 0.84302 0.49018 0.97574 0.0
C854 C 0.85147 0.5593 0.95198 0.0
C855 C 0.83413 0.55367 0.96128 0.0
C856 C 0.86658 0.55252 0.95507 0.0
C857 C 0.86439 0.53972 0.96737 0.0
C858 C 0.84676 0.53368 0.97644 0.0
H859 H 0.93917 0.49213 0.0153 0.0
H860 H 0.91228 0.50142 0.00542 0.0
C861 C 0.83166 0.54047 0.97335 0.0
C862 C 0.8812 0.5337 0.97129 0.0
H863 H 0.88835 0.49063 0.97614 0.0
C864 C 0.90278 0.55027 0.97571 0.0
C865 C 0.876 0.51192 0.97119 0.0
C866 C 0.85333 0.49343 0.96588 0.0
C867 C 0.91915 0.54568 0.98057 0.0
C868 C 0.91387 0.52389 0.98073 0.0
C869 C 0.89237 0.50731 0.97604 0.0
C870 C 0.93021 0.51798 0.98634 0.0
C871 C 0.94176 0.56419 0.98605 0.0
C872 C 0.94914 0.52394 0.97876 0.0
C873 C 0.96466 0.51872 0.98442 0.0
C874 C 0.96146 0.50729 0.99772 0.0
C875 C 0.94226 0.50099 0.00507 0.0
C876 C 0.9268 0.50626 0.99942 0.0
H877 H 0.94183 0.57957 0.98868 0.0
H878 H 0.94864 0.56073 0.99671 0.0
H879 H 0.95265 0.5665 0.97669 0.0
H880 H 0.95189 0.53261 0.96844 0.0
H881 H 0.97915 0.52364 0.97837 0.0
H882 H 0.44026 0.2746 0.01131 0.0
H883 H 0.45098 0.3128 0.01626 0.0
H884 H 0.44305 0.31631 0.9665 0.0
H885 H 0.4318 0.27801 0.96159 0.0
H886 H 0.48571 0.34758 0.00648 0.0
H887 H 0.40925 0.34354 0.98305 0.0
H888 H 0.41054 0.31975 0.987 0.0
H889 H 0.41948 0.33203 0.96916 0.0
C890 C 0.4405 0.28351 1.00148 0.0
C891 C 0.43494 0.27342 0.98609 0.0
C892 C 0.44667 0.30528 0.0043 0.0
C893 C 0.44741 0.31729 0.99177 0.0
C894 C 0.44201 0.30722 0.97637 0.0
H895 H 0.49563 0.45102 0.97871 0.0
H896 H 0.48178 0.41211 0.97616 0.0
C897 C 0.43572 0.28544 0.97357 0.0
C898 C 0.45495 0.34063 0.99471 0.0
H899 H 0.44096 0.37874 0.98757 0.0
C900 C 0.47584 0.35437 0.0025 0.0
C901 C 0.44202 0.34943 0.98951 0.0
C902 C 0.41899 0.33539 0.98186 0.0
C903 C 0.48441 0.37677 0.00483 0.0
C904 C 0.47168 0.38558 0.9993 0.0
C905 C 0.45069 0.37186 0.99171 0.0
C906 C 0.48005 0.40909 1.00101 0.0
C907 C 0.50723 0.39096 0.01279 0.0
C908 C 0.48347 0.42015 0.01584 0.0
C909 C 0.49132 0.44237 0.01736 0.0
C910 C 0.49589 0.45389 0.00405 0.0
C911 C 0.49236 0.44268 0.9892 0.0
C912 C 0.48441 0.42045 0.9877 0.0
H913 H 0.51629 0.38209 0.01389 0.0
H914 H 0.51659 0.40513 0.00619 0.0
H915 H 0.50635 0.39709 0.02473 0.0
H916 H 0.47996 0.41156 0.02622 0.0
H917 H 0.49382 0.45051 0.02896 0.0
H918 H 0.19764 0.72903 0.03647 0.0
H919 H 0.17 0.69045 0.03249 0.0
H920 H 0.13765 0.69887 0.07101 0.0
H921 H 0.16522 0.73747 0.07494 0.0
H922 H 0.15821 0.6588 0.05439 0.0
H923 H 0.08872 0.66969 0.03423 0.0
H924 H 0.11683 0.69094 0.03477 0.0
H925 H 0.10374 0.68462 0.05255 0.0
C926 C 0.1845 0.7226 0.04398 0.0
C927 C 0.18315 0.7362 0.05574 0.0
C928 C 0.16882 0.70063 0.04175 0.0
C929 C 0.15158 0.69192 0.05127 0.0
C930 C 0.15055 0.70538 0.06332 0.0
H931 H 0.03832 0.56214 0.04832 0.0
H932 H 0.06597 0.60005 0.05582 0.0
C933 C 0.16627 0.72735 0.06557 0.0
C934 C 0.1348 0.66871 0.04865 0.0
H935 H 0.08069 0.63407 0.03731 0.0
C936 C 0.14125 0.65336 0.05066 0.0
C937 C 0.11268 0.66171 0.04388 0.0
C938 C 0.10501 0.67755 0.04109 0.0
C939 C 0.12614 0.63113 0.04806 0.0
C940 C 0.1041 0.62413 0.04299 0.0
C941 C 0.09759 0.63949 0.04121 0.0
C942 C 0.08771 0.60098 0.03884 0.0
C943 C 0.13388 0.61537 0.05093 0.0
C944 C 0.09068 0.58901 0.02671 0.0
C945 C 0.07497 0.56739 0.02242 0.0
C946 C 0.05584 0.55731 0.03008 0.0
C947 C 0.05286 0.56937 0.0422 0.0
C948 C 0.06864 0.59103 0.0465 0.0
H949 H 0.14911 0.6229 0.05905 0.0
H950 H 0.12123 0.6009 0.05588 0.0
H951 H 0.13741 0.61 0.03964 0.0
H952 H 0.10502 0.5965 0.02039 0.0
H953 H 0.07776 0.55867 0.01297 0.0
H954 H 0.29926 0.48687 0.06894 0.0
H955 H 0.33592 0.49953 0.06081 0.0
H956 H 0.32396 0.43423 0.0578 0.0
H957 H 0.28761 0.42167 0.06638 0.0
H958 H 0.36437 0.46247 0.07181 0.0
H959 H 0.34981 0.49216 0.01675 0.0
H960 H 0.34548 0.50436 0.03397 0.0
H961 H 0.32806 0.47589 0.02833 0.0
C962 C 0.30461 0.4753 0.06675 0.0
C963 C 0.29077 0.45335 0.06862 0.0
C964 C 0.32545 0.48249 0.06193 0.0
C965 C 0.33263 0.46779 0.05849 0.0
C966 C 0.31883 0.44589 0.0604 0.0
H967 H 0.43798 0.48577 0.00359 0.0
H968 H 0.40307 0.47587 0.01371 0.0
C969 C 0.29808 0.43873 0.06533 0.0
C970 C 0.35445 0.47508 0.05286 0.0
H971 H 0.38597 0.49986 0.02363 0.0
C972 C 0.3691 0.47065 0.06128 0.0
C973 C 0.36051 0.48548 0.03898 0.0
C974 C 0.34508 0.48958 0.02889 0.0
C975 C 0.38962 0.47636 0.05624 0.0
C976 C 0.39592 0.48729 0.04259 0.0
C977 C 0.38124 0.49167 0.03416 0.0
C978 C 0.41732 0.49364 0.03653 0.0
C979 C 0.40405 0.47002 0.06535 0.0
C980 C 0.43703 0.5072 0.04589 0.0
C981 C 0.45705 0.51274 0.04018 0.0
C982 C 0.45781 0.50512 0.02488 0.0
C983 C 0.43805 0.49195 0.01541 0.0
C984 C 0.41805 0.48628 0.02119 0.0
H985 H 0.39455 0.45671 0.07262 0.0
H986 H 0.41273 0.46484 0.05738 0.0
H987 H 0.41643 0.48413 0.07334 0.0
H988 H 0.43696 0.51356 0.05761 0.0
H989 H 0.47193 0.52305 0.04776 0.0
H990 H 0.5693 0.83069 0.02553 0.0
H991 H 0.55465 0.85401 0.01835 0.0
H992 H 0.59384 0.89985 0.05794 0.0
H993 H 0.60856 0.87663 0.06506 0.0
H994 H 0.53157 0.86758 0.03722 0.0
H995 H 0.60736 0.93719 0.0208 0.0
H996 H 0.6044 0.91087 0.02227 0.0
H997 H 0.61019 0.92877 0.03966 0.0
C998 C 0.575 0.84594 0.03249 0.0
C999 C 0.59042 0.85222 0.04558 0.0
C1000 C 0.5666 0.85915 0.02845 0.0
C1001 C 0.57348 0.8788 0.03746 0.0
C1002 C 0.58873 0.88499 0.05063 0.0
H1003 H 0.51324 0.95723 0.04541 0.0
H1004 H 0.52688 0.93233 0.04902 0.0
C1005 C 0.5971 0.87176 0.05469 0.0
C1006 C 0.56399 0.8924 0.03353 0.0
H1007 H 0.57728 0.94267 0.02384 0.0
C1008 C 0.5415 0.88395 0.03419 0.0
C1009 C 0.57699 0.91364 0.02942 0.0
C1010 C 0.60105 0.92314 0.02784 0.0
C1011 C 0.53175 0.89643 0.03127 0.0
C1012 C 0.54492 0.91795 0.02777 0.0
C1013 C 0.56729 0.9262 0.02667 0.0
C1014 C 0.53587 0.93232 0.02538 0.0
C1015 C 0.50745 0.88649 0.03187 0.0
C1016 C 0.53666 0.94073 0.01094 0.0
C1017 C 0.52894 0.95499 0.00883 0.0
C1018 C 0.52046 0.96126 0.0212 0.0
C1019 C 0.51961 0.95271 0.03564 0.0
C1020 C 0.52729 0.93839 0.03771 0.0
H1021 H 0.49901 0.86856 0.03079 0.0
H1022 H 0.50432 0.89199 0.04327 0.0
H1023 H 0.50023 0.89159 0.02238 0.0
H1024 H 0.54333 0.93629 1.00131 0.0
H1025 H 0.52988 0.9613 0.99757 0.0
H1026 H 0.95523 0.13979 0.39065 0.0
H1027 H 0.98821 0.16686 0.38014 0.0
H1028 H 0.98058 0.21765 0.40264 0.0
H1029 H 0.94722 0.19074 0.41284 0.0
H1030 H 0.99259 0.20235 0.3609 0.0
H1031 H 0.04411 0.23056 0.41806 0.0
H1032 H 0.01938 0.20458 0.4145 0.0
H1033 H 0.01786 0.22869 0.41784 0.0
C1034 C 0.96037 0.15669 0.39322 0.0
C1035 C 0.94855 0.16305 0.40265 0.0
C1036 C 0.97929 0.17213 0.38727 0.0
C1037 C 0.98688 0.1942 0.39074 0.0
C1038 C 0.9751 0.20066 0.4 0.0
H1039 H 0.10204 0.31251 0.37422 0.0
H1040 H 0.06742 0.28476 0.38217 0.0
C1041 C 0.9561 0.18525 0.40588 0.0
C1042 C 0.00721 0.21052 0.38476 0.0
H1043 H 0.05976 0.24976 0.39652 0.0
C1044 C 0.00734 0.21271 0.36863 0.0
C1045 C 0.02632 0.22397 0.39493 0.0
C1046 C 0.02712 0.22184 0.4123 0.0
C1047 C 0.02602 0.2284 0.36242 0.0
C1048 C 0.04522 0.24185 0.37259 0.0
C1049 C 0.04505 0.23948 0.38872 0.0
C1050 C 0.06562 0.25873 0.3669 0.0
C1051 C 0.02481 0.23082 0.34511 0.0
C1052 C 0.07616 0.25338 0.35562 0.0
C1053 C 0.09594 0.2693 0.35092 0.0
C1054 C 0.1057 0.29081 0.3576 0.0
C1055 C 0.09503 0.29611 0.36884 0.0
C1056 C 0.07521 0.28025 0.37342 0.0
H1057 H 0.00766 0.2238 0.33992 0.0
H1058 H 0.03409 0.24807 0.34287 0.0
H1059 H 0.03198 0.22215 0.339 0.0
H1060 H 0.06937 0.2368 0.35069 0.0
H1061 H 0.10383 0.26464 0.34235 0.0
H1062 H 0.83365 0.75722 0.41857 0.0
H1063 H 0.80488 0.76244 0.40623 0.0
H1064 H 0.85337 0.82561 0.39536 0.0
H1065 H 0.88231 0.82059 0.40787 0.0
H1066 H 0.81708 0.82368 0.41053 0.0
H1067 H 0.79012 0.76315 0.35867 0.0
H1068 H 0.79211 0.75341 0.37717 0.0
H1069 H 0.81635 0.77391 0.36989 0.0
C1070 C 0.8382 0.77222 0.41353 0.0
C1071 C 0.86025 0.78853 0.41422 0.0
C1072 C 0.82176 0.7751 0.40637 0.0
C1073 C 0.82702 0.79432 0.39976 0.0
C1074 C 0.849 0.8106 0.40033 0.0
H1075 H 0.73884 0.82023 0.34263 0.0
H1076 H 0.76893 0.81557 0.35288 0.0
C1077 C 0.8655 0.80767 0.40739 0.0
C1078 C 0.80944 0.79773 0.39288 0.0
H1079 H 0.76758 0.77817 0.36366 0.0
C1080 C 0.80631 0.81382 0.40024 0.0
C1081 C 0.79555 0.78494 0.37939 0.0
C1082 C 0.79873 0.76798 0.3707 0.0
C1083 C 0.78932 0.81715 0.39466 0.0
C1084 C 0.77499 0.8039 0.38146 0.0
C1085 C 0.77845 0.78815 0.37387 0.0
C1086 C 0.75645 0.80632 0.37525 0.0
C1087 C 0.78695 0.83494 0.40286 0.0
C1088 C 0.73926 0.80233 0.38435 0.0
C1089 C 0.72196 0.80493 0.37852 0.0
C1090 C 0.72152 0.81155 0.36346 0.0
C1091 C 0.73864 0.81519 0.3543 0.0
C1092 C 0.75587 0.81252 0.36012 0.0
H1093 H 0.80208 0.84677 0.41033 0.0
H1094 H 0.78287 0.84366 0.39423 0.0
H1095 H 0.77347 0.82779 0.41049 0.0
H1096 H 0.73921 0.79718 0.39596 0.0
H1097 H 0.70906 0.80192 0.3859 0.0
H1098 H 0.25765 0.09318 0.37919 0.0
H1099 H 0.24717 0.05662 0.36832 0.0
H1100 H 0.22385 0.03243 0.41224 0.0
H1101 H 0.2335 0.06868 0.42299 0.0
H1102 H 0.26133 0.02924 0.37872 0.0
H1103 H 0.17195 0.99252 0.38054 0.0
H1104 H 0.19032 0.02137 0.38272 0.0
H1105 H 0.18733 0.00585 0.39907 0.0
C1106 C 0.25005 0.08003 0.38647 0.0
C1107 C 0.24634 0.08383 0.40194 0.0
C1108 C 0.2442 0.05919 0.38027 0.0
C1109 C 0.23443 0.04179 0.3894 0.0
C1110 C 0.23099 0.04557 0.4049 0.0
H1111 H 0.19304 0.90657 0.38126 0.0
H1112 H 0.20332 0.94386 0.38948 0.0
C1113 C 0.23678 0.06636 0.41109 0.0
C1114 C 0.22825 0.01971 0.38287 0.0
H1115 H 0.18518 0.96816 0.37597 0.0
C1116 C 0.24466 0.0159 0.37797 0.0
C1117 C 0.20646 0.0024 0.38188 0.0
C1118 C 0.18796 0.00573 0.38618 0.0
C1119 C 0.23997 0.99505 0.37257 0.0
C1120 C 0.21828 0.97768 0.37192 0.0
C1121 C 0.20181 0.98154 0.37657 0.0
C1122 C 0.21238 0.95524 0.36681 0.0
C1123 C 0.25832 0.99161 0.36804 0.0
C1124 C 0.21392 0.94931 0.35129 0.0
C1125 C 0.20802 0.92797 0.34652 0.0
C1126 C 0.20045 0.91223 0.3572 0.0
C1127 C 0.19887 0.91828 0.37273 0.0
C1128 C 0.2047 0.93957 0.37746 0.0
H1129 H 0.27461 0.00577 0.37215 0.0
H1130 H 0.25708 0.9771 0.37295 0.0
H1131 H 0.25718 0.98892 0.35508 0.0
H1132 H 0.21952 0.96113 0.34284 0.0
H1133 H 0.20938 0.92385 0.33446 0.0
H1134 H 0.48923 0.5813 0.3056 0.0
H1135 H 0.51752 0.61654 0.31847 0.0
H1136 H 0.52038 0.64509 0.27521 0.0
H1137 H 0.49167 0.61023 0.26243 0.0
H1138 H 0.55988 0.64242 0.31094 0.0
H1139 H 0.51328 0.68536 0.30665 0.0
H1140 H 0.50037 0.65632 0.30348 0.0
H1141 H 0.51375 0.67273 0.28813 0.0
C1142 C 0.49565 0.59516 0.2989 0.0
C1143 C 0.48816 0.59296 0.28299 0.0
C1144 C 0.51191 0.61523 0.30623 0.0
C1145 C 0.52084 0.63347 0.29784 0.0
C1146 C 0.51344 0.63131 0.28198 0.0
H1147 H 0.64298 0.75421 0.31717 0.0
H1148 H 0.61381 0.71749 0.30805 0.0
C1149 C 0.49721 0.6113 0.27465 0.0
C1150 C 0.53834 0.65469 0.30549 0.0
H1151 H 0.55177 0.70729 0.31321 0.0
C1152 C 0.55808 0.65659 0.31157 0.0
C1153 C 0.53583 0.67307 0.30648 0.0
C1154 C 0.51459 0.67178 0.30098 0.0
C1155 C 0.57563 0.67655 0.3182 0.0
C1156 C 0.57346 0.69513 0.3185 0.0
C1157 C 0.5535 0.69308 0.31282 0.0
C1158 C 0.59166 0.71692 0.32457 0.0
C1159 C 0.59622 0.67749 0.32495 0.0
C1160 C 0.5888 0.72894 0.33671 0.0
C1161 C 0.60534 0.75 0.34184 0.0
C1162 C 0.62509 0.75949 0.33489 0.0
C1163 C 0.62804 0.74732 0.32285 0.0
C1164 C 0.61142 0.72627 0.31768 0.0
H1165 H 0.59308 0.66139 0.32794 0.0
H1166 H 0.60824 0.68289 0.31613 0.0
H1167 H 0.60362 0.6891 0.33564 0.0
H1168 H 0.57365 0.72208 0.34215 0.0
H1169 H 0.60251 0.7589 0.35114 0.0
H1170 H 0.38844 0.85461 0.28394 0.0
H1171 H 0.35518 0.84935 0.29483 0.0
H1172 H 0.37364 0.91529 0.28848 0.0
H1173 H 0.4066 0.92042 0.27721 0.0
H1174 H 0.34824 0.86794 0.31994 0.0
H1175 H 0.31293 0.88393 0.26664 0.0
H1176 H 0.33642 0.88049 0.26663 0.0
H1177 H 0.33945 0.90603 0.27377 0.0
C1178 C 0.3854 0.86798 0.2849 0.0
C1179 C 0.40001 0.88786 0.27958 0.0
C1180 C 0.36639 0.86496 0.29111 0.0
C1181 C 0.36164 0.88178 0.29219 0.0
C1182 C 0.37657 0.90186 0.28733 0.0
H1183 H 0.26187 0.88108 0.34828 0.0
H1184 H 0.29637 0.88779 0.3388 0.0
C1185 C 0.39545 0.90481 0.28095 0.0
C1186 C 0.3411 0.87827 0.29844 0.0
H1187 H 0.29517 0.88125 0.28968 0.0
C1188 C 0.3366 0.87079 0.3133 0.0
C1189 C 0.32573 0.88168 0.2897 0.0
C1190 C 0.32873 0.88826 0.27324 0.0
C1191 C 0.31727 0.86676 0.31969 0.0
C1192 C 0.30227 0.8709 0.31118 0.0
C1193 C 0.30674 0.87829 0.2963 0.0
C1194 C 0.28142 0.86693 0.31715 0.0
C1195 C 0.31288 0.85751 0.33529 0.0
C1196 C 0.26153 0.85352 0.30796 0.0
C1197 C 0.24185 0.85 0.31321 0.0
C1198 C 0.24157 0.85972 0.32783 0.0
C1199 C 0.26149 0.87317 0.33704 0.0
C1200 C 0.28123 0.87691 0.33167 0.0
H1201 H 0.32247 0.8495 0.33797 0.0
H1202 H 0.31769 0.87077 0.3447 0.0
H1203 H 0.29529 0.84558 0.33555 0.0
H1204 H 0.2612 0.84567 0.2967 0.0
H1205 H 0.22684 0.83951 0.30581 0.0
H1206 H 0.1266 0.5084 0.27721 0.0
H1207 H 0.13444 0.48123 0.28659 0.0
H1208 H 0.10656 0.48315 0.32954 0.0
H1209 H 0.09797 0.50985 0.32002 0.0
H1210 H 0.16034 0.48449 0.31335 0.0
H1211 H 0.07454 0.41852 0.31422 0.0
H1212 H 0.08167 0.44223 0.30417 0.0
H1213 H 0.08133 0.44358 0.3251 0.0
C1214 C 0.12186 0.50284 0.28856 0.0
C1215 C 0.11148 0.51114 0.29781 0.0
C1216 C 0.1265 0.48744 0.29395 0.0
C1217 C 0.12082 0.47999 0.30865 0.0
C1218 C 0.11074 0.48843 0.31804 0.0
H1219 H 0.17017 0.40709 0.35718 0.0
H1220 H 0.1612 0.43443 0.34996 0.0
C1221 C 0.10606 0.50384 0.31265 0.0
C1222 C 0.1258 0.46362 0.31418 0.0
H1223 H 0.10223 0.41205 0.32445 0.0
C1224 C 0.14766 0.46866 0.31582 0.0
C1225 C 0.10916 0.44293 0.3172 0.0
C1226 C 0.08533 0.43634 0.31497 0.0
C1227 C 0.15337 0.45354 0.32042 0.0
C1228 C 0.13678 0.43297 0.3237 0.0
C1229 C 0.11491 0.42791 0.32204 0.0
C1230 C 0.14173 0.41622 0.32836 0.0
C1231 C 0.17705 0.4595 0.32133 0.0
C1232 C 0.13326 0.3967 0.31881 0.0
C1233 C 0.13823 0.38098 0.32293 0.0
C1234 C 0.1517 0.38447 0.33674 0.0
C1235 C 0.15987 0.40393 0.34641 0.0
C1236 C 0.15485 0.41963 0.34228 0.0
H1237 H 0.18689 0.47372 0.31489 0.0
H1238 H 0.18398 0.4636 0.33378 0.0
H1239 H 0.17871 0.44577 0.31646 0.0
H1240 H 0.12305 0.39376 0.30803 0.0
H1241 H 0.13166 0.36619 0.31521 0.0
H1242 H 0.38044 0.48524 0.27305 0.0
H1243 H 0.34426 0.46259 0.2819 0.0
H1244 H 0.37311 0.47847 0.32987 0.0
H1245 H 0.40915 0.50148 0.32107 0.0
H1246 H 0.33061 0.42698 0.29793 0.0
H1247 H 0.32294 0.49004 0.33274 0.0
H1248 H 0.3434 0.49649 0.31923 0.0
H1249 H 0.34734 0.48942 0.33842 0.0
C1250 C 0.37893 0.48405 0.28548 0.0
C1251 C 0.39746 0.49526 0.2964 0.0
C1252 C 0.35833 0.47111 0.29052 0.0
C1253 C 0.35593 0.46914 0.30656 0.0
C1254 C 0.37448 0.48019 0.31747 0.0
H1255 H 0.24632 0.38968 0.35854 0.0
H1256 H 0.28238 0.41447 0.35053 0.0
C1257 C 0.39507 0.49321 0.31244 0.0
C1258 C 0.33415 0.45473 0.31179 0.0
H1259 H 0.29626 0.45353 0.33515 0.0
C1260 C 0.32305 0.43281 0.306 0.0
C1261 C 0.32434 0.46236 0.32237 0.0
C1262 C 0.335 0.4859 0.32845 0.0
C1263 C 0.30255 0.41826 0.31064 0.0
C1264 C 0.29277 0.42589 0.32121 0.0
C1265 C 0.30386 0.44776 0.32707 0.0
C1266 C 0.27087 0.4114 0.32612 0.0
C1267 C 0.29166 0.39476 0.3044 0.0
C1268 C 0.25245 0.40179 0.31509 0.0
C1269 C 0.23185 0.38767 0.31961 0.0
C1270 C 0.22926 0.38291 0.33528 0.0
C1271 C 0.24773 0.39291 0.34637 0.0
C1272 C 0.26834 0.4071 0.34183 0.0
H1273 H 0.30341 0.39063 0.29946 0.0
H1274 H 0.28391 0.38415 0.31376 0.0
H1275 H 0.2787 0.39125 0.29492 0.0
H1276 H 0.25402 0.40519 0.30296 0.0
H1277 H 0.218 0.38035 0.31075 0.0
H1278 H 0.49653 0.88753 0.31913 0.0
H1279 H 0.5227 0.87528 0.3244 0.0
H1280 H 0.52874 0.86977 0.27488 0.0
H1281 H 0.50286 0.88252 0.26961 0.0
H1282 H 0.52147 0.83742 0.31436 0.0
H1283 H 0.59202 0.90787 0.29307 0.0
H1284 H 0.56704 0.90756 0.29652 0.0
H1285 H 0.56844 0.89349 0.27902 0.0
C1286 C 0.50338 0.8836 0.30937 0.0
C1287 C 0.49766 0.88587 0.29395 0.0
C1288 C 0.51831 0.87662 0.31239 0.0
C1289 C 0.52793 0.87191 0.30006 0.0
C1290 C 0.52187 0.87372 0.2846 0.0
H1291 H 0.62727 0.83276 0.30444 0.0
H1292 H 0.599 0.84065 0.29487 0.0
C1293 C 0.50698 0.8808 0.28159 0.0
C1294 C 0.54432 0.86519 0.30353 0.0
H1295 H 0.59791 0.88021 0.30137 0.0
C1296 C 0.53816 0.84675 0.31147 0.0
C1297 C 0.56609 0.87734 0.29971 0.0
C1298 C 0.57392 0.89777 0.29173 0.0
C1299 C 0.55322 0.84023 0.31582 0.0
C1300 C 0.57507 0.85262 0.31231 0.0
C1301 C 0.58112 0.87074 0.30401 0.0
C1302 C 0.59214 0.84776 0.31798 0.0
C1303 C 0.54563 0.82012 0.32418 0.0
C1304 C 0.59787 0.8495 0.33412 0.0
C1305 C 0.61403 0.84512 0.33962 0.0
C1306 C 0.62486 0.83892 0.32909 0.0
C1307 C 0.61922 0.8374 0.31288 0.0
C1308 C 0.60308 0.84191 0.30738 0.0
H1309 H 0.52761 0.80947 0.32231 0.0
H1310 H 0.55341 0.81082 0.32015 0.0
H1311 H 0.55031 0.82482 0.33696 0.0
H1312 H 0.5899 0.85437 0.34249 0.0
H1313 H 0.61793 0.84653 0.35216 0.0
H1314 H 0.08042 0.60125 0.29657 0.0
H1315 H 0.0924 0.63992 0.29994 0.0
H1316 H 0.13449 0.64802 0.34116 0.0
H1317 H 0.12256 0.60938 0.3378 0.0
H1318 H 0.09094 0.66537 0.32722 0.0
H1319 H 0.17503 0.69209 0.31172 0.0
H1320 H 0.15276 0.66472 0.30703 0.0
H1321 H 0.16597 0.67381 0.32666 0.0
C1322 C 0.09198 0.61129 0.30646 0.0
C1323 C 0.10031 0.60241 0.31711 0.0
C1324 C 0.09884 0.6333 0.30834 0.0
C1325 C 0.11442 0.64677 0.32072 0.0
C1326 C 0.1226 0.63788 0.33145 0.0
H1327 H 0.18303 0.78276 0.35178 0.0
H1328 H 0.16909 0.74397 0.34757 0.0
C1329 C 0.11569 0.61587 0.32961 0.0
C1330 C 0.12236 0.6702 0.32231 0.0
H1331 H 0.16792 0.71941 0.32119 0.0
C1332 C 0.10772 0.67723 0.32583 0.0
C1333 C 0.14426 0.68552 0.32047 0.0
C1334 C 0.16043 0.67874 0.31613 0.0
C1335 C 0.11459 0.69933 0.32799 0.0
C1336 C 0.13655 0.71468 0.32622 0.0
C1337 C 0.15111 0.70759 0.32254 0.0
C1338 C 0.14493 0.73821 0.32851 0.0
C1339 C 0.09846 0.70603 0.33261 0.0
C1340 C 0.1362 0.74789 0.319 0.0
C1341 C 0.14408 0.7701 0.3214 0.0
C1342 C 0.16099 0.78302 0.33327 0.0
C1343 C 0.16999 0.7733 0.34254 0.0
C1344 C 0.16204 0.75112 0.34017 0.0
H1345 H 0.08415 0.69271 0.33731 0.0
H1346 H 0.10627 0.72021 0.34157 0.0
H1347 H 0.0924 0.71059 0.32213 0.0
H1348 H 0.12331 0.73828 0.30971 0.0
H1349 H 0.13688 0.77709 0.31398 0.0
H1350 H 0.84681 0.0681 0.35873 0.0
H1351 H 0.81893 0.02992 0.3525 0.0
H1352 H 0.81516 0.02222 0.40188 0.0
H1353 H 0.84268 0.06054 0.40812 0.0
H1354 H 0.81917 0.99336 0.3601 0.0
H1355 H 0.7516 0.998 0.3859 0.0
H1356 H 0.77668 0.02175 0.38247 0.0
H1357 H 0.77554 0.00777 0.39943 0.0
C1358 C 0.83998 0.05822 0.36823 0.0
C1359 C 0.84684 0.06716 0.3839 0.0
C1360 C 0.82409 0.03646 0.36467 0.0
C1361 C 0.81472 0.02331 0.37672 0.0
C1362 C 0.82181 0.03217 0.39239 0.0
H1363 H 0.72166 0.88823 0.38127 0.0
H1364 H 0.74929 0.92646 0.38653 0.0
C1365 C 0.83762 0.05396 0.39595 0.0
C1366 C 0.79777 1.00025 0.37289 0.0
H1367 H 0.74536 0.96281 0.37832 0.0
C1368 C 0.80299 0.9867 0.36399 0.0
C1369 C 0.77664 0.99161 0.37795 0.0
C1370 C 0.76966 0.00556 0.38683 0.0
C1371 C 0.7878 0.96462 0.36033 0.0
C1372 C 0.7668 0.95597 0.36556 0.0
C1373 C 0.76152 0.96952 0.37437 0.0
C1374 C 0.75011 0.9328 0.36219 0.0
C1375 C 0.79449 0.9506 0.35122 0.0
C1376 C 0.74126 0.92378 0.34676 0.0
C1377 C 0.72539 0.90192 0.34369 0.0
C1378 C 0.71809 0.88871 0.35602 0.0
C1379 C 0.72693 0.89789 0.37148 0.0
C1380 C 0.74271 0.91975 0.37453 0.0
H1381 H 0.81247 0.95867 0.35097 0.0
H1382 H 0.78875 0.93502 0.35633 0.0
H1383 H 0.78689 0.947 0.33895 0.0
H1384 H 0.74653 0.9337 0.3371 0.0
H1385 H 0.7189 0.89539 0.33166 0.0
H1386 H 0.96711 0.7763 0.42233 0.0
H1387 H 1.0038 0.78915 0.41408 0.0
H1388 H 0.98679 0.81234 0.37341 0.0
H1389 H 0.95022 0.79972 0.38176 0.0
H1390 H 0.01326 0.77537 0.38618 0.0
H1391 H 0.04597 0.86387 0.39066 0.0
H1392 H 0.02215 0.84567 0.39984 0.0
H1393 H 0.02001 0.84827 0.37921 0.0
C1394 C 0.97134 0.78431 0.41171 0.0
C1395 C 0.95582 0.78678 0.40255 0.0
C1396 C 0.99224 0.79164 0.40701 0.0
C1397 C 0.99811 0.80184 0.39318 0.0
C1398 C 0.98278 0.80483 0.38424 0.0
H1399 H 0.11091 0.8459 0.33993 0.0
H1400 H 0.0759 0.83676 0.34973 0.0
C1401 C 0.96187 0.7975 0.38895 0.0
C1402 C 0.01977 0.80814 0.38764 0.0
H1403 H 0.06667 0.85098 0.37779 0.0
C1404 C 0.025 0.79193 0.38445 0.0
C1405 C 0.03501 0.82972 0.38528 0.0
C1406 C 0.03065 0.84794 0.38905 0.0
C1407 C 0.04488 0.79662 0.37871 0.0
C1408 C 0.06017 0.81821 0.37639 0.0
C1409 C 0.05494 0.83444 0.37957 0.0
C1410 C 0.08167 0.82423 0.37068 0.0
C1411 C 0.0491 0.77832 0.37482 0.0
C1412 C 0.09671 0.82058 0.37933 0.0
C1413 C 0.11669 0.8257 0.37374 0.0
C1414 C 0.12215 0.83476 0.35942 0.0
C1415 C 0.10724 0.83886 0.35096 0.0
C1416 C 0.08722 0.83368 0.35655 0.0
H1417 H 0.03373 0.76243 0.37326 0.0
H1418 H 0.05745 0.78054 0.36397 0.0
H1419 H 0.0598 0.77791 0.38458 0.0
H1420 H 0.09301 0.81377 0.39043 0.0
H1421 H 0.12785 0.82256 0.38069 0.0
H1422 H 0.25561 0.19374 0.40845 0.0
H1423 H 0.2408 0.21713 0.40205 0.0
H1424 H 0.23662 0.19819 0.35278 0.0
H1425 H 0.25085 0.17434 0.3592 0.0
H1426 H 0.25648 0.25152 0.38478 0.0
H1427 H 0.17536 0.18661 0.35747 0.0
H1428 H 0.19396 0.18103 0.36869 0.0
H1429 H 0.19786 0.18699 0.34868 0.0
C1430 C 0.25147 0.19461 0.39627 0.0
C1431 C 0.2542 0.18224 0.38431 0.0
C1432 C 0.24305 0.20792 0.39262 0.0
C1433 C 0.23724 0.20908 0.37696 0.0
C1434 C 0.24048 0.19711 0.36496 0.0
H1435 H 0.19077 0.2864 0.33285 0.0
H1436 H 0.20482 0.26228 0.33853 0.0
C1437 C 0.24876 0.18367 0.36862 0.0
C1438 C 0.22813 0.2231 0.37322 0.0
H1439 H 0.1837 0.22274 0.35528 0.0
C1440 C 0.24053 0.24521 0.37839 0.0
C1441 C 0.20729 0.2148 0.3649 0.0
C1442 C 0.19273 0.19103 0.35973 0.0
C1443 C 0.23277 0.25931 0.37529 0.0
C1444 C 0.21202 0.25102 0.36691 0.0
C1445 C 0.19963 0.22897 0.36168 0.0
C1446 C 0.20291 0.26506 0.36352 0.0
C1447 C 0.2469 0.28302 0.38079 0.0
C1448 C 0.19686 0.27424 0.3757 0.0
C1449 C 0.18874 0.28795 0.37251 0.0
C1450 C 0.18659 0.29272 0.35707 0.0
C1451 C 0.19232 0.28315 0.34487 0.0
C1452 C 0.20032 0.26935 0.34807 0.0
H1453 H 0.26403 0.28747 0.38438 0.0
H1454 H 0.24687 0.29304 0.37141 0.0
H1455 H 0.24023 0.287 0.39102 0.0
H1456 H 0.19852 0.27087 0.38767 0.0
H1457 H 0.18444 0.29501 0.38218 0.0
H1458 H 0.61541 0.52593 0.7462 0.0
H1459 H 0.64874 0.55256 0.73579 0.0
H1460 H 0.65555 0.50129 0.71324 0.0
H1461 H 0.62267 0.47451 0.72398 0.0
H1462 H 0.69226 0.55488 0.74064 0.0
H1463 H 0.65899 0.54202 0.67816 0.0
H1464 H 0.64173 0.53482 0.69402 0.0
H1465 H 0.65298 0.51839 0.68791 0.0
C1466 C 0.62407 0.52027 0.73915 0.0
C1467 C 0.6163 0.49803 0.73594 0.0
C1468 C 0.64301 0.53552 0.73311 0.0
C1469 C 0.65441 0.52883 0.72363 0.0
C1470 C 0.64675 0.50672 0.72035 0.0
H1471 H 0.77194 0.59933 0.67623 0.0
H1472 H 0.73769 0.57147 0.68494 0.0
C1473 C 0.62791 0.49146 0.72646 0.0
C1474 C 0.67476 0.54503 0.71763 0.0
H1475 H 0.69671 0.56646 0.68424 0.0
C1476 C 0.69327 0.55748 0.72832 0.0
C1477 C 0.67599 0.54814 0.70154 0.0
C1478 C 0.65638 0.53527 0.68968 0.0
C1479 C 0.71313 0.57295 0.72334 0.0
C1480 C 0.71428 0.57646 0.70727 0.0
C1481 C 0.69578 0.56381 0.69655 0.0
C1482 C 0.73447 0.59343 0.70146 0.0
C1483 C 0.73278 0.58504 0.7353 0.0
C1484 C 0.74368 0.61508 0.70753 0.0
C1485 C 0.76327 0.63096 0.70268 0.0
C1486 C 0.7739 0.62558 0.69146 0.0
C1487 C 0.76419 0.60401 0.68491 0.0
C1488 C 0.74464 0.58807 0.68988 0.0
H1489 H 0.73099 0.57607 0.74576 0.0
H1490 H 0.74797 0.58802 0.73023 0.0
H1491 H 0.73456 0.60087 0.73931 0.0
H1492 H 0.73581 0.6197 0.71614 0.0
H1493 H 0.77013 0.64745 0.70784 0.0
H1494 H 0.55125 0.15214 0.74169 0.0
H1495 H 0.52219 0.15777 0.73026 0.0
H1496 H 0.47376 0.09453 0.74104 0.0
H1497 H 0.50264 0.08862 0.75219 0.0
H1498 H 0.46675 0.10459 0.71029 0.0
H1499 H 0.48082 0.16871 0.75676 0.0
H1500 H 0.50441 0.17303 0.74729 0.0
H1501 H 0.49169 0.15089 0.75905 0.0
C1502 C 0.53442 0.13936 0.74147 0.0
C1503 C 0.52923 0.12001 0.74796 0.0
C1504 C 0.51784 0.14267 0.73507 0.0
C1505 C 0.49583 0.12669 0.73503 0.0
C1506 C 0.49064 0.10713 0.74106 0.0
H1507 H 0.37882 0.13615 0.72267 0.0
H1508 H 0.40848 0.13028 0.73213 0.0
C1509 C 0.50716 0.10384 0.74751 0.0
C1510 C 0.47808 0.13032 0.72887 0.0
H1511 H 0.45425 0.16089 0.73565 0.0
C1512 C 0.46403 0.11693 0.71579 0.0
C1513 C 0.47442 0.14623 0.73622 0.0
C1514 C 0.48848 0.16046 0.75069 0.0
C1515 C 0.44651 0.11917 0.70977 0.0
C1516 C 0.44308 0.13533 0.71696 0.0
C1517 C 0.45701 0.14859 0.73012 0.0
C1518 C 0.425 0.13863 0.71107 0.0
C1519 C 0.43154 0.10395 0.69596 0.0
C1520 C 0.42456 0.14544 0.69614 0.0
C1521 C 0.40767 0.14884 0.69069 0.0
C1522 C 0.39087 0.14553 0.70009 0.0
C1523 C 0.39141 0.13875 0.71508 0.0
C1524 C 0.40837 0.13544 0.72054 0.0
H1525 H 0.43332 0.08947 0.69411 0.0
H1526 H 0.41422 0.09859 0.69757 0.0
H1527 H 0.43558 0.11246 0.68519 0.0
H1528 H 0.43742 0.14832 0.68874 0.0
H1529 H 0.40785 0.15412 0.67911 0.0
H1530 H 0.88096 0.40633 0.72373 0.0
H1531 H 0.87185 0.36986 0.71366 0.0
H1532 H 0.9384 0.38606 0.72625 0.0
H1533 H 0.94729 0.42225 0.73689 0.0
H1534 H 0.88564 0.35418 0.69124 0.0
H1535 H 0.90615 0.33302 0.74832 0.0
H1536 H 0.90484 0.35726 0.7465 0.0
H1537 H 0.92885 0.35634 0.74199 0.0
C1538 C 0.89363 0.40208 0.72425 0.0
C1539 C 0.91475 0.41693 0.73118 0.0
C1540 C 0.88843 0.38128 0.71852 0.0
C1541 C 0.90432 0.37506 0.71953 0.0
C1542 C 0.92571 0.39026 0.7258 0.0
H1543 H 0.88783 0.25775 0.66931 0.0
H1544 H 0.89817 0.29508 0.67762 0.0
C1545 C 0.93081 0.41094 0.73177 0.0
C1546 C 0.89838 0.35261 0.7142 0.0
H1547 H 0.89898 0.30833 0.7261 0.0
C1548 C 0.88848 0.34411 0.69887 0.0
C1549 C 0.90174 0.33936 0.72426 0.0
C1550 C 0.91076 0.34687 0.74123 0.0
C1551 C 0.88196 0.32279 0.69329 0.0
C1552 C 0.88616 0.30985 0.70314 0.0
C1553 C 0.89597 0.31832 0.71849 0.0
C1554 C 0.88002 0.28727 0.698 0.0
C1555 C 0.8701 0.31421 0.67706 0.0
C1556 C 0.86705 0.27055 0.70699 0.0
C1557 C 0.86158 0.24931 0.70248 0.0
C1558 C 0.8688 0.24435 0.68879 0.0
C1559 C 0.88181 0.26107 0.67981 0.0
C1560 C 0.8876 0.28239 0.68448 0.0
H1561 H 0.86236 0.32354 0.67312 0.0
H1562 H 0.88194 0.31569 0.66865 0.0
H1563 H 0.85725 0.29695 0.6766 0.0
H1564 H 0.86108 0.27393 0.71749 0.0
H1565 H 0.85148 0.23676 0.70962 0.0
H1566 H 0.1615 0.94526 0.59827 0.0
H1567 H 0.19045 0.97993 0.61113 0.0
H1568 H 0.18579 0.95143 0.65463 0.0
H1569 H 0.15735 0.91637 0.64167 0.0
H1570 H 0.19006 0.00511 0.63612 0.0
H1571 H 0.25077 0.97939 0.64932 0.0
H1572 H 0.22634 0.9633 0.63608 0.0
H1573 H 0.22498 0.9634 0.65692 0.0
C1574 C 0.16678 0.94628 0.61054 0.0
C1575 C 0.15729 0.92797 0.61889 0.0
C1576 C 0.18323 0.96615 0.61789 0.0
C1577 C 0.19054 0.96817 0.63376 0.0
C1578 C 0.1807 0.95011 0.64229 0.0
H1579 H 0.27173 0.09313 0.68838 0.0
H1580 H 0.24248 0.05673 0.67874 0.0
C1581 C 0.16426 0.93016 0.63491 0.0
C1582 C 0.20837 0.9893 0.64128 0.0
H1583 H 0.26042 0.01481 0.65929 0.0
C1584 C 0.20543 0.00724 0.64123 0.0
C1585 C 0.22851 0.99205 0.64774 0.0
C1586 C 0.233 0.97358 0.64743 0.0
C1587 C 0.22207 0.02789 0.64744 0.0
C1588 C 0.24204 0.03057 0.65419 0.0
C1589 C 0.24501 0.01265 0.65424 0.0
C1590 C 0.26029 0.05203 0.66078 0.0
C1591 C 0.21833 0.04674 0.6463 0.0
C1592 C 0.28034 0.06112 0.6543 0.0
C1593 C 0.2972 0.08187 0.65989 0.0
C1594 C 0.29431 0.09387 0.67208 0.0
C1595 C 0.27444 0.08441 0.67888 0.0
C1596 C 0.25764 0.06364 0.67334 0.0
H1597 H 0.20461 0.04292 0.63738 0.0
H1598 H 0.21423 0.05084 0.6578 0.0
H1599 H 0.23323 0.0612 0.64327 0.0
H1600 H 0.28275 0.05236 0.64465 0.0
H1601 H 0.3123 0.08866 0.6544 0.0
H1602 H 0.0591 0.18841 0.6185 0.0
H1603 H 0.02574 0.18289 0.62935 0.0
H1604 H 0.04328 0.24844 0.62236 0.0
H1605 H 0.07635 0.25382 0.61113 0.0
H1606 H 0.0183 0.20165 0.6542 0.0
H1607 H 0.98272 0.21592 0.6002 0.0
H1608 H 0.00647 0.21289 0.60053 0.0
H1609 H 0.00905 0.23836 0.60731 0.0
C1610 C 0.05586 0.20165 0.61934 0.0
C1611 C 0.07022 0.22148 0.61383 0.0
C1612 C 0.03678 0.19848 0.62551 0.0
C1613 C 0.03173 0.2151 0.62638 0.0
C1614 C 0.04645 0.23516 0.62139 0.0
H1615 H 0.93047 0.21362 0.68108 0.0
H1616 H 0.96529 0.22058 0.67205 0.0
C1617 C 0.06539 0.23825 0.61503 0.0
C1618 C 0.01103 0.21136 0.63245 0.0
H1619 H 0.96463 0.21323 0.62306 0.0
C1620 C 0.00653 0.20413 0.64738 0.0
C1621 C 0.9955 0.21428 0.62346 0.0
C1622 C 0.99853 0.22057 0.60693 0.0
C1623 C 0.98702 0.19985 0.65359 0.0
C1624 C 0.97184 0.20349 0.64481 0.0
C1625 C 0.97633 0.21064 0.62987 0.0
C1626 C 0.9508 0.19924 0.65056 0.0
C1627 C 0.98264 0.1909 0.66929 0.0
C1628 C 0.93107 0.18543 0.64132 0.0
C1629 C 0.91122 0.18177 0.6463 0.0
C1630 C 0.91061 0.19173 0.66071 0.0
C1631 C 0.93036 0.20552 0.67 0.0
C1632 C 0.95028 0.2094 0.6649 0.0
H1633 H 0.9925 0.18323 0.67223 0.0
H1634 H 0.98714 0.20426 0.67854 0.0
H1635 H 0.96512 0.17875 0.66952 0.0
H1636 H 0.93101 0.17743 0.63021 0.0
H1637 H 0.89633 0.17101 0.63886 0.0
H1638 H 0.79123 0.84003 0.61098 0.0
H1639 H 0.80002 0.81378 0.62097 0.0
H1640 H 0.77276 0.81679 0.664 0.0
H1641 H 0.76321 0.84257 0.65387 0.0
H1642 H 0.82663 0.81848 0.64785 0.0
H1643 H 0.74137 0.75182 0.64975 0.0
H1644 H 0.74795 0.77503 0.63922 0.0
H1645 H 0.748 0.77711 0.66017 0.0
C1646 C 0.78683 0.83489 0.62249 0.0
C1647 C 0.77632 0.8432 0.63158 0.0
C1648 C 0.79202 0.82004 0.62822 0.0
C1649 C 0.78678 0.81317 0.64313 0.0
C1650 C 0.77661 0.82165 0.65236 0.0
H1651 H 0.83844 0.74175 0.69152 0.0
H1652 H 0.82901 0.76891 0.68463 0.0
C1653 C 0.77137 0.83651 0.64662 0.0
C1654 C 0.79222 0.79726 0.64896 0.0
H1655 H 0.76956 0.74599 0.65972 0.0
C1656 C 0.81419 0.80265 0.65051 0.0
C1657 C 0.77588 0.77657 0.65225 0.0
C1658 C 0.75194 0.76963 0.65016 0.0
C1659 C 0.82029 0.78783 0.65519 0.0
C1660 C 0.80397 0.76724 0.65864 0.0
C1661 C 0.78201 0.76188 0.65717 0.0
C1662 C 0.80927 0.75066 0.66312 0.0
C1663 C 0.84404 0.79411 0.65594 0.0
C1664 C 0.80084 0.73121 0.6535 0.0
C1665 C 0.80606 0.7156 0.65744 0.0
C1666 C 0.81978 0.71915 0.67111 0.0
C1667 C 0.82796 0.73856 0.68085 0.0
C1668 C 0.82267 0.75414 0.67691 0.0
H1669 H 0.85366 0.8084 0.64951 0.0
H1670 H 0.8511 0.79822 0.66836 0.0
H1671 H 0.84587 0.78052 0.65096 0.0
H1672 H 0.79042 0.72822 0.64282 0.0
H1673 H 0.79947 0.70085 0.64967 0.0
H1674 H 0.07726 0.83528 0.65607 0.0
H1675 H 0.04091 0.81168 0.66424 0.0
H1676 H 0.01327 0.79792 0.61604 0.0
H1677 H 0.04971 0.82111 0.60781 0.0
H1678 H 1.00314 0.81373 0.6606 0.0
H1679 H 0.99099 0.73785 0.62974 0.0
H1680 H 0.01719 0.76239 0.63248 0.0
H1681 H 0.99697 0.75883 0.61715 0.0
C1682 C 0.06339 0.82723 0.64725 0.0
C1683 C 0.06619 0.83002 0.63132 0.0
C1684 C 0.04267 0.81378 0.65191 0.0
C1685 C 0.02444 0.8028 0.64073 0.0
C1686 C 0.02717 0.80588 0.62483 0.0
H1687 H 0.88643 0.71505 0.64477 0.0
H1688 H 0.92247 0.74031 0.63719 0.0
C1689 C 0.04791 0.81923 0.62016 0.0
C1690 C 1.00257 0.7882 0.64572 0.0
H1691 H 0.96031 0.73607 0.6408 0.0
C1692 C 0.99381 0.79672 0.65634 0.0
C1693 C 0.99045 0.76601 0.64016 0.0
C1694 C 0.99944 0.75564 0.62937 0.0
C1695 C 0.97306 0.78373 0.66131 0.0
C1696 C 0.96091 0.76161 0.65565 0.0
C1697 C 0.96967 0.75307 0.64506 0.0
C1698 C 0.93902 0.74697 0.66052 0.0
C1699 C 0.9641 0.79384 0.67234 0.0
C1700 C 0.93642 0.74227 0.67615 0.0
C1701 C 0.91582 0.72778 0.68055 0.0
C1702 C 0.89746 0.7177 0.66936 0.0
C1703 C 0.90017 0.72255 0.65371 0.0
C1704 C 0.92076 0.73697 0.64934 0.0
H1705 H 0.97317 0.81174 0.67276 0.0
H1706 H 0.94656 0.78779 0.6688 0.0
H1707 H 0.96553 0.78941 0.68434 0.0
H1708 H 0.95039 0.74955 0.6849 0.0
H1709 H 0.91435 0.72437 0.69268 0.0
H1710 H 0.17446 0.21669 0.60415 0.0
H1711 H 0.19951 0.20328 0.61057 0.0
H1712 H 0.1903 0.20832 0.65953 0.0
H1713 H 0.16501 0.22124 0.6531 0.0
H1714 H 0.23812 0.22405 0.62922 0.0
H1715 H 0.18147 0.14803 0.65335 0.0
H1716 H 0.17202 0.16288 0.6422 0.0
H1717 H 0.18151 0.17108 0.66268 0.0
C1718 C 0.17759 0.21458 0.61623 0.0
C1719 C 0.16768 0.21975 0.62811 0.0
C1720 C 0.19191 0.207 0.6199 0.0
C1721 C 0.19651 0.20443 0.6355 0.0
C1722 C 0.18658 0.20962 0.64737 0.0
H1723 H 0.28696 0.18067 0.68897 0.0
H1724 H 0.25932 0.18892 0.67896 0.0
C1725 C 0.17223 0.21712 0.6437 0.0
C1726 C 0.2126 0.19752 0.63953 0.0
H1727 H 0.21964 0.16085 0.65895 0.0
C1728 C 0.23402 0.21007 0.63554 0.0
C1729 C 0.20722 0.17926 0.64776 0.0
C1730 C 0.18425 0.16441 0.65161 0.0
C1731 C 0.2504 0.20534 0.64009 0.0
C1732 C 0.24514 0.18745 0.6487 0.0
C1733 C 0.22363 0.17462 0.6524 0.0
C1734 C 0.26192 0.18228 0.65454 0.0
C1735 C 0.27337 0.21994 0.63613 0.0
C1736 C 0.27243 0.17563 0.64411 0.0
C1737 C 0.28828 0.17085 0.64979 0.0
C1738 C 0.29389 0.17264 0.66602 0.0
C1739 C 0.28317 0.17919 0.67641 0.0
C1740 C 0.2673 0.18387 0.67072 0.0
H1741 H 0.27559 0.23529 0.63211 0.0
H1742 H 0.28534 0.2238 0.64645 0.0
H1743 H 0.27711 0.21154 0.62659 0.0
H1744 H 0.26829 0.17402 0.63157 0.0
H1745 H 0.29613 0.16579 0.64145 0.0
H1746 H 0.78631 0.94057 0.67031 0.0
H1747 H 0.79871 0.97932 0.67374 0.0
H1748 H 0.75717 0.97188 0.63236 0.0
H1749 H 0.74471 0.93313 0.62895 0.0
H1750 H 0.81952 0.00876 0.65091 0.0
H1751 H 0.74304 0.00594 0.66593 0.0
H1752 H 0.74752 0.98343 0.6676 0.0
H1753 H 0.74043 0.989 0.64871 0.0
C1754 C 0.77955 0.94721 0.66216 0.0
C1755 C 0.76419 0.93392 0.64961 0.0
C1756 C 0.78668 0.96926 0.66408 0.0
C1757 C 0.77858 0.97833 0.65344 0.0
C1758 C 0.76323 0.96507 0.64088 0.0
H1759 H 0.80643 0.10975 0.64533 0.0
H1760 H 0.79264 0.07089 0.64104 0.0
C1761 C 0.75614 0.94302 0.63894 0.0
C1762 C 0.78714 0.00187 0.655 0.0
H1763 H 0.77257 0.0401 0.6618 0.0
C1764 C 0.80931 0.01565 0.65333 0.0
C1765 C 0.77367 0.01071 0.65802 0.0
C1766 C 0.74987 0.99657 0.6603 0.0
C1767 C 0.81839 0.03814 0.65451 0.0
C1768 C 0.805 0.04702 0.65776 0.0
C1769 C 0.78277 0.03321 0.65929 0.0
C1770 C 0.81387 0.07062 0.66004 0.0
C1771 C 0.84213 0.05214 0.652 0.0
C1772 C 0.83027 0.08327 0.6722 0.0
C1773 C 0.83825 0.10545 0.67465 0.0
C1774 C 0.8298 0.11537 0.66507 0.0
C1775 C 0.81333 0.10263 0.6529 0.0
C1776 C 0.8054 0.08043 0.65044 0.0
H1777 H 0.84827 0.0429 0.64527 0.0
H1778 H 0.84476 0.06617 0.64566 0.0
H1779 H 0.85201 0.05835 0.66355 0.0
H1780 H 0.83668 0.07593 0.67997 0.0
H1781 H 0.85081 0.11473 0.68421 0.0
H1782 H 0.51026 0.39579 0.74209 0.0
H1783 H 0.48325 0.35727 0.73601 0.0
H1784 H 0.48713 0.36454 0.68658 0.0
H1785 H 0.51449 0.40289 0.69265 0.0
H1786 H 0.44298 0.33854 0.71936 0.0
H1787 H 0.4956 0.31301 0.69051 0.0
H1788 H 0.50654 0.33882 0.70187 0.0
H1789 H 0.49455 0.33481 0.68205 0.0
C1790 C 0.50543 0.38903 0.72995 0.0
C1791 C 0.51457 0.40214 0.71784 0.0
C1792 C 0.49002 0.36712 0.72648 0.0
C1793 C 0.48346 0.35796 0.71085 0.0
C1794 C 0.49236 0.37114 0.69873 0.0
H1795 H 0.38714 0.22933 0.66789 0.0
H1796 H 0.41415 0.26789 0.67293 0.0
C1797 C 0.50786 0.39304 0.70219 0.0
C1798 C 0.46682 0.33478 0.70727 0.0
H1799 H 0.45779 0.28708 0.68896 0.0
C1800 C 0.44624 0.32727 0.71276 0.0
C1801 C 0.47111 0.32012 0.69863 0.0
C1802 C 0.4932 0.32701 0.69304 0.0
C1803 C 0.42977 0.30553 0.70973 0.0
C1804 C 0.43408 0.29091 0.70111 0.0
C1805 C 0.45456 0.2984 0.69552 0.0
C1806 C 0.41765 0.26764 0.6981 0.0
C1807 C 0.40778 0.29842 0.71558 0.0
C1808 C 0.4109 0.25476 0.71057 0.0
C1809 C 0.39555 0.23276 0.70775 0.0
C1810 C 0.38666 0.22322 0.69237 0.0
C1811 C 0.39357 0.23618 0.67988 0.0
C1812 C 0.40902 0.25819 0.68272 0.0
H1813 H 0.40547 0.31234 0.71872 0.0
H1814 H 0.39439 0.28702 0.70662 0.0
H1815 H 0.40646 0.28994 0.72623 0.0
H1816 H 0.41765 0.26171 0.7225 0.0
H1817 H 0.39066 0.22326 0.71765 0.0
H1818 H 0.61832 0.1311 0.71298 0.0
H1819 H 0.65474 0.14346 0.70435 0.0
H1820 H 0.67232 0.12102 0.74519 0.0
H1821 H 0.63583 0.10845 0.75374 0.0
H1822 H 0.69713 0.17256 0.7191 0.0
H1823 H 0.68349 0.08944 0.70858 0.0
H1824 H 0.66152 0.09475 0.71136 0.0
H1825 H 0.67905 0.09626 0.72795 0.0
C1826 C 0.63001 0.12887 0.7201 0.0
C1827 C 0.62419 0.1184 0.73382 0.0
C1828 C 0.65078 0.13595 0.71519 0.0
C1829 C 0.66607 0.13273 0.72395 0.0
C1830 C 0.6606 0.1232 0.73806 0.0
H1831 H 0.79535 0.15409 0.71144 0.0
H1832 H 0.76052 0.14575 0.72096 0.0
C1833 C 0.63984 0.11612 0.74297 0.0
C1834 C 0.68755 0.13891 0.71816 0.0
H1835 H 0.71911 0.1182 0.70629 0.0
C1836 C 0.70194 0.16069 0.71625 0.0
C1837 C 0.69375 0.12338 0.7144 0.0
C1838 C 0.6786 0.09962 0.71552 0.0
C1839 C 0.72258 0.16742 0.71101 0.0
C1840 C 0.72881 0.15188 0.70731 0.0
C1841 C 0.71435 0.1301 0.70917 0.0
C1842 C 0.75029 0.15779 0.70163 0.0
C1843 C 0.73775 0.19116 0.70984 0.0
C1844 C 0.75611 0.16723 0.68752 0.0
C1845 C 0.77609 0.17205 0.68201 0.0
C1846 C 0.79056 0.16734 0.69045 0.0
C1847 C 0.78462 0.15787 0.70458 0.0
C1848 C 0.7647 0.15311 0.71007 0.0
H1849 H 0.73294 0.20136 0.71684 0.0
H1850 H 0.75485 0.19599 0.7139 0.0
H1851 H 0.73718 0.19449 0.69742 0.0
H1852 H 0.74506 0.17058 0.68064 0.0
H1853 H 0.78007 0.17926 0.67106 0.0
H1854 H 0.91744 0.50814 0.69199 0.0
H1855 H 0.90376 0.53258 0.68606 0.0
H1856 H 0.9068 0.54947 0.73557 0.0
H1857 H 0.92102 0.52548 0.74148 0.0
H1858 H 0.86652 0.53139 0.69418 0.0
H1859 H 0.93921 0.6083 0.7195 0.0
H1860 H 0.93985 0.5836 0.71597 0.0
H1861 H 0.92882 0.58828 0.73314 0.0
C1862 C 0.91535 0.51725 0.70157 0.0
C1863 C 0.92038 0.51513 0.71719 0.0
C1864 C 0.90751 0.53113 0.69819 0.0
C1865 C 0.90461 0.5431 0.71037 0.0
C1866 C 0.90942 0.5408 0.72599 0.0
H1867 H 0.85165 0.62867 0.71564 0.0
H1868 H 0.86486 0.60379 0.72091 0.0
C1869 C 0.91739 0.52703 0.72936 0.0
C1870 C 0.89592 0.55749 0.70676 0.0
H1871 H 0.90692 0.60958 0.71259 0.0
C1872 C 0.87541 0.54851 0.69811 0.0
C1873 C 0.90758 0.57983 0.7119 0.0
C1874 C 0.93017 0.59064 0.72051 0.0
C1875 C 0.86604 0.56122 0.69472 0.0
C1876 C 0.87759 0.58344 0.70004 0.0
C1877 C 0.8981 0.59246 0.70863 0.0
C1878 C 0.86876 0.59774 0.69668 0.0
C1879 C 0.84373 0.55075 0.68572 0.0
C1880 C 0.86666 0.60254 0.68131 0.0
C1881 C 0.85921 0.61681 0.67824 0.0
C1882 C 0.85373 0.6265 0.69052 0.0
C1883 C 0.85566 0.62145 0.7059 0.0
C1884 C 0.86324 0.60727 0.70896 0.0
H1885 H 0.83521 0.53285 0.68519 0.0
H1886 H 0.83343 0.55645 0.69112 0.0
H1887 H 0.84546 0.55533 0.67354 0.0
H1888 H 0.87113 0.59552 0.67172 0.0
H1889 H 0.85793 0.62035 0.66627 0.0
H1890 H 0.41598 0.89629 0.22536 0.0
H1891 H 0.4253 0.91223 0.2005 0.0
H1892 H 0.49328 0.9482 0.21841 0.0
H1893 H 0.48412 0.93252 0.24333 0.0
H1894 H 0.44649 0.95603 0.19478 0.0
H1895 H 0.49377 0.91719 0.17689 0.0
H1896 H 0.47591 0.90821 0.19232 0.0
H1897 H 0.50266 0.93171 0.19607 0.0
C1898 C 0.4329 0.90771 0.22406 0.0
C1899 C 0.44932 0.91303 0.23632 0.0
C1900 C 0.4382 0.91672 0.20982 0.0
C1901 C 0.46001 0.93111 0.20752 0.0
C1902 C 0.4764 0.93673 0.2198 0.0
H1903 H 0.52816 0.00483 0.13255 0.0
H1904 H 0.51733 0.98828 0.15701 0.0
C1905 C 0.47112 0.92775 0.23404 0.0
C1906 C 0.46562 0.94053 0.19237 0.0
H1907 H 0.49552 0.94451 0.16167 0.0
C1908 C 0.4571 0.95342 0.18747 0.0
C1909 C 0.47947 0.93709 0.18288 0.0
C1910 C 0.48835 0.92264 0.1872 0.0
C1911 C 0.46248 0.96341 0.17352 0.0
C1912 C 0.47646 0.96009 0.16409 0.0
C1913 C 0.48485 0.94707 0.16894 0.0
C1914 C 0.4828 0.97018 0.14924 0.0
C1915 C 0.45364 0.97789 0.16922 0.0
C1916 C 0.46701 0.96531 0.13667 0.0
C1917 C 0.47312 0.97486 0.12269 0.0
C1918 C 0.4952 0.98939 0.12098 0.0
C1919 C 0.51099 0.994 0.13355 0.0
C1920 C 0.50485 0.98445 0.14751 0.0
H1921 H 0.44784 0.98303 0.17947 0.0
H1922 H 0.46624 0.99252 0.16439 0.0
H1923 H 0.4396 0.96898 0.16011 0.0
H1924 H 0.44994 0.95404 0.13764 0.0
H1925 H 0.46052 0.97104 0.1133 0.0
H1926 H 0.10846 0.52882 0.24484 0.0
H1927 H 0.09481 0.52429 0.21727 0.0
H1928 H 0.04868 0.54345 0.23035 0.0
H1929 H 0.0622 0.54797 0.25799 0.0
H1930 H 0.05235 0.49651 0.2037 0.0
H1931 H 0.07812 0.58194 0.19566 0.0
H1932 H 0.08878 0.57434 0.21218 0.0
H1933 H 0.06216 0.57158 0.21182 0.0
C1934 C 0.09537 0.53203 0.24185 0.0
C1935 C 0.08638 0.53873 0.25358 0.0
C1936 C 0.08768 0.52954 0.2261 0.0
C1937 C 0.07095 0.53381 0.22177 0.0
C1938 C 0.06194 0.54053 0.23342 0.0
H1939 H 0.99786 0.51896 0.13276 0.0
H1940 H 0.01231 0.52615 0.1604 0.0
C1941 C 0.06965 0.54307 0.2492 0.0
C1942 C 0.06235 0.5303 0.2051 0.0
H1943 H 0.05555 0.55568 0.17466 0.0
C1944 C 0.05312 0.50946 0.19732 0.0
C1945 C 0.06333 0.54722 0.19686 0.0
C1946 C 0.07379 0.57008 0.20449 0.0
C1947 C 0.04461 0.50501 0.18154 0.0
C1948 C 0.0457 0.52194 0.17328 0.0
C1949 C 0.05479 0.54276 0.18106 0.0
C1950 C 0.03751 0.5183 0.15652 0.0
C1951 C 0.03419 0.48214 0.17392 0.0
C1952 C 0.04718 0.51191 0.1452 0.0
C1953 C 0.03893 0.50769 0.12945 0.0
C1954 C 0.02089 0.50989 0.12472 0.0
C1955 C 0.01157 0.51682 0.13607 0.0
C1956 C 0.01987 0.52106 0.15183 0.0
H1957 H 0.02989 0.47028 0.18274 0.0
H1958 H 0.01919 0.47786 0.16622 0.0
H1959 H 0.04583 0.48068 0.16657 0.0
H1960 H 0.06102 0.51 0.14859 0.0
H1961 H 0.04636 0.50223 0.12103 0.0
H1962 H 0.4492 0.50563 0.23904 0.0
H1963 H 0.45572 0.49628 0.21275 0.0
H1964 H 0.47791 0.56137 0.20159 0.0
H1965 H 0.47111 0.57077 0.22765 0.0
H1966 H 0.43949 0.5009 0.18156 0.0
H1967 H 0.52958 0.5502 0.19481 0.0
H1968 H 0.51118 0.54189 0.20994 0.0
H1969 H 0.51503 0.5641 0.19922 0.0
C1970 C 0.45516 0.51786 0.23091 0.0
C1971 C 0.45987 0.53902 0.23551 0.0
C1972 C 0.45895 0.51251 0.21593 0.0
C1973 C 0.46759 0.52824 0.20536 0.0
C1974 C 0.47158 0.54912 0.2097 0.0
H1975 H 0.48233 0.52399 0.10672 0.0
H1976 H 0.46972 0.52482 0.13249 0.0
C1977 C 0.46776 0.55447 0.22462 0.0
C1978 C 0.47311 0.52313 0.18993 0.0
H1979 H 0.51609 0.53667 0.16825 0.0
C1980 C 0.45622 0.50857 0.17865 0.0
C1981 C 0.49498 0.53297 0.18628 0.0
C1982 C 0.5138 0.54803 0.19822 0.0
C1983 C 0.46063 0.50412 0.16356 0.0
C1984 C 0.48245 0.51466 0.15972 0.0
C1985 C 0.49936 0.5287 0.17119 0.0
C1986 C 0.48823 0.51194 0.14376 0.0
C1987 C 0.44194 0.48816 0.1519 0.0
C1988 C 0.50287 0.50448 0.14154 0.0
C1989 C 0.51012 0.50398 0.12682 0.0
C1990 C 0.50299 0.5111 0.11404 0.0
C1991 C 0.48787 0.51806 0.11623 0.0
C1992 C 0.48063 0.51854 0.13096 0.0
H1993 H 0.42744 0.47724 0.15781 0.0
H1994 H 0.43712 0.49708 0.14398 0.0
H1995 H 0.44677 0.47821 0.14462 0.0
H1996 H 0.50898 0.49937 0.15129 0.0
H1997 H 0.52155 0.49829 0.12549 0.0
H1998 H 0.96584 0.46097 0.7764 0.0
H1999 H 0.97847 0.46879 0.80436 0.0
H2000 H 0.93324 0.49111 0.8124 0.0
H2001 H 0.91999 0.48269 0.7845 0.0
H2002 H 0.9966 0.50777 0.82402 0.0
H2003 H 0.91812 0.44461 0.84285 0.0
H2004 H 0.92418 0.44544 0.8227 0.0
H2005 H 0.91623 0.46367 0.83113 0.0
C2006 C 0.95849 0.46744 0.78413 0.0
C2007 C 0.94177 0.47101 0.77826 0.0
C2008 C 0.96582 0.47202 0.80007 0.0
C2009 C 0.95653 0.48019 0.81045 0.0
C2010 C 0.94034 0.48446 0.8046 0.0
H2011 H 0.97945 0.5062 0.91257 0.0
H2012 H 0.96659 0.50365 0.885 0.0
C2013 C 0.93298 0.47986 0.78863 0.0
C2014 C 0.96366 0.48392 0.82743 0.0
H2015 H 0.94626 0.46653 0.86282 0.0
C2016 C 0.9856 0.49882 0.83252 0.0
C2017 C 0.94922 0.47221 0.83847 0.0
C2018 C 0.92566 0.45545 0.83356 0.0
C2019 C 0.99354 0.50228 0.84839 0.0
C2020 C 0.97921 0.49026 0.85937 0.0
C2021 C 0.95717 0.4757 0.85434 0.0
C2022 C 0.98699 0.49187 0.87601 0.0
C2023 C 0.01717 0.51882 0.85328 0.0
C2024 C 1.00238 0.4857 0.88005 0.0
C2025 C 0.00963 0.48697 0.89574 0.0
C2026 C 1.00154 0.49438 0.90772 0.0
C2027 C 0.98586 0.50026 0.90363 0.0
C2028 C 0.9786 0.49894 0.8879 0.0
H2029 H 0.02427 0.53059 0.84446 0.0
H2030 H 0.01902 0.52781 0.86477 0.0
H2031 H 0.02672 0.51048 0.85447 0.0
H2032 H 0.00866 0.4797 0.87104 0.0
H2033 H 0.02137 0.4819 0.8985 0.0
H2034 H 0.56022 0.44264 0.78719 0.0
H2035 H 0.55109 0.44906 0.81326 0.0
H2036 H 0.5663 0.5131 0.80342 0.0
H2037 H 0.5758 0.50689 0.77742 0.0
H2038 H 0.5826 0.51309 0.8327 0.0
H2039 H 0.49569 0.44858 0.8224 0.0
H2040 H 0.51421 0.43882 0.81944 0.0
H2041 H 0.51321 0.45753 0.8068 0.0
C2042 C 0.56154 0.45806 0.79058 0.0
C2043 C 0.56857 0.47421 0.78023 0.0
C2044 C 0.55625 0.46168 0.80545 0.0
C2045 C 0.55755 0.48139 0.81017 0.0
C2046 C 0.56507 0.49773 0.8 0.0
H2047 H 0.49436 0.50281 0.88704 0.0
H2048 H 0.50584 0.49801 0.8616 0.0
C2049 C 0.57055 0.49419 0.78517 0.0
C2050 C 0.55111 0.48501 0.8257 0.0
H2051 H 0.50876 0.46492 0.84855 0.0
C2052 C 0.56644 0.5026 0.83616 0.0
C2053 C 0.5299 0.47151 0.83011 0.0
C2054 C 0.51223 0.45319 0.81905 0.0
C2055 C 0.56123 0.50692 0.85098 0.0
C2056 C 0.54029 0.49293 0.8556 0.0
C2057 C 0.52489 0.47549 0.84507 0.0
C2058 C 0.53377 0.49632 0.87117 0.0
C2059 C 0.57807 0.5267 0.86135 0.0
C2060 C 0.54552 0.49677 0.88505 0.0
C2061 C 0.5392 0.49988 0.89966 0.0
C2062 C 0.52078 0.50229 0.90069 0.0
C2063 C 0.50885 0.50144 0.88673 0.0
C2064 C 0.51529 0.49851 0.87215 0.0
H2065 H 0.59045 0.5388 0.85448 0.0
H2066 H 0.57033 0.53447 0.86789 0.0
H2067 H 0.58673 0.52191 0.86997 0.0
H2068 H 0.55954 0.49462 0.88461 0.0
H2069 H 0.5489 0.50062 0.91013 0.0
H2070 H 0.52208 0.07059 0.78577 0.0
H2071 H 0.51509 0.05622 0.81123 0.0
H2072 H 0.58187 0.10126 0.82909 0.0
H2073 H 0.58886 0.11623 0.80371 0.0
H2074 H 0.53487 0.03748 0.82833 0.0
H2075 H 0.54685 0.11243 0.86097 0.0
H2076 H 0.5436 0.10833 0.83983 0.0
H2077 H 0.56925 0.11557 0.85045 0.0
C2078 C 0.53527 0.07757 0.79514 0.0
C2079 C 0.55597 0.09475 0.79276 0.0
C2080 C 0.53127 0.06923 0.80965 0.0
C2081 C 0.54785 0.0779 0.82213 0.0
C2082 C 0.56873 0.0946 0.8197 0.0
H2083 H 0.54284 0.04657 0.91935 0.0
H2084 H 0.55494 0.06205 0.89467 0.0
C2085 C 0.57276 0.10297 0.80515 0.0
C2086 C 0.54304 0.0694 0.83765 0.0
H2087 H 0.53929 0.08309 0.87565 0.0
C2088 C 0.53589 0.04746 0.83869 0.0
C2089 C 0.54442 0.08247 0.85115 0.0
C2090 C 0.55127 0.10597 0.85061 0.0
C2091 C 0.53002 0.0382 0.85286 0.0
C2092 C 0.53096 0.05116 0.86628 0.0
C2093 C 0.53855 0.0732 0.86533 0.0
C2094 C 0.52354 0.04197 0.88128 0.0
C2095 C 0.52302 0.01466 0.85336 0.0
C2096 C 0.50177 0.02587 0.88201 0.0
C2097 C 0.49476 0.01709 0.8961 0.0
C2098 C 0.50937 0.02431 0.90979 0.0
C2099 C 0.5311 0.04077 0.90908 0.0
C2100 C 0.53809 0.04955 0.89497 0.0
H2101 H 0.52887 0.00868 0.84361 0.0
H2102 H 0.52921 0.01188 0.86465 0.0
H2103 H 0.50492 0.00496 0.85221 0.0
H2104 H 0.49013 0.02016 0.87168 0.0
H2105 H 0.47783 0.00475 0.89628 0.0
H2106 H 0.11204 0.27177 0.57626 0.0
H2107 H 0.1203 0.28732 0.55121 0.0
H2108 H 0.13371 0.23769 0.53441 0.0
H2109 H 0.12565 0.22217 0.55948 0.0
H2110 H 0.16479 0.27734 0.52802 0.0
H2111 H 0.08282 0.26481 0.50962 0.0
H2112 H 0.09411 0.27981 0.52851 0.0
H2113 H 0.08771 0.25215 0.5257 0.0
C2114 C 0.11653 0.26404 0.56717 0.0
C2115 C 0.11811 0.24569 0.56983 0.0
C2116 C 0.12119 0.27292 0.55284 0.0
C2117 C 0.12726 0.26346 0.54082 0.0
C2118 C 0.12899 0.24523 0.54349 0.0
H2119 H 0.13181 0.29175 0.44342 0.0
H2120 H 0.12299 0.27489 0.46792 0.0
C2121 C 0.12446 0.23642 0.55784 0.0
C2122 C 0.13241 0.27291 0.52562 0.0
H2123 H 0.11158 0.2872 0.49467 0.0
C2124 C 0.15313 0.27941 0.52069 0.0
C2125 C 0.11707 0.27532 0.51596 0.0
C2126 C 0.09411 0.26746 0.52011 0.0
C2127 C 0.15906 0.2886 0.50651 0.0
C2128 C 0.14404 0.29183 0.49715 0.0
C2129 C 0.12318 0.28495 0.50194 0.0
C2130 C 0.14957 0.30213 0.48229 0.0
C2131 C 0.18124 0.2944 0.50156 0.0
C2132 C 0.1673 0.32315 0.48223 0.0
C2133 C 0.17256 0.33274 0.46821 0.0
C2134 C 0.16004 0.32161 0.45395 0.0
C2135 C 0.14205 0.30067 0.45411 0.0
C2136 C 0.13686 0.29106 0.46814 0.0
H2137 H 0.18804 0.28538 0.5075 0.0
H2138 H 0.18048 0.29102 0.48868 0.0
H2139 H 0.19269 0.3119 0.50479 0.0
H2140 H 0.17707 0.33219 0.49306 0.0
H2141 H 0.18662 0.3488 0.46854 0.0
H2142 H 0.77066 0.90116 0.5823 0.0
H2143 H 0.75735 0.89569 0.5545 0.0
H2144 H 0.71263 0.82847 0.55893 0.0
H2145 H 0.7255 0.83387 0.58677 0.0
H2146 H 0.75788 0.86569 0.5311 0.0
H2147 H 0.67405 0.85009 0.53793 0.0
H2148 H 0.69588 0.86287 0.55364 0.0
H2149 H 0.682 0.83411 0.54889 0.0
C2150 C 0.75777 0.88529 0.57739 0.0
C2151 C 0.74907 0.86795 0.58671 0.0
C2152 C 0.7503 0.88218 0.56151 0.0
C2153 C 0.73388 0.86174 0.55475 0.0
C2154 C 0.72511 0.84442 0.56401 0.0
H2155 H 0.66605 0.80537 0.46278 0.0
H2156 H 0.68037 0.81277 0.49041 0.0
C2157 C 0.73261 0.8475 0.57986 0.0
C2158 C 0.72636 0.85832 0.53787 0.0
H2159 H 0.68145 0.84323 0.5123 0.0
C2160 C 0.74122 0.86092 0.52694 0.0
C2161 C 0.70461 0.85206 0.53257 0.0
C2162 C 0.68821 0.84978 0.54384 0.0
C2163 C 0.73474 0.85687 0.51077 0.0
C2164 C 0.71293 0.85048 0.50547 0.0
C2165 C 0.69814 0.84808 0.51642 0.0
C2166 C 0.70498 0.84597 0.4886 0.0
C2167 C 0.7511 0.85887 0.49956 0.0
C2168 C 0.71406 0.86222 0.47845 0.0
C2169 C 0.70592 0.85804 0.46266 0.0
C2170 C 0.6884 0.83759 0.45679 0.0
C2171 C 0.6794 0.82134 0.467 0.0
C2172 C 0.68761 0.82551 0.48275 0.0
H2173 H 0.76513 0.85837 0.50553 0.0
H2174 H 0.74337 0.84575 0.48978 0.0
H2175 H 0.75755 0.87455 0.49449 0.0
H2176 H 0.72716 0.87826 0.48281 0.0
H2177 H 0.71296 0.87096 0.45513 0.0
H2178 H 0.16531 0.88507 0.57715 0.0
H2179 H 0.17136 0.87716 0.55047 0.0
H2180 H 0.10333 0.85225 0.53543 0.0
H2181 H 0.09726 0.8608 0.56207 0.0
H2182 H 0.15229 0.83823 0.53128 0.0
H2183 H 0.1348 0.89788 0.50522 0.0
H2184 H 0.13929 0.89782 0.52612 0.0
H2185 H 0.11354 0.87836 0.5156 0.0
C2186 C 0.15165 0.87806 0.56815 0.0
C2187 C 0.13086 0.87382 0.57169 0.0
C2188 C 0.15511 0.87341 0.55294 0.0
C2189 C 0.13788 0.86447 0.54093 0.0
C2190 C 0.11693 0.85953 0.54448 0.0
H2191 H 0.14085 0.83737 0.44069 0.0
H2192 H 0.12875 0.83958 0.46651 0.0
C2193 C 0.11345 0.8642 0.55973 0.0
C2194 C 0.14212 0.86062 0.5247 0.0
H2195 H 0.1432 0.87685 0.48799 0.0
C2196 C 0.15023 0.8466 0.52179 0.0
C2197 C 0.13937 0.87155 0.51235 0.0
C2198 C 0.13145 0.88739 0.51493 0.0
C2199 C 0.15583 0.84333 0.50688 0.0
C2200 C 0.15355 0.85464 0.49464 0.0
C2201 C 0.14493 0.86824 0.49743 0.0
C2202 C 0.16084 0.85323 0.47903 0.0
C2203 C 0.16408 0.82777 0.50435 0.0
C2204 C 0.18295 0.86052 0.47751 0.0
C2205 C 0.18996 0.85945 0.4628 0.0
C2206 C 0.17498 0.85113 0.44927 0.0
C2207 C 0.15285 0.84407 0.45083 0.0
C2208 C 0.14587 0.84519 0.46558 0.0
H2209 H 0.15935 0.81625 0.51344 0.0
H2210 H 0.15774 0.81845 0.49262 0.0
H2211 H 0.18218 0.83698 0.50499 0.0
H2212 H 0.19485 0.86725 0.48772 0.0
H2213 H 0.20717 0.86543 0.46199 0.0
H2214 H 0.63196 0.79771 0.10851 0.0
H2215 H 0.64533 0.80736 0.13632 0.0
H2216 H 0.60378 0.83456 0.14263 0.0
H2217 H 0.58967 0.82422 0.11494 0.0
H2218 H 0.66633 0.84763 0.15406 0.0
H2219 H 0.58686 0.79171 0.17576 0.0
H2220 H 0.59186 0.78998 0.15551 0.0
H2221 H 0.58627 0.81044 0.16302 0.0
C2222 C 0.6255 0.80556 0.11583 0.0
C2223 C 0.60959 0.80999 0.10953 0.0
C2224 C 0.6333 0.81122 0.13169 0.0
C2225 C 0.62531 0.82138 0.14157 0.0
C2226 C 0.60987 0.82638 0.13526 0.0
H2227 H 0.65169 0.85275 0.24353 0.0
H2228 H 0.64001 0.85176 0.21591 0.0
C2229 C 0.60202 0.82068 0.1194 0.0
C2230 C 0.63302 0.82644 0.15849 0.0
H2231 H 0.61625 0.81379 0.19482 0.0
C2232 C 0.65538 0.84032 0.16299 0.0
C2233 C 0.61866 0.81693 0.1701 0.0
C2234 C 0.5946 0.80129 0.16591 0.0
C2235 C 0.66382 0.84475 0.1788 0.0
C2236 C 0.64954 0.83481 0.19035 0.0
C2237 C 0.62711 0.82143 0.18591 0.0
C2238 C 0.65771 0.83681 0.20697 0.0
C2239 C 0.68794 0.85998 0.18301 0.0
C2240 C 0.67141 0.82863 0.21104 0.0
C2241 C 0.67793 0.82898 0.22674 0.0
C2242 C 0.67084 0.83749 0.23874 0.0
C2243 C 0.65729 0.84592 0.2346 0.0
C2244 C 0.6507 0.84548 0.21884 0.0
H2245 H 0.69537 0.87082 0.1737 0.0
H2246 H 0.69104 0.87002 0.19424 0.0
H2247 H 0.69623 0.85044 0.18442 0.0
H2248 H 0.67656 0.82138 0.20206 0.0
H2249 H 0.68794 0.82189 0.22948 0.0
H2250 H 0.24385 0.84291 0.11355 0.0
H2251 H 0.23471 0.84976 0.13954 0.0
H2252 H 0.21731 0.78523 0.14955 0.0
H2253 H 0.22686 0.77841 0.12375 0.0
H2254 H 0.19354 0.82623 0.15144 0.0
H2255 H 0.259 0.82351 0.18813 0.0
H2256 H 0.26019 0.82691 0.16746 0.0
H2257 H 0.24348 0.80062 0.17382 0.0
C2258 C 0.2384 0.8303 0.12138 0.0
C2259 C 0.23613 0.81013 0.11661 0.0
C2260 C 0.23307 0.8342 0.13618 0.0
C2261 C 0.22559 0.8181 0.14652 0.0
C2262 C 0.22339 0.79799 0.14183 0.0
H2263 H 0.17907 0.80498 0.23859 0.0
H2264 H 0.19046 0.7999 0.21307 0.0
C2265 C 0.22863 0.79405 0.12703 0.0
C2266 C 0.21923 0.82198 0.16198 0.0
H2267 H 0.23076 0.82392 0.2014 0.0
C2268 C 0.20175 0.82588 0.16238 0.0
C2269 C 0.22994 0.82141 0.1762 0.0
C2270 C 0.24932 0.81808 0.17647 0.0
C2271 C 0.19434 0.82875 0.17664 0.0
C2272 C 0.20501 0.82813 0.19088 0.0
C2273 C 0.22258 0.82434 0.19047 0.0
C2274 C 0.19817 0.83133 0.20633 0.0
C2275 C 0.1748 0.83185 0.17631 0.0
C2276 C 0.199 0.85079 0.21107 0.0
C2277 C 0.19253 0.85375 0.22564 0.0
C2278 C 0.18527 0.83736 0.23581 0.0
C2279 C 0.18473 0.81797 0.23109 0.0
C2280 C 0.19115 0.81502 0.2165 0.0
H2281 H 0.16513 0.82628 0.16465 0.0
H2282 H 0.16395 0.82299 0.18531 0.0
H2283 H 0.18047 0.84928 0.17887 0.0
H2284 H 0.20486 0.8638 0.20357 0.0
H2285 H 0.19357 0.86903 0.22905 0.0
H2286 H 0.18608 0.4078 0.11973 0.0
H2287 H 0.17803 0.39237 0.14474 0.0
H2288 H 0.24594 0.4317 0.16234 0.0
H2289 H 0.25398 0.44803 0.13756 0.0
H2290 H 0.19246 0.36934 0.15987 0.0
H2291 H 0.21647 0.44556 0.19645 0.0
H2292 H 0.21331 0.44337 0.17531 0.0
H2293 H 0.23777 0.44665 0.18556 0.0
C2294 C 0.19929 0.41342 0.12897 0.0
C2295 C 0.22064 0.42941 0.12667 0.0
C2296 C 0.19468 0.40443 0.14324 0.0
C2297 C 0.21128 0.41116 0.15554 0.0
C2298 C 0.23275 0.42661 0.15315 0.0
H2299 H 0.19695 0.34065 0.23769 0.0
H2300 H 0.20764 0.35718 0.21321 0.0
C2301 C 0.23738 0.43572 0.13889 0.0
C2302 C 0.20599 0.40179 0.17077 0.0
H2303 H 0.20766 0.41474 0.20994 0.0
C2304 C 0.19578 0.37927 0.17082 0.0
C2305 C 0.21003 0.41473 0.18502 0.0
C2306 C 0.2198 0.43889 0.18563 0.0
C2307 C 0.18959 0.36933 0.18472 0.0
C2308 C 0.19421 0.38231 0.19905 0.0
C2309 C 0.20431 0.40482 0.19899 0.0
C2310 C 0.18828 0.3728 0.21417 0.0
C2311 C 0.17763 0.34498 0.18382 0.0
C2312 C 0.17446 0.37668 0.22316 0.0
C2313 C 0.16847 0.3674 0.23725 0.0
C2314 C 0.17618 0.35402 0.2426 0.0
C2315 C 0.19037 0.35052 0.23372 0.0
C2316 C 0.19647 0.35993 0.21971 0.0
H2317 H 0.17004 0.33749 0.17176 0.0
H2318 H 0.18937 0.33961 0.18718 0.0
H2319 H 0.16468 0.33889 0.19194 0.0
H2320 H 0.16801 0.38664 0.21916 0.0
H2321 H 0.15744 0.37033 0.24379 0.0
H2322 H 0.77814 0.60436 0.90951 0.0
H2323 H 0.78676 0.62013 0.88456 0.0
H2324 H 0.80076 0.57086 0.86792 0.0
H2325 H 0.79238 0.55515 0.89291 0.0
H2326 H 0.8317 0.61049 0.86161 0.0
H2327 H 0.74976 0.59773 0.84284 0.0
H2328 H 0.76083 0.61271 0.86175 0.0
H2329 H 0.75456 0.58509 0.85896 0.0
C2330 C 0.78285 0.59677 0.90047 0.0
C2331 C 0.78448 0.57844 0.90315 0.0
C2332 C 0.78771 0.60576 0.8862 0.0
C2333 C 0.79402 0.59645 0.87425 0.0
C2334 C 0.79585 0.57827 0.87695 0.0
H2335 H 0.7993 0.62544 0.77696 0.0
H2336 H 0.79028 0.60836 0.80137 0.0
C2337 C 0.79113 0.56936 0.89125 0.0
C2338 C 0.79929 0.60597 0.85908 0.0
H2339 H 0.77866 0.62035 0.82807 0.0
C2340 C 0.82007 0.61256 0.85424 0.0
C2341 C 0.784 0.60837 0.84935 0.0
C2342 C 0.76097 0.60041 0.85339 0.0
C2343 C 0.82612 0.62182 0.8401 0.0
C2344 C 0.81114 0.62506 0.83069 0.0
C2345 C 0.79022 0.6181 0.83537 0.0
C2346 C 0.8168 0.63548 0.81588 0.0
C2347 C 0.84836 0.62769 0.83524 0.0
C2348 C 0.83456 0.65651 0.81593 0.0
C2349 C 0.83994 0.66622 0.80196 0.0
C2350 C 0.82751 0.6552 0.78764 0.0
C2351 C 0.80948 0.63426 0.7877 0.0
C2352 C 0.80418 0.62453 0.80167 0.0
H2353 H 0.8551 0.6186 0.84117 0.0
H2354 H 0.84772 0.62443 0.82237 0.0
H2355 H 0.85979 0.64516 0.83858 0.0
H2356 H 0.84426 0.66546 0.82679 0.0
H2357 H 0.85403 0.68227 0.80238 0.0
H2358 H 0.44772 0.24293 0.91932 0.0
H2359 H 0.43508 0.2376 0.89138 0.0
H2360 H 0.38881 0.17074 0.8958 0.0
H2361 H 0.40156 0.17589 0.92361 0.0
H2362 H 0.4111 0.17537 0.8704 0.0
H2363 H 0.37875 0.23166 0.87187 0.0
H2364 H 0.4069 0.24394 0.87944 0.0
H2365 H 0.38615 0.22318 0.88943 0.0
C2366 C 0.43472 0.22716 0.91433 0.0
C2367 C 0.42562 0.20982 0.92362 0.0
C2368 C 0.42748 0.22415 0.8984 0.0
C2369 C 0.41079 0.20384 0.89156 0.0
C2370 C 0.4017 0.18654 0.90083 0.0
H2371 H 0.33088 0.17182 0.80385 0.0
H2372 H 0.34623 0.17963 0.83119 0.0
C2373 C 0.40903 0.18949 0.9167 0.0
C2374 C 0.40306 0.20034 0.87467 0.0
H2375 H 0.3795 0.2165 0.8468 0.0
C2376 C 0.40419 0.18437 0.86522 0.0
C2377 C 0.39384 0.21194 0.86801 0.0
C2378 C 0.39111 0.2285 0.87772 0.0
C2379 C 0.39631 0.1796 0.84929 0.0
C2380 C 0.38753 0.19152 0.84255 0.0
C2381 C 0.38643 0.20753 0.85198 0.0
C2382 C 0.37852 0.18699 0.82588 0.0
C2383 C 0.39684 0.16139 0.83998 0.0
C2384 C 0.39164 0.18877 0.8138 0.0
C2385 C 0.38281 0.18397 0.79813 0.0
C2386 C 0.36074 0.17754 0.79425 0.0
C2387 C 0.34781 0.17628 0.80641 0.0
C2388 C 0.35661 0.18094 0.82205 0.0
H2389 H 0.39864 0.15037 0.84772 0.0
H2390 H 0.38176 0.15178 0.83184 0.0
H2391 H 0.41101 0.16822 0.83294 0.0
H2392 H 0.40871 0.19384 0.81648 0.0
H2393 H 0.39321 0.185 0.78909 0.0
H2394 H 0.82928 0.22026 0.90814 0.0
H2395 H 0.83586 0.21173 0.88175 0.0
H2396 H 0.768 0.18636 0.86587 0.0
H2397 H 0.76137 0.19537 0.89222 0.0
H2398 H 0.81641 0.17184 0.86274 0.0
H2399 H 0.80095 0.23222 0.83571 0.0
H2400 H 0.80532 0.23248 0.85666 0.0
H2401 H 0.77948 0.21317 0.8462 0.0
C2402 C 0.81576 0.21295 0.89901 0.0
C2403 C 0.79485 0.20872 0.90221 0.0
C2404 C 0.81952 0.20796 0.88397 0.0
C2405 C 0.80249 0.19874 0.87182 0.0
C2406 C 0.78143 0.19382 0.87505 0.0
H2407 H 0.80737 0.17122 0.77199 0.0
H2408 H 0.79485 0.17381 0.79757 0.0
C2409 C 0.77763 0.19877 0.89013 0.0
C2410 C 0.80706 0.19467 0.85574 0.0
H2411 H 0.80952 0.21091 0.81894 0.0
C2412 C 0.81482 0.1803 0.85314 0.0
C2413 C 0.80494 0.20573 0.84325 0.0
C2414 C 0.79738 0.2219 0.84553 0.0
C2415 C 0.82064 0.17677 0.83837 0.0
C2416 C 0.819 0.18821 0.82598 0.0
C2417 C 0.81076 0.2022 0.82848 0.0
C2418 C 0.82654 0.18651 0.81051 0.0
C2419 C 0.8284 0.16077 0.83614 0.0
C2420 C 0.84858 0.19316 0.80929 0.0
C2421 C 0.85583 0.19187 0.7947 0.0
C2422 C 0.84119 0.18399 0.78101 0.0
C2423 C 0.81913 0.17757 0.78227 0.0
C2424 C 0.81191 0.17891 0.79688 0.0
H2425 H 0.82308 0.14922 0.84521 0.0
H2426 H 0.82225 0.1515 0.82438 0.0
H2427 H 0.84651 0.16961 0.83708 0.0
H2428 H 0.86025 0.19957 0.81963 0.0
H2429 H 0.87299 0.19735 0.79414 0.0
H2430 H 0.29867 0.12973 0.44613 0.0
H2431 H 0.31276 0.14039 0.47378 0.0
H2432 H 0.27075 0.16708 0.48002 0.0
H2433 H 0.25592 0.15572 0.45251 0.0
H2434 H 0.33372 0.18097 0.49104 0.0
H2435 H 0.25499 0.12517 0.51372 0.0
H2436 H 0.25962 0.12305 0.49342 0.0
H2437 H 0.25394 0.14351 0.50079 0.0
C2438 C 0.29228 0.1377 0.45341 0.0
C2439 C 0.27599 0.14166 0.44715 0.0
C2440 C 0.30048 0.14394 0.46917 0.0
C2441 C 0.29256 0.15423 0.47898 0.0
C2442 C 0.2768 0.15881 0.4727 0.0
H2443 H 0.32058 0.18695 0.58079 0.0
H2444 H 0.30861 0.18588 0.55324 0.0
C2445 C 0.26853 0.15252 0.45693 0.0
C2446 C 0.3006 0.15974 0.49585 0.0
H2447 H 0.28465 0.14767 0.53244 0.0
C2448 C 0.32299 0.17379 0.5001 0.0
C2449 C 0.28653 0.15038 0.50764 0.0
C2450 C 0.26246 0.13455 0.50373 0.0
C2451 C 0.33175 0.17853 0.51585 0.0
C2452 C 0.31776 0.16873 0.52759 0.0
C2453 C 0.29529 0.1552 0.52339 0.0
C2454 C 0.32627 0.17097 0.54414 0.0
C2455 C 0.35589 0.19389 0.5198 0.0
C2456 C 0.34007 0.16287 0.54811 0.0
C2457 C 0.34675 0.16325 0.56378 0.0
C2458 C 0.33972 0.17172 0.57585 0.0
C2459 C 0.32613 0.18014 0.57181 0.0
C2460 C 0.31938 0.17966 0.55609 0.0
H2461 H 0.36306 0.20459 0.51037 0.0
H2462 H 0.35916 0.20407 0.53098 0.0
H2463 H 0.3643 0.18446 0.52116 0.0
H2464 H 0.34514 0.15561 0.53908 0.0
H2465 H 0.3568 0.15618 0.56645 0.0
H2466 H 0.89133 0.10696 0.45341 0.0
H2467 H 0.88204 0.11328 0.47943 0.0
H2468 H 0.89849 0.17779 0.47001 0.0
H2469 H 0.90806 0.17165 0.44402 0.0
H2470 H 0.91459 0.17699 0.4993 0.0
H2471 H 0.82711 0.11401 0.48862 0.0
H2472 H 0.8452 0.10377 0.48547 0.0
H2473 H 0.84473 0.12293 0.47306 0.0
C2474 C 0.89286 0.12245 0.45686 0.0
C2475 C 0.90029 0.13876 0.44663 0.0
C2476 C 0.88749 0.12602 0.47171 0.0
C2477 C 0.88914 0.14586 0.47655 0.0
C2478 C 0.897 0.16233 0.46649 0.0
H2479 H 0.82771 0.16953 0.55375 0.0
H2480 H 0.83866 0.16408 0.52822 0.0
C2481 C 0.90253 0.15882 0.45167 0.0
C2482 C 0.88277 0.14949 0.49211 0.0
H2483 H 0.84026 0.13003 0.51483 0.0
C2484 C 0.89832 0.16676 0.50269 0.0
C2485 C 0.86143 0.13633 0.49643 0.0
C2486 C 0.84358 0.11836 0.48525 0.0
C2487 C 0.89322 0.17108 0.51755 0.0
C2488 C 0.87212 0.15743 0.52208 0.0
C2489 C 0.85649 0.14033 0.51142 0.0
C2490 C 0.86572 0.16088 0.53768 0.0
C2491 C 0.91034 0.1905 0.52809 0.0
C2492 C 0.87711 0.16062 0.55151 0.0
C2493 C 0.87107 0.16403 0.56615 0.0
C2494 C 0.85333 0.16751 0.56727 0.0
C2495 C 0.84169 0.1673 0.55336 0.0
C2496 C 0.84782 0.16401 0.53874 0.0
H2497 H 0.92306 0.20247 0.52134 0.0
H2498 H 0.90292 0.1986 0.53464 0.0
H2499 H 0.91852 0.18521 0.5367 0.0
H2500 H 0.89068 0.15775 0.55099 0.0
H2501 H 0.88054 0.16426 0.57659 0.0
H2502 H 0.8987 0.74398 0.45618 0.0
H2503 H 0.8906 0.72857 0.48135 0.0
H2504 H 0.86621 0.77084 0.49485 0.0
H2505 H 0.87423 0.78629 0.46979 0.0
H2506 H 0.90488 0.74778 0.51225 0.0
H2507 H 0.81514 0.7112 0.50041 0.0
H2508 H 0.83334 0.72125 0.48526 0.0
H2509 H 0.83021 0.73965 0.49851 0.0
C2510 C 0.89179 0.75012 0.46457 0.0
C2511 C 0.88688 0.7662 0.46091 0.0
C2512 C 0.8871 0.74124 0.47892 0.0
C2513 C 0.87738 0.74824 0.48984 0.0
C2514 C 0.87317 0.76479 0.48644 0.0
H2515 H 0.83275 0.71337 0.58152 0.0
H2516 H 0.84367 0.73058 0.55725 0.0
C2517 C 0.87778 0.77362 0.47211 0.0
C2518 C 0.87156 0.73821 0.50477 0.0
H2519 H 0.82859 0.71058 0.52621 0.0
C2520 C 0.8882 0.73955 0.51528 0.0
C2521 C 0.84977 0.72747 0.5087 0.0
C2522 C 0.83104 0.72459 0.49758 0.0
C2523 C 0.88368 0.73082 0.52975 0.0
C2524 C 0.86191 0.7202 0.5337 0.0
C2525 C 0.84528 0.71882 0.52318 0.0
C2526 C 0.85594 0.71015 0.5486 0.0
C2527 C 0.9023 0.73342 0.54084 0.0
C2528 C 0.85905 0.69284 0.55173 0.0
C2529 C 0.85288 0.683 0.56558 0.0
C2530 C 0.84338 0.69023 0.57659 0.0
C2531 C 0.84026 0.70757 0.57339 0.0
C2532 C 0.84638 0.71736 0.5595 0.0
H2533 H 0.91832 0.74644 0.53787 0.0
H2534 H 0.9002 0.73711 0.55314 0.0
H2535 H 0.90263 0.71809 0.54008 0.0
H2536 H 0.86606 0.68678 0.54337 0.0
H2537 H 0.85571 0.66983 0.56773 0.0
loop_
_geom_bond_atom_site_label_1
_geom_bond_atom_site_label_2
_geom_bond_distance
_geom_bond_site_symmetry_2
_ccdc_geom_bond_type
H0 C7 0.929 . S
H1 C10 0.930 . S
H2 C12 0.929 . S
H3 C4 0.969 . S
C4 H3 0.969 . S
C4 O5 1.550 . S
C4 H6 0.973 . S
O5 C4 1.550 . S
O5 C11 1.412 . S
H6 C4 0.973 . S
C7 H0 0.929 . S
C7 C8 1.400 . S
C7 C9 1.364 . S
C8 C7 1.400 . S
C8 C12 1.377 . S
C9 C7 1.364 . S
C9 C10 1.374 . S
C10 H1 0.930 . S
C10 C9 1.374 . S
C10 C11 1.383 . S
C11 O5 1.412 . S
C11 C10 1.383 . S
C11 C12 1.394 . S
C12 H2 0.929 . S
C12 C8 1.377 . S
C12 C11 1.394 . S
H13 C20 0.929 . S
H14 C23 0.930 . S
H15 C25 0.929 . S
H16 C17 0.969 . S
C17 H16 0.969 . S
C17 O18 1.550 . S
C17 H19 0.973 . S
O18 C17 1.550 . S
O18 C24 1.412 . S
H19 C17 0.973 . S
C20 H13 0.929 . S
C20 C21 1.400 . S
C20 C22 1.364 . S
C21 C20 1.400 . S
C21 C25 1.377 . S
C22 C20 1.364 . S
C22 C23 1.374 . S
C23 H14 0.930 . S
C23 C22 1.374 . S
C23 C24 1.383 . S
C24 O18 1.412 . S
C24 C23 1.383 . S
C24 C25 1.394 . S
C25 H15 0.929 . S
C25 C21 1.377 . S
C25 C24 1.394 . S
H26 C33 0.929 . S
H27 C36 0.930 . S
H28 C38 0.929 . S
H29 C30 0.969 . S
C30 H29 0.969 . S
C30 O31 1.550 . S
C30 H32 0.973 . S
O31 C30 1.550 . S
O31 C37 1.412 . S
H32 C30 0.973 . S
C33 H26 0.929 . S
C33 C34 1.400 . S
C33 C35 1.364 . S
C34 C33 1.400 . S
C34 C38 1.377 . S
C35 C33 1.364 . S
C35 C36 1.374 . S
C36 H27 0.930 . S
C36 C35 1.374 . S
C36 C37 1.383 . S
C37 O31 1.412 . S
C37 C36 1.383 . S
C37 C38 1.394 . S
C38 H28 0.929 . S
C38 C34 1.377 . S
C38 C37 1.394 . S
H39 C46 0.929 . S
H40 C49 0.930 . S
H41 C51 0.929 . S
H42 C43 0.969 . S
C43 H42 0.969 . S
C43 O44 1.550 . S
C43 H45 0.973 . S
O44 C43 1.550 . S
O44 C50 1.412 . S
H45 C43 0.973 . S
C46 H39 0.929 . S
C46 C47 1.400 . S
C46 C48 1.364 . S
C47 C46 1.400 . S
C47 C51 1.377 . S
C48 C46 1.364 . S
C48 C49 1.374 . S
C49 H40 0.930 . S
C49 C48 1.374 . S
C49 C50 1.383 . S
C50 O44 1.412 . S
C50 C49 1.383 . S
C50 C51 1.394 . S
C51 H41 0.929 . S
C51 C47 1.377 . S
C51 C50 1.394 . S
H52 C59 0.929 . S
H53 C62 0.930 . S
H54 C64 0.929 . S
H55 C56 0.969 . S
C56 H55 0.969 . S
C56 O57 1.550 . S
C56 H58 0.973 . S
O57 C56 1.550 . S
O57 C63 1.412 . S
H58 C56 0.973 . S
C59 H52 0.929 . S
C59 C60 1.400 . S
C59 C61 1.364 . S
C60 C59 1.400 . S
C60 C64 1.377 . S
C61 C59 1.364 . S
C61 C62 1.374 . S
C62 H53 0.930 . S
C62 C61 1.374 . S
C62 C63 1.383 . S
C63 O57 1.412 . S
C63 C62 1.383 . S
C63 C64 1.394 . S
C64 H54 0.929 . S
C64 C60 1.377 . S
C64 C63 1.394 . S
H65 C72 0.929 . S
H66 C75 0.930 . S
H67 C77 0.929 . S
H68 C69 0.969 . S
C69 H68 0.969 . S
C69 O70 1.550 . S
C69 H71 0.973 . S
O70 C69 1.550 . S
O70 C76 1.412 . S
H71 C69 0.973 . S
C72 H65 0.929 . S
C72 C73 1.400 . S
C72 C74 1.364 . S
C73 C72 1.400 . S
C73 C77 1.377 . S
C74 C72 1.364 . S
C74 C75 1.374 . S
C75 H66 0.930 . S
C75 C74 1.374 . S
C75 C76 1.383 . S
C76 O70 1.412 . S
C76 C75 1.383 . S
C76 C77 1.394 . S
C77 H67 0.929 . S
C77 C73 1.377 . S
C77 C76 1.394 . S
H78 C85 0.929 . S
H79 C88 0.930 . S
H80 C90 0.929 . S
H81 C82 0.969 . S
C82 H81 0.969 . S
C82 O83 1.550 . S
C82 H84 0.973 . S
O83 C82 1.550 . S
O83 C89 1.412 . S
H84 C82 0.973 . S
C85 H78 0.929 . S
C85 C86 1.400 . S
C85 C87 1.364 . S
C86 C85 1.400 . S
C86 C90 1.377 . S
C87 C85 1.364 . S
C87 C88 1.374 . S
C88 H79 0.930 . S
C88 C87 1.374 . S
C88 C89 1.383 . S
C89 O83 1.412 . S
C89 C88 1.383 . S
C89 C90 1.394 . S
C90 H80 0.929 . S
C90 C86 1.377 . S
C90 C89 1.394 . S
H91 C98 0.929 . S
H92 C101 0.930 . S
H93 C103 0.929 . S
H94 C95 0.969 . S
C95 H94 0.969 . S
C95 O96 1.550 . S
C95 H97 0.973 . S
O96 C95 1.550 . S
O96 C102 1.412 . S
H97 C95 0.973 . S
C98 H91 0.929 . S
C98 C99 1.400 . S
C98 C100 1.364 . S
C99 C98 1.400 . S
C99 C103 1.377 . S
C100 C98 1.364 . S
C100 C101 1.374 . S
C101 H92 0.930 . S
C101 C100 1.374 . S
C101 C102 1.383 . S
C102 O96 1.412 . S
C102 C101 1.383 . S
C102 C103 1.394 . S
C103 H93 0.929 . S
C103 C99 1.377 . S
C103 C102 1.394 . S
H104 C111 0.929 . S
H105 C114 0.930 . S
H106 C116 0.929 . S
H107 C108 0.969 . S
C108 H107 0.969 . S
C108 O109 1.550 . S
C108 H110 0.973 . S
O109 C108 1.550 . S
O109 C115 1.412 . S
H110 C108 0.973 . S
C111 H104 0.929 . S
C111 C112 1.400 . S
C111 C113 1.364 . S
C112 C111 1.400 . S
C112 C116 1.377 . S
C113 C111 1.364 . S
C113 C114 1.374 . S
C114 H105 0.930 . S
C114 C113 1.374 . S
C114 C115 1.383 . S
C115 O109 1.412 . S
C115 C114 1.383 . S
C115 C116 1.394 . S
C116 H106 0.929 . S
C116 C112 1.377 . S
C116 C115 1.394 . S
H117 C124 0.929 . S
H118 C127 0.930 . S
H119 C129 0.929 . S
H120 C121 0.969 . S
C121 H120 0.969 . S
C121 O122 1.550 . S
C121 H123 0.973 . S
O122 C121 1.550 . S
O122 C128 1.412 . S
H123 C121 0.973 . S
C124 H117 0.929 . S
C124 C125 1.400 . S
C124 C126 1.364 . S
C125 C124 1.400 . S
C125 C129 1.377 . S
C126 C124 1.364 . S
C126 C127 1.374 . S
C127 H118 0.930 . S
C127 C126 1.374 . S
C127 C128 1.383 . S
C128 O122 1.412 . S
C128 C127 1.383 . S
C128 C129 1.394 . S
C129 H119 0.929 . S
C129 C125 1.377 . S
C129 C128 1.394 . S
H130 C137 0.929 . S
H131 C140 0.930 . S
H132 C142 0.929 . S
H133 C134 0.969 . S
C134 H133 0.969 . S
C134 O135 1.550 . S
C134 H136 0.973 . S
O135 C134 1.550 . S
O135 C141 1.412 . S
H136 C134 0.973 . S
C137 H130 0.929 . S
C137 C138 1.400 . S
C137 C139 1.364 . S
C138 C137 1.400 . S
C138 C142 1.377 . S
C139 C137 1.364 . S
C139 C140 1.374 . S
C140 H131 0.930 . S
C140 C139 1.374 . S
C140 C141 1.383 . S
C141 O135 1.412 . S
C141 C140 1.383 . S
C141 C142 1.394 . S
C142 H132 0.929 . S
C142 C138 1.377 . S
C142 C141 1.394 . S
H143 C150 0.929 . S
H144 C153 0.930 . S
H145 C155 0.929 . S
H146 C147 0.969 . S
C147 H146 0.969 . S
C147 O148 1.550 . S
C147 H149 0.973 . S
O148 C147 1.550 . S
O148 C154 1.412 . S
H149 C147 0.973 . S
C150 H143 0.929 . S
C150 C151 1.400 . S
C150 C152 1.364 . S
C151 C150 1.400 . S
C151 C155 1.377 . S
C152 C150 1.364 . S
C152 C153 1.374 . S
C153 H144 0.930 . S
C153 C152 1.374 . S
C153 C154 1.383 . S
C154 O148 1.412 . S
C154 C153 1.383 . S
C154 C155 1.394 . S
C155 H145 0.929 . S
C155 C151 1.377 . S
C155 C154 1.394 . S
H156 C163 0.929 . S
H157 C166 0.930 . S
H158 C168 0.929 . S
H159 C160 0.969 . S
C160 H159 0.969 . S
C160 O161 1.550 . S
C160 H162 0.973 . S
O161 C160 1.550 . S
O161 C167 1.412 . S
H162 C160 0.973 . S
C163 H156 0.929 . S
C163 C164 1.400 . S
C163 C165 1.364 . S
C164 C163 1.400 . S
C164 C168 1.377 . S
C165 C163 1.364 . S
C165 C166 1.374 . S
C166 H157 0.930 . S
C166 C165 1.374 . S
C166 C167 1.383 . S
C167 O161 1.412 . S
C167 C166 1.383 . S
C167 C168 1.394 . S
C168 H158 0.929 . S
C168 C164 1.377 . S
C168 C167 1.394 . S
H169 C176 0.929 . S
H170 C179 0.930 . S
H171 C181 0.929 . S
H172 C173 0.969 . S
C173 H172 0.969 . S
C173 O174 1.550 . S
C173 H175 0.973 . S
O174 C173 1.550 . S
O174 C180 1.412 . S
H175 C173 0.973 . S
C176 H169 0.929 . S
C176 C177 1.400 . S
C176 C178 1.364 . S
C177 C176 1.400 . S
C177 C181 1.377 . S
C178 C176 1.364 . S
C178 C179 1.374 . S
C179 H170 0.930 . S
C179 C178 1.374 . S
C179 C180 1.383 . S
C180 O174 1.412 . S
C180 C179 1.383 . S
C180 C181 1.394 . S
C181 H171 0.929 . S
C181 C177 1.377 . S
C181 C180 1.394 . S
H182 C189 0.929 . S
H183 C192 0.930 . S
H184 C194 0.929 . S
H185 C186 0.969 . S
C186 H185 0.969 . S
C186 O187 1.550 . S
C186 H188 0.973 . S
O187 C186 1.550 . S
O187 C193 1.412 . S
H188 C186 0.973 . S
C189 H182 0.929 . S
C189 C190 1.400 . S
C189 C191 1.364 . S
C190 C189 1.400 . S
C190 C194 1.377 . S
C191 C189 1.364 . S
C191 C192 1.374 . S
C192 H183 0.930 . S
C192 C191 1.374 . S
C192 C193 1.383 . S
C193 O187 1.412 . S
C193 C192 1.383 . S
C193 C194 1.394 . S
C194 H184 0.929 . S
C194 C190 1.377 . S
C194 C193 1.394 . S
H195 C202 0.929 . S
H196 C205 0.930 . S
H197 C207 0.929 . S
H198 C199 0.969 . S
C199 H198 0.969 . S
C199 O200 1.550 . S
C199 H201 0.973 . S
O200 C199 1.550 . S
O200 C206 1.412 . S
H201 C199 0.973 . S
C202 H195 0.929 . S
C202 C203 1.400 . S
C202 C204 1.364 . S
C203 C202 1.400 . S
C203 C207 1.377 . S
C204 C202 1.364 . S
C204 C205 1.374 . S
C205 H196 0.930 . S
C205 C204 1.374 . S
C205 C206 1.383 . S
C206 O200 1.412 . S
C206 C205 1.383 . S
C206 C207 1.394 . S
C207 H197 0.929 . S
C207 C203 1.377 . S
C207 C206 1.394 . S
H208 C215 0.929 . S
H209 C218 0.930 . S
H210 C220 0.929 . S
H211 C212 0.969 . S
C212 H211 0.969 . S
C212 O213 1.550 . S
C212 H214 0.973 . S
O213 C212 1.550 . S
O213 C219 1.412 . S
H214 C212 0.973 . S
C215 H208 0.929 . S
C215 C216 1.400 . S
C215 C217 1.364 . S
C216 C215 1.400 . S
C216 C220 1.377 . S
C217 C215 1.364 . S
C217 C218 1.374 . S
C218 H209 0.930 . S
C218 C217 1.374 . S
C218 C219 1.383 . S
C219 O213 1.412 . S
C219 C218 1.383 . S
C219 C220 1.394 . S
C220 H210 0.929 . S
C220 C216 1.377 . S
C220 C219 1.394 . S
H221 C228 0.929 . S
H222 C231 0.930 . S
H223 C233 0.929 . S
H224 C225 0.969 . S
C225 H224 0.969 . S
C225 O226 1.550 . S
C225 H227 0.973 . S
O226 C225 1.550 . S
O226 C232 1.412 . S
H227 C225 0.973 . S
C228 H221 0.929 . S
C228 C229 1.400 . S
C228 C230 1.364 . S
C229 C228 1.400 . S
C229 C233 1.377 . S
C230 C228 1.364 . S
C230 C231 1.374 . S
C231 H222 0.930 . S
C231 C230 1.374 . S
C231 C232 1.383 . S
C232 O226 1.412 . S
C232 C231 1.383 . S
C232 C233 1.394 . S
C233 H223 0.929 . S
C233 C229 1.377 . S
C233 C232 1.394 . S
Tb234 C244 2.825 1_565 S
Tb234 O245 2.347 1_566 S
Tb234 O248 2.366 1_565 S
Tb234 O253 2.418 . S
Tb234 O254 2.384 1_556 S
Tb234 O257 2.479 . S
Tb234 O258 2.471 1_565 S
Eu235 O246 2.418 . S
Eu235 O247 2.384 . S
Eu235 O250 2.479 . S
Eu235 O251 2.471 1_545 S
Eu235 O252 2.347 1_545 S
Eu235 O255 2.366 1_545 S
Eu235 C265 2.825 . S
C236 O252 1.259 . S
C236 O253 1.265 1_554 S
C237 O254 1.255 . S
C237 O255 1.265 . S
C238 C240 1.380 . S
C238 C241 1.374 . S
C238 C244 1.507 . S
C239 C240 1.384 . S
C239 C243 1.387 . S
C239 H266 0.958 . S
C240 C238 1.380 . S
C240 C239 1.384 . S
C240 H267 0.931 1_545 S
C241 C238 1.374 . S
C241 C242 1.390 . S
C241 H268 0.930 . S
C242 C241 1.390 . S
C242 C243 1.391 . S
C242 H269 0.930 . S
C243 C239 1.387 . S
C243 C242 1.391 . S
C244 Tb234 2.825 1_545 S
C244 C238 1.507 . S
C244 O257 1.238 1_545 S
C244 O258 1.247 . S
O245 Tb234 2.347 1_544 S
O245 C249 1.259 . S
O246 Eu235 2.418 . S
O246 C249 1.265 . S
O247 Eu235 2.384 . S
O247 C256 1.255 . S
O248 Tb234 2.366 1_545 S
O248 C256 1.265 1_556 S
C249 O245 1.259 . S
C249 O246 1.265 . S
O250 Eu235 2.479 . S
O250 C265 1.238 . S
O251 Eu235 2.471 1_565 S
O251 C265 1.247 1_565 S
O252 Eu235 2.347 1_565 S
O252 C236 1.259 . S
O253 Tb234 2.418 . S
O253 C236 1.265 1_556 S
O254 Tb234 2.384 1_554 S
O254 C237 1.255 . S
O255 Eu235 2.366 1_565 S
O255 C237 1.265 . S
C256 O247 1.255 . S
C256 O248 1.265 1_554 S
O257 Tb234 2.479 . S
O257 C244 1.238 1_565 S
O258 Tb234 2.471 1_545 S
O258 C244 1.247 . S
C259 C262 1.380 1_565 S
C259 C263 1.374 . S
C259 C265 1.507 1_565 S
C260 C261 1.360 1_565 S
C260 C264 1.391 . S
C261 C260 1.360 1_545 S
C261 C262 1.392 . S
C261 H270 0.951 . S
C262 C259 1.380 1_545 S
C262 C261 1.392 . S
C262 H271 0.931 . S
C263 C259 1.374 . S
C263 C264 1.390 . S
C263 H272 0.930 . S
C264 C260 1.391 . S
C264 C263 1.390 . S
C264 H273 0.930 . S
C265 Eu235 2.825 . S
C265 O250 1.238 . S
C265 O251 1.247 1_545 S
C265 C259 1.507 1_545 S
H266 C239 0.958 . S
H267 C240 0.931 1_565 S
H268 C241 0.930 . S
H269 C242 0.930 . S
H270 C261 0.951 . S
H271 C262 0.931 . S
H272 C263 0.930 . S
H273 C264 0.930 . S
Tb274 C284 2.825 . S
Tb274 O285 2.317 1_456 S
Tb274 O288 2.366 1_455 S
Tb274 O293 2.418 . S
Tb274 O294 2.384 1_556 S
Tb274 O297 2.479 . S
Tb274 O298 2.471 1_455 S
Eu275 O286 2.418 . S
Eu275 O287 2.384 . S
Eu275 O290 2.479 . S
Eu275 O291 2.471 1_655 S
Eu275 O292 2.347 1_655 S
Eu275 O295 2.366 1_655 S
Eu275 C305 2.825 1_655 S
C276 O292 1.259 . S
C276 O293 1.265 1_554 S
C277 O294 1.255 . S
C277 O295 1.265 . S
C278 C280 1.380 1_655 S
C278 C281 1.374 . S
C278 C284 1.507 1_655 S
C279 C280 1.384 1_655 S
C279 C283 1.387 . S
C279 H306 0.930 1_655 S
C280 C278 1.380 1_455 S
C280 C279 1.384 1_455 S
C280 H307 0.931 . S
C281 C278 1.374 . S
C281 C282 1.390 . S
C281 H308 0.930 . S
C282 C281 1.390 . S
C282 C283 1.391 . S
C282 H309 0.930 . S
C283 C279 1.387 . S
C283 C282 1.391 . S
C284 Tb274 2.825 . S
C284 C278 1.507 1_455 S
C284 O297 1.238 . S
C284 O298 1.247 1_455 S
O285 Tb274 2.317 1_654 S
O285 C289 1.287 . S
O286 Eu275 2.418 . S
O286 C289 1.265 . S
O287 Eu275 2.384 . S
O287 C296 1.255 1_554 S
O288 Tb274 2.366 1_655 S
O288 C296 1.265 . S
C289 O285 1.287 . S
C289 O286 1.265 . S
O290 Eu275 2.479 . S
O290 C305 1.238 1_655 S
O291 Eu275 2.471 1_455 S
O291 C305 1.247 . S
O292 Eu275 2.347 1_455 S
O292 C276 1.259 . S
O293 Tb274 2.418 . S
O293 C276 1.265 1_556 S
O294 Tb274 2.384 1_554 S
O294 C277 1.255 . S
O295 Eu275 2.366 1_455 S
O295 C277 1.265 . S
C296 O287 1.255 1_556 S
C296 O288 1.265 . S
O297 Tb274 2.479 . S
O297 C284 1.238 . S
O298 Tb274 2.471 1_655 S
O298 C284 1.247 1_655 S
C299 C302 1.380 . S
C299 C303 1.374 . S
C299 C305 1.507 . S
C300 C301 1.387 . S
C300 C304 1.391 . S
C301 C300 1.387 . S
C301 C302 1.384 . S
C301 H310 0.930 . S
C302 C299 1.380 . S
C302 C301 1.384 . S
C302 H311 0.931 1_455 S
C303 C299 1.374 . S
C303 C304 1.390 . S
C303 H312 0.930 . S
C304 C300 1.391 . S
C304 C303 1.390 . S
C304 H313 0.930 . S
C305 Eu275 2.825 1_455 S
C305 O290 1.238 1_455 S
C305 O291 1.247 . S
C305 C299 1.507 . S
H306 C279 0.930 1_455 S
H307 C280 0.931 . S
H308 C281 0.930 . S
H309 C282 0.930 . S
H310 C301 0.930 . S
H311 C302 0.931 1_655 S
H312 C303 0.930 . S
H313 C304 0.930 . S
Tb314 C324 2.825 . S
Tb314 O325 2.347 . S
Tb314 O328 2.366 . S
Tb314 O333 2.418 . S
Tb314 O334 2.384 . S
Tb314 O337 2.479 . S
Tb314 O338 2.471 . S
Eu315 O326 2.404 1_556 S
Eu315 O327 2.384 1_556 S
Eu315 O330 2.479 . S
Eu315 O331 2.471 . S
Eu315 O332 2.347 1_556 S
Eu315 O335 2.366 . S
Eu315 C345 2.825 . S
C316 O332 1.259 . S
C316 O333 1.265 . S
C317 O334 1.255 . S
C317 O335 1.265 1_554 S
C318 C320 1.380 . S
C318 C321 1.374 . S
C318 C324 1.507 . S
C319 C320 1.384 . S
C319 C323 1.387 . S
C319 H346 0.930 . S
C320 C318 1.380 . S
C320 C319 1.384 . S
C320 H347 0.931 . S
C321 C318 1.374 . S
C321 C322 1.390 . S
C321 H348 0.930 . S
C322 C321 1.390 . S
C322 C323 1.391 . S
C322 H349 0.930 . S
C323 C319 1.387 . S
C323 C322 1.391 . S
C324 Tb314 2.825 . S
C324 C318 1.507 . S
C324 O337 1.238 . S
C324 O338 1.247 . S
O325 Tb314 2.347 . S
O325 C329 1.259 . S
O326 Eu315 2.404 1_554 S
O326 C329 1.336 . S
O327 Eu315 2.384 1_554 S
O327 C336 1.255 . S
O328 Tb314 2.366 . S
O328 C336 1.265 . S
C329 O325 1.259 . S
C329 O326 1.336 . S
O330 Eu315 2.479 . S
O330 C345 1.238 . S
O331 Eu315 2.471 . S
O331 C345 1.247 . S
O332 Eu315 2.347 1_554 S
O332 C316 1.259 . S
O333 Tb314 2.418 . S
O333 C316 1.265 . S
O334 Tb314 2.384 . S
O334 C317 1.255 . S
O335 Eu315 2.366 . S
O335 C317 1.265 1_556 S
C336 O327 1.255 . S
C336 O328 1.265 . S
O337 Tb314 2.479 . S
O337 C324 1.238 . S
O338 Tb314 2.471 . S
O338 C324 1.247 . S
C339 C342 1.380 . S
C339 C343 1.374 . S
C339 C345 1.507 . S
C340 C341 1.387 . S
C340 C344 1.391 . S
C341 C340 1.387 . S
C341 C342 1.384 . S
C341 H350 0.930 . S
C342 C339 1.380 . S
C342 C341 1.384 . S
C342 H351 0.931 . S
C343 C339 1.374 . S
C343 C344 1.390 . S
C343 H352 0.930 . S
C344 C340 1.391 . S
C344 C343 1.390 . S
C344 H353 0.930 . S
C345 Eu315 2.825 . S
C345 O330 1.238 . S
C345 O331 1.247 . S
C345 C339 1.507 . S
H346 C319 0.930 . S
H347 C320 0.931 . S
H348 C321 0.930 . S
H349 C322 0.930 . S
H350 C341 0.930 . S
H351 C342 0.931 . S
H352 C343 0.930 . S
H353 C344 0.930 . S
Tb354 C364 2.825 . S
Tb354 O365 2.347 . S
Tb354 O368 2.366 . S
Tb354 O373 2.418 . S
Tb354 O374 2.384 . S
Tb354 O377 2.479 . S
Tb354 O378 2.471 . S
Eu355 O366 2.418 . S
Eu355 O367 2.384 . S
Eu355 O370 2.479 . S
Eu355 O371 2.471 . S
Eu355 O372 2.347 . S
Eu355 O375 2.366 . S
Eu355 C385 2.825 . S
C356 O372 1.259 . S
C356 O373 1.265 . S
C357 O374 1.255 . S
C357 O375 1.265 . S
C358 C360 1.380 . S
C358 C361 1.374 . S
C358 C364 1.507 . S
C359 C360 1.384 . S
C359 C363 1.387 . S
C359 H386 0.930 . S
C360 C358 1.380 . S
C360 C359 1.384 . S
C360 H387 0.931 . S
C361 C358 1.374 . S
C361 C362 1.390 . S
C361 H388 0.930 . S
C362 C361 1.390 . S
C362 C363 1.391 . S
C362 H389 0.930 . S
C363 C359 1.387 . S
C363 C362 1.391 . S
C364 Tb354 2.825 . S
C364 C358 1.507 . S
C364 O377 1.238 . S
C364 O378 1.247 . S
O365 Tb354 2.347 . S
O365 C369 1.259 . S
O366 Eu355 2.418 . S
O366 C369 1.265 . S
O367 Eu355 2.384 . S
O367 C376 1.255 . S
O368 Tb354 2.366 . S
O368 C376 1.265 . S
C369 O365 1.259 . S
C369 O366 1.265 . S
O370 Eu355 2.479 . S
O370 C385 1.238 . S
O371 Eu355 2.471 . S
O371 C385 1.247 . S
O372 Eu355 2.347 . S
O372 C356 1.259 . S
O373 Tb354 2.418 . S
O373 C356 1.265 . S
O374 Tb354 2.384 . S
O374 C357 1.255 . S
O375 Eu355 2.366 . S
O375 C357 1.265 . S
C376 O367 1.255 . S
C376 O368 1.265 . S
O377 Tb354 2.479 . S
O377 C364 1.238 . S
O378 Tb354 2.471 . S
O378 C364 1.247 . S
C379 C382 1.380 . S
C379 C383 1.374 . S
C379 C385 1.507 . S
C380 C381 1.387 . S
C380 C384 1.391 . S
C381 C380 1.387 . S
C381 C382 1.384 . S
C381 H390 0.930 . S
C382 C379 1.380 . S
C382 C381 1.384 . S
C382 H391 0.931 . S
C383 C379 1.374 . S
C383 C384 1.390 . S
C383 H392 0.930 . S
C384 C380 1.391 . S
C384 C383 1.390 . S
C384 H393 0.930 . S
C385 Eu355 2.825 . S
C385 O370 1.238 . S
C385 O371 1.247 . S
C385 C379 1.507 . S
H386 C359 0.930 . S
H387 C360 0.931 . S
H388 C361 0.930 . S
H389 C362 0.930 . S
H390 C381 0.930 . S
H391 C382 0.931 . S
H392 C383 0.930 . S
H393 C384 0.930 . S
Tb394 C404 2.825 . S
Tb394 O405 2.347 . S
Tb394 O408 2.366 . S
Tb394 O413 2.418 . S
Tb394 O414 2.384 . S
Tb394 O417 2.479 . S
Tb394 O418 2.471 . S
Eu395 O406 2.418 . S
Eu395 O407 2.384 . S
Eu395 O410 2.479 . S
Eu395 O411 2.471 . S
Eu395 O412 2.347 . S
Eu395 O415 2.366 . S
Eu395 C425 2.825 . S
C396 O412 1.259 . S
C396 O413 1.265 . S
C397 O414 1.255 . S
C397 O415 1.265 . S
C398 C400 1.380 . S
C398 C401 1.374 . S
C398 C404 1.507 . S
C399 C400 1.384 . S
C399 C403 1.387 . S
C399 H426 0.930 . S
C400 C398 1.380 . S
C400 C399 1.384 . S
C400 H427 0.931 . S
C401 C398 1.374 . S
C401 C402 1.390 . S
C401 H428 0.930 . S
C402 C401 1.390 . S
C402 C403 1.391 . S
C402 H429 0.930 . S
C403 C399 1.387 . S
C403 C402 1.391 . S
C404 Tb394 2.825 . S
C404 C398 1.507 . S
C404 O417 1.238 . S
C404 O418 1.247 . S
O405 Tb394 2.347 . S
O405 C409 1.259 . S
O406 Eu395 2.418 . S
O406 C409 1.265 . S
O407 Eu395 2.384 . S
O407 C416 1.255 . S
O408 Tb394 2.366 . S
O408 C416 1.265 . S
C409 O405 1.259 . S
C409 O406 1.265 . S
O410 Eu395 2.479 . S
O410 C425 1.238 . S
O411 Eu395 2.471 . S
O411 C425 1.247 . S
O412 Eu395 2.347 . S
O412 C396 1.259 . S
O413 Tb394 2.418 . S
O413 C396 1.265 . S
O414 Tb394 2.384 . S
O414 C397 1.255 . S
O415 Eu395 2.366 . S
O415 C397 1.265 . S
C416 O407 1.255 . S
C416 O408 1.265 . S
O417 Tb394 2.479 . S
O417 C404 1.238 . S
O418 Tb394 2.471 . S
O418 C404 1.247 . S
C419 C422 1.380 . S
C419 C423 1.374 . S
C419 C425 1.507 . S
C420 C421 1.387 . S
C420 C424 1.391 . S
C421 C420 1.387 . S
C421 C422 1.384 . S
C421 H430 0.930 . S
C422 C419 1.380 . S
C422 C421 1.384 . S
C422 H431 0.931 . S
C423 C419 1.374 . S
C423 C424 1.390 . S
C423 H432 0.930 . S
C424 C420 1.391 . S
C424 C423 1.390 . S
C424 H433 0.930 . S
C425 Eu395 2.825 . S
C425 O410 1.238 . S
C425 O411 1.247 . S
C425 C419 1.507 . S
H426 C399 0.930 . S
H427 C400 0.931 . S
H428 C401 0.930 . S
H429 C402 0.930 . S
H430 C421 0.930 . S
H431 C422 0.931 . S
H432 C423 0.930 . S
H433 C424 0.930 . S
Tb434 C444 2.825 . S
Tb434 O445 2.347 . S
Tb434 O448 2.366 . S
Tb434 O453 2.418 . S
Tb434 O454 2.384 . S
Tb434 O457 2.479 . S
Tb434 O458 2.471 . S
Eu435 O446 2.418 . S
Eu435 O447 2.384 . S
Eu435 O450 2.479 . S
Eu435 O451 2.471 . S
Eu435 O452 2.347 . S
Eu435 O455 2.366 . S
Eu435 C465 2.825 . S
C436 O452 1.259 . S
C436 O453 1.265 . S
C437 O454 1.255 . S
C437 O455 1.265 . S
C438 C440 1.380 . S
C438 C441 1.374 . S
C438 C444 1.507 . S
C439 C440 1.384 . S
C439 C443 1.387 . S
C439 H466 0.930 . S
C440 C438 1.380 . S
C440 C439 1.384 . S
C440 H467 0.931 . S
C441 C438 1.374 . S
C441 C442 1.390 . S
C441 H468 0.930 . S
C442 C441 1.390 . S
C442 C443 1.391 . S
C442 H469 0.930 . S
C443 C439 1.387 . S
C443 C442 1.391 . S
C444 Tb434 2.825 . S
C444 C438 1.507 . S
C444 O457 1.238 . S
C444 O458 1.247 . S
O445 Tb434 2.347 . S
O445 C449 1.259 . S
O446 Eu435 2.418 . S
O446 C449 1.265 . S
O447 Eu435 2.384 . S
O447 C456 1.255 . S
O448 Tb434 2.366 . S
O448 C456 1.265 . S
C449 O445 1.259 . S
C449 O446 1.265 . S
O450 Eu435 2.479 . S
O450 C465 1.238 . S
O451 Eu435 2.471 . S
O451 C465 1.247 . S
O452 Eu435 2.347 . S
O452 C436 1.259 . S
O453 Tb434 2.418 . S
O453 C436 1.265 . S
O454 Tb434 2.384 . S
O454 C437 1.255 . S
O455 Eu435 2.366 . S
O455 C437 1.265 . S
C456 O447 1.255 . S
C456 O448 1.265 . S
O457 Tb434 2.479 . S
O457 C444 1.238 . S
O458 Tb434 2.471 . S
O458 C444 1.247 . S
C459 C462 1.380 . S
C459 C463 1.374 . S
C459 C465 1.507 . S
C460 C461 1.387 . S
C460 C464 1.391 . S
C461 C460 1.387 . S
C461 C462 1.384 . S
C461 H470 0.930 . S
C462 C459 1.380 . S
C462 C461 1.384 . S
C462 H471 0.931 . S
C463 C459 1.374 . S
C463 C464 1.390 . S
C463 H472 0.930 . S
C464 C460 1.391 . S
C464 C463 1.390 . S
C464 H473 0.930 . S
C465 Eu435 2.825 . S
C465 O450 1.238 . S
C465 O451 1.247 . S
C465 C459 1.507 . S
H466 C439 0.930 . S
H467 C440 0.931 . S
H468 C441 0.930 . S
H469 C442 0.930 . S
H470 C461 0.930 . S
H471 C462 0.931 . S
H472 C463 0.930 . S
H473 C464 0.930 . S
Tb474 C484 2.825 . S
Tb474 O485 2.347 . S
Tb474 O488 2.366 . S
Tb474 O493 2.418 . S
Tb474 O494 2.384 . S
Tb474 O497 2.479 . S
Tb474 O498 2.471 . S
Eu475 O486 2.418 . S
Eu475 O487 2.384 . S
Eu475 O490 2.479 . S
Eu475 O491 2.471 . S
Eu475 O492 2.347 . S
Eu475 O495 2.366 . S
Eu475 C505 2.825 . S
C476 O492 1.259 . S
C476 O493 1.265 . S
C477 O494 1.255 . S
C477 O495 1.265 . S
C478 C480 1.380 . S
C478 C481 1.374 . S
C478 C484 1.507 . S
C479 C480 1.384 . S
C479 C483 1.387 . S
C479 H506 0.930 . S
C480 C478 1.380 . S
C480 C479 1.384 . S
C480 H507 0.931 . S
C481 C478 1.374 . S
C481 C482 1.390 . S
C481 H508 0.930 . S
C482 C481 1.390 . S
C482 C483 1.391 . S
C482 H509 0.930 . S
C483 C479 1.387 . S
C483 C482 1.391 . S
C484 Tb474 2.825 . S
C484 C478 1.507 . S
C484 O497 1.238 . S
C484 O498 1.247 . S
O485 Tb474 2.347 . S
O485 C489 1.259 . S
O486 Eu475 2.418 . S
O486 C489 1.265 . S
O487 Eu475 2.384 . S
O487 C496 1.255 . S
O488 Tb474 2.366 . S
O488 C496 1.265 . S
C489 O485 1.259 . S
C489 O486 1.265 . S
O490 Eu475 2.479 . S
O490 C505 1.238 . S
O491 Eu475 2.471 . S
O491 C505 1.247 . S
O492 Eu475 2.347 . S
O492 C476 1.259 . S
O493 Tb474 2.418 . S
O493 C476 1.265 . S
O494 Tb474 2.384 . S
O494 C477 1.255 . S
O495 Eu475 2.366 . S
O495 C477 1.265 . S
C496 O487 1.255 . S
C496 O488 1.265 . S
O497 Tb474 2.479 . S
O497 C484 1.238 . S
O498 Tb474 2.471 . S
O498 C484 1.247 . S
C499 C502 1.380 . S
C499 C503 1.374 . S
C499 C505 1.507 . S
C500 C501 1.387 . S
C500 C504 1.391 . S
C501 C500 1.387 . S
C501 C502 1.384 . S
C501 H510 0.930 . S
C502 C499 1.380 . S
C502 C501 1.384 . S
C502 H511 0.931 . S
C503 C499 1.374 . S
C503 C504 1.390 . S
C503 H512 0.930 . S
C504 C500 1.391 . S
C504 C503 1.390 . S
C504 H513 0.930 . S
C505 Eu475 2.825 . S
C505 O490 1.238 . S
C505 O491 1.247 . S
C505 C499 1.507 . S
H506 C479 0.930 . S
H507 C480 0.931 . S
H508 C481 0.930 . S
H509 C482 0.930 . S
H510 C501 0.930 . S
H511 C502 0.931 . S
H512 C503 0.930 . S
H513 C504 0.930 . S
Tb514 C524 2.825 . S
Tb514 O525 2.347 . S
Tb514 O528 2.366 . S
Tb514 O533 2.418 . S
Tb514 O534 2.384 . S
Tb514 O537 2.479 . S
Tb514 O538 2.471 . S
Eu515 O526 2.418 . S
Eu515 O527 2.384 . S
Eu515 O530 2.479 . S
Eu515 O531 2.471 . S
Eu515 O532 2.347 . S
Eu515 O535 2.366 . S
Eu515 C545 2.825 . S
C516 O532 1.259 . S
C516 O533 1.265 . S
C517 O534 1.255 . S
C517 O535 1.265 . S
C518 C520 1.380 . S
C518 C521 1.374 . S
C518 C524 1.507 . S
C519 C520 1.384 . S
C519 C523 1.387 . S
C519 H546 0.930 . S
C520 C518 1.380 . S
C520 C519 1.384 . S
C520 H547 0.931 . S
C521 C518 1.374 . S
C521 C522 1.390 . S
C521 H548 0.930 . S
C522 C521 1.390 . S
C522 C523 1.391 . S
C522 H549 0.930 . S
C523 C519 1.387 . S
C523 C522 1.391 . S
C524 Tb514 2.825 . S
C524 C518 1.507 . S
C524 O537 1.238 . S
C524 O538 1.247 . S
O525 Tb514 2.347 . S
O525 C529 1.259 . S
O526 Eu515 2.418 . S
O526 C529 1.265 . S
O527 Eu515 2.384 . S
O527 C536 1.255 . S
O528 Tb514 2.366 . S
O528 C536 1.265 . S
C529 O525 1.259 . S
C529 O526 1.265 . S
O530 Eu515 2.479 . S
O530 C545 1.238 . S
O531 Eu515 2.471 . S
O531 C545 1.247 . S
O532 Eu515 2.347 . S
O532 C516 1.259 . S
O533 Tb514 2.418 . S
O533 C516 1.265 . S
O534 Tb514 2.384 . S
O534 C517 1.255 . S
O535 Eu515 2.366 . S
O535 C517 1.265 . S
C536 O527 1.255 . S
C536 O528 1.265 . S
O537 Tb514 2.479 . S
O537 C524 1.238 . S
O538 Tb514 2.471 . S
O538 C524 1.247 . S
C539 C542 1.380 . S
C539 C543 1.374 . S
C539 C545 1.507 . S
C540 C541 1.387 . S
C540 C544 1.391 . S
C541 C540 1.387 . S
C541 C542 1.384 . S
C541 H550 0.930 . S
C542 C539 1.380 . S
C542 C541 1.384 . S
C542 H551 0.931 . S
C543 C539 1.374 . S
C543 C544 1.390 . S
C543 H552 0.930 . S
C544 C540 1.391 . S
C544 C543 1.390 . S
C544 H553 0.930 . S
C545 Eu515 2.825 . S
C545 O530 1.238 . S
C545 O531 1.247 . S
C545 C539 1.507 . S
H546 C519 0.930 . S
H547 C520 0.931 . S
H548 C521 0.930 . S
H549 C522 0.930 . S
H550 C541 0.930 . S
H551 C542 0.931 . S
H552 C543 0.930 . S
H553 C544 0.930 . S
Tb554 C564 2.825 . S
Tb554 O565 2.347 . S
Tb554 O568 2.366 . S
Tb554 O573 2.418 . S
Tb554 O574 2.384 . S
Tb554 O577 2.479 . S
Tb554 O578 2.471 . S
Eu555 O566 2.418 . S
Eu555 O567 2.384 . S
Eu555 O570 2.479 . S
Eu555 O571 2.471 . S
Eu555 O572 2.347 . S
Eu555 O575 2.366 . S
Eu555 C585 2.825 . S
C556 O572 1.259 . S
C556 O573 1.265 . S
C557 O574 1.255 . S
C557 O575 1.265 . S
C558 C560 1.380 . S
C558 C561 1.374 . S
C558 C564 1.507 . S
C559 C560 1.384 . S
C559 C563 1.387 . S
C559 H586 0.930 . S
C560 C558 1.380 . S
C560 C559 1.384 . S
C560 H587 0.931 . S
C561 C558 1.374 . S
C561 C562 1.390 . S
C561 H588 0.930 . S
C562 C561 1.390 . S
C562 C563 1.391 . S
C562 H589 0.930 . S
C563 C559 1.387 . S
C563 C562 1.391 . S
C564 Tb554 2.825 . S
C564 C558 1.507 . S
C564 O577 1.238 . S
C564 O578 1.247 . S
O565 Tb554 2.347 . S
O565 C569 1.259 . S
O566 Eu555 2.418 . S
O566 C569 1.265 . S
O567 Eu555 2.384 . S
O567 C576 1.255 . S
O568 Tb554 2.366 . S
O568 C576 1.265 . S
C569 O565 1.259 . S
C569 O566 1.265 . S
O570 Eu555 2.479 . S
O570 C585 1.238 . S
O571 Eu555 2.471 . S
O571 C585 1.247 . S
O572 Eu555 2.347 . S
O572 C556 1.259 . S
O573 Tb554 2.418 . S
O573 C556 1.265 . S
O574 Tb554 2.384 . S
O574 C557 1.255 . S
O575 Eu555 2.366 . S
O575 C557 1.265 . S
C576 O567 1.255 . S
C576 O568 1.265 . S
O577 Tb554 2.479 . S
O577 C564 1.238 . S
O578 Tb554 2.471 . S
O578 C564 1.247 . S
C579 C582 1.380 . S
C579 C583 1.374 . S
C579 C585 1.507 . S
C580 C581 1.387 . S
C580 C584 1.391 . S
C581 C580 1.387 . S
C581 C582 1.384 . S
C581 H590 0.930 . S
C582 C579 1.380 . S
C582 C581 1.384 . S
C582 H591 0.931 . S
C583 C579 1.374 . S
C583 C584 1.390 . S
C583 H592 0.930 . S
C584 C580 1.391 . S
C584 C583 1.390 . S
C584 H593 0.930 . S
C585 Eu555 2.825 . S
C585 O570 1.238 . S
C585 O571 1.247 . S
C585 C579 1.507 . S
H586 C559 0.930 . S
H587 C560 0.931 . S
H588 C561 0.930 . S
H589 C562 0.930 . S
H590 C581 0.930 . S
H591 C582 0.931 . S
H592 C583 0.930 . S
H593 C584 0.930 . S
H594 C602 0.929 . S
H595 C604 0.930 . S
H596 C606 0.930 . S
H597 C609 0.929 . S
H598 C612 0.930 . S
H599 C614 0.960 . S
H600 C614 0.960 . S
H601 C614 0.960 . S
C602 H594 0.929 . S
C602 C603 1.377 . S
C602 C604 1.384 . S
C603 C602 1.377 . S
C603 C609 1.390 . S
C604 H595 0.930 . S
C604 C602 1.384 . S
C604 C605 1.372 . S
C605 C604 1.372 . S
C605 C606 1.400 . S
C605 C610 1.490 . S
C606 H596 0.930 . S
C606 C605 1.400 . S
C606 C609 1.386 . S
H607 C623 0.930 . S
H608 C624 0.931 . S
C609 H597 0.929 . S
C609 C603 1.390 . S
C609 C606 1.386 . S
C610 C605 1.490 . S
C610 C612 1.395 . S
C610 C613 1.403 . S
H611 C617 0.930 . S
C612 H598 0.930 . S
C612 C610 1.395 . S
C612 C615 1.403 . S
C613 C610 1.403 . S
C613 C614 1.524 . S
C613 C617 1.400 . S
C614 H599 0.960 . S
C614 H600 0.960 . S
C614 H601 0.960 . S
C614 C613 1.524 . S
C615 C612 1.403 . S
C615 C616 1.392 . S
C615 C619 1.495 . S
C616 C615 1.392 . S
C616 C617 1.385 . S
C616 C618 1.478 . S
C617 H611 0.930 . S
C617 C613 1.400 . S
C617 C616 1.385 . S
C618 C616 1.478 . S
C618 C620 1.381 . S
C618 C624 1.383 . S
C619 C615 1.495 . S
C619 H625 0.959 . S
C619 H626 0.961 . S
C619 H627 0.960 . S
C620 C618 1.381 . S
C620 C621 1.394 . S
C620 H628 0.930 . S
C621 C620 1.394 . S
C621 C622 1.383 . S
C621 H629 0.929 . S
C622 C621 1.383 . S
C622 C623 1.377 . S
C623 H607 0.930 . S
C623 C622 1.377 . S
C623 C624 1.379 . S
C624 H608 0.931 . S
C624 C618 1.383 . S
C624 C623 1.379 . S
H625 C619 0.959 . S
H626 C619 0.961 . S
H627 C619 0.960 . S
H628 C620 0.930 . S
H629 C621 0.929 . S
H630 C638 0.929 . S
H631 C640 0.930 . S
H632 C642 0.930 . S
H633 C645 0.929 . S
H634 C648 0.930 . S
H635 C650 0.960 . S
H636 C650 0.960 . S
H637 C650 0.960 . S
C638 H630 0.929 . S
C638 C639 1.377 . S
C638 C640 1.384 . S
C639 C638 1.377 . S
C639 C645 1.390 . S
C640 H631 0.930 . S
C640 C638 1.384 . S
C640 C641 1.372 . S
C641 C640 1.372 . S
C641 C642 1.400 . S
C641 C646 1.490 . S
C642 H632 0.930 . S
C642 C641 1.400 . S
C642 C645 1.386 . S
H643 C659 0.930 . S
H644 C660 0.931 . S
C645 H633 0.929 . S
C645 C639 1.390 . S
C645 C642 1.386 . S
C646 C641 1.490 . S
C646 C648 1.395 . S
C646 C649 1.403 . S
H647 C653 0.930 . S
C648 H634 0.930 . S
C648 C646 1.395 . S
C648 C651 1.403 . S
C649 C646 1.403 . S
C649 C650 1.524 . S
C649 C653 1.400 . S
C650 H635 0.960 . S
C650 H636 0.960 . S
C650 H637 0.960 . S
C650 C649 1.524 . S
C651 C648 1.403 . S
C651 C652 1.392 . S
C651 C655 1.495 . S
C652 C651 1.392 . S
C652 C653 1.385 . S
C652 C654 1.478 . S
C653 H647 0.930 . S
C653 C649 1.400 . S
C653 C652 1.385 . S
C654 C652 1.478 . S
C654 C656 1.381 . S
C654 C660 1.383 . S
C655 C651 1.495 . S
C655 H661 0.959 . S
C655 H662 0.961 . S
C655 H663 0.960 . S
C656 C654 1.381 . S
C656 C657 1.394 . S
C656 H664 0.930 . S
C657 C656 1.394 . S
C657 C658 1.383 . S
C657 H665 0.929 . S
C658 C657 1.383 . S
C658 C659 1.377 . S
C659 H643 0.930 . S
C659 C658 1.377 . S
C659 C660 1.379 . S
C660 H644 0.931 . S
C660 C654 1.383 . S
C660 C659 1.379 . S
H661 C655 0.959 . S
H662 C655 0.961 . S
H663 C655 0.960 . S
H664 C656 0.930 . S
H665 C657 0.929 . S
H666 C674 0.929 . S
H667 C676 0.930 . S
H668 C678 0.930 . S
H669 C681 0.929 . S
H670 C684 0.930 . S
H671 C686 0.960 . S
H672 C686 0.960 . S
H673 C686 0.960 . S
C674 H666 0.929 . S
C674 C675 1.377 . S
C674 C676 1.384 . S
C675 C674 1.377 . S
C675 C681 1.390 . S
C676 H667 0.930 . S
C676 C674 1.384 . S
C676 C677 1.372 . S
C677 C676 1.372 . S
C677 C678 1.400 . S
C677 C682 1.490 . S
C678 H668 0.930 . S
C678 C677 1.400 . S
C678 C681 1.386 . S
H679 C695 0.930 . S
H680 C696 0.931 . S
C681 H669 0.929 . S
C681 C675 1.390 . S
C681 C678 1.386 . S
C682 C677 1.490 . S
C682 C684 1.395 . S
C682 C685 1.403 . S
H683 C689 0.930 . S
C684 H670 0.930 . S
C684 C682 1.395 . S
C684 C687 1.403 . S
C685 C682 1.403 . S
C685 C686 1.524 . S
C685 C689 1.400 . S
C686 H671 0.960 . S
C686 H672 0.960 . S
C686 H673 0.960 . S
C686 C685 1.524 . S
C687 C684 1.403 . S
C687 C688 1.392 . S
C687 C691 1.495 . S
C688 C687 1.392 . S
C688 C689 1.385 . S
C688 C690 1.478 . S
C689 H683 0.930 . S
C689 C685 1.400 . S
C689 C688 1.385 . S
C690 C688 1.478 . S
C690 C692 1.381 . S
C690 C696 1.383 . S
C691 C687 1.495 . S
C691 H697 0.959 . S
C691 H698 0.961 . S
C691 H699 0.960 . S
C692 C690 1.381 . S
C692 C693 1.394 . S
C692 H700 0.930 . S
C693 C692 1.394 . S
C693 C694 1.383 . S
C693 H701 0.929 1_554 S
C694 C693 1.383 . S
C694 C695 1.377 . S
C695 H679 0.930 . S
C695 C694 1.377 . S
C695 C696 1.379 . S
C696 H680 0.931 . S
C696 C690 1.383 . S
C696 C695 1.379 . S
H697 C691 0.959 . S
H698 C691 0.961 . S
H699 C691 0.960 . S
H700 C692 0.930 . S
H701 C693 0.929 1_556 S
H702 C710 0.929 . S
H703 C712 0.930 . S
H704 C714 0.930 . S
H705 C717 0.929 . S
H706 C720 0.930 . S
H707 C722 0.960 . S
H708 C722 0.960 . S
H709 C722 0.960 . S
C710 H702 0.929 . S
C710 C711 1.377 . S
C710 C712 1.384 . S
C711 C710 1.377 . S
C711 C717 1.390 . S
C712 H703 0.930 . S
C712 C710 1.384 . S
C712 C713 1.372 . S
C713 C712 1.372 . S
C713 C714 1.400 . S
C713 C718 1.490 . S
C714 H704 0.930 . S
C714 C713 1.400 . S
C714 C717 1.386 . S
H715 C731 0.930 . S
H716 C732 0.931 . S
C717 H705 0.929 . S
C717 C711 1.390 . S
C717 C714 1.386 . S
C718 C713 1.490 . S
C718 C720 1.395 . S
C718 C721 1.403 . S
H719 C725 0.930 . S
C720 H706 0.930 . S
C720 C718 1.395 . S
C720 C723 1.403 . S
C721 C718 1.403 . S
C721 C722 1.524 . S
C721 C725 1.400 . S
C722 H707 0.960 . S
C722 H708 0.960 . S
C722 H709 0.960 . S
C722 C721 1.524 . S
C723 C720 1.403 . S
C723 C724 1.392 . S
C723 C727 1.480 1_556 S
C724 C723 1.392 . S
C724 C725 1.385 . S
C724 C726 1.478 . S
C725 H719 0.930 . S
C725 C721 1.400 . S
C725 C724 1.385 . S
C726 C724 1.478 . S
C726 C728 1.381 1_556 S
C726 C732 1.383 . S
C727 C723 1.480 1_554 S
C727 H733 0.968 . S
C727 H734 0.935 1_554 S
C727 H735 0.995 . S
C728 C726 1.381 1_554 S
C728 C729 1.394 . S
C728 H736 0.930 . S
C729 C728 1.394 . S
C729 C730 1.384 1_554 S
C729 H737 0.929 . S
C730 C729 1.384 1_556 S
C730 C731 1.376 . S
C731 H715 0.930 . S
C731 C730 1.376 . S
C731 C732 1.379 . S
C732 H716 0.931 . S
C732 C726 1.383 . S
C732 C731 1.379 . S
H733 C727 0.968 . S
H734 C727 0.935 1_556 S
H735 C727 0.995 . S
H736 C728 0.930 . S
H737 C729 0.929 . S
H738 C746 0.929 . S
H739 C748 0.930 . S
H740 C750 0.930 . S
H741 C753 0.929 . S
H742 C756 0.930 . S
H743 C758 0.960 . S
H744 C758 0.960 . S
H745 C758 0.960 . S
C746 H738 0.929 . S
C746 C747 1.377 . S
C746 C748 1.384 . S
C747 C746 1.377 . S
C747 C753 1.390 . S
C748 H739 0.930 . S
C748 C746 1.384 . S
C748 C749 1.372 . S
C749 C748 1.372 . S
C749 C750 1.400 . S
C749 C754 1.490 . S
C750 H740 0.930 . S
C750 C749 1.400 . S
C750 C753 1.386 . S
H751 C767 0.930 . S
H752 C768 0.931 1_554 S
C753 H741 0.929 . S
C753 C747 1.390 . S
C753 C750 1.386 . S
C754 C749 1.490 . S
C754 C756 1.395 . S
C754 C757 1.403 . S
H755 C761 0.930 . S
C756 H742 0.930 . S
C756 C754 1.395 . S
C756 C759 1.403 . S
C757 C754 1.403 . S
C757 C758 1.524 . S
C757 C761 1.400 . S
C758 H743 0.960 . S
C758 H744 0.960 . S
C758 H745 0.960 . S
C758 C757 1.524 . S
C759 C756 1.403 . S
C759 C760 1.392 . S
C759 C763 1.495 . S
C760 C759 1.392 . S
C760 C761 1.385 . S
C760 C762 1.478 . S
C761 H755 0.930 . S
C761 C757 1.400 . S
C761 C760 1.385 . S
C762 C760 1.478 . S
C762 C764 1.381 . S
C762 C768 1.383 . S
C763 C759 1.495 . S
C763 H769 0.959 . S
C763 H770 0.961 . S
C763 H771 0.960 . S
C764 C762 1.381 . S
C764 C765 1.394 . S
C764 H772 0.930 . S
C765 C764 1.394 . S
C765 C766 1.383 . S
C765 H773 0.929 . S
C766 C765 1.383 . S
C766 C767 1.377 1_556 S
C767 H751 0.930 . S
C767 C766 1.377 1_554 S
C767 C768 1.379 1_554 S
C768 H752 0.931 1_556 S
C768 C762 1.383 . S
C768 C767 1.379 1_556 S
H769 C763 0.959 . S
H770 C763 0.961 . S
H771 C763 0.960 . S
H772 C764 0.930 . S
H773 C765 0.929 . S
H774 C782 0.929 . S
H775 C784 0.930 . S
H776 C786 0.930 . S
H777 C789 0.929 . S
H778 C792 0.919 1_554 S
H779 C794 0.960 . S
H780 C794 0.960 . S
H781 C794 0.960 . S
C782 H774 0.929 . S
C782 C783 1.377 . S
C782 C784 1.384 . S
C783 C782 1.377 . S
C783 C789 1.390 . S
C784 H775 0.930 . S
C784 C782 1.384 . S
C784 C785 1.372 . S
C785 C784 1.372 . S
C785 C786 1.400 . S
C785 C790 1.490 . S
C786 H776 0.930 . S
C786 C785 1.400 . S
C786 C789 1.386 . S
H787 C803 0.930 . S
H788 C804 0.931 . S
C789 H777 0.929 . S
C789 C783 1.390 . S
C789 C786 1.386 . S
C790 C785 1.490 . S
C790 C792 1.395 . S
C790 C793 1.403 . S
H791 C797 0.930 . S
C792 H778 0.919 1_556 S
C792 C790 1.395 . S
C792 C795 1.403 1_556 S
C793 C790 1.403 . S
C793 C794 1.524 . S
C793 C797 1.400 . S
C794 H779 0.960 . S
C794 H780 0.960 . S
C794 H781 0.960 . S
C794 C793 1.524 . S
C795 C792 1.403 1_554 S
C795 C796 1.392 1_554 S
C795 C799 1.495 . S
C796 C795 1.392 1_556 S
C796 C797 1.385 . S
C796 C798 1.477 . S
C797 H791 0.930 . S
C797 C793 1.400 . S
C797 C796 1.385 . S
C798 C796 1.477 . S
C798 C800 1.381 . S
C798 C804 1.383 1_556 S
C799 C795 1.495 . S
C799 H805 0.959 . S
C799 H806 0.961 . S
C799 H807 0.960 . S
C800 C798 1.381 . S
C800 C801 1.394 . S
C800 H808 0.930 . S
C801 C800 1.394 . S
C801 C802 1.383 1_556 S
C801 H809 0.929 . S
C802 C801 1.383 1_554 S
C802 C803 1.377 . S
C803 H787 0.930 . S
C803 C802 1.377 . S
C803 C804 1.379 . S
C804 H788 0.931 . S
C804 C798 1.383 1_554 S
C804 C803 1.379 . S
H805 C799 0.959 . S
H806 C799 0.961 . S
H807 C799 0.960 . S
H808 C800 0.930 . S
H809 C801 0.929 . S
H810 C818 0.929 . S
H811 C820 0.930 . S
H812 C822 0.930 . S
H813 C825 0.929 . S
H814 C828 0.930 . S
H815 C830 0.960 . S
H816 C830 0.960 . S
H817 C830 0.960 . S
C818 H810 0.929 . S
C818 C819 1.377 . S
C818 C820 1.384 . S
C819 C818 1.377 . S
C819 C825 1.390 . S
C820 H811 0.930 . S
C820 C818 1.384 . S
C820 C821 1.372 . S
C821 C820 1.372 . S
C821 C822 1.400 . S
C821 C826 1.490 . S
C822 H812 0.930 . S
C822 C821 1.400 . S
C822 C825 1.386 . S
H823 C839 0.930 . S
H824 C840 0.941 . S
C825 H813 0.929 . S
C825 C819 1.390 . S
C825 C822 1.386 . S
C826 C821 1.490 . S
C826 C828 1.395 . S
C826 C829 1.403 . S
H827 C833 0.930 . S
C828 H814 0.930 . S
C828 C826 1.395 . S
C828 C831 1.403 . S
C829 C826 1.403 . S
C829 C830 1.524 . S
C829 C833 1.400 . S
C830 H815 0.960 . S
C830 H816 0.960 . S
C830 H817 0.960 . S
C830 C829 1.524 . S
C831 C828 1.403 . S
C831 C832 1.392 . S
C831 C835 1.495 1_556 S
C832 C831 1.392 . S
C832 C833 1.385 . S
C832 C834 1.478 . S
C833 H827 0.930 . S
C833 C829 1.400 . S
C833 C832 1.385 . S
C834 C832 1.478 . S
C834 C836 1.381 . S
C834 C840 1.364 1_556 S
C835 C831 1.495 1_554 S
C835 H841 0.959 . S
C835 H842 0.961 . S
C835 H843 0.960 1_554 S
C836 C834 1.381 . S
C836 C837 1.394 . S
C836 H844 0.930 . S
C837 C836 1.394 . S
C837 C838 1.383 . S
C837 H845 0.929 . S
C838 C837 1.383 . S
C838 C839 1.377 1_556 S
C839 H823 0.930 . S
C839 C838 1.377 1_554 S
C839 C840 1.390 . S
C840 H824 0.941 . S
C840 C834 1.364 1_554 S
C840 C839 1.390 . S
H841 C835 0.959 . S
H842 C835 0.961 . S
H843 C835 0.960 1_556 S
H844 C836 0.930 . S
H845 C837 0.929 . S
H846 C854 0.929 . S
H847 C856 0.930 . S
H848 C858 0.930 . S
H849 C861 0.929 . S
H850 C864 0.930 . S
H851 C866 0.960 . S
H852 C866 0.960 . S
H853 C866 0.960 . S
C854 H846 0.929 . S
C854 C855 1.377 . S
C854 C856 1.384 . S
C855 C854 1.377 . S
C855 C861 1.390 . S
C856 H847 0.930 . S
C856 C854 1.384 . S
C856 C857 1.372 . S
C857 C856 1.372 . S
C857 C858 1.400 . S
C857 C862 1.490 . S
C858 H848 0.930 . S
C858 C857 1.400 . S
C858 C861 1.386 . S
H859 C875 0.949 . S
H860 C876 0.931 1_554 S
C861 H849 0.929 . S
C861 C855 1.390 . S
C861 C858 1.386 . S
C862 C857 1.490 . S
C862 C864 1.395 . S
C862 C865 1.403 . S
H863 C869 0.930 . S
C864 H850 0.930 . S
C864 C862 1.395 . S
C864 C867 1.403 . S
C865 C862 1.403 . S
C865 C866 1.524 . S
C865 C869 1.400 . S
C866 H851 0.960 . S
C866 H852 0.960 . S
C866 H853 0.960 . S
C866 C865 1.524 . S
C867 C864 1.403 . S
C867 C868 1.392 . S
C867 C871 1.495 . S
C868 C867 1.392 . S
C868 C869 1.385 . S
C868 C870 1.478 . S
C869 H863 0.930 . S
C869 C865 1.400 . S
C869 C868 1.385 . S
C870 C868 1.478 . S
C870 C872 1.381 . S
C870 C876 1.383 . S
C871 C867 1.495 . S
C871 H877 0.959 . S
C871 H878 0.961 . S
C871 H879 0.960 . S
C872 C870 1.381 . S
C872 C873 1.394 . S
C872 H880 0.930 . S
C873 C872 1.394 . S
C873 C874 1.383 . S
C873 H881 0.929 . S
C874 C873 1.383 . S
C874 C875 1.362 1_556 S
C875 H859 0.949 . S
C875 C874 1.362 1_554 S
C875 C876 1.374 1_554 S
C876 H860 0.931 1_556 S
C876 C870 1.383 . S
C876 C875 1.374 1_556 S
H877 C871 0.959 . S
H878 C871 0.961 . S
H879 C871 0.960 . S
H880 C872 0.930 . S
H881 C873 0.929 . S
H882 C890 0.929 . S
H883 C892 0.930 . S
H884 C894 0.930 . S
H885 C897 0.929 . S
H886 C900 0.930 . S
H887 C902 0.960 . S
H888 C902 0.960 . S
H889 C902 0.960 . S
C890 H882 0.929 . S
C890 C891 1.377 1_554 S
C890 C892 1.384 . S
C891 C890 1.377 1_556 S
C891 C897 1.390 . S
C892 H883 0.930 . S
C892 C890 1.384 . S
C892 C893 1.372 1_554 S
C893 C892 1.372 1_556 S
C893 C894 1.400 . S
C893 C898 1.490 . S
C894 H884 0.930 . S
C894 C893 1.400 . S
C894 C897 1.386 . S
H895 C911 0.930 . S
H896 C912 0.931 . S
C897 H885 0.929 . S
C897 C891 1.390 . S
C897 C894 1.386 . S
C898 C893 1.490 . S
C898 C900 1.395 1_556 S
C898 C901 1.403 . S
H899 C905 0.930 . S
C900 H886 0.930 . S
C900 C898 1.395 1_554 S
C900 C903 1.403 . S
C901 C898 1.403 . S
C901 C902 1.524 . S
C901 C905 1.400 . S
C902 H887 0.960 . S
C902 H888 0.960 . S
C902 H889 0.960 . S
C902 C901 1.524 . S
C903 C900 1.403 . S
C903 C904 1.392 . S
C903 C907 1.495 . S
C904 C903 1.392 . S
C904 C905 1.385 1_554 S
C904 C906 1.478 . S
C905 H899 0.930 . S
C905 C901 1.400 . S
C905 C904 1.385 1_556 S
C906 C904 1.478 . S
C906 C908 1.381 . S
C906 C912 1.383 1_554 S
C907 C903 1.495 . S
C907 H913 0.959 . S
C907 H914 0.961 . S
C907 H915 0.960 . S
C908 C906 1.381 . S
C908 C909 1.394 . S
C908 H916 0.930 . S
C909 C908 1.394 . S
C909 C910 1.383 . S
C909 H917 0.929 . S
C910 C909 1.383 . S
C910 C911 1.377 1_554 S
C911 H895 0.930 . S
C911 C910 1.377 1_556 S
C911 C912 1.379 . S
C912 H896 0.931 . S
C912 C906 1.383 1_556 S
C912 C911 1.379 . S
H913 C907 0.959 . S
H914 C907 0.961 . S
H915 C907 0.960 . S
H916 C908 0.930 . S
H917 C909 0.929 . S
H918 C926 0.929 . S
H919 C928 0.930 . S
H920 C930 0.930 . S
H921 C933 0.929 . S
H922 C936 0.930 . S
H923 C938 0.960 . S
H924 C938 0.960 . S
H925 C938 0.960 . S
C926 H918 0.929 . S
C926 C927 1.377 . S
C926 C928 1.384 . S
C927 C926 1.377 . S
C927 C933 1.390 . S
C928 H919 0.930 . S
C928 C926 1.384 . S
C928 C929 1.372 . S
C929 C928 1.372 . S
C929 C930 1.400 . S
C929 C934 1.490 . S
C930 H920 0.930 . S
C930 C929 1.400 . S
C930 C933 1.386 . S
H931 C947 0.930 . S
H932 C948 0.931 . S
C933 H921 0.929 . S
C933 C927 1.390 . S
C933 C930 1.386 . S
C934 C929 1.490 . S
C934 C936 1.395 . S
C934 C937 1.403 . S
H935 C941 0.930 . S
C936 H922 0.930 . S
C936 C934 1.395 . S
C936 C939 1.403 . S
C937 C934 1.403 . S
C937 C938 1.524 . S
C937 C941 1.400 . S
C938 H923 0.960 . S
C938 H924 0.960 . S
C938 H925 0.960 . S
C938 C937 1.524 . S
C939 C936 1.403 . S
C939 C940 1.392 . S
C939 C943 1.495 . S
C940 C939 1.392 . S
C940 C941 1.385 . S
C940 C942 1.478 . S
C941 H935 0.930 . S
C941 C937 1.400 . S
C941 C940 1.385 . S
C942 C940 1.478 . S
C942 C944 1.381 . S
C942 C948 1.383 . S
C943 C939 1.495 . S
C943 H949 0.959 . S
C943 H950 0.961 . S
C943 H951 0.960 . S
C944 C942 1.381 . S
C944 C945 1.394 . S
C944 H952 0.930 . S
C945 C944 1.394 . S
C945 C946 1.383 . S
C945 H953 0.929 . S
C946 C945 1.383 . S
C946 C947 1.377 . S
C947 H931 0.930 . S
C947 C946 1.377 . S
C947 C948 1.379 . S
C948 H932 0.931 . S
C948 C942 1.383 . S
C948 C947 1.379 . S
H949 C943 0.959 . S
H950 C943 0.961 . S
H951 C943 0.960 . S
H952 C944 0.930 . S
H953 C945 0.929 . S
H954 C962 0.929 . S
H955 C964 0.930 . S
H956 C966 0.930 . S
H957 C969 0.929 . S
H958 C972 0.930 . S
H959 C974 0.960 . S
H960 C974 0.960 . S
H961 C974 0.960 . S
C962 H954 0.929 . S
C962 C963 1.377 . S
C962 C964 1.384 . S
C963 C962 1.377 . S
C963 C969 1.390 . S
C964 H955 0.930 . S
C964 C962 1.384 . S
C964 C965 1.372 . S
C965 C964 1.372 . S
C965 C966 1.400 . S
C965 C970 1.490 . S
C966 H956 0.930 . S
C966 C965 1.400 . S
C966 C969 1.386 . S
H967 C983 0.930 . S
H968 C984 0.931 . S
C969 H957 0.929 . S
C969 C963 1.390 . S
C969 C966 1.386 . S
C970 C965 1.490 . S
C970 C972 1.395 . S
C970 C973 1.403 . S
H971 C977 0.930 . S
C972 H958 0.930 . S
C972 C970 1.395 . S
C972 C975 1.403 . S
C973 C970 1.403 . S
C973 C974 1.524 . S
C973 C977 1.400 . S
C974 H959 0.960 . S
C974 H960 0.960 . S
C974 H961 0.960 . S
C974 C973 1.524 . S
C975 C972 1.403 . S
C975 C976 1.392 . S
C975 C979 1.495 . S
C976 C975 1.392 . S
C976 C977 1.385 . S
C976 C978 1.478 . S
C977 H971 0.930 . S
C977 C973 1.400 . S
C977 C976 1.385 . S
C978 C976 1.478 . S
C978 C980 1.381 . S
C978 C984 1.383 . S
C979 C975 1.495 . S
C979 H985 0.959 . S
C979 H986 0.961 . S
C979 H987 0.960 . S
C980 C978 1.381 . S
C980 C981 1.394 . S
C980 H988 0.930 . S
C981 C980 1.394 . S
C981 C982 1.383 . S
C981 H989 0.929 . S
C982 C981 1.383 . S
C982 C983 1.377 . S
C983 H967 0.930 . S
C983 C982 1.377 . S
C983 C984 1.379 . S
C984 H968 0.931 . S
C984 C978 1.383 . S
C984 C983 1.379 . S
H985 C979 0.959 . S
H986 C979 0.961 . S
H987 C979 0.960 . S
H988 C980 0.930 . S
H989 C981 0.929 . S
H990 C998 0.929 . S
H991 C1000 0.930 . S
H992 C1002 0.930 . S
H993 C1005 0.929 . S
H994 C1008 0.930 . S
H995 C1010 0.960 . S
H996 C1010 0.960 . S
H997 C1010 0.960 . S
C998 H990 0.929 . S
C998 C999 1.377 . S
C998 C1000 1.384 . S
C999 C998 1.377 . S
C999 C1005 1.390 . S
C1000 H991 0.930 . S
C1000 C998 1.384 . S
C1000 C1001 1.372 . S
C1001 C1000 1.372 . S
C1001 C1002 1.400 . S
C1001 C1006 1.490 . S
C1002 H992 0.930 . S
C1002 C1001 1.400 . S
C1002 C1005 1.386 . S
H1003 C1019 0.930 . S
H1004 C1020 0.931 . S
C1005 H993 0.929 . S
C1005 C999 1.390 . S
C1005 C1002 1.386 . S
C1006 C1001 1.490 . S
C1006 C1008 1.395 . S
C1006 C1009 1.403 . S
H1007 C1013 0.930 . S
C1008 H994 0.930 . S
C1008 C1006 1.395 . S
C1008 C1011 1.403 . S
C1009 C1006 1.403 . S
C1009 C1010 1.524 . S
C1009 C1013 1.400 . S
C1010 H995 0.960 . S
C1010 H996 0.960 . S
C1010 H997 0.960 . S
C1010 C1009 1.524 . S
C1011 C1008 1.403 . S
C1011 C1012 1.392 . S
C1011 C1015 1.495 . S
C1012 C1011 1.392 . S
C1012 C1013 1.385 . S
C1012 C1014 1.478 . S
C1013 H1007 0.930 . S
C1013 C1009 1.400 . S
C1013 C1012 1.385 . S
C1014 C1012 1.478 . S
C1014 C1016 1.381 . S
C1014 C1020 1.383 . S
C1015 C1011 1.495 . S
C1015 H1021 0.959 . S
C1015 H1022 0.961 . S
C1015 H1023 0.960 . S
C1016 C1014 1.381 . S
C1016 C1017 1.394 . S
C1016 H1024 0.930 1_554 S
C1017 C1016 1.394 . S
C1017 C1018 1.383 . S
C1017 H1025 0.929 1_554 S
C1018 C1017 1.383 . S
C1018 C1019 1.377 . S
C1019 H1003 0.930 . S
C1019 C1018 1.377 . S
C1019 C1020 1.379 . S
C1020 H1004 0.931 . S
C1020 C1014 1.383 . S
C1020 C1019 1.379 . S
H1021 C1015 0.959 . S
H1022 C1015 0.961 . S
H1023 C1015 0.960 . S
H1024 C1016 0.930 1_556 S
H1025 C1017 0.929 1_556 S
H1026 C1034 0.929 . S
H1027 C1036 0.930 . S
H1028 C1038 0.930 . S
H1029 C1041 0.929 . S
H1030 C1044 0.930 . S
H1031 C1046 0.960 . S
H1032 C1046 0.960 . S
H1033 C1046 0.960 . S
C1034 H1026 0.929 . S
C1034 C1035 1.377 . S
C1034 C1036 1.384 . S
C1035 C1034 1.377 . S
C1035 C1041 1.390 . S
C1036 H1027 0.930 . S
C1036 C1034 1.384 . S
C1036 C1037 1.372 . S
C1037 C1036 1.372 . S
C1037 C1038 1.400 . S
C1037 C1042 1.490 . S
C1038 H1028 0.930 . S
C1038 C1037 1.400 . S
C1038 C1041 1.386 . S
H1039 C1055 0.930 . S
H1040 C1056 0.931 . S
C1041 H1029 0.929 . S
C1041 C1035 1.390 . S
C1041 C1038 1.386 . S
C1042 C1037 1.490 . S
C1042 C1044 1.395 . S
C1042 C1045 1.403 . S
H1043 C1049 0.930 . S
C1044 H1030 0.930 . S
C1044 C1042 1.395 . S
C1044 C1047 1.403 1_655 S
C1045 C1042 1.403 . S
C1045 C1046 1.524 . S
C1045 C1049 1.400 1_655 S
C1046 H1031 0.960 . S
C1046 H1032 0.960 . S
C1046 H1033 0.960 . S
C1046 C1045 1.524 . S
C1047 C1044 1.403 1_455 S
C1047 C1048 1.392 . S
C1047 C1051 1.495 . S
C1048 C1047 1.392 . S
C1048 C1049 1.385 . S
C1048 C1050 1.478 . S
C1049 H1043 0.930 . S
C1049 C1045 1.400 1_455 S
C1049 C1048 1.385 . S
C1050 C1048 1.478 . S
C1050 C1052 1.381 . S
C1050 C1056 1.383 . S
C1051 C1047 1.495 . S
C1051 H1057 0.959 . S
C1051 H1058 0.961 . S
C1051 H1059 0.960 . S
C1052 C1050 1.381 . S
C1052 C1053 1.394 . S
C1052 H1060 0.930 . S
C1053 C1052 1.394 . S
C1053 C1054 1.383 . S
C1053 H1061 0.929 . S
C1054 C1053 1.383 . S
C1054 C1055 1.377 . S
C1055 H1039 0.930 . S
C1055 C1054 1.377 . S
C1055 C1056 1.379 . S
C1056 H1040 0.931 . S
C1056 C1050 1.383 . S
C1056 C1055 1.379 . S
H1057 C1051 0.959 . S
H1058 C1051 0.961 . S
H1059 C1051 0.960 . S
H1060 C1052 0.930 . S
H1061 C1053 0.929 . S
H1062 C1070 0.929 . S
H1063 C1072 0.930 . S
H1064 C1074 0.930 . S
H1065 C1077 0.929 . S
H1066 C1080 0.930 . S
H1067 C1082 0.960 . S
H1068 C1082 0.960 . S
H1069 C1082 0.960 . S
C1070 H1062 0.929 . S
C1070 C1071 1.377 . S
C1070 C1072 1.384 . S
C1071 C1070 1.377 . S
C1071 C1077 1.390 . S
C1072 H1063 0.930 . S
C1072 C1070 1.384 . S
C1072 C1073 1.372 . S
C1073 C1072 1.372 . S
C1073 C1074 1.400 . S
C1073 C1078 1.490 . S
C1074 H1064 0.930 . S
C1074 C1073 1.400 . S
C1074 C1077 1.386 . S
H1075 C1091 0.930 . S
H1076 C1092 0.931 . S
C1077 H1065 0.929 . S
C1077 C1071 1.390 . S
C1077 C1074 1.386 . S
C1078 C1073 1.490 . S
C1078 C1080 1.395 . S
C1078 C1081 1.403 . S
H1079 C1085 0.930 . S
C1080 H1066 0.930 . S
C1080 C1078 1.395 . S
C1080 C1083 1.403 . S
C1081 C1078 1.403 . S
C1081 C1082 1.524 . S
C1081 C1085 1.400 . S
C1082 H1067 0.960 . S
C1082 H1068 0.960 . S
C1082 H1069 0.960 . S
C1082 C1081 1.524 . S
C1083 C1080 1.403 . S
C1083 C1084 1.392 . S
C1083 C1087 1.495 . S
C1084 C1083 1.392 . S
C1084 C1085 1.385 . S
C1084 C1086 1.478 . S
C1085 H1079 0.930 . S
C1085 C1081 1.400 . S
C1085 C1084 1.385 . S
C1086 C1084 1.478 . S
C1086 C1088 1.381 . S
C1086 C1092 1.383 . S
C1087 C1083 1.495 . S
C1087 H1093 0.959 . S
C1087 H1094 0.961 . S
C1087 H1095 0.960 . S
C1088 C1086 1.381 . S
C1088 C1089 1.394 . S
C1088 H1096 0.930 . S
C1089 C1088 1.394 . S
C1089 C1090 1.383 . S
C1089 H1097 0.929 . S
C1090 C1089 1.383 . S
C1090 C1091 1.377 . S
C1091 H1075 0.930 . S
C1091 C1090 1.377 . S
C1091 C1092 1.379 . S
C1092 H1076 0.931 . S
C1092 C1086 1.383 . S
C1092 C1091 1.379 . S
H1093 C1087 0.959 . S
H1094 C1087 0.961 . S
H1095 C1087 0.960 . S
H1096 C1088 0.930 . S
H1097 C1089 0.929 . S
H1098 C1106 0.929 . S
H1099 C1108 0.930 . S
H1100 C1110 0.930 . S
H1101 C1113 0.929 . S
H1102 C1116 0.930 . S
H1103 C1118 0.960 . S
H1104 C1118 0.960 . S
H1105 C1118 0.960 . S
C1106 H1098 0.929 . S
C1106 C1107 1.377 . S
C1106 C1108 1.384 . S
C1107 C1106 1.377 . S
C1107 C1113 1.390 . S
C1108 H1099 0.930 . S
C1108 C1106 1.384 . S
C1108 C1109 1.372 . S
C1109 C1108 1.372 . S
C1109 C1110 1.400 . S
C1109 C1114 1.490 . S
C1110 H1100 0.930 . S
C1110 C1109 1.400 . S
C1110 C1113 1.386 . S
H1111 C1127 0.930 . S
H1112 C1128 0.931 . S
C1113 H1101 0.929 . S
C1113 C1107 1.390 . S
C1113 C1110 1.386 . S
C1114 C1109 1.490 . S
C1114 C1116 1.395 . S
C1114 C1117 1.403 . S
H1115 C1121 0.930 1_565 S
C1116 H1102 0.930 . S
C1116 C1114 1.395 . S
C1116 C1119 1.403 . S
C1117 C1114 1.403 . S
C1117 C1118 1.524 . S
C1117 C1121 1.400 . S
C1118 H1103 0.960 . S
C1118 H1104 0.960 . S
C1118 H1105 0.960 . S
C1118 C1117 1.524 . S
C1119 C1116 1.403 . S
C1119 C1120 1.392 1_545 S
C1119 C1123 1.495 . S
C1120 C1119 1.392 1_565 S
C1120 C1121 1.385 1_565 S
C1120 C1122 1.478 . S
C1121 H1115 0.930 1_545 S
C1121 C1117 1.400 . S
C1121 C1120 1.385 1_545 S
C1122 C1120 1.478 . S
C1122 C1124 1.381 . S
C1122 C1128 1.383 . S
C1123 C1119 1.495 . S
C1123 H1129 0.959 . S
C1123 H1130 0.961 . S
C1123 H1131 0.960 . S
C1124 C1122 1.381 . S
C1124 C1125 1.394 . S
C1124 H1132 0.930 . S
C1125 C1124 1.394 . S
C1125 C1126 1.383 . S
C1125 H1133 0.929 . S
C1126 C1125 1.383 . S
C1126 C1127 1.377 . S
C1127 H1111 0.930 . S
C1127 C1126 1.377 . S
C1127 C1128 1.379 . S
C1128 H1112 0.931 . S
C1128 C1122 1.383 . S
C1128 C1127 1.379 . S
H1129 C1123 0.959 . S
H1130 C1123 0.961 . S
H1131 C1123 0.960 . S
H1132 C1124 0.930 . S
H1133 C1125 0.929 . S
H1134 C1142 0.929 . S
H1135 C1144 0.930 . S
H1136 C1146 0.930 . S
H1137 C1149 0.929 . S
H1138 C1152 0.930 . S
H1139 C1154 0.960 . S
H1140 C1154 0.960 . S
H1141 C1154 0.960 . S
C1142 H1134 0.929 . S
C1142 C1143 1.377 . S
C1142 C1144 1.384 . S
C1143 C1142 1.377 . S
C1143 C1149 1.390 . S
C1144 H1135 0.930 . S
C1144 C1142 1.384 . S
C1144 C1145 1.372 . S
C1145 C1144 1.372 . S
C1145 C1146 1.400 . S
C1145 C1150 1.490 . S
C1146 H1136 0.930 . S
C1146 C1145 1.400 . S
C1146 C1149 1.386 . S
H1147 C1163 0.930 . S
H1148 C1164 0.931 . S
C1149 H1137 0.929 . S
C1149 C1143 1.390 . S
C1149 C1146 1.386 . S
C1150 C1145 1.490 . S
C1150 C1152 1.395 . S
C1150 C1153 1.403 . S
H1151 C1157 0.930 . S
C1152 H1138 0.930 . S
C1152 C1150 1.395 . S
C1152 C1155 1.403 . S
C1153 C1150 1.403 . S
C1153 C1154 1.524 . S
C1153 C1157 1.400 . S
C1154 H1139 0.960 . S
C1154 H1140 0.960 . S
C1154 H1141 0.960 . S
C1154 C1153 1.524 . S
C1155 C1152 1.403 . S
C1155 C1156 1.392 . S
C1155 C1159 1.495 . S
C1156 C1155 1.392 . S
C1156 C1157 1.385 . S
C1156 C1158 1.478 . S
C1157 H1151 0.930 . S
C1157 C1153 1.400 . S
C1157 C1156 1.385 . S
C1158 C1156 1.478 . S
C1158 C1160 1.381 . S
C1158 C1164 1.383 . S
C1159 C1155 1.495 . S
C1159 H1165 0.959 . S
C1159 H1166 0.961 . S
C1159 H1167 0.960 . S
C1160 C1158 1.381 . S
C1160 C1161 1.394 . S
C1160 H1168 0.930 . S
C1161 C1160 1.394 . S
C1161 C1162 1.383 . S
C1161 H1169 0.929 . S
C1162 C1161 1.383 . S
C1162 C1163 1.377 . S
C1163 H1147 0.930 . S
C1163 C1162 1.377 . S
C1163 C1164 1.379 . S
C1164 H1148 0.931 . S
C1164 C1158 1.383 . S
C1164 C1163 1.379 . S
H1165 C1159 0.959 . S
H1166 C1159 0.961 . S
H1167 C1159 0.960 . S
H1168 C1160 0.930 . S
H1169 C1161 0.929 . S
H1170 C1178 0.929 . S
H1171 C1180 0.930 . S
H1172 C1182 0.930 . S
H1173 C1185 0.929 . S
H1174 C1188 0.930 . S
H1175 C1190 0.960 . S
H1176 C1190 0.960 . S
H1177 C1190 0.960 . S
C1178 H1170 0.929 . S
C1178 C1179 1.377 . S
C1178 C1180 1.384 . S
C1179 C1178 1.377 . S
C1179 C1185 1.390 . S
C1180 H1171 0.930 . S
C1180 C1178 1.384 . S
C1180 C1181 1.372 . S
C1181 C1180 1.372 . S
C1181 C1182 1.400 . S
C1181 C1186 1.490 . S
C1182 H1172 0.930 . S
C1182 C1181 1.400 . S
C1182 C1185 1.386 . S
H1183 C1199 0.930 . S
H1184 C1200 0.931 . S
C1185 H1173 0.929 . S
C1185 C1179 1.390 . S
C1185 C1182 1.386 . S
C1186 C1181 1.490 . S
C1186 C1188 1.395 . S
C1186 C1189 1.403 . S
H1187 C1193 0.930 . S
C1188 H1174 0.930 . S
C1188 C1186 1.395 . S
C1188 C1191 1.403 . S
C1189 C1186 1.403 . S
C1189 C1190 1.524 . S
C1189 C1193 1.400 . S
C1190 H1175 0.960 . S
C1190 H1176 0.960 . S
C1190 H1177 0.960 . S
C1190 C1189 1.524 . S
C1191 C1188 1.403 . S
C1191 C1192 1.392 . S
C1191 C1195 1.495 . S
C1192 C1191 1.392 . S
C1192 C1193 1.385 . S
C1192 C1194 1.478 . S
C1193 H1187 0.930 . S
C1193 C1189 1.400 . S
C1193 C1192 1.385 . S
C1194 C1192 1.478 . S
C1194 C1196 1.381 . S
C1194 C1200 1.383 . S
C1195 C1191 1.495 . S
C1195 H1201 0.959 . S
C1195 H1202 0.961 . S
C1195 H1203 0.960 . S
C1196 C1194 1.381 . S
C1196 C1197 1.394 . S
C1196 H1204 0.930 . S
C1197 C1196 1.394 . S
C1197 C1198 1.383 . S
C1197 H1205 0.929 . S
C1198 C1197 1.383 . S
C1198 C1199 1.377 . S
C1199 H1183 0.930 . S
C1199 C1198 1.377 . S
C1199 C1200 1.379 . S
C1200 H1184 0.931 . S
C1200 C1194 1.383 . S
C1200 C1199 1.379 . S
H1201 C1195 0.959 . S
H1202 C1195 0.961 . S
H1203 C1195 0.960 . S
H1204 C1196 0.930 . S
H1205 C1197 0.929 . S
H1206 C1214 0.929 . S
H1207 C1216 0.930 . S
H1208 C1218 0.930 . S
H1209 C1221 0.929 . S
H1210 C1224 0.930 . S
H1211 C1226 0.960 . S
H1212 C1226 0.960 . S
H1213 C1226 0.960 . S
C1214 H1206 0.929 . S
C1214 C1215 1.377 . S
C1214 C1216 1.384 . S
C1215 C1214 1.377 . S
C1215 C1221 1.390 . S
C1216 H1207 0.930 . S
C1216 C1214 1.384 . S
C1216 C1217 1.372 . S
C1217 C1216 1.372 . S
C1217 C1218 1.400 . S
C1217 C1222 1.490 . S
C1218 H1208 0.930 . S
C1218 C1217 1.400 . S
C1218 C1221 1.386 . S
H1219 C1235 0.930 . S
H1220 C1236 0.931 . S
C1221 H1209 0.929 . S
C1221 C1215 1.390 . S
C1221 C1218 1.386 . S
C1222 C1217 1.490 . S
C1222 C1224 1.395 . S
C1222 C1225 1.403 . S
H1223 C1229 0.930 . S
C1224 H1210 0.930 . S
C1224 C1222 1.395 . S
C1224 C1227 1.403 . S
C1225 C1222 1.403 . S
C1225 C1226 1.524 . S
C1225 C1229 1.400 . S
C1226 H1211 0.960 . S
C1226 H1212 0.960 . S
C1226 H1213 0.960 . S
C1226 C1225 1.524 . S
C1227 C1224 1.403 . S
C1227 C1228 1.392 . S
C1227 C1231 1.495 . S
C1228 C1227 1.392 . S
C1228 C1229 1.385 . S
C1228 C1230 1.478 . S
C1229 H1223 0.930 . S
C1229 C1225 1.400 . S
C1229 C1228 1.385 . S
C1230 C1228 1.478 . S
C1230 C1232 1.381 . S
C1230 C1236 1.383 . S
C1231 C1227 1.495 . S
C1231 H1237 0.959 . S
C1231 H1238 0.961 . S
C1231 H1239 0.960 . S
C1232 C1230 1.381 . S
C1232 C1233 1.394 . S
C1232 H1240 0.930 . S
C1233 C1232 1.394 . S
C1233 C1234 1.383 . S
C1233 H1241 0.929 . S
C1234 C1233 1.383 . S
C1234 C1235 1.377 . S
C1235 H1219 0.930 . S
C1235 C1234 1.377 . S
C1235 C1236 1.379 . S
C1236 H1220 0.931 . S
C1236 C1230 1.383 . S
C1236 C1235 1.379 . S
H1237 C1231 0.959 . S
H1238 C1231 0.961 . S
H1239 C1231 0.960 . S
H1240 C1232 0.930 . S
H1241 C1233 0.929 . S
H1242 C1250 0.929 . S
H1243 C1252 0.930 . S
H1244 C1254 0.930 . S
H1245 C1257 0.929 . S
H1246 C1260 0.930 . S
H1247 C1262 0.960 . S
H1248 C1262 0.960 . S
H1249 C1262 0.960 . S
C1250 H1242 0.929 . S
C1250 C1251 1.377 . S
C1250 C1252 1.384 . S
C1251 C1250 1.377 . S
C1251 C1257 1.390 . S
C1252 H1243 0.930 . S
C1252 C1250 1.384 . S
C1252 C1253 1.372 . S
C1253 C1252 1.372 . S
C1253 C1254 1.400 . S
C1253 C1258 1.490 . S
C1254 H1244 0.930 . S
C1254 C1253 1.400 . S
C1254 C1257 1.386 . S
H1255 C1271 0.930 . S
H1256 C1272 0.931 . S
C1257 H1245 0.929 . S
C1257 C1251 1.390 . S
C1257 C1254 1.386 . S
C1258 C1253 1.490 . S
C1258 C1260 1.395 . S
C1258 C1261 1.403 . S
H1259 C1265 0.930 . S
C1260 H1246 0.930 . S
C1260 C1258 1.395 . S
C1260 C1263 1.403 . S
C1261 C1258 1.403 . S
C1261 C1262 1.524 . S
C1261 C1265 1.400 . S
C1262 H1247 0.960 . S
C1262 H1248 0.960 . S
C1262 H1249 0.960 . S
C1262 C1261 1.524 . S
C1263 C1260 1.403 . S
C1263 C1264 1.392 . S
C1263 C1267 1.495 . S
C1264 C1263 1.392 . S
C1264 C1265 1.385 . S
C1264 C1266 1.478 . S
C1265 H1259 0.930 . S
C1265 C1261 1.400 . S
C1265 C1264 1.385 . S
C1266 C1264 1.478 . S
C1266 C1268 1.381 . S
C1266 C1272 1.383 . S
C1267 C1263 1.495 . S
C1267 H1273 0.959 . S
C1267 H1274 0.961 . S
C1267 H1275 0.960 . S
C1268 C1266 1.381 . S
C1268 C1269 1.394 . S
C1268 H1276 0.930 . S
C1269 C1268 1.394 . S
C1269 C1270 1.383 . S
C1269 H1277 0.929 . S
C1270 C1269 1.383 . S
C1270 C1271 1.377 . S
C1271 H1255 0.930 . S
C1271 C1270 1.377 . S
C1271 C1272 1.379 . S
C1272 H1256 0.931 . S
C1272 C1266 1.383 . S
C1272 C1271 1.379 . S
H1273 C1267 0.959 . S
H1274 C1267 0.961 . S
H1275 C1267 0.960 . S
H1276 C1268 0.930 . S
H1277 C1269 0.929 . S
H1278 C1286 0.929 . S
H1279 C1288 0.930 . S
H1280 C1290 0.930 . S
H1281 C1293 0.929 . S
H1282 C1296 0.930 . S
H1283 C1298 0.960 . S
H1284 C1298 0.960 . S
H1285 C1298 0.960 . S
C1286 H1278 0.929 . S
C1286 C1287 1.377 . S
C1286 C1288 1.384 . S
C1287 C1286 1.377 . S
C1287 C1293 1.390 . S
C1288 H1279 0.930 . S
C1288 C1286 1.384 . S
C1288 C1289 1.372 . S
C1289 C1288 1.372 . S
C1289 C1290 1.400 . S
C1289 C1294 1.490 . S
C1290 H1280 0.930 . S
C1290 C1289 1.400 . S
C1290 C1293 1.386 . S
H1291 C1307 0.930 . S
H1292 C1308 0.931 . S
C1293 H1281 0.929 . S
C1293 C1287 1.390 . S
C1293 C1290 1.386 . S
C1294 C1289 1.490 . S
C1294 C1296 1.395 . S
C1294 C1297 1.403 . S
H1295 C1301 0.930 . S
C1296 H1282 0.930 . S
C1296 C1294 1.395 . S
C1296 C1299 1.403 . S
C1297 C1294 1.403 . S
C1297 C1298 1.524 . S
C1297 C1301 1.400 . S
C1298 H1283 0.960 . S
C1298 H1284 0.960 . S
C1298 H1285 0.960 . S
C1298 C1297 1.524 . S
C1299 C1296 1.403 . S
C1299 C1300 1.392 . S
C1299 C1303 1.495 . S
C1300 C1299 1.392 . S
C1300 C1301 1.385 . S
C1300 C1302 1.478 . S
C1301 H1295 0.930 . S
C1301 C1297 1.400 . S
C1301 C1300 1.385 . S
C1302 C1300 1.478 . S
C1302 C1304 1.381 . S
C1302 C1308 1.383 . S
C1303 C1299 1.495 . S
C1303 H1309 0.959 . S
C1303 H1310 0.961 . S
C1303 H1311 0.960 . S
C1304 C1302 1.381 . S
C1304 C1305 1.394 . S
C1304 H1312 0.930 . S
C1305 C1304 1.394 . S
C1305 C1306 1.383 . S
C1305 H1313 0.929 . S
C1306 C1305 1.383 . S
C1306 C1307 1.377 . S
C1307 H1291 0.930 . S
C1307 C1306 1.377 . S
C1307 C1308 1.379 . S
C1308 H1292 0.931 . S
C1308 C1302 1.383 . S
C1308 C1307 1.379 . S
H1309 C1303 0.959 . S
H1310 C1303 0.961 . S
H1311 C1303 0.960 . S
H1312 C1304 0.930 . S
H1313 C1305 0.929 . S
H1314 C1322 0.929 . S
H1315 C1324 0.930 . S
H1316 C1326 0.930 . S
H1317 C1329 0.929 . S
H1318 C1332 0.930 . S
H1319 C1334 0.960 . S
H1320 C1334 0.960 . S
H1321 C1334 0.960 . S
C1322 H1314 0.929 . S
C1322 C1323 1.377 . S
C1322 C1324 1.384 . S
C1323 C1322 1.377 . S
C1323 C1329 1.390 . S
C1324 H1315 0.930 . S
C1324 C1322 1.384 . S
C1324 C1325 1.372 . S
C1325 C1324 1.372 . S
C1325 C1326 1.400 . S
C1325 C1330 1.490 . S
C1326 H1316 0.930 . S
C1326 C1325 1.400 . S
C1326 C1329 1.386 . S
H1327 C1343 0.930 . S
H1328 C1344 0.931 . S
C1329 H1317 0.929 . S
C1329 C1323 1.390 . S
C1329 C1326 1.386 . S
C1330 C1325 1.490 . S
C1330 C1332 1.395 . S
C1330 C1333 1.403 . S
H1331 C1337 0.930 . S
C1332 H1318 0.930 . S
C1332 C1330 1.395 . S
C1332 C1335 1.403 . S
C1333 C1330 1.403 . S
C1333 C1334 1.524 . S
C1333 C1337 1.400 . S
C1334 H1319 0.960 . S
C1334 H1320 0.960 . S
C1334 H1321 0.960 . S
C1334 C1333 1.524 . S
C1335 C1332 1.403 . S
C1335 C1336 1.392 . S
C1335 C1339 1.495 . S
C1336 C1335 1.392 . S
C1336 C1337 1.385 . S
C1336 C1338 1.478 . S
C1337 H1331 0.930 . S
C1337 C1333 1.400 . S
C1337 C1336 1.385 . S
C1338 C1336 1.478 . S
C1338 C1340 1.381 . S
C1338 C1344 1.383 . S
C1339 C1335 1.495 . S
C1339 H1345 0.959 . S
C1339 H1346 0.961 . S
C1339 H1347 0.960 . S
C1340 C1338 1.381 . S
C1340 C1341 1.394 . S
C1340 H1348 0.930 . S
C1341 C1340 1.394 . S
C1341 C1342 1.383 . S
C1341 H1349 0.929 . S
C1342 C1341 1.383 . S
C1342 C1343 1.377 . S
C1343 H1327 0.930 . S
C1343 C1342 1.377 . S
C1343 C1344 1.379 . S
C1344 H1328 0.931 . S
C1344 C1338 1.383 . S
C1344 C1343 1.379 . S
H1345 C1339 0.959 . S
H1346 C1339 0.961 . S
H1347 C1339 0.960 . S
H1348 C1340 0.930 . S
H1349 C1341 0.929 . S
H1350 C1358 0.929 . S
H1351 C1360 0.930 . S
H1352 C1362 0.930 . S
H1353 C1365 0.929 . S
H1354 C1368 0.930 . S
H1355 C1370 0.960 . S
H1356 C1370 0.960 . S
H1357 C1370 0.960 . S
C1358 H1350 0.929 . S
C1358 C1359 1.377 . S
C1358 C1360 1.384 . S
C1359 C1358 1.377 . S
C1359 C1365 1.390 . S
C1360 H1351 0.930 . S
C1360 C1358 1.384 . S
C1360 C1361 1.372 . S
C1361 C1360 1.372 . S
C1361 C1362 1.400 . S
C1361 C1366 1.490 1_545 S
C1362 H1352 0.930 . S
C1362 C1361 1.400 . S
C1362 C1365 1.386 . S
H1363 C1379 0.930 . S
H1364 C1380 0.931 . S
C1365 H1353 0.929 . S
C1365 C1359 1.390 . S
C1365 C1362 1.386 . S
C1366 C1361 1.490 1_565 S
C1366 C1368 1.395 . S
C1366 C1369 1.403 . S
H1367 C1373 0.930 . S
C1368 H1354 0.930 . S
C1368 C1366 1.395 . S
C1368 C1371 1.403 . S
C1369 C1366 1.403 . S
C1369 C1370 1.524 . S
C1369 C1373 1.400 . S
C1370 H1355 0.960 . S
C1370 H1356 0.960 . S
C1370 H1357 0.960 . S
C1370 C1369 1.524 . S
C1371 C1368 1.403 . S
C1371 C1372 1.392 . S
C1371 C1375 1.495 . S
C1372 C1371 1.392 . S
C1372 C1373 1.385 . S
C1372 C1374 1.478 . S
C1373 H1367 0.930 . S
C1373 C1369 1.400 . S
C1373 C1372 1.385 . S
C1374 C1372 1.478 . S
C1374 C1376 1.381 . S
C1374 C1380 1.383 . S
C1375 C1371 1.495 . S
C1375 H1381 0.959 . S
C1375 H1382 0.961 . S
C1375 H1383 0.960 . S
C1376 C1374 1.381 . S
C1376 C1377 1.394 . S
C1376 H1384 0.930 . S
C1377 C1376 1.394 . S
C1377 C1378 1.383 . S
C1377 H1385 0.929 . S
C1378 C1377 1.383 . S
C1378 C1379 1.377 . S
C1379 H1363 0.930 . S
C1379 C1378 1.377 . S
C1379 C1380 1.379 . S
C1380 H1364 0.931 . S
C1380 C1374 1.383 . S
C1380 C1379 1.379 . S
H1381 C1375 0.959 . S
H1382 C1375 0.961 . S
H1383 C1375 0.960 . S
H1384 C1376 0.930 . S
H1385 C1377 0.929 . S
H1386 C1394 0.929 . S
H1387 C1396 0.930 . S
H1388 C1398 0.930 1_455 S
H1389 C1401 0.929 . S
H1390 C1404 0.930 . S
H1391 C1406 0.960 . S
H1392 C1406 0.960 . S
H1393 C1406 0.960 . S
C1394 H1386 0.929 . S
C1394 C1395 1.377 . S
C1394 C1396 1.384 1_655 S
C1395 C1394 1.377 . S
C1395 C1401 1.390 . S
C1396 H1387 0.930 . S
C1396 C1394 1.384 1_455 S
C1396 C1397 1.372 . S
C1397 C1396 1.372 . S
C1397 C1398 1.400 1_455 S
C1397 C1402 1.490 . S
C1398 H1388 0.930 1_655 S
C1398 C1397 1.400 1_655 S
C1398 C1401 1.386 . S
H1399 C1415 0.930 . S
H1400 C1416 0.931 . S
C1401 H1389 0.929 . S
C1401 C1395 1.390 . S
C1401 C1398 1.386 . S
C1402 C1397 1.490 . S
C1402 C1404 1.395 . S
C1402 C1405 1.403 . S
H1403 C1409 0.930 . S
C1404 H1390 0.930 . S
C1404 C1402 1.395 . S
C1404 C1407 1.403 . S
C1405 C1402 1.403 . S
C1405 C1406 1.524 . S
C1405 C1409 1.400 . S
C1406 H1391 0.960 . S
C1406 H1392 0.960 . S
C1406 H1393 0.960 . S
C1406 C1405 1.524 . S
C1407 C1404 1.403 . S
C1407 C1408 1.392 . S
C1407 C1411 1.495 . S
C1408 C1407 1.392 . S
C1408 C1409 1.385 . S
C1408 C1410 1.478 . S
C1409 H1403 0.930 . S
C1409 C1405 1.400 . S
C1409 C1408 1.385 . S
C1410 C1408 1.478 . S
C1410 C1412 1.381 . S
C1410 C1416 1.383 . S
C1411 C1407 1.495 . S
C1411 H1417 0.959 . S
C1411 H1418 0.961 . S
C1411 H1419 0.960 . S
C1412 C1410 1.381 . S
C1412 C1413 1.394 . S
C1412 H1420 0.930 . S
C1413 C1412 1.394 . S
C1413 C1414 1.383 . S
C1413 H1421 0.929 . S
C1414 C1413 1.383 . S
C1414 C1415 1.377 . S
C1415 H1399 0.930 . S
C1415 C1414 1.377 . S
C1415 C1416 1.379 . S
C1416 H1400 0.931 . S
C1416 C1410 1.383 . S
C1416 C1415 1.379 . S
H1417 C1411 0.959 . S
H1418 C1411 0.961 . S
H1419 C1411 0.960 . S
H1420 C1412 0.930 . S
H1421 C1413 0.929 . S
H1422 C1430 0.929 . S
H1423 C1432 0.930 . S
H1424 C1434 0.930 . S
H1425 C1437 0.929 . S
H1426 C1440 0.930 . S
H1427 C1442 0.960 . S
H1428 C1442 0.960 . S
H1429 C1442 0.960 . S
C1430 H1422 0.929 . S
C1430 C1431 1.377 . S
C1430 C1432 1.384 . S
C1431 C1430 1.377 . S
C1431 C1437 1.390 . S
C1432 H1423 0.930 . S
C1432 C1430 1.384 . S
C1432 C1433 1.372 . S
C1433 C1432 1.372 . S
C1433 C1434 1.400 . S
C1433 C1438 1.490 . S
C1434 H1424 0.930 . S
C1434 C1433 1.400 . S
C1434 C1437 1.386 . S
H1435 C1451 0.930 . S
H1436 C1452 0.931 . S
C1437 H1425 0.929 . S
C1437 C1431 1.390 . S
C1437 C1434 1.386 . S
C1438 C1433 1.490 . S
C1438 C1440 1.395 . S
C1438 C1441 1.403 . S
H1439 C1445 0.930 . S
C1440 H1426 0.930 . S
C1440 C1438 1.395 . S
C1440 C1443 1.403 . S
C1441 C1438 1.403 . S
C1441 C1442 1.524 . S
C1441 C1445 1.400 . S
C1442 H1427 0.960 . S
C1442 H1428 0.960 . S
C1442 H1429 0.960 . S
C1442 C1441 1.524 . S
C1443 C1440 1.403 . S
C1443 C1444 1.392 . S
C1443 C1447 1.495 . S
C1444 C1443 1.392 . S
C1444 C1445 1.385 . S
C1444 C1446 1.478 . S
C1445 H1439 0.930 . S
C1445 C1441 1.400 . S
C1445 C1444 1.385 . S
C1446 C1444 1.478 . S
C1446 C1448 1.381 . S
C1446 C1452 1.383 . S
C1447 C1443 1.495 . S
C1447 H1453 0.959 . S
C1447 H1454 0.961 . S
C1447 H1455 0.960 . S
C1448 C1446 1.381 . S
C1448 C1449 1.394 . S
C1448 H1456 0.930 . S
C1449 C1448 1.394 . S
C1449 C1450 1.383 . S
C1449 H1457 0.929 . S
C1450 C1449 1.383 . S
C1450 C1451 1.377 . S
C1451 H1435 0.930 . S
C1451 C1450 1.377 . S
C1451 C1452 1.379 . S
C1452 H1436 0.931 . S
C1452 C1446 1.383 . S
C1452 C1451 1.379 . S
H1453 C1447 0.959 . S
H1454 C1447 0.961 . S
H1455 C1447 0.960 . S
H1456 C1448 0.930 . S
H1457 C1449 0.929 . S
H1458 C1466 0.929 . S
H1459 C1468 0.930 . S
H1460 C1470 0.930 . S
H1461 C1473 0.929 . S
H1462 C1476 0.930 . S
H1463 C1478 0.960 . S
H1464 C1478 0.960 . S
H1465 C1478 0.960 . S
C1466 H1458 0.929 . S
C1466 C1467 1.377 . S
C1466 C1468 1.384 . S
C1467 C1466 1.377 . S
C1467 C1473 1.390 . S
C1468 H1459 0.930 . S
C1468 C1466 1.384 . S
C1468 C1469 1.372 . S
C1469 C1468 1.372 . S
C1469 C1470 1.400 . S
C1469 C1474 1.490 . S
C1470 H1460 0.930 . S
C1470 C1469 1.400 . S
C1470 C1473 1.386 . S
H1471 C1487 0.930 . S
H1472 C1488 0.931 . S
C1473 H1461 0.929 . S
C1473 C1467 1.390 . S
C1473 C1470 1.386 . S
C1474 C1469 1.490 . S
C1474 C1476 1.395 . S
C1474 C1477 1.403 . S
H1475 C1481 0.930 . S
C1476 H1462 0.930 . S
C1476 C1474 1.395 . S
C1476 C1479 1.403 . S
C1477 C1474 1.403 . S
C1477 C1478 1.524 . S
C1477 C1481 1.400 . S
C1478 H1463 0.960 . S
C1478 H1464 0.960 . S
C1478 H1465 0.960 . S
C1478 C1477 1.524 . S
C1479 C1476 1.403 . S
C1479 C1480 1.392 . S
C1479 C1483 1.495 . S
C1480 C1479 1.392 . S
C1480 C1481 1.385 . S
C1480 C1482 1.478 . S
C1481 H1475 0.930 . S
C1481 C1477 1.400 . S
C1481 C1480 1.385 . S
C1482 C1480 1.478 . S
C1482 C1484 1.381 . S
C1482 C1488 1.383 . S
C1483 C1479 1.495 . S
C1483 H1489 0.959 . S
C1483 H1490 0.961 . S
C1483 H1491 0.960 . S
C1484 C1482 1.381 . S
C1484 C1485 1.394 . S
C1484 H1492 0.930 . S
C1485 C1484 1.394 . S
C1485 C1486 1.383 . S
C1485 H1493 0.929 . S
C1486 C1485 1.383 . S
C1486 C1487 1.377 . S
C1487 H1471 0.930 . S
C1487 C1486 1.377 . S
C1487 C1488 1.379 . S
C1488 H1472 0.931 . S
C1488 C1482 1.383 . S
C1488 C1487 1.379 . S
H1489 C1483 0.959 . S
H1490 C1483 0.961 . S
H1491 C1483 0.960 . S
H1492 C1484 0.930 . S
H1493 C1485 0.929 . S
H1494 C1502 0.929 . S
H1495 C1504 0.930 . S
H1496 C1506 0.930 . S
H1497 C1509 0.929 . S
H1498 C1512 0.930 . S
H1499 C1514 0.960 . S
H1500 C1514 0.960 . S
H1501 C1514 0.960 . S
C1502 H1494 0.929 . S
C1502 C1503 1.377 . S
C1502 C1504 1.384 . S
C1503 C1502 1.377 . S
C1503 C1509 1.390 . S
C1504 H1495 0.930 . S
C1504 C1502 1.384 . S
C1504 C1505 1.372 . S
C1505 C1504 1.372 . S
C1505 C1506 1.400 . S
C1505 C1510 1.490 . S
C1506 H1496 0.930 . S
C1506 C1505 1.400 . S
C1506 C1509 1.386 . S
H1507 C1523 0.930 . S
H1508 C1524 0.931 . S
C1509 H1497 0.929 . S
C1509 C1503 1.390 . S
C1509 C1506 1.386 . S
C1510 C1505 1.490 . S
C1510 C1512 1.395 . S
C1510 C1513 1.403 . S
H1511 C1517 0.930 . S
C1512 H1498 0.930 . S
C1512 C1510 1.395 . S
C1512 C1515 1.403 . S
C1513 C1510 1.403 . S
C1513 C1514 1.524 . S
C1513 C1517 1.400 . S
C1514 H1499 0.960 . S
C1514 H1500 0.960 . S
C1514 H1501 0.960 . S
C1514 C1513 1.524 . S
C1515 C1512 1.403 . S
C1515 C1516 1.392 . S
C1515 C1519 1.495 . S
C1516 C1515 1.392 . S
C1516 C1517 1.385 . S
C1516 C1518 1.478 . S
C1517 H1511 0.930 . S
C1517 C1513 1.400 . S
C1517 C1516 1.385 . S
C1518 C1516 1.478 . S
C1518 C1520 1.381 . S
C1518 C1524 1.383 . S
C1519 C1515 1.495 . S
C1519 H1525 0.959 . S
C1519 H1526 0.961 . S
C1519 H1527 0.960 . S
C1520 C1518 1.381 . S
C1520 C1521 1.394 . S
C1520 H1528 0.930 . S
C1521 C1520 1.394 . S
C1521 C1522 1.383 . S
C1521 H1529 0.929 . S
C1522 C1521 1.383 . S
C1522 C1523 1.377 . S
C1523 H1507 0.930 . S
C1523 C1522 1.377 . S
C1523 C1524 1.379 . S
C1524 H1508 0.931 . S
C1524 C1518 1.383 . S
C1524 C1523 1.379 . S
H1525 C1519 0.959 . S
H1526 C1519 0.961 . S
H1527 C1519 0.960 . S
H1528 C1520 0.930 . S
H1529 C1521 0.929 . S
H1530 C1538 0.929 . S
H1531 C1540 0.930 . S
H1532 C1542 0.930 . S
H1533 C1545 0.929 . S
H1534 C1548 0.930 . S
H1535 C1550 0.960 . S
H1536 C1550 0.960 . S
H1537 C1550 0.960 . S
C1538 H1530 0.929 . S
C1538 C1539 1.377 . S
C1538 C1540 1.384 . S
C1539 C1538 1.377 . S
C1539 C1545 1.390 . S
C1540 H1531 0.930 . S
C1540 C1538 1.384 . S
C1540 C1541 1.372 . S
C1541 C1540 1.372 . S
C1541 C1542 1.400 . S
C1541 C1546 1.490 . S
C1542 H1532 0.930 . S
C1542 C1541 1.400 . S
C1542 C1545 1.386 . S
H1543 C1559 0.930 . S
H1544 C1560 0.931 . S
C1545 H1533 0.929 . S
C1545 C1539 1.390 . S
C1545 C1542 1.386 . S
C1546 C1541 1.490 . S
C1546 C1548 1.395 . S
C1546 C1549 1.403 . S
H1547 C1553 0.930 . S
C1548 H1534 0.930 . S
C1548 C1546 1.395 . S
C1548 C1551 1.403 . S
C1549 C1546 1.403 . S
C1549 C1550 1.524 . S
C1549 C1553 1.400 . S
C1550 H1535 0.960 . S
C1550 H1536 0.960 . S
C1550 H1537 0.960 . S
C1550 C1549 1.524 . S
C1551 C1548 1.403 . S
C1551 C1552 1.392 . S
C1551 C1555 1.495 . S
C1552 C1551 1.392 . S
C1552 C1553 1.385 . S
C1552 C1554 1.478 . S
C1553 H1547 0.930 . S
C1553 C1549 1.400 . S
C1553 C1552 1.385 . S
C1554 C1552 1.478 . S
C1554 C1556 1.381 . S
C1554 C1560 1.383 . S
C1555 C1551 1.495 . S
C1555 H1561 0.959 . S
C1555 H1562 0.961 . S
C1555 H1563 0.960 . S
C1556 C1554 1.381 . S
C1556 C1557 1.394 . S
C1556 H1564 0.930 . S
C1557 C1556 1.394 . S
C1557 C1558 1.383 . S
C1557 H1565 0.929 . S
C1558 C1557 1.383 . S
C1558 C1559 1.377 . S
C1559 H1543 0.930 . S
C1559 C1558 1.377 . S
C1559 C1560 1.379 . S
C1560 H1544 0.931 . S
C1560 C1554 1.383 . S
C1560 C1559 1.379 . S
H1561 C1555 0.959 . S
H1562 C1555 0.961 . S
H1563 C1555 0.960 . S
H1564 C1556 0.930 . S
H1565 C1557 0.929 . S
H1566 C1574 0.929 . S
H1567 C1576 0.930 . S
H1568 C1578 0.930 . S
H1569 C1581 0.929 . S
H1570 C1584 0.930 . S
H1571 C1586 0.960 . S
H1572 C1586 0.960 . S
H1573 C1586 0.960 . S
C1574 H1566 0.929 . S
C1574 C1575 1.377 . S
C1574 C1576 1.384 . S
C1575 C1574 1.377 . S
C1575 C1581 1.390 . S
C1576 H1567 0.930 . S
C1576 C1574 1.384 . S
C1576 C1577 1.372 . S
C1577 C1576 1.372 . S
C1577 C1578 1.400 . S
C1577 C1582 1.490 . S
C1578 H1568 0.930 . S
C1578 C1577 1.400 . S
C1578 C1581 1.386 . S
H1579 C1595 0.930 . S
H1580 C1596 0.931 . S
C1581 H1569 0.929 . S
C1581 C1575 1.390 . S
C1581 C1578 1.386 . S
C1582 C1577 1.490 . S
C1582 C1584 1.395 . S
C1582 C1585 1.403 . S
H1583 C1589 0.930 . S
C1584 H1570 0.930 . S
C1584 C1582 1.395 . S
C1584 C1587 1.403 1_565 S
C1585 C1582 1.403 . S
C1585 C1586 1.524 . S
C1585 C1589 1.400 1_565 S
C1586 H1571 0.960 . S
C1586 H1572 0.960 . S
C1586 H1573 0.960 . S
C1586 C1585 1.524 . S
C1587 C1584 1.403 1_545 S
C1587 C1588 1.392 . S
C1587 C1591 1.495 . S
C1588 C1587 1.392 . S
C1588 C1589 1.385 . S
C1588 C1590 1.478 . S
C1589 H1583 0.930 . S
C1589 C1585 1.400 1_545 S
C1589 C1588 1.385 . S
C1590 C1588 1.478 . S
C1590 C1592 1.381 . S
C1590 C1596 1.383 . S
C1591 C1587 1.495 . S
C1591 H1597 0.959 . S
C1591 H1598 0.961 . S
C1591 H1599 0.960 . S
C1592 C1590 1.381 . S
C1592 C1593 1.394 . S
C1592 H1600 0.930 . S
C1593 C1592 1.394 . S
C1593 C1594 1.383 . S
C1593 H1601 0.929 . S
C1594 C1593 1.383 . S
C1594 C1595 1.377 . S
C1595 H1579 0.930 . S
C1595 C1594 1.377 . S
C1595 C1596 1.379 . S
C1596 H1580 0.931 . S
C1596 C1590 1.383 . S
C1596 C1595 1.379 . S
H1597 C1591 0.959 . S
H1598 C1591 0.961 . S
H1599 C1591 0.960 . S
H1600 C1592 0.930 . S
H1601 C1593 0.929 . S
H1602 C1610 0.929 . S
H1603 C1612 0.930 . S
H1604 C1614 0.930 . S
H1605 C1617 0.929 . S
H1606 C1620 0.930 . S
H1607 C1622 0.960 1_655 S
H1608 C1622 0.960 . S
H1609 C1622 0.960 . S
C1610 H1602 0.929 . S
C1610 C1611 1.377 . S
C1610 C1612 1.384 . S
C1611 C1610 1.377 . S
C1611 C1617 1.390 . S
C1612 H1603 0.930 . S
C1612 C1610 1.384 . S
C1612 C1613 1.372 . S
C1613 C1612 1.372 . S
C1613 C1614 1.400 . S
C1613 C1618 1.490 . S
C1614 H1604 0.930 . S
C1614 C1613 1.400 . S
C1614 C1617 1.386 . S
H1615 C1631 0.930 . S
H1616 C1632 0.931 . S
C1617 H1605 0.929 . S
C1617 C1611 1.390 . S
C1617 C1614 1.386 . S
C1618 C1613 1.490 . S
C1618 C1620 1.395 . S
C1618 C1621 1.403 . S
H1619 C1625 0.930 . S
C1620 H1606 0.930 . S
C1620 C1618 1.395 . S
C1620 C1623 1.403 1_455 S
C1621 C1618 1.403 . S
C1621 C1622 1.524 . S
C1621 C1625 1.400 1_455 S
C1622 H1607 0.960 1_455 S
C1622 H1608 0.960 . S
C1622 H1609 0.960 . S
C1622 C1621 1.524 . S
C1623 C1620 1.403 1_655 S
C1623 C1624 1.392 . S
C1623 C1627 1.495 . S
C1624 C1623 1.392 . S
C1624 C1625 1.385 . S
C1624 C1626 1.478 . S
C1625 H1619 0.930 . S
C1625 C1621 1.400 1_655 S
C1625 C1624 1.385 . S
C1626 C1624 1.478 . S
C1626 C1628 1.381 . S
C1626 C1632 1.383 . S
C1627 C1623 1.495 . S
C1627 H1633 0.959 1_655 S
C1627 H1634 0.961 . S
C1627 H1635 0.960 . S
C1628 C1626 1.381 . S
C1628 C1629 1.394 . S
C1628 H1636 0.930 . S
C1629 C1628 1.394 . S
C1629 C1630 1.383 . S
C1629 H1637 0.929 . S
C1630 C1629 1.383 . S
C1630 C1631 1.377 . S
C1631 H1615 0.930 . S
C1631 C1630 1.377 . S
C1631 C1632 1.379 . S
C1632 H1616 0.931 . S
C1632 C1626 1.383 . S
C1632 C1631 1.379 . S
H1633 C1627 0.959 1_455 S
H1634 C1627 0.961 . S
H1635 C1627 0.960 . S
H1636 C1628 0.930 . S
H1637 C1629 0.929 . S
H1638 C1646 0.929 . S
H1639 C1648 0.930 . S
H1640 C1650 0.930 . S
H1641 C1653 0.929 . S
H1642 C1656 0.930 . S
H1643 C1658 0.960 . S
H1644 C1658 0.960 . S
H1645 C1658 0.960 . S
C1646 H1638 0.929 . S
C1646 C1647 1.377 . S
C1646 C1648 1.384 . S
C1647 C1646 1.377 . S
C1647 C1653 1.390 . S
C1648 H1639 0.930 . S
C1648 C1646 1.384 . S
C1648 C1649 1.372 . S
C1649 C1648 1.372 . S
C1649 C1650 1.400 . S
C1649 C1654 1.490 . S
C1650 H1640 0.930 . S
C1650 C1649 1.400 . S
C1650 C1653 1.386 . S
H1651 C1667 0.930 . S
H1652 C1668 0.931 . S
C1653 H1641 0.929 . S
C1653 C1647 1.390 . S
C1653 C1650 1.386 . S
C1654 C1649 1.490 . S
C1654 C1656 1.395 . S
C1654 C1657 1.403 . S
H1655 C1661 0.930 . S
C1656 H1642 0.930 . S
C1656 C1654 1.395 . S
C1656 C1659 1.403 . S
C1657 C1654 1.403 . S
C1657 C1658 1.524 . S
C1657 C1661 1.400 . S
C1658 H1643 0.960 . S
C1658 H1644 0.960 . S
C1658 H1645 0.960 . S
C1658 C1657 1.524 . S
C1659 C1656 1.403 . S
C1659 C1660 1.392 . S
C1659 C1663 1.495 . S
C1660 C1659 1.392 . S
C1660 C1661 1.385 . S
C1660 C1662 1.478 . S
C1661 H1655 0.930 . S
C1661 C1657 1.400 . S
C1661 C1660 1.385 . S
C1662 C1660 1.478 . S
C1662 C1664 1.381 . S
C1662 C1668 1.383 . S
C1663 C1659 1.495 . S
C1663 H1669 0.959 . S
C1663 H1670 0.961 . S
C1663 H1671 0.960 . S
C1664 C1662 1.381 . S
C1664 C1665 1.394 . S
C1664 H1672 0.930 . S
C1665 C1664 1.394 . S
C1665 C1666 1.383 . S
C1665 H1673 0.929 . S
C1666 C1665 1.383 . S
C1666 C1667 1.377 . S
C1667 H1651 0.930 . S
C1667 C1666 1.377 . S
C1667 C1668 1.379 . S
C1668 H1652 0.931 . S
C1668 C1662 1.383 . S
C1668 C1667 1.379 . S
H1669 C1663 0.959 . S
H1670 C1663 0.961 . S
H1671 C1663 0.960 . S
H1672 C1664 0.930 . S
H1673 C1665 0.929 . S
H1674 C1682 0.929 . S
H1675 C1684 0.930 . S
H1676 C1686 0.930 . S
H1677 C1689 0.929 . S
H1678 C1692 0.930 . S
H1679 C1694 0.960 . S
H1680 C1694 0.960 . S
H1681 C1694 0.960 . S
C1682 H1674 0.929 . S
C1682 C1683 1.377 . S
C1682 C1684 1.384 . S
C1683 C1682 1.377 . S
C1683 C1689 1.390 . S
C1684 H1675 0.930 . S
C1684 C1682 1.384 . S
C1684 C1685 1.372 . S
C1685 C1684 1.372 . S
C1685 C1686 1.400 . S
C1685 C1690 1.490 1_455 S
C1686 H1676 0.930 . S
C1686 C1685 1.400 . S
C1686 C1689 1.386 . S
H1687 C1703 0.930 . S
H1688 C1704 0.931 . S
C1689 H1677 0.929 . S
C1689 C1683 1.390 . S
C1689 C1686 1.386 . S
C1690 C1685 1.490 1_655 S
C1690 C1692 1.395 . S
C1690 C1693 1.403 . S
H1691 C1697 0.930 . S
C1692 H1678 0.930 . S
C1692 C1690 1.395 . S
C1692 C1695 1.403 . S
C1693 C1690 1.403 . S
C1693 C1694 1.524 . S
C1693 C1697 1.400 . S
C1694 H1679 0.960 . S
C1694 H1680 0.960 . S
C1694 H1681 0.960 . S
C1694 C1693 1.524 . S
C1695 C1692 1.403 . S
C1695 C1696 1.392 . S
C1695 C1699 1.495 . S
C1696 C1695 1.392 . S
C1696 C1697 1.385 . S
C1696 C1698 1.478 . S
C1697 H1691 0.930 . S
C1697 C1693 1.400 . S
C1697 C1696 1.385 . S
C1698 C1696 1.478 . S
C1698 C1700 1.381 . S
C1698 C1704 1.383 . S
C1699 C1695 1.495 . S
C1699 H1705 0.959 . S
C1699 H1706 0.961 . S
C1699 H1707 0.960 . S
C1700 C1698 1.381 . S
C1700 C1701 1.394 . S
C1700 H1708 0.930 . S
C1701 C1700 1.394 . S
C1701 C1702 1.383 . S
C1701 H1709 0.929 . S
C1702 C1701 1.383 . S
C1702 C1703 1.377 . S
C1703 H1687 0.930 . S
C1703 C1702 1.377 . S
C1703 C1704 1.379 . S
C1704 H1688 0.931 . S
C1704 C1698 1.383 . S
C1704 C1703 1.379 . S
H1705 C1699 0.959 . S
H1706 C1699 0.961 . S
H1707 C1699 0.960 . S
H1708 C1700 0.930 . S
H1709 C1701 0.929 . S
H1710 C1718 0.929 . S
H1711 C1720 0.930 . S
H1712 C1722 0.930 . S
H1713 C1725 0.929 . S
H1714 C1728 0.930 . S
H1715 C1730 0.960 . S
H1716 C1730 0.960 . S
H1717 C1730 0.960 . S
C1718 H1710 0.929 . S
C1718 C1719 1.377 . S
C1718 C1720 1.384 . S
C1719 C1718 1.377 . S
C1719 C1725 1.390 . S
C1720 H1711 0.930 . S
C1720 C1718 1.384 . S
C1720 C1721 1.372 . S
C1721 C1720 1.372 . S
C1721 C1722 1.400 . S
C1721 C1726 1.490 . S
C1722 H1712 0.930 . S
C1722 C1721 1.400 . S
C1722 C1725 1.386 . S
H1723 C1739 0.930 . S
H1724 C1740 0.931 . S
C1725 H1713 0.929 . S
C1725 C1719 1.390 . S
C1725 C1722 1.386 . S
C1726 C1721 1.490 . S
C1726 C1728 1.395 . S
C1726 C1729 1.403 . S
H1727 C1733 0.930 . S
C1728 H1714 0.930 . S
C1728 C1726 1.395 . S
C1728 C1731 1.403 . S
C1729 C1726 1.403 . S
C1729 C1730 1.524 . S
C1729 C1733 1.400 . S
C1730 H1715 0.960 . S
C1730 H1716 0.960 . S
C1730 H1717 0.960 . S
C1730 C1729 1.524 . S
C1731 C1728 1.403 . S
C1731 C1732 1.392 . S
C1731 C1735 1.495 . S
C1732 C1731 1.392 . S
C1732 C1733 1.385 . S
C1732 C1734 1.478 . S
C1733 H1727 0.930 . S
C1733 C1729 1.400 . S
C1733 C1732 1.385 . S
C1734 C1732 1.478 . S
C1734 C1736 1.381 . S
C1734 C1740 1.383 . S
C1735 C1731 1.495 . S
C1735 H1741 0.959 . S
C1735 H1742 0.961 . S
C1735 H1743 0.960 . S
C1736 C1734 1.381 . S
C1736 C1737 1.394 . S
C1736 H1744 0.930 . S
C1737 C1736 1.394 . S
C1737 C1738 1.383 . S
C1737 H1745 0.929 . S
C1738 C1737 1.383 . S
C1738 C1739 1.377 . S
C1739 H1723 0.930 . S
C1739 C1738 1.377 . S
C1739 C1740 1.379 . S
C1740 H1724 0.931 . S
C1740 C1734 1.383 . S
C1740 C1739 1.379 . S
H1741 C1735 0.959 . S
H1742 C1735 0.961 . S
H1743 C1735 0.960 . S
H1744 C1736 0.930 . S
H1745 C1737 0.929 . S
H1746 C1754 0.929 . S
H1747 C1756 0.930 . S
H1748 C1758 0.930 . S
H1749 C1761 0.929 . S
H1750 C1764 0.930 . S
H1751 C1766 0.960 . S
H1752 C1766 0.960 . S
H1753 C1766 0.960 . S
C1754 H1746 0.929 . S
C1754 C1755 1.377 . S
C1754 C1756 1.384 . S
C1755 C1754 1.377 . S
C1755 C1761 1.390 . S
C1756 H1747 0.930 . S
C1756 C1754 1.384 . S
C1756 C1757 1.372 . S
C1757 C1756 1.372 . S
C1757 C1758 1.400 . S
C1757 C1762 1.490 1_565 S
C1758 H1748 0.930 . S
C1758 C1757 1.400 . S
C1758 C1761 1.386 . S
H1759 C1775 0.930 . S
H1760 C1776 0.931 . S
C1761 H1749 0.929 . S
C1761 C1755 1.390 . S
C1761 C1758 1.386 . S
C1762 C1757 1.490 1_545 S
C1762 C1764 1.395 . S
C1762 C1765 1.403 . S
H1763 C1769 0.930 . S
C1764 H1750 0.930 . S
C1764 C1762 1.395 . S
C1764 C1767 1.403 . S
C1765 C1762 1.403 . S
C1765 C1766 1.524 . S
C1765 C1769 1.400 . S
C1766 H1751 0.960 . S
C1766 H1752 0.960 . S
C1766 H1753 0.960 . S
C1766 C1765 1.524 . S
C1767 C1764 1.403 . S
C1767 C1768 1.392 . S
C1767 C1771 1.495 . S
C1768 C1767 1.392 . S
C1768 C1769 1.385 . S
C1768 C1770 1.478 . S
C1769 H1763 0.930 . S
C1769 C1765 1.400 . S
C1769 C1768 1.385 . S
C1770 C1768 1.478 . S
C1770 C1772 1.381 . S
C1770 C1776 1.383 . S
C1771 C1767 1.495 . S
C1771 H1777 0.959 . S
C1771 H1778 0.961 . S
C1771 H1779 0.960 . S
C1772 C1770 1.381 . S
C1772 C1773 1.394 . S
C1772 H1780 0.930 . S
C1773 C1772 1.394 . S
C1773 C1774 1.383 . S
C1773 H1781 0.929 . S
C1774 C1773 1.383 . S
C1774 C1775 1.377 . S
C1775 H1759 0.930 . S
C1775 C1774 1.377 . S
C1775 C1776 1.379 . S
C1776 H1760 0.931 . S
C1776 C1770 1.383 . S
C1776 C1775 1.379 . S
H1777 C1771 0.959 . S
H1778 C1771 0.961 . S
H1779 C1771 0.960 . S
H1780 C1772 0.930 . S
H1781 C1773 0.929 . S
H1782 C1790 0.929 . S
H1783 C1792 0.930 . S
H1784 C1794 0.930 . S
H1785 C1797 0.929 . S
H1786 C1800 0.930 . S
H1787 C1802 0.960 . S
H1788 C1802 0.960 . S
H1789 C1802 0.960 . S
C1790 H1782 0.929 . S
C1790 C1791 1.377 . S
C1790 C1792 1.384 . S
C1791 C1790 1.377 . S
C1791 C1797 1.390 . S
C1792 H1783 0.930 . S
C1792 C1790 1.384 . S
C1792 C1793 1.372 . S
C1793 C1792 1.372 . S
C1793 C1794 1.400 . S
C1793 C1798 1.490 . S
C1794 H1784 0.930 . S
C1794 C1793 1.400 . S
C1794 C1797 1.386 . S
H1795 C1811 0.930 . S
H1796 C1812 0.931 . S
C1797 H1785 0.929 . S
C1797 C1791 1.390 . S
C1797 C1794 1.386 . S
C1798 C1793 1.490 . S
C1798 C1800 1.395 . S
C1798 C1801 1.403 . S
H1799 C1805 0.930 . S
C1800 H1786 0.930 . S
C1800 C1798 1.395 . S
C1800 C1803 1.403 . S
C1801 C1798 1.403 . S
C1801 C1802 1.524 . S
C1801 C1805 1.400 . S
C1802 H1787 0.960 . S
C1802 H1788 0.960 . S
C1802 H1789 0.960 . S
C1802 C1801 1.524 . S
C1803 C1800 1.403 . S
C1803 C1804 1.392 . S
C1803 C1807 1.495 . S
C1804 C1803 1.392 . S
C1804 C1805 1.385 . S
C1804 C1806 1.478 . S
C1805 H1799 0.930 . S
C1805 C1801 1.400 . S
C1805 C1804 1.385 . S
C1806 C1804 1.478 . S
C1806 C1808 1.381 . S
C1806 C1812 1.383 . S
C1807 C1803 1.495 . S
C1807 H1813 0.959 . S
C1807 H1814 0.961 . S
C1807 H1815 0.960 . S
C1808 C1806 1.381 . S
C1808 C1809 1.394 . S
C1808 H1816 0.930 . S
C1809 C1808 1.394 . S
C1809 C1810 1.383 . S
C1809 H1817 0.929 . S
C1810 C1809 1.383 . S
C1810 C1811 1.377 . S
C1811 H1795 0.930 . S
C1811 C1810 1.377 . S
C1811 C1812 1.379 . S
C1812 H1796 0.931 . S
C1812 C1806 1.383 . S
C1812 C1811 1.379 . S
H1813 C1807 0.959 . S
H1814 C1807 0.961 . S
H1815 C1807 0.960 . S
H1816 C1808 0.930 . S
H1817 C1809 0.929 . S
H1818 C1826 0.929 . S
H1819 C1828 0.930 . S
H1820 C1830 0.930 . S
H1821 C1833 0.929 . S
H1822 C1836 0.930 . S
H1823 C1838 0.960 . S
H1824 C1838 0.960 . S
H1825 C1838 0.960 . S
C1826 H1818 0.929 . S
C1826 C1827 1.377 . S
C1826 C1828 1.384 . S
C1827 C1826 1.377 . S
C1827 C1833 1.390 . S
C1828 H1819 0.930 . S
C1828 C1826 1.384 . S
C1828 C1829 1.372 . S
C1829 C1828 1.372 . S
C1829 C1830 1.400 . S
C1829 C1834 1.490 . S
C1830 H1820 0.930 . S
C1830 C1829 1.400 . S
C1830 C1833 1.386 . S
H1831 C1847 0.930 . S
H1832 C1848 0.931 . S
C1833 H1821 0.929 . S
C1833 C1827 1.390 . S
C1833 C1830 1.386 . S
C1834 C1829 1.490 . S
C1834 C1836 1.395 . S
C1834 C1837 1.403 . S
H1835 C1841 0.930 . S
C1836 H1822 0.930 . S
C1836 C1834 1.395 . S
C1836 C1839 1.403 . S
C1837 C1834 1.403 . S
C1837 C1838 1.524 . S
C1837 C1841 1.400 . S
C1838 H1823 0.960 . S
C1838 H1824 0.960 . S
C1838 H1825 0.960 . S
C1838 C1837 1.524 . S
C1839 C1836 1.403 . S
C1839 C1840 1.392 . S
C1839 C1843 1.495 . S
C1840 C1839 1.392 . S
C1840 C1841 1.385 . S
C1840 C1842 1.478 . S
C1841 H1835 0.930 . S
C1841 C1837 1.400 . S
C1841 C1840 1.385 . S
C1842 C1840 1.478 . S
C1842 C1844 1.381 . S
C1842 C1848 1.383 . S
C1843 C1839 1.495 . S
C1843 H1849 0.959 . S
C1843 H1850 0.961 . S
C1843 H1851 0.960 . S
C1844 C1842 1.381 . S
C1844 C1845 1.394 . S
C1844 H1852 0.930 . S
C1845 C1844 1.394 . S
C1845 C1846 1.383 . S
C1845 H1853 0.929 . S
C1846 C1845 1.383 . S
C1846 C1847 1.377 . S
C1847 H1831 0.930 . S
C1847 C1846 1.377 . S
C1847 C1848 1.379 . S
C1848 H1832 0.931 . S
C1848 C1842 1.383 . S
C1848 C1847 1.379 . S
H1849 C1843 0.959 . S
H1850 C1843 0.961 . S
H1851 C1843 0.960 . S
H1852 C1844 0.930 . S
H1853 C1845 0.929 . S
H1854 C1862 0.929 . S
H1855 C1864 0.930 . S
H1856 C1866 0.930 . S
H1857 C1869 0.929 . S
H1858 C1872 0.930 . S
H1859 C1874 0.960 . S
H1860 C1874 0.960 . S
H1861 C1874 0.960 . S
C1862 H1854 0.929 . S
C1862 C1863 1.377 . S
C1862 C1864 1.384 . S
C1863 C1862 1.377 . S
C1863 C1869 1.390 . S
C1864 H1855 0.930 . S
C1864 C1862 1.384 . S
C1864 C1865 1.372 . S
C1865 C1864 1.372 . S
C1865 C1866 1.400 . S
C1865 C1870 1.490 . S
C1866 H1856 0.930 . S
C1866 C1865 1.400 . S
C1866 C1869 1.386 . S
H1867 C1883 0.930 . S
H1868 C1884 0.931 . S
C1869 H1857 0.929 . S
C1869 C1863 1.390 . S
C1869 C1866 1.386 . S
C1870 C1865 1.490 . S
C1870 C1872 1.395 . S
C1870 C1873 1.403 . S
H1871 C1877 0.930 . S
C1872 H1858 0.930 . S
C1872 C1870 1.395 . S
C1872 C1875 1.403 . S
C1873 C1870 1.403 . S
C1873 C1874 1.524 . S
C1873 C1877 1.400 . S
C1874 H1859 0.960 . S
C1874 H1860 0.960 . S
C1874 H1861 0.960 . S
C1874 C1873 1.524 . S
C1875 C1872 1.403 . S
C1875 C1876 1.392 . S
C1875 C1879 1.495 . S
C1876 C1875 1.392 . S
C1876 C1877 1.385 . S
C1876 C1878 1.478 . S
C1877 H1871 0.930 . S
C1877 C1873 1.400 . S
C1877 C1876 1.385 . S
C1878 C1876 1.478 . S
C1878 C1880 1.381 . S
C1878 C1884 1.383 . S
C1879 C1875 1.495 . S
C1879 H1885 0.959 . S
C1879 H1886 0.961 . S
C1879 H1887 0.960 . S
C1880 C1878 1.381 . S
C1880 C1881 1.394 . S
C1880 H1888 0.930 . S
C1881 C1880 1.394 . S
C1881 C1882 1.383 . S
C1881 H1889 0.929 . S
C1882 C1881 1.383 . S
C1882 C1883 1.377 . S
C1883 H1867 0.930 . S
C1883 C1882 1.377 . S
C1883 C1884 1.379 . S
C1884 H1868 0.931 . S
C1884 C1878 1.383 . S
C1884 C1883 1.379 . S
H1885 C1879 0.959 . S
H1886 C1879 0.961 . S
H1887 C1879 0.960 . S
H1888 C1880 0.930 . S
H1889 C1881 0.929 . S
H1890 C1898 0.929 . S
H1891 C1900 0.930 . S
H1892 C1902 0.930 . S
H1893 C1905 0.929 . S
H1894 C1908 0.930 . S
H1895 C1910 0.960 . S
H1896 C1910 0.960 . S
H1897 C1910 0.960 . S
C1898 H1890 0.929 . S
C1898 C1899 1.377 . S
C1898 C1900 1.384 . S
C1899 C1898 1.377 . S
C1899 C1905 1.390 . S
C1900 H1891 0.930 . S
C1900 C1898 1.384 . S
C1900 C1901 1.372 . S
C1901 C1900 1.372 . S
C1901 C1902 1.400 . S
C1901 C1906 1.490 . S
C1902 H1892 0.930 . S
C1902 C1901 1.400 . S
C1902 C1905 1.386 . S
H1903 C1919 0.930 . S
H1904 C1920 0.931 . S
C1905 H1893 0.929 . S
C1905 C1899 1.390 . S
C1905 C1902 1.386 . S
C1906 C1901 1.490 . S
C1906 C1908 1.395 . S
C1906 C1909 1.403 . S
H1907 C1913 0.930 . S
C1908 H1894 0.930 . S
C1908 C1906 1.395 . S
C1908 C1911 1.403 . S
C1909 C1906 1.403 . S
C1909 C1910 1.524 . S
C1909 C1913 1.400 . S
C1910 H1895 0.960 . S
C1910 H1896 0.960 . S
C1910 H1897 0.960 . S
C1910 C1909 1.524 . S
C1911 C1908 1.403 . S
C1911 C1912 1.392 . S
C1911 C1915 1.495 . S
C1912 C1911 1.392 . S
C1912 C1913 1.385 . S
C1912 C1914 1.478 . S
C1913 H1907 0.930 . S
C1913 C1909 1.400 . S
C1913 C1912 1.385 . S
C1914 C1912 1.478 . S
C1914 C1916 1.381 . S
C1914 C1920 1.383 . S
C1915 C1911 1.495 . S
C1915 H1921 0.959 . S
C1915 H1922 0.961 . S
C1915 H1923 0.960 . S
C1916 C1914 1.381 . S
C1916 C1917 1.394 . S
C1916 H1924 0.930 . S
C1917 C1916 1.394 . S
C1917 C1918 1.383 . S
C1917 H1925 0.929 . S
C1918 C1917 1.383 . S
C1918 C1919 1.377 . S
C1919 H1903 0.930 . S
C1919 C1918 1.377 . S
C1919 C1920 1.379 . S
C1920 H1904 0.931 . S
C1920 C1914 1.383 . S
C1920 C1919 1.379 . S
H1921 C1915 0.959 . S
H1922 C1915 0.961 . S
H1923 C1915 0.960 . S
H1924 C1916 0.930 . S
H1925 C1917 0.929 . S
H1926 C1934 0.929 . S
H1927 C1936 0.930 . S
H1928 C1938 0.930 . S
H1929 C1941 0.929 . S
H1930 C1944 0.930 . S
H1931 C1946 0.960 . S
H1932 C1946 0.960 . S
H1933 C1946 0.960 . S
C1934 H1926 0.929 . S
C1934 C1935 1.377 . S
C1934 C1936 1.384 . S
C1935 C1934 1.377 . S
C1935 C1941 1.390 . S
C1936 H1927 0.930 . S
C1936 C1934 1.384 . S
C1936 C1937 1.372 . S
C1937 C1936 1.372 . S
C1937 C1938 1.400 . S
C1937 C1942 1.490 . S
C1938 H1928 0.930 . S
C1938 C1937 1.400 . S
C1938 C1941 1.386 . S
H1939 C1955 0.930 . S
H1940 C1956 0.931 . S
C1941 H1929 0.929 . S
C1941 C1935 1.390 . S
C1941 C1938 1.386 . S
C1942 C1937 1.490 . S
C1942 C1944 1.395 . S
C1942 C1945 1.403 . S
H1943 C1949 0.930 . S
C1944 H1930 0.930 . S
C1944 C1942 1.395 . S
C1944 C1947 1.403 . S
C1945 C1942 1.403 . S
C1945 C1946 1.524 . S
C1945 C1949 1.400 . S
C1946 H1931 0.960 . S
C1946 H1932 0.960 . S
C1946 H1933 0.960 . S
C1946 C1945 1.524 . S
C1947 C1944 1.403 . S
C1947 C1948 1.392 . S
C1947 C1951 1.495 . S
C1948 C1947 1.392 . S
C1948 C1949 1.385 . S
C1948 C1950 1.478 . S
C1949 H1943 0.930 . S
C1949 C1945 1.400 . S
C1949 C1948 1.385 . S
C1950 C1948 1.478 . S
C1950 C1952 1.381 . S
C1950 C1956 1.383 . S
C1951 C1947 1.495 . S
C1951 H1957 0.959 . S
C1951 H1958 0.961 . S
C1951 H1959 0.960 . S
C1952 C1950 1.381 . S
C1952 C1953 1.394 . S
C1952 H1960 0.930 . S
C1953 C1952 1.394 . S
C1953 C1954 1.383 . S
C1953 H1961 0.929 . S
C1954 C1953 1.383 . S
C1954 C1955 1.377 . S
C1955 H1939 0.930 . S
C1955 C1954 1.377 . S
C1955 C1956 1.379 . S
C1956 H1940 0.931 . S
C1956 C1950 1.383 . S
C1956 C1955 1.379 . S
H1957 C1951 0.959 . S
H1958 C1951 0.961 . S
H1959 C1951 0.960 . S
H1960 C1952 0.930 . S
H1961 C1953 0.929 . S
H1962 C1970 0.929 . S
H1963 C1972 0.930 . S
H1964 C1974 0.930 . S
H1965 C1977 0.929 . S
H1966 C1980 0.930 . S
H1967 C1982 0.960 . S
H1968 C1982 0.960 . S
H1969 C1982 0.960 . S
C1970 H1962 0.929 . S
C1970 C1971 1.377 . S
C1970 C1972 1.384 . S
C1971 C1970 1.377 . S
C1971 C1977 1.390 . S
C1972 H1963 0.930 . S
C1972 C1970 1.384 . S
C1972 C1973 1.372 . S
C1973 C1972 1.372 . S
C1973 C1974 1.400 . S
C1973 C1978 1.490 . S
C1974 H1964 0.930 . S
C1974 C1973 1.400 . S
C1974 C1977 1.386 . S
H1975 C1991 0.930 . S
H1976 C1992 0.931 . S
C1977 H1965 0.929 . S
C1977 C1971 1.390 . S
C1977 C1974 1.386 . S
C1978 C1973 1.490 . S
C1978 C1980 1.395 . S
C1978 C1981 1.403 . S
H1979 C1985 0.930 . S
C1980 H1966 0.930 . S
C1980 C1978 1.395 . S
C1980 C1983 1.403 . S
C1981 C1978 1.403 . S
C1981 C1982 1.524 . S
C1981 C1985 1.400 . S
C1982 H1967 0.960 . S
C1982 H1968 0.960 . S
C1982 H1969 0.960 . S
C1982 C1981 1.524 . S
C1983 C1980 1.403 . S
C1983 C1984 1.392 . S
C1983 C1987 1.495 . S
C1984 C1983 1.392 . S
C1984 C1985 1.385 . S
C1984 C1986 1.478 . S
C1985 H1979 0.930 . S
C1985 C1981 1.400 . S
C1985 C1984 1.385 . S
C1986 C1984 1.478 . S
C1986 C1988 1.381 . S
C1986 C1992 1.383 . S
C1987 C1983 1.495 . S
C1987 H1993 0.959 . S
C1987 H1994 0.961 . S
C1987 H1995 0.960 . S
C1988 C1986 1.381 . S
C1988 C1989 1.394 . S
C1988 H1996 0.930 . S
C1989 C1988 1.394 . S
C1989 C1990 1.383 . S
C1989 H1997 0.929 . S
C1990 C1989 1.383 . S
C1990 C1991 1.377 . S
C1991 H1975 0.930 . S
C1991 C1990 1.377 . S
C1991 C1992 1.379 . S
C1992 H1976 0.931 . S
C1992 C1986 1.383 . S
C1992 C1991 1.379 . S
H1993 C1987 0.959 . S
H1994 C1987 0.961 . S
H1995 C1987 0.960 . S
H1996 C1988 0.930 . S
H1997 C1989 0.929 . S
H1998 C2006 0.929 . S
H1999 C2008 0.930 . S
H2000 C2010 0.930 . S
H2001 C2013 0.929 . S
H2002 C2016 0.930 . S
H2003 C2018 0.960 . S
H2004 C2018 0.960 . S
H2005 C2018 0.960 . S
C2006 H1998 0.929 . S
C2006 C2007 1.377 . S
C2006 C2008 1.384 . S
C2007 C2006 1.377 . S
C2007 C2013 1.390 . S
C2008 H1999 0.930 . S
C2008 C2006 1.384 . S
C2008 C2009 1.372 . S
C2009 C2008 1.372 . S
C2009 C2010 1.400 . S
C2009 C2014 1.490 . S
C2010 H2000 0.930 . S
C2010 C2009 1.400 . S
C2010 C2013 1.386 . S
H2011 C2027 0.930 . S
H2012 C2028 0.931 . S
C2013 H2001 0.929 . S
C2013 C2007 1.390 . S
C2013 C2010 1.386 . S
C2014 C2009 1.490 . S
C2014 C2016 1.395 . S
C2014 C2017 1.403 . S
H2015 C2021 0.930 . S
C2016 H2002 0.930 . S
C2016 C2014 1.395 . S
C2016 C2019 1.403 . S
C2017 C2014 1.403 . S
C2017 C2018 1.524 . S
C2017 C2021 1.400 . S
C2018 H2003 0.960 . S
C2018 H2004 0.960 . S
C2018 H2005 0.960 . S
C2018 C2017 1.524 . S
C2019 C2016 1.403 . S
C2019 C2020 1.392 . S
C2019 C2023 1.495 . S
C2020 C2019 1.392 . S
C2020 C2021 1.385 . S
C2020 C2022 1.478 . S
C2021 H2015 0.930 . S
C2021 C2017 1.400 . S
C2021 C2020 1.385 . S
C2022 C2020 1.478 . S
C2022 C2024 1.381 . S
C2022 C2028 1.383 . S
C2023 C2019 1.495 . S
C2023 H2029 0.959 1_655 S
C2023 H2030 0.961 . S
C2023 H2031 0.960 1_655 S
C2024 C2022 1.381 . S
C2024 C2025 1.394 . S
C2024 H2032 0.930 . S
C2025 C2024 1.394 . S
C2025 C2026 1.383 . S
C2025 H2033 0.929 . S
C2026 C2025 1.383 . S
C2026 C2027 1.377 . S
C2027 H2011 0.930 . S
C2027 C2026 1.377 . S
C2027 C2028 1.379 . S
C2028 H2012 0.931 . S
C2028 C2022 1.383 . S
C2028 C2027 1.379 . S
H2029 C2023 0.959 1_455 S
H2030 C2023 0.961 . S
H2031 C2023 0.960 1_455 S
H2032 C2024 0.930 . S
H2033 C2025 0.929 . S
H2034 C2042 0.929 . S
H2035 C2044 0.930 . S
H2036 C2046 0.930 . S
H2037 C2049 0.929 . S
H2038 C2052 0.930 . S
H2039 C2054 0.960 . S
H2040 C2054 0.960 . S
H2041 C2054 0.960 . S
C2042 H2034 0.929 . S
C2042 C2043 1.377 . S
C2042 C2044 1.384 . S
C2043 C2042 1.377 . S
C2043 C2049 1.390 . S
C2044 H2035 0.930 . S
C2044 C2042 1.384 . S
C2044 C2045 1.372 . S
C2045 C2044 1.372 . S
C2045 C2046 1.400 . S
C2045 C2050 1.490 . S
C2046 H2036 0.930 . S
C2046 C2045 1.400 . S
C2046 C2049 1.386 . S
H2047 C2063 0.930 . S
H2048 C2064 0.931 . S
C2049 H2037 0.929 . S
C2049 C2043 1.390 . S
C2049 C2046 1.386 . S
C2050 C2045 1.490 . S
C2050 C2052 1.395 . S
C2050 C2053 1.403 . S
H2051 C2057 0.930 . S
C2052 H2038 0.930 . S
C2052 C2050 1.395 . S
C2052 C2055 1.403 . S
C2053 C2050 1.403 . S
C2053 C2054 1.524 . S
C2053 C2057 1.400 . S
C2054 H2039 0.960 . S
C2054 H2040 0.960 . S
C2054 H2041 0.960 . S
C2054 C2053 1.524 . S
C2055 C2052 1.403 . S
C2055 C2056 1.392 . S
C2055 C2059 1.495 . S
C2056 C2055 1.392 . S
C2056 C2057 1.385 . S
C2056 C2058 1.478 . S
C2057 H2051 0.930 . S
C2057 C2053 1.400 . S
C2057 C2056 1.385 . S
C2058 C2056 1.478 . S
C2058 C2060 1.381 . S
C2058 C2064 1.383 . S
C2059 C2055 1.495 . S
C2059 H2065 0.959 . S
C2059 H2066 0.961 . S
C2059 H2067 0.960 . S
C2060 C2058 1.381 . S
C2060 C2061 1.394 . S
C2060 H2068 0.930 . S
C2061 C2060 1.394 . S
C2061 C2062 1.383 . S
C2061 H2069 0.929 . S
C2062 C2061 1.383 . S
C2062 C2063 1.377 . S
C2063 H2047 0.930 . S
C2063 C2062 1.377 . S
C2063 C2064 1.379 . S
C2064 H2048 0.931 . S
C2064 C2058 1.383 . S
C2064 C2063 1.379 . S
H2065 C2059 0.959 . S
H2066 C2059 0.961 . S
H2067 C2059 0.960 . S
H2068 C2060 0.930 . S
H2069 C2061 0.929 . S
H2070 C2078 0.929 . S
H2071 C2080 0.930 . S
H2072 C2082 0.930 . S
H2073 C2085 0.929 . S
H2074 C2088 0.930 . S
H2075 C2090 0.960 . S
H2076 C2090 0.960 . S
H2077 C2090 0.960 . S
C2078 H2070 0.929 . S
C2078 C2079 1.377 . S
C2078 C2080 1.384 . S
C2079 C2078 1.377 . S
C2079 C2085 1.390 . S
C2080 H2071 0.930 . S
C2080 C2078 1.384 . S
C2080 C2081 1.372 . S
C2081 C2080 1.372 . S
C2081 C2082 1.400 . S
C2081 C2086 1.490 . S
C2082 H2072 0.930 . S
C2082 C2081 1.400 . S
C2082 C2085 1.386 . S
H2083 C2099 0.930 . S
H2084 C2100 0.931 . S
C2085 H2073 0.929 . S
C2085 C2079 1.390 . S
C2085 C2082 1.386 . S
C2086 C2081 1.490 . S
C2086 C2088 1.395 . S
C2086 C2089 1.403 . S
H2087 C2093 0.930 . S
C2088 H2074 0.930 . S
C2088 C2086 1.395 . S
C2088 C2091 1.403 . S
C2089 C2086 1.403 . S
C2089 C2090 1.524 . S
C2089 C2093 1.400 . S
C2090 H2075 0.960 . S
C2090 H2076 0.960 . S
C2090 H2077 0.960 . S
C2090 C2089 1.524 . S
C2091 C2088 1.403 . S
C2091 C2092 1.392 . S
C2091 C2095 1.495 . S
C2092 C2091 1.392 . S
C2092 C2093 1.385 . S
C2092 C2094 1.478 . S
C2093 H2087 0.930 . S
C2093 C2089 1.400 . S
C2093 C2092 1.385 . S
C2094 C2092 1.478 . S
C2094 C2096 1.381 . S
C2094 C2100 1.383 . S
C2095 C2091 1.495 . S
C2095 H2101 0.959 . S
C2095 H2102 0.961 . S
C2095 H2103 0.960 . S
C2096 C2094 1.381 . S
C2096 C2097 1.394 . S
C2096 H2104 0.930 . S
C2097 C2096 1.394 . S
C2097 C2098 1.383 . S
C2097 H2105 0.929 . S
C2098 C2097 1.383 . S
C2098 C2099 1.377 . S
C2099 H2083 0.930 . S
C2099 C2098 1.377 . S
C2099 C2100 1.379 . S
C2100 H2084 0.931 . S
C2100 C2094 1.383 . S
C2100 C2099 1.379 . S
H2101 C2095 0.959 . S
H2102 C2095 0.961 . S
H2103 C2095 0.960 . S
H2104 C2096 0.930 . S
H2105 C2097 0.929 . S
H2106 C2114 0.929 . S
H2107 C2116 0.930 . S
H2108 C2118 0.930 . S
H2109 C2121 0.929 . S
H2110 C2124 0.930 . S
H2111 C2126 0.960 . S
H2112 C2126 0.960 . S
H2113 C2126 0.960 . S
C2114 H2106 0.929 . S
C2114 C2115 1.377 . S
C2114 C2116 1.384 . S
C2115 C2114 1.377 . S
C2115 C2121 1.390 . S
C2116 H2107 0.930 . S
C2116 C2114 1.384 . S
C2116 C2117 1.372 . S
C2117 C2116 1.372 . S
C2117 C2118 1.400 . S
C2117 C2122 1.490 . S
C2118 H2108 0.930 . S
C2118 C2117 1.400 . S
C2118 C2121 1.386 . S
H2119 C2135 0.930 . S
H2120 C2136 0.931 . S
C2121 H2109 0.929 . S
C2121 C2115 1.390 . S
C2121 C2118 1.386 . S
C2122 C2117 1.490 . S
C2122 C2124 1.395 . S
C2122 C2125 1.403 . S
H2123 C2129 0.930 . S
C2124 H2110 0.930 . S
C2124 C2122 1.395 . S
C2124 C2127 1.403 . S
C2125 C2122 1.403 . S
C2125 C2126 1.524 . S
C2125 C2129 1.400 . S
C2126 H2111 0.960 . S
C2126 H2112 0.960 . S
C2126 H2113 0.960 . S
C2126 C2125 1.524 . S
C2127 C2124 1.403 . S
C2127 C2128 1.392 . S
C2127 C2131 1.495 . S
C2128 C2127 1.392 . S
C2128 C2129 1.385 . S
C2128 C2130 1.478 . S
C2129 H2123 0.930 . S
C2129 C2125 1.400 . S
C2129 C2128 1.385 . S
C2130 C2128 1.478 . S
C2130 C2132 1.381 . S
C2130 C2136 1.383 . S
C2131 C2127 1.495 . S
C2131 H2137 0.959 . S
C2131 H2138 0.961 . S
C2131 H2139 0.960 . S
C2132 C2130 1.381 . S
C2132 C2133 1.394 . S
C2132 H2140 0.930 . S
C2133 C2132 1.394 . S
C2133 C2134 1.383 . S
C2133 H2141 0.929 . S
C2134 C2133 1.383 . S
C2134 C2135 1.377 . S
C2135 H2119 0.930 . S
C2135 C2134 1.377 . S
C2135 C2136 1.379 . S
C2136 H2120 0.931 . S
C2136 C2130 1.383 . S
C2136 C2135 1.379 . S
H2137 C2131 0.959 . S
H2138 C2131 0.961 . S
H2139 C2131 0.960 . S
H2140 C2132 0.930 . S
H2141 C2133 0.929 . S
H2142 C2150 0.929 . S
H2143 C2152 0.930 . S
H2144 C2154 0.930 . S
H2145 C2157 0.929 . S
H2146 C2160 0.930 . S
H2147 C2162 0.960 . S
H2148 C2162 0.960 . S
H2149 C2162 0.960 . S
C2150 H2142 0.929 . S
C2150 C2151 1.377 . S
C2150 C2152 1.384 . S
C2151 C2150 1.377 . S
C2151 C2157 1.390 . S
C2152 H2143 0.930 . S
C2152 C2150 1.384 . S
C2152 C2153 1.372 . S
C2153 C2152 1.372 . S
C2153 C2154 1.400 . S
C2153 C2158 1.490 . S
C2154 H2144 0.930 . S
C2154 C2153 1.400 . S
C2154 C2157 1.386 . S
H2155 C2171 0.930 . S
H2156 C2172 0.931 . S
C2157 H2145 0.929 . S
C2157 C2151 1.390 . S
C2157 C2154 1.386 . S
C2158 C2153 1.490 . S
C2158 C2160 1.395 . S
C2158 C2161 1.403 . S
H2159 C2165 0.930 . S
C2160 H2146 0.930 . S
C2160 C2158 1.395 . S
C2160 C2163 1.403 . S
C2161 C2158 1.403 . S
C2161 C2162 1.524 . S
C2161 C2165 1.400 . S
C2162 H2147 0.960 . S
C2162 H2148 0.960 . S
C2162 H2149 0.960 . S
C2162 C2161 1.524 . S
C2163 C2160 1.403 . S
C2163 C2164 1.392 . S
C2163 C2167 1.495 . S
C2164 C2163 1.392 . S
C2164 C2165 1.385 . S
C2164 C2166 1.478 . S
C2165 H2159 0.930 . S
C2165 C2161 1.400 . S
C2165 C2164 1.385 . S
C2166 C2164 1.478 . S
C2166 C2168 1.381 . S
C2166 C2172 1.383 . S
C2167 C2163 1.495 . S
C2167 H2173 0.959 . S
C2167 H2174 0.961 . S
C2167 H2175 0.960 . S
C2168 C2166 1.381 . S
C2168 C2169 1.394 . S
C2168 H2176 0.930 . S
C2169 C2168 1.394 . S
C2169 C2170 1.383 . S
C2169 H2177 0.929 . S
C2170 C2169 1.383 . S
C2170 C2171 1.377 . S
C2171 H2155 0.930 . S
C2171 C2170 1.377 . S
C2171 C2172 1.379 . S
C2172 H2156 0.931 . S
C2172 C2166 1.383 . S
C2172 C2171 1.379 . S
H2173 C2167 0.959 . S
H2174 C2167 0.961 . S
H2175 C2167 0.960 . S
H2176 C2168 0.930 . S
H2177 C2169 0.929 . S
H2178 C2186 0.929 . S
H2179 C2188 0.930 . S
H2180 C2190 0.930 . S
H2181 C2193 0.929 . S
H2182 C2196 0.930 . S
H2183 C2198 0.960 . S
H2184 C2198 0.960 . S
H2185 C2198 0.960 . S
C2186 H2178 0.929 . S
C2186 C2187 1.377 . S
C2186 C2188 1.384 . S
C2187 C2186 1.377 . S
C2187 C2193 1.390 . S
C2188 H2179 0.930 . S
C2188 C2186 1.384 . S
C2188 C2189 1.372 . S
C2189 C2188 1.372 . S
C2189 C2190 1.400 . S
C2189 C2194 1.490 . S
C2190 H2180 0.930 . S
C2190 C2189 1.400 . S
C2190 C2193 1.386 . S
H2191 C2207 0.930 . S
H2192 C2208 0.931 . S
C2193 H2181 0.929 . S
C2193 C2187 1.390 . S
C2193 C2190 1.386 . S
C2194 C2189 1.490 . S
C2194 C2196 1.395 . S
C2194 C2197 1.403 . S
H2195 C2201 0.930 . S
C2196 H2182 0.930 . S
C2196 C2194 1.395 . S
C2196 C2199 1.403 . S
C2197 C2194 1.403 . S
C2197 C2198 1.524 . S
C2197 C2201 1.400 . S
C2198 H2183 0.960 . S
C2198 H2184 0.960 . S
C2198 H2185 0.960 . S
C2198 C2197 1.524 . S
C2199 C2196 1.403 . S
C2199 C2200 1.392 . S
C2199 C2203 1.495 . S
C2200 C2199 1.392 . S
C2200 C2201 1.385 . S
C2200 C2202 1.478 . S
C2201 H2195 0.930 . S
C2201 C2197 1.400 . S
C2201 C2200 1.385 . S
C2202 C2200 1.478 . S
C2202 C2204 1.381 . S
C2202 C2208 1.383 . S
C2203 C2199 1.495 . S
C2203 H2209 0.959 . S
C2203 H2210 0.961 . S
C2203 H2211 0.960 . S
C2204 C2202 1.381 . S
C2204 C2205 1.394 . S
C2204 H2212 0.930 . S
C2205 C2204 1.394 . S
C2205 C2206 1.383 . S
C2205 H2213 0.929 . S
C2206 C2205 1.383 . S
C2206 C2207 1.377 . S
C2207 H2191 0.930 . S
C2207 C2206 1.377 . S
C2207 C2208 1.379 . S
C2208 H2192 0.931 . S
C2208 C2202 1.383 . S
C2208 C2207 1.379 . S
H2209 C2203 0.959 . S
H2210 C2203 0.961 . S
H2211 C2203 0.960 . S
H2212 C2204 0.930 . S
H2213 C2205 0.929 . S
H2214 C2222 0.929 . S
H2215 C2224 0.930 . S
H2216 C2226 0.930 . S
H2217 C2229 0.929 . S
H2218 C2232 0.930 . S
H2219 C2234 0.960 . S
H2220 C2234 0.960 . S
H2221 C2234 0.960 . S
C2222 H2214 0.929 . S
C2222 C2223 1.377 . S
C2222 C2224 1.384 . S
C2223 C2222 1.377 . S
C2223 C2229 1.390 . S
C2224 H2215 0.930 . S
C2224 C2222 1.384 . S
C2224 C2225 1.372 . S
C2225 C2224 1.372 . S
C2225 C2226 1.400 . S
C2225 C2230 1.490 . S
C2226 H2216 0.930 . S
C2226 C2225 1.400 . S
C2226 C2229 1.386 . S
H2227 C2243 0.930 . S
H2228 C2244 0.931 . S
C2229 H2217 0.929 . S
C2229 C2223 1.390 . S
C2229 C2226 1.386 . S
C2230 C2225 1.490 . S
C2230 C2232 1.395 . S
C2230 C2233 1.403 . S
H2231 C2237 0.930 . S
C2232 H2218 0.930 . S
C2232 C2230 1.395 . S
C2232 C2235 1.403 . S
C2233 C2230 1.403 . S
C2233 C2234 1.524 . S
C2233 C2237 1.400 . S
C2234 H2219 0.960 . S
C2234 H2220 0.960 . S
C2234 H2221 0.960 . S
C2234 C2233 1.524 . S
C2235 C2232 1.403 . S
C2235 C2236 1.392 . S
C2235 C2239 1.495 . S
C2236 C2235 1.392 . S
C2236 C2237 1.385 . S
C2236 C2238 1.478 . S
C2237 H2231 0.930 . S
C2237 C2233 1.400 . S
C2237 C2236 1.385 . S
C2238 C2236 1.478 . S
C2238 C2240 1.381 . S
C2238 C2244 1.383 . S
C2239 C2235 1.495 . S
C2239 H2245 0.959 . S
C2239 H2246 0.961 . S
C2239 H2247 0.960 . S
C2240 C2238 1.381 . S
C2240 C2241 1.394 . S
C2240 H2248 0.930 . S
C2241 C2240 1.394 . S
C2241 C2242 1.383 . S
C2241 H2249 0.929 . S
C2242 C2241 1.383 . S
C2242 C2243 1.377 . S
C2243 H2227 0.930 . S
C2243 C2242 1.377 . S
C2243 C2244 1.379 . S
C2244 H2228 0.931 . S
C2244 C2238 1.383 . S
C2244 C2243 1.379 . S
H2245 C2239 0.959 . S
H2246 C2239 0.961 . S
H2247 C2239 0.960 . S
H2248 C2240 0.930 . S
H2249 C2241 0.929 . S
H2250 C2258 0.929 . S
H2251 C2260 0.930 . S
H2252 C2262 0.930 . S
H2253 C2265 0.929 . S
H2254 C2268 0.930 . S
H2255 C2270 0.960 . S
H2256 C2270 0.960 . S
H2257 C2270 0.960 . S
C2258 H2250 0.929 . S
C2258 C2259 1.377 . S
C2258 C2260 1.384 . S
C2259 C2258 1.377 . S
C2259 C2265 1.390 . S
C2260 H2251 0.930 . S
C2260 C2258 1.384 . S
C2260 C2261 1.372 . S
C2261 C2260 1.372 . S
C2261 C2262 1.400 . S
C2261 C2266 1.490 . S
C2262 H2252 0.930 . S
C2262 C2261 1.400 . S
C2262 C2265 1.386 . S
H2263 C2279 0.930 . S
H2264 C2280 0.931 . S
C2265 H2253 0.929 . S
C2265 C2259 1.390 . S
C2265 C2262 1.386 . S
C2266 C2261 1.490 . S
C2266 C2268 1.395 . S
C2266 C2269 1.403 . S
H2267 C2273 0.930 . S
C2268 H2254 0.930 . S
C2268 C2266 1.395 . S
C2268 C2271 1.403 . S
C2269 C2266 1.403 . S
C2269 C2270 1.524 . S
C2269 C2273 1.400 . S
C2270 H2255 0.960 . S
C2270 H2256 0.960 . S
C2270 H2257 0.960 . S
C2270 C2269 1.524 . S
C2271 C2268 1.403 . S
C2271 C2272 1.392 . S
C2271 C2275 1.495 . S
C2272 C2271 1.392 . S
C2272 C2273 1.385 . S
C2272 C2274 1.478 . S
C2273 H2267 0.930 . S
C2273 C2269 1.400 . S
C2273 C2272 1.385 . S
C2274 C2272 1.478 . S
C2274 C2276 1.381 . S
C2274 C2280 1.383 . S
C2275 C2271 1.495 . S
C2275 H2281 0.959 . S
C2275 H2282 0.961 . S
C2275 H2283 0.960 . S
C2276 C2274 1.381 . S
C2276 C2277 1.394 . S
C2276 H2284 0.930 . S
C2277 C2276 1.394 . S
C2277 C2278 1.383 . S
C2277 H2285 0.929 . S
C2278 C2277 1.383 . S
C2278 C2279 1.377 . S
C2279 H2263 0.930 . S
C2279 C2278 1.377 . S
C2279 C2280 1.379 . S
C2280 H2264 0.931 . S
C2280 C2274 1.383 . S
C2280 C2279 1.379 . S
H2281 C2275 0.959 . S
H2282 C2275 0.961 . S
H2283 C2275 0.960 . S
H2284 C2276 0.930 . S
H2285 C2277 0.929 . S
H2286 C2294 0.929 . S
H2287 C2296 0.930 . S
H2288 C2298 0.930 . S
H2289 C2301 0.929 . S
H2290 C2304 0.930 . S
H2291 C2306 0.960 . S
H2292 C2306 0.960 . S
H2293 C2306 0.960 . S
C2294 H2286 0.929 . S
C2294 C2295 1.377 . S
C2294 C2296 1.384 . S
C2295 C2294 1.377 . S
C2295 C2301 1.390 . S
C2296 H2287 0.930 . S
C2296 C2294 1.384 . S
C2296 C2297 1.372 . S
C2297 C2296 1.372 . S
C2297 C2298 1.400 . S
C2297 C2302 1.490 . S
C2298 H2288 0.930 . S
C2298 C2297 1.400 . S
C2298 C2301 1.386 . S
H2299 C2315 0.930 . S
H2300 C2316 0.931 . S
C2301 H2289 0.929 . S
C2301 C2295 1.390 . S
C2301 C2298 1.386 . S
C2302 C2297 1.490 . S
C2302 C2304 1.395 . S
C2302 C2305 1.403 . S
H2303 C2309 0.930 . S
C2304 H2290 0.930 . S
C2304 C2302 1.395 . S
C2304 C2307 1.403 . S
C2305 C2302 1.403 . S
C2305 C2306 1.524 . S
C2305 C2309 1.400 . S
C2306 H2291 0.960 . S
C2306 H2292 0.960 . S
C2306 H2293 0.960 . S
C2306 C2305 1.524 . S
C2307 C2304 1.403 . S
C2307 C2308 1.392 . S
C2307 C2311 1.495 . S
C2308 C2307 1.392 . S
C2308 C2309 1.385 . S
C2308 C2310 1.478 . S
C2309 H2303 0.930 . S
C2309 C2305 1.400 . S
C2309 C2308 1.385 . S
C2310 C2308 1.478 . S
C2310 C2312 1.381 . S
C2310 C2316 1.383 . S
C2311 C2307 1.495 . S
C2311 H2317 0.959 . S
C2311 H2318 0.961 . S
C2311 H2319 0.960 . S
C2312 C2310 1.381 . S
C2312 C2313 1.394 . S
C2312 H2320 0.930 . S
C2313 C2312 1.394 . S
C2313 C2314 1.383 . S
C2313 H2321 0.929 . S
C2314 C2313 1.383 . S
C2314 C2315 1.377 . S
C2315 H2299 0.930 . S
C2315 C2314 1.377 . S
C2315 C2316 1.379 . S
C2316 H2300 0.931 . S
C2316 C2310 1.383 . S
C2316 C2315 1.379 . S
H2317 C2311 0.959 . S
H2318 C2311 0.961 . S
H2319 C2311 0.960 . S
H2320 C2312 0.930 . S
H2321 C2313 0.929 . S
H2322 C2330 0.929 . S
H2323 C2332 0.930 . S
H2324 C2334 0.930 . S
H2325 C2337 0.929 . S
H2326 C2340 0.930 . S
H2327 C2342 0.960 . S
H2328 C2342 0.960 . S
H2329 C2342 0.960 . S
C2330 H2322 0.929 . S
C2330 C2331 1.377 . S
C2330 C2332 1.384 . S
C2331 C2330 1.377 . S
C2331 C2337 1.390 . S
C2332 H2323 0.930 . S
C2332 C2330 1.384 . S
C2332 C2333 1.372 . S
C2333 C2332 1.372 . S
C2333 C2334 1.400 . S
C2333 C2338 1.490 . S
C2334 H2324 0.930 . S
C2334 C2333 1.400 . S
C2334 C2337 1.386 . S
H2335 C2351 0.930 . S
H2336 C2352 0.931 . S
C2337 H2325 0.929 . S
C2337 C2331 1.390 . S
C2337 C2334 1.386 . S
C2338 C2333 1.490 . S
C2338 C2340 1.395 . S
C2338 C2341 1.403 . S
H2339 C2345 0.930 . S
C2340 H2326 0.930 . S
C2340 C2338 1.395 . S
C2340 C2343 1.403 . S
C2341 C2338 1.403 . S
C2341 C2342 1.524 . S
C2341 C2345 1.400 . S
C2342 H2327 0.960 . S
C2342 H2328 0.960 . S
C2342 H2329 0.960 . S
C2342 C2341 1.524 . S
C2343 C2340 1.403 . S
C2343 C2344 1.392 . S
C2343 C2347 1.495 . S
C2344 C2343 1.392 . S
C2344 C2345 1.385 . S
C2344 C2346 1.478 . S
C2345 H2339 0.930 . S
C2345 C2341 1.400 . S
C2345 C2344 1.385 . S
C2346 C2344 1.478 . S
C2346 C2348 1.381 . S
C2346 C2352 1.383 . S
C2347 C2343 1.495 . S
C2347 H2353 0.959 . S
C2347 H2354 0.961 . S
C2347 H2355 0.960 . S
C2348 C2346 1.381 . S
C2348 C2349 1.394 . S
C2348 H2356 0.930 . S
C2349 C2348 1.394 . S
C2349 C2350 1.383 . S
C2349 H2357 0.929 . S
C2350 C2349 1.383 . S
C2350 C2351 1.377 . S
C2351 H2335 0.930 . S
C2351 C2350 1.377 . S
C2351 C2352 1.379 . S
C2352 H2336 0.931 . S
C2352 C2346 1.383 . S
C2352 C2351 1.379 . S
H2353 C2347 0.959 . S
H2354 C2347 0.961 . S
H2355 C2347 0.960 . S
H2356 C2348 0.930 . S
H2357 C2349 0.929 . S
H2358 C2366 0.929 . S
H2359 C2368 0.930 . S
H2360 C2370 0.930 . S
H2361 C2373 0.929 . S
H2362 C2376 0.930 . S
H2363 C2378 0.960 . S
H2364 C2378 0.960 . S
H2365 C2378 0.960 . S
C2366 H2358 0.929 . S
C2366 C2367 1.377 . S
C2366 C2368 1.384 . S
C2367 C2366 1.377 . S
C2367 C2373 1.390 . S
C2368 H2359 0.930 . S
C2368 C2366 1.384 . S
C2368 C2369 1.372 . S
C2369 C2368 1.372 . S
C2369 C2370 1.400 . S
C2369 C2374 1.490 . S
C2370 H2360 0.930 . S
C2370 C2369 1.400 . S
C2370 C2373 1.386 . S
H2371 C2387 0.930 . S
H2372 C2388 0.931 . S
C2373 H2361 0.929 . S
C2373 C2367 1.390 . S
C2373 C2370 1.386 . S
C2374 C2369 1.490 . S
C2374 C2376 1.395 . S
C2374 C2377 1.403 . S
H2375 C2381 0.930 . S
C2376 H2362 0.930 . S
C2376 C2374 1.395 . S
C2376 C2379 1.403 . S
C2377 C2374 1.403 . S
C2377 C2378 1.524 . S
C2377 C2381 1.400 . S
C2378 H2363 0.960 . S
C2378 H2364 0.960 . S
C2378 H2365 0.960 . S
C2378 C2377 1.524 . S
C2379 C2376 1.403 . S
C2379 C2380 1.392 . S
C2379 C2383 1.495 . S
C2380 C2379 1.392 . S
C2380 C2381 1.385 . S
C2380 C2382 1.478 . S
C2381 H2375 0.930 . S
C2381 C2377 1.400 . S
C2381 C2380 1.385 . S
C2382 C2380 1.478 . S
C2382 C2384 1.381 . S
C2382 C2388 1.383 . S
C2383 C2379 1.495 . S
C2383 H2389 0.959 . S
C2383 H2390 0.961 . S
C2383 H2391 0.960 . S
C2384 C2382 1.381 . S
C2384 C2385 1.394 . S
C2384 H2392 0.930 . S
C2385 C2384 1.394 . S
C2385 C2386 1.383 . S
C2385 H2393 0.929 . S
C2386 C2385 1.383 . S
C2386 C2387 1.377 . S
C2387 H2371 0.930 . S
C2387 C2386 1.377 . S
C2387 C2388 1.379 . S
C2388 H2372 0.931 . S
C2388 C2382 1.383 . S
C2388 C2387 1.379 . S
H2389 C2383 0.959 . S
H2390 C2383 0.961 . S
H2391 C2383 0.960 . S
H2392 C2384 0.930 . S
H2393 C2385 0.929 . S
H2394 C2402 0.929 . S
H2395 C2404 0.930 . S
H2396 C2406 0.930 . S
H2397 C2409 0.929 . S
H2398 C2412 0.930 . S
H2399 C2414 0.960 . S
H2400 C2414 0.960 . S
H2401 C2414 0.960 . S
C2402 H2394 0.929 . S
C2402 C2403 1.377 . S
C2402 C2404 1.384 . S
C2403 C2402 1.377 . S
C2403 C2409 1.390 . S
C2404 H2395 0.930 . S
C2404 C2402 1.384 . S
C2404 C2405 1.372 . S
C2405 C2404 1.372 . S
C2405 C2406 1.400 . S
C2405 C2410 1.490 . S
C2406 H2396 0.930 . S
C2406 C2405 1.400 . S
C2406 C2409 1.386 . S
H2407 C2423 0.930 . S
H2408 C2424 0.931 . S
C2409 H2397 0.929 . S
C2409 C2403 1.390 . S
C2409 C2406 1.386 . S
C2410 C2405 1.490 . S
C2410 C2412 1.395 . S
C2410 C2413 1.403 . S
H2411 C2417 0.930 . S
C2412 H2398 0.930 . S
C2412 C2410 1.395 . S
C2412 C2415 1.403 . S
C2413 C2410 1.403 . S
C2413 C2414 1.524 . S
C2413 C2417 1.400 . S
C2414 H2399 0.960 . S
C2414 H2400 0.960 . S
C2414 H2401 0.960 . S
C2414 C2413 1.524 . S
C2415 C2412 1.403 . S
C2415 C2416 1.392 . S
C2415 C2419 1.495 . S
C2416 C2415 1.392 . S
C2416 C2417 1.385 . S
C2416 C2418 1.478 . S
C2417 H2411 0.930 . S
C2417 C2413 1.400 . S
C2417 C2416 1.385 . S
C2418 C2416 1.478 . S
C2418 C2420 1.381 . S
C2418 C2424 1.383 . S
C2419 C2415 1.495 . S
C2419 H2425 0.959 . S
C2419 H2426 0.961 . S
C2419 H2427 0.960 . S
C2420 C2418 1.381 . S
C2420 C2421 1.394 . S
C2420 H2428 0.930 . S
C2421 C2420 1.394 . S
C2421 C2422 1.383 . S
C2421 H2429 0.929 . S
C2422 C2421 1.383 . S
C2422 C2423 1.377 . S
C2423 H2407 0.930 . S
C2423 C2422 1.377 . S
C2423 C2424 1.379 . S
C2424 H2408 0.931 . S
C2424 C2418 1.383 . S
C2424 C2423 1.379 . S
H2425 C2419 0.959 . S
H2426 C2419 0.961 . S
H2427 C2419 0.960 . S
H2428 C2420 0.930 . S
H2429 C2421 0.929 . S
H2430 C2438 0.929 . S
H2431 C2440 0.930 . S
H2432 C2442 0.930 . S
H2433 C2445 0.929 . S
H2434 C2448 0.930 . S
H2435 C2450 0.960 . S
H2436 C2450 0.960 . S
H2437 C2450 0.960 . S
C2438 H2430 0.929 . S
C2438 C2439 1.377 . S
C2438 C2440 1.384 . S
C2439 C2438 1.377 . S
C2439 C2445 1.390 . S
C2440 H2431 0.930 . S
C2440 C2438 1.384 . S
C2440 C2441 1.372 . S
C2441 C2440 1.372 . S
C2441 C2442 1.400 . S
C2441 C2446 1.490 . S
C2442 H2432 0.930 . S
C2442 C2441 1.400 . S
C2442 C2445 1.386 . S
H2443 C2459 0.930 . S
H2444 C2460 0.931 . S
C2445 H2433 0.929 . S
C2445 C2439 1.390 . S
C2445 C2442 1.386 . S
C2446 C2441 1.490 . S
C2446 C2448 1.395 . S
C2446 C2449 1.403 . S
H2447 C2453 0.930 . S
C2448 H2434 0.930 . S
C2448 C2446 1.395 . S
C2448 C2451 1.403 . S
C2449 C2446 1.403 . S
C2449 C2450 1.524 . S
C2449 C2453 1.400 . S
C2450 H2435 0.960 . S
C2450 H2436 0.960 . S
C2450 H2437 0.960 . S
C2450 C2449 1.524 . S
C2451 C2448 1.403 . S
C2451 C2452 1.392 . S
C2451 C2455 1.495 . S
C2452 C2451 1.392 . S
C2452 C2453 1.385 . S
C2452 C2454 1.478 . S
C2453 H2447 0.930 . S
C2453 C2449 1.400 . S
C2453 C2452 1.385 . S
C2454 C2452 1.478 . S
C2454 C2456 1.381 . S
C2454 C2460 1.383 . S
C2455 C2451 1.495 . S
C2455 H2461 0.959 . S
C2455 H2462 0.961 . S
C2455 H2463 0.960 . S
C2456 C2454 1.381 . S
C2456 C2457 1.394 . S
C2456 H2464 0.930 . S
C2457 C2456 1.394 . S
C2457 C2458 1.383 . S
C2457 H2465 0.929 . S
C2458 C2457 1.383 . S
C2458 C2459 1.377 . S
C2459 H2443 0.930 . S
C2459 C2458 1.377 . S
C2459 C2460 1.379 . S
C2460 H2444 0.931 . S
C2460 C2454 1.383 . S
C2460 C2459 1.379 . S
H2461 C2455 0.959 . S
H2462 C2455 0.961 . S
H2463 C2455 0.960 . S
H2464 C2456 0.930 . S
H2465 C2457 0.929 . S
H2466 C2474 0.929 . S
H2467 C2476 0.930 . S
H2468 C2478 0.930 . S
H2469 C2481 0.929 . S
H2470 C2484 0.930 . S
H2471 C2486 0.960 . S
H2472 C2486 0.960 . S
H2473 C2486 0.960 . S
C2474 H2466 0.929 . S
C2474 C2475 1.377 . S
C2474 C2476 1.384 . S
C2475 C2474 1.377 . S
C2475 C2481 1.390 . S
C2476 H2467 0.930 . S
C2476 C2474 1.384 . S
C2476 C2477 1.372 . S
C2477 C2476 1.372 . S
C2477 C2478 1.400 . S
C2477 C2482 1.490 . S
C2478 H2468 0.930 . S
C2478 C2477 1.400 . S
C2478 C2481 1.386 . S
H2479 C2495 0.930 . S
H2480 C2496 0.931 . S
C2481 H2469 0.929 . S
C2481 C2475 1.390 . S
C2481 C2478 1.386 . S
C2482 C2477 1.490 . S
C2482 C2484 1.395 . S
C2482 C2485 1.403 . S
H2483 C2489 0.930 . S
C2484 H2470 0.930 . S
C2484 C2482 1.395 . S
C2484 C2487 1.403 . S
C2485 C2482 1.403 . S
C2485 C2486 1.524 . S
C2485 C2489 1.400 . S
C2486 H2471 0.960 . S
C2486 H2472 0.960 . S
C2486 H2473 0.960 . S
C2486 C2485 1.524 . S
C2487 C2484 1.403 . S
C2487 C2488 1.392 . S
C2487 C2491 1.495 . S
C2488 C2487 1.392 . S
C2488 C2489 1.385 . S
C2488 C2490 1.478 . S
C2489 H2483 0.930 . S
C2489 C2485 1.400 . S
C2489 C2488 1.385 . S
C2490 C2488 1.478 . S
C2490 C2492 1.381 . S
C2490 C2496 1.383 . S
C2491 C2487 1.495 . S
C2491 H2497 0.959 . S
C2491 H2498 0.961 . S
C2491 H2499 0.960 . S
C2492 C2490 1.381 . S
C2492 C2493 1.394 . S
C2492 H2500 0.930 . S
C2493 C2492 1.394 . S
C2493 C2494 1.383 . S
C2493 H2501 0.929 . S
C2494 C2493 1.383 . S
C2494 C2495 1.377 . S
C2495 H2479 0.930 . S
C2495 C2494 1.377 . S
C2495 C2496 1.379 . S
C2496 H2480 0.931 . S
C2496 C2490 1.383 . S
C2496 C2495 1.379 . S
H2497 C2491 0.959 . S
H2498 C2491 0.961 . S
H2499 C2491 0.960 . S
H2500 C2492 0.930 . S
H2501 C2493 0.929 . S
H2502 C2510 0.929 . S
H2503 C2512 0.930 . S
H2504 C2514 0.930 . S
H2505 C2517 0.929 . S
H2506 C2520 0.930 . S
H2507 C2522 0.960 . S
H2508 C2522 0.960 . S
H2509 C2522 0.960 . S
C2510 H2502 0.929 . S
C2510 C2511 1.377 . S
C2510 C2512 1.384 . S
C2511 C2510 1.377 . S
C2511 C2517 1.390 . S
C2512 H2503 0.930 . S
C2512 C2510 1.384 . S
C2512 C2513 1.372 . S
C2513 C2512 1.372 . S
C2513 C2514 1.400 . S
C2513 C2518 1.490 . S
C2514 H2504 0.930 . S
C2514 C2513 1.400 . S
C2514 C2517 1.386 . S
H2515 C2531 0.930 . S
H2516 C2532 0.931 . S
C2517 H2505 0.929 . S
C2517 C2511 1.390 . S
C2517 C2514 1.386 . S
C2518 C2513 1.490 . S
C2518 C2520 1.395 . S
C2518 C2521 1.403 . S
H2519 C2525 0.930 . S
C2520 H2506 0.930 . S
C2520 C2518 1.395 . S
C2520 C2523 1.403 . S
C2521 C2518 1.403 . S
C2521 C2522 1.524 . S
C2521 C2525 1.400 . S
C2522 H2507 0.960 . S
C2522 H2508 0.960 . S
C2522 H2509 0.960 . S
C2522 C2521 1.524 . S
C2523 C2520 1.403 . S
C2523 C2524 1.392 . S
C2523 C2527 1.495 . S
C2524 C2523 1.392 . S
C2524 C2525 1.385 . S
C2524 C2526 1.478 . S
C2525 H2519 0.930 . S
C2525 C2521 1.400 . S
C2525 C2524 1.385 . S
C2526 C2524 1.478 . S
C2526 C2528 1.381 . S
C2526 C2532 1.383 . S
C2527 C2523 1.495 . S
C2527 H2533 0.959 . S
C2527 H2534 0.961 . S
C2527 H2535 0.960 . S
C2528 C2526 1.381 . S
C2528 C2529 1.394 . S
C2528 H2536 0.930 . S
C2529 C2528 1.394 . S
C2529 C2530 1.383 . S
C2529 H2537 0.929 . S
C2530 C2529 1.383 . S
C2530 C2531 1.377 . S
C2531 H2515 0.930 . S
C2531 C2530 1.377 . S
C2531 C2532 1.379 . S
C2532 H2516 0.931 . S
C2532 C2526 1.383 . S
C2532 C2531 1.379 . S
H2533 C2527 0.959 . S
H2534 C2527 0.961 . S
H2535 C2527 0.960 . S
H2536 C2528 0.930 . S
H2537 C2529 0.929 . S
C603 C177 1.694 . S
C622 C237 1.700 . S
C639 C190 1.854 . S
C658 C277 1.854 . S
C675 C164 1.612 . S
C694 C329 1.600 . S
C711 C151 1.466 . S
C730 C289 1.449 1_556 S
C766 C317 1.490 1_556 S
C747 C125 1.495 . S
C783 C138 1.310 . S
C802 C249 1.291 . S
C838 C256 1.673 1_556 S
C819 C147 1.641 . S
C874 C296 1.708 . S
C855 C121 1.654 . S
C891 C134 1.634 . S
C910 C316 1.682 . S
C927 C173 1.461 . S
C946 C276 1.510 . S
C963 C186 1.415 . S
C982 C336 1.445 . S
C1018 C236 1.431 . S
C999 C160 1.395 . S
C1054 C357 1.696 . S
C1035 C21 1.691 . S
C1071 C34 1.854 . S
C1090 C397 1.854 . S
C1107 C8 1.613 . S
C1126 C449 1.610 . S
C1143 C229 1.466 . S
C1162 C409 1.442 . S
C1179 C203 1.495 . S
C1198 C437 1.489 . S
C1215 C216 1.311 . S
C1234 C369 1.294 . S
C1251 C225 1.648 . S
C1270 C376 1.686 . S
C1287 C199 1.657 . S
C1306 C416 1.714 . S
C1342 C436 1.685 . S
C1323 C212 1.628 . S
C1359 C17 1.456 . S
C1378 C396 1.486 . S
C1414 C456 1.432 . S
C1395 C30 1.408 . S
C1431 C4 1.395 . S
C1450 C356 1.445 . S
C1486 C477 1.701 . S
C1467 C99 1.695 . S
C1503 C112 1.853 . S
C1522 C517 1.842 . S
C1558 C569 1.578 . S
C1539 C86 1.607 . S
C1594 C529 1.427 . S
C1575 C73 1.463 . S
C1630 C557 1.488 . S
C1611 C47 1.495 . S
C1647 C60 1.310 . S
C1666 C489 1.293 . S
C1683 C69 1.641 . S
C1702 C496 1.679 . S
C1719 C43 1.653 . S
C1738 C536 1.707 . S
C1774 C556 1.702 . S
C1755 C56 1.640 . S
C1791 C95 1.456 . S
C1810 C516 1.509 . S
C1827 C108 1.413 . S
C1846 C576 1.447 . S
C1863 C82 1.391 . S
C1882 C476 1.420 . S
C1899 C204 1.412 . S
C1918 C260 1.408 . S
C1954 C300 1.971 . S
C1935 C217 1.998 . S
C1971 C230 1.569 . S
C1990 C323 1.582 . S
C2007 C87 1.840 . S
C2026 C283 1.835 . S
C2043 C100 1.695 . S
C2062 C340 1.691 . S
C2098 C243 1.239 . S
C2079 C113 1.235 . S
C2115 C48 1.410 . S
C2134 C380 1.366 . S
C2151 C61 2.002 . S
C2170 C420 1.983 . S
C2187 C74 1.564 . S
C2206 C443 1.569 . S
C2223 C165 1.840 . S
C2242 C403 1.833 . S
C2278 C460 1.659 . S
C2259 C178 1.693 . S
C2295 C191 1.235 . S
C2314 C363 1.237 . S
C2331 C126 1.410 . S
C2350 C500 1.366 . S
C2367 C139 2.001 . S
C2386 C540 1.986 . S
C2422 C563 1.572 . S
C2403 C152 1.565 . S
C2439 C9 1.839 . S
C2458 C523 1.831 . S
C2475 C22 1.695 . S
C2494 C580 1.691 . S
C2511 C35 1.239 . S
C2530 C483 1.248 . S
