# Generated by pormake.
# Topology ctn, (3,4)-cn, num edge types: 1
# Building blocks:
#     Node 0, Type 0, BuildingBlock: CUQRIR_clean_linker_1, # of connection points: 3
#     Node 1, Type 0, BuildingBlock: CUQRIR_clean_linker_1, # of connection points: 3
#     Node 2, Type 0, BuildingBlock: CUQRIR_clean_linker_1, # of connection points: 3
#     Node 3, Type 0, BuildingBlock: CUQRIR_clean_linker_1, # of connection points: 3
#     Node 4, Type 0, BuildingBlock: CUQRIR_clean_linker_1, # of connection points: 3
#     Node 5, Type 0, BuildingBlock: CUQRIR_clean_linker_1, # of connection points: 3
#     Node 6, Type 0, BuildingBlock: CUQRIR_clean_linker_1, # of connection points: 3
#     Node 7, Type 0, BuildingBlock: CUQRIR_clean_linker_1, # of connection points: 3
#     Node 8, Type 0, BuildingBlock: CUQRIR_clean_linker_1, # of connection points: 3
#     Node 9, Type 0, BuildingBlock: CUQRIR_clean_linker_1, # of connection points: 3
#     Node 10, Type 0, BuildingBlock: CUQRIR_clean_linker_1, # of connection points: 3
#     Node 11, Type 0, BuildingBlock: CUQRIR_clean_linker_1, # of connection points: 3
#     Node 12, Type 0, BuildingBlock: CUQRIR_clean_linker_1, # of connection points: 3
#     Node 13, Type 0, BuildingBlock: CUQRIR_clean_linker_1, # of connection points: 3
#     Node 14, Type 0, BuildingBlock: CUQRIR_clean_linker_1, # of connection points: 3
#     Node 15, Type 0, BuildingBlock: CUQRIR_clean_linker_1, # of connection points: 3
#     Node 16, Type 1, BuildingBlock: UXUYUI_clean_sbu_0, # of connection points: 4
#     Node 17, Type 1, BuildingBlock: UXUYUI_clean_sbu_0, # of connection points: 4
#     Node 18, Type 1, BuildingBlock: UXUYUI_clean_sbu_0, # of connection points: 4
#     Node 19, Type 1, BuildingBlock: UXUYUI_clean_sbu_0, # of connection points: 4
#     Node 20, Type 1, BuildingBlock: UXUYUI_clean_sbu_0, # of connection points: 4
#     Node 21, Type 1, BuildingBlock: UXUYUI_clean_sbu_0, # of connection points: 4
#     Node 22, Type 1, BuildingBlock: UXUYUI_clean_sbu_0, # of connection points: 4
#     Node 23, Type 1, BuildingBlock: UXUYUI_clean_sbu_0, # of connection points: 4
#     Node 24, Type 1, BuildingBlock: UXUYUI_clean_sbu_0, # of connection points: 4
#     Node 25, Type 1, BuildingBlock: UXUYUI_clean_sbu_0, # of connection points: 4
#     Node 26, Type 1, BuildingBlock: UXUYUI_clean_sbu_0, # of connection points: 4
#     Node 27, Type 1, BuildingBlock: UXUYUI_clean_sbu_0, # of connection points: 4
#     Edge 28, Type (0, 1), None
#     Edge 29, Type (0, 1), None
#     Edge 30, Type (0, 1), None
#     Edge 31, Type (0, 1), None
#     Edge 32, Type (0, 1), None
#     Edge 33, Type (0, 1), None
#     Edge 34, Type (0, 1), None
#     Edge 35, Type (0, 1), None
#     Edge 36, Type (0, 1), None
#     Edge 37, Type (0, 1), None
#     Edge 38, Type (0, 1), None
#     Edge 39, Type (0, 1), None
#     Edge 40, Type (0, 1), None
#     Edge 41, Type (0, 1), None
#     Edge 42, Type (0, 1), None
#     Edge 43, Type (0, 1), None
#     Edge 44, Type (0, 1), None
#     Edge 45, Type (0, 1), None
#     Edge 46, Type (0, 1), None
#     Edge 47, Type (0, 1), None
#     Edge 48, Type (0, 1), None
#     Edge 49, Type (0, 1), None
#     Edge 50, Type (0, 1), None
#     Edge 51, Type (0, 1), None
#     Edge 52, Type (0, 1), None
#     Edge 53, Type (0, 1), None
#     Edge 54, Type (0, 1), None
#     Edge 55, Type (0, 1), None
#     Edge 56, Type (0, 1), None
#     Edge 57, Type (0, 1), None
#     Edge 58, Type (0, 1), None
#     Edge 59, Type (0, 1), None
#     Edge 60, Type (0, 1), None
#     Edge 61, Type (0, 1), None
#     Edge 62, Type (0, 1), None
#     Edge 63, Type (0, 1), None
#     Edge 64, Type (0, 1), None
#     Edge 65, Type (0, 1), None
#     Edge 66, Type (0, 1), None
#     Edge 67, Type (0, 1), None
#     Edge 68, Type (0, 1), None
#     Edge 69, Type (0, 1), None
#     Edge 70, Type (0, 1), None
#     Edge 71, Type (0, 1), None
#     Edge 72, Type (0, 1), None
#     Edge 73, Type (0, 1), None
#     Edge 74, Type (0, 1), None
#     Edge 75, Type (0, 1), None
# Relax obj value: 0.085
# Max RMSD: 0.210
# Mean RMSD: 0.129
data_MOF--net-ctn--node1-UXUYUI_clean_sbu_0--node2-CUQRIR_clean_linker_1--edge1-none
_symmetry_space_group_name_H-M    P1
_symmetry_Int_Tables_number       1
_symmetry_cell_setting            triclinic
loop_
_symmetry_equiv_pos_as_xyz
'x, y, z'
_cell_length_a     33.338797
_cell_length_b     30.788272
_cell_length_c     31.597143
_cell_angle_alpha  96.852965
_cell_angle_beta   88.871065
_cell_angle_gamma 92.932916
loop_
_atom_site_label
_atom_site_type_symbol
_atom_site_fract_x
_atom_site_fract_y
_atom_site_fract_z
_atom_type_partial_charge
C0 C 0.05452 1.01668 0.09916 0.0
N1 N 0.07253 0.0297 0.0637 0.0
N2 N 1.01705 0.03142 0.10409 0.0
C3 C 0.07371 0.98964 0.12915 0.0
C4 C 1.01254 0.05326 0.07003 0.0
N5 N 0.04625 0.05245 0.04522 0.0
C6 C 0.97697 0.08018 0.06416 0.0
H7 H 0.0898 0.96256 0.11101 0.0
H8 H 0.0511 0.97567 0.15064 0.0
H9 H 0.09616 1.01066 0.14862 0.0
H10 H 0.97822 0.09387 0.03328 0.0
H11 H 0.97588 0.10729 0.0906 0.0
H12 H 0.94872 0.0598 0.06544 0.0
C13 C 0.27468 0.75701 0.25246 0.0
N14 N 0.29429 0.73436 0.27912 0.0
N15 N 0.29809 0.7907 0.24069 0.0
C16 C 0.23315 0.74449 0.23573 0.0
C17 C 0.33298 0.78794 0.26143 0.0
N18 N 0.33089 0.75341 0.28476 0.0
C19 C 0.36957 0.81784 0.25737 0.0
H20 H 0.2353 0.71902 0.20792 0.0
H21 H 0.21883 0.77318 0.22544 0.0
H22 H 0.21392 0.7307 0.26042 0.0
H23 H 0.3614 0.84981 0.24808 0.0
H24 H 0.38981 0.80234 0.23233 0.0
H25 H 0.38612 0.82335 0.28783 0.0
C26 C 0.99553 0.52393 0.0941 0.0
N27 N 1.01763 0.48809 0.09403 0.0
N28 N 0.96744 0.51747 0.06326 0.0
C29 C 1.00016 0.56461 0.12559 0.0
C30 C 0.97317 0.4764 0.04444 0.0
N31 N 1.00326 0.4582 0.06331 0.0
C32 C 0.95077 0.45475 1.006 0.0
H33 H 1.01236 0.55745 0.15626 0.0
H34 H 0.97097 0.5801 0.13181 0.0
H35 H 0.02147 0.58836 0.11208 0.0
H36 H 0.93972 0.47941 0.98674 0.0
H37 H 0.92467 0.43487 1.01675 0.0
H38 H 0.97031 0.43256 0.98566 0.0
C39 C 0.69742 0.78049 0.2254 0.0
N40 N 0.73212 0.8005 0.21271 0.0
N41 N 0.68733 0.7967 0.26571 0.0
C42 C 0.67518 0.74262 0.19997 0.0
C43 C 0.71703 0.82707 0.27721 0.0
N44 N 0.74469 0.8288 0.24549 0.0
C45 C 0.71739 0.8574 0.31838 0.0
H46 H 0.65263 0.75561 0.18005 0.0
H47 H 0.65921 0.72108 0.22123 0.0
H48 H 0.69589 0.7229 0.17858 0.0
H49 H 0.73614 0.84383 0.34179 0.0
H50 H 0.68662 0.86096 0.33194 0.0
H51 H 0.73046 0.8903 0.31336 0.0
C52 C 0.03496 1.00216 0.50996 0.0
N53 N 0.07089 1.00272 0.52968 0.0
N54 N 0.03855 1.02171 0.47393 0.0
C55 C 0.99663 0.97936 0.52381 0.0
C56 C 0.0779 0.03422 0.47196 0.0
N57 N 0.0979 1.02222 0.50536 0.0
C58 C 0.09646 0.06026 0.4385 0.0
H59 H 1.0022 0.95368 0.54435 0.0
H60 H 0.9793 0.9643 0.49573 0.0
H61 H 0.97786 1.00394 0.54218 0.0
H62 H 0.11793 0.08622 0.45311 0.0
H63 H 0.07329 0.07568 0.42137 0.0
H64 H 0.11341 0.03809 0.41519 0.0
C65 C 0.19397 0.75667 0.83993 0.0
N66 N 0.22387 0.73828 0.85878 0.0
N67 N 0.18674 0.73536 0.80067 0.0
C68 C 0.17405 0.79775 0.85833 0.0
C69 C 0.21347 0.70342 0.79618 0.0
N70 N 0.23629 0.70542 0.83136 0.0
C71 C 0.21744 0.6703 0.75749 0.0
H72 H 0.1448 0.78851 0.87295 0.0
H73 H 0.16828 0.81854 0.83295 0.0
H74 H 0.19238 0.81722 0.88334 0.0
H75 H 0.18938 0.66636 0.73881 0.0
H76 H 0.22481 0.63808 0.76686 0.0
H77 H 0.24239 0.68148 0.73703 0.0
C78 C 0.97875 0.53885 0.47011 0.0
N79 N 1.00433 0.57432 0.46803 0.0
N80 N 0.95086 0.54712 0.5012 0.0
C81 C 0.9803 0.49635 0.44119 0.0
C82 C 0.96019 0.58848 0.51833 0.0
N83 N 0.99271 0.60523 0.49835 0.0
C84 C 0.93753 0.61223 0.55499 0.0
H85 H 0.96121 0.49804 0.41313 0.0
H86 H 0.96855 0.4684 0.45763 0.0
H87 H 1.01148 0.49026 0.4299 0.0
H88 H 0.9578 0.63554 0.57492 0.0
H89 H 0.92268 0.58879 0.57514 0.0
H90 H 0.91402 0.63106 0.54213 0.0
C91 C 0.78757 0.8083 0.82529 0.0
N92 N 0.822 0.78632 0.82024 0.0
N93 N 0.7896 0.84351 0.80351 0.0
C94 C 0.75362 0.79791 0.85524 0.0
C95 C 0.82641 0.84262 0.78495 0.0
N96 N 0.84643 0.80813 0.79507 0.0
C97 C 0.84249 0.87452 0.75538 0.0
H98 H 0.7468 0.76205 0.85247 0.0
H99 H 0.72603 0.81455 0.84892 0.0
H100 H 0.76285 0.80889 0.8885 0.0
H101 H 0.87431 0.88437 0.76277 0.0
H102 H 0.82474 0.90411 0.75741 0.0
H103 H 0.84148 0.85831 0.7221 0.0
C104 C 0.28757 0.3083 0.3253 0.0
N105 N 0.322 0.28633 0.32025 0.0
N106 N 0.2896 0.34351 0.30352 0.0
C107 C 0.25362 0.29792 0.35525 0.0
C108 C 0.32641 0.34262 0.28495 0.0
N109 N 0.34643 0.30813 0.29507 0.0
C110 C 0.34249 0.37452 0.25538 0.0
H111 H 0.2468 0.26206 0.35248 0.0
H112 H 0.22604 0.31456 0.34894 0.0
H113 H 0.26286 0.3089 0.38851 0.0
H114 H 0.37431 0.38437 0.26276 0.0
H115 H 0.32474 0.4041 0.2574 0.0
H116 H 0.34148 0.3583 0.22209 0.0
C117 C 0.49553 0.02393 0.5941 0.0
N118 N 0.51763 0.98809 0.59402 0.0
N119 N 0.46745 1.01747 0.56326 0.0
C120 C 0.50018 0.06461 0.62558 0.0
C121 C 0.47317 0.97639 0.54444 0.0
N122 N 0.50326 0.9582 0.56331 0.0
C123 C 0.45077 0.95474 0.50601 0.0
H124 H 0.51237 0.05745 0.65625 0.0
H125 H 0.47098 0.0801 0.6318 0.0
H126 H 0.52148 0.08835 0.61206 0.0
H127 H 0.43972 0.97941 0.48674 0.0
H128 H 0.42466 0.93486 0.51676 0.0
H129 H 0.4703 0.93255 0.48567 0.0
C130 C 0.19742 0.28049 0.7254 0.0
N131 N 0.23212 0.30051 0.71271 0.0
N132 N 0.18733 0.29671 0.76571 0.0
C133 C 0.17517 0.24263 0.69997 0.0
C134 C 0.21703 0.32707 0.77721 0.0
N135 N 0.24469 0.3288 0.74549 0.0
C136 C 0.21739 0.35741 0.81838 0.0
H137 H 0.15263 0.25561 0.68004 0.0
H138 H 0.1592 0.22108 0.72123 0.0
H139 H 0.19589 0.2229 0.67858 0.0
H140 H 0.23613 0.34383 0.84179 0.0
H141 H 0.18661 0.36096 0.83194 0.0
H142 H 0.23045 0.39031 0.81336 0.0
C143 C 0.77468 0.25701 0.75245 0.0
N144 N 0.79429 0.23436 0.77911 0.0
N145 N 0.79809 0.29071 0.74069 0.0
C146 C 0.73315 0.24448 0.7357 0.0
C147 C 0.83298 0.28795 0.76144 0.0
N148 N 0.83089 0.25342 0.78476 0.0
C149 C 0.86956 0.31787 0.75739 0.0
H150 H 0.73532 0.21901 0.70788 0.0
H151 H 0.71883 0.27317 0.72541 0.0
H152 H 0.71393 0.23068 0.76037 0.0
H153 H 0.86138 0.34983 0.74811 0.0
H154 H 0.8898 0.30237 0.73235 0.0
H155 H 0.8861 0.32337 0.78786 0.0
C156 C 0.55453 0.51668 0.59918 0.0
N157 N 0.57255 0.52971 0.56372 0.0
N158 N 0.51707 0.53143 0.60411 0.0
C159 C 0.57373 0.48964 0.62916 0.0
C160 C 0.51255 0.55326 0.57004 0.0
N161 N 0.54627 0.55245 0.54524 0.0
C162 C 0.47698 0.58017 0.56417 0.0
H163 H 0.58982 0.46257 0.61103 0.0
H164 H 0.55111 0.47567 0.65065 0.0
H165 H 0.59617 0.51066 0.64865 0.0
H166 H 0.47824 0.59388 0.53329 0.0
H167 H 0.47587 0.60727 0.59062 0.0
H168 H 0.44873 0.55978 0.56543 0.0
C169 C 0.53495 0.50218 1.00998 0.0
N170 N 0.57088 0.50273 0.02969 0.0
N171 N 0.53854 0.52173 0.97394 0.0
C172 C 0.49662 0.47939 0.02383 0.0
C173 C 0.57789 0.53423 0.97198 0.0
N174 N 0.59789 0.52223 1.00537 0.0
C175 C 0.59646 0.56027 0.93851 0.0
H176 H 0.50218 0.45372 0.04439 0.0
H177 H 0.47929 0.46432 0.99575 0.0
H178 H 0.47784 0.50397 0.04218 0.0
H179 H 0.61793 0.58622 0.95311 0.0
H180 H 0.57328 0.57568 0.92137 0.0
H181 H 0.6134 0.53809 0.9152 0.0
C182 C 0.69396 0.25665 0.33992 0.0
N183 N 0.72387 0.23827 0.35877 0.0
N184 N 0.68675 0.23535 0.30066 0.0
C185 C 0.67403 0.29773 0.35833 0.0
C186 C 0.71348 0.20342 0.29616 0.0
N187 N 0.73629 0.20542 0.33134 0.0
C188 C 0.71746 0.17031 0.25747 0.0
H189 H 0.64478 0.28848 0.37294 0.0
H190 H 0.66826 0.31852 0.33294 0.0
H191 H 0.69236 0.3172 0.38334 0.0
H192 H 0.68941 0.16636 0.23879 0.0
H193 H 0.72484 0.13809 0.26683 0.0
H194 H 0.74241 0.1815 0.23702 0.0
C195 C 0.47873 0.03887 0.97009 0.0
N196 N 0.50432 0.07434 0.96801 0.0
N197 N 0.45083 0.04715 1.00118 0.0
C198 C 0.48029 0.99637 0.94118 0.0
C199 C 0.46017 0.08851 1.0183 0.0
N200 N 0.49269 0.10525 0.99833 0.0
C201 C 0.43751 0.11226 0.05496 0.0
H202 H 0.4612 0.99805 0.91312 0.0
H203 H 0.46853 0.96842 0.95762 0.0
H204 H 0.51146 0.99028 0.9299 0.0
H205 H 0.45778 0.13557 0.07489 0.0
H206 H 0.42266 0.08883 0.07512 0.0
H207 H 0.414 0.13109 0.04211 0.0
Li208 Li 0.30282 0.9332 0.03714 0.0
Li209 Li 0.26686 0.88745 0.08639 0.0
Li210 Li 0.26227 0.86924 1.01042 0.0
Li211 Li 0.22722 0.93278 0.04351 0.0
C212 C 0.33804 0.84582 0.02251 0.0
N213 N 0.39195 0.79301 0.97599 0.0
C214 C 0.34494 0.80432 0.03383 0.0
C215 C 0.35879 0.86043 0.9876 0.0
C216 C 0.37221 0.77809 1.00988 0.0
C217 C 0.38588 0.83331 0.9645 0.0
C218 C 0.29177 0.97364 0.12084 0.0
C219 C 0.30311 0.03155 0.17845 0.0
N220 N 0.33893 1.01494 0.18611 0.0
C221 C 0.32862 0.95706 0.1294 0.0
C222 C 0.27883 1.01114 0.1456 0.0
C223 C 0.35206 0.97844 0.16247 0.0
C224 C 0.34441 1.0063 1.0103 0.0
N225 N 0.34919 0.96916 0.02855 0.0
C226 C 0.42033 0.98263 0.03028 0.0
C227 C 0.38608 0.95723 0.03917 0.0
C228 C 0.4162 1.02044 1.01058 0.0
C229 C 0.37787 0.03271 1.001 0.0
H230 H 0.31464 1.01493 1.00242 0.0
H231 H 0.38898 0.92765 0.05393 0.0
C232 C 0.27529 0.81686 0.13151 0.0
N233 N 0.27253 0.86102 0.13834 0.0
C234 C 0.28466 0.79334 0.16481 0.0
C235 C 0.28607 0.86065 0.21264 0.0
C236 C 0.27685 0.88308 0.17819 0.0
C237 C 0.29061 0.81532 0.20584 0.0
H238 H 0.2706 0.79996 0.09988 0.0
H239 H 0.27351 0.91801 0.18339 0.0
C240 C 0.25837 0.92564 0.94907 0.0
N241 N 0.25007 0.91934 0.86168 0.0
C242 C 0.22129 0.91263 0.93058 0.0
C243 C 0.29122 0.93557 0.92313 0.0
C244 C 0.21767 0.9098 0.88634 0.0
C245 C 0.28646 0.93198 0.879 0.0
C246 C 0.18468 0.86828 0.08023 0.0
C247 C 0.1523 0.83836 0.07042 0.0
C248 C 0.18331 0.8977 0.1175 0.0
C249 C 0.11913 0.83824 0.09813 0.0
C250 C 0.14959 0.89655 0.14437 0.0
N251 N 0.11846 0.86711 0.13421 0.0
C252 C 0.23062 0.78806 0.97025 0.0
C253 C 0.28142 0.82085 0.92935 0.0
C254 C 0.22208 0.75578 0.93618 0.0
N255 N 0.25868 0.82086 0.96564 0.0
C256 C 0.27419 0.78891 0.89476 0.0
C257 C 0.24292 0.75722 0.89737 0.0
H258 H 0.21308 0.78856 0.99942 0.0
H259 H 0.30337 0.84718 0.92595 0.0
C260 C 0.18126 1.00974 0.0622 0.0
N261 N 0.18067 0.96824 0.04162 0.0
C262 C 0.14627 0.03351 0.06563 0.0
C263 C 0.11164 0.97318 0.02353 0.0
C264 C 0.14698 0.9502 0.02152 0.0
C265 C 0.11061 1.01476 0.04704 0.0
H266 H 0.20831 0.02355 0.07787 0.0
H267 H 0.14683 0.91698 1.00591 0.0
O268 O 0.31122 0.87194 0.04547 0.0
O269 O 0.26837 0.95339 0.08847 0.0
O270 O 0.26237 0.92949 0.99237 0.0
O271 O 0.21673 0.86955 0.05254 0.0
H272 H 0.3296 0.79236 0.06084 0.0
H273 H 0.35341 0.892 0.97773 0.0
H274 H 0.37772 0.74589 1.01827 0.0
H275 H 0.40187 0.8442 0.93725 0.0
H276 H 0.29345 0.06059 0.19789 0.0
H277 H 0.33875 0.92759 0.11117 0.0
H278 H 0.25027 0.02428 0.13966 0.0
H279 H 0.38061 0.96588 0.16947 0.0
H280 H 0.4497 0.97301 0.03851 0.0
H281 H 0.3741 0.0621 0.98609 0.0
H282 H 0.28723 0.75823 0.15872 0.0
H283 H 0.28938 0.87829 0.24422 0.0
H284 H 0.19566 0.90456 0.95012 0.0
H285 H 0.32015 0.9457 0.93686 0.0
H286 H 0.1891 0.89995 0.87161 0.0
H287 H 0.31167 0.93935 0.85854 0.0
H288 H 0.15264 0.81567 0.04149 0.0
H289 H 0.20778 0.92136 0.12565 0.0
H290 H 0.09384 0.81529 0.09087 0.0
H291 H 0.1481 0.9192 0.17324 0.0
H292 H 0.19696 0.73247 0.93865 0.0
H293 H 0.2898 0.79172 0.86476 0.0
H294 H 0.14617 0.06479 0.08534 0.0
H295 H 0.08428 0.95699 1.01036 0.0
Li296 Li 0.12924 0.54472 0.32497 0.0
Li297 Li 0.17734 0.49287 0.2951 0.0
Li298 Li 0.18921 0.56997 0.2863 0.0
Li299 Li 0.13141 0.51929 0.24526 0.0
C300 C 0.19515 0.53461 0.37954 0.0
N301 N 0.21225 0.51684 0.46076 0.0
C302 C 0.17835 0.49693 0.39488 0.0
C303 C 0.22103 0.56302 0.40532 0.0
C304 C 0.18726 0.48857 0.43606 0.0
C305 C 0.22919 0.55354 0.44635 0.0
C306 C 0.0991 0.44779 0.30287 0.0
C307 C 0.07305 0.37423 0.28064 0.0
N308 N 0.05911 0.37115 0.32097 0.0
C309 C 0.084 0.4441 0.34397 0.0
C310 C 0.09306 0.4128 0.2708 0.0
C311 C 0.06407 0.40502 0.35253 0.0
C312 C 0.05246 0.56041 0.36056 0.0
N313 N 0.09198 0.56281 0.37082 0.0
C314 C 0.07519 0.58289 0.44455 0.0
C315 C 0.10377 0.57557 0.41168 0.0
C316 C 0.03424 0.57862 0.43498 0.0
C317 C 0.02311 0.56919 0.3921 0.0
H318 H 0.04364 0.55007 0.32803 0.0
H319 H 0.13522 0.5783 0.41936 0.0
C320 C 0.24422 0.45234 0.32194 0.0
N321 N 0.20842 0.44338 0.30198 0.0
C322 C 0.27107 0.41939 0.32376 0.0
C323 C 0.22422 0.36842 0.28404 0.0
C324 C 0.19807 0.40235 0.28316 0.0
C325 C 0.26125 0.37711 0.3042 0.0
H326 H 0.25268 0.48549 0.33502 0.0
H327 H 0.17055 0.39628 0.26571 0.0
C328 C 0.10203 0.61066 0.28527 0.0
N329 N 0.04233 0.66891 0.30549 0.0
C330 C 0.06592 0.60559 0.26308 0.0
C331 C 0.10796 0.64553 0.31747 0.0
C332 C 0.03607 0.63537 0.27382 0.0
C333 C 0.07734 0.67455 0.32733 0.0
C334 C 0.21681 0.4885 0.22079 0.0
C335 C 0.25814 0.49364 0.22768 0.0
C336 C 0.20133 0.45242 0.19396 0.0
C337 C 0.28339 0.46249 0.20748 0.0
C338 C 0.22756 0.42185 0.17456 0.0
N339 N 0.26771 0.42749 0.18164 0.0
C340 C 0.25594 0.62001 0.25445 0.0
C341 C 0.2287 0.64897 0.32107 0.0
C342 C 0.28261 0.65661 0.25441 0.0
N343 N 0.2288 0.61756 0.28687 0.0
C344 C 0.25453 0.68637 0.322 0.0
C345 C 0.28094 0.69111 0.28768 0.0
H346 H 0.25557 0.59463 0.22765 0.0
H347 H 0.20721 0.64596 0.34675 0.0
C348 C 0.0622 0.48304 0.19971 0.0
N349 N 0.09903 0.50313 0.19443 0.0
C350 C 0.03638 0.47257 0.16512 0.0
C351 C 0.08674 0.50282 0.11975 0.0
C352 C 0.11201 0.51209 0.15511 0.0
C353 C 0.04811 0.4835 0.12472 0.0
H354 H 0.05206 0.47684 0.23123 0.0
H355 H 0.14132 0.52811 0.15151 0.0
O356 O 0.18696 0.54345 0.33926 0.0
O357 O 0.11755 0.48633 0.29352 0.0
O358 O 0.13136 0.5815 0.27552 0.0
O359 O 0.19154 0.51848 0.24042 0.0
H360 H 0.15914 0.4741 0.375 0.0
H361 H 0.23461 0.59213 0.39379 0.0
H362 H 0.17444 0.45951 0.44832 0.0
H363 H 0.24903 0.57533 0.46672 0.0
H364 H 0.0685 0.34677 0.25618 0.0
H365 H 0.08733 0.4712 0.36898 0.0
H366 H 0.10401 0.41532 0.23865 0.0
H367 H 0.05237 0.4017 0.38423 0.0
H368 H 0.08504 0.58897 0.47716 0.0
H369 H 0.99172 0.56547 0.38358 0.0
H370 H 0.29971 0.42692 0.33921 0.0
H371 H 0.21627 0.33608 0.26818 0.0
H372 H 0.06091 0.57883 0.23798 0.0
H373 H 0.13567 0.6498 0.33503 0.0
H374 H 1.00791 0.63178 0.25703 0.0
H375 H 0.08137 0.70151 0.3524 0.0
H376 H 0.27055 0.52117 0.2487 0.0
H377 H 0.16935 0.44785 0.18855 0.0
H378 H 0.31546 0.46607 0.21246 0.0
H379 H 0.216 0.39361 0.15391 0.0
H380 H 0.30169 0.66003 0.22675 0.0
H381 H 0.25156 0.71297 0.34739 0.0
H382 H 1.0062 0.45945 0.17049 0.0
H383 H 0.09615 0.51323 0.0894 0.0
Li384 Li 0.75822 0.63014 1.0129 0.0
Li385 Li 0.79049 0.69718 0.0512 0.0
Li386 Li 0.80448 0.67924 0.97107 0.0
Li387 Li 0.83416 0.63617 0.02333 0.0
C388 C 0.71533 0.68877 0.98246 0.0
N389 N 0.64179 0.67738 0.94266 0.0
C390 C 0.68029 0.70077 1.00496 0.0
C391 C 0.71287 0.67066 0.93984 0.0
C392 C 0.64342 0.6948 0.98425 0.0
C393 C 0.67546 0.66525 0.92024 0.0
C394 C 0.78982 0.63858 0.10969 0.0
C395 C 0.8255 0.63823 0.17537 0.0
N396 N 0.79061 0.64474 0.19771 0.0
C397 C 0.75432 0.64525 0.13335 0.0
C398 C 0.82573 0.63502 0.13089 0.0
C399 C 0.75534 0.64827 0.1778 0.0
C400 C 0.70647 0.55142 0.98995 0.0
N401 N 0.70983 0.59057 1.01508 0.0
C402 C 0.64349 0.57764 0.04397 0.0
C403 C 0.67949 0.60323 0.04267 0.0
C404 C 0.63821 0.53862 1.01643 0.0
C405 C 0.6707 0.52511 0.98987 0.0
H406 H 0.73095 0.5413 0.96872 0.0
H407 H 0.68235 0.63435 0.06236 0.0
C408 C 0.74777 0.76516 0.09736 0.0
N409 N 0.7812 0.74188 0.09864 0.0
C410 C 0.73319 0.78904 0.13439 0.0
C411 C 0.78983 0.76848 0.1726 0.0
C412 C 0.80351 0.7451 0.13469 0.0
C413 C 0.75319 0.78891 0.17301 0.0
H414 H 0.73097 0.7629 0.06828 0.0
H415 H 0.83025 0.72677 0.135 0.0
C416 C 0.81718 0.59431 0.93281 0.0
N417 N 0.84598 0.55521 0.85571 0.0
C418 C 0.8585 0.59413 0.92457 0.0
C419 C 0.79048 0.57437 0.90197 0.0
C420 C 0.87247 0.57426 0.88537 0.0
C421 C 0.80565 0.55484 0.86315 0.0
C422 C 0.88073 0.71656 1.01714 0.0
C423 C 0.90402 0.70781 0.98008 0.0
C424 C 0.89714 0.74277 0.05234 0.0
C425 C 0.94346 0.72532 0.97898 0.0
C426 C 0.93674 0.75961 0.05 0.0
N427 N 0.95888 0.7506 1.01368 0.0
C428 C 0.83519 0.74858 0.92504 0.0
C429 C 0.81008 0.68847 0.87795 0.0
C430 C 0.84338 0.77308 0.89089 0.0
N431 N 0.81793 0.70727 0.91847 0.0
C432 C 0.81681 0.71243 0.84295 0.0
C433 C 0.83248 0.75594 0.84931 0.0
H434 H 0.8409 0.76355 0.9572 0.0
H435 H 0.7963 0.65585 0.8727 0.0
C436 C 0.86763 0.55966 0.04094 0.0
N437 N 0.87823 0.6018 0.03515 0.0
C438 C 0.89662 0.53138 0.05072 0.0
C439 C 0.9472 0.58996 0.04774 0.0
C440 C 0.91714 0.61737 0.03872 0.0
C441 C 0.93701 0.54643 0.05393 0.0
H442 H 0.83645 0.54822 0.03839 0.0
H443 H 0.92517 0.65094 0.03483 0.0
O444 O 0.7517 0.69304 1.00234 0.0
O445 O 0.78949 0.63567 0.06609 0.0
O446 O 0.80287 0.61355 0.97099 0.0
O447 O 0.8419 0.70012 1.01884 0.0
H448 H 0.68132 0.71385 0.03824 0.0
H449 H 0.73949 0.66029 0.92228 0.0
H450 H 0.61606 0.7038 1.00132 0.0
H451 H 0.67317 0.65118 0.88728 0.0
H452 H 0.85311 0.63571 0.19214 0.0
H453 H 0.72637 0.64869 0.11772 0.0
H454 H 0.85361 0.63039 0.11335 0.0
H455 H 0.72812 0.65354 0.19649 0.0
H456 H 0.61866 0.59009 0.0636 0.0
H457 H 0.66731 0.49599 0.96711 0.0
H458 H 0.70479 0.8045 0.13372 0.0
H459 H 0.80577 0.76738 0.20195 0.0
H460 H 0.87958 0.60907 0.9482 0.0
H461 H 0.75838 0.5745 0.9077 0.0
H462 H 0.90439 0.57394 0.87853 0.0
H463 H 0.78534 0.53951 0.83888 0.0
H464 H 0.89183 0.68767 0.9525 0.0
H465 H 0.87949 0.75007 0.08116 0.0
H466 H 0.96183 0.71876 0.95055 0.0
H467 H 0.94985 0.77988 0.07705 0.0
H468 H 0.85387 0.80705 0.8975 0.0
H469 H 0.80644 0.69855 0.81174 0.0
H470 H 0.8876 0.49817 0.05601 0.0
H471 H 0.9781 0.60253 0.04969 0.0
Li472 Li 0.85826 0.06438 0.31364 0.0
Li473 Li 0.91074 0.02364 0.33756 0.0
Li474 Li 0.90987 0.03439 0.2616 0.0
Li475 Li 0.86087 0.98426 0.29048 0.0
C476 C 0.93041 0.1129 0.34149 0.0
N477 N 0.95855 0.17922 0.40192 0.0
C478 C 0.90806 0.12418 0.37871 0.0
C479 C 0.9671 0.13535 0.33501 0.0
C480 C 0.92277 0.15781 0.40886 0.0
C481 C 0.98082 0.16876 0.36595 0.0
C482 C 0.84991 1.00442 0.38956 0.0
C483 C 0.86539 0.95586 0.44088 0.0
N484 N 0.8481 0.98325 0.47218 0.0
C485 C 0.83219 0.03203 0.42223 0.0
C486 C 0.86647 0.96593 0.3989 0.0
C487 C 0.83158 1.02074 0.46379 0.0
C488 C 0.78621 0.10298 0.34398 0.0
N489 N 0.82297 0.1117 0.32664 0.0
C490 C 0.80637 0.18547 0.32083 0.0
C491 C 0.83379 0.15226 0.31595 0.0
C492 C 0.76784 0.17679 0.3372 0.0
C493 C 0.75807 0.13539 0.34976 0.0
H494 H 0.77812 0.07029 0.35153 0.0
H495 H 0.86307 0.15824 0.30183 0.0
C496 C 0.98438 1.00507 0.37045 0.0
N497 N 0.94859 1.02245 0.38231 0.0
C498 C 1.01476 1.00493 0.40021 0.0
C499 C 0.97148 0.04168 0.45371 0.0
C500 C 0.94189 0.04108 0.42295 0.0
C501 C 1.00833 0.02334 0.44236 0.0
H502 H 0.98944 0.99159 0.33771 0.0
H503 H 0.91386 0.05601 0.43155 0.0
C504 C 0.83416 0.0606 0.2318 0.0
N505 N 0.79926 0.12045 0.18723 0.0
C506 C 0.79329 0.05582 0.22233 0.0
C507 C 0.85718 0.09613 0.21906 0.0
C508 C 0.77625 0.08631 0.19959 0.0
C509 C 0.839 0.12596 0.19646 0.0
C510 C 0.92536 0.93766 0.27421 0.0
C511 C 0.91827 0.92081 0.23181 0.0
C512 C 0.93714 0.90984 0.30307 0.0
C513 C 0.92278 0.87628 0.21904 0.0
C514 C 0.9414 0.86552 0.28904 0.0
N515 N 0.93416 0.84979 0.24769 0.0
C516 C 0.98071 0.0538 0.21661 0.0
C517 C 0.92688 1.02043 0.17438 0.0
C518 C 1.00621 0.05172 0.18098 0.0
N519 N 0.94193 0.03833 0.21255 0.0
C520 C 0.9515 1.01709 0.1381 0.0
C521 C 0.99159 0.03286 0.14132 0.0
H522 H 0.99197 0.06685 0.24765 0.0
H523 H 0.89608 1.00756 0.17246 0.0
C524 C 0.80721 0.93015 0.2364 0.0
N525 N 0.83015 0.93108 0.27175 0.0
C526 C 0.78136 0.89385 0.22375 0.0
C527 C 0.80632 0.8584 0.28134 0.0
C528 C 0.83116 0.89552 0.29332 0.0
C529 C 0.77966 0.85824 0.2475 0.0
H530 H 0.80766 0.95837 0.21907 0.0
H531 H 0.85008 0.89648 0.32076 0.0
O532 O 0.91666 0.07999 0.31153 0.0
O533 O 0.85099 1.01505 0.34872 0.0
O534 O 0.85112 0.0315 0.25479 0.0
O535 O 0.92035 0.98103 0.2875 0.0
H536 H 0.87987 0.10683 0.38454 0.0
H537 H 0.98479 0.12707 0.30639 0.0
H538 H 0.9058 0.16679 0.43785 0.0
H539 H 1.00918 0.18639 0.36136 0.0
H540 H 0.87846 0.92638 0.4486 0.0
H541 H 0.81933 0.06203 0.41567 0.0
H542 H 0.88075 0.94455 0.37417 0.0
H543 H 0.8181 0.04188 0.4894 0.0
H544 H 0.81419 0.21674 0.30963 0.0
H545 H 0.72805 0.12746 0.36114 0.0
H546 H 0.04285 0.99028 0.3906 0.0
H547 H 0.96585 0.05649 0.48595 0.0
H548 H 0.77484 0.029 0.23267 0.0
H549 H 0.88859 0.10109 0.2271 0.0
H550 H 0.74466 0.08298 0.19198 0.0
H551 H 0.85644 0.15364 0.18646 0.0
H552 H 0.90866 0.94168 0.20918 0.0
H553 H 0.94271 0.92223 0.33603 0.0
H554 H 0.91708 0.86275 0.1864 0.0
H555 H 0.95037 0.8436 0.31107 0.0
H556 H 0.037 0.06451 0.18421 0.0
H557 H 0.93963 1.00182 0.108 0.0
H558 H 0.76072 0.89496 0.19791 0.0
H559 H 0.80537 0.83145 0.30052 0.0
Li560 Li 0.2905 0.19718 0.55121 0.0
Li561 Li 0.25823 0.13013 0.51291 0.0
Li562 Li 0.33417 0.13617 0.52333 0.0
Li563 Li 0.30449 0.17925 0.47107 0.0
C564 C 0.28982 0.13857 0.60969 0.0
N565 N 0.29063 0.14474 0.69772 0.0
C566 C 0.25433 0.14525 0.63336 0.0
C567 C 0.32574 0.13502 0.63089 0.0
C568 C 0.25536 0.14828 0.67781 0.0
C569 C 0.32551 0.13823 0.67537 0.0
C570 C 0.21534 0.18877 0.48247 0.0
C571 C 0.17546 0.16525 0.42026 0.0
N572 N 0.14179 0.17737 0.44268 0.0
C573 C 0.18029 0.20076 0.50498 0.0
C574 C 0.21287 0.17066 0.43985 0.0
C575 C 0.14342 0.1948 0.48427 0.0
C576 C 0.24778 0.26517 0.59736 0.0
N577 N 0.28121 0.24188 0.59864 0.0
C578 C 0.28983 0.26848 0.6726 0.0
C579 C 0.30351 0.24509 0.63469 0.0
C580 C 0.25319 0.28891 0.67301 0.0
C581 C 0.23319 0.28904 0.63438 0.0
H582 H 0.23098 0.26291 0.56827 0.0
H583 H 0.33025 0.22676 0.63501 0.0
C584 C 0.20648 0.05142 0.48995 0.0
N585 N 0.20983 0.09056 0.51509 0.0
C586 C 0.1707 0.02511 0.48986 0.0
C587 C 0.1435 0.07763 0.54397 0.0
C588 C 0.1795 0.10323 0.54268 0.0
C589 C 0.13821 0.03863 0.51642 0.0
H590 H 0.23095 0.04131 0.46871 0.0
H591 H 0.18236 0.13434 0.56237 0.0
C592 C 0.38073 0.21656 0.51715 0.0
N593 N 0.45889 0.25061 0.51372 0.0
C594 C 0.40402 0.20783 0.48009 0.0
C595 C 0.39714 0.24276 0.55237 0.0
C596 C 0.44347 0.22534 0.47901 0.0
C597 C 0.43674 0.25959 0.55004 0.0
C598 C 0.31719 0.09431 0.43282 0.0
C599 C 0.35852 0.09415 0.42458 0.0
C600 C 0.2905 0.07437 0.40197 0.0
C601 C 0.3725 0.07429 0.38538 0.0
C602 C 0.30568 0.05485 0.36314 0.0
N603 N 0.34601 0.05524 0.35572 0.0
C604 C 0.36763 0.05967 0.54095 0.0
C605 C 0.41715 0.11737 0.53872 0.0
C606 C 0.39663 0.03138 0.55073 0.0
N607 N 0.37823 0.1018 0.53515 0.0
C608 C 0.4472 0.08995 0.54773 0.0
C609 C 0.43701 0.04642 0.55393 0.0
H610 H 0.33645 0.04822 0.5384 0.0
H611 H 0.42518 0.15094 0.53482 0.0
C612 C 0.3352 0.24859 0.42504 0.0
N613 N 0.31794 0.20728 0.41848 0.0
C614 C 0.34338 0.27309 0.3909 0.0
C615 C 0.31681 0.21244 0.34295 0.0
C616 C 0.31008 0.18848 0.37795 0.0
C617 C 0.33248 0.25595 0.34931 0.0
H618 H 0.34091 0.26355 0.45721 0.0
H619 H 0.2963 0.15585 0.37271 0.0
O620 O 0.2895 0.13567 0.56609 0.0
O621 O 0.2517 0.19304 0.50234 0.0
O622 O 0.34191 0.20012 0.51884 0.0
O623 O 0.30287 0.11355 0.47099 0.0
H624 H 0.22638 0.14869 0.61772 0.0
H625 H 0.35362 0.13038 0.61335 0.0
H626 H 0.22813 0.15354 0.6965 0.0
H627 H 0.35312 0.1357 0.69214 0.0
H628 H 0.17316 0.15119 0.38729 0.0
H629 H 0.18133 0.21384 0.53826 0.0
H630 H 0.23949 0.16029 0.42228 0.0
H631 H 0.11607 0.20379 0.50134 0.0
H632 H 0.30576 0.26738 0.70196 0.0
H633 H 0.2048 0.3045 0.63371 0.0
H634 H 0.16731 0.996 0.4671 0.0
H635 H 0.11867 0.09008 0.56361 0.0
H636 H 0.39184 0.18769 0.45251 0.0
H637 H 0.37949 0.25005 0.58118 0.0
H638 H 0.46184 0.21879 0.45058 0.0
H639 H 0.44985 0.27986 0.57709 0.0
H640 H 0.37959 0.10909 0.44821 0.0
H641 H 0.2584 0.0745 0.40769 0.0
H642 H 0.40441 0.07398 0.37855 0.0
H643 H 0.28538 0.03952 0.33887 0.0
H644 H 0.38761 0.99817 0.55601 0.0
H645 H 0.47811 0.10252 0.54967 0.0
H646 H 0.35388 0.30705 0.39751 0.0
H647 H 0.30644 0.19856 0.31175 0.0
Li648 Li 0.41074 0.52364 0.83757 0.0
Li649 Li 0.35826 0.56438 0.81365 0.0
Li650 Li 0.36087 0.48426 0.79048 0.0
Li651 Li 0.40987 0.53439 0.76161 0.0
C652 C 0.34991 0.50443 0.88957 0.0
N653 N 0.3481 0.48328 0.9722 0.0
C654 C 0.33218 0.53205 0.92223 0.0
C655 C 0.36646 0.46594 0.89891 0.0
C656 C 0.33158 0.52077 0.9638 0.0
C657 C 0.36538 0.45588 0.9409 0.0
C658 C 0.43043 0.6129 0.8415 0.0
C659 C 0.48088 0.6687 0.86598 0.0
N660 N 0.4586 0.67918 0.90194 0.0
C661 C 0.40807 0.6242 0.87872 0.0
C662 C 0.46713 0.6353 0.83503 0.0
C663 C 0.4228 0.65782 0.90887 0.0
C664 C 0.48437 0.50507 0.87047 0.0
N665 N 0.44859 0.52245 0.88232 0.0
C666 C 0.47148 0.5417 0.95372 0.0
C667 C 0.44188 0.5411 0.92296 0.0
C668 C 0.50832 0.52335 0.94238 0.0
C669 C 0.51474 0.50493 0.90022 0.0
H670 H 0.48943 0.49158 0.83773 0.0
H671 H 0.41385 0.55603 0.93155 0.0
C672 C 0.2862 0.60298 0.84398 0.0
N673 N 0.32296 0.6117 0.82664 0.0
C674 C 0.25806 0.63539 0.84976 0.0
C675 C 0.30637 0.68547 0.82085 0.0
C676 C 0.33379 0.65226 0.81596 0.0
C677 C 0.26784 0.67679 0.8372 0.0
H678 H 0.27811 0.57029 0.85153 0.0
H679 H 0.36307 0.65824 0.80184 0.0
C680 C 0.42536 0.43767 0.77422 0.0
N681 N 0.43415 0.34979 0.7477 0.0
C682 C 0.41828 0.42081 0.73182 0.0
C683 C 0.43713 0.40984 0.80309 0.0
C684 C 0.42278 0.37628 0.71905 0.0
C685 C 0.44139 0.36552 0.78906 0.0
C686 C 0.33415 0.56059 0.73182 0.0
C687 C 0.29327 0.55581 0.72237 0.0
C688 C 0.35716 0.59612 0.71906 0.0
C689 C 0.27622 0.58629 0.69963 0.0
C690 C 0.33897 0.62595 0.69646 0.0
N691 N 0.29922 0.62043 0.68725 0.0
C692 C 0.30721 0.43015 0.7364 0.0
C693 C 0.33116 0.39552 0.79332 0.0
C694 C 0.28136 0.39385 0.72374 0.0
N695 N 0.33015 0.43108 0.77175 0.0
C696 C 0.30632 0.3584 0.78135 0.0
C697 C 0.27966 0.35824 0.7475 0.0
H698 H 0.30767 0.45837 0.71907 0.0
H699 H 0.35007 0.39649 0.82077 0.0
C700 C 0.48072 0.5538 0.71663 0.0
N701 N 0.44193 0.53834 0.71256 0.0
C702 C 0.50622 0.55172 0.68099 0.0
C703 C 0.45151 0.51709 0.63811 0.0
C704 C 0.42689 0.52044 0.67439 0.0
C705 C 0.4916 0.53286 0.64133 0.0
H706 H 0.49198 0.56684 0.74766 0.0
H707 H 0.39609 0.50758 0.67247 0.0
O708 O 0.35098 0.51505 0.84872 0.0
O709 O 0.41665 0.58 0.81155 0.0
O710 O 0.42034 0.48104 0.78751 0.0
O711 O 0.35113 0.5315 0.75479 0.0
H712 H 0.31933 0.56205 0.91566 0.0
H713 H 0.38073 0.44455 0.87419 0.0
H714 H 0.3181 0.54192 0.9894 0.0
H715 H 0.37844 0.42641 0.94862 0.0
H716 H 0.50925 0.6863 0.8614 0.0
H717 H 0.37986 0.60687 0.88454 0.0
H718 H 0.48483 0.627 0.80642 0.0
H719 H 0.40582 0.66681 0.93785 0.0
H720 H 0.46584 0.55652 0.98596 0.0
H721 H 0.54284 0.49028 0.89062 0.0
H722 H 0.22804 0.62746 0.86113 0.0
H723 H 0.3142 0.71675 0.80965 0.0
H724 H 0.40867 0.44168 0.70919 0.0
H725 H 0.4427 0.42223 0.83604 0.0
H726 H 0.41709 0.36276 0.68641 0.0
H727 H 0.45035 0.3436 0.81109 0.0
H728 H 0.27483 0.52899 0.73272 0.0
H729 H 0.38857 0.60108 0.72707 0.0
H730 H 0.24463 0.58296 0.69204 0.0
H731 H 0.3564 0.65362 0.68645 0.0
H732 H 0.26073 0.39496 0.6979 0.0
H733 H 0.30536 0.33146 0.80052 0.0
H734 H 0.53701 0.5645 0.68423 0.0
H735 H 0.43964 0.50183 0.60801 0.0
Li736 Li 0.80283 0.43319 0.53713 0.0
Li737 Li 0.76687 0.38745 0.58638 0.0
Li738 Li 0.76226 0.36923 0.51041 0.0
Li739 Li 0.72724 0.43278 0.54352 0.0
C740 C 0.83806 0.34583 0.5225 0.0
N741 N 0.89204 0.29309 0.476 0.0
C742 C 0.84503 0.30436 0.53384 0.0
C743 C 0.85879 0.36046 0.48757 0.0
C744 C 0.87233 0.27817 0.50989 0.0
C745 C 0.88591 0.33337 0.46448 0.0
C746 C 0.79185 0.47362 0.6208 0.0
C747 C 0.80336 0.53158 0.67834 0.0
N748 N 0.83914 0.51486 0.68599 0.0
C749 C 0.82867 0.45693 0.62937 0.0
C750 C 0.77903 0.51119 0.64553 0.0
C751 C 0.85217 0.47829 0.66239 0.0
C752 C 0.84443 0.50627 0.51029 0.0
N753 N 0.8492 0.46913 0.52854 0.0
C754 C 0.92034 0.4826 0.53029 0.0
C755 C 0.88609 0.4572 0.53917 0.0
C756 C 0.91622 0.52041 0.51059 0.0
C757 C 0.87789 0.53268 0.501 0.0
H758 H 0.81466 0.51491 0.5024 0.0
H759 H 0.88898 0.42762 0.55394 0.0
C760 C 0.77534 0.31686 0.63149 0.0
N761 N 0.77254 0.36102 0.63833 0.0
C762 C 0.7847 0.29335 0.6648 0.0
C763 C 0.78604 0.36065 0.71264 0.0
C764 C 0.77683 0.38307 0.67818 0.0
C765 C 0.79062 0.31532 0.70583 0.0
H766 H 0.77068 0.29997 0.59986 0.0
H767 H 0.77346 0.41801 0.68339 0.0
C768 C 0.75836 0.42564 0.44906 0.0
N769 N 0.75005 0.41934 0.36168 0.0
C770 C 0.72129 0.41261 0.43058 0.0
C771 C 0.79121 0.43558 0.42312 0.0
C772 C 0.71766 0.40978 0.38635 0.0
C773 C 0.78644 0.43199 0.37899 0.0
C774 C 0.68469 0.36829 0.58023 0.0
C775 C 0.65231 0.33836 0.57043 0.0
C776 C 0.68332 0.39772 0.6175 0.0
C777 C 0.61914 0.33825 0.59815 0.0
C778 C 0.6496 0.39657 0.64438 0.0
N779 N 0.61848 0.36712 0.63423 0.0
C780 C 0.73061 0.28806 0.47024 0.0
C781 C 0.78141 0.32084 0.42934 0.0
C782 C 0.72208 0.25578 0.43617 0.0
N783 N 0.75867 0.32086 0.46563 0.0
C784 C 0.77418 0.28891 0.39475 0.0
C785 C 0.74291 0.25722 0.39737 0.0
H786 H 0.71307 0.28855 0.49941 0.0
H787 H 0.80335 0.34717 0.42594 0.0
C788 C 0.68127 0.50974 0.56224 0.0
N789 N 0.68069 0.46825 0.54164 0.0
C790 C 0.64629 0.53351 0.56568 0.0
C791 C 0.61166 0.4732 0.52353 0.0
C792 C 0.64701 0.45022 0.52152 0.0
C793 C 0.61063 0.51478 0.54707 0.0
H794 H 0.70832 0.52353 0.57793 0.0
H795 H 0.64685 0.41701 0.50589 0.0
O796 O 0.81121 0.37192 0.54545 0.0
O797 O 0.7684 0.45339 0.58847 0.0
O798 O 0.76238 0.42949 0.49236 0.0
O799 O 0.71674 0.36956 0.55254 0.0
H800 H 0.82972 0.29239 0.56087 0.0
H801 H 0.85335 0.39201 0.47769 0.0
H802 H 0.8779 0.24599 0.51831 0.0
H803 H 0.90188 0.34427 0.43723 0.0
H804 H 0.79379 0.56067 0.69773 0.0
H805 H 0.83871 0.42741 0.61117 0.0
H806 H 0.75051 0.52441 0.63958 0.0
H807 H 0.88068 0.46566 0.66939 0.0
H808 H 0.94971 0.47298 0.53854 0.0
H809 H 0.87413 0.56208 0.48609 0.0
H810 H 0.7873 0.25823 0.65871 0.0
H811 H 0.78932 0.37829 0.74422 0.0
H812 H 0.69566 0.40453 0.45013 0.0
H813 H 0.82014 0.44573 0.43685 0.0
H814 H 0.68909 0.39992 0.37162 0.0
H815 H 0.81164 0.43937 0.35852 0.0
H816 H 0.65265 0.31567 0.54152 0.0
H817 H 0.70779 0.42138 0.62564 0.0
H818 H 0.59386 0.31529 0.5909 0.0
H819 H 0.64812 0.41923 0.67324 0.0
H820 H 0.69695 0.23246 0.43864 0.0
H821 H 0.78979 0.29171 0.36475 0.0
H822 H 0.64618 0.56478 0.5854 0.0
H823 H 0.5843 0.45702 0.51035 0.0
Li824 Li 0.67734 0.99287 0.79511 0.0
Li825 Li 0.62924 0.04472 0.82497 0.0
Li826 Li 0.63141 1.01929 0.74526 0.0
Li827 Li 0.68921 0.06997 0.7863 0.0
C828 C 0.5991 0.94779 0.80287 0.0
N829 N 0.55911 0.87115 0.82098 0.0
C830 C 0.584 0.9441 0.84397 0.0
C831 C 0.59306 0.9128 0.7708 0.0
C832 C 0.56408 0.90502 0.85254 0.0
C833 C 0.57305 0.87422 0.78065 0.0
C834 C 0.69515 0.03461 0.87954 0.0
C835 C 0.72919 0.05355 0.94635 0.0
N836 N 0.71225 1.01685 0.96076 0.0
C837 C 0.67835 0.99693 0.89488 0.0
C838 C 0.72103 0.06302 0.90532 0.0
C839 C 0.68726 0.98857 0.93606 0.0
C840 C 0.74422 0.95234 0.82194 0.0
N841 N 0.70842 0.94338 0.80198 0.0
C842 C 0.72422 0.86842 0.78404 0.0
C843 C 0.69808 0.90235 0.78316 0.0
C844 C 0.76125 0.87711 0.8042 0.0
C845 C 0.77106 0.91938 0.82377 0.0
H846 H 0.75268 0.98549 0.83503 0.0
H847 H 0.67055 0.89628 0.76571 0.0
C848 C 0.55246 0.06042 0.86056 0.0
N849 N 0.59197 0.06281 0.87081 0.0
C850 C 0.5231 0.0692 0.89209 0.0
C851 C 0.57519 0.0829 0.94454 0.0
C852 C 0.60377 0.07557 0.91168 0.0
C853 C 0.53424 0.07864 0.93497 0.0
H854 H 0.54364 0.05008 0.82802 0.0
H855 H 0.63521 0.07829 0.91936 0.0
C856 C 0.71681 0.9885 0.7208 0.0
N857 N 0.76772 0.9275 0.68164 0.0
C858 C 0.75815 0.99364 0.72768 0.0
C859 C 0.70133 0.95242 0.69395 0.0
C860 C 0.7834 0.9625 0.70749 0.0
C861 C 0.72757 0.92185 0.67456 0.0
C862 C 0.60204 0.11066 0.78527 0.0
C863 C 0.56592 0.1056 0.76307 0.0
C864 C 0.60796 0.14553 0.81746 0.0
C865 C 0.53608 0.13538 0.77381 0.0
C866 C 0.57734 0.17456 0.82732 0.0
N867 N 0.54234 0.16892 0.80548 0.0
C868 C 0.56221 0.98303 0.6997 0.0
C869 C 0.61202 1.01209 0.65511 0.0
C870 C 0.53639 0.97257 0.66511 0.0
N871 N 0.59903 1.00312 0.69443 0.0
C872 C 0.58675 1.00282 0.61975 0.0
C873 C 0.54812 0.9835 0.62472 0.0
H874 H 0.55206 0.97683 0.73122 0.0
H875 H 0.64132 0.02811 0.65151 0.0
C876 C 0.75593 0.12001 0.75444 0.0
N877 N 0.7288 0.11756 0.78686 0.0
C878 C 0.78261 0.15661 0.75441 0.0
C879 C 0.75453 0.18637 0.822 0.0
C880 C 0.7287 0.14897 0.82107 0.0
C881 C 0.78094 0.19112 0.78767 0.0
H882 H 0.75557 0.09462 0.72765 0.0
H883 H 0.70721 0.14596 0.84675 0.0
O884 O 0.61755 0.98633 0.79352 0.0
O885 O 0.68696 0.04345 0.83926 0.0
O886 O 0.69154 1.01847 0.74042 0.0
O887 O 0.63136 0.0815 0.77552 0.0
H888 H 0.58733 0.9712 0.86898 0.0
H889 H 0.60401 0.91531 0.73865 0.0
H890 H 0.55238 0.90171 0.88423 0.0
H891 H 0.5685 0.84677 0.75619 0.0
H892 H 0.74903 0.07534 0.96672 0.0
H893 H 0.65914 0.9741 0.875 0.0
H894 H 0.73461 0.09214 0.89379 0.0
H895 H 0.67444 0.95951 0.94832 0.0
H896 H 0.71627 0.83608 0.76817 0.0
H897 H 0.79971 0.92691 0.83922 0.0
H898 H 0.49172 0.06548 0.88356 0.0
H899 H 0.58503 0.08898 0.97716 0.0
H900 H 0.77055 1.02117 0.7487 0.0
H901 H 0.66936 0.94785 0.68855 0.0
H902 H 0.81546 0.96608 0.71247 0.0
H903 H 0.71601 0.89362 0.65391 0.0
H904 H 0.56092 0.07883 0.73797 0.0
H905 H 0.63567 0.1498 0.83503 0.0
H906 H 0.50791 0.13178 0.75702 0.0
H907 H 0.58138 0.20152 0.85239 0.0
H908 H 0.50621 0.95944 0.67048 0.0
H909 H 0.59616 1.01323 0.5894 0.0
H910 H 0.80169 0.16003 0.72674 0.0
H911 H 0.75156 0.21297 0.84738 0.0
Li912 Li 0.05349 0.25046 0.88892 0.0
Li913 Li 1.01934 0.28246 0.95761 0.0
Li914 Li 0.02689 0.20425 0.94093 0.0
Li915 Li 0.97619 0.237 0.8985 0.0
C916 C 0.10039 0.24057 0.97244 0.0
N917 N 0.16144 0.21601 0.02111 0.0
C918 C 0.10854 0.26356 1.01246 0.0
C919 C 0.12344 0.2052 0.95709 0.0
C920 C 0.13951 0.25061 0.03659 0.0
C921 C 0.15411 0.19325 0.98221 0.0
C922 C 1.00144 0.33544 0.8953 0.0
C923 C 0.95397 0.39236 0.90022 0.0
N924 N 0.98431 0.42188 0.89284 0.0
C925 C 0.03215 0.36623 0.88763 0.0
C926 C 0.96205 0.3485 0.90176 0.0
C927 C 0.02289 0.40985 0.88666 0.0
C928 C 0.0846 0.27113 0.80883 0.0
N929 N 0.09406 0.26155 0.84827 0.0
C930 C 0.16405 0.27084 0.83286 0.0
C931 C 0.13283 0.26105 0.86052 0.0
C932 C 0.15531 0.28215 0.79254 0.0
C933 C 0.1151 0.28169 0.78016 0.0
H934 H 0.05342 0.27149 0.80007 0.0
H935 H 0.13959 0.25393 0.89208 0.0
C936 C 0.99052 0.33944 0.02925 0.0
N937 N 0.02039 0.33439 0.99938 0.0
C938 C 0.98772 0.37911 0.05568 0.0
C939 C 0.04765 0.40701 0.02223 0.0
C940 C 0.0496 0.36661 0.99659 0.0
C941 C 1.01554 0.41416 0.05114 0.0
H942 H 0.96746 0.31366 0.03081 0.0
H943 H 0.07312 0.36191 0.97266 0.0
C944 C 0.02569 0.15635 0.85603 0.0
N945 N 0.03945 0.07563 0.81144 0.0
C946 C 0.99337 0.12753 0.84281 0.0
C947 C 0.06496 0.1444 0.84618 0.0
C948 C 1.00097 0.08678 0.8204 0.0
C949 C 0.0713 0.10335 0.82373 0.0
C950 C 0.95609 0.20567 0.98439 0.0
C951 C 0.93242 0.17145 0.9631 0.0
C952 C 0.95822 0.21012 0.02882 0.0
C953 C 0.9108 0.14241 0.98677 0.0
C954 C 0.93598 0.18053 0.05135 0.0
N955 N 0.91287 0.14764 0.03004 0.0
C956 C 0.05131 0.16199 1.01033 0.0
C957 C 0.03602 0.11061 0.95043 0.0
C958 C 0.0607 0.12845 0.034 0.0
N959 N 0.0392 0.15291 0.9692 0.0
C960 C 0.04358 0.07582 0.97372 0.0
C961 C 0.05523 0.08459 1.0164 0.0
H962 H 0.05219 0.19534 0.02552 0.0
H963 H 0.02557 0.10336 0.91822 0.0
C964 C 0.93278 0.22949 0.82172 0.0
N965 N 0.92711 0.23382 0.86479 0.0
C966 C 0.90067 0.23281 0.79446 0.0
C967 C 0.85659 0.24288 0.85585 0.0
C968 C 0.88968 0.23949 0.88213 0.0
C969 C 0.86215 0.24078 0.81146 0.0
H970 H 0.96272 0.22524 0.80854 0.0
H971 H 0.88574 0.24329 0.91642 0.0
O972 O 0.06989 0.25266 0.94863 0.0
O973 O 1.00985 0.29259 0.89615 0.0
O974 O 1.01876 0.1964 0.87775 0.0
O975 O 0.97623 0.23533 0.96184 0.0
H976 H 0.09095 0.29093 0.02489 0.0
H977 H 0.11735 0.18682 0.92636 0.0
H978 H 0.14606 0.26802 0.06767 0.0
H979 H 0.172 0.16579 0.97084 0.0
H980 H 0.92362 0.40299 0.90514 0.0
H981 H 0.0628 0.35652 0.88259 0.0
H982 H 0.93799 0.32502 0.90787 0.0
H983 H 0.04635 0.43411 0.88089 0.0
H984 H 0.19482 0.27058 0.84313 0.0
H985 H 0.1075 0.29063 0.74929 0.0
H986 H 0.96179 0.38397 0.07658 0.0
H987 H 0.06881 0.4337 1.01676 0.0
H988 H 0.96278 0.13651 0.84999 0.0
H989 H 0.09025 0.16659 0.85569 0.0
H990 H 0.9763 0.06402 0.81012 0.0
H991 H 0.10153 0.09356 0.81599 0.0
H992 H 0.93064 0.16753 0.92867 0.0
H993 H 0.97664 0.2363 0.04572 0.0
H994 H 0.89225 0.11582 0.97076 0.0
H995 H 0.93714 0.18367 0.08578 0.0
H996 H 0.06767 0.13639 0.06746 0.0
H997 H 0.03721 0.0424 0.95971 0.0
H998 H 0.90616 0.23107 0.76043 0.0
H999 H 0.82746 0.24966 0.87015 0.0
Li1000 Li 0.5535 0.75045 0.38892 0.0
Li1001 Li 0.51934 0.78246 0.45762 0.0
Li1002 Li 0.52689 0.70425 0.44093 0.0
Li1003 Li 0.4762 0.73699 0.3985 0.0
C1004 C 0.6004 0.74057 0.47244 0.0
N1005 N 0.66145 0.71601 0.52111 0.0
C1006 C 0.60854 0.76356 0.51247 0.0
C1007 C 0.62345 0.7052 0.4571 0.0
C1008 C 0.63952 0.75062 0.5366 0.0
C1009 C 0.65412 0.69326 0.48222 0.0
C1010 C 0.50144 0.83543 0.3953 0.0
C1011 C 0.45398 0.89235 0.40022 0.0
N1012 N 0.48432 0.92187 0.39284 0.0
C1013 C 0.53215 0.86622 0.38763 0.0
C1014 C 0.46205 0.8485 0.40176 0.0
C1015 C 0.52289 0.90984 0.38666 0.0
C1016 C 0.58461 0.77112 0.30883 0.0
N1017 N 0.59407 0.76155 0.34827 0.0
C1018 C 0.66406 0.77083 0.33286 0.0
C1019 C 0.63283 0.76104 0.36052 0.0
C1020 C 0.65531 0.78215 0.29254 0.0
C1021 C 0.61511 0.78169 0.28016 0.0
H1022 H 0.55343 0.77148 0.30008 0.0
H1023 H 0.63959 0.75393 0.39208 0.0
C1024 C 0.49053 0.83943 0.52924 0.0
N1025 N 0.52039 0.83438 0.49938 0.0
C1026 C 0.48772 0.8791 0.55568 0.0
C1027 C 0.54766 0.907 0.52223 0.0
C1028 C 0.5496 0.8666 0.49659 0.0
C1029 C 0.51554 0.91416 0.55114 0.0
H1030 H 0.46746 0.81366 0.53081 0.0
H1031 H 0.57313 0.8619 0.47266 0.0
C1032 C 0.5257 0.65634 0.35603 0.0
N1033 N 0.53947 0.57563 0.31145 0.0
C1034 C 0.49339 0.62752 0.34282 0.0
C1035 C 0.56497 0.6444 0.34618 0.0
C1036 C 0.50099 0.58677 0.32041 0.0
C1037 C 0.57131 0.60335 0.32374 0.0
C1038 C 0.45609 0.70567 0.48439 0.0
C1039 C 0.43243 0.67145 0.4631 0.0
C1040 C 0.45822 0.71011 0.52882 0.0
C1041 C 0.41081 0.6424 0.48677 0.0
C1042 C 0.43599 0.68052 0.55136 0.0
N1043 N 0.41287 0.64763 0.53005 0.0
C1044 C 0.55132 0.66199 0.51034 0.0
C1045 C 0.53603 0.61061 0.45044 0.0
C1046 C 0.56071 0.62846 0.53401 0.0
N1047 N 0.53921 0.6529 0.4692 0.0
C1048 C 0.54359 0.57582 0.47373 0.0
C1049 C 0.55525 0.58459 0.51642 0.0
H1050 H 0.55219 0.69534 0.52552 0.0
H1051 H 0.52559 0.60335 0.41823 0.0
C1052 C 0.43279 0.72948 0.32172 0.0
N1053 N 0.42712 0.73381 0.36479 0.0
C1054 C 0.40067 0.73279 0.29446 0.0
C1055 C 0.3566 0.74287 0.35585 0.0
C1056 C 0.38969 0.73948 0.38213 0.0
C1057 C 0.36216 0.74077 0.31146 0.0
H1058 H 0.46273 0.72522 0.30854 0.0
H1059 H 0.38575 0.74329 0.41642 0.0
O1060 O 0.5699 0.75266 0.44863 0.0
O1061 O 0.50985 0.79259 0.39615 0.0
O1062 O 0.51877 0.69639 0.37775 0.0
O1063 O 0.47623 0.73532 0.46184 0.0
H1064 H 0.59095 0.79093 0.52489 0.0
H1065 H 0.61735 0.68682 0.42637 0.0
H1066 H 0.64606 0.76803 0.56768 0.0
H1067 H 0.67201 0.6658 0.47085 0.0
H1068 H 0.42363 0.90298 0.40514 0.0
H1069 H 0.5628 0.85651 0.38259 0.0
H1070 H 0.438 0.82501 0.40787 0.0
H1071 H 0.54635 0.9341 0.38089 0.0
H1072 H 0.69482 0.77057 0.34313 0.0
H1073 H 0.60751 0.79062 0.2493 0.0
H1074 H 0.46179 0.88396 0.57658 0.0
H1075 H 0.56882 0.93369 0.51676 0.0
H1076 H 0.4628 0.63649 0.34999 0.0
H1077 H 0.59026 0.66658 0.3557 0.0
H1078 H 0.47632 0.56401 0.31013 0.0
H1079 H 0.60155 0.59356 0.31601 0.0
H1080 H 0.43065 0.66752 0.42867 0.0
H1081 H 0.47665 0.73629 0.54572 0.0
H1082 H 0.39225 0.61582 0.47076 0.0
H1083 H 0.43715 0.68366 0.58578 0.0
H1084 H 0.56768 0.6364 0.56747 0.0
H1085 H 0.53723 0.5424 0.45972 0.0
H1086 H 0.40617 0.73105 0.26043 0.0
H1087 H 0.32747 0.74966 0.37015 0.0
Li1088 Li 0.0454 0.84809 0.63352 0.0
Li1089 Li 0.99591 0.8067 0.67862 0.0
Li1090 Li 0.07115 0.795 0.67559 0.0
Li1091 Li 0.03211 0.77105 0.61114 0.0
C1092 C 0.03446 0.88964 0.71694 0.0
N1093 N 1.01813 0.97187 0.75664 0.0
C1094 C 0.99583 0.90504 0.71569 0.0
C1095 C 0.06475 0.91595 0.73855 0.0
C1096 C 0.98817 0.9467 0.73597 0.0
C1097 C 0.05591 0.95749 0.75832 0.0
C1098 C 0.97356 0.8422 0.5911 0.0
C1099 C 0.92192 0.89089 0.57821 0.0
N1100 N 0.93533 0.89065 0.53725 0.0
C1101 C 0.98701 0.84266 0.54898 0.0
C1102 C 0.94075 0.86646 0.6059 0.0
C1103 C 0.9672 0.86724 0.5222 0.0
C1104 C 0.07857 0.89525 0.56809 0.0
N1105 N 0.06032 0.90227 0.60716 0.0
C1106 C 0.06202 0.97963 0.60143 0.0
C1107 C 0.05319 0.94391 0.6246 0.0
C1108 C 0.07861 0.97269 0.56003 0.0
C1109 C 0.08841 0.93 0.5443 0.0
H1110 H 0.08364 0.86218 0.55415 0.0
H1111 H 0.03871 0.9495 0.65543 0.0
C1112 C 0.95325 0.81552 0.76013 0.0
N1113 N 0.9495 0.80091 0.71781 0.0
C1114 C 0.92021 0.81309 0.78835 0.0
C1115 C 0.88099 0.77687 0.73019 0.0
C1116 C 0.9144 0.78079 0.70286 0.0
C1117 C 0.88308 0.79446 0.77333 0.0
H1118 H 0.9815 0.83076 0.77177 0.0
H1119 H 0.91184 0.76908 0.66931 0.0
C1120 C 0.12326 0.82079 0.61327 0.0
N1121 N 0.20011 0.85805 0.60831 0.0
C1122 C 0.14978 0.80449 0.58115 0.0
C1123 C 0.13578 0.85608 0.64284 0.0
C1124 C 0.18854 0.82376 0.5792 0.0
C1125 C 0.17475 0.87446 0.6398 0.0
C1126 C 0.02052 0.70774 0.66793 0.0
C1127 C 0.05371 0.68226 0.67055 0.0
C1128 C 0.98208 0.68748 0.66412 0.0
C1129 C 0.04787 0.63686 0.66915 0.0
C1130 C 0.97745 0.64201 0.66316 0.0
N1131 N 1.01018 0.61784 0.66556 0.0
C1132 C 0.09528 0.7705 0.7509 0.0
C1133 C 0.14865 0.76963 0.70004 0.0
C1134 C 0.11991 0.75514 0.78033 0.0
N1135 N 0.11002 0.77767 0.71182 0.0
C1136 C 0.17457 0.75508 0.72888 0.0
C1137 C 0.16013 0.74775 0.76952 0.0
H1138 H 0.06414 0.77629 0.75889 0.0
H1139 H 0.15942 0.77419 0.66838 0.0
C1140 C 0.99596 0.72263 0.53724 0.0
N1141 N 0.02675 0.72451 0.56508 0.0
C1142 C 0.98806 0.68474 0.50898 0.0
C1143 C 0.04444 0.65216 0.53733 0.0
C1144 C 0.05223 0.69124 0.56391 0.0
C1145 C 1.01109 0.64804 0.51056 0.0
H1146 H 0.97578 0.74916 0.53898 0.0
H1147 H 0.07674 0.69371 0.5861 0.0
O1148 O 0.04246 0.84872 0.69778 0.0
O1149 O 0.99135 0.81672 0.61722 0.0
O1150 O 0.0851 0.80246 0.61522 0.0
O1151 O 0.02559 0.75229 0.66953 0.0
H1152 H 0.97207 0.8851 0.69919 0.0
H1153 H 0.09473 0.90436 0.74012 0.0
H1154 H 0.95842 0.95905 0.73522 0.0
H1155 H 0.07907 0.97827 0.77509 0.0
H1156 H 0.89644 0.90977 0.58918 0.0
H1157 H 1.01232 0.82394 0.53703 0.0
H1158 H 0.92956 0.86592 0.63822 0.0
H1159 H 0.97723 0.86785 0.4895 0.0
H1160 H 0.05255 1.0118 0.61403 0.0
H1161 H 0.09959 0.92298 0.51192 0.0
H1162 H 0.92273 0.8286 0.82086 0.0
H1163 H 0.85252 0.76392 0.71692 0.0
H1164 H 0.14046 0.77725 0.55796 0.0
H1165 H 0.11565 0.86917 0.6678 0.0
H1166 H 0.2094 0.81148 0.55452 0.0
H1167 H 0.18484 0.90179 0.66246 0.0
H1168 H 0.08373 0.69727 0.67322 0.0
H1169 H 0.9561 0.7066 0.66176 0.0
H1170 H 0.07332 0.61674 0.67093 0.0
H1171 H 0.94786 0.62591 0.66024 0.0
H1172 H 0.10782 0.74923 0.81128 0.0
H1173 H 0.20562 0.75009 0.7198 0.0
H1174 H 0.96132 0.68214 0.48975 0.0
H1175 H 0.06164 0.62406 0.54111 0.0
Li1176 Li 0.5454 0.34809 0.13352 0.0
Li1177 Li 0.49591 0.3067 0.17862 0.0
Li1178 Li 0.57115 0.295 0.17559 0.0
Li1179 Li 0.53211 0.27105 0.11114 0.0
C1180 C 0.53448 0.38964 0.21695 0.0
N1181 N 0.51821 0.47188 0.25667 0.0
C1182 C 0.49586 0.40506 0.21573 0.0
C1183 C 0.56479 0.41593 0.23855 0.0
C1184 C 0.48823 0.44673 0.23602 0.0
C1185 C 0.55599 0.45748 0.25833 0.0
C1186 C 0.47354 0.34222 0.09113 0.0
C1187 C 0.4219 0.39093 0.0783 0.0
N1188 N 0.43529 0.39071 0.03734 0.0
C1189 C 0.48697 0.3427 0.04901 0.0
C1190 C 0.44074 0.36648 0.10596 0.0
C1191 C 0.46714 0.3673 0.02226 0.0
C1192 C 0.57855 0.39526 0.06809 0.0
N1193 N 0.56031 0.40228 0.10717 0.0
C1194 C 0.56202 0.47964 0.10144 0.0
C1195 C 0.55319 0.44392 0.12461 0.0
C1196 C 0.5786 0.4727 0.06004 0.0
C1197 C 0.58839 0.43001 0.0443 0.0
H1198 H 0.58362 0.36218 0.05414 0.0
H1199 H 0.53871 0.44951 0.15544 0.0
C1200 C 0.45325 0.31552 0.26013 0.0
N1201 N 0.4495 0.30091 0.21781 0.0
C1202 C 0.42021 0.3131 0.28836 0.0
C1203 C 0.38099 0.27687 0.2302 0.0
C1204 C 0.4144 0.28079 0.20286 0.0
C1205 C 0.38308 0.29446 0.27334 0.0
H1206 H 0.4815 0.33077 0.27177 0.0
H1207 H 0.41184 0.26908 0.16932 0.0
C1208 C 0.62325 0.32079 0.11325 0.0
N1209 N 0.70011 0.35805 0.10828 0.0
C1210 C 0.64977 0.30448 0.08113 0.0
C1211 C 0.63578 0.35609 0.14282 0.0
C1212 C 0.68852 0.32375 0.07917 0.0
C1213 C 0.67476 0.37446 0.13976 0.0
C1214 C 0.52051 0.20774 0.16792 0.0
C1215 C 0.55371 0.18226 0.17055 0.0
C1216 C 0.48207 0.18748 0.1641 0.0
C1217 C 0.54787 0.13686 0.16914 0.0
C1218 C 0.47745 0.14201 0.16313 0.0
N1219 N 0.51017 0.11784 0.16554 0.0
C1220 C 0.59528 0.27049 0.25088 0.0
C1221 C 0.64866 0.26964 0.20003 0.0
C1222 C 0.61991 0.25512 0.28031 0.0
N1223 N 0.61002 0.27767 0.21181 0.0
C1224 C 0.67457 0.25508 0.22887 0.0
C1225 C 0.66013 0.24774 0.26951 0.0
H1226 H 0.56414 0.27627 0.25887 0.0
H1227 H 0.65943 0.27421 0.16838 0.0
C1228 C 0.49596 0.22265 0.03722 0.0
N1229 N 0.52674 0.22452 0.06507 0.0
C1230 C 0.48806 0.18476 1.00896 0.0
C1231 C 0.54443 0.15217 0.03732 0.0
C1232 C 0.55222 0.19125 0.06391 0.0
C1233 C 0.51108 0.14806 1.01055 0.0
H1234 H 0.47579 0.24918 0.03897 0.0
H1235 H 0.57672 0.1937 0.0861 0.0
O1236 O 0.54246 0.34872 0.19778 0.0
O1237 O 0.49135 0.31673 0.11722 0.0
O1238 O 0.5851 0.30247 0.11521 0.0
O1239 O 0.52559 0.25229 0.16952 0.0
H1240 H 0.47208 0.38513 0.19924 0.0
H1241 H 0.59478 0.40433 0.2401 0.0
H1242 H 0.45848 0.45909 0.23529 0.0
H1243 H 0.57916 0.47825 0.27508 0.0
H1244 H 0.39643 0.40981 0.0893 0.0
H1245 H 0.51226 0.32399 0.03703 0.0
H1246 H 0.42957 0.36593 0.13829 0.0
H1247 H 0.47715 0.36792 0.98955 0.0
H1248 H 0.55256 0.51181 0.11405 0.0
H1249 H 0.59957 0.42299 1.01192 0.0
H1250 H 0.42273 0.32861 0.32086 0.0
H1251 H 0.35252 0.26392 0.21693 0.0
H1252 H 0.64045 0.27724 0.05795 0.0
H1253 H 0.61566 0.36918 0.16778 0.0
H1254 H 0.70938 0.31146 0.05448 0.0
H1255 H 0.68485 0.40179 0.16242 0.0
H1256 H 0.58373 0.19727 0.17322 0.0
H1257 H 0.4561 0.20661 0.16173 0.0
H1258 H 0.57331 0.11674 0.17092 0.0
H1259 H 0.44785 0.12591 0.1602 0.0
H1260 H 0.60782 0.2492 0.31126 0.0
H1261 H 0.70563 0.2501 0.21979 0.0
H1262 H 0.46132 0.18217 0.98973 0.0
H1263 H 0.56162 0.12407 0.0411 0.0
loop_
_geom_bond_atom_site_label_1
_geom_bond_atom_site_label_2
_geom_bond_distance
_geom_bond_site_symmetry_2
_ccdc_geom_bond_type
C0 N1 1.317 . S
C0 N2 1.348 1_465 S
C0 C3 1.485 . S
N1 C0 1.317 . S
N1 N5 1.370 1_565 S
N2 C0 1.348 1_645 S
N2 C4 1.346 . S
C3 C0 1.485 . S
C3 H7 0.960 . S
C3 H8 0.961 . S
C3 H9 0.960 . S
C4 N2 1.346 . S
C4 N5 1.307 1_655 S
C4 C6 1.486 . S
N5 N1 1.370 1_545 S
N5 C4 1.307 1_455 S
C6 C4 1.486 . S
C6 H10 0.960 . S
C6 H11 0.960 . S
C6 H12 0.959 . S
H7 C3 0.960 . S
H8 C3 0.961 . S
H9 C3 0.960 . S
H10 C6 0.960 . S
H11 C6 0.960 . S
H12 C6 0.959 . S
C13 N14 1.317 . S
C13 N15 1.348 . S
C13 C16 1.485 . S
N14 C13 1.317 . S
N14 N18 1.370 . S
N15 C13 1.348 . S
N15 C17 1.346 . S
C16 C13 1.485 . S
C16 H20 0.960 . S
C16 H21 0.961 . S
C16 H22 0.960 . S
C17 N15 1.346 . S
C17 N18 1.307 . S
C17 C19 1.486 . S
N18 N14 1.370 . S
N18 C17 1.307 . S
C19 C17 1.486 . S
C19 H23 0.960 . S
C19 H24 0.960 . S
C19 H25 0.959 . S
H20 C16 0.960 . S
H21 C16 0.961 . S
H22 C16 0.960 . S
H23 C19 0.960 . S
H24 C19 0.960 . S
H25 C19 0.959 . S
C26 N27 1.317 . S
C26 N28 1.348 . S
C26 C29 1.485 . S
N27 C26 1.317 . S
N27 N31 1.370 . S
N28 C26 1.348 . S
N28 C30 1.346 . S
C29 C26 1.485 . S
C29 H33 0.960 . S
C29 H34 0.961 . S
C29 H35 0.960 1_655 S
C30 N28 1.346 . S
C30 N31 1.307 . S
C30 C32 1.486 1_554 S
N31 N27 1.370 . S
N31 C30 1.307 . S
C32 C30 1.486 1_556 S
C32 H36 0.960 . S
C32 H37 0.960 . S
C32 H38 0.959 . S
H33 C29 0.960 . S
H34 C29 0.961 . S
H35 C29 0.960 1_455 S
H36 C32 0.960 . S
H37 C32 0.960 . S
H38 C32 0.959 . S
C39 N40 1.317 . S
C39 N41 1.348 . S
C39 C42 1.485 . S
N40 C39 1.317 . S
N40 N44 1.370 . S
N41 C39 1.348 . S
N41 C43 1.346 . S
C42 C39 1.485 . S
C42 H46 0.960 . S
C42 H47 0.961 . S
C42 H48 0.960 . S
C43 N41 1.346 . S
C43 N44 1.307 . S
C43 C45 1.486 . S
N44 N40 1.370 . S
N44 C43 1.307 . S
C45 C43 1.486 . S
C45 H49 0.960 . S
C45 H50 0.960 . S
C45 H51 0.959 . S
H46 C42 0.960 . S
H47 C42 0.961 . S
H48 C42 0.960 . S
H49 C45 0.960 . S
H50 C45 0.960 . S
H51 C45 0.959 . S
C52 N53 1.317 . S
C52 N54 1.348 . S
C52 C55 1.485 1_455 S
N53 C52 1.317 . S
N53 N57 1.360 1_565 S
N54 C52 1.348 . S
N54 C56 1.346 1_565 S
C55 C52 1.485 1_655 S
C55 H59 0.960 . S
C55 H60 0.961 . S
C55 H61 0.960 . S
C56 N54 1.346 1_545 S
C56 N57 1.313 . S
C56 C58 1.486 . S
N57 N53 1.360 1_545 S
N57 C56 1.313 . S
C58 C56 1.486 . S
C58 H62 0.960 . S
C58 H63 0.960 . S
C58 H64 0.959 . S
H59 C55 0.960 . S
H60 C55 0.961 . S
H61 C55 0.960 . S
H62 C58 0.960 . S
H63 C58 0.960 . S
H64 C58 0.959 . S
C65 N66 1.317 . S
C65 N67 1.348 . S
C65 C68 1.485 . S
N66 C65 1.317 . S
N66 N70 1.370 . S
N67 C65 1.348 . S
N67 C69 1.346 . S
C68 C65 1.485 . S
C68 H72 0.960 . S
C68 H73 0.961 . S
C68 H74 0.960 . S
C69 N67 1.346 . S
C69 N70 1.307 . S
C69 C71 1.486 . S
N70 N66 1.370 . S
N70 C69 1.307 . S
C71 C69 1.486 . S
C71 H75 0.960 . S
C71 H76 0.960 . S
C71 H77 0.959 . S
H72 C68 0.960 . S
H73 C68 0.961 . S
H74 C68 0.960 . S
H75 C71 0.960 . S
H76 C71 0.960 . S
H77 C71 0.959 . S
C78 N79 1.317 . S
C78 N80 1.348 . S
C78 C81 1.485 . S
N79 C78 1.317 . S
N79 N83 1.370 . S
N80 C78 1.348 . S
N80 C82 1.346 . S
C81 C78 1.485 . S
C81 H85 0.960 . S
C81 H86 0.961 . S
C81 H87 0.960 . S
C82 N80 1.346 . S
C82 N83 1.307 . S
C82 C84 1.486 . S
N83 N79 1.370 . S
N83 C82 1.307 . S
C84 C82 1.486 . S
C84 H88 0.960 . S
C84 H89 0.960 . S
C84 H90 0.959 . S
H85 C81 0.960 . S
H86 C81 0.961 . S
H87 C81 0.960 . S
H88 C84 0.960 . S
H89 C84 0.960 . S
H90 C84 0.959 . S
C91 N92 1.317 . S
C91 N93 1.348 . S
C91 C94 1.485 . S
N92 C91 1.317 . S
N92 N96 1.370 . S
N93 C91 1.348 . S
N93 C95 1.346 . S
C94 C91 1.485 . S
C94 H98 0.960 . S
C94 H99 0.961 . S
C94 H100 0.960 . S
C95 N93 1.346 . S
C95 N96 1.307 . S
C95 C97 1.486 . S
N96 N92 1.370 . S
N96 C95 1.307 . S
C97 C95 1.486 . S
C97 H101 0.960 . S
C97 H102 0.960 . S
C97 H103 0.959 . S
H98 C94 0.960 . S
H99 C94 0.961 . S
H100 C94 0.960 . S
H101 C97 0.960 . S
H102 C97 0.960 . S
H103 C97 0.959 . S
C104 N105 1.317 . S
C104 N106 1.348 . S
C104 C107 1.485 . S
N105 C104 1.317 . S
N105 N109 1.370 . S
N106 C104 1.348 . S
N106 C108 1.346 . S
C107 C104 1.485 . S
C107 H111 0.960 . S
C107 H112 0.961 . S
C107 H113 0.960 . S
C108 N106 1.346 . S
C108 N109 1.307 . S
C108 C110 1.486 . S
N109 N105 1.370 . S
N109 C108 1.307 . S
C110 C108 1.486 . S
C110 H114 0.960 . S
C110 H115 0.960 . S
C110 H116 0.959 . S
H111 C107 0.960 . S
H112 C107 0.961 . S
H113 C107 0.960 . S
H114 C110 0.960 . S
H115 C110 0.960 . S
H116 C110 0.959 . S
C117 N118 1.317 1_545 S
C117 N119 1.348 1_545 S
C117 C120 1.485 . S
N118 C117 1.317 1_565 S
N118 N122 1.370 . S
N119 C117 1.348 1_565 S
N119 C121 1.362 . S
C120 C117 1.485 . S
C120 H124 0.960 . S
C120 H125 0.961 . S
C120 H126 0.960 . S
C121 N119 1.362 . S
C121 N122 1.307 . S
C121 C123 1.486 . S
N122 N118 1.370 . S
N122 C121 1.307 . S
C123 C121 1.486 . S
C123 H127 0.960 . S
C123 H128 0.960 . S
C123 H129 0.959 . S
H124 C120 0.960 . S
H125 C120 0.961 . S
H126 C120 0.960 . S
H127 C123 0.960 . S
H128 C123 0.960 . S
H129 C123 0.959 . S
C130 N131 1.317 . S
C130 N132 1.348 . S
C130 C133 1.485 . S
N131 C130 1.317 . S
N131 N135 1.370 . S
N132 C130 1.348 . S
N132 C134 1.346 . S
C133 C130 1.485 . S
C133 H137 0.960 . S
C133 H138 0.961 . S
C133 H139 0.960 . S
C134 N132 1.346 . S
C134 N135 1.307 . S
C134 C136 1.486 . S
N135 N131 1.370 . S
N135 C134 1.307 . S
C136 C134 1.486 . S
C136 H140 0.960 . S
C136 H141 0.960 . S
C136 H142 0.959 . S
H137 C133 0.960 . S
H138 C133 0.961 . S
H139 C133 0.960 . S
H140 C136 0.960 . S
H141 C136 0.960 . S
H142 C136 0.959 . S
C143 N144 1.317 . S
C143 N145 1.348 . S
C143 C146 1.485 . S
N144 C143 1.317 . S
N144 N148 1.370 . S
N145 C143 1.348 . S
N145 C147 1.346 . S
C146 C143 1.485 . S
C146 H150 0.960 . S
C146 H151 0.961 . S
C146 H152 0.960 . S
C147 N145 1.346 . S
C147 N148 1.307 . S
C147 C149 1.486 . S
N148 N144 1.370 . S
N148 C147 1.307 . S
C149 C147 1.486 . S
C149 H153 0.960 . S
C149 H154 0.960 . S
C149 H155 0.959 . S
H150 C146 0.960 . S
H151 C146 0.961 . S
H152 C146 0.960 . S
H153 C149 0.960 . S
H154 C149 0.960 . S
H155 C149 0.959 . S
C156 N157 1.317 . S
C156 N158 1.348 . S
C156 C159 1.485 . S
N157 C156 1.317 . S
N157 N161 1.370 . S
N158 C156 1.348 . S
N158 C160 1.346 . S
C159 C156 1.485 . S
C159 H163 0.960 . S
C159 H164 0.961 . S
C159 H165 0.960 . S
C160 N158 1.346 . S
C160 N161 1.307 . S
C160 C162 1.486 . S
N161 N157 1.370 . S
N161 C160 1.307 . S
C162 C160 1.486 . S
C162 H166 0.960 . S
C162 H167 0.960 . S
C162 H168 0.959 . S
H163 C159 0.960 . S
H164 C159 0.961 . S
H165 C159 0.960 . S
H166 C162 0.960 . S
H167 C162 0.960 . S
H168 C162 0.959 . S
C169 N170 1.317 . S
C169 N171 1.348 . S
C169 C172 1.485 . S
N170 C169 1.317 . S
N170 N174 1.370 . S
N171 C169 1.348 . S
N171 C173 1.346 . S
C172 C169 1.485 . S
C172 H176 0.960 . S
C172 H177 0.961 . S
C172 H178 0.960 1_556 S
C173 N171 1.346 . S
C173 N174 1.307 . S
C173 C175 1.486 . S
N174 N170 1.370 . S
N174 C173 1.307 . S
C175 C173 1.486 . S
C175 H179 0.960 . S
C175 H180 0.960 . S
C175 H181 0.959 . S
H176 C172 0.960 . S
H177 C172 0.961 . S
H178 C172 0.960 1_554 S
H179 C175 0.960 . S
H180 C175 0.960 . S
H181 C175 0.959 . S
C182 N183 1.317 . S
C182 N184 1.348 . S
C182 C185 1.485 . S
N183 C182 1.317 . S
N183 N187 1.370 . S
N184 C182 1.348 . S
N184 C186 1.346 . S
C185 C182 1.485 . S
C185 H189 0.960 . S
C185 H190 0.961 . S
C185 H191 0.960 . S
C186 N184 1.346 . S
C186 N187 1.307 . S
C186 C188 1.486 . S
N187 N183 1.370 . S
N187 C186 1.307 . S
C188 C186 1.486 . S
C188 H192 0.960 . S
C188 H193 0.960 . S
C188 H194 0.959 . S
H189 C185 0.960 . S
H190 C185 0.961 . S
H191 C185 0.960 . S
H192 C188 0.960 . S
H193 C188 0.960 . S
H194 C188 0.959 . S
C195 N196 1.317 . S
C195 N197 1.348 . S
C195 C198 1.485 1_545 S
N196 C195 1.317 . S
N196 N200 1.370 . S
N197 C195 1.348 . S
N197 C199 1.346 1_556 S
C198 C195 1.485 1_565 S
C198 H202 0.960 . S
C198 H203 0.961 . S
C198 H204 0.960 . S
C199 N197 1.346 1_554 S
C199 N200 1.307 1_554 S
C199 C201 1.486 . S
N200 N196 1.370 . S
N200 C199 1.307 1_556 S
C201 C199 1.486 . S
C201 H205 0.960 . S
C201 H206 0.960 . S
C201 H207 0.959 . S
H202 C198 0.960 . S
H203 C198 0.961 . S
H204 C198 0.960 . S
H205 C201 0.960 . S
H206 C201 0.960 . S
H207 C201 0.959 . S
Li208 N225 1.990 1_554 S
Li208 O268 1.955 . S
Li208 O269 1.970 . S
Li208 O270 1.961 1_554 S
Li209 N233 1.990 . S
Li209 O268 1.985 . S
Li209 O269 1.956 . S
Li209 O271 1.961 . S
Li210 N255 1.990 . S
Li210 O268 1.950 1_556 S
Li210 O270 1.956 . S
Li210 O271 1.970 1_556 S
Li211 N261 1.990 . S
Li211 O269 1.961 . S
Li211 O270 1.970 1_554 S
Li211 O271 1.956 . S
C212 C214 1.348 1_556 S
C212 C215 1.356 . S
C212 O268 1.323 1_556 S
N213 C216 1.314 1_556 S
N213 C217 1.279 . S
C214 C212 1.348 1_554 S
C214 C216 1.353 . S
C214 H272 0.929 . S
C215 C212 1.356 . S
C215 C217 1.358 . S
C215 H273 0.930 . S
C216 N213 1.314 1_554 S
C216 C214 1.353 . S
C216 H274 0.930 . S
C217 N213 1.279 . S
C217 C215 1.358 . S
C217 H275 0.930 . S
C218 C221 1.348 . S
C218 C222 1.356 . S
C218 O269 1.325 . S
C219 N220 1.279 . S
C219 C222 1.358 . S
C219 H276 0.930 . S
N220 C219 1.279 . S
N220 C223 1.314 . S
C221 C218 1.348 . S
C221 C223 1.353 . S
C221 H277 0.929 . S
C222 C218 1.356 . S
C222 C219 1.358 . S
C222 H278 0.930 . S
C223 N220 1.314 . S
C223 C221 1.353 . S
C223 H279 0.930 1_565 S
C224 N225 1.314 . S
C224 C229 1.353 1_565 S
C224 H230 0.930 . S
N225 Li208 1.990 1_556 S
N225 C224 1.314 . S
N225 C227 1.279 . S
C226 C227 1.358 . S
C226 C228 1.356 1_565 S
C226 H280 0.930 . S
C227 N225 1.279 . S
C227 C226 1.358 . S
C227 H231 0.930 1_556 S
C228 C226 1.356 1_545 S
C228 C229 1.348 . S
C229 C224 1.353 1_545 S
C229 C228 1.348 . S
C229 H281 0.929 . S
H230 C224 0.930 . S
H231 C227 0.930 1_554 S
C232 N233 1.314 . S
C232 C234 1.353 . S
C232 H238 0.930 . S
N233 Li209 1.990 . S
N233 C232 1.314 . S
N233 C236 1.279 . S
C234 C232 1.353 . S
C234 C237 1.348 . S
C234 H282 0.929 . S
C235 C236 1.358 . S
C235 C237 1.356 . S
C235 H283 0.930 . S
C236 N233 1.279 . S
C236 C235 1.358 . S
C236 H239 0.930 . S
C237 C234 1.348 . S
C237 C235 1.356 . S
H238 C232 0.930 . S
H239 C236 0.930 . S
C240 C242 1.348 . S
C240 C243 1.356 . S
C240 O270 1.325 . S
N241 C244 1.314 . S
N241 C245 1.279 . S
C242 C240 1.348 . S
C242 C244 1.353 . S
C242 H284 0.929 . S
C243 C240 1.356 . S
C243 C245 1.358 . S
C243 H285 0.930 . S
C244 N241 1.314 . S
C244 C242 1.353 . S
C244 H286 0.930 . S
C245 N241 1.279 . S
C245 C243 1.358 . S
C245 H287 0.930 . S
C246 C247 1.348 1_554 S
C246 C248 1.356 . S
C246 O271 1.325 . S
C247 C246 1.348 1_556 S
C247 C249 1.353 . S
C247 H288 0.929 . S
C248 C246 1.356 . S
C248 C250 1.358 . S
C248 H289 0.930 . S
C249 C247 1.353 . S
C249 N251 1.314 1_556 S
C249 H290 0.930 . S
C250 C248 1.358 . S
C250 N251 1.279 . S
C250 H291 0.930 . S
N251 C249 1.314 1_554 S
N251 C250 1.279 . S
C252 C254 1.353 . S
C252 N255 1.314 . S
C252 H258 0.930 . S
C253 N255 1.279 . S
C253 C256 1.358 . S
C253 H259 0.930 . S
C254 C252 1.353 . S
C254 C257 1.348 . S
C254 H292 0.929 . S
N255 Li210 1.990 . S
N255 C252 1.314 . S
N255 C253 1.279 . S
C256 C253 1.358 . S
C256 C257 1.356 . S
C256 H293 0.930 . S
C257 C254 1.348 . S
C257 C256 1.356 . S
H258 C252 0.930 . S
H259 C253 0.930 . S
C260 N261 1.314 . S
C260 C262 1.353 . S
C260 H266 0.930 . S
N261 Li211 1.990 . S
N261 C260 1.314 . S
N261 C264 1.279 . S
C262 C260 1.353 . S
C262 C265 1.348 . S
C262 H294 0.929 1_565 S
C263 C264 1.358 . S
C263 C265 1.356 . S
C263 H295 0.930 . S
C264 N261 1.279 . S
C264 C263 1.358 . S
C264 H267 0.930 . S
C265 C262 1.348 . S
C265 C263 1.356 . S
H266 C260 0.930 . S
H267 C264 0.930 . S
O268 Li208 1.955 . S
O268 Li209 1.985 . S
O268 Li210 1.950 1_554 S
O268 C212 1.323 1_554 S
O269 Li208 1.970 . S
O269 Li209 1.956 . S
O269 Li211 1.961 . S
O269 C218 1.325 . S
O270 Li208 1.961 1_556 S
O270 Li210 1.956 . S
O270 Li211 1.970 1_556 S
O270 C240 1.325 . S
O271 Li209 1.961 . S
O271 Li210 1.970 1_554 S
O271 Li211 1.956 . S
O271 C246 1.325 . S
H272 C214 0.929 . S
H273 C215 0.930 . S
H274 C216 0.930 . S
H275 C217 0.930 . S
H276 C219 0.930 . S
H277 C221 0.929 . S
H278 C222 0.930 . S
H279 C223 0.930 1_545 S
H280 C226 0.930 . S
H281 C229 0.929 . S
H282 C234 0.929 . S
H283 C235 0.930 . S
H284 C242 0.929 . S
H285 C243 0.930 . S
H286 C244 0.930 . S
H287 C245 0.930 . S
H288 C247 0.929 . S
H289 C248 0.930 . S
H290 C249 0.930 . S
H291 C250 0.930 . S
H292 C254 0.929 . S
H293 C256 0.930 . S
H294 C262 0.929 1_545 S
H295 C263 0.930 . S
Li296 N313 1.990 . S
Li296 O356 1.956 . S
Li296 O357 1.970 . S
Li296 O358 1.961 . S
Li297 N321 1.990 . S
Li297 O356 1.970 . S
Li297 O357 1.956 . S
Li297 O359 1.961 . S
Li298 N343 1.990 . S
Li298 O356 1.961 . S
Li298 O358 1.956 . S
Li298 O359 1.970 . S
Li299 N349 1.990 . S
Li299 O357 1.961 . S
Li299 O358 1.970 . S
Li299 O359 1.956 . S
C300 C302 1.348 . S
C300 C303 1.356 . S
C300 O356 1.325 . S
N301 C304 1.314 . S
N301 C305 1.279 . S
C302 C300 1.348 . S
C302 C304 1.353 . S
C302 H360 0.929 . S
C303 C300 1.356 . S
C303 C305 1.358 . S
C303 H361 0.930 . S
C304 N301 1.314 . S
C304 C302 1.353 . S
C304 H362 0.930 . S
C305 N301 1.279 . S
C305 C303 1.358 . S
C305 H363 0.930 . S
C306 C309 1.348 . S
C306 C310 1.356 . S
C306 O357 1.325 . S
C307 N308 1.279 . S
C307 C310 1.358 . S
C307 H364 0.930 . S
N308 C307 1.279 . S
N308 C311 1.314 . S
C309 C306 1.348 . S
C309 C311 1.353 . S
C309 H365 0.929 . S
C310 C306 1.356 . S
C310 C307 1.358 . S
C310 H366 0.930 . S
C311 N308 1.314 . S
C311 C309 1.353 . S
C311 H367 0.930 . S
C312 N313 1.314 . S
C312 C317 1.353 . S
C312 H318 0.930 . S
N313 Li296 1.990 . S
N313 C312 1.314 . S
N313 C315 1.279 . S
C314 C315 1.358 . S
C314 C316 1.356 . S
C314 H368 0.930 . S
C315 N313 1.279 . S
C315 C314 1.358 . S
C315 H319 0.930 . S
C316 C314 1.356 . S
C316 C317 1.348 . S
C317 C312 1.353 . S
C317 C316 1.348 . S
C317 H369 0.929 1_455 S
H318 C312 0.930 . S
H319 C315 0.930 . S
C320 N321 1.314 . S
C320 C322 1.353 . S
C320 H326 0.930 . S
N321 Li297 1.990 . S
N321 C320 1.314 . S
N321 C324 1.279 . S
C322 C320 1.353 . S
C322 C325 1.348 . S
C322 H370 0.929 . S
C323 C324 1.358 . S
C323 C325 1.356 . S
C323 H371 0.930 . S
C324 N321 1.279 . S
C324 C323 1.358 . S
C324 H327 0.930 . S
C325 C322 1.348 . S
C325 C323 1.356 . S
H326 C320 0.930 . S
H327 C324 0.930 . S
C328 C330 1.348 . S
C328 C331 1.356 . S
C328 O358 1.325 . S
N329 C332 1.314 . S
N329 C333 1.279 . S
C330 C328 1.348 . S
C330 C332 1.353 . S
C330 H372 0.929 . S
C331 C328 1.356 . S
C331 C333 1.358 . S
C331 H373 0.930 . S
C332 N329 1.314 . S
C332 C330 1.353 . S
C332 H374 0.930 . S
C333 N329 1.279 . S
C333 C331 1.358 . S
C333 H375 0.930 . S
C334 C335 1.348 . S
C334 C336 1.356 . S
C334 O359 1.325 . S
C335 C334 1.348 . S
C335 C337 1.353 . S
C335 H376 0.929 . S
C336 C334 1.356 . S
C336 C338 1.358 . S
C336 H377 0.930 . S
C337 C335 1.353 . S
C337 N339 1.314 . S
C337 H378 0.930 . S
C338 C336 1.358 . S
C338 N339 1.279 . S
C338 H379 0.930 . S
N339 C337 1.314 . S
N339 C338 1.279 . S
C340 C342 1.353 . S
C340 N343 1.314 . S
C340 H346 0.930 . S
C341 N343 1.279 . S
C341 C344 1.358 . S
C341 H347 0.930 . S
C342 C340 1.353 . S
C342 C345 1.348 . S
C342 H380 0.929 . S
N343 Li298 1.990 . S
N343 C340 1.314 . S
N343 C341 1.279 . S
C344 C341 1.358 . S
C344 C345 1.356 . S
C344 H381 0.930 . S
C345 C342 1.348 . S
C345 C344 1.356 . S
H346 C340 0.930 . S
H347 C341 0.930 . S
C348 N349 1.314 . S
C348 C350 1.353 . S
C348 H354 0.930 . S
N349 Li299 1.990 . S
N349 C348 1.314 . S
N349 C352 1.279 . S
C350 C348 1.353 . S
C350 C353 1.348 . S
C350 H382 0.929 1_455 S
C351 C352 1.358 . S
C351 C353 1.356 . S
C351 H383 0.930 . S
C352 N349 1.279 . S
C352 C351 1.358 . S
C352 H355 0.930 . S
C353 C350 1.348 . S
C353 C351 1.356 . S
H354 C348 0.930 . S
H355 C352 0.930 . S
O356 Li296 1.956 . S
O356 Li297 1.970 . S
O356 Li298 1.961 . S
O356 C300 1.325 . S
O357 Li296 1.970 . S
O357 Li297 1.956 . S
O357 Li299 1.961 . S
O357 C306 1.325 . S
O358 Li296 1.961 . S
O358 Li298 1.956 . S
O358 Li299 1.970 . S
O358 C328 1.325 . S
O359 Li297 1.961 . S
O359 Li298 1.970 . S
O359 Li299 1.956 . S
O359 C334 1.325 . S
H360 C302 0.929 . S
H361 C303 0.930 . S
H362 C304 0.930 . S
H363 C305 0.930 . S
H364 C307 0.930 . S
H365 C309 0.929 . S
H366 C310 0.930 . S
H367 C311 0.930 . S
H368 C314 0.930 . S
H369 C317 0.929 1_655 S
H370 C322 0.929 . S
H371 C323 0.930 . S
H372 C330 0.929 . S
H373 C331 0.930 . S
H374 C332 0.930 . S
H375 C333 0.930 . S
H376 C335 0.929 . S
H377 C336 0.930 . S
H378 C337 0.930 . S
H379 C338 0.930 . S
H380 C342 0.929 . S
H381 C344 0.930 . S
H382 C350 0.929 1_655 S
H383 C351 0.930 . S
Li384 N401 1.990 . S
Li384 O444 1.956 1_556 S
Li384 O445 1.970 1_556 S
Li384 O446 1.961 . S
Li385 N409 1.990 . S
Li385 O444 1.970 . S
Li385 O445 1.956 . S
Li385 O447 1.961 . S
Li386 N431 1.990 . S
Li386 O444 1.961 1_556 S
Li386 O446 1.956 . S
Li386 O447 1.970 1_556 S
Li387 N437 1.990 . S
Li387 O445 1.961 . S
Li387 O446 1.970 1_554 S
Li387 O447 1.956 . S
C388 C390 1.348 . S
C388 C391 1.356 1_554 S
C388 O444 1.325 . S
N389 C392 1.314 1_556 S
N389 C393 1.279 . S
C390 C388 1.348 . S
C390 C392 1.353 . S
C390 H448 0.929 . S
C391 C388 1.356 1_556 S
C391 C393 1.358 . S
C391 H449 0.930 . S
C392 N389 1.314 1_554 S
C392 C390 1.353 . S
C392 H450 0.930 . S
C393 N389 1.279 . S
C393 C391 1.358 . S
C393 H451 0.930 . S
C394 C397 1.348 . S
C394 C398 1.356 . S
C394 O445 1.325 . S
C395 N396 1.279 . S
C395 C398 1.358 . S
C395 H452 0.930 . S
N396 C395 1.279 . S
N396 C399 1.314 . S
C397 C394 1.348 . S
C397 C399 1.353 . S
C397 H453 0.929 . S
C398 C394 1.356 . S
C398 C395 1.358 . S
C398 H454 0.930 . S
C399 N396 1.314 . S
C399 C397 1.353 . S
C399 H455 0.930 . S
C400 N401 1.314 . S
C400 C405 1.353 . S
C400 H406 0.930 . S
N401 Li384 1.990 . S
N401 C400 1.314 . S
N401 C403 1.279 . S
C402 C403 1.358 . S
C402 C404 1.356 . S
C402 H456 0.930 . S
C403 N401 1.279 . S
C403 C402 1.358 . S
C403 H407 0.930 . S
C404 C402 1.356 . S
C404 C405 1.348 . S
C405 C400 1.353 . S
C405 C404 1.348 . S
C405 H457 0.929 . S
H406 C400 0.930 . S
H407 C403 0.930 . S
C408 N409 1.314 . S
C408 C410 1.353 . S
C408 H414 0.930 . S
N409 Li385 1.990 . S
N409 C408 1.314 . S
N409 C412 1.279 . S
C410 C408 1.353 . S
C410 C413 1.348 . S
C410 H458 0.929 . S
C411 C412 1.358 . S
C411 C413 1.356 . S
C411 H459 0.930 . S
C412 N409 1.279 . S
C412 C411 1.358 . S
C412 H415 0.930 . S
C413 C410 1.348 . S
C413 C411 1.356 . S
H414 C408 0.930 . S
H415 C412 0.930 . S
C416 C418 1.348 . S
C416 C419 1.356 . S
C416 O446 1.325 . S
N417 C420 1.314 . S
N417 C421 1.279 . S
C418 C416 1.348 . S
C418 C420 1.353 . S
C418 H460 0.929 . S
C419 C416 1.356 . S
C419 C421 1.358 . S
C419 H461 0.930 . S
C420 N417 1.314 . S
C420 C418 1.353 . S
C420 H462 0.930 . S
C421 N417 1.279 . S
C421 C419 1.358 . S
C421 H463 0.930 . S
C422 C423 1.360 . S
C422 C424 1.356 . S
C422 O447 1.325 . S
C423 C422 1.360 . S
C423 C425 1.357 . S
C423 H464 0.914 1_554 S
C424 C422 1.356 . S
C424 C426 1.358 . S
C424 H465 0.930 . S
C425 C423 1.357 . S
C425 N427 1.314 . S
C425 H466 0.930 1_554 S
C426 C424 1.358 . S
C426 N427 1.279 . S
C426 H467 0.930 . S
N427 C425 1.314 . S
N427 C426 1.279 . S
C428 C430 1.353 . S
C428 N431 1.314 . S
C428 H434 0.930 . S
C429 N431 1.279 . S
C429 C432 1.358 . S
C429 H435 0.930 . S
C430 C428 1.353 . S
C430 C433 1.348 . S
C430 H468 0.929 . S
N431 Li386 1.990 . S
N431 C428 1.314 . S
N431 C429 1.279 . S
C432 C429 1.358 . S
C432 C433 1.356 . S
C432 H469 0.930 . S
C433 C430 1.348 . S
C433 C432 1.356 . S
H434 C428 0.930 . S
H435 C429 0.930 . S
C436 N437 1.314 . S
C436 C438 1.353 . S
C436 H442 0.930 . S
N437 Li387 1.990 . S
N437 C436 1.314 . S
N437 C440 1.279 . S
C438 C436 1.353 . S
C438 C441 1.348 . S
C438 H470 0.929 . S
C439 C440 1.358 . S
C439 C441 1.356 . S
C439 H471 0.930 . S
C440 N437 1.279 . S
C440 C439 1.358 . S
C440 H443 0.930 . S
C441 C438 1.348 . S
C441 C439 1.356 . S
H442 C436 0.930 . S
H443 C440 0.930 . S
O444 Li384 1.956 1_554 S
O444 Li385 1.970 . S
O444 Li386 1.961 1_554 S
O444 C388 1.325 . S
O445 Li384 1.970 1_554 S
O445 Li385 1.956 . S
O445 Li387 1.961 . S
O445 C394 1.325 . S
O446 Li384 1.961 . S
O446 Li386 1.956 . S
O446 Li387 1.970 1_556 S
O446 C416 1.325 . S
O447 Li385 1.961 . S
O447 Li386 1.970 1_554 S
O447 Li387 1.956 . S
O447 C422 1.325 . S
H448 C390 0.929 . S
H449 C391 0.930 . S
H450 C392 0.930 . S
H451 C393 0.930 . S
H452 C395 0.930 . S
H453 C397 0.929 . S
H454 C398 0.930 . S
H455 C399 0.930 . S
H456 C402 0.930 . S
H457 C405 0.929 . S
H458 C410 0.929 . S
H459 C411 0.930 . S
H460 C418 0.929 . S
H461 C419 0.930 . S
H462 C420 0.930 . S
H463 C421 0.930 . S
H464 C423 0.914 1_556 S
H465 C424 0.930 . S
H466 C425 0.930 1_556 S
H467 C426 0.930 . S
H468 C430 0.929 . S
H469 C432 0.930 . S
H470 C438 0.929 . S
H471 C439 0.930 . S
Li472 N489 1.990 . S
Li472 O532 1.956 . S
Li472 O533 1.970 . S
Li472 O534 1.960 . S
Li473 N497 1.990 . S
Li473 O532 1.970 . S
Li473 O533 1.956 . S
Li473 O535 1.961 1_545 S
Li474 N519 1.990 . S
Li474 O532 1.961 . S
Li474 O534 1.956 . S
Li474 O535 1.970 1_545 S
Li475 N525 1.990 . S
Li475 O533 1.961 1_565 S
Li475 O534 1.972 1_565 S
Li475 O535 1.956 . S
C476 C478 1.348 . S
C476 C479 1.356 . S
C476 O532 1.325 . S
N477 C480 1.314 . S
N477 C481 1.279 . S
C478 C476 1.348 . S
C478 C480 1.353 . S
C478 H536 0.929 . S
C479 C476 1.356 . S
C479 C481 1.358 . S
C479 H537 0.930 . S
C480 N477 1.314 . S
C480 C478 1.353 . S
C480 H538 0.930 . S
C481 N477 1.279 . S
C481 C479 1.358 . S
C481 H539 0.930 . S
C482 C485 1.350 . S
C482 C486 1.353 1_545 S
C482 O533 1.325 . S
C483 N484 1.279 . S
C483 C486 1.358 . S
C483 H540 0.930 . S
N484 C483 1.279 . S
N484 C487 1.314 1_565 S
C485 C482 1.350 . S
C485 C487 1.353 . S
C485 H541 0.929 . S
C486 C482 1.353 1_565 S
C486 C483 1.358 . S
C486 H542 0.930 . S
C487 N484 1.314 1_545 S
C487 C485 1.353 . S
C487 H543 0.930 . S
C488 N489 1.314 . S
C488 C493 1.353 . S
C488 H494 0.930 . S
N489 Li472 1.990 . S
N489 C488 1.314 . S
N489 C491 1.279 . S
C490 C491 1.358 . S
C490 C492 1.356 . S
C490 H544 0.930 . S
C491 N489 1.279 . S
C491 C490 1.358 . S
C491 H495 0.930 . S
C492 C490 1.356 . S
C492 C493 1.348 . S
C493 C488 1.353 . S
C493 C492 1.348 . S
C493 H545 0.929 . S
H494 C488 0.930 . S
H495 C491 0.930 . S
C496 N497 1.314 1_565 S
C496 C498 1.353 . S
C496 H502 0.930 . S
N497 Li473 1.990 . S
N497 C496 1.314 1_545 S
N497 C500 1.279 . S
C498 C496 1.353 . S
C498 C501 1.348 1_565 S
C498 H546 0.929 1_655 S
C499 C500 1.358 . S
C499 C501 1.356 . S
C499 H547 0.930 . S
C500 N497 1.279 . S
C500 C499 1.358 . S
C500 H503 0.930 . S
C501 C498 1.348 1_545 S
C501 C499 1.356 . S
H502 C496 0.930 . S
H503 C500 0.930 . S
C504 C506 1.345 . S
C504 C507 1.359 1_565 S
C504 O534 1.324 1_565 S
N505 C508 1.306 1_545 S
N505 C509 1.286 . S
C506 C504 1.345 . S
C506 C508 1.353 . S
C506 H548 0.929 . S
C507 C504 1.359 1_545 S
C507 C509 1.358 . S
C507 H549 0.930 . S
C508 N505 1.306 1_565 S
C508 C506 1.353 . S
C508 H550 0.930 . S
C509 N505 1.286 . S
C509 C507 1.358 . S
C509 H551 0.930 . S
C510 C511 1.348 . S
C510 C512 1.356 . S
C510 O535 1.325 . S
C511 C510 1.348 . S
C511 C513 1.353 . S
C511 H552 0.929 . S
C512 C510 1.356 . S
C512 C514 1.358 . S
C512 H553 0.930 . S
C513 C511 1.353 . S
C513 N515 1.314 . S
C513 H554 0.930 . S
C514 C512 1.358 . S
C514 N515 1.279 . S
C514 H555 0.930 . S
N515 C513 1.314 . S
N515 C514 1.279 . S
C516 C518 1.353 . S
C516 N519 1.314 . S
C516 H522 0.930 . S
C517 N519 1.279 1_565 S
C517 C520 1.358 . S
C517 H523 0.930 . S
C518 C516 1.353 . S
C518 C521 1.348 . S
C518 H556 0.929 1_655 S
N519 Li474 1.990 . S
N519 C516 1.314 . S
N519 C517 1.279 1_545 S
C520 C517 1.358 . S
C520 C521 1.356 1_565 S
C520 H557 0.930 . S
C521 C518 1.348 . S
C521 C520 1.356 1_545 S
H522 C516 0.930 . S
H523 C517 0.930 . S
C524 N525 1.314 . S
C524 C526 1.353 . S
C524 H530 0.930 . S
N525 Li475 1.990 . S
N525 C524 1.314 . S
N525 C528 1.279 . S
C526 C524 1.353 . S
C526 C529 1.348 . S
C526 H558 0.929 . S
C527 C528 1.358 . S
C527 C529 1.356 . S
C527 H559 0.930 . S
C528 N525 1.279 . S
C528 C527 1.358 . S
C528 H531 0.930 . S
C529 C526 1.348 . S
C529 C527 1.356 . S
H530 C524 0.930 . S
H531 C528 0.930 . S
O532 Li472 1.956 . S
O532 Li473 1.970 . S
O532 Li474 1.961 . S
O532 C476 1.325 . S
O533 Li472 1.970 . S
O533 Li473 1.956 . S
O533 Li475 1.961 1_545 S
O533 C482 1.325 . S
O534 Li472 1.960 . S
O534 Li474 1.956 . S
O534 Li475 1.972 1_545 S
O534 C504 1.324 1_545 S
O535 Li473 1.961 1_565 S
O535 Li474 1.970 1_565 S
O535 Li475 1.956 . S
O535 C510 1.325 . S
H536 C478 0.929 . S
H537 C479 0.930 . S
H538 C480 0.930 . S
H539 C481 0.930 . S
H540 C483 0.930 . S
H541 C485 0.929 . S
H542 C486 0.930 . S
H543 C487 0.930 . S
H544 C490 0.930 . S
H545 C493 0.929 . S
H546 C498 0.929 1_455 S
H547 C499 0.930 . S
H548 C506 0.929 . S
H549 C507 0.930 . S
H550 C508 0.930 . S
H551 C509 0.930 . S
H552 C511 0.929 . S
H553 C512 0.930 . S
H554 C513 0.930 . S
H555 C514 0.930 . S
H556 C518 0.929 1_455 S
H557 C520 0.930 . S
H558 C526 0.929 . S
H559 C527 0.930 . S
Li560 N577 1.990 . S
Li560 O620 1.956 . S
Li560 O621 1.970 . S
Li560 O622 1.961 . S
Li561 N585 1.990 . S
Li561 O620 1.970 . S
Li561 O621 1.956 . S
Li561 O623 1.961 . S
Li562 N607 1.990 . S
Li562 O620 1.961 . S
Li562 O622 1.956 . S
Li562 O623 1.970 . S
Li563 N613 1.990 . S
Li563 O621 1.961 . S
Li563 O622 1.970 . S
Li563 O623 1.956 . S
C564 C566 1.348 . S
C564 C567 1.356 . S
C564 O620 1.325 . S
N565 C568 1.314 . S
N565 C569 1.279 . S
C566 C564 1.348 . S
C566 C568 1.353 . S
C566 H624 0.929 . S
C567 C564 1.356 . S
C567 C569 1.358 . S
C567 H625 0.930 . S
C568 N565 1.314 . S
C568 C566 1.353 . S
C568 H626 0.930 . S
C569 N565 1.279 . S
C569 C567 1.358 . S
C569 H627 0.930 . S
C570 C573 1.348 . S
C570 C574 1.356 . S
C570 O621 1.325 . S
C571 N572 1.279 . S
C571 C574 1.358 . S
C571 H628 0.930 . S
N572 C571 1.279 . S
N572 C575 1.314 . S
C573 C570 1.348 . S
C573 C575 1.353 . S
C573 H629 0.929 . S
C574 C570 1.356 . S
C574 C571 1.358 . S
C574 H630 0.930 . S
C575 N572 1.314 . S
C575 C573 1.353 . S
C575 H631 0.930 . S
C576 N577 1.314 . S
C576 C581 1.353 . S
C576 H582 0.930 . S
N577 Li560 1.990 . S
N577 C576 1.314 . S
N577 C579 1.279 . S
C578 C579 1.358 . S
C578 C580 1.356 . S
C578 H632 0.930 . S
C579 N577 1.279 . S
C579 C578 1.358 . S
C579 H583 0.930 . S
C580 C578 1.356 . S
C580 C581 1.348 . S
C581 C576 1.353 . S
C581 C580 1.348 . S
C581 H633 0.929 . S
H582 C576 0.930 . S
H583 C579 0.930 . S
C584 N585 1.314 . S
C584 C586 1.353 . S
C584 H590 0.930 . S
N585 Li561 1.990 . S
N585 C584 1.314 . S
N585 C588 1.279 . S
C586 C584 1.353 . S
C586 C589 1.348 . S
C586 H634 0.929 1_545 S
C587 C588 1.358 . S
C587 C589 1.356 . S
C587 H635 0.930 . S
C588 N585 1.279 . S
C588 C587 1.358 . S
C588 H591 0.930 . S
C589 C586 1.348 . S
C589 C587 1.356 . S
H590 C584 0.930 . S
H591 C588 0.930 . S
C592 C594 1.348 . S
C592 C595 1.356 . S
C592 O622 1.325 . S
N593 C596 1.314 . S
N593 C597 1.279 . S
C594 C592 1.348 . S
C594 C596 1.353 . S
C594 H636 0.929 . S
C595 C592 1.356 . S
C595 C597 1.358 . S
C595 H637 0.930 . S
C596 N593 1.314 . S
C596 C594 1.353 . S
C596 H638 0.930 . S
C597 N593 1.279 . S
C597 C595 1.358 . S
C597 H639 0.930 . S
C598 C599 1.348 . S
C598 C600 1.356 . S
C598 O623 1.325 . S
C599 C598 1.348 . S
C599 C601 1.353 . S
C599 H640 0.929 . S
C600 C598 1.356 . S
C600 C602 1.358 . S
C600 H641 0.930 . S
C601 C599 1.353 . S
C601 N603 1.314 . S
C601 H642 0.930 . S
C602 C600 1.358 . S
C602 N603 1.279 . S
C602 H643 0.930 . S
N603 C601 1.314 . S
N603 C602 1.279 . S
C604 C606 1.353 . S
C604 N607 1.314 . S
C604 H610 0.930 . S
C605 N607 1.279 . S
C605 C608 1.358 . S
C605 H611 0.930 . S
C606 C604 1.353 . S
C606 C609 1.348 . S
C606 H644 0.929 1_545 S
N607 Li562 1.990 . S
N607 C604 1.314 . S
N607 C605 1.279 . S
C608 C605 1.358 . S
C608 C609 1.356 . S
C608 H645 0.930 . S
C609 C606 1.348 . S
C609 C608 1.356 . S
H610 C604 0.930 . S
H611 C605 0.930 . S
C612 N613 1.314 . S
C612 C614 1.353 . S
C612 H618 0.930 . S
N613 Li563 1.990 . S
N613 C612 1.314 . S
N613 C616 1.279 . S
C614 C612 1.353 . S
C614 C617 1.348 . S
C614 H646 0.929 . S
C615 C616 1.358 . S
C615 C617 1.356 . S
C615 H647 0.930 . S
C616 N613 1.279 . S
C616 C615 1.358 . S
C616 H619 0.930 . S
C617 C614 1.348 . S
C617 C615 1.356 . S
H618 C612 0.930 . S
H619 C616 0.930 . S
O620 Li560 1.956 . S
O620 Li561 1.970 . S
O620 Li562 1.961 . S
O620 C564 1.325 . S
O621 Li560 1.970 . S
O621 Li561 1.956 . S
O621 Li563 1.961 . S
O621 C570 1.325 . S
O622 Li560 1.961 . S
O622 Li562 1.956 . S
O622 Li563 1.970 . S
O622 C592 1.325 . S
O623 Li561 1.961 . S
O623 Li562 1.970 . S
O623 Li563 1.956 . S
O623 C598 1.325 . S
H624 C566 0.929 . S
H625 C567 0.930 . S
H626 C568 0.930 . S
H627 C569 0.930 . S
H628 C571 0.930 . S
H629 C573 0.929 . S
H630 C574 0.930 . S
H631 C575 0.930 . S
H632 C578 0.930 . S
H633 C581 0.929 . S
H634 C586 0.929 1_565 S
H635 C587 0.930 . S
H636 C594 0.929 . S
H637 C595 0.930 . S
H638 C596 0.930 . S
H639 C597 0.930 . S
H640 C599 0.929 . S
H641 C600 0.930 . S
H642 C601 0.930 . S
H643 C602 0.930 . S
H644 C606 0.929 1_565 S
H645 C608 0.930 . S
H646 C614 0.929 . S
H647 C615 0.930 . S
Li648 N665 1.990 . S
Li648 O708 1.956 . S
Li648 O709 1.970 . S
Li648 O710 1.961 . S
Li649 N673 1.990 . S
Li649 O708 1.970 . S
Li649 O709 1.956 . S
Li649 O711 1.961 . S
Li650 N695 1.990 . S
Li650 O708 1.961 . S
Li650 O710 1.956 . S
Li650 O711 1.970 . S
Li651 N701 1.990 . S
Li651 O709 1.961 . S
Li651 O710 1.970 . S
Li651 O711 1.956 . S
C652 C654 1.348 . S
C652 C655 1.356 . S
C652 O708 1.325 . S
N653 C656 1.314 . S
N653 C657 1.279 . S
C654 C652 1.348 . S
C654 C656 1.353 . S
C654 H712 0.929 . S
C655 C652 1.356 . S
C655 C657 1.358 . S
C655 H713 0.930 . S
C656 N653 1.314 . S
C656 C654 1.353 . S
C656 H714 0.930 . S
C657 N653 1.279 . S
C657 C655 1.358 . S
C657 H715 0.930 . S
C658 C661 1.348 . S
C658 C662 1.356 . S
C658 O709 1.325 . S
C659 N660 1.279 . S
C659 C662 1.358 . S
C659 H716 0.930 . S
N660 C659 1.279 . S
N660 C663 1.314 . S
C661 C658 1.348 . S
C661 C663 1.353 . S
C661 H717 0.929 . S
C662 C658 1.356 . S
C662 C659 1.358 . S
C662 H718 0.930 . S
C663 N660 1.314 . S
C663 C661 1.353 . S
C663 H719 0.930 . S
C664 N665 1.314 . S
C664 C669 1.353 . S
C664 H670 0.930 . S
N665 Li648 1.990 . S
N665 C664 1.314 . S
N665 C667 1.279 . S
C666 C667 1.358 . S
C666 C668 1.356 . S
C666 H720 0.930 . S
C667 N665 1.279 . S
C667 C666 1.358 . S
C667 H671 0.930 . S
C668 C666 1.356 . S
C668 C669 1.348 . S
C669 C664 1.353 . S
C669 C668 1.348 . S
C669 H721 0.929 . S
H670 C664 0.930 . S
H671 C667 0.930 . S
C672 N673 1.314 . S
C672 C674 1.353 . S
C672 H678 0.930 . S
N673 Li649 1.990 . S
N673 C672 1.314 . S
N673 C676 1.279 . S
C674 C672 1.353 . S
C674 C677 1.348 . S
C674 H722 0.929 . S
C675 C676 1.358 . S
C675 C677 1.356 . S
C675 H723 0.930 . S
C676 N673 1.279 . S
C676 C675 1.358 . S
C676 H679 0.930 . S
C677 C674 1.348 . S
C677 C675 1.356 . S
H678 C672 0.930 . S
H679 C676 0.930 . S
C680 C682 1.348 . S
C680 C683 1.356 . S
C680 O710 1.325 . S
N681 C684 1.314 . S
N681 C685 1.279 . S
C682 C680 1.348 . S
C682 C684 1.353 . S
C682 H724 0.929 . S
C683 C680 1.356 . S
C683 C685 1.358 . S
C683 H725 0.930 . S
C684 N681 1.314 . S
C684 C682 1.353 . S
C684 H726 0.930 . S
C685 N681 1.279 . S
C685 C683 1.358 . S
C685 H727 0.930 . S
C686 C687 1.348 . S
C686 C688 1.356 . S
C686 O711 1.325 . S
C687 C686 1.348 . S
C687 C689 1.353 . S
C687 H728 0.929 . S
C688 C686 1.356 . S
C688 C690 1.358 . S
C688 H729 0.930 . S
C689 C687 1.353 . S
C689 N691 1.314 . S
C689 H730 0.930 . S
C690 C688 1.358 . S
C690 N691 1.279 . S
C690 H731 0.930 . S
N691 C689 1.314 . S
N691 C690 1.279 . S
C692 C694 1.353 . S
C692 N695 1.314 . S
C692 H698 0.930 . S
C693 N695 1.279 . S
C693 C696 1.358 . S
C693 H699 0.930 . S
C694 C692 1.353 . S
C694 C697 1.348 . S
C694 H732 0.929 . S
N695 Li650 1.990 . S
N695 C692 1.314 . S
N695 C693 1.279 . S
C696 C693 1.358 . S
C696 C697 1.356 . S
C696 H733 0.930 . S
C697 C694 1.348 . S
C697 C696 1.356 . S
H698 C692 0.930 . S
H699 C693 0.930 . S
C700 N701 1.314 . S
C700 C702 1.353 . S
C700 H706 0.930 . S
N701 Li651 1.990 . S
N701 C700 1.314 . S
N701 C704 1.279 . S
C702 C700 1.353 . S
C702 C705 1.348 . S
C702 H734 0.929 . S
C703 C704 1.358 . S
C703 C705 1.356 . S
C703 H735 0.930 . S
C704 N701 1.279 . S
C704 C703 1.358 . S
C704 H707 0.930 . S
C705 C702 1.348 . S
C705 C703 1.356 . S
H706 C700 0.930 . S
H707 C704 0.930 . S
O708 Li648 1.956 . S
O708 Li649 1.970 . S
O708 Li650 1.961 . S
O708 C652 1.325 . S
O709 Li648 1.970 . S
O709 Li649 1.956 . S
O709 Li651 1.961 . S
O709 C658 1.325 . S
O710 Li648 1.961 . S
O710 Li650 1.956 . S
O710 Li651 1.970 . S
O710 C680 1.325 . S
O711 Li649 1.961 . S
O711 Li650 1.970 . S
O711 Li651 1.956 . S
O711 C686 1.325 . S
H712 C654 0.929 . S
H713 C655 0.930 . S
H714 C656 0.930 . S
H715 C657 0.930 . S
H716 C659 0.930 . S
H717 C661 0.929 . S
H718 C662 0.930 . S
H719 C663 0.930 . S
H720 C666 0.930 . S
H721 C669 0.929 . S
H722 C674 0.929 . S
H723 C675 0.930 . S
H724 C682 0.929 . S
H725 C683 0.930 . S
H726 C684 0.930 . S
H727 C685 0.930 . S
H728 C687 0.929 . S
H729 C688 0.930 . S
H730 C689 0.930 . S
H731 C690 0.930 . S
H732 C694 0.929 . S
H733 C696 0.930 . S
H734 C702 0.929 . S
H735 C703 0.930 . S
Li736 N753 1.990 . S
Li736 O796 1.956 . S
Li736 O797 1.970 . S
Li736 O798 1.961 . S
Li737 N761 1.990 . S
Li737 O796 1.970 . S
Li737 O797 1.956 . S
Li737 O799 1.961 . S
Li738 N783 1.990 . S
Li738 O796 1.961 . S
Li738 O798 1.956 . S
Li738 O799 1.970 . S
Li739 N789 1.990 . S
Li739 O797 1.961 . S
Li739 O798 1.970 . S
Li739 O799 1.956 . S
C740 C742 1.348 . S
C740 C743 1.356 . S
C740 O796 1.325 . S
N741 C744 1.314 . S
N741 C745 1.279 . S
C742 C740 1.348 . S
C742 C744 1.353 . S
C742 H800 0.929 . S
C743 C740 1.356 . S
C743 C745 1.358 . S
C743 H801 0.930 . S
C744 N741 1.314 . S
C744 C742 1.353 . S
C744 H802 0.930 . S
C745 N741 1.279 . S
C745 C743 1.358 . S
C745 H803 0.930 . S
C746 C749 1.348 . S
C746 C750 1.356 . S
C746 O797 1.325 . S
C747 N748 1.279 . S
C747 C750 1.358 . S
C747 H804 0.930 . S
N748 C747 1.279 . S
N748 C751 1.314 . S
C749 C746 1.348 . S
C749 C751 1.353 . S
C749 H805 0.929 . S
C750 C746 1.356 . S
C750 C747 1.358 . S
C750 H806 0.930 . S
C751 N748 1.314 . S
C751 C749 1.353 . S
C751 H807 0.930 . S
C752 N753 1.314 . S
C752 C757 1.353 . S
C752 H758 0.930 . S
N753 Li736 1.990 . S
N753 C752 1.314 . S
N753 C755 1.279 . S
C754 C755 1.358 . S
C754 C756 1.356 . S
C754 H808 0.930 . S
C755 N753 1.279 . S
C755 C754 1.358 . S
C755 H759 0.930 . S
C756 C754 1.356 . S
C756 C757 1.348 . S
C757 C752 1.353 . S
C757 C756 1.348 . S
C757 H809 0.929 . S
H758 C752 0.930 . S
H759 C755 0.930 . S
C760 N761 1.314 . S
C760 C762 1.353 . S
C760 H766 0.930 . S
N761 Li737 1.990 . S
N761 C760 1.314 . S
N761 C764 1.279 . S
C762 C760 1.353 . S
C762 C765 1.348 . S
C762 H810 0.929 . S
C763 C764 1.358 . S
C763 C765 1.356 . S
C763 H811 0.930 . S
C764 N761 1.279 . S
C764 C763 1.358 . S
C764 H767 0.930 . S
C765 C762 1.348 . S
C765 C763 1.356 . S
H766 C760 0.930 . S
H767 C764 0.930 . S
C768 C770 1.348 . S
C768 C771 1.356 . S
C768 O798 1.325 . S
N769 C772 1.314 . S
N769 C773 1.279 . S
C770 C768 1.348 . S
C770 C772 1.353 . S
C770 H812 0.929 . S
C771 C768 1.356 . S
C771 C773 1.358 . S
C771 H813 0.930 . S
C772 N769 1.314 . S
C772 C770 1.353 . S
C772 H814 0.930 . S
C773 N769 1.279 . S
C773 C771 1.358 . S
C773 H815 0.930 . S
C774 C775 1.348 . S
C774 C776 1.356 . S
C774 O799 1.325 . S
C775 C774 1.348 . S
C775 C777 1.353 . S
C775 H816 0.929 . S
C776 C774 1.356 . S
C776 C778 1.358 . S
C776 H817 0.930 . S
C777 C775 1.353 . S
C777 N779 1.314 . S
C777 H818 0.930 . S
C778 C776 1.358 . S
C778 N779 1.279 . S
C778 H819 0.930 . S
N779 C777 1.314 . S
N779 C778 1.279 . S
C780 C782 1.353 . S
C780 N783 1.314 . S
C780 H786 0.930 . S
C781 N783 1.279 . S
C781 C784 1.358 . S
C781 H787 0.930 . S
C782 C780 1.353 . S
C782 C785 1.348 . S
C782 H820 0.929 . S
N783 Li738 1.990 . S
N783 C780 1.314 . S
N783 C781 1.279 . S
C784 C781 1.358 . S
C784 C785 1.356 . S
C784 H821 0.930 . S
C785 C782 1.348 . S
C785 C784 1.356 . S
H786 C780 0.930 . S
H787 C781 0.930 . S
C788 N789 1.314 . S
C788 C790 1.353 . S
C788 H794 0.930 . S
N789 Li739 1.990 . S
N789 C788 1.314 . S
N789 C792 1.279 . S
C790 C788 1.353 . S
C790 C793 1.348 . S
C790 H822 0.929 . S
C791 C792 1.358 . S
C791 C793 1.356 . S
C791 H823 0.930 . S
C792 N789 1.279 . S
C792 C791 1.358 . S
C792 H795 0.930 . S
C793 C790 1.348 . S
C793 C791 1.356 . S
H794 C788 0.930 . S
H795 C792 0.930 . S
O796 Li736 1.956 . S
O796 Li737 1.970 . S
O796 Li738 1.961 . S
O796 C740 1.325 . S
O797 Li736 1.970 . S
O797 Li737 1.956 . S
O797 Li739 1.961 . S
O797 C746 1.325 . S
O798 Li736 1.961 . S
O798 Li738 1.956 . S
O798 Li739 1.970 . S
O798 C768 1.325 . S
O799 Li737 1.961 . S
O799 Li738 1.970 . S
O799 Li739 1.956 . S
O799 C774 1.325 . S
H800 C742 0.929 . S
H801 C743 0.930 . S
H802 C744 0.930 . S
H803 C745 0.930 . S
H804 C747 0.930 . S
H805 C749 0.929 . S
H806 C750 0.930 . S
H807 C751 0.930 . S
H808 C754 0.930 . S
H809 C757 0.929 . S
H810 C762 0.929 . S
H811 C763 0.930 . S
H812 C770 0.929 . S
H813 C771 0.930 . S
H814 C772 0.930 . S
H815 C773 0.930 . S
H816 C775 0.929 . S
H817 C776 0.930 . S
H818 C777 0.930 . S
H819 C778 0.930 . S
H820 C782 0.929 . S
H821 C784 0.930 . S
H822 C790 0.929 . S
H823 C791 0.930 . S
Li824 N841 1.990 . S
Li824 O884 1.956 . S
Li824 O885 1.970 1_565 S
Li824 O886 1.961 1_565 S
Li825 N849 1.990 . S
Li825 O884 1.970 1_545 S
Li825 O885 1.956 . S
Li825 O887 1.961 . S
Li826 N871 1.990 1_545 S
Li826 O884 1.961 1_545 S
Li826 O886 1.956 . S
Li826 O887 1.970 . S
Li827 N877 1.990 . S
Li827 O885 1.961 . S
Li827 O886 1.970 . S
Li827 O887 1.956 . S
C828 C830 1.348 . S
C828 C831 1.356 . S
C828 O884 1.325 . S
N829 C832 1.314 . S
N829 C833 1.279 . S
C830 C828 1.348 . S
C830 C832 1.353 . S
C830 H888 0.929 . S
C831 C828 1.356 . S
C831 C833 1.358 . S
C831 H889 0.930 . S
C832 N829 1.314 . S
C832 C830 1.353 . S
C832 H890 0.930 . S
C833 N829 1.279 . S
C833 C831 1.358 . S
C833 H891 0.930 . S
C834 C837 1.348 . S
C834 C838 1.356 . S
C834 O885 1.325 . S
C835 N836 1.279 . S
C835 C838 1.358 . S
C835 H892 0.930 . S
N836 C835 1.279 . S
N836 C839 1.314 . S
C837 C834 1.348 . S
C837 C839 1.353 . S
C837 H893 0.929 1_545 S
C838 C834 1.356 . S
C838 C835 1.358 . S
C838 H894 0.930 . S
C839 N836 1.314 . S
C839 C837 1.353 . S
C839 H895 0.930 1_545 S
C840 N841 1.314 . S
C840 C845 1.353 . S
C840 H846 0.930 . S
N841 Li824 1.990 . S
N841 C840 1.314 . S
N841 C843 1.279 . S
C842 C843 1.358 . S
C842 C844 1.356 . S
C842 H896 0.930 . S
C843 N841 1.279 . S
C843 C842 1.358 . S
C843 H847 0.930 . S
C844 C842 1.356 . S
C844 C845 1.348 . S
C845 C840 1.353 . S
C845 C844 1.348 . S
C845 H897 0.929 . S
H846 C840 0.930 . S
H847 C843 0.930 . S
C848 N849 1.314 . S
C848 C850 1.353 . S
C848 H854 0.930 . S
N849 Li825 1.990 . S
N849 C848 1.314 . S
N849 C852 1.279 . S
C850 C848 1.353 . S
C850 C853 1.348 . S
C850 H898 0.929 . S
C851 C852 1.358 . S
C851 C853 1.356 . S
C851 H899 0.930 . S
C852 N849 1.279 . S
C852 C851 1.358 . S
C852 H855 0.930 . S
C853 C850 1.348 . S
C853 C851 1.356 . S
H854 C848 0.930 . S
H855 C852 0.930 . S
C856 C858 1.348 1_565 S
C856 C859 1.356 . S
C856 O886 1.325 1_565 S
N857 C860 1.314 1_565 S
N857 C861 1.279 . S
C858 C856 1.348 1_545 S
C858 C860 1.353 . S
C858 H900 0.929 . S
C859 C856 1.356 . S
C859 C861 1.358 . S
C859 H901 0.930 . S
C860 N857 1.314 1_545 S
C860 C858 1.353 . S
C860 H902 0.930 . S
C861 N857 1.279 . S
C861 C859 1.358 . S
C861 H903 0.930 . S
C862 C863 1.348 . S
C862 C864 1.356 . S
C862 O887 1.325 . S
C863 C862 1.348 . S
C863 C865 1.353 . S
C863 H904 0.929 . S
C864 C862 1.356 . S
C864 C866 1.358 . S
C864 H905 0.930 . S
C865 C863 1.353 . S
C865 N867 1.314 . S
C865 H906 0.930 . S
C866 C864 1.358 . S
C866 N867 1.279 . S
C866 H907 0.930 . S
N867 C865 1.314 . S
N867 C866 1.279 . S
C868 C870 1.353 . S
C868 N871 1.314 . S
C868 H874 0.930 . S
C869 N871 1.279 . S
C869 C872 1.358 . S
C869 H875 0.930 . S
C870 C868 1.353 . S
C870 C873 1.348 . S
C870 H908 0.929 . S
N871 Li826 1.990 1_565 S
N871 C868 1.314 . S
N871 C869 1.279 . S
C872 C869 1.358 . S
C872 C873 1.356 . S
C872 H909 0.930 . S
C873 C870 1.348 . S
C873 C872 1.356 . S
H874 C868 0.930 . S
H875 C869 0.930 . S
C876 N877 1.314 . S
C876 C878 1.353 . S
C876 H882 0.930 . S
N877 Li827 1.990 . S
N877 C876 1.314 . S
N877 C880 1.279 . S
C878 C876 1.353 . S
C878 C881 1.348 . S
C878 H910 0.929 . S
C879 C880 1.358 . S
C879 C881 1.356 . S
C879 H911 0.930 . S
C880 N877 1.279 . S
C880 C879 1.358 . S
C880 H883 0.930 . S
C881 C878 1.348 . S
C881 C879 1.356 . S
H882 C876 0.930 . S
H883 C880 0.930 . S
O884 Li824 1.956 . S
O884 Li825 1.970 1_565 S
O884 Li826 1.961 1_565 S
O884 C828 1.325 . S
O885 Li824 1.970 1_545 S
O885 Li825 1.956 . S
O885 Li827 1.961 . S
O885 C834 1.325 . S
O886 Li824 1.961 1_545 S
O886 Li826 1.956 . S
O886 Li827 1.970 . S
O886 C856 1.325 1_545 S
O887 Li825 1.961 . S
O887 Li826 1.970 . S
O887 Li827 1.956 . S
O887 C862 1.325 . S
H888 C830 0.929 . S
H889 C831 0.930 . S
H890 C832 0.930 . S
H891 C833 0.930 . S
H892 C835 0.930 . S
H893 C837 0.929 1_565 S
H894 C838 0.930 . S
H895 C839 0.930 1_565 S
H896 C842 0.930 . S
H897 C845 0.929 . S
H898 C850 0.929 . S
H899 C851 0.930 . S
H900 C858 0.929 . S
H901 C859 0.930 . S
H902 C860 0.930 . S
H903 C861 0.930 . S
H904 C863 0.929 . S
H905 C864 0.930 . S
H906 C865 0.930 . S
H907 C866 0.930 . S
H908 C870 0.929 . S
H909 C872 0.930 . S
H910 C878 0.929 . S
H911 C879 0.930 . S
Li912 N929 1.990 . S
Li912 O972 1.956 . S
Li912 O973 1.970 . S
Li912 O974 1.961 . S
Li913 N937 1.990 . S
Li913 O972 1.970 1_655 S
Li913 O973 1.956 1_655 S
Li913 O975 1.961 . S
Li914 N959 1.990 . S
Li914 O972 1.961 . S
Li914 O974 1.956 . S
Li914 O975 1.970 1_455 S
Li915 N965 1.990 . S
Li915 O973 1.961 1_655 S
Li915 O974 1.970 1_655 S
Li915 O975 1.956 . S
C916 C918 1.348 . S
C916 C919 1.356 . S
C916 O972 1.325 . S
N917 C920 1.314 . S
N917 C921 1.279 1_554 S
C918 C916 1.348 . S
C918 C920 1.353 1_556 S
C918 H976 0.929 . S
C919 C916 1.356 . S
C919 C921 1.358 . S
C919 H977 0.930 . S
C920 N917 1.314 . S
C920 C918 1.353 1_554 S
C920 H978 0.930 . S
C921 N917 1.279 1_556 S
C921 C919 1.358 . S
C921 H979 0.930 . S
C922 C925 1.330 1_655 S
C922 C926 1.376 . S
C922 O973 1.323 1_655 S
C923 N924 1.279 . S
C923 C926 1.358 . S
C923 H980 0.930 . S
N924 C923 1.279 . S
N924 C927 1.314 1_655 S
C925 C922 1.330 1_455 S
C925 C927 1.353 . S
C925 H981 0.929 . S
C926 C922 1.376 . S
C926 C923 1.358 . S
C926 H982 0.930 . S
C927 N924 1.314 1_455 S
C927 C925 1.353 . S
C927 H983 0.930 . S
C928 N929 1.314 . S
C928 C933 1.353 . S
C928 H934 0.930 . S
N929 Li912 1.990 . S
N929 C928 1.314 . S
N929 C931 1.279 . S
C930 C931 1.358 . S
C930 C932 1.356 . S
C930 H984 0.930 . S
C931 N929 1.279 . S
C931 C930 1.358 . S
C931 H935 0.930 . S
C932 C930 1.356 . S
C932 C933 1.348 . S
C933 C928 1.353 . S
C933 C932 1.348 . S
C933 H985 0.929 . S
H934 C928 0.930 . S
H935 C931 0.930 . S
C936 N937 1.314 1_554 S
C936 C938 1.353 . S
C936 H942 0.930 . S
N937 Li913 1.990 . S
N937 C936 1.314 1_556 S
N937 C940 1.279 . S
C938 C936 1.353 . S
C938 C941 1.348 . S
C938 H986 0.929 . S
C939 C940 1.358 . S
C939 C941 1.356 1_556 S
C939 H987 0.928 1_655 S
C940 N937 1.279 . S
C940 C939 1.358 . S
C940 H943 0.930 1_655 S
C941 C938 1.348 . S
C941 C939 1.356 1_554 S
H942 C936 0.930 . S
H943 C940 0.930 1_455 S
C944 C946 1.348 1_455 S
C944 C947 1.356 . S
C944 O974 1.325 . S
N945 C948 1.314 1_455 S
N945 C949 1.279 . S
C946 C944 1.348 1_655 S
C946 C948 1.353 . S
C946 H988 0.929 . S
C947 C944 1.356 . S
C947 C949 1.358 . S
C947 H989 0.930 . S
C948 N945 1.314 1_655 S
C948 C946 1.353 . S
C948 H990 0.930 . S
C949 N945 1.279 . S
C949 C947 1.358 . S
C949 H991 0.930 . S
C950 C951 1.348 . S
C950 C952 1.356 . S
C950 O975 1.325 . S
C951 C950 1.348 . S
C951 C953 1.353 . S
C951 H992 0.929 . S
C952 C950 1.356 . S
C952 C954 1.358 . S
C952 H993 0.930 . S
C953 C951 1.353 . S
C953 N955 1.313 1_556 S
C953 H994 0.930 1_556 S
C954 C952 1.358 . S
C954 N955 1.272 1_556 S
C954 H995 0.930 . S
N955 C953 1.313 1_554 S
N955 C954 1.272 1_554 S
C956 C958 1.353 1_556 S
C956 N959 1.314 . S
C956 H962 0.930 1_556 S
C957 N959 1.279 . S
C957 C960 1.358 . S
C957 H963 0.930 1_455 S
C958 C956 1.353 1_554 S
C958 C961 1.348 . S
C958 H996 0.929 . S
N959 Li914 1.990 . S
N959 C956 1.314 . S
N959 C957 1.279 . S
C960 C957 1.358 . S
C960 C961 1.356 1_556 S
C960 H997 0.930 1_455 S
C961 C958 1.348 . S
C961 C960 1.356 1_554 S
H962 C956 0.930 1_554 S
H963 C957 0.930 1_655 S
C964 N965 1.314 . S
C964 C966 1.353 . S
C964 H970 0.930 . S
N965 Li915 1.990 . S
N965 C964 1.314 . S
N965 C968 1.279 . S
C966 C964 1.353 . S
C966 C969 1.348 . S
C966 H998 0.929 . S
C967 C968 1.358 . S
C967 C969 1.356 . S
C967 H999 0.930 . S
C968 N965 1.279 . S
C968 C967 1.358 . S
C968 H971 0.930 . S
C969 C966 1.348 . S
C969 C967 1.356 . S
H970 C964 0.930 . S
H971 C968 0.930 . S
O972 Li912 1.956 . S
O972 Li913 1.970 1_455 S
O972 Li914 1.961 . S
O972 C916 1.325 . S
O973 Li912 1.970 . S
O973 Li913 1.956 1_455 S
O973 Li915 1.961 1_455 S
O973 C922 1.323 1_455 S
O974 Li912 1.961 . S
O974 Li914 1.956 . S
O974 Li915 1.970 1_455 S
O974 C944 1.325 . S
O975 Li913 1.961 . S
O975 Li914 1.970 1_655 S
O975 Li915 1.956 . S
O975 C950 1.325 . S
H976 C918 0.929 . S
H977 C919 0.930 . S
H978 C920 0.930 . S
H979 C921 0.930 . S
H980 C923 0.930 . S
H981 C925 0.929 . S
H982 C926 0.930 . S
H983 C927 0.930 . S
H984 C930 0.930 . S
H985 C933 0.929 . S
H986 C938 0.929 . S
H987 C939 0.928 1_455 S
H988 C946 0.929 . S
H989 C947 0.930 . S
H990 C948 0.930 . S
H991 C949 0.930 . S
H992 C951 0.929 . S
H993 C952 0.930 . S
H994 C953 0.930 1_554 S
H995 C954 0.930 . S
H996 C958 0.929 . S
H997 C960 0.930 1_655 S
H998 C966 0.929 . S
H999 C967 0.930 . S
Li1000 N1017 1.990 . S
Li1000 O1060 1.956 . S
Li1000 O1061 1.970 . S
Li1000 O1062 1.961 . S
Li1001 N1025 1.990 . S
Li1001 O1060 1.970 . S
Li1001 O1061 1.956 . S
Li1001 O1063 1.961 . S
Li1002 N1047 1.990 . S
Li1002 O1060 1.961 . S
Li1002 O1062 1.956 . S
Li1002 O1063 1.970 . S
Li1003 N1053 1.990 . S
Li1003 O1061 1.961 . S
Li1003 O1062 1.970 . S
Li1003 O1063 1.956 . S
C1004 C1006 1.348 . S
C1004 C1007 1.356 . S
C1004 O1060 1.325 . S
N1005 C1008 1.314 . S
N1005 C1009 1.279 . S
C1006 C1004 1.348 . S
C1006 C1008 1.353 . S
C1006 H1064 0.929 . S
C1007 C1004 1.356 . S
C1007 C1009 1.358 . S
C1007 H1065 0.930 . S
C1008 N1005 1.314 . S
C1008 C1006 1.353 . S
C1008 H1066 0.930 . S
C1009 N1005 1.279 . S
C1009 C1007 1.358 . S
C1009 H1067 0.930 . S
C1010 C1013 1.348 . S
C1010 C1014 1.356 . S
C1010 O1061 1.325 . S
C1011 N1012 1.279 . S
C1011 C1014 1.358 . S
C1011 H1068 0.930 . S
N1012 C1011 1.279 . S
N1012 C1015 1.314 . S
C1013 C1010 1.348 . S
C1013 C1015 1.353 . S
C1013 H1069 0.929 . S
C1014 C1010 1.356 . S
C1014 C1011 1.358 . S
C1014 H1070 0.930 . S
C1015 N1012 1.314 . S
C1015 C1013 1.353 . S
C1015 H1071 0.930 . S
C1016 N1017 1.314 . S
C1016 C1021 1.353 . S
C1016 H1022 0.930 . S
N1017 Li1000 1.990 . S
N1017 C1016 1.314 . S
N1017 C1019 1.279 . S
C1018 C1019 1.358 . S
C1018 C1020 1.356 . S
C1018 H1072 0.930 . S
C1019 N1017 1.279 . S
C1019 C1018 1.358 . S
C1019 H1023 0.930 . S
C1020 C1018 1.356 . S
C1020 C1021 1.348 . S
C1021 C1016 1.353 . S
C1021 C1020 1.348 . S
C1021 H1073 0.929 . S
H1022 C1016 0.930 . S
H1023 C1019 0.930 . S
C1024 N1025 1.314 . S
C1024 C1026 1.353 . S
C1024 H1030 0.930 . S
N1025 Li1001 1.990 . S
N1025 C1024 1.314 . S
N1025 C1028 1.279 . S
C1026 C1024 1.353 . S
C1026 C1029 1.348 . S
C1026 H1074 0.929 . S
C1027 C1028 1.358 . S
C1027 C1029 1.356 . S
C1027 H1075 0.930 . S
C1028 N1025 1.279 . S
C1028 C1027 1.358 . S
C1028 H1031 0.930 . S
C1029 C1026 1.348 . S
C1029 C1027 1.356 . S
H1030 C1024 0.930 . S
H1031 C1028 0.930 . S
C1032 C1034 1.348 . S
C1032 C1035 1.356 . S
C1032 O1062 1.325 . S
N1033 C1036 1.314 . S
N1033 C1037 1.279 . S
C1034 C1032 1.348 . S
C1034 C1036 1.353 . S
C1034 H1076 0.929 . S
C1035 C1032 1.356 . S
C1035 C1037 1.358 . S
C1035 H1077 0.930 . S
C1036 N1033 1.314 . S
C1036 C1034 1.353 . S
C1036 H1078 0.930 . S
C1037 N1033 1.279 . S
C1037 C1035 1.358 . S
C1037 H1079 0.930 . S
C1038 C1039 1.348 . S
C1038 C1040 1.356 . S
C1038 O1063 1.325 . S
C1039 C1038 1.348 . S
C1039 C1041 1.353 . S
C1039 H1080 0.929 . S
C1040 C1038 1.356 . S
C1040 C1042 1.358 . S
C1040 H1081 0.930 . S
C1041 C1039 1.353 . S
C1041 N1043 1.314 . S
C1041 H1082 0.930 . S
C1042 C1040 1.358 . S
C1042 N1043 1.279 . S
C1042 H1083 0.930 . S
N1043 C1041 1.314 . S
N1043 C1042 1.279 . S
C1044 C1046 1.353 . S
C1044 N1047 1.314 . S
C1044 H1050 0.930 . S
C1045 N1047 1.279 . S
C1045 C1048 1.358 . S
C1045 H1051 0.930 . S
C1046 C1044 1.353 . S
C1046 C1049 1.348 . S
C1046 H1084 0.929 . S
N1047 Li1002 1.990 . S
N1047 C1044 1.314 . S
N1047 C1045 1.279 . S
C1048 C1045 1.358 . S
C1048 C1049 1.356 . S
C1048 H1085 0.930 . S
C1049 C1046 1.348 . S
C1049 C1048 1.356 . S
H1050 C1044 0.930 . S
H1051 C1045 0.930 . S
C1052 N1053 1.314 . S
C1052 C1054 1.353 . S
C1052 H1058 0.930 . S
N1053 Li1003 1.990 . S
N1053 C1052 1.314 . S
N1053 C1056 1.279 . S
C1054 C1052 1.353 . S
C1054 C1057 1.348 . S
C1054 H1086 0.929 . S
C1055 C1056 1.358 . S
C1055 C1057 1.356 . S
C1055 H1087 0.930 . S
C1056 N1053 1.279 . S
C1056 C1055 1.358 . S
C1056 H1059 0.930 . S
C1057 C1054 1.348 . S
C1057 C1055 1.356 . S
H1058 C1052 0.930 . S
H1059 C1056 0.930 . S
O1060 Li1000 1.956 . S
O1060 Li1001 1.970 . S
O1060 Li1002 1.961 . S
O1060 C1004 1.325 . S
O1061 Li1000 1.970 . S
O1061 Li1001 1.956 . S
O1061 Li1003 1.961 . S
O1061 C1010 1.325 . S
O1062 Li1000 1.961 . S
O1062 Li1002 1.956 . S
O1062 Li1003 1.970 . S
O1062 C1032 1.325 . S
O1063 Li1001 1.961 . S
O1063 Li1002 1.970 . S
O1063 Li1003 1.956 . S
O1063 C1038 1.325 . S
H1064 C1006 0.929 . S
H1065 C1007 0.930 . S
H1066 C1008 0.930 . S
H1067 C1009 0.930 . S
H1068 C1011 0.930 . S
H1069 C1013 0.929 . S
H1070 C1014 0.930 . S
H1071 C1015 0.930 . S
H1072 C1018 0.930 . S
H1073 C1021 0.929 . S
H1074 C1026 0.929 . S
H1075 C1027 0.930 . S
H1076 C1034 0.929 . S
H1077 C1035 0.930 . S
H1078 C1036 0.930 . S
H1079 C1037 0.930 . S
H1080 C1039 0.929 . S
H1081 C1040 0.930 . S
H1082 C1041 0.930 . S
H1083 C1042 0.930 . S
H1084 C1046 0.929 . S
H1085 C1048 0.930 . S
H1086 C1054 0.929 . S
H1087 C1055 0.930 . S
Li1088 N1105 1.990 . S
Li1088 O1148 1.956 . S
Li1088 O1149 1.970 1_455 S
Li1088 O1150 1.961 . S
Li1089 N1113 1.990 . S
Li1089 O1148 1.970 1_655 S
Li1089 O1149 1.956 . S
Li1089 O1151 1.961 1_655 S
Li1090 N1135 1.990 . S
Li1090 O1148 1.961 . S
Li1090 O1150 1.956 . S
Li1090 O1151 1.970 . S
Li1091 N1141 1.990 1_455 S
Li1091 O1149 1.961 1_455 S
Li1091 O1150 1.970 . S
Li1091 O1151 1.956 . S
C1092 C1094 1.348 . S
C1092 C1095 1.356 . S
C1092 O1148 1.325 . S
N1093 C1096 1.314 . S
N1093 C1097 1.279 . S
C1094 C1092 1.348 . S
C1094 C1096 1.353 . S
C1094 H1152 0.929 1_455 S
C1095 C1092 1.356 . S
C1095 C1097 1.358 . S
C1095 H1153 0.930 . S
C1096 N1093 1.314 . S
C1096 C1094 1.353 . S
C1096 H1154 0.934 . S
C1097 N1093 1.279 . S
C1097 C1095 1.358 . S
C1097 H1155 0.930 . S
C1098 C1101 1.348 . S
C1098 C1102 1.356 . S
C1098 O1149 1.325 . S
C1099 N1100 1.279 . S
C1099 C1102 1.358 . S
C1099 H1156 0.930 . S
N1100 C1099 1.279 . S
N1100 C1103 1.314 . S
C1101 C1098 1.348 . S
C1101 C1103 1.353 . S
C1101 H1157 0.929 . S
C1102 C1098 1.356 . S
C1102 C1099 1.358 . S
C1102 H1158 0.930 . S
C1103 N1100 1.314 . S
C1103 C1101 1.353 . S
C1103 H1159 0.930 . S
C1104 N1105 1.314 . S
C1104 C1109 1.353 . S
C1104 H1110 0.930 . S
N1105 Li1088 1.990 . S
N1105 C1104 1.314 . S
N1105 C1107 1.279 . S
C1106 C1107 1.358 . S
C1106 C1108 1.356 . S
C1106 H1160 0.930 . S
C1107 N1105 1.279 . S
C1107 C1106 1.358 . S
C1107 H1111 0.930 . S
C1108 C1106 1.356 . S
C1108 C1109 1.348 . S
C1109 C1104 1.353 . S
C1109 C1108 1.348 . S
C1109 H1161 0.929 . S
H1110 C1104 0.930 . S
H1111 C1107 0.930 . S
C1112 N1113 1.314 . S
C1112 C1114 1.353 . S
C1112 H1118 0.930 . S
N1113 Li1089 1.990 . S
N1113 C1112 1.314 . S
N1113 C1116 1.279 . S
C1114 C1112 1.353 . S
C1114 C1117 1.348 . S
C1114 H1162 0.929 . S
C1115 C1116 1.358 . S
C1115 C1117 1.356 . S
C1115 H1163 0.930 . S
C1116 N1113 1.279 . S
C1116 C1115 1.358 . S
C1116 H1119 0.930 . S
C1117 C1114 1.348 . S
C1117 C1115 1.356 . S
H1118 C1112 0.930 . S
H1119 C1116 0.930 . S
C1120 C1122 1.348 . S
C1120 C1123 1.356 . S
C1120 O1150 1.325 . S
N1121 C1124 1.314 . S
N1121 C1125 1.279 . S
C1122 C1120 1.348 . S
C1122 C1124 1.353 . S
C1122 H1164 0.929 . S
C1123 C1120 1.356 . S
C1123 C1125 1.358 . S
C1123 H1165 0.930 . S
C1124 N1121 1.314 . S
C1124 C1122 1.353 . S
C1124 H1166 0.930 . S
C1125 N1121 1.279 . S
C1125 C1123 1.358 . S
C1125 H1167 0.930 . S
C1126 C1127 1.348 . S
C1126 C1128 1.356 1_455 S
C1126 O1151 1.325 . S
C1127 C1126 1.348 . S
C1127 C1129 1.353 . S
C1127 H1168 0.929 . S
C1128 C1126 1.356 1_655 S
C1128 C1130 1.358 . S
C1128 H1169 0.930 . S
C1129 C1127 1.353 . S
C1129 N1131 1.314 1_455 S
C1129 H1170 0.930 . S
C1130 C1128 1.358 . S
C1130 N1131 1.279 . S
C1130 H1171 0.930 . S
N1131 C1129 1.314 1_655 S
N1131 C1130 1.279 . S
C1132 C1134 1.353 . S
C1132 N1135 1.314 . S
C1132 H1138 0.930 . S
C1133 N1135 1.279 . S
C1133 C1136 1.358 . S
C1133 H1139 0.930 . S
C1134 C1132 1.353 . S
C1134 C1137 1.348 . S
C1134 H1172 0.929 . S
N1135 Li1090 1.990 . S
N1135 C1132 1.314 . S
N1135 C1133 1.279 . S
C1136 C1133 1.358 . S
C1136 C1137 1.356 . S
C1136 H1173 0.930 . S
C1137 C1134 1.348 . S
C1137 C1136 1.356 . S
H1138 C1132 0.930 . S
H1139 C1133 0.930 . S
C1140 N1141 1.314 . S
C1140 C1142 1.353 . S
C1140 H1146 0.930 . S
N1141 Li1091 1.990 1_655 S
N1141 C1140 1.314 . S
N1141 C1144 1.279 . S
C1142 C1140 1.353 . S
C1142 C1145 1.348 . S
C1142 H1174 0.929 . S
C1143 C1144 1.358 . S
C1143 C1145 1.356 . S
C1143 H1175 0.930 . S
C1144 N1141 1.279 . S
C1144 C1143 1.358 . S
C1144 H1147 0.930 1_655 S
C1145 C1142 1.348 . S
C1145 C1143 1.356 . S
H1146 C1140 0.930 . S
H1147 C1144 0.930 1_455 S
O1148 Li1088 1.956 . S
O1148 Li1089 1.970 1_455 S
O1148 Li1090 1.961 . S
O1148 C1092 1.325 . S
O1149 Li1088 1.970 1_655 S
O1149 Li1089 1.956 . S
O1149 Li1091 1.961 1_655 S
O1149 C1098 1.325 . S
O1150 Li1088 1.961 . S
O1150 Li1090 1.956 . S
O1150 Li1091 1.970 . S
O1150 C1120 1.325 . S
O1151 Li1089 1.961 1_455 S
O1151 Li1090 1.970 . S
O1151 Li1091 1.956 . S
O1151 C1126 1.325 . S
H1152 C1094 0.929 1_655 S
H1153 C1095 0.930 . S
H1154 C1096 0.934 . S
H1155 C1097 0.930 . S
H1156 C1099 0.930 . S
H1157 C1101 0.929 . S
H1158 C1102 0.930 . S
H1159 C1103 0.930 . S
H1160 C1106 0.930 . S
H1161 C1109 0.929 . S
H1162 C1114 0.929 . S
H1163 C1115 0.930 . S
H1164 C1122 0.929 . S
H1165 C1123 0.930 . S
H1166 C1124 0.930 . S
H1167 C1125 0.930 . S
H1168 C1127 0.929 . S
H1169 C1128 0.930 . S
H1170 C1129 0.930 . S
H1171 C1130 0.930 . S
H1172 C1134 0.929 . S
H1173 C1136 0.930 . S
H1174 C1142 0.929 . S
H1175 C1143 0.930 . S
Li1176 N1193 1.990 . S
Li1176 O1236 1.956 . S
Li1176 O1237 1.970 . S
Li1176 O1238 1.961 . S
Li1177 N1201 1.990 . S
Li1177 O1236 1.970 . S
Li1177 O1237 1.956 . S
Li1177 O1239 1.961 . S
Li1178 N1223 1.990 . S
Li1178 O1236 1.961 . S
Li1178 O1238 1.956 . S
Li1178 O1239 1.970 . S
Li1179 N1229 1.990 . S
Li1179 O1237 1.961 . S
Li1179 O1238 1.970 . S
Li1179 O1239 1.956 . S
C1180 C1182 1.348 . S
C1180 C1183 1.356 . S
C1180 O1236 1.325 . S
N1181 C1184 1.314 . S
N1181 C1185 1.279 . S
C1182 C1180 1.348 . S
C1182 C1184 1.353 . S
C1182 H1240 0.929 . S
C1183 C1180 1.356 . S
C1183 C1185 1.358 . S
C1183 H1241 0.930 . S
C1184 N1181 1.314 . S
C1184 C1182 1.353 . S
C1184 H1242 0.930 . S
C1185 N1181 1.279 . S
C1185 C1183 1.358 . S
C1185 H1243 0.930 . S
C1186 C1189 1.348 . S
C1186 C1190 1.356 . S
C1186 O1237 1.325 . S
C1187 N1188 1.279 . S
C1187 C1190 1.358 . S
C1187 H1244 0.930 . S
N1188 C1187 1.279 . S
N1188 C1191 1.314 . S
C1189 C1186 1.348 . S
C1189 C1191 1.353 . S
C1189 H1245 0.929 . S
C1190 C1186 1.356 . S
C1190 C1187 1.358 . S
C1190 H1246 0.930 . S
C1191 N1188 1.314 . S
C1191 C1189 1.353 . S
C1191 H1247 0.930 . S
C1192 N1193 1.314 . S
C1192 C1197 1.353 . S
C1192 H1198 0.930 . S
N1193 Li1176 1.990 . S
N1193 C1192 1.314 . S
N1193 C1195 1.279 . S
C1194 C1195 1.358 . S
C1194 C1196 1.356 . S
C1194 H1248 0.930 . S
C1195 N1193 1.279 . S
C1195 C1194 1.358 . S
C1195 H1199 0.930 . S
C1196 C1194 1.356 . S
C1196 C1197 1.348 . S
C1197 C1192 1.353 . S
C1197 C1196 1.348 . S
C1197 H1249 0.929 1_554 S
H1198 C1192 0.930 . S
H1199 C1195 0.930 . S
C1200 N1201 1.314 . S
C1200 C1202 1.353 . S
C1200 H1206 0.930 . S
N1201 Li1177 1.990 . S
N1201 C1200 1.314 . S
N1201 C1204 1.279 . S
C1202 C1200 1.353 . S
C1202 C1205 1.348 . S
C1202 H1250 0.929 . S
C1203 C1204 1.358 . S
C1203 C1205 1.356 . S
C1203 H1251 0.930 . S
C1204 N1201 1.279 . S
C1204 C1203 1.358 . S
C1204 H1207 0.930 . S
C1205 C1202 1.348 . S
C1205 C1203 1.356 . S
H1206 C1200 0.930 . S
H1207 C1204 0.930 . S
C1208 C1210 1.348 . S
C1208 C1211 1.356 . S
C1208 O1238 1.325 . S
N1209 C1212 1.314 . S
N1209 C1213 1.279 . S
C1210 C1208 1.348 . S
C1210 C1212 1.353 . S
C1210 H1252 0.929 . S
C1211 C1208 1.356 . S
C1211 C1213 1.358 . S
C1211 H1253 0.930 . S
C1212 N1209 1.314 . S
C1212 C1210 1.353 . S
C1212 H1254 0.930 . S
C1213 N1209 1.279 . S
C1213 C1211 1.358 . S
C1213 H1255 0.930 . S
C1214 C1215 1.348 . S
C1214 C1216 1.356 . S
C1214 O1239 1.325 . S
C1215 C1214 1.348 . S
C1215 C1217 1.353 . S
C1215 H1256 0.929 . S
C1216 C1214 1.356 . S
C1216 C1218 1.358 . S
C1216 H1257 0.930 . S
C1217 C1215 1.353 . S
C1217 N1219 1.314 . S
C1217 H1258 0.930 . S
C1218 C1216 1.358 . S
C1218 N1219 1.279 . S
C1218 H1259 0.930 . S
N1219 C1217 1.314 . S
N1219 C1218 1.279 . S
C1220 C1222 1.353 . S
C1220 N1223 1.314 . S
C1220 H1226 0.930 . S
C1221 N1223 1.279 . S
C1221 C1224 1.358 . S
C1221 H1227 0.930 . S
C1222 C1220 1.353 . S
C1222 C1225 1.348 . S
C1222 H1260 0.929 . S
N1223 Li1178 1.990 . S
N1223 C1220 1.314 . S
N1223 C1221 1.279 . S
C1224 C1221 1.358 . S
C1224 C1225 1.356 . S
C1224 H1261 0.930 . S
C1225 C1222 1.348 . S
C1225 C1224 1.356 . S
H1226 C1220 0.930 . S
H1227 C1221 0.930 . S
C1228 N1229 1.314 . S
C1228 C1230 1.353 . S
C1228 H1234 0.930 . S
N1229 Li1179 1.990 . S
N1229 C1228 1.314 . S
N1229 C1232 1.279 . S
C1230 C1228 1.353 . S
C1230 C1233 1.348 . S
C1230 H1262 0.929 1_554 S
C1231 C1232 1.358 . S
C1231 C1233 1.356 . S
C1231 H1263 0.930 . S
C1232 N1229 1.279 . S
C1232 C1231 1.358 . S
C1232 H1235 0.930 . S
C1233 C1230 1.348 . S
C1233 C1231 1.356 . S
H1234 C1228 0.930 . S
H1235 C1232 0.930 . S
O1236 Li1176 1.956 . S
O1236 Li1177 1.970 . S
O1236 Li1178 1.961 . S
O1236 C1180 1.325 . S
O1237 Li1176 1.970 . S
O1237 Li1177 1.956 . S
O1237 Li1179 1.961 . S
O1237 C1186 1.325 . S
O1238 Li1176 1.961 . S
O1238 Li1178 1.956 . S
O1238 Li1179 1.970 . S
O1238 C1208 1.325 . S
O1239 Li1177 1.961 . S
O1239 Li1178 1.970 . S
O1239 Li1179 1.956 . S
O1239 C1214 1.325 . S
H1240 C1182 0.929 . S
H1241 C1183 0.930 . S
H1242 C1184 0.930 . S
H1243 C1185 0.930 . S
H1244 C1187 0.930 . S
H1245 C1189 0.929 . S
H1246 C1190 0.930 . S
H1247 C1191 0.930 . S
H1248 C1194 0.930 . S
H1249 C1197 0.929 1_556 S
H1250 C1202 0.929 . S
H1251 C1203 0.930 . S
H1252 C1210 0.929 . S
H1253 C1211 0.930 . S
H1254 C1212 0.930 . S
H1255 C1213 0.930 . S
H1256 C1215 0.929 . S
H1257 C1216 0.930 . S
H1258 C1217 0.930 . S
H1259 C1218 0.930 . S
H1260 C1222 0.929 . S
H1261 C1224 0.930 . S
H1262 C1230 0.929 1_556 S
H1263 C1231 0.930 . S
C257 N66 1.233 . S
C316 N79 1.686 1_455 S
N92 C433 1.923 . S
C501 N54 1.488 1_645 S
C580 N131 1.745 . S
C705 N158 1.144 . S
N145 C765 1.576 . S
C873 N118 1.921 . S
N148 C969 2.337 . S
C1029 N122 1.796 . S
N132 C932 1.320 . S
C1049 N161 1.496 . S
N96 C1117 2.049 . S
N53 C1108 1.890 . S
N67 C1137 1.094 . S
N83 C1145 1.298 . S
N44 C529 1.449 . S
N187 C492 1.643 . S
C228 N197 1.213 . S
C325 N106 1.311 . S
N57 C589 2.154 . S
C881 N144 1.493 . S
C609 N119 1.478 1_545 S
C793 N157 1.946 . S
C785 N183 1.233 . S
N196 C853 1.686 . S
N105 C617 1.923 . S
C668 N171 1.488 . S
N40 C413 1.745 . S
C521 N2 1.144 . S
C237 N15 1.576 . S
C353 N27 1.921 1_455 S
N18 C1057 2.337 . S
N31 C941 1.796 . S
N41 C1020 1.320 . S
N5 C961 1.496 . S
C1205 N109 2.049 . S
C1196 N170 1.890 1_554 S
C1225 N184 1.094 . S
N200 C1233 1.298 1_556 S
N135 C697 1.449 . S
C677 N70 1.643 . S
C756 N80 1.213 . S
C844 N93 1.311 . S
N174 C404 2.151 . S
C345 N14 1.493 . S
N28 C441 1.488 . S
C265 N1 1.946 . S
