# Generated by pormake.
# Topology pth, (4,4)-cn, num edge types: 1
# Building blocks:
#     Node 0, Type 0, BuildingBlock: AZAVOO_clean_sbu_0, # of connection points: 4
#     Node 1, Type 0, BuildingBlock: AZAVOO_clean_sbu_0, # of connection points: 4
#     Node 2, Type 0, BuildingBlock: AZAVOO_clean_sbu_0, # of connection points: 4
#     Node 3, Type 1, BuildingBlock: MUDLON_clean_linker_0, # of connection points: 4
#     Node 4, Type 1, BuildingBlock: MUDLON_clean_linker_0, # of connection points: 4
#     Node 5, Type 1, BuildingBlock: MUDLON_clean_linker_0, # of connection points: 4
#     Edge 6, Type (0, 1), BuildingBlock: FUNLAD_clean_linker_0, # of connection points: 2
#     Edge 7, Type (0, 1), BuildingBlock: FUNLAD_clean_linker_0, # of connection points: 2
#     Edge 8, Type (0, 1), BuildingBlock: FUNLAD_clean_linker_0, # of connection points: 2
#     Edge 9, Type (0, 1), BuildingBlock: FUNLAD_clean_linker_0, # of connection points: 2
#     Edge 10, Type (0, 1), BuildingBlock: FUNLAD_clean_linker_0, # of connection points: 2
#     Edge 11, Type (0, 1), BuildingBlock: FUNLAD_clean_linker_0, # of connection points: 2
#     Edge 12, Type (0, 1), BuildingBlock: FUNLAD_clean_linker_0, # of connection points: 2
#     Edge 13, Type (0, 1), BuildingBlock: FUNLAD_clean_linker_0, # of connection points: 2
#     Edge 14, Type (0, 1), BuildingBlock: FUNLAD_clean_linker_0, # of connection points: 2
#     Edge 15, Type (0, 1), BuildingBlock: FUNLAD_clean_linker_0, # of connection points: 2
#     Edge 16, Type (0, 1), BuildingBlock: FUNLAD_clean_linker_0, # of connection points: 2
#     Edge 17, Type (0, 1), BuildingBlock: FUNLAD_clean_linker_0, # of connection points: 2
# Relax obj value: 0.077
# Max RMSD: 0.215
# Mean RMSD: 0.136
data_MOF--net-pth--node1-AZAVOO_clean_sbu_0--node2-MUDLON_clean_linker_0--edge1-FUNLAD_clean_linker_0
_symmetry_space_group_name_H-M    P1
_symmetry_Int_Tables_number       1
_symmetry_cell_setting            triclinic
loop_
_symmetry_equiv_pos_as_xyz
'x, y, z'
_cell_length_a     37.298803
_cell_length_b     37.999352
_cell_length_c     75.554031
_cell_angle_alpha  90.827409
_cell_angle_beta   92.356625
_cell_angle_gamma 121.57302
loop_
_atom_site_label
_atom_site_type_symbol
_atom_site_fract_x
_atom_site_fract_y
_atom_site_fract_z
_atom_type_partial_charge
Mg0 Mg 0.10289 0.0688 0.02696 0.0
O1 O 0.04501 0.02291 0.0092 0.0
O2 O 0.03268 0.05865 0.98925 0.0
Mg3 Mg 0.08311 0.12712 -0.00607 0.0
C4 C 0.02337 0.02451 -0.00395 0.0
C5 C 0.11988 0.01558 0.05133 0.0
O6 O 0.15704 0.04221 0.04558 0.0
O7 O 0.0638 0.08946 0.04119 0.0
O8 O 0.05583 0.12707 0.02067 0.0
O9 O 0.1455 0.06479 0.00825 0.0
O10 O 0.12579 0.11033 0.00676 0.0
C11 C 0.05027 0.11264 0.03616 0.0
C12 C 0.14614 0.0949 0.00016 0.0
O13 O 0.08847 0.01822 0.04628 0.0
Mg14 Mg 0.93787 0.98811 0.36024 0.0
O15 O 7e-05 0.01727 0.37721 0.0
O16 O 0.00608 0.06976 0.39356 0.0
Mg17 Mg 0.94797 0.07385 0.38743 0.0
C18 C 0.02023 0.04719 0.38869 0.0
C19 C 0.93329 0.92735 0.33127 0.0
O20 O 0.89626 0.92332 0.3286 0.0
O21 O 0.96632 0.04262 0.34206 0.0
O22 O 0.9686 0.09236 0.35917 0.0
O23 O 0.90223 0.94544 0.38167 0.0
O24 O 0.91257 0.00791 0.37909 0.0
C25 C 0.9743 0.07945 0.34448 0.0
C26 C 0.89777 0.97478 0.38787 0.0
O27 O 0.95877 0.9527 0.34339 0.0
Mg28 Mg 0.99025 0.98016 0.69413 0.0
O29 O 0.0344 0.03913 0.71095 0.0
O30 O 0.00069 0.04001 0.73457 0.0
Mg31 Mg 0.93547 0.98061 0.73322 0.0
C32 C 0.03313 0.0564 0.72533 0.0
C33 C 0.02818 0.98232 0.65827 0.0
O34 O 0.99621 0.94391 0.65787 0.0
O35 O 0.95131 0.00736 0.68458 0.0
O36 O 0.91534 0.0017 0.70842 0.0
O37 O 0.01364 0.94508 0.7092 0.0
O38 O 0.96026 0.95096 0.7167 0.0
C39 C 0.92332 0.01078 0.69225 0.0
C40 C 0.98534 0.93802 0.72032 0.0
O41 O 0.03372 0.00624 0.67139 0.0
H42 H 0.9983 0.67352 0.2021 0.0
N43 N 0.07284 0.67784 0.19721 0.0
H44 H 0.98424 0.70768 0.22595 0.0
H45 H 0.12245 0.718 0.22594 0.0
H46 H 0.10828 0.75179 0.25025 0.0
H47 H 0.13608 0.74741 0.18558 0.0
H48 H 0.13437 0.78605 0.1603 0.0
H49 H 0.00666 0.65207 0.17277 0.0
H50 H 0.00468 0.69022 0.14727 0.0
H51 H 0.0053 0.61346 0.21369 0.0
H52 H 0.10183 0.64135 0.177 0.0
H53 H 0.98141 0.54104 0.21088 0.0
H54 H 0.07613 0.56791 0.17335 0.0
H55 H 0.91606 0.30102 0.20014 0.0
H56 H 0.92576 0.26533 0.2246 0.0
H57 H 0.04361 0.37713 0.24079 0.0
H58 H 0.03502 0.41146 0.2157 0.0
H59 H 0.04429 0.37659 0.18512 0.0
H60 H 0.0562 0.33846 0.16234 0.0
H61 H 0.93253 0.29566 0.13793 0.0
H62 H 0.92147 0.33533 0.16056 0.0
H63 H 0.9235 0.40785 0.19194 0.0
H64 H 0.94588 0.48095 0.19259 0.0
H65 H 0.075 0.51386 0.18803 0.0
N66 N 0.97104 0.37535 0.18924 0.0
H67 H 0.052 0.4412 0.18638 0.0
C68 C 0.06162 0.69329 0.21224 0.0
C69 C 0.02239 0.69024 0.2126 0.0
C70 C 0.01425 0.70954 0.22635 0.0
C71 C 0.04519 0.73254 0.23998 0.0
C72 C 0.08397 0.73465 0.23984 0.0
C73 C 0.09201 0.71514 0.22609 0.0
C74 C 0.07169 0.69708 0.18105 0.0
C75 C 0.10756 0.73456 0.17708 0.0
C76 C 0.10649 0.75644 0.16261 0.0
C77 C 0.06933 0.74123 0.15178 0.0
C78 C 0.03361 0.70299 0.15548 0.0
C79 C 0.03476 0.68105 0.16998 0.0
C80 C 0.05574 0.63369 0.19543 0.0
C81 C 0.0212 0.6044 0.20476 0.0
C82 C 0.00711 0.56237 0.20306 0.0
C83 C 0.02667 0.5483 0.19186 0.0
C84 C 0.06066 0.57747 0.18236 0.0
C85 C 0.07519 0.61954 0.18428 0.0
C86 C 0.97445 0.35889 0.20593 0.0
C87 C 0.94357 0.31799 0.20919 0.0
C88 C 0.94922 0.29767 0.22326 0.0
C89 C 0.98575 0.31813 0.23469 0.0
C90 C 0.01558 0.35997 0.23204 0.0
C91 C 0.01031 0.38001 0.21772 0.0
C92 C 0.98195 0.35909 0.17443 0.0
C93 C 0.02026 0.36019 0.17456 0.0
C94 C 0.02676 0.33775 0.16167 0.0
C95 C 0.99507 0.31351 0.14847 0.0
C96 C 0.9577 0.31421 0.14784 0.0
C97 C 0.95129 0.33683 0.16072 0.0
C98 C 0.98582 0.41885 0.18921 0.0
C99 C 0.95656 0.43099 0.19095 0.0
C100 C 0.96953 0.47282 0.19147 0.0
C101 C 0.01239 0.50359 0.19048 0.0
C102 C 0.04167 0.49123 0.18854 0.0
C103 C 0.02852 0.44939 0.18773 0.0
H104 H 0.67294 0.06224 0.54247 0.0
N105 N 0.59486 0.99176 0.53721 0.0
H106 H 0.72288 0.07842 0.56745 0.0
H107 H 0.57912 0.9538 0.56779 0.0
H108 H 0.6279 0.97146 0.59369 0.0
H109 H 0.60443 0.92907 0.52884 0.0
H110 H 0.64869 0.92678 0.50642 0.0
H111 H 0.634 0.04883 0.51195 0.0
H112 H 0.67664 0.04608 0.48901 0.0
H113 H 0.6014 0.06114 0.55365 0.0
H114 H 0.52995 0.9637 0.51351 0.0
H115 H 0.55509 0.08679 0.5484 0.0
H116 H 0.48532 0.99156 0.50717 0.0
H117 H 0.38887 0.1575 0.53277 0.0
H118 H 0.34115 0.14906 0.55592 0.0
H119 H 0.31692 0.02646 0.56439 0.0
H120 H 0.36316 0.03445 0.54122 0.0
H121 H 0.32564 0.03115 0.51059 0.0
H122 H 0.28031 0.0202 0.48449 0.0
H123 H 0.3771 0.13642 0.46476 0.0
H124 H 0.42205 0.14781 0.49147 0.0
H125 H 0.48509 0.1456 0.5273 0.0
H126 H 0.53437 0.12171 0.53012 0.0
H127 H 0.43135 0.99632 0.51779 0.0
N128 N 0.40267 0.10079 0.51947 0.0
H129 H 0.38365 0.02104 0.51365 0.0
C130 C 0.62252 0.00602 0.55308 0.0
C131 C 0.66285 0.04222 0.55357 0.0
C132 C 0.69131 0.05177 0.56807 0.0
C133 C 0.67985 0.02592 0.58258 0.0
C134 C 0.63838 0.99144 0.58256 0.0
C135 C 0.61021 0.98147 0.56788 0.0
C136 C 0.61573 0.98886 0.52206 0.0
C137 C 0.61959 0.95432 0.51995 0.0
C138 C 0.64482 0.95308 0.5071 0.0
C139 C 0.66657 0.98643 0.496 0.0
C140 C 0.66104 0.02023 0.49757 0.0
C141 C 0.63617 0.02162 0.51054 0.0
C142 C 0.56951 0.01002 0.53392 0.0
C143 C 0.5763 0.04539 0.54347 0.0
C144 C 0.54975 0.06056 0.5403 0.0
C145 C 0.51622 0.04146 0.52732 0.0
C146 C 0.5101 0.00673 0.51755 0.0
C147 C 0.53597 0.99095 0.52102 0.0
C148 C 0.37994 0.09691 0.53511 0.0
C149 C 0.37385 0.12915 0.53989 0.0
C150 C 0.34663 0.12428 0.55312 0.0
C151 C 0.32486 0.08687 0.56184 0.0
C152 C 0.33261 0.05536 0.55768 0.0
C153 C 0.35964 0.06018 0.54444 0.0
C154 C 0.3773 0.09071 0.50309 0.0
C155 C 0.33751 0.05409 0.5006 0.0
C156 C 0.31158 0.0477 0.48552 0.0
C157 C 0.32487 0.07755 0.47253 0.0
C158 C 0.36556 0.11312 0.47464 0.0
C159 C 0.39142 0.11958 0.4898 0.0
C160 C 0.43069 0.08531 0.52048 0.0
C161 C 0.47345 0.11305 0.52505 0.0
C162 C 0.50144 0.09917 0.52682 0.0
C163 C 0.48702 0.05686 0.52438 0.0
C164 C 0.44406 0.02918 0.51951 0.0
C165 C 0.41638 0.04328 0.51733 0.0
H166 H 0.6885 0.73342 0.8651 0.0
N167 N 0.68148 0.66171 0.85785 0.0
H168 H 0.7228 0.77885 0.89147 0.0
H169 H 0.70601 0.64052 0.88873 0.0
H170 H 0.73977 0.6854 0.91523 0.0
H171 H 0.75526 0.66297 0.86395 0.0
H172 H 0.81262 0.68732 0.84389 0.0
H173 H 0.68261 0.68545 0.82496 0.0
H174 H 0.73992 0.70978 0.80475 0.0
H175 H 0.60029 0.63094 0.85019 0.0
H176 H 0.68994 0.59529 0.86372 0.0
H177 H 0.54437 0.55816 0.84601 0.0
H178 H 0.6342 0.52259 0.8603 0.0
H179 H 0.38303 0.35793 0.84926 0.0
H180 H 0.34066 0.32118 0.87384 0.0
H181 H 0.42951 0.28526 0.88927 0.0
H182 H 0.47189 0.32201 0.86426 0.0
H183 H 0.43463 0.29649 0.81997 0.0
H184 H 0.3834 0.26767 0.79469 0.0
H185 H 0.37132 0.37474 0.79701 0.0
H186 H 0.42139 0.40254 0.82262 0.0
H187 H 0.44691 0.42421 0.85514 0.0
H188 H 0.50204 0.49604 0.86099 0.0
H189 H 0.59132 0.47271 0.83703 0.0
N190 N 0.45598 0.36299 0.84005 0.0
H191 H 0.53591 0.3999 0.83188 0.0
C192 C 0.69476 0.68375 0.87484 0.0
C193 C 0.69872 0.72243 0.8762 0.0
C194 C 0.71821 0.74825 0.89131 0.0
C195 C 0.7343 0.73584 0.90542 0.0
C196 C 0.72819 0.69604 0.90448 0.0
C197 C 0.70859 0.67018 0.88933 0.0
C198 C 0.71473 0.6729 0.84597 0.0
C199 C 0.75145 0.67285 0.85104 0.0
C200 C 0.78429 0.6868 0.83957 0.0
C201 C 0.78076 0.70048 0.82278 0.0
C202 C 0.74336 0.69896 0.81752 0.0
C203 C 0.71074 0.68537 0.82905 0.0
C204 C 0.64905 0.61858 0.85736 0.0
C205 C 0.60763 0.6073 0.8526 0.0
C206 C 0.57578 0.56572 0.85027 0.0
C207 C 0.58478 0.53445 0.85277 0.0
C208 C 0.62627 0.54585 0.85799 0.0
C209 C 0.65817 0.58751 0.86019 0.0
C210 C 0.43087 0.34275 0.8549 0.0
C211 C 0.39367 0.34237 0.8579 0.0
C212 C 0.36948 0.32147 0.87206 0.0
C213 C 0.38179 0.3004 0.88351 0.0
C214 C 0.41904 0.30091 0.88056 0.0
C215 C 0.44337 0.32203 0.86639 0.0
C216 C 0.43193 0.35148 0.82326 0.0
C217 C 0.42162 0.31413 0.81474 0.0
C218 C 0.39242 0.29782 0.80023 0.0
C219 C 0.37294 0.31875 0.79386 0.0
C220 C 0.38521 0.3575 0.80175 0.0
C221 C 0.41428 0.37368 0.81635 0.0
C222 C 0.48737 0.40631 0.84318 0.0
C223 C 0.47827 0.43419 0.85123 0.0
C224 C 0.50991 0.4756 0.85446 0.0
C225 C 0.55122 0.49022 0.84955 0.0
C226 C 0.56006 0.46238 0.8413 0.0
C227 C 0.52843 0.42088 0.83819 0.0
C228 C 0.0347 0.12202 0.06729 0.0
C229 C 0.03053 0.12625 0.04899 0.0
C230 C 0.02121 0.14015 0.07946 0.0
C231 C 0.00321 0.16279 0.07352 0.0
C232 C 0.99645 0.16453 0.05526 0.0
C233 C 0.01022 0.14674 0.04311 0.0
C234 C 0.99259 0.18627 0.08589 0.0
C235 C 0.01446 0.20345 0.10145 0.0
C236 C 0.00778 0.23101 0.11316 0.0
C237 C 0.02177 0.23635 0.13107 0.0
C238 C 0.0177 0.26314 0.14246 0.0
C239 C -9e-05 0.28563 0.13616 0.0
H240 H 0.98028 0.25163 0.09296 0.0
C241 C 0.98611 0.28055 0.1182 0.0
C242 C 0.99011 0.25365 0.10679 0.0
H243 H 0.97285 0.2979 0.11289 0.0
H244 H 0.0498 0.10606 0.07226 0.0
H245 H 0.02546 0.13683 0.09346 0.0
H246 H 0.98209 0.18125 0.05034 0.0
H247 H 0.00598 0.1501 0.0291 0.0
H248 H 0.96805 0.19184 0.08138 0.0
H249 H 0.03913 0.19789 0.10578 0.0
H250 H 0.03574 0.21956 0.13631 0.0
H251 H 0.02802 0.26577 0.15629 0.0
C252 C 0.88448 0.00507 0.41443 0.0
C253 C 0.87496 0.97012 0.40399 0.0
C254 C 0.85901 0.00182 0.42808 0.0
C255 C 0.82285 0.96351 0.43136 0.0
C256 C 0.8151 0.92804 0.42174 0.0
C257 C 0.84099 0.93128 0.40817 0.0
C258 C 0.79216 0.95981 0.44428 0.0
C259 C 0.78721 0.99151 0.44858 0.0
C260 C 0.75588 0.98864 0.46087 0.0
C261 C 0.76412 0.02485 0.46988 0.0
C262 C 0.73516 0.02408 0.48122 0.0
C263 C 0.6968 0.98708 0.48358 0.0
H264 H 0.70947 0.92326 0.45594 0.0
C265 C 0.68827 0.95081 0.47436 0.0
C266 C 0.71751 0.95153 0.46312 0.0
H267 H 0.65874 0.92194 0.47564 0.0
H268 H 0.91132 0.03514 0.41195 0.0
H269 H 0.86763 0.02956 0.43583 0.0
H270 H 0.78794 0.89802 0.42422 0.0
H271 H 0.83312 0.90376 0.40037 0.0
H272 H 0.77205 0.92977 0.44975 0.0
H273 H 0.80701 0.02142 0.44298 0.0
H274 H 0.79335 0.05388 0.4683 0.0
H275 H 0.74323 0.05245 0.48833 0.0
C276 C 0.98447 0.88009 0.73581 0.0
C277 C 0.98097 0.91511 0.73643 0.0
C278 C 0.97278 0.85403 0.75013 0.0
C279 C 0.95808 0.86316 0.76534 0.0
C280 C 0.95822 0.90011 0.76646 0.0
C281 C 0.96909 0.92562 0.75206 0.0
C282 C 0.9387 0.83343 0.77954 0.0
C283 C 0.91382 0.79243 0.77597 0.0
C284 C 0.88275 0.76449 0.78852 0.0
C285 C 0.84323 0.73229 0.78164 0.0
C286 C 0.81049 0.71004 0.79286 0.0
C287 C 0.81689 0.71918 0.81122 0.0
H288 H 0.92055 0.79542 0.81277 0.0
C289 C 0.85738 0.74914 0.81825 0.0
C290 C 0.89007 0.77161 0.807 0.0
H291 H 0.86327 0.75678 0.83235 0.0
H292 H 0.99386 0.87157 0.7239 0.0
H293 H 0.974 0.82624 0.74907 0.0
H294 H 0.94753 0.90807 0.77812 0.0
H295 H 0.9672 0.95302 0.75302 0.0
H296 H 0.93856 0.84613 0.7925 0.0
H297 H 0.9107 0.78031 0.76251 0.0
H298 H 0.83692 0.72589 0.76746 0.0
H299 H 0.77976 0.6866 0.78713 0.0
C300 C 0.07522 0.95286 0.06881 0.0
C301 C 0.11491 0.98255 0.06301 0.0
C302 C 0.07085 0.92137 0.07962 0.0
C303 C 0.10619 0.91889 0.08479 0.0
C304 C 0.1458 0.94889 0.07908 0.0
C305 C 0.15013 0.98023 0.0683 0.0
C306 C 0.10394 0.8867 0.09648 0.0
C307 C 0.06813 0.8514 0.1 0.0
C308 C 0.06782 0.82095 0.11222 0.0
C309 C 0.03248 0.79736 0.12216 0.0
C310 C 0.03239 0.77053 0.13466 0.0
C311 C 0.06756 0.76643 0.13731 0.0
H312 H 0.12921 0.83159 0.10628 0.0
C313 C 0.10204 0.78846 0.1267 0.0
C314 C 0.10216 0.81532 0.11425 0.0
H315 H 0.12915 0.78517 0.1281 0.0
H316 H 0.04749 0.95394 0.06503 0.0
H317 H 0.03988 0.89968 0.08404 0.0
H318 H 0.17363 0.94801 0.08291 0.0
H319 H 0.1812 0.00262 0.0641 0.0
H320 H 0.13367 0.89274 0.10254 0.0
H321 H 0.03792 0.84502 0.09449 0.0
H322 H 0.00543 0.80076 0.1207 0.0
H323 H 0.0054 0.75417 0.14268 0.0
C324 C 0.07959 0.03393 0.391 0.0
C325 C 0.0611 0.05587 0.39679 0.0
C326 C 0.11779 0.04178 0.39895 0.0
C327 C 0.13816 0.07156 0.41302 0.0
C328 C 0.12 0.09395 0.41851 0.0
C329 C 0.08201 0.08623 0.41054 0.0
C330 C 0.17798 0.08037 0.42251 0.0
C331 C 0.19381 0.05561 0.42168 0.0
C332 C 0.23073 0.06294 0.43313 0.0
C333 C 0.23425 0.02907 0.43753 0.0
C334 C 0.26593 0.03399 0.44973 0.0
C335 C 0.29495 0.07303 0.45775 0.0
H336 H 0.26106 0.12971 0.43665 0.0
C337 C 0.293 0.10737 0.4525 0.0
C338 C 0.26148 0.10247 0.44024 0.0
H339 H 0.31475 0.13791 0.45839 0.0
H340 H 0.0646 0.01065 0.38029 0.0
H341 H 0.13106 0.02453 0.3939 0.0
H342 H 0.13498 0.11725 0.42921 0.0
H343 H 0.06887 0.10389 0.41532 0.0
H344 H 0.19312 0.10715 0.43166 0.0
H345 H 0.17722 0.027 0.41369 0.0
H346 H 0.21149 0.99838 0.43201 0.0
H347 H 0.2671 0.00702 0.45316 0.0
C348 C 0.10619 0.11657 0.72141 0.0
C349 C 0.07113 0.09586 0.73186 0.0
C350 C 0.14307 0.15231 0.72804 0.0
C351 C 0.14586 0.1679 0.7454 0.0
C352 C 0.1102 0.1481 0.75553 0.0
C353 C 0.07331 0.11253 0.74888 0.0
C354 C 0.18532 0.20366 0.75378 0.0
C355 C 0.22407 0.21787 0.74787 0.0
C356 C 0.26352 0.2485 0.75821 0.0
C357 C 0.30053 0.24845 0.75554 0.0
C358 C 0.33687 0.27289 0.7665 0.0
C359 C 0.33704 0.29807 0.78036 0.0
H360 H 0.23746 0.27843 0.77323 0.0
C361 C 0.3009 0.3003 0.78223 0.0
C362 C 0.26466 0.27605 0.7712 0.0
H363 H 0.29979 0.31931 0.79274 0.0
H364 H 0.10538 0.10496 0.70813 0.0
H365 H 0.1691 0.16726 0.71949 0.0
H366 H 0.11119 0.15954 0.76888 0.0
H367 H 0.04686 0.09758 0.75727 0.0
H368 H 0.18237 0.21597 0.76631 0.0
H369 H 0.22762 0.20359 0.73609 0.0
H370 H 0.30086 0.22814 0.74542 0.0
H371 H 0.36447 0.27115 0.76443 0.0
C372 C 0.90523 0.03495 0.66436 0.0
C373 C 0.89611 0.02142 0.68175 0.0
C374 C 0.87643 0.03965 0.65378 0.0
C375 C 0.83786 0.03057 0.66037 0.0
C376 C 0.82951 0.01853 0.67789 0.0
C377 C 0.85845 0.01443 0.68854 0.0
C378 C 0.80381 0.02861 0.64878 0.0
C379 C 0.81076 0.05234 0.63477 0.0
C380 C 0.7758 0.04568 0.62233 0.0
C381 C 0.77691 0.0795 0.61459 0.0
C382 C 0.74497 0.07336 0.60221 0.0
C383 C 0.71185 0.0331 0.59697 0.0
H384 H 0.74139 0.97873 0.62272 0.0
C385 C 0.71104 -0.00068 0.60479 0.0
C386 C 0.74245 0.00553 0.61737 0.0
H387 H 0.68695 0.96783 0.60078 0.0
H388 H 0.93392 0.04057 0.65872 0.0
H389 H 0.88348 0.04824 0.64018 0.0
H390 H 0.79993 0.01116 0.68323 0.0
H391 H 0.85028 0.0039 0.70185 0.0
H392 H 0.77153 0.00648 0.65194 0.0
H393 H 0.84251 0.07735 0.63243 0.0
H394 H 0.80243 0.11073 0.61817 0.0
H395 H 0.74648 0.1002 0.5967 0.0
C396 C 0.96052 0.98657 0.97457 0.0
C397 C 0.98648 0.98557 0.98834 0.0
C398 C 0.92639 0.94995 0.96694 0.0
C399 C 0.91724 0.91136 0.97296 0.0
C400 C 0.9431 0.91035 0.98672 0.0
C401 C 0.97719 0.94701 -0.00559 0.0
C402 C 0.88312 0.8718 0.96427 0.0
C403 C 0.84916 0.86796 0.95532 0.0
C404 C 0.81784 0.83045 0.94445 0.0
C405 C 0.77898 0.82577 0.93916 0.0
C406 C 0.7508 0.79384 0.92715 0.0
C407 C 0.76099 0.76595 0.92008 0.0
H408 H 0.85732 0.80453 0.94113 0.0
C409 C 0.79916 0.76966 0.92587 0.0
C410 C 0.82735 0.80158 0.93786 0.0
H411 H 0.80839 0.74923 0.92042 0.0
H412 H 0.96681 0.01566 0.96949 0.0
H413 H 0.90817 0.95214 0.95598 0.0
H414 H 0.93709 0.88106 0.99147 0.0
H415 H 0.99656 0.94503 0.00495 0.0
H416 H 0.88635 0.84514 0.96541 0.0
H417 H 0.84409 0.89361 0.95571 0.0
H418 H 0.77084 0.84757 0.94396 0.0
H419 H 0.72147 0.79161 0.92307 0.0
C420 C 0.98268 0.90349 0.32447 0.0
C421 C 0.94453 0.90173 0.32073 0.0
C422 C 0.99274 0.87848 0.31477 0.0
C423 C 0.96494 0.85141 0.30097 0.0
C424 C 0.92678 0.84961 0.29733 0.0
C425 C 0.9167 0.8745 0.30705 0.0
C426 C 0.97382 0.82384 0.29031 0.0
C427 C 0.01257 0.82991 0.28893 0.0
C428 C 0.02085 0.80328 0.27732 0.0
C429 C 0.06086 0.82014 0.27055 0.0
C430 C 0.06914 0.79685 0.2588 0.0
C431 C 0.03762 0.75598 0.25369 0.0
H432 H 0.95919 0.74706 0.27832 0.0
C433 C 0.99814 0.73849 0.26107 0.0
C434 C 0.98986 0.76178 0.27282 0.0
H435 H 0.97352 0.70678 0.2577 0.0
H436 H 0.00464 0.92384 0.33506 0.0
H437 H 0.0219 0.88008 0.31842 0.0
H438 H 0.90462 0.8289 0.28686 0.0
H439 H 0.88697 0.87226 0.30384 0.0
H440 H 0.94739 0.79884 0.28249 0.0
H441 H 0.03978 0.85693 0.2954 0.0
H442 H 0.08545 0.85187 0.27394 0.0
H443 H 0.09981 0.81135 0.25327 0.0
C444 C 0.09634 0.03577 0.64599 0.0
C445 C 0.05929 0.99641 0.64444 0.0
C446 C 0.12721 0.04778 0.63363 0.0
C447 C 0.12164 0.02057 0.61947 0.0
C448 C 0.08388 0.98194 0.61758 0.0
C449 C 0.05313 0.96988 0.62995 0.0
C450 C 0.15425 0.03083 0.60647 0.0
C451 C 0.19575 0.05827 0.6099 0.0
C452 C 0.22828 0.06524 0.59732 0.0
C453 C 0.26691 0.10318 0.59821 0.0
C454 C 0.29842 0.1104 0.58675 0.0
C455 C 0.29209 0.07951 0.57432 0.0
H456 H 0.1936 0.004 0.58426 0.0
C457 C 0.25364 0.04136 0.5736 0.0
C458 C 0.22221 0.0342 0.585 0.0
H459 H 0.24757 0.01702 0.56408 0.0
H460 H 0.10188 0.05712 0.65691 0.0
H461 H 0.15517 0.07837 0.63525 0.0
H462 H 0.07853 0.96053 0.6067 0.0
H463 H 0.02484 0.93945 0.6283 0.0
H464 H 0.14351 0.01349 0.59385 0.0
H465 H 0.20679 0.07612 0.62239 0.0
H466 H 0.27265 0.12742 0.60775 0.0
H467 H 0.32787 0.13996 0.58776 0.0
C468 C 0.17348 0.14699 0.97673 0.0
C469 C 0.17014 0.11181 0.98418 0.0
C470 C 0.19913 0.16546 0.96264 0.0
C471 C 0.22238 0.14937 0.95577 0.0
C472 C 0.21756 0.11311 0.96265 0.0
C473 C 0.19189 0.09461 0.97682 0.0
C474 C 0.25173 0.16979 0.94146 0.0
C475 C 0.27281 0.21107 0.93979 0.0
C476 C 0.30175 0.23314 0.92551 0.0
C477 C 0.31149 0.27334 0.9221 0.0
C478 C 0.33785 0.29531 0.90864 0.0
C479 C 0.3554 0.27766 0.89833 0.0
H480 H 0.31453 0.18539 0.91795 0.0
C481 C 0.34666 0.23785 0.902 0.0
C482 C 0.32013 0.21576 0.91546 0.0
H483 H 0.35969 0.22343 0.89425 0.0
H484 H 0.15701 0.16093 0.982 0.0
H485 H 0.20068 0.19239 0.9572 0.0
H486 H 0.23465 0.09976 0.95741 0.0
H487 H 0.18977 0.06737 0.98221 0.0
H488 H 0.25648 0.15024 0.93249 0.0
H489 H 0.26817 0.23002 0.9492 0.0
H490 H 0.29822 0.28772 0.92975 0.0
H491 H 0.34456 0.3262 0.90633 0.0
C492 C 0.00475 0.14979 0.33249 0.0
C493 C 0.98592 0.10696 0.32938 0.0
C494 C 0.00871 0.17519 0.3186 0.0
C495 C 0.99364 0.15818 0.3013 0.0
C496 C 0.97678 0.11573 0.29804 0.0
C497 C 0.97337 0.09038 0.31191 0.0
C498 C 0.99026 0.1828 0.28701 0.0
C499 C 0.01602 0.22402 0.28636 0.0
C500 C 0.00808 0.24819 0.27332 0.0
C501 C 0.04196 0.28128 0.26536 0.0
C502 C 0.03483 0.30419 0.25294 0.0
C503 C 0.99365 0.29519 0.24862 0.0
H504 H 0.94042 0.21491 0.27571 0.0
C505 C 0.95995 0.26289 0.25719 0.0
C506 C 0.96704 0.23946 0.26929 0.0
H507 H 0.92797 0.25567 0.25464 0.0
H508 H 0.01478 0.16347 0.34581 0.0
H509 H 0.02116 0.20761 0.32169 0.0
H510 H 0.96478 0.10189 0.28483 0.0
H511 H 0.95851 0.05746 0.30911 0.0
H512 H 0.96497 0.16637 0.27681 0.0
H513 H 0.0439 0.24044 0.29533 0.0
H514 H 0.0739 0.28876 0.26841 0.0
H515 H 0.06159 0.32829 0.24645 0.0
loop_
_geom_bond_atom_site_label_1
_geom_bond_atom_site_label_2
_geom_bond_distance
_geom_bond_site_symmetry_2
_ccdc_geom_bond_type
Mg0 O1 2.028 1_545 S
Mg0 O7 1.986 . S
Mg0 O9 2.114 . S
Mg0 O10 2.251 . S
Mg0 O13 2.010 . S
O1 Mg0 2.028 1_565 S
O1 C4 1.250 1_455 S
O2 Mg3 2.028 1_655 S
O2 C4 1.248 1_545 S
Mg3 O2 2.028 1_455 S
Mg3 O8 2.032 . S
Mg3 O10 2.079 . S
C4 O1 1.250 1_655 S
C4 O2 1.248 1_565 S
C5 O6 1.264 . S
C5 O13 1.249 1_565 S
O6 C5 1.264 . S
O7 Mg0 1.986 . S
O7 C11 1.246 . S
O8 Mg3 2.032 . S
O8 C11 1.259 . S
O9 Mg0 2.114 . S
O9 C12 1.252 . S
O10 Mg0 2.251 . S
O10 Mg3 2.079 . S
O10 C12 1.273 . S
C11 O7 1.246 . S
C11 O8 1.259 . S
C12 O9 1.252 . S
C12 O10 1.273 . S
O13 Mg0 2.010 . S
O13 C5 1.249 1_545 S
Mg14 O15 2.028 1_655 S
Mg14 O21 1.986 1_655 S
Mg14 O23 2.114 1_545 S
Mg14 O24 2.251 . S
Mg14 O27 2.010 1_545 S
O15 Mg14 2.028 1_455 S
O15 C18 1.250 . S
O16 Mg17 2.028 . S
O16 C18 1.248 . S
Mg17 O16 2.028 . S
Mg17 O22 2.032 . S
Mg17 O24 2.079 1_455 S
C18 O15 1.250 . S
C18 O16 1.248 . S
C19 O20 1.264 . S
C19 O27 1.249 . S
O20 C19 1.264 . S
O21 Mg14 1.986 1_455 S
O21 C25 1.246 . S
O22 Mg17 2.032 . S
O22 C25 1.259 . S
O23 Mg14 2.114 1_565 S
O23 C26 1.222 1_565 S
O24 Mg14 2.251 . S
O24 Mg17 2.079 1_655 S
O24 C26 1.296 . S
C25 O21 1.246 . S
C25 O22 1.259 . S
C26 O23 1.222 1_545 S
C26 O24 1.296 . S
O27 Mg14 2.010 1_565 S
O27 C19 1.249 . S
Mg28 O29 2.028 1_565 S
Mg28 O35 1.986 1_465 S
Mg28 O37 2.114 . S
Mg28 O38 2.251 1_455 S
Mg28 O41 2.010 . S
O29 Mg28 2.028 1_545 S
O29 C32 1.250 . S
O30 Mg31 2.028 1_455 S
O30 C32 1.248 . S
Mg31 O30 2.028 1_655 S
Mg31 O36 2.032 . S
Mg31 O38 2.079 1_545 S
C32 O29 1.250 . S
C32 O30 1.248 . S
C33 O34 1.264 . S
C33 O41 1.249 . S
O34 C33 1.264 . S
O35 Mg28 1.986 1_645 S
O35 C39 1.246 . S
O36 Mg31 2.032 . S
O36 C39 1.259 . S
O37 Mg28 2.114 . S
O37 C40 1.252 1_455 S
O38 Mg28 2.251 1_655 S
O38 Mg31 2.079 1_565 S
O38 C40 1.273 . S
C39 O35 1.246 . S
C39 O36 1.259 . S
C40 O37 1.252 1_655 S
C40 O38 1.273 . S
O41 Mg28 2.010 . S
O41 C33 1.249 . S
H42 C69 0.929 . S
N43 C68 1.433 . S
N43 C74 1.435 . S
N43 C80 1.423 . S
H44 C70 0.930 . S
H45 C73 0.931 . S
H46 C72 0.929 . S
H47 C75 0.930 . S
H48 C76 0.932 . S
H49 C79 0.929 . S
H50 C78 0.931 1_655 S
H51 C81 0.929 . S
H52 C85 0.932 . S
H53 C82 0.931 . S
H54 C84 0.929 . S
H55 C87 0.929 . S
H56 C88 0.930 . S
H57 C90 0.929 . S
H58 C91 0.931 . S
H59 C93 0.930 . S
H60 C94 0.932 . S
H61 C96 0.931 1_655 S
H62 C97 0.929 . S
H63 C99 0.929 . S
H64 C100 0.931 . S
H65 C102 0.929 . S
N66 C86 1.433 . S
N66 C92 1.435 . S
N66 C98 1.423 . S
H67 C103 0.932 . S
C68 N43 1.433 . S
C68 C69 1.363 1_455 S
C68 C73 1.370 . S
C69 H42 0.929 . S
C69 C68 1.363 1_655 S
C69 C70 1.385 . S
C70 H44 0.930 . S
C70 C69 1.385 . S
C70 C71 1.357 1_655 S
C71 C70 1.357 1_455 S
C71 C72 1.406 . S
C72 H46 0.929 . S
C72 C71 1.406 . S
C72 C73 1.391 . S
C73 H45 0.931 . S
C73 C68 1.370 . S
C73 C72 1.391 . S
C74 N43 1.435 . S
C74 C75 1.358 . S
C74 C79 1.371 1_455 S
C75 H47 0.930 . S
C75 C74 1.358 . S
C75 C76 1.405 . S
C76 H48 0.932 . S
C76 C75 1.405 . S
C76 C77 1.383 . S
C77 C76 1.383 . S
C77 C78 1.393 . S
C78 H50 0.931 1_455 S
C78 C77 1.393 . S
C78 C79 1.382 1_455 S
C79 H49 0.929 . S
C79 C74 1.371 1_655 S
C79 C78 1.382 1_655 S
C80 N43 1.423 . S
C80 C81 1.362 1_455 S
C80 C85 1.388 . S
C81 H51 0.929 . S
C81 C80 1.362 1_655 S
C81 C82 1.376 . S
C82 H53 0.931 . S
C82 C81 1.376 . S
C82 C83 1.396 . S
C83 C82 1.396 . S
C83 C84 1.348 1_655 S
C83 C101 1.472 . S
C84 H54 0.929 . S
C84 C83 1.348 1_455 S
C84 C85 1.443 . S
C85 H52 0.932 . S
C85 C80 1.388 . S
C85 C84 1.443 . S
C86 N66 1.433 . S
C86 C87 1.363 1_455 S
C86 C91 1.370 . S
C87 H55 0.929 . S
C87 C86 1.363 1_655 S
C87 C88 1.385 . S
C88 H56 0.930 . S
C88 C87 1.385 . S
C88 C89 1.357 1_655 S
C89 C88 1.357 1_455 S
C89 C90 1.406 . S
C90 H57 0.929 . S
C90 C89 1.406 . S
C90 C91 1.391 . S
C91 H58 0.931 . S
C91 C86 1.370 . S
C91 C90 1.391 . S
C92 N66 1.435 . S
C92 C93 1.358 . S
C92 C97 1.371 1_455 S
C93 H59 0.930 . S
C93 C92 1.358 . S
C93 C94 1.405 . S
C94 H60 0.932 . S
C94 C93 1.405 . S
C94 C95 1.383 . S
C95 C94 1.383 . S
C95 C96 1.393 . S
C96 H61 0.931 1_455 S
C96 C95 1.393 . S
C96 C97 1.382 1_455 S
C97 H62 0.929 . S
C97 C92 1.371 1_655 S
C97 C96 1.382 1_655 S
C98 N66 1.423 . S
C98 C99 1.362 1_455 S
C98 C103 1.388 . S
C99 H63 0.929 . S
C99 C98 1.362 1_655 S
C99 C100 1.376 . S
C100 H64 0.931 . S
C100 C99 1.376 . S
C100 C101 1.396 . S
C101 C83 1.472 . S
C101 C100 1.396 . S
C101 C102 1.348 1_655 S
C102 H65 0.929 . S
C102 C101 1.348 1_455 S
C102 C103 1.443 . S
C103 H67 0.932 . S
C103 C98 1.388 . S
C103 C102 1.443 . S
H104 C131 0.929 . S
N105 C130 1.433 . S
N105 C136 1.435 . S
N105 C142 1.423 . S
H106 C132 0.930 . S
H107 C135 0.931 . S
H108 C134 0.929 . S
H109 C137 0.930 . S
H110 C138 0.932 . S
H111 C141 0.929 . S
H112 C140 0.931 . S
H113 C143 0.929 . S
H114 C147 0.932 . S
H115 C144 0.931 . S
H116 C146 0.929 . S
H117 C149 0.929 . S
H118 C150 0.930 . S
H119 C152 0.929 . S
H120 C153 0.931 . S
H121 C155 0.930 . S
H122 C156 0.932 . S
H123 C158 0.931 . S
H124 C159 0.929 . S
H125 C161 0.929 . S
H126 C162 0.931 . S
H127 C164 0.929 . S
N128 C148 1.433 . S
N128 C154 1.435 . S
N128 C160 1.423 . S
H129 C165 0.932 . S
C130 N105 1.433 . S
C130 C131 1.363 . S
C130 C135 1.370 . S
C131 H104 0.929 . S
C131 C130 1.363 . S
C131 C132 1.385 . S
C132 H106 0.930 . S
C132 C131 1.385 . S
C132 C133 1.357 . S
C133 C132 1.357 . S
C133 C134 1.406 . S
C134 H108 0.929 . S
C134 C133 1.406 . S
C134 C135 1.391 . S
C135 H107 0.931 . S
C135 C130 1.370 . S
C135 C134 1.391 . S
C136 N105 1.435 . S
C136 C137 1.358 . S
C136 C141 1.371 . S
C137 H109 0.930 . S
C137 C136 1.358 . S
C137 C138 1.405 . S
C138 H110 0.932 . S
C138 C137 1.405 . S
C138 C139 1.383 . S
C139 C138 1.383 . S
C139 C140 1.393 . S
C140 H112 0.931 . S
C140 C139 1.393 . S
C140 C141 1.382 . S
C141 H111 0.929 . S
C141 C136 1.371 . S
C141 C140 1.382 . S
C142 N105 1.423 . S
C142 C143 1.362 . S
C142 C147 1.388 . S
C143 H113 0.929 . S
C143 C142 1.362 . S
C143 C144 1.376 . S
C144 H115 0.931 . S
C144 C143 1.376 . S
C144 C145 1.396 . S
C145 C144 1.396 . S
C145 C146 1.348 . S
C145 C163 1.472 . S
C146 H116 0.929 . S
C146 C145 1.348 . S
C146 C147 1.443 . S
C147 H114 0.932 . S
C147 C142 1.388 . S
C147 C146 1.443 . S
C148 N128 1.433 . S
C148 C149 1.363 . S
C148 C153 1.370 . S
C149 H117 0.929 . S
C149 C148 1.363 . S
C149 C150 1.385 . S
C150 H118 0.930 . S
C150 C149 1.385 . S
C150 C151 1.357 . S
C151 C150 1.357 . S
C151 C152 1.406 . S
C152 H119 0.929 . S
C152 C151 1.406 . S
C152 C153 1.391 . S
C153 H120 0.931 . S
C153 C148 1.370 . S
C153 C152 1.391 . S
C154 N128 1.435 . S
C154 C155 1.358 . S
C154 C159 1.371 . S
C155 H121 0.930 . S
C155 C154 1.358 . S
C155 C156 1.405 . S
C156 H122 0.932 . S
C156 C155 1.405 . S
C156 C157 1.383 . S
C157 C156 1.383 . S
C157 C158 1.393 . S
C158 H123 0.931 . S
C158 C157 1.393 . S
C158 C159 1.382 . S
C159 H124 0.929 . S
C159 C154 1.371 . S
C159 C158 1.382 . S
C160 N128 1.423 . S
C160 C161 1.362 . S
C160 C165 1.388 . S
C161 H125 0.929 . S
C161 C160 1.362 . S
C161 C162 1.376 . S
C162 H126 0.931 . S
C162 C161 1.376 . S
C162 C163 1.396 . S
C163 C145 1.472 . S
C163 C162 1.396 . S
C163 C164 1.348 . S
C164 H127 0.929 . S
C164 C163 1.348 . S
C164 C165 1.443 . S
C165 H129 0.932 . S
C165 C160 1.388 . S
C165 C164 1.443 . S
H166 C193 0.929 . S
N167 C192 1.433 . S
N167 C198 1.435 . S
N167 C204 1.423 . S
H168 C194 0.930 . S
H169 C197 0.931 . S
H170 C196 0.929 . S
H171 C199 0.930 . S
H172 C200 0.932 . S
H173 C203 0.929 . S
H174 C202 0.931 . S
H175 C205 0.929 . S
H176 C209 0.932 . S
H177 C206 0.931 . S
H178 C208 0.929 . S
H179 C211 0.929 . S
H180 C212 0.930 . S
H181 C214 0.929 . S
H182 C215 0.931 . S
H183 C217 0.930 . S
H184 C218 0.932 . S
H185 C220 0.931 . S
H186 C221 0.929 . S
H187 C223 0.929 . S
H188 C224 0.931 . S
H189 C226 0.929 . S
N190 C210 1.433 . S
N190 C216 1.435 . S
N190 C222 1.423 . S
H191 C227 0.932 . S
C192 N167 1.433 . S
C192 C193 1.363 . S
C192 C197 1.370 . S
C193 H166 0.929 . S
C193 C192 1.363 . S
C193 C194 1.385 . S
C194 H168 0.930 . S
C194 C193 1.385 . S
C194 C195 1.357 . S
C195 C194 1.357 . S
C195 C196 1.406 . S
C196 H170 0.929 . S
C196 C195 1.406 . S
C196 C197 1.391 . S
C197 H169 0.931 . S
C197 C192 1.370 . S
C197 C196 1.391 . S
C198 N167 1.435 . S
C198 C199 1.358 . S
C198 C203 1.371 . S
C199 H171 0.930 . S
C199 C198 1.358 . S
C199 C200 1.405 . S
C200 H172 0.932 . S
C200 C199 1.405 . S
C200 C201 1.383 . S
C201 C200 1.383 . S
C201 C202 1.393 . S
C202 H174 0.931 . S
C202 C201 1.393 . S
C202 C203 1.382 . S
C203 H173 0.929 . S
C203 C198 1.371 . S
C203 C202 1.382 . S
C204 N167 1.423 . S
C204 C205 1.362 . S
C204 C209 1.388 . S
C205 H175 0.929 . S
C205 C204 1.362 . S
C205 C206 1.376 . S
C206 H177 0.931 . S
C206 C205 1.376 . S
C206 C207 1.396 . S
C207 C206 1.396 . S
C207 C208 1.348 . S
C207 C225 1.472 . S
C208 H178 0.929 . S
C208 C207 1.348 . S
C208 C209 1.443 . S
C209 H176 0.932 . S
C209 C204 1.388 . S
C209 C208 1.443 . S
C210 N190 1.433 . S
C210 C211 1.363 . S
C210 C215 1.370 . S
C211 H179 0.929 . S
C211 C210 1.363 . S
C211 C212 1.385 . S
C212 H180 0.930 . S
C212 C211 1.385 . S
C212 C213 1.357 . S
C213 C212 1.357 . S
C213 C214 1.406 . S
C214 H181 0.929 . S
C214 C213 1.406 . S
C214 C215 1.391 . S
C215 H182 0.931 . S
C215 C210 1.370 . S
C215 C214 1.391 . S
C216 N190 1.435 . S
C216 C217 1.358 . S
C216 C221 1.371 . S
C217 H183 0.930 . S
C217 C216 1.358 . S
C217 C218 1.405 . S
C218 H184 0.932 . S
C218 C217 1.405 . S
C218 C219 1.383 . S
C219 C218 1.383 . S
C219 C220 1.393 . S
C220 H185 0.931 . S
C220 C219 1.393 . S
C220 C221 1.382 . S
C221 H186 0.929 . S
C221 C216 1.371 . S
C221 C220 1.382 . S
C222 N190 1.423 . S
C222 C223 1.362 . S
C222 C227 1.388 . S
C223 H187 0.929 . S
C223 C222 1.362 . S
C223 C224 1.376 . S
C224 H188 0.931 . S
C224 C223 1.376 . S
C224 C225 1.396 . S
C225 C207 1.472 . S
C225 C224 1.396 . S
C225 C226 1.348 . S
C226 H189 0.929 . S
C226 C225 1.348 . S
C226 C227 1.443 . S
C227 H191 0.932 . S
C227 C222 1.388 . S
C227 C226 1.443 . S
C228 C229 1.386 . S
C228 C230 1.383 . S
C228 H244 0.951 1_455 S
C229 C228 1.386 . S
C229 C233 1.383 . S
C230 C228 1.383 . S
C230 C231 1.402 . S
C230 H245 0.951 . S
C231 C230 1.402 . S
C231 C232 1.375 . S
C231 C234 1.481 . S
C232 C231 1.375 . S
C232 C233 1.367 . S
C232 H246 0.951 . S
C233 C229 1.383 . S
C233 C232 1.367 . S
C233 H247 0.950 . S
C234 C231 1.481 . S
C234 C235 1.297 . S
C234 H248 0.950 . S
C235 C234 1.297 . S
C235 C236 1.479 . S
C235 H249 0.950 . S
C236 C235 1.479 . S
C236 C237 1.375 . S
C236 C242 1.404 . S
C237 C236 1.375 . S
C237 C238 1.369 . S
C237 H250 0.950 . S
C238 C237 1.369 . S
C238 C239 1.392 . S
C238 H251 0.951 . S
C239 C238 1.392 . S
C239 C241 1.384 . S
H240 C242 0.949 . S
C241 C239 1.384 . S
C241 C242 1.385 . S
C241 H243 0.950 . S
C242 C236 1.404 . S
C242 H240 0.949 . S
C242 C241 1.385 . S
H243 C241 0.950 . S
H244 C228 0.951 1_655 S
H245 C230 0.951 . S
H246 C232 0.951 . S
H247 C233 0.950 . S
H248 C234 0.950 . S
H249 C235 0.950 . S
H250 C237 0.950 . S
H251 C238 0.951 . S
C252 C253 1.386 1_545 S
C252 C254 1.383 . S
C252 H268 0.951 . S
C253 C252 1.386 1_565 S
C253 C257 1.383 . S
C254 C252 1.383 . S
C254 C255 1.402 1_545 S
C254 H269 0.951 . S
C255 C254 1.402 1_565 S
C255 C256 1.375 . S
C255 C258 1.481 . S
C256 C255 1.375 . S
C256 C257 1.367 . S
C256 H270 0.951 . S
C257 C253 1.383 . S
C257 C256 1.367 . S
C257 H271 0.950 . S
C258 C255 1.481 . S
C258 C259 1.297 1_565 S
C258 H272 0.950 . S
C259 C258 1.297 1_545 S
C259 C260 1.479 . S
C259 H273 0.950 . S
C260 C259 1.479 . S
C260 C261 1.375 . S
C260 C266 1.404 1_545 S
C261 C260 1.375 . S
C261 C262 1.369 . S
C261 H274 0.950 . S
C262 C261 1.369 . S
C262 C263 1.392 . S
C262 H275 0.951 . S
C263 C262 1.392 . S
C263 C265 1.384 . S
H264 C266 0.949 . S
C265 C263 1.384 . S
C265 C266 1.385 1_545 S
C265 H267 0.950 1_545 S
C266 C260 1.404 1_565 S
C266 H264 0.949 . S
C266 C265 1.385 1_565 S
H267 C265 0.950 1_565 S
H268 C252 0.951 . S
H269 C254 0.951 . S
H270 C256 0.951 . S
H271 C257 0.950 . S
H272 C258 0.950 . S
H273 C259 0.950 . S
H274 C261 0.950 . S
H275 C262 0.951 . S
C276 C277 1.386 . S
C276 C278 1.383 . S
C276 H292 0.951 . S
C277 C276 1.386 . S
C277 C281 1.383 . S
C278 C276 1.383 . S
C278 C279 1.402 . S
C278 H293 0.951 . S
C279 C278 1.402 . S
C279 C280 1.375 . S
C279 C282 1.481 . S
C280 C279 1.375 . S
C280 C281 1.367 . S
C280 H294 0.951 . S
C281 C277 1.383 . S
C281 C280 1.367 . S
C281 H295 0.950 . S
C282 C279 1.481 . S
C282 C283 1.297 . S
C282 H296 0.950 . S
C283 C282 1.297 . S
C283 C284 1.479 . S
C283 H297 0.950 . S
C284 C283 1.479 . S
C284 C285 1.375 . S
C284 C290 1.404 . S
C285 C284 1.375 . S
C285 C286 1.369 . S
C285 H298 0.950 . S
C286 C285 1.369 . S
C286 C287 1.392 . S
C286 H299 0.951 . S
C287 C286 1.392 . S
C287 C289 1.384 . S
H288 C290 0.949 . S
C289 C287 1.384 . S
C289 C290 1.385 . S
C289 H291 0.950 . S
C290 C284 1.404 . S
C290 H288 0.949 . S
C290 C289 1.385 . S
H291 C289 0.950 . S
H292 C276 0.951 . S
H293 C278 0.951 . S
H294 C280 0.951 . S
H295 C281 0.950 . S
H296 C282 0.950 . S
H297 C283 0.950 . S
H298 C285 0.950 . S
H299 C286 0.951 . S
C300 C301 1.386 . S
C300 C302 1.383 . S
C300 H316 0.951 . S
C301 C300 1.386 . S
C301 C305 1.383 . S
C302 C300 1.383 . S
C302 C303 1.402 . S
C302 H317 0.951 . S
C303 C302 1.402 . S
C303 C304 1.375 . S
C303 C306 1.481 . S
C304 C303 1.375 . S
C304 C305 1.367 . S
C304 H318 0.951 . S
C305 C301 1.383 . S
C305 C304 1.367 . S
C305 H319 0.950 . S
C306 C303 1.481 . S
C306 C307 1.297 . S
C306 H320 0.950 . S
C307 C306 1.297 . S
C307 C308 1.479 . S
C307 H321 0.950 . S
C308 C307 1.479 . S
C308 C309 1.358 1_455 S
C308 C314 1.404 . S
C309 C308 1.358 1_655 S
C309 C310 1.368 . S
C309 H322 0.977 . S
C310 C309 1.368 . S
C310 C311 1.367 1_655 S
C310 H323 0.968 . S
C311 C310 1.367 1_455 S
C311 C313 1.384 . S
H312 C314 0.949 . S
C313 C311 1.384 . S
C313 C314 1.385 . S
C313 H315 0.950 . S
C314 C308 1.404 . S
C314 H312 0.949 . S
C314 C313 1.385 . S
H315 C313 0.950 . S
H316 C300 0.951 . S
H317 C302 0.951 . S
H318 C304 0.951 . S
H319 C305 0.950 . S
H320 C306 0.950 . S
H321 C307 0.950 . S
H322 C309 0.977 . S
H323 C310 0.968 . S
C324 C325 1.386 . S
C324 C326 1.383 . S
C324 H340 0.951 . S
C325 C324 1.386 . S
C325 C329 1.383 . S
C326 C324 1.383 . S
C326 C327 1.402 . S
C326 H341 0.951 . S
C327 C326 1.402 . S
C327 C328 1.375 . S
C327 C330 1.481 . S
C328 C327 1.375 . S
C328 C329 1.367 . S
C328 H342 0.951 . S
C329 C325 1.383 . S
C329 C328 1.367 . S
C329 H343 0.950 . S
C330 C327 1.481 . S
C330 C331 1.297 . S
C330 H344 0.950 . S
C331 C330 1.297 . S
C331 C332 1.479 . S
C331 H345 0.950 . S
C332 C331 1.479 . S
C332 C333 1.375 . S
C332 C338 1.404 . S
C333 C332 1.375 . S
C333 C334 1.369 . S
C333 H346 0.950 . S
C334 C333 1.369 . S
C334 C335 1.392 . S
C334 H347 0.951 . S
C335 C334 1.392 . S
C335 C337 1.384 . S
H336 C338 0.949 . S
C337 C335 1.384 . S
C337 C338 1.385 . S
C337 H339 0.950 . S
C338 C332 1.404 . S
C338 H336 0.949 . S
C338 C337 1.385 . S
H339 C337 0.950 . S
H340 C324 0.951 . S
H341 C326 0.951 . S
H342 C328 0.951 . S
H343 C329 0.950 . S
H344 C330 0.950 . S
H345 C331 0.950 . S
H346 C333 0.950 . S
H347 C334 0.951 . S
C348 C349 1.386 . S
C348 C350 1.383 . S
C348 H364 0.951 . S
C349 C348 1.386 . S
C349 C353 1.383 . S
C350 C348 1.383 . S
C350 C351 1.402 . S
C350 H365 0.951 . S
C351 C350 1.402 . S
C351 C352 1.375 . S
C351 C354 1.481 . S
C352 C351 1.375 . S
C352 C353 1.367 . S
C352 H366 0.951 . S
C353 C349 1.383 . S
C353 C352 1.367 . S
C353 H367 0.950 . S
C354 C351 1.481 . S
C354 C355 1.297 . S
C354 H368 0.950 . S
C355 C354 1.297 . S
C355 C356 1.479 . S
C355 H369 0.950 . S
C356 C355 1.479 . S
C356 C357 1.375 . S
C356 C362 1.404 . S
C357 C356 1.375 . S
C357 C358 1.369 . S
C357 H370 0.950 . S
C358 C357 1.369 . S
C358 C359 1.392 . S
C358 H371 0.951 . S
C359 C358 1.392 . S
C359 C361 1.384 . S
H360 C362 0.949 . S
C361 C359 1.384 . S
C361 C362 1.385 . S
C361 H363 0.950 . S
C362 C356 1.404 . S
C362 H360 0.949 . S
C362 C361 1.385 . S
H363 C361 0.950 . S
H364 C348 0.951 . S
H365 C350 0.951 . S
H366 C352 0.951 . S
H367 C353 0.950 . S
H368 C354 0.950 . S
H369 C355 0.950 . S
H370 C357 0.950 . S
H371 C358 0.951 . S
C372 C373 1.386 . S
C372 C374 1.383 . S
C372 H388 0.951 . S
C373 C372 1.386 . S
C373 C377 1.383 . S
C374 C372 1.383 . S
C374 C375 1.402 . S
C374 H389 0.951 . S
C375 C374 1.402 . S
C375 C376 1.375 . S
C375 C378 1.481 . S
C376 C375 1.375 . S
C376 C377 1.367 . S
C376 H390 0.951 1_545 S
C377 C373 1.383 . S
C377 C376 1.367 . S
C377 H391 0.950 1_545 S
C378 C375 1.481 . S
C378 C379 1.297 . S
C378 H392 0.955 . S
C379 C378 1.297 . S
C379 C380 1.479 . S
C379 H393 0.950 . S
C380 C379 1.479 . S
C380 C381 1.375 . S
C380 C386 1.404 . S
C381 C380 1.375 . S
C381 C382 1.369 . S
C381 H394 0.950 . S
C382 C381 1.369 . S
C382 C383 1.392 . S
C382 H395 0.951 . S
C383 C382 1.392 . S
C383 C385 1.384 . S
H384 C386 0.949 1_565 S
C385 C383 1.384 . S
C385 C386 1.385 . S
C385 H387 0.950 1_545 S
C386 C380 1.404 . S
C386 H384 0.949 1_545 S
C386 C385 1.385 . S
H387 C385 0.950 1_565 S
H388 C372 0.951 . S
H389 C374 0.951 . S
H390 C376 0.951 1_565 S
H391 C377 0.950 1_565 S
H392 C378 0.955 . S
H393 C379 0.950 . S
H394 C381 0.950 . S
H395 C382 0.951 . S
C396 C397 1.386 . S
C396 C398 1.383 1_554 S
C396 H412 0.951 . S
C397 C396 1.386 . S
C397 C401 1.383 1_554 S
C398 C396 1.383 1_556 S
C398 C399 1.402 . S
C398 H413 0.951 . S
C399 C398 1.402 . S
C399 C400 1.375 . S
C399 C402 1.481 . S
C400 C399 1.375 . S
C400 C401 1.367 . S
C400 H414 0.951 . S
C401 C397 1.383 1_556 S
C401 C400 1.367 . S
C401 H415 0.950 . S
C402 C399 1.481 . S
C402 C403 1.297 . S
C402 H416 0.950 . S
C403 C402 1.297 . S
C403 C404 1.479 . S
C403 H417 0.950 . S
C404 C403 1.479 . S
C404 C405 1.375 . S
C404 C410 1.404 . S
C405 C404 1.375 . S
C405 C406 1.369 . S
C405 H418 0.950 . S
C406 C405 1.369 . S
C406 C407 1.392 . S
C406 H419 0.951 . S
C407 C406 1.392 . S
C407 C409 1.384 . S
H408 C410 0.949 . S
C409 C407 1.384 . S
C409 C410 1.385 . S
C409 H411 0.950 . S
C410 C404 1.404 . S
C410 H408 0.949 . S
C410 C409 1.385 . S
H411 C409 0.950 . S
H412 C396 0.951 . S
H413 C398 0.951 . S
H414 C400 0.951 . S
H415 C401 0.950 . S
H416 C402 0.950 . S
H417 C403 0.950 . S
H418 C405 0.950 . S
H419 C406 0.951 . S
C420 C421 1.392 . S
C420 C422 1.379 . S
C420 H436 0.948 1_655 S
C421 C420 1.392 . S
C421 C425 1.383 . S
C422 C420 1.379 . S
C422 C423 1.402 . S
C422 H437 0.951 1_655 S
C423 C422 1.402 . S
C423 C424 1.375 . S
C423 C426 1.481 . S
C424 C423 1.375 . S
C424 C425 1.367 . S
C424 H438 0.951 . S
C425 C421 1.383 . S
C425 C424 1.367 . S
C425 H439 0.950 . S
C426 C423 1.481 . S
C426 C427 1.297 . S
C426 H440 0.950 . S
C427 C426 1.297 . S
C427 C428 1.479 . S
C427 H441 0.950 . S
C428 C427 1.479 . S
C428 C429 1.375 1_655 S
C428 C434 1.404 . S
C429 C428 1.375 1_455 S
C429 C430 1.369 . S
C429 H442 0.950 . S
C430 C429 1.369 . S
C430 C431 1.392 . S
C430 H443 0.951 . S
C431 C430 1.392 . S
C431 C433 1.384 1_455 S
H432 C434 0.949 . S
C433 C431 1.384 1_655 S
C433 C434 1.385 . S
C433 H435 0.950 . S
C434 C428 1.404 . S
C434 H432 0.949 . S
C434 C433 1.385 . S
H435 C433 0.950 . S
H436 C420 0.948 1_455 S
H437 C422 0.951 1_455 S
H438 C424 0.951 . S
H439 C425 0.950 . S
H440 C426 0.950 . S
H441 C427 0.950 . S
H442 C429 0.950 . S
H443 C430 0.951 . S
C444 C445 1.386 1_545 S
C444 C446 1.383 . S
C444 H460 0.951 . S
C445 C444 1.386 1_565 S
C445 C449 1.383 . S
C446 C444 1.383 . S
C446 C447 1.402 1_545 S
C446 H461 0.951 . S
C447 C446 1.402 1_565 S
C447 C448 1.375 . S
C447 C450 1.481 . S
C448 C447 1.375 . S
C448 C449 1.367 . S
C448 H462 0.951 . S
C449 C445 1.383 . S
C449 C448 1.367 . S
C449 H463 0.950 . S
C450 C447 1.481 . S
C450 C451 1.297 1_565 S
C450 H464 0.950 . S
C451 C450 1.297 1_545 S
C451 C452 1.479 . S
C451 H465 0.950 . S
C452 C451 1.479 . S
C452 C453 1.375 . S
C452 C458 1.404 1_545 S
C453 C452 1.375 . S
C453 C454 1.369 . S
C453 H466 0.950 . S
C454 C453 1.369 . S
C454 C455 1.392 . S
C454 H467 0.951 . S
C455 C454 1.392 . S
C455 C457 1.384 . S
H456 C458 0.949 . S
C457 C455 1.384 . S
C457 C458 1.385 1_545 S
C457 H459 0.950 1_545 S
C458 C452 1.404 1_565 S
C458 H456 0.949 . S
C458 C457 1.385 1_565 S
H459 C457 0.950 1_565 S
H460 C444 0.951 . S
H461 C446 0.951 . S
H462 C448 0.951 . S
H463 C449 0.950 . S
H464 C450 0.950 . S
H465 C451 0.950 . S
H466 C453 0.950 . S
H467 C454 0.951 . S
C468 C469 1.386 1_556 S
C468 C470 1.383 . S
C468 H484 0.951 . S
C469 C468 1.386 1_554 S
C469 C473 1.383 . S
C470 C468 1.383 . S
C470 C471 1.402 . S
C470 H485 0.951 . S
C471 C470 1.402 . S
C471 C472 1.375 1_556 S
C471 C474 1.481 . S
C472 C471 1.375 1_554 S
C472 C473 1.367 . S
C472 H486 0.951 . S
C473 C469 1.383 . S
C473 C472 1.367 . S
C473 H487 0.950 . S
C474 C471 1.481 . S
C474 C475 1.297 . S
C474 H488 0.950 . S
C475 C474 1.297 . S
C475 C476 1.479 . S
C475 H489 0.950 . S
C476 C475 1.479 . S
C476 C477 1.375 . S
C476 C482 1.404 . S
C477 C476 1.375 . S
C477 C478 1.369 . S
C477 H490 0.950 . S
C478 C477 1.369 . S
C478 C479 1.392 . S
C478 H491 0.951 . S
C479 C478 1.392 . S
C479 C481 1.384 . S
H480 C482 0.949 . S
C481 C479 1.384 . S
C481 C482 1.385 . S
C481 H483 0.950 . S
C482 C476 1.404 . S
C482 H480 0.949 . S
C482 C481 1.385 . S
H483 C481 0.950 . S
H484 C468 0.951 . S
H485 C470 0.951 . S
H486 C472 0.951 . S
H487 C473 0.950 . S
H488 C474 0.950 . S
H489 C475 0.950 . S
H490 C477 0.950 . S
H491 C478 0.951 . S
C492 C493 1.386 . S
C492 C494 1.383 . S
C492 H508 0.951 . S
C493 C492 1.386 . S
C493 C497 1.383 1_455 S
C494 C492 1.383 . S
C494 C495 1.402 . S
C494 H509 0.951 . S
C495 C494 1.402 . S
C495 C496 1.375 1_455 S
C495 C498 1.481 . S
C496 C495 1.375 1_655 S
C496 C497 1.367 . S
C496 H510 0.951 . S
C497 C493 1.383 1_655 S
C497 C496 1.367 . S
C497 H511 0.950 . S
C498 C495 1.481 . S
C498 C499 1.297 . S
C498 H512 0.950 1_455 S
C499 C498 1.297 . S
C499 C500 1.479 . S
C499 H513 0.950 . S
C500 C499 1.479 . S
C500 C501 1.375 . S
C500 C506 1.404 1_455 S
C501 C500 1.375 . S
C501 C502 1.369 . S
C501 H514 0.950 . S
C502 C501 1.369 . S
C502 C503 1.392 . S
C502 H515 0.951 . S
C503 C502 1.392 . S
C503 C505 1.384 1_455 S
H504 C506 0.949 . S
C505 C503 1.384 1_655 S
C505 C506 1.385 . S
C505 H507 0.950 . S
C506 C500 1.404 1_655 S
C506 H504 0.949 . S
C506 C505 1.385 . S
H507 C505 0.950 . S
H508 C492 0.951 . S
H509 C494 0.951 . S
H510 C496 0.951 . S
H511 C497 0.950 . S
H512 C498 0.950 1_655 S
H513 C499 0.950 . S
H514 C501 0.950 . S
H515 C502 0.951 . S
C239 C95 1.192 . S
C229 C11 1.177 . S
C253 C26 1.433 1_565 S
C263 C139 1.416 . S
C277 C40 1.297 . S
C287 C201 1.283 . S
C301 C5 1.097 . S
C311 C77 1.229 . S
C335 C157 1.389 . S
C325 C18 1.364 . S
C349 C32 1.245 . S
C359 C219 1.272 . S
C383 C133 1.307 . S
C373 C39 1.403 . S
C397 C4 1.588 . S
C407 C195 1.441 . S
C431 C71 1.487 . S
C421 C19 1.386 . S
C455 C151 1.446 . S
C445 C33 1.297 . S
C479 C213 1.555 . S
C469 C12 1.611 . S
C493 C25 1.542 . S
C503 C89 1.409 . S
