# Generated by pormake.
# Topology ptr, (4,4)-cn, num edge types: 1
# Building blocks:
#     Node 0, Type 0, BuildingBlock: AZAVOO_clean_sbu_0, # of connection points: 4
#     Node 1, Type 0, BuildingBlock: AZAVOO_clean_sbu_0, # of connection points: 4
#     Node 2, Type 0, BuildingBlock: AZAVOO_clean_sbu_0, # of connection points: 4
#     Node 3, Type 0, BuildingBlock: AZAVOO_clean_sbu_0, # of connection points: 4
#     Node 4, Type 0, BuildingBlock: AZAVOO_clean_sbu_0, # of connection points: 4
#     Node 5, Type 0, BuildingBlock: AZAVOO_clean_sbu_0, # of connection points: 4
#     Node 6, Type 0, BuildingBlock: AZAVOO_clean_sbu_0, # of connection points: 4
#     Node 7, Type 0, BuildingBlock: AZAVOO_clean_sbu_0, # of connection points: 4
#     Node 8, Type 0, BuildingBlock: AZAVOO_clean_sbu_0, # of connection points: 4
#     Node 9, Type 0, BuildingBlock: AZAVOO_clean_sbu_0, # of connection points: 4
#     Node 10, Type 0, BuildingBlock: AZAVOO_clean_sbu_0, # of connection points: 4
#     Node 11, Type 0, BuildingBlock: AZAVOO_clean_sbu_0, # of connection points: 4
#     Node 12, Type 0, BuildingBlock: AZAVOO_clean_sbu_0, # of connection points: 4
#     Node 13, Type 0, BuildingBlock: AZAVOO_clean_sbu_0, # of connection points: 4
#     Node 14, Type 0, BuildingBlock: AZAVOO_clean_sbu_0, # of connection points: 4
#     Node 15, Type 0, BuildingBlock: AZAVOO_clean_sbu_0, # of connection points: 4
#     Node 16, Type 0, BuildingBlock: AZAVOO_clean_sbu_0, # of connection points: 4
#     Node 17, Type 0, BuildingBlock: AZAVOO_clean_sbu_0, # of connection points: 4
#     Node 18, Type 1, BuildingBlock: KUFVIS_clean_linker_0, # of connection points: 4
#     Node 19, Type 1, BuildingBlock: KUFVIS_clean_linker_0, # of connection points: 4
#     Node 20, Type 1, BuildingBlock: KUFVIS_clean_linker_0, # of connection points: 4
#     Node 21, Type 1, BuildingBlock: KUFVIS_clean_linker_0, # of connection points: 4
#     Node 22, Type 1, BuildingBlock: KUFVIS_clean_linker_0, # of connection points: 4
#     Node 23, Type 1, BuildingBlock: KUFVIS_clean_linker_0, # of connection points: 4
#     Node 24, Type 1, BuildingBlock: KUFVIS_clean_linker_0, # of connection points: 4
#     Node 25, Type 1, BuildingBlock: KUFVIS_clean_linker_0, # of connection points: 4
#     Node 26, Type 1, BuildingBlock: KUFVIS_clean_linker_0, # of connection points: 4
#     Node 27, Type 1, BuildingBlock: KUFVIS_clean_linker_0, # of connection points: 4
#     Node 28, Type 1, BuildingBlock: KUFVIS_clean_linker_0, # of connection points: 4
#     Node 29, Type 1, BuildingBlock: KUFVIS_clean_linker_0, # of connection points: 4
#     Node 30, Type 1, BuildingBlock: KUFVIS_clean_linker_0, # of connection points: 4
#     Node 31, Type 1, BuildingBlock: KUFVIS_clean_linker_0, # of connection points: 4
#     Node 32, Type 1, BuildingBlock: KUFVIS_clean_linker_0, # of connection points: 4
#     Node 33, Type 1, BuildingBlock: KUFVIS_clean_linker_0, # of connection points: 4
#     Node 34, Type 1, BuildingBlock: KUFVIS_clean_linker_0, # of connection points: 4
#     Node 35, Type 1, BuildingBlock: KUFVIS_clean_linker_0, # of connection points: 4
#     Edge 36, Type (0, 1), BuildingBlock: XUDNAN_clean_linker_2, # of connection points: 2
#     Edge 37, Type (0, 1), BuildingBlock: XUDNAN_clean_linker_2, # of connection points: 2
#     Edge 38, Type (0, 1), BuildingBlock: XUDNAN_clean_linker_2, # of connection points: 2
#     Edge 39, Type (0, 1), BuildingBlock: XUDNAN_clean_linker_2, # of connection points: 2
#     Edge 40, Type (0, 1), BuildingBlock: XUDNAN_clean_linker_2, # of connection points: 2
#     Edge 41, Type (0, 1), BuildingBlock: XUDNAN_clean_linker_2, # of connection points: 2
#     Edge 42, Type (0, 1), BuildingBlock: XUDNAN_clean_linker_2, # of connection points: 2
#     Edge 43, Type (0, 1), BuildingBlock: XUDNAN_clean_linker_2, # of connection points: 2
#     Edge 44, Type (0, 1), BuildingBlock: XUDNAN_clean_linker_2, # of connection points: 2
#     Edge 45, Type (0, 1), BuildingBlock: XUDNAN_clean_linker_2, # of connection points: 2
#     Edge 46, Type (0, 1), BuildingBlock: XUDNAN_clean_linker_2, # of connection points: 2
#     Edge 47, Type (0, 1), BuildingBlock: XUDNAN_clean_linker_2, # of connection points: 2
#     Edge 48, Type (0, 1), BuildingBlock: XUDNAN_clean_linker_2, # of connection points: 2
#     Edge 49, Type (0, 1), BuildingBlock: XUDNAN_clean_linker_2, # of connection points: 2
#     Edge 50, Type (0, 1), BuildingBlock: XUDNAN_clean_linker_2, # of connection points: 2
#     Edge 51, Type (0, 1), BuildingBlock: XUDNAN_clean_linker_2, # of connection points: 2
#     Edge 52, Type (0, 1), BuildingBlock: XUDNAN_clean_linker_2, # of connection points: 2
#     Edge 53, Type (0, 1), BuildingBlock: XUDNAN_clean_linker_2, # of connection points: 2
#     Edge 54, Type (0, 1), BuildingBlock: XUDNAN_clean_linker_2, # of connection points: 2
#     Edge 55, Type (0, 1), BuildingBlock: XUDNAN_clean_linker_2, # of connection points: 2
#     Edge 56, Type (0, 1), BuildingBlock: XUDNAN_clean_linker_2, # of connection points: 2
#     Edge 57, Type (0, 1), BuildingBlock: XUDNAN_clean_linker_2, # of connection points: 2
#     Edge 58, Type (0, 1), BuildingBlock: XUDNAN_clean_linker_2, # of connection points: 2
#     Edge 59, Type (0, 1), BuildingBlock: XUDNAN_clean_linker_2, # of connection points: 2
#     Edge 60, Type (0, 1), BuildingBlock: XUDNAN_clean_linker_2, # of connection points: 2
#     Edge 61, Type (0, 1), BuildingBlock: XUDNAN_clean_linker_2, # of connection points: 2
#     Edge 62, Type (0, 1), BuildingBlock: XUDNAN_clean_linker_2, # of connection points: 2
#     Edge 63, Type (0, 1), BuildingBlock: XUDNAN_clean_linker_2, # of connection points: 2
#     Edge 64, Type (0, 1), BuildingBlock: XUDNAN_clean_linker_2, # of connection points: 2
#     Edge 65, Type (0, 1), BuildingBlock: XUDNAN_clean_linker_2, # of connection points: 2
#     Edge 66, Type (0, 1), BuildingBlock: XUDNAN_clean_linker_2, # of connection points: 2
#     Edge 67, Type (0, 1), BuildingBlock: XUDNAN_clean_linker_2, # of connection points: 2
#     Edge 68, Type (0, 1), BuildingBlock: XUDNAN_clean_linker_2, # of connection points: 2
#     Edge 69, Type (0, 1), BuildingBlock: XUDNAN_clean_linker_2, # of connection points: 2
#     Edge 70, Type (0, 1), BuildingBlock: XUDNAN_clean_linker_2, # of connection points: 2
#     Edge 71, Type (0, 1), BuildingBlock: XUDNAN_clean_linker_2, # of connection points: 2
#     Edge 72, Type (0, 1), BuildingBlock: XUDNAN_clean_linker_2, # of connection points: 2
#     Edge 73, Type (0, 1), BuildingBlock: XUDNAN_clean_linker_2, # of connection points: 2
#     Edge 74, Type (0, 1), BuildingBlock: XUDNAN_clean_linker_2, # of connection points: 2
#     Edge 75, Type (0, 1), BuildingBlock: XUDNAN_clean_linker_2, # of connection points: 2
#     Edge 76, Type (0, 1), BuildingBlock: XUDNAN_clean_linker_2, # of connection points: 2
#     Edge 77, Type (0, 1), BuildingBlock: XUDNAN_clean_linker_2, # of connection points: 2
#     Edge 78, Type (0, 1), BuildingBlock: XUDNAN_clean_linker_2, # of connection points: 2
#     Edge 79, Type (0, 1), BuildingBlock: XUDNAN_clean_linker_2, # of connection points: 2
#     Edge 80, Type (0, 1), BuildingBlock: XUDNAN_clean_linker_2, # of connection points: 2
#     Edge 81, Type (0, 1), BuildingBlock: XUDNAN_clean_linker_2, # of connection points: 2
#     Edge 82, Type (0, 1), BuildingBlock: XUDNAN_clean_linker_2, # of connection points: 2
#     Edge 83, Type (0, 1), BuildingBlock: XUDNAN_clean_linker_2, # of connection points: 2
#     Edge 84, Type (0, 1), BuildingBlock: XUDNAN_clean_linker_2, # of connection points: 2
#     Edge 85, Type (0, 1), BuildingBlock: XUDNAN_clean_linker_2, # of connection points: 2
#     Edge 86, Type (0, 1), BuildingBlock: XUDNAN_clean_linker_2, # of connection points: 2
#     Edge 87, Type (0, 1), BuildingBlock: XUDNAN_clean_linker_2, # of connection points: 2
#     Edge 88, Type (0, 1), BuildingBlock: XUDNAN_clean_linker_2, # of connection points: 2
#     Edge 89, Type (0, 1), BuildingBlock: XUDNAN_clean_linker_2, # of connection points: 2
#     Edge 90, Type (0, 1), BuildingBlock: XUDNAN_clean_linker_2, # of connection points: 2
#     Edge 91, Type (0, 1), BuildingBlock: XUDNAN_clean_linker_2, # of connection points: 2
#     Edge 92, Type (0, 1), BuildingBlock: XUDNAN_clean_linker_2, # of connection points: 2
#     Edge 93, Type (0, 1), BuildingBlock: XUDNAN_clean_linker_2, # of connection points: 2
#     Edge 94, Type (0, 1), BuildingBlock: XUDNAN_clean_linker_2, # of connection points: 2
#     Edge 95, Type (0, 1), BuildingBlock: XUDNAN_clean_linker_2, # of connection points: 2
#     Edge 96, Type (0, 1), BuildingBlock: XUDNAN_clean_linker_2, # of connection points: 2
#     Edge 97, Type (0, 1), BuildingBlock: XUDNAN_clean_linker_2, # of connection points: 2
#     Edge 98, Type (0, 1), BuildingBlock: XUDNAN_clean_linker_2, # of connection points: 2
#     Edge 99, Type (0, 1), BuildingBlock: XUDNAN_clean_linker_2, # of connection points: 2
#     Edge 100, Type (0, 1), BuildingBlock: XUDNAN_clean_linker_2, # of connection points: 2
#     Edge 101, Type (0, 1), BuildingBlock: XUDNAN_clean_linker_2, # of connection points: 2
#     Edge 102, Type (0, 1), BuildingBlock: XUDNAN_clean_linker_2, # of connection points: 2
#     Edge 103, Type (0, 1), BuildingBlock: XUDNAN_clean_linker_2, # of connection points: 2
#     Edge 104, Type (0, 1), BuildingBlock: XUDNAN_clean_linker_2, # of connection points: 2
#     Edge 105, Type (0, 1), BuildingBlock: XUDNAN_clean_linker_2, # of connection points: 2
#     Edge 106, Type (0, 1), BuildingBlock: XUDNAN_clean_linker_2, # of connection points: 2
#     Edge 107, Type (0, 1), BuildingBlock: XUDNAN_clean_linker_2, # of connection points: 2
# Relax obj value: 0.078
# Max RMSD: 0.240
# Mean RMSD: 0.132
data_MOF--net-ptr--node1-AZAVOO_clean_sbu_0--node2-KUFVIS_clean_linker_0--edge1-XUDNAN_clean_linker_2
_symmetry_space_group_name_H-M    P1
_symmetry_Int_Tables_number       1
_symmetry_cell_setting            triclinic
loop_
_symmetry_equiv_pos_as_xyz
'x, y, z'
_cell_length_a     80.645185
_cell_length_b     79.340225
_cell_length_c     46.817411
_cell_angle_alpha  91.330064
_cell_angle_beta   91.363827
_cell_angle_gamma 120.07078
loop_
_atom_site_label
_atom_site_type_symbol
_atom_site_fract_x
_atom_site_fract_y
_atom_site_fract_z
_atom_type_partial_charge
Mg0 Mg 0.00956 0.3583 0.9784 0.0
O1 O 0.99854 0.36955 0.01617 0.0
O2 O 0.97325 0.37014 -0.00376 0.0
Mg3 Mg 0.96815 0.361 0.9492 0.0
C4 C 0.98447 0.3728 0.01773 0.0
C5 C 0.04718 0.36105 -0.00407 0.0
O6 O 0.0501 0.37123 0.97298 0.0
O7 O 0.98385 0.32698 0.9824 0.0
O8 O 0.96036 0.33031 0.96203 0.0
O9 O 0.02851 0.3892 0.96539 0.0
O10 O 0.99848 0.37046 0.94999 0.0
C11 C 0.96632 0.31982 0.9737 0.0
C12 C 0.01372 0.38733 0.95122 0.0
O13 O 0.03047 0.35278 0.00608 0.0
Mg14 Mg 0.65254 0.6506 0.03775 0.0
O15 O 0.63299 0.6342 -0.0018 0.0
O16 O 0.60321 0.62717 0.00775 0.0
Mg17 Mg 0.60377 0.63925 0.05283 0.0
C18 C 0.61515 0.62633 0.99117 0.0
C19 C 0.69565 0.66875 0.02558 0.0
O20 O 0.69668 0.67503 0.05214 0.0
O21 O 0.65255 0.67882 0.02803 0.0
O22 O 0.62314 0.67117 0.04077 0.0
O23 O 0.64565 0.62187 0.05412 0.0
O24 O 0.62899 0.63644 0.0634 0.0
C25 C 0.63971 0.68346 0.0322 0.0
C26 C 0.6307 0.62117 0.06489 0.0
O27 O 0.6793 0.65905 0.01272 0.0
Mg28 Mg 0.36015 1.00036 0.97355 0.0
O29 O 0.37801 0.00831 0.01644 0.0
O30 O 0.40495 0.03651 0.00892 0.0
Mg31 Mg 0.40522 0.04592 0.96365 0.0
C32 C 0.39436 0.02267 0.02497 0.0
C33 C 0.33049 0.96329 0.00647 0.0
O34 O 0.34578 0.96224 0.01369 0.0
O35 O 0.35292 0.02423 0.98263 0.0
O36 O 0.38075 0.05124 0.97516 0.0
O37 O 0.37365 0.98346 0.95855 0.0
O38 O 0.38562 0.01504 0.95281 0.0
C39 C 0.3632 0.04273 0.98181 0.0
C40 C 0.38757 0.99992 0.95065 0.0
O41 O 0.33228 0.97751 0.99223 0.0
Mg42 Mg 0.99652 0.64755 0.03484 0.0
O43 O 0.99776 0.63217 -0.00719 0.0
O44 O 0.0237 0.62896 -0.00158 0.0
Mg45 Mg 0.03896 0.64186 0.04165 0.0
C46 C 0.00892 0.62623 0.98378 0.0
C47 C 0.95767 0.64183 0.00271 0.0
O48 O 0.97348 0.6552 0.01593 0.0
O49 O 0.02152 0.67723 0.0222 0.0
O50 O 0.04641 0.67268 0.02964 0.0
O51 O 0.97924 0.61834 0.05394 0.0
O52 O 0.01087 0.63543 0.05615 0.0
C53 C 0.03958 0.68359 0.02302 0.0
C54 C 0.99539 0.61942 0.06079 0.0
O55 O 0.97328 0.65453 0.01573 0.0
Mg56 Mg 0.35632 0.35279 0.96725 0.0
O57 O 0.37397 0.36904 0.00862 0.0
O58 O 0.40459 0.3784 0.00072 0.0
Mg59 Mg 0.40644 0.36779 0.95579 0.0
C60 C 0.39173 0.37788 0.01668 0.0
C61 C 0.32027 0.35169 -0.00677 0.0
O62 O 0.32676 0.33959 0.99051 0.0
O63 O 0.35826 0.32565 0.97598 0.0
O64 O 0.38874 0.33531 0.96686 0.0
O65 O 0.36164 0.38125 0.95194 0.0
O66 O 0.38045 0.36892 0.94368 0.0
C67 C 0.37201 0.32215 0.97366 0.0
C68 C 0.37741 0.38337 0.94205 0.0
O69 O 0.32714 0.34039 0.99013 0.0
Mg70 Mg 0.6456 0.00933 0.02806 0.0
O71 O 0.6239 0.99577 0.98906 0.0
O72 O 0.59892 0.96891 0.00529 0.0
Mg73 Mg 0.60418 0.96469 0.05171 0.0
C74 C 0.60715 0.98068 0.98536 0.0
C75 C 0.68185 0.04662 0.01472 0.0
O76 O 0.67723 0.05002 0.04007 0.0
O77 O 0.65439 0.98624 0.02272 0.0
O78 O 0.62882 0.9599 0.03846 0.0
O79 O 0.63093 0.02568 0.0413 0.0
O80 O 0.623 0.99633 0.05549 0.0
C81 C 0.64557 0.96821 0.0284 0.0
C82 C 0.61933 0.01035 0.0548 0.0
O83 O 0.67066 0.0304 0.00158 0.0
Mg84 Mg 0.6783 0.69037 0.30767 0.0
O85 O 0.67482 0.70567 0.34805 0.0
O86 O 0.65209 0.71291 0.33631 0.0
Mg87 Mg 0.64099 0.70256 0.29032 0.0
C88 C 0.6645 0.71326 0.35417 0.0
C89 C 0.71404 0.69151 0.33803 0.0
O90 O 0.72114 0.71012 0.33354 0.0
O91 O 0.64999 0.66194 0.31478 0.0
O92 O 0.62853 0.67038 0.3009 0.0
O93 O 0.69993 0.71975 0.29272 0.0
O94 O 0.6689 0.70543 0.2822 0.0
C95 C 0.63264 0.65767 0.30946 0.0
C96 C 0.68565 0.72065 0.28128 0.0
O97 O 0.69638 0.67973 0.33168 0.0
Mg98 Mg 0.30791 0.98471 0.35765 0.0
O99 O 0.28733 0.97212 0.31709 0.0
O100 O 0.2599 0.96995 0.33103 0.0
Mg101 Mg 0.26193 0.98006 0.3772 0.0
C102 C 0.26986 0.96774 0.31208 0.0
C103 C 0.33729 0.97799 0.32321 0.0
O104 O 0.32258 0.96014 0.32131 0.0
O105 O 0.31205 0.01522 0.35105 0.0
O106 O 0.28373 0.01081 0.36437 0.0
O107 O 0.29757 0.95454 0.37206 0.0
O108 O 0.28396 0.97199 0.38255 0.0
C109 C 0.30053 0.0216 0.35535 0.0
C110 C 0.28355 0.95558 0.38311 0.0
O111 O 0.33517 0.99154 0.33438 0.0
Mg112 Mg 0.02497 0.32517 0.31002 0.0
O113 O 0.0494 0.33404 0.34442 0.0
O114 O 0.07611 0.35641 0.32444 0.0
Mg115 Mg 0.06932 0.36291 0.28036 0.0
C116 C 0.06755 0.34574 0.34526 0.0
C117 C 0.98499 0.30312 0.33512 0.0
O118 O 0.9815 0.31141 0.31363 0.0
O119 O 0.0243 0.35331 0.31962 0.0
O120 O 0.05171 0.37509 0.3006 0.0
O121 O 0.03122 0.30285 0.2924 0.0
O122 O 0.04474 0.33315 0.27815 0.0
C123 C 0.0365 0.37083 0.31377 0.0
C124 C 0.04399 0.31651 0.2775 0.0
O125 O 0.00216 0.30753 0.34121 0.0
Mg126 Mg 0.658 0.98049 0.36848 0.0
O127 O 0.66264 0.96591 0.32833 0.0
O128 O 0.68618 0.95996 0.34055 0.0
Mg129 Mg 0.69683 0.97085 0.38656 0.0
C130 C 0.67359 0.95901 0.32248 0.0
C131 C 0.62272 0.97687 0.33336 0.0
O132 O 0.61784 0.95841 0.33387 0.0
O133 O 0.6854 0.00965 0.36145 0.0
O134 O 0.70803 0.00285 0.37519 0.0
O135 O 0.63714 0.95086 0.38295 0.0
O136 O 0.66814 0.96621 0.39431 0.0
C137 C 0.70302 0.01487 0.36647 0.0
C138 C 0.65165 0.95054 0.39475 0.0
O139 O 0.63905 0.9897 0.34395 0.0
Mg140 Mg 0.02536 0.689 0.30069 0.0
O141 O 0.04372 0.70255 0.34232 0.0
O142 O 0.07261 0.70604 0.33541 0.0
Mg143 Mg 0.07243 0.694 0.29048 0.0
C144 C 0.06094 0.70816 0.351 0.0
C145 C 0.99602 0.69534 0.33651 0.0
O146 O 0.01128 0.71246 0.34234 0.0
O147 O 0.02092 0.65898 0.31051 0.0
O148 O 0.04967 0.66273 0.30183 0.0
O149 O 0.03667 0.71886 0.28517 0.0
O150 O 0.0502 0.70092 0.27745 0.0
C151 C 0.03223 0.65214 0.3087 0.0
C152 C 0.05081 0.71739 0.27545 0.0
O153 O 0.99761 0.68262 0.3217 0.0
Mg154 Mg 0.31395 0.34647 0.36928 0.0
O155 O 0.29657 0.34415 0.32805 0.0
O156 O 0.26637 0.32059 0.33401 0.0
Mg157 Mg 0.26454 0.30819 0.37828 0.0
C158 C 0.27906 0.33385 0.31908 0.0
C159 C 0.35078 0.38288 0.34416 0.0
O160 O 0.34356 0.36418 0.34722 0.0
O161 O 0.3138 0.31847 0.35747 0.0
O162 O 0.28396 0.2955 0.3664 0.0
O163 O 0.30692 0.36821 0.38756 0.0
O164 O 0.28948 0.33639 0.39254 0.0
C165 C 0.30098 0.3006 0.35911 0.0
C166 C 0.29162 0.35348 0.39677 0.0
O167 O 0.3433 0.36462 0.34749 0.0
Mg168 Mg 0.34929 0.02661 0.6412 0.0
O169 O 0.33658 0.03737 0.67736 0.0
O170 O 0.31268 0.03851 0.65378 0.0
Mg171 Mg 0.30916 0.0289 0.60705 0.0
C172 C 0.32279 0.04109 0.67662 0.0
C173 C 0.3842 0.02518 0.65802 0.0
O174 O 0.3863 0.03281 0.63283 0.0
O175 O 0.32393 0.99501 0.64239 0.0
O176 O 0.30079 0.99788 0.61995 0.0
O177 O 0.36862 0.05779 0.63076 0.0
O178 O 0.33981 0.03916 0.61074 0.0
C179 C 0.3067 0.98755 0.63228 0.0
C180 C 0.35479 0.05623 0.61426 0.0
O181 O 0.36871 0.02034 0.67073 0.0
Mg182 Mg 0.97753 0.31061 0.70028 0.0
O183 O 0.95664 0.29862 0.66024 0.0
O184 O 0.92742 0.28999 0.67591 0.0
Mg185 Mg 0.92986 0.29885 0.72306 0.0
C186 C 0.9385 0.29122 0.65607 0.0
C187 C 0.01646 0.31774 0.68936 0.0
O188 O 0.01155 0.31048 0.71474 0.0
O189 O 0.97821 0.33977 0.69799 0.0
O190 O 0.94874 0.33116 0.71202 0.0
O191 O 0.97006 0.28033 0.71079 0.0
O192 O 0.95482 0.295 0.72681 0.0
C193 C 0.96518 0.34391 0.70357 0.0
C194 C 0.95621 0.27954 0.72515 0.0
O195 O 0.00467 0.3207 0.67479 0.0
Mg196 Mg 0.68849 0.65917 0.64181 0.0
O197 O 0.71154 0.66904 0.67915 0.0
O198 O 0.73753 0.69427 0.66178 0.0
Mg199 Mg 0.73177 0.7014 0.61733 0.0
C200 C 0.72926 0.68238 0.68155 0.0
C201 C 0.64758 0.63694 0.65845 0.0
O202 O 0.64776 0.64633 0.6356 0.0
O203 O 0.68377 0.68472 0.65141 0.0
O204 O 0.71015 0.70956 0.63461 0.0
O205 O 0.6992 0.64009 0.62464 0.0
O206 O 0.71 0.67055 0.61265 0.0
C207 C 0.69396 0.70274 0.64625 0.0
C208 C 0.71161 0.65521 0.61152 0.0
O209 O 0.66345 0.63949 0.66887 0.0
Mg210 Mg 0.3261 0.31732 0.7051 0.0
O211 O 0.32797 0.30109 0.66455 0.0
O212 O 0.35245 0.29586 0.6729 0.0
Mg213 Mg 0.36552 0.30745 0.71776 0.0
C214 C 0.33862 0.29419 0.65689 0.0
C215 C 0.29634 0.33052 0.69889 0.0
O216 O 0.30105 0.33342 0.72636 0.0
O217 O 0.35316 0.3461 0.69427 0.0
O218 O 0.37599 0.33912 0.7061 0.0
O219 O 0.306 0.28862 0.72292 0.0
O220 O 0.33757 0.30341 0.7289 0.0
C221 C 0.37087 0.35115 0.69793 0.0
C222 C 0.32106 0.28811 0.73171 0.0
O223 O 0.3052 0.32485 0.68266 0.0
Mg224 Mg 0.69123 0.02131 0.6393 0.0
O225 O 0.71406 0.03872 0.67531 0.0
O226 O 0.74245 0.04498 0.6591 0.0
Mg227 Mg 0.73744 0.02847 0.61653 0.0
C228 C 0.7323 0.0468 0.67804 0.0
C229 C 0.65017 0.00823 0.66035 0.0
O230 O 0.64527 0.99787 0.63616 0.0
O231 O 0.6899 0.99275 0.65074 0.0
O232 O 0.71853 0.99873 0.63626 0.0
O233 O 0.69887 0.04956 0.62097 0.0
O234 O 0.71261 0.03233 0.60928 0.0
C235 C 0.70245 0.9876 0.6473 0.0
C236 C 0.71238 0.04844 0.60827 0.0
O237 O 0.66772 0.01768 0.66872 0.0
Mg238 Mg 0.98423 0.6781 0.69579 0.0
O239 O 0.96051 0.66699 0.65934 0.0
O240 O 0.93464 0.64192 0.67729 0.0
Mg241 Mg 0.94123 0.63639 0.72223 0.0
C242 C 0.94291 0.65335 0.65705 0.0
C243 C 0.02483 0.70131 0.67182 0.0
O244 O 0.02756 0.69032 0.68967 0.0
O245 O 0.989 0.65238 0.68663 0.0
O246 O 0.96224 0.62786 0.70351 0.0
O247 O 0.97411 0.69754 0.71281 0.0
O248 O 0.96318 0.6673 0.72593 0.0
C249 C 0.97827 0.63436 0.69154 0.0
C250 C 0.96198 0.68291 0.72697 0.0
O251 O 0.00797 0.69843 0.66731 0.0
H252 H 0.23697 0.34406 0.11848 0.0
H253 H 0.18391 0.3271 0.07269 0.0
H254 H 0.19017 0.34079 0.16394 0.0
H255 H 0.15923 0.31853 0.16167 0.0
H256 H 0.11318 0.32333 0.1244 0.0
H257 H 0.16314 0.33933 0.07585 0.0
C258 C 0.22242 0.34148 0.11846 0.0
C259 C 0.21465 0.34272 0.14419 0.0
C260 C 0.21151 0.33612 0.09278 0.0
C261 C 0.19235 0.33181 0.09262 0.0
C262 C 0.18422 0.33342 0.11823 0.0
C263 C 0.19569 0.33899 0.14397 0.0
C264 C 0.16389 0.32927 0.11849 0.0
C265 C 0.1533 0.32207 0.14332 0.0
C266 C 0.1353 0.32035 0.14534 0.0
C267 C 0.12695 0.32426 0.12193 0.0
C268 C 0.13652 0.33063 0.09644 0.0
C269 C 0.15525 0.33346 0.09494 0.0
H270 H 0.67719 0.90625 0.1282 0.0
H271 H 0.68602 0.86332 0.08541 0.0
H272 H 0.67163 0.85803 0.17478 0.0
H273 H 0.68816 0.84209 0.17562 0.0
H274 H 0.67523 0.78826 0.13311 0.0
H275 H 0.66947 0.83068 0.08595 0.0
C276 C 0.67806 0.89305 0.12901 0.0
C277 C 0.67449 0.88321 0.15445 0.0
C278 C 0.682 0.88579 0.10424 0.0
C279 C 0.68284 0.86859 0.10487 0.0
C280 C 0.67932 0.85825 0.13035 0.0
C281 C 0.67518 0.86587 0.15519 0.0
C282 C 0.67899 0.83916 0.13072 0.0
C283 C 0.68352 0.83287 0.1563 0.0
C284 C 0.68164 0.81434 0.15732 0.0
C285 C 0.67629 0.80245 0.13246 0.0
C286 C 0.67232 0.80846 0.10674 0.0
C287 C 0.67346 0.82668 0.10582 0.0
H288 H 0.23459 0.89829 0.12205 0.0
H289 H 0.19325 0.84601 0.07558 0.0
H290 H 0.18002 0.86202 0.15741 0.0
H291 H 0.16596 0.82989 0.16251 0.0
H292 H 0.11702 0.78335 0.11767 0.0
H293 H 0.16008 0.82945 0.07012 0.0
C294 C 0.22067 0.88507 0.1207 0.0
C295 C 0.20811 0.8812 0.14279 0.0
C296 C 0.21524 0.8727 0.09626 0.0
C297 C 0.19705 0.85576 0.09421 0.0
C298 C 0.18421 0.85126 0.11665 0.0
C299 C 0.18978 0.86459 0.1404 0.0
C300 C 0.16548 0.83242 0.11632 0.0
C301 C 0.15807 0.82351 0.14242 0.0
C302 C 0.14064 0.80596 0.14298 0.0
C303 C 0.13061 0.79691 0.11732 0.0
C304 C 0.1376 0.8052 0.09114 0.0
C305 C 0.15497 0.82302 0.09051 0.0
H306 H 0.32387 0.09736 0.86863 0.0
H307 H 0.32182 0.14289 0.91671 0.0
H308 H 0.32348 0.14358 0.8243 0.0
H309 H 0.30924 0.16043 0.82845 0.0
H310 H 0.32163 0.21361 0.87181 0.0
H311 H 0.33553 0.17483 0.91412 0.0
C312 C 0.32346 0.11083 0.86925 0.0
C313 C 0.32296 0.11921 0.8436 0.0
C314 C 0.32331 0.1195 0.89561 0.0
C315 C 0.32264 0.13685 0.8962 0.0
C316 C 0.32264 0.14599 0.87067 0.0
C317 C 0.32297 0.13694 0.8444 0.0
C318 C 0.32206 0.16467 0.87144 0.0
C319 C 0.31483 0.16987 0.84747 0.0
C320 C 0.3149 0.18755 0.84747 0.0
C321 C 0.32105 0.19965 0.87216 0.0
C322 C 0.32809 0.19494 0.89642 0.0
C323 C 0.32906 0.17772 0.89577 0.0
H324 H 0.77208 0.10648 0.87442 0.0
H325 H 0.82115 0.14298 0.92953 0.0
H326 H 0.82394 0.14748 0.83751 0.0
H327 H 0.85362 0.16145 0.84296 0.0
H328 H 0.89759 0.21043 0.89043 0.0
H329 H 0.84561 0.1729 0.93154 0.0
C330 C 0.78712 0.11744 0.87715 0.0
C331 C 0.79761 0.12548 0.85295 0.0
C332 C 0.79545 0.1237 0.90475 0.0
C333 C 0.8148 0.13869 0.90813 0.0
C334 C 0.82572 0.14773 0.88402 0.0
C335 C 0.81656 0.14093 0.85656 0.0
C336 C 0.84634 0.1643 0.88699 0.0
C337 C 0.85823 0.16972 0.86304 0.0
C338 C 0.87614 0.18677 0.86396 0.0
C339 C 0.88359 0.19728 0.88975 0.0
C340 C 0.87289 0.19192 0.91425 0.0
C341 C 0.85408 0.17582 0.91283 0.0
H342 H 0.7724 0.66981 0.87407 0.0
H343 H 0.81497 0.66743 0.92783 0.0
H344 H 0.81649 0.66373 0.83551 0.0
H345 H 0.84683 0.67798 0.84251 0.0
H346 H 0.88467 0.66363 0.88637 0.0
H347 H 0.83422 0.65489 0.92751 0.0
C348 C 0.78482 0.66798 0.87633 0.0
C349 C 0.79404 0.6673 0.85191 0.0
C350 C 0.79191 0.66736 0.90369 0.0
C351 C 0.80916 0.66695 0.90658 0.0
C352 C 0.81874 0.66602 0.88213 0.0
C353 C 0.8104 0.66549 0.85489 0.0
C354 C 0.83743 0.66596 0.88443 0.0
C355 C 0.84985 0.67207 0.86119 0.0
C356 C 0.86629 0.67036 0.86135 0.0
C357 C 0.87143 0.66408 0.88577 0.0
C358 C 0.86019 0.65888 0.90974 0.0
C359 C 0.84307 0.65962 0.9091 0.0
H360 H 0.90363 0.67097 0.46205 0.0
H361 H 0.86279 0.67995 0.41452 0.0
H362 H 0.8503 0.65598 0.49875 0.0
H363 H 0.83454 0.67097 0.50292 0.0
H364 H 0.78709 0.66892 0.45754 0.0
H365 H 0.83108 0.66746 0.40997 0.0
C366 C 0.88995 0.6705 0.46073 0.0
C367 C 0.87784 0.66369 0.48363 0.0
C368 C 0.88434 0.67584 0.43561 0.0
C369 C 0.86651 0.67506 0.43372 0.0
C370 C 0.85403 0.66851 0.45684 0.0
C371 C 0.85973 0.66208 0.4812 0.0
C372 C 0.83547 0.66884 0.45642 0.0
C373 C 0.82735 0.66973 0.48255 0.0
C374 C 0.80986 0.66942 0.48301 0.0
C375 C 0.80073 0.66927 0.45731 0.0
C376 C 0.80852 0.669 0.43115 0.0
C377 C 0.82567 0.6684 0.43051 0.0
H378 H 0.32215 0.22949 0.46613 0.0
H379 H 0.33928 0.19389 0.42066 0.0
H380 H 0.33096 0.1886 0.51221 0.0
H381 H 0.34709 0.17348 0.51121 0.0
H382 H 0.34414 0.12504 0.46482 0.0
H383 H 0.3309 0.16352 0.42058 0.0
C384 C 0.32583 0.21806 0.46626 0.0
C385 C 0.32673 0.21008 0.49206 0.0
C386 C 0.32992 0.2119 0.44062 0.0
C387 C 0.33544 0.19773 0.44074 0.0
C388 C 0.33556 0.1885 0.46634 0.0
C389 C 0.33135 0.19518 0.49211 0.0
C390 C 0.33902 0.17144 0.4658 0.0
C391 C 0.34439 0.16545 0.49105 0.0
C392 C 0.34563 0.1484 0.49073 0.0
C393 C 0.34314 0.13818 0.46484 0.0
C394 C 0.33837 0.14389 0.43939 0.0
C395 C 0.33582 0.16015 0.44012 0.0
H396 H 0.89128 0.24002 0.45557 0.0
H397 H 0.85413 0.18378 0.41634 0.0
H398 H 0.84147 0.19955 0.49898 0.0
H399 H 0.82964 0.16811 0.50525 0.0
H400 H 0.78467 0.11617 0.46353 0.0
H401 H 0.82173 0.16383 0.41275 0.0
C402 C 0.87802 0.22614 0.45592 0.0
C403 C 0.86699 0.2213 0.48014 0.0
C404 C 0.87318 0.21284 0.43287 0.0
C405 C 0.857 0.19422 0.43376 0.0
C406 C 0.84509 0.18902 0.45744 0.0
C407 C 0.85026 0.2029 0.48053 0.0
C408 C 0.82806 0.16886 0.4588 0.0
C409 C 0.82207 0.16036 0.48557 0.0
C410 C 0.80645 0.14146 0.48729 0.0
C411 C 0.797 0.1307 0.46223 0.0
C412 C 0.80262 0.13851 0.43543 0.0
C413 C 0.81789 0.15774 0.43362 0.0
H414 H 0.99755 0.4315 0.21305 0.0
H415 H 0.0075 0.48335 0.25854 0.0
H416 H 0.98474 0.47089 0.17079 0.0
H417 H 0.99754 0.50186 0.16823 0.0
H418 H 0.99519 0.54784 0.21354 0.0
H419 H 0.99606 0.50295 0.26101 0.0
C420 C 0.99707 0.44493 0.21358 0.0
C421 C 0.99138 0.45048 0.1889 0.0
C422 C 0.0021 0.45637 0.23895 0.0
C423 C 0.00245 0.47426 0.23915 0.0
C424 C 0.99629 0.48012 0.2146 0.0
C425 C 0.99023 0.46756 0.18979 0.0
C426 C 0.9962 0.49913 0.21458 0.0
C427 C 0.99641 0.50796 0.18845 0.0
C428 C 0.99522 0.525 0.18797 0.0
C429 C 0.99515 0.53413 0.21373 0.0
C430 C 0.99607 0.5265 0.23985 0.0
C431 C 0.99609 0.50883 0.24042 0.0
H432 H 0.43531 0.4439 0.21167 0.0
H433 H 0.48753 0.48377 0.25726 0.0
H434 H 0.48207 0.48594 0.16498 0.0
H435 H 0.51301 0.50127 0.16677 0.0
H436 H 0.55794 0.55238 0.21001 0.0
H437 H 0.50849 0.51471 0.25592 0.0
C438 C 0.44986 0.45611 0.21136 0.0
C439 C 0.4578 0.46378 0.18535 0.0
C440 C 0.46047 0.46361 0.23707 0.0
C441 C 0.47952 0.47883 0.23702 0.0
C442 C 0.48785 0.48757 0.21119 0.0
C443 C 0.47665 0.47965 0.18529 0.0
C444 C 0.50779 0.50511 0.21141 0.0
C445 C 0.51842 0.51024 0.18624 0.0
C446 C 0.5361 0.52753 0.18563 0.0
C447 C 0.54409 0.53911 0.21054 0.0
C448 C 0.53439 0.5342 0.23592 0.0
C449 C 0.51614 0.51748 0.23636 0.0
H450 H 0.43196 0.9981 0.21464 0.0
H451 H 0.47055 0.98379 0.25794 0.0
H452 H 0.48322 0.0095 0.17464 0.0
H453 H 0.49629 0.99183 0.16761 0.0
H454 H 0.54307 0.98995 0.20878 0.0
H455 H 0.50228 0.99457 0.26031 0.0
C456 C 0.44506 0.99736 0.21507 0.0
C457 C 0.45685 0.0038 0.19195 0.0
C458 C 0.45019 0.99067 0.23913 0.0
C459 C 0.46715 0.98963 0.2395 0.0
C460 C 0.47919 0.9957 0.21572 0.0
C461 C 0.47404 0.00354 0.19252 0.0
C462 C 0.49675 0.99362 0.21428 0.0
C463 C 0.50377 0.99225 0.18732 0.0
C464 C 0.52057 0.99126 0.18521 0.0
C465 C 0.52986 0.99038 0.21015 0.0
C466 C 0.52307 0.99107 0.23705 0.0
C467 C 0.50682 0.99318 0.23926 0.0
H468 H 0.56616 0.99594 0.78891 0.0
H469 H 0.52654 0.00966 0.74776 0.0
H470 H 0.51412 0.98192 0.82938 0.0
H471 H 0.50202 0.00083 0.83722 0.0
H472 H 0.45382 0.001 0.79899 0.0
H473 H 0.49378 0.99613 0.74491 0.0
C474 C 0.55261 0.99575 0.7888 0.0
C475 C 0.54096 0.98872 0.81215 0.0
C476 C 0.54716 0.00271 0.76535 0.0
C477 C 0.53 0.00325 0.76543 0.0
C478 C 0.51782 0.99606 0.78878 0.0
C479 C 0.52327 0.98811 0.81152 0.0
C480 C 0.5001 0.9977 0.79069 0.0
C481 C 0.49382 0.9996 0.81786 0.0
C482 C 0.47679 0.99986 0.82057 0.0
C483 C 0.46642 0.99964 0.79623 0.0
C484 C 0.47252 0.99869 0.76878 0.0
C485 C 0.48934 0.99748 0.76606 0.0
H486 H 0.99936 0.56589 0.78994 0.0
H487 H 0.01046 0.52395 0.74872 0.0
H488 H 0.9978 0.52031 0.83871 0.0
H489 H 0.01634 0.50711 0.84066 0.0
H490 H 0.01034 0.45498 0.80188 0.0
H491 H 0.99661 0.49124 0.75196 0.0
C492 C 0.00091 0.55309 0.79108 0.0
C493 C 0.99847 0.54405 0.81705 0.0
C494 C 0.00512 0.54586 0.76649 0.0
C495 C 0.00694 0.52919 0.76789 0.0
C496 C 0.00464 0.51972 0.79402 0.0
C497 C 0.0003 0.52741 0.81853 0.0
C498 C 0.0067 0.50195 0.79579 0.0
C499 C 0.01271 0.49757 0.82183 0.0
C500 C 0.01401 0.48066 0.824 0.0
C501 C 0.01008 0.46844 0.7998 0.0
C502 C 0.00405 0.47226 0.7737 0.0
C503 C 0.0021 0.48887 0.77186 0.0
H504 H 0.56754 0.56409 0.79998 0.0
H505 H 0.51659 0.52605 0.74965 0.0
H506 H 0.51962 0.51973 0.84135 0.0
H507 H 0.48895 0.50599 0.8384 0.0
H508 H 0.44394 0.45662 0.79231 0.0
H509 H 0.4943 0.49508 0.74849 0.0
C510 C 0.55301 0.55176 0.79853 0.0
C511 C 0.54436 0.54275 0.82343 0.0
C512 C 0.5433 0.54541 0.7719 0.0
C513 C 0.52409 0.53022 0.77033 0.0
C514 C 0.5149 0.52047 0.79522 0.0
C515 C 0.52551 0.527 0.8218 0.0
C516 C 0.49467 0.50335 0.79357 0.0
C517 C 0.48366 0.49767 0.81836 0.0
C518 C 0.46579 0.48058 0.81799 0.0
C519 C 0.45787 0.46984 0.79244 0.0
C520 C 0.46786 0.47536 0.76731 0.0
C521 C 0.4864 0.49183 0.76785 0.0
H522 H 0.66855 0.77003 0.5487 0.0
H523 H 0.6564 0.81049 0.59165 0.0
H524 H 0.66873 0.81564 0.50142 0.0
H525 H 0.65172 0.83071 0.50117 0.0
H526 H 0.65991 0.88248 0.54462 0.0
H527 H 0.67057 0.84271 0.5907 0.0
C528 C 0.66663 0.78262 0.54788 0.0
C529 C 0.66856 0.79176 0.52209 0.0
C530 C 0.66254 0.78954 0.57283 0.0
C531 C 0.65991 0.80568 0.57208 0.0
C532 C 0.66213 0.81557 0.5464 0.0
C533 C 0.66636 0.80825 0.52132 0.0
C534 C 0.66087 0.83385 0.54614 0.0
C535 C 0.65557 0.83962 0.52072 0.0
C536 C 0.65577 0.85739 0.52012 0.0
C537 C 0.65984 0.86877 0.54529 0.0
C538 C 0.66466 0.8633 0.57093 0.0
C539 C 0.66571 0.84615 0.57112 0.0
H540 H 0.11026 0.76952 0.55181 0.0
H541 H 0.15827 0.8196 0.59192 0.0
H542 H 0.15686 0.80645 0.50077 0.0
H543 H 0.17671 0.83645 0.49768 0.0
H544 H 0.22937 0.88169 0.53543 0.0
H545 H 0.1889 0.83866 0.58914 0.0
C546 C 0.12447 0.78215 0.5502 0.0
C547 C 0.13226 0.78743 0.52345 0.0
C548 C 0.13403 0.79349 0.57476 0.0
C549 C 0.1519 0.81049 0.57277 0.0
C550 C 0.16091 0.81568 0.54617 0.0
C551 C 0.15084 0.80346 0.52163 0.0
C552 C 0.18012 0.83409 0.54363 0.0
C553 C 0.18597 0.84242 0.51663 0.0
C554 C 0.20394 0.859 0.51354 0.0
C555 C 0.21587 0.86825 0.53764 0.0
C556 C 0.21017 0.86132 0.56482 0.0
C557 C 0.19261 0.84399 0.56788 0.0
H558 H 0.10452 0.3367 0.54455 0.0
H559 H 0.14983 0.34287 0.60235 0.0
H560 H 0.15263 0.3358 0.5112 0.0
H561 H 0.18288 0.35584 0.51889 0.0
H562 H 0.22367 0.34564 0.56232 0.0
H563 H 0.17136 0.33178 0.60327 0.0
C564 C 0.11823 0.33759 0.54838 0.0
C565 C 0.12856 0.33755 0.52491 0.0
C566 C 0.12546 0.33896 0.57652 0.0
C567 C 0.14373 0.34075 0.58084 0.0
C568 C 0.15423 0.3403 0.55732 0.0
C569 C 0.14577 0.3376 0.52965 0.0
C570 C 0.17409 0.34309 0.56059 0.0
C571 C 0.18665 0.35057 0.53765 0.0
C572 C 0.20389 0.35049 0.53782 0.0
C573 C 0.20987 0.34493 0.56214 0.0
C574 C 0.19849 0.33857 0.58605 0.0
C575 C 0.18047 0.33752 0.58525 0.0
H576 H 0.0093 0.39081 0.06498 0.0
H577 H 0.95243 0.37421 0.03038 0.0
H578 H 0.94803 0.39189 0.0704 0.0
H579 H 0.9967 0.38746 0.14108 0.0
H580 H 0.01951 0.40822 0.15229 0.0
H581 H 0.01784 0.39307 0.12181 0.0
H582 H 0.03312 0.42349 0.09084 0.0
H583 H 0.0346 0.43868 0.1211 0.0
H584 H 0.02218 0.43845 0.08844 0.0
H585 H 0.95058 0.41375 0.11134 0.0
H586 H 0.95894 0.43574 0.15428 0.0
H587 H 0.01345 0.43755 0.16375 0.0
C588 C 0.99578 0.39055 0.06618 0.0
C589 C 0.98129 0.38116 0.04435 0.0
C590 C 0.96386 0.38137 0.04663 0.0
C591 C 0.96117 0.3914 0.06932 0.0
C592 C 0.97592 0.40104 0.0899 0.0
C593 C 0.99277 0.40047 0.08891 0.0
C594 C 0.00643 0.41248 0.11366 0.0
C595 C 0.01035 0.39953 0.13338 0.0
C596 C 0.02519 0.42927 0.10285 0.0
C597 C 0.99472 0.42007 0.12825 0.0
C598 C 0.97719 0.41335 0.11411 0.0
C599 C 0.96417 0.41895 0.12285 0.0
C600 C 0.96907 0.43154 0.14706 0.0
C601 C 0.98675 0.43821 0.16229 0.0
C602 C 0.99973 0.43245 0.15262 0.0
H603 H 0.5998 0.61653 0.09374 0.0
H604 H 0.62745 0.58503 0.06333 0.0
H605 H 0.60248 0.55516 0.08488 0.0
H606 H 0.58903 0.5963 0.15997 0.0
H607 H 0.56639 0.59557 0.16182 0.0
H608 H 0.58494 0.61343 0.1408 0.0
H609 H 0.56153 0.60118 0.09625 0.0
H610 H 0.54291 0.58311 0.1172 0.0
H611 H 0.54977 0.57579 0.08491 0.0
H612 H 0.57644 0.52978 0.11455 0.0
H613 H 0.55313 0.51227 0.1519 0.0
H614 H 0.54256 0.56044 0.16122 0.0
C615 C 0.60039 0.60327 0.09101 0.0
C616 C 0.61546 0.60306 0.07667 0.0
C617 C 0.61598 0.5855 0.07419 0.0
C618 C 0.60178 0.56842 0.08618 0.0
C619 C 0.58714 0.56916 0.10035 0.0
C620 C 0.58639 0.58618 0.10278 0.0
C621 C 0.57033 0.58379 0.12128 0.0
C622 C 0.57815 0.59811 0.14751 0.0
C623 C 0.55524 0.5861 0.10386 0.0
C624 C 0.56253 0.56298 0.12971 0.0
C625 C 0.57215 0.55459 0.11714 0.0
C626 C 0.56853 0.53603 0.12404 0.0
C627 C 0.55524 0.52614 0.14507 0.0
C628 C 0.54599 0.535 0.15887 0.0
C629 C 0.54922 0.55328 0.15038 0.0
H630 H 0.39176 0.99187 0.05393 0.0
H631 H 0.41623 0.05461 0.05947 0.0
H632 H 0.43506 0.05662 0.10304 0.0
H633 H 0.3897 0.98409 0.13171 0.0
H634 H 0.39644 0.96566 0.12813 0.0
H635 H 0.38329 0.96903 0.09933 0.0
H636 H 0.40984 0.97371 0.06489 0.0
H637 H 0.4233 0.97085 0.0937 0.0
H638 H 0.43429 0.99248 0.07317 0.0
H639 H 0.45319 0.0523 0.14337 0.0
H640 H 0.46733 0.04121 0.18098 0.0
H641 H 0.43168 0.98154 0.14892 0.0
C642 C 0.4006 0.00591 0.06491 0.0
C643 C 0.40244 0.02307 0.05365 0.0
C644 C 0.4146 0.0413 0.06797 0.0
C645 C 0.42538 0.0426 0.09263 0.0
C646 C 0.4239 0.02553 0.10256 0.0
C647 C 0.41167 0.0075 0.08942 0.0
C648 C 0.41361 0.99158 0.10361 0.0
C649 C 0.39463 0.97672 0.11647 0.0
C650 C 0.42068 0.98157 0.08258 0.0
C651 C 0.42882 0.0035 0.12667 0.0
C652 C 0.43463 0.02308 0.12561 0.0
C653 C 0.44875 0.03701 0.1445 0.0
C654 C 0.45681 0.03068 0.16553 0.0
C655 C 0.45071 0.01068 0.16725 0.0
C656 C 0.43668 0.99696 0.14754 0.0
H657 H 0.39007 0.97298 0.91745 0.0
H658 H 0.42442 0.03013 0.95901 0.0
H659 H 0.45327 0.03358 0.93638 0.0
H660 H 0.42805 0.95865 0.91691 0.0
H661 H 0.42001 0.94715 0.88174 0.0
H662 H 0.40306 0.94742 0.9059 0.0
H663 H 0.39235 0.96361 0.86774 0.0
H664 H 0.40915 0.9633 0.84356 0.0
H665 H 0.41011 0.98597 0.85272 0.0
H666 H 0.47719 0.03274 0.90422 0.0
H667 H 0.49331 0.02878 0.86225 0.0
H668 H 0.44306 0.97278 0.84074 0.0
C669 C 0.40381 0.98593 0.92245 0.0
C670 C 0.40514 0.00128 0.93989 0.0
C671 C 0.42314 0.0183 0.94542 0.0
C672 C 0.43963 0.02026 0.93297 0.0
C673 C 0.43778 0.00507 0.9151 0.0
C674 C 0.42028 0.98823 0.9098 0.0
C675 C 0.42145 0.97535 0.88659 0.0
C676 C 0.41794 0.956 0.89851 0.0
C677 C 0.40745 0.97188 0.86117 0.0
C678 C 0.44209 0.98796 0.87876 0.0
C679 C 0.45147 0.00479 0.89596 0.0
C680 C 0.47015 0.01944 0.891 0.0
C681 C 0.47921 0.0171 0.86725 0.0
C682 C 0.46937 1.00042 0.84875 0.0
C683 C 0.45089 0.98547 0.85506 0.0
H684 H 0.03781 0.41172 0.91231 0.0
H685 H 0.98931 0.40063 0.9628 0.0
H686 H 0.98855 0.42853 0.94165 0.0
H687 H 0.0606 0.46569 0.91015 0.0
H688 H 0.0665 0.46587 0.87322 0.0
H689 H 0.06556 0.44742 0.89601 0.0
H690 H 0.04094 0.42034 0.86044 0.0
H691 H 0.04206 0.43869 0.83749 0.0
H692 H 0.01928 0.42034 0.84999 0.0
H693 H 0.99124 0.4556 0.91216 0.0
H694 H 0.99363 0.47596 0.87157 0.0
H695 H 0.03915 0.46831 0.83809 0.0
C696 C 0.02736 0.41554 0.9193 0.0
C697 C 0.01377 0.40434 0.93936 0.0
C698 C 0.99986 0.40918 0.94749 0.0
C699 C 0.99946 0.4251 0.93581 0.0
C700 C 0.01296 0.43584 0.91579 0.0
C701 C 0.02647 0.43108 0.90726 0.0
C702 C 0.03746 0.44304 0.88244 0.0
C703 C 0.0588 0.45629 0.89098 0.0
C704 C 0.03476 0.42982 0.85604 0.0
C705 C 0.02765 0.45485 0.87781 0.0
C706 C 0.01396 0.45092 0.89781 0.0
C707 C 0.0021 0.45902 0.89663 0.0
C708 C 0.00366 0.47071 0.87365 0.0
C709 C 0.0167 0.47382 0.85196 0.0
C710 C 0.02931 0.46639 0.85472 0.0
H711 H 0.5791 0.61052 0.96533 0.0
H712 H 0.63399 0.61335 0.95722 0.0
H713 H 0.62049 0.58957 0.91638 0.0
H714 H 0.54907 0.5594 0.94761 0.0
H715 H 0.53144 0.56223 0.92722 0.0
H716 H 0.54516 0.57938 0.95618 0.0
H717 H 0.55673 0.60801 0.92194 0.0
H718 H 0.54272 0.59099 0.89306 0.0
H719 H 0.56804 0.60731 0.88953 0.0
H720 H 0.60122 0.56539 0.87692 0.0
H721 H 0.57859 0.54567 0.83705 0.0
H722 H 0.53621 0.55855 0.86996 0.0
C723 C 0.58833 0.60624 0.95489 0.0
C724 C 0.60763 0.61382 0.96461 0.0
C725 C 0.61921 0.60787 0.95017 0.0
C726 C 0.61162 0.59421 0.92709 0.0
C727 C 0.59245 0.58669 0.91856 0.0
C728 C 0.58103 0.59271 0.93166 0.0
C729 C 0.56112 0.58298 0.91741 0.0
C730 C 0.54579 0.57024 0.93836 0.0
C731 C 0.55691 0.59823 0.90472 0.0
C732 C 0.56317 0.57059 0.89415 0.0
C733 C 0.58131 0.5728 0.89549 0.0
C734 C 0.58695 0.56347 0.87572 0.0
C735 C 0.57399 0.55221 0.8533 0.0
C736 C 0.55564 0.55042 0.85077 0.0
C737 C 0.54998 0.55931 0.87188 0.0
H738 H 0.02764 0.6085 0.96128 0.0
H739 H 0.97847 0.61603 0.94557 0.0
H740 H 0.96905 0.59372 0.90285 0.0
H741 H 0.03887 0.60696 0.88814 0.0
H742 H 0.04582 0.58889 0.89352 0.0
H743 H 0.04845 0.60543 0.92255 0.0
H744 H 0.02799 0.57601 0.95377 0.0
H745 H 0.02502 0.55936 0.92465 0.0
H746 H 0.00426 0.55768 0.94101 0.0
H747 H 0.96547 0.571 0.86127 0.0
H748 H 0.96896 0.55114 0.82289 0.0
H749 H 0.01981 0.55776 0.86713 0.0
C750 C 0.01492 0.60562 0.94886 0.0
C751 C 0.00383 0.61413 0.95683 0.0
C752 C 0.98726 0.60979 0.9399 0.0
C753 C 0.98174 0.59704 0.91568 0.0
C754 C 0.99286 0.58868 0.90882 0.0
C755 C 0.00916 0.59289 0.92486 0.0
C756 C 0.01881 0.58224 0.91286 0.0
C757 C 0.03919 0.59674 0.90372 0.0
C758 C 0.01902 0.56798 0.93436 0.0
C759 C 0.00551 0.57146 0.88728 0.0
C760 C 0.99058 0.57531 0.88537 0.0
C761 C 0.97699 0.56776 0.86273 0.0
C762 C 0.97903 0.55645 0.84113 0.0
C763 C 0.99447 0.55273 0.84241 0.0
C764 C 0.00761 0.56 0.86609 0.0
H765 H 0.4084 0.39005 0.91167 0.0
H766 H 0.37838 0.41842 0.94488 0.0
H767 H 0.40131 0.44885 0.92216 0.0
H768 H 0.45736 0.433 0.91676 0.0
H769 H 0.46372 0.42615 0.88358 0.0
H770 H 0.44664 0.40763 0.90581 0.0
H771 H 0.42172 0.39372 0.86312 0.0
H772 H 0.43871 0.41208 0.84082 0.0
H773 H 0.41546 0.40966 0.84492 0.0
H774 H 0.42549 0.47505 0.89133 0.0
H775 H 0.44748 0.49367 0.85307 0.0
H776 H 0.46111 0.4478 0.84064 0.0
C777 C 0.40691 0.40279 0.91477 0.0
C778 C 0.39174 0.40195 0.93021 0.0
C779 C 0.38998 0.41879 0.93318 0.0
C780 C 0.40299 0.43616 0.92051 0.0
C781 C 0.41767 0.43643 0.90505 0.0
C782 C 0.41965 0.42013 0.90215 0.0
C783 C 0.43533 0.42344 0.88215 0.0
C784 C 0.45174 0.42251 0.89803 0.0
C785 C 0.42732 0.40887 0.85623 0.0
C786 C 0.44152 0.44393 0.87357 0.0
C787 C 0.43145 0.45138 0.88729 0.0
C788 C 0.43373 0.46953 0.88087 0.0
C789 C 0.44625 0.48003 0.8593 0.0
C790 C 0.45603 0.47216 0.84449 0.0
C791 C 0.454 0.4542 0.85223 0.0
H792 H 0.61523 0.0053 0.94044 0.0
H793 H 0.57323 0.9482 0.96884 0.0
H794 H 0.55225 0.94358 0.9269 0.0
H795 H 0.58231 0.0189 0.91607 0.0
H796 H 0.59531 0.03125 0.88526 0.0
H797 H 0.60801 0.02962 0.91624 0.0
H798 H 0.6228 0.01352 0.88503 0.0
H799 H 0.61029 0.01528 0.85385 0.0
H800 H 0.60725 0.992 0.86314 0.0
H801 H 0.53432 0.94624 0.88444 0.0
H802 H 0.52205 0.95524 0.84185 0.0
H803 H 0.57572 0.01003 0.8404 0.0
C804 C 0.60182 0.99167 0.93754 0.0
C805 C 0.59594 0.97716 0.95807 0.0
C806 C 0.57811 0.95961 0.95355 0.0
C807 C 0.56604 0.9568 0.92975 0.0
C808 C 0.57199 0.97159 0.91041 0.0
C809 C 0.58955 0.98857 0.91378 0.0
C810 C 0.59217 0.00241 0.8903 0.0
C811 C 0.59459 0.02168 0.90272 0.0
C812 C 0.60914 0.00601 0.87199 0.0
C813 C 0.57322 0.99068 0.87359 0.0
C814 C 0.56176 0.97294 0.88555 0.0
C815 C 0.54325 0.95999 0.87462 0.0
C816 C 0.53635 0.96523 0.8506 0.0
C817 C 0.548 0.98319 0.83777 0.0
C818 C 0.56664 0.99603 0.84952 0.0
H819 H 0.59589 0.98277 0.09126 0.0
H820 H 0.60386 0.03401 0.04826 0.0
H821 H 0.57558 0.03148 0.07176 0.0
H822 H 0.54277 0.95652 0.0903 0.0
H823 H 0.54217 0.94742 0.12541 0.0
H824 H 0.56141 0.9518 0.10234 0.0
H825 H 0.58632 0.97449 0.14176 0.0
H826 H 0.56721 0.97008 0.16491 0.0
H827 H 0.58463 0.99471 0.15669 0.0
H828 H 0.54843 0.02518 0.10366 0.0
H829 H 0.52665 0.0173 0.14378 0.0
H830 H 0.53627 0.96991 0.16511 0.0
C831 C 0.59145 0.99321 0.08624 0.0
C832 C 0.60196 0.00848 0.06772 0.0
C833 C 0.59597 0.02215 0.06232 0.0
C834 C 0.57985 0.02074 0.0754 0.0
C835 C 0.56986 0.00555 0.09373 0.0
C836 C 0.57549 0.99205 0.09917 0.0
C837 C 0.56354 0.97823 0.12172 0.0
C838 C 0.55177 0.95725 0.10918 0.0
C839 C 0.57618 0.97947 0.1478 0.0
C840 C 0.55075 0.98647 0.12891 0.0
C841 C 0.55432 0.00199 0.11218 0.0
C842 C 0.54527 0.01285 0.11654 0.0
C843 C 0.53282 0.00819 0.13925 0.0
C844 C 0.52973 0.99296 0.15746 0.0
C845 C 0.53829 0.98157 0.15144 0.0
H846 H 0.97095 0.59335 0.09785 0.0
H847 H 0.02145 0.60777 0.05011 0.0
H848 H 0.02414 0.58144 0.07277 0.0
H849 H 0.98834 0.58582 0.16169 0.0
H850 H 0.96575 0.566 0.17234 0.0
H851 H 0.96612 0.58389 0.14911 0.0
H852 H 0.94436 0.55648 0.1117 0.0
H853 H 0.944 0.53848 0.13487 0.0
H854 H 0.95168 0.53973 0.09875 0.0
H855 H 0.02325 0.55575 0.10427 0.0
H856 H 0.02009 0.5346 0.14433 0.0
H857 H 0.97044 0.53718 0.17178 0.0
C858 C 0.98228 0.59062 0.09171 0.0
C859 C 0.99605 0.60262 0.07238 0.0
C860 C 0.01095 0.59896 0.06525 0.0
C861 C 0.01244 0.58385 0.07774 0.0
C862 C 0.9989 0.57253 0.09731 0.0
C863 C 0.98411 0.57576 0.10429 0.0
C864 C 0.97269 0.563 0.12816 0.0
C865 C 0.97327 0.57542 0.15436 0.0
C866 C 0.95195 0.54856 0.11774 0.0
C867 C 0.98373 0.55259 0.13415 0.0
C868 C 0.99856 0.55794 0.11575 0.0
C869 C 0.0115 0.5512 0.11851 0.0
C870 C 0.00957 0.53913 0.14119 0.0
C871 C 0.99498 0.53423 0.16094 0.0
C872 C 0.98163 0.54062 0.15679 0.0
H873 H 0.42778 0.39658 0.04279 0.0
H874 H 0.37017 0.38688 0.0517 0.0
H875 H 0.38161 0.40992 0.09356 0.0
H876 H 0.43958 0.39988 0.11844 0.0
H877 H 0.46426 0.41844 0.1148 0.0
H878 H 0.45137 0.40112 0.08568 0.0
H879 H 0.45966 0.42964 0.05223 0.0
H880 H 0.47225 0.44704 0.08142 0.0
H881 H 0.45304 0.44758 0.06172 0.0
H882 H 0.39936 0.4345 0.13374 0.0
H883 H 0.42136 0.45591 0.17307 0.0
H884 H 0.4674 0.44955 0.13843 0.0
C885 C 0.41749 0.39915 0.05363 0.0
C886 C 0.39803 0.38986 0.04383 0.0
C887 C 0.3851 0.39368 0.05878 0.0
C888 C 0.3915 0.40689 0.08247 0.0
C889 C 0.41085 0.41613 0.09104 0.0
C890 C 0.42361 0.41222 0.07735 0.0
C891 C 0.44356 0.42373 0.09135 0.0
C892 C 0.45007 0.40997 0.10328 0.0
C893 C 0.45797 0.43783 0.07043 0.0
C894 C 0.44003 0.43469 0.11515 0.0
C895 C 0.42109 0.43022 0.11437 0.0
C896 C 0.41421 0.43811 0.13455 0.0
C897 C 0.42681 0.4503 0.15672 0.0
C898 C 0.44607 0.45444 0.15865 0.0
C899 C 0.45286 0.44692 0.13714 0.0
H900 H 0.64397 0.72946 0.37562 0.0
H901 H 0.69354 0.72317 0.39467 0.0
H902 H 0.70127 0.74475 0.4378 0.0
H903 H 0.66538 0.77981 0.39771 0.0
H904 H 0.64397 0.7772 0.41305 0.0
H905 H 0.64213 0.76115 0.38374 0.0
H906 H 0.6216 0.73106 0.41373 0.0
H907 H 0.62308 0.747 0.44291 0.0
H908 H 0.63063 0.7294 0.44852 0.0
H909 H 0.70372 0.76715 0.47862 0.0
H910 H 0.69898 0.78622 0.51675 0.0
H911 H 0.648 0.77817 0.471 0.0
C912 C 0.65641 0.73249 0.38889 0.0
C913 C 0.66816 0.72457 0.38164 0.0
C914 C 0.68426 0.72894 0.39975 0.0
C915 C 0.68885 0.74131 0.4242 0.0
C916 C 0.6772 0.74918 0.43028 0.0
C917 C 0.66119 0.74476 0.41333 0.0
C918 C 0.65076 0.75475 0.42496 0.0
C919 C 0.65056 0.76908 0.40359 0.0
C920 C 0.63031 0.73965 0.43302 0.0
C921 C 0.66337 0.76545 0.45124 0.0
C922 C 0.67863 0.76214 0.45377 0.0
C923 C 0.69189 0.7699 0.47678 0.0
C924 C 0.68914 0.78077 0.49824 0.0
C925 C 0.67326 0.7838 0.49657 0.0
C926 C 0.66048 0.77642 0.47243 0.0
H927 H 0.28512 0.92743 0.41289 0.0
H928 H 0.24563 0.9451 0.38033 0.0
H929 H 0.21907 0.91774 0.40396 0.0
H930 H 0.25053 0.87355 0.41099 0.0
H931 H 0.26051 0.87074 0.44418 0.0
H932 H 0.27562 0.88939 0.42037 0.0
H933 H 0.28573 0.91564 0.4614 0.0
H934 H 0.27078 0.89711 0.48524 0.0
H935 H 0.26747 0.91768 0.48005 0.0
H936 H 0.19782 0.89123 0.43586 0.0
H937 H 0.18441 0.86967 0.47658 0.0
H938 H 0.23778 0.86959 0.48896 0.0
C939 C 0.27076 0.92517 0.41014 0.0
C940 C 0.26736 0.93833 0.39494 0.0
C941 C 0.24855 0.93531 0.39228 0.0
C942 C 0.23333 0.91965 0.40528 0.0
C943 C 0.23721 0.90716 0.42081 0.0
C944 C 0.25549 0.90978 0.42334 0.0
C945 C 0.25641 0.896 0.44425 0.0
C946 C 0.26104 0.88156 0.42903 0.0
C947 C 0.27095 0.90728 0.4692 0.0
C948 C 0.23602 0.88582 0.454 0.0
C949 C 0.225 0.89205 0.43969 0.0
C950 C 0.20617 0.88592 0.44682 0.0
C951 C 0.19863 0.87364 0.46986 0.0
C952 C 0.21007 0.86794 0.4856 0.0
C953 C 0.22872 0.8736 0.47693 0.0
H954 H 0.056 0.32559 0.39529 0.0
H955 H 0.10641 0.36798 0.35216 0.0
H956 H 0.12697 0.36917 0.39243 0.0
H957 H 0.07297 0.34707 0.46642 0.0
H958 H 0.0629 0.32403 0.48347 0.0
H959 H 0.05175 0.3261 0.45097 0.0
H960 H 0.05453 0.29783 0.42724 0.0
H961 H 0.06577 0.29574 0.45963 0.0
H962 H 0.07766 0.29953 0.42629 0.0
H963 H 0.14229 0.36633 0.43653 0.0
H964 H 0.15165 0.36063 0.48402 0.0
H965 H 0.09189 0.31968 0.49959 0.0
C966 C 0.07135 0.33514 0.39436 0.0
C967 C 0.07951 0.34666 0.37043 0.0
C968 C 0.09971 0.35899 0.37013 0.0
C969 C 0.11158 0.35976 0.39291 0.0
C970 C 0.10313 0.34816 0.41596 0.0
C971 C 0.08352 0.33616 0.41707 0.0
C972 C 0.07831 0.3255 0.44486 0.0
C973 C 0.06574 0.33101 0.46247 0.0
C974 C 0.06849 0.30333 0.43915 0.0
C975 C 0.09809 0.33352 0.45906 0.0
C976 C 0.11213 0.34647 0.44183 0.0
C977 C 0.13147 0.3561 0.4502 0.0
C978 C 0.13664 0.35261 0.47715 0.0
C979 C 0.12256 0.33953 0.4955 0.0
C980 C 0.10301 0.32977 0.48613 0.0
H981 H 0.07282 0.34272 0.24554 0.0
H982 H 0.04749 0.28379 0.2751 0.0
H983 H 0.0717 0.27942 0.24958 0.0
H984 H 0.08242 0.33354 0.17763 0.0
H985 H 0.10476 0.35617 0.17595 0.0
H986 H 0.08644 0.35473 0.19853 0.0
H987 H 0.11066 0.36689 0.24213 0.0
H988 H 0.12904 0.36816 0.21961 0.0
H989 H 0.12301 0.35394 0.25114 0.0
H990 H 0.09671 0.28068 0.21601 0.0
H991 H 0.1192 0.28736 0.17676 0.0
H992 H 0.12911 0.34616 0.17372 0.0
C993 C 0.07258 0.32906 0.24738 0.0
C994 C 0.05841 0.31372 0.26262 0.0
C995 C 0.0583 0.29581 0.2636 0.0
C996 C 0.07206 0.29324 0.24937 0.0
C997 C 0.08597 0.30882 0.23472 0.0
C998 C 0.08633 0.32641 0.23384 0.0
C999 C 0.10186 0.34056 0.21531 0.0
C1000 C 0.09336 0.34658 0.19039 0.0
C1001 C 0.11704 0.35844 0.23312 0.0
C1002 C 0.10981 0.32799 0.20496 0.0
C1003 C 0.10066 0.30976 0.21647 0.0
C1004 C 0.1043 0.29505 0.2074 0.0
C1005 C 0.11711 0.29893 0.18529 0.0
C1006 C 0.12591 0.31731 0.17279 0.0
C1007 C 0.12277 0.33214 0.18352 0.0
H1008 H 0.65914 0.72505 0.25022 0.0
H1009 H 0.71802 0.75696 0.28363 0.0
H1010 H 0.72223 0.78668 0.26096 0.0
H1011 H 0.66788 0.74511 0.18366 0.0
H1012 H 0.64583 0.74561 0.18027 0.0
H1013 H 0.64705 0.72788 0.20202 0.0
H1014 H 0.63581 0.73998 0.24538 0.0
H1015 H 0.63468 0.75789 0.22371 0.0
H1016 H 0.64896 0.76539 0.25668 0.0
H1017 H 0.72069 0.81205 0.23039 0.0
H1018 H 0.71402 0.82956 0.19255 0.0
H1019 H 0.65614 0.78078 0.18075 0.0
C1020 C 0.6728 0.73837 0.25339 0.0
C1021 C 0.68819 0.73874 0.26893 0.0
C1022 C 0.706 0.75637 0.27187 0.0
C1023 C 0.70848 0.77335 0.25924 0.0
C1024 C 0.69299 0.77244 0.2439 0.0
C1025 C 0.6755 0.75534 0.24098 0.0
C1026 C 0.66158 0.75753 0.22145 0.0
C1027 C 0.65523 0.7432 0.19531 0.0
C1028 C 0.64423 0.75506 0.23779 0.0
C1029 C 0.6741 0.77836 0.21309 0.0
C1030 C 0.6921 0.78691 0.22652 0.0
C1031 C 0.70654 0.80562 0.22016 0.0
C1032 C 0.70264 0.81551 0.19882 0.0
C1033 C 0.68455 0.8065 0.1841 0.0
C1034 C 0.67 0.78803 0.19207 0.0
H1035 H 0.27926 0.94821 0.27174 0.0
H1036 H 0.23729 0.9656 0.2902 0.0
H1037 H 0.21733 0.94587 0.2485 0.0
H1038 H 0.27336 0.94715 0.19261 0.0
H1039 H 0.27617 0.92612 0.18787 0.0
H1040 H 0.28815 0.94309 0.21776 0.0
H1041 H 0.27218 0.91474 0.2524 0.0
H1042 H 0.25993 0.89774 0.2227 0.0
H1043 H 0.24642 0.89971 0.25141 0.0
H1044 H 0.20022 0.92183 0.20806 0.0
H1045 H 0.18875 0.89741 0.16772 0.0
H1046 H 0.2417 0.89586 0.1746 0.0
C1047 C 0.26613 0.94826 0.26655 0.0
C1048 C 0.25986 0.95843 0.28432 0.0
C1049 C 0.24239 0.95786 0.27703 0.0
C1050 C 0.23091 0.94669 0.25336 0.0
C1051 C 0.2371 0.93625 0.23695 0.0
C1052 C 0.25443 0.93715 0.24286 0.0
C1053 C 0.25729 0.9239 0.22222 0.0
C1054 C 0.27478 0.93578 0.20404 0.0
C1055 C 0.25905 0.90809 0.23814 0.0
C1056 C 0.23874 0.91522 0.20429 0.0
C1057 C 0.22728 0.92252 0.21318 0.0
C1058 C 0.20914 0.91615 0.20063 0.0
C1059 C 0.20266 0.90218 0.17796 0.0
C1060 C 0.21436 0.89486 0.16807 0.0
C1061 C 0.23256 0.90141 0.18158 0.0
H1062 H 0.69433 0.94256 0.30279 0.0
H1063 H 0.64592 0.95002 0.27996 0.0
H1064 H 0.63958 0.92936 0.23617 0.0
H1065 H 0.71046 0.94408 0.23152 0.0
H1066 H 0.71738 0.92605 0.23745 0.0
H1067 H 0.71794 0.94137 0.26687 0.0
H1068 H 0.6958 0.91062 0.29458 0.0
H1069 H 0.69493 0.89519 0.26504 0.0
H1070 H 0.673 0.89252 0.27844 0.0
H1071 H 0.63861 0.90805 0.19481 0.0
H1072 H 0.64454 0.88964 0.15701 0.0
H1073 H 0.69322 0.8956 0.20706 0.0
C1074 C 0.68242 0.93998 0.28858 0.0
C1075 C 0.67063 0.94799 0.29492 0.0
C1076 C 0.65522 0.94416 0.27561 0.0
C1077 C 0.65143 0.93233 0.25075 0.0
C1078 C 0.66314 0.92441 0.24551 0.0
C1079 C 0.67842 0.9282 0.26375 0.0
C1080 C 0.68907 0.91825 0.25291 0.0
C1081 C 0.70995 0.93334 0.24682 0.0
C1082 C 0.68814 0.90325 0.27401 0.0
C1083 C 0.67747 0.90832 0.22555 0.0
C1084 C 0.6625 0.91198 0.2218 0.0
C1085 C 0.6502 0.90501 0.19762 0.0
C1086 C 0.65362 0.89451 0.17636 0.0
C1087 C 0.66917 0.89105 0.17939 0.0
C1088 C 0.68099 0.8977 0.20457 0.0
H1089 H 0.07442 0.71638 0.23569 0.0
H1090 H 0.06357 0.75604 0.2863 0.0
H1091 H 0.0895 0.78401 0.26245 0.0
H1092 H 0.12706 0.74858 0.22998 0.0
H1093 H 0.1263 0.7407 0.19331 0.0
H1094 H 0.10931 0.7242 0.21779 0.0
H1095 H 0.08125 0.71897 0.18348 0.0
H1096 H 0.09812 0.73537 0.15897 0.0
H1097 H 0.07982 0.73982 0.17233 0.0
H1098 H 0.11447 0.80728 0.23002 0.0
H1099 H 0.13406 0.82352 0.18863 0.0
H1100 H 0.12731 0.76842 0.15779 0.0
C1101 C 0.07788 0.731 0.24227 0.0
C1102 C 0.06723 0.73415 0.26302 0.0
C1103 C 0.07169 0.7534 0.2705 0.0
C1104 C 0.08646 0.76935 0.25722 0.0
C1105 C 0.0965 0.76575 0.2364 0.0
C1106 C 0.0923 0.74702 0.22882 0.0
C1107 C 0.10344 0.74683 0.20339 0.0
C1108 C 0.11736 0.73965 0.21162 0.0
C1109 C 0.08985 0.73453 0.17806 0.0
C1110 C 0.11414 0.76829 0.1973 0.0
C1111 C 0.11033 0.77905 0.21698 0.0
C1112 C 0.11776 0.79905 0.21471 0.0
C1113 C 0.12892 0.80817 0.19126 0.0
C1114 C 0.13219 0.79718 0.17025 0.0
C1115 C 0.12509 0.77713 0.17375 0.0
H1116 H 0.24304 0.31504 0.29279 0.0
H1117 H 0.30089 0.3632 0.28322 0.0
H1118 H 0.28999 0.37216 0.23941 0.0
H1119 H 0.23207 0.30169 0.21805 0.0
H1120 H 0.20738 0.29551 0.22014 0.0
H1121 H 0.21979 0.29316 0.25089 0.0
H1122 H 0.21132 0.31553 0.28077 0.0
H1123 H 0.19913 0.31818 0.24996 0.0
H1124 H 0.21816 0.33948 0.26869 0.0
H1125 H 0.2729 0.37578 0.19647 0.0
H1126 H 0.2514 0.37221 0.1554 0.0
H1127 H 0.20467 0.32186 0.19294 0.0
C1128 C 0.25348 0.32745 0.28149 0.0
C1129 C 0.27287 0.33841 0.29159 0.0
C1130 C 0.28599 0.35452 0.27599 0.0
C1131 C 0.27991 0.3598 0.25114 0.0
C1132 C 0.26066 0.34886 0.24212 0.0
C1133 C 0.24767 0.33292 0.25667 0.0
C1134 C 0.2279 0.32329 0.24201 0.0
C1135 C 0.22141 0.30217 0.23218 0.0
C1136 C 0.21327 0.32418 0.26153 0.0
C1137 C 0.23181 0.33622 0.21678 0.0
C1138 C 0.25078 0.35097 0.21739 0.0
C1139 C 0.25801 0.36434 0.19585 0.0
C1140 C 0.2457 0.36223 0.17266 0.0
C1141 C 0.22637 0.34686 0.17114 0.0
C1142 C 0.21927 0.33397 0.19385 0.0
H1143 H 0.26312 0.32688 0.42851 0.0
H1144 H 0.28819 0.3862 0.40062 0.0
H1145 H 0.26571 0.39108 0.43008 0.0
H1146 H 0.21338 0.31658 0.43351 0.0
H1147 H 0.2098 0.30292 0.46526 0.0
H1148 H 0.22601 0.30345 0.43899 0.0
H1149 H 0.25328 0.3159 0.4782 0.0
H1150 H 0.23721 0.31548 0.50451 0.0
H1151 H 0.25941 0.33769 0.49932 0.0
H1152 H 0.24193 0.39004 0.46595 0.0
H1153 H 0.22043 0.38357 0.50653 0.0
H1154 H 0.21242 0.3255 0.51114 0.0
C1155 C 0.26359 0.34076 0.42801 0.0
C1156 C 0.27723 0.3561 0.41208 0.0
C1157 C 0.27774 0.37421 0.41259 0.0
C1158 C 0.26499 0.37708 0.42916 0.0
C1159 C 0.25192 0.36172 0.44508 0.0
C1160 C 0.2512 0.34392 0.44461 0.0
C1161 C 0.2372 0.33031 0.46554 0.0
C1162 C 0.22061 0.31225 0.44988 0.0
C1163 C 0.24739 0.32452 0.48822 0.0
C1164 C 0.23045 0.34334 0.47838 0.0
C1165 C 0.23879 0.3613 0.46608 0.0
C1166 C 0.23519 0.37596 0.47553 0.0
C1167 C 0.223 0.3722 0.49847 0.0
C1168 C 0.21495 0.3541 0.51177 0.0
C1169 C 0.21848 0.33947 0.50122 0.0
H1170 H 0.67827 0.94684 0.42693 0.0
H1171 H 0.62002 0.91382 0.39119 0.0
H1172 H 0.61608 0.88432 0.41412 0.0
H1173 H 0.68969 0.90722 0.42223 0.0
H1174 H 0.70325 0.91487 0.45585 0.0
H1175 H 0.70216 0.9326 0.43368 0.0
H1176 H 0.68954 0.94412 0.47596 0.0
H1177 H 0.69072 0.92657 0.4982 0.0
H1178 H 0.66845 0.92652 0.49344 0.0
H1179 H 0.61761 0.8592 0.44513 0.0
H1180 H 0.62399 0.84182 0.48351 0.0
H1181 H 0.68112 0.89149 0.49791 0.0
C1182 C 0.66482 0.93332 0.42336 0.0
C1183 C 0.64951 0.93259 0.40709 0.0
C1184 C 0.63198 0.9147 0.40352 0.0
C1185 C 0.62965 0.89784 0.41632 0.0
C1186 C 0.645 0.8991 0.43248 0.0
C1187 C 0.66225 0.91644 0.436 0.0
C1188 C 0.67596 0.91454 0.45642 0.0
C1189 C 0.69382 0.91748 0.44112 0.0
C1190 C 0.68147 0.92877 0.48254 0.0
C1191 C 0.66358 0.89361 0.46454 0.0
C1192 C 0.64586 0.88477 0.45024 0.0
C1193 C 0.63155 0.86587 0.45608 0.0
C1194 C 0.63529 0.85606 0.47773 0.0
C1195 C 0.65307 0.86532 0.49328 0.0
C1196 C 0.66751 0.88404 0.48594 0.0
H1197 H 0.09684 0.72263 0.37695 0.0
H1198 H 0.04169 0.71877 0.38815 0.0
H1199 H 0.0546 0.73944 0.43226 0.0
H1200 H 0.10771 0.72116 0.45232 0.0
H1201 H 0.13296 0.73818 0.44972 0.0
H1202 H 0.1193 0.72273 0.41923 0.0
H1203 H 0.13037 0.75323 0.389 0.0
H1204 H 0.14387 0.76879 0.4195 0.0
H1205 H 0.12603 0.77236 0.40114 0.0
H1206 H 0.07345 0.76133 0.47368 0.0
H1207 H 0.09641 0.78104 0.51294 0.0
H1208 H 0.13955 0.77066 0.4762 0.0
C1209 C 0.08739 0.72596 0.38878 0.0
C1210 C 0.06819 0.71903 0.37895 0.0
C1211 C 0.05639 0.72381 0.39515 0.0
C1212 C 0.06362 0.73563 0.4202 0.0
C1213 C 0.08266 0.74251 0.42889 0.0
C1214 C 0.09436 0.73772 0.41392 0.0
C1215 C 0.11428 0.747 0.42816 0.0
C1216 C 0.11882 0.73133 0.43794 0.0
C1217 C 0.12954 0.76119 0.40826 0.0
C1218 C 0.11195 0.75781 0.45348 0.0
C1219 C 0.09359 0.75505 0.45326 0.0
C1220 C 0.08781 0.76347 0.47422 0.0
C1221 C 0.10095 0.77462 0.49643 0.0
C1222 C 0.11968 0.77719 0.49776 0.0
C1223 C 0.12536 0.76897 0.47566 0.0
H1224 H 0.34422 0.05646 0.728 0.0
H1225 H 0.29273 0.04729 0.68183 0.0
H1226 H 0.28807 0.06672 0.71866 0.0
H1227 H 0.32503 0.05383 0.79994 0.0
H1228 H 0.34781 0.07232 0.81556 0.0
H1229 H 0.347 0.05696 0.78596 0.0
H1230 H 0.36854 0.08765 0.75778 0.0
H1231 H 0.36918 0.1031 0.78711 0.0
H1232 H 0.36107 0.1053 0.75191 0.0
H1233 H 0.29007 0.08935 0.75742 0.0
H1234 H 0.29612 0.11015 0.80091 0.0
H1235 H 0.34493 0.10373 0.82472 0.0
C1236 C 0.33179 0.05824 0.72593 0.0
C1237 C 0.31899 0.0504 0.70168 0.0
C1238 C 0.30292 0.0532 0.69989 0.0
C1239 C 0.3001 0.06429 0.72074 0.0
C1240 C 0.31326 0.07236 0.74371 0.0
C1241 C 0.32855 0.06918 0.74692 0.0
C1242 C 0.34035 0.07953 0.77411 0.0
C1243 C 0.34002 0.06478 0.79514 0.0
C1244 C 0.36101 0.0948 0.76731 0.0
C1245 C 0.32941 0.08917 0.7852 0.0
C1246 C 0.31396 0.08496 0.76707 0.0
C1247 C 0.30201 0.09262 0.77201 0.0
C1248 C 0.30565 0.10456 0.79658 0.0
C1249 C 0.32096 0.10855 0.81608 0.0
C1250 C 0.33308 0.10084 0.81017 0.0
H1251 H 0.93058 0.27599 0.7648 0.0
H1252 H 0.95174 0.24297 0.71874 0.0
H1253 H 0.93094 0.21398 0.74621 0.0
H1254 H 0.93087 0.25775 0.83139 0.0
H1255 H 0.90956 0.25739 0.84302 0.0
H1256 H 0.92417 0.27454 0.81725 0.0
H1257 H 0.89468 0.26155 0.78193 0.0
H1258 H 0.87994 0.24438 0.8077 0.0
H1259 H 0.88113 0.23589 0.77218 0.0
H1260 H 0.90932 0.18919 0.78184 0.0
H1261 H 0.8901 0.17184 0.82333 0.0
H1262 H 0.88436 0.22191 0.84565 0.0
C1263 C 0.93053 0.26255 0.75996 0.0
C1264 C 0.94262 0.26166 0.73946 0.0
C1265 C 0.94248 0.24392 0.73429 0.0
C1266 C 0.93068 0.22737 0.74972 0.0
C1267 C 0.91916 0.22885 0.77021 0.0
C1268 C 0.91903 0.24604 0.77529 0.0
C1269 C 0.90666 0.2445 0.79992 0.0
C1270 C 0.91853 0.25942 0.82433 0.0
C1271 C 0.88959 0.2467 0.78982 0.0
C1272 C 0.90016 0.22392 0.80838 0.0
C1273 C 0.90722 0.21493 0.79085 0.0
C1274 C 0.90358 0.19605 0.79553 0.0
C1275 C 0.89269 0.1863 0.81901 0.0
C1276 C 0.88593 0.19565 0.83752 0.0
C1277 C 0.88945 0.2145 0.83175 0.0
H1278 H 0.71877 0.66018 0.73002 0.0
H1279 H 0.76786 0.70645 0.68924 0.0
H1280 H 0.78929 0.70633 0.72704 0.0
H1281 H 0.73684 0.67848 0.80319 0.0
H1282 H 0.72745 0.6545 0.81703 0.0
H1283 H 0.71557 0.65812 0.7867 0.0
H1284 H 0.71844 0.63161 0.75753 0.0
H1285 H 0.73053 0.62808 0.78766 0.0
H1286 H 0.74171 0.63402 0.75364 0.0
H1287 H 0.8059 0.70057 0.76733 0.0
H1288 H 0.81639 0.69203 0.81188 0.0
H1289 H 0.75712 0.65034 0.82851 0.0
C1290 C 0.73399 0.6704 0.72921 0.0
C1291 C 0.74151 0.68325 0.70642 0.0
C1292 C 0.76159 0.69641 0.70629 0.0
C1293 C 0.77399 0.69644 0.72766 0.0
C1294 C 0.76621 0.68337 0.74935 0.0
C1295 C 0.74669 0.67081 0.75068 0.0
C1296 C 0.74223 0.65859 0.77694 0.0
C1297 C 0.72979 0.66267 0.79716 0.0
C1298 C 0.73266 0.63678 0.76842 0.0
C1299 C 0.76231 0.66625 0.78987 0.0
C1300 C 0.77589 0.68038 0.77336 0.0
C1301 C 0.79542 0.68955 0.78055 0.0
C1302 C 0.80126 0.68448 0.80574 0.0
C1303 C 0.78761 0.67048 0.82358 0.0
C1304 C 0.76788 0.66112 0.8153 0.0
H1305 H 0.73504 0.68125 0.5736 0.0
H1306 H 0.72509 0.62986 0.61817 0.0
H1307 H 0.75275 0.6308 0.59484 0.0
H1308 H 0.74563 0.66747 0.50833 0.0
H1309 H 0.76356 0.6918 0.49968 0.0
H1310 H 0.74448 0.68819 0.52239 0.0
H1311 H 0.76951 0.71098 0.56163 0.0
H1312 H 0.78871 0.7145 0.53906 0.0
H1313 H 0.78763 0.70574 0.57453 0.0
H1314 H 0.78015 0.63618 0.56403 0.0
H1315 H 0.80259 0.64346 0.52487 0.0
H1316 H 0.79421 0.69116 0.50076 0.0
C1317 C 0.73886 0.67038 0.57884 0.0
C1318 C 0.72806 0.65558 0.59784 0.0
C1319 C 0.73322 0.64134 0.60365 0.0
C1320 C 0.74899 0.64186 0.59071 0.0
C1321 C 0.75938 0.6567 0.57206 0.0
C1322 C 0.75441 0.67061 0.56601 0.0
C1323 C 0.7667 0.68397 0.54331 0.0
C1324 C 0.75435 0.68277 0.51687 0.0
C1325 C 0.77886 0.70505 0.55537 0.0
C1326 C 0.77905 0.6751 0.53694 0.0
C1327 C 0.77491 0.65962 0.55408 0.0
C1328 C 0.78369 0.64842 0.55075 0.0
C1329 C 0.7965 0.65273 0.52862 0.0
C1330 C 0.80013 0.66791 0.51 0.0
C1331 C 0.79175 0.67958 0.51488 0.0
H1332 H 0.32895 0.05727 0.57629 0.0
H1333 H 0.38292 0.09451 0.62302 0.0
H1334 H 0.38477 0.12337 0.60083 0.0
H1335 H 0.34158 0.08156 0.51222 0.0
H1336 H 0.31816 0.07823 0.50395 0.0
H1337 H 0.32051 0.06102 0.52549 0.0
H1338 H 0.30201 0.06678 0.56558 0.0
H1339 H 0.29974 0.08416 0.54416 0.0
H1340 H 0.31051 0.09119 0.57979 0.0
H1341 H 0.38179 0.14801 0.57008 0.0
H1342 H 0.37486 0.16528 0.53211 0.0
H1343 H 0.32248 0.11174 0.50765 0.0
C1344 C 0.34099 0.0715 0.58231 0.0
C1345 C 0.3557 0.07361 0.60158 0.0
C1346 C 0.37142 0.09251 0.60835 0.0
C1347 C 0.37256 0.10902 0.59597 0.0
C1348 C 0.35779 0.1064 0.577 0.0
C1349 C 0.3423 0.08807 0.57027 0.0
C1350 C 0.32889 0.0889 0.54798 0.0
C1351 C 0.3272 0.07671 0.52082 0.0
C1352 C 0.30912 0.08237 0.56012 0.0
C1353 C 0.33945 0.11047 0.54266 0.0
C1354 C 0.35601 0.12046 0.55973 0.0
C1355 C 0.36871 0.14037 0.55692 0.0
C1356 C 0.36465 0.15012 0.53549 0.0
C1357 C 0.34813 0.13983 0.51718 0.0
C1358 C 0.33515 0.11997 0.52157 0.0
H1359 H 0.91334 0.25376 0.63832 0.0
H1360 H 0.9433 0.31296 0.60975 0.0
H1361 H 0.9251 0.30169 0.56314 0.0
H1362 H 0.91385 0.23132 0.57027 0.0
H1363 H 0.89069 0.21002 0.5743 0.0
H1364 H 0.90554 0.22311 0.60544 0.0
H1365 H 0.8777 0.22685 0.625 0.0
H1366 H 0.86293 0.21417 0.59353 0.0
H1367 H 0.86743 0.23821 0.60361 0.0
H1368 H 0.90279 0.28413 0.52074 0.0
H1369 H 0.88281 0.26097 0.48152 0.0
H1370 H 0.86918 0.21263 0.5362 0.0
C1371 C 0.91614 0.26425 0.62204 0.0
C1372 C 0.92969 0.28417 0.62727 0.0
C1373 C 0.93308 0.29761 0.60578 0.0
C1374 C 0.92267 0.29136 0.57948 0.0
C1375 C 0.90913 0.27162 0.57507 0.0
C1376 C 0.90618 0.25818 0.59547 0.0
C1377 C 0.89175 0.23765 0.5846 0.0
C1378 C 0.90101 0.22477 0.58358 0.0
C1379 C 0.8739 0.2287 0.60277 0.0
C1380 C 0.88707 0.24161 0.55483 0.0
C1381 C 0.89694 0.26136 0.55006 0.0
C1382 C 0.89513 0.26864 0.52414 0.0
C1383 C 0.88372 0.25535 0.50201 0.0
C1384 C 0.87456 0.23496 0.50567 0.0
C1385 C 0.87576 0.22809 0.53281 0.0
H1386 H 0.35918 0.27905 0.63229 0.0
H1387 H 0.30637 0.28071 0.62157 0.0
H1388 H 0.29636 0.2569 0.58074 0.0
H1389 H 0.36654 0.27555 0.55728 0.0
H1390 H 0.37609 0.25954 0.56233 0.0
H1391 H 0.37889 0.27669 0.59051 0.0
H1392 H 0.36276 0.24831 0.6251 0.0
H1393 H 0.35954 0.23101 0.59681 0.0
H1394 H 0.33917 0.22807 0.61592 0.0
H1395 H 0.29193 0.23265 0.54152 0.0
H1396 H 0.29512 0.21271 0.50306 0.0
H1397 H 0.35071 0.22673 0.53941 0.0
C1398 C 0.34555 0.27456 0.62128 0.0
C1399 C 0.33356 0.2818 0.63025 0.0
C1400 C 0.31587 0.2755 0.6151 0.0
C1401 C 0.30998 0.26184 0.59202 0.0
C1402 C 0.32194 0.25463 0.58433 0.0
C1403 C 0.33947 0.26098 0.59824 0.0
C1404 C 0.34989 0.25138 0.58524 0.0
C1405 C 0.36898 0.2667 0.57311 0.0
C1406 C 0.35302 0.23896 0.60708 0.0
C1407 C 0.33552 0.2387 0.56165 0.0
C1408 C 0.3194 0.24065 0.56171 0.0
C1409 C 0.30443 0.23096 0.54135 0.0
C1410 C 0.30631 0.21959 0.51972 0.0
C1411 C 0.32305 0.21804 0.51855 0.0
C1412 C 0.33758 0.2273 0.54025 0.0
H1413 H 0.73898 0.0498 0.57202 0.0
H1414 H 0.72201 0.08645 0.61814 0.0
H1415 H 0.74906 0.11568 0.59858 0.0
H1416 H 0.79155 0.08395 0.5777 0.0
H1417 H 0.79481 0.07748 0.54195 0.0
H1418 H 0.77582 0.05971 0.56274 0.0
H1419 H 0.75081 0.05432 0.52236 0.0
H1420 H 0.76972 0.0718 0.50143 0.0
H1421 H 0.74971 0.075 0.50953 0.0
H1422 H 0.7756 0.14042 0.57007 0.0
H1423 H 0.79702 0.15798 0.53107 0.0
H1424 H 0.79704 0.10533 0.50441 0.0
C1425 C 0.74118 0.06401 0.57842 0.0
C1426 C 0.7285 0.0659 0.59664 0.0
C1427 C 0.73156 0.08468 0.60409 0.0
C1428 C 0.74701 0.10138 0.59337 0.0
C1429 C 0.75926 0.09901 0.57535 0.0
C1430 C 0.75644 0.08077 0.56781 0.0
C1431 C 0.77028 0.08196 0.54567 0.0
C1432 C 0.78393 0.07539 0.55775 0.0
C1433 C 0.75949 0.07008 0.51813 0.0
C1434 C 0.78081 0.10363 0.54106 0.0
C1435 C 0.77458 0.11331 0.55883 0.0
C1436 C 0.78089 0.1331 0.55643 0.0
C1437 C 0.79315 0.143 0.53438 0.0
C1438 C 0.79868 0.13297 0.51497 0.0
C1439 C 0.79315 0.11333 0.51925 0.0
H1440 H 0.95156 0.67812 0.61211 0.0
H1441 H 0.90723 0.62283 0.64267 0.0
H1442 H 0.88613 0.61928 0.60147 0.0
H1443 H 0.92035 0.69461 0.58778 0.0
H1444 H 0.93349 0.70584 0.55651 0.0
H1445 H 0.94581 0.70375 0.5876 0.0
H1446 H 0.95862 0.68548 0.55686 0.0
H1447 H 0.94643 0.68763 0.52561 0.0
H1448 H 0.94195 0.66398 0.53579 0.0
H1449 H 0.869 0.62226 0.5585 0.0
H1450 H 0.8577 0.63116 0.5149 0.0
H1451 H 0.91281 0.68436 0.51208 0.0
C1452 C 0.93753 0.66514 0.60993 0.0
C1453 C 0.93111 0.6508 0.63075 0.0
C1454 C 0.91253 0.63411 0.62715 0.0
C1455 C 0.90038 0.6319 0.60377 0.0
C1456 C 0.90697 0.64645 0.58399 0.0
C1457 C 0.92514 0.66268 0.58663 0.0
C1458 C 0.92843 0.67637 0.5626 0.0
C1459 C 0.93224 0.69632 0.57433 0.0
C1460 C 0.94483 0.67848 0.54412 0.0
C1461 C 0.90924 0.66535 0.54633 0.0
C1462 C 0.89707 0.64813 0.55902 0.0
C1463 C 0.87842 0.63568 0.54824 0.0
C1464 C 0.87208 0.6409 0.52363 0.0
C1465 C 0.88437 0.6584 0.5101 0.0
C1466 C 0.90317 0.67075 0.52176 0.0
H1467 H 0.93636 0.65577 0.76206 0.0
H1468 H 0.95334 0.7122 0.72749 0.0
H1469 H 0.92845 0.71405 0.75493 0.0
H1470 H 0.88484 0.6383 0.7628 0.0
H1471 H 0.88219 0.62617 0.79588 0.0
H1472 H 0.90033 0.62874 0.77174 0.0
H1473 H 0.92638 0.6457 0.81254 0.0
H1474 H 0.90836 0.64319 0.83674 0.0
H1475 H 0.92873 0.66692 0.83137 0.0
H1476 H 0.90302 0.71057 0.78902 0.0
H1477 H 0.88007 0.70237 0.82781 0.0
H1478 H 0.87964 0.64798 0.83826 0.0
C1479 C 0.93466 0.66837 0.75981 0.0
C1480 C 0.94669 0.68377 0.74248 0.0
C1481 C 0.94422 0.70019 0.74061 0.0
C1482 C 0.93008 0.70134 0.75601 0.0
C1483 C 0.9185 0.68591 0.77303 0.0
C1484 C 0.92064 0.66973 0.77494 0.0
C1485 C 0.90717 0.65559 0.79587 0.0
C1486 C 0.89278 0.63605 0.78065 0.0
C1487 C 0.91833 0.6527 0.82058 0.0
C1488 C 0.89741 0.66653 0.80596 0.0
C1489 C 0.90394 0.68391 0.79242 0.0
C1490 C 0.89762 0.69689 0.79952 0.0
C1491 C 0.88456 0.69211 0.82144 0.0
C1492 C 0.87818 0.6746 0.83599 0.0
C1493 C 0.88438 0.66153 0.82757 0.0
H1494 H 0.2976 0.26494 0.77212 0.0
H1495 H 0.34097 0.27069 0.71401 0.0
H1496 H 0.33856 0.24041 0.7313 0.0
H1497 H 0.31613 0.25177 0.82942 0.0
H1498 H 0.29331 0.23524 0.84388 0.0
H1499 H 0.29581 0.25505 0.82304 0.0
H1500 H 0.26776 0.23044 0.78893 0.0
H1501 H 0.26542 0.21049 0.80955 0.0
H1502 H 0.26907 0.2106 0.77171 0.0
H1503 H 0.33384 0.21164 0.7578 0.0
H1504 H 0.33137 0.19008 0.79661 0.0
H1505 H 0.29224 0.20374 0.83945 0.0
C1506 C 0.30624 0.2595 0.7627 0.0
C1507 C 0.31935 0.26992 0.74165 0.0
C1508 C 0.33089 0.26287 0.73023 0.0
C1509 C 0.32942 0.24556 0.73966 0.0
C1510 C 0.31647 0.23564 0.76071 0.0
C1511 C 0.30529 0.24251 0.77243 0.0
C1512 C 0.29475 0.23086 0.79773 0.0
C1513 C 0.30035 0.24401 0.82512 0.0
C1514 C 0.27296 0.21995 0.7916 0.0
C1515 C 0.3023 0.21684 0.79905 0.0
C1516 C 0.31431 0.2194 0.77692 0.0
C1517 C 0.32423 0.20925 0.77496 0.0
C1518 C 0.32263 0.19692 0.79697 0.0
C1519 C 0.3115 0.19519 0.82081 0.0
C1520 C 0.30059 0.20462 0.82118 0.0
H1521 H 0.73316 0.04099 0.73551 0.0
H1522 H 0.75442 0.08539 0.67233 0.0
H1523 H 0.77247 0.11079 0.7104 0.0
H1524 H 0.72876 0.06977 0.79347 0.0
H1525 H 0.73724 0.05994 0.82076 0.0
H1526 H 0.72489 0.04542 0.78888 0.0
H1527 H 0.75376 0.04056 0.77904 0.0
H1528 H 0.76614 0.05501 0.81091 0.0
H1529 H 0.77735 0.0616 0.77697 0.0
H1530 H 0.78804 0.13124 0.75519 0.0
H1531 H 0.80191 0.14526 0.80331 0.0
H1532 H 0.77294 0.08709 0.83668 0.0
C1533 C 0.74148 0.0561 0.72993 0.0
C1534 C 0.7424 0.06145 0.70128 0.0
C1535 C 0.75362 0.08121 0.69436 0.0
C1536 C 0.76383 0.09568 0.71577 0.0
C1537 C 0.76282 0.09003 0.7439 0.0
C1538 C 0.75209 0.07072 0.75103 0.0
C1539 C 0.75444 0.0685 0.78267 0.0
C1540 C 0.73519 0.06043 0.7973 0.0
C1541 C 0.76346 0.05566 0.78768 0.0
C1542 C 0.76812 0.08953 0.79211 0.0
C1543 C 0.77259 0.10174 0.76951 0.0
C1544 C 0.78478 0.12182 0.77306 0.0
C1545 C 0.79274 0.12962 0.80048 0.0
C1546 C 0.7887 0.11734 0.82394 0.0
C1547 C 0.77617 0.09701 0.81944 0.0
H1548 H 0.04568 0.33148 0.02812 0.0
H1549 H 0.08521 0.38651 0.99152 0.0
H1550 H 0.11256 0.38339 0.00919 0.0
H1551 H 0.07441 0.33724 0.0915 0.0
H1552 H 0.06799 0.31197 0.09147 0.0
H1553 H 0.05159 0.31871 0.07599 0.0
H1554 H 0.05057 0.30081 0.02835 0.0
H1555 H 0.06722 0.29429 0.04362 0.0
H1556 H 0.07263 0.3074 0.01104 0.0
H1557 H 0.1359 0.3751 0.03303 0.0
H1558 H 0.15294 0.36265 0.06264 0.0
H1559 H 0.0984 0.3115 0.07929 0.0
C1560 C 0.06009 0.34291 0.02405 0.0
C1561 C 0.06329 0.35929 0.00856 0.0
C1562 C 0.08239 0.37382 0.00333 0.0
C1563 C 0.09805 0.37216 0.0132 0.0
C1564 C 0.09446 0.35572 0.02796 0.0
C1565 C 0.07596 0.34132 0.03333 0.0
C1566 C 0.0761 0.32516 0.04975 0.0
C1567 C 0.06699 0.32316 0.0789 0.0
C1568 C 0.06603 0.30577 0.03213 0.0
C1569 C 0.09751 0.33291 0.05319 0.0
C1570 C 0.10789 0.35056 0.0405 0.0
C1571 C 0.12792 0.36113 0.04274 0.0
C1572 C 0.13753 0.35384 0.05935 0.0
C1573 C 0.12711 0.33609 0.07341 0.0
C1574 C 0.10687 0.32519 0.06905 0.0
H1575 H 0.62015 0.70023 0.05434 0.0
H1576 H 0.67133 0.71387 0.00876 0.0
H1577 H 0.68194 0.74898 0.01398 0.0
H1578 H 0.61417 0.74192 0.03029 0.0
H1579 H 0.60697 0.74503 0.06526 0.0
H1580 H 0.6013 0.72112 0.05204 0.0
H1581 H 0.6183 0.71727 0.0971 0.0
H1582 H 0.62383 0.74097 0.11042 0.0
H1583 H 0.64284 0.73555 0.10609 0.0
H1584 H 0.68958 0.78253 0.03151 0.0
H1585 H 0.69452 0.81052 0.06256 0.0
H1586 H 0.6388 0.77481 0.0974 0.0
C1587 C 0.63324 0.7105 0.04445 0.0
C1588 C 0.64477 0.70421 0.03079 0.0
C1589 C 0.66214 0.71827 0.01906 0.0
C1590 C 0.66824 0.73827 0.02182 0.0
C1591 C 0.6568 0.74399 0.0363 0.0
C1592 C 0.63963 0.73043 0.0474 0.0
C1593 C 0.63138 0.74015 0.06583 0.0
C1594 C 0.61232 0.73686 0.05255 0.0
C1595 C 0.62897 0.73307 0.09666 0.0
C1596 C 0.64697 0.76127 0.06449 0.0
C1597 C 0.66131 0.76331 0.04675 0.0
C1598 C 0.67821 0.78118 0.04478 0.0
C1599 C 0.68085 0.79707 0.06228 0.0
C1600 C 0.66676 0.79486 0.0816 0.0
C1601 C 0.64939 0.77697 0.08188 0.0
H1602 H 0.32056 0.93677 0.04852 0.0
H1603 H 0.29665 0.95387 0.97855 0.0
H1604 H 0.26423 0.92729 0.98867 0.0
H1605 H 0.28634 0.88351 0.04197 0.0
H1606 H 0.28518 0.88119 0.08019 0.0
H1607 H 0.30685 0.8996 0.06487 0.0
H1608 H 0.30591 0.92643 0.09641 0.0
H1609 H 0.28453 0.90806 0.11209 0.0
H1610 H 0.28453 0.92832 0.09544 0.0
H1611 H 0.23419 0.90093 0.00892 0.0
H1612 H 0.20899 0.88037 0.04195 0.0
H1613 H 0.25218 0.88078 0.09913 0.0
C1614 C 0.30853 0.93467 0.03503 0.0
C1615 C 0.31112 0.94727 0.01264 0.0
C1616 C 0.29499 0.94438 -0.00415 0.0
C1617 C 0.27653 0.92918 0.00122 0.0
C1618 C 0.27442 0.91702 0.02351 0.0
C1619 C 0.28996 0.91974 0.04037 0.0
C1620 C 0.28359 0.90627 0.06517 0.0
C1621 C 0.29093 0.89178 0.0629 0.0
C1622 C 0.29001 0.91797 0.09396 0.0
C1623 C 0.26203 0.89602 0.06017 0.0
C1624 C 0.25701 0.90203 0.0356 0.0
C1625 C 0.23791 0.89583 0.02793 0.0
C1626 C 0.22366 0.88401 0.04662 0.0
C1627 C 0.22871 0.87883 0.07274 0.0
C1628 C 0.248 0.88421 0.07891 0.0
H1629 H 0.32804 0.03436 0.96155 0.0
H1630 H 0.37917 0.07892 0.00733 0.0
H1631 H 0.36801 0.10246 0.00134 0.0
H1632 H 0.33017 0.06082 0.90908 0.0
H1633 H 0.30497 0.05193 0.90236 0.0
H1634 H 0.31248 0.03681 0.91952 0.0
H1635 H 0.29148 0.03342 0.96246 0.0
H1636 H 0.28371 0.04851 0.94518 0.0
H1637 H 0.29434 0.05497 0.98092 0.0
H1638 H 0.3569 0.12283 0.97922 0.0
H1639 H 0.34772 0.13818 0.94164 0.0
H1640 H 0.30376 0.08117 0.90867 0.0
C1641 C 0.33624 0.04876 0.97172 0.0
C1642 C 0.35425 0.05484 0.98525 0.0
C1643 C 0.36519 0.07401 -0.00282 0.0
C1644 C 0.35889 0.08743 -0.00598 0.0
C1645 C 0.34164 0.08144 0.97879 0.0
C1646 C 0.33031 0.06244 0.96805 0.0
C1647 C 0.3148 0.06072 0.94728 0.0
C1648 C 0.3157 0.05209 0.91785 0.0
C1649 C 0.2949 0.0487 0.95972 0.0
C1650 C 0.32037 0.08195 0.94584 0.0
C1651 C 0.33533 0.09356 0.96511 0.0
C1652 C 0.34479 0.11387 0.96472 0.0
C1653 C 0.33948 0.1225 0.94329 0.0
C1654 C 0.32506 0.1108 0.92234 0.0
C1655 C 0.31476 0.09038 0.92463 0.0
H1656 H 0.92843 0.30068 0.95668 0.0
H1657 H 0.97226 0.29086 -0.00504 0.0
H1658 H 0.94896 0.2554 -0.00597 0.0
H1659 H 0.88619 0.26052 0.99062 0.0
H1660 H 0.87146 0.25517 0.95837 0.0
H1661 H 0.89038 0.27977 0.96698 0.0
H1662 H 0.90524 0.28111 0.91787 0.0
H1663 H 0.88619 0.25678 0.90906 0.0
H1664 H 0.91077 0.26245 0.90784 0.0
H1665 H 0.9225 0.22084 0.98143 0.0
H1666 H 0.89717 0.19143 0.95499 0.0
H1667 H 0.87064 0.22401 0.92615 0.0
C1668 C 0.93312 0.29121 0.96557 0.0
C1669 C 0.95224 0.29868 0.97604 0.0
C1670 C 0.9577 0.28558 0.98698 0.0
C1671 C 0.9445 0.26541 0.98669 0.0
C1672 C 0.92584 0.25856 0.97567 0.0
C1673 C 0.92022 0.27117 0.96534 0.0
C1674 C 0.9003 0.26026 0.95128 0.0
C1675 C 0.88625 0.26417 0.96781 0.0
C1676 C 0.90067 0.26545 0.91966 0.0
C1677 C 0.89578 0.23944 0.95415 0.0
C1678 C 0.9105 0.23868 0.96882 0.0
C1679 C 0.91065 0.22122 0.97074 0.0
C1680 C 0.89607 0.20448 0.956 0.0
C1681 C 0.88158 0.20534 0.93954 0.0
C1682 C 0.88098 0.22279 0.93984 0.0
H1683 H 0.69741 0.6502 0.97673 0.0
H1684 H 0.7332 0.69246 0.04387 0.0
H1685 H 0.76208 0.69517 0.02216 0.0
H1686 H 0.72468 0.62563 0.97207 0.0
H1687 H 0.72103 0.62162 0.93382 0.0
H1688 H 0.70328 0.62305 0.95472 0.0
H1689 H 0.70565 0.65081 0.92376 0.0
H1690 H 0.72322 0.64929 0.90259 0.0
H1691 H 0.72872 0.67222 0.91961 0.0
H1692 H 0.78727 0.69391 0.99155 0.0
H1693 H 0.80614 0.68963 0.95394 0.0
H1694 H 0.75328 0.64676 0.90937 0.0
C1695 C 0.71131 0.66012 0.98683 0.0
C1696 C 0.71305 0.67119 0.01192 0.0
C1697 C 0.73152 0.68385 0.0246 0.0
C1698 C 0.748 0.68544 0.01249 0.0
C1699 C 0.74573 0.67411 0.9879 0.0
C1700 C 0.72782 0.6617 0.97527 0.0
C1701 C 0.72916 0.6512 0.94886 0.0
C1702 C 0.71893 0.62906 0.95261 0.0
C1703 C 0.72122 0.65619 0.92213 0.0
C1704 C 0.75064 0.65987 0.94827 0.0
C1705 C 0.76003 0.67301 0.97095 0.0
C1706 C 0.78003 0.6835 0.97386 0.0
C1707 C 0.79065 0.68087 0.95256 0.0
C1708 C 0.78118 0.66789 0.92874 0.0
C1709 C 0.76094 0.65688 0.92724 0.0
H1710 H 0.92783 0.62167 0.96479 0.0
H1711 H 0.95159 0.67054 0.0264 0.0
H1712 H 0.92455 0.67597 0.01531 0.0
H1713 H 0.91426 0.64436 0.91293 0.0
H1714 H 0.89291 0.62231 0.90057 0.0
H1715 H 0.91281 0.62106 0.91623 0.0
H1716 H 0.89016 0.59708 0.95301 0.0
H1717 H 0.87029 0.59871 0.93776 0.0
H1718 H 0.87665 0.60425 0.97536 0.0
H1719 H 0.89637 0.67785 -0.00553 0.0
H1720 H 0.87254 0.6788 0.96119 0.0
H1721 H 0.86715 0.62891 0.91322 0.0
C1722 C 0.92717 0.63335 0.97617 0.0
C1723 C 0.94176 0.64562 -0.00357 0.0
C1724 C 0.94061 0.66097 0.01066 0.0
C1725 C 0.92518 0.66404 0.00472 0.0
C1726 C 0.911 0.65168 0.98452 0.0
C1727 C 0.912 0.63677 0.97022 0.0
C1728 C 0.89615 0.62691 0.94727 0.0
C1729 C 0.90453 0.62879 0.91751 0.0
C1730 C 0.8825 0.60546 0.95375 0.0
C1731 C 0.88633 0.63885 0.95041 0.0
C1732 C 0.89484 0.65283 0.9724 0.0
C1733 C 0.88935 0.66673 0.97757 0.0
C1734 C 0.87561 0.66703 0.95882 0.0
C1735 C 0.86772 0.65365 0.93512 0.0
C1736 C 0.87251 0.63886 0.93178 0.0
H1737 H 0.33708 0.28882 0.96727 0.0
H1738 H 0.39776 0.30935 0.98037 0.0
H1739 H 0.39144 0.27576 0.97216 0.0
H1740 H 0.31831 0.23816 -0.00405 0.0
H1741 H 0.2995 0.22771 0.9684 0.0
H1742 H 0.30799 0.25214 0.98252 0.0
H1743 H 0.31506 0.26499 0.93124 0.0
H1744 H 0.30664 0.24073 0.91707 0.0
H1745 H 0.33043 0.25993 0.90971 0.0
H1746 H 0.37963 0.24164 0.95306 0.0
H1747 H 0.3637 0.21109 0.92313 0.0
H1748 H 0.31078 0.21263 0.92259 0.0
C1749 C 0.34893 0.28614 0.96968 0.0
C1750 C 0.36789 0.30172 0.97479 0.0
C1751 C 0.38309 0.29765 0.97671 0.0
C1752 C 0.37962 0.27857 0.9722 0.0
C1753 C 0.36085 0.26364 0.96591 0.0
C1754 C 0.34573 0.26722 0.96487 0.0
C1755 C 0.32744 0.24947 0.95337 0.0
C1756 C 0.31243 0.24139 0.97645 0.0
C1757 C 0.31945 0.25406 0.92625 0.0
C1758 C 0.33485 0.23571 0.94662 0.0
C1759 C 0.35404 0.24392 0.95465 0.0
C1760 C 0.36449 0.23485 0.9474 0.0
C1761 C 0.35532 0.21743 0.93052 0.0
C1762 C 0.33599 0.20945 0.92083 0.0
C1763 C 0.32549 0.21829 0.93015 0.0
H1764 H 0.70069 0.04106 0.97043 0.0
H1765 H 0.70527 0.08453 0.03309 0.0
H1766 H 0.73687 0.10824 0.01535 0.0
H1767 H 0.75125 0.05509 0.97467 0.0
H1768 H 0.75203 0.05059 0.93694 0.0
H1769 H 0.73 0.03679 0.95514 0.0
H1770 H 0.71241 0.04743 0.9191 0.0
H1771 H 0.73431 0.06102 0.90063 0.0
H1772 H 0.72186 0.07303 0.91367 0.0
H1773 H 0.76724 0.12794 0.9886 0.0
H1774 H 0.79277 0.14209 0.95348 0.0
H1775 H 0.76942 0.08511 0.91095 0.0
C1776 C 0.70832 0.05557 0.98039 0.0
C1777 C 0.70045 0.06094 0.00308 0.0
C1778 C 0.71099 0.08005 0.01567 0.0
C1779 C 0.72901 0.09362 0.00583 0.0
C1780 C 0.73646 0.08781 0.98362 0.0
C1781 C 0.72644 0.06922 0.97108 0.0
C1782 C 0.73739 0.0668 0.94705 0.0
C1783 C 0.743 0.0514 0.95387 0.0
C1784 C 0.72581 0.06178 0.91843 0.0
C1785 C 0.75485 0.08705 0.94754 0.0
C1786 C 0.75416 0.09896 0.96888 0.0
C1787 C 0.76808 0.11868 0.97205 0.0
C1788 C 0.78264 0.12658 0.95217 0.0
C1789 C 0.7831 0.11475 0.92945 0.0
C1790 C 0.76944 0.09458 0.92801 0.0
H1791 H 0.6293 0.92871 0.02743 0.0
H1792 H 0.68424 0.982 0.02513 0.0
H1793 H 0.70072 0.96314 0.03147 0.0
H1794 H 0.63977 0.91021 0.08223 0.0
H1795 H 0.62669 0.88497 0.07005 0.0
H1796 H 0.61963 0.90157 0.05704 0.0
H1797 H 0.62311 0.89228 0.00491 0.0
H1798 H 0.63039 0.87567 0.018 0.0
H1799 H 0.64548 0.89453 -0.00554 0.0
H1800 H 0.7107 0.94071 0.05146 0.0
H1801 H 0.71281 0.9171 0.08272 0.0
H1802 H 0.65192 0.87776 0.06964 0.0
C1803 C 0.6448 0.93632 0.02716 0.0
C1804 C 0.65547 0.95681 0.02586 0.0
C1805 C 0.67574 0.96629 0.02587 0.0
C1806 C 0.68523 0.95565 0.02936 0.0
C1807 C 0.67427 0.93552 0.03212 0.0
C1808 C 0.65443 0.9259 0.03049 0.0
C1809 C 0.64586 0.90486 0.03848 0.0
C1810 C 0.63222 0.90016 0.06343 0.0
C1811 C 0.63561 0.89102 0.0124 0.0
C1812 C 0.66387 0.90456 0.04736 0.0
C1813 C 0.68019 0.92221 0.04276 0.0
C1814 C 0.69817 0.92656 0.05402 0.0
C1815 C 0.69931 0.91305 0.07159 0.0
C1816 C 0.68261 0.89543 0.07752 0.0
C1817 C 0.66495 0.89074 0.06407 0.0
H1818 H 0.0787 0.70176 0.02546 0.0
H1819 H 0.03182 0.7134 0.01508 0.0
H1820 H 0.05498 0.74877 0.0196 0.0
H1821 H 0.10125 0.73381 0.07996 0.0
H1822 H 0.12536 0.74113 0.07024 0.0
H1823 H 0.106 0.7176 0.05862 0.0
H1824 H 0.11539 0.72565 0.00596 0.0
H1825 H 0.13478 0.74941 0.01759 0.0
H1826 H 0.11702 0.74722 0.99135 0.0
H1827 H 0.08198 0.78191 0.03584 0.0
H1828 H 0.1092 0.8085 0.06419 0.0
H1829 H 0.13841 0.7754 0.06395 0.0
C1830 C 0.07329 0.7117 0.02306 0.0
C1831 C 0.05337 0.7047 0.01978 0.0
C1832 C 0.04698 0.71832 0.01733 0.0
C1833 C 0.06009 0.73849 0.01979 0.0
C1834 C 0.07957 0.74485 0.02435 0.0
C1835 C 0.08613 0.73178 0.0257 0.0
C1836 C 0.10712 0.74183 0.0352 0.0
C1837 C 0.11008 0.73308 0.06262 0.0
C1838 C 0.1193 0.74098 0.01108 0.0
C1839 C 0.11113 0.76244 0.04074 0.0
C1840 C 0.09524 0.76407 0.03359 0.0
C1841 C 0.0947 0.78099 0.04057 0.0
C1842 C 0.11029 0.79614 0.05643 0.0
C1843 C 0.12613 0.7942 0.06522 0.0
C1844 C 0.12687 0.77754 0.05618 0.0
H1845 H 0.30619 0.3742 0.01117 0.0
H1846 H 0.2901 0.31367 -0.00388 0.0
H1847 H 0.25741 0.30336 0.01179 0.0
H1848 H 0.28261 0.36712 0.07511 0.0
H1849 H 0.27571 0.38519 0.06926 0.0
H1850 H 0.29667 0.38746 0.05307 0.0
H1851 H 0.28267 0.38894 0.0033 0.0
H1852 H 0.26144 0.38624 0.01945 0.0
H1853 H 0.25935 0.36944 0.99109 0.0
H1854 H 0.22747 0.29963 0.03331 0.0
H1855 H 0.20468 0.30277 0.0645 0.0
H1856 H 0.2405 0.36555 0.06611 0.0
C1857 C 0.29566 0.35879 0.01083 0.0
C1858 C 0.3006 0.34477 0.00245 0.0
C1859 C 0.28661 0.32469 0.00258 0.0
C1860 C 0.26795 0.31871 0.01116 0.0
C1861 C 0.26354 0.33296 0.01945 0.0
C1862 C 0.27708 0.35259 0.01961 0.0
C1863 C 0.26949 0.36492 0.03252 0.0
C1864 C 0.28185 0.37686 0.05906 0.0
C1865 C 0.26816 0.37817 0.01026 0.0
C1866 C 0.24977 0.34915 0.04047 0.0
C1867 C 0.24637 0.33082 0.03213 0.0
C1868 C 0.22978 0.31392 0.03943 0.0
C1869 C 0.21682 0.3158 0.05687 0.0
C1870 C 0.2207 0.3344 0.06692 0.0
C1871 C 0.23697 0.35123 0.05775 0.0
H1872 H 0.7508 0.713 0.36055 0.0
H1873 H 0.70661 0.65368 0.33703 0.0
H1874 H 0.72888 0.64204 0.35068 0.0
H1875 H 0.79196 0.70939 0.33774 0.0
H1876 H 0.80709 0.72415 0.36779 0.0
H1877 H 0.78829 0.72806 0.35391 0.0
H1878 H 0.77378 0.72303 0.40403 0.0
H1879 H 0.79282 0.71967 0.41805 0.0
H1880 H 0.76821 0.7012 0.42244 0.0
H1881 H 0.75547 0.63669 0.36976 0.0
H1882 H 0.78209 0.6377 0.39869 0.0
H1883 H 0.8087 0.70032 0.40952 0.0
C1884 C 0.74582 0.69756 0.35804 0.0
C1885 C 0.72697 0.68427 0.34755 0.0
C1886 C 0.72097 0.66416 0.34504 0.0
C1887 C 0.73359 0.65743 0.35247 0.0
C1888 C 0.75218 0.67098 0.3624 0.0
C1889 C 0.75816 0.69061 0.36553 0.0
C1890 C 0.77823 0.70198 0.37903 0.0
C1891 C 0.79222 0.71677 0.35838 0.0
C1892 C 0.77825 0.71205 0.40758 0.0
C1893 C 0.7825 0.68568 0.38358 0.0
C1894 C 0.76745 0.66793 0.37335 0.0
C1895 C 0.76748 0.65055 0.37732 0.0
C1896 C 0.78278 0.65125 0.3934 0.0
C1897 C 0.79773 0.66916 0.40534 0.0
C1898 C 0.79788 0.68659 0.39946 0.0
H1899 H 0.33564 0.05277 0.3707 0.0
H1900 H 0.27918 0.0371 0.3364 0.0
H1901 H 0.28674 0.07112 0.34363 0.0
H1902 H 0.33547 0.07903 0.426 0.0
H1903 H 0.36036 0.09784 0.42717 0.0
H1904 H 0.35327 0.07436 0.41108 0.0
H1905 H 0.36878 0.09037 0.36395 0.0
H1906 H 0.37607 0.11406 0.38006 0.0
H1907 H 0.36196 0.10627 0.34694 0.0
H1908 H 0.2966 0.10347 0.36568 0.0
H1909 H 0.30789 0.13102 0.40079 0.0
H1910 H 0.35864 0.12706 0.42011 0.0
C1911 C 0.32534 0.05681 0.36327 0.0
C1912 C 0.30697 0.04246 0.3526 0.0
C1913 C 0.29342 0.04799 0.34432 0.0
C1914 C 0.29763 0.06731 0.34824 0.0
C1915 C 0.31548 0.08099 0.36041 0.0
C1916 C 0.32926 0.07606 0.36748 0.0
C1917 C 0.34585 0.09245 0.38484 0.0
C1918 C 0.34889 0.0855 0.41398 0.0
C1919 C 0.36426 0.10132 0.36793 0.0
C1920 C 0.33856 0.10663 0.38825 0.0
C1921 C 0.32128 0.10003 0.37334 0.0
C1922 C 0.31044 0.10917 0.37668 0.0
C1923 C 0.317 0.1249 0.39663 0.0
C1924 C 0.33417 0.13123 0.41314 0.0
C1925 C 0.3455 0.12258 0.40767 0.0
H1926 H 0.9484 0.29606 0.34114 0.0
H1927 H 0.98555 0.27229 0.3587 0.0
H1928 H 0.95828 0.24295 0.37758 0.0
H1929 H 0.92374 0.2811 0.40535 0.0
H1930 H 0.90104 0.27617 0.38965 0.0
H1931 H 0.923 0.29401 0.3746 0.0
H1932 H 0.91105 0.27541 0.32533 0.0
H1933 H 0.88925 0.25721 0.34059 0.0
H1934 H 0.9043 0.25005 0.32228 0.0
H1935 H 0.92757 0.21696 0.39645 0.0
H1936 H 0.8975 0.19941 0.42235 0.0
H1937 H 0.88076 0.2406 0.39459 0.0
C1938 C 0.95072 0.28459 0.34878 0.0
C1939 C 0.969 0.28635 0.34835 0.0
C1940 C 0.97164 0.27125 0.35898 0.0
C1941 C 0.95619 0.25442 0.36937 0.0
C1942 C 0.93826 0.25299 0.36918 0.0
C1943 C 0.93554 0.26785 0.35973 0.0
C1944 C 0.91542 0.26373 0.36494 0.0
C1945 C 0.91583 0.27969 0.38482 0.0
C1946 C 0.90435 0.26146 0.33659 0.0
C1947 C 0.90741 0.24447 0.37942 0.0
C1948 C 0.92062 0.23823 0.3809 0.0
C1949 C 0.91698 0.22151 0.39508 0.0
C1950 C 0.89982 0.2115 0.40944 0.0
C1951 C 0.88679 0.21848 0.40976 0.0
C1952 C 0.8903 0.2347 0.39374 0.0
H1953 H 0.00197 0.36884 0.30698 0.0
H1954 H 0.06189 0.40865 0.32923 0.0
H1955 H 0.05669 0.43655 0.32444 0.0
H1956 H 0.99962 0.39243 0.25232 0.0
H1957 H 0.9757 0.38832 0.25608 0.0
H1958 H 0.98212 0.37166 0.27086 0.0
H1959 H 0.97203 0.37705 0.32086 0.0
H1960 H 0.96541 0.39375 0.30607 0.0
H1961 H 0.98222 0.40142 0.33627 0.0
H1962 H 0.04752 0.45961 0.30511 0.0
H1963 H 0.03534 0.47518 0.27204 0.0
H1964 H 0.98138 0.42096 0.26158 0.0
C1965 C 0.01367 0.3834 0.31246 0.0
C1966 C 0.03222 0.38665 0.31892 0.0
C1967 C 0.0475 0.4059 0.32461 0.0
C1968 C 0.04465 0.42184 0.32205 0.0
C1969 C 0.02642 0.4183 0.3138 0.0
C1970 C 0.01108 0.39949 0.30941 0.0
C1971 C 0.99402 0.39957 0.29534 0.0
C1972 C 0.98752 0.38729 0.26699 0.0
C1973 C 0.97744 0.39253 0.31587 0.0
C1974 C 0.00265 0.42111 0.29036 0.0
C1975 C 0.02112 0.4318 0.30205 0.0
C1976 C 0.03287 0.45153 0.29666 0.0
C1977 C 0.02586 0.46031 0.27792 0.0
C1978 C 0.00743 0.44925 0.26456 0.0
C1979 C 0.99543 0.42974 0.27198 0.0
H1980 H 0.59607 0.64237 0.2873 0.0
H1981 H 0.63357 0.6261 0.33143 0.0
H1982 H 0.60819 0.5914 0.32612 0.0
H1983 H 0.54927 0.60268 0.31245 0.0
H1984 H 0.53765 0.59999 0.27791 0.0
H1985 H 0.55703 0.6235 0.29049 0.0
H1986 H 0.57541 0.62583 0.24462 0.0
H1987 H 0.55606 0.60254 0.23191 0.0
H1988 H 0.58006 0.60645 0.23521 0.0
H1989 H 0.58076 0.55836 0.30913 0.0
H1990 H 0.55563 0.53087 0.27906 0.0
H1991 H 0.53654 0.56891 0.24571 0.0
C1992 C 0.5988 0.63163 0.29675 0.0
C1993 C 0.61681 0.63707 0.31011 0.0
C1994 C 0.61987 0.62237 0.32134 0.0
C1995 C 0.60547 0.6026 0.31854 0.0
C1996 C 0.58806 0.59774 0.30452 0.0
C1997 C 0.58473 0.61192 0.29382 0.0
C1998 C 0.5661 0.60302 0.27612 0.0
C1999 C 0.55166 0.60757 0.29009 0.0
C2000 C 0.56963 0.60986 0.24516 0.0
C2001 C 0.55974 0.5816 0.27753 0.0
C2002 C 0.57233 0.57875 0.29456 0.0
C2003 C 0.57054 0.56037 0.29643 0.0
C2004 C 0.55612 0.54477 0.27953 0.0
C2005 C 0.5438 0.54772 0.26094 0.0
C2006 C 0.54524 0.56617 0.26077 0.0
H2007 H 0.34645 0.95625 0.28743 0.0
H2008 H 0.37192 0.00791 0.34393 0.0
H2009 H 0.40412 0.01279 0.33535 0.0
H2010 H 0.3802 0.93939 0.30454 0.0
H2011 H 0.38068 0.93202 0.268 0.0
H2012 H 0.35944 0.93129 0.28082 0.0
H2013 H 0.36027 0.95346 0.2403 0.0
H2014 H 0.38111 0.95371 0.22702 0.0
H2015 H 0.38192 0.97636 0.23576 0.0
H2016 H 0.4337 0.01305 0.31873 0.0
H2017 H 0.45811 0.01218 0.28866 0.0
H2018 H 0.41359 0.96099 0.24225 0.0
C2019 C 0.3588 0.9685 0.29817 0.0
C2020 C 0.35666 0.98163 0.31648 0.0
C2021 C 0.3732 0.99769 0.32973 0.0
C2022 C 0.39154 1.00044 0.32528 0.0
C2023 C 0.39315 0.98707 0.30739 0.0
C2024 C 0.37724 0.97163 0.29362 0.0
C2025 C 0.38299 0.96061 0.27306 0.0
C2026 C 0.37537 0.93958 0.28216 0.0
C2027 C 0.37618 0.96108 0.24222 0.0
C2028 C 0.40464 0.97252 0.27691 0.0
C2029 C 0.41023 0.98743 0.29737 0.0
C2030 C 0.42951 0.00125 0.30301 0.0
C2031 C 0.44333 1.0005 0.28615 0.0
C2032 C 0.43773 0.98622 0.26375 0.0
C2033 C 0.41825 0.97158 0.25999 0.0
H2034 H 0.5891 0.95418 0.30233 0.0
H2035 H 0.62413 0.01194 0.34209 0.0
H2036 H 0.59945 0.02028 0.3279 0.0
H2037 H 0.57361 0.96964 0.24185 0.0
H2038 H 0.55006 0.94828 0.23954 0.0
H2039 H 0.56997 0.94684 0.25475 0.0
H2040 H 0.55117 0.93341 0.30086 0.0
H2041 H 0.53138 0.93529 0.28593 0.0
H2042 H 0.54254 0.94733 0.31989 0.0
H2043 H 0.57132 0.02272 0.30729 0.0
H2044 H 0.54463 0.02035 0.27669 0.0
H2045 H 0.52834 0.96116 0.25085 0.0
C2046 C 0.59156 0.96856 0.30822 0.0
C2047 C 0.60852 0.98237 0.32346 0.0
C2048 C 0.61127 0.00112 0.33037 0.0
C2049 C 0.59724 0.00593 0.32264 0.0
C2050 C 0.58055 0.99185 0.30795 0.0
C2051 C 0.57781 0.97364 0.30049 0.0
C2052 C 0.55938 0.96163 0.28278 0.0
C2053 C 0.56351 0.9563 0.25297 0.0
C2054 C 0.54529 0.94333 0.29831 0.0
C2055 C 0.55227 0.97599 0.2811 0.0
C2056 C 0.56448 0.99326 0.2961 0.0
C2057 C 0.5615 0.00916 0.29585 0.0
C2058 C 0.54619 0.00764 0.27874 0.0
C2059 C 0.53424 0.99043 0.26208 0.0
C2060 C 0.53695 0.97424 0.26415 0.0
H2061 H 0.05096 0.63176 0.3002 0.0
H2062 H 0.99571 0.6242 0.32202 0.0
H2063 H 0.98165 0.58851 0.31802 0.0
H2064 H 0.0345 0.59801 0.2467 0.0
H2065 H 0.05102 0.5893 0.25286 0.0
H2066 H 0.05755 0.6136 0.26448 0.0
H2067 H 0.06376 0.60633 0.31614 0.0
H2068 H 0.05704 0.5818 0.30456 0.0
H2069 H 0.04504 0.58587 0.33365 0.0
H2070 H 0.97215 0.55461 0.30121 0.0
H2071 H 0.96826 0.52642 0.27182 0.0
H2072 H 0.02951 0.55555 0.2621 0.0
C2073 C 0.03606 0.62264 0.30519 0.0
C2074 C 0.02449 0.63087 0.31154 0.0
C2075 C 0.00494 0.61832 0.31728 0.0
C2076 C 0.99683 0.59797 0.3152 0.0
C2077 C 0.00848 0.59034 0.30772 0.0
C2078 C 0.02776 0.60234 0.30309 0.0
C2079 C 0.03658 0.59084 0.29121 0.0
C2080 C 0.04541 0.59838 0.2621 0.0
C2081 C 0.05149 0.59123 0.31268 0.0
C2082 C 0.01903 0.57069 0.28813 0.0
C2083 C 0.00301 0.57054 0.29846 0.0
C2084 C 0.98467 0.55432 0.29404 0.0
C2085 C 0.98256 0.53828 0.27755 0.0
C2086 C 0.99869 0.53863 0.26578 0.0
C2087 C 0.01715 0.55464 0.27219 0.0
H2088 H 0.36619 0.41813 0.32114 0.0
H2089 H 0.38007 0.37436 0.34694 0.0
H2090 H 0.4129 0.39449 0.33024 0.0
H2091 H 0.38903 0.42698 0.257 0.0
H2092 H 0.39718 0.4527 0.25761 0.0
H2093 H 0.37612 0.43647 0.27613 0.0
H2094 H 0.39139 0.45734 0.32302 0.0
H2095 H 0.41268 0.47347 0.30457 0.0
H2096 H 0.41451 0.46181 0.33612 0.0
H2097 H 0.44279 0.41732 0.3058 0.0
H2098 H 0.46573 0.4391 0.27093 0.0
H2099 H 0.43226 0.46753 0.26015 0.0
C2100 C 0.37631 0.41303 0.32375 0.0
C2101 C 0.37068 0.39481 0.3353 0.0
C2102 C 0.3841 0.3883 0.338 0.0
C2103 C 0.40285 0.39973 0.32886 0.0
C2104 C 0.40792 0.41758 0.31713 0.0
C2105 C 0.39498 0.42413 0.31436 0.0
C2106 C 0.40314 0.44251 0.29768 0.0
C2107 C 0.39063 0.43947 0.2705 0.0
C2108 C 0.40558 0.45981 0.31648 0.0
C2109 C 0.42238 0.44488 0.29058 0.0
C2110 C 0.42512 0.43066 0.30262 0.0
C2111 C 0.44104 0.4288 0.29678 0.0
C2112 C 0.45405 0.44126 0.27717 0.0
C2113 C 0.45085 0.45514 0.26361 0.0
C2114 C 0.43523 0.45738 0.2711 0.0
H2115 H 0.27973 0.26201 0.37096 0.0
H2116 H 0.33578 0.30548 0.3437 0.0
H2117 H 0.34757 0.28255 0.35087 0.0
H2118 H 0.29516 0.24847 0.42685 0.0
H2119 H 0.27751 0.22286 0.42448 0.0
H2120 H 0.27203 0.24011 0.40934 0.0
H2121 H 0.26418 0.22152 0.3601 0.0
H2122 H 0.26969 0.20412 0.37525 0.0
H2123 H 0.28174 0.21695 0.34413 0.0
H2124 H 0.35534 0.25855 0.37206 0.0
H2125 H 0.35804 0.2363 0.40571 0.0
H2126 H 0.29714 0.20831 0.41863 0.0
C2127 C 0.29425 0.26644 0.36527 0.0
C2128 C 0.30677 0.28556 0.35671 0.0
C2129 C 0.32583 0.29089 0.35017 0.0
C2130 C 0.33265 0.2779 0.35406 0.0
C2131 C 0.32021 0.2595 0.36412 0.0
C2132 C 0.30128 0.25369 0.36924 0.0
C2133 C 0.29165 0.23458 0.38426 0.0
C2134 C 0.28365 0.23666 0.41291 0.0
C2135 C 0.27588 0.21833 0.36476 0.0
C2136 C 0.30846 0.23131 0.38875 0.0
C2137 C 0.3247 0.24548 0.37625 0.0
C2138 C 0.34259 0.24699 0.38109 0.0
C2139 C 0.34402 0.23427 0.4001 0.0
C2140 C 0.3277 0.22045 0.41412 0.0
C2141 C 0.30965 0.21842 0.40735 0.0
H2142 H 0.74131 0.03145 0.38055 0.0
H2143 H 0.69878 0.04584 0.35043 0.0
H2144 H 0.72314 0.08089 0.35506 0.0
H2145 H 0.76063 0.06635 0.43404 0.0
H2146 H 0.78494 0.0715 0.43093 0.0
H2147 H 0.76537 0.048 0.41956 0.0
H2148 H 0.77954 0.05219 0.36927 0.0
H2149 H 0.7991 0.07593 0.38055 0.0
H2150 H 0.78429 0.07324 0.34938 0.0
H2151 H 0.75055 0.11428 0.37129 0.0
H2152 H 0.77712 0.14171 0.39965 0.0
H2153 H 0.80163 0.10541 0.41812 0.0
C2154 C 0.73718 0.04188 0.37403 0.0
C2155 C 0.71807 0.03577 0.36493 0.0
C2156 C 0.71332 0.05006 0.35724 0.0
C2157 C 0.72712 0.07005 0.35971 0.0
C2158 C 0.74569 0.07556 0.36961 0.0
C2159 C 0.75071 0.0618 0.3765 0.0
C2160 C 0.77071 0.07125 0.39017 0.0
C2161 C 0.77037 0.06384 0.42045 0.0
C2162 C 0.78421 0.06796 0.3712 0.0
C2163 C 0.77593 0.09243 0.3911 0.0
C2164 C 0.76152 0.09477 0.37865 0.0
C2165 C 0.76217 0.11271 0.3803 0.0
C2166 C 0.7774 0.12831 0.39618 0.0
C2167 C 0.79165 0.12576 0.41027 0.0
C2168 C 0.79129 0.10788 0.40654 0.0
H2169 H 0.98774 0.7138 0.37933 0.0
H2170 H 0.96106 0.66798 0.31296 0.0
H2171 H 0.92912 0.6619 0.32631 0.0
H2172 H 0.9537 0.68852 0.4307 0.0
H2173 H 0.95448 0.70992 0.44623 0.0
H2174 H 0.97509 0.71204 0.42903 0.0
H2175 H 0.97491 0.73775 0.39595 0.0
H2176 H 0.95401 0.73538 0.4128 0.0
H2177 H 0.95359 0.73164 0.3746 0.0
H2178 H 0.89996 0.65944 0.34875 0.0
H2179 H 0.87617 0.65759 0.38291 0.0
H2180 H 0.92178 0.70434 0.43516 0.0
C2181 C 0.97519 0.70266 0.36737 0.0
C2182 C 0.97689 0.69146 0.34498 0.0
C2183 C 0.9601 0.67673 0.33022 0.0
C2184 C 0.9419 0.67331 0.33745 0.0
C2185 C 0.94071 0.68467 0.35957 0.0
C2186 C 0.95691 0.69887 0.37457 0.0
C2187 C 0.95164 0.70763 0.39937 0.0
C2188 C 0.95916 0.70432 0.42801 0.0
C2189 C 0.95898 0.72939 0.39543 0.0
C2190 C 0.92997 0.69582 0.3964 0.0
C2191 C 0.92391 0.68296 0.37292 0.0
C2192 C 0.90452 0.66963 0.36697 0.0
C2193 C 0.89107 0.66879 0.38628 0.0
C2194 C 0.89718 0.68101 0.41131 0.0
C2195 C 0.91677 0.69514 0.41579 0.0
H2196 H 0.38247 0.00137 0.70171 0.0
H2197 H 0.42102 0.04208 0.64142 0.0
H2198 H 0.44694 0.03682 0.65936 0.0
H2199 H 0.41686 0.0151 0.75961 0.0
H2200 H 0.40762 0.99066 0.77153 0.0
H2201 H 0.39189 0.99716 0.75319 0.0
H2202 H 0.38239 0.9688 0.71592 0.0
H2203 H 0.39833 0.9624 0.73401 0.0
H2204 H 0.40083 0.96754 0.69655 0.0
H2205 H 0.46949 0.02889 0.68592 0.0
H2206 H 0.48697 0.01993 0.72085 0.0
H2207 H 0.4334 0.98227 0.76106 0.0
C2208 C 0.39636 0.00917 0.69233 0.0
C2209 C 0.39967 0.02216 0.67016 0.0
C2210 C 0.41806 0.032 0.65836 0.0
C2211 C 0.43292 0.02907 0.66833 0.0
C2212 C 0.42918 0.01604 0.68994 0.0
C2213 C 0.41136 0.00621 0.7018 0.0
C2214 C 0.41135 0.99338 0.72531 0.0
C2215 C 0.40666 0.99945 0.75411 0.0
C2216 C 0.39739 0.97175 0.71746 0.0
C2217 C 0.43202 0.99797 0.72525 0.0
C2218 C 0.44206 0.01098 0.70459 0.0
C2219 C 0.46173 0.01847 0.70194 0.0
C2220 C 0.47153 0.01314 0.72171 0.0
C2221 C 0.46166 1.00044 0.74382 0.0
C2222 C 0.44148 0.99214 0.7446 0.0
H2223 H 0.99967 0.37729 0.71447 0.0
H2224 H 0.93989 0.35641 0.69183 0.0
H2225 H 0.94564 0.38996 0.69736 0.0
H2226 H 0.00262 0.40714 0.76966 0.0
H2227 H 0.02689 0.42628 0.76475 0.0
H2228 H 0.0193 0.40181 0.75233 0.0
H2229 H 0.02973 0.41388 0.7013 0.0
H2230 H 0.03731 0.43849 0.71365 0.0
H2231 H 0.02028 0.42749 0.68382 0.0
H2232 H 0.95627 0.42423 0.71347 0.0
H2233 H 0.97025 0.4553 0.74186 0.0
H2234 H 0.02315 0.45429 0.75424 0.0
C2235 C 0.98801 0.37994 0.70954 0.0
C2236 C 0.96941 0.36432 0.70233 0.0
C2237 C 0.9543 0.36821 0.69717 0.0
C2238 C 0.95746 0.38725 0.70008 0.0
C2239 C 0.97582 0.40229 0.7082 0.0
C2240 C 0.99088 0.39885 0.71282 0.0
C2241 C 0.00842 0.41686 0.72561 0.0
C2242 C 0.01465 0.41277 0.7548 0.0
C2243 C 0.02491 0.42464 0.70485 0.0
C2244 C 0.0006 0.43061 0.72879 0.0
C2245 C 0.98193 0.42214 0.71794 0.0
C2246 C 0.97103 0.43122 0.72139 0.0
C2247 C 0.97912 0.44895 0.73739 0.0
C2248 C 0.99782 0.45726 0.75003 0.0
C2249 C 0.00891 0.44837 0.74446 0.0
H2250 H 0.64093 0.60925 0.69758 0.0
H2251 H 0.61237 0.63275 0.64613 0.0
H2252 H 0.58127 0.60883 0.66516 0.0
H2253 H 0.60275 0.55833 0.69004 0.0
H2254 H 0.60637 0.55324 0.72625 0.0
H2255 H 0.62624 0.57158 0.70747 0.0
H2256 H 0.63281 0.59721 0.74813 0.0
H2257 H 0.61317 0.57889 0.76715 0.0
H2258 H 0.61366 0.60119 0.75878 0.0
H2259 H 0.55353 0.58382 0.6929 0.0
H2260 H 0.53229 0.56108 0.7286 0.0
H2261 H 0.57883 0.5528 0.75889 0.0
C2262 C 0.62814 0.60933 0.69025 0.0
C2263 C 0.62908 0.62287 0.67042 0.0
C2264 C 0.61199 0.62247 0.6613 0.0
C2265 C 0.59423 0.60889 0.67187 0.0
C2266 C 0.59377 0.59563 0.69126 0.0
C2267 C 0.6103 0.59575 0.70031 0.0
C2268 C 0.6061 0.58053 0.72213 0.0
C2269 C 0.61063 0.565 0.71078 0.0
C2270 C 0.61708 0.59002 0.75073 0.0
C2271 C 0.58475 0.57219 0.72453 0.0
C2272 C 0.57779 0.58093 0.70646 0.0
C2273 C 0.55874 0.57663 0.70681 0.0
C2274 C 0.54673 0.56361 0.72695 0.0
C2275 C 0.55394 0.5552 0.74635 0.0
C2276 C 0.57293 0.55898 0.74418 0.0
H2277 H 0.7131 0.74238 0.64487 0.0
H2278 H 0.65659 0.69254 0.65545 0.0
H2279 H 0.64244 0.71366 0.65065 0.0
H2280 H 0.70302 0.78123 0.6782 0.0
H2281 H 0.7175 0.79822 0.65203 0.0
H2282 H 0.72367 0.78079 0.66518 0.0
H2283 H 0.72292 0.76837 0.61315 0.0
H2284 H 0.71689 0.78571 0.60003 0.0
H2285 H 0.70157 0.76017 0.59065 0.0
H2286 H 0.63384 0.73726 0.63109 0.0
H2287 H 0.63205 0.76078 0.59919 0.0
H2288 H 0.69383 0.79585 0.60297 0.0
C2289 C 0.69784 0.73606 0.64736 0.0
C2290 C 0.68597 0.71582 0.65047 0.0
C2291 C 0.66602 0.70804 0.65329 0.0
C2292 C 0.65785 0.71997 0.65067 0.0
C2293 C 0.66985 0.73972 0.64587 0.0
C2294 C 0.68952 0.74777 0.6448 0.0
C2295 C 0.69901 0.76843 0.63477 0.0
C2296 C 0.71154 0.78303 0.659 0.0
C2297 C 0.71075 0.77077 0.60808 0.0
C2298 C 0.68152 0.77017 0.62787 0.0
C2299 C 0.66482 0.7537 0.63523 0.0
C2300 C 0.64678 0.75056 0.62633 0.0
C2301 C 0.64584 0.76401 0.60836 0.0
C2302 C 0.66281 0.78031 0.5996 0.0
C2303 C 0.68073 0.7839 0.61062 0.0
H2304 H 0.26784 0.96822 0.62235 0.0
H2305 H 0.31495 0.95836 0.64286 0.0
H2306 H 0.29275 0.92275 0.63716 0.0
H2307 H 0.22929 0.92377 0.6559 0.0
H2308 H 0.21211 0.92025 0.6277 0.0
H2309 H 0.23093 0.94452 0.63836 0.0
H2310 H 0.2418 0.95073 0.58606 0.0
H2311 H 0.22295 0.92667 0.57532 0.0
H2312 H 0.24744 0.93406 0.56783 0.0
H2313 H 0.26658 0.88871 0.62024 0.0
H2314 H 0.23964 0.86049 0.59364 0.0
H2315 H 0.20952 0.89255 0.58667 0.0
C2316 C 0.27346 0.95861 0.62639 0.0
C2317 C 0.29319 0.96616 0.63309 0.0
C2318 C 0.2999 0.95298 0.63794 0.0
C2319 C 0.28735 0.9327 0.63478 0.0
C2320 C 0.26806 0.92578 0.62732 0.0
C2321 C 0.26115 0.93842 0.62354 0.0
C2322 C 0.24039 0.92768 0.61278 0.0
C2323 C 0.22742 0.92914 0.63502 0.0
C2324 C 0.23803 0.93523 0.58379 0.0
C2325 C 0.23686 0.90709 0.60973 0.0
C2326 C 0.25286 0.90614 0.61861 0.0
C2327 C 0.25377 0.88914 0.61418 0.0
C2328 C 0.23834 0.87308 0.59932 0.0
C2329 C 0.22223 0.87413 0.58924 0.0
C2330 C 0.22126 0.89109 0.5955 0.0
H2331 H 0.03529 0.33866 0.64255 0.0
H2332 H 0.03949 0.30478 0.71094 0.0
H2333 H 0.06975 0.30942 0.69247 0.0
H2334 H 0.05267 0.32088 0.58823 0.0
H2335 H 0.06617 0.34386 0.57138 0.0
H2336 H 0.0454 0.33894 0.59101 0.0
H2337 H 0.06598 0.37036 0.62258 0.0
H2338 H 0.08685 0.37533 0.60305 0.0
H2339 H 0.08728 0.37377 0.64139 0.0
H2340 H 0.09786 0.31489 0.66399 0.0
H2341 H 0.12168 0.32106 0.62756 0.0
H2342 H 0.10129 0.35415 0.58042 0.0
C2343 C 0.04267 0.33237 0.65374 0.0
C2344 C 0.03497 0.32134 0.67818 0.0
C2345 C 0.04509 0.31336 0.69224 0.0
C2346 C 0.06235 0.31593 0.68195 0.0
C2347 C 0.06954 0.3268 0.6578 0.0
C2348 C 0.06014 0.33505 0.644 0.0
C2349 C 0.07073 0.34559 0.61796 0.0
C2350 C 0.05798 0.33678 0.59053 0.0
C2351 C 0.07815 0.36757 0.62147 0.0
C2352 C 0.08712 0.34139 0.61883 0.0
C2353 C 0.08624 0.3306 0.64202 0.0
C2354 C 0.09894 0.32366 0.646 0.0
C2355 C 0.11255 0.32738 0.62527 0.0
C2356 C 0.11342 0.338 0.60088 0.0
C2357 C 0.10092 0.34568 0.59843 0.0
H2358 H 0.27552 0.3152 0.64827 0.0
H2359 H 0.27957 0.34916 0.7248 0.0
H2360 H 0.2513 0.35088 0.7074 0.0
H2361 H 0.26241 0.3403 0.59976 0.0
H2362 H 0.24613 0.31878 0.57842 0.0
H2363 H 0.26603 0.31965 0.59793 0.0
H2364 H 0.24244 0.28803 0.62286 0.0
H2365 H 0.22243 0.28734 0.60377 0.0
H2366 H 0.22305 0.28726 0.64227 0.0
H2367 H 0.22416 0.35131 0.67931 0.0
H2368 H 0.20215 0.3518 0.64184 0.0
H2369 H 0.21411 0.31512 0.58617 0.0
C2370 C 0.27047 0.32299 0.66138 0.0
C2371 C 0.27982 0.33213 0.68784 0.0
C2372 C 0.27264 0.34205 0.70444 0.0
C2373 C 0.25652 0.34302 0.69482 0.0
C2374 C 0.24749 0.33368 0.66876 0.0
C2375 C 0.25421 0.32382 0.65233 0.0
C2376 C 0.24242 0.31563 0.62465 0.0
C2377 C 0.255 0.3241 0.59867 0.0
C2378 C 0.23197 0.29323 0.62333 0.0
C2379 C 0.22843 0.32296 0.62763 0.0
C2380 C 0.23142 0.33322 0.65328 0.0
C2381 C 0.22142 0.34298 0.65939 0.0
C2382 C 0.20879 0.34303 0.63814 0.0
C2383 C 0.20636 0.33342 0.61124 0.0
C2384 C 0.21556 0.32244 0.60669 0.0
H2385 H 0.66752 0.95493 0.6379 0.0
H2386 H 0.72654 0.97441 0.66344 0.0
H2387 H 0.72021 0.94069 0.65762 0.0
H2388 H 0.64522 0.90276 0.66559 0.0
H2389 H 0.62909 0.8933 0.63454 0.0
H2390 H 0.63637 0.91729 0.64943 0.0
H2391 H 0.64823 0.93179 0.60001 0.0
H2392 H 0.64114 0.90802 0.58512 0.0
H2393 H 0.66556 0.92749 0.58262 0.0
H2394 H 0.71004 0.90736 0.63804 0.0
H2395 H 0.69727 0.87824 0.6054 0.0
H2396 H 0.64484 0.87996 0.59194 0.0
C2397 C 0.67877 0.95186 0.64381 0.0
C2398 C 0.69741 0.96718 0.65161 0.0
C2399 C 0.71208 0.96282 0.65783 0.0
C2400 C 0.70859 0.94367 0.65465 0.0
C2401 C 0.69033 0.929 0.64526 0.0
C2402 C 0.67557 0.93285 0.64021 0.0
C2403 C 0.6584 0.9155 0.62533 0.0
C2404 C 0.64126 0.90669 0.6449 0.0
C2405 C 0.65305 0.92104 0.59658 0.0
C2406 C 0.66627 0.90189 0.62099 0.0
C2407 C 0.68449 0.90963 0.63341 0.0
C2408 C 0.69557 0.90086 0.62897 0.0
C2409 C 0.6882 0.88426 0.61048 0.0
C2410 C 0.67004 0.87681 0.59637 0.0
C2411 C 0.65867 0.88524 0.60282 0.0
H2412 H 0.0599 0.70618 0.65925 0.0
H2413 H 0.02724 0.73602 0.66065 0.0
H2414 H 0.05562 0.76615 0.64589 0.0
H2415 H 0.10719 0.74802 0.68193 0.0
H2416 H 0.1198 0.74113 0.65726 0.0
H2417 H 0.09791 0.72268 0.67199 0.0
H2418 H 0.08291 0.70969 0.62092 0.0
H2419 H 0.10494 0.72769 0.60628 0.0
H2420 H 0.08269 0.72641 0.59569 0.0
H2421 H 0.08656 0.79224 0.62797 0.0
H2422 H 0.11498 0.80983 0.59872 0.0
H2423 H 0.12718 0.76288 0.60677 0.0
C2424 C 0.05885 0.71915 0.65673 0.0
C2425 C 0.04147 0.71886 0.66123 0.0
C2426 C 0.04043 0.73594 0.65718 0.0
C2427 C 0.05655 0.75319 0.64922 0.0
C2428 C 0.07356 0.75309 0.64518 0.0
C2429 C 0.0747 0.73639 0.6482 0.0
C2430 C 0.09378 0.73937 0.63878 0.0
C2431 C 0.10535 0.7377 0.664 0.0
C2432 C 0.0909 0.72495 0.61394 0.0
C2433 C 0.10297 0.76015 0.62914 0.0
C2434 C 0.09133 0.76803 0.63392 0.0
C2435 C 0.09597 0.78639 0.62457 0.0
C2436 C 0.11227 0.79643 0.60832 0.0
C2437 C 0.12344 0.78788 0.6013 0.0
C2438 C 0.11924 0.76998 0.61293 0.0
H2439 H 0.01207 0.63811 0.70999 0.0
H2440 H 0.95872 0.59889 0.66388 0.0
H2441 H 0.96638 0.57247 0.66601 0.0
H2442 H 0.04115 0.61349 0.68556 0.0
H2443 H 0.05191 0.61749 0.72107 0.0
H2444 H 0.04618 0.63494 0.70667 0.0
H2445 H 0.02599 0.63167 0.75067 0.0
H2446 H 0.03172 0.61443 0.76506 0.0
H2447 H 0.00697 0.60786 0.75947 0.0
H2448 H 0.97495 0.5488 0.68376 0.0
H2449 H 0.98179 0.53011 0.71884 0.0
H2450 H 0.02914 0.5837 0.75548 0.0
C2451 C 0.00265 0.62425 0.69892 0.0
C2452 C 0.9851 0.62056 0.6861 0.0
C2453 C 0.97244 0.60201 0.67322 0.0
C2454 C 0.97674 0.58696 0.67424 0.0
C2455 C 0.9937 0.59064 0.68848 0.0
C2456 C 0.00653 0.60892 0.70055 0.0
C2457 C 0.02135 0.60809 0.72006 0.0
C2458 C 0.04133 0.61916 0.70758 0.0
C2459 C 0.02148 0.61595 0.75059 0.0
C2460 C 0.01387 0.58634 0.7191 0.0
C2461 C 0.99844 0.5766 0.69976 0.0
C2462 C 0.98738 0.55626 0.69827 0.0
C2463 C 0.99141 0.54569 0.71815 0.0
C2464 C 0.00614 0.55554 0.73945 0.0
C2465 C 0.01816 0.57594 0.73878 0.0
H2466 H 0.40866 0.36776 0.71483 0.0
H2467 H 0.36739 0.38192 0.67836 0.0
H2468 H 0.39195 0.41696 0.68232 0.0
H2469 H 0.42614 0.40335 0.76717 0.0
H2470 H 0.45053 0.40832 0.76693 0.0
H2471 H 0.43127 0.38472 0.75521 0.0
H2472 H 0.44741 0.38812 0.70672 0.0
H2473 H 0.46667 0.41196 0.71832 0.0
H2474 H 0.45312 0.40889 0.6855 0.0
H2475 H 0.41909 0.4504 0.69806 0.0
H2476 H 0.44456 0.47817 0.72721 0.0
H2477 H 0.4678 0.4421 0.75367 0.0
C2478 C 0.40489 0.37811 0.70671 0.0
C2479 C 0.38607 0.37196 0.69596 0.0
C2480 C 0.38171 0.38618 0.68641 0.0
C2481 C 0.39563 0.40614 0.68847 0.0
C2482 C 0.41389 0.4117 0.70001 0.0
C2483 C 0.41849 0.39801 0.70894 0.0
C2484 C 0.43797 0.40756 0.72442 0.0
C2485 C 0.43637 0.40058 0.75524 0.0
C2486 C 0.45213 0.40391 0.70774 0.0
C2487 C 0.44336 0.42878 0.72398 0.0
C2488 C 0.42952 0.43097 0.70919 0.0
C2489 C 0.43027 0.44893 0.70892 0.0
C2490 C 0.4449 0.46472 0.72527 0.0
C2491 C 0.45851 0.4624 0.74172 0.0
C2492 C 0.45813 0.44444 0.7401 0.0
H2493 H 0.6113 0.98364 0.66228 0.0
H2494 H 0.65732 0.0409 0.69113 0.0
H2495 H 0.63384 0.04795 0.71311 0.0
H2496 H 0.57392 0.99663 0.64903 0.0
H2497 H 0.55531 0.97446 0.66329 0.0
H2498 H 0.57528 0.97465 0.64646 0.0
H2499 H 0.58302 0.96156 0.69217 0.0
H2500 H 0.5628 0.96086 0.70867 0.0
H2501 H 0.58628 0.9743 0.72609 0.0
H2502 H 0.60599 0.04822 0.73434 0.0
H2503 H 0.57681 0.03935 0.761 0.0
H2504 H 0.54892 0.98161 0.72051 0.0
C2505 C 0.61636 0.99772 0.673 0.0
C2506 C 0.63608 0.01177 0.67489 0.0
C2507 C 0.64226 0.02989 0.68955 0.0
C2508 C 0.62901 0.03413 0.70175 0.0
C2509 C 0.60962 0.02005 0.69932 0.0
C2510 C 0.60333 0.00205 0.68582 0.0
C2511 C 0.58206 0.98863 0.68934 0.0
C2512 C 0.57099 0.98328 0.6603 0.0
C2513 C 0.57833 0.97027 0.70501 0.0
C2514 C 0.5775 0.00171 0.70757 0.0
C2515 C 0.59349 0.01999 0.71234 0.0
C2516 C 0.59327 0.03411 0.73036 0.0
C2517 C 0.5766 0.02907 0.74515 0.0
C2518 C 0.56055 0.01006 0.74196 0.0
C2519 C 0.56076 0.99647 0.72222 0.0
loop_
_geom_bond_atom_site_label_1
_geom_bond_atom_site_label_2
_geom_bond_distance
_geom_bond_site_symmetry_2
_ccdc_geom_bond_type
Mg0 O1 2.028 1_556 S
Mg0 O7 1.986 1_455 S
Mg0 O9 2.114 . S
Mg0 O10 2.251 1_455 S
Mg0 O13 2.010 1_556 S
O1 Mg0 2.028 1_554 S
O1 C4 1.250 1_455 S
O2 Mg3 2.028 1_554 S
O2 C4 1.248 . S
Mg3 O2 2.028 1_556 S
Mg3 O8 2.032 . S
Mg3 O10 2.079 . S
C4 O1 1.250 1_655 S
C4 O2 1.248 . S
C5 O6 1.264 1_554 S
C5 O13 1.249 . S
O6 C5 1.264 1_556 S
O7 Mg0 1.986 1_655 S
O7 C11 1.246 . S
O8 Mg3 2.032 . S
O8 C11 1.259 . S
O9 Mg0 2.114 . S
O9 C12 1.252 . S
O10 Mg0 2.251 1_655 S
O10 Mg3 2.079 . S
O10 C12 1.273 1_655 S
C11 O7 1.246 . S
C11 O8 1.259 . S
C12 O9 1.252 . S
C12 O10 1.273 1_455 S
O13 Mg0 2.010 1_554 S
O13 C5 1.249 . S
Mg14 O15 2.028 1_554 S
Mg14 O21 1.986 . S
Mg14 O23 2.114 . S
Mg14 O24 2.251 . S
Mg14 O27 2.010 . S
O15 Mg14 2.028 1_556 S
O15 C18 1.250 . S
O16 Mg17 2.028 1_556 S
O16 C18 1.248 . S
Mg17 O16 2.028 1_554 S
Mg17 O22 2.032 . S
Mg17 O24 2.079 . S
C18 O15 1.250 . S
C18 O16 1.248 . S
C19 O20 1.264 . S
C19 O27 1.249 . S
O20 C19 1.264 . S
O21 Mg14 1.986 . S
O21 C25 1.246 . S
O22 Mg17 2.032 . S
O22 C25 1.259 . S
O23 Mg14 2.114 . S
O23 C26 1.252 . S
O24 Mg14 2.251 . S
O24 Mg17 2.079 . S
O24 C26 1.273 . S
C25 O21 1.246 . S
C25 O22 1.259 . S
C26 O23 1.252 . S
C26 O24 1.273 . S
O27 Mg14 2.010 . S
O27 C19 1.249 . S
Mg28 O29 2.023 1_556 S
Mg28 O35 1.986 1_565 S
Mg28 O37 2.114 . S
Mg28 O38 2.251 1_565 S
Mg28 O41 2.010 1_556 S
O29 Mg28 2.023 1_554 S
O29 C32 1.244 1_565 S
O30 Mg31 2.028 1_554 S
O30 C32 1.248 . S
Mg31 O30 2.028 1_556 S
Mg31 O36 2.032 . S
Mg31 O38 2.079 . S
C32 O29 1.244 1_545 S
C32 O30 1.248 . S
C33 O34 1.264 1_554 S
C33 O41 1.249 . S
O34 C33 1.264 1_556 S
O35 Mg28 1.986 1_545 S
O35 C39 1.246 . S
O36 Mg31 2.032 . S
O36 C39 1.259 . S
O37 Mg28 2.114 . S
O37 C40 1.252 . S
O38 Mg28 2.251 1_545 S
O38 Mg31 2.079 . S
O38 C40 1.273 1_545 S
C39 O35 1.246 . S
C39 O36 1.259 . S
C40 O37 1.252 . S
C40 O38 1.273 1_565 S
O41 Mg28 2.010 1_554 S
O41 C33 1.249 . S
Mg42 O43 2.028 1_554 S
Mg42 O49 1.986 1_655 S
Mg42 O51 2.114 . S
Mg42 O52 2.251 1_655 S
Mg42 O55 2.010 . S
O43 Mg42 2.028 1_556 S
O43 C46 1.250 1_655 S
O44 Mg45 2.028 1_556 S
O44 C46 1.248 . S
Mg45 O44 2.028 1_554 S
Mg45 O50 2.032 . S
Mg45 O52 2.079 . S
C46 O43 1.250 1_455 S
C46 O44 1.248 . S
C47 O48 1.264 . S
C47 O55 1.249 . S
O48 C47 1.264 . S
O49 Mg42 1.986 1_455 S
O49 C53 1.246 . S
O50 Mg45 2.032 . S
O50 C53 1.259 . S
O51 Mg42 2.114 . S
O51 C54 1.252 . S
O52 Mg42 2.251 1_455 S
O52 Mg45 2.079 . S
O52 C54 1.273 1_455 S
C53 O49 1.246 . S
C53 O50 1.259 . S
C54 O51 1.252 . S
C54 O52 1.273 1_655 S
O55 Mg42 2.010 . S
O55 C47 1.249 . S
Mg56 O57 2.028 1_556 S
Mg56 O63 1.986 . S
Mg56 O65 2.114 . S
Mg56 O66 2.251 . S
Mg56 O69 2.010 1_556 S
O57 Mg56 2.028 1_554 S
O57 C60 1.250 . S
O58 Mg59 2.028 1_554 S
O58 C60 1.248 . S
Mg59 O58 2.028 1_556 S
Mg59 O64 2.032 . S
Mg59 O66 2.079 . S
C60 O57 1.250 . S
C60 O58 1.248 . S
C61 O62 1.264 . S
C61 O69 1.249 . S
O62 C61 1.264 . S
O63 Mg56 1.986 . S
O63 C67 1.246 . S
O64 Mg59 2.032 . S
O64 C67 1.259 . S
O65 Mg56 2.114 . S
O65 C68 1.252 . S
O66 Mg56 2.251 . S
O66 Mg59 2.079 . S
O66 C68 1.273 . S
C67 O63 1.246 . S
C67 O64 1.259 . S
C68 O65 1.252 . S
C68 O66 1.273 . S
O69 Mg56 2.010 1_554 S
O69 C61 1.249 . S
Mg70 O71 2.028 1_554 S
Mg70 O77 1.986 1_545 S
Mg70 O79 2.114 . S
Mg70 O80 2.251 1_545 S
Mg70 O83 2.010 . S
O71 Mg70 2.028 1_556 S
O71 C74 1.250 1_545 S
O72 Mg73 2.028 1_556 S
O72 C74 1.248 . S
Mg73 O72 2.028 1_554 S
Mg73 O78 2.032 . S
Mg73 O80 2.079 . S
C74 O71 1.250 1_565 S
C74 O72 1.248 . S
C75 O76 1.264 . S
C75 O83 1.249 . S
O76 C75 1.264 . S
O77 Mg70 1.986 1_565 S
O77 C81 1.246 . S
O78 Mg73 2.032 . S
O78 C81 1.259 . S
O79 Mg70 2.114 . S
O79 C82 1.252 . S
O80 Mg70 2.251 1_565 S
O80 Mg73 2.079 . S
O80 C82 1.273 1_565 S
C81 O77 1.246 . S
C81 O78 1.259 . S
C82 O79 1.252 . S
C82 O80 1.273 1_545 S
O83 Mg70 2.010 . S
O83 C75 1.249 . S
Mg84 O85 2.028 . S
Mg84 O91 1.986 . S
Mg84 O93 2.114 . S
Mg84 O94 2.251 . S
Mg84 O97 2.010 . S
O85 Mg84 2.028 . S
O85 C88 1.250 . S
O86 Mg87 2.028 . S
O86 C88 1.248 . S
Mg87 O86 2.028 . S
Mg87 O92 2.032 . S
Mg87 O94 2.079 . S
C88 O85 1.250 . S
C88 O86 1.248 . S
C89 O90 1.264 . S
C89 O97 1.249 . S
O90 C89 1.264 . S
O91 Mg84 1.986 . S
O91 C95 1.246 . S
O92 Mg87 2.032 . S
O92 C95 1.259 . S
O93 Mg84 2.114 . S
O93 C96 1.252 . S
O94 Mg84 2.251 . S
O94 Mg87 2.079 . S
O94 C96 1.273 . S
C95 O91 1.246 . S
C95 O92 1.259 . S
C96 O93 1.252 . S
C96 O94 1.273 . S
O97 Mg84 2.010 . S
O97 C89 1.249 . S
Mg98 O99 2.028 . S
Mg98 O105 1.986 1_565 S
Mg98 O107 2.114 . S
Mg98 O108 2.251 . S
Mg98 O111 2.010 . S
O99 Mg98 2.028 . S
O99 C102 1.250 . S
O100 Mg101 2.028 . S
O100 C102 1.248 . S
Mg101 O100 2.028 . S
Mg101 O106 2.032 1_565 S
Mg101 O108 2.079 . S
C102 O99 1.250 . S
C102 O100 1.248 . S
C103 O104 1.264 . S
C103 O111 1.249 . S
O104 C103 1.264 . S
O105 Mg98 1.986 1_545 S
O105 C109 1.246 . S
O106 Mg101 2.032 1_545 S
O106 C109 1.259 . S
O107 Mg98 2.114 . S
O107 C110 1.252 . S
O108 Mg98 2.251 . S
O108 Mg101 2.079 . S
O108 C110 1.273 . S
C109 O105 1.246 . S
C109 O106 1.259 . S
C110 O107 1.252 . S
C110 O108 1.273 . S
O111 Mg98 2.010 . S
O111 C103 1.249 . S
Mg112 O113 2.028 . S
Mg112 O119 1.986 . S
Mg112 O121 2.114 . S
Mg112 O122 2.251 . S
Mg112 O125 2.010 1_455 S
O113 Mg112 2.028 . S
O113 C116 1.250 . S
O114 Mg115 2.028 . S
O114 C116 1.248 . S
Mg115 O114 2.028 . S
Mg115 O120 2.032 . S
Mg115 O122 2.079 . S
C116 O113 1.250 . S
C116 O114 1.248 . S
C117 O118 1.264 . S
C117 O125 1.249 . S
O118 C117 1.264 . S
O119 Mg112 1.986 . S
O119 C123 1.246 . S
O120 Mg115 2.032 . S
O120 C123 1.259 . S
O121 Mg112 2.114 . S
O121 C124 1.252 . S
O122 Mg112 2.251 . S
O122 Mg115 2.079 . S
O122 C124 1.273 . S
C123 O119 1.246 . S
C123 O120 1.259 . S
C124 O121 1.252 . S
C124 O122 1.273 . S
O125 Mg112 2.010 1_655 S
O125 C117 1.249 . S
Mg126 O127 2.028 . S
Mg126 O133 1.986 1_565 S
Mg126 O135 2.114 . S
Mg126 O136 2.251 . S
Mg126 O139 2.010 . S
O127 Mg126 2.028 . S
O127 C130 1.250 . S
O128 Mg129 2.028 . S
O128 C130 1.248 . S
Mg129 O128 2.028 . S
Mg129 O134 2.032 1_565 S
Mg129 O136 2.079 . S
C130 O127 1.250 . S
C130 O128 1.248 . S
C131 O132 1.264 . S
C131 O139 1.249 . S
O132 C131 1.264 . S
O133 Mg126 1.986 1_545 S
O133 C137 1.246 . S
O134 Mg129 2.032 1_545 S
O134 C137 1.259 . S
O135 Mg126 2.114 . S
O135 C138 1.252 . S
O136 Mg126 2.251 . S
O136 Mg129 2.079 . S
O136 C138 1.273 . S
C137 O133 1.246 . S
C137 O134 1.259 . S
C138 O135 1.252 . S
C138 O136 1.273 . S
O139 Mg126 2.010 . S
O139 C131 1.249 . S
Mg140 O141 2.028 . S
Mg140 O147 1.986 . S
Mg140 O149 2.114 . S
Mg140 O150 2.251 . S
Mg140 O153 2.010 1_455 S
O141 Mg140 2.028 . S
O141 C144 1.250 . S
O142 Mg143 2.028 . S
O142 C144 1.248 . S
Mg143 O142 2.028 . S
Mg143 O148 2.032 . S
Mg143 O150 2.079 . S
C144 O141 1.250 . S
C144 O142 1.248 . S
C145 O146 1.264 . S
C145 O153 1.249 . S
O146 C145 1.264 . S
O147 Mg140 1.986 . S
O147 C151 1.246 . S
O148 Mg143 2.032 . S
O148 C151 1.259 . S
O149 Mg140 2.114 . S
O149 C152 1.252 . S
O150 Mg140 2.251 . S
O150 Mg143 2.079 . S
O150 C152 1.273 . S
C151 O147 1.246 . S
C151 O148 1.259 . S
C152 O149 1.252 . S
C152 O150 1.273 . S
O153 Mg140 2.010 1_655 S
O153 C145 1.249 . S
Mg154 O155 2.028 . S
Mg154 O161 1.986 . S
Mg154 O163 2.114 . S
Mg154 O164 2.251 . S
Mg154 O167 2.010 . S
O155 Mg154 2.028 . S
O155 C158 1.250 . S
O156 Mg157 2.028 . S
O156 C158 1.248 . S
Mg157 O156 2.028 . S
Mg157 O162 2.032 . S
Mg157 O164 2.079 . S
C158 O155 1.250 . S
C158 O156 1.248 . S
C159 O160 1.264 . S
C159 O167 1.249 . S
O160 C159 1.264 . S
O161 Mg154 1.986 . S
O161 C165 1.246 . S
O162 Mg157 2.032 . S
O162 C165 1.259 . S
O163 Mg154 2.114 . S
O163 C166 1.252 . S
O164 Mg154 2.251 . S
O164 Mg157 2.079 . S
O164 C166 1.273 . S
C165 O161 1.246 . S
C165 O162 1.259 . S
C166 O163 1.252 . S
C166 O164 1.273 . S
O167 Mg154 2.010 . S
O167 C159 1.249 . S
Mg168 O169 2.028 . S
Mg168 O175 1.986 1_545 S
Mg168 O177 2.114 . S
Mg168 O178 2.251 . S
Mg168 O181 2.010 . S
O169 Mg168 2.028 . S
O169 C172 1.250 . S
O170 Mg171 2.028 . S
O170 C172 1.248 . S
Mg171 O170 2.028 . S
Mg171 O176 2.032 1_545 S
Mg171 O178 2.079 . S
C172 O169 1.250 . S
C172 O170 1.248 . S
C173 O174 1.264 . S
C173 O181 1.249 . S
O174 C173 1.264 . S
O175 Mg168 1.986 1_565 S
O175 C179 1.246 . S
O176 Mg171 2.032 1_565 S
O176 C179 1.259 . S
O177 Mg168 2.114 . S
O177 C180 1.252 . S
O178 Mg168 2.251 . S
O178 Mg171 2.079 . S
O178 C180 1.273 . S
C179 O175 1.246 . S
C179 O176 1.259 . S
C180 O177 1.252 . S
C180 O178 1.273 . S
O181 Mg168 2.010 . S
O181 C173 1.249 . S
Mg182 O183 2.028 . S
Mg182 O189 1.986 . S
Mg182 O191 2.114 . S
Mg182 O192 2.251 . S
Mg182 O195 2.010 1_655 S
O183 Mg182 2.028 . S
O183 C186 1.250 . S
O184 Mg185 2.028 . S
O184 C186 1.248 . S
Mg185 O184 2.028 . S
Mg185 O190 2.032 . S
Mg185 O192 2.079 . S
C186 O183 1.250 . S
C186 O184 1.248 . S
C187 O188 1.264 . S
C187 O195 1.249 . S
O188 C187 1.264 . S
O189 Mg182 1.986 . S
O189 C193 1.246 . S
O190 Mg185 2.032 . S
O190 C193 1.259 . S
O191 Mg182 2.114 . S
O191 C194 1.252 . S
O192 Mg182 2.251 . S
O192 Mg185 2.079 . S
O192 C194 1.273 . S
C193 O189 1.246 . S
C193 O190 1.259 . S
C194 O191 1.252 . S
C194 O192 1.273 . S
O195 Mg182 2.010 1_455 S
O195 C187 1.249 . S
Mg196 O197 2.028 . S
Mg196 O203 1.986 . S
Mg196 O205 2.114 . S
Mg196 O206 2.251 . S
Mg196 O209 2.010 . S
O197 Mg196 2.028 . S
O197 C200 1.250 . S
O198 Mg199 2.028 . S
O198 C200 1.248 . S
Mg199 O198 2.028 . S
Mg199 O204 2.032 . S
Mg199 O206 2.079 . S
C200 O197 1.250 . S
C200 O198 1.248 . S
C201 O202 1.264 . S
C201 O209 1.249 . S
O202 C201 1.264 . S
O203 Mg196 1.986 . S
O203 C207 1.246 . S
O204 Mg199 2.032 . S
O204 C207 1.259 . S
O205 Mg196 2.114 . S
O205 C208 1.252 . S
O206 Mg196 2.251 . S
O206 Mg199 2.079 . S
O206 C208 1.273 . S
C207 O203 1.246 . S
C207 O204 1.259 . S
C208 O205 1.252 . S
C208 O206 1.273 . S
O209 Mg196 2.010 . S
O209 C201 1.249 . S
Mg210 O211 2.028 . S
Mg210 O217 1.986 . S
Mg210 O219 2.114 . S
Mg210 O220 2.251 . S
Mg210 O223 2.010 . S
O211 Mg210 2.028 . S
O211 C214 1.250 . S
O212 Mg213 2.028 . S
O212 C214 1.248 . S
Mg213 O212 2.028 . S
Mg213 O218 2.032 . S
Mg213 O220 2.079 . S
C214 O211 1.250 . S
C214 O212 1.248 . S
C215 O216 1.264 . S
C215 O223 1.249 . S
O216 C215 1.264 . S
O217 Mg210 1.986 . S
O217 C221 1.246 . S
O218 Mg213 2.032 . S
O218 C221 1.259 . S
O219 Mg210 2.114 . S
O219 C222 1.252 . S
O220 Mg210 2.251 . S
O220 Mg213 2.079 . S
O220 C222 1.273 . S
C221 O217 1.246 . S
C221 O218 1.259 . S
C222 O219 1.252 . S
C222 O220 1.273 . S
O223 Mg210 2.010 . S
O223 C215 1.249 . S
Mg224 O225 2.028 . S
Mg224 O231 1.986 1_545 S
Mg224 O233 2.114 . S
Mg224 O234 2.251 . S
Mg224 O237 2.010 . S
O225 Mg224 2.028 . S
O225 C228 1.250 . S
O226 Mg227 2.028 . S
O226 C228 1.248 . S
Mg227 O226 2.028 . S
Mg227 O232 2.032 1_545 S
Mg227 O234 2.079 . S
C228 O225 1.250 . S
C228 O226 1.248 . S
C229 O230 1.264 . S
C229 O237 1.249 . S
O230 C229 1.264 . S
O231 Mg224 1.986 1_565 S
O231 C235 1.246 . S
O232 Mg227 2.032 1_565 S
O232 C235 1.259 . S
O233 Mg224 2.114 . S
O233 C236 1.252 . S
O234 Mg224 2.251 . S
O234 Mg227 2.079 . S
O234 C236 1.273 . S
C235 O231 1.246 . S
C235 O232 1.259 . S
C236 O233 1.252 . S
C236 O234 1.273 . S
O237 Mg224 2.010 . S
O237 C229 1.249 . S
Mg238 O239 2.028 . S
Mg238 O245 1.986 . S
Mg238 O247 2.114 . S
Mg238 O248 2.251 . S
Mg238 O251 2.010 1_655 S
O239 Mg238 2.028 . S
O239 C242 1.250 . S
O240 Mg241 2.028 . S
O240 C242 1.248 . S
Mg241 O240 2.028 . S
Mg241 O246 2.032 . S
Mg241 O248 2.079 . S
C242 O239 1.250 . S
C242 O240 1.248 . S
C243 O244 1.264 . S
C243 O251 1.249 . S
O244 C243 1.264 . S
O245 Mg238 1.986 . S
O245 C249 1.246 . S
O246 Mg241 2.032 . S
O246 C249 1.259 . S
O247 Mg238 2.114 . S
O247 C250 1.252 . S
O248 Mg238 2.251 . S
O248 Mg241 2.079 . S
O248 C250 1.273 . S
C249 O245 1.246 . S
C249 O246 1.259 . S
C250 O247 1.252 . S
C250 O248 1.273 . S
O251 Mg238 2.010 1_455 S
O251 C243 1.249 . S
H252 C258 0.930 . S
H253 C261 0.931 . S
H254 C263 0.931 . S
H255 C265 0.930 . S
H256 C267 0.930 . S
H257 C269 0.931 . S
C258 H252 0.930 . S
C258 C259 1.380 . S
C258 C260 1.394 . S
C259 C258 1.380 . S
C259 C263 1.382 . S
C260 C258 1.394 . S
C260 C261 1.400 . S
C261 H253 0.931 . S
C261 C260 1.400 . S
C261 C262 1.375 . S
C262 C261 1.375 . S
C262 C263 1.415 . S
C262 C264 1.501 . S
C263 H254 0.931 . S
C263 C259 1.382 . S
C263 C262 1.415 . S
C264 C262 1.501 . S
C264 C265 1.384 . S
C264 C269 1.408 . S
C265 H255 0.930 . S
C265 C264 1.384 . S
C265 C266 1.389 . S
C266 C265 1.389 . S
C266 C267 1.405 . S
C267 H256 0.930 . S
C267 C266 1.405 . S
C267 C268 1.364 . S
C268 C267 1.364 . S
C268 C269 1.400 . S
C269 H257 0.931 . S
C269 C264 1.408 . S
C269 C268 1.400 . S
H270 C276 0.930 . S
H271 C279 0.931 . S
H272 C281 0.931 . S
H273 C283 0.930 . S
H274 C285 0.930 . S
H275 C287 0.931 . S
C276 H270 0.930 . S
C276 C277 1.380 . S
C276 C278 1.394 . S
C277 C276 1.380 . S
C277 C281 1.382 . S
C278 C276 1.394 . S
C278 C279 1.400 . S
C279 H271 0.931 . S
C279 C278 1.400 . S
C279 C280 1.375 . S
C280 C279 1.375 . S
C280 C281 1.415 . S
C280 C282 1.501 . S
C281 H272 0.931 . S
C281 C277 1.382 . S
C281 C280 1.415 . S
C282 C280 1.501 . S
C282 C283 1.384 . S
C282 C287 1.408 . S
C283 H273 0.930 . S
C283 C282 1.384 . S
C283 C284 1.389 . S
C284 C283 1.389 . S
C284 C285 1.405 . S
C285 H274 0.930 . S
C285 C284 1.405 . S
C285 C286 1.364 . S
C286 C285 1.364 . S
C286 C287 1.400 . S
C287 H275 0.931 . S
C287 C282 1.408 . S
C287 C286 1.400 . S
H288 C294 0.930 . S
H289 C297 0.931 . S
H290 C299 0.931 . S
H291 C301 0.930 . S
H292 C303 0.930 . S
H293 C305 0.931 . S
C294 H288 0.930 . S
C294 C295 1.380 . S
C294 C296 1.394 . S
C295 C294 1.380 . S
C295 C299 1.382 . S
C296 C294 1.394 . S
C296 C297 1.400 . S
C297 H289 0.931 . S
C297 C296 1.400 . S
C297 C298 1.375 . S
C298 C297 1.375 . S
C298 C299 1.415 . S
C298 C300 1.501 . S
C299 H290 0.931 . S
C299 C295 1.382 . S
C299 C298 1.415 . S
C300 C298 1.501 . S
C300 C301 1.384 . S
C300 C305 1.408 . S
C301 H291 0.930 . S
C301 C300 1.384 . S
C301 C302 1.389 . S
C302 C301 1.389 . S
C302 C303 1.405 . S
C303 H292 0.930 . S
C303 C302 1.405 . S
C303 C304 1.364 . S
C304 C303 1.364 . S
C304 C305 1.400 . S
C305 H293 0.931 . S
C305 C300 1.408 . S
C305 C304 1.400 . S
H306 C312 0.930 . S
H307 C315 0.931 . S
H308 C317 0.931 . S
H309 C319 0.930 . S
H310 C321 0.930 . S
H311 C323 0.931 . S
C312 H306 0.930 . S
C312 C313 1.380 . S
C312 C314 1.394 . S
C313 C312 1.380 . S
C313 C317 1.382 . S
C314 C312 1.394 . S
C314 C315 1.400 . S
C315 H307 0.931 . S
C315 C314 1.400 . S
C315 C316 1.375 . S
C316 C315 1.375 . S
C316 C317 1.415 . S
C316 C318 1.501 . S
C317 H308 0.931 . S
C317 C313 1.382 . S
C317 C316 1.415 . S
C318 C316 1.501 . S
C318 C319 1.384 . S
C318 C323 1.408 . S
C319 H309 0.930 . S
C319 C318 1.384 . S
C319 C320 1.389 . S
C320 C319 1.389 . S
C320 C321 1.405 . S
C321 H310 0.930 . S
C321 C320 1.405 . S
C321 C322 1.364 . S
C322 C321 1.364 . S
C322 C323 1.400 . S
C323 H311 0.931 . S
C323 C318 1.408 . S
C323 C322 1.400 . S
H324 C330 0.930 . S
H325 C333 0.931 . S
H326 C335 0.931 . S
H327 C337 0.930 . S
H328 C339 0.930 . S
H329 C341 0.931 . S
C330 H324 0.930 . S
C330 C331 1.380 . S
C330 C332 1.394 . S
C331 C330 1.380 . S
C331 C335 1.382 . S
C332 C330 1.394 . S
C332 C333 1.400 . S
C333 H325 0.931 . S
C333 C332 1.400 . S
C333 C334 1.375 . S
C334 C333 1.375 . S
C334 C335 1.415 . S
C334 C336 1.501 . S
C335 H326 0.931 . S
C335 C331 1.382 . S
C335 C334 1.415 . S
C336 C334 1.501 . S
C336 C337 1.384 . S
C336 C341 1.408 . S
C337 H327 0.930 . S
C337 C336 1.384 . S
C337 C338 1.389 . S
C338 C337 1.389 . S
C338 C339 1.405 . S
C339 H328 0.930 . S
C339 C338 1.405 . S
C339 C340 1.364 . S
C340 C339 1.364 . S
C340 C341 1.400 . S
C341 H329 0.931 . S
C341 C336 1.408 . S
C341 C340 1.400 . S
H342 C348 0.930 . S
H343 C351 0.931 . S
H344 C353 0.931 . S
H345 C355 0.930 . S
H346 C357 0.930 . S
H347 C359 0.931 . S
C348 H342 0.930 . S
C348 C349 1.380 . S
C348 C350 1.394 . S
C349 C348 1.380 . S
C349 C353 1.382 . S
C350 C348 1.394 . S
C350 C351 1.400 . S
C351 H343 0.931 . S
C351 C350 1.400 . S
C351 C352 1.375 . S
C352 C351 1.375 . S
C352 C353 1.415 . S
C352 C354 1.501 . S
C353 H344 0.931 . S
C353 C349 1.382 . S
C353 C352 1.415 . S
C354 C352 1.501 . S
C354 C355 1.384 . S
C354 C359 1.408 . S
C355 H345 0.930 . S
C355 C354 1.384 . S
C355 C356 1.389 . S
C356 C355 1.389 . S
C356 C357 1.405 . S
C357 H346 0.930 . S
C357 C356 1.405 . S
C357 C358 1.364 . S
C358 C357 1.364 . S
C358 C359 1.400 . S
C359 H347 0.931 . S
C359 C354 1.408 . S
C359 C358 1.400 . S
H360 C366 0.930 . S
H361 C369 0.931 . S
H362 C371 0.931 . S
H363 C373 0.930 . S
H364 C375 0.930 . S
H365 C377 0.931 . S
C366 H360 0.930 . S
C366 C367 1.380 . S
C366 C368 1.394 . S
C367 C366 1.380 . S
C367 C371 1.382 . S
C368 C366 1.394 . S
C368 C369 1.400 . S
C369 H361 0.931 . S
C369 C368 1.400 . S
C369 C370 1.375 . S
C370 C369 1.375 . S
C370 C371 1.415 . S
C370 C372 1.501 . S
C371 H362 0.931 . S
C371 C367 1.382 . S
C371 C370 1.415 . S
C372 C370 1.501 . S
C372 C373 1.384 . S
C372 C377 1.408 . S
C373 H363 0.930 . S
C373 C372 1.384 . S
C373 C374 1.389 . S
C374 C373 1.389 . S
C374 C375 1.405 . S
C375 H364 0.930 . S
C375 C374 1.405 . S
C375 C376 1.364 . S
C376 C375 1.364 . S
C376 C377 1.400 . S
C377 H365 0.931 . S
C377 C372 1.408 . S
C377 C376 1.400 . S
H378 C384 0.930 . S
H379 C387 0.931 . S
H380 C389 0.931 . S
H381 C391 0.930 . S
H382 C393 0.930 . S
H383 C395 0.931 . S
C384 H378 0.930 . S
C384 C385 1.380 . S
C384 C386 1.394 . S
C385 C384 1.380 . S
C385 C389 1.382 . S
C386 C384 1.394 . S
C386 C387 1.400 . S
C387 H379 0.931 . S
C387 C386 1.400 . S
C387 C388 1.375 . S
C388 C387 1.375 . S
C388 C389 1.415 . S
C388 C390 1.501 . S
C389 H380 0.931 . S
C389 C385 1.382 . S
C389 C388 1.415 . S
C390 C388 1.501 . S
C390 C391 1.384 . S
C390 C395 1.408 . S
C391 H381 0.930 . S
C391 C390 1.384 . S
C391 C392 1.389 . S
C392 C391 1.389 . S
C392 C393 1.405 . S
C393 H382 0.930 . S
C393 C392 1.405 . S
C393 C394 1.364 . S
C394 C393 1.364 . S
C394 C395 1.400 . S
C395 H383 0.931 . S
C395 C390 1.408 . S
C395 C394 1.400 . S
H396 C402 0.930 . S
H397 C405 0.931 . S
H398 C407 0.931 . S
H399 C409 0.930 . S
H400 C411 0.930 . S
H401 C413 0.931 . S
C402 H396 0.930 . S
C402 C403 1.380 . S
C402 C404 1.394 . S
C403 C402 1.380 . S
C403 C407 1.382 . S
C404 C402 1.394 . S
C404 C405 1.400 . S
C405 H397 0.931 . S
C405 C404 1.400 . S
C405 C406 1.375 . S
C406 C405 1.375 . S
C406 C407 1.415 . S
C406 C408 1.501 . S
C407 H398 0.931 . S
C407 C403 1.382 . S
C407 C406 1.415 . S
C408 C406 1.501 . S
C408 C409 1.384 . S
C408 C413 1.408 . S
C409 H399 0.930 . S
C409 C408 1.384 . S
C409 C410 1.389 . S
C410 C409 1.389 . S
C410 C411 1.405 . S
C411 H400 0.930 . S
C411 C410 1.405 . S
C411 C412 1.364 . S
C412 C411 1.364 . S
C412 C413 1.400 . S
C413 H401 0.931 . S
C413 C408 1.408 . S
C413 C412 1.400 . S
H414 C420 0.925 . S
H415 C423 0.931 . S
H416 C425 0.931 . S
H417 C427 0.930 . S
H418 C429 0.930 . S
H419 C431 0.941 . S
C420 H414 0.925 . S
C420 C421 1.384 . S
C420 C422 1.395 1_655 S
C421 C420 1.384 . S
C421 C425 1.382 . S
C422 C420 1.395 1_455 S
C422 C423 1.400 . S
C423 H415 0.931 . S
C423 C422 1.400 . S
C423 C424 1.375 . S
C424 C423 1.375 . S
C424 C425 1.415 1_455 S
C424 C426 1.501 . S
C425 H416 0.931 . S
C425 C421 1.382 . S
C425 C424 1.415 1_655 S
C426 C424 1.501 . S
C426 C427 1.384 . S
C426 C431 1.421 . S
C427 H417 0.930 . S
C427 C426 1.384 . S
C427 C428 1.389 . S
C428 C427 1.389 . S
C428 C429 1.405 . S
C429 H418 0.930 . S
C429 C428 1.405 . S
C429 C430 1.360 . S
C430 C429 1.360 . S
C430 C431 1.391 . S
C431 H419 0.941 . S
C431 C426 1.421 . S
C431 C430 1.391 . S
H432 C438 0.930 . S
H433 C441 0.931 . S
H434 C443 0.931 . S
H435 C445 0.930 . S
H436 C447 0.930 . S
H437 C449 0.931 . S
C438 H432 0.930 . S
C438 C439 1.380 . S
C438 C440 1.394 . S
C439 C438 1.380 . S
C439 C443 1.382 . S
C440 C438 1.394 . S
C440 C441 1.400 . S
C441 H433 0.931 . S
C441 C440 1.400 . S
C441 C442 1.375 . S
C442 C441 1.375 . S
C442 C443 1.415 . S
C442 C444 1.501 . S
C443 H434 0.931 . S
C443 C439 1.382 . S
C443 C442 1.415 . S
C444 C442 1.501 . S
C444 C445 1.384 . S
C444 C449 1.408 . S
C445 H435 0.930 . S
C445 C444 1.384 . S
C445 C446 1.389 . S
C446 C445 1.389 . S
C446 C447 1.405 . S
C447 H436 0.930 . S
C447 C446 1.405 . S
C447 C448 1.364 . S
C448 C447 1.364 . S
C448 C449 1.400 . S
C449 H437 0.931 . S
C449 C444 1.408 . S
C449 C448 1.400 . S
H450 C456 0.939 . S
H451 C459 0.931 . S
H452 C461 0.931 . S
H453 C463 0.930 . S
H454 C465 0.930 . S
H455 C467 0.921 . S
C456 H450 0.939 . S
C456 C457 1.378 . S
C456 C458 1.387 1_545 S
C457 C456 1.378 . S
C457 C461 1.382 . S
C458 C456 1.387 1_565 S
C458 C459 1.400 . S
C459 H451 0.931 . S
C459 C458 1.400 . S
C459 C460 1.375 . S
C460 C459 1.375 . S
C460 C461 1.415 1_565 S
C460 C462 1.501 . S
C461 H452 0.931 . S
C461 C457 1.382 . S
C461 C460 1.415 1_545 S
C462 C460 1.501 . S
C462 C463 1.384 . S
C462 C467 1.396 . S
C463 H453 0.930 . S
C463 C462 1.384 . S
C463 C464 1.389 . S
C464 C463 1.389 . S
C464 C465 1.405 . S
C465 H454 0.930 . S
C465 C464 1.405 . S
C465 C466 1.375 . S
C466 C465 1.375 . S
C466 C467 1.408 . S
C467 H455 0.921 . S
C467 C462 1.396 . S
C467 C466 1.408 . S
H468 C474 0.909 . S
H469 C477 0.931 . S
H470 C479 0.926 . S
H471 C481 0.930 . S
H472 C483 0.930 . S
H473 C485 0.931 . S
C474 H468 0.909 . S
C474 C475 1.385 . S
C474 C476 1.415 1_545 S
C475 C474 1.385 . S
C475 C479 1.403 1_545 S
C476 C474 1.415 1_565 S
C476 C477 1.384 . S
C477 H469 0.931 . S
C477 C476 1.384 . S
C477 C478 1.375 . S
C478 C477 1.375 . S
C478 C479 1.411 . S
C478 C480 1.501 . S
C479 H470 0.926 . S
C479 C475 1.403 1_565 S
C479 C478 1.411 . S
C480 C478 1.501 . S
C480 C481 1.384 . S
C480 C485 1.408 1_565 S
C481 H471 0.930 . S
C481 C480 1.384 . S
C481 C482 1.389 . S
C482 C481 1.389 . S
C482 C483 1.405 . S
C483 H472 0.930 . S
C483 C482 1.405 . S
C483 C484 1.364 1_565 S
C484 C483 1.364 1_545 S
C484 C485 1.400 . S
C485 H473 0.931 . S
C485 C480 1.408 1_545 S
C485 C484 1.400 . S
H486 C492 0.962 . S
H487 C495 0.931 . S
H488 C497 0.934 . S
H489 C499 0.930 . S
H490 C501 0.930 . S
H491 C503 0.931 . S
C492 H486 0.962 . S
C492 C493 1.372 . S
C492 C494 1.371 1_655 S
C493 C492 1.372 . S
C493 C497 1.359 1_655 S
C494 C492 1.371 1_455 S
C494 C495 1.414 . S
C495 H487 0.931 . S
C495 C494 1.414 . S
C495 C496 1.375 . S
C496 C495 1.375 . S
C496 C497 1.422 . S
C496 C498 1.501 . S
C497 H488 0.934 . S
C497 C493 1.359 1_455 S
C497 C496 1.422 . S
C498 C496 1.501 . S
C498 C499 1.384 . S
C498 C503 1.408 1_455 S
C499 H489 0.930 . S
C499 C498 1.384 . S
C499 C500 1.389 . S
C500 C499 1.389 . S
C500 C501 1.405 . S
C501 H490 0.930 . S
C501 C500 1.405 . S
C501 C502 1.364 1_455 S
C502 C501 1.364 1_655 S
C502 C503 1.400 . S
C503 H491 0.931 . S
C503 C498 1.408 1_655 S
C503 C502 1.400 . S
H504 C510 0.930 . S
H505 C513 0.931 . S
H506 C515 0.931 . S
H507 C517 0.930 . S
H508 C519 0.930 . S
H509 C521 0.931 . S
C510 H504 0.930 . S
C510 C511 1.380 . S
C510 C512 1.394 . S
C511 C510 1.380 . S
C511 C515 1.382 . S
C512 C510 1.394 . S
C512 C513 1.400 . S
C513 H505 0.931 . S
C513 C512 1.400 . S
C513 C514 1.375 . S
C514 C513 1.375 . S
C514 C515 1.415 . S
C514 C516 1.501 . S
C515 H506 0.931 . S
C515 C511 1.382 . S
C515 C514 1.415 . S
C516 C514 1.501 . S
C516 C517 1.384 . S
C516 C521 1.408 . S
C517 H507 0.930 . S
C517 C516 1.384 . S
C517 C518 1.389 . S
C518 C517 1.389 . S
C518 C519 1.405 . S
C519 H508 0.930 . S
C519 C518 1.405 . S
C519 C520 1.364 . S
C520 C519 1.364 . S
C520 C521 1.400 . S
C521 H509 0.931 . S
C521 C516 1.408 . S
C521 C520 1.400 . S
H522 C528 0.930 . S
H523 C531 0.931 . S
H524 C533 0.931 . S
H525 C535 0.930 . S
H526 C537 0.930 . S
H527 C539 0.931 . S
C528 H522 0.930 . S
C528 C529 1.380 . S
C528 C530 1.394 . S
C529 C528 1.380 . S
C529 C533 1.382 . S
C530 C528 1.394 . S
C530 C531 1.400 . S
C531 H523 0.931 . S
C531 C530 1.400 . S
C531 C532 1.375 . S
C532 C531 1.375 . S
C532 C533 1.415 . S
C532 C534 1.501 . S
C533 H524 0.931 . S
C533 C529 1.382 . S
C533 C532 1.415 . S
C534 C532 1.501 . S
C534 C535 1.384 . S
C534 C539 1.408 . S
C535 H525 0.930 . S
C535 C534 1.384 . S
C535 C536 1.389 . S
C536 C535 1.389 . S
C536 C537 1.405 . S
C537 H526 0.930 . S
C537 C536 1.405 . S
C537 C538 1.364 . S
C538 C537 1.364 . S
C538 C539 1.400 . S
C539 H527 0.931 . S
C539 C534 1.408 . S
C539 C538 1.400 . S
H540 C546 0.930 . S
H541 C549 0.931 . S
H542 C551 0.931 . S
H543 C553 0.930 . S
H544 C555 0.930 . S
H545 C557 0.931 . S
C546 H540 0.930 . S
C546 C547 1.380 . S
C546 C548 1.394 . S
C547 C546 1.380 . S
C547 C551 1.382 . S
C548 C546 1.394 . S
C548 C549 1.400 . S
C549 H541 0.931 . S
C549 C548 1.400 . S
C549 C550 1.375 . S
C550 C549 1.375 . S
C550 C551 1.415 . S
C550 C552 1.501 . S
C551 H542 0.931 . S
C551 C547 1.382 . S
C551 C550 1.415 . S
C552 C550 1.501 . S
C552 C553 1.384 . S
C552 C557 1.408 . S
C553 H543 0.930 . S
C553 C552 1.384 . S
C553 C554 1.389 . S
C554 C553 1.389 . S
C554 C555 1.405 . S
C555 H544 0.930 . S
C555 C554 1.405 . S
C555 C556 1.364 . S
C556 C555 1.364 . S
C556 C557 1.400 . S
C557 H545 0.931 . S
C557 C552 1.408 . S
C557 C556 1.400 . S
H558 C564 0.930 . S
H559 C567 0.931 . S
H560 C569 0.931 . S
H561 C571 0.930 . S
H562 C573 0.930 . S
H563 C575 0.931 . S
C564 H558 0.930 . S
C564 C565 1.380 . S
C564 C566 1.394 . S
C565 C564 1.380 . S
C565 C569 1.382 . S
C566 C564 1.394 . S
C566 C567 1.400 . S
C567 H559 0.931 . S
C567 C566 1.400 . S
C567 C568 1.375 . S
C568 C567 1.375 . S
C568 C569 1.415 . S
C568 C570 1.501 . S
C569 H560 0.931 . S
C569 C565 1.382 . S
C569 C568 1.415 . S
C570 C568 1.501 . S
C570 C571 1.384 . S
C570 C575 1.408 . S
C571 H561 0.930 . S
C571 C570 1.384 . S
C571 C572 1.389 . S
C572 C571 1.389 . S
C572 C573 1.405 . S
C573 H562 0.930 . S
C573 C572 1.405 . S
C573 C574 1.364 . S
C574 C573 1.364 . S
C574 C575 1.400 . S
C575 H563 0.931 . S
C575 C570 1.408 . S
C575 C574 1.400 . S
H576 C588 0.930 . S
H577 C590 0.930 . S
H578 C591 0.930 . S
H579 C595 0.959 . S
H580 C595 0.959 . S
H581 C595 0.961 . S
H582 C596 0.960 . S
H583 C596 0.961 . S
H584 C596 0.959 . S
H585 C599 0.929 . S
H586 C600 0.931 . S
H587 C602 0.930 . S
C588 H576 0.930 . S
C588 C589 1.399 1_455 S
C588 C593 1.399 . S
C589 C588 1.399 1_655 S
C589 C590 1.376 . S
C590 H577 0.930 . S
C590 C589 1.376 . S
C590 C591 1.388 . S
C591 H578 0.930 . S
C591 C590 1.388 . S
C591 C592 1.390 . S
C592 C591 1.390 . S
C592 C593 1.394 1_655 S
C592 C598 1.465 . S
C593 C588 1.399 . S
C593 C592 1.394 1_455 S
C593 C594 1.516 . S
C594 C593 1.516 . S
C594 C595 1.502 . S
C594 C596 1.561 . S
C594 C597 1.526 . S
C595 H579 0.959 . S
C595 H580 0.959 . S
C595 H581 0.961 . S
C595 C594 1.502 . S
C596 H582 0.960 . S
C596 H583 0.961 . S
C596 H584 0.959 . S
C596 C594 1.561 . S
C597 C594 1.526 . S
C597 C598 1.396 1_455 S
C597 C602 1.390 . S
C598 C592 1.465 . S
C598 C597 1.396 1_655 S
C598 C599 1.399 . S
C599 H585 0.929 . S
C599 C598 1.399 . S
C599 C600 1.385 . S
C600 H586 0.931 . S
C600 C599 1.385 . S
C600 C601 1.389 . S
C601 C600 1.389 . S
C601 C602 1.387 1_655 S
C602 H587 0.930 . S
C602 C597 1.390 . S
C602 C601 1.387 1_455 S
H603 C615 0.930 . S
H604 C617 0.930 . S
H605 C618 0.930 . S
H606 C622 0.959 . S
H607 C622 0.959 . S
H608 C622 0.961 . S
H609 C623 0.960 . S
H610 C623 0.961 . S
H611 C623 0.959 . S
H612 C626 0.929 . S
H613 C627 0.931 . S
H614 C629 0.930 . S
C615 H603 0.930 . S
C615 C616 1.399 . S
C615 C620 1.399 . S
C616 C615 1.399 . S
C616 C617 1.376 . S
C617 H604 0.930 . S
C617 C616 1.376 . S
C617 C618 1.388 . S
C618 H605 0.930 . S
C618 C617 1.388 . S
C618 C619 1.390 . S
C619 C618 1.390 . S
C619 C620 1.394 . S
C619 C625 1.465 . S
C620 C615 1.399 . S
C620 C619 1.394 . S
C620 C621 1.516 . S
C621 C620 1.516 . S
C621 C622 1.502 . S
C621 C623 1.561 . S
C621 C624 1.526 . S
C622 H606 0.959 . S
C622 H607 0.959 . S
C622 H608 0.961 . S
C622 C621 1.502 . S
C623 H609 0.960 . S
C623 H610 0.961 . S
C623 H611 0.959 . S
C623 C621 1.561 . S
C624 C621 1.526 . S
C624 C625 1.396 . S
C624 C629 1.390 . S
C625 C619 1.465 . S
C625 C624 1.396 . S
C625 C626 1.399 . S
C626 H612 0.929 . S
C626 C625 1.399 . S
C626 C627 1.385 . S
C627 H613 0.931 . S
C627 C626 1.385 . S
C627 C628 1.389 . S
C628 C627 1.389 . S
C628 C629 1.387 . S
C629 H614 0.930 . S
C629 C624 1.390 . S
C629 C628 1.387 . S
H630 C642 0.930 . S
H631 C644 0.930 . S
H632 C645 0.930 . S
H633 C649 0.959 . S
H634 C649 0.959 . S
H635 C649 0.961 . S
H636 C650 0.960 . S
H637 C650 0.961 . S
H638 C650 0.959 . S
H639 C653 0.929 . S
H640 C654 0.931 . S
H641 C656 0.930 . S
C642 H630 0.930 . S
C642 C643 1.399 . S
C642 C647 1.399 . S
C643 C642 1.399 . S
C643 C644 1.376 . S
C644 H631 0.930 . S
C644 C643 1.376 . S
C644 C645 1.388 . S
C645 H632 0.930 . S
C645 C644 1.388 . S
C645 C646 1.390 . S
C646 C645 1.390 . S
C646 C647 1.394 . S
C646 C652 1.465 . S
C647 C642 1.399 . S
C647 C646 1.394 . S
C647 C648 1.516 . S
C648 C647 1.516 . S
C648 C649 1.502 1_545 S
C648 C650 1.561 . S
C648 C651 1.526 . S
C649 H633 0.959 . S
C649 H634 0.959 . S
C649 H635 0.961 . S
C649 C648 1.502 1_565 S
C650 H636 0.960 . S
C650 H637 0.961 . S
C650 H638 0.959 . S
C650 C648 1.561 . S
C651 C648 1.526 . S
C651 C652 1.396 . S
C651 C656 1.390 . S
C652 C646 1.465 . S
C652 C651 1.396 . S
C652 C653 1.399 . S
C653 H639 0.929 . S
C653 C652 1.399 . S
C653 C654 1.385 . S
C654 H640 0.931 . S
C654 C653 1.385 . S
C654 C655 1.389 . S
C655 C654 1.389 . S
C655 C656 1.387 . S
C656 H641 0.930 . S
C656 C651 1.390 . S
C656 C655 1.387 . S
H657 C669 0.930 . S
H658 C671 0.930 . S
H659 C672 0.930 . S
H660 C676 0.959 . S
H661 C676 0.959 . S
H662 C676 0.961 . S
H663 C677 0.960 . S
H664 C677 0.961 . S
H665 C677 0.959 . S
H666 C680 0.929 . S
H667 C681 0.931 . S
H668 C683 0.930 . S
C669 H657 0.930 . S
C669 C670 1.399 . S
C669 C674 1.399 . S
C670 C669 1.399 . S
C670 C671 1.376 1_565 S
C671 H658 0.930 . S
C671 C670 1.376 1_545 S
C671 C672 1.388 . S
C672 H659 0.930 . S
C672 C671 1.388 . S
C672 C673 1.390 . S
C673 C672 1.390 . S
C673 C674 1.394 1_545 S
C673 C679 1.465 . S
C674 C669 1.399 . S
C674 C673 1.394 1_565 S
C674 C675 1.516 . S
C675 C674 1.516 . S
C675 C676 1.502 . S
C675 C677 1.561 . S
C675 C678 1.526 . S
C676 H660 0.959 . S
C676 H661 0.959 . S
C676 H662 0.961 . S
C676 C675 1.502 . S
C677 H663 0.960 . S
C677 H664 0.961 . S
C677 H665 0.959 . S
C677 C675 1.561 . S
C678 C675 1.526 . S
C678 C679 1.396 1_565 S
C678 C683 1.390 . S
C679 C673 1.465 . S
C679 C678 1.396 1_545 S
C679 C680 1.399 . S
C680 H666 0.929 . S
C680 C679 1.399 . S
C680 C681 1.385 . S
C681 H667 0.931 . S
C681 C680 1.385 . S
C681 C682 1.389 1_545 S
C682 C681 1.389 1_565 S
C682 C683 1.387 . S
C683 H668 0.930 . S
C683 C678 1.390 . S
C683 C682 1.387 . S
H684 C696 0.930 . S
H685 C698 0.930 . S
H686 C699 0.930 . S
H687 C703 0.959 1_655 S
H688 C703 0.959 . S
H689 C703 0.961 . S
H690 C704 0.960 . S
H691 C704 0.961 . S
H692 C704 0.959 . S
H693 C707 0.929 . S
H694 C708 0.931 . S
H695 C710 0.930 . S
C696 H684 0.930 . S
C696 C697 1.399 . S
C696 C701 1.399 . S
C697 C696 1.399 . S
C697 C698 1.376 . S
C698 H685 0.930 . S
C698 C697 1.376 . S
C698 C699 1.388 . S
C699 H686 0.930 . S
C699 C698 1.388 . S
C699 C700 1.390 . S
C700 C699 1.390 . S
C700 C701 1.394 . S
C700 C706 1.465 . S
C701 C696 1.399 . S
C701 C700 1.394 . S
C701 C702 1.516 . S
C702 C701 1.516 . S
C702 C703 1.502 . S
C702 C704 1.561 . S
C702 C705 1.526 . S
C703 H687 0.959 1_455 S
C703 H688 0.959 . S
C703 H689 0.961 . S
C703 C702 1.502 . S
C704 H690 0.960 . S
C704 H691 0.961 . S
C704 H692 0.959 . S
C704 C702 1.561 . S
C705 C702 1.526 . S
C705 C706 1.396 . S
C705 C710 1.390 . S
C706 C700 1.465 . S
C706 C705 1.396 . S
C706 C707 1.399 . S
C707 H693 0.929 . S
C707 C706 1.399 . S
C707 C708 1.385 . S
C708 H694 0.931 . S
C708 C707 1.385 . S
C708 C709 1.389 . S
C709 C708 1.389 . S
C709 C710 1.387 . S
C710 H695 0.930 . S
C710 C705 1.390 . S
C710 C709 1.387 . S
H711 C723 0.930 . S
H712 C725 0.930 . S
H713 C726 0.930 . S
H714 C730 0.959 . S
H715 C730 0.959 . S
H716 C730 0.961 . S
H717 C731 0.960 . S
H718 C731 0.961 . S
H719 C731 0.959 . S
H720 C734 0.929 . S
H721 C735 0.931 . S
H722 C737 0.930 . S
C723 H711 0.930 . S
C723 C724 1.399 . S
C723 C728 1.399 . S
C724 C723 1.399 . S
C724 C725 1.376 . S
C725 H712 0.930 . S
C725 C724 1.376 . S
C725 C726 1.388 . S
C726 H713 0.930 . S
C726 C725 1.388 . S
C726 C727 1.390 . S
C727 C726 1.390 . S
C727 C728 1.394 . S
C727 C733 1.465 . S
C728 C723 1.399 . S
C728 C727 1.394 . S
C728 C729 1.516 . S
C729 C728 1.516 . S
C729 C730 1.502 . S
C729 C731 1.561 . S
C729 C732 1.526 . S
C730 H714 0.959 . S
C730 H715 0.959 . S
C730 H716 0.961 . S
C730 C729 1.502 . S
C731 H717 0.960 . S
C731 H718 0.961 . S
C731 H719 0.959 . S
C731 C729 1.561 . S
C732 C729 1.526 . S
C732 C733 1.396 . S
C732 C737 1.390 . S
C733 C727 1.465 . S
C733 C732 1.396 . S
C733 C734 1.399 . S
C734 H720 0.929 . S
C734 C733 1.399 . S
C734 C735 1.385 . S
C735 H721 0.931 . S
C735 C734 1.385 . S
C735 C736 1.389 . S
C736 C735 1.389 . S
C736 C737 1.387 . S
C737 H722 0.930 . S
C737 C732 1.390 . S
C737 C736 1.387 . S
H738 C750 0.930 . S
H739 C752 0.930 . S
H740 C753 0.930 . S
H741 C757 0.959 . S
H742 C757 0.959 . S
H743 C757 0.961 . S
H744 C758 0.960 . S
H745 C758 0.961 . S
H746 C758 0.959 . S
H747 C761 0.929 . S
H748 C762 0.931 . S
H749 C764 0.930 . S
C750 H738 0.930 . S
C750 C751 1.399 . S
C750 C755 1.399 . S
C751 C750 1.399 . S
C751 C752 1.376 1_455 S
C752 H739 0.930 . S
C752 C751 1.376 1_655 S
C752 C753 1.388 . S
C753 H740 0.930 . S
C753 C752 1.388 . S
C753 C754 1.429 . S
C754 C753 1.429 . S
C754 C755 1.368 1_655 S
C754 C760 1.446 . S
C755 C750 1.399 . S
C755 C754 1.368 1_455 S
C755 C756 1.516 . S
C756 C755 1.516 . S
C756 C757 1.502 . S
C756 C758 1.561 1_455 S
C756 C759 1.526 . S
C757 H741 0.959 . S
C757 H742 0.959 . S
C757 H743 0.961 . S
C757 C756 1.502 . S
C758 H744 0.960 . S
C758 H745 0.961 . S
C758 H746 0.959 . S
C758 C756 1.561 1_655 S
C759 C756 1.526 . S
C759 C760 1.396 1_455 S
C759 C764 1.390 . S
C760 C754 1.446 . S
C760 C759 1.396 1_655 S
C760 C761 1.399 . S
C761 H747 0.929 . S
C761 C760 1.399 . S
C761 C762 1.385 . S
C762 H748 0.931 . S
C762 C761 1.385 . S
C762 C763 1.410 . S
C763 C762 1.410 . S
C763 C764 1.381 1_655 S
C764 H749 0.930 . S
C764 C759 1.390 . S
C764 C763 1.381 1_455 S
H765 C777 0.930 . S
H766 C779 0.930 . S
H767 C780 0.930 . S
H768 C784 0.959 . S
H769 C784 0.959 . S
H770 C784 0.961 . S
H771 C785 0.960 . S
H772 C785 0.961 . S
H773 C785 0.959 . S
H774 C788 0.929 . S
H775 C789 0.931 . S
H776 C791 0.930 . S
C777 H765 0.930 . S
C777 C778 1.399 . S
C777 C782 1.399 . S
C778 C777 1.399 . S
C778 C779 1.376 . S
C779 H766 0.930 . S
C779 C778 1.376 . S
C779 C780 1.388 . S
C780 H767 0.930 . S
C780 C779 1.388 . S
C780 C781 1.390 . S
C781 C780 1.390 . S
C781 C782 1.394 . S
C781 C787 1.465 . S
C782 C777 1.399 . S
C782 C781 1.394 . S
C782 C783 1.516 . S
C783 C782 1.516 . S
C783 C784 1.502 . S
C783 C785 1.561 . S
C783 C786 1.526 . S
C784 H768 0.959 . S
C784 H769 0.959 . S
C784 H770 0.961 . S
C784 C783 1.502 . S
C785 H771 0.960 . S
C785 H772 0.961 . S
C785 H773 0.959 . S
C785 C783 1.561 . S
C786 C783 1.526 . S
C786 C787 1.396 . S
C786 C791 1.390 . S
C787 C781 1.465 . S
C787 C786 1.396 . S
C787 C788 1.399 . S
C788 H774 0.929 . S
C788 C787 1.399 . S
C788 C789 1.385 . S
C789 H775 0.931 . S
C789 C788 1.385 . S
C789 C790 1.389 . S
C790 C789 1.389 . S
C790 C791 1.387 . S
C791 H776 0.930 . S
C791 C786 1.390 . S
C791 C790 1.387 . S
H792 C804 0.930 . S
H793 C806 0.930 . S
H794 C807 0.930 . S
H795 C811 0.959 . S
H796 C811 0.959 . S
H797 C811 0.961 . S
H798 C812 0.960 . S
H799 C812 0.961 . S
H800 C812 0.959 . S
H801 C815 0.929 . S
H802 C816 0.931 . S
H803 C818 0.930 . S
C804 H792 0.930 . S
C804 C805 1.399 1_545 S
C804 C809 1.399 . S
C805 C804 1.399 1_565 S
C805 C806 1.376 . S
C806 H793 0.930 . S
C806 C805 1.376 . S
C806 C807 1.388 . S
C807 H794 0.930 . S
C807 C806 1.388 . S
C807 C808 1.390 . S
C808 C807 1.390 . S
C808 C809 1.394 1_565 S
C808 C814 1.465 . S
C809 C804 1.399 . S
C809 C808 1.394 1_545 S
C809 C810 1.516 . S
C810 C809 1.516 . S
C810 C811 1.502 . S
C810 C812 1.561 . S
C810 C813 1.526 . S
C811 H795 0.959 . S
C811 H796 0.959 . S
C811 H797 0.961 . S
C811 C810 1.502 . S
C812 H798 0.960 . S
C812 H799 0.961 . S
C812 H800 0.959 . S
C812 C810 1.561 . S
C813 C810 1.526 . S
C813 C814 1.396 1_545 S
C813 C818 1.390 . S
C814 C808 1.465 . S
C814 C813 1.396 1_565 S
C814 C815 1.399 . S
C815 H801 0.929 . S
C815 C814 1.399 . S
C815 C816 1.385 . S
C816 H802 0.931 . S
C816 C815 1.385 . S
C816 C817 1.389 . S
C817 C816 1.389 . S
C817 C818 1.387 1_565 S
C818 H803 0.930 . S
C818 C813 1.390 . S
C818 C817 1.387 1_545 S
H819 C831 0.930 . S
H820 C833 0.930 . S
H821 C834 0.930 . S
H822 C838 0.959 . S
H823 C838 0.959 . S
H824 C838 0.961 . S
H825 C839 0.960 . S
H826 C839 0.961 . S
H827 C839 0.959 . S
H828 C842 0.929 . S
H829 C843 0.931 . S
H830 C845 0.930 . S
C831 H819 0.930 . S
C831 C832 1.399 1_565 S
C831 C836 1.423 . S
C832 C831 1.399 1_545 S
C832 C833 1.376 . S
C833 H820 0.930 . S
C833 C832 1.376 . S
C833 C834 1.388 . S
C834 H821 0.930 . S
C834 C833 1.388 . S
C834 C835 1.390 . S
C835 C834 1.390 . S
C835 C836 1.352 1_545 S
C835 C841 1.465 . S
C836 C831 1.423 . S
C836 C835 1.352 1_565 S
C836 C837 1.531 . S
C837 C836 1.531 . S
C837 C838 1.502 . S
C837 C839 1.561 . S
C837 C840 1.526 . S
C838 H822 0.959 . S
C838 H823 0.959 . S
C838 H824 0.961 . S
C838 C837 1.502 . S
C839 H825 0.960 . S
C839 H826 0.961 . S
C839 H827 0.959 . S
C839 C837 1.561 . S
C840 C837 1.526 . S
C840 C841 1.396 1_565 S
C840 C845 1.390 . S
C841 C835 1.465 . S
C841 C840 1.396 1_545 S
C841 C842 1.399 . S
C842 H828 0.929 . S
C842 C841 1.399 . S
C842 C843 1.385 . S
C843 H829 0.931 . S
C843 C842 1.385 . S
C843 C844 1.389 . S
C844 C843 1.389 . S
C844 C845 1.387 1_545 S
C845 H830 0.930 . S
C845 C840 1.390 . S
C845 C844 1.387 1_565 S
H846 C858 0.930 . S
H847 C860 0.930 . S
H848 C861 0.930 . S
H849 C865 0.959 . S
H850 C865 0.959 . S
H851 C865 0.961 . S
H852 C866 0.960 . S
H853 C866 0.961 . S
H854 C866 0.959 1_455 S
H855 C869 0.929 . S
H856 C870 0.931 . S
H857 C872 0.930 . S
C858 H846 0.930 . S
C858 C859 1.399 . S
C858 C863 1.399 . S
C859 C858 1.399 . S
C859 C860 1.376 1_655 S
C860 H847 0.930 . S
C860 C859 1.376 1_455 S
C860 C861 1.388 . S
C861 H848 0.930 . S
C861 C860 1.388 . S
C861 C862 1.390 . S
C862 C861 1.390 . S
C862 C863 1.394 1_455 S
C862 C868 1.465 . S
C863 C858 1.399 . S
C863 C862 1.394 1_655 S
C863 C864 1.516 . S
C864 C863 1.516 . S
C864 C865 1.502 . S
C864 C866 1.561 . S
C864 C867 1.526 . S
C865 H849 0.959 . S
C865 H850 0.959 . S
C865 H851 0.961 . S
C865 C864 1.502 . S
C866 H852 0.960 . S
C866 H853 0.961 . S
C866 H854 0.959 1_655 S
C866 C864 1.561 . S
C867 C864 1.526 . S
C867 C868 1.396 1_655 S
C867 C872 1.390 . S
C868 C862 1.465 . S
C868 C867 1.396 1_455 S
C868 C869 1.399 . S
C869 H855 0.929 . S
C869 C868 1.399 . S
C869 C870 1.385 . S
C870 H856 0.931 . S
C870 C869 1.385 . S
C870 C871 1.389 . S
C871 C870 1.389 . S
C871 C872 1.387 1_455 S
C872 H857 0.930 . S
C872 C867 1.390 . S
C872 C871 1.387 1_655 S
H873 C885 0.930 . S
H874 C887 0.930 . S
H875 C888 0.930 . S
H876 C892 0.959 . S
H877 C892 0.959 . S
H878 C892 0.961 . S
H879 C893 0.960 . S
H880 C893 0.961 . S
H881 C893 0.959 . S
H882 C896 0.929 . S
H883 C897 0.931 . S
H884 C899 0.930 . S
C885 H873 0.930 . S
C885 C886 1.399 . S
C885 C890 1.399 . S
C886 C885 1.399 . S
C886 C887 1.376 . S
C887 H874 0.930 . S
C887 C886 1.376 . S
C887 C888 1.388 . S
C888 H875 0.930 . S
C888 C887 1.388 . S
C888 C889 1.390 . S
C889 C888 1.390 . S
C889 C890 1.394 . S
C889 C895 1.465 . S
C890 C885 1.399 . S
C890 C889 1.394 . S
C890 C891 1.516 . S
C891 C890 1.516 . S
C891 C892 1.502 . S
C891 C893 1.561 . S
C891 C894 1.526 . S
C892 H876 0.959 . S
C892 H877 0.959 . S
C892 H878 0.961 . S
C892 C891 1.502 . S
C893 H879 0.960 . S
C893 H880 0.961 . S
C893 H881 0.959 . S
C893 C891 1.561 . S
C894 C891 1.526 . S
C894 C895 1.396 . S
C894 C899 1.390 . S
C895 C889 1.465 . S
C895 C894 1.396 . S
C895 C896 1.399 . S
C896 H882 0.929 . S
C896 C895 1.399 . S
C896 C897 1.385 . S
C897 H883 0.931 . S
C897 C896 1.385 . S
C897 C898 1.389 . S
C898 C897 1.389 . S
C898 C899 1.387 . S
C899 H884 0.930 . S
C899 C894 1.390 . S
C899 C898 1.387 . S
H900 C912 0.930 . S
H901 C914 0.930 . S
H902 C915 0.930 . S
H903 C919 0.959 . S
H904 C919 0.959 . S
H905 C919 0.961 . S
H906 C920 0.960 . S
H907 C920 0.961 . S
H908 C920 0.959 . S
H909 C923 0.929 . S
H910 C924 0.931 . S
H911 C926 0.930 . S
C912 H900 0.930 . S
C912 C913 1.399 . S
C912 C917 1.399 . S
C913 C912 1.399 . S
C913 C914 1.376 . S
C914 H901 0.930 . S
C914 C913 1.376 . S
C914 C915 1.388 . S
C915 H902 0.930 . S
C915 C914 1.388 . S
C915 C916 1.390 . S
C916 C915 1.390 . S
C916 C917 1.394 . S
C916 C922 1.465 . S
C917 C912 1.399 . S
C917 C916 1.394 . S
C917 C918 1.516 . S
C918 C917 1.516 . S
C918 C919 1.502 . S
C918 C920 1.561 . S
C918 C921 1.526 . S
C919 H903 0.959 . S
C919 H904 0.959 . S
C919 H905 0.961 . S
C919 C918 1.502 . S
C920 H906 0.960 . S
C920 H907 0.961 . S
C920 H908 0.959 . S
C920 C918 1.561 . S
C921 C918 1.526 . S
C921 C922 1.396 . S
C921 C926 1.390 . S
C922 C916 1.465 . S
C922 C921 1.396 . S
C922 C923 1.399 . S
C923 H909 0.929 . S
C923 C922 1.399 . S
C923 C924 1.385 . S
C924 H910 0.931 . S
C924 C923 1.385 . S
C924 C925 1.389 . S
C925 C924 1.389 . S
C925 C926 1.387 . S
C926 H911 0.930 . S
C926 C921 1.390 . S
C926 C925 1.387 . S
H927 C939 0.930 . S
H928 C941 0.930 . S
H929 C942 0.930 . S
H930 C946 0.959 . S
H931 C946 0.959 . S
H932 C946 0.961 . S
H933 C947 0.960 . S
H934 C947 0.961 . S
H935 C947 0.959 . S
H936 C950 0.929 . S
H937 C951 0.931 . S
H938 C953 0.930 . S
C939 H927 0.930 . S
C939 C940 1.399 . S
C939 C944 1.399 . S
C940 C939 1.399 . S
C940 C941 1.376 . S
C941 H928 0.930 . S
C941 C940 1.376 . S
C941 C942 1.388 . S
C942 H929 0.930 . S
C942 C941 1.388 . S
C942 C943 1.390 . S
C943 C942 1.390 . S
C943 C944 1.394 . S
C943 C949 1.465 . S
C944 C939 1.399 . S
C944 C943 1.394 . S
C944 C945 1.516 . S
C945 C944 1.516 . S
C945 C946 1.502 . S
C945 C947 1.561 . S
C945 C948 1.526 . S
C946 H930 0.959 . S
C946 H931 0.959 . S
C946 H932 0.961 . S
C946 C945 1.502 . S
C947 H933 0.960 . S
C947 H934 0.961 . S
C947 H935 0.959 . S
C947 C945 1.561 . S
C948 C945 1.526 . S
C948 C949 1.396 . S
C948 C953 1.390 . S
C949 C943 1.465 . S
C949 C948 1.396 . S
C949 C950 1.399 . S
C950 H936 0.929 . S
C950 C949 1.399 . S
C950 C951 1.385 . S
C951 H937 0.931 . S
C951 C950 1.385 . S
C951 C952 1.389 . S
C952 C951 1.389 . S
C952 C953 1.387 . S
C953 H938 0.930 . S
C953 C948 1.390 . S
C953 C952 1.387 . S
H954 C966 0.930 . S
H955 C968 0.930 . S
H956 C969 0.930 . S
H957 C973 0.959 . S
H958 C973 0.959 . S
H959 C973 0.961 . S
H960 C974 0.960 . S
H961 C974 0.961 . S
H962 C974 0.959 . S
H963 C977 0.929 . S
H964 C978 0.931 . S
H965 C980 0.930 . S
C966 H954 0.930 . S
C966 C967 1.399 . S
C966 C971 1.399 . S
C967 C966 1.399 . S
C967 C968 1.376 . S
C968 H955 0.930 . S
C968 C967 1.376 . S
C968 C969 1.388 . S
C969 H956 0.930 . S
C969 C968 1.388 . S
C969 C970 1.390 . S
C970 C969 1.390 . S
C970 C971 1.394 . S
C970 C976 1.465 . S
C971 C966 1.399 . S
C971 C970 1.394 . S
C971 C972 1.516 . S
C972 C971 1.516 . S
C972 C973 1.502 . S
C972 C974 1.561 . S
C972 C975 1.526 . S
C973 H957 0.959 . S
C973 H958 0.959 . S
C973 H959 0.961 . S
C973 C972 1.502 . S
C974 H960 0.960 . S
C974 H961 0.961 . S
C974 H962 0.959 . S
C974 C972 1.561 . S
C975 C972 1.526 . S
C975 C976 1.396 . S
C975 C980 1.390 . S
C976 C970 1.465 . S
C976 C975 1.396 . S
C976 C977 1.399 . S
C977 H963 0.929 . S
C977 C976 1.399 . S
C977 C978 1.385 . S
C978 H964 0.931 . S
C978 C977 1.385 . S
C978 C979 1.389 . S
C979 C978 1.389 . S
C979 C980 1.387 . S
C980 H965 0.930 . S
C980 C975 1.390 . S
C980 C979 1.387 . S
H981 C993 0.930 . S
H982 C995 0.930 . S
H983 C996 0.930 . S
H984 C1000 0.959 . S
H985 C1000 0.959 . S
H986 C1000 0.961 . S
H987 C1001 0.960 . S
H988 C1001 0.961 . S
H989 C1001 0.959 . S
H990 C1004 0.929 . S
H991 C1005 0.931 . S
H992 C1007 0.930 . S
C993 H981 0.930 . S
C993 C994 1.399 . S
C993 C998 1.399 . S
C994 C993 1.399 . S
C994 C995 1.376 . S
C995 H982 0.930 . S
C995 C994 1.376 . S
C995 C996 1.388 . S
C996 H983 0.930 . S
C996 C995 1.388 . S
C996 C997 1.390 . S
C997 C996 1.390 . S
C997 C998 1.394 . S
C997 C1003 1.465 . S
C998 C993 1.399 . S
C998 C997 1.394 . S
C998 C999 1.516 . S
C999 C998 1.516 . S
C999 C1000 1.502 . S
C999 C1001 1.561 . S
C999 C1002 1.526 . S
C1000 H984 0.959 . S
C1000 H985 0.959 . S
C1000 H986 0.961 . S
C1000 C999 1.502 . S
C1001 H987 0.960 . S
C1001 H988 0.961 . S
C1001 H989 0.959 . S
C1001 C999 1.561 . S
C1002 C999 1.526 . S
C1002 C1003 1.396 . S
C1002 C1007 1.390 . S
C1003 C997 1.465 . S
C1003 C1002 1.396 . S
C1003 C1004 1.399 . S
C1004 H990 0.929 . S
C1004 C1003 1.399 . S
C1004 C1005 1.385 . S
C1005 H991 0.931 . S
C1005 C1004 1.385 . S
C1005 C1006 1.389 . S
C1006 C1005 1.389 . S
C1006 C1007 1.387 . S
C1007 H992 0.930 . S
C1007 C1002 1.390 . S
C1007 C1006 1.387 . S
H1008 C1020 0.930 . S
H1009 C1022 0.930 . S
H1010 C1023 0.930 . S
H1011 C1027 0.959 . S
H1012 C1027 0.959 . S
H1013 C1027 0.961 . S
H1014 C1028 0.960 . S
H1015 C1028 0.961 . S
H1016 C1028 0.959 . S
H1017 C1031 0.929 . S
H1018 C1032 0.931 . S
H1019 C1034 0.930 . S
C1020 H1008 0.930 . S
C1020 C1021 1.399 . S
C1020 C1025 1.399 . S
C1021 C1020 1.399 . S
C1021 C1022 1.376 . S
C1022 H1009 0.930 . S
C1022 C1021 1.376 . S
C1022 C1023 1.388 . S
C1023 H1010 0.930 . S
C1023 C1022 1.388 . S
C1023 C1024 1.390 . S
C1024 C1023 1.390 . S
C1024 C1025 1.394 . S
C1024 C1030 1.465 . S
C1025 C1020 1.399 . S
C1025 C1024 1.394 . S
C1025 C1026 1.516 . S
C1026 C1025 1.516 . S
C1026 C1027 1.502 . S
C1026 C1028 1.561 . S
C1026 C1029 1.526 . S
C1027 H1011 0.959 . S
C1027 H1012 0.959 . S
C1027 H1013 0.961 . S
C1027 C1026 1.502 . S
C1028 H1014 0.960 . S
C1028 H1015 0.961 . S
C1028 H1016 0.959 . S
C1028 C1026 1.561 . S
C1029 C1026 1.526 . S
C1029 C1030 1.396 . S
C1029 C1034 1.390 . S
C1030 C1024 1.465 . S
C1030 C1029 1.396 . S
C1030 C1031 1.399 . S
C1031 H1017 0.929 . S
C1031 C1030 1.399 . S
C1031 C1032 1.385 . S
C1032 H1018 0.931 . S
C1032 C1031 1.385 . S
C1032 C1033 1.389 . S
C1033 C1032 1.389 . S
C1033 C1034 1.387 . S
C1034 H1019 0.930 . S
C1034 C1029 1.390 . S
C1034 C1033 1.387 . S
H1035 C1047 0.930 . S
H1036 C1049 0.930 . S
H1037 C1050 0.930 . S
H1038 C1054 0.959 . S
H1039 C1054 0.959 . S
H1040 C1054 0.961 . S
H1041 C1055 0.960 . S
H1042 C1055 0.961 . S
H1043 C1055 0.959 . S
H1044 C1058 0.929 . S
H1045 C1059 0.931 . S
H1046 C1061 0.930 . S
C1047 H1035 0.930 . S
C1047 C1048 1.399 . S
C1047 C1052 1.399 . S
C1048 C1047 1.399 . S
C1048 C1049 1.376 . S
C1049 H1036 0.930 . S
C1049 C1048 1.376 . S
C1049 C1050 1.388 . S
C1050 H1037 0.930 . S
C1050 C1049 1.388 . S
C1050 C1051 1.390 . S
C1051 C1050 1.390 . S
C1051 C1052 1.394 . S
C1051 C1057 1.465 . S
C1052 C1047 1.399 . S
C1052 C1051 1.394 . S
C1052 C1053 1.516 . S
C1053 C1052 1.516 . S
C1053 C1054 1.502 . S
C1053 C1055 1.561 . S
C1053 C1056 1.526 . S
C1054 H1038 0.959 . S
C1054 H1039 0.959 . S
C1054 H1040 0.961 . S
C1054 C1053 1.502 . S
C1055 H1041 0.960 . S
C1055 H1042 0.961 . S
C1055 H1043 0.959 . S
C1055 C1053 1.561 . S
C1056 C1053 1.526 . S
C1056 C1057 1.396 . S
C1056 C1061 1.390 . S
C1057 C1051 1.465 . S
C1057 C1056 1.396 . S
C1057 C1058 1.399 . S
C1058 H1044 0.929 . S
C1058 C1057 1.399 . S
C1058 C1059 1.385 . S
C1059 H1045 0.931 . S
C1059 C1058 1.385 . S
C1059 C1060 1.389 . S
C1060 C1059 1.389 . S
C1060 C1061 1.387 . S
C1061 H1046 0.930 . S
C1061 C1056 1.390 . S
C1061 C1060 1.387 . S
H1062 C1074 0.930 . S
H1063 C1076 0.930 . S
H1064 C1077 0.930 . S
H1065 C1081 0.959 . S
H1066 C1081 0.959 . S
H1067 C1081 0.961 . S
H1068 C1082 0.960 . S
H1069 C1082 0.961 . S
H1070 C1082 0.959 . S
H1071 C1085 0.929 . S
H1072 C1086 0.931 . S
H1073 C1088 0.930 . S
C1074 H1062 0.930 . S
C1074 C1075 1.399 . S
C1074 C1079 1.399 . S
C1075 C1074 1.399 . S
C1075 C1076 1.376 . S
C1076 H1063 0.930 . S
C1076 C1075 1.376 . S
C1076 C1077 1.388 . S
C1077 H1064 0.930 . S
C1077 C1076 1.388 . S
C1077 C1078 1.390 . S
C1078 C1077 1.390 . S
C1078 C1079 1.394 . S
C1078 C1084 1.465 . S
C1079 C1074 1.399 . S
C1079 C1078 1.394 . S
C1079 C1080 1.516 . S
C1080 C1079 1.516 . S
C1080 C1081 1.502 . S
C1080 C1082 1.561 . S
C1080 C1083 1.526 . S
C1081 H1065 0.959 . S
C1081 H1066 0.959 . S
C1081 H1067 0.961 . S
C1081 C1080 1.502 . S
C1082 H1068 0.960 . S
C1082 H1069 0.961 . S
C1082 H1070 0.959 . S
C1082 C1080 1.561 . S
C1083 C1080 1.526 . S
C1083 C1084 1.396 . S
C1083 C1088 1.390 . S
C1084 C1078 1.465 . S
C1084 C1083 1.396 . S
C1084 C1085 1.399 . S
C1085 H1071 0.929 . S
C1085 C1084 1.399 . S
C1085 C1086 1.385 . S
C1086 H1072 0.931 . S
C1086 C1085 1.385 . S
C1086 C1087 1.389 . S
C1087 C1086 1.389 . S
C1087 C1088 1.387 . S
C1088 H1073 0.930 . S
C1088 C1083 1.390 . S
C1088 C1087 1.387 . S
H1089 C1101 0.930 . S
H1090 C1103 0.930 . S
H1091 C1104 0.930 . S
H1092 C1108 0.959 . S
H1093 C1108 0.959 . S
H1094 C1108 0.961 . S
H1095 C1109 0.960 . S
H1096 C1109 0.961 . S
H1097 C1109 0.959 . S
H1098 C1112 0.929 . S
H1099 C1113 0.931 . S
H1100 C1115 0.930 . S
C1101 H1089 0.930 . S
C1101 C1102 1.399 . S
C1101 C1106 1.399 . S
C1102 C1101 1.399 . S
C1102 C1103 1.376 . S
C1103 H1090 0.930 . S
C1103 C1102 1.376 . S
C1103 C1104 1.388 . S
C1104 H1091 0.930 . S
C1104 C1103 1.388 . S
C1104 C1105 1.390 . S
C1105 C1104 1.390 . S
C1105 C1106 1.394 . S
C1105 C1111 1.465 . S
C1106 C1101 1.399 . S
C1106 C1105 1.394 . S
C1106 C1107 1.516 . S
C1107 C1106 1.516 . S
C1107 C1108 1.502 . S
C1107 C1109 1.561 . S
C1107 C1110 1.526 . S
C1108 H1092 0.959 . S
C1108 H1093 0.959 . S
C1108 H1094 0.961 . S
C1108 C1107 1.502 . S
C1109 H1095 0.960 . S
C1109 H1096 0.961 . S
C1109 H1097 0.959 . S
C1109 C1107 1.561 . S
C1110 C1107 1.526 . S
C1110 C1111 1.396 . S
C1110 C1115 1.390 . S
C1111 C1105 1.465 . S
C1111 C1110 1.396 . S
C1111 C1112 1.399 . S
C1112 H1098 0.929 . S
C1112 C1111 1.399 . S
C1112 C1113 1.385 . S
C1113 H1099 0.931 . S
C1113 C1112 1.385 . S
C1113 C1114 1.389 . S
C1114 C1113 1.389 . S
C1114 C1115 1.387 . S
C1115 H1100 0.930 . S
C1115 C1110 1.390 . S
C1115 C1114 1.387 . S
H1116 C1128 0.930 . S
H1117 C1130 0.930 . S
H1118 C1131 0.930 . S
H1119 C1135 0.959 . S
H1120 C1135 0.959 . S
H1121 C1135 0.961 . S
H1122 C1136 0.960 . S
H1123 C1136 0.961 . S
H1124 C1136 0.959 . S
H1125 C1139 0.929 . S
H1126 C1140 0.931 . S
H1127 C1142 0.930 . S
C1128 H1116 0.930 . S
C1128 C1129 1.399 . S
C1128 C1133 1.399 . S
C1129 C1128 1.399 . S
C1129 C1130 1.376 . S
C1130 H1117 0.930 . S
C1130 C1129 1.376 . S
C1130 C1131 1.388 . S
C1131 H1118 0.930 . S
C1131 C1130 1.388 . S
C1131 C1132 1.390 . S
C1132 C1131 1.390 . S
C1132 C1133 1.394 . S
C1132 C1138 1.465 . S
C1133 C1128 1.399 . S
C1133 C1132 1.394 . S
C1133 C1134 1.516 . S
C1134 C1133 1.516 . S
C1134 C1135 1.502 . S
C1134 C1136 1.561 . S
C1134 C1137 1.526 . S
C1135 H1119 0.959 . S
C1135 H1120 0.959 . S
C1135 H1121 0.961 . S
C1135 C1134 1.502 . S
C1136 H1122 0.960 . S
C1136 H1123 0.961 . S
C1136 H1124 0.959 . S
C1136 C1134 1.561 . S
C1137 C1134 1.526 . S
C1137 C1138 1.396 . S
C1137 C1142 1.390 . S
C1138 C1132 1.465 . S
C1138 C1137 1.396 . S
C1138 C1139 1.399 . S
C1139 H1125 0.929 . S
C1139 C1138 1.399 . S
C1139 C1140 1.385 . S
C1140 H1126 0.931 . S
C1140 C1139 1.385 . S
C1140 C1141 1.389 . S
C1141 C1140 1.389 . S
C1141 C1142 1.387 . S
C1142 H1127 0.930 . S
C1142 C1137 1.390 . S
C1142 C1141 1.387 . S
H1143 C1155 0.930 . S
H1144 C1157 0.930 . S
H1145 C1158 0.930 . S
H1146 C1162 0.959 . S
H1147 C1162 0.959 . S
H1148 C1162 0.961 . S
H1149 C1163 0.960 . S
H1150 C1163 0.961 . S
H1151 C1163 0.959 . S
H1152 C1166 0.929 . S
H1153 C1167 0.931 . S
H1154 C1169 0.930 . S
C1155 H1143 0.930 . S
C1155 C1156 1.399 . S
C1155 C1160 1.399 . S
C1156 C1155 1.399 . S
C1156 C1157 1.376 . S
C1157 H1144 0.930 . S
C1157 C1156 1.376 . S
C1157 C1158 1.388 . S
C1158 H1145 0.930 . S
C1158 C1157 1.388 . S
C1158 C1159 1.390 . S
C1159 C1158 1.390 . S
C1159 C1160 1.394 . S
C1159 C1165 1.465 . S
C1160 C1155 1.399 . S
C1160 C1159 1.394 . S
C1160 C1161 1.516 . S
C1161 C1160 1.516 . S
C1161 C1162 1.502 . S
C1161 C1163 1.561 . S
C1161 C1164 1.526 . S
C1162 H1146 0.959 . S
C1162 H1147 0.959 . S
C1162 H1148 0.961 . S
C1162 C1161 1.502 . S
C1163 H1149 0.960 . S
C1163 H1150 0.961 . S
C1163 H1151 0.959 . S
C1163 C1161 1.561 . S
C1164 C1161 1.526 . S
C1164 C1165 1.396 . S
C1164 C1169 1.390 . S
C1165 C1159 1.465 . S
C1165 C1164 1.396 . S
C1165 C1166 1.399 . S
C1166 H1152 0.929 . S
C1166 C1165 1.399 . S
C1166 C1167 1.385 . S
C1167 H1153 0.931 . S
C1167 C1166 1.385 . S
C1167 C1168 1.389 . S
C1168 C1167 1.389 . S
C1168 C1169 1.387 . S
C1169 H1154 0.930 . S
C1169 C1164 1.390 . S
C1169 C1168 1.387 . S
H1170 C1182 0.930 . S
H1171 C1184 0.930 . S
H1172 C1185 0.930 . S
H1173 C1189 0.959 . S
H1174 C1189 0.959 . S
H1175 C1189 0.961 . S
H1176 C1190 0.960 . S
H1177 C1190 0.961 . S
H1178 C1190 0.959 . S
H1179 C1193 0.929 . S
H1180 C1194 0.931 . S
H1181 C1196 0.930 . S
C1182 H1170 0.930 . S
C1182 C1183 1.399 . S
C1182 C1187 1.399 . S
C1183 C1182 1.399 . S
C1183 C1184 1.376 . S
C1184 H1171 0.930 . S
C1184 C1183 1.376 . S
C1184 C1185 1.388 . S
C1185 H1172 0.930 . S
C1185 C1184 1.388 . S
C1185 C1186 1.390 . S
C1186 C1185 1.390 . S
C1186 C1187 1.394 . S
C1186 C1192 1.465 . S
C1187 C1182 1.399 . S
C1187 C1186 1.394 . S
C1187 C1188 1.516 . S
C1188 C1187 1.516 . S
C1188 C1189 1.502 . S
C1188 C1190 1.561 . S
C1188 C1191 1.526 . S
C1189 H1173 0.959 . S
C1189 H1174 0.959 . S
C1189 H1175 0.961 . S
C1189 C1188 1.502 . S
C1190 H1176 0.960 . S
C1190 H1177 0.961 . S
C1190 H1178 0.959 . S
C1190 C1188 1.561 . S
C1191 C1188 1.526 . S
C1191 C1192 1.396 . S
C1191 C1196 1.390 . S
C1192 C1186 1.465 . S
C1192 C1191 1.396 . S
C1192 C1193 1.399 . S
C1193 H1179 0.929 . S
C1193 C1192 1.399 . S
C1193 C1194 1.385 . S
C1194 H1180 0.931 . S
C1194 C1193 1.385 . S
C1194 C1195 1.389 . S
C1195 C1194 1.389 . S
C1195 C1196 1.387 . S
C1196 H1181 0.930 . S
C1196 C1191 1.390 . S
C1196 C1195 1.387 . S
H1197 C1209 0.930 . S
H1198 C1211 0.930 . S
H1199 C1212 0.930 . S
H1200 C1216 0.959 . S
H1201 C1216 0.959 . S
H1202 C1216 0.961 . S
H1203 C1217 0.960 . S
H1204 C1217 0.961 . S
H1205 C1217 0.959 . S
H1206 C1220 0.929 . S
H1207 C1221 0.931 . S
H1208 C1223 0.930 . S
C1209 H1197 0.930 . S
C1209 C1210 1.399 . S
C1209 C1214 1.399 . S
C1210 C1209 1.399 . S
C1210 C1211 1.376 . S
C1211 H1198 0.930 . S
C1211 C1210 1.376 . S
C1211 C1212 1.388 . S
C1212 H1199 0.930 . S
C1212 C1211 1.388 . S
C1212 C1213 1.390 . S
C1213 C1212 1.390 . S
C1213 C1214 1.394 . S
C1213 C1219 1.465 . S
C1214 C1209 1.399 . S
C1214 C1213 1.394 . S
C1214 C1215 1.516 . S
C1215 C1214 1.516 . S
C1215 C1216 1.502 . S
C1215 C1217 1.561 . S
C1215 C1218 1.526 . S
C1216 H1200 0.959 . S
C1216 H1201 0.959 . S
C1216 H1202 0.961 . S
C1216 C1215 1.502 . S
C1217 H1203 0.960 . S
C1217 H1204 0.961 . S
C1217 H1205 0.959 . S
C1217 C1215 1.561 . S
C1218 C1215 1.526 . S
C1218 C1219 1.396 . S
C1218 C1223 1.390 . S
C1219 C1213 1.465 . S
C1219 C1218 1.396 . S
C1219 C1220 1.399 . S
C1220 H1206 0.929 . S
C1220 C1219 1.399 . S
C1220 C1221 1.385 . S
C1221 H1207 0.931 . S
C1221 C1220 1.385 . S
C1221 C1222 1.389 . S
C1222 C1221 1.389 . S
C1222 C1223 1.387 . S
C1223 H1208 0.930 . S
C1223 C1218 1.390 . S
C1223 C1222 1.387 . S
H1224 C1236 0.930 . S
H1225 C1238 0.930 . S
H1226 C1239 0.930 . S
H1227 C1243 0.959 . S
H1228 C1243 0.959 . S
H1229 C1243 0.961 . S
H1230 C1244 0.960 . S
H1231 C1244 0.961 . S
H1232 C1244 0.959 . S
H1233 C1247 0.929 . S
H1234 C1248 0.931 . S
H1235 C1250 0.930 . S
C1236 H1224 0.930 . S
C1236 C1237 1.399 . S
C1236 C1241 1.399 . S
C1237 C1236 1.399 . S
C1237 C1238 1.376 . S
C1238 H1225 0.930 . S
C1238 C1237 1.376 . S
C1238 C1239 1.388 . S
C1239 H1226 0.930 . S
C1239 C1238 1.388 . S
C1239 C1240 1.390 . S
C1240 C1239 1.390 . S
C1240 C1241 1.394 . S
C1240 C1246 1.465 . S
C1241 C1236 1.399 . S
C1241 C1240 1.394 . S
C1241 C1242 1.516 . S
C1242 C1241 1.516 . S
C1242 C1243 1.502 . S
C1242 C1244 1.561 . S
C1242 C1245 1.526 . S
C1243 H1227 0.959 . S
C1243 H1228 0.959 . S
C1243 H1229 0.961 . S
C1243 C1242 1.502 . S
C1244 H1230 0.960 . S
C1244 H1231 0.961 . S
C1244 H1232 0.959 . S
C1244 C1242 1.561 . S
C1245 C1242 1.526 . S
C1245 C1246 1.396 . S
C1245 C1250 1.390 . S
C1246 C1240 1.465 . S
C1246 C1245 1.396 . S
C1246 C1247 1.399 . S
C1247 H1233 0.929 . S
C1247 C1246 1.399 . S
C1247 C1248 1.385 . S
C1248 H1234 0.931 . S
C1248 C1247 1.385 . S
C1248 C1249 1.389 . S
C1249 C1248 1.389 . S
C1249 C1250 1.387 . S
C1250 H1235 0.930 . S
C1250 C1245 1.390 . S
C1250 C1249 1.387 . S
H1251 C1263 0.930 . S
H1252 C1265 0.930 . S
H1253 C1266 0.930 . S
H1254 C1270 0.959 . S
H1255 C1270 0.959 . S
H1256 C1270 0.961 . S
H1257 C1271 0.960 . S
H1258 C1271 0.961 . S
H1259 C1271 0.959 . S
H1260 C1274 0.929 . S
H1261 C1275 0.931 . S
H1262 C1277 0.930 . S
C1263 H1251 0.930 . S
C1263 C1264 1.399 . S
C1263 C1268 1.399 . S
C1264 C1263 1.399 . S
C1264 C1265 1.376 . S
C1265 H1252 0.930 . S
C1265 C1264 1.376 . S
C1265 C1266 1.388 . S
C1266 H1253 0.930 . S
C1266 C1265 1.388 . S
C1266 C1267 1.390 . S
C1267 C1266 1.390 . S
C1267 C1268 1.394 . S
C1267 C1273 1.465 . S
C1268 C1263 1.399 . S
C1268 C1267 1.394 . S
C1268 C1269 1.516 . S
C1269 C1268 1.516 . S
C1269 C1270 1.502 . S
C1269 C1271 1.561 . S
C1269 C1272 1.526 . S
C1270 H1254 0.959 . S
C1270 H1255 0.959 . S
C1270 H1256 0.961 . S
C1270 C1269 1.502 . S
C1271 H1257 0.960 . S
C1271 H1258 0.961 . S
C1271 H1259 0.959 . S
C1271 C1269 1.561 . S
C1272 C1269 1.526 . S
C1272 C1273 1.396 . S
C1272 C1277 1.390 . S
C1273 C1267 1.465 . S
C1273 C1272 1.396 . S
C1273 C1274 1.399 . S
C1274 H1260 0.929 . S
C1274 C1273 1.399 . S
C1274 C1275 1.385 . S
C1275 H1261 0.931 . S
C1275 C1274 1.385 . S
C1275 C1276 1.389 . S
C1276 C1275 1.389 . S
C1276 C1277 1.387 . S
C1277 H1262 0.930 . S
C1277 C1272 1.390 . S
C1277 C1276 1.387 . S
H1278 C1290 0.930 . S
H1279 C1292 0.930 . S
H1280 C1293 0.930 . S
H1281 C1297 0.959 . S
H1282 C1297 0.959 . S
H1283 C1297 0.961 . S
H1284 C1298 0.960 . S
H1285 C1298 0.961 . S
H1286 C1298 0.959 . S
H1287 C1301 0.929 . S
H1288 C1302 0.931 . S
H1289 C1304 0.930 . S
C1290 H1278 0.930 . S
C1290 C1291 1.399 . S
C1290 C1295 1.399 . S
C1291 C1290 1.399 . S
C1291 C1292 1.376 . S
C1292 H1279 0.930 . S
C1292 C1291 1.376 . S
C1292 C1293 1.388 . S
C1293 H1280 0.930 . S
C1293 C1292 1.388 . S
C1293 C1294 1.390 . S
C1294 C1293 1.390 . S
C1294 C1295 1.394 . S
C1294 C1300 1.465 . S
C1295 C1290 1.399 . S
C1295 C1294 1.394 . S
C1295 C1296 1.516 . S
C1296 C1295 1.516 . S
C1296 C1297 1.502 . S
C1296 C1298 1.561 . S
C1296 C1299 1.526 . S
C1297 H1281 0.959 . S
C1297 H1282 0.959 . S
C1297 H1283 0.961 . S
C1297 C1296 1.502 . S
C1298 H1284 0.960 . S
C1298 H1285 0.961 . S
C1298 H1286 0.959 . S
C1298 C1296 1.561 . S
C1299 C1296 1.526 . S
C1299 C1300 1.396 . S
C1299 C1304 1.390 . S
C1300 C1294 1.465 . S
C1300 C1299 1.396 . S
C1300 C1301 1.399 . S
C1301 H1287 0.929 . S
C1301 C1300 1.399 . S
C1301 C1302 1.385 . S
C1302 H1288 0.931 . S
C1302 C1301 1.385 . S
C1302 C1303 1.389 . S
C1303 C1302 1.389 . S
C1303 C1304 1.387 . S
C1304 H1289 0.930 . S
C1304 C1299 1.390 . S
C1304 C1303 1.387 . S
H1305 C1317 0.930 . S
H1306 C1319 0.930 . S
H1307 C1320 0.930 . S
H1308 C1324 0.959 . S
H1309 C1324 0.959 . S
H1310 C1324 0.961 . S
H1311 C1325 0.960 . S
H1312 C1325 0.961 . S
H1313 C1325 0.959 . S
H1314 C1328 0.929 . S
H1315 C1329 0.931 . S
H1316 C1331 0.930 . S
C1317 H1305 0.930 . S
C1317 C1318 1.399 . S
C1317 C1322 1.399 . S
C1318 C1317 1.399 . S
C1318 C1319 1.376 . S
C1319 H1306 0.930 . S
C1319 C1318 1.376 . S
C1319 C1320 1.388 . S
C1320 H1307 0.930 . S
C1320 C1319 1.388 . S
C1320 C1321 1.390 . S
C1321 C1320 1.390 . S
C1321 C1322 1.394 . S
C1321 C1327 1.465 . S
C1322 C1317 1.399 . S
C1322 C1321 1.394 . S
C1322 C1323 1.516 . S
C1323 C1322 1.516 . S
C1323 C1324 1.502 . S
C1323 C1325 1.561 . S
C1323 C1326 1.526 . S
C1324 H1308 0.959 . S
C1324 H1309 0.959 . S
C1324 H1310 0.961 . S
C1324 C1323 1.502 . S
C1325 H1311 0.960 . S
C1325 H1312 0.961 . S
C1325 H1313 0.959 . S
C1325 C1323 1.561 . S
C1326 C1323 1.526 . S
C1326 C1327 1.396 . S
C1326 C1331 1.390 . S
C1327 C1321 1.465 . S
C1327 C1326 1.396 . S
C1327 C1328 1.399 . S
C1328 H1314 0.929 . S
C1328 C1327 1.399 . S
C1328 C1329 1.385 . S
C1329 H1315 0.931 . S
C1329 C1328 1.385 . S
C1329 C1330 1.389 . S
C1330 C1329 1.389 . S
C1330 C1331 1.387 . S
C1331 H1316 0.930 . S
C1331 C1326 1.390 . S
C1331 C1330 1.387 . S
H1332 C1344 0.930 . S
H1333 C1346 0.930 . S
H1334 C1347 0.930 . S
H1335 C1351 0.959 . S
H1336 C1351 0.959 . S
H1337 C1351 0.961 . S
H1338 C1352 0.960 . S
H1339 C1352 0.961 . S
H1340 C1352 0.959 . S
H1341 C1355 0.929 . S
H1342 C1356 0.931 . S
H1343 C1358 0.930 . S
C1344 H1332 0.930 . S
C1344 C1345 1.399 . S
C1344 C1349 1.399 . S
C1345 C1344 1.399 . S
C1345 C1346 1.376 . S
C1346 H1333 0.930 . S
C1346 C1345 1.376 . S
C1346 C1347 1.388 . S
C1347 H1334 0.930 . S
C1347 C1346 1.388 . S
C1347 C1348 1.390 . S
C1348 C1347 1.390 . S
C1348 C1349 1.394 . S
C1348 C1354 1.465 . S
C1349 C1344 1.399 . S
C1349 C1348 1.394 . S
C1349 C1350 1.516 . S
C1350 C1349 1.516 . S
C1350 C1351 1.502 . S
C1350 C1352 1.561 . S
C1350 C1353 1.526 . S
C1351 H1335 0.959 . S
C1351 H1336 0.959 . S
C1351 H1337 0.961 . S
C1351 C1350 1.502 . S
C1352 H1338 0.960 . S
C1352 H1339 0.961 . S
C1352 H1340 0.959 . S
C1352 C1350 1.561 . S
C1353 C1350 1.526 . S
C1353 C1354 1.396 . S
C1353 C1358 1.390 . S
C1354 C1348 1.465 . S
C1354 C1353 1.396 . S
C1354 C1355 1.399 . S
C1355 H1341 0.929 . S
C1355 C1354 1.399 . S
C1355 C1356 1.385 . S
C1356 H1342 0.931 . S
C1356 C1355 1.385 . S
C1356 C1357 1.389 . S
C1357 C1356 1.389 . S
C1357 C1358 1.387 . S
C1358 H1343 0.930 . S
C1358 C1353 1.390 . S
C1358 C1357 1.387 . S
H1359 C1371 0.930 . S
H1360 C1373 0.930 . S
H1361 C1374 0.930 . S
H1362 C1378 0.959 . S
H1363 C1378 0.959 . S
H1364 C1378 0.961 . S
H1365 C1379 0.960 . S
H1366 C1379 0.961 . S
H1367 C1379 0.959 . S
H1368 C1382 0.929 . S
H1369 C1383 0.931 . S
H1370 C1385 0.930 . S
C1371 H1359 0.930 . S
C1371 C1372 1.399 . S
C1371 C1376 1.399 . S
C1372 C1371 1.399 . S
C1372 C1373 1.376 . S
C1373 H1360 0.930 . S
C1373 C1372 1.376 . S
C1373 C1374 1.388 . S
C1374 H1361 0.930 . S
C1374 C1373 1.388 . S
C1374 C1375 1.390 . S
C1375 C1374 1.390 . S
C1375 C1376 1.394 . S
C1375 C1381 1.465 . S
C1376 C1371 1.399 . S
C1376 C1375 1.394 . S
C1376 C1377 1.516 . S
C1377 C1376 1.516 . S
C1377 C1378 1.502 . S
C1377 C1379 1.561 . S
C1377 C1380 1.526 . S
C1378 H1362 0.959 . S
C1378 H1363 0.959 . S
C1378 H1364 0.961 . S
C1378 C1377 1.502 . S
C1379 H1365 0.960 . S
C1379 H1366 0.961 . S
C1379 H1367 0.959 . S
C1379 C1377 1.561 . S
C1380 C1377 1.526 . S
C1380 C1381 1.396 . S
C1380 C1385 1.390 . S
C1381 C1375 1.465 . S
C1381 C1380 1.396 . S
C1381 C1382 1.399 . S
C1382 H1368 0.929 . S
C1382 C1381 1.399 . S
C1382 C1383 1.385 . S
C1383 H1369 0.931 . S
C1383 C1382 1.385 . S
C1383 C1384 1.389 . S
C1384 C1383 1.389 . S
C1384 C1385 1.387 . S
C1385 H1370 0.930 . S
C1385 C1380 1.390 . S
C1385 C1384 1.387 . S
H1386 C1398 0.930 . S
H1387 C1400 0.930 . S
H1388 C1401 0.930 . S
H1389 C1405 0.959 . S
H1390 C1405 0.959 . S
H1391 C1405 0.961 . S
H1392 C1406 0.960 . S
H1393 C1406 0.961 . S
H1394 C1406 0.959 . S
H1395 C1409 0.929 . S
H1396 C1410 0.931 . S
H1397 C1412 0.930 . S
C1398 H1386 0.930 . S
C1398 C1399 1.399 . S
C1398 C1403 1.399 . S
C1399 C1398 1.399 . S
C1399 C1400 1.376 . S
C1400 H1387 0.930 . S
C1400 C1399 1.376 . S
C1400 C1401 1.388 . S
C1401 H1388 0.930 . S
C1401 C1400 1.388 . S
C1401 C1402 1.390 . S
C1402 C1401 1.390 . S
C1402 C1403 1.394 . S
C1402 C1408 1.465 . S
C1403 C1398 1.399 . S
C1403 C1402 1.394 . S
C1403 C1404 1.516 . S
C1404 C1403 1.516 . S
C1404 C1405 1.502 . S
C1404 C1406 1.561 . S
C1404 C1407 1.526 . S
C1405 H1389 0.959 . S
C1405 H1390 0.959 . S
C1405 H1391 0.961 . S
C1405 C1404 1.502 . S
C1406 H1392 0.960 . S
C1406 H1393 0.961 . S
C1406 H1394 0.959 . S
C1406 C1404 1.561 . S
C1407 C1404 1.526 . S
C1407 C1408 1.396 . S
C1407 C1412 1.390 . S
C1408 C1402 1.465 . S
C1408 C1407 1.396 . S
C1408 C1409 1.399 . S
C1409 H1395 0.929 . S
C1409 C1408 1.399 . S
C1409 C1410 1.385 . S
C1410 H1396 0.931 . S
C1410 C1409 1.385 . S
C1410 C1411 1.389 . S
C1411 C1410 1.389 . S
C1411 C1412 1.387 . S
C1412 H1397 0.930 . S
C1412 C1407 1.390 . S
C1412 C1411 1.387 . S
H1413 C1425 0.930 . S
H1414 C1427 0.930 . S
H1415 C1428 0.930 . S
H1416 C1432 0.959 . S
H1417 C1432 0.959 . S
H1418 C1432 0.961 . S
H1419 C1433 0.960 . S
H1420 C1433 0.961 . S
H1421 C1433 0.959 . S
H1422 C1436 0.929 . S
H1423 C1437 0.931 . S
H1424 C1439 0.930 . S
C1425 H1413 0.930 . S
C1425 C1426 1.399 . S
C1425 C1430 1.399 . S
C1426 C1425 1.399 . S
C1426 C1427 1.376 . S
C1427 H1414 0.930 . S
C1427 C1426 1.376 . S
C1427 C1428 1.388 . S
C1428 H1415 0.930 . S
C1428 C1427 1.388 . S
C1428 C1429 1.390 . S
C1429 C1428 1.390 . S
C1429 C1430 1.394 . S
C1429 C1435 1.465 . S
C1430 C1425 1.399 . S
C1430 C1429 1.394 . S
C1430 C1431 1.516 . S
C1431 C1430 1.516 . S
C1431 C1432 1.502 . S
C1431 C1433 1.561 . S
C1431 C1434 1.526 . S
C1432 H1416 0.959 . S
C1432 H1417 0.959 . S
C1432 H1418 0.961 . S
C1432 C1431 1.502 . S
C1433 H1419 0.960 . S
C1433 H1420 0.961 . S
C1433 H1421 0.959 . S
C1433 C1431 1.561 . S
C1434 C1431 1.526 . S
C1434 C1435 1.396 . S
C1434 C1439 1.390 . S
C1435 C1429 1.465 . S
C1435 C1434 1.396 . S
C1435 C1436 1.399 . S
C1436 H1422 0.929 . S
C1436 C1435 1.399 . S
C1436 C1437 1.385 . S
C1437 H1423 0.931 . S
C1437 C1436 1.385 . S
C1437 C1438 1.389 . S
C1438 C1437 1.389 . S
C1438 C1439 1.387 . S
C1439 H1424 0.930 . S
C1439 C1434 1.390 . S
C1439 C1438 1.387 . S
H1440 C1452 0.930 . S
H1441 C1454 0.930 . S
H1442 C1455 0.930 . S
H1443 C1459 0.959 . S
H1444 C1459 0.959 . S
H1445 C1459 0.961 . S
H1446 C1460 0.960 . S
H1447 C1460 0.961 . S
H1448 C1460 0.959 . S
H1449 C1463 0.929 . S
H1450 C1464 0.931 . S
H1451 C1466 0.930 . S
C1452 H1440 0.930 . S
C1452 C1453 1.399 . S
C1452 C1457 1.399 . S
C1453 C1452 1.399 . S
C1453 C1454 1.376 . S
C1454 H1441 0.930 . S
C1454 C1453 1.376 . S
C1454 C1455 1.388 . S
C1455 H1442 0.930 . S
C1455 C1454 1.388 . S
C1455 C1456 1.390 . S
C1456 C1455 1.390 . S
C1456 C1457 1.394 . S
C1456 C1462 1.465 . S
C1457 C1452 1.399 . S
C1457 C1456 1.394 . S
C1457 C1458 1.516 . S
C1458 C1457 1.516 . S
C1458 C1459 1.502 . S
C1458 C1460 1.561 . S
C1458 C1461 1.526 . S
C1459 H1443 0.959 . S
C1459 H1444 0.959 . S
C1459 H1445 0.961 . S
C1459 C1458 1.502 . S
C1460 H1446 0.960 . S
C1460 H1447 0.961 . S
C1460 H1448 0.959 . S
C1460 C1458 1.561 . S
C1461 C1458 1.526 . S
C1461 C1462 1.396 . S
C1461 C1466 1.390 . S
C1462 C1456 1.465 . S
C1462 C1461 1.396 . S
C1462 C1463 1.399 . S
C1463 H1449 0.929 . S
C1463 C1462 1.399 . S
C1463 C1464 1.385 . S
C1464 H1450 0.931 . S
C1464 C1463 1.385 . S
C1464 C1465 1.389 . S
C1465 C1464 1.389 . S
C1465 C1466 1.387 . S
C1466 H1451 0.930 . S
C1466 C1461 1.390 . S
C1466 C1465 1.387 . S
H1467 C1479 0.930 . S
H1468 C1481 0.930 . S
H1469 C1482 0.930 . S
H1470 C1486 0.959 . S
H1471 C1486 0.959 . S
H1472 C1486 0.961 . S
H1473 C1487 0.960 . S
H1474 C1487 0.961 . S
H1475 C1487 0.959 . S
H1476 C1490 0.929 . S
H1477 C1491 0.931 . S
H1478 C1493 0.930 . S
C1479 H1467 0.930 . S
C1479 C1480 1.399 . S
C1479 C1484 1.399 . S
C1480 C1479 1.399 . S
C1480 C1481 1.376 . S
C1481 H1468 0.930 . S
C1481 C1480 1.376 . S
C1481 C1482 1.388 . S
C1482 H1469 0.930 . S
C1482 C1481 1.388 . S
C1482 C1483 1.390 . S
C1483 C1482 1.390 . S
C1483 C1484 1.394 . S
C1483 C1489 1.465 . S
C1484 C1479 1.399 . S
C1484 C1483 1.394 . S
C1484 C1485 1.516 . S
C1485 C1484 1.516 . S
C1485 C1486 1.502 . S
C1485 C1487 1.561 . S
C1485 C1488 1.526 . S
C1486 H1470 0.959 . S
C1486 H1471 0.959 . S
C1486 H1472 0.961 . S
C1486 C1485 1.502 . S
C1487 H1473 0.960 . S
C1487 H1474 0.961 . S
C1487 H1475 0.959 . S
C1487 C1485 1.561 . S
C1488 C1485 1.526 . S
C1488 C1489 1.396 . S
C1488 C1493 1.390 . S
C1489 C1483 1.465 . S
C1489 C1488 1.396 . S
C1489 C1490 1.399 . S
C1490 H1476 0.929 . S
C1490 C1489 1.399 . S
C1490 C1491 1.385 . S
C1491 H1477 0.931 . S
C1491 C1490 1.385 . S
C1491 C1492 1.389 . S
C1492 C1491 1.389 . S
C1492 C1493 1.387 . S
C1493 H1478 0.930 . S
C1493 C1488 1.390 . S
C1493 C1492 1.387 . S
H1494 C1506 0.930 . S
H1495 C1508 0.930 . S
H1496 C1509 0.930 . S
H1497 C1513 0.959 . S
H1498 C1513 0.959 . S
H1499 C1513 0.961 . S
H1500 C1514 0.960 . S
H1501 C1514 0.961 . S
H1502 C1514 0.959 . S
H1503 C1517 0.929 . S
H1504 C1518 0.931 . S
H1505 C1520 0.930 . S
C1506 H1494 0.930 . S
C1506 C1507 1.399 . S
C1506 C1511 1.399 . S
C1507 C1506 1.399 . S
C1507 C1508 1.376 . S
C1508 H1495 0.930 . S
C1508 C1507 1.376 . S
C1508 C1509 1.388 . S
C1509 H1496 0.930 . S
C1509 C1508 1.388 . S
C1509 C1510 1.390 . S
C1510 C1509 1.390 . S
C1510 C1511 1.394 . S
C1510 C1516 1.465 . S
C1511 C1506 1.399 . S
C1511 C1510 1.394 . S
C1511 C1512 1.516 . S
C1512 C1511 1.516 . S
C1512 C1513 1.502 . S
C1512 C1514 1.561 . S
C1512 C1515 1.526 . S
C1513 H1497 0.959 . S
C1513 H1498 0.959 . S
C1513 H1499 0.961 . S
C1513 C1512 1.502 . S
C1514 H1500 0.960 . S
C1514 H1501 0.961 . S
C1514 H1502 0.959 . S
C1514 C1512 1.561 . S
C1515 C1512 1.526 . S
C1515 C1516 1.396 . S
C1515 C1520 1.390 . S
C1516 C1510 1.465 . S
C1516 C1515 1.396 . S
C1516 C1517 1.399 . S
C1517 H1503 0.929 . S
C1517 C1516 1.399 . S
C1517 C1518 1.385 . S
C1518 H1504 0.931 . S
C1518 C1517 1.385 . S
C1518 C1519 1.389 . S
C1519 C1518 1.389 . S
C1519 C1520 1.387 . S
C1520 H1505 0.930 . S
C1520 C1515 1.390 . S
C1520 C1519 1.387 . S
H1521 C1533 0.930 . S
H1522 C1535 0.930 . S
H1523 C1536 0.930 . S
H1524 C1540 0.959 . S
H1525 C1540 0.959 . S
H1526 C1540 0.961 . S
H1527 C1541 0.960 . S
H1528 C1541 0.961 . S
H1529 C1541 0.959 . S
H1530 C1544 0.929 . S
H1531 C1545 0.931 . S
H1532 C1547 0.930 . S
C1533 H1521 0.930 . S
C1533 C1534 1.399 . S
C1533 C1538 1.399 . S
C1534 C1533 1.399 . S
C1534 C1535 1.376 . S
C1535 H1522 0.930 . S
C1535 C1534 1.376 . S
C1535 C1536 1.388 . S
C1536 H1523 0.930 . S
C1536 C1535 1.388 . S
C1536 C1537 1.390 . S
C1537 C1536 1.390 . S
C1537 C1538 1.394 . S
C1537 C1543 1.465 . S
C1538 C1533 1.399 . S
C1538 C1537 1.394 . S
C1538 C1539 1.516 . S
C1539 C1538 1.516 . S
C1539 C1540 1.502 . S
C1539 C1541 1.561 . S
C1539 C1542 1.526 . S
C1540 H1524 0.959 . S
C1540 H1525 0.959 . S
C1540 H1526 0.961 . S
C1540 C1539 1.502 . S
C1541 H1527 0.960 . S
C1541 H1528 0.961 . S
C1541 H1529 0.959 . S
C1541 C1539 1.561 . S
C1542 C1539 1.526 . S
C1542 C1543 1.396 . S
C1542 C1547 1.390 . S
C1543 C1537 1.465 . S
C1543 C1542 1.396 . S
C1543 C1544 1.399 . S
C1544 H1530 0.929 . S
C1544 C1543 1.399 . S
C1544 C1545 1.385 . S
C1545 H1531 0.931 . S
C1545 C1544 1.385 . S
C1545 C1546 1.389 . S
C1546 C1545 1.389 . S
C1546 C1547 1.387 . S
C1547 H1532 0.930 . S
C1547 C1542 1.390 . S
C1547 C1546 1.387 . S
H1548 C1560 0.930 . S
H1549 C1562 0.930 . S
H1550 C1563 0.930 . S
H1551 C1567 0.959 . S
H1552 C1567 0.959 . S
H1553 C1567 0.961 . S
H1554 C1568 0.960 . S
H1555 C1568 0.961 . S
H1556 C1568 0.959 . S
H1557 C1571 0.929 . S
H1558 C1572 0.931 . S
H1559 C1574 0.930 . S
C1560 H1548 0.930 . S
C1560 C1561 1.399 . S
C1560 C1565 1.399 . S
C1561 C1560 1.399 . S
C1561 C1562 1.376 . S
C1562 H1549 0.930 . S
C1562 C1561 1.376 . S
C1562 C1563 1.388 . S
C1563 H1550 0.930 . S
C1563 C1562 1.388 . S
C1563 C1564 1.390 . S
C1564 C1563 1.390 . S
C1564 C1565 1.394 . S
C1564 C1570 1.465 . S
C1565 C1560 1.399 . S
C1565 C1564 1.394 . S
C1565 C1566 1.516 . S
C1566 C1565 1.516 . S
C1566 C1567 1.502 . S
C1566 C1568 1.561 . S
C1566 C1569 1.526 . S
C1567 H1551 0.959 . S
C1567 H1552 0.959 . S
C1567 H1553 0.961 . S
C1567 C1566 1.502 . S
C1568 H1554 0.960 . S
C1568 H1555 0.961 . S
C1568 H1556 0.959 . S
C1568 C1566 1.561 . S
C1569 C1566 1.526 . S
C1569 C1570 1.396 . S
C1569 C1574 1.390 . S
C1570 C1564 1.465 . S
C1570 C1569 1.396 . S
C1570 C1571 1.399 . S
C1571 H1557 0.929 . S
C1571 C1570 1.399 . S
C1571 C1572 1.385 . S
C1572 H1558 0.931 . S
C1572 C1571 1.385 . S
C1572 C1573 1.389 . S
C1573 C1572 1.389 . S
C1573 C1574 1.387 . S
C1574 H1559 0.930 . S
C1574 C1569 1.390 . S
C1574 C1573 1.387 . S
H1575 C1587 0.930 . S
H1576 C1589 0.930 1_556 S
H1577 C1590 0.930 . S
H1578 C1594 0.959 . S
H1579 C1594 0.959 . S
H1580 C1594 0.961 . S
H1581 C1595 0.960 . S
H1582 C1595 0.961 . S
H1583 C1595 0.959 . S
H1584 C1598 0.929 . S
H1585 C1599 0.931 . S
H1586 C1601 0.930 . S
C1587 H1575 0.930 . S
C1587 C1588 1.399 . S
C1587 C1592 1.399 . S
C1588 C1587 1.399 . S
C1588 C1589 1.376 . S
C1589 H1576 0.930 1_554 S
C1589 C1588 1.376 . S
C1589 C1590 1.388 . S
C1590 H1577 0.930 . S
C1590 C1589 1.388 . S
C1590 C1591 1.390 . S
C1591 C1590 1.390 . S
C1591 C1592 1.394 . S
C1591 C1597 1.465 . S
C1592 C1587 1.399 . S
C1592 C1591 1.394 . S
C1592 C1593 1.516 . S
C1593 C1592 1.516 . S
C1593 C1594 1.502 . S
C1593 C1595 1.561 . S
C1593 C1596 1.526 . S
C1594 H1578 0.959 . S
C1594 H1579 0.959 . S
C1594 H1580 0.961 . S
C1594 C1593 1.502 . S
C1595 H1581 0.960 . S
C1595 H1582 0.961 . S
C1595 H1583 0.959 . S
C1595 C1593 1.561 . S
C1596 C1593 1.526 . S
C1596 C1597 1.396 . S
C1596 C1601 1.390 . S
C1597 C1591 1.465 . S
C1597 C1596 1.396 . S
C1597 C1598 1.399 . S
C1598 H1584 0.929 . S
C1598 C1597 1.399 . S
C1598 C1599 1.385 . S
C1599 H1585 0.931 . S
C1599 C1598 1.385 . S
C1599 C1600 1.389 . S
C1600 C1599 1.389 . S
C1600 C1601 1.387 . S
C1601 H1586 0.930 . S
C1601 C1596 1.390 . S
C1601 C1600 1.387 . S
H1602 C1614 0.930 . S
H1603 C1616 0.930 . S
H1604 C1617 0.930 . S
H1605 C1621 0.959 . S
H1606 C1621 0.959 . S
H1607 C1621 0.961 . S
H1608 C1622 0.960 . S
H1609 C1622 0.961 . S
H1610 C1622 0.959 . S
H1611 C1625 0.929 . S
H1612 C1626 0.931 . S
H1613 C1628 0.930 . S
C1614 H1602 0.930 . S
C1614 C1615 1.399 . S
C1614 C1619 1.399 . S
C1615 C1614 1.399 . S
C1615 C1616 1.376 . S
C1616 H1603 0.930 . S
C1616 C1615 1.376 . S
C1616 C1617 1.388 . S
C1617 H1604 0.930 . S
C1617 C1616 1.388 . S
C1617 C1618 1.390 . S
C1618 C1617 1.390 . S
C1618 C1619 1.394 . S
C1618 C1624 1.465 . S
C1619 C1614 1.399 . S
C1619 C1618 1.394 . S
C1619 C1620 1.516 . S
C1620 C1619 1.516 . S
C1620 C1621 1.502 . S
C1620 C1622 1.561 . S
C1620 C1623 1.526 . S
C1621 H1605 0.959 . S
C1621 H1606 0.959 . S
C1621 H1607 0.961 . S
C1621 C1620 1.502 . S
C1622 H1608 0.960 . S
C1622 H1609 0.961 . S
C1622 H1610 0.959 . S
C1622 C1620 1.561 . S
C1623 C1620 1.526 . S
C1623 C1624 1.396 . S
C1623 C1628 1.390 . S
C1624 C1618 1.465 . S
C1624 C1623 1.396 . S
C1624 C1625 1.399 . S
C1625 H1611 0.929 . S
C1625 C1624 1.399 . S
C1625 C1626 1.385 . S
C1626 H1612 0.931 . S
C1626 C1625 1.385 . S
C1626 C1627 1.389 . S
C1627 C1626 1.389 . S
C1627 C1628 1.387 . S
C1628 H1613 0.930 . S
C1628 C1623 1.390 . S
C1628 C1627 1.387 . S
H1629 C1641 0.930 . S
H1630 C1643 0.919 1_554 S
H1631 C1644 0.930 . S
H1632 C1648 0.959 . S
H1633 C1648 0.959 . S
H1634 C1648 0.961 . S
H1635 C1649 0.960 . S
H1636 C1649 0.961 . S
H1637 C1649 0.959 . S
H1638 C1652 0.929 . S
H1639 C1653 0.931 . S
H1640 C1655 0.930 . S
C1641 H1629 0.930 . S
C1641 C1642 1.399 . S
C1641 C1646 1.399 . S
C1642 C1641 1.399 . S
C1642 C1643 1.382 . S
C1643 H1630 0.919 1_556 S
C1643 C1642 1.382 . S
C1643 C1644 1.394 . S
C1644 H1631 0.930 . S
C1644 C1643 1.394 . S
C1644 C1645 1.390 . S
C1645 C1644 1.390 . S
C1645 C1646 1.394 . S
C1645 C1651 1.465 . S
C1646 C1641 1.399 . S
C1646 C1645 1.394 . S
C1646 C1647 1.516 . S
C1647 C1646 1.516 . S
C1647 C1648 1.502 . S
C1647 C1649 1.561 . S
C1647 C1650 1.526 . S
C1648 H1632 0.959 . S
C1648 H1633 0.959 . S
C1648 H1634 0.961 . S
C1648 C1647 1.502 . S
C1649 H1635 0.960 . S
C1649 H1636 0.961 . S
C1649 H1637 0.959 . S
C1649 C1647 1.561 . S
C1650 C1647 1.526 . S
C1650 C1651 1.396 . S
C1650 C1655 1.390 . S
C1651 C1645 1.465 . S
C1651 C1650 1.396 . S
C1651 C1652 1.399 . S
C1652 H1638 0.929 . S
C1652 C1651 1.399 . S
C1652 C1653 1.385 . S
C1653 H1639 0.931 . S
C1653 C1652 1.385 . S
C1653 C1654 1.389 . S
C1654 C1653 1.389 . S
C1654 C1655 1.387 . S
C1655 H1640 0.930 . S
C1655 C1650 1.390 . S
C1655 C1654 1.387 . S
H1656 C1668 0.930 . S
H1657 C1670 0.930 1_554 S
H1658 C1671 0.930 . S
H1659 C1675 0.959 . S
H1660 C1675 0.959 . S
H1661 C1675 0.961 . S
H1662 C1676 0.960 . S
H1663 C1676 0.961 . S
H1664 C1676 0.959 . S
H1665 C1679 0.929 . S
H1666 C1680 0.931 . S
H1667 C1682 0.930 . S
C1668 H1656 0.930 . S
C1668 C1669 1.399 . S
C1668 C1673 1.399 . S
C1669 C1668 1.399 . S
C1669 C1670 1.376 . S
C1670 H1657 0.930 1_556 S
C1670 C1669 1.376 . S
C1670 C1671 1.388 . S
C1671 H1658 0.930 . S
C1671 C1670 1.388 . S
C1671 C1672 1.390 . S
C1672 C1671 1.390 . S
C1672 C1673 1.394 . S
C1672 C1678 1.465 . S
C1673 C1668 1.399 . S
C1673 C1672 1.394 . S
C1673 C1674 1.516 . S
C1674 C1673 1.516 . S
C1674 C1675 1.502 . S
C1674 C1676 1.561 . S
C1674 C1677 1.526 . S
C1675 H1659 0.959 . S
C1675 H1660 0.959 . S
C1675 H1661 0.961 . S
C1675 C1674 1.502 . S
C1676 H1662 0.960 . S
C1676 H1663 0.961 . S
C1676 H1664 0.959 . S
C1676 C1674 1.561 . S
C1677 C1674 1.526 . S
C1677 C1678 1.396 . S
C1677 C1682 1.390 . S
C1678 C1672 1.465 . S
C1678 C1677 1.396 . S
C1678 C1679 1.399 . S
C1679 H1665 0.929 . S
C1679 C1678 1.399 . S
C1679 C1680 1.385 . S
C1680 H1666 0.931 . S
C1680 C1679 1.385 . S
C1680 C1681 1.389 . S
C1681 C1680 1.389 . S
C1681 C1682 1.387 . S
C1682 H1667 0.930 . S
C1682 C1677 1.390 . S
C1682 C1681 1.387 . S
H1683 C1695 0.930 . S
H1684 C1697 0.930 . S
H1685 C1698 0.930 1_554 S
H1686 C1702 0.959 . S
H1687 C1702 0.959 . S
H1688 C1702 0.961 . S
H1689 C1703 0.960 . S
H1690 C1703 0.961 . S
H1691 C1703 0.959 . S
H1692 C1706 0.929 . S
H1693 C1707 0.931 . S
H1694 C1709 0.930 . S
C1695 H1683 0.930 . S
C1695 C1696 1.399 . S
C1695 C1700 1.399 . S
C1696 C1695 1.399 . S
C1696 C1697 1.376 1_556 S
C1697 H1684 0.930 . S
C1697 C1696 1.376 1_554 S
C1697 C1698 1.388 1_554 S
C1698 H1685 0.930 1_556 S
C1698 C1697 1.388 1_556 S
C1698 C1699 1.390 . S
C1699 C1698 1.390 . S
C1699 C1700 1.394 . S
C1699 C1705 1.465 . S
C1700 C1695 1.399 . S
C1700 C1699 1.394 . S
C1700 C1701 1.516 . S
C1701 C1700 1.516 . S
C1701 C1702 1.502 . S
C1701 C1703 1.561 . S
C1701 C1704 1.526 . S
C1702 H1686 0.959 . S
C1702 H1687 0.959 . S
C1702 H1688 0.961 . S
C1702 C1701 1.502 . S
C1703 H1689 0.960 . S
C1703 H1690 0.961 . S
C1703 H1691 0.959 . S
C1703 C1701 1.561 . S
C1704 C1701 1.526 . S
C1704 C1705 1.396 . S
C1704 C1709 1.390 . S
C1705 C1699 1.465 . S
C1705 C1704 1.396 . S
C1705 C1706 1.399 . S
C1706 H1692 0.929 . S
C1706 C1705 1.399 . S
C1706 C1707 1.385 . S
C1707 H1693 0.931 . S
C1707 C1706 1.385 . S
C1707 C1708 1.389 . S
C1708 C1707 1.389 . S
C1708 C1709 1.387 . S
C1709 H1694 0.930 . S
C1709 C1704 1.390 . S
C1709 C1708 1.387 . S
H1710 C1722 0.930 . S
H1711 C1724 0.930 . S
H1712 C1725 0.930 . S
H1713 C1729 0.959 . S
H1714 C1729 0.959 . S
H1715 C1729 0.961 . S
H1716 C1730 0.960 . S
H1717 C1730 0.961 . S
H1718 C1730 0.959 . S
H1719 C1733 0.936 . S
H1720 C1734 0.931 . S
H1721 C1736 0.930 . S
C1722 H1710 0.930 . S
C1722 C1723 1.399 . S
C1722 C1727 1.399 . S
C1723 C1722 1.399 . S
C1723 C1724 1.376 1_556 S
C1724 H1711 0.930 . S
C1724 C1723 1.376 1_554 S
C1724 C1725 1.388 . S
C1725 H1712 0.930 . S
C1725 C1724 1.388 . S
C1725 C1726 1.390 1_554 S
C1726 C1725 1.390 1_556 S
C1726 C1727 1.394 . S
C1726 C1732 1.465 . S
C1727 C1722 1.399 . S
C1727 C1726 1.394 . S
C1727 C1728 1.516 . S
C1728 C1727 1.516 . S
C1728 C1729 1.502 . S
C1728 C1730 1.561 . S
C1728 C1731 1.526 . S
C1729 H1713 0.959 . S
C1729 H1714 0.959 . S
C1729 H1715 0.961 . S
C1729 C1728 1.502 . S
C1730 H1716 0.960 . S
C1730 H1717 0.961 . S
C1730 H1718 0.959 . S
C1730 C1728 1.561 . S
C1731 C1728 1.526 . S
C1731 C1732 1.396 . S
C1731 C1736 1.390 . S
C1732 C1726 1.465 . S
C1732 C1731 1.396 . S
C1732 C1733 1.399 . S
C1733 H1719 0.936 . S
C1733 C1732 1.399 . S
C1733 C1734 1.385 . S
C1734 H1720 0.931 . S
C1734 C1733 1.385 . S
C1734 C1735 1.389 . S
C1735 C1734 1.389 . S
C1735 C1736 1.387 . S
C1736 H1721 0.930 . S
C1736 C1731 1.390 . S
C1736 C1735 1.387 . S
H1737 C1749 0.930 1_554 S
H1738 C1751 0.930 . S
H1739 C1752 0.930 . S
H1740 C1756 0.959 . S
H1741 C1756 0.959 . S
H1742 C1756 0.961 . S
H1743 C1757 0.960 . S
H1744 C1757 0.961 . S
H1745 C1757 0.959 1_556 S
H1746 C1760 0.929 . S
H1747 C1761 0.931 . S
H1748 C1763 0.930 . S
C1749 H1737 0.930 1_556 S
C1749 C1750 1.399 . S
C1749 C1754 1.399 . S
C1750 C1749 1.399 . S
C1750 C1751 1.376 . S
C1751 H1738 0.930 . S
C1751 C1750 1.376 . S
C1751 C1752 1.388 . S
C1752 H1739 0.930 . S
C1752 C1751 1.388 . S
C1752 C1753 1.390 . S
C1753 C1752 1.390 . S
C1753 C1754 1.394 . S
C1753 C1759 1.465 . S
C1754 C1749 1.399 . S
C1754 C1753 1.394 . S
C1754 C1755 1.516 . S
C1755 C1754 1.516 . S
C1755 C1756 1.502 1_556 S
C1755 C1757 1.561 1_556 S
C1755 C1758 1.526 . S
C1756 H1740 0.959 . S
C1756 H1741 0.959 . S
C1756 H1742 0.961 . S
C1756 C1755 1.502 1_554 S
C1757 H1743 0.960 . S
C1757 H1744 0.961 . S
C1757 H1745 0.959 1_554 S
C1757 C1755 1.561 1_554 S
C1758 C1755 1.526 . S
C1758 C1759 1.396 . S
C1758 C1763 1.390 . S
C1759 C1753 1.465 . S
C1759 C1758 1.396 . S
C1759 C1760 1.399 . S
C1760 H1746 0.929 . S
C1760 C1759 1.399 . S
C1760 C1761 1.385 . S
C1761 H1747 0.931 . S
C1761 C1760 1.385 . S
C1761 C1762 1.389 . S
C1762 C1761 1.389 . S
C1762 C1763 1.387 . S
C1763 H1748 0.930 . S
C1763 C1758 1.390 . S
C1763 C1762 1.387 . S
H1764 C1776 0.930 . S
H1765 C1778 0.930 1_554 S
H1766 C1779 0.930 . S
H1767 C1783 0.959 . S
H1768 C1783 0.959 . S
H1769 C1783 0.961 . S
H1770 C1784 0.960 . S
H1771 C1784 0.961 . S
H1772 C1784 0.959 . S
H1773 C1787 0.929 . S
H1774 C1788 0.931 . S
H1775 C1790 0.930 . S
C1776 H1764 0.930 . S
C1776 C1777 1.399 . S
C1776 C1781 1.399 . S
C1777 C1776 1.399 . S
C1777 C1778 1.376 . S
C1778 H1765 0.930 1_556 S
C1778 C1777 1.376 . S
C1778 C1779 1.388 . S
C1779 H1766 0.930 . S
C1779 C1778 1.388 . S
C1779 C1780 1.390 . S
C1780 C1779 1.390 . S
C1780 C1781 1.394 . S
C1780 C1786 1.465 . S
C1781 C1776 1.399 . S
C1781 C1780 1.394 . S
C1781 C1782 1.516 . S
C1782 C1781 1.516 . S
C1782 C1783 1.502 . S
C1782 C1784 1.561 . S
C1782 C1785 1.526 . S
C1783 H1767 0.959 . S
C1783 H1768 0.959 . S
C1783 H1769 0.961 . S
C1783 C1782 1.502 . S
C1784 H1770 0.960 . S
C1784 H1771 0.961 . S
C1784 H1772 0.959 . S
C1784 C1782 1.561 . S
C1785 C1782 1.526 . S
C1785 C1786 1.396 . S
C1785 C1790 1.390 . S
C1786 C1780 1.465 . S
C1786 C1785 1.396 . S
C1786 C1787 1.399 . S
C1787 H1773 0.929 . S
C1787 C1786 1.399 . S
C1787 C1788 1.385 . S
C1788 H1774 0.931 . S
C1788 C1787 1.385 . S
C1788 C1789 1.389 . S
C1789 C1788 1.389 . S
C1789 C1790 1.387 . S
C1790 H1775 0.930 . S
C1790 C1785 1.390 . S
C1790 C1789 1.387 . S
H1791 C1803 0.930 . S
H1792 C1805 0.930 . S
H1793 C1806 0.930 . S
H1794 C1810 0.959 . S
H1795 C1810 0.959 . S
H1796 C1810 0.961 . S
H1797 C1811 0.960 . S
H1798 C1811 0.961 . S
H1799 C1811 0.959 . S
H1800 C1814 0.929 . S
H1801 C1815 0.931 . S
H1802 C1817 0.930 . S
C1803 H1791 0.930 . S
C1803 C1804 1.399 . S
C1803 C1808 1.399 . S
C1804 C1803 1.399 . S
C1804 C1805 1.376 . S
C1805 H1792 0.930 . S
C1805 C1804 1.376 . S
C1805 C1806 1.388 . S
C1806 H1793 0.930 . S
C1806 C1805 1.388 . S
C1806 C1807 1.390 . S
C1807 C1806 1.390 . S
C1807 C1808 1.394 . S
C1807 C1813 1.465 . S
C1808 C1803 1.399 . S
C1808 C1807 1.394 . S
C1808 C1809 1.516 . S
C1809 C1808 1.516 . S
C1809 C1810 1.502 . S
C1809 C1811 1.561 . S
C1809 C1812 1.526 . S
C1810 H1794 0.959 . S
C1810 H1795 0.959 . S
C1810 H1796 0.961 . S
C1810 C1809 1.502 . S
C1811 H1797 0.960 . S
C1811 H1798 0.961 . S
C1811 H1799 0.959 . S
C1811 C1809 1.561 . S
C1812 C1809 1.526 . S
C1812 C1813 1.396 . S
C1812 C1817 1.390 . S
C1813 C1807 1.465 . S
C1813 C1812 1.396 . S
C1813 C1814 1.399 . S
C1814 H1800 0.929 . S
C1814 C1813 1.399 . S
C1814 C1815 1.385 . S
C1815 H1801 0.931 . S
C1815 C1814 1.385 . S
C1815 C1816 1.389 . S
C1816 C1815 1.389 . S
C1816 C1817 1.387 . S
C1817 H1802 0.930 . S
C1817 C1812 1.390 . S
C1817 C1816 1.387 . S
H1818 C1830 0.930 . S
H1819 C1832 0.930 1_556 S
H1820 C1833 0.915 1_556 S
H1821 C1837 0.959 . S
H1822 C1837 0.959 . S
H1823 C1837 0.961 . S
H1824 C1838 0.960 . S
H1825 C1838 0.961 . S
H1826 C1838 0.959 . S
H1827 C1841 0.929 . S
H1828 C1842 0.931 . S
H1829 C1844 0.930 . S
C1830 H1818 0.930 . S
C1830 C1831 1.399 . S
C1830 C1835 1.399 . S
C1831 C1830 1.399 . S
C1831 C1832 1.376 . S
C1832 H1819 0.930 1_554 S
C1832 C1831 1.376 . S
C1832 C1833 1.388 . S
C1833 H1820 0.915 1_554 S
C1833 C1832 1.388 . S
C1833 C1834 1.390 . S
C1834 C1833 1.390 . S
C1834 C1835 1.394 . S
C1834 C1840 1.465 . S
C1835 C1830 1.399 . S
C1835 C1834 1.394 . S
C1835 C1836 1.516 . S
C1836 C1835 1.516 . S
C1836 C1837 1.502 . S
C1836 C1838 1.561 . S
C1836 C1839 1.526 . S
C1837 H1821 0.959 . S
C1837 H1822 0.959 . S
C1837 H1823 0.961 . S
C1837 C1836 1.502 . S
C1838 H1824 0.960 . S
C1838 H1825 0.961 . S
C1838 H1826 0.959 . S
C1838 C1836 1.561 . S
C1839 C1836 1.526 . S
C1839 C1840 1.396 . S
C1839 C1844 1.390 . S
C1840 C1834 1.465 . S
C1840 C1839 1.396 . S
C1840 C1841 1.399 . S
C1841 H1827 0.929 . S
C1841 C1840 1.399 . S
C1841 C1842 1.385 . S
C1842 H1828 0.931 . S
C1842 C1841 1.385 . S
C1842 C1843 1.389 . S
C1843 C1842 1.389 . S
C1843 C1844 1.387 . S
C1844 H1829 0.930 . S
C1844 C1839 1.390 . S
C1844 C1843 1.387 . S
H1845 C1857 0.930 . S
H1846 C1859 0.930 1_556 S
H1847 C1860 0.930 . S
H1848 C1864 0.959 . S
H1849 C1864 0.959 . S
H1850 C1864 0.961 . S
H1851 C1865 0.960 . S
H1852 C1865 0.961 . S
H1853 C1865 0.959 . S
H1854 C1868 0.929 . S
H1855 C1869 0.931 . S
H1856 C1871 0.930 . S
C1857 H1845 0.930 . S
C1857 C1858 1.399 . S
C1857 C1862 1.399 . S
C1858 C1857 1.399 . S
C1858 C1859 1.376 . S
C1859 H1846 0.930 1_554 S
C1859 C1858 1.376 . S
C1859 C1860 1.388 . S
C1860 H1847 0.930 . S
C1860 C1859 1.388 . S
C1860 C1861 1.390 . S
C1861 C1860 1.390 . S
C1861 C1862 1.394 . S
C1861 C1867 1.465 . S
C1862 C1857 1.399 . S
C1862 C1861 1.394 . S
C1862 C1863 1.516 . S
C1863 C1862 1.516 . S
C1863 C1864 1.502 . S
C1863 C1865 1.561 . S
C1863 C1866 1.526 . S
C1864 H1848 0.959 . S
C1864 H1849 0.959 . S
C1864 H1850 0.961 . S
C1864 C1863 1.502 . S
C1865 H1851 0.960 . S
C1865 H1852 0.961 . S
C1865 H1853 0.959 . S
C1865 C1863 1.561 . S
C1866 C1863 1.526 . S
C1866 C1867 1.396 . S
C1866 C1871 1.390 . S
C1867 C1861 1.465 . S
C1867 C1866 1.396 . S
C1867 C1868 1.399 . S
C1868 H1854 0.929 . S
C1868 C1867 1.399 . S
C1868 C1869 1.385 . S
C1869 H1855 0.931 . S
C1869 C1868 1.385 . S
C1869 C1870 1.389 . S
C1870 C1869 1.389 . S
C1870 C1871 1.387 . S
C1871 H1856 0.930 . S
C1871 C1866 1.390 . S
C1871 C1870 1.387 . S
H1872 C1884 0.930 . S
H1873 C1886 0.930 . S
H1874 C1887 0.930 . S
H1875 C1891 0.959 . S
H1876 C1891 0.959 . S
H1877 C1891 0.961 . S
H1878 C1892 0.960 . S
H1879 C1892 0.961 . S
H1880 C1892 0.959 . S
H1881 C1895 0.929 . S
H1882 C1896 0.931 . S
H1883 C1898 0.930 . S
C1884 H1872 0.930 . S
C1884 C1885 1.399 . S
C1884 C1889 1.399 . S
C1885 C1884 1.399 . S
C1885 C1886 1.376 . S
C1886 H1873 0.930 . S
C1886 C1885 1.376 . S
C1886 C1887 1.388 . S
C1887 H1874 0.930 . S
C1887 C1886 1.388 . S
C1887 C1888 1.390 . S
C1888 C1887 1.390 . S
C1888 C1889 1.394 . S
C1888 C1894 1.465 . S
C1889 C1884 1.399 . S
C1889 C1888 1.394 . S
C1889 C1890 1.516 . S
C1890 C1889 1.516 . S
C1890 C1891 1.502 . S
C1890 C1892 1.561 . S
C1890 C1893 1.526 . S
C1891 H1875 0.959 . S
C1891 H1876 0.959 . S
C1891 H1877 0.961 . S
C1891 C1890 1.502 . S
C1892 H1878 0.960 . S
C1892 H1879 0.961 . S
C1892 H1880 0.959 . S
C1892 C1890 1.561 . S
C1893 C1890 1.526 . S
C1893 C1894 1.396 . S
C1893 C1898 1.390 . S
C1894 C1888 1.465 . S
C1894 C1893 1.396 . S
C1894 C1895 1.399 . S
C1895 H1881 0.929 . S
C1895 C1894 1.399 . S
C1895 C1896 1.385 . S
C1896 H1882 0.931 . S
C1896 C1895 1.385 . S
C1896 C1897 1.389 . S
C1897 C1896 1.389 . S
C1897 C1898 1.387 . S
C1898 H1883 0.930 . S
C1898 C1893 1.390 . S
C1898 C1897 1.387 . S
H1899 C1911 0.930 . S
H1900 C1913 0.930 . S
H1901 C1914 0.930 . S
H1902 C1918 0.959 . S
H1903 C1918 0.959 . S
H1904 C1918 0.961 . S
H1905 C1919 0.960 . S
H1906 C1919 0.961 . S
H1907 C1919 0.959 . S
H1908 C1922 0.929 . S
H1909 C1923 0.931 . S
H1910 C1925 0.930 . S
C1911 H1899 0.930 . S
C1911 C1912 1.399 . S
C1911 C1916 1.399 . S
C1912 C1911 1.399 . S
C1912 C1913 1.376 . S
C1913 H1900 0.930 . S
C1913 C1912 1.376 . S
C1913 C1914 1.388 . S
C1914 H1901 0.930 . S
C1914 C1913 1.388 . S
C1914 C1915 1.390 . S
C1915 C1914 1.390 . S
C1915 C1916 1.394 . S
C1915 C1921 1.465 . S
C1916 C1911 1.399 . S
C1916 C1915 1.394 . S
C1916 C1917 1.516 . S
C1917 C1916 1.516 . S
C1917 C1918 1.502 . S
C1917 C1919 1.561 . S
C1917 C1920 1.526 . S
C1918 H1902 0.959 . S
C1918 H1903 0.959 . S
C1918 H1904 0.961 . S
C1918 C1917 1.502 . S
C1919 H1905 0.960 . S
C1919 H1906 0.961 . S
C1919 H1907 0.959 . S
C1919 C1917 1.561 . S
C1920 C1917 1.526 . S
C1920 C1921 1.396 . S
C1920 C1925 1.390 . S
C1921 C1915 1.465 . S
C1921 C1920 1.396 . S
C1921 C1922 1.399 . S
C1922 H1908 0.929 . S
C1922 C1921 1.399 . S
C1922 C1923 1.385 . S
C1923 H1909 0.931 . S
C1923 C1922 1.385 . S
C1923 C1924 1.389 . S
C1924 C1923 1.389 . S
C1924 C1925 1.387 . S
C1925 H1910 0.930 . S
C1925 C1920 1.390 . S
C1925 C1924 1.387 . S
H1926 C1938 0.930 . S
H1927 C1940 0.930 . S
H1928 C1941 0.930 . S
H1929 C1945 0.959 . S
H1930 C1945 0.959 . S
H1931 C1945 0.961 . S
H1932 C1946 0.960 . S
H1933 C1946 0.961 . S
H1934 C1946 0.959 . S
H1935 C1949 0.929 . S
H1936 C1950 0.931 . S
H1937 C1952 0.930 . S
C1938 H1926 0.930 . S
C1938 C1939 1.399 . S
C1938 C1943 1.399 . S
C1939 C1938 1.399 . S
C1939 C1940 1.376 . S
C1940 H1927 0.930 . S
C1940 C1939 1.376 . S
C1940 C1941 1.388 . S
C1941 H1928 0.930 . S
C1941 C1940 1.388 . S
C1941 C1942 1.390 . S
C1942 C1941 1.390 . S
C1942 C1943 1.394 . S
C1942 C1948 1.465 . S
C1943 C1938 1.399 . S
C1943 C1942 1.394 . S
C1943 C1944 1.516 . S
C1944 C1943 1.516 . S
C1944 C1945 1.502 . S
C1944 C1946 1.561 . S
C1944 C1947 1.526 . S
C1945 H1929 0.959 . S
C1945 H1930 0.959 . S
C1945 H1931 0.961 . S
C1945 C1944 1.502 . S
C1946 H1932 0.960 . S
C1946 H1933 0.961 . S
C1946 H1934 0.959 . S
C1946 C1944 1.561 . S
C1947 C1944 1.526 . S
C1947 C1948 1.396 . S
C1947 C1952 1.390 . S
C1948 C1942 1.465 . S
C1948 C1947 1.396 . S
C1948 C1949 1.399 . S
C1949 H1935 0.929 . S
C1949 C1948 1.399 . S
C1949 C1950 1.385 . S
C1950 H1936 0.931 . S
C1950 C1949 1.385 . S
C1950 C1951 1.389 . S
C1951 C1950 1.389 . S
C1951 C1952 1.387 . S
C1952 H1937 0.930 . S
C1952 C1947 1.390 . S
C1952 C1951 1.387 . S
H1953 C1965 0.930 1_655 S
H1954 C1967 0.930 . S
H1955 C1968 0.930 . S
H1956 C1972 0.959 . S
H1957 C1972 0.959 . S
H1958 C1972 0.961 . S
H1959 C1973 0.960 . S
H1960 C1973 0.961 . S
H1961 C1973 0.959 1_455 S
H1962 C1976 0.929 . S
H1963 C1977 0.931 . S
H1964 C1979 0.930 . S
C1965 H1953 0.930 1_455 S
C1965 C1966 1.399 . S
C1965 C1970 1.399 . S
C1966 C1965 1.399 . S
C1966 C1967 1.376 . S
C1967 H1954 0.930 . S
C1967 C1966 1.376 . S
C1967 C1968 1.388 . S
C1968 H1955 0.930 . S
C1968 C1967 1.388 . S
C1968 C1969 1.390 . S
C1969 C1968 1.390 . S
C1969 C1970 1.394 . S
C1969 C1975 1.465 . S
C1970 C1965 1.399 . S
C1970 C1969 1.394 . S
C1970 C1971 1.516 1_455 S
C1971 C1970 1.516 1_655 S
C1971 C1972 1.502 . S
C1971 C1973 1.561 . S
C1971 C1974 1.526 1_655 S
C1972 H1956 0.959 . S
C1972 H1957 0.959 . S
C1972 H1958 0.961 . S
C1972 C1971 1.502 . S
C1973 H1959 0.960 . S
C1973 H1960 0.961 . S
C1973 H1961 0.959 1_655 S
C1973 C1971 1.561 . S
C1974 C1971 1.526 1_455 S
C1974 C1975 1.396 . S
C1974 C1979 1.390 1_455 S
C1975 C1969 1.465 . S
C1975 C1974 1.396 . S
C1975 C1976 1.399 . S
C1976 H1962 0.929 . S
C1976 C1975 1.399 . S
C1976 C1977 1.385 . S
C1977 H1963 0.931 . S
C1977 C1976 1.385 . S
C1977 C1978 1.389 . S
C1978 C1977 1.389 . S
C1978 C1979 1.387 1_455 S
C1979 H1964 0.930 . S
C1979 C1974 1.390 1_655 S
C1979 C1978 1.387 1_655 S
H1980 C1992 0.930 . S
H1981 C1994 0.930 . S
H1982 C1995 0.930 . S
H1983 C1999 0.959 . S
H1984 C1999 0.959 . S
H1985 C1999 0.961 . S
H1986 C2000 0.960 . S
H1987 C2000 0.961 . S
H1988 C2000 0.959 . S
H1989 C2003 0.929 . S
H1990 C2004 0.931 . S
H1991 C2006 0.930 . S
C1992 H1980 0.930 . S
C1992 C1993 1.399 . S
C1992 C1997 1.399 . S
C1993 C1992 1.399 . S
C1993 C1994 1.376 . S
C1994 H1981 0.930 . S
C1994 C1993 1.376 . S
C1994 C1995 1.388 . S
C1995 H1982 0.930 . S
C1995 C1994 1.388 . S
C1995 C1996 1.390 . S
C1996 C1995 1.390 . S
C1996 C1997 1.394 . S
C1996 C2002 1.465 . S
C1997 C1992 1.399 . S
C1997 C1996 1.394 . S
C1997 C1998 1.516 . S
C1998 C1997 1.516 . S
C1998 C1999 1.502 . S
C1998 C2000 1.561 . S
C1998 C2001 1.526 . S
C1999 H1983 0.959 . S
C1999 H1984 0.959 . S
C1999 H1985 0.961 . S
C1999 C1998 1.502 . S
C2000 H1986 0.960 . S
C2000 H1987 0.961 . S
C2000 H1988 0.959 . S
C2000 C1998 1.561 . S
C2001 C1998 1.526 . S
C2001 C2002 1.396 . S
C2001 C2006 1.390 . S
C2002 C1996 1.465 . S
C2002 C2001 1.396 . S
C2002 C2003 1.399 . S
C2003 H1989 0.929 . S
C2003 C2002 1.399 . S
C2003 C2004 1.385 . S
C2004 H1990 0.931 . S
C2004 C2003 1.385 . S
C2004 C2005 1.389 . S
C2005 C2004 1.389 . S
C2005 C2006 1.387 . S
C2006 H1991 0.930 . S
C2006 C2001 1.390 . S
C2006 C2005 1.387 . S
H2007 C2019 0.930 . S
H2008 C2021 0.930 . S
H2009 C2022 0.930 . S
H2010 C2026 0.959 . S
H2011 C2026 0.959 . S
H2012 C2026 0.961 . S
H2013 C2027 0.960 . S
H2014 C2027 0.961 . S
H2015 C2027 0.959 . S
H2016 C2030 0.929 . S
H2017 C2031 0.931 . S
H2018 C2033 0.930 . S
C2019 H2007 0.930 . S
C2019 C2020 1.399 . S
C2019 C2024 1.399 . S
C2020 C2019 1.399 . S
C2020 C2021 1.376 1_565 S
C2021 H2008 0.930 . S
C2021 C2020 1.376 1_545 S
C2021 C2022 1.388 . S
C2022 H2009 0.930 . S
C2022 C2021 1.388 . S
C2022 C2023 1.338 1_545 S
C2023 C2022 1.338 1_565 S
C2023 C2024 1.436 . S
C2023 C2029 1.518 1_565 S
C2024 C2019 1.399 . S
C2024 C2023 1.436 . S
C2024 C2025 1.516 . S
C2025 C2024 1.516 . S
C2025 C2026 1.502 . S
C2025 C2027 1.561 . S
C2025 C2028 1.526 . S
C2026 H2010 0.959 . S
C2026 H2011 0.959 . S
C2026 H2012 0.961 . S
C2026 C2025 1.502 . S
C2027 H2013 0.960 . S
C2027 H2014 0.961 . S
C2027 H2015 0.959 . S
C2027 C2025 1.561 . S
C2028 C2025 1.526 . S
C2028 C2029 1.330 1_565 S
C2028 C2033 1.390 . S
C2029 C2023 1.518 1_545 S
C2029 C2028 1.330 1_545 S
C2029 C2030 1.429 . S
C2030 H2016 0.929 . S
C2030 C2029 1.429 . S
C2030 C2031 1.385 . S
C2031 H2017 0.931 . S
C2031 C2030 1.385 . S
C2031 C2032 1.389 1_545 S
C2032 C2031 1.389 1_565 S
C2032 C2033 1.387 . S
C2033 H2018 0.930 . S
C2033 C2028 1.390 . S
C2033 C2032 1.387 . S
H2034 C2046 0.930 . S
H2035 C2048 0.930 . S
H2036 C2049 0.930 . S
H2037 C2053 0.959 . S
H2038 C2053 0.959 . S
H2039 C2053 0.961 . S
H2040 C2054 0.960 . S
H2041 C2054 0.961 . S
H2042 C2054 0.959 . S
H2043 C2057 0.929 . S
H2044 C2058 0.931 . S
H2045 C2060 0.930 . S
C2046 H2034 0.930 . S
C2046 C2047 1.399 . S
C2046 C2051 1.399 . S
C2047 C2046 1.399 . S
C2047 C2048 1.376 1_565 S
C2048 H2035 0.930 . S
C2048 C2047 1.376 1_545 S
C2048 C2049 1.388 . S
C2049 H2036 0.930 . S
C2049 C2048 1.388 . S
C2049 C2050 1.390 1_545 S
C2050 C2049 1.390 1_565 S
C2050 C2051 1.394 . S
C2050 C2056 1.434 1_565 S
C2051 C2046 1.399 . S
C2051 C2050 1.394 . S
C2051 C2052 1.516 . S
C2052 C2051 1.516 . S
C2052 C2053 1.502 . S
C2052 C2054 1.561 . S
C2052 C2055 1.526 . S
C2053 H2037 0.959 . S
C2053 H2038 0.959 . S
C2053 H2039 0.961 . S
C2053 C2052 1.502 . S
C2054 H2040 0.960 . S
C2054 H2041 0.961 . S
C2054 H2042 0.959 . S
C2054 C2052 1.561 . S
C2055 C2052 1.526 . S
C2055 C2056 1.369 1_565 S
C2055 C2060 1.390 . S
C2056 C2050 1.434 1_545 S
C2056 C2055 1.369 1_545 S
C2056 C2057 1.449 . S
C2057 H2043 0.929 . S
C2057 C2056 1.449 . S
C2057 C2058 1.385 . S
C2058 H2044 0.931 . S
C2058 C2057 1.385 . S
C2058 C2059 1.415 . S
C2059 C2058 1.415 . S
C2059 C2060 1.341 1_545 S
C2060 H2045 0.930 . S
C2060 C2055 1.390 . S
C2060 C2059 1.341 1_565 S
H2061 C2073 0.930 . S
H2062 C2075 0.930 . S
H2063 C2076 0.930 1_655 S
H2064 C2080 0.959 . S
H2065 C2080 0.959 . S
H2066 C2080 0.961 . S
H2067 C2081 0.960 . S
H2068 C2081 0.961 . S
H2069 C2081 0.959 1_655 S
H2070 C2084 0.929 . S
H2071 C2085 0.931 . S
H2072 C2087 0.930 . S
C2073 H2061 0.930 . S
C2073 C2074 1.399 . S
C2073 C2078 1.399 . S
C2074 C2073 1.399 . S
C2074 C2075 1.376 . S
C2075 H2062 0.930 . S
C2075 C2074 1.376 . S
C2075 C2076 1.388 . S
C2076 H2063 0.930 1_455 S
C2076 C2075 1.388 . S
C2076 C2077 1.390 . S
C2077 C2076 1.390 . S
C2077 C2078 1.394 . S
C2077 C2083 1.465 . S
C2078 C2073 1.399 . S
C2078 C2077 1.394 . S
C2078 C2079 1.516 . S
C2079 C2078 1.516 . S
C2079 C2080 1.502 . S
C2079 C2081 1.561 . S
C2079 C2082 1.526 . S
C2080 H2064 0.959 . S
C2080 H2065 0.959 . S
C2080 H2066 0.961 . S
C2080 C2079 1.502 . S
C2081 H2067 0.960 . S
C2081 H2068 0.961 . S
C2081 H2069 0.959 1_455 S
C2081 C2079 1.561 . S
C2082 C2079 1.526 . S
C2082 C2083 1.396 . S
C2082 C2087 1.390 . S
C2083 C2077 1.465 . S
C2083 C2082 1.396 . S
C2083 C2084 1.399 1_455 S
C2084 H2070 0.929 . S
C2084 C2083 1.399 1_655 S
C2084 C2085 1.385 . S
C2085 H2071 0.931 . S
C2085 C2084 1.385 . S
C2085 C2086 1.396 . S
C2086 C2085 1.396 . S
C2086 C2087 1.385 1_655 S
C2087 H2072 0.930 . S
C2087 C2082 1.390 . S
C2087 C2086 1.385 1_455 S
H2088 C2100 0.930 . S
H2089 C2102 0.930 . S
H2090 C2103 0.930 . S
H2091 C2107 0.959 . S
H2092 C2107 0.959 . S
H2093 C2107 0.961 . S
H2094 C2108 0.960 . S
H2095 C2108 0.961 . S
H2096 C2108 0.959 . S
H2097 C2111 0.929 . S
H2098 C2112 0.931 . S
H2099 C2114 0.930 . S
C2100 H2088 0.930 . S
C2100 C2101 1.399 . S
C2100 C2105 1.399 . S
C2101 C2100 1.399 . S
C2101 C2102 1.376 . S
C2102 H2089 0.930 . S
C2102 C2101 1.376 . S
C2102 C2103 1.388 . S
C2103 H2090 0.930 . S
C2103 C2102 1.388 . S
C2103 C2104 1.390 . S
C2104 C2103 1.390 . S
C2104 C2105 1.394 . S
C2104 C2110 1.465 . S
C2105 C2100 1.399 . S
C2105 C2104 1.394 . S
C2105 C2106 1.516 . S
C2106 C2105 1.516 . S
C2106 C2107 1.502 . S
C2106 C2108 1.561 . S
C2106 C2109 1.526 . S
C2107 H2091 0.959 . S
C2107 H2092 0.959 . S
C2107 H2093 0.961 . S
C2107 C2106 1.502 . S
C2108 H2094 0.960 . S
C2108 H2095 0.961 . S
C2108 H2096 0.959 . S
C2108 C2106 1.561 . S
C2109 C2106 1.526 . S
C2109 C2110 1.396 . S
C2109 C2114 1.390 . S
C2110 C2104 1.465 . S
C2110 C2109 1.396 . S
C2110 C2111 1.399 . S
C2111 H2097 0.929 . S
C2111 C2110 1.399 . S
C2111 C2112 1.385 . S
C2112 H2098 0.931 . S
C2112 C2111 1.385 . S
C2112 C2113 1.389 . S
C2113 C2112 1.389 . S
C2113 C2114 1.387 . S
C2114 H2099 0.930 . S
C2114 C2109 1.390 . S
C2114 C2113 1.387 . S
H2115 C2127 0.930 . S
H2116 C2129 0.930 . S
H2117 C2130 0.930 . S
H2118 C2134 0.959 . S
H2119 C2134 0.959 . S
H2120 C2134 0.961 . S
H2121 C2135 0.960 . S
H2122 C2135 0.961 . S
H2123 C2135 0.959 . S
H2124 C2138 0.929 . S
H2125 C2139 0.931 . S
H2126 C2141 0.930 . S
C2127 H2115 0.930 . S
C2127 C2128 1.399 . S
C2127 C2132 1.399 . S
C2128 C2127 1.399 . S
C2128 C2129 1.376 . S
C2129 H2116 0.930 . S
C2129 C2128 1.376 . S
C2129 C2130 1.388 . S
C2130 H2117 0.930 . S
C2130 C2129 1.388 . S
C2130 C2131 1.390 . S
C2131 C2130 1.390 . S
C2131 C2132 1.394 . S
C2131 C2137 1.465 . S
C2132 C2127 1.399 . S
C2132 C2131 1.394 . S
C2132 C2133 1.516 . S
C2133 C2132 1.516 . S
C2133 C2134 1.502 . S
C2133 C2135 1.561 . S
C2133 C2136 1.526 . S
C2134 H2118 0.959 . S
C2134 H2119 0.959 . S
C2134 H2120 0.961 . S
C2134 C2133 1.502 . S
C2135 H2121 0.960 . S
C2135 H2122 0.961 . S
C2135 H2123 0.959 . S
C2135 C2133 1.561 . S
C2136 C2133 1.526 . S
C2136 C2137 1.396 . S
C2136 C2141 1.390 . S
C2137 C2131 1.465 . S
C2137 C2136 1.396 . S
C2137 C2138 1.399 . S
C2138 H2124 0.929 . S
C2138 C2137 1.399 . S
C2138 C2139 1.385 . S
C2139 H2125 0.931 . S
C2139 C2138 1.385 . S
C2139 C2140 1.389 . S
C2140 C2139 1.389 . S
C2140 C2141 1.387 . S
C2141 H2126 0.930 . S
C2141 C2136 1.390 . S
C2141 C2140 1.387 . S
H2142 C2154 0.930 . S
H2143 C2156 0.930 . S
H2144 C2157 0.930 . S
H2145 C2161 0.959 . S
H2146 C2161 0.959 . S
H2147 C2161 0.961 . S
H2148 C2162 0.960 . S
H2149 C2162 0.961 . S
H2150 C2162 0.959 . S
H2151 C2165 0.929 . S
H2152 C2166 0.931 . S
H2153 C2168 0.930 . S
C2154 H2142 0.930 . S
C2154 C2155 1.399 . S
C2154 C2159 1.399 . S
C2155 C2154 1.399 . S
C2155 C2156 1.376 . S
C2156 H2143 0.930 . S
C2156 C2155 1.376 . S
C2156 C2157 1.388 . S
C2157 H2144 0.930 . S
C2157 C2156 1.388 . S
C2157 C2158 1.390 . S
C2158 C2157 1.390 . S
C2158 C2159 1.394 . S
C2158 C2164 1.465 . S
C2159 C2154 1.399 . S
C2159 C2158 1.394 . S
C2159 C2160 1.516 . S
C2160 C2159 1.516 . S
C2160 C2161 1.502 . S
C2160 C2162 1.561 . S
C2160 C2163 1.526 . S
C2161 H2145 0.959 . S
C2161 H2146 0.959 . S
C2161 H2147 0.961 . S
C2161 C2160 1.502 . S
C2162 H2148 0.960 . S
C2162 H2149 0.961 . S
C2162 H2150 0.959 . S
C2162 C2160 1.561 . S
C2163 C2160 1.526 . S
C2163 C2164 1.396 . S
C2163 C2168 1.390 . S
C2164 C2158 1.465 . S
C2164 C2163 1.396 . S
C2164 C2165 1.399 . S
C2165 H2151 0.929 . S
C2165 C2164 1.399 . S
C2165 C2166 1.385 . S
C2166 H2152 0.931 . S
C2166 C2165 1.385 . S
C2166 C2167 1.389 . S
C2167 C2166 1.389 . S
C2167 C2168 1.387 . S
C2168 H2153 0.930 . S
C2168 C2163 1.390 . S
C2168 C2167 1.387 . S
H2169 C2181 0.930 . S
H2170 C2183 0.930 . S
H2171 C2184 0.930 . S
H2172 C2188 0.959 . S
H2173 C2188 0.959 . S
H2174 C2188 0.961 . S
H2175 C2189 0.960 . S
H2176 C2189 0.961 . S
H2177 C2189 0.959 . S
H2178 C2192 0.929 . S
H2179 C2193 0.931 . S
H2180 C2195 0.930 . S
C2181 H2169 0.930 . S
C2181 C2182 1.399 . S
C2181 C2186 1.399 . S
C2182 C2181 1.399 . S
C2182 C2183 1.376 . S
C2183 H2170 0.930 . S
C2183 C2182 1.376 . S
C2183 C2184 1.388 . S
C2184 H2171 0.930 . S
C2184 C2183 1.388 . S
C2184 C2185 1.390 . S
C2185 C2184 1.390 . S
C2185 C2186 1.394 . S
C2185 C2191 1.465 . S
C2186 C2181 1.399 . S
C2186 C2185 1.394 . S
C2186 C2187 1.516 . S
C2187 C2186 1.516 . S
C2187 C2188 1.502 . S
C2187 C2189 1.561 . S
C2187 C2190 1.526 . S
C2188 H2172 0.959 . S
C2188 H2173 0.959 . S
C2188 H2174 0.961 . S
C2188 C2187 1.502 . S
C2189 H2175 0.960 . S
C2189 H2176 0.961 . S
C2189 H2177 0.959 . S
C2189 C2187 1.561 . S
C2190 C2187 1.526 . S
C2190 C2191 1.396 . S
C2190 C2195 1.390 . S
C2191 C2185 1.465 . S
C2191 C2190 1.396 . S
C2191 C2192 1.399 . S
C2192 H2178 0.929 . S
C2192 C2191 1.399 . S
C2192 C2193 1.385 . S
C2193 H2179 0.931 . S
C2193 C2192 1.385 . S
C2193 C2194 1.389 . S
C2194 C2193 1.389 . S
C2194 C2195 1.387 . S
C2195 H2180 0.930 . S
C2195 C2190 1.390 . S
C2195 C2194 1.387 . S
H2196 C2208 0.930 1_565 S
H2197 C2210 0.930 . S
H2198 C2211 0.930 . S
H2199 C2215 0.959 . S
H2200 C2215 0.959 . S
H2201 C2215 0.961 . S
H2202 C2216 0.960 . S
H2203 C2216 0.961 . S
H2204 C2216 0.959 . S
H2205 C2219 0.929 . S
H2206 C2220 0.931 . S
H2207 C2222 0.930 . S
C2208 H2196 0.930 1_545 S
C2208 C2209 1.399 . S
C2208 C2213 1.399 . S
C2209 C2208 1.399 . S
C2209 C2210 1.376 . S
C2210 H2197 0.930 . S
C2210 C2209 1.376 . S
C2210 C2211 1.388 . S
C2211 H2198 0.930 . S
C2211 C2210 1.388 . S
C2211 C2212 1.390 . S
C2212 C2211 1.390 . S
C2212 C2213 1.394 . S
C2212 C2218 1.465 . S
C2213 C2208 1.399 . S
C2213 C2212 1.394 . S
C2213 C2214 1.516 1_545 S
C2214 C2213 1.516 1_565 S
C2214 C2215 1.502 . S
C2214 C2216 1.561 . S
C2214 C2217 1.524 1_565 S
C2215 H2199 0.959 . S
C2215 H2200 0.959 . S
C2215 H2201 0.961 . S
C2215 C2214 1.502 . S
C2216 H2202 0.960 . S
C2216 H2203 0.961 . S
C2216 H2204 0.959 . S
C2216 C2214 1.561 . S
C2217 C2214 1.524 1_545 S
C2217 C2218 1.438 . S
C2217 C2222 1.357 1_545 S
C2218 C2212 1.465 . S
C2218 C2217 1.438 . S
C2218 C2219 1.399 . S
C2219 H2205 0.929 . S
C2219 C2218 1.399 . S
C2219 C2220 1.385 . S
C2220 H2206 0.931 . S
C2220 C2219 1.385 . S
C2220 C2221 1.389 . S
C2221 C2220 1.389 . S
C2221 C2222 1.387 1_545 S
C2222 H2207 0.930 . S
C2222 C2217 1.357 1_565 S
C2222 C2221 1.387 1_565 S
H2223 C2235 0.930 . S
H2224 C2237 0.930 . S
H2225 C2238 0.930 . S
H2226 C2242 0.959 . S
H2227 C2242 0.959 . S
H2228 C2242 0.961 . S
H2229 C2243 0.960 . S
H2230 C2243 0.961 . S
H2231 C2243 0.959 . S
H2232 C2246 0.929 . S
H2233 C2247 0.931 . S
H2234 C2249 0.918 1_455 S
C2235 H2223 0.930 . S
C2235 C2236 1.399 . S
C2235 C2240 1.399 . S
C2236 C2235 1.399 . S
C2236 C2237 1.376 . S
C2237 H2224 0.930 . S
C2237 C2236 1.376 . S
C2237 C2238 1.388 . S
C2238 H2225 0.930 . S
C2238 C2237 1.388 . S
C2238 C2239 1.390 . S
C2239 C2238 1.390 . S
C2239 C2240 1.394 . S
C2239 C2245 1.465 . S
C2240 C2235 1.399 . S
C2240 C2239 1.394 . S
C2240 C2241 1.516 . S
C2241 C2240 1.516 . S
C2241 C2242 1.502 1_655 S
C2241 C2243 1.561 . S
C2241 C2244 1.526 . S
C2242 H2226 0.959 . S
C2242 H2227 0.959 . S
C2242 H2228 0.961 . S
C2242 C2241 1.502 1_455 S
C2243 H2229 0.960 . S
C2243 H2230 0.961 . S
C2243 H2231 0.959 . S
C2243 C2241 1.561 . S
C2244 C2241 1.526 . S
C2244 C2245 1.396 . S
C2244 C2249 1.373 . S
C2245 C2239 1.465 . S
C2245 C2244 1.396 . S
C2245 C2246 1.399 . S
C2246 H2232 0.929 . S
C2246 C2245 1.399 . S
C2246 C2247 1.385 . S
C2247 H2233 0.931 . S
C2247 C2246 1.385 . S
C2247 C2248 1.389 . S
C2248 C2247 1.389 . S
C2248 C2249 1.420 . S
C2249 H2234 0.918 1_655 S
C2249 C2244 1.373 . S
C2249 C2248 1.420 . S
H2250 C2262 0.930 . S
H2251 C2264 0.930 . S
H2252 C2265 0.930 . S
H2253 C2269 0.959 . S
H2254 C2269 0.959 . S
H2255 C2269 0.961 . S
H2256 C2270 0.960 . S
H2257 C2270 0.961 . S
H2258 C2270 0.959 . S
H2259 C2273 0.929 . S
H2260 C2274 0.931 . S
H2261 C2276 0.930 . S
C2262 H2250 0.930 . S
C2262 C2263 1.399 . S
C2262 C2267 1.399 . S
C2263 C2262 1.399 . S
C2263 C2264 1.376 . S
C2264 H2251 0.930 . S
C2264 C2263 1.376 . S
C2264 C2265 1.388 . S
C2265 H2252 0.930 . S
C2265 C2264 1.388 . S
C2265 C2266 1.390 . S
C2266 C2265 1.390 . S
C2266 C2267 1.394 . S
C2266 C2272 1.465 . S
C2267 C2262 1.399 . S
C2267 C2266 1.394 . S
C2267 C2268 1.516 . S
C2268 C2267 1.516 . S
C2268 C2269 1.502 . S
C2268 C2270 1.561 . S
C2268 C2271 1.526 . S
C2269 H2253 0.959 . S
C2269 H2254 0.959 . S
C2269 H2255 0.961 . S
C2269 C2268 1.502 . S
C2270 H2256 0.960 . S
C2270 H2257 0.961 . S
C2270 H2258 0.959 . S
C2270 C2268 1.561 . S
C2271 C2268 1.526 . S
C2271 C2272 1.396 . S
C2271 C2276 1.390 . S
C2272 C2266 1.465 . S
C2272 C2271 1.396 . S
C2272 C2273 1.399 . S
C2273 H2259 0.929 . S
C2273 C2272 1.399 . S
C2273 C2274 1.385 . S
C2274 H2260 0.931 . S
C2274 C2273 1.385 . S
C2274 C2275 1.389 . S
C2275 C2274 1.389 . S
C2275 C2276 1.387 . S
C2276 H2261 0.930 . S
C2276 C2271 1.390 . S
C2276 C2275 1.387 . S
H2277 C2289 0.930 . S
H2278 C2291 0.930 . S
H2279 C2292 0.930 . S
H2280 C2296 0.959 . S
H2281 C2296 0.959 . S
H2282 C2296 0.961 . S
H2283 C2297 0.960 . S
H2284 C2297 0.961 . S
H2285 C2297 0.959 . S
H2286 C2300 0.929 . S
H2287 C2301 0.931 . S
H2288 C2303 0.930 . S
C2289 H2277 0.930 . S
C2289 C2290 1.399 . S
C2289 C2294 1.399 . S
C2290 C2289 1.399 . S
C2290 C2291 1.376 . S
C2291 H2278 0.930 . S
C2291 C2290 1.376 . S
C2291 C2292 1.388 . S
C2292 H2279 0.930 . S
C2292 C2291 1.388 . S
C2292 C2293 1.390 . S
C2293 C2292 1.390 . S
C2293 C2294 1.394 . S
C2293 C2299 1.465 . S
C2294 C2289 1.399 . S
C2294 C2293 1.394 . S
C2294 C2295 1.516 . S
C2295 C2294 1.516 . S
C2295 C2296 1.502 . S
C2295 C2297 1.561 . S
C2295 C2298 1.526 . S
C2296 H2280 0.959 . S
C2296 H2281 0.959 . S
C2296 H2282 0.961 . S
C2296 C2295 1.502 . S
C2297 H2283 0.960 . S
C2297 H2284 0.961 . S
C2297 H2285 0.959 . S
C2297 C2295 1.561 . S
C2298 C2295 1.526 . S
C2298 C2299 1.396 . S
C2298 C2303 1.390 . S
C2299 C2293 1.465 . S
C2299 C2298 1.396 . S
C2299 C2300 1.399 . S
C2300 H2286 0.929 . S
C2300 C2299 1.399 . S
C2300 C2301 1.385 . S
C2301 H2287 0.931 . S
C2301 C2300 1.385 . S
C2301 C2302 1.389 . S
C2302 C2301 1.389 . S
C2302 C2303 1.387 . S
C2303 H2288 0.930 . S
C2303 C2298 1.390 . S
C2303 C2302 1.387 . S
H2304 C2316 0.930 . S
H2305 C2318 0.930 . S
H2306 C2319 0.930 . S
H2307 C2323 0.959 . S
H2308 C2323 0.959 . S
H2309 C2323 0.961 . S
H2310 C2324 0.960 . S
H2311 C2324 0.961 . S
H2312 C2324 0.959 . S
H2313 C2327 0.929 . S
H2314 C2328 0.931 . S
H2315 C2330 0.930 . S
C2316 H2304 0.930 . S
C2316 C2317 1.399 . S
C2316 C2321 1.399 . S
C2317 C2316 1.399 . S
C2317 C2318 1.376 . S
C2318 H2305 0.930 . S
C2318 C2317 1.376 . S
C2318 C2319 1.388 . S
C2319 H2306 0.930 . S
C2319 C2318 1.388 . S
C2319 C2320 1.390 . S
C2320 C2319 1.390 . S
C2320 C2321 1.394 . S
C2320 C2326 1.465 . S
C2321 C2316 1.399 . S
C2321 C2320 1.394 . S
C2321 C2322 1.516 . S
C2322 C2321 1.516 . S
C2322 C2323 1.502 . S
C2322 C2324 1.561 . S
C2322 C2325 1.526 . S
C2323 H2307 0.959 . S
C2323 H2308 0.959 . S
C2323 H2309 0.961 . S
C2323 C2322 1.502 . S
C2324 H2310 0.960 . S
C2324 H2311 0.961 . S
C2324 H2312 0.959 . S
C2324 C2322 1.561 . S
C2325 C2322 1.526 . S
C2325 C2326 1.396 . S
C2325 C2330 1.390 . S
C2326 C2320 1.465 . S
C2326 C2325 1.396 . S
C2326 C2327 1.399 . S
C2327 H2313 0.929 . S
C2327 C2326 1.399 . S
C2327 C2328 1.385 . S
C2328 H2314 0.931 . S
C2328 C2327 1.385 . S
C2328 C2329 1.389 . S
C2329 C2328 1.389 . S
C2329 C2330 1.387 . S
C2330 H2315 0.930 . S
C2330 C2325 1.390 . S
C2330 C2329 1.387 . S
H2331 C2343 0.930 . S
H2332 C2345 0.930 . S
H2333 C2346 0.930 . S
H2334 C2350 0.959 . S
H2335 C2350 0.959 . S
H2336 C2350 0.961 . S
H2337 C2351 0.960 . S
H2338 C2351 0.961 . S
H2339 C2351 0.959 . S
H2340 C2354 0.929 . S
H2341 C2355 0.931 . S
H2342 C2357 0.930 . S
C2343 H2331 0.930 . S
C2343 C2344 1.399 . S
C2343 C2348 1.399 . S
C2344 C2343 1.399 . S
C2344 C2345 1.376 . S
C2345 H2332 0.930 . S
C2345 C2344 1.376 . S
C2345 C2346 1.388 . S
C2346 H2333 0.930 . S
C2346 C2345 1.388 . S
C2346 C2347 1.390 . S
C2347 C2346 1.390 . S
C2347 C2348 1.394 . S
C2347 C2353 1.465 . S
C2348 C2343 1.399 . S
C2348 C2347 1.394 . S
C2348 C2349 1.516 . S
C2349 C2348 1.516 . S
C2349 C2350 1.502 . S
C2349 C2351 1.561 . S
C2349 C2352 1.526 . S
C2350 H2334 0.959 . S
C2350 H2335 0.959 . S
C2350 H2336 0.961 . S
C2350 C2349 1.502 . S
C2351 H2337 0.960 . S
C2351 H2338 0.961 . S
C2351 H2339 0.959 . S
C2351 C2349 1.561 . S
C2352 C2349 1.526 . S
C2352 C2353 1.396 . S
C2352 C2357 1.390 . S
C2353 C2347 1.465 . S
C2353 C2352 1.396 . S
C2353 C2354 1.399 . S
C2354 H2340 0.929 . S
C2354 C2353 1.399 . S
C2354 C2355 1.385 . S
C2355 H2341 0.931 . S
C2355 C2354 1.385 . S
C2355 C2356 1.389 . S
C2356 C2355 1.389 . S
C2356 C2357 1.387 . S
C2357 H2342 0.930 . S
C2357 C2352 1.390 . S
C2357 C2356 1.387 . S
H2358 C2370 0.930 . S
H2359 C2372 0.930 . S
H2360 C2373 0.930 . S
H2361 C2377 0.959 . S
H2362 C2377 0.959 . S
H2363 C2377 0.961 . S
H2364 C2378 0.960 . S
H2365 C2378 0.961 . S
H2366 C2378 0.959 . S
H2367 C2381 0.929 . S
H2368 C2382 0.931 . S
H2369 C2384 0.930 . S
C2370 H2358 0.930 . S
C2370 C2371 1.399 . S
C2370 C2375 1.399 . S
C2371 C2370 1.399 . S
C2371 C2372 1.376 . S
C2372 H2359 0.930 . S
C2372 C2371 1.376 . S
C2372 C2373 1.388 . S
C2373 H2360 0.930 . S
C2373 C2372 1.388 . S
C2373 C2374 1.390 . S
C2374 C2373 1.390 . S
C2374 C2375 1.394 . S
C2374 C2380 1.465 . S
C2375 C2370 1.399 . S
C2375 C2374 1.394 . S
C2375 C2376 1.516 . S
C2376 C2375 1.516 . S
C2376 C2377 1.502 . S
C2376 C2378 1.561 . S
C2376 C2379 1.526 . S
C2377 H2361 0.959 . S
C2377 H2362 0.959 . S
C2377 H2363 0.961 . S
C2377 C2376 1.502 . S
C2378 H2364 0.960 . S
C2378 H2365 0.961 . S
C2378 H2366 0.959 . S
C2378 C2376 1.561 . S
C2379 C2376 1.526 . S
C2379 C2380 1.396 . S
C2379 C2384 1.390 . S
C2380 C2374 1.465 . S
C2380 C2379 1.396 . S
C2380 C2381 1.399 . S
C2381 H2367 0.929 . S
C2381 C2380 1.399 . S
C2381 C2382 1.385 . S
C2382 H2368 0.931 . S
C2382 C2381 1.385 . S
C2382 C2383 1.389 . S
C2383 C2382 1.389 . S
C2383 C2384 1.387 . S
C2384 H2369 0.930 . S
C2384 C2379 1.390 . S
C2384 C2383 1.387 . S
H2385 C2397 0.930 . S
H2386 C2399 0.930 . S
H2387 C2400 0.930 . S
H2388 C2404 0.959 . S
H2389 C2404 0.959 . S
H2390 C2404 0.961 . S
H2391 C2405 0.960 . S
H2392 C2405 0.961 . S
H2393 C2405 0.959 . S
H2394 C2408 0.929 . S
H2395 C2409 0.931 . S
H2396 C2411 0.930 . S
C2397 H2385 0.930 . S
C2397 C2398 1.399 . S
C2397 C2402 1.399 . S
C2398 C2397 1.399 . S
C2398 C2399 1.376 . S
C2399 H2386 0.930 . S
C2399 C2398 1.376 . S
C2399 C2400 1.388 . S
C2400 H2387 0.930 . S
C2400 C2399 1.388 . S
C2400 C2401 1.390 . S
C2401 C2400 1.390 . S
C2401 C2402 1.394 . S
C2401 C2407 1.465 . S
C2402 C2397 1.399 . S
C2402 C2401 1.394 . S
C2402 C2403 1.516 . S
C2403 C2402 1.516 . S
C2403 C2404 1.502 . S
C2403 C2405 1.561 . S
C2403 C2406 1.526 . S
C2404 H2388 0.959 . S
C2404 H2389 0.959 . S
C2404 H2390 0.961 . S
C2404 C2403 1.502 . S
C2405 H2391 0.960 . S
C2405 H2392 0.961 . S
C2405 H2393 0.959 . S
C2405 C2403 1.561 . S
C2406 C2403 1.526 . S
C2406 C2407 1.396 . S
C2406 C2411 1.390 . S
C2407 C2401 1.465 . S
C2407 C2406 1.396 . S
C2407 C2408 1.399 . S
C2408 H2394 0.929 . S
C2408 C2407 1.399 . S
C2408 C2409 1.385 . S
C2409 H2395 0.931 . S
C2409 C2408 1.385 . S
C2409 C2410 1.389 . S
C2410 C2409 1.389 . S
C2410 C2411 1.387 . S
C2411 H2396 0.930 . S
C2411 C2406 1.390 . S
C2411 C2410 1.387 . S
H2412 C2424 0.930 . S
H2413 C2426 0.930 . S
H2414 C2427 0.930 . S
H2415 C2431 0.959 . S
H2416 C2431 0.959 . S
H2417 C2431 0.961 . S
H2418 C2432 0.960 . S
H2419 C2432 0.961 . S
H2420 C2432 0.959 . S
H2421 C2435 0.929 . S
H2422 C2436 0.931 . S
H2423 C2438 0.930 . S
C2424 H2412 0.930 . S
C2424 C2425 1.399 . S
C2424 C2429 1.399 . S
C2425 C2424 1.399 . S
C2425 C2426 1.376 . S
C2426 H2413 0.930 . S
C2426 C2425 1.376 . S
C2426 C2427 1.388 . S
C2427 H2414 0.930 . S
C2427 C2426 1.388 . S
C2427 C2428 1.390 . S
C2428 C2427 1.390 . S
C2428 C2429 1.394 . S
C2428 C2434 1.465 . S
C2429 C2424 1.399 . S
C2429 C2428 1.394 . S
C2429 C2430 1.516 . S
C2430 C2429 1.516 . S
C2430 C2431 1.502 . S
C2430 C2432 1.561 . S
C2430 C2433 1.526 . S
C2431 H2415 0.959 . S
C2431 H2416 0.959 . S
C2431 H2417 0.961 . S
C2431 C2430 1.502 . S
C2432 H2418 0.960 . S
C2432 H2419 0.961 . S
C2432 H2420 0.959 . S
C2432 C2430 1.561 . S
C2433 C2430 1.526 . S
C2433 C2434 1.396 . S
C2433 C2438 1.390 . S
C2434 C2428 1.465 . S
C2434 C2433 1.396 . S
C2434 C2435 1.399 . S
C2435 H2421 0.929 . S
C2435 C2434 1.399 . S
C2435 C2436 1.385 . S
C2436 H2422 0.931 . S
C2436 C2435 1.385 . S
C2436 C2437 1.389 . S
C2437 C2436 1.389 . S
C2437 C2438 1.387 . S
C2438 H2423 0.930 . S
C2438 C2433 1.390 . S
C2438 C2437 1.387 . S
H2439 C2451 0.930 1_455 S
H2440 C2453 0.930 . S
H2441 C2454 0.930 . S
H2442 C2458 0.959 . S
H2443 C2458 0.959 . S
H2444 C2458 0.961 . S
H2445 C2459 0.960 . S
H2446 C2459 0.983 . S
H2447 C2459 0.959 . S
H2448 C2462 0.929 . S
H2449 C2463 0.931 . S
H2450 C2465 0.930 . S
C2451 H2439 0.930 1_655 S
C2451 C2452 1.399 . S
C2451 C2456 1.399 . S
C2452 C2451 1.399 . S
C2452 C2453 1.376 . S
C2453 H2440 0.930 . S
C2453 C2452 1.376 . S
C2453 C2454 1.388 . S
C2454 H2441 0.930 . S
C2454 C2453 1.388 . S
C2454 C2455 1.390 . S
C2455 C2454 1.390 . S
C2455 C2456 1.394 . S
C2455 C2461 1.465 . S
C2456 C2451 1.399 . S
C2456 C2455 1.394 . S
C2456 C2457 1.516 1_655 S
C2457 C2456 1.516 1_455 S
C2457 C2458 1.502 . S
C2457 C2459 1.561 1_455 S
C2457 C2460 1.526 1_455 S
C2458 H2442 0.959 . S
C2458 H2443 0.959 . S
C2458 H2444 0.961 . S
C2458 C2457 1.502 . S
C2459 H2445 0.960 . S
C2459 H2446 0.983 . S
C2459 H2447 0.959 . S
C2459 C2457 1.561 1_655 S
C2460 C2457 1.526 1_655 S
C2460 C2461 1.396 . S
C2460 C2465 1.390 1_655 S
C2461 C2455 1.465 . S
C2461 C2460 1.396 . S
C2461 C2462 1.399 . S
C2462 H2448 0.929 . S
C2462 C2461 1.399 . S
C2462 C2463 1.385 . S
C2463 H2449 0.931 . S
C2463 C2462 1.385 . S
C2463 C2464 1.389 . S
C2464 C2463 1.389 . S
C2464 C2465 1.387 1_655 S
C2465 H2450 0.930 . S
C2465 C2460 1.390 1_455 S
C2465 C2464 1.387 1_455 S
H2466 C2478 0.930 . S
H2467 C2480 0.930 . S
H2468 C2481 0.930 . S
H2469 C2485 0.959 . S
H2470 C2485 0.959 . S
H2471 C2485 0.961 . S
H2472 C2486 0.960 . S
H2473 C2486 0.961 . S
H2474 C2486 0.959 . S
H2475 C2489 0.929 . S
H2476 C2490 0.931 . S
H2477 C2492 0.930 . S
C2478 H2466 0.930 . S
C2478 C2479 1.399 . S
C2478 C2483 1.399 . S
C2479 C2478 1.399 . S
C2479 C2480 1.376 . S
C2480 H2467 0.930 . S
C2480 C2479 1.376 . S
C2480 C2481 1.388 . S
C2481 H2468 0.930 . S
C2481 C2480 1.388 . S
C2481 C2482 1.390 . S
C2482 C2481 1.390 . S
C2482 C2483 1.394 . S
C2482 C2488 1.465 . S
C2483 C2478 1.399 . S
C2483 C2482 1.394 . S
C2483 C2484 1.516 . S
C2484 C2483 1.516 . S
C2484 C2485 1.502 . S
C2484 C2486 1.561 . S
C2484 C2487 1.526 . S
C2485 H2469 0.959 . S
C2485 H2470 0.959 . S
C2485 H2471 0.961 . S
C2485 C2484 1.502 . S
C2486 H2472 0.960 . S
C2486 H2473 0.961 . S
C2486 H2474 0.959 . S
C2486 C2484 1.561 . S
C2487 C2484 1.526 . S
C2487 C2488 1.396 . S
C2487 C2492 1.390 . S
C2488 C2482 1.465 . S
C2488 C2487 1.396 . S
C2488 C2489 1.399 . S
C2489 H2475 0.929 . S
C2489 C2488 1.399 . S
C2489 C2490 1.385 . S
C2490 H2476 0.931 . S
C2490 C2489 1.385 . S
C2490 C2491 1.389 . S
C2491 C2490 1.389 . S
C2491 C2492 1.387 . S
C2492 H2477 0.930 . S
C2492 C2487 1.390 . S
C2492 C2491 1.387 . S
H2493 C2505 0.930 1_565 S
H2494 C2507 0.930 . S
H2495 C2508 0.930 . S
H2496 C2512 0.959 1_545 S
H2497 C2512 0.959 . S
H2498 C2512 0.961 . S
H2499 C2513 0.960 . S
H2500 C2513 0.961 . S
H2501 C2513 0.959 . S
H2502 C2516 0.929 . S
H2503 C2517 0.931 . S
H2504 C2519 0.930 . S
C2505 H2493 0.930 1_545 S
C2505 C2506 1.399 . S
C2505 C2510 1.399 . S
C2506 C2505 1.399 . S
C2506 C2507 1.376 . S
C2507 H2494 0.930 . S
C2507 C2506 1.376 . S
C2507 C2508 1.388 . S
C2508 H2495 0.930 . S
C2508 C2507 1.388 . S
C2508 C2509 1.390 . S
C2509 C2508 1.390 . S
C2509 C2510 1.394 . S
C2509 C2515 1.465 . S
C2510 C2505 1.399 . S
C2510 C2509 1.394 . S
C2510 C2511 1.516 1_545 S
C2511 C2510 1.516 1_565 S
C2511 C2512 1.502 . S
C2511 C2513 1.561 . S
C2511 C2514 1.526 . S
C2512 H2496 0.959 1_565 S
C2512 H2497 0.959 . S
C2512 H2498 0.961 . S
C2512 C2511 1.502 . S
C2513 H2499 0.960 . S
C2513 H2500 0.961 . S
C2513 H2501 0.959 . S
C2513 C2511 1.561 . S
C2514 C2511 1.526 . S
C2514 C2515 1.396 1_565 S
C2514 C2519 1.390 . S
C2515 C2509 1.465 . S
C2515 C2514 1.396 1_545 S
C2515 C2516 1.399 . S
C2516 H2502 0.929 . S
C2516 C2515 1.399 . S
C2516 C2517 1.385 . S
C2517 H2503 0.931 . S
C2517 C2516 1.385 . S
C2517 C2518 1.389 . S
C2518 C2517 1.389 . S
C2518 C2519 1.387 1_545 S
C2519 H2504 0.930 . S
C2519 C2514 1.390 . S
C2519 C2518 1.387 1_565 S
C589 C4 1.493 . S
C601 C421 1.582 . S
C616 C26 1.548 . S
C628 C446 1.565 . S
C655 C457 1.479 . S
C643 C32 1.516 . S
C670 C40 1.499 . S
C682 C482 1.469 . S
C697 C12 1.556 . S
C709 C500 1.498 . S
C724 C18 1.513 . S
C736 C511 1.530 . S
C751 C46 1.553 . S
C763 C493 1.519 . S
C790 C518 1.542 . S
C778 C68 1.548 . S
C817 C475 1.481 1_565 S
C805 C74 1.518 . S
C832 C82 1.518 . S
C844 C464 1.464 1_545 S
C871 C428 1.509 . S
C859 C54 1.538 . S
C886 C60 1.463 . S
C898 C439 1.539 . S
C913 C88 1.580 . S
C925 C529 1.591 . S
C940 C110 1.598 . S
C952 C554 1.531 . S
C979 C565 1.586 . S
C967 C116 1.505 . S
C994 C124 1.517 . S
C1006 C266 1.525 . S
C1021 C96 1.545 . S
C1033 C284 1.564 . S
C1048 C102 1.496 . S
C1060 C295 1.558 . S
C1075 C130 1.518 . S
C1087 C277 1.569 . S
C1102 C152 1.566 . S
C1114 C302 1.577 . S
C1141 C259 1.552 . S
C1129 C158 1.506 . S
C1168 C572 1.498 . S
C1156 C166 1.541 . S
C1195 C536 1.538 . S
C1183 C138 1.542 . S
C1222 C547 1.530 . S
C1210 C144 1.543 . S
C1237 C172 1.533 . S
C1249 C313 1.594 . S
C1264 C194 1.604 . S
C1276 C338 1.554 . S
C1291 C200 1.500 . S
C1303 C349 1.592 . S
C1318 C208 1.531 . S
C1330 C374 1.539 . S
C1357 C392 1.542 . S
C1345 C180 1.568 . S
C1384 C403 1.559 . S
C1372 C186 1.524 . S
C1411 C385 1.576 . S
C1399 C214 1.577 . S
C1438 C410 1.555 . S
C1426 C236 1.574 . S
C1453 C242 1.514 . S
C1465 C367 1.537 . S
C1492 C356 1.469 . S
C1480 C250 1.516 . S
C1507 C222 1.536 . S
C1519 C320 1.510 . S
C1546 C331 1.561 . S
C1534 C228 1.468 . S
C1573 C268 1.355 . S
C1561 C5 1.143 . S
C1588 C25 1.337 . S
C1600 C286 1.295 . S
C1627 C296 1.308 . S
C1615 C33 1.220 . S
C1654 C314 1.272 . S
C1642 C39 1.291 . S
C1681 C340 1.290 . S
C1669 C11 1.349 . S
C1708 C350 1.313 . S
C1696 C19 1.076 1_556 S
C1723 C47 1.163 1_556 S
C1735 C358 1.399 . S
C1750 C67 1.347 . S
C1762 C322 1.210 . S
C1777 C75 1.239 1_556 S
C1789 C332 1.354 . S
C1804 C81 1.361 . S
C1816 C278 1.312 . S
C1843 C304 1.321 . S
C1831 C53 1.364 . S
C1858 C61 1.092 . S
C1870 C260 1.351 . S
C1897 C376 1.262 . S
C1885 C89 1.225 . S
C1912 C109 1.374 . S
C1924 C394 1.350 . S
C1939 C117 1.204 . S
C1951 C404 1.303 . S
C1978 C422 1.196 . S
C1966 C123 1.234 . S
C1993 C95 1.340 . S
C2005 C448 1.289 . S
C2020 C103 1.118 . S
C2032 C458 1.240 . S
C2047 C131 1.050 . S
C2059 C466 1.319 1_545 S
C2074 C151 1.318 . S
C2086 C430 1.189 1_655 S
C2113 C440 1.362 . S
C2101 C159 1.108 . S
C2128 C165 1.338 . S
C2140 C386 1.228 . S
C2155 C137 1.407 . S
C2167 C412 1.291 . S
C2194 C368 1.357 . S
C2182 C145 1.123 . S
C2221 C484 1.283 . S
C2209 C173 1.118 . S
C2236 C193 1.247 . S
C2248 C502 1.188 . S
C2263 C201 1.069 . S
C2275 C512 1.327 . S
C2302 C530 1.291 . S
C2290 C207 1.316 . S
C2329 C556 1.346 . S
C2317 C179 1.390 . S
C2344 C187 1.136 . S
C2356 C566 1.336 . S
C2371 C215 1.119 . S
C2383 C574 1.381 . S
C2398 C235 1.388 . S
C2410 C538 1.250 . S
C2437 C548 1.286 . S
C2425 C243 1.269 . S
C2464 C494 1.242 1_655 S
C2452 C249 1.252 . S
C2491 C520 1.330 . S
C2479 C221 1.368 . S
C2506 C229 1.217 . S
C2518 C476 1.225 1_545 S
