# Generated by pormake.
# Topology ssa, (4,4)-cn, num edge types: 1
# Building blocks:
#     Node 0, Type 0, BuildingBlock: ESEHIV_clean_sbu_0, # of connection points: 4
#     Node 1, Type 0, BuildingBlock: ESEHIV_clean_sbu_0, # of connection points: 4
#     Node 2, Type 0, BuildingBlock: ESEHIV_clean_sbu_0, # of connection points: 4
#     Node 3, Type 0, BuildingBlock: ESEHIV_clean_sbu_0, # of connection points: 4
#     Node 4, Type 0, BuildingBlock: ESEHIV_clean_sbu_0, # of connection points: 4
#     Node 5, Type 0, BuildingBlock: ESEHIV_clean_sbu_0, # of connection points: 4
#     Node 6, Type 1, BuildingBlock: NAWXER_clean_linker_0, # of connection points: 4
#     Node 7, Type 1, BuildingBlock: NAWXER_clean_linker_0, # of connection points: 4
#     Node 8, Type 1, BuildingBlock: NAWXER_clean_linker_0, # of connection points: 4
#     Node 9, Type 1, BuildingBlock: NAWXER_clean_linker_0, # of connection points: 4
#     Node 10, Type 1, BuildingBlock: NAWXER_clean_linker_0, # of connection points: 4
#     Node 11, Type 1, BuildingBlock: NAWXER_clean_linker_0, # of connection points: 4
#     Edge 12, Type (0, 1), BuildingBlock: TEMPAE_clean_linker_10, # of connection points: 2
#     Edge 13, Type (0, 1), BuildingBlock: TEMPAE_clean_linker_10, # of connection points: 2
#     Edge 14, Type (0, 1), BuildingBlock: TEMPAE_clean_linker_10, # of connection points: 2
#     Edge 15, Type (0, 1), BuildingBlock: TEMPAE_clean_linker_10, # of connection points: 2
#     Edge 16, Type (0, 1), BuildingBlock: TEMPAE_clean_linker_10, # of connection points: 2
#     Edge 17, Type (0, 1), BuildingBlock: TEMPAE_clean_linker_10, # of connection points: 2
#     Edge 18, Type (0, 1), BuildingBlock: TEMPAE_clean_linker_10, # of connection points: 2
#     Edge 19, Type (0, 1), BuildingBlock: TEMPAE_clean_linker_10, # of connection points: 2
#     Edge 20, Type (0, 1), BuildingBlock: TEMPAE_clean_linker_10, # of connection points: 2
#     Edge 21, Type (0, 1), BuildingBlock: TEMPAE_clean_linker_10, # of connection points: 2
#     Edge 22, Type (0, 1), BuildingBlock: TEMPAE_clean_linker_10, # of connection points: 2
#     Edge 23, Type (0, 1), BuildingBlock: TEMPAE_clean_linker_10, # of connection points: 2
#     Edge 24, Type (0, 1), BuildingBlock: TEMPAE_clean_linker_10, # of connection points: 2
#     Edge 25, Type (0, 1), BuildingBlock: TEMPAE_clean_linker_10, # of connection points: 2
#     Edge 26, Type (0, 1), BuildingBlock: TEMPAE_clean_linker_10, # of connection points: 2
#     Edge 27, Type (0, 1), BuildingBlock: TEMPAE_clean_linker_10, # of connection points: 2
#     Edge 28, Type (0, 1), BuildingBlock: TEMPAE_clean_linker_10, # of connection points: 2
#     Edge 29, Type (0, 1), BuildingBlock: TEMPAE_clean_linker_10, # of connection points: 2
#     Edge 30, Type (0, 1), BuildingBlock: TEMPAE_clean_linker_10, # of connection points: 2
#     Edge 31, Type (0, 1), BuildingBlock: TEMPAE_clean_linker_10, # of connection points: 2
#     Edge 32, Type (0, 1), BuildingBlock: TEMPAE_clean_linker_10, # of connection points: 2
#     Edge 33, Type (0, 1), BuildingBlock: TEMPAE_clean_linker_10, # of connection points: 2
#     Edge 34, Type (0, 1), BuildingBlock: TEMPAE_clean_linker_10, # of connection points: 2
#     Edge 35, Type (0, 1), BuildingBlock: TEMPAE_clean_linker_10, # of connection points: 2
# Relax obj value: 0.009
# Max RMSD: 0.106
# Mean RMSD: 0.056
data_MOF--net-ssa--node1-ESEHIV_clean_sbu_0--node2-NAWXER_clean_linker_0--edge1-TEMPAE_clean_linker_10
_symmetry_space_group_name_H-M    P1
_symmetry_Int_Tables_number       1
_symmetry_cell_setting            triclinic
loop_
_symmetry_equiv_pos_as_xyz
'x, y, z'
_cell_length_a     59.071321
_cell_length_b     62.598981
_cell_length_c     42.48748
_cell_angle_alpha  88.370288
_cell_angle_beta   90.942226
_cell_angle_gamma 122.2272
loop_
_atom_site_label
_atom_site_type_symbol
_atom_site_fract_x
_atom_site_fract_y
_atom_site_fract_z
_atom_type_partial_charge
Cu0 Cu 0.99721 0.51927 0.00745 0.0
N1 N 0.97423 0.48456 0.01237 0.0
N2 N 0.94472 0.44512 0.99805 0.0
C3 C 0.95642 0.46984 0.99052 0.0
C4 C 0.95559 0.44421 0.02587 0.0
C5 C 0.9738 0.46871 0.03476 0.0
O6 O 0.98551 0.52841 0.96895 0.0
C7 C 0.04093 0.5119 1.00196 0.0
O8 O 0.02404 0.49097 0.98742 0.0
H9 H 0.95329 0.47711 0.96858 0.0
H10 H 0.98664 0.47453 0.05528 0.0
N11 N 0.99489 0.53525 0.04231 0.0
N12 N 0.01103 0.5606 0.08351 0.0
C13 C 0.01617 0.55583 0.05464 0.0
C14 C 0.97539 0.52663 0.06399 0.0
C15 C 0.98534 0.5423 0.08956 0.0
C16 C 0.98251 0.54703 0.96531 0.0
O17 O 0.99147 0.56426 0.98701 0.0
H18 H 0.03575 0.56582 0.04374 0.0
H19 H 0.95603 0.50929 0.06225 0.0
O20 O 0.03389 0.52729 0.00835 0.0
H21 H 0.95119 0.42714 0.03844 0.0
H22 H 0.97491 0.53974 0.1114 0.0
Cu23 Cu 0.49292 0.99831 0.52517 0.0
N24 N 0.49221 0.96832 0.53053 0.0
N25 N 0.49628 0.93666 0.51525 0.0
C26 C 0.48921 0.95323 0.50676 0.0
C27 C 0.50384 0.94135 0.5457 0.0
C28 C 0.50126 0.9609 0.5551 0.0
O29 O 0.4804 0.99742 0.48244 0.0
C30 C 0.54062 0.04793 0.52239 0.0
O31 O 0.52845 0.05411 0.50129 0.0
H32 H 0.48444 0.95594 0.48289 0.0
H33 H 0.50751 0.97033 0.5774 0.0
N34 N 0.47239 1.00162 0.55537 0.0
N35 N 0.46103 0.02093 0.58945 0.0
C36 C 0.47497 0.02353 0.56322 0.0
C37 C 0.45616 0.9845 0.57727 0.0
C38 C 0.44912 0.99637 0.59836 0.0
C39 C 0.45545 0.98686 0.47712 0.0
O40 O 0.43936 0.98216 0.50087 0.0
H41 H 0.48821 0.04136 0.55112 0.0
H42 H 0.45091 0.9651 0.57868 0.0
O43 O 0.5293 0.0253 0.53276 0.0
H44 H 0.51208 0.93229 0.55959 0.0
H45 H 0.43684 0.98779 0.61913 0.0
Cu46 Cu 0.54446 0.52323 0.03403 0.0
N47 N 0.54056 0.49154 0.03617 0.0
N48 N 0.53247 0.45491 0.0178 0.0
C49 C 0.5336 0.47666 0.01106 0.0
C50 C 0.5391 0.45627 0.04863 0.0
C51 C 0.54408 0.47892 0.05991 0.0
O52 O 0.56311 0.5386 0.99481 0.0
C53 C 0.49715 0.5071 0.06183 0.0
O54 O 0.50919 0.50036 0.08241 0.0
H55 H 0.53012 0.48218 0.98801 0.0
H56 H 0.54992 0.4857 0.0836 0.0
N57 N 0.56348 0.54427 0.06759 0.0
N58 N 0.57454 0.57387 0.1034 0.0
C59 C 0.55836 0.5611 0.07907 0.0
C60 C 0.58369 0.5464 0.08521 0.0
C61 C 0.59065 0.56477 0.10728 0.0
C62 C 0.58452 0.53856 0.99229 0.0
O63 O 0.59282 0.53116 0.01667 0.0
H64 H 0.54312 0.56404 0.06947 0.0
H65 H 0.59263 0.53534 0.08236 0.0
O66 O 0.50901 0.5176 0.03601 0.0
H67 H 0.54013 0.44193 0.06221 0.0
H68 H 0.60604 0.57064 0.12511 0.0
Cu69 Cu 0.00661 0.4971 0.48837 0.0
N70 N 1.00358 0.48163 0.45045 0.0
N71 N 0.01601 0.47434 0.40467 0.0
C72 C 0.02099 0.49164 0.42639 0.0
C73 C 0.99404 0.45271 0.41514 0.0
C74 C 0.9864 0.4573 0.44339 0.0
O75 O 0.04221 0.52772 0.49012 0.0
C76 C 0.99548 0.47586 0.55125 0.0
O77 O 0.00535 0.49911 0.56037 0.0
H78 H 0.03821 0.51076 0.42602 0.0
H79 H 0.97044 0.44357 0.45861 0.0
N80 N 0.98201 0.50692 0.48814 0.0
N81 N 0.94961 0.51212 0.50449 0.0
C82 C 0.96248 0.49987 0.50932 0.0
C83 C 0.98139 0.52404 0.46892 0.0
C84 C 0.9614 0.52735 0.479 0.0
C85 C 0.06344 0.52845 0.48279 0.0
O86 O 0.06239 0.50708 0.48001 0.0
H87 H 0.95858 0.48685 0.52877 0.0
H88 H 0.99505 0.53394 0.44958 0.0
O89 O 0.99668 0.47196 0.52224 0.0
H90 H 0.98492 0.43457 0.40407 0.0
H91 H 0.95632 0.5403 0.46874 0.0
Cu92 Cu 0.52797 0.00613 0.01925 0.0
N93 N 0.51821 0.02919 0.02658 0.0
N94 N 0.51117 0.06015 0.01532 0.0
C95 C 0.52267 0.04771 0.00608 0.0
C96 C 0.49899 0.04902 0.0429 0.0
C97 C 0.50351 0.02989 0.04991 0.0
O98 O 0.54257 0.01406 0.97655 0.0
C99 C 0.47292 0.96511 0.02465 0.0
O100 O 0.46663 0.97994 0.0098 0.0
H101 H 0.53293 0.05109 0.98391 0.0
H102 H 0.49578 0.01683 0.06985 0.0
N103 N 0.55356 0.01046 0.04872 0.0
N104 N 0.57212 0.99959 0.0869 0.0
C105 C 0.55189 0.99142 0.06603 0.0
C106 C 0.57568 0.0316 0.05879 0.0
C107 C 0.58735 0.02489 0.08234 0.0
C108 C 0.5658 0.01898 0.96953 0.0
O109 O 0.57907 0.01383 0.99025 0.0
H110 H 0.53606 0.97187 0.06322 0.0
H111 H 0.5826 0.05047 0.04992 0.0
O112 O 0.49741 0.97212 0.02744 0.0
H113 H 0.4872 0.05395 0.0566 0.0
H114 H 0.60521 0.03765 0.0955 0.0
Cu115 Cu 0.45875 0.47616 0.52144 0.0
N116 N 0.46307 0.50755 0.52587 0.0
N117 N 0.47345 0.54603 0.50981 0.0
C118 C 0.46886 0.52347 0.50123 0.0
C119 C 0.47004 0.544 0.54139 0.0
C120 C 0.46362 0.52019 0.55125 0.0
O121 O 0.4457 0.46726 0.47819 0.0
C122 C 0.50126 0.4859 0.55916 0.0
O123 O 0.4859 0.48856 0.57857 0.0
H124 H 0.46995 0.51843 0.47745 0.0
H125 H 0.46028 0.51292 0.57523 0.0
N126 N 0.43457 0.45266 0.55074 0.0
N127 N 0.41978 0.42165 0.58696 0.0
C128 C 0.43502 0.43243 0.56113 0.0
C129 C 0.41817 0.45464 0.5704 0.0
C130 C 0.40909 0.43552 0.59298 0.0
C131 C 0.42082 0.45285 0.47212 0.0
O132 O 0.40425 0.43961 0.49517 0.0
H133 H 0.44825 0.42717 0.55166 0.0
H134 H 0.41453 0.46984 0.56966 0.0
O135 O 0.49339 0.48011 0.53075 0.0
H136 H 0.47279 0.55883 0.55651 0.0
H137 H 0.39677 0.43281 0.61313 0.0
C138 C 0.34019 0.5101 0.17641 0.0
C139 C 0.3346 0.49592 0.14906 0.0
C140 C 0.31952 0.50857 0.1938 0.0
C141 C 0.29275 0.49233 0.18471 0.0
C142 C 0.30779 0.47986 0.13984 0.0
C143 C 0.2871 0.47812 0.15747 0.0
C144 C 0.27071 0.49184 0.20145 0.0
C145 C 0.30729 0.46481 0.27406 0.0
C146 C 0.3202 0.48146 0.29909 0.0
C147 C 0.29083 0.46812 0.25298 0.0
C148 C 0.2868 0.48812 0.2564 0.0
C149 C 0.31612 0.50154 0.30228 0.0
C150 C 0.29941 0.50463 0.28141 0.0
C151 C 0.2688 0.49143 0.2347 0.0
C152 C 0.16075 0.47683 0.25233 0.0
C153 C 0.16612 0.49467 0.27532 0.0
C154 C 0.18162 0.4768 0.23752 0.0
C155 C 0.20833 0.4947 0.24522 0.0
C156 C 0.19292 0.5124 0.28328 0.0
C157 C 0.21383 0.5123 0.26848 0.0
C158 C 0.23042 0.49469 0.22944 0.0
C159 C 0.19562 0.52243 0.15528 0.0
C160 C 0.17924 0.50338 0.13408 0.0
C161 C 0.21272 0.5196 0.17575 0.0
C162 C 0.21403 0.49786 0.17494 0.0
C163 C 0.18052 0.48162 0.13333 0.0
C164 C 0.19808 0.47906 0.15328 0.0
C165 C 0.23224 0.49487 0.19637 0.0
H166 H 0.36057 0.52244 0.18444 0.0
H167 H 0.32459 0.52052 0.21396 0.0
H168 H 0.30277 0.46897 0.11866 0.0
H169 H 0.26663 0.46579 0.14965 0.0
H170 H 0.30937 0.44882 0.27109 0.0
H171 H 0.28088 0.45477 0.23428 0.0
H172 H 0.32597 0.51504 0.32081 0.0
H173 H 0.29661 0.52019 0.28459 0.0
H174 H 0.14035 0.46252 0.2462 0.0
H175 H 0.17688 0.46255 0.22029 0.0
H176 H 0.19774 0.52648 0.30077 0.0
H177 H 0.23431 0.52617 0.27487 0.0
H178 H 0.19489 0.53932 0.15631 0.0
H179 H 0.22503 0.53443 0.19211 0.0
H180 H 0.16811 0.46673 0.11709 0.0
H181 H 0.19888 0.4622 0.15223 0.0
N182 N 0.25225 0.49338 0.18366 0.0
N183 N 0.24878 0.49307 0.2474 0.0
C184 C 0.84529 0.30896 0.81332 0.0
C185 C 0.83403 0.31695 0.83549 0.0
C186 C 0.82934 0.2921 0.78992 0.0
C187 C 0.80191 0.28305 0.78825 0.0
C188 C 0.80663 0.30812 0.8333 0.0
C189 C 0.79074 0.2912 0.8101 0.0
C190 C 0.78409 0.26347 0.76579 0.0
C191 C 0.83851 0.33323 0.70601 0.0
C192 C 0.85488 0.3301 0.68537 0.0
C193 C 0.81728 0.31236 0.7219 0.0
C194 C 0.8119 0.2879 0.71742 0.0
C195 C 0.84945 0.3056 0.68099 0.0
C196 C 0.82804 0.28473 0.6966 0.0
C197 C 0.78878 0.26544 0.73306 0.0
C198 C 0.6823 0.18082 0.68545 0.0
C199 C 0.69098 0.17611 0.65728 0.0
C200 C 0.7007 0.19654 0.70802 0.0
C201 C 0.72827 0.20714 0.70374 0.0
C202 C 0.71864 0.18719 0.65274 0.0
C203 C 0.73701 0.20241 0.67574 0.0
C204 C 0.7482 0.22519 0.72657 0.0
C205 C 0.69744 0.15459 0.78782 0.0
C206 C 0.68379 0.15751 0.81258 0.0
C207 C 0.71655 0.17557 0.76989 0.0
C208 C 0.72232 0.19992 0.77618 0.0
C209 C 0.68928 0.18188 0.81831 0.0
C210 C 0.70843 0.20279 0.80053 0.0
C211 C 0.74427 0.22276 0.75962 0.0
H212 H 0.86625 0.31516 0.81458 0.0
H213 H 0.83826 0.28557 0.77377 0.0
H214 H 0.79741 0.31425 0.84958 0.0
H215 H 0.76959 0.28437 0.80929 0.0
H216 H 0.84219 0.35185 0.70994 0.0
H217 H 0.8048 0.31531 0.7373 0.0
H218 H 0.86143 0.3025 0.66494 0.0
H219 H 0.82413 0.26605 0.69249 0.0
H220 H 0.66123 0.17243 0.69021 0.0
H221 H 0.69321 0.20076 0.72846 0.0
H222 H 0.72625 0.18454 0.63116 0.0
H223 H 0.75817 0.21077 0.67142 0.0
H224 H 0.69406 0.13621 0.78297 0.0
H225 H 0.72739 0.17285 0.75175 0.0
H226 H 0.67889 0.18488 0.83674 0.0
H227 H 0.71251 0.22134 0.80595 0.0
N228 N 0.7622 0.24221 0.77769 0.0
N229 N 0.77055 0.24626 0.71476 0.0
C230 C 0.58338 0.71855 0.24984 0.0
C231 C 0.5706 0.70996 0.22057 0.0
C232 C 0.58134 0.73655 0.26619 0.0
C233 C 0.56605 0.74604 0.25395 0.0
C234 C 0.55619 0.72023 0.20779 0.0
C235 C 0.55402 0.73812 0.22426 0.0
C236 C 0.56247 0.76411 0.27187 0.0
C237 C 0.52332 0.69247 0.33243 0.0
C238 C 0.53338 0.69566 0.36335 0.0
C239 C 0.53091 0.71343 0.31263 0.0
C240 C 0.54916 0.73791 0.32317 0.0
C241 C 0.55168 0.7202 0.37371 0.0
C242 C 0.55947 0.74107 0.35383 0.0
C243 C 0.55547 0.76051 0.30409 0.0
C244 C 0.5307 0.84002 0.32978 0.0
C245 C 0.53829 0.84335 0.36165 0.0
C246 C 0.53731 0.82636 0.31041 0.0
C247 C 0.55238 0.81651 0.32236 0.0
C248 C 0.55339 0.83362 0.37351 0.0
C249 C 0.56043 0.82046 0.35408 0.0
C250 C 0.55723 0.79955 0.3037 0.0
C251 C 0.59362 0.87202 0.24778 0.0
C252 C 0.58098 0.86967 0.21862 0.0
C253 C 0.58866 0.85054 0.26488 0.0
C254 C 0.57075 0.82633 0.25328 0.0
C255 C 0.5637 0.8454 0.20669 0.0
C256 C 0.55878 0.82397 0.22377 0.0
C257 C 0.56454 0.80338 0.27154 0.0
H258 H 0.59511 0.71145 0.26004 0.0
H259 H 0.5916 0.74294 0.28853 0.0
H260 H 0.54602 0.71396 0.18537 0.0
H261 H 0.54233 0.7453 0.21415 0.0
H262 H 0.50935 0.67381 0.32363 0.0
H263 H 0.52199 0.71051 0.28943 0.0
H264 H 0.55944 0.7234 0.39753 0.0
H265 H 0.57324 0.7598 0.36264 0.0
H266 H 0.51877 0.84712 0.3202 0.0
H267 H 0.52979 0.8228 0.2865 0.0
H268 H 0.55959 0.83605 0.39797 0.0
H269 H 0.57181 0.8129 0.36408 0.0
H270 H 0.60737 0.89046 0.25735 0.0
H271 H 0.59871 0.85283 0.28723 0.0
H272 H 0.55339 0.8429 0.18449 0.0
H273 H 0.54505 0.80548 0.2143 0.0
N274 N 0.56659 0.7854 0.25681 0.0
N275 N 0.55322 0.77834 0.31854 0.0
C276 C 0.83732 0.53593 0.68154 0.0
C277 C 0.827 0.51439 0.66302 0.0
C278 C 0.82067 0.53844 0.70204 0.0
C279 C 0.7935 0.51929 0.70464 0.0
C280 C 0.79991 0.49508 0.66612 0.0
C281 C 0.7833 0.49758 0.68661 0.0
C282 C 0.77499 0.52281 0.72344 0.0
C283 C 0.83157 0.5192 0.79225 0.0
C284 C 0.84458 0.53902 0.81352 0.0
C285 C 0.8106 0.51654 0.77335 0.0
C286 C 0.80284 0.53426 0.77433 0.0
C287 C 0.83636 0.55627 0.81534 0.0
C288 C 0.81582 0.55399 0.79586 0.0
C289 C 0.78022 0.53157 0.7547 0.0
C290 C 0.67984 0.52378 0.7945 0.0
C291 C 0.68956 0.54792 0.8066 0.0
C292 C 0.69627 0.5192 0.77639 0.0
C293 C 0.72281 0.53857 0.77024 0.0
C294 C 0.71602 0.56744 0.79952 0.0
C295 C 0.73257 0.5627 0.78187 0.0
C296 C 0.74077 0.53343 0.75293 0.0
C297 C 0.68319 0.53349 0.68158 0.0
C298 C 0.66777 0.51082 0.66522 0.0
C299 C 0.70489 0.53774 0.70029 0.0
C300 C 0.71152 0.5193 0.70343 0.0
C301 C 0.67468 0.49253 0.66809 0.0
C302 C 0.69636 0.49679 0.68683 0.0
C303 C 0.73509 0.52378 0.72223 0.0
H304 H 0.85802 0.55129 0.6793 0.0
H305 H 0.82883 0.55567 0.71507 0.0
H306 H 0.79147 0.47814 0.65242 0.0
H307 H 0.76235 0.48267 0.6881 0.0
H308 H 0.83716 0.50534 0.79088 0.0
H309 H 0.80021 0.50031 0.75842 0.0
H310 H 0.84599 0.57165 0.83168 0.0
H311 H 0.8101 0.56773 0.79764 0.0
H312 H 0.65986 0.5081 0.79998 0.0
H313 H 0.6885 0.50034 0.76796 0.0
H314 H 0.7241 0.58634 0.80795 0.0
H315 H 0.75302 0.5779 0.77726 0.0
H316 H 0.67837 0.54793 0.68013 0.0
H317 H 0.7167 0.55564 0.71191 0.0
H318 H 0.66354 0.47503 0.65549 0.0
H319 H 0.70127 0.48241 0.68843 0.0
N320 N 0.75252 0.51895 0.70874 0.0
N321 N 0.76296 0.53684 0.768 0.0
C322 C 0.18339 0.67736 0.23193 0.0
C323 C 0.16776 0.68391 0.2137 0.0
C324 C 0.20737 0.69611 0.24559 0.0
C325 C 0.21599 0.72172 0.2416 0.0
C326 C 0.17675 0.7096 0.20936 0.0
C327 C 0.20063 0.72826 0.22306 0.0
C328 C 0.24129 0.74202 0.25566 0.0
C329 C 0.18622 0.69392 0.33453 0.0
C330 C 0.19631 0.68193 0.3533 0.0
C331 C 0.20296 0.71388 0.31382 0.0
C332 C 0.23012 0.72207 0.311 0.0
C333 C 0.22374 0.69083 0.35128 0.0
C334 C 0.24045 0.71073 0.33045 0.0
C335 C 0.24787 0.74236 0.28794 0.0
C336 C 0.33349 0.85032 0.30328 0.0
C337 C 0.35096 0.84887 0.3249 0.0
C338 C 0.31379 0.82885 0.28782 0.0
C339 C 0.31095 0.80534 0.29362 0.0
C340 C 0.34838 0.82533 0.33018 0.0
C341 C 0.32837 0.80374 0.31496 0.0
C342 C 0.28843 0.78233 0.27928 0.0
C343 C 0.34527 0.82215 0.19826 0.0
C344 C 0.33716 0.83455 0.17727 0.0
C345 C 0.3277 0.80529 0.22135 0.0
C346 C 0.30154 0.8002 0.22348 0.0
C347 C 0.31112 0.82972 0.17962 0.0
C348 C 0.29331 0.81238 0.20225 0.0
C349 C 0.28249 0.78127 0.24684 0.0
H350 H 0.17703 0.65776 0.23576 0.0
H351 H 0.21921 0.6906 0.25917 0.0
H352 H 0.16554 0.71534 0.19491 0.0
H353 H 0.20704 0.7479 0.21933 0.0
H354 H 0.16535 0.68795 0.33596 0.0
H355 H 0.19461 0.72281 0.29985 0.0
H356 H 0.23219 0.68199 0.36524 0.0
H357 H 0.26137 0.71685 0.32895 0.0
H358 H 0.33429 0.86785 0.29911 0.0
H359 H 0.3001 0.83047 0.27214 0.0
H360 H 0.36165 0.82348 0.34631 0.0
H361 H 0.32644 0.78576 0.31992 0.0
H362 H 0.36527 0.82563 0.19689 0.0
H363 H 0.33437 0.79586 0.23718 0.0
H364 H 0.30445 0.83904 0.1636 0.0
H365 H 0.27319 0.80861 0.20334 0.0
N366 N 0.25895 0.76139 0.23637 0.0
N367 N 0.27117 0.76264 0.29853 0.0
C368 C 0.47438 0.1676 0.84171 0.0
C369 C 0.49698 0.17664 0.86128 0.0
C370 C 0.47241 0.18389 0.82028 0.0
C371 C 0.49308 0.20944 0.81795 0.0
C372 C 0.5179 0.2021 0.85828 0.0
C373 C 0.51586 0.21837 0.837 0.0
C374 C 0.48981 0.22756 0.7986 0.0
C375 C 0.49579 0.17693 0.73173 0.0
C376 C 0.47432 0.16381 0.71058 0.0
C377 C 0.49823 0.19647 0.74963 0.0
C378 C 0.47883 0.20297 0.74772 0.0
C379 C 0.45538 0.17092 0.70793 0.0
C380 C 0.45762 0.19023 0.72627 0.0
C381 C 0.48112 0.22365 0.76689 0.0
C382 C 0.48161 0.31894 0.73444 0.0
C383 C 0.45772 0.30818 0.71689 0.0
C384 C 0.48868 0.30363 0.75071 0.0
C385 C 0.47167 0.2772 0.75055 0.0
C386 C 0.44115 0.28169 0.716 0.0
C387 C 0.44806 0.26641 0.73265 0.0
C388 C 0.47851 0.26054 0.76801 0.0
C389 C 0.47468 0.30828 0.84478 0.0
C390 C 0.49937 0.32363 0.86007 0.0
C391 C 0.4711 0.2896 0.82421 0.0
C392 C 0.49215 0.28591 0.81863 0.0
C393 C 0.52042 0.32 0.85413 0.0
C394 C 0.51676 0.30121 0.83386 0.0
C395 C 0.48824 0.26485 0.7993 0.0
H396 H 0.45778 0.14817 0.84375 0.0
H397 H 0.45433 0.17674 0.80641 0.0
H398 H 0.53576 0.20954 0.87264 0.0
H399 H 0.53194 0.23806 0.8357 0.0
H400 H 0.51071 0.17201 0.73477 0.0
H401 H 0.51549 0.20656 0.76485 0.0
H402 H 0.43891 0.16177 0.69144 0.0
H403 H 0.44262 0.19511 0.72378 0.0
H404 H 0.49483 0.33924 0.73582 0.0
H405 H 0.50754 0.31252 0.76328 0.0
H406 H 0.42295 0.27269 0.70214 0.0
H407 H 0.4348 0.24607 0.7317 0.0
H408 H 0.45812 0.31069 0.84882 0.0
H409 H 0.45175 0.27768 0.81323 0.0
H410 H 0.53955 0.33126 0.86586 0.0
H411 H 0.53315 0.29848 0.83024 0.0
N412 N 0.49339 0.24813 0.81325 0.0
N413 N 0.47545 0.24017 0.75302 0.0
C414 C 0.07582 0.50075 0.00718 0.0
C415 C 0.06512 0.5147 0.01728 0.0
C416 C 0.09625 0.50045 0.02433 0.0
C417 C 0.1057 0.51389 0.05273 0.0
C418 C 0.09557 0.52868 0.06248 0.0
C419 C 0.07568 0.52915 0.04445 0.0
C420 C 0.10703 0.48503 0.01263 0.0
C421 C 0.10465 0.54291 0.09288 0.0
C422 C 0.133 0.48842 0.11498 0.0
C423 C 0.16058 0.50603 0.11303 0.0
C424 C 0.11495 0.49092 0.09569 0.0
C425 C 0.1248 0.51114 0.07329 0.0
C426 C 0.15274 0.52875 0.07092 0.0
C427 C 0.17029 0.52618 0.09115 0.0
C428 C 0.08531 0.47208 0.09958 0.0
C429 C 0.16409 0.55018 0.04687 0.0
H430 H 0.06783 0.4896 0.98619 0.0
H431 H 0.06737 0.53981 0.05266 0.0
H432 H 0.12924 0.49647 0.01248 0.0
H433 H 0.10075 0.46856 0.02875 0.0
H434 H 0.09979 0.47799 0.98855 0.0
H435 H 0.09594 0.55463 0.09628 0.0
H436 H 0.09865 0.5293 0.11304 0.0
H437 H 0.12677 0.55536 0.09347 0.0
H438 H 0.12555 0.47295 0.13209 0.0
H439 H 0.19167 0.53971 0.08958 0.0
H440 H 0.07669 0.46203 0.07727 0.0
H441 H 0.07503 0.48207 0.10504 0.0
H442 H 0.08089 0.45786 0.11864 0.0
H443 H 0.1574 0.54259 0.02292 0.0
H444 H 0.18632 0.56174 0.04731 0.0
H445 H 0.15651 0.56266 0.05127 0.0
C446 C 0.57053 0.06303 0.56918 0.0
C447 C 0.56518 0.06762 0.53827 0.0
C448 C 0.59225 0.08186 0.58611 0.0
C449 C 0.60955 0.10574 0.57154 0.0
C450 C 0.60486 0.11028 0.53995 0.0
C451 C 0.58242 0.09123 0.52379 0.0
C452 C 0.59612 0.07642 0.61999 0.0
C453 C 0.62335 0.13529 0.52341 0.0
C454 C 0.64733 0.1593 0.62841 0.0
C455 C 0.67119 0.15973 0.63291 0.0
C456 C 0.62744 0.1424 0.6077 0.0
C457 C 0.63183 0.12606 0.59015 0.0
C458 C 0.65646 0.12742 0.59304 0.0
C459 C 0.67565 0.14393 0.61471 0.0
C460 C 0.60122 0.1412 0.60578 0.0
C461 C 0.66211 0.11068 0.57419 0.0
H462 H 0.55712 0.04491 0.58067 0.0
H463 H 0.57838 0.0948 0.49988 0.0
H464 H 0.61619 0.07921 0.62317 0.0
H465 H 0.59509 0.0898 0.63559 0.0
H466 H 0.5808 0.05685 0.62781 0.0
H467 H 0.61814 0.13512 0.49814 0.0
H468 H 0.62241 0.15046 0.53497 0.0
H469 H 0.64434 0.14015 0.52522 0.0
H470 H 0.64389 0.17193 0.64147 0.0
H471 H 0.69379 0.14379 0.61803 0.0
H472 H 0.58481 0.12247 0.6147 0.0
H473 H 0.59644 0.14326 0.58097 0.0
H474 H 0.60147 0.15605 0.61976 0.0
H475 H 0.64962 0.09089 0.58311 0.0
H476 H 0.68346 0.11655 0.57569 0.0
H477 H 0.65679 0.11096 0.54907 0.0
C478 C 0.55037 0.59238 0.12522 0.0
C479 C 0.57429 0.59304 0.12128 0.0
C480 C 0.54982 0.61122 0.14176 0.0
C481 C 0.57382 0.63139 0.15461 0.0
C482 C 0.59801 0.63208 0.15095 0.0
C483 C 0.59793 0.61285 0.13447 0.0
C484 C 0.52353 0.60956 0.14539 0.0
C485 C 0.62405 0.65331 0.1641 0.0
C486 C 0.57628 0.69214 0.17108 0.0
C487 C 0.57196 0.69009 0.20371 0.0
C488 C 0.57722 0.67334 0.15489 0.0
C489 C 0.57358 0.65183 0.17164 0.0
C490 C 0.56928 0.64968 0.20459 0.0
C491 C 0.56859 0.66883 0.22021 0.0
C492 C 0.58204 0.67647 0.1198 0.0
C493 C 0.56505 0.62696 0.2233 0.0
H494 H 0.53194 0.57693 0.11558 0.0
H495 H 0.6165 0.61361 0.13128 0.0
H496 H 0.51911 0.60935 0.17072 0.0
H497 H 0.52485 0.62644 0.13429 0.0
H498 H 0.50657 0.59241 0.13454 0.0
H499 H 0.64107 0.65098 0.15953 0.0
H500 H 0.62866 0.67161 0.15348 0.0
H501 H 0.62226 0.65434 0.18988 0.0
H502 H 0.57921 0.70863 0.15821 0.0
H503 H 0.56488 0.66692 0.24534 0.0
H504 H 0.56477 0.66063 0.10749 0.0
H505 H 0.59995 0.67584 0.11419 0.0
H506 H 0.58504 0.69452 0.11033 0.0
H507 H 0.54714 0.60955 0.21438 0.0
H508 H 0.5623 0.62828 0.24882 0.0
H509 H 0.58242 0.62493 0.22031 0.0
C510 C 0.92803 0.53242 0.52812 0.0
C511 C 0.92983 0.51115 0.52489 0.0
C512 C 0.91055 0.53243 0.55006 0.0
C513 C 0.89452 0.51063 0.56919 0.0
C514 C 0.89569 0.48885 0.56547 0.0
C515 C 0.91328 0.48937 0.5433 0.0
C516 C 0.90979 0.55599 0.55337 0.0
C517 C 0.87882 0.46521 0.58539 0.0
C518 C 0.87037 0.51976 0.64687 0.0
C519 C 0.84407 0.51261 0.63939 0.0
C520 C 0.88694 0.51895 0.6243 0.0
C521 C 0.87694 0.51083 0.59357 0.0
C522 C 0.85033 0.50334 0.58597 0.0
C523 C 0.83422 0.50434 0.60898 0.0
C524 C 0.9152 0.52696 0.63326 0.0
C525 C 0.83902 0.49461 0.55342 0.0
H526 H 0.94096 0.5494 0.51429 0.0
H527 H 0.91425 0.47272 0.54056 0.0
H528 H 0.88899 0.55147 0.55052 0.0
H529 H 0.91654 0.56355 0.57732 0.0
H530 H 0.92272 0.57099 0.53583 0.0
H531 H 0.88106 0.44947 0.57838 0.0
H532 H 0.88466 0.46925 0.61049 0.0
H533 H 0.85739 0.45893 0.58356 0.0
H534 H 0.87795 0.52591 0.67044 0.0
H535 H 0.81403 0.49915 0.60295 0.0
H536 H 0.92964 0.54323 0.61816 0.0
H537 H 0.91844 0.51134 0.62923 0.0
H538 H 0.91977 0.53243 0.6583 0.0
H539 H 0.85075 0.51004 0.53587 0.0
H540 H 0.81769 0.48878 0.55159 0.0
H541 H 0.84068 0.47844 0.54702 0.0
C542 C 0.46009 0.93513 0.07076 0.0
C543 C 0.45241 0.94305 0.0436 0.0
C544 C 0.44093 0.9167 0.09154 0.0
C545 C 0.41335 0.90529 0.08463 0.0
C546 C 0.40549 0.91235 0.05649 0.0
C547 C 0.42509 0.93142 0.03657 0.0
C548 C 0.45026 0.91021 0.12157 0.0
C549 C 0.37633 0.90014 0.04778 0.0
C550 C 0.36584 0.84405 0.1298 0.0
C551 C 0.35588 0.85244 0.15291 0.0
C552 C 0.38391 0.86087 0.10682 0.0
C553 C 0.39283 0.88684 0.10757 0.0
C554 C 0.3828 0.89535 0.13101 0.0
C555 C 0.36415 0.87796 0.15312 0.0
C556 C 0.39352 0.85089 0.0818 0.0
C557 C 0.39226 0.92292 0.1332 0.0
H558 H 0.48114 0.9442 0.07662 0.0
H559 H 0.41903 0.93741 0.01562 0.0
H560 H 0.44229 0.91461 0.1422 0.0
H561 H 0.44243 0.8897 0.1229 0.0
H562 H 0.47243 0.92077 0.12343 0.0
H563 H 0.37361 0.90603 0.02383 0.0
H564 H 0.36622 0.87927 0.04882 0.0
H565 H 0.36619 0.90531 0.06495 0.0
H566 H 0.35926 0.82424 0.12959 0.0
H567 H 0.35652 0.88441 0.17115 0.0
H568 H 0.4154 0.85936 0.08417 0.0
H569 H 0.3899 0.85638 0.05808 0.0
H570 H 0.3834 0.83 0.08328 0.0
H571 H 0.41428 0.9343 0.13665 0.0
H572 H 0.38266 0.92649 0.1529 0.0
H573 H 0.38788 0.9297 0.11091 0.0
C574 C 0.42306 0.40606 0.63964 0.0
C575 C 0.42008 0.40293 0.60701 0.0
C576 C 0.42753 0.39006 0.65889 0.0
C577 C 0.42862 0.37028 0.64512 0.0
C578 C 0.42423 0.36628 0.61238 0.0
C579 C 0.42025 0.38282 0.59368 0.0
C580 C 0.4325 0.39514 0.69363 0.0
C581 C 0.42475 0.34513 0.5969 0.0
C582 C 0.46996 0.34683 0.68395 0.0
C583 C 0.45027 0.32445 0.69921 0.0
C584 C 0.46321 0.36218 0.66688 0.0
C585 C 0.43604 0.35477 0.6645 0.0
C586 C 0.41606 0.3323 0.67985 0.0
C587 C 0.42343 0.31752 0.69724 0.0
C588 C 0.48516 0.38618 0.65105 0.0
C589 C 0.38686 0.3237 0.67758 0.0
H590 H 0.42332 0.42185 0.64986 0.0
H591 H 0.41782 0.38042 0.56844 0.0
H592 H 0.41936 0.37764 0.7077 0.0
H593 H 0.45349 0.40128 0.69932 0.0
H594 H 0.429 0.41003 0.70103 0.0
H595 H 0.4187 0.34328 0.57174 0.0
H596 H 0.44523 0.34864 0.59831 0.0
H597 H 0.41118 0.32691 0.60943 0.0
H598 H 0.49068 0.35219 0.68483 0.0
H599 H 0.4081 0.30054 0.70939 0.0
H600 H 0.48425 0.40254 0.65856 0.0
H601 H 0.4823 0.38492 0.62515 0.0
H602 H 0.5054 0.38993 0.65654 0.0
H603 H 0.38384 0.33846 0.68657 0.0
H604 H 0.37378 0.30581 0.69107 0.0
H605 H 0.38041 0.32082 0.65257 0.0
C606 C 0.48182 0.90853 0.46986 0.0
C607 C 0.50024 0.92135 0.4941 0.0
C608 C 0.48627 0.8948 0.44784 0.0
C609 C 0.51014 0.89462 0.44951 0.0
C610 C 0.52881 0.90761 0.47393 0.0
C611 C 0.52346 0.92054 0.49614 0.0
C612 C 0.46553 0.88068 0.4227 0.0
C613 C 0.55476 0.90834 0.47618 0.0
C614 C 0.51611 0.84378 0.41094 0.0
C615 C 0.52971 0.85605 0.38302 0.0
C616 C 0.50876 0.85579 0.43223 0.0
C617 C 0.51576 0.88092 0.42579 0.0
C618 C 0.52919 0.89327 0.39736 0.0
C619 C 0.53575 0.88056 0.37611 0.0
C620 C 0.49379 0.84169 0.4618 0.0
C621 C 0.53737 0.92018 0.38985 0.0
H622 H 0.46389 0.90922 0.46827 0.0
H623 H 0.53795 0.93085 0.51449 0.0
H624 H 0.4736 0.88986 0.39938 0.0
H625 H 0.46068 0.86098 0.42159 0.0
H626 H 0.44676 0.8802 0.4269 0.0
H627 H 0.56735 0.91963 0.49628 0.0
H628 H 0.5506 0.88889 0.47896 0.0
H629 H 0.56636 0.91658 0.45411 0.0
H630 H 0.51117 0.82469 0.41608 0.0
H631 H 0.54636 0.89006 0.35455 0.0
H632 H 0.47533 0.8421 0.4639 0.0
H633 H 0.50634 0.85105 0.48276 0.0
H634 H 0.48819 0.8217 0.46222 0.0
H635 H 0.51962 0.92187 0.39005 0.0
H636 H 0.54729 0.92694 0.36654 0.0
H637 H 0.55135 0.9328 0.4082 0.0
C638 C 0.60728 0.52669 0.95488 0.0
C639 C 0.59726 0.5419 0.96152 0.0
C640 C 0.6204 0.52955 0.92656 0.0
C641 C 0.62421 0.54858 0.90453 0.0
C642 C 0.61362 0.56372 0.91075 0.0
C643 C 0.59988 0.55996 0.93916 0.0
C644 C 0.63072 0.51252 0.92059 0.0
C645 C 0.61765 0.5844 0.88799 0.0
C646 C 0.68466 0.56718 0.855 0.0
C647 C 0.67289 0.55198 0.82865 0.0
C648 C 0.66893 0.56817 0.87856 0.0
C649 C 0.64071 0.55317 0.87613 0.0
C650 C 0.62871 0.53922 0.84862 0.0
C651 C 0.64496 0.53897 0.82507 0.0
C652 C 0.68254 0.58363 0.90732 0.0
C653 C 0.59868 0.52289 0.84516 0.0
H654 H 0.60477 0.51235 0.97194 0.0
H655 H 0.59204 0.57167 0.94437 0.0
H656 H 0.62343 0.50337 0.8975 0.0
H657 H 0.65291 0.52388 0.91971 0.0
H658 H 0.6244 0.49753 0.93913 0.0
H659 H 0.60599 0.59279 0.89475 0.0
H660 H 0.63917 0.59956 0.88726 0.0
H661 H 0.61178 0.57706 0.86382 0.0
H662 H 0.70614 0.5772 0.85831 0.0
H663 H 0.63566 0.52774 0.80441 0.0
H664 H 0.68034 0.57087 0.92731 0.0
H665 H 0.6731 0.59406 0.9143 0.0
H666 H 0.70424 0.5974 0.90331 0.0
H667 H 0.59093 0.50579 0.86058 0.0
H668 H 0.59257 0.51675 0.82055 0.0
H669 H 0.58908 0.53304 0.85269 0.0
C670 C 0.10603 0.55188 0.45156 0.0
C671 C 0.08652 0.55234 0.46946 0.0
C672 C 0.12533 0.57334 0.43432 0.0
C673 C 0.12534 0.59596 0.43513 0.0
C674 C 0.10654 0.59691 0.45436 0.0
C675 C 0.08736 0.57512 0.47121 0.0
C676 C 0.14494 0.57146 0.41407 0.0
C677 C 0.1059 0.62064 0.45606 0.0
C678 C 0.18637 0.65767 0.40493 0.0
C679 C 0.1782 0.65997 0.37445 0.0
C680 C 0.16946 0.63699 0.42494 0.0
C681 C 0.14375 0.61803 0.41424 0.0
C682 C 0.13545 0.62018 0.38346 0.0
C683 C 0.1527 0.64109 0.36402 0.0
C684 C 0.17905 0.63547 0.45759 0.0
C685 C 0.10827 0.60036 0.37102 0.0
H686 H 0.10553 0.53439 0.44981 0.0
H687 H 0.07241 0.57573 0.48494 0.0
H688 H 0.1413 0.57388 0.3889 0.0
H689 H 0.16572 0.5868 0.41961 0.0
H690 H 0.14331 0.55302 0.41733 0.0
H691 H 0.0916 0.619 0.47407 0.0
H692 H 0.1261 0.63703 0.46161 0.0
H693 H 0.09997 0.6247 0.43282 0.0
H694 H 0.20591 0.67226 0.41334 0.0
H695 H 0.14633 0.64246 0.34039 0.0
H696 H 0.17873 0.61766 0.46074 0.0
H697 H 0.16536 0.63515 0.47543 0.0
H698 H 0.19965 0.65162 0.4623 0.0
H699 H 0.10548 0.5814 0.37326 0.0
H700 H 0.10543 0.60397 0.34596 0.0
H701 H 0.09241 0.59988 0.38524 0.0
C702 C 0.4867 0.08013 0.99716 0.0
C703 C 0.50982 0.07909 0.99696 0.0
C704 C 0.48401 0.09649 0.97639 0.0
C705 C 0.505 0.11218 0.95513 0.0
C706 C 0.52877 0.11187 0.95566 0.0
C707 C 0.53087 0.09534 0.9766 0.0
C708 C 0.45833 0.09627 0.97634 0.0
C709 C 0.55168 0.12844 0.93351 0.0
C710 C 0.48992 0.13489 0.87859 0.0
C711 C 0.49843 0.15986 0.88551 0.0
C712 C 0.49146 0.11899 0.90128 0.0
C713 C 0.50187 0.12836 0.93152 0.0
C714 C 0.51021 0.15343 0.93878 0.0
C715 C 0.50829 0.16886 0.91572 0.0
C716 C 0.48233 0.0923 0.89274 0.0
C717 C 0.52148 0.16407 0.97075 0.0
H718 H 0.47029 0.06741 0.01261 0.0
H719 H 0.54891 0.09481 0.97673 0.0
H720 H 0.4627 0.11571 0.97891 0.0
H721 H 0.44789 0.08932 0.95347 0.0
H722 H 0.44458 0.08405 0.99554 0.0
H723 H 0.56926 0.12675 0.938 0.0
H724 H 0.54507 0.12317 0.90881 0.0
H725 H 0.55803 0.1485 0.9358 0.0
H726 H 0.4825 0.12791 0.85523 0.0
H727 H 0.5144 0.18798 0.92142 0.0
H728 H 0.46713 0.07868 0.90984 0.0
H729 H 0.4995 0.08971 0.89401 0.0
H730 H 0.47363 0.08759 0.86869 0.0
H731 H 0.50688 0.15218 0.98942 0.0
H732 H 0.52648 0.18378 0.97285 0.0
H733 H 0.53986 0.16376 0.97524 0.0
C734 C 0.38372 0.43631 0.43256 0.0
C735 C 0.40966 0.45524 0.44155 0.0
C736 C 0.37071 0.44007 0.40698 0.0
C737 C 0.38369 0.46355 0.3903 0.0
C738 C 0.41038 0.48233 0.39833 0.0
C739 C 0.42313 0.47784 0.42363 0.0
C740 C 0.34251 0.41932 0.39888 0.0
C741 C 0.42487 0.50776 0.38154 0.0
C742 C 0.35314 0.4684 0.31251 0.0
C743 C 0.33726 0.47759 0.32218 0.0
C744 C 0.36855 0.46397 0.33424 0.0
C745 C 0.36847 0.46914 0.36646 0.0
C746 C 0.35295 0.47887 0.3763 0.0
C747 C 0.33743 0.48274 0.35419 0.0
C748 C 0.38462 0.45341 0.3228 0.0
C749 C 0.3524 0.48484 0.41037 0.0
H750 H 0.37321 0.41878 0.44622 0.0
H751 H 0.44309 0.49267 0.43054 0.0
H752 H 0.32841 0.42515 0.40498 0.0
H753 H 0.34062 0.41591 0.37321 0.0
H754 H 0.33634 0.40131 0.41171 0.0
H755 H 0.44625 0.51945 0.38864 0.0
H756 H 0.42378 0.50543 0.35568 0.0
H757 H 0.41504 0.51817 0.38699 0.0
H758 H 0.35363 0.46473 0.28785 0.0
H759 H 0.32498 0.48938 0.36225 0.0
H760 H 0.37768 0.43492 0.33471 0.0
H761 H 0.40604 0.46621 0.32895 0.0
H762 H 0.38293 0.45077 0.29693 0.0
H763 H 0.34365 0.46728 0.42506 0.0
H764 H 0.34052 0.4936 0.41394 0.0
H765 H 0.37307 0.49791 0.41899 0.0
C766 C 0.92856 0.40307 0.97666 0.0
C767 C 0.92692 0.42455 0.97811 0.0
C768 C 0.91333 0.38425 0.95469 0.0
C769 C 0.89596 0.38696 0.93394 0.0
C770 C 0.89356 0.40819 0.9361 0.0
C771 C 0.90911 0.42672 0.95811 0.0
C772 C 0.91653 0.36194 0.95292 0.0
C773 C 0.87502 0.41164 0.91467 0.0
C774 C 0.87655 0.35472 0.85507 0.0
C775 C 0.85055 0.33418 0.86112 0.0
C776 C 0.89186 0.37166 0.87884 0.0
C777 C 0.88081 0.36806 0.9093 0.0
C778 C 0.85481 0.34709 0.91574 0.0
C779 C 0.84005 0.33034 0.89162 0.0
C780 C 0.9196 0.39377 0.87115 0.0
C781 C 0.84234 0.34267 0.94791 0.0
H782 H 0.94253 0.40148 0.99183 0.0
H783 H 0.90758 0.44317 0.95949 0.0
H784 H 0.89674 0.34402 0.95482 0.0
H785 H 0.92508 0.36221 0.92975 0.0
H786 H 0.92981 0.36197 0.97177 0.0
H787 H 0.87471 0.4287 0.92027 0.0
H788 H 0.88141 0.41334 0.88984 0.0
H789 H 0.85435 0.39486 0.91655 0.0
H790 H 0.88472 0.35795 0.83153 0.0
H791 H 0.82019 0.31421 0.89667 0.0
H792 H 0.93434 0.39422 0.88807 0.0
H793 H 0.92024 0.41169 0.87344 0.0
H794 H 0.92587 0.39303 0.8469 0.0
H795 H 0.85549 0.34175 0.96613 0.0
H796 H 0.8223 0.32494 0.94938 0.0
H797 H 0.84024 0.35871 0.95364 0.0
C798 C 0.96652 0.56919 0.9299 0.0
C799 C 0.96508 0.54689 0.93956 0.0
C800 C 0.94833 0.5688 0.9077 0.0
C801 C 0.92768 0.54545 0.89556 0.0
C802 C 0.92643 0.52292 0.90489 0.0
C803 C 0.94533 0.52397 0.9264 0.0
C804 C 0.95088 0.59333 0.89774 0.0
C805 C 0.90444 0.49754 0.89319 0.0
C806 C 0.8638 0.54112 0.86715 0.0
C807 C 0.86615 0.54123 0.83438 0.0
C808 C 0.88358 0.54232 0.88728 0.0
C809 C 0.90666 0.54439 0.87431 0.0
C810 C 0.90934 0.54503 0.84115 0.0
C811 C 0.88887 0.54307 0.82159 0.0
C812 C 0.87953 0.54092 0.92245 0.0
C813 C 0.93388 0.54786 0.82632 0.0
H814 H 0.98176 0.58697 0.9399 0.0
H815 H 0.94386 0.50659 0.93397 0.0
H816 H 0.95103 0.5951 0.87167 0.0
H817 H 0.93335 0.59354 0.90627 0.0
H818 H 0.96935 0.61002 0.90712 0.0
H819 H 0.90662 0.48186 0.9021 0.0
H820 H 0.88472 0.49375 0.90085 0.0
H821 H 0.90429 0.49756 0.86709 0.0
H822 H 0.84612 0.53949 0.87705 0.0
H823 H 0.89075 0.5433 0.79622 0.0
H824 H 0.89607 0.55823 0.9334 0.0
H825 H 0.87995 0.52465 0.9328 0.0
H826 H 0.86026 0.53882 0.92877 0.0
H827 H 0.95213 0.56508 0.83505 0.0
H828 H 0.93346 0.54917 0.80021 0.0
H829 H 0.93553 0.53152 0.83319 0.0
C830 C 0.41677 0.96313 0.44064 0.0
C831 C 0.44392 0.97332 0.44736 0.0
C832 C 0.40375 0.94528 0.41701 0.0
C833 C 0.41812 0.93709 0.40007 0.0
C834 C 0.44596 0.94859 0.40525 0.0
C835 C 0.45863 0.96689 0.42852 0.0
C836 C 0.37417 0.93392 0.41173 0.0
C837 C 0.46192 0.94017 0.38798 0.0
C838 C 0.37538 0.86889 0.3751 0.0
C839 C 0.37052 0.8715 0.34319 0.0
C840 C 0.39183 0.8901 0.39341 0.0
C841 C 0.40335 0.91463 0.37975 0.0
C842 C 0.39928 0.91747 0.34738 0.0
C843 C 0.38311 0.89589 0.32944 0.0
C844 C 0.39586 0.88619 0.42781 0.0
C845 C 0.41111 0.94329 0.33198 0.0
H846 H 0.40535 0.96819 0.4549 0.0
H847 H 0.47966 0.97477 0.4334 0.0
H848 H 0.36972 0.93352 0.38621 0.0
H849 H 0.36291 0.91412 0.42086 0.0
H850 H 0.36673 0.94453 0.42379 0.0
H851 H 0.48364 0.95194 0.3934 0.0
H852 H 0.45461 0.92027 0.39468 0.0
H853 H 0.45907 0.94089 0.3622 0.0
H854 H 0.36554 0.85029 0.38622 0.0
H855 H 0.38 0.89818 0.30469 0.0
H856 H 0.38451 0.89173 0.44245 0.0
H857 H 0.41728 0.89827 0.43441 0.0
H858 H 0.38893 0.8662 0.43366 0.0
H859 H 0.40189 0.953 0.34219 0.0
H860 H 0.40782 0.9423 0.30611 0.0
H861 H 0.43292 0.95508 0.33669 0.0
C862 C 0.51187 0.4325 0.96828 0.0
C863 C 0.52625 0.43504 0.99609 0.0
C864 C 0.50678 0.4142 0.94614 0.0
C865 C 0.51594 0.39769 0.95199 0.0
C866 C 0.5299 0.39968 0.98028 0.0
C867 C 0.53497 0.41836 1.00191 0.0
C868 C 0.49187 0.41277 0.91625 0.0
C869 C 0.53986 0.38231 0.98749 0.0
C870 C 0.48385 0.33675 0.90618 0.0
C871 C 0.50311 0.34286 0.88292 0.0
C872 C 0.48779 0.35435 0.92887 0.0
C873 C 0.51144 0.37874 0.92813 0.0
C874 C 0.53076 0.38512 0.90442 0.0
C875 C 0.52642 0.36709 0.88221 0.0
C876 C 0.46679 0.34674 0.95389 0.0
C877 C 0.55606 0.41103 0.90249 0.0
H878 H 0.50447 0.44481 0.96369 0.0
H879 H 0.54626 0.42019 0.02307 0.0
H880 H 0.50462 0.4161 0.89551 0.0
H881 H 0.47365 0.39362 0.91412 0.0
H882 H 0.48585 0.42683 0.91535 0.0
H883 H 0.54936 0.38555 0.0111 0.0
H884 H 0.52304 0.36232 0.9864 0.0
H885 H 0.5547 0.38518 0.96951 0.0
H886 H 0.46595 0.31797 0.90708 0.0
H887 H 0.54125 0.37199 0.8641 0.0
H888 H 0.45935 0.3597 0.95296 0.0
H889 H 0.47571 0.34833 0.97756 0.0
H890 H 0.4495 0.32709 0.95118 0.0
H891 H 0.55096 0.42568 0.89985 0.0
H892 H 0.56897 0.41308 0.88245 0.0
H893 H 0.5677 0.4148 0.92462 0.0
C894 C 0.03641 0.45699 0.37205 0.0
C895 C 0.03419 0.47735 0.3802 0.0
C896 C 0.05697 0.46057 0.35225 0.0
C897 C 0.07575 0.4851 0.34028 0.0
C898 C 0.0727 0.50545 0.34687 0.0
C899 C 0.05195 0.50133 0.36676 0.0
C900 C 0.05947 0.43833 0.34559 0.0
C901 C 0.09219 0.53188 0.33445 0.0
C902 C 0.14466 0.49733 0.32419 0.0
C903 C 0.14374 0.49414 0.29156 0.0
C904 C 0.12296 0.49525 0.34015 0.0
C905 C 0.09969 0.48965 0.3231 0.0
C906 C 0.0989 0.48715 0.29006 0.0
C907 C 0.12096 0.48947 0.27466 0.0
C908 C 0.12461 0.49826 0.37542 0.0
C909 C 0.07454 0.48149 0.2711 0.0
H910 H 0.02301 0.43847 0.38248 0.0
H911 H 0.05011 0.51708 0.37255 0.0
H912 H 0.0615 0.43701 0.31993 0.0
H913 H 0.0778 0.44103 0.35709 0.0
H914 H 0.04198 0.42018 0.35437 0.0
H915 H 0.08417 0.5443 0.33642 0.0
H916 H 0.11106 0.54019 0.34818 0.0
H917 H 0.09719 0.5317 0.30944 0.0
H918 H 0.16204 0.50068 0.33746 0.0
H919 H 0.12032 0.48747 0.24935 0.0
H920 H 0.10965 0.48008 0.38706 0.0
H921 H 0.11978 0.51244 0.38188 0.0
H922 H 0.14475 0.50424 0.38487 0.0
H923 H 0.05717 0.46275 0.27841 0.0
H924 H 0.07764 0.48141 0.24539 0.0
H925 H 0.06927 0.49568 0.2757 0.0
C926 C 0.6049 0.0395 0.93254 0.0
C927 C 0.57992 0.03508 0.9413 0.0
C928 C 0.62054 0.05774 0.90923 0.0
C929 C 0.61117 0.07219 0.89446 0.0
C930 C 0.58544 0.06704 0.90218 0.0
C931 C 0.57006 0.04844 0.9253 0.0
C932 C 0.64772 0.06241 0.90155 0.0
C933 C 0.57473 0.08211 0.8873 0.0
C934 C 0.6643 0.13849 0.86584 0.0
C935 C 0.66472 0.13554 0.83324 0.0
C936 C 0.64676 0.11816 0.8858 0.0
C937 C 0.62921 0.09403 0.87306 0.0
C938 C 0.62944 0.09084 0.84021 0.0
C939 C 0.64715 0.1116 0.82071 0.0
C940 C 0.64722 0.12247 0.92067 0.0
C941 C 0.61107 0.06546 0.82569 0.0
H942 H 0.61268 0.02925 0.94464 0.0
H943 H 0.55085 0.04529 0.93189 0.0
H944 H 0.65006 0.06231 0.87571 0.0
H945 H 0.66354 0.08134 0.90978 0.0
H946 H 0.65103 0.04806 0.91282 0.0
H947 H 0.55353 0.07439 0.89374 0.0
H948 H 0.58693 0.10195 0.89507 0.0
H949 H 0.57628 0.08247 0.86128 0.0
H950 H 0.67807 0.15671 0.87596 0.0
H951 H 0.64704 0.10911 0.79556 0.0
H952 H 0.6529 0.11049 0.93393 0.0
H953 H 0.62698 0.1169 0.92872 0.0
H954 H 0.66153 0.1425 0.92676 0.0
H955 H 0.61508 0.05134 0.8361 0.0
H956 H 0.6135 0.0661 0.79974 0.0
H957 H 0.58993 0.05876 0.83098 0.0
C958 C 0.49186 0.56914 0.45922 0.0
C959 C 0.48165 0.56781 0.48938 0.0
C960 C 0.49959 0.58985 0.43885 0.0
C961 C 0.4977 0.61012 0.449 0.0
C962 C 0.48772 0.6092 0.47939 0.0
C963 C 0.47962 0.58796 0.49915 0.0
C964 C 0.50992 0.59004 0.40645 0.0
C965 C 0.48571 0.6307 0.49104 0.0
C966 C 0.54227 0.67273 0.40621 0.0
C967 C 0.52421 0.67362 0.38519 0.0
C968 C 0.53375 0.65247 0.42768 0.0
C969 C 0.5066 0.63241 0.42778 0.0
C970 C 0.48826 0.63309 0.40658 0.0
C971 C 0.49725 0.65378 0.38566 0.0
C972 C 0.55387 0.65239 0.45003 0.0
C973 C 0.45921 0.61183 0.40577 0.0
H974 H 0.49422 0.55417 0.45138 0.0
H975 H 0.47156 0.58715 0.52214 0.0
H976 H 0.49796 0.59272 0.38817 0.0
H977 H 0.53094 0.60611 0.40395 0.0
H978 H 0.50914 0.57229 0.40173 0.0
H979 H 0.47771 0.62716 0.51539 0.0
H980 H 0.50574 0.64843 0.49055 0.0
H981 H 0.4725 0.63375 0.47524 0.0
H982 H 0.5632 0.68779 0.4057 0.0
H983 H 0.48307 0.65452 0.36991 0.0
H984 H 0.55595 0.63622 0.44508 0.0
H985 H 0.54679 0.64996 0.47467 0.0
H986 H 0.57391 0.67008 0.44809 0.0
H987 H 0.45769 0.59392 0.40004 0.0
H988 H 0.44745 0.61542 0.38813 0.0
H989 H 0.45002 0.60907 0.42927 0.0
C990 C 0.4626 0.06115 0.58984 0.0
C991 C 0.46151 0.04088 0.60627 0.0
C992 C 0.46387 0.0811 0.60592 0.0
C993 C 0.46464 0.08105 0.63927 0.0
C994 C 0.46356 0.06061 0.65598 0.0
C995 C 0.46176 0.04068 0.63929 0.0
C996 C 0.46445 0.10225 0.58721 0.0
C997 C 0.46487 0.06004 0.69149 0.0
C998 C 0.49463 0.14391 0.68034 0.0
C999 C 0.47176 0.14285 0.69149 0.0
C1000 C 0.4926 0.12398 0.66341 0.0
C1001 C 0.46705 0.10257 0.65674 0.0
C1002 C 0.44386 0.10155 0.66724 0.0
C1003 C 0.44649 0.12152 0.68471 0.0
C1004 C 0.51787 0.12573 0.65293 0.0
C1005 C 0.41622 0.07923 0.66026 0.0
H1006 H 0.4622 0.06124 0.56433 0.0
H1007 H 0.46134 0.02526 0.65208 0.0
H1008 H 0.44782 0.10431 0.59471 0.0
H1009 H 0.4834 0.12038 0.59183 0.0
H1010 H 0.4627 0.09901 0.56147 0.0
H1011 H 0.46374 0.04277 0.70095 0.0
H1012 H 0.48384 0.07682 0.69965 0.0
H1013 H 0.44822 0.06095 0.7016 0.0
H1014 H 0.51427 0.16041 0.68471 0.0
H1015 H 0.42864 0.12016 0.6935 0.0
H1016 H 0.51803 0.1247 0.62692 0.0
H1017 H 0.51854 0.1095 0.66291 0.0
H1018 H 0.53623 0.1435 0.66032 0.0
H1019 H 0.41374 0.07605 0.63454 0.0
H1020 H 0.40018 0.08188 0.66866 0.0
H1021 H 0.41357 0.0619 0.67172 0.0
C1022 C 0.46307 0.49875 0.10185 0.0
C1023 C 0.47174 0.50463 0.07049 0.0
C1024 C 0.43981 0.49737 0.11149 0.0
C1025 C 0.42455 0.50163 0.08914 0.0
C1026 C 0.43282 0.5071 0.05727 0.0
C1027 C 0.45653 0.50873 0.04832 0.0
C1028 C 0.43185 0.49178 0.1458 0.0
C1029 C 0.41676 0.51138 0.03279 0.0
C1030 C 0.35412 0.47621 0.11766 0.0
C1031 C 0.35671 0.49784 0.13044 0.0
C1032 C 0.37559 0.47749 0.10214 0.0
C1033 C 0.40033 0.50085 0.09979 0.0
C1034 C 0.40274 0.52294 0.11138 0.0
C1035 C 0.38083 0.5212 0.12634 0.0
C1036 C 0.37222 0.45356 0.08981 0.0
C1037 C 0.42888 0.54819 0.10955 0.0
H1038 H 0.47478 0.49569 0.1192 0.0
H1039 H 0.46313 0.51322 0.02404 0.0
H1040 H 0.43118 0.50764 0.15575 0.0
H1041 H 0.41151 0.47459 0.14814 0.0
H1042 H 0.44593 0.48887 0.16014 0.0
H1043 H 0.4253 0.5144 0.0088 0.0
H1044 H 0.39583 0.49493 0.03255 0.0
H1045 H 0.41601 0.52812 0.0388 0.0
H1046 H 0.33566 0.45805 0.12086 0.0
H1047 H 0.38278 0.53811 0.13541 0.0
H1048 H 0.38354 0.44771 0.10499 0.0
H1049 H 0.38045 0.45681 0.06565 0.0
H1050 H 0.35091 0.4378 0.08945 0.0
H1051 H 0.4439 0.54765 0.12504 0.0
H1052 H 0.42676 0.5639 0.11697 0.0
H1053 H 0.43689 0.55228 0.08522 0.0
C1054 C 0.97661 0.45789 0.60504 0.0
C1055 C 0.97821 0.45413 0.57293 0.0
C1056 C 0.95796 0.43802 0.62493 0.0
C1057 C 0.94019 0.41385 0.61238 0.0
C1058 C 0.94221 0.40978 0.5802 0.0
C1059 C 0.96127 0.42986 0.56097 0.0
C1060 C 0.95677 0.44309 0.65919 0.0
C1061 C 0.92354 0.38441 0.56573 0.0
C1062 C 0.90235 0.35516 0.66571 0.0
C1063 C 0.87712 0.35218 0.66783 0.0
C1064 C 0.92325 0.37546 0.64843 0.0
C1065 C 0.91876 0.39306 0.63246 0.0
C1066 C 0.8934 0.39028 0.63477 0.0
C1067 C 0.87298 0.36999 0.65256 0.0
C1068 C 0.95007 0.37794 0.64703 0.0
C1069 C 0.88762 0.40842 0.61784 0.0
H1070 H 0.98957 0.47652 0.61456 0.0
H1071 H 0.96216 0.4267 0.5362 0.0
H1072 H 0.93745 0.44131 0.66413 0.0
H1073 H 0.95776 0.42889 0.67438 0.0
H1074 H 0.9733 0.46225 0.66588 0.0
H1075 H 0.92827 0.38406 0.54063 0.0
H1076 H 0.92457 0.36942 0.57895 0.0
H1077 H 0.90261 0.37969 0.56727 0.0
H1078 H 0.9058 0.34164 0.67775 0.0
H1079 H 0.85347 0.36768 0.65382 0.0
H1080 H 0.9661 0.39693 0.65484 0.0
H1081 H 0.95461 0.37609 0.62239 0.0
H1082 H 0.95075 0.36343 0.66196 0.0
H1083 H 0.90211 0.42802 0.62524 0.0
H1084 H 0.86705 0.40392 0.62243 0.0
H1085 H 0.89006 0.40789 0.59209 0.0
C1086 C 0.60174 0.99071 0.11874 0.0
C1087 C 0.57597 0.98406 0.10926 0.0
C1088 C 0.60558 0.97447 0.13846 0.0
C1089 C 0.5831 0.95111 0.14879 0.0
C1090 C 0.55702 0.94479 0.14024 0.0
C1091 C 0.5538 0.96138 0.12074 0.0
C1092 C 0.63366 0.98191 0.14736 0.0
C1093 C 0.53249 0.92011 0.15087 0.0
C1094 C 0.58736 0.89396 0.16819 0.0
C1095 C 0.58491 0.89227 0.20108 0.0
C1096 C 0.58813 0.91377 0.15097 0.0
C1097 C 0.58656 0.93244 0.16705 0.0
C1098 C 0.58553 0.93162 0.20034 0.0
C1099 C 0.58462 0.91148 0.21698 0.0
C1100 C 0.58925 0.91399 0.11547 0.0
C1101 C 0.58399 0.95127 0.21831 0.0
H1102 H 0.61893 0.00817 0.10988 0.0
H1103 H 0.5338 0.95643 0.11419 0.0
H1104 H 0.63525 0.97999 0.17321 0.0
H1105 H 0.63855 0.96904 0.13621 0.0
H1106 H 0.64877 1.00163 0.13982 0.0
H1107 H 0.51361 0.9185 0.14308 0.0
H1108 H 0.53302 0.90409 0.14126 0.0
H1109 H 0.53225 0.91818 0.17691 0.0
H1110 H 0.58813 0.87946 0.15582 0.0
H1111 H 0.58252 0.91022 0.24237 0.0
H1112 H 0.6055 0.93274 0.10645 0.0
H1113 H 0.57015 0.91058 0.10546 0.0
H1114 H 0.59259 0.89932 0.10673 0.0
H1115 H 0.59943 0.97054 0.20979 0.0
H1116 H 0.58671 0.94977 0.24404 0.0
H1117 H 0.56418 0.94891 0.21427 0.0
C1118 C 0.54285 0.48425 0.55301 0.0
C1119 C 0.52678 0.48939 0.57126 0.0
C1120 C 0.5666 0.48711 0.56545 0.0
C1121 C 0.57444 0.49537 0.59675 0.0
C1122 C 0.55838 0.50077 0.61505 0.0
C1123 C 0.53487 0.49769 0.60215 0.0
C1124 C 0.58319 0.48111 0.54526 0.0
C1125 C 0.56595 0.50971 0.64845 0.0
C1126 C 0.6205 0.48246 0.64588 0.0
C1127 C 0.64449 0.50623 0.64546 0.0
C1128 C 0.59794 0.47829 0.62882 0.0
C1129 C 0.59928 0.49837 0.61089 0.0
C1130 C 0.6237 0.52214 0.60944 0.0
C1131 C 0.64597 0.52577 0.62669 0.0
C1132 C 0.57229 0.45268 0.63112 0.0
C1133 C 0.62603 0.54406 0.59067 0.0
H1134 H 0.53676 0.47779 0.52918 0.0
H1135 H 0.52274 0.50183 0.61652 0.0
H1136 H 0.60385 0.49786 0.54309 0.0
H1137 H 0.58464 0.4657 0.55659 0.0
H1138 H 0.57463 0.47526 0.52128 0.0
H1139 H 0.55142 0.51335 0.65944 0.0
H1140 H 0.56708 0.49535 0.6631 0.0
H1141 H 0.58603 0.52736 0.64887 0.0
H1142 H 0.61903 0.46728 0.66047 0.0
H1143 H 0.66453 0.54405 0.62569 0.0
H1144 H 0.56396 0.44589 0.60732 0.0
H1145 H 0.55716 0.45415 0.64437 0.0
H1146 H 0.57523 0.43838 0.64326 0.0
H1147 H 0.61857 0.5383 0.56633 0.0
H1148 H 0.64696 0.56055 0.58955 0.0
H1149 H 0.6134 0.55006 0.60157 0.0
C1150 C 0.05204 0.60182 0.09292 0.0
C1151 C 0.03066 0.5788 0.10478 0.0
C1152 C 0.07309 0.61863 0.11248 0.0
C1153 C 0.07282 0.61223 0.14476 0.0
C1154 C 0.05086 0.58939 0.15716 0.0
C1155 C 0.02996 0.57296 0.13701 0.0
C1156 C 0.09599 0.64292 0.09839 0.0
C1157 C 0.04993 0.58189 0.19142 0.0
C1158 C 0.14131 0.6439 0.18348 0.0
C1159 C 0.14256 0.66422 0.19839 0.0
C1160 C 0.11833 0.6263 0.16688 0.0
C1161 C 0.0961 0.62912 0.16506 0.0
C1162 C 0.09688 0.64908 0.18091 0.0
C1163 C 0.12007 0.66635 0.19743 0.0
C1164 C 0.11823 0.6052 0.15034 0.0
C1165 C 0.07356 0.65268 0.17957 0.0
H1166 H 0.05246 0.60648 0.0681 0.0
H1167 H 0.01365 0.55506 0.14621 0.0
H1168 H 0.09907 0.6593 0.11161 0.0
H1169 H 0.11476 0.64293 0.10029 0.0
H1170 H 0.09255 0.64561 0.0732 0.0
H1171 H 0.03065 0.56438 0.19782 0.0
H1172 H 0.06642 0.57875 0.19657 0.0
H1173 H 0.05296 0.59731 0.20667 0.0
H1174 H 0.15866 0.64224 0.18385 0.0
H1175 H 0.1207 0.68173 0.20938 0.0
H1176 H 0.11739 0.60775 0.12448 0.0
H1177 H 0.1002 0.58672 0.15702 0.0
H1178 H 0.13628 0.60453 0.15594 0.0
H1179 H 0.07056 0.65716 0.15499 0.0
H1180 H 0.07667 0.66816 0.19481 0.0
H1181 H 0.05489 0.63499 0.18695 0.0
loop_
_geom_bond_atom_site_label_1
_geom_bond_atom_site_label_2
_geom_bond_distance
_geom_bond_site_symmetry_2
_ccdc_geom_bond_type
Cu0 N1 1.999 1_454 S
Cu0 O6 1.974 1_454 S
Cu0 N11 1.985 . S
Cu0 O20 1.959 . S
N1 Cu0 1.999 1_656 S
N1 C3 1.263 . S
N1 C5 1.389 1_556 S
N2 C3 1.358 . S
N2 C4 1.400 . S
C3 N1 1.263 . S
C3 N2 1.358 . S
C3 H9 0.930 . S
C4 N2 1.400 . S
C4 C5 1.351 1_556 S
C4 H21 0.930 . S
C5 N1 1.389 1_554 S
C5 C4 1.351 1_554 S
C5 H10 0.930 . S
O6 Cu0 1.974 1_656 S
O6 C16 1.282 . S
C7 O8 1.261 1_554 S
C7 O20 1.251 . S
O8 C7 1.261 1_556 S
H9 C3 0.930 . S
H10 C5 0.930 . S
N11 Cu0 1.985 . S
N11 C13 1.335 . S
N11 C14 1.390 . S
N12 C13 1.345 . S
N12 C15 1.336 . S
C13 N11 1.335 . S
C13 N12 1.345 . S
C13 H18 0.930 . S
C14 N11 1.390 . S
C14 C15 1.346 . S
C14 H19 0.930 1_554 S
C15 N12 1.336 . S
C15 C14 1.346 . S
C15 H22 0.929 . S
C16 O6 1.282 . S
C16 O17 1.216 1_655 S
O17 C16 1.216 1_455 S
H18 C13 0.930 . S
H19 C14 0.930 1_556 S
O20 Cu0 1.959 . S
O20 C7 1.251 . S
H21 C4 0.930 . S
H22 C15 0.929 . S
Cu23 N24 1.999 . S
Cu23 O29 1.974 . S
Cu23 N34 1.985 1_565 S
Cu23 O43 1.959 1_565 S
N24 Cu23 1.999 . S
N24 C26 1.263 . S
N24 C28 1.389 . S
N25 C26 1.358 . S
N25 C27 1.400 . S
C26 N24 1.263 . S
C26 N25 1.358 . S
C26 H32 0.930 . S
C27 N25 1.400 . S
C27 C28 1.351 . S
C27 H44 0.930 . S
C28 N24 1.389 . S
C28 C27 1.351 . S
C28 H33 0.930 . S
O29 Cu23 1.974 . S
O29 C39 1.282 . S
C30 O31 1.261 . S
C30 O43 1.251 . S
O31 C30 1.261 . S
H32 C26 0.930 . S
H33 C28 0.930 . S
N34 Cu23 1.985 1_545 S
N34 C36 1.335 . S
N34 C37 1.390 . S
N35 C36 1.345 . S
N35 C38 1.336 . S
C36 N34 1.335 . S
C36 N35 1.345 . S
C36 H41 0.930 . S
C37 N34 1.390 . S
C37 C38 1.346 . S
C37 H42 0.930 . S
C38 N35 1.336 . S
C38 C37 1.346 . S
C38 H45 0.929 . S
C39 O29 1.282 . S
C39 O40 1.216 . S
O40 C39 1.216 . S
H41 C36 0.930 . S
H42 C37 0.930 . S
O43 Cu23 1.959 1_545 S
O43 C30 1.251 . S
H44 C27 0.930 . S
H45 C38 0.929 . S
Cu46 N47 1.999 1_554 S
Cu46 O52 1.974 1_554 S
Cu46 N57 1.985 . S
Cu46 O66 1.959 . S
N47 Cu46 1.999 1_556 S
N47 C49 1.263 . S
N47 C51 1.389 . S
N48 C49 1.358 . S
N48 C50 1.400 . S
C49 N47 1.263 . S
C49 N48 1.358 . S
C49 H55 0.930 . S
C50 N48 1.400 . S
C50 C51 1.351 . S
C50 H67 0.930 . S
C51 N47 1.389 . S
C51 C50 1.351 . S
C51 H56 0.930 . S
O52 Cu46 1.974 1_556 S
O52 C62 1.282 . S
C53 O54 1.261 . S
C53 O66 1.251 . S
O54 C53 1.261 . S
H55 C49 0.930 . S
H56 C51 0.930 . S
N57 Cu46 1.985 . S
N57 C59 1.335 . S
N57 C60 1.390 . S
N58 C59 1.345 . S
N58 C61 1.336 . S
C59 N57 1.335 . S
C59 N58 1.345 . S
C59 H64 0.930 . S
C60 N57 1.390 . S
C60 C61 1.346 . S
C60 H65 0.930 . S
C61 N58 1.336 . S
C61 C60 1.346 . S
C61 H68 0.929 . S
C62 O52 1.282 . S
C62 O63 1.216 1_556 S
O63 C62 1.216 1_554 S
H64 C59 0.930 . S
H65 C60 0.930 . S
O66 Cu46 1.959 . S
O66 C53 1.251 . S
H67 C50 0.930 . S
H68 C61 0.929 . S
Cu69 N70 1.999 1_655 S
Cu69 O75 1.974 1_655 S
Cu69 N80 1.985 . S
Cu69 O89 1.959 . S
N70 Cu69 1.999 1_455 S
N70 C72 1.263 . S
N70 C74 1.389 1_455 S
N71 C72 1.358 . S
N71 C73 1.400 . S
C72 N70 1.263 . S
C72 N71 1.358 . S
C72 H78 0.930 . S
C73 N71 1.400 . S
C73 C74 1.351 1_455 S
C73 H90 0.930 . S
C74 N70 1.389 1_655 S
C74 C73 1.351 1_655 S
C74 H79 0.930 . S
O75 Cu69 1.974 1_455 S
O75 C85 1.282 . S
C76 O77 1.254 1_655 S
C76 O89 1.251 . S
O77 C76 1.254 1_455 S
H78 C72 0.930 . S
H79 C74 0.930 . S
N80 Cu69 1.985 . S
N80 C82 1.335 . S
N80 C83 1.390 . S
N81 C82 1.345 . S
N81 C84 1.336 . S
C82 N80 1.335 . S
C82 N81 1.345 . S
C82 H87 0.930 . S
C83 N80 1.390 . S
C83 C84 1.346 . S
C83 H88 0.930 1_655 S
C84 N81 1.336 . S
C84 C83 1.346 . S
C84 H91 0.929 . S
C85 O75 1.282 . S
C85 O86 1.216 . S
O86 C85 1.216 . S
H87 C82 0.930 . S
H88 C83 0.930 1_455 S
O89 Cu69 1.959 . S
O89 C76 1.251 . S
H90 C73 0.930 . S
H91 C84 0.929 . S
Cu92 N93 1.999 . S
Cu92 O98 1.974 1_554 S
Cu92 N103 1.985 1_545 S
Cu92 O112 1.959 1_545 S
N93 Cu92 1.999 . S
N93 C95 1.263 1_554 S
N93 C97 1.389 . S
N94 C95 1.358 . S
N94 C96 1.400 1_556 S
C95 N93 1.263 1_556 S
C95 N94 1.358 . S
C95 H101 0.930 . S
C96 N94 1.400 1_554 S
C96 C97 1.351 . S
C96 H113 0.930 . S
C97 N93 1.389 . S
C97 C96 1.351 . S
C97 H102 0.930 . S
O98 Cu92 1.974 1_556 S
O98 C108 1.282 . S
C99 O100 1.261 . S
C99 O112 1.251 . S
O100 C99 1.261 . S
H101 C95 0.930 . S
H102 C97 0.930 . S
N103 Cu92 1.985 1_565 S
N103 C105 1.335 . S
N103 C106 1.390 . S
N104 C105 1.345 . S
N104 C107 1.336 . S
C105 N103 1.335 . S
C105 N104 1.345 . S
C105 H110 0.930 . S
C106 N103 1.390 . S
C106 C107 1.346 . S
C106 H111 0.923 1_565 S
C107 N104 1.336 . S
C107 C106 1.346 . S
C107 H114 0.929 . S
C108 O98 1.282 . S
C108 O109 1.216 . S
O109 C108 1.216 . S
H110 C105 0.930 . S
H111 C106 0.923 1_545 S
O112 Cu92 1.959 1_565 S
O112 C99 1.251 . S
H113 C96 0.930 . S
H114 C107 0.929 . S
Cu115 N116 1.999 . S
Cu115 O121 1.974 . S
Cu115 N126 1.985 . S
Cu115 O135 1.959 . S
N116 Cu115 1.999 . S
N116 C118 1.263 . S
N116 C120 1.389 . S
N117 C118 1.358 . S
N117 C119 1.400 . S
C118 N116 1.263 . S
C118 N117 1.358 . S
C118 H124 0.930 . S
C119 N117 1.400 . S
C119 C120 1.351 . S
C119 H136 0.930 . S
C120 N116 1.389 . S
C120 C119 1.351 . S
C120 H125 0.930 . S
O121 Cu115 1.974 . S
O121 C131 1.282 . S
C122 O123 1.261 . S
C122 O135 1.251 . S
O123 C122 1.261 . S
H124 C118 0.930 . S
H125 C120 0.930 . S
N126 Cu115 1.985 . S
N126 C128 1.335 . S
N126 C129 1.390 . S
N127 C128 1.345 . S
N127 C130 1.336 . S
C128 N126 1.335 . S
C128 N127 1.345 . S
C128 H133 0.930 . S
C129 N126 1.390 . S
C129 C130 1.346 . S
C129 H134 0.930 . S
C130 N127 1.336 . S
C130 C129 1.346 . S
C130 H137 0.929 . S
C131 O121 1.282 . S
C131 O132 1.216 . S
O132 C131 1.216 . S
H133 C128 0.930 . S
H134 C129 0.930 . S
O135 Cu115 1.959 . S
O135 C122 1.251 . S
H136 C119 0.930 . S
H137 C130 0.929 . S
C138 C139 1.384 . S
C138 C140 1.384 . S
C138 H166 0.931 . S
C139 C138 1.384 . S
C139 C142 1.382 . S
C140 C138 1.384 . S
C140 C141 1.381 . S
C140 H167 0.930 . S
C141 C140 1.381 . S
C141 C143 1.381 . S
C141 C144 1.487 . S
C142 C139 1.382 . S
C142 C143 1.387 . S
C142 H168 0.930 . S
C143 C141 1.381 . S
C143 C142 1.387 . S
C143 H169 0.931 . S
C144 C141 1.487 . S
C144 C151 1.399 . S
C144 N182 1.343 . S
C145 C146 1.384 . S
C145 C147 1.384 . S
C145 H170 0.931 . S
C146 C145 1.384 . S
C146 C149 1.382 . S
C147 C145 1.384 . S
C147 C148 1.381 . S
C147 H171 0.930 . S
C148 C147 1.381 . S
C148 C150 1.381 . S
C148 C151 1.487 . S
C149 C146 1.382 . S
C149 C150 1.387 . S
C149 H172 0.930 . S
C150 C148 1.381 . S
C150 C149 1.387 . S
C150 H173 0.931 . S
C151 C144 1.399 . S
C151 C148 1.487 . S
C151 N183 1.343 . S
C152 C153 1.384 . S
C152 C154 1.384 . S
C152 H174 0.931 . S
C153 C152 1.384 . S
C153 C156 1.382 . S
C154 C152 1.384 . S
C154 C155 1.381 . S
C154 H175 0.930 . S
C155 C154 1.381 . S
C155 C157 1.381 . S
C155 C158 1.487 . S
C156 C153 1.382 . S
C156 C157 1.387 . S
C156 H176 0.930 . S
C157 C155 1.381 . S
C157 C156 1.387 . S
C157 H177 0.931 . S
C158 C155 1.487 . S
C158 C165 1.399 . S
C158 N183 1.343 . S
C159 C160 1.384 . S
C159 C161 1.384 . S
C159 H178 0.931 . S
C160 C159 1.384 . S
C160 C163 1.382 . S
C161 C159 1.384 . S
C161 C162 1.381 . S
C161 H179 0.930 . S
C162 C161 1.381 . S
C162 C164 1.381 . S
C162 C165 1.487 . S
C163 C160 1.382 . S
C163 C164 1.387 . S
C163 H180 0.930 . S
C164 C162 1.381 . S
C164 C163 1.387 . S
C164 H181 0.931 . S
C165 C158 1.399 . S
C165 C162 1.487 . S
C165 N182 1.343 . S
H166 C138 0.931 . S
H167 C140 0.930 . S
H168 C142 0.930 . S
H169 C143 0.931 . S
H170 C145 0.931 . S
H171 C147 0.930 . S
H172 C149 0.930 . S
H173 C150 0.931 . S
H174 C152 0.931 . S
H175 C154 0.930 . S
H176 C156 0.930 . S
H177 C157 0.931 . S
H178 C159 0.931 . S
H179 C161 0.930 . S
H180 C163 0.930 . S
H181 C164 0.931 . S
N182 C144 1.343 . S
N182 C165 1.343 . S
N183 C151 1.343 . S
N183 C158 1.343 . S
C184 C185 1.384 . S
C184 C186 1.384 . S
C184 H212 0.931 . S
C185 C184 1.384 . S
C185 C188 1.382 . S
C186 C184 1.384 . S
C186 C187 1.381 . S
C186 H213 0.930 . S
C187 C186 1.381 . S
C187 C189 1.381 . S
C187 C190 1.487 . S
C188 C185 1.382 . S
C188 C189 1.387 . S
C188 H214 0.930 . S
C189 C187 1.381 . S
C189 C188 1.387 . S
C189 H215 0.931 . S
C190 C187 1.487 . S
C190 C197 1.399 . S
C190 N228 1.343 . S
C191 C192 1.384 . S
C191 C193 1.384 . S
C191 H216 0.931 . S
C192 C191 1.384 . S
C192 C195 1.382 . S
C193 C191 1.384 . S
C193 C194 1.381 . S
C193 H217 0.930 . S
C194 C193 1.381 . S
C194 C196 1.381 . S
C194 C197 1.487 . S
C195 C192 1.382 . S
C195 C196 1.387 . S
C195 H218 0.930 . S
C196 C194 1.381 . S
C196 C195 1.387 . S
C196 H219 0.931 . S
C197 C190 1.399 . S
C197 C194 1.487 . S
C197 N229 1.343 . S
C198 C199 1.384 . S
C198 C200 1.384 . S
C198 H220 0.931 . S
C199 C198 1.384 . S
C199 C202 1.382 . S
C200 C198 1.384 . S
C200 C201 1.381 . S
C200 H221 0.930 . S
C201 C200 1.381 . S
C201 C203 1.381 . S
C201 C204 1.487 . S
C202 C199 1.382 . S
C202 C203 1.387 . S
C202 H222 0.930 . S
C203 C201 1.381 . S
C203 C202 1.387 . S
C203 H223 0.931 . S
C204 C201 1.487 . S
C204 C211 1.399 . S
C204 N229 1.343 . S
C205 C206 1.384 . S
C205 C207 1.384 . S
C205 H224 0.931 . S
C206 C205 1.384 . S
C206 C209 1.382 . S
C207 C205 1.384 . S
C207 C208 1.381 . S
C207 H225 0.930 . S
C208 C207 1.381 . S
C208 C210 1.381 . S
C208 C211 1.487 . S
C209 C206 1.382 . S
C209 C210 1.387 . S
C209 H226 0.930 . S
C210 C208 1.381 . S
C210 C209 1.387 . S
C210 H227 0.931 . S
C211 C204 1.399 . S
C211 C208 1.487 . S
C211 N228 1.343 . S
H212 C184 0.931 . S
H213 C186 0.930 . S
H214 C188 0.930 . S
H215 C189 0.931 . S
H216 C191 0.931 . S
H217 C193 0.930 . S
H218 C195 0.930 . S
H219 C196 0.931 . S
H220 C198 0.931 . S
H221 C200 0.930 . S
H222 C202 0.930 . S
H223 C203 0.931 . S
H224 C205 0.931 . S
H225 C207 0.930 . S
H226 C209 0.930 . S
H227 C210 0.931 . S
N228 C190 1.343 . S
N228 C211 1.343 . S
N229 C197 1.343 . S
N229 C204 1.343 . S
C230 C231 1.384 . S
C230 C232 1.384 . S
C230 H258 0.931 . S
C231 C230 1.384 . S
C231 C234 1.382 . S
C232 C230 1.384 . S
C232 C233 1.381 . S
C232 H259 0.930 . S
C233 C232 1.381 . S
C233 C235 1.381 . S
C233 C236 1.487 . S
C234 C231 1.382 . S
C234 C235 1.387 . S
C234 H260 0.930 . S
C235 C233 1.381 . S
C235 C234 1.387 . S
C235 H261 0.931 . S
C236 C233 1.487 . S
C236 C243 1.399 . S
C236 N274 1.343 . S
C237 C238 1.384 . S
C237 C239 1.384 . S
C237 H262 0.931 . S
C238 C237 1.384 . S
C238 C241 1.382 . S
C239 C237 1.384 . S
C239 C240 1.381 . S
C239 H263 0.930 . S
C240 C239 1.381 . S
C240 C242 1.381 . S
C240 C243 1.487 . S
C241 C238 1.382 . S
C241 C242 1.387 . S
C241 H264 0.930 . S
C242 C240 1.381 . S
C242 C241 1.387 . S
C242 H265 0.931 . S
C243 C236 1.399 . S
C243 C240 1.487 . S
C243 N275 1.343 . S
C244 C245 1.384 . S
C244 C246 1.384 . S
C244 H266 0.931 . S
C245 C244 1.384 . S
C245 C248 1.382 . S
C246 C244 1.384 . S
C246 C247 1.381 . S
C246 H267 0.930 . S
C247 C246 1.381 . S
C247 C249 1.381 . S
C247 C250 1.487 . S
C248 C245 1.382 . S
C248 C249 1.387 . S
C248 H268 0.930 . S
C249 C247 1.381 . S
C249 C248 1.387 . S
C249 H269 0.931 . S
C250 C247 1.487 . S
C250 C257 1.399 . S
C250 N275 1.343 . S
C251 C252 1.384 . S
C251 C253 1.384 . S
C251 H270 0.931 . S
C252 C251 1.384 . S
C252 C255 1.382 . S
C253 C251 1.384 . S
C253 C254 1.381 . S
C253 H271 0.930 . S
C254 C253 1.381 . S
C254 C256 1.381 . S
C254 C257 1.487 . S
C255 C252 1.382 . S
C255 C256 1.387 . S
C255 H272 0.930 . S
C256 C254 1.381 . S
C256 C255 1.387 . S
C256 H273 0.931 . S
C257 C250 1.399 . S
C257 C254 1.487 . S
C257 N274 1.343 . S
H258 C230 0.931 . S
H259 C232 0.930 . S
H260 C234 0.930 . S
H261 C235 0.931 . S
H262 C237 0.931 . S
H263 C239 0.930 . S
H264 C241 0.930 . S
H265 C242 0.931 . S
H266 C244 0.931 . S
H267 C246 0.930 . S
H268 C248 0.930 . S
H269 C249 0.931 . S
H270 C251 0.931 . S
H271 C253 0.930 . S
H272 C255 0.930 . S
H273 C256 0.931 . S
N274 C236 1.343 . S
N274 C257 1.343 . S
N275 C243 1.343 . S
N275 C250 1.343 . S
C276 C277 1.384 . S
C276 C278 1.384 . S
C276 H304 0.931 . S
C277 C276 1.384 . S
C277 C280 1.382 . S
C278 C276 1.384 . S
C278 C279 1.381 . S
C278 H305 0.930 . S
C279 C278 1.381 . S
C279 C281 1.381 . S
C279 C282 1.487 . S
C280 C277 1.382 . S
C280 C281 1.387 . S
C280 H306 0.930 . S
C281 C279 1.381 . S
C281 C280 1.387 . S
C281 H307 0.931 . S
C282 C279 1.487 . S
C282 C289 1.399 . S
C282 N320 1.343 . S
C283 C284 1.384 . S
C283 C285 1.384 . S
C283 H308 0.931 . S
C284 C283 1.384 . S
C284 C287 1.382 . S
C285 C283 1.384 . S
C285 C286 1.381 . S
C285 H309 0.930 . S
C286 C285 1.381 . S
C286 C288 1.381 . S
C286 C289 1.487 . S
C287 C284 1.382 . S
C287 C288 1.387 . S
C287 H310 0.930 . S
C288 C286 1.381 . S
C288 C287 1.387 . S
C288 H311 0.931 . S
C289 C282 1.399 . S
C289 C286 1.487 . S
C289 N321 1.343 . S
C290 C291 1.384 . S
C290 C292 1.384 . S
C290 H312 0.931 . S
C291 C290 1.384 . S
C291 C294 1.382 . S
C292 C290 1.384 . S
C292 C293 1.381 . S
C292 H313 0.930 . S
C293 C292 1.381 . S
C293 C295 1.381 . S
C293 C296 1.487 . S
C294 C291 1.382 . S
C294 C295 1.387 . S
C294 H314 0.930 . S
C295 C293 1.381 . S
C295 C294 1.387 . S
C295 H315 0.931 . S
C296 C293 1.487 . S
C296 C303 1.399 . S
C296 N321 1.343 . S
C297 C298 1.384 . S
C297 C299 1.384 . S
C297 H316 0.931 . S
C298 C297 1.384 . S
C298 C301 1.382 . S
C299 C297 1.384 . S
C299 C300 1.381 . S
C299 H317 0.930 . S
C300 C299 1.381 . S
C300 C302 1.381 . S
C300 C303 1.487 . S
C301 C298 1.382 . S
C301 C302 1.387 . S
C301 H318 0.930 . S
C302 C300 1.381 . S
C302 C301 1.387 . S
C302 H319 0.931 . S
C303 C296 1.399 . S
C303 C300 1.487 . S
C303 N320 1.343 . S
H304 C276 0.931 . S
H305 C278 0.930 . S
H306 C280 0.930 . S
H307 C281 0.931 . S
H308 C283 0.931 . S
H309 C285 0.930 . S
H310 C287 0.930 . S
H311 C288 0.931 . S
H312 C290 0.931 . S
H313 C292 0.930 . S
H314 C294 0.930 . S
H315 C295 0.931 . S
H316 C297 0.931 . S
H317 C299 0.930 . S
H318 C301 0.930 . S
H319 C302 0.931 . S
N320 C282 1.343 . S
N320 C303 1.343 . S
N321 C289 1.343 . S
N321 C296 1.343 . S
C322 C323 1.384 . S
C322 C324 1.384 . S
C322 H350 0.931 . S
C323 C322 1.384 . S
C323 C326 1.382 . S
C324 C322 1.384 . S
C324 C325 1.381 . S
C324 H351 0.930 . S
C325 C324 1.381 . S
C325 C327 1.381 . S
C325 C328 1.487 . S
C326 C323 1.382 . S
C326 C327 1.387 . S
C326 H352 0.930 . S
C327 C325 1.381 . S
C327 C326 1.387 . S
C327 H353 0.931 . S
C328 C325 1.487 . S
C328 C335 1.399 . S
C328 N366 1.343 . S
C329 C330 1.384 . S
C329 C331 1.384 . S
C329 H354 0.931 . S
C330 C329 1.384 . S
C330 C333 1.382 . S
C331 C329 1.384 . S
C331 C332 1.381 . S
C331 H355 0.930 . S
C332 C331 1.381 . S
C332 C334 1.381 . S
C332 C335 1.487 . S
C333 C330 1.382 . S
C333 C334 1.387 . S
C333 H356 0.930 . S
C334 C332 1.381 . S
C334 C333 1.387 . S
C334 H357 0.931 . S
C335 C328 1.399 . S
C335 C332 1.487 . S
C335 N367 1.343 . S
C336 C337 1.384 . S
C336 C338 1.384 . S
C336 H358 0.931 . S
C337 C336 1.384 . S
C337 C340 1.382 . S
C338 C336 1.384 . S
C338 C339 1.381 . S
C338 H359 0.930 . S
C339 C338 1.381 . S
C339 C341 1.381 . S
C339 C342 1.487 . S
C340 C337 1.382 . S
C340 C341 1.387 . S
C340 H360 0.930 . S
C341 C339 1.381 . S
C341 C340 1.387 . S
C341 H361 0.931 . S
C342 C339 1.487 . S
C342 C349 1.399 . S
C342 N367 1.343 . S
C343 C344 1.384 . S
C343 C345 1.384 . S
C343 H362 0.931 . S
C344 C343 1.384 . S
C344 C347 1.382 . S
C345 C343 1.384 . S
C345 C346 1.381 . S
C345 H363 0.930 . S
C346 C345 1.381 . S
C346 C348 1.381 . S
C346 C349 1.487 . S
C347 C344 1.382 . S
C347 C348 1.387 . S
C347 H364 0.930 . S
C348 C346 1.381 . S
C348 C347 1.387 . S
C348 H365 0.931 . S
C349 C342 1.399 . S
C349 C346 1.487 . S
C349 N366 1.343 . S
H350 C322 0.931 . S
H351 C324 0.930 . S
H352 C326 0.930 . S
H353 C327 0.931 . S
H354 C329 0.931 . S
H355 C331 0.930 . S
H356 C333 0.930 . S
H357 C334 0.931 . S
H358 C336 0.931 . S
H359 C338 0.930 . S
H360 C340 0.930 . S
H361 C341 0.931 . S
H362 C343 0.931 . S
H363 C345 0.930 . S
H364 C347 0.930 . S
H365 C348 0.931 . S
N366 C328 1.343 . S
N366 C349 1.343 . S
N367 C335 1.343 . S
N367 C342 1.343 . S
C368 C369 1.384 . S
C368 C370 1.384 . S
C368 H396 0.931 . S
C369 C368 1.384 . S
C369 C372 1.382 . S
C370 C368 1.384 . S
C370 C371 1.381 . S
C370 H397 0.930 . S
C371 C370 1.381 . S
C371 C373 1.381 . S
C371 C374 1.487 . S
C372 C369 1.382 . S
C372 C373 1.387 . S
C372 H398 0.930 . S
C373 C371 1.381 . S
C373 C372 1.387 . S
C373 H399 0.931 . S
C374 C371 1.487 . S
C374 C381 1.399 . S
C374 N412 1.343 . S
C375 C376 1.384 . S
C375 C377 1.384 . S
C375 H400 0.931 . S
C376 C375 1.384 . S
C376 C379 1.382 . S
C377 C375 1.384 . S
C377 C378 1.381 . S
C377 H401 0.930 . S
C378 C377 1.381 . S
C378 C380 1.381 . S
C378 C381 1.487 . S
C379 C376 1.382 . S
C379 C380 1.387 . S
C379 H402 0.930 . S
C380 C378 1.381 . S
C380 C379 1.387 . S
C380 H403 0.931 . S
C381 C374 1.399 . S
C381 C378 1.487 . S
C381 N413 1.343 . S
C382 C383 1.384 . S
C382 C384 1.384 . S
C382 H404 0.931 . S
C383 C382 1.384 . S
C383 C386 1.382 . S
C384 C382 1.384 . S
C384 C385 1.381 . S
C384 H405 0.930 . S
C385 C384 1.381 . S
C385 C387 1.381 . S
C385 C388 1.487 . S
C386 C383 1.382 . S
C386 C387 1.387 . S
C386 H406 0.930 . S
C387 C385 1.381 . S
C387 C386 1.387 . S
C387 H407 0.931 . S
C388 C385 1.487 . S
C388 C395 1.399 . S
C388 N413 1.343 . S
C389 C390 1.384 . S
C389 C391 1.384 . S
C389 H408 0.931 . S
C390 C389 1.384 . S
C390 C393 1.382 . S
C391 C389 1.384 . S
C391 C392 1.381 . S
C391 H409 0.930 . S
C392 C391 1.381 . S
C392 C394 1.381 . S
C392 C395 1.487 . S
C393 C390 1.382 . S
C393 C394 1.387 . S
C393 H410 0.930 . S
C394 C392 1.381 . S
C394 C393 1.387 . S
C394 H411 0.931 . S
C395 C388 1.399 . S
C395 C392 1.487 . S
C395 N412 1.343 . S
H396 C368 0.931 . S
H397 C370 0.930 . S
H398 C372 0.930 . S
H399 C373 0.931 . S
H400 C375 0.931 . S
H401 C377 0.930 . S
H402 C379 0.930 . S
H403 C380 0.931 . S
H404 C382 0.931 . S
H405 C384 0.930 . S
H406 C386 0.930 . S
H407 C387 0.931 . S
H408 C389 0.931 . S
H409 C391 0.930 . S
H410 C393 0.930 . S
H411 C394 0.931 . S
N412 C374 1.343 . S
N412 C395 1.343 . S
N413 C381 1.343 . S
N413 C388 1.343 . S
C414 C415 1.391 . S
C414 C416 1.394 . S
C414 H430 0.931 . S
C415 C414 1.391 . S
C415 C419 1.376 . S
C416 C414 1.394 . S
C416 C417 1.369 . S
C416 C420 1.531 . S
C417 C416 1.369 . S
C417 C418 1.410 . S
C417 C425 1.503 . S
C418 C417 1.410 . S
C418 C419 1.392 . S
C418 C421 1.511 . S
C419 C415 1.376 . S
C419 C418 1.392 . S
C419 H431 0.929 . S
C420 C416 1.531 . S
C420 H432 0.960 . S
C420 H433 0.962 . S
C420 H434 0.960 . S
C421 C418 1.511 . S
C421 H435 0.961 . S
C421 H436 0.961 . S
C421 H437 0.961 . S
C422 C423 1.370 . S
C422 C424 1.363 . S
C422 H438 0.931 . S
C423 C422 1.370 . S
C423 C427 1.408 . S
C424 C422 1.363 . S
C424 C425 1.370 . S
C424 C428 1.524 . S
C425 C417 1.503 . S
C425 C424 1.370 . S
C425 C426 1.403 . S
C426 C425 1.403 . S
C426 C427 1.404 . S
C426 C429 1.539 . S
C427 C423 1.408 . S
C427 C426 1.404 . S
C427 H439 0.930 . S
C428 C424 1.524 . S
C428 H440 0.956 . S
C428 H441 0.961 . S
C428 H442 0.961 . S
C429 C426 1.539 . S
C429 H443 0.958 . S
C429 H444 0.961 . S
C429 H445 0.960 . S
H430 C414 0.931 . S
H431 C419 0.929 . S
H432 C420 0.960 . S
H433 C420 0.962 . S
H434 C420 0.960 . S
H435 C421 0.961 . S
H436 C421 0.961 . S
H437 C421 0.961 . S
H438 C422 0.931 . S
H439 C427 0.930 . S
H440 C428 0.956 . S
H441 C428 0.961 . S
H442 C428 0.961 . S
H443 C429 0.958 . S
H444 C429 0.961 . S
H445 C429 0.960 . S
C446 C447 1.391 . S
C446 C448 1.394 . S
C446 H462 0.931 . S
C447 C446 1.391 . S
C447 C451 1.376 . S
C448 C446 1.394 . S
C448 C449 1.369 . S
C448 C452 1.531 . S
C449 C448 1.369 . S
C449 C450 1.410 . S
C449 C457 1.503 . S
C450 C449 1.410 . S
C450 C451 1.392 . S
C450 C453 1.511 . S
C451 C447 1.376 . S
C451 C450 1.392 . S
C451 H463 0.929 . S
C452 C448 1.531 . S
C452 H464 0.960 . S
C452 H465 0.962 . S
C452 H466 0.960 . S
C453 C450 1.511 . S
C453 H467 0.961 . S
C453 H468 0.961 . S
C453 H469 0.961 . S
C454 C455 1.370 . S
C454 C456 1.363 . S
C454 H470 0.931 . S
C455 C454 1.370 . S
C455 C459 1.408 . S
C456 C454 1.363 . S
C456 C457 1.370 . S
C456 C460 1.524 . S
C457 C449 1.503 . S
C457 C456 1.370 . S
C457 C458 1.403 . S
C458 C457 1.403 . S
C458 C459 1.404 . S
C458 C461 1.539 . S
C459 C455 1.408 . S
C459 C458 1.404 . S
C459 H471 0.930 . S
C460 C456 1.524 . S
C460 H472 0.956 . S
C460 H473 0.961 . S
C460 H474 0.961 . S
C461 C458 1.539 . S
C461 H475 0.958 . S
C461 H476 0.961 . S
C461 H477 0.960 . S
H462 C446 0.931 . S
H463 C451 0.929 . S
H464 C452 0.960 . S
H465 C452 0.962 . S
H466 C452 0.960 . S
H467 C453 0.961 . S
H468 C453 0.961 . S
H469 C453 0.961 . S
H470 C454 0.931 . S
H471 C459 0.930 . S
H472 C460 0.956 . S
H473 C460 0.961 . S
H474 C460 0.961 . S
H475 C461 0.958 . S
H476 C461 0.961 . S
H477 C461 0.960 . S
C478 C479 1.391 . S
C478 C480 1.394 . S
C478 H494 0.931 . S
C479 C478 1.391 . S
C479 C483 1.376 . S
C480 C478 1.394 . S
C480 C481 1.369 . S
C480 C484 1.531 . S
C481 C480 1.369 . S
C481 C482 1.410 . S
C481 C489 1.503 . S
C482 C481 1.410 . S
C482 C483 1.392 . S
C482 C485 1.511 . S
C483 C479 1.376 . S
C483 C482 1.392 . S
C483 H495 0.929 . S
C484 C480 1.531 . S
C484 H496 0.960 . S
C484 H497 0.962 . S
C484 H498 0.960 . S
C485 C482 1.511 . S
C485 H499 0.961 . S
C485 H500 0.961 . S
C485 H501 0.961 . S
C486 C487 1.370 . S
C486 C488 1.363 . S
C486 H502 0.931 . S
C487 C486 1.370 . S
C487 C491 1.408 . S
C488 C486 1.363 . S
C488 C489 1.370 . S
C488 C492 1.524 . S
C489 C481 1.503 . S
C489 C488 1.370 . S
C489 C490 1.403 . S
C490 C489 1.403 . S
C490 C491 1.404 . S
C490 C493 1.539 . S
C491 C487 1.408 . S
C491 C490 1.404 . S
C491 H503 0.930 . S
C492 C488 1.524 . S
C492 H504 0.956 . S
C492 H505 0.961 . S
C492 H506 0.961 . S
C493 C490 1.539 . S
C493 H507 0.958 . S
C493 H508 0.961 . S
C493 H509 0.960 . S
H494 C478 0.931 . S
H495 C483 0.929 . S
H496 C484 0.960 . S
H497 C484 0.962 . S
H498 C484 0.960 . S
H499 C485 0.961 . S
H500 C485 0.961 . S
H501 C485 0.961 . S
H502 C486 0.931 . S
H503 C491 0.930 . S
H504 C492 0.956 . S
H505 C492 0.961 . S
H506 C492 0.961 . S
H507 C493 0.958 . S
H508 C493 0.961 . S
H509 C493 0.960 . S
C510 C511 1.391 . S
C510 C512 1.394 . S
C510 H526 0.931 . S
C511 C510 1.391 . S
C511 C515 1.376 . S
C512 C510 1.394 . S
C512 C513 1.369 . S
C512 C516 1.531 . S
C513 C512 1.369 . S
C513 C514 1.410 . S
C513 C521 1.503 . S
C514 C513 1.410 . S
C514 C515 1.392 . S
C514 C517 1.511 . S
C515 C511 1.376 . S
C515 C514 1.392 . S
C515 H527 0.929 . S
C516 C512 1.531 . S
C516 H528 0.960 . S
C516 H529 0.962 . S
C516 H530 0.960 . S
C517 C514 1.511 . S
C517 H531 0.961 . S
C517 H532 0.961 . S
C517 H533 0.961 . S
C518 C519 1.370 . S
C518 C520 1.363 . S
C518 H534 0.931 . S
C519 C518 1.370 . S
C519 C523 1.408 . S
C520 C518 1.363 . S
C520 C521 1.370 . S
C520 C524 1.524 . S
C521 C513 1.503 . S
C521 C520 1.370 . S
C521 C522 1.403 . S
C522 C521 1.403 . S
C522 C523 1.404 . S
C522 C525 1.539 . S
C523 C519 1.408 . S
C523 C522 1.404 . S
C523 H535 0.930 . S
C524 C520 1.524 . S
C524 H536 0.956 . S
C524 H537 0.961 . S
C524 H538 0.961 . S
C525 C522 1.539 . S
C525 H539 0.958 . S
C525 H540 0.961 . S
C525 H541 0.960 . S
H526 C510 0.931 . S
H527 C515 0.929 . S
H528 C516 0.960 . S
H529 C516 0.962 . S
H530 C516 0.960 . S
H531 C517 0.961 . S
H532 C517 0.961 . S
H533 C517 0.961 . S
H534 C518 0.931 . S
H535 C523 0.930 . S
H536 C524 0.956 . S
H537 C524 0.961 . S
H538 C524 0.961 . S
H539 C525 0.958 . S
H540 C525 0.961 . S
H541 C525 0.960 . S
C542 C543 1.391 . S
C542 C544 1.394 . S
C542 H558 0.931 . S
C543 C542 1.391 . S
C543 C547 1.376 . S
C544 C542 1.394 . S
C544 C545 1.369 . S
C544 C548 1.531 . S
C545 C544 1.369 . S
C545 C546 1.410 . S
C545 C553 1.503 . S
C546 C545 1.410 . S
C546 C547 1.392 . S
C546 C549 1.511 . S
C547 C543 1.376 . S
C547 C546 1.392 . S
C547 H559 0.929 . S
C548 C544 1.531 . S
C548 H560 0.960 . S
C548 H561 0.962 . S
C548 H562 0.960 . S
C549 C546 1.511 . S
C549 H563 0.961 . S
C549 H564 0.961 . S
C549 H565 0.961 . S
C550 C551 1.370 . S
C550 C552 1.363 . S
C550 H566 0.931 . S
C551 C550 1.370 . S
C551 C555 1.408 . S
C552 C550 1.363 . S
C552 C553 1.370 . S
C552 C556 1.524 . S
C553 C545 1.503 . S
C553 C552 1.370 . S
C553 C554 1.403 . S
C554 C553 1.403 . S
C554 C555 1.404 . S
C554 C557 1.539 . S
C555 C551 1.408 . S
C555 C554 1.404 . S
C555 H567 0.930 . S
C556 C552 1.524 . S
C556 H568 0.956 . S
C556 H569 0.961 . S
C556 H570 0.961 . S
C557 C554 1.539 . S
C557 H571 0.958 . S
C557 H572 0.961 . S
C557 H573 0.960 . S
H558 C542 0.931 . S
H559 C547 0.929 . S
H560 C548 0.960 . S
H561 C548 0.962 . S
H562 C548 0.960 . S
H563 C549 0.961 . S
H564 C549 0.961 . S
H565 C549 0.961 . S
H566 C550 0.931 . S
H567 C555 0.930 . S
H568 C556 0.956 . S
H569 C556 0.961 . S
H570 C556 0.961 . S
H571 C557 0.958 . S
H572 C557 0.961 . S
H573 C557 0.960 . S
C574 C575 1.391 . S
C574 C576 1.394 . S
C574 H590 0.931 . S
C575 C574 1.391 . S
C575 C579 1.376 . S
C576 C574 1.394 . S
C576 C577 1.369 . S
C576 C580 1.531 . S
C577 C576 1.369 . S
C577 C578 1.410 . S
C577 C585 1.503 . S
C578 C577 1.410 . S
C578 C579 1.392 . S
C578 C581 1.511 . S
C579 C575 1.376 . S
C579 C578 1.392 . S
C579 H591 0.929 . S
C580 C576 1.531 . S
C580 H592 0.960 . S
C580 H593 0.962 . S
C580 H594 0.960 . S
C581 C578 1.511 . S
C581 H595 0.961 . S
C581 H596 0.961 . S
C581 H597 0.961 . S
C582 C583 1.370 . S
C582 C584 1.363 . S
C582 H598 0.931 . S
C583 C582 1.370 . S
C583 C587 1.408 . S
C584 C582 1.363 . S
C584 C585 1.370 . S
C584 C588 1.524 . S
C585 C577 1.503 . S
C585 C584 1.370 . S
C585 C586 1.403 . S
C586 C585 1.403 . S
C586 C587 1.404 . S
C586 C589 1.539 . S
C587 C583 1.408 . S
C587 C586 1.404 . S
C587 H599 0.930 . S
C588 C584 1.524 . S
C588 H600 0.956 . S
C588 H601 0.961 . S
C588 H602 0.961 . S
C589 C586 1.539 . S
C589 H603 0.958 . S
C589 H604 0.961 . S
C589 H605 0.960 . S
H590 C574 0.931 . S
H591 C579 0.929 . S
H592 C580 0.960 . S
H593 C580 0.962 . S
H594 C580 0.960 . S
H595 C581 0.961 . S
H596 C581 0.961 . S
H597 C581 0.961 . S
H598 C582 0.931 . S
H599 C587 0.930 . S
H600 C588 0.956 . S
H601 C588 0.961 . S
H602 C588 0.961 . S
H603 C589 0.958 . S
H604 C589 0.961 . S
H605 C589 0.960 . S
C606 C607 1.391 . S
C606 C608 1.394 . S
C606 H622 0.931 . S
C607 C606 1.391 . S
C607 C611 1.376 . S
C608 C606 1.394 . S
C608 C609 1.369 . S
C608 C612 1.531 . S
C609 C608 1.369 . S
C609 C610 1.410 . S
C609 C617 1.503 . S
C610 C609 1.410 . S
C610 C611 1.392 . S
C610 C613 1.511 . S
C611 C607 1.376 . S
C611 C610 1.392 . S
C611 H623 0.929 . S
C612 C608 1.531 . S
C612 H624 0.960 . S
C612 H625 0.962 . S
C612 H626 0.960 . S
C613 C610 1.511 . S
C613 H627 0.961 . S
C613 H628 0.961 . S
C613 H629 0.961 . S
C614 C615 1.370 . S
C614 C616 1.363 . S
C614 H630 0.931 . S
C615 C614 1.370 . S
C615 C619 1.408 . S
C616 C614 1.363 . S
C616 C617 1.370 . S
C616 C620 1.524 . S
C617 C609 1.503 . S
C617 C616 1.370 . S
C617 C618 1.403 . S
C618 C617 1.403 . S
C618 C619 1.404 . S
C618 C621 1.539 . S
C619 C615 1.408 . S
C619 C618 1.404 . S
C619 H631 0.930 . S
C620 C616 1.524 . S
C620 H632 0.956 . S
C620 H633 0.961 . S
C620 H634 0.961 . S
C621 C618 1.539 . S
C621 H635 0.958 . S
C621 H636 0.961 . S
C621 H637 0.960 . S
H622 C606 0.931 . S
H623 C611 0.929 . S
H624 C612 0.960 . S
H625 C612 0.962 . S
H626 C612 0.960 . S
H627 C613 0.961 . S
H628 C613 0.961 . S
H629 C613 0.961 . S
H630 C614 0.931 . S
H631 C619 0.930 . S
H632 C620 0.956 . S
H633 C620 0.961 . S
H634 C620 0.961 . S
H635 C621 0.958 . S
H636 C621 0.961 . S
H637 C621 0.960 . S
C638 C639 1.391 . S
C638 C640 1.394 . S
C638 H654 0.931 . S
C639 C638 1.391 . S
C639 C643 1.376 . S
C640 C638 1.394 . S
C640 C641 1.369 . S
C640 C644 1.531 . S
C641 C640 1.369 . S
C641 C642 1.410 . S
C641 C649 1.503 . S
C642 C641 1.410 . S
C642 C643 1.392 . S
C642 C645 1.511 . S
C643 C639 1.376 . S
C643 C642 1.392 . S
C643 H655 0.929 . S
C644 C640 1.531 . S
C644 H656 0.960 . S
C644 H657 0.962 . S
C644 H658 0.960 . S
C645 C642 1.511 . S
C645 H659 0.961 . S
C645 H660 0.961 . S
C645 H661 0.961 . S
C646 C647 1.370 . S
C646 C648 1.363 . S
C646 H662 0.931 . S
C647 C646 1.370 . S
C647 C651 1.408 . S
C648 C646 1.363 . S
C648 C649 1.370 . S
C648 C652 1.524 . S
C649 C641 1.503 . S
C649 C648 1.370 . S
C649 C650 1.403 . S
C650 C649 1.403 . S
C650 C651 1.404 . S
C650 C653 1.539 . S
C651 C647 1.408 . S
C651 C650 1.404 . S
C651 H663 0.930 . S
C652 C648 1.524 . S
C652 H664 0.956 . S
C652 H665 0.961 . S
C652 H666 0.961 . S
C653 C650 1.539 . S
C653 H667 0.958 . S
C653 H668 0.961 . S
C653 H669 0.960 . S
H654 C638 0.931 . S
H655 C643 0.929 . S
H656 C644 0.960 . S
H657 C644 0.962 . S
H658 C644 0.960 . S
H659 C645 0.961 . S
H660 C645 0.961 . S
H661 C645 0.961 . S
H662 C646 0.931 . S
H663 C651 0.930 . S
H664 C652 0.956 . S
H665 C652 0.961 . S
H666 C652 0.961 . S
H667 C653 0.958 . S
H668 C653 0.961 . S
H669 C653 0.960 . S
C670 C671 1.391 . S
C670 C672 1.394 . S
C670 H686 0.931 . S
C671 C670 1.391 . S
C671 C675 1.376 . S
C672 C670 1.394 . S
C672 C673 1.369 . S
C672 C676 1.531 . S
C673 C672 1.369 . S
C673 C674 1.410 . S
C673 C681 1.503 . S
C674 C673 1.410 . S
C674 C675 1.392 . S
C674 C677 1.511 . S
C675 C671 1.376 . S
C675 C674 1.392 . S
C675 H687 0.929 . S
C676 C672 1.531 . S
C676 H688 0.960 . S
C676 H689 0.962 . S
C676 H690 0.960 . S
C677 C674 1.511 . S
C677 H691 0.961 . S
C677 H692 0.961 . S
C677 H693 0.961 . S
C678 C679 1.370 . S
C678 C680 1.363 . S
C678 H694 0.931 . S
C679 C678 1.370 . S
C679 C683 1.408 . S
C680 C678 1.363 . S
C680 C681 1.370 . S
C680 C684 1.524 . S
C681 C673 1.503 . S
C681 C680 1.370 . S
C681 C682 1.403 . S
C682 C681 1.403 . S
C682 C683 1.404 . S
C682 C685 1.539 . S
C683 C679 1.408 . S
C683 C682 1.404 . S
C683 H695 0.930 . S
C684 C680 1.524 . S
C684 H696 0.956 . S
C684 H697 0.961 . S
C684 H698 0.961 . S
C685 C682 1.539 . S
C685 H699 0.958 . S
C685 H700 0.961 . S
C685 H701 0.960 . S
H686 C670 0.931 . S
H687 C675 0.929 . S
H688 C676 0.960 . S
H689 C676 0.962 . S
H690 C676 0.960 . S
H691 C677 0.961 . S
H692 C677 0.961 . S
H693 C677 0.961 . S
H694 C678 0.931 . S
H695 C683 0.930 . S
H696 C684 0.956 . S
H697 C684 0.961 . S
H698 C684 0.961 . S
H699 C685 0.958 . S
H700 C685 0.961 . S
H701 C685 0.960 . S
C702 C703 1.391 . S
C702 C704 1.394 . S
C702 H718 0.931 . S
C703 C702 1.391 . S
C703 C707 1.376 . S
C704 C702 1.394 . S
C704 C705 1.369 . S
C704 C708 1.531 . S
C705 C704 1.369 . S
C705 C706 1.410 . S
C705 C713 1.503 . S
C706 C705 1.410 . S
C706 C707 1.392 . S
C706 C709 1.511 . S
C707 C703 1.376 . S
C707 C706 1.392 . S
C707 H719 0.929 . S
C708 C704 1.531 . S
C708 H720 0.960 . S
C708 H721 0.962 . S
C708 H722 0.960 . S
C709 C706 1.511 . S
C709 H723 0.961 . S
C709 H724 0.961 . S
C709 H725 0.961 . S
C710 C711 1.370 . S
C710 C712 1.363 . S
C710 H726 0.931 . S
C711 C710 1.370 . S
C711 C715 1.408 . S
C712 C710 1.363 . S
C712 C713 1.370 . S
C712 C716 1.524 . S
C713 C705 1.503 . S
C713 C712 1.370 . S
C713 C714 1.403 . S
C714 C713 1.403 . S
C714 C715 1.404 . S
C714 C717 1.539 . S
C715 C711 1.408 . S
C715 C714 1.404 . S
C715 H727 0.930 . S
C716 C712 1.524 . S
C716 H728 0.956 . S
C716 H729 0.961 . S
C716 H730 0.961 . S
C717 C714 1.539 . S
C717 H731 0.958 . S
C717 H732 0.961 . S
C717 H733 0.960 . S
H718 C702 0.931 . S
H719 C707 0.929 . S
H720 C708 0.960 . S
H721 C708 0.962 . S
H722 C708 0.960 . S
H723 C709 0.961 . S
H724 C709 0.961 . S
H725 C709 0.961 . S
H726 C710 0.931 . S
H727 C715 0.930 . S
H728 C716 0.956 . S
H729 C716 0.961 . S
H730 C716 0.961 . S
H731 C717 0.958 . S
H732 C717 0.961 . S
H733 C717 0.960 . S
C734 C735 1.391 . S
C734 C736 1.394 . S
C734 H750 0.931 . S
C735 C734 1.391 . S
C735 C739 1.376 . S
C736 C734 1.394 . S
C736 C737 1.369 . S
C736 C740 1.531 . S
C737 C736 1.369 . S
C737 C738 1.410 . S
C737 C745 1.503 . S
C738 C737 1.410 . S
C738 C739 1.392 . S
C738 C741 1.511 . S
C739 C735 1.376 . S
C739 C738 1.392 . S
C739 H751 0.929 . S
C740 C736 1.531 . S
C740 H752 0.960 . S
C740 H753 0.962 . S
C740 H754 0.960 . S
C741 C738 1.511 . S
C741 H755 0.961 . S
C741 H756 0.961 . S
C741 H757 0.961 . S
C742 C743 1.370 . S
C742 C744 1.363 . S
C742 H758 0.931 . S
C743 C742 1.370 . S
C743 C747 1.408 . S
C744 C742 1.363 . S
C744 C745 1.370 . S
C744 C748 1.524 . S
C745 C737 1.503 . S
C745 C744 1.370 . S
C745 C746 1.403 . S
C746 C745 1.403 . S
C746 C747 1.404 . S
C746 C749 1.539 . S
C747 C743 1.408 . S
C747 C746 1.404 . S
C747 H759 0.930 . S
C748 C744 1.524 . S
C748 H760 0.956 . S
C748 H761 0.961 . S
C748 H762 0.961 . S
C749 C746 1.539 . S
C749 H763 0.958 . S
C749 H764 0.961 . S
C749 H765 0.960 . S
H750 C734 0.931 . S
H751 C739 0.929 . S
H752 C740 0.960 . S
H753 C740 0.962 . S
H754 C740 0.960 . S
H755 C741 0.961 . S
H756 C741 0.961 . S
H757 C741 0.961 . S
H758 C742 0.931 . S
H759 C747 0.930 . S
H760 C748 0.956 . S
H761 C748 0.961 . S
H762 C748 0.961 . S
H763 C749 0.958 . S
H764 C749 0.961 . S
H765 C749 0.960 . S
C766 C767 1.391 . S
C766 C768 1.394 . S
C766 H782 0.931 . S
C767 C766 1.391 . S
C767 C771 1.376 . S
C768 C766 1.394 . S
C768 C769 1.369 . S
C768 C772 1.531 . S
C769 C768 1.369 . S
C769 C770 1.410 . S
C769 C777 1.503 . S
C770 C769 1.410 . S
C770 C771 1.392 . S
C770 C773 1.511 . S
C771 C767 1.376 . S
C771 C770 1.392 . S
C771 H783 0.929 . S
C772 C768 1.531 . S
C772 H784 0.960 . S
C772 H785 0.962 . S
C772 H786 0.960 . S
C773 C770 1.511 . S
C773 H787 0.961 . S
C773 H788 0.961 . S
C773 H789 0.961 . S
C774 C775 1.370 . S
C774 C776 1.363 . S
C774 H790 0.931 . S
C775 C774 1.370 . S
C775 C779 1.408 . S
C776 C774 1.363 . S
C776 C777 1.370 . S
C776 C780 1.524 . S
C777 C769 1.503 . S
C777 C776 1.370 . S
C777 C778 1.403 . S
C778 C777 1.403 . S
C778 C779 1.404 . S
C778 C781 1.539 . S
C779 C775 1.408 . S
C779 C778 1.404 . S
C779 H791 0.930 . S
C780 C776 1.524 . S
C780 H792 0.956 . S
C780 H793 0.961 . S
C780 H794 0.961 . S
C781 C778 1.539 . S
C781 H795 0.958 . S
C781 H796 0.961 . S
C781 H797 0.960 . S
H782 C766 0.931 . S
H783 C771 0.929 . S
H784 C772 0.960 . S
H785 C772 0.962 . S
H786 C772 0.960 . S
H787 C773 0.961 . S
H788 C773 0.961 . S
H789 C773 0.961 . S
H790 C774 0.931 . S
H791 C779 0.930 . S
H792 C780 0.956 . S
H793 C780 0.961 . S
H794 C780 0.961 . S
H795 C781 0.958 . S
H796 C781 0.961 . S
H797 C781 0.960 . S
C798 C799 1.391 . S
C798 C800 1.394 . S
C798 H814 0.931 . S
C799 C798 1.391 . S
C799 C803 1.376 . S
C800 C798 1.394 . S
C800 C801 1.369 . S
C800 C804 1.531 . S
C801 C800 1.369 . S
C801 C802 1.410 . S
C801 C809 1.503 . S
C802 C801 1.410 . S
C802 C803 1.392 . S
C802 C805 1.511 . S
C803 C799 1.376 . S
C803 C802 1.392 . S
C803 H815 0.929 . S
C804 C800 1.531 . S
C804 H816 0.960 . S
C804 H817 0.962 . S
C804 H818 0.960 . S
C805 C802 1.511 . S
C805 H819 0.961 . S
C805 H820 0.961 . S
C805 H821 0.961 . S
C806 C807 1.370 . S
C806 C808 1.363 . S
C806 H822 0.931 . S
C807 C806 1.370 . S
C807 C811 1.408 . S
C808 C806 1.363 . S
C808 C809 1.370 . S
C808 C812 1.524 . S
C809 C801 1.503 . S
C809 C808 1.370 . S
C809 C810 1.403 . S
C810 C809 1.403 . S
C810 C811 1.404 . S
C810 C813 1.539 . S
C811 C807 1.408 . S
C811 C810 1.404 . S
C811 H823 0.930 . S
C812 C808 1.524 . S
C812 H824 0.956 . S
C812 H825 0.961 . S
C812 H826 0.961 . S
C813 C810 1.539 . S
C813 H827 0.958 . S
C813 H828 0.961 . S
C813 H829 0.960 . S
H814 C798 0.931 . S
H815 C803 0.929 . S
H816 C804 0.960 . S
H817 C804 0.962 . S
H818 C804 0.960 . S
H819 C805 0.961 . S
H820 C805 0.961 . S
H821 C805 0.961 . S
H822 C806 0.931 . S
H823 C811 0.930 . S
H824 C812 0.956 . S
H825 C812 0.961 . S
H826 C812 0.961 . S
H827 C813 0.958 . S
H828 C813 0.961 . S
H829 C813 0.960 . S
C830 C831 1.391 . S
C830 C832 1.394 . S
C830 H846 0.931 . S
C831 C830 1.391 . S
C831 C835 1.376 . S
C832 C830 1.394 . S
C832 C833 1.369 . S
C832 C836 1.531 . S
C833 C832 1.369 . S
C833 C834 1.410 . S
C833 C841 1.503 . S
C834 C833 1.410 . S
C834 C835 1.392 . S
C834 C837 1.511 . S
C835 C831 1.376 . S
C835 C834 1.392 . S
C835 H847 0.929 . S
C836 C832 1.531 . S
C836 H848 0.960 . S
C836 H849 0.962 . S
C836 H850 0.960 . S
C837 C834 1.511 . S
C837 H851 0.961 . S
C837 H852 0.961 . S
C837 H853 0.961 . S
C838 C839 1.370 . S
C838 C840 1.363 . S
C838 H854 0.931 . S
C839 C838 1.370 . S
C839 C843 1.408 . S
C840 C838 1.363 . S
C840 C841 1.370 . S
C840 C844 1.524 . S
C841 C833 1.503 . S
C841 C840 1.370 . S
C841 C842 1.403 . S
C842 C841 1.403 . S
C842 C843 1.404 . S
C842 C845 1.539 . S
C843 C839 1.408 . S
C843 C842 1.404 . S
C843 H855 0.930 . S
C844 C840 1.524 . S
C844 H856 0.956 . S
C844 H857 0.961 . S
C844 H858 0.961 . S
C845 C842 1.539 . S
C845 H859 0.958 . S
C845 H860 0.961 . S
C845 H861 0.960 . S
H846 C830 0.931 . S
H847 C835 0.929 . S
H848 C836 0.960 . S
H849 C836 0.962 . S
H850 C836 0.960 . S
H851 C837 0.961 . S
H852 C837 0.961 . S
H853 C837 0.961 . S
H854 C838 0.931 . S
H855 C843 0.930 . S
H856 C844 0.956 . S
H857 C844 0.961 . S
H858 C844 0.961 . S
H859 C845 0.958 . S
H860 C845 0.961 . S
H861 C845 0.960 . S
C862 C863 1.391 . S
C862 C864 1.394 . S
C862 H878 0.931 . S
C863 C862 1.391 . S
C863 C867 1.376 . S
C864 C862 1.394 . S
C864 C865 1.369 . S
C864 C868 1.531 . S
C865 C864 1.369 . S
C865 C866 1.410 . S
C865 C873 1.503 . S
C866 C865 1.410 . S
C866 C867 1.392 . S
C866 C869 1.511 . S
C867 C863 1.376 . S
C867 C866 1.392 . S
C867 H879 0.929 . S
C868 C864 1.531 . S
C868 H880 0.960 . S
C868 H881 0.962 . S
C868 H882 0.960 . S
C869 C866 1.511 . S
C869 H883 0.961 . S
C869 H884 0.961 . S
C869 H885 0.961 . S
C870 C871 1.370 . S
C870 C872 1.363 . S
C870 H886 0.931 . S
C871 C870 1.370 . S
C871 C875 1.408 . S
C872 C870 1.363 . S
C872 C873 1.370 . S
C872 C876 1.524 . S
C873 C865 1.503 . S
C873 C872 1.370 . S
C873 C874 1.403 . S
C874 C873 1.403 . S
C874 C875 1.404 . S
C874 C877 1.539 . S
C875 C871 1.408 . S
C875 C874 1.404 . S
C875 H887 0.930 . S
C876 C872 1.524 . S
C876 H888 0.956 . S
C876 H889 0.961 . S
C876 H890 0.961 . S
C877 C874 1.539 . S
C877 H891 0.958 . S
C877 H892 0.961 . S
C877 H893 0.960 . S
H878 C862 0.931 . S
H879 C867 0.929 . S
H880 C868 0.960 . S
H881 C868 0.962 . S
H882 C868 0.960 . S
H883 C869 0.961 . S
H884 C869 0.961 . S
H885 C869 0.961 . S
H886 C870 0.931 . S
H887 C875 0.930 . S
H888 C876 0.956 . S
H889 C876 0.961 . S
H890 C876 0.961 . S
H891 C877 0.958 . S
H892 C877 0.961 . S
H893 C877 0.960 . S
C894 C895 1.391 . S
C894 C896 1.394 . S
C894 H910 0.931 . S
C895 C894 1.391 . S
C895 C899 1.376 . S
C896 C894 1.394 . S
C896 C897 1.369 . S
C896 C900 1.531 . S
C897 C896 1.369 . S
C897 C898 1.410 . S
C897 C905 1.503 . S
C898 C897 1.410 . S
C898 C899 1.392 . S
C898 C901 1.511 . S
C899 C895 1.376 . S
C899 C898 1.392 . S
C899 H911 0.929 . S
C900 C896 1.531 . S
C900 H912 0.960 . S
C900 H913 0.962 . S
C900 H914 0.960 . S
C901 C898 1.511 . S
C901 H915 0.961 . S
C901 H916 0.961 . S
C901 H917 0.961 . S
C902 C903 1.370 . S
C902 C904 1.363 . S
C902 H918 0.931 . S
C903 C902 1.370 . S
C903 C907 1.408 . S
C904 C902 1.363 . S
C904 C905 1.370 . S
C904 C908 1.524 . S
C905 C897 1.503 . S
C905 C904 1.370 . S
C905 C906 1.403 . S
C906 C905 1.403 . S
C906 C907 1.404 . S
C906 C909 1.539 . S
C907 C903 1.408 . S
C907 C906 1.404 . S
C907 H919 0.930 . S
C908 C904 1.524 . S
C908 H920 0.956 . S
C908 H921 0.961 . S
C908 H922 0.961 . S
C909 C906 1.539 . S
C909 H923 0.958 . S
C909 H924 0.961 . S
C909 H925 0.960 . S
H910 C894 0.931 . S
H911 C899 0.929 . S
H912 C900 0.960 . S
H913 C900 0.962 . S
H914 C900 0.960 . S
H915 C901 0.961 . S
H916 C901 0.961 . S
H917 C901 0.961 . S
H918 C902 0.931 . S
H919 C907 0.930 . S
H920 C908 0.956 . S
H921 C908 0.961 . S
H922 C908 0.961 . S
H923 C909 0.958 . S
H924 C909 0.961 . S
H925 C909 0.960 . S
C926 C927 1.391 . S
C926 C928 1.394 . S
C926 H942 0.931 . S
C927 C926 1.391 . S
C927 C931 1.376 . S
C928 C926 1.394 . S
C928 C929 1.369 . S
C928 C932 1.531 . S
C929 C928 1.369 . S
C929 C930 1.410 . S
C929 C937 1.503 . S
C930 C929 1.410 . S
C930 C931 1.392 . S
C930 C933 1.511 . S
C931 C927 1.376 . S
C931 C930 1.392 . S
C931 H943 0.929 . S
C932 C928 1.531 . S
C932 H944 0.960 . S
C932 H945 0.962 . S
C932 H946 0.960 . S
C933 C930 1.511 . S
C933 H947 0.961 . S
C933 H948 0.961 . S
C933 H949 0.961 . S
C934 C935 1.370 . S
C934 C936 1.363 . S
C934 H950 0.931 . S
C935 C934 1.370 . S
C935 C939 1.408 . S
C936 C934 1.363 . S
C936 C937 1.370 . S
C936 C940 1.524 . S
C937 C929 1.503 . S
C937 C936 1.370 . S
C937 C938 1.403 . S
C938 C937 1.403 . S
C938 C939 1.404 . S
C938 C941 1.539 . S
C939 C935 1.408 . S
C939 C938 1.404 . S
C939 H951 0.930 . S
C940 C936 1.524 . S
C940 H952 0.956 . S
C940 H953 0.961 . S
C940 H954 0.961 . S
C941 C938 1.539 . S
C941 H955 0.958 . S
C941 H956 0.961 . S
C941 H957 0.960 . S
H942 C926 0.931 . S
H943 C931 0.929 . S
H944 C932 0.960 . S
H945 C932 0.962 . S
H946 C932 0.960 . S
H947 C933 0.961 . S
H948 C933 0.961 . S
H949 C933 0.961 . S
H950 C934 0.931 . S
H951 C939 0.930 . S
H952 C940 0.956 . S
H953 C940 0.961 . S
H954 C940 0.961 . S
H955 C941 0.958 . S
H956 C941 0.961 . S
H957 C941 0.960 . S
C958 C959 1.391 . S
C958 C960 1.394 . S
C958 H974 0.931 . S
C959 C958 1.391 . S
C959 C963 1.376 . S
C960 C958 1.394 . S
C960 C961 1.369 . S
C960 C964 1.531 . S
C961 C960 1.369 . S
C961 C962 1.410 . S
C961 C969 1.503 . S
C962 C961 1.410 . S
C962 C963 1.392 . S
C962 C965 1.511 . S
C963 C959 1.376 . S
C963 C962 1.392 . S
C963 H975 0.929 . S
C964 C960 1.531 . S
C964 H976 0.960 . S
C964 H977 0.962 . S
C964 H978 0.960 . S
C965 C962 1.511 . S
C965 H979 0.961 . S
C965 H980 0.961 . S
C965 H981 0.961 . S
C966 C967 1.370 . S
C966 C968 1.363 . S
C966 H982 0.931 . S
C967 C966 1.370 . S
C967 C971 1.408 . S
C968 C966 1.363 . S
C968 C969 1.370 . S
C968 C972 1.524 . S
C969 C961 1.503 . S
C969 C968 1.370 . S
C969 C970 1.403 . S
C970 C969 1.403 . S
C970 C971 1.404 . S
C970 C973 1.539 . S
C971 C967 1.408 . S
C971 C970 1.404 . S
C971 H983 0.930 . S
C972 C968 1.524 . S
C972 H984 0.956 . S
C972 H985 0.961 . S
C972 H986 0.961 . S
C973 C970 1.539 . S
C973 H987 0.958 . S
C973 H988 0.961 . S
C973 H989 0.960 . S
H974 C958 0.931 . S
H975 C963 0.929 . S
H976 C964 0.960 . S
H977 C964 0.962 . S
H978 C964 0.960 . S
H979 C965 0.961 . S
H980 C965 0.961 . S
H981 C965 0.961 . S
H982 C966 0.931 . S
H983 C971 0.930 . S
H984 C972 0.956 . S
H985 C972 0.961 . S
H986 C972 0.961 . S
H987 C973 0.958 . S
H988 C973 0.961 . S
H989 C973 0.960 . S
C990 C991 1.391 . S
C990 C992 1.394 . S
C990 H1006 0.931 . S
C991 C990 1.391 . S
C991 C995 1.376 . S
C992 C990 1.394 . S
C992 C993 1.369 . S
C992 C996 1.531 . S
C993 C992 1.369 . S
C993 C994 1.410 . S
C993 C1001 1.503 . S
C994 C993 1.410 . S
C994 C995 1.392 . S
C994 C997 1.511 . S
C995 C991 1.376 . S
C995 C994 1.392 . S
C995 H1007 0.929 . S
C996 C992 1.531 . S
C996 H1008 0.960 . S
C996 H1009 0.962 . S
C996 H1010 0.960 . S
C997 C994 1.511 . S
C997 H1011 0.961 . S
C997 H1012 0.961 . S
C997 H1013 0.961 . S
C998 C999 1.370 . S
C998 C1000 1.363 . S
C998 H1014 0.931 . S
C999 C998 1.370 . S
C999 C1003 1.408 . S
C1000 C998 1.363 . S
C1000 C1001 1.370 . S
C1000 C1004 1.524 . S
C1001 C993 1.503 . S
C1001 C1000 1.370 . S
C1001 C1002 1.403 . S
C1002 C1001 1.403 . S
C1002 C1003 1.404 . S
C1002 C1005 1.539 . S
C1003 C999 1.408 . S
C1003 C1002 1.404 . S
C1003 H1015 0.930 . S
C1004 C1000 1.524 . S
C1004 H1016 0.956 . S
C1004 H1017 0.961 . S
C1004 H1018 0.961 . S
C1005 C1002 1.539 . S
C1005 H1019 0.958 . S
C1005 H1020 0.961 . S
C1005 H1021 0.960 . S
H1006 C990 0.931 . S
H1007 C995 0.929 . S
H1008 C996 0.960 . S
H1009 C996 0.962 . S
H1010 C996 0.960 . S
H1011 C997 0.961 . S
H1012 C997 0.961 . S
H1013 C997 0.961 . S
H1014 C998 0.931 . S
H1015 C1003 0.930 . S
H1016 C1004 0.956 . S
H1017 C1004 0.961 . S
H1018 C1004 0.961 . S
H1019 C1005 0.958 . S
H1020 C1005 0.961 . S
H1021 C1005 0.960 . S
C1022 C1023 1.391 . S
C1022 C1024 1.394 . S
C1022 H1038 0.931 . S
C1023 C1022 1.391 . S
C1023 C1027 1.376 . S
C1024 C1022 1.394 . S
C1024 C1025 1.369 . S
C1024 C1028 1.531 . S
C1025 C1024 1.369 . S
C1025 C1026 1.410 . S
C1025 C1033 1.503 . S
C1026 C1025 1.410 . S
C1026 C1027 1.392 . S
C1026 C1029 1.511 . S
C1027 C1023 1.376 . S
C1027 C1026 1.392 . S
C1027 H1039 0.929 . S
C1028 C1024 1.531 . S
C1028 H1040 0.960 . S
C1028 H1041 0.962 . S
C1028 H1042 0.960 . S
C1029 C1026 1.511 . S
C1029 H1043 0.961 . S
C1029 H1044 0.961 . S
C1029 H1045 0.961 . S
C1030 C1031 1.370 . S
C1030 C1032 1.363 . S
C1030 H1046 0.931 . S
C1031 C1030 1.370 . S
C1031 C1035 1.408 . S
C1032 C1030 1.363 . S
C1032 C1033 1.370 . S
C1032 C1036 1.524 . S
C1033 C1025 1.503 . S
C1033 C1032 1.370 . S
C1033 C1034 1.403 . S
C1034 C1033 1.403 . S
C1034 C1035 1.404 . S
C1034 C1037 1.539 . S
C1035 C1031 1.408 . S
C1035 C1034 1.404 . S
C1035 H1047 0.930 . S
C1036 C1032 1.524 . S
C1036 H1048 0.956 . S
C1036 H1049 0.961 . S
C1036 H1050 0.961 . S
C1037 C1034 1.539 . S
C1037 H1051 0.958 . S
C1037 H1052 0.961 . S
C1037 H1053 0.960 . S
H1038 C1022 0.931 . S
H1039 C1027 0.929 . S
H1040 C1028 0.960 . S
H1041 C1028 0.962 . S
H1042 C1028 0.960 . S
H1043 C1029 0.961 . S
H1044 C1029 0.961 . S
H1045 C1029 0.961 . S
H1046 C1030 0.931 . S
H1047 C1035 0.930 . S
H1048 C1036 0.956 . S
H1049 C1036 0.961 . S
H1050 C1036 0.961 . S
H1051 C1037 0.958 . S
H1052 C1037 0.961 . S
H1053 C1037 0.960 . S
C1054 C1055 1.391 . S
C1054 C1056 1.394 . S
C1054 H1070 0.931 . S
C1055 C1054 1.391 . S
C1055 C1059 1.376 . S
C1056 C1054 1.394 . S
C1056 C1057 1.369 . S
C1056 C1060 1.531 . S
C1057 C1056 1.369 . S
C1057 C1058 1.410 . S
C1057 C1065 1.503 . S
C1058 C1057 1.410 . S
C1058 C1059 1.392 . S
C1058 C1061 1.511 . S
C1059 C1055 1.376 . S
C1059 C1058 1.392 . S
C1059 H1071 0.929 . S
C1060 C1056 1.531 . S
C1060 H1072 0.960 . S
C1060 H1073 0.962 . S
C1060 H1074 0.960 . S
C1061 C1058 1.511 . S
C1061 H1075 0.961 . S
C1061 H1076 0.961 . S
C1061 H1077 0.961 . S
C1062 C1063 1.370 . S
C1062 C1064 1.363 . S
C1062 H1078 0.931 . S
C1063 C1062 1.370 . S
C1063 C1067 1.408 . S
C1064 C1062 1.363 . S
C1064 C1065 1.370 . S
C1064 C1068 1.524 . S
C1065 C1057 1.503 . S
C1065 C1064 1.370 . S
C1065 C1066 1.403 . S
C1066 C1065 1.403 . S
C1066 C1067 1.404 . S
C1066 C1069 1.539 . S
C1067 C1063 1.408 . S
C1067 C1066 1.404 . S
C1067 H1079 0.930 . S
C1068 C1064 1.524 . S
C1068 H1080 0.956 . S
C1068 H1081 0.961 . S
C1068 H1082 0.961 . S
C1069 C1066 1.539 . S
C1069 H1083 0.958 . S
C1069 H1084 0.961 . S
C1069 H1085 0.960 . S
H1070 C1054 0.931 . S
H1071 C1059 0.929 . S
H1072 C1060 0.960 . S
H1073 C1060 0.962 . S
H1074 C1060 0.960 . S
H1075 C1061 0.961 . S
H1076 C1061 0.961 . S
H1077 C1061 0.961 . S
H1078 C1062 0.931 . S
H1079 C1067 0.930 . S
H1080 C1068 0.956 . S
H1081 C1068 0.961 . S
H1082 C1068 0.961 . S
H1083 C1069 0.958 . S
H1084 C1069 0.961 . S
H1085 C1069 0.960 . S
C1086 C1087 1.391 . S
C1086 C1088 1.394 . S
C1086 H1102 0.931 . S
C1087 C1086 1.391 . S
C1087 C1091 1.376 . S
C1088 C1086 1.394 . S
C1088 C1089 1.369 . S
C1088 C1092 1.531 . S
C1089 C1088 1.369 . S
C1089 C1090 1.410 . S
C1089 C1097 1.503 . S
C1090 C1089 1.410 . S
C1090 C1091 1.392 . S
C1090 C1093 1.511 . S
C1091 C1087 1.376 . S
C1091 C1090 1.392 . S
C1091 H1103 0.929 . S
C1092 C1088 1.531 . S
C1092 H1104 0.960 . S
C1092 H1105 0.962 . S
C1092 H1106 0.960 . S
C1093 C1090 1.511 . S
C1093 H1107 0.961 . S
C1093 H1108 0.961 . S
C1093 H1109 0.961 . S
C1094 C1095 1.370 . S
C1094 C1096 1.363 . S
C1094 H1110 0.931 . S
C1095 C1094 1.370 . S
C1095 C1099 1.408 . S
C1096 C1094 1.363 . S
C1096 C1097 1.370 . S
C1096 C1100 1.524 . S
C1097 C1089 1.503 . S
C1097 C1096 1.370 . S
C1097 C1098 1.403 . S
C1098 C1097 1.403 . S
C1098 C1099 1.404 . S
C1098 C1101 1.539 . S
C1099 C1095 1.408 . S
C1099 C1098 1.404 . S
C1099 H1111 0.930 . S
C1100 C1096 1.524 . S
C1100 H1112 0.956 . S
C1100 H1113 0.961 . S
C1100 H1114 0.961 . S
C1101 C1098 1.539 . S
C1101 H1115 0.958 . S
C1101 H1116 0.961 . S
C1101 H1117 0.960 . S
H1102 C1086 0.931 . S
H1103 C1091 0.929 . S
H1104 C1092 0.960 . S
H1105 C1092 0.962 . S
H1106 C1092 0.960 . S
H1107 C1093 0.961 . S
H1108 C1093 0.961 . S
H1109 C1093 0.961 . S
H1110 C1094 0.931 . S
H1111 C1099 0.930 . S
H1112 C1100 0.956 . S
H1113 C1100 0.961 . S
H1114 C1100 0.961 . S
H1115 C1101 0.958 . S
H1116 C1101 0.961 . S
H1117 C1101 0.960 . S
C1118 C1119 1.391 . S
C1118 C1120 1.394 . S
C1118 H1134 0.931 . S
C1119 C1118 1.391 . S
C1119 C1123 1.376 . S
C1120 C1118 1.394 . S
C1120 C1121 1.369 . S
C1120 C1124 1.531 . S
C1121 C1120 1.369 . S
C1121 C1122 1.410 . S
C1121 C1129 1.503 . S
C1122 C1121 1.410 . S
C1122 C1123 1.392 . S
C1122 C1125 1.511 . S
C1123 C1119 1.376 . S
C1123 C1122 1.392 . S
C1123 H1135 0.929 . S
C1124 C1120 1.531 . S
C1124 H1136 0.960 . S
C1124 H1137 0.962 . S
C1124 H1138 0.960 . S
C1125 C1122 1.511 . S
C1125 H1139 0.961 . S
C1125 H1140 0.961 . S
C1125 H1141 0.961 . S
C1126 C1127 1.370 . S
C1126 C1128 1.363 . S
C1126 H1142 0.931 . S
C1127 C1126 1.370 . S
C1127 C1131 1.408 . S
C1128 C1126 1.363 . S
C1128 C1129 1.370 . S
C1128 C1132 1.524 . S
C1129 C1121 1.503 . S
C1129 C1128 1.370 . S
C1129 C1130 1.403 . S
C1130 C1129 1.403 . S
C1130 C1131 1.404 . S
C1130 C1133 1.539 . S
C1131 C1127 1.408 . S
C1131 C1130 1.404 . S
C1131 H1143 0.930 . S
C1132 C1128 1.524 . S
C1132 H1144 0.956 . S
C1132 H1145 0.961 . S
C1132 H1146 0.961 . S
C1133 C1130 1.539 . S
C1133 H1147 0.958 . S
C1133 H1148 0.961 . S
C1133 H1149 0.960 . S
H1134 C1118 0.931 . S
H1135 C1123 0.929 . S
H1136 C1124 0.960 . S
H1137 C1124 0.962 . S
H1138 C1124 0.960 . S
H1139 C1125 0.961 . S
H1140 C1125 0.961 . S
H1141 C1125 0.961 . S
H1142 C1126 0.931 . S
H1143 C1131 0.930 . S
H1144 C1132 0.956 . S
H1145 C1132 0.961 . S
H1146 C1132 0.961 . S
H1147 C1133 0.958 . S
H1148 C1133 0.961 . S
H1149 C1133 0.960 . S
C1150 C1151 1.391 . S
C1150 C1152 1.394 . S
C1150 H1166 0.931 . S
C1151 C1150 1.391 . S
C1151 C1155 1.376 . S
C1152 C1150 1.394 . S
C1152 C1153 1.369 . S
C1152 C1156 1.531 . S
C1153 C1152 1.369 . S
C1153 C1154 1.410 . S
C1153 C1161 1.503 . S
C1154 C1153 1.410 . S
C1154 C1155 1.392 . S
C1154 C1157 1.511 . S
C1155 C1151 1.376 . S
C1155 C1154 1.392 . S
C1155 H1167 0.929 . S
C1156 C1152 1.531 . S
C1156 H1168 0.960 . S
C1156 H1169 0.962 . S
C1156 H1170 0.960 . S
C1157 C1154 1.511 . S
C1157 H1171 0.961 . S
C1157 H1172 0.961 . S
C1157 H1173 0.961 . S
C1158 C1159 1.370 . S
C1158 C1160 1.363 . S
C1158 H1174 0.931 . S
C1159 C1158 1.370 . S
C1159 C1163 1.408 . S
C1160 C1158 1.363 . S
C1160 C1161 1.370 . S
C1160 C1164 1.524 . S
C1161 C1153 1.503 . S
C1161 C1160 1.370 . S
C1161 C1162 1.403 . S
C1162 C1161 1.403 . S
C1162 C1163 1.404 . S
C1162 C1165 1.539 . S
C1163 C1159 1.408 . S
C1163 C1162 1.404 . S
C1163 H1175 0.930 . S
C1164 C1160 1.524 . S
C1164 H1176 0.956 . S
C1164 H1177 0.961 . S
C1164 H1178 0.961 . S
C1165 C1162 1.539 . S
C1165 H1179 0.958 . S
C1165 H1180 0.961 . S
C1165 H1181 0.960 . S
H1166 C1150 0.931 . S
H1167 C1155 0.929 . S
H1168 C1156 0.960 . S
H1169 C1156 0.962 . S
H1170 C1156 0.960 . S
H1171 C1157 0.961 . S
H1172 C1157 0.961 . S
H1173 C1157 0.961 . S
H1174 C1158 0.931 . S
H1175 C1163 0.930 . S
H1176 C1164 0.956 . S
H1177 C1164 0.961 . S
H1178 C1164 0.961 . S
H1179 C1165 0.958 . S
H1180 C1165 0.961 . S
H1181 C1165 0.960 . S
C415 C7 1.882 . S
C423 C160 1.852 . S
C447 C30 1.633 . S
C455 C199 1.639 . S
C487 C231 1.733 . S
C479 N58 1.699 . S
C519 C277 1.484 . S
C511 N81 1.489 . S
C551 C344 1.778 . S
C543 C99 1.771 . S
C583 C383 1.542 . S
C575 N127 1.477 . S
C607 N25 1.724 . S
C615 C245 1.749 . S
C639 C62 1.644 . S
C647 C291 1.622 . S
C679 C330 1.793 . S
C671 C85 1.820 . S
C711 C369 1.531 . S
C703 N94 1.495 . S
C735 C131 1.824 . S
C743 C146 1.785 . S
C775 C185 1.492 . S
C767 N2 1.461 . S
C807 C284 1.800 . S
C799 C16 1.815 . S
C831 C39 1.594 . S
C839 C337 1.580 . S
C871 C390 1.705 . S
C863 N48 1.716 . S
C895 N71 1.439 . S
C903 C153 1.480 . S
C927 C108 1.775 . S
C935 C206 1.759 . S
C959 N117 1.512 . S
C967 C238 1.516 . S
C991 N35 1.679 . S
C999 C376 1.740 . S
C1031 C139 1.622 . S
C1023 C53 1.645 . S
C1055 C76 1.859 . S
C1063 C192 1.830 . S
C1087 N104 1.512 . S
C1095 C252 1.498 . S
C1119 C122 1.761 . S
C1127 C298 1.750 . S
C1151 N12 1.406 . S
C1159 C323 1.486 . S
