# Generated by pormake.
# Topology wbl, (4,4)-cn, num edge types: 1
# Building blocks:
#     Node 0, Type 0, BuildingBlock: MUDLON_clean_linker_0, # of connection points: 4
#     Node 1, Type 0, BuildingBlock: MUDLON_clean_linker_0, # of connection points: 4
#     Node 2, Type 0, BuildingBlock: MUDLON_clean_linker_0, # of connection points: 4
#     Node 3, Type 0, BuildingBlock: MUDLON_clean_linker_0, # of connection points: 4
#     Node 4, Type 0, BuildingBlock: MUDLON_clean_linker_0, # of connection points: 4
#     Node 5, Type 0, BuildingBlock: MUDLON_clean_linker_0, # of connection points: 4
#     Node 6, Type 0, BuildingBlock: MUDLON_clean_linker_0, # of connection points: 4
#     Node 7, Type 0, BuildingBlock: MUDLON_clean_linker_0, # of connection points: 4
#     Node 8, Type 1, BuildingBlock: NAHDIM_clean_sbu_0, # of connection points: 4
#     Node 9, Type 1, BuildingBlock: NAHDIM_clean_sbu_0, # of connection points: 4
#     Node 10, Type 1, BuildingBlock: NAHDIM_clean_sbu_0, # of connection points: 4
#     Node 11, Type 1, BuildingBlock: NAHDIM_clean_sbu_0, # of connection points: 4
#     Node 12, Type 1, BuildingBlock: NAHDIM_clean_sbu_0, # of connection points: 4
#     Node 13, Type 1, BuildingBlock: NAHDIM_clean_sbu_0, # of connection points: 4
#     Node 14, Type 1, BuildingBlock: NAHDIM_clean_sbu_0, # of connection points: 4
#     Node 15, Type 1, BuildingBlock: NAHDIM_clean_sbu_0, # of connection points: 4
#     Edge 16, Type (0, 1), BuildingBlock: UVAHIK_clean_linker_0, # of connection points: 2
#     Edge 17, Type (0, 1), BuildingBlock: UVAHIK_clean_linker_0, # of connection points: 2
#     Edge 18, Type (0, 1), BuildingBlock: UVAHIK_clean_linker_0, # of connection points: 2
#     Edge 19, Type (0, 1), BuildingBlock: UVAHIK_clean_linker_0, # of connection points: 2
#     Edge 20, Type (0, 1), BuildingBlock: UVAHIK_clean_linker_0, # of connection points: 2
#     Edge 21, Type (0, 1), BuildingBlock: UVAHIK_clean_linker_0, # of connection points: 2
#     Edge 22, Type (0, 1), BuildingBlock: UVAHIK_clean_linker_0, # of connection points: 2
#     Edge 23, Type (0, 1), BuildingBlock: UVAHIK_clean_linker_0, # of connection points: 2
#     Edge 24, Type (0, 1), BuildingBlock: UVAHIK_clean_linker_0, # of connection points: 2
#     Edge 25, Type (0, 1), BuildingBlock: UVAHIK_clean_linker_0, # of connection points: 2
#     Edge 26, Type (0, 1), BuildingBlock: UVAHIK_clean_linker_0, # of connection points: 2
#     Edge 27, Type (0, 1), BuildingBlock: UVAHIK_clean_linker_0, # of connection points: 2
#     Edge 28, Type (0, 1), BuildingBlock: UVAHIK_clean_linker_0, # of connection points: 2
#     Edge 29, Type (0, 1), BuildingBlock: UVAHIK_clean_linker_0, # of connection points: 2
#     Edge 30, Type (0, 1), BuildingBlock: UVAHIK_clean_linker_0, # of connection points: 2
#     Edge 31, Type (0, 1), BuildingBlock: UVAHIK_clean_linker_0, # of connection points: 2
#     Edge 32, Type (0, 1), BuildingBlock: UVAHIK_clean_linker_0, # of connection points: 2
#     Edge 33, Type (0, 1), BuildingBlock: UVAHIK_clean_linker_0, # of connection points: 2
#     Edge 34, Type (0, 1), BuildingBlock: UVAHIK_clean_linker_0, # of connection points: 2
#     Edge 35, Type (0, 1), BuildingBlock: UVAHIK_clean_linker_0, # of connection points: 2
#     Edge 36, Type (0, 1), BuildingBlock: UVAHIK_clean_linker_0, # of connection points: 2
#     Edge 37, Type (0, 1), BuildingBlock: UVAHIK_clean_linker_0, # of connection points: 2
#     Edge 38, Type (0, 1), BuildingBlock: UVAHIK_clean_linker_0, # of connection points: 2
#     Edge 39, Type (0, 1), BuildingBlock: UVAHIK_clean_linker_0, # of connection points: 2
#     Edge 40, Type (0, 1), BuildingBlock: UVAHIK_clean_linker_0, # of connection points: 2
#     Edge 41, Type (0, 1), BuildingBlock: UVAHIK_clean_linker_0, # of connection points: 2
#     Edge 42, Type (0, 1), BuildingBlock: UVAHIK_clean_linker_0, # of connection points: 2
#     Edge 43, Type (0, 1), BuildingBlock: UVAHIK_clean_linker_0, # of connection points: 2
#     Edge 44, Type (0, 1), BuildingBlock: UVAHIK_clean_linker_0, # of connection points: 2
#     Edge 45, Type (0, 1), BuildingBlock: UVAHIK_clean_linker_0, # of connection points: 2
#     Edge 46, Type (0, 1), BuildingBlock: UVAHIK_clean_linker_0, # of connection points: 2
#     Edge 47, Type (0, 1), BuildingBlock: UVAHIK_clean_linker_0, # of connection points: 2
# Relax obj value: 0.110
# Max RMSD: 0.118
# Mean RMSD: 0.108
data_MOF--net-wbl--node1-NAHDIM_clean_sbu_0--node2-MUDLON_clean_linker_0--edge1-UVAHIK_clean_linker_0
_symmetry_space_group_name_H-M    P1
_symmetry_Int_Tables_number       1
_symmetry_cell_setting            triclinic
loop_
_symmetry_equiv_pos_as_xyz
'x, y, z'
_cell_length_a     66.358401
_cell_length_b     64.488992
_cell_length_c     90.625091
_cell_angle_alpha  89.988196
_cell_angle_beta   89.988338
_cell_angle_gamma 90.008317
loop_
_atom_site_label
_atom_site_type_symbol
_atom_site_fract_x
_atom_site_fract_y
_atom_site_fract_z
_atom_type_partial_charge
H0 H 0.11526 0.98429 0.32609 0.0
N1 N 0.08405 0.98413 0.30791 0.0
H2 H 0.11876 0.96568 0.34944 0.0
H3 H 0.05478 0.96102 0.32132 0.0
H4 H 0.0579 0.94259 0.34488 0.0
H5 H 0.06891 0.94723 0.29787 0.0
H6 H 0.08543 0.92395 0.28039 0.0
H7 H 0.11538 0.99283 0.29095 0.0
H8 H 0.13237 0.96954 0.27377 0.0
H9 H 0.0827 0.02267 0.31759 0.0
H10 H 0.04818 0.97743 0.29342 0.0
H11 H 0.05516 0.04741 0.31545 0.0
H12 H 0.02094 0.00247 0.29036 0.0
H13 H 0.97274 0.12365 0.31866 0.0
H14 H 0.96019 0.13201 0.34341 0.0
H15 H 0.94601 0.06738 0.35045 0.0
H16 H 0.9583 0.05923 0.32587 0.0
H17 H 0.9373 0.06411 0.30454 0.0
H18 H 0.9075 0.07193 0.29003 0.0
H19 H 0.94009 0.1206 0.26748 0.0
H20 H 0.96977 0.11312 0.28262 0.0
H21 H 0.01085 0.09455 0.30118 0.0
H22 H 0.03823 0.06941 0.2995 0.0
H23 H 0.99494 0.01947 0.30298 0.0
N24 N 0.97209 0.08709 0.3052 0.0
H25 H 0.9677 0.04474 0.30345 0.0
C26 C 0.08483 0.97407 0.32206 0.0
C27 C 0.10266 0.97535 0.33024 0.0
C28 C 0.10455 0.96479 0.3436 0.0
C29 C 0.08857 0.9527 0.34907 0.0
C30 C 0.07055 0.95162 0.34091 0.0
C31 C 0.06868 0.96222 0.3275 0.0
C32 C 0.09102 0.97179 0.2957 0.0
C33 C 0.08241 0.95244 0.29232 0.0
C34 C 0.09198 0.93907 0.2824 0.0
C35 C 0.11035 0.94475 0.27577 0.0
C36 C 0.11813 0.9647 0.27849 0.0
C37 C 0.10852 0.97804 0.28835 0.0
C38 C 0.06766 0.99836 0.30557 0.0
C39 C 0.06926 0.01826 0.31158 0.0
C40 C 0.05353 0.03243 0.3102 0.0
C41 C 0.03581 0.02713 0.30254 0.0
C42 C 0.03425 0.0071 0.29643 0.0
C43 C 0.04995 0.99276 0.29805 0.0
C44 C 0.96652 0.09091 0.32034 0.0
C45 C 0.96718 0.11129 0.32566 0.0
C46 C 0.96006 0.116 0.33979 0.0
C47 C 0.95201 0.10035 0.34883 0.0
C48 C 0.95188 0.07981 0.34365 0.0
C49 C 0.95907 0.07512 0.32957 0.0
C50 C 0.95576 0.08827 0.29478 0.0
C51 C 0.93825 0.07617 0.29629 0.0
C52 C 0.92115 0.08062 0.28788 0.0
C53 C 0.92126 0.09712 0.27771 0.0
C54 C 0.93933 0.10809 0.27544 0.0
C55 C 0.95636 0.10373 0.28395 0.0
C56 C 0.98734 0.07161 0.30274 0.0
C57 C 0.00733 0.07814 0.30133 0.0
C58 C 0.02295 0.06372 0.30055 0.0
C59 C 0.01893 0.04232 0.30147 0.0
C60 C 0.9987 0.03576 0.30219 0.0
C61 C 0.98303 0.05027 0.30266 0.0
H62 H 0.98135 0.38115 0.58194 0.0
N63 N 0.97638 0.41361 0.56441 0.0
H64 H 0.96823 0.37638 0.60694 0.0
H65 H 0.95629 0.44273 0.58063 0.0
H66 H 0.94298 0.43813 0.6057 0.0
H67 H 0.93956 0.43098 0.55849 0.0
H68 H 0.91272 0.41512 0.54397 0.0
H69 H 0.97967 0.38116 0.54669 0.0
H70 H 0.95279 0.36476 0.5325 0.0
H71 H 0.01488 0.41526 0.57149 0.0
H72 H 0.96798 0.45049 0.5502 0.0
H73 H 0.03828 0.44384 0.56804 0.0
H74 H 0.99161 0.47869 0.54571 0.0
H75 H 0.11083 0.53306 0.56868 0.0
H76 H 0.12008 0.54712 0.59284 0.0
H77 H 0.057 0.55506 0.60326 0.0
H78 H 0.04799 0.54171 0.57914 0.0
H79 H 0.05143 0.56574 0.55773 0.0
H80 H 0.05796 0.59708 0.54365 0.0
H81 H 0.10372 0.56476 0.51866 0.0
H82 H 0.09754 0.53353 0.53335 0.0
H83 H 0.08191 0.49061 0.55261 0.0
H84 H 0.05792 0.46199 0.55168 0.0
H85 H 0.00889 0.50562 0.55701 0.0
N86 N 0.07423 0.53034 0.55701 0.0
H87 H 0.03294 0.53408 0.55657 0.0
C88 C 0.96972 0.41216 0.57948 0.0
C89 C 0.97319 0.3937 0.58717 0.0
C90 C 0.96576 0.39107 0.60144 0.0
C91 C 0.95458 0.4069 0.60828 0.0
C92 C 0.9514 0.42561 0.60065 0.0
C93 C 0.959 0.42828 0.58636 0.0
C94 C 0.96169 0.4072 0.55364 0.0
C95 C 0.94277 0.41689 0.55248 0.0
C96 C 0.92735 0.40767 0.54427 0.0
C97 C 0.93048 0.38852 0.5372 0.0
C98 C 0.94984 0.37962 0.53763 0.0
C99 C 0.96525 0.38892 0.54576 0.0
C100 C 0.98977 0.43054 0.56105 0.0
C101 C 0.00978 0.42905 0.56578 0.0
C102 C 0.02319 0.44541 0.56364 0.0
C103 C 0.01701 0.46365 0.55641 0.0
C104 C 0.99692 0.46503 0.55147 0.0
C105 C 0.98335 0.44874 0.55391 0.0
C106 C 0.0788 0.53616 0.57203 0.0
C107 C 0.09904 0.53755 0.5763 0.0
C108 C 0.10427 0.54554 0.59012 0.0
C109 C 0.08927 0.55233 0.59996 0.0
C110 C 0.06894 0.55027 0.59586 0.0
C111 C 0.06374 0.54237 0.58203 0.0
C112 C 0.07424 0.54731 0.5467 0.0
C113 C 0.0625 0.56517 0.549 0.0
C114 C 0.06622 0.58316 0.54084 0.0
C115 C 0.08163 0.58358 0.53016 0.0
C116 C 0.09207 0.56511 0.52703 0.0
C117 C 0.08844 0.5472 0.53528 0.0
C118 C 0.05933 0.51437 0.555 0.0
C119 C 0.06593 0.49392 0.55331 0.0
C120 C 0.05216 0.47759 0.55297 0.0
C121 C 0.03137 0.48131 0.55469 0.0
C122 C 0.0247 0.50202 0.55563 0.0
C123 C 0.03852 0.5184 0.55558 0.0
H124 H 0.62046 0.50098 0.82278 0.0
N125 N 0.5875 0.49747 0.80636 0.0
H126 H 0.627 0.48525 0.84694 0.0
H127 H 0.56103 0.474 0.82251 0.0
H128 H 0.56747 0.45807 0.84643 0.0
H129 H 0.5785 0.45656 0.80124 0.0
H130 H 0.59617 0.43399 0.7841 0.0
H131 H 0.61026 0.50947 0.78387 0.0
H132 H 0.62686 0.48729 0.76573 0.0
H133 H 0.58702 0.53817 0.80936 0.0
H134 H 0.54912 0.48603 0.79889 0.0
H135 H 0.55785 0.5612 0.8086 0.0
H136 H 0.51947 0.50878 0.79879 0.0
H137 H 0.46443 0.62961 0.82123 0.0
H138 H 0.45022 0.63742 0.84557 0.0
H139 H 0.44181 0.57191 0.85347 0.0
H140 H 0.45618 0.56427 0.82919 0.0
H141 H 0.44075 0.56137 0.80586 0.0
H142 H 0.40903 0.5634 0.79227 0.0
H143 H 0.42651 0.6233 0.77514 0.0
H144 H 0.45826 0.62107 0.78878 0.0
H145 H 0.50146 0.59123 0.82554 0.0
H146 H 0.52971 0.56756 0.82402 0.0
H147 H 0.50227 0.53737 0.78653 0.0
N148 N 0.46849 0.59266 0.80858 0.0
H149 H 0.4736 0.56056 0.78829 0.0
C150 C 0.59031 0.48881 0.82088 0.0
C151 C 0.60881 0.49177 0.82799 0.0
C152 C 0.61254 0.48267 0.84171 0.0
C153 C 0.59775 0.47038 0.84858 0.0
C154 C 0.57907 0.46767 0.84153 0.0
C155 C 0.57538 0.47677 0.8278 0.0
C156 C 0.59365 0.48465 0.79416 0.0
C157 C 0.5889 0.46343 0.79346 0.0
C158 C 0.59891 0.45051 0.78347 0.0
C159 C 0.61346 0.45866 0.77374 0.0
C160 C 0.61636 0.48029 0.77341 0.0
C161 C 0.60672 0.49308 0.78364 0.0
C162 C 0.57016 0.5105 0.80437 0.0
C163 C 0.57232 0.53177 0.80685 0.0
C164 C 0.5556 0.54482 0.80656 0.0
C165 C 0.53622 0.53678 0.80395 0.0
C166 C 0.53417 0.51548 0.80083 0.0
C167 C 0.55105 0.50243 0.80098 0.0
C168 C 0.46128 0.59647 0.82338 0.0
C169 C 0.45969 0.61698 0.8283 0.0
C170 C 0.45164 0.62137 0.84219 0.0
C171 C 0.44486 0.60526 0.8514 0.0
C172 C 0.44669 0.58464 0.84654 0.0
C173 C 0.4549 0.58026 0.83268 0.0
C174 C 0.45183 0.59122 0.79839 0.0
C175 C 0.43793 0.57475 0.79898 0.0
C176 C 0.41978 0.57595 0.79122 0.0
C177 C 0.41517 0.59362 0.78277 0.0
C178 C 0.42967 0.6094 0.78144 0.0
C179 C 0.4478 0.60819 0.78922 0.0
C180 C 0.48462 0.57744 0.80755 0.0
C181 C 0.50118 0.57926 0.81715 0.0
C182 C 0.51757 0.56586 0.81613 0.0
C183 C 0.5183 0.55054 0.80513 0.0
C184 C 0.502 0.54876 0.79531 0.0
C185 C 0.48544 0.56214 0.79639 0.0
H186 H 0.49079 0.89174 0.07917 0.0
N187 N 0.48302 0.92232 0.0605 0.0
H188 H 0.47852 0.88791 0.10451 0.0
H189 H 0.46165 0.95127 0.07603 0.0
H190 H 0.44925 0.9476 0.10134 0.0
H191 H 0.44653 0.93975 0.05362 0.0
H192 H 0.4193 0.92268 0.04024 0.0
H193 H 0.48574 0.88805 0.04462 0.0
H194 H 0.4585 0.87056 0.03151 0.0
H195 H 0.52263 0.91929 0.06046 0.0
H196 H 0.47425 0.96196 0.0515 0.0
H197 H 0.54718 0.94684 0.05648 0.0
H198 H 0.49869 0.98963 0.047 0.0
H199 H 0.61379 0.0137 0.07411 0.0
H200 H 0.62231 0.02412 0.09936 0.0
H201 H 0.57632 0.07153 0.09752 0.0
H202 H 0.56859 0.06165 0.07234 0.0
H203 H 0.56235 0.06256 0.04652 0.0
H204 H 0.57333 0.09421 0.03411 0.0
H205 H 0.63311 0.0684 0.02941 0.0
H206 H 0.62216 0.03725 0.04253 0.0
H207 H 0.58945 0.99549 0.04197 0.0
H208 H 0.56295 0.96938 0.0394 0.0
H209 H 0.52111 0.01051 0.06134 0.0
N210 N 0.58731 0.03138 0.05604 0.0
H211 H 0.54729 0.03672 0.06312 0.0
C212 C 0.47707 0.92165 0.07575 0.0
C213 C 0.48196 0.90408 0.08406 0.0
C214 C 0.47501 0.90198 0.09852 0.0
C215 C 0.46289 0.91745 0.1049 0.0
C216 C 0.4584 0.93534 0.09665 0.0
C217 C 0.4655 0.93748 0.0822 0.0
C218 C 0.46823 0.9151 0.05011 0.0
C219 C 0.4495 0.925 0.04842 0.0
C220 C 0.43383 0.9151 0.04087 0.0
C221 C 0.4366 0.89513 0.03494 0.0
C222 C 0.45583 0.88601 0.03577 0.0
C223 C 0.47145 0.89593 0.04328 0.0
C224 C 0.49672 0.93851 0.05626 0.0
C225 C 0.51738 0.93456 0.05728 0.0
C226 C 0.53137 0.95033 0.05491 0.0
C227 C 0.52496 0.97052 0.05137 0.0
C228 C 0.50415 0.97433 0.04986 0.0
C229 C 0.49013 0.95847 0.05233 0.0
C230 C 0.59058 0.03675 0.0713 0.0
C231 C 0.60548 0.0262 0.07926 0.0
C232 C 0.61024 0.03213 0.0937 0.0
C233 C 0.60008 0.04876 0.10045 0.0
C234 C 0.5847 0.0589 0.09258 0.0
C235 C 0.58008 0.05306 0.07815 0.0
C236 C 0.59163 0.04772 0.0457 0.0
C237 C 0.57771 0.06357 0.04261 0.0
C238 C 0.584 0.08163 0.0354 0.0
C239 C 0.60424 0.08403 0.03104 0.0
C240 C 0.61756 0.06729 0.03296 0.0
C241 C 0.61131 0.0494 0.04029 0.0
C242 C 0.57056 0.01787 0.05295 0.0
C243 C 0.57442 0.99897 0.04592 0.0
C244 C 0.55929 0.98403 0.04459 0.0
C245 C 0.53996 0.98765 0.05043 0.0
C246 C 0.53576 0.00717 0.05665 0.0
C247 C 0.55088 0.0222 0.05782 0.0
H248 H 0.11473 0.50942 0.94364 0.0
N249 N 0.07946 0.51163 0.95726 0.0
H250 H 0.12431 0.52563 0.92024 0.0
H251 H 0.05398 0.53179 0.93833 0.0
H252 H 0.06345 0.54828 0.91496 0.0
H253 H 0.06469 0.55094 0.96111 0.0
H254 H 0.07917 0.57735 0.97727 0.0
H255 H 0.10506 0.50525 0.97928 0.0
H256 H 0.11959 0.53158 0.99556 0.0
H257 H 0.07648 0.4726 0.94878 0.0
H258 H 0.04212 0.52217 0.9684 0.0
H259 H 0.04698 0.45022 0.9495 0.0
H260 H 0.01286 0.4995 0.97014 0.0
H261 H 0.96169 0.38088 0.94278 0.0
H262 H 0.95004 0.37189 0.91794 0.0
H263 H 0.93343 0.43588 0.91062 0.0
H264 H 0.94559 0.44472 0.93506 0.0
H265 H 0.92694 0.44312 0.95712 0.0
H266 H 0.89664 0.43709 0.97156 0.0
H267 H 0.92558 0.38513 0.99303 0.0
H268 H 0.95568 0.39086 0.97795 0.0
H269 H 0.99753 0.40763 0.96233 0.0
H270 H 0.02643 0.43078 0.96467 0.0
H271 H 0.98745 0.48338 0.9566 0.0
N272 N 0.95992 0.41758 0.95596 0.0
H273 H 0.95856 0.46018 0.95558 0.0
C274 C 0.08375 0.51937 0.94268 0.0
C275 C 0.10343 0.51762 0.93729 0.0
C276 C 0.10888 0.52702 0.92402 0.0
C277 C 0.09467 0.5384 0.91585 0.0
C278 C 0.07469 0.53951 0.92097 0.0
C279 C 0.06927 0.53013 0.93432 0.0
C280 C 0.08402 0.52611 0.9689 0.0
C281 C 0.07627 0.54643 0.96887 0.0
C282 C 0.0846 0.56154 0.97808 0.0
C283 C 0.10066 0.55657 0.98754 0.0
C284 C 0.10713 0.53585 0.98846 0.0
C285 C 0.09889 0.5208 0.97917 0.0
C286 C 0.06169 0.49892 0.95864 0.0
C287 C 0.06261 0.4785 0.95348 0.0
C288 C 0.04573 0.46568 0.95406 0.0
C289 C 0.02747 0.47287 0.96008 0.0
C290 C 0.02655 0.49343 0.9653 0.0
C291 C 0.04343 0.50641 0.96445 0.0
C292 C 0.95456 0.41338 0.94084 0.0
C293 C 0.9558 0.39296 0.93568 0.0
C294 C 0.94898 0.38786 0.92155 0.0
C295 C 0.94067 0.40315 0.91231 0.0
C296 C 0.93996 0.42376 0.91736 0.0
C297 C 0.94685 0.42883 0.93146 0.0
C298 C 0.94353 0.4172 0.96634 0.0
C299 C 0.92698 0.43069 0.9651 0.0
C300 C 0.90961 0.42727 0.97348 0.0
C301 C 0.90852 0.41042 0.98333 0.0
C302 C 0.92572 0.39797 0.98532 0.0
C303 C 0.943 0.40131 0.97685 0.0
C304 C 0.97603 0.43206 0.95846 0.0
C305 C 0.99528 0.4242 0.96129 0.0
C306 C 0.01179 0.43749 0.96244 0.0
C307 C 0.00947 0.45902 0.96047 0.0
C308 C 0.98992 0.46695 0.95822 0.0
C309 C 0.97332 0.45361 0.9574 0.0
H310 H 0.50925 0.37956 0.18587 0.0
N311 N 0.51277 0.41291 0.20274 0.0
H312 H 0.52261 0.37438 0.16101 0.0
H313 H 0.53182 0.44219 0.18596 0.0
H314 H 0.54496 0.43736 0.16092 0.0
H315 H 0.54987 0.42997 0.20815 0.0
H316 H 0.57696 0.41367 0.22214 0.0
H317 H 0.50937 0.38093 0.22086 0.0
H318 H 0.5365 0.36402 0.23445 0.0
H319 H 0.4742 0.41493 0.19596 0.0
H320 H 0.522 0.45024 0.21607 0.0
H321 H 0.45158 0.44437 0.19837 0.0
H322 H 0.49917 0.47941 0.21946 0.0
H323 H 0.38204 0.53528 0.19377 0.0
H324 H 0.373 0.54841 0.16929 0.0
H325 H 0.43616 0.55571 0.15893 0.0
H326 H 0.44499 0.54308 0.18333 0.0
H327 H 0.44273 0.5674 0.20416 0.0
H328 H 0.43753 0.59959 0.21754 0.0
H329 H 0.39014 0.57054 0.24295 0.0
H330 H 0.39502 0.53844 0.22898 0.0
H331 H 0.40946 0.494 0.2116 0.0
H332 H 0.43243 0.46463 0.21385 0.0
H333 H 0.48297 0.50585 0.20665 0.0
N334 N 0.41853 0.53301 0.20563 0.0
H335 H 0.45994 0.53517 0.20574 0.0
C336 C 0.5195 0.41117 0.18769 0.0
C337 C 0.51685 0.39227 0.18038 0.0
C338 C 0.52441 0.38941 0.16617 0.0
C339 C 0.53482 0.40549 0.15895 0.0
C340 C 0.53719 0.42462 0.16623 0.0
C341 C 0.5296 0.42744 0.18049 0.0
C342 C 0.52751 0.40663 0.21351 0.0
C343 C 0.54662 0.41601 0.21431 0.0
C344 C 0.5622 0.40651 0.22219 0.0
C345 C 0.55905 0.38734 0.22926 0.0
C346 C 0.5395 0.37886 0.22931 0.0
C347 C 0.52393 0.38846 0.22152 0.0
C348 C 0.4997 0.4302 0.20589 0.0
C349 C 0.47964 0.42893 0.20123 0.0
C350 C 0.46669 0.44579 0.20275 0.0
C351 C 0.47339 0.46439 0.20924 0.0
C352 C 0.49348 0.4655 0.21423 0.0
C353 C 0.50658 0.44866 0.21244 0.0
C354 C 0.4141 0.53809 0.19046 0.0
C355 C 0.39389 0.53938 0.18609 0.0
C356 C 0.38878 0.54684 0.1721 0.0
C357 C 0.40387 0.55323 0.16219 0.0
C358 C 0.42417 0.5512 0.16638 0.0
C359 C 0.42925 0.54375 0.18037 0.0
C360 C 0.41904 0.55053 0.21547 0.0
C361 C 0.43156 0.56773 0.21283 0.0
C362 C 0.4286 0.5862 0.22058 0.0
C363 C 0.41318 0.58779 0.23119 0.0
C364 C 0.40184 0.57 0.23463 0.0
C365 C 0.40472 0.55159 0.22679 0.0
C366 C 0.43287 0.51664 0.20816 0.0
C367 C 0.42554 0.49664 0.21075 0.0
C368 C 0.43873 0.47986 0.21186 0.0
C369 C 0.45964 0.48267 0.21006 0.0
C370 C 0.46703 0.50297 0.20815 0.0
C371 C 0.45379 0.51983 0.2074 0.0
H372 H 0.3757 0.98994 0.43895 0.0
N373 N 0.40908 0.98762 0.45502 0.0
H374 H 0.3691 0.97358 0.41505 0.0
H375 H 0.43646 0.96638 0.43809 0.0
H376 H 0.43031 0.9507 0.41413 0.0
H377 H 0.4174 0.9463 0.45879 0.0
H378 H 0.40006 0.92318 0.47574 0.0
H379 H 0.38766 0.99887 0.47843 0.0
H380 H 0.37158 0.97609 0.49642 0.0
H381 H 0.40614 0.02845 0.45613 0.0
H382 H 0.44864 0.97841 0.46027 0.0
H383 H 0.43324 0.05361 0.45894 0.0
H384 H 0.47636 0.00331 0.46151 0.0
H385 H 0.52987 0.12653 0.44427 0.0
H386 H 0.54563 0.13207 0.42012 0.0
H387 H 0.54733 0.06585 0.41311 0.0
H388 H 0.53177 0.06043 0.43734 0.0
H389 H 0.55486 0.06553 0.4596 0.0
H390 H 0.58467 0.0727 0.47436 0.0
H391 H 0.55373 0.12404 0.49508 0.0
H392 H 0.52422 0.11726 0.47961 0.0
H393 H 0.48554 0.0934 0.44533 0.0
H394 H 0.45854 0.06808 0.4456 0.0
H395 H 0.4944 0.02842 0.47381 0.0
N396 N 0.52175 0.09061 0.45732 0.0
H397 H 0.52195 0.05308 0.47242 0.0
C398 C 0.40653 0.97958 0.44029 0.0
C399 C 0.38771 0.9816 0.43345 0.0
C400 C 0.38402 0.9723 0.41979 0.0
C401 C 0.39917 0.96076 0.41269 0.0
C402 C 0.41822 0.95923 0.41939 0.0
C403 C 0.42186 0.96846 0.43307 0.0
C404 C 0.4032 0.97429 0.46702 0.0
C405 C 0.40754 0.95295 0.46702 0.0
C406 C 0.39772 0.9397 0.47691 0.0
C407 C 0.38385 0.94762 0.48725 0.0
C408 C 0.38148 0.96928 0.48826 0.0
C409 C 0.39085 0.98241 0.47812 0.0
C410 C 0.42548 0.00171 0.45754 0.0
C411 C 0.42146 0.02297 0.45746 0.0
C412 C 0.43707 0.0373 0.45889 0.0
C413 C 0.45724 0.03065 0.46002 0.0
C414 C 0.46112 0.00916 0.46068 0.0
C415 C 0.44532 0.99482 0.4597 0.0
C416 C 0.52951 0.09318 0.44254 0.0
C417 C 0.53347 0.11326 0.43743 0.0
C418 C 0.54256 0.11637 0.42372 0.0
C419 C 0.54772 0.09937 0.4148 0.0
C420 C 0.54334 0.07921 0.41974 0.0
C421 C 0.53446 0.07611 0.43356 0.0
C422 C 0.5374 0.09113 0.46836 0.0
C423 C 0.55434 0.07807 0.46752 0.0
C424 C 0.57138 0.08213 0.47609 0.0
C425 C 0.57178 0.09921 0.48576 0.0
C426 C 0.55413 0.11107 0.4875 0.0
C427 C 0.53716 0.1071 0.47881 0.0
C428 C 0.50585 0.07539 0.45877 0.0
C429 C 0.48756 0.07922 0.45157 0.0
C430 C 0.472 0.06473 0.4519 0.0
C431 C 0.47402 0.04611 0.45988 0.0
C432 C 0.49229 0.04237 0.46735 0.0
C433 C 0.50812 0.05671 0.46668 0.0
H434 H 0.01499 0.88659 0.67786 0.0
N435 N 0.01971 0.91774 0.69659 0.0
H436 H 0.02978 0.88291 0.65325 0.0
H437 H 0.04216 0.94694 0.68219 0.0
H438 H 0.05703 0.94347 0.65756 0.0
H439 H 0.05679 0.93268 0.70444 0.0
H440 H 0.08111 0.91492 0.72035 0.0
H441 H 0.01234 0.88599 0.7143 0.0
H442 H 0.03642 0.86826 0.73035 0.0
H443 H 0.9803 0.91482 0.69358 0.0
H444 H 0.02733 0.95696 0.70667 0.0
H445 H 0.95522 0.94202 0.69692 0.0
H446 H 0.00223 0.9844 0.71051 0.0
H447 H 0.88833 0.00786 0.67989 0.0
H448 H 0.88059 0.01988 0.65486 0.0
H449 H 0.92523 0.06827 0.65943 0.0
H450 H 0.93235 0.05662 0.68437 0.0
H451 H 0.93544 0.05748 0.71021 0.0
H452 H 0.92141 0.08753 0.72301 0.0
H453 H 0.86377 0.05648 0.7257 0.0
H454 H 0.87772 0.0271 0.71209 0.0
H455 H 0.9111 0.98822 0.71187 0.0
H456 H 0.93798 0.96258 0.71453 0.0
H457 H 0.98044 0.0063 0.69601 0.0
N458 N 0.91341 0.02506 0.6992 0.0
H459 H 0.95373 0.03207 0.69418 0.0
C460 C 0.02752 0.91692 0.6818 0.0
C461 C 0.02398 0.89912 0.67338 0.0
C462 C 0.03236 0.89711 0.65934 0.0
C463 C 0.04456 0.91292 0.65347 0.0
C464 C 0.04784 0.93097 0.66185 0.0
C465 C 0.03931 0.933 0.6759 0.0
C466 C 0.03282 0.91042 0.70808 0.0
C467 C 0.0521 0.9189 0.7103 0.0
C468 C 0.06601 0.90871 0.71937 0.0
C469 C 0.06072 0.89012 0.7265 0.0
C470 C 0.04091 0.88265 0.72513 0.0
C471 C 0.02714 0.8927 0.71595 0.0
C472 C 0.00552 0.93387 0.6999 0.0
C473 C 0.98509 0.92993 0.69744 0.0
C474 C 0.9708 0.94548 0.69948 0.0
C475 C 0.97665 0.96542 0.70412 0.0
C476 C 0.99722 0.96927 0.70684 0.0
C477 C 0.01158 0.95361 0.70473 0.0
C478 C 0.91087 0.03123 0.68402 0.0
C479 C 0.89658 0.02089 0.67537 0.0
C480 C 0.89225 0.02774 0.66107 0.0
C481 C 0.90221 0.04513 0.65518 0.0
C482 C 0.91706 0.05504 0.66372 0.0
C483 C 0.9213 0.04822 0.678 0.0
C484 C 0.90741 0.04029 0.70992 0.0
C485 C 0.91989 0.05704 0.71374 0.0
C486 C 0.91185 0.07417 0.72119 0.0
C487 C 0.8913 0.07464 0.72509 0.0
C488 C 0.87948 0.0569 0.7225 0.0
C489 C 0.88746 0.03999 0.71489 0.0
C490 C 0.93024 0.01184 0.70257 0.0
C491 C 0.92632 0.99235 0.70871 0.0
C492 C 0.94167 0.9777 0.71008 0.0
C493 C 0.9613 0.98219 0.70515 0.0
C494 C 0.96552 0.00229 0.69993 0.0
C495 C 0.95014 0.01705 0.69873 0.0
C496 C 0.27629 0.6671 0.01894 0.0
O497 O 0.28635 0.66723 0.03142 0.0
O498 O 0.32722 0.65901 0.02469 0.0
Zn499 Zn 0.31585 0.67434 0.00719 0.0
O500 O 0.32826 0.66241 0.98877 0.0
C501 C 0.31491 0.71831 0.01597 0.0
O502 O 0.29999 0.71302 0.02473 0.0
O503 O 0.28569 0.67036 0.00692 0.0
C504 C 0.34644 0.66728 0.98601 0.0
O505 O 0.35603 0.67951 0.99523 0.0
C506 C 0.34188 0.66539 0.03248 0.0
O507 O 0.35061 0.68306 0.02914 0.0
O508 O 0.32319 0.70461 0.00794 0.0
C509 C 0.29262 0.85117 0.24223 0.0
O510 O 0.30479 0.86338 0.23479 0.0
O511 O 0.34492 0.84905 0.23708 0.0
Zn512 Zn 0.33014 0.83566 0.25397 0.0
O513 O 0.33733 0.85104 0.27258 0.0
C514 C 0.34256 0.79556 0.24382 0.0
O515 O 0.34022 0.80461 0.23094 0.0
O516 O 0.30009 0.83773 0.25092 0.0
C517 C 0.34988 0.8441 0.28195 0.0
O518 O 0.35845 0.82603 0.27963 0.0
C519 C 0.36407 0.84923 0.23694 0.0
O520 O 0.37392 0.84056 0.24789 0.0
O521 O 0.33864 0.80572 0.25548 0.0
C522 C 0.21182 0.83135 0.51551 0.0
O523 O 0.20164 0.82886 0.52782 0.0
O524 O 0.15983 0.84181 0.51986 0.0
Zn525 Zn 0.17233 0.82764 0.50233 0.0
O526 O 0.16195 0.84193 0.48406 0.0
C527 C 0.16058 0.78789 0.51406 0.0
O528 O 0.16294 0.79758 0.52669 0.0
O529 O 0.20249 0.83085 0.50326 0.0
C530 C 0.14878 0.83392 0.47562 0.0
O531 O 0.14184 0.8153 0.47857 0.0
C532 C 0.14077 0.84235 0.52116 0.0
O533 O 0.12958 0.83351 0.51099 0.0
O534 O 0.16432 0.79748 0.50212 0.0
C535 C 0.21398 0.65878 0.75037 0.0
O536 O 0.20672 0.66257 0.73715 0.0
O537 O 0.16291 0.65149 0.74065 0.0
Zn538 Zn 0.1724 0.66413 0.75968 0.0
O539 O 0.15898 0.64941 0.77657 0.0
C540 C 0.17161 0.70801 0.75176 0.0
O541 O 0.18379 0.70238 0.74106 0.0
O542 O 0.20225 0.65936 0.76145 0.0
C543 C 0.16627 0.65181 0.78941 0.0
O544 O 0.18197 0.66399 0.79114 0.0
C545 C 0.14744 0.65758 0.73363 0.0
O546 O 0.13681 0.67314 0.73883 0.0
O547 O 0.16529 0.69444 0.76082 0.0
C548 C 0.77667 0.15918 0.51146 0.0
O549 O 0.78538 0.16041 0.52444 0.0
O550 O 0.82853 0.15538 0.51933 0.0
Zn551 Zn 0.81684 0.16847 0.50113 0.0
O552 O 0.83116 0.15679 0.48345 0.0
C553 C 0.81285 0.21224 0.50942 0.0
O554 O 0.79821 0.20585 0.51806 0.0
O555 O 0.78712 0.16231 0.4999 0.0
C556 C 0.84964 0.16147 0.48186 0.0
O557 O 0.85833 0.17336 0.49176 0.0
C558 C 0.83031 0.13578 0.52 0.0
O559 O 0.82438 0.12451 0.50872 0.0
O560 O 0.82217 0.19917 0.50146 0.0
C561 C 0.78136 0.33452 0.74325 0.0
O562 O 0.79181 0.33326 0.73097 0.0
O563 O 0.83421 0.33684 0.73942 0.0
Zn564 Zn 0.81957 0.32354 0.75641 0.0
O565 O 0.83129 0.33405 0.77545 0.0
C566 C 0.81383 0.27978 0.74876 0.0
O567 O 0.79789 0.28626 0.7415 0.0
O568 O 0.78998 0.33054 0.75546 0.0
C569 C 0.83886 0.35205 0.77677 0.0
O570 O 0.8385 0.36477 0.76545 0.0
C571 C 0.85315 0.33448 0.73827 0.0
O572 O 0.86267 0.32337 0.74822 0.0
O573 O 0.82455 0.2928 0.75575 0.0
C574 C 0.70195 0.36043 0.00921 0.0
O575 O 0.68895 0.37566 0.01069 0.0
O576 O 0.65115 0.34908 0.02178 0.0
Zn577 Zn 0.66568 0.33778 0.00398 0.0
O578 O 0.65701 0.35266 0.98548 0.0
C579 C 0.66952 0.29434 0.00995 0.0
O580 O 0.68389 0.30118 0.01864 0.0
O581 O 0.69546 0.34231 0.00643 0.0
C582 C 0.64009 0.36165 0.98396 0.0
O583 O 0.62705 0.36123 0.99485 0.0
C584 C 0.63422 0.34155 0.02557 0.0
O585 O 0.62632 0.32655 0.01764 0.0
O586 O 0.65969 0.30726 0.00218 0.0
C587 C 0.71785 0.15875 0.24882 0.0
O588 O 0.70925 0.15949 0.23577 0.0
O589 O 0.66611 0.15192 0.24101 0.0
Zn590 Zn 0.67708 0.16558 0.25929 0.0
O591 O 0.66435 0.15331 0.27747 0.0
C592 C 0.67853 0.20948 0.25106 0.0
O593 O 0.69327 0.20387 0.24225 0.0
O594 O 0.70713 0.16135 0.26031 0.0
C595 C 0.64694 0.14508 0.27742 0.0
O596 O 0.63687 0.14384 0.26498 0.0
C597 C 0.66758 0.13246 0.2391 0.0
O598 O 0.67627 0.12112 0.24932 0.0
O599 O 0.66999 0.19591 0.25908 0.0
C600 C 0.12456 0.90893 0.27308 0.0
C601 C 0.12273 0.92928 0.26765 0.0
C602 C 0.13914 0.89552 0.26739 0.0
C603 C 0.17776 0.88899 0.23779 0.0
H604 H 0.20896 0.86484 0.26962 0.0
C605 C 0.26251 0.87111 0.23354 0.0
C606 C 0.27057 0.85453 0.24169 0.0
C607 C 0.24201 0.87587 0.2344 0.0
C608 C 0.20025 0.87102 0.26052 0.0
H609 H 0.13351 0.95075 0.25101 0.0
H610 H 0.15933 0.9276 0.24137 0.0
H611 H 0.17674 0.88079 0.27497 0.0
H612 H 0.26315 0.82905 0.25636 0.0
H613 H 0.22732 0.83722 0.25774 0.0
H614 H 0.20185 0.87986 0.22344 0.0
C615 C 0.14944 0.92193 0.24998 0.0
C616 C 0.18169 0.88019 0.2636 0.0
C617 C 0.13478 0.93531 0.25562 0.0
C618 C 0.25747 0.84208 0.25007 0.0
C619 C 0.23694 0.84681 0.2509 0.0
C620 C 0.19638 0.87978 0.2347 0.0
C621 C 0.15231 0.90216 0.2562 0.0
C622 C 0.17043 0.88973 0.25234 0.0
C623 C 0.22908 0.8641 0.2434 0.0
C624 C 0.20807 0.87115 0.24611 0.0
H625 H 0.11565 0.90373 0.28238 0.0
H626 H 0.14071 0.88025 0.27223 0.0
H627 H 0.16932 0.89596 0.22885 0.0
H628 H 0.27217 0.88096 0.22692 0.0
H629 H 0.23653 0.88942 0.2286 0.0
C630 C 0.07448 0.61948 0.52047 0.0
C631 C 0.08838 0.60367 0.52376 0.0
C632 C 0.08117 0.63933 0.51663 0.0
C633 C 0.10017 0.68165 0.52178 0.0
H634 H 0.14747 0.6923 0.49779 0.0
C635 C 0.14594 0.75694 0.52679 0.0
C636 C 0.15236 0.76657 0.5137 0.0
C637 C 0.13729 0.73721 0.52644 0.0
C638 C 0.13412 0.68961 0.5044 0.0
H639 H 0.12027 0.59629 0.52506 0.0
H640 H 0.13182 0.63066 0.51819 0.0
H641 H 0.13322 0.65736 0.49873 0.0
H642 H 0.15497 0.76289 0.48997 0.0
H643 H 0.13993 0.72832 0.4894 0.0
H644 H 0.1012 0.71379 0.52762 0.0
C645 C 0.11576 0.62769 0.51845 0.0
C646 C 0.12605 0.66959 0.50501 0.0
C647 C 0.10909 0.60792 0.52235 0.0
C648 C 0.1502 0.75589 0.50026 0.0
C649 C 0.14164 0.73607 0.49992 0.0
C650 C 0.1083 0.70161 0.52123 0.0
C651 C 0.1019 0.64376 0.51593 0.0
C652 C 0.10916 0.66534 0.51389 0.0
C653 C 0.13493 0.72661 0.513 0.0
C654 C 0.12555 0.70573 0.51273 0.0
H655 H 0.05842 0.61666 0.52122 0.0
H656 H 0.07013 0.65134 0.51454 0.0
H657 H 0.08728 0.67885 0.52884 0.0
H658 H 0.1474 0.76471 0.53733 0.0
H659 H 0.13255 0.73018 0.53673 0.0
C660 C 0.39152 0.60563 0.76281 0.0
C661 C 0.39457 0.5967 0.77678 0.0
C662 C 0.37206 0.61054 0.75799 0.0
C663 C 0.31776 0.60158 0.76641 0.0
H664 H 0.31046 0.65526 0.74785 0.0
C665 C 0.24159 0.64365 0.76573 0.0
C666 C 0.23515 0.65211 0.75224 0.0
C667 C 0.26116 0.63606 0.76729 0.0
C668 C 0.3123 0.64013 0.75287 0.0
H669 H 0.37959 0.58579 0.79659 0.0
H670 H 0.34588 0.59446 0.78831 0.0
H671 H 0.34445 0.64255 0.75279 0.0
H672 H 0.24437 0.65971 0.72991 0.0
H673 H 0.2788 0.6467 0.73277 0.0
H674 H 0.28556 0.59956 0.76697 0.0
C675 C 0.35836 0.59726 0.78088 0.0
C676 C 0.33177 0.63278 0.75564 0.0
C677 C 0.37774 0.59227 0.78564 0.0
C678 C 0.24888 0.65325 0.74044 0.0
C679 C 0.26858 0.64586 0.74207 0.0
C680 C 0.29834 0.60901 0.76377 0.0
C681 C 0.35527 0.60672 0.76708 0.0
C682 C 0.33472 0.61357 0.76269 0.0
C683 C 0.2748 0.63695 0.75546 0.0
C684 C 0.29542 0.6285 0.7572 0.0
H685 H 0.4042 0.60906 0.75569 0.0
H686 H 0.3702 0.61752 0.74721 0.0
H687 H 0.31946 0.58652 0.77156 0.0
H688 H 0.23141 0.64253 0.77504 0.0
H689 H 0.26566 0.62954 0.77781 0.0
C690 C 0.40091 0.88289 0.03751 0.0
C691 C 0.41916 0.88273 0.02962 0.0
C692 C 0.3857 0.86864 0.03424 0.0
C693 C 0.3691 0.82871 0.00714 0.0
H694 H 0.34906 0.80077 0.04209 0.0
C695 C 0.33879 0.74518 0.00643 0.0
C696 C 0.3228 0.73979 0.01587 0.0
C697 C 0.34717 0.76502 0.00687 0.0
C698 C 0.35415 0.80862 0.0322 0.0
H699 H 0.43505 0.86853 0.01132 0.0
H700 H 0.40874 0.84334 0.00582 0.0
H701 H 0.36952 0.83179 0.04471 0.0
H702 H 0.30262 0.75128 0.03282 0.0
H703 H 0.31726 0.78604 0.03356 0.0
H704 H 0.35423 0.80501 0.99467 0.0
C705 C 0.4061 0.85456 0.0145 0.0
C706 C 0.36589 0.82646 0.0337 0.0
C707 C 0.4213 0.86886 0.01775 0.0
C708 C 0.315 0.7549 0.02547 0.0
C709 C 0.32342 0.77478 0.02592 0.0
C710 C 0.35735 0.81083 0.00564 0.0
C711 C 0.3884 0.85384 0.02303 0.0
C712 C 0.37386 0.83649 0.0212 0.0
C713 C 0.33979 0.77997 0.01676 0.0
C714 C 0.35011 0.80033 0.01818 0.0
H715 H 0.39877 0.89322 0.0468 0.0
H716 H 0.37211 0.86872 0.04086 0.0
H717 H 0.37475 0.83624 0.99729 0.0
H718 H 0.34517 0.73393 0.99888 0.0
H719 H 0.35993 0.76838 -0.00019 0.0
C720 C 0.1198 0.57089 0.0092 0.0
C721 C 0.1126 0.57318 0.99472 0.0
C722 C 0.13389 0.58488 0.01492 0.0
C723 C 0.16081 0.63483 0.00684 0.0
H724 H 0.20493 0.60742 0.02699 0.0
C725 C 0.24334 0.66291 0.00575 0.0
C726 C 0.25473 0.66126 0.01877 0.0
C727 C 0.22354 0.65554 0.00527 0.0
C728 C 0.19259 0.61541 0.02161 0.0
H729 H 0.11392 0.59235 0.97508 0.0
H730 H 0.13867 0.61634 0.98483 0.0
H731 H 0.17407 0.58839 0.02208 0.0
H732 H 0.25401 0.65137 0.04166 0.0
H733 H 0.21953 0.63822 0.0407 0.0
H734 H 0.18008 0.66149 0.00563 0.0
C735 C 0.13317 0.60415 0.992 0.0
C736 C 0.17481 0.60453 0.01884 0.0
C737 C 0.11895 0.59033 0.98637 0.0
C738 C 0.24566 0.65281 0.03144 0.0
C739 C 0.22595 0.64523 0.0309 0.0
C740 C 0.17874 0.64563 0.00945 0.0
C741 C 0.14129 0.60128 0.00619 0.0
C742 C 0.15885 0.61392 0.0111 0.0
C743 C 0.21483 0.6462 0.01774 0.0
C744 C 0.19494 0.63587 0.01659 0.0
H745 H 0.115 0.55791 0.01592 0.0
H746 H 0.13946 0.58244 0.02601 0.0
H747 H 0.1487 0.64271 0.00113 0.0
H748 H 0.24987 0.66943 0.99582 0.0
H749 H 0.21537 0.65633 0.99494 0.0
C750 C 0.42213 0.62352 0.24037 0.0
C751 C 0.40745 0.60841 0.23726 0.0
C752 C 0.41646 0.64379 0.24397 0.0
C753 C 0.39968 0.68699 0.23837 0.0
H754 H 0.35279 0.70059 0.26203 0.0
C755 C 0.35696 0.76391 0.23187 0.0
C756 C 0.35056 0.77418 0.24471 0.0
C757 C 0.36508 0.74397 0.23267 0.0
C758 C 0.36605 0.69707 0.25552 0.0
H759 H 0.37523 0.60273 0.23601 0.0
H760 H 0.36545 0.63783 0.24244 0.0
H761 H 0.36535 0.66496 0.26158 0.0
H762 H 0.34755 0.7715 0.26848 0.0
H763 H 0.36165 0.73654 0.26984 0.0
H764 H 0.40023 0.719 0.23213 0.0
C765 C 0.38134 0.634 0.24224 0.0
C766 C 0.37314 0.67666 0.25518 0.0
C767 C 0.38698 0.6138 0.23858 0.0
C768 C 0.35231 0.76399 0.25837 0.0
C769 C 0.36033 0.74396 0.25916 0.0
C770 C 0.39253 0.70735 0.23865 0.0
C771 C 0.396 0.64935 0.2446 0.0
C772 C 0.38984 0.67134 0.24641 0.0
C773 C 0.36691 0.73379 0.24632 0.0
C774 C 0.37542 0.71254 0.24702 0.0
H775 H 0.43802 0.61982 0.23968 0.0
H776 H 0.4281 0.65524 0.24594 0.0
H777 H 0.41245 0.68337 0.23139 0.0
H778 H 0.35582 0.77129 0.22117 0.0
H779 H 0.36972 0.73641 0.22255 0.0
C780 C 0.37633 0.9134 0.49983 0.0
C781 C 0.37016 0.93343 0.49556 0.0
C782 C 0.36243 0.89927 0.50571 0.0
C783 C 0.31164 0.89515 0.5223 0.0
H784 H 0.3072 0.84369 0.5004 0.0
C785 C 0.24288 0.84189 0.52938 0.0
C786 C 0.23344 0.83701 0.51593 0.0
C787 C 0.26252 0.84976 0.52958 0.0
C788 C 0.30836 0.8579 0.50672 0.0
H789 H 0.34437 0.95422 0.49457 0.0
H790 H 0.32067 0.93004 0.50521 0.0
H791 H 0.33657 0.86601 0.49675 0.0
H792 H 0.23768 0.83533 0.49222 0.0
H793 H 0.27184 0.84909 0.49257 0.0
H794 H 0.28298 0.88768 0.53167 0.0
C795 C 0.33625 0.92527 0.50408 0.0
C796 C 0.32526 0.87057 0.50474 0.0
C797 C 0.34998 0.93923 0.49802 0.0
C798 C 0.24446 0.83905 0.50277 0.0
C799 C 0.26412 0.84678 0.50298 0.0
C800 C 0.29485 0.88243 0.52436 0.0
C801 C 0.34219 0.90502 0.50768 0.0
C802 C 0.32668 0.88968 0.5121 0.0
C803 C 0.27317 0.85274 0.51634 0.0
C804 C 0.29268 0.86403 0.5162 0.0
H805 H 0.39178 0.90844 0.49835 0.0
H806 H 0.36741 0.88376 0.50848 0.0
H807 H 0.31245 0.90974 0.5282 0.0
H808 H 0.23484 0.84039 0.53973 0.0
H809 H 0.26918 0.85403 0.54006 0.0
C810 C 0.09449 0.87291 0.72643 0.0
C811 C 0.07624 0.87704 0.73373 0.0
C812 C 0.10747 0.8575 0.73162 0.0
C813 C 0.10443 0.80892 0.75256 0.0
H814 H 0.16233 0.80817 0.7468 0.0
C815 C 0.15058 0.73535 0.76392 0.0
C816 C 0.16405 0.72958 0.75267 0.0
C817 C 0.14208 0.75516 0.76413 0.0
C818 C 0.14617 0.80816 0.74845 0.0
H819 H 0.05811 0.86955 0.75288 0.0
H820 H 0.08098 0.8429 0.76216 0.0
H821 H 0.14368 0.84049 0.7433 0.0
H822 H 0.17981 0.74041 0.73316 0.0
H823 H 0.16478 0.77493 0.73343 0.0
H824 H 0.10677 0.77658 0.75735 0.0
C825 C 0.085 0.85117 0.75218 0.0
C826 C 0.13548 0.82666 0.74645 0.0
C827 C 0.07195 0.86648 0.74692 0.0
C828 C 0.16944 0.74434 0.74196 0.0
C829 C 0.16093 0.76418 0.74217 0.0
C830 C 0.1151 0.79051 0.7546 0.0
C831 C 0.10254 0.84595 0.74428 0.0
C832 C 0.11442 0.82717 0.74822 0.0
C833 C 0.14685 0.76966 0.75309 0.0
C834 C 0.13603 0.78981 0.75232 0.0
H835 H 0.09811 0.88061 0.71614 0.0
H836 H 0.12072 0.8538 0.72516 0.0
H837 H 0.0882 0.80857 0.75373 0.0
H838 H 0.14623 0.72443 0.77243 0.0
H839 H 0.13151 0.75901 0.77281 0.0
C840 C 0.62071 0.42513 0.76022 0.0
C841 C 0.62722 0.44461 0.76539 0.0
C842 C 0.63451 0.41099 0.75424 0.0
C843 C 0.68607 0.40647 0.73899 0.0
H844 H 0.68697 0.3526 0.75801 0.0
C845 C 0.75184 0.34981 0.72985 0.0
C846 C 0.76038 0.34234 0.74302 0.0
C847 C 0.73287 0.35926 0.72994 0.0
C848 C 0.68683 0.36752 0.75252 0.0
H849 H 0.65351 0.46443 0.76794 0.0
H850 H 0.67711 0.44024 0.75717 0.0
H851 H 0.65854 0.37597 0.7622 0.0
H852 H 0.75523 0.3379 0.76645 0.0
H853 H 0.72225 0.35446 0.7666 0.0
H854 H 0.71478 0.39853 0.72989 0.0
C855 C 0.66134 0.43592 0.75765 0.0
C856 C 0.67046 0.3808 0.7548 0.0
C857 C 0.64769 0.44989 0.76378 0.0
C858 C 0.74913 0.34358 0.75612 0.0
C859 C 0.73014 0.35293 0.75619 0.0
C860 C 0.70235 0.39316 0.73664 0.0
C861 C 0.65501 0.41617 0.7531 0.0
C862 C 0.67026 0.40068 0.74844 0.0
C863 C 0.722 0.36131 0.74317 0.0
C864 C 0.70321 0.3738 0.74375 0.0
H865 H 0.60504 0.4206 0.76104 0.0
H866 H 0.62921 0.39589 0.75071 0.0
H867 H 0.68622 0.42164 0.73386 0.0
H868 H 0.76005 0.34898 0.71954 0.0
H869 H 0.7269 0.36537 0.7197 0.0
C870 C 0.63057 0.11179 0.03162 0.0
C871 C 0.61199 0.10458 0.0262 0.0
C872 C 0.63724 0.13178 0.02841 0.0
C873 C 0.6304 0.17664 0.00366 0.0
H874 H 0.652 0.20711 0.03699 0.0
C875 C 0.64679 0.2651 0.00238 0.0
C876 C 0.66399 0.27211 0.00996 0.0
C877 C 0.64086 0.24432 0.00328 0.0
C878 C 0.64629 0.19876 0.02751 0.0
H879 H 0.58618 0.11261 0.01267 0.0
H880 H 0.59778 0.14783 0.0072 0.0
H881 H 0.64084 0.17154 0.04033 0.0
H882 H 0.68887 0.26262 0.02394 0.0
H883 H 0.67871 0.22641 0.02531 0.0
H884 H 0.63586 0.20403 0.99085 0.0
C885 C 0.60721 0.13783 0.01388 0.0
C886 C 0.63986 0.17835 0.02943 0.0
C887 C 0.60049 0.11774 0.01711 0.0
C888 C 0.67544 0.25778 0.01808 0.0
C889 C 0.66956 0.23703 0.01893 0.0
C890 C 0.6369 0.19712 0.00172 0.0
C891 C 0.62548 0.14518 0.01975 0.0
C892 C 0.63196 0.167 0.01753 0.0
C893 C 0.65201 0.23011 0.01175 0.0
C894 C 0.64503 0.20837 0.01362 0.0
H895 H 0.6397 0.10227 0.03884 0.0
H896 H 0.65152 0.13687 0.03292 0.0
H897 H 0.6245 0.16823 0.99426 0.0
H898 H 0.63762 0.27576 0.99604 0.0
H899 H 0.62718 0.23955 0.99771 0.0
C900 C 0.88718 0.08999 0.26654 0.0
C901 C 0.90212 0.10425 0.27082 0.0
C902 C 0.86817 0.09689 0.26203 0.0
C903 C 0.8345 0.14161 0.26716 0.0
H904 H 0.80182 0.11419 0.23757 0.0
C905 C 0.74865 0.15265 0.26416 0.0
C906 C 0.7396 0.15408 0.25018 0.0
C907 C 0.76901 0.14756 0.26551 0.0
C908 C 0.81083 0.12217 0.24575 0.0
H909 H 0.90892 0.13704 0.2731 0.0
H910 H 0.87614 0.14898 0.26478 0.0
H911 H 0.83685 0.10365 0.24103 0.0
H912 H 0.74494 0.1515 0.22663 0.0
H913 H 0.7806 0.14281 0.229 0.0
H914 H 0.80861 0.16021 0.27185 0.0
C915 C 0.87897 0.13245 0.26518 0.0
C916 C 0.83083 0.11597 0.24784 0.0
C917 C 0.89791 0.12557 0.26975 0.0
C918 C 0.75144 0.15049 0.23757 0.0
C919 C 0.77184 0.14539 0.23892 0.0
C920 C 0.81455 0.14779 0.26508 0.0
C921 C 0.8637 0.1182 0.26166 0.0
C922 C 0.84284 0.12551 0.25867 0.0
C923 C 0.78084 0.1438 0.25292 0.0
C924 C 0.8024 0.13798 0.25448 0.0
H925 H 0.88999 0.07346 0.26704 0.0
H926 H 0.85673 0.08548 0.25945 0.0
H927 H 0.84321 0.14912 0.27574 0.0
H928 H 0.73996 0.15524 0.27411 0.0
H929 H 0.77539 0.14617 0.27647 0.0
C930 C 0.89479 0.37585 0.53861 0.0
C931 C 0.91326 0.37657 0.53101 0.0
C932 C 0.87973 0.36196 0.53436 0.0
C933 C 0.86418 0.3246 0.50511 0.0
H934 H 0.84335 0.29342 0.53838 0.0
C935 C 0.83553 0.24066 0.5006 0.0
C936 C 0.81961 0.23411 0.50973 0.0
C937 C 0.84322 0.26074 0.50175 0.0
C938 C 0.84864 0.30219 0.52895 0.0
H939 H 0.92969 0.36437 0.51223 0.0
H940 H 0.90367 0.33971 0.50507 0.0
H941 H 0.86341 0.32428 0.54275 0.0
H942 H 0.79865 0.24388 0.52672 0.0
H943 H 0.81207 0.27903 0.52869 0.0
H944 H 0.84994 0.30191 0.49134 0.0
C945 C 0.90074 0.35 0.51426 0.0
C946 C 0.86016 0.31995 0.53145 0.0
C947 C 0.91578 0.36398 0.51847 0.0
C948 C 0.81101 0.24838 0.51961 0.0
C949 C 0.81874 0.26849 0.52077 0.0
C950 C 0.85264 0.30679 0.5026 0.0
C951 C 0.88281 0.34835 0.52246 0.0
C952 C 0.86843 0.33113 0.51958 0.0
C953 C 0.8352 0.27476 0.51206 0.0
C954 C 0.84512 0.29513 0.51451 0.0
H955 H 0.89233 0.38517 0.54838 0.0
H956 H 0.86595 0.36134 0.54075 0.0
H957 H 0.87008 0.33304 0.49572 0.0
H958 H 0.84247 0.23009 0.49282 0.0
H959 H 0.85605 0.26496 0.49499 0.0
C960 C 0.60568 0.09155 0.4971 0.0
C961 C 0.59114 0.10605 0.49248 0.0
C962 C 0.62499 0.09804 0.50122 0.0
C963 C 0.6599 0.1413 0.49426 0.0
H964 H 0.69256 0.1147 0.52426 0.0
C965 C 0.7459 0.15165 0.49639 0.0
C966 C 0.75503 0.15384 0.51028 0.0
C967 C 0.72555 0.14635 0.49526 0.0
C968 C 0.68357 0.12243 0.51594 0.0
H969 H 0.5854 0.13891 0.48927 0.0
H970 H 0.61865 0.15017 0.49697 0.0
H971 H 0.65719 0.1049 0.52149 0.0
H972 H 0.74992 0.15224 0.53391 0.0
H973 H 0.71432 0.14324 0.53192 0.0
H974 H 0.6861 0.15897 0.48878 0.0
C975 C 0.61528 0.13374 0.49709 0.0
C976 C 0.66337 0.11667 0.51426 0.0
C977 C 0.59606 0.12726 0.49289 0.0
C978 C 0.74335 0.15064 0.52303 0.0
C979 C 0.72297 0.14536 0.5219 0.0
C980 C 0.68004 0.14706 0.49595 0.0
C981 C 0.63017 0.11919 0.50086 0.0
C982 C 0.65133 0.12595 0.50333 0.0
C983 C 0.71383 0.14316 0.50799 0.0
C984 C 0.69218 0.13756 0.5067 0.0
H985 H 0.60233 0.07512 0.49712 0.0
H986 H 0.6361 0.0864 0.50403 0.0
H987 H 0.65119 0.14858 0.48559 0.0
H988 H 0.75448 0.15389 0.48635 0.0
H989 H 0.71907 0.14446 0.48437 0.0
C990 C 0.89179 0.10805 0.7396 0.0
C991 C 0.88168 0.09423 0.73015 0.0
C992 C 0.88332 0.12735 0.74305 0.0
C993 C 0.84739 0.16526 0.72783 0.0
H994 H 0.85041 0.19056 0.76657 0.0
C995 C 0.80866 0.24318 0.7402 0.0
C996 C 0.81998 0.25773 0.74822 0.0
C997 C 0.81514 0.22262 0.73907 0.0
C998 C 0.84958 0.18374 0.75567 0.0
H999 H 0.85455 0.08987 0.7171 0.0
H1000 H 0.83966 0.12301 0.72344 0.0
H1001 H 0.86387 0.15566 0.76281 0.0
H1002 H 0.84676 0.26194 0.76166 0.0
H1003 H 0.85813 0.22618 0.75953 0.0
H1004 H 0.83336 0.1933 0.7206 0.0
C1005 C 0.85423 0.1191 0.72805 0.0
C1006 C 0.8573 0.16377 0.75352 0.0
C1007 C 0.86267 0.09992 0.7246 0.0
C1008 C 0.83766 0.25113 0.75538 0.0
C1009 C 0.84414 0.23059 0.75425 0.0
C1010 C 0.8397 0.18517 0.72997 0.0
C1011 C 0.86461 0.13322 0.73707 0.0
C1012 C 0.85628 0.15432 0.73957 0.0
C1013 C 0.83309 0.21615 0.74593 0.0
C1014 C 0.84071 0.19467 0.7439 0.0
H1015 H 0.90637 0.1041 0.74417 0.0
H1016 H 0.89174 0.13793 0.74998 0.0
H1017 H 0.84673 0.15861 0.71687 0.0
H1018 H 0.79491 0.24771 0.73462 0.0
H1019 H 0.80612 0.21179 0.73276 0.0
C1020 C 0.88319 0.38358 0.99085 0.0
C1021 C 0.88895 0.40455 0.99018 0.0
C1022 C 0.86387 0.37801 0.99547 0.0
C1023 C 0.81746 0.39721 0.0138 0.0
H1024 H 0.79157 0.35633 0.98879 0.0
C1025 C 0.7311 0.3849 0.01168 0.0
C1026 C 0.72388 0.36457 0.00984 0.0
C1027 C 0.75178 0.38901 0.01125 0.0
C1028 C 0.79863 0.36751 0.99605 0.0
H1029 H 0.8792 0.43602 0.99469 0.0
H1030 H 0.84525 0.42631 0.00241 0.0
H1031 H 0.82678 0.36491 0.98479 0.0
H1032 H 0.73275 0.33249 0.00669 0.0
H1033 H 0.7688 0.33964 0.00607 0.0
H1034 H 0.78903 0.40005 0.02486 0.0
C1035 C 0.85578 0.41416 -0.00054 0.0
C1036 C 0.81886 0.37244 0.99376 0.0
C1037 C 0.87517 0.41975 0.99488 0.0
C1038 C 0.7378 0.34835 0.00803 0.0
C1039 C 0.75847 0.35246 0.0076 0.0
C1040 C 0.79716 0.39228 0.01609 0.0
C1041 C 0.84976 0.39325 -0.00055 0.0
C1042 C 0.82851 0.38742 0.00254 0.0
C1043 C 0.76568 0.37288 0.00897 0.0
C1044 C 0.78749 0.37745 0.00717 0.0
H1045 H 0.89326 0.37144 0.98716 0.0
H1046 H 0.85983 0.36174 0.99556 0.0
H1047 H 0.82451 0.40867 0.02085 0.0
H1048 H 0.72078 0.39775 0.01312 0.0
H1049 H 0.75682 0.40493 0.01219 0.0
C1050 C 0.57424 0.36189 0.24718 0.0
C1051 C 0.57635 0.37488 0.23481 0.0
C1052 C 0.58918 0.34741 0.2507 0.0
C1053 C 0.62842 0.3173 0.23183 0.0
H1054 H 0.64041 0.29756 0.27127 0.0
C1055 C 0.67886 0.24586 0.24121 0.0
C1056 C 0.671 0.2311 0.25106 0.0
C1057 C 0.67063 0.2658 0.2405 0.0
C1058 C 0.63719 0.3029 0.26019 0.0
H1059 H 0.59655 0.38363 0.217 0.0
H1060 H 0.62279 0.35901 0.22346 0.0
H1061 H 0.62027 0.32896 0.26805 0.0
H1062 H 0.64885 0.22598 0.26832 0.0
H1063 H 0.63442 0.26059 0.26696 0.0
H1064 H 0.64482 0.29102 0.22395 0.0
C1065 C 0.60937 0.35966 0.23024 0.0
C1066 C 0.62565 0.32088 0.25834 0.0
C1067 C 0.5944 0.37403 0.22667 0.0
C1068 C 0.65523 0.23695 0.26056 0.0
C1069 C 0.64705 0.25687 0.25987 0.0
C1070 C 0.63997 0.2994 0.23368 0.0
C1071 C 0.60662 0.34567 0.24196 0.0
C1072 C 0.62081 0.32807 0.24413 0.0
C1073 C 0.65441 0.27142 0.24966 0.0
C1074 C 0.64416 0.29175 0.24787 0.0
H1075 H 0.56068 0.36235 0.25383 0.0
H1076 H 0.58651 0.33685 0.25978 0.0
H1077 H 0.6247 0.32213 0.22072 0.0
H1078 H 0.69108 0.2419 0.23381 0.0
H1079 H 0.67679 0.27675 0.23264 0.0
C1080 C 0.08412 0.92025 0.3641 0.0
C1081 C 0.09113 0.94077 0.36297 0.0
C1082 C 0.08802 0.90851 0.37675 0.0
C1083 C 0.10458 0.91275 0.41584 0.0
H1084 H 0.12226 0.85601 0.41004 0.0
C1085 C 0.14658 0.86652 0.46069 0.0
C1086 C 0.14094 0.84572 0.46285 0.0
C1087 C 0.13892 0.87781 0.44879 0.0
C1088 C 0.11711 0.87175 0.41186 0.0
H1089 H 0.10693 0.96531 0.37454 0.0
H1090 H 0.11418 0.94473 0.39639 0.0
H1091 H 0.11112 0.8764 0.38891 0.0
H1092 H 0.12289 0.82046 0.45417 0.0
H1093 H 0.10959 0.84021 0.43334 0.0
H1094 H 0.11106 0.90819 0.43875 0.0
C1095 C 0.1055 0.93772 0.38758 0.0
C1096 C 0.11067 0.88343 0.39976 0.0
C1097 C 0.10156 0.94946 0.37497 0.0
C1098 C 0.12755 0.83645 0.45281 0.0
C1099 C 0.11999 0.84772 0.44085 0.0
C1100 C 0.11112 0.9011 0.42791 0.0
C1101 C 0.09902 0.91701 0.38856 0.0
C1102 C 0.10452 0.90415 0.40158 0.0
C1103 C 0.12555 0.86854 0.43875 0.0
C1104 C 0.11766 0.88055 0.42603 0.0
H1105 H 0.07617 0.91303 0.35502 0.0
H1106 H 0.08258 0.89269 0.37723 0.0
H1107 H 0.0996 0.92854 0.41767 0.0
H1108 H 0.15687 0.87414 0.46821 0.0
H1109 H 0.14369 0.89375 0.44735 0.0
C1110 C 0.08422 0.58008 0.619 0.0
C1111 C 0.09479 0.56247 0.61412 0.0
C1112 C 0.0897 0.59007 0.63206 0.0
C1113 C 0.13249 0.59724 0.65732 0.0
H1114 H 0.09156 0.61666 0.68456 0.0
C1115 C 0.15231 0.62969 0.71477 0.0
C1116 C 0.14139 0.64695 0.71985 0.0
C1117 C 0.14655 0.61941 0.70189 0.0
C1118 C 0.10316 0.61157 0.67698 0.0
H1119 H 0.11922 0.54135 0.61931 0.0
H1120 H 0.12887 0.5589 0.64211 0.0
H1121 H 0.08155 0.59831 0.6622 0.0
H1122 H 0.11595 0.66707 0.7153 0.0
H1123 H 0.10605 0.64928 0.69267 0.0
H1124 H 0.15411 0.61059 0.67202 0.0
C1125 C 0.11646 0.56508 0.63572 0.0
C1126 C 0.09743 0.60101 0.66419 0.0
C1127 C 0.11093 0.55503 0.62266 0.0
C1128 C 0.12464 0.65377 0.71171 0.0
C1129 C 0.11889 0.6435 0.69879 0.0
C1130 C 0.13823 0.60783 0.67009 0.0
C1131 C 0.10594 0.58275 0.64053 0.0
C1132 C 0.11203 0.59372 0.65422 0.0
C1133 C 0.12977 0.62618 0.69374 0.0
C1134 C 0.12363 0.61511 0.68008 0.0
H1135 H 0.07196 0.58648 0.61255 0.0
H1136 H 0.0815 0.60384 0.63536 0.0
H1137 H 0.14408 0.59211 0.64974 0.0
H1138 H 0.16526 0.62397 0.72079 0.0
H1139 H 0.15509 0.60595 0.69843 0.0
C1140 C 0.41749 0.60026 0.87016 0.0
C1141 C 0.43545 0.61008 0.86585 0.0
C1142 C 0.40804 0.60563 0.88341 0.0
C1143 C 0.40559 0.64823 0.91072 0.0
H1144 H 0.37917 0.60702 0.93517 0.0
C1145 C 0.37596 0.66708 0.96886 0.0
C1146 C 0.35663 0.65976 0.97251 0.0
C1147 C 0.38553 0.66045 0.95599 0.0
C1148 C 0.38634 0.61871 0.92838 0.0
H1149 H 0.45801 0.63264 0.87226 0.0
H1150 H 0.44175 0.64179 0.89549 0.0
H1151 H 0.39638 0.59626 0.91262 0.0
H1152 H 0.33231 0.6395 0.96557 0.0
H1153 H 0.34913 0.62787 0.94304 0.0
H1154 H 0.39571 0.67064 0.92655 0.0
C1155 C 0.43465 0.63031 0.88848 0.0
C1156 C 0.39618 0.61257 0.91545 0.0
C1157 C 0.44401 0.62504 0.8752 0.0
C1158 C 0.34719 0.64545 0.96307 0.0
C1159 C 0.35686 0.6387 0.95021 0.0
C1160 C 0.39587 0.65434 0.92367 0.0
C1161 C 0.41641 0.62087 0.89267 0.0
C1162 C 0.40597 0.62726 0.90648 0.0
C1163 C 0.37607 0.64626 0.94649 0.0
C1164 C 0.38617 0.63966 0.93266 0.0
H1165 H 0.41042 0.58884 0.86309 0.0
H1166 H 0.39389 0.59823 0.88619 0.0
H1167 H 0.41258 0.66003 0.90393 0.0
H1168 H 0.38369 0.67807 0.9759 0.0
H1169 H 0.40044 0.66634 0.95351 0.0
C1170 C 0.46583 0.90588 0.13124 0.0
C1171 C 0.45412 0.91426 0.11978 0.0
C1172 C 0.4571 0.90108 0.14484 0.0
C1173 C 0.41153 0.90961 0.1679 0.0
H1174 H 0.42658 0.85666 0.18495 0.0
C1175 C 0.36457 0.86847 0.21292 0.0
C1176 C 0.37508 0.85858 0.2244 0.0
C1177 C 0.37495 0.87684 0.2009 0.0
C1178 C 0.42241 0.87162 0.18045 0.0
H1179 H 0.42417 0.92458 0.1137 0.0
H1180 H 0.40886 0.91605 0.13738 0.0
H1181 H 0.44352 0.86883 0.16276 0.0
H1182 H 0.40476 0.84999 0.23237 0.0
H1183 H 0.42286 0.86461 0.21138 0.0
H1184 H 0.39008 0.9121 0.18549 0.0
C1185 C 0.42487 0.91349 0.13596 0.0
C1186 C 0.43214 0.87863 0.16774 0.0
C1187 C 0.43363 0.91837 0.12237 0.0
C1188 C 0.39621 0.85744 0.22368 0.0
C1189 C 0.40658 0.86574 0.21163 0.0
C1190 C 0.40173 0.90254 0.1806 0.0
C1191 C 0.43643 0.90447 0.14727 0.0
C1192 C 0.42674 0.89764 0.16125 0.0
C1193 C 0.39606 0.87541 0.20007 0.0
C1194 C 0.40698 0.88341 0.18695 0.0
H1195 H 0.48174 0.90283 0.12962 0.0
H1196 H 0.46652 0.89454 0.15341 0.0
H1197 H 0.4072 0.92446 0.16331 0.0
H1198 H 0.34829 0.86961 0.21314 0.0
H1199 H 0.3664 0.88399 0.19208 0.0
C1200 C 0.11906 0.56131 0.90257 0.0
C1201 C 0.10104 0.54988 0.90245 0.0
C1202 C 0.12533 0.57209 0.89005 0.0
C1203 C 0.10726 0.59388 0.85471 0.0
H1204 H 0.16428 0.594 0.84528 0.0
C1205 C 0.1402 0.62843 0.80064 0.0
C1206 C 0.15773 0.6405 0.80217 0.0
C1207 C 0.13256 0.61729 0.81265 0.0
C1208 C 0.14833 0.59426 0.84784 0.0
H1209 H 0.07536 0.5409 0.88914 0.0
H1210 H 0.08646 0.5596 0.86709 0.0
H1211 H 0.15226 0.57436 0.86646 0.0
H1212 H 0.1808 0.65057 0.81755 0.0
H1213 H 0.16749 0.63113 0.83843 0.0
H1214 H 0.10342 0.61372 0.83592 0.0
C1215 C 0.09561 0.56041 0.87697 0.0
C1216 C 0.14143 0.58303 0.85999 0.0
C1217 C 0.08927 0.54967 0.88957 0.0
C1218 C 0.16731 0.64138 0.81598 0.0
C1219 C 0.15975 0.63015 0.82793 0.0
C1220 C 0.11417 0.60505 0.84247 0.0
C1221 C 0.11379 0.57165 0.87705 0.0
C1222 C 0.12085 0.58289 0.86368 0.0
C1223 C 0.14238 0.61788 0.82637 0.0
C1224 C 0.13481 0.60552 0.83902 0.0
H1225 H 0.12824 0.56214 0.91244 0.0
H1226 H 0.13916 0.58098 0.89063 0.0
H1227 H 0.09134 0.59429 0.85733 0.0
H1228 H 0.13245 0.62746 0.79015 0.0
H1229 H 0.11921 0.60787 0.8111 0.0
C1230 C 0.40883 0.58088 0.14308 0.0
C1231 C 0.39845 0.56313 0.14793 0.0
C1232 C 0.4032 0.59089 0.13005 0.0
C1233 C 0.36001 0.59747 0.10495 0.0
H1234 H 0.40023 0.62047 0.07855 0.0
C1235 C 0.33899 0.63446 0.04906 0.0
C1236 C 0.34884 0.65301 0.04526 0.0
C1237 C 0.34535 0.62284 0.06121 0.0
C1238 C 0.38882 0.6143 0.08589 0.0
H1239 H 0.37433 0.54169 0.14269 0.0
H1240 H 0.36452 0.55915 0.11988 0.0
H1241 H 0.41089 0.60092 0.10024 0.0
H1242 H 0.37316 0.67386 0.05122 0.0
H1243 H 0.38417 0.65364 0.0725 0.0
H1244 H 0.33795 0.61092 0.09065 0.0
C1245 C 0.37684 0.56549 0.12629 0.0
C1246 C 0.39493 0.60309 0.09831 0.0
C1247 C 0.38247 0.55547 0.13934 0.0
C1248 C 0.36527 0.65963 0.05383 0.0
C1249 C 0.37165 0.64798 0.06598 0.0
C1250 C 0.35391 0.60865 0.09253 0.0
C1251 C 0.38706 0.58341 0.12155 0.0
C1252 C 0.38059 0.59463 0.10803 0.0
C1253 C 0.36172 0.62949 0.06983 0.0
C1254 C 0.36824 0.61728 0.08289 0.0
H1255 H 0.42097 0.58741 0.14957 0.0
H1256 H 0.41118 0.60484 0.12686 0.0
H1257 H 0.34858 0.59146 0.11234 0.0
H1258 H 0.32631 0.62887 0.04267 0.0
H1259 H 0.33753 0.60854 0.06377 0.0
C1260 C 0.40237 0.92948 0.39637 0.0
C1261 C 0.39487 0.94962 0.39867 0.0
C1262 C 0.39788 0.91869 0.38343 0.0
C1263 C 0.36077 0.91612 0.35339 0.0
H1264 H 0.40205 0.88395 0.33356 0.0
C1265 C 0.34689 0.87636 0.29721 0.0
C1266 C 0.35501 0.85642 0.2952 0.0
C1267 C 0.35191 0.8881 0.30963 0.0
C1268 C 0.3903 0.89266 0.33906 0.0
H1269 H 0.37704 0.97433 0.389 0.0
H1270 H 0.36909 0.95537 0.36642 0.0
H1271 H 0.4107 0.90396 0.35549 0.0
H1272 H 0.37466 0.83313 0.30475 0.0
H1273 H 0.38316 0.85347 0.32653 0.0
H1274 H 0.34031 0.90466 0.33708 0.0
C1275 C 0.37829 0.94789 0.37473 0.0
C1276 C 0.39527 0.90416 0.3516 0.0
C1277 C 0.38284 0.95874 0.38767 0.0
C1278 C 0.3682 0.84846 0.30593 0.0
C1279 C 0.37317 0.86018 0.31837 0.0
C1280 C 0.35578 0.90457 0.34087 0.0
C1281 C 0.38571 0.92772 0.3725 0.0
C1282 C 0.38055 0.91596 0.35894 0.0
C1283 C 0.36512 0.88016 0.32036 0.0
C1284 C 0.37047 0.89264 0.33358 0.0
H1285 H 0.41135 0.92183 0.40473 0.0
H1286 H 0.40357 0.90305 0.38214 0.0
H1287 H 0.34903 0.92482 0.35892 0.0
H1288 H 0.33674 0.883 0.28913 0.0
H1289 H 0.34564 0.90353 0.31072 0.0
C1290 C 0.07494 0.91487 0.63704 0.0
C1291 C 0.05445 0.91004 0.63892 0.0
C1292 C 0.08471 0.91037 0.62375 0.0
C1293 C 0.07585 0.89757 0.58447 0.0
H1294 H 0.12712 0.86904 0.58756 0.0
C1295 C 0.11033 0.85181 0.53603 0.0
C1296 C 0.13133 0.8524 0.53411 0.0
C1297 C 0.10142 0.86089 0.54841 0.0
C1298 C 0.11298 0.87729 0.58646 0.0
H1299 H 0.0279 0.89761 0.62815 0.0
H1300 H 0.04497 0.88959 0.60501 0.0
H1301 H 0.11072 0.88194 0.60978 0.0
H1302 H 0.15944 0.86329 0.54357 0.0
H1303 H 0.14387 0.87937 0.56508 0.0
H1304 H 0.07801 0.89273 0.56117 0.0
C1305 C 0.05349 0.89691 0.61377 0.0
C1306 C 0.10358 0.88469 0.59921 0.0
C1307 C 0.04376 0.90131 0.62707 0.0
C1308 C 0.14322 0.86248 0.54475 0.0
C1309 C 0.1343 0.87161 0.55712 0.0
C1310 C 0.08529 0.89024 0.57171 0.0
C1311 C 0.07415 0.90107 0.61205 0.0
C1312 C 0.08479 0.89468 0.59838 0.0
C1313 C 0.1133 0.87083 0.55914 0.0
C1314 C 0.10384 0.87977 0.57258 0.0
H1315 H 0.08361 0.92148 0.64601 0.0
H1316 H 0.10059 0.91395 0.6227 0.0
H1317 H 0.06151 0.90547 0.58346 0.0
H1318 H 0.10074 0.84412 0.52806 0.0
H1319 H 0.08524 0.85972 0.54972 0.0
C1320 C 0.62072 0.4504 0.86533 0.0
C1321 C 0.60199 0.45995 0.86285 0.0
C1322 C 0.62462 0.44019 0.87862 0.0
C1323 C 0.59917 0.41563 0.91032 0.0
H1324 H 0.6516 0.42098 0.92883 0.0
C1325 C 0.61663 0.38271 0.96829 0.0
C1326 C 0.63535 0.37284 0.97013 0.0
C1327 C 0.61231 0.39354 0.95531 0.0
C1328 C 0.63695 0.41917 0.92372 0.0
H1329 H 0.57278 0.46659 0.87249 0.0
H1330 H 0.57961 0.4488 0.89573 0.0
H1331 H 0.64455 0.43978 0.90607 0.0
H1332 H 0.66415 0.36647 0.95973 0.0
H1333 H 0.65654 0.38522 0.93707 0.0
H1334 H 0.59161 0.39499 0.92798 0.0
C1335 C 0.59118 0.44895 0.8873 0.0
C1336 C 0.63291 0.42994 0.91068 0.0
C1337 C 0.58727 0.45915 0.87399 0.0
C1338 C 0.64961 0.37395 0.95869 0.0
C1339 C 0.6453 0.3848 0.94573 0.0
C1340 C 0.60321 0.40487 0.92337 0.0
C1341 C 0.60989 0.43931 0.88975 0.0
C1342 C 0.61401 0.42822 0.90379 0.0
C1343 C 0.62663 0.39477 0.94391 0.0
C1344 C 0.62218 0.40645 0.93018 0.0
H1345 H 0.63226 0.45043 0.85687 0.0
H1346 H 0.63907 0.43264 0.88005 0.0
H1347 H 0.58456 0.41375 0.90518 0.0
H1348 H 0.60533 0.38218 0.97691 0.0
H1349 H 0.59787 0.40123 0.9543 0.0
C1350 C 0.61128 0.04205 0.12659 0.0
C1351 C 0.60598 0.05614 0.11539 0.0
C1352 C 0.61709 0.0492 0.14054 0.0
C1353 C 0.61339 0.09466 0.16505 0.0
H1354 H 0.66109 0.072 0.18377 0.0
C1355 C 0.65177 0.13514 0.2141 0.0
C1356 C 0.65969 0.12277 0.22547 0.0
C1357 C 0.64448 0.12608 0.20117 0.0
C1358 C 0.64756 0.07829 0.17881 0.0
H1359 H 0.60309 0.08882 0.11003 0.0
H1360 H 0.61292 0.10118 0.13432 0.0
H1361 H 0.64949 0.05762 0.16035 0.0
H1362 H 0.66603 0.09117 0.23223 0.0
H1363 H 0.65302 0.07533 0.20971 0.0
H1364 H 0.61142 0.11534 0.18343 0.0
C1365 C 0.6123 0.08461 0.1324 0.0
C1366 C 0.64093 0.07005 0.16539 0.0
C1367 C 0.60662 0.0775 0.11847 0.0
C1368 C 0.66009 0.10113 0.22365 0.0
C1369 C 0.65273 0.09206 0.21071 0.0
C1370 C 0.61995 0.10282 0.17849 0.0
C1371 C 0.6176 0.07056 0.14358 0.0
C1372 C 0.62393 0.07834 0.15828 0.0
C1373 C 0.64485 0.10444 0.19931 0.0
C1374 C 0.63727 0.09493 0.18543 0.0
H1375 H 0.61074 0.02549 0.12464 0.0
H1376 H 0.62093 0.038 0.14899 0.0
H1377 H 0.60003 0.10113 0.15996 0.0
H1378 H 0.65134 0.15187 0.21511 0.0
H1379 H 0.63885 0.13611 0.19251 0.0
C1380 C 0.95228 0.11959 0.37294 0.0
C1381 C 0.94286 0.10553 0.36331 0.0
C1382 C 0.94323 0.12489 0.38635 0.0
C1383 C 0.90391 0.10778 0.41286 0.0
H1384 H 0.90505 0.16532 0.42524 0.0
C1385 C 0.85238 0.14029 0.45875 0.0
C1386 C 0.86112 0.15412 0.46888 0.0
C1387 C 0.86315 0.13373 0.44634 0.0
C1388 C 0.9048 0.14915 0.42202 0.0
H1389 H 0.91648 0.0862 0.36011 0.0
H1390 H 0.90062 0.09557 0.38338 0.0
H1391 H 0.92256 0.155 0.40277 0.0
H1392 H 0.88807 0.17177 0.47399 0.0
H1393 H 0.90681 0.16033 0.45233 0.0
H1394 H 0.88582 0.10205 0.43201 0.0
C1395 C 0.9152 0.10217 0.38076 0.0
C1396 C 0.91487 0.14322 0.40916 0.0
C1397 C 0.92428 0.0968 0.36741 0.0
C1398 C 0.88089 0.16114 0.46639 0.0
C1399 C 0.8916 0.15467 0.45394 0.0
C1400 C 0.89376 0.11373 0.42568 0.0
C1401 C 0.92451 0.11633 0.39038 0.0
C1402 C 0.91446 0.12248 0.40438 0.0
C1403 C 0.88282 0.14096 0.44376 0.0
C1404 C 0.89402 0.1345 0.43036 0.0
H1405 H 0.96671 0.12638 0.37014 0.0
H1406 H 0.95096 0.13561 0.3936 0.0
H1407 H 0.90358 0.09161 0.40964 0.0
H1408 H 0.83718 0.13459 0.46035 0.0
H1409 H 0.85592 0.12331 0.43861 0.0
C1410 C 0.95664 0.3933 0.63415 0.0
C1411 C 0.94554 0.40331 0.62304 0.0
C1412 C 0.94753 0.38795 0.64751 0.0
C1413 C 0.9026 0.39726 0.67099 0.0
H1414 H 0.91425 0.34187 0.68531 0.0
C1415 C 0.85416 0.35587 0.71517 0.0
C1416 C 0.86431 0.344 0.72586 0.0
C1417 C 0.86468 0.36448 0.70329 0.0
C1418 C 0.91103 0.35749 0.68159 0.0
H1419 H 0.91634 0.41609 0.61737 0.0
H1420 H 0.90036 0.40666 0.64068 0.0
H1421 H 0.93169 0.35491 0.6636 0.0
H1422 H 0.89351 0.33219 0.73258 0.0
H1423 H 0.91183 0.34729 0.7119 0.0
H1424 H 0.88166 0.39963 0.68892 0.0
C1425 C 0.91619 0.40316 0.63915 0.0
C1426 C 0.92105 0.36499 0.66915 0.0
C1427 C 0.92533 0.40857 0.62579 0.0
C1428 C 0.88522 0.34115 0.7245 0.0
C1429 C 0.89571 0.34973 0.71262 0.0
C1430 C 0.89253 0.38973 0.68345 0.0
C1431 C 0.92708 0.39243 0.65005 0.0
C1432 C 0.91692 0.38493 0.66366 0.0
C1433 C 0.88555 0.36138 0.70182 0.0
C1434 C 0.89658 0.36972 0.68885 0.0
H1435 H 0.97233 0.38934 0.63244 0.0
H1436 H 0.95646 0.38009 0.6558 0.0
H1437 H 0.89924 0.41279 0.66715 0.0
H1438 H 0.83805 0.35837 0.71589 0.0
H1439 H 0.85637 0.37318 0.69507 0.0
C1440 C 0.55176 0.09275 0.38767 0.0
C1441 C 0.55825 0.10274 0.40059 0.0
C1442 C 0.5615 0.09643 0.37424 0.0
C1443 C 0.59557 0.13438 0.35606 0.0
H1444 H 0.60261 0.09045 0.32729 0.0
C1445 C 0.64627 0.14379 0.30501 0.0
C1446 C 0.6376 0.13824 0.29142 0.0
C1447 C 0.6368 0.13853 0.31825 0.0
C1448 C 0.60063 0.10287 0.3352 0.0
H1449 H 0.58042 0.12376 0.40975 0.0
H1450 H 0.59778 0.12977 0.38648 0.0
H1451 H 0.58576 0.08299 0.35067 0.0
H1452 H 0.61256 0.12223 0.28108 0.0
H1453 H 0.59615 0.11281 0.3043 0.0
H1454 H 0.61079 0.15412 0.34068 0.0
C1455 C 0.58478 0.11962 0.38653 0.0
C1456 C 0.59091 0.09865 0.34857 0.0
C1457 C 0.57489 0.11614 0.39989 0.0
C1458 C 0.61957 0.12679 0.29137 0.0
C1459 C 0.61023 0.12131 0.30464 0.0
C1460 C 0.60546 0.13851 0.34279 0.0
C1461 C 0.5781 0.11 0.37349 0.0
C1462 C 0.58829 0.11436 0.35919 0.0
C1463 C 0.61861 0.1274 0.3182 0.0
C1464 C 0.60812 0.12281 0.33225 0.0
H1465 H 0.53887 0.08244 0.38791 0.0
H1466 H 0.55577 0.08895 0.3644 0.0
H1467 H 0.59343 0.14699 0.36378 0.0
H1468 H 0.66015 0.1526 0.30544 0.0
H1469 H 0.64369 0.14322 0.32856 0.0
C1470 C 0.89475 0.07514 0.63848 0.0
C1471 C 0.89646 0.0536 0.64053 0.0
C1472 C 0.8888 0.08325 0.62489 0.0
C1473 C 0.86133 0.06969 0.59103 0.0
H1474 H 0.8867 0.1194 0.57569 0.0
C1475 C 0.8409 0.10413 0.53404 0.0
C1476 C 0.83881 0.1258 0.53331 0.0
C1477 C 0.84881 0.09471 0.54666 0.0
C1478 C 0.87935 0.10562 0.57989 0.0
H1479 H 0.89352 0.0237 0.6298 0.0
H1480 H 0.88303 0.0379 0.60601 0.0
H1481 H 0.89918 0.10391 0.59846 0.0
H1482 H 0.84338 0.15456 0.54527 0.0
H1483 H 0.85697 0.13811 0.56732 0.0
H1484 H 0.84135 0.07154 0.57254 0.0
C1485 C 0.88613 0.04848 0.61501 0.0
C1486 C 0.88651 0.09673 0.59292 0.0
C1487 C 0.89214 0.04035 0.62862 0.0
C1488 C 0.84485 0.13784 0.54546 0.0
C1489 C 0.85276 0.12842 0.55806 0.0
C1490 C 0.85415 0.07859 0.57798 0.0
C1491 C 0.88436 0.07003 0.61301 0.0
C1492 C 0.87745 0.07878 0.59872 0.0
C1493 C 0.85482 0.10674 0.55883 0.0
C1494 C 0.86296 0.09677 0.57234 0.0
H1495 H 0.89756 0.08578 0.6475 0.0
H1496 H 0.88722 0.0999 0.6238 0.0
H1497 H 0.85386 0.05602 0.59531 0.0
H1498 H 0.83645 0.09441 0.52486 0.0
H1499 H 0.85041 0.078 0.54684 0.0
C1500 C 0.93408 0.41073 0.8855 0.0
C1501 C 0.93187 0.39754 0.89776 0.0
C1502 C 0.92479 0.40597 0.87208 0.0
C1503 C 0.90257 0.36279 0.85094 0.0
H1504 H 0.87362 0.4063 0.83035 0.0
C1505 C 0.84871 0.34474 0.80292 0.0
C1506 C 0.84903 0.35808 0.79065 0.0
C1507 C 0.85906 0.34992 0.81581 0.0
C1508 C 0.88185 0.39403 0.83586 0.0
H1509 H 0.91812 0.36899 0.90547 0.0
H1510 H 0.90215 0.3606 0.88204 0.0
H1511 H 0.89196 0.41445 0.85295 0.0
H1512 H 0.86029 0.38745 0.78238 0.0
H1513 H 0.87857 0.39636 0.80484 0.0
H1514 H 0.89254 0.34237 0.83388 0.0
C1515 C 0.91124 0.37451 0.88277 0.0
C1516 C 0.89235 0.39871 0.8488 0.0
C1517 C 0.92045 0.37931 0.8962 0.0
C1518 C 0.85969 0.37686 0.79165 0.0
C1519 C 0.87011 0.38201 0.80455 0.0
C1520 C 0.89214 0.35813 0.83798 0.0
C1521 C 0.91317 0.38787 0.8706 0.0
C1522 C 0.9027 0.3831 0.85654 0.0
C1523 C 0.87004 0.36852 0.81674 0.0
C1524 C 0.88152 0.37366 0.83034 0.0
H1525 H 0.94301 0.42475 0.88627 0.0
H1526 H 0.92677 0.41642 0.86283 0.0
H1527 H 0.91066 0.3505 0.85653 0.0
H1528 H 0.84055 0.33021 0.80256 0.0
H1529 H 0.85838 0.33936 0.82509 0.0
C1530 C 0.53337 0.39017 0.13352 0.0
C1531 C 0.54379 0.40186 0.14416 0.0
C1532 C 0.5425 0.38513 0.12011 0.0
C1533 C 0.58401 0.39896 0.0949 0.0
H1534 H 0.5797 0.34148 0.08272 0.0
C1535 C 0.63263 0.36412 0.04806 0.0
C1536 C 0.62344 0.34961 0.03864 0.0
C1537 C 0.62252 0.37139 0.06057 0.0
C1538 C 0.58083 0.35766 0.08582 0.0
H1539 H 0.57181 0.4179 0.14885 0.0
H1540 H 0.58766 0.40925 0.12534 0.0
H1541 H 0.56242 0.35307 0.10492 0.0
H1542 H 0.59628 0.33169 0.0348 0.0
H1543 H 0.57854 0.34462 0.05642 0.0
H1544 H 0.60241 0.40354 0.07576 0.0
C1545 C 0.57238 0.40409 0.12738 0.0
C1546 C 0.57093 0.36429 0.09856 0.0
C1547 C 0.56328 0.40907 0.14084 0.0
C1548 C 0.60385 0.34274 0.04189 0.0
C1549 C 0.59371 0.35008 0.05434 0.0
C1550 C 0.59385 0.39234 0.08209 0.0
C1551 C 0.56221 0.39175 0.117 0.0
C1552 C 0.57242 0.38499 0.10325 0.0
C1553 C 0.60297 0.36437 0.06389 0.0
C1554 C 0.59239 0.37159 0.07741 0.0
H1555 H 0.5182 0.38472 0.13562 0.0
H1556 H 0.53415 0.37592 0.11221 0.0
H1557 H 0.58529 0.41505 0.09818 0.0
H1558 H 0.64775 0.36968 0.04588 0.0
H1559 H 0.6302 0.38219 0.06779 0.0
loop_
_geom_bond_atom_site_label_1
_geom_bond_atom_site_label_2
_geom_bond_distance
_geom_bond_site_symmetry_2
_ccdc_geom_bond_type
H0 C27 0.929 . S
N1 C26 1.433 . S
N1 C32 1.435 . S
N1 C38 1.423 . S
H2 C28 0.930 . S
H3 C31 0.931 . S
H4 C30 0.929 . S
H5 C33 0.930 . S
H6 C34 0.932 . S
H7 C37 0.929 . S
H8 C36 0.931 . S
H9 C39 0.929 . S
H10 C43 0.932 . S
H11 C40 0.931 . S
H12 C42 0.929 . S
H13 C45 0.929 . S
H14 C46 0.930 . S
H15 C48 0.929 . S
H16 C49 0.931 . S
H17 C51 0.930 . S
H18 C52 0.932 . S
H19 C54 0.931 . S
H20 C55 0.929 . S
H21 C57 0.929 . S
H22 C58 0.931 1_455 S
H23 C60 0.929 . S
N24 C44 1.433 . S
N24 C50 1.435 . S
N24 C56 1.423 . S
H25 C61 0.932 . S
C26 N1 1.433 . S
C26 C27 1.363 . S
C26 C31 1.370 . S
C27 H0 0.929 . S
C27 C26 1.363 . S
C27 C28 1.385 . S
C28 H2 0.930 . S
C28 C27 1.385 . S
C28 C29 1.357 . S
C29 C28 1.357 . S
C29 C30 1.406 . S
C30 H4 0.929 . S
C30 C29 1.406 . S
C30 C31 1.391 . S
C31 H3 0.931 . S
C31 C26 1.370 . S
C31 C30 1.391 . S
C32 N1 1.435 . S
C32 C33 1.358 . S
C32 C37 1.371 . S
C33 H5 0.930 . S
C33 C32 1.358 . S
C33 C34 1.405 . S
C34 H6 0.932 . S
C34 C33 1.405 . S
C34 C35 1.383 . S
C35 C34 1.383 . S
C35 C36 1.393 . S
C36 H8 0.931 . S
C36 C35 1.393 . S
C36 C37 1.382 . S
C37 H7 0.929 . S
C37 C32 1.371 . S
C37 C36 1.382 . S
C38 N1 1.423 . S
C38 C39 1.362 . S
C38 C43 1.388 . S
C39 H9 0.929 . S
C39 C38 1.362 . S
C39 C40 1.376 1_565 S
C40 H11 0.931 . S
C40 C39 1.376 1_545 S
C40 C41 1.396 . S
C41 C40 1.396 . S
C41 C42 1.348 1_545 S
C41 C59 1.468 . S
C42 H12 0.929 . S
C42 C41 1.348 1_565 S
C42 C43 1.443 . S
C43 H10 0.932 . S
C43 C38 1.388 . S
C43 C42 1.443 . S
C44 N24 1.433 . S
C44 C45 1.363 . S
C44 C49 1.370 . S
C45 H13 0.929 . S
C45 C44 1.363 . S
C45 C46 1.385 . S
C46 H14 0.930 . S
C46 C45 1.385 . S
C46 C47 1.357 . S
C47 C46 1.357 . S
C47 C48 1.406 . S
C48 H15 0.929 . S
C48 C47 1.406 . S
C48 C49 1.391 . S
C49 H16 0.931 . S
C49 C44 1.370 . S
C49 C48 1.391 . S
C50 N24 1.435 . S
C50 C51 1.358 . S
C50 C55 1.371 . S
C51 H17 0.930 . S
C51 C50 1.358 . S
C51 C52 1.405 . S
C52 H18 0.932 . S
C52 C51 1.405 . S
C52 C53 1.383 . S
C53 C52 1.383 . S
C53 C54 1.393 . S
C54 H19 0.931 . S
C54 C53 1.393 . S
C54 C55 1.382 . S
C55 H20 0.929 . S
C55 C50 1.371 . S
C55 C54 1.382 . S
C56 N24 1.423 . S
C56 C57 1.362 . S
C56 C61 1.388 . S
C57 H21 0.929 . S
C57 C56 1.362 . S
C57 C58 1.376 . S
C58 H22 0.931 1_655 S
C58 C57 1.376 . S
C58 C59 1.396 1_655 S
C59 C41 1.468 . S
C59 C58 1.396 1_455 S
C59 C60 1.352 1_455 S
C60 H23 0.929 . S
C60 C59 1.352 1_655 S
C60 C61 1.443 . S
C61 H25 0.932 . S
C61 C56 1.388 . S
C61 C60 1.443 . S
H62 C89 0.929 . S
N63 C88 1.433 . S
N63 C94 1.435 . S
N63 C100 1.423 . S
H64 C90 0.930 . S
H65 C93 0.931 . S
H66 C92 0.929 . S
H67 C95 0.930 . S
H68 C96 0.932 . S
H69 C99 0.929 . S
H70 C98 0.931 . S
H71 C101 0.929 . S
H72 C105 0.932 . S
H73 C102 0.931 . S
H74 C104 0.929 . S
H75 C107 0.929 . S
H76 C108 0.930 . S
H77 C110 0.929 . S
H78 C111 0.931 . S
H79 C113 0.930 . S
H80 C114 0.932 . S
H81 C116 0.931 . S
H82 C117 0.929 . S
H83 C119 0.929 . S
H84 C120 0.931 . S
H85 C122 0.929 . S
N86 C106 1.433 . S
N86 C112 1.435 . S
N86 C118 1.423 . S
H87 C123 0.932 . S
C88 N63 1.433 . S
C88 C89 1.363 . S
C88 C93 1.370 . S
C89 H62 0.929 . S
C89 C88 1.363 . S
C89 C90 1.385 . S
C90 H64 0.930 . S
C90 C89 1.385 . S
C90 C91 1.357 . S
C91 C90 1.357 . S
C91 C92 1.406 . S
C92 H66 0.929 . S
C92 C91 1.406 . S
C92 C93 1.391 . S
C93 H65 0.931 . S
C93 C88 1.370 . S
C93 C92 1.391 . S
C94 N63 1.435 . S
C94 C95 1.358 . S
C94 C99 1.371 . S
C95 H67 0.930 . S
C95 C94 1.358 . S
C95 C96 1.405 . S
C96 H68 0.932 . S
C96 C95 1.405 . S
C96 C97 1.383 . S
C97 C96 1.383 . S
C97 C98 1.393 . S
C98 H70 0.931 . S
C98 C97 1.393 . S
C98 C99 1.382 . S
C99 H69 0.929 . S
C99 C94 1.371 . S
C99 C98 1.382 . S
C100 N63 1.423 . S
C100 C101 1.362 . S
C100 C105 1.388 . S
C101 H71 0.929 . S
C101 C100 1.362 . S
C101 C102 1.376 1_655 S
C102 H73 0.931 . S
C102 C101 1.376 1_455 S
C102 C103 1.396 . S
C103 C102 1.396 . S
C103 C104 1.348 1_455 S
C103 C121 1.472 . S
C104 H74 0.929 . S
C104 C103 1.348 1_655 S
C104 C105 1.443 . S
C105 H72 0.932 . S
C105 C100 1.388 . S
C105 C104 1.443 . S
C106 N86 1.433 . S
C106 C107 1.363 . S
C106 C111 1.370 . S
C107 H75 0.929 . S
C107 C106 1.363 . S
C107 C108 1.385 . S
C108 H76 0.930 . S
C108 C107 1.385 . S
C108 C109 1.357 . S
C109 C108 1.357 . S
C109 C110 1.406 . S
C110 H77 0.929 . S
C110 C109 1.406 . S
C110 C111 1.391 . S
C111 H78 0.931 . S
C111 C106 1.370 . S
C111 C110 1.391 . S
C112 N86 1.435 . S
C112 C113 1.358 . S
C112 C117 1.371 . S
C113 H79 0.930 . S
C113 C112 1.358 . S
C113 C114 1.405 . S
C114 H80 0.932 . S
C114 C113 1.405 . S
C114 C115 1.383 . S
C115 C114 1.383 . S
C115 C116 1.393 . S
C116 H81 0.931 . S
C116 C115 1.393 . S
C116 C117 1.382 . S
C117 H82 0.929 . S
C117 C112 1.371 . S
C117 C116 1.382 . S
C118 N86 1.423 . S
C118 C119 1.362 . S
C118 C123 1.388 . S
C119 H83 0.929 . S
C119 C118 1.362 . S
C119 C120 1.376 . S
C120 H84 0.931 . S
C120 C119 1.376 . S
C120 C121 1.396 . S
C121 C103 1.472 . S
C121 C120 1.396 . S
C121 C122 1.348 . S
C122 H85 0.929 . S
C122 C121 1.348 . S
C122 C123 1.443 . S
C123 H87 0.932 . S
C123 C118 1.388 . S
C123 C122 1.443 . S
H124 C151 0.929 . S
N125 C150 1.433 . S
N125 C156 1.435 . S
N125 C162 1.423 . S
H126 C152 0.930 . S
H127 C155 0.931 . S
H128 C154 0.929 . S
H129 C157 0.930 . S
H130 C158 0.932 . S
H131 C161 0.929 . S
H132 C160 0.931 . S
H133 C163 0.929 . S
H134 C167 0.932 . S
H135 C164 0.931 . S
H136 C166 0.929 . S
H137 C169 0.929 . S
H138 C170 0.930 . S
H139 C172 0.929 . S
H140 C173 0.931 . S
H141 C175 0.930 . S
H142 C176 0.932 . S
H143 C178 0.931 . S
H144 C179 0.929 . S
H145 C181 0.929 . S
H146 C182 0.931 . S
H147 C184 0.929 . S
N148 C168 1.433 . S
N148 C174 1.435 . S
N148 C180 1.423 . S
H149 C185 0.932 . S
C150 N125 1.433 . S
C150 C151 1.363 . S
C150 C155 1.370 . S
C151 H124 0.929 . S
C151 C150 1.363 . S
C151 C152 1.385 . S
C152 H126 0.930 . S
C152 C151 1.385 . S
C152 C153 1.357 . S
C153 C152 1.357 . S
C153 C154 1.406 . S
C154 H128 0.929 . S
C154 C153 1.406 . S
C154 C155 1.391 . S
C155 H127 0.931 . S
C155 C150 1.370 . S
C155 C154 1.391 . S
C156 N125 1.435 . S
C156 C157 1.358 . S
C156 C161 1.371 . S
C157 H129 0.930 . S
C157 C156 1.358 . S
C157 C158 1.405 . S
C158 H130 0.932 . S
C158 C157 1.405 . S
C158 C159 1.383 . S
C159 C158 1.383 . S
C159 C160 1.393 . S
C160 H132 0.931 . S
C160 C159 1.393 . S
C160 C161 1.382 . S
C161 H131 0.929 . S
C161 C156 1.371 . S
C161 C160 1.382 . S
C162 N125 1.423 . S
C162 C163 1.362 . S
C162 C167 1.388 . S
C163 H133 0.929 . S
C163 C162 1.362 . S
C163 C164 1.376 . S
C164 H135 0.931 . S
C164 C163 1.376 . S
C164 C165 1.396 . S
C165 C164 1.396 . S
C165 C166 1.348 . S
C165 C183 1.472 . S
C166 H136 0.929 . S
C166 C165 1.348 . S
C166 C167 1.443 . S
C167 H134 0.932 . S
C167 C162 1.388 . S
C167 C166 1.443 . S
C168 N148 1.433 . S
C168 C169 1.363 . S
C168 C173 1.370 . S
C169 H137 0.929 . S
C169 C168 1.363 . S
C169 C170 1.385 . S
C170 H138 0.930 . S
C170 C169 1.385 . S
C170 C171 1.357 . S
C171 C170 1.357 . S
C171 C172 1.406 . S
C172 H139 0.929 . S
C172 C171 1.406 . S
C172 C173 1.391 . S
C173 H140 0.931 . S
C173 C168 1.370 . S
C173 C172 1.391 . S
C174 N148 1.435 . S
C174 C175 1.358 . S
C174 C179 1.371 . S
C175 H141 0.930 . S
C175 C174 1.358 . S
C175 C176 1.405 . S
C176 H142 0.932 . S
C176 C175 1.405 . S
C176 C177 1.383 . S
C177 C176 1.383 . S
C177 C178 1.393 . S
C178 H143 0.931 . S
C178 C177 1.393 . S
C178 C179 1.382 . S
C179 H144 0.929 . S
C179 C174 1.371 . S
C179 C178 1.382 . S
C180 N148 1.423 . S
C180 C181 1.362 . S
C180 C185 1.388 . S
C181 H145 0.929 . S
C181 C180 1.362 . S
C181 C182 1.376 . S
C182 H146 0.931 . S
C182 C181 1.376 . S
C182 C183 1.396 . S
C183 C165 1.472 . S
C183 C182 1.396 . S
C183 C184 1.348 . S
C184 H147 0.929 . S
C184 C183 1.348 . S
C184 C185 1.443 . S
C185 H149 0.932 . S
C185 C180 1.388 . S
C185 C184 1.443 . S
H186 C213 0.929 . S
N187 C212 1.433 . S
N187 C218 1.435 . S
N187 C224 1.423 . S
H188 C214 0.930 . S
H189 C217 0.931 . S
H190 C216 0.929 . S
H191 C219 0.930 . S
H192 C220 0.932 . S
H193 C223 0.929 . S
H194 C222 0.931 . S
H195 C225 0.929 . S
H196 C229 0.932 . S
H197 C226 0.931 . S
H198 C228 0.929 . S
H199 C231 0.929 . S
H200 C232 0.930 . S
H201 C234 0.929 . S
H202 C235 0.931 . S
H203 C237 0.930 . S
H204 C238 0.932 . S
H205 C240 0.931 . S
H206 C241 0.929 . S
H207 C243 0.929 . S
H208 C244 0.931 1_565 S
H209 C246 0.929 . S
N210 C230 1.433 . S
N210 C236 1.435 . S
N210 C242 1.423 . S
H211 C247 0.932 . S
C212 N187 1.433 . S
C212 C213 1.363 . S
C212 C217 1.370 . S
C213 H186 0.929 . S
C213 C212 1.363 . S
C213 C214 1.385 . S
C214 H188 0.930 . S
C214 C213 1.385 . S
C214 C215 1.357 . S
C215 C214 1.357 . S
C215 C216 1.406 . S
C216 H190 0.929 . S
C216 C215 1.406 . S
C216 C217 1.391 . S
C217 H189 0.931 . S
C217 C212 1.370 . S
C217 C216 1.391 . S
C218 N187 1.435 . S
C218 C219 1.358 . S
C218 C223 1.371 . S
C219 H191 0.930 . S
C219 C218 1.358 . S
C219 C220 1.405 . S
C220 H192 0.932 . S
C220 C219 1.405 . S
C220 C221 1.383 . S
C221 C220 1.383 . S
C221 C222 1.393 . S
C222 H194 0.931 . S
C222 C221 1.393 . S
C222 C223 1.382 . S
C223 H193 0.929 . S
C223 C218 1.371 . S
C223 C222 1.382 . S
C224 N187 1.423 . S
C224 C225 1.362 . S
C224 C229 1.388 . S
C225 H195 0.929 . S
C225 C224 1.362 . S
C225 C226 1.376 . S
C226 H197 0.931 . S
C226 C225 1.376 . S
C226 C227 1.396 . S
C227 C226 1.396 . S
C227 C228 1.348 . S
C227 C245 1.490 . S
C228 H198 0.929 . S
C228 C227 1.348 . S
C228 C229 1.443 . S
C229 H196 0.932 . S
C229 C224 1.388 . S
C229 C228 1.443 . S
C230 N210 1.433 . S
C230 C231 1.363 . S
C230 C235 1.370 . S
C231 H199 0.929 . S
C231 C230 1.363 . S
C231 C232 1.385 . S
C232 H200 0.930 . S
C232 C231 1.385 . S
C232 C233 1.357 . S
C233 C232 1.357 . S
C233 C234 1.406 . S
C234 H201 0.929 . S
C234 C233 1.406 . S
C234 C235 1.391 . S
C235 H202 0.931 . S
C235 C230 1.370 . S
C235 C234 1.391 . S
C236 N210 1.435 . S
C236 C237 1.358 . S
C236 C241 1.371 . S
C237 H203 0.930 . S
C237 C236 1.358 . S
C237 C238 1.405 . S
C238 H204 0.932 . S
C238 C237 1.405 . S
C238 C239 1.383 . S
C239 C238 1.383 . S
C239 C240 1.393 . S
C240 H205 0.931 . S
C240 C239 1.393 . S
C240 C241 1.382 . S
C241 H206 0.929 . S
C241 C236 1.371 . S
C241 C240 1.382 . S
C242 N210 1.423 . S
C242 C243 1.362 . S
C242 C247 1.388 . S
C243 H207 0.929 . S
C243 C242 1.362 . S
C243 C244 1.376 . S
C244 H208 0.931 1_545 S
C244 C243 1.376 . S
C244 C245 1.394 1_545 S
C245 C227 1.490 . S
C245 C244 1.394 1_565 S
C245 C246 1.330 1_565 S
C246 H209 0.929 . S
C246 C245 1.330 1_545 S
C246 C247 1.443 . S
C247 H211 0.932 . S
C247 C242 1.388 . S
C247 C246 1.443 . S
H248 C275 0.929 . S
N249 C274 1.433 . S
N249 C280 1.435 . S
N249 C286 1.423 . S
H250 C276 0.930 . S
H251 C279 0.931 . S
H252 C278 0.929 . S
H253 C281 0.930 . S
H254 C282 0.932 . S
H255 C285 0.929 . S
H256 C284 0.931 . S
H257 C287 0.929 . S
H258 C291 0.932 . S
H259 C288 0.931 . S
H260 C290 0.929 . S
H261 C293 0.929 . S
H262 C294 0.930 . S
H263 C296 0.929 . S
H264 C297 0.931 . S
H265 C299 0.930 . S
H266 C300 0.932 . S
H267 C302 0.931 . S
H268 C303 0.929 . S
H269 C305 0.929 . S
H270 C306 0.931 1_455 S
H271 C308 0.929 . S
N272 C292 1.433 . S
N272 C298 1.435 . S
N272 C304 1.423 . S
H273 C309 0.932 . S
C274 N249 1.433 . S
C274 C275 1.363 . S
C274 C279 1.370 . S
C275 H248 0.929 . S
C275 C274 1.363 . S
C275 C276 1.385 . S
C276 H250 0.930 . S
C276 C275 1.385 . S
C276 C277 1.357 . S
C277 C276 1.357 . S
C277 C278 1.406 . S
C278 H252 0.929 . S
C278 C277 1.406 . S
C278 C279 1.391 . S
C279 H251 0.931 . S
C279 C274 1.370 . S
C279 C278 1.391 . S
C280 N249 1.435 . S
C280 C281 1.358 . S
C280 C285 1.371 . S
C281 H253 0.930 . S
C281 C280 1.358 . S
C281 C282 1.405 . S
C282 H254 0.932 . S
C282 C281 1.405 . S
C282 C283 1.383 . S
C283 C282 1.383 . S
C283 C284 1.393 . S
C284 H256 0.931 . S
C284 C283 1.393 . S
C284 C285 1.382 . S
C285 H255 0.929 . S
C285 C280 1.371 . S
C285 C284 1.382 . S
C286 N249 1.423 . S
C286 C287 1.362 . S
C286 C291 1.388 . S
C287 H257 0.929 . S
C287 C286 1.362 . S
C287 C288 1.376 . S
C288 H259 0.931 . S
C288 C287 1.376 . S
C288 C289 1.396 . S
C289 C288 1.396 . S
C289 C290 1.348 . S
C289 C307 1.468 . S
C290 H260 0.929 . S
C290 C289 1.348 . S
C290 C291 1.443 . S
C291 H258 0.932 . S
C291 C286 1.388 . S
C291 C290 1.443 . S
C292 N272 1.433 . S
C292 C293 1.363 . S
C292 C297 1.370 . S
C293 H261 0.929 . S
C293 C292 1.363 . S
C293 C294 1.385 . S
C294 H262 0.930 . S
C294 C293 1.385 . S
C294 C295 1.357 . S
C295 C294 1.357 . S
C295 C296 1.406 . S
C296 H263 0.929 . S
C296 C295 1.406 . S
C296 C297 1.391 . S
C297 H264 0.931 . S
C297 C292 1.370 . S
C297 C296 1.391 . S
C298 N272 1.435 . S
C298 C299 1.358 . S
C298 C303 1.371 . S
C299 H265 0.930 . S
C299 C298 1.358 . S
C299 C300 1.405 . S
C300 H266 0.932 . S
C300 C299 1.405 . S
C300 C301 1.383 . S
C301 C300 1.383 . S
C301 C302 1.393 . S
C302 H267 0.931 . S
C302 C301 1.393 . S
C302 C303 1.382 . S
C303 H268 0.929 . S
C303 C298 1.371 . S
C303 C302 1.382 . S
C304 N272 1.423 . S
C304 C305 1.362 . S
C304 C309 1.388 . S
C305 H269 0.929 . S
C305 C304 1.362 . S
C305 C306 1.376 . S
C306 H270 0.931 1_655 S
C306 C305 1.376 . S
C306 C307 1.396 1_655 S
C307 C289 1.468 . S
C307 C306 1.396 1_455 S
C307 C308 1.352 1_455 S
C308 H271 0.929 . S
C308 C307 1.352 1_655 S
C308 C309 1.443 . S
C309 H273 0.932 . S
C309 C304 1.388 . S
C309 C308 1.443 . S
H310 C337 0.929 . S
N311 C336 1.433 . S
N311 C342 1.435 . S
N311 C348 1.423 . S
H312 C338 0.930 . S
H313 C341 0.931 . S
H314 C340 0.929 . S
H315 C343 0.930 . S
H316 C344 0.932 . S
H317 C347 0.929 . S
H318 C346 0.931 . S
H319 C349 0.929 . S
H320 C353 0.932 . S
H321 C350 0.931 . S
H322 C352 0.929 . S
H323 C355 0.929 . S
H324 C356 0.930 . S
H325 C358 0.929 . S
H326 C359 0.931 . S
H327 C361 0.930 . S
H328 C362 0.932 . S
H329 C364 0.931 . S
H330 C365 0.929 . S
H331 C367 0.929 . S
H332 C368 0.931 . S
H333 C370 0.929 . S
N334 C354 1.433 . S
N334 C360 1.435 . S
N334 C366 1.423 . S
H335 C371 0.932 . S
C336 N311 1.433 . S
C336 C337 1.363 . S
C336 C341 1.370 . S
C337 H310 0.929 . S
C337 C336 1.363 . S
C337 C338 1.385 . S
C338 H312 0.930 . S
C338 C337 1.385 . S
C338 C339 1.357 . S
C339 C338 1.357 . S
C339 C340 1.406 . S
C340 H314 0.929 . S
C340 C339 1.406 . S
C340 C341 1.391 . S
C341 H313 0.931 . S
C341 C336 1.370 . S
C341 C340 1.391 . S
C342 N311 1.435 . S
C342 C343 1.358 . S
C342 C347 1.371 . S
C343 H315 0.930 . S
C343 C342 1.358 . S
C343 C344 1.405 . S
C344 H316 0.932 . S
C344 C343 1.405 . S
C344 C345 1.383 . S
C345 C344 1.383 . S
C345 C346 1.393 . S
C346 H318 0.931 . S
C346 C345 1.393 . S
C346 C347 1.382 . S
C347 H317 0.929 . S
C347 C342 1.371 . S
C347 C346 1.382 . S
C348 N311 1.423 . S
C348 C349 1.362 . S
C348 C353 1.388 . S
C349 H319 0.929 . S
C349 C348 1.362 . S
C349 C350 1.376 . S
C350 H321 0.931 . S
C350 C349 1.376 . S
C350 C351 1.396 . S
C351 C350 1.396 . S
C351 C352 1.348 . S
C351 C369 1.472 . S
C352 H322 0.929 . S
C352 C351 1.348 . S
C352 C353 1.443 . S
C353 H320 0.932 . S
C353 C348 1.388 . S
C353 C352 1.443 . S
C354 N334 1.433 . S
C354 C355 1.363 . S
C354 C359 1.370 . S
C355 H323 0.929 . S
C355 C354 1.363 . S
C355 C356 1.385 . S
C356 H324 0.930 . S
C356 C355 1.385 . S
C356 C357 1.357 . S
C357 C356 1.357 . S
C357 C358 1.406 . S
C358 H325 0.929 . S
C358 C357 1.406 . S
C358 C359 1.391 . S
C359 H326 0.931 . S
C359 C354 1.370 . S
C359 C358 1.391 . S
C360 N334 1.435 . S
C360 C361 1.358 . S
C360 C365 1.371 . S
C361 H327 0.930 . S
C361 C360 1.358 . S
C361 C362 1.405 . S
C362 H328 0.932 . S
C362 C361 1.405 . S
C362 C363 1.383 . S
C363 C362 1.383 . S
C363 C364 1.393 . S
C364 H329 0.931 . S
C364 C363 1.393 . S
C364 C365 1.382 . S
C365 H330 0.929 . S
C365 C360 1.371 . S
C365 C364 1.382 . S
C366 N334 1.423 . S
C366 C367 1.362 . S
C366 C371 1.388 . S
C367 H331 0.929 . S
C367 C366 1.362 . S
C367 C368 1.376 . S
C368 H332 0.931 . S
C368 C367 1.376 . S
C368 C369 1.396 . S
C369 C351 1.472 . S
C369 C368 1.396 . S
C369 C370 1.348 . S
C370 H333 0.929 . S
C370 C369 1.348 . S
C370 C371 1.443 . S
C371 H335 0.932 . S
C371 C366 1.388 . S
C371 C370 1.443 . S
H372 C399 0.929 . S
N373 C398 1.433 . S
N373 C404 1.435 . S
N373 C410 1.423 . S
H374 C400 0.930 . S
H375 C403 0.931 . S
H376 C402 0.929 . S
H377 C405 0.930 . S
H378 C406 0.932 . S
H379 C409 0.929 . S
H380 C408 0.931 . S
H381 C411 0.929 . S
H382 C415 0.932 . S
H383 C412 0.931 . S
H384 C414 0.929 . S
H385 C417 0.929 . S
H386 C418 0.930 . S
H387 C420 0.929 . S
H388 C421 0.931 . S
H389 C423 0.930 . S
H390 C424 0.932 . S
H391 C426 0.931 . S
H392 C427 0.929 . S
H393 C429 0.929 . S
H394 C430 0.931 . S
H395 C432 0.929 . S
N396 C416 1.433 . S
N396 C422 1.435 . S
N396 C428 1.423 . S
H397 C433 0.932 . S
C398 N373 1.433 . S
C398 C399 1.363 . S
C398 C403 1.370 . S
C399 H372 0.929 . S
C399 C398 1.363 . S
C399 C400 1.385 . S
C400 H374 0.930 . S
C400 C399 1.385 . S
C400 C401 1.357 . S
C401 C400 1.357 . S
C401 C402 1.406 . S
C402 H376 0.929 . S
C402 C401 1.406 . S
C402 C403 1.391 . S
C403 H375 0.931 . S
C403 C398 1.370 . S
C403 C402 1.391 . S
C404 N373 1.435 . S
C404 C405 1.358 . S
C404 C409 1.371 . S
C405 H377 0.930 . S
C405 C404 1.358 . S
C405 C406 1.405 . S
C406 H378 0.932 . S
C406 C405 1.405 . S
C406 C407 1.383 . S
C407 C406 1.383 . S
C407 C408 1.393 . S
C408 H380 0.931 . S
C408 C407 1.393 . S
C408 C409 1.382 . S
C409 H379 0.929 . S
C409 C404 1.371 . S
C409 C408 1.382 . S
C410 N373 1.423 . S
C410 C411 1.362 . S
C410 C415 1.388 . S
C411 H381 0.929 . S
C411 C410 1.362 . S
C411 C412 1.376 1_565 S
C412 H383 0.931 . S
C412 C411 1.376 1_545 S
C412 C413 1.396 . S
C413 C412 1.396 . S
C413 C414 1.348 1_545 S
C413 C431 1.472 . S
C414 H384 0.929 . S
C414 C413 1.348 1_565 S
C414 C415 1.443 . S
C415 H382 0.932 . S
C415 C410 1.388 . S
C415 C414 1.443 . S
C416 N396 1.433 . S
C416 C417 1.363 . S
C416 C421 1.370 . S
C417 H385 0.929 . S
C417 C416 1.363 . S
C417 C418 1.385 . S
C418 H386 0.930 . S
C418 C417 1.385 . S
C418 C419 1.357 . S
C419 C418 1.357 . S
C419 C420 1.406 . S
C420 H387 0.929 . S
C420 C419 1.406 . S
C420 C421 1.391 . S
C421 H388 0.931 . S
C421 C416 1.370 . S
C421 C420 1.391 . S
C422 N396 1.435 . S
C422 C423 1.358 . S
C422 C427 1.371 . S
C423 H389 0.930 . S
C423 C422 1.358 . S
C423 C424 1.405 . S
C424 H390 0.932 . S
C424 C423 1.405 . S
C424 C425 1.383 . S
C425 C424 1.383 . S
C425 C426 1.393 . S
C426 H391 0.931 . S
C426 C425 1.393 . S
C426 C427 1.382 . S
C427 H392 0.929 . S
C427 C422 1.371 . S
C427 C426 1.382 . S
C428 N396 1.423 . S
C428 C429 1.362 . S
C428 C433 1.388 . S
C429 H393 0.929 . S
C429 C428 1.362 . S
C429 C430 1.376 . S
C430 H394 0.931 . S
C430 C429 1.376 . S
C430 C431 1.396 . S
C431 C413 1.472 . S
C431 C430 1.396 . S
C431 C432 1.348 . S
C432 H395 0.929 . S
C432 C431 1.348 . S
C432 C433 1.443 . S
C433 H397 0.932 . S
C433 C428 1.388 . S
C433 C432 1.443 . S
H434 C461 0.929 . S
N435 C460 1.433 . S
N435 C466 1.435 . S
N435 C472 1.423 . S
H436 C462 0.930 . S
H437 C465 0.931 . S
H438 C464 0.929 . S
H439 C467 0.930 . S
H440 C468 0.932 . S
H441 C471 0.929 . S
H442 C470 0.931 . S
H443 C473 0.929 . S
H444 C477 0.932 . S
H445 C474 0.931 . S
H446 C476 0.929 . S
H447 C479 0.929 . S
H448 C480 0.930 . S
H449 C482 0.929 . S
H450 C483 0.931 . S
H451 C485 0.930 . S
H452 C486 0.932 . S
H453 C488 0.931 . S
H454 C489 0.929 . S
H455 C491 0.929 . S
H456 C492 0.931 1_565 S
H457 C494 0.929 . S
N458 C478 1.433 . S
N458 C484 1.435 . S
N458 C490 1.423 . S
H459 C495 0.932 . S
C460 N435 1.433 . S
C460 C461 1.363 . S
C460 C465 1.370 . S
C461 H434 0.929 . S
C461 C460 1.363 . S
C461 C462 1.385 . S
C462 H436 0.930 . S
C462 C461 1.385 . S
C462 C463 1.357 . S
C463 C462 1.357 . S
C463 C464 1.406 . S
C464 H438 0.929 . S
C464 C463 1.406 . S
C464 C465 1.391 . S
C465 H437 0.931 . S
C465 C460 1.370 . S
C465 C464 1.391 . S
C466 N435 1.435 . S
C466 C467 1.358 . S
C466 C471 1.371 . S
C467 H439 0.930 . S
C467 C466 1.358 . S
C467 C468 1.405 . S
C468 H440 0.932 . S
C468 C467 1.405 . S
C468 C469 1.383 . S
C469 C468 1.383 . S
C469 C470 1.393 . S
C470 H442 0.931 . S
C470 C469 1.393 . S
C470 C471 1.382 . S
C471 H441 0.929 . S
C471 C466 1.371 . S
C471 C470 1.382 . S
C472 N435 1.423 . S
C472 C473 1.362 . S
C472 C477 1.388 . S
C473 H443 0.929 . S
C473 C472 1.362 . S
C473 C474 1.376 1_455 S
C474 H445 0.931 . S
C474 C473 1.376 1_655 S
C474 C475 1.396 . S
C475 C474 1.396 . S
C475 C476 1.348 1_655 S
C475 C493 1.490 . S
C476 H446 0.929 . S
C476 C475 1.348 1_455 S
C476 C477 1.443 . S
C477 H444 0.932 . S
C477 C472 1.388 . S
C477 C476 1.443 . S
C478 N458 1.433 . S
C478 C479 1.363 . S
C478 C483 1.370 . S
C479 H447 0.929 . S
C479 C478 1.363 . S
C479 C480 1.385 . S
C480 H448 0.930 . S
C480 C479 1.385 . S
C480 C481 1.357 . S
C481 C480 1.357 . S
C481 C482 1.406 . S
C482 H449 0.929 . S
C482 C481 1.406 . S
C482 C483 1.391 . S
C483 H450 0.931 . S
C483 C478 1.370 . S
C483 C482 1.391 . S
C484 N458 1.435 . S
C484 C485 1.358 . S
C484 C489 1.371 . S
C485 H451 0.930 . S
C485 C484 1.358 . S
C485 C486 1.405 . S
C486 H452 0.932 . S
C486 C485 1.405 . S
C486 C487 1.383 . S
C487 C486 1.383 . S
C487 C488 1.393 . S
C488 H453 0.931 . S
C488 C487 1.393 . S
C488 C489 1.382 . S
C489 H454 0.929 . S
C489 C484 1.371 . S
C489 C488 1.382 . S
C490 N458 1.423 . S
C490 C491 1.362 . S
C490 C495 1.388 . S
C491 H455 0.929 . S
C491 C490 1.362 . S
C491 C492 1.376 . S
C492 H456 0.931 1_545 S
C492 C491 1.376 . S
C492 C493 1.394 1_545 S
C493 C475 1.490 . S
C493 C492 1.394 1_565 S
C493 C494 1.330 1_565 S
C494 H457 0.929 . S
C494 C493 1.330 1_545 S
C494 C495 1.443 . S
C495 H459 0.932 . S
C495 C490 1.388 . S
C495 C494 1.443 . S
C496 O497 1.160 . S
C496 O503 1.185 . S
O497 C496 1.160 . S
O498 Zn499 1.899 . S
O498 C506 1.284 . S
Zn499 O498 1.899 . S
Zn499 O500 2.032 1_554 S
Zn499 O503 2.086 . S
Zn499 O508 1.977 . S
O500 Zn499 2.032 1_556 S
O500 C504 1.278 . S
C501 O502 1.203 . S
C501 O508 1.267 . S
O502 C501 1.203 . S
O503 C496 1.185 . S
O503 Zn499 2.086 . S
C504 O500 1.278 . S
C504 O505 1.211 . S
O505 C504 1.211 . S
C506 O498 1.284 . S
C506 O507 1.273 . S
O507 C506 1.273 . S
O508 Zn499 1.977 . S
O508 C501 1.267 . S
C509 O510 1.160 . S
C509 O516 1.185 . S
O510 C509 1.160 . S
O511 Zn512 1.899 . S
O511 C519 1.284 . S
Zn512 O511 1.899 . S
Zn512 O513 2.032 . S
Zn512 O516 2.086 . S
Zn512 O521 1.977 . S
O513 Zn512 2.032 . S
O513 C517 1.278 . S
C514 O515 1.203 . S
C514 O521 1.267 . S
O515 C514 1.203 . S
O516 C509 1.185 . S
O516 Zn512 2.086 . S
C517 O513 1.278 . S
C517 O518 1.211 . S
O518 C517 1.211 . S
C519 O511 1.284 . S
C519 O520 1.273 . S
O520 C519 1.273 . S
O521 Zn512 1.977 . S
O521 C514 1.267 . S
C522 O523 1.160 . S
C522 O529 1.185 . S
O523 C522 1.160 . S
O524 Zn525 1.899 . S
O524 C532 1.284 . S
Zn525 O524 1.899 . S
Zn525 O526 2.032 . S
Zn525 O529 2.086 . S
Zn525 O534 1.977 . S
O526 Zn525 2.032 . S
O526 C530 1.278 . S
C527 O528 1.203 . S
C527 O534 1.267 . S
O528 C527 1.203 . S
O529 C522 1.185 . S
O529 Zn525 2.086 . S
C530 O526 1.278 . S
C530 O531 1.211 . S
O531 C530 1.211 . S
C532 O524 1.284 . S
C532 O533 1.273 . S
O533 C532 1.273 . S
O534 Zn525 1.977 . S
O534 C527 1.267 . S
C535 O536 1.160 . S
C535 O542 1.185 . S
O536 C535 1.160 . S
O537 Zn538 1.899 . S
O537 C545 1.284 . S
Zn538 O537 1.899 . S
Zn538 O539 2.032 . S
Zn538 O542 2.086 . S
Zn538 O547 1.977 . S
O539 Zn538 2.032 . S
O539 C543 1.278 . S
C540 O541 1.203 . S
C540 O547 1.267 . S
O541 C540 1.203 . S
O542 C535 1.185 . S
O542 Zn538 2.086 . S
C543 O539 1.278 . S
C543 O544 1.211 . S
O544 C543 1.211 . S
C545 O537 1.284 . S
C545 O546 1.273 . S
O546 C545 1.273 . S
O547 Zn538 1.977 . S
O547 C540 1.267 . S
C548 O549 1.160 . S
C548 O555 1.185 . S
O549 C548 1.160 . S
O550 Zn551 1.899 . S
O550 C558 1.284 . S
Zn551 O550 1.899 . S
Zn551 O552 2.032 . S
Zn551 O555 2.086 . S
Zn551 O560 1.977 . S
O552 Zn551 2.032 . S
O552 C556 1.278 . S
C553 O554 1.203 . S
C553 O560 1.267 . S
O554 C553 1.203 . S
O555 C548 1.185 . S
O555 Zn551 2.086 . S
C556 O552 1.278 . S
C556 O557 1.211 . S
O557 C556 1.211 . S
C558 O550 1.284 . S
C558 O559 1.273 . S
O559 C558 1.273 . S
O560 Zn551 1.977 . S
O560 C553 1.267 . S
C561 O562 1.160 . S
C561 O568 1.185 . S
O562 C561 1.160 . S
O563 Zn564 1.899 . S
O563 C571 1.284 . S
Zn564 O563 1.899 . S
Zn564 O565 2.032 . S
Zn564 O568 2.086 . S
Zn564 O573 1.977 . S
O565 Zn564 2.032 . S
O565 C569 1.278 . S
C566 O567 1.203 . S
C566 O573 1.267 . S
O567 C566 1.203 . S
O568 C561 1.185 . S
O568 Zn564 2.086 . S
C569 O565 1.278 . S
C569 O570 1.211 . S
O570 C569 1.211 . S
C571 O563 1.284 . S
C571 O572 1.273 . S
O572 C571 1.273 . S
O573 Zn564 1.977 . S
O573 C566 1.267 . S
C574 O575 1.160 . S
C574 O581 1.185 . S
O575 C574 1.160 . S
O576 Zn577 1.899 . S
O576 C584 1.284 . S
Zn577 O576 1.899 . S
Zn577 O578 2.032 1_554 S
Zn577 O581 2.086 . S
Zn577 O586 1.977 . S
O578 Zn577 2.032 1_556 S
O578 C582 1.278 . S
C579 O580 1.203 . S
C579 O586 1.267 . S
O580 C579 1.203 . S
O581 C574 1.185 . S
O581 Zn577 2.086 . S
C582 O578 1.278 . S
C582 O583 1.211 . S
O583 C582 1.211 . S
C584 O576 1.284 . S
C584 O585 1.273 . S
O585 C584 1.273 . S
O586 Zn577 1.977 . S
O586 C579 1.267 . S
C587 O588 1.160 . S
C587 O594 1.185 . S
O588 C587 1.160 . S
O589 Zn590 1.899 . S
O589 C597 1.284 . S
Zn590 O589 1.899 . S
Zn590 O591 2.032 . S
Zn590 O594 2.086 . S
Zn590 O599 1.977 . S
O591 Zn590 2.032 . S
O591 C595 1.278 . S
C592 O593 1.203 . S
C592 O599 1.267 . S
O593 C592 1.203 . S
O594 C587 1.185 . S
O594 Zn590 2.086 . S
C595 O591 1.278 . S
C595 O596 1.211 . S
O596 C595 1.211 . S
C597 O589 1.284 . S
C597 O598 1.273 . S
O598 C597 1.273 . S
O599 Zn590 1.977 . S
O599 C592 1.267 . S
C600 C601 1.349 . S
C600 C602 1.327 . S
C600 H625 0.950 . S
C601 C600 1.349 . S
C601 C617 1.349 . S
C602 C600 1.327 . S
C602 C621 1.429 . S
C602 H626 0.950 . S
C603 C620 1.574 . S
C603 C622 1.368 . S
C603 H627 0.949 . S
H604 C608 0.949 . S
C605 C606 1.349 . S
C605 C607 1.327 . S
C605 H628 0.950 . S
C606 C605 1.349 . S
C606 C618 1.349 . S
C607 C605 1.327 . S
C607 C623 1.429 . S
C607 H629 0.950 . S
C608 H604 0.949 . S
C608 C616 1.574 . S
C608 C624 1.368 . S
H609 C617 0.950 . S
H610 C615 0.950 . S
H611 C616 0.949 . S
H612 C618 0.950 . S
H613 C619 0.950 . S
H614 C620 0.949 . S
C615 H610 0.950 . S
C615 C617 1.327 . S
C615 C621 1.429 . S
C616 C608 1.574 . S
C616 H611 0.949 . S
C616 C622 1.368 . S
C617 C601 1.349 . S
C617 H609 0.950 . S
C617 C615 1.327 . S
C618 C606 1.349 . S
C618 H612 0.950 . S
C618 C619 1.327 . S
C619 H613 0.950 . S
C619 C618 1.327 . S
C619 C623 1.429 . S
C620 C603 1.574 . S
C620 H614 0.949 . S
C620 C624 1.368 . S
C621 C602 1.429 . S
C621 C615 1.429 . S
C621 C622 1.523 . S
C622 C603 1.368 . S
C622 C616 1.368 . S
C622 C621 1.523 . S
C623 C607 1.429 . S
C623 C619 1.429 . S
C623 C624 1.523 . S
C624 C608 1.368 . S
C624 C620 1.368 . S
C624 C623 1.523 . S
H625 C600 0.950 . S
H626 C602 0.950 . S
H627 C603 0.949 . S
H628 C605 0.950 . S
H629 C607 0.950 . S
C630 C631 1.349 . S
C630 C632 1.327 . S
C630 H655 0.950 . S
C631 C630 1.349 . S
C631 C647 1.349 . S
C632 C630 1.327 . S
C632 C651 1.429 . S
C632 H656 0.950 . S
C633 C650 1.574 . S
C633 C652 1.368 . S
C633 H657 0.949 . S
H634 C638 0.949 . S
C635 C636 1.349 . S
C635 C637 1.327 . S
C635 H658 0.950 . S
C636 C635 1.349 . S
C636 C648 1.349 . S
C637 C635 1.327 . S
C637 C653 1.429 . S
C637 H659 0.950 . S
C638 H634 0.949 . S
C638 C646 1.574 . S
C638 C654 1.368 . S
H639 C647 0.950 . S
H640 C645 0.950 . S
H641 C646 0.949 . S
H642 C648 0.950 . S
H643 C649 0.950 . S
H644 C650 0.949 . S
C645 H640 0.950 . S
C645 C647 1.327 . S
C645 C651 1.429 . S
C646 C638 1.574 . S
C646 H641 0.949 . S
C646 C652 1.368 . S
C647 C631 1.349 . S
C647 H639 0.950 . S
C647 C645 1.327 . S
C648 C636 1.349 . S
C648 H642 0.950 . S
C648 C649 1.327 . S
C649 H643 0.950 . S
C649 C648 1.327 . S
C649 C653 1.429 . S
C650 C633 1.574 . S
C650 H644 0.949 . S
C650 C654 1.368 . S
C651 C632 1.429 . S
C651 C645 1.429 . S
C651 C652 1.523 . S
C652 C633 1.368 . S
C652 C646 1.368 . S
C652 C651 1.523 . S
C653 C637 1.429 . S
C653 C649 1.429 . S
C653 C654 1.523 . S
C654 C638 1.368 . S
C654 C650 1.368 . S
C654 C653 1.523 . S
H655 C630 0.950 . S
H656 C632 0.950 . S
H657 C633 0.949 . S
H658 C635 0.950 . S
H659 C637 0.950 . S
C660 C661 1.349 . S
C660 C662 1.327 . S
C660 H685 0.950 . S
C661 C660 1.349 . S
C661 C677 1.349 . S
C662 C660 1.327 . S
C662 C681 1.429 . S
C662 H686 0.950 . S
C663 C680 1.574 . S
C663 C682 1.368 . S
C663 H687 0.949 . S
H664 C668 0.949 . S
C665 C666 1.349 . S
C665 C667 1.327 . S
C665 H688 0.950 . S
C666 C665 1.349 . S
C666 C678 1.349 . S
C667 C665 1.327 . S
C667 C683 1.429 . S
C667 H689 0.950 . S
C668 H664 0.949 . S
C668 C676 1.574 . S
C668 C684 1.368 . S
H669 C677 0.950 . S
H670 C675 0.950 . S
H671 C676 0.949 . S
H672 C678 0.950 . S
H673 C679 0.950 . S
H674 C680 0.949 . S
C675 H670 0.950 . S
C675 C677 1.327 . S
C675 C681 1.429 . S
C676 C668 1.574 . S
C676 H671 0.949 . S
C676 C682 1.368 . S
C677 C661 1.349 . S
C677 H669 0.950 . S
C677 C675 1.327 . S
C678 C666 1.349 . S
C678 H672 0.950 . S
C678 C679 1.327 . S
C679 H673 0.950 . S
C679 C678 1.327 . S
C679 C683 1.429 . S
C680 C663 1.574 . S
C680 H674 0.949 . S
C680 C684 1.368 . S
C681 C662 1.429 . S
C681 C675 1.429 . S
C681 C682 1.523 . S
C682 C663 1.368 . S
C682 C676 1.368 . S
C682 C681 1.523 . S
C683 C667 1.429 . S
C683 C679 1.429 . S
C683 C684 1.523 . S
C684 C668 1.368 . S
C684 C680 1.368 . S
C684 C683 1.523 . S
H685 C660 0.950 . S
H686 C662 0.950 . S
H687 C663 0.949 . S
H688 C665 0.950 . S
H689 C667 0.950 . S
C690 C691 1.349 . S
C690 C692 1.327 . S
C690 H715 0.950 . S
C691 C690 1.349 . S
C691 C707 1.349 . S
C692 C690 1.327 . S
C692 C711 1.429 . S
C692 H716 0.950 . S
C693 C710 1.574 . S
C693 C712 1.368 . S
C693 H717 0.949 . S
H694 C698 0.949 . S
C695 C696 1.349 . S
C695 C697 1.327 . S
C695 H718 0.950 1_554 S
C696 C695 1.349 . S
C696 C708 1.349 . S
C697 C695 1.327 . S
C697 C713 1.429 . S
C697 H719 0.950 1_554 S
C698 H694 0.949 . S
C698 C706 1.574 . S
C698 C714 1.368 . S
H699 C707 0.950 . S
H700 C705 0.950 . S
H701 C706 0.949 . S
H702 C708 0.950 . S
H703 C709 0.950 . S
H704 C710 0.965 . S
C705 H700 0.950 . S
C705 C707 1.327 . S
C705 C711 1.429 . S
C706 C698 1.574 . S
C706 H701 0.949 . S
C706 C712 1.368 . S
C707 C691 1.349 . S
C707 H699 0.950 . S
C707 C705 1.327 . S
C708 C696 1.349 . S
C708 H702 0.950 . S
C708 C709 1.327 . S
C709 H703 0.950 . S
C709 C708 1.327 . S
C709 C713 1.429 . S
C710 C693 1.574 . S
C710 H704 0.965 . S
C710 C714 1.368 . S
C711 C692 1.429 . S
C711 C705 1.429 . S
C711 C712 1.523 . S
C712 C693 1.368 . S
C712 C706 1.368 . S
C712 C711 1.523 . S
C713 C697 1.429 . S
C713 C709 1.429 . S
C713 C714 1.523 . S
C714 C698 1.368 . S
C714 C710 1.368 . S
C714 C713 1.523 . S
H715 C690 0.950 . S
H716 C692 0.950 . S
H717 C693 0.949 . S
H718 C695 0.950 1_556 S
H719 C697 0.950 1_556 S
C720 C721 1.349 . S
C720 C722 1.326 1_556 S
C720 H745 0.950 1_556 S
C721 C720 1.349 . S
C721 C737 1.349 . S
C722 C720 1.326 1_554 S
C722 C741 1.422 1_554 S
C722 H746 0.958 . S
C723 C740 1.574 . S
C723 C742 1.368 . S
C723 H747 0.949 . S
H724 C728 0.949 . S
C725 C726 1.295 1_556 S
C725 C727 1.327 . S
C725 H748 0.950 . S
C726 C725 1.295 1_554 S
C726 C738 1.396 . S
C727 C725 1.327 . S
C727 C743 1.429 . S
C727 H749 0.950 . S
C728 H724 0.949 . S
C728 C736 1.574 . S
C728 C744 1.368 1_554 S
H729 C737 0.950 . S
H730 C735 0.950 . S
H731 C736 0.949 . S
H732 C738 0.950 . S
H733 C739 0.950 . S
H734 C740 0.949 . S
C735 H730 0.950 . S
C735 C737 1.327 . S
C735 C741 1.429 . S
C736 C728 1.574 . S
C736 H731 0.949 . S
C736 C742 1.368 1_554 S
C737 C721 1.349 . S
C737 H729 0.950 . S
C737 C735 1.327 . S
C738 C726 1.396 . S
C738 H732 0.950 . S
C738 C739 1.327 . S
C739 H733 0.950 . S
C739 C738 1.327 . S
C739 C743 1.429 1_554 S
C740 C723 1.574 . S
C740 H734 0.949 . S
C740 C744 1.368 . S
C741 C722 1.422 1_556 S
C741 C735 1.429 . S
C741 C742 1.523 . S
C742 C723 1.368 . S
C742 C736 1.368 1_556 S
C742 C741 1.523 . S
C743 C727 1.429 . S
C743 C739 1.429 1_556 S
C743 C744 1.523 . S
C744 C728 1.368 1_556 S
C744 C740 1.368 . S
C744 C743 1.523 . S
H745 C720 0.950 1_554 S
H746 C722 0.958 . S
H747 C723 0.949 . S
H748 C725 0.950 . S
H749 C727 0.950 . S
C750 C751 1.349 . S
C750 C752 1.327 . S
C750 H775 0.950 . S
C751 C750 1.349 . S
C751 C767 1.349 . S
C752 C750 1.327 . S
C752 C771 1.429 . S
C752 H776 0.950 . S
C753 C770 1.574 . S
C753 C772 1.368 . S
C753 H777 0.949 . S
H754 C758 0.949 . S
C755 C756 1.349 . S
C755 C757 1.327 . S
C755 H778 0.950 . S
C756 C755 1.349 . S
C756 C768 1.349 . S
C757 C755 1.327 . S
C757 C773 1.429 . S
C757 H779 0.950 . S
C758 H754 0.949 . S
C758 C766 1.574 . S
C758 C774 1.368 . S
H759 C767 0.950 . S
H760 C765 0.950 . S
H761 C766 0.949 . S
H762 C768 0.950 . S
H763 C769 0.950 . S
H764 C770 0.949 . S
C765 H760 0.950 . S
C765 C767 1.327 . S
C765 C771 1.429 . S
C766 C758 1.574 . S
C766 H761 0.949 . S
C766 C772 1.368 . S
C767 C751 1.349 . S
C767 H759 0.950 . S
C767 C765 1.327 . S
C768 C756 1.349 . S
C768 H762 0.950 . S
C768 C769 1.327 . S
C769 H763 0.950 . S
C769 C768 1.327 . S
C769 C773 1.429 . S
C770 C753 1.574 . S
C770 H764 0.949 . S
C770 C774 1.368 . S
C771 C752 1.429 . S
C771 C765 1.429 . S
C771 C772 1.523 . S
C772 C753 1.368 . S
C772 C766 1.368 . S
C772 C771 1.523 . S
C773 C757 1.429 . S
C773 C769 1.429 . S
C773 C774 1.523 . S
C774 C758 1.368 . S
C774 C770 1.368 . S
C774 C773 1.523 . S
H775 C750 0.950 . S
H776 C752 0.950 . S
H777 C753 0.949 . S
H778 C755 0.950 . S
H779 C757 0.950 . S
C780 C781 1.349 . S
C780 C782 1.327 . S
C780 H805 0.950 . S
C781 C780 1.349 . S
C781 C797 1.349 . S
C782 C780 1.327 . S
C782 C801 1.429 . S
C782 H806 0.950 . S
C783 C800 1.574 . S
C783 C802 1.368 . S
C783 H807 0.949 . S
H784 C788 0.949 . S
C785 C786 1.349 . S
C785 C787 1.327 . S
C785 H808 0.950 . S
C786 C785 1.349 . S
C786 C798 1.349 . S
C787 C785 1.327 . S
C787 C803 1.429 . S
C787 H809 0.950 . S
C788 H784 0.949 . S
C788 C796 1.574 . S
C788 C804 1.368 . S
H789 C797 0.950 . S
H790 C795 0.950 . S
H791 C796 0.949 . S
H792 C798 0.950 . S
H793 C799 0.950 . S
H794 C800 0.949 . S
C795 H790 0.950 . S
C795 C797 1.327 . S
C795 C801 1.429 . S
C796 C788 1.574 . S
C796 H791 0.949 . S
C796 C802 1.368 . S
C797 C781 1.349 . S
C797 H789 0.950 . S
C797 C795 1.327 . S
C798 C786 1.349 . S
C798 H792 0.950 . S
C798 C799 1.327 . S
C799 H793 0.950 . S
C799 C798 1.327 . S
C799 C803 1.429 . S
C800 C783 1.574 . S
C800 H794 0.949 . S
C800 C804 1.368 . S
C801 C782 1.429 . S
C801 C795 1.429 . S
C801 C802 1.523 . S
C802 C783 1.368 . S
C802 C796 1.368 . S
C802 C801 1.523 . S
C803 C787 1.429 . S
C803 C799 1.429 . S
C803 C804 1.523 . S
C804 C788 1.368 . S
C804 C800 1.368 . S
C804 C803 1.523 . S
H805 C780 0.950 . S
H806 C782 0.950 . S
H807 C783 0.949 . S
H808 C785 0.950 . S
H809 C787 0.950 . S
C810 C811 1.349 . S
C810 C812 1.327 . S
C810 H835 0.950 . S
C811 C810 1.349 . S
C811 C827 1.349 . S
C812 C810 1.327 . S
C812 C831 1.429 . S
C812 H836 0.950 . S
C813 C830 1.574 . S
C813 C832 1.368 . S
C813 H837 0.949 . S
H814 C818 0.949 . S
C815 C816 1.349 . S
C815 C817 1.327 . S
C815 H838 0.950 . S
C816 C815 1.349 . S
C816 C828 1.349 . S
C817 C815 1.327 . S
C817 C833 1.429 . S
C817 H839 0.950 . S
C818 H814 0.949 . S
C818 C826 1.574 . S
C818 C834 1.368 . S
H819 C827 0.950 . S
H820 C825 0.950 . S
H821 C826 0.949 . S
H822 C828 0.950 . S
H823 C829 0.950 . S
H824 C830 0.949 . S
C825 H820 0.950 . S
C825 C827 1.327 . S
C825 C831 1.429 . S
C826 C818 1.574 . S
C826 H821 0.949 . S
C826 C832 1.368 . S
C827 C811 1.349 . S
C827 H819 0.950 . S
C827 C825 1.327 . S
C828 C816 1.349 . S
C828 H822 0.950 . S
C828 C829 1.327 . S
C829 H823 0.950 . S
C829 C828 1.327 . S
C829 C833 1.429 . S
C830 C813 1.574 . S
C830 H824 0.949 . S
C830 C834 1.368 . S
C831 C812 1.429 . S
C831 C825 1.429 . S
C831 C832 1.523 . S
C832 C813 1.368 . S
C832 C826 1.368 . S
C832 C831 1.523 . S
C833 C817 1.429 . S
C833 C829 1.429 . S
C833 C834 1.523 . S
C834 C818 1.368 . S
C834 C830 1.368 . S
C834 C833 1.523 . S
H835 C810 0.950 . S
H836 C812 0.950 . S
H837 C813 0.949 . S
H838 C815 0.950 . S
H839 C817 0.950 . S
C840 C841 1.349 . S
C840 C842 1.327 . S
C840 H865 0.950 . S
C841 C840 1.349 . S
C841 C857 1.349 . S
C842 C840 1.327 . S
C842 C861 1.429 . S
C842 H866 0.950 . S
C843 C860 1.574 . S
C843 C862 1.368 . S
C843 H867 0.949 . S
H844 C848 0.949 . S
C845 C846 1.349 . S
C845 C847 1.327 . S
C845 H868 0.950 . S
C846 C845 1.349 . S
C846 C858 1.349 . S
C847 C845 1.327 . S
C847 C863 1.429 . S
C847 H869 0.950 . S
C848 H844 0.949 . S
C848 C856 1.574 . S
C848 C864 1.368 . S
H849 C857 0.950 . S
H850 C855 0.950 . S
H851 C856 0.949 . S
H852 C858 0.950 . S
H853 C859 0.950 . S
H854 C860 0.949 . S
C855 H850 0.950 . S
C855 C857 1.327 . S
C855 C861 1.429 . S
C856 C848 1.574 . S
C856 H851 0.949 . S
C856 C862 1.368 . S
C857 C841 1.349 . S
C857 H849 0.950 . S
C857 C855 1.327 . S
C858 C846 1.349 . S
C858 H852 0.950 . S
C858 C859 1.327 . S
C859 H853 0.950 . S
C859 C858 1.327 . S
C859 C863 1.429 . S
C860 C843 1.574 . S
C860 H854 0.949 . S
C860 C864 1.368 . S
C861 C842 1.429 . S
C861 C855 1.429 . S
C861 C862 1.523 . S
C862 C843 1.368 . S
C862 C856 1.368 . S
C862 C861 1.523 . S
C863 C847 1.429 . S
C863 C859 1.429 . S
C863 C864 1.523 . S
C864 C848 1.368 . S
C864 C860 1.368 . S
C864 C863 1.523 . S
H865 C840 0.950 . S
H866 C842 0.950 . S
H867 C843 0.949 . S
H868 C845 0.950 . S
H869 C847 0.950 . S
C870 C871 1.349 . S
C870 C872 1.327 . S
C870 H895 0.950 . S
C871 C870 1.349 . S
C871 C887 1.349 . S
C872 C870 1.327 . S
C872 C891 1.429 . S
C872 H896 0.950 . S
C873 C890 1.574 . S
C873 C892 1.368 . S
C873 H897 0.949 . S
H874 C878 0.949 . S
C875 C876 1.349 . S
C875 C877 1.327 . S
C875 H898 0.950 1_554 S
C876 C875 1.349 . S
C876 C888 1.349 . S
C877 C875 1.327 . S
C877 C893 1.429 . S
C877 H899 0.950 1_554 S
C878 H874 0.949 . S
C878 C886 1.574 . S
C878 C894 1.368 . S
H879 C887 0.950 . S
H880 C885 0.950 . S
H881 C886 0.949 . S
H882 C888 0.950 . S
H883 C889 0.950 . S
H884 C890 0.899 1_556 S
C885 H880 0.950 . S
C885 C887 1.327 . S
C885 C891 1.429 . S
C886 C878 1.574 . S
C886 H881 0.949 . S
C886 C892 1.368 . S
C887 C871 1.349 . S
C887 H879 0.950 . S
C887 C885 1.327 . S
C888 C876 1.349 . S
C888 H882 0.950 . S
C888 C889 1.327 . S
C889 H883 0.950 . S
C889 C888 1.327 . S
C889 C893 1.429 . S
C890 C873 1.574 . S
C890 H884 0.899 1_554 S
C890 C894 1.368 . S
C891 C872 1.429 . S
C891 C885 1.429 . S
C891 C892 1.523 . S
C892 C873 1.368 . S
C892 C886 1.368 . S
C892 C891 1.523 . S
C893 C877 1.429 . S
C893 C889 1.429 . S
C893 C894 1.523 . S
C894 C878 1.368 . S
C894 C890 1.368 . S
C894 C893 1.523 . S
H895 C870 0.950 . S
H896 C872 0.950 . S
H897 C873 0.949 . S
H898 C875 0.950 1_556 S
H899 C877 0.950 1_556 S
C900 C901 1.349 . S
C900 C902 1.327 . S
C900 H925 0.950 . S
C901 C900 1.349 . S
C901 C917 1.349 . S
C902 C900 1.327 . S
C902 C921 1.429 . S
C902 H926 0.950 . S
C903 C920 1.574 . S
C903 C922 1.368 . S
C903 H927 0.949 . S
H904 C908 0.949 . S
C905 C906 1.349 . S
C905 C907 1.327 . S
C905 H928 0.950 . S
C906 C905 1.349 . S
C906 C918 1.349 . S
C907 C905 1.327 . S
C907 C923 1.429 . S
C907 H929 0.950 . S
C908 H904 0.949 . S
C908 C916 1.574 . S
C908 C924 1.368 . S
H909 C917 0.950 . S
H910 C915 0.950 . S
H911 C916 0.949 . S
H912 C918 0.950 . S
H913 C919 0.950 . S
H914 C920 0.949 . S
C915 H910 0.950 . S
C915 C917 1.327 . S
C915 C921 1.429 . S
C916 C908 1.574 . S
C916 H911 0.949 . S
C916 C922 1.368 . S
C917 C901 1.349 . S
C917 H909 0.950 . S
C917 C915 1.327 . S
C918 C906 1.349 . S
C918 H912 0.950 . S
C918 C919 1.327 . S
C919 H913 0.950 . S
C919 C918 1.327 . S
C919 C923 1.429 . S
C920 C903 1.574 . S
C920 H914 0.949 . S
C920 C924 1.368 . S
C921 C902 1.429 . S
C921 C915 1.429 . S
C921 C922 1.523 . S
C922 C903 1.368 . S
C922 C916 1.368 . S
C922 C921 1.523 . S
C923 C907 1.429 . S
C923 C919 1.429 . S
C923 C924 1.523 . S
C924 C908 1.368 . S
C924 C920 1.368 . S
C924 C923 1.523 . S
H925 C900 0.950 . S
H926 C902 0.950 . S
H927 C903 0.949 . S
H928 C905 0.950 . S
H929 C907 0.950 . S
C930 C931 1.349 . S
C930 C932 1.327 . S
C930 H955 0.950 . S
C931 C930 1.349 . S
C931 C947 1.349 . S
C932 C930 1.327 . S
C932 C951 1.429 . S
C932 H956 0.950 . S
C933 C950 1.574 . S
C933 C952 1.368 . S
C933 H957 0.949 . S
H934 C938 0.949 . S
C935 C936 1.349 . S
C935 C937 1.327 . S
C935 H958 0.950 . S
C936 C935 1.349 . S
C936 C948 1.349 . S
C937 C935 1.327 . S
C937 C953 1.429 . S
C937 H959 0.950 . S
C938 H934 0.949 . S
C938 C946 1.574 . S
C938 C954 1.368 . S
H939 C947 0.950 . S
H940 C945 0.950 . S
H941 C946 0.949 . S
H942 C948 0.950 . S
H943 C949 0.950 . S
H944 C950 0.949 . S
C945 H940 0.950 . S
C945 C947 1.327 . S
C945 C951 1.429 . S
C946 C938 1.574 . S
C946 H941 0.949 . S
C946 C952 1.368 . S
C947 C931 1.349 . S
C947 H939 0.950 . S
C947 C945 1.327 . S
C948 C936 1.349 . S
C948 H942 0.950 . S
C948 C949 1.327 . S
C949 H943 0.950 . S
C949 C948 1.327 . S
C949 C953 1.429 . S
C950 C933 1.574 . S
C950 H944 0.949 . S
C950 C954 1.368 . S
C951 C932 1.429 . S
C951 C945 1.429 . S
C951 C952 1.523 . S
C952 C933 1.368 . S
C952 C946 1.368 . S
C952 C951 1.523 . S
C953 C937 1.429 . S
C953 C949 1.429 . S
C953 C954 1.523 . S
C954 C938 1.368 . S
C954 C950 1.368 . S
C954 C953 1.523 . S
H955 C930 0.950 . S
H956 C932 0.950 . S
H957 C933 0.949 . S
H958 C935 0.950 . S
H959 C937 0.950 . S
C960 C961 1.349 . S
C960 C962 1.327 . S
C960 H985 0.950 . S
C961 C960 1.349 . S
C961 C977 1.349 . S
C962 C960 1.327 . S
C962 C981 1.429 . S
C962 H986 0.950 . S
C963 C980 1.574 . S
C963 C982 1.368 . S
C963 H987 0.949 . S
H964 C968 0.949 . S
C965 C966 1.349 . S
C965 C967 1.327 . S
C965 H988 0.950 . S
C966 C965 1.349 . S
C966 C978 1.349 . S
C967 C965 1.327 . S
C967 C983 1.429 . S
C967 H989 0.950 . S
C968 H964 0.949 . S
C968 C976 1.574 . S
C968 C984 1.368 . S
H969 C977 0.950 . S
H970 C975 0.950 . S
H971 C976 0.949 . S
H972 C978 0.950 . S
H973 C979 0.950 . S
H974 C980 0.949 . S
C975 H970 0.950 . S
C975 C977 1.327 . S
C975 C981 1.429 . S
C976 C968 1.574 . S
C976 H971 0.949 . S
C976 C982 1.368 . S
C977 C961 1.349 . S
C977 H969 0.950 . S
C977 C975 1.327 . S
C978 C966 1.349 . S
C978 H972 0.950 . S
C978 C979 1.327 . S
C979 H973 0.950 . S
C979 C978 1.327 . S
C979 C983 1.429 . S
C980 C963 1.574 . S
C980 H974 0.949 . S
C980 C984 1.368 . S
C981 C962 1.429 . S
C981 C975 1.429 . S
C981 C982 1.523 . S
C982 C963 1.368 . S
C982 C976 1.368 . S
C982 C981 1.523 . S
C983 C967 1.429 . S
C983 C979 1.429 . S
C983 C984 1.523 . S
C984 C968 1.368 . S
C984 C980 1.368 . S
C984 C983 1.523 . S
H985 C960 0.950 . S
H986 C962 0.950 . S
H987 C963 0.949 . S
H988 C965 0.950 . S
H989 C967 0.950 . S
C990 C991 1.349 . S
C990 C992 1.327 . S
C990 H1015 0.950 . S
C991 C990 1.349 . S
C991 C1007 1.349 . S
C992 C990 1.327 . S
C992 C1011 1.429 . S
C992 H1016 0.950 . S
C993 C1010 1.574 . S
C993 C1012 1.368 . S
C993 H1017 0.949 . S
H994 C998 0.949 . S
C995 C996 1.349 . S
C995 C997 1.327 . S
C995 H1018 0.950 . S
C996 C995 1.349 . S
C996 C1008 1.349 . S
C997 C995 1.327 . S
C997 C1013 1.429 . S
C997 H1019 0.950 . S
C998 H994 0.949 . S
C998 C1006 1.574 . S
C998 C1014 1.368 . S
H999 C1007 0.950 . S
H1000 C1005 0.950 . S
H1001 C1006 0.949 . S
H1002 C1008 0.950 . S
H1003 C1009 0.950 . S
H1004 C1010 0.949 . S
C1005 H1000 0.950 . S
C1005 C1007 1.327 . S
C1005 C1011 1.429 . S
C1006 C998 1.574 . S
C1006 H1001 0.949 . S
C1006 C1012 1.368 . S
C1007 C991 1.349 . S
C1007 H999 0.950 . S
C1007 C1005 1.327 . S
C1008 C996 1.349 . S
C1008 H1002 0.950 . S
C1008 C1009 1.327 . S
C1009 H1003 0.950 . S
C1009 C1008 1.327 . S
C1009 C1013 1.429 . S
C1010 C993 1.574 . S
C1010 H1004 0.949 . S
C1010 C1014 1.368 . S
C1011 C992 1.429 . S
C1011 C1005 1.429 . S
C1011 C1012 1.523 . S
C1012 C993 1.368 . S
C1012 C1006 1.368 . S
C1012 C1011 1.523 . S
C1013 C997 1.429 . S
C1013 C1009 1.429 . S
C1013 C1014 1.523 . S
C1014 C998 1.368 . S
C1014 C1010 1.368 . S
C1014 C1013 1.523 . S
H1015 C990 0.950 . S
H1016 C992 0.950 . S
H1017 C993 0.949 . S
H1018 C995 0.950 . S
H1019 C997 0.950 . S
C1020 C1021 1.349 . S
C1020 C1022 1.327 . S
C1020 H1045 0.950 . S
C1021 C1020 1.349 . S
C1021 C1037 1.318 1_556 S
C1022 C1020 1.327 . S
C1022 C1041 1.429 . S
C1022 H1046 0.950 . S
C1023 C1040 1.574 . S
C1023 C1042 1.368 1_554 S
C1023 H1047 0.949 . S
H1024 C1028 0.949 . S
C1025 C1026 1.406 . S
C1025 C1027 1.327 . S
C1025 H1048 0.950 . S
C1026 C1025 1.406 . S
C1026 C1038 1.285 1_554 S
C1027 C1025 1.327 . S
C1027 C1043 1.429 1_554 S
C1027 H1049 0.950 . S
C1028 H1024 0.949 . S
C1028 C1036 1.574 . S
C1028 C1044 1.368 . S
H1029 C1037 0.977 . S
H1030 C1035 0.950 . S
H1031 C1036 0.949 . S
H1032 C1038 0.950 . S
H1033 C1039 0.950 . S
H1034 C1040 0.949 . S
C1035 H1030 0.950 . S
C1035 C1037 1.332 . S
C1035 C1041 1.429 1_554 S
C1036 C1028 1.574 . S
C1036 H1031 0.949 . S
C1036 C1042 1.368 . S
C1037 C1021 1.318 1_554 S
C1037 H1029 0.977 . S
C1037 C1035 1.332 . S
C1038 C1026 1.285 1_556 S
C1038 H1032 0.950 . S
C1038 C1039 1.327 . S
C1039 H1033 0.950 . S
C1039 C1038 1.327 . S
C1039 C1043 1.429 . S
C1040 C1023 1.574 . S
C1040 H1034 0.949 . S
C1040 C1044 1.368 1_554 S
C1041 C1022 1.429 . S
C1041 C1035 1.429 1_556 S
C1041 C1042 1.523 . S
C1042 C1023 1.368 1_556 S
C1042 C1036 1.368 . S
C1042 C1041 1.523 . S
C1043 C1027 1.429 1_556 S
C1043 C1039 1.429 . S
C1043 C1044 1.523 . S
C1044 C1028 1.368 . S
C1044 C1040 1.368 1_556 S
C1044 C1043 1.523 . S
H1045 C1020 0.950 . S
H1046 C1022 0.950 . S
H1047 C1023 0.949 . S
H1048 C1025 0.950 . S
H1049 C1027 0.950 . S
C1050 C1051 1.349 . S
C1050 C1052 1.327 . S
C1050 H1075 0.950 . S
C1051 C1050 1.349 . S
C1051 C1067 1.349 . S
C1052 C1050 1.327 . S
C1052 C1071 1.429 . S
C1052 H1076 0.950 . S
C1053 C1070 1.574 . S
C1053 C1072 1.368 . S
C1053 H1077 0.949 . S
H1054 C1058 0.949 . S
C1055 C1056 1.349 . S
C1055 C1057 1.327 . S
C1055 H1078 0.950 . S
C1056 C1055 1.349 . S
C1056 C1068 1.349 . S
C1057 C1055 1.327 . S
C1057 C1073 1.429 . S
C1057 H1079 0.950 . S
C1058 H1054 0.949 . S
C1058 C1066 1.574 . S
C1058 C1074 1.368 . S
H1059 C1067 0.950 . S
H1060 C1065 0.950 . S
H1061 C1066 0.949 . S
H1062 C1068 0.950 . S
H1063 C1069 0.950 . S
H1064 C1070 0.949 . S
C1065 H1060 0.950 . S
C1065 C1067 1.327 . S
C1065 C1071 1.429 . S
C1066 C1058 1.574 . S
C1066 H1061 0.949 . S
C1066 C1072 1.368 . S
C1067 C1051 1.349 . S
C1067 H1059 0.950 . S
C1067 C1065 1.327 . S
C1068 C1056 1.349 . S
C1068 H1062 0.950 . S
C1068 C1069 1.327 . S
C1069 H1063 0.950 . S
C1069 C1068 1.327 . S
C1069 C1073 1.429 . S
C1070 C1053 1.574 . S
C1070 H1064 0.949 . S
C1070 C1074 1.368 . S
C1071 C1052 1.429 . S
C1071 C1065 1.429 . S
C1071 C1072 1.523 . S
C1072 C1053 1.368 . S
C1072 C1066 1.368 . S
C1072 C1071 1.523 . S
C1073 C1057 1.429 . S
C1073 C1069 1.429 . S
C1073 C1074 1.523 . S
C1074 C1058 1.368 . S
C1074 C1070 1.368 . S
C1074 C1073 1.523 . S
H1075 C1050 0.950 . S
H1076 C1052 0.950 . S
H1077 C1053 0.949 . S
H1078 C1055 0.950 . S
H1079 C1057 0.950 . S
C1080 C1081 1.349 . S
C1080 C1082 1.327 . S
C1080 H1105 0.950 . S
C1081 C1080 1.349 . S
C1081 C1097 1.349 . S
C1082 C1080 1.327 . S
C1082 C1101 1.429 . S
C1082 H1106 0.950 . S
C1083 C1100 1.574 . S
C1083 C1102 1.368 . S
C1083 H1107 0.949 . S
H1084 C1088 0.949 . S
C1085 C1086 1.349 . S
C1085 C1087 1.327 . S
C1085 H1108 0.950 . S
C1086 C1085 1.349 . S
C1086 C1098 1.349 . S
C1087 C1085 1.327 . S
C1087 C1103 1.429 . S
C1087 H1109 0.950 . S
C1088 H1084 0.949 . S
C1088 C1096 1.574 . S
C1088 C1104 1.368 . S
H1089 C1097 0.950 . S
H1090 C1095 0.950 . S
H1091 C1096 0.949 . S
H1092 C1098 0.950 . S
H1093 C1099 0.950 . S
H1094 C1100 0.949 . S
C1095 H1090 0.950 . S
C1095 C1097 1.327 . S
C1095 C1101 1.429 . S
C1096 C1088 1.574 . S
C1096 H1091 0.949 . S
C1096 C1102 1.368 . S
C1097 C1081 1.349 . S
C1097 H1089 0.950 . S
C1097 C1095 1.327 . S
C1098 C1086 1.349 . S
C1098 H1092 0.950 . S
C1098 C1099 1.327 . S
C1099 H1093 0.950 . S
C1099 C1098 1.327 . S
C1099 C1103 1.429 . S
C1100 C1083 1.574 . S
C1100 H1094 0.949 . S
C1100 C1104 1.368 . S
C1101 C1082 1.429 . S
C1101 C1095 1.429 . S
C1101 C1102 1.523 . S
C1102 C1083 1.368 . S
C1102 C1096 1.368 . S
C1102 C1101 1.523 . S
C1103 C1087 1.429 . S
C1103 C1099 1.429 . S
C1103 C1104 1.523 . S
C1104 C1088 1.368 . S
C1104 C1100 1.368 . S
C1104 C1103 1.523 . S
H1105 C1080 0.950 . S
H1106 C1082 0.950 . S
H1107 C1083 0.949 . S
H1108 C1085 0.950 . S
H1109 C1087 0.950 . S
C1110 C1111 1.349 . S
C1110 C1112 1.327 . S
C1110 H1135 0.950 . S
C1111 C1110 1.349 . S
C1111 C1127 1.349 . S
C1112 C1110 1.327 . S
C1112 C1131 1.429 . S
C1112 H1136 0.950 . S
C1113 C1130 1.574 . S
C1113 C1132 1.368 . S
C1113 H1137 0.949 . S
H1114 C1118 0.949 . S
C1115 C1116 1.349 . S
C1115 C1117 1.327 . S
C1115 H1138 0.950 . S
C1116 C1115 1.349 . S
C1116 C1128 1.349 . S
C1117 C1115 1.327 . S
C1117 C1133 1.429 . S
C1117 H1139 0.950 . S
C1118 H1114 0.949 . S
C1118 C1126 1.574 . S
C1118 C1134 1.368 . S
H1119 C1127 0.950 . S
H1120 C1125 0.950 . S
H1121 C1126 0.949 . S
H1122 C1128 0.950 . S
H1123 C1129 0.950 . S
H1124 C1130 0.949 . S
C1125 H1120 0.950 . S
C1125 C1127 1.327 . S
C1125 C1131 1.429 . S
C1126 C1118 1.574 . S
C1126 H1121 0.949 . S
C1126 C1132 1.368 . S
C1127 C1111 1.349 . S
C1127 H1119 0.950 . S
C1127 C1125 1.327 . S
C1128 C1116 1.349 . S
C1128 H1122 0.950 . S
C1128 C1129 1.327 . S
C1129 H1123 0.950 . S
C1129 C1128 1.327 . S
C1129 C1133 1.429 . S
C1130 C1113 1.574 . S
C1130 H1124 0.949 . S
C1130 C1134 1.368 . S
C1131 C1112 1.429 . S
C1131 C1125 1.429 . S
C1131 C1132 1.523 . S
C1132 C1113 1.368 . S
C1132 C1126 1.368 . S
C1132 C1131 1.523 . S
C1133 C1117 1.429 . S
C1133 C1129 1.429 . S
C1133 C1134 1.523 . S
C1134 C1118 1.368 . S
C1134 C1130 1.368 . S
C1134 C1133 1.523 . S
H1135 C1110 0.950 . S
H1136 C1112 0.950 . S
H1137 C1113 0.949 . S
H1138 C1115 0.950 . S
H1139 C1117 0.950 . S
C1140 C1141 1.349 . S
C1140 C1142 1.327 . S
C1140 H1165 0.950 . S
C1141 C1140 1.349 . S
C1141 C1157 1.349 . S
C1142 C1140 1.327 . S
C1142 C1161 1.429 . S
C1142 H1166 0.950 . S
C1143 C1160 1.574 . S
C1143 C1162 1.368 . S
C1143 H1167 0.949 . S
H1144 C1148 0.949 . S
C1145 C1146 1.349 . S
C1145 C1147 1.327 . S
C1145 H1168 0.950 . S
C1146 C1145 1.349 . S
C1146 C1158 1.349 . S
C1147 C1145 1.327 . S
C1147 C1163 1.429 . S
C1147 H1169 0.950 . S
C1148 H1144 0.949 . S
C1148 C1156 1.574 . S
C1148 C1164 1.368 . S
H1149 C1157 0.950 . S
H1150 C1155 0.950 . S
H1151 C1156 0.949 . S
H1152 C1158 0.950 . S
H1153 C1159 0.950 . S
H1154 C1160 0.949 . S
C1155 H1150 0.950 . S
C1155 C1157 1.327 . S
C1155 C1161 1.429 . S
C1156 C1148 1.574 . S
C1156 H1151 0.949 . S
C1156 C1162 1.368 . S
C1157 C1141 1.349 . S
C1157 H1149 0.950 . S
C1157 C1155 1.327 . S
C1158 C1146 1.349 . S
C1158 H1152 0.950 . S
C1158 C1159 1.327 . S
C1159 H1153 0.950 . S
C1159 C1158 1.327 . S
C1159 C1163 1.429 . S
C1160 C1143 1.574 . S
C1160 H1154 0.949 . S
C1160 C1164 1.368 . S
C1161 C1142 1.429 . S
C1161 C1155 1.429 . S
C1161 C1162 1.523 . S
C1162 C1143 1.368 . S
C1162 C1156 1.368 . S
C1162 C1161 1.523 . S
C1163 C1147 1.429 . S
C1163 C1159 1.429 . S
C1163 C1164 1.523 . S
C1164 C1148 1.368 . S
C1164 C1160 1.368 . S
C1164 C1163 1.523 . S
H1165 C1140 0.950 . S
H1166 C1142 0.950 . S
H1167 C1143 0.949 . S
H1168 C1145 0.950 . S
H1169 C1147 0.950 . S
C1170 C1171 1.349 . S
C1170 C1172 1.327 . S
C1170 H1195 0.950 . S
C1171 C1170 1.349 . S
C1171 C1187 1.349 . S
C1172 C1170 1.327 . S
C1172 C1191 1.429 . S
C1172 H1196 0.950 . S
C1173 C1190 1.574 . S
C1173 C1192 1.368 . S
C1173 H1197 0.949 . S
H1174 C1178 0.949 . S
C1175 C1176 1.349 . S
C1175 C1177 1.327 . S
C1175 H1198 0.950 . S
C1176 C1175 1.349 . S
C1176 C1188 1.349 . S
C1177 C1175 1.327 . S
C1177 C1193 1.429 . S
C1177 H1199 0.950 . S
C1178 H1174 0.949 . S
C1178 C1186 1.574 . S
C1178 C1194 1.368 . S
H1179 C1187 0.950 . S
H1180 C1185 0.950 . S
H1181 C1186 0.949 . S
H1182 C1188 0.950 . S
H1183 C1189 0.950 . S
H1184 C1190 0.949 . S
C1185 H1180 0.950 . S
C1185 C1187 1.327 . S
C1185 C1191 1.429 . S
C1186 C1178 1.574 . S
C1186 H1181 0.949 . S
C1186 C1192 1.368 . S
C1187 C1171 1.349 . S
C1187 H1179 0.950 . S
C1187 C1185 1.327 . S
C1188 C1176 1.349 . S
C1188 H1182 0.950 . S
C1188 C1189 1.327 . S
C1189 H1183 0.950 . S
C1189 C1188 1.327 . S
C1189 C1193 1.429 . S
C1190 C1173 1.574 . S
C1190 H1184 0.949 . S
C1190 C1194 1.368 . S
C1191 C1172 1.429 . S
C1191 C1185 1.429 . S
C1191 C1192 1.523 . S
C1192 C1173 1.368 . S
C1192 C1186 1.368 . S
C1192 C1191 1.523 . S
C1193 C1177 1.429 . S
C1193 C1189 1.429 . S
C1193 C1194 1.523 . S
C1194 C1178 1.368 . S
C1194 C1190 1.368 . S
C1194 C1193 1.523 . S
H1195 C1170 0.950 . S
H1196 C1172 0.950 . S
H1197 C1173 0.949 . S
H1198 C1175 0.950 . S
H1199 C1177 0.950 . S
C1200 C1201 1.349 . S
C1200 C1202 1.327 . S
C1200 H1225 0.950 . S
C1201 C1200 1.349 . S
C1201 C1217 1.349 . S
C1202 C1200 1.327 . S
C1202 C1221 1.429 . S
C1202 H1226 0.950 . S
C1203 C1220 1.574 . S
C1203 C1222 1.368 . S
C1203 H1227 0.949 . S
H1204 C1208 0.949 . S
C1205 C1206 1.349 . S
C1205 C1207 1.327 . S
C1205 H1228 0.950 . S
C1206 C1205 1.349 . S
C1206 C1218 1.349 . S
C1207 C1205 1.327 . S
C1207 C1223 1.429 . S
C1207 H1229 0.950 . S
C1208 H1204 0.949 . S
C1208 C1216 1.574 . S
C1208 C1224 1.368 . S
H1209 C1217 0.950 . S
H1210 C1215 0.950 . S
H1211 C1216 0.949 . S
H1212 C1218 0.950 . S
H1213 C1219 0.950 . S
H1214 C1220 0.949 . S
C1215 H1210 0.950 . S
C1215 C1217 1.327 . S
C1215 C1221 1.429 . S
C1216 C1208 1.574 . S
C1216 H1211 0.949 . S
C1216 C1222 1.368 . S
C1217 C1201 1.349 . S
C1217 H1209 0.950 . S
C1217 C1215 1.327 . S
C1218 C1206 1.349 . S
C1218 H1212 0.950 . S
C1218 C1219 1.327 . S
C1219 H1213 0.950 . S
C1219 C1218 1.327 . S
C1219 C1223 1.429 . S
C1220 C1203 1.574 . S
C1220 H1214 0.949 . S
C1220 C1224 1.368 . S
C1221 C1202 1.429 . S
C1221 C1215 1.429 . S
C1221 C1222 1.523 . S
C1222 C1203 1.368 . S
C1222 C1216 1.368 . S
C1222 C1221 1.523 . S
C1223 C1207 1.429 . S
C1223 C1219 1.429 . S
C1223 C1224 1.523 . S
C1224 C1208 1.368 . S
C1224 C1220 1.368 . S
C1224 C1223 1.523 . S
H1225 C1200 0.950 . S
H1226 C1202 0.950 . S
H1227 C1203 0.949 . S
H1228 C1205 0.950 . S
H1229 C1207 0.950 . S
C1230 C1231 1.349 . S
C1230 C1232 1.327 . S
C1230 H1255 0.950 . S
C1231 C1230 1.349 . S
C1231 C1247 1.349 . S
C1232 C1230 1.327 . S
C1232 C1251 1.429 . S
C1232 H1256 0.950 . S
C1233 C1250 1.574 . S
C1233 C1252 1.368 . S
C1233 H1257 0.949 . S
H1234 C1238 0.949 . S
C1235 C1236 1.349 . S
C1235 C1237 1.327 . S
C1235 H1258 0.950 . S
C1236 C1235 1.349 . S
C1236 C1248 1.349 . S
C1237 C1235 1.327 . S
C1237 C1253 1.429 . S
C1237 H1259 0.950 . S
C1238 H1234 0.949 . S
C1238 C1246 1.574 . S
C1238 C1254 1.368 . S
H1239 C1247 0.950 . S
H1240 C1245 0.950 . S
H1241 C1246 0.949 . S
H1242 C1248 0.950 . S
H1243 C1249 0.950 . S
H1244 C1250 0.949 . S
C1245 H1240 0.950 . S
C1245 C1247 1.327 . S
C1245 C1251 1.429 . S
C1246 C1238 1.574 . S
C1246 H1241 0.949 . S
C1246 C1252 1.368 . S
C1247 C1231 1.349 . S
C1247 H1239 0.950 . S
C1247 C1245 1.327 . S
C1248 C1236 1.349 . S
C1248 H1242 0.950 . S
C1248 C1249 1.327 . S
C1249 H1243 0.950 . S
C1249 C1248 1.327 . S
C1249 C1253 1.429 . S
C1250 C1233 1.574 . S
C1250 H1244 0.949 . S
C1250 C1254 1.368 . S
C1251 C1232 1.429 . S
C1251 C1245 1.429 . S
C1251 C1252 1.523 . S
C1252 C1233 1.368 . S
C1252 C1246 1.368 . S
C1252 C1251 1.523 . S
C1253 C1237 1.429 . S
C1253 C1249 1.429 . S
C1253 C1254 1.523 . S
C1254 C1238 1.368 . S
C1254 C1250 1.368 . S
C1254 C1253 1.523 . S
H1255 C1230 0.950 . S
H1256 C1232 0.950 . S
H1257 C1233 0.949 . S
H1258 C1235 0.950 . S
H1259 C1237 0.950 . S
C1260 C1261 1.349 . S
C1260 C1262 1.327 . S
C1260 H1285 0.950 . S
C1261 C1260 1.349 . S
C1261 C1277 1.349 . S
C1262 C1260 1.327 . S
C1262 C1281 1.429 . S
C1262 H1286 0.950 . S
C1263 C1280 1.574 . S
C1263 C1282 1.368 . S
C1263 H1287 0.949 . S
H1264 C1268 0.949 . S
C1265 C1266 1.349 . S
C1265 C1267 1.327 . S
C1265 H1288 0.950 . S
C1266 C1265 1.349 . S
C1266 C1278 1.349 . S
C1267 C1265 1.327 . S
C1267 C1283 1.429 . S
C1267 H1289 0.950 . S
C1268 H1264 0.949 . S
C1268 C1276 1.574 . S
C1268 C1284 1.368 . S
H1269 C1277 0.950 . S
H1270 C1275 0.950 . S
H1271 C1276 0.949 . S
H1272 C1278 0.950 . S
H1273 C1279 0.950 . S
H1274 C1280 0.949 . S
C1275 H1270 0.950 . S
C1275 C1277 1.327 . S
C1275 C1281 1.429 . S
C1276 C1268 1.574 . S
C1276 H1271 0.949 . S
C1276 C1282 1.368 . S
C1277 C1261 1.349 . S
C1277 H1269 0.950 . S
C1277 C1275 1.327 . S
C1278 C1266 1.349 . S
C1278 H1272 0.950 . S
C1278 C1279 1.327 . S
C1279 H1273 0.950 . S
C1279 C1278 1.327 . S
C1279 C1283 1.429 . S
C1280 C1263 1.574 . S
C1280 H1274 0.949 . S
C1280 C1284 1.368 . S
C1281 C1262 1.429 . S
C1281 C1275 1.429 . S
C1281 C1282 1.523 . S
C1282 C1263 1.368 . S
C1282 C1276 1.368 . S
C1282 C1281 1.523 . S
C1283 C1267 1.429 . S
C1283 C1279 1.429 . S
C1283 C1284 1.523 . S
C1284 C1268 1.368 . S
C1284 C1280 1.368 . S
C1284 C1283 1.523 . S
H1285 C1260 0.950 . S
H1286 C1262 0.950 . S
H1287 C1263 0.949 . S
H1288 C1265 0.950 . S
H1289 C1267 0.950 . S
C1290 C1291 1.349 . S
C1290 C1292 1.327 . S
C1290 H1315 0.950 . S
C1291 C1290 1.349 . S
C1291 C1307 1.349 . S
C1292 C1290 1.327 . S
C1292 C1311 1.429 . S
C1292 H1316 0.950 . S
C1293 C1310 1.574 . S
C1293 C1312 1.368 . S
C1293 H1317 0.949 . S
H1294 C1298 0.949 . S
C1295 C1296 1.349 . S
C1295 C1297 1.327 . S
C1295 H1318 0.950 . S
C1296 C1295 1.349 . S
C1296 C1308 1.349 . S
C1297 C1295 1.327 . S
C1297 C1313 1.429 . S
C1297 H1319 0.950 . S
C1298 H1294 0.949 . S
C1298 C1306 1.574 . S
C1298 C1314 1.368 . S
H1299 C1307 0.950 . S
H1300 C1305 0.950 . S
H1301 C1306 0.949 . S
H1302 C1308 0.950 . S
H1303 C1309 0.950 . S
H1304 C1310 0.949 . S
C1305 H1300 0.950 . S
C1305 C1307 1.327 . S
C1305 C1311 1.429 . S
C1306 C1298 1.574 . S
C1306 H1301 0.949 . S
C1306 C1312 1.368 . S
C1307 C1291 1.349 . S
C1307 H1299 0.950 . S
C1307 C1305 1.327 . S
C1308 C1296 1.349 . S
C1308 H1302 0.950 . S
C1308 C1309 1.327 . S
C1309 H1303 0.950 . S
C1309 C1308 1.327 . S
C1309 C1313 1.429 . S
C1310 C1293 1.574 . S
C1310 H1304 0.949 . S
C1310 C1314 1.368 . S
C1311 C1292 1.429 . S
C1311 C1305 1.429 . S
C1311 C1312 1.523 . S
C1312 C1293 1.368 . S
C1312 C1306 1.368 . S
C1312 C1311 1.523 . S
C1313 C1297 1.429 . S
C1313 C1309 1.429 . S
C1313 C1314 1.523 . S
C1314 C1298 1.368 . S
C1314 C1310 1.368 . S
C1314 C1313 1.523 . S
H1315 C1290 0.950 . S
H1316 C1292 0.950 . S
H1317 C1293 0.949 . S
H1318 C1295 0.950 . S
H1319 C1297 0.950 . S
C1320 C1321 1.349 . S
C1320 C1322 1.327 . S
C1320 H1345 0.950 . S
C1321 C1320 1.349 . S
C1321 C1337 1.349 . S
C1322 C1320 1.327 . S
C1322 C1341 1.429 . S
C1322 H1346 0.950 . S
C1323 C1340 1.574 . S
C1323 C1342 1.368 . S
C1323 H1347 0.949 . S
H1324 C1328 0.949 . S
C1325 C1326 1.349 . S
C1325 C1327 1.327 . S
C1325 H1348 0.950 . S
C1326 C1325 1.349 . S
C1326 C1338 1.349 . S
C1327 C1325 1.327 . S
C1327 C1343 1.429 . S
C1327 H1349 0.950 . S
C1328 H1324 0.949 . S
C1328 C1336 1.574 . S
C1328 C1344 1.368 . S
H1329 C1337 0.950 . S
H1330 C1335 0.950 . S
H1331 C1336 0.949 . S
H1332 C1338 0.950 . S
H1333 C1339 0.950 . S
H1334 C1340 0.949 . S
C1335 H1330 0.950 . S
C1335 C1337 1.327 . S
C1335 C1341 1.429 . S
C1336 C1328 1.574 . S
C1336 H1331 0.949 . S
C1336 C1342 1.368 . S
C1337 C1321 1.349 . S
C1337 H1329 0.950 . S
C1337 C1335 1.327 . S
C1338 C1326 1.349 . S
C1338 H1332 0.950 . S
C1338 C1339 1.327 . S
C1339 H1333 0.950 . S
C1339 C1338 1.327 . S
C1339 C1343 1.429 . S
C1340 C1323 1.574 . S
C1340 H1334 0.949 . S
C1340 C1344 1.368 . S
C1341 C1322 1.429 . S
C1341 C1335 1.429 . S
C1341 C1342 1.523 . S
C1342 C1323 1.368 . S
C1342 C1336 1.368 . S
C1342 C1341 1.523 . S
C1343 C1327 1.429 . S
C1343 C1339 1.429 . S
C1343 C1344 1.523 . S
C1344 C1328 1.368 . S
C1344 C1340 1.368 . S
C1344 C1343 1.523 . S
H1345 C1320 0.950 . S
H1346 C1322 0.950 . S
H1347 C1323 0.949 . S
H1348 C1325 0.950 . S
H1349 C1327 0.950 . S
C1350 C1351 1.349 . S
C1350 C1352 1.327 . S
C1350 H1375 0.950 . S
C1351 C1350 1.349 . S
C1351 C1367 1.349 . S
C1352 C1350 1.327 . S
C1352 C1371 1.429 . S
C1352 H1376 0.950 . S
C1353 C1370 1.574 . S
C1353 C1372 1.368 . S
C1353 H1377 0.949 . S
H1354 C1358 0.949 . S
C1355 C1356 1.349 . S
C1355 C1357 1.327 . S
C1355 H1378 0.950 . S
C1356 C1355 1.349 . S
C1356 C1368 1.349 . S
C1357 C1355 1.327 . S
C1357 C1373 1.429 . S
C1357 H1379 0.950 . S
C1358 H1354 0.949 . S
C1358 C1366 1.574 . S
C1358 C1374 1.368 . S
H1359 C1367 0.950 . S
H1360 C1365 0.950 . S
H1361 C1366 0.949 . S
H1362 C1368 0.950 . S
H1363 C1369 0.950 . S
H1364 C1370 0.949 . S
C1365 H1360 0.950 . S
C1365 C1367 1.327 . S
C1365 C1371 1.429 . S
C1366 C1358 1.574 . S
C1366 H1361 0.949 . S
C1366 C1372 1.368 . S
C1367 C1351 1.349 . S
C1367 H1359 0.950 . S
C1367 C1365 1.327 . S
C1368 C1356 1.349 . S
C1368 H1362 0.950 . S
C1368 C1369 1.327 . S
C1369 H1363 0.950 . S
C1369 C1368 1.327 . S
C1369 C1373 1.429 . S
C1370 C1353 1.574 . S
C1370 H1364 0.949 . S
C1370 C1374 1.368 . S
C1371 C1352 1.429 . S
C1371 C1365 1.429 . S
C1371 C1372 1.523 . S
C1372 C1353 1.368 . S
C1372 C1366 1.368 . S
C1372 C1371 1.523 . S
C1373 C1357 1.429 . S
C1373 C1369 1.429 . S
C1373 C1374 1.523 . S
C1374 C1358 1.368 . S
C1374 C1370 1.368 . S
C1374 C1373 1.523 . S
H1375 C1350 0.950 . S
H1376 C1352 0.950 . S
H1377 C1353 0.949 . S
H1378 C1355 0.950 . S
H1379 C1357 0.950 . S
C1380 C1381 1.349 . S
C1380 C1382 1.327 . S
C1380 H1405 0.950 . S
C1381 C1380 1.349 . S
C1381 C1397 1.349 . S
C1382 C1380 1.327 . S
C1382 C1401 1.429 . S
C1382 H1406 0.950 . S
C1383 C1400 1.574 . S
C1383 C1402 1.368 . S
C1383 H1407 0.949 . S
H1384 C1388 0.949 . S
C1385 C1386 1.349 . S
C1385 C1387 1.327 . S
C1385 H1408 0.950 . S
C1386 C1385 1.349 . S
C1386 C1398 1.349 . S
C1387 C1385 1.327 . S
C1387 C1403 1.429 . S
C1387 H1409 0.950 . S
C1388 H1384 0.949 . S
C1388 C1396 1.574 . S
C1388 C1404 1.368 . S
H1389 C1397 0.950 . S
H1390 C1395 0.950 . S
H1391 C1396 0.949 . S
H1392 C1398 0.950 . S
H1393 C1399 0.950 . S
H1394 C1400 0.949 . S
C1395 H1390 0.950 . S
C1395 C1397 1.327 . S
C1395 C1401 1.429 . S
C1396 C1388 1.574 . S
C1396 H1391 0.949 . S
C1396 C1402 1.368 . S
C1397 C1381 1.349 . S
C1397 H1389 0.950 . S
C1397 C1395 1.327 . S
C1398 C1386 1.349 . S
C1398 H1392 0.950 . S
C1398 C1399 1.327 . S
C1399 H1393 0.950 . S
C1399 C1398 1.327 . S
C1399 C1403 1.429 . S
C1400 C1383 1.574 . S
C1400 H1394 0.949 . S
C1400 C1404 1.368 . S
C1401 C1382 1.429 . S
C1401 C1395 1.429 . S
C1401 C1402 1.523 . S
C1402 C1383 1.368 . S
C1402 C1396 1.368 . S
C1402 C1401 1.523 . S
C1403 C1387 1.429 . S
C1403 C1399 1.429 . S
C1403 C1404 1.523 . S
C1404 C1388 1.368 . S
C1404 C1400 1.368 . S
C1404 C1403 1.523 . S
H1405 C1380 0.950 . S
H1406 C1382 0.950 . S
H1407 C1383 0.949 . S
H1408 C1385 0.950 . S
H1409 C1387 0.950 . S
C1410 C1411 1.349 . S
C1410 C1412 1.327 . S
C1410 H1435 0.950 . S
C1411 C1410 1.349 . S
C1411 C1427 1.349 . S
C1412 C1410 1.327 . S
C1412 C1431 1.429 . S
C1412 H1436 0.950 . S
C1413 C1430 1.574 . S
C1413 C1432 1.368 . S
C1413 H1437 0.949 . S
H1414 C1418 0.949 . S
C1415 C1416 1.349 . S
C1415 C1417 1.327 . S
C1415 H1438 0.950 . S
C1416 C1415 1.349 . S
C1416 C1428 1.349 . S
C1417 C1415 1.327 . S
C1417 C1433 1.429 . S
C1417 H1439 0.950 . S
C1418 H1414 0.949 . S
C1418 C1426 1.574 . S
C1418 C1434 1.368 . S
H1419 C1427 0.950 . S
H1420 C1425 0.950 . S
H1421 C1426 0.949 . S
H1422 C1428 0.950 . S
H1423 C1429 0.950 . S
H1424 C1430 0.949 . S
C1425 H1420 0.950 . S
C1425 C1427 1.327 . S
C1425 C1431 1.429 . S
C1426 C1418 1.574 . S
C1426 H1421 0.949 . S
C1426 C1432 1.368 . S
C1427 C1411 1.349 . S
C1427 H1419 0.950 . S
C1427 C1425 1.327 . S
C1428 C1416 1.349 . S
C1428 H1422 0.950 . S
C1428 C1429 1.327 . S
C1429 H1423 0.950 . S
C1429 C1428 1.327 . S
C1429 C1433 1.429 . S
C1430 C1413 1.574 . S
C1430 H1424 0.949 . S
C1430 C1434 1.368 . S
C1431 C1412 1.429 . S
C1431 C1425 1.429 . S
C1431 C1432 1.523 . S
C1432 C1413 1.368 . S
C1432 C1426 1.368 . S
C1432 C1431 1.523 . S
C1433 C1417 1.429 . S
C1433 C1429 1.429 . S
C1433 C1434 1.523 . S
C1434 C1418 1.368 . S
C1434 C1430 1.368 . S
C1434 C1433 1.523 . S
H1435 C1410 0.950 . S
H1436 C1412 0.950 . S
H1437 C1413 0.949 . S
H1438 C1415 0.950 . S
H1439 C1417 0.950 . S
C1440 C1441 1.349 . S
C1440 C1442 1.327 . S
C1440 H1465 0.950 . S
C1441 C1440 1.349 . S
C1441 C1457 1.349 . S
C1442 C1440 1.327 . S
C1442 C1461 1.429 . S
C1442 H1466 0.950 . S
C1443 C1460 1.574 . S
C1443 C1462 1.368 . S
C1443 H1467 0.949 . S
H1444 C1448 0.949 . S
C1445 C1446 1.349 . S
C1445 C1447 1.327 . S
C1445 H1468 0.950 . S
C1446 C1445 1.349 . S
C1446 C1458 1.349 . S
C1447 C1445 1.327 . S
C1447 C1463 1.429 . S
C1447 H1469 0.950 . S
C1448 H1444 0.949 . S
C1448 C1456 1.574 . S
C1448 C1464 1.368 . S
H1449 C1457 0.950 . S
H1450 C1455 0.950 . S
H1451 C1456 0.949 . S
H1452 C1458 0.950 . S
H1453 C1459 0.950 . S
H1454 C1460 0.949 . S
C1455 H1450 0.950 . S
C1455 C1457 1.327 . S
C1455 C1461 1.429 . S
C1456 C1448 1.574 . S
C1456 H1451 0.949 . S
C1456 C1462 1.368 . S
C1457 C1441 1.349 . S
C1457 H1449 0.950 . S
C1457 C1455 1.327 . S
C1458 C1446 1.349 . S
C1458 H1452 0.950 . S
C1458 C1459 1.327 . S
C1459 H1453 0.950 . S
C1459 C1458 1.327 . S
C1459 C1463 1.429 . S
C1460 C1443 1.574 . S
C1460 H1454 0.949 . S
C1460 C1464 1.368 . S
C1461 C1442 1.429 . S
C1461 C1455 1.429 . S
C1461 C1462 1.523 . S
C1462 C1443 1.368 . S
C1462 C1456 1.368 . S
C1462 C1461 1.523 . S
C1463 C1447 1.429 . S
C1463 C1459 1.429 . S
C1463 C1464 1.523 . S
C1464 C1448 1.368 . S
C1464 C1460 1.368 . S
C1464 C1463 1.523 . S
H1465 C1440 0.950 . S
H1466 C1442 0.950 . S
H1467 C1443 0.949 . S
H1468 C1445 0.950 . S
H1469 C1447 0.950 . S
C1470 C1471 1.349 . S
C1470 C1472 1.327 . S
C1470 H1495 0.950 . S
C1471 C1470 1.349 . S
C1471 C1487 1.349 . S
C1472 C1470 1.327 . S
C1472 C1491 1.429 . S
C1472 H1496 0.950 . S
C1473 C1490 1.574 . S
C1473 C1492 1.368 . S
C1473 H1497 0.949 . S
H1474 C1478 0.949 . S
C1475 C1476 1.349 . S
C1475 C1477 1.327 . S
C1475 H1498 0.950 . S
C1476 C1475 1.349 . S
C1476 C1488 1.349 . S
C1477 C1475 1.327 . S
C1477 C1493 1.429 . S
C1477 H1499 0.950 . S
C1478 H1474 0.949 . S
C1478 C1486 1.574 . S
C1478 C1494 1.368 . S
H1479 C1487 0.950 . S
H1480 C1485 0.950 . S
H1481 C1486 0.949 . S
H1482 C1488 0.950 . S
H1483 C1489 0.950 . S
H1484 C1490 0.949 . S
C1485 H1480 0.950 . S
C1485 C1487 1.327 . S
C1485 C1491 1.429 . S
C1486 C1478 1.574 . S
C1486 H1481 0.949 . S
C1486 C1492 1.368 . S
C1487 C1471 1.349 . S
C1487 H1479 0.950 . S
C1487 C1485 1.327 . S
C1488 C1476 1.349 . S
C1488 H1482 0.950 . S
C1488 C1489 1.327 . S
C1489 H1483 0.950 . S
C1489 C1488 1.327 . S
C1489 C1493 1.429 . S
C1490 C1473 1.574 . S
C1490 H1484 0.949 . S
C1490 C1494 1.368 . S
C1491 C1472 1.429 . S
C1491 C1485 1.429 . S
C1491 C1492 1.523 . S
C1492 C1473 1.368 . S
C1492 C1486 1.368 . S
C1492 C1491 1.523 . S
C1493 C1477 1.429 . S
C1493 C1489 1.429 . S
C1493 C1494 1.523 . S
C1494 C1478 1.368 . S
C1494 C1490 1.368 . S
C1494 C1493 1.523 . S
H1495 C1470 0.950 . S
H1496 C1472 0.950 . S
H1497 C1473 0.949 . S
H1498 C1475 0.950 . S
H1499 C1477 0.950 . S
C1500 C1501 1.349 . S
C1500 C1502 1.327 . S
C1500 H1525 0.950 . S
C1501 C1500 1.349 . S
C1501 C1517 1.349 . S
C1502 C1500 1.327 . S
C1502 C1521 1.429 . S
C1502 H1526 0.950 . S
C1503 C1520 1.574 . S
C1503 C1522 1.368 . S
C1503 H1527 0.949 . S
H1504 C1508 0.949 . S
C1505 C1506 1.349 . S
C1505 C1507 1.327 . S
C1505 H1528 0.950 . S
C1506 C1505 1.349 . S
C1506 C1518 1.349 . S
C1507 C1505 1.327 . S
C1507 C1523 1.429 . S
C1507 H1529 0.950 . S
C1508 H1504 0.949 . S
C1508 C1516 1.574 . S
C1508 C1524 1.368 . S
H1509 C1517 0.950 . S
H1510 C1515 0.950 . S
H1511 C1516 0.949 . S
H1512 C1518 0.950 . S
H1513 C1519 0.950 . S
H1514 C1520 0.949 . S
C1515 H1510 0.950 . S
C1515 C1517 1.327 . S
C1515 C1521 1.429 . S
C1516 C1508 1.574 . S
C1516 H1511 0.949 . S
C1516 C1522 1.368 . S
C1517 C1501 1.349 . S
C1517 H1509 0.950 . S
C1517 C1515 1.327 . S
C1518 C1506 1.349 . S
C1518 H1512 0.950 . S
C1518 C1519 1.327 . S
C1519 H1513 0.950 . S
C1519 C1518 1.327 . S
C1519 C1523 1.429 . S
C1520 C1503 1.574 . S
C1520 H1514 0.949 . S
C1520 C1524 1.368 . S
C1521 C1502 1.429 . S
C1521 C1515 1.429 . S
C1521 C1522 1.523 . S
C1522 C1503 1.368 . S
C1522 C1516 1.368 . S
C1522 C1521 1.523 . S
C1523 C1507 1.429 . S
C1523 C1519 1.429 . S
C1523 C1524 1.523 . S
C1524 C1508 1.368 . S
C1524 C1520 1.368 . S
C1524 C1523 1.523 . S
H1525 C1500 0.950 . S
H1526 C1502 0.950 . S
H1527 C1503 0.949 . S
H1528 C1505 0.950 . S
H1529 C1507 0.950 . S
C1530 C1531 1.349 . S
C1530 C1532 1.327 . S
C1530 H1555 0.950 . S
C1531 C1530 1.349 . S
C1531 C1547 1.349 . S
C1532 C1530 1.327 . S
C1532 C1551 1.429 . S
C1532 H1556 0.950 . S
C1533 C1550 1.574 . S
C1533 C1552 1.368 . S
C1533 H1557 0.949 . S
H1534 C1538 0.949 . S
C1535 C1536 1.349 . S
C1535 C1537 1.327 . S
C1535 H1558 0.950 . S
C1536 C1535 1.349 . S
C1536 C1548 1.349 . S
C1537 C1535 1.327 . S
C1537 C1553 1.429 . S
C1537 H1559 0.950 . S
C1538 H1534 0.949 . S
C1538 C1546 1.574 . S
C1538 C1554 1.368 . S
H1539 C1547 0.950 . S
H1540 C1545 0.950 . S
H1541 C1546 0.949 . S
H1542 C1548 0.950 . S
H1543 C1549 0.950 . S
H1544 C1550 0.949 . S
C1545 H1540 0.950 . S
C1545 C1547 1.327 . S
C1545 C1551 1.429 . S
C1546 C1538 1.574 . S
C1546 H1541 0.949 . S
C1546 C1552 1.368 . S
C1547 C1531 1.349 . S
C1547 H1539 0.950 . S
C1547 C1545 1.327 . S
C1548 C1536 1.349 . S
C1548 H1542 0.950 . S
C1548 C1549 1.327 . S
C1549 H1543 0.950 . S
C1549 C1548 1.327 . S
C1549 C1553 1.429 . S
C1550 C1533 1.574 . S
C1550 H1544 0.949 . S
C1550 C1554 1.368 . S
C1551 C1532 1.429 . S
C1551 C1545 1.429 . S
C1551 C1552 1.523 . S
C1552 C1533 1.368 . S
C1552 C1546 1.368 . S
C1552 C1551 1.523 . S
C1553 C1537 1.429 . S
C1553 C1549 1.429 . S
C1553 C1554 1.523 . S
C1554 C1538 1.368 . S
C1554 C1550 1.368 . S
C1554 C1553 1.523 . S
H1555 C1530 0.950 . S
H1556 C1532 0.950 . S
H1557 C1533 0.949 . S
H1558 C1535 0.950 . S
H1559 C1537 0.950 . S
C606 C509 1.351 . S
C601 C35 1.289 . S
C636 C527 1.361 . S
C631 C115 1.298 . S
C666 C535 1.351 . S
C661 C177 1.298 . S
C691 C221 1.293 . S
C696 C501 1.367 . S
C721 C283 1.290 . S
C726 C496 1.368 . S
C751 C363 1.301 . S
C756 C514 1.361 . S
C786 C522 1.351 . S
C781 C407 1.294 . S
C816 C540 1.361 . S
C811 C469 1.294 . S
C841 C159 1.291 . S
C846 C561 1.351 . S
C876 C579 1.361 . S
C871 C239 1.297 . S
C901 C53 1.298 . S
C906 C587 1.355 . S
C936 C553 1.361 . S
C931 C97 1.297 . S
C961 C425 1.298 . S
C966 C548 1.349 . S
C991 C487 1.301 . S
C996 C566 1.356 . S
C1026 C574 1.374 . S
C1021 C301 1.302 . S
C1051 C345 1.293 . S
C1056 C592 1.361 . S
C1086 C530 1.637 . S
C1081 C29 1.612 . S
C1116 C545 1.608 . S
C1111 C109 1.585 . S
C1141 C171 1.586 . S
C1146 C504 1.637 . S
C1171 C215 1.614 . S
C1176 C519 1.610 . S
C1201 C277 1.611 . S
C1206 C543 1.635 . S
C1236 C506 1.608 . S
C1231 C357 1.587 . S
C1266 C517 1.637 . S
C1261 C401 1.614 . S
C1296 C532 1.608 . S
C1291 C463 1.613 . S
C1326 C582 1.637 . S
C1321 C153 1.611 . S
C1356 C597 1.608 . S
C1351 C233 1.585 . S
C1381 C47 1.585 . S
C1386 C556 1.635 . S
C1416 C571 1.608 . S
C1411 C91 1.616 . S
C1446 C595 1.637 . S
C1441 C419 1.584 . S
C1471 C481 1.587 . S
C1476 C558 1.608 . S
C1506 C569 1.637 . S
C1501 C295 1.588 . S
C1536 C584 1.608 . S
C1531 C339 1.613 . S
