# Generated by pormake.
# Topology nom, (4,4)-cn, num edge types: 1
# Building blocks:
#     Node 0, Type 0, BuildingBlock: AZAVOO_clean_linker_0, # of connection points: 4
#     Node 1, Type 0, BuildingBlock: AZAVOO_clean_linker_0, # of connection points: 4
#     Node 2, Type 0, BuildingBlock: AZAVOO_clean_linker_0, # of connection points: 4
#     Node 3, Type 0, BuildingBlock: AZAVOO_clean_linker_0, # of connection points: 4
#     Node 4, Type 0, BuildingBlock: AZAVOO_clean_linker_0, # of connection points: 4
#     Node 5, Type 0, BuildingBlock: AZAVOO_clean_linker_0, # of connection points: 4
#     Node 6, Type 1, BuildingBlock: UXUYUI_clean_sbu_0, # of connection points: 4
#     Node 7, Type 1, BuildingBlock: UXUYUI_clean_sbu_0, # of connection points: 4
#     Node 8, Type 1, BuildingBlock: UXUYUI_clean_sbu_0, # of connection points: 4
#     Node 9, Type 1, BuildingBlock: UXUYUI_clean_sbu_0, # of connection points: 4
#     Node 10, Type 1, BuildingBlock: UXUYUI_clean_sbu_0, # of connection points: 4
#     Node 11, Type 1, BuildingBlock: UXUYUI_clean_sbu_0, # of connection points: 4
#     Edge 12, Type (0, 1), BuildingBlock: XIVTED_clean_linker_0, # of connection points: 2
#     Edge 13, Type (0, 1), BuildingBlock: XIVTED_clean_linker_0, # of connection points: 2
#     Edge 14, Type (0, 1), BuildingBlock: XIVTED_clean_linker_0, # of connection points: 2
#     Edge 15, Type (0, 1), BuildingBlock: XIVTED_clean_linker_0, # of connection points: 2
#     Edge 16, Type (0, 1), BuildingBlock: XIVTED_clean_linker_0, # of connection points: 2
#     Edge 17, Type (0, 1), BuildingBlock: XIVTED_clean_linker_0, # of connection points: 2
#     Edge 18, Type (0, 1), BuildingBlock: XIVTED_clean_linker_0, # of connection points: 2
#     Edge 19, Type (0, 1), BuildingBlock: XIVTED_clean_linker_0, # of connection points: 2
#     Edge 20, Type (0, 1), BuildingBlock: XIVTED_clean_linker_0, # of connection points: 2
#     Edge 21, Type (0, 1), BuildingBlock: XIVTED_clean_linker_0, # of connection points: 2
#     Edge 22, Type (0, 1), BuildingBlock: XIVTED_clean_linker_0, # of connection points: 2
#     Edge 23, Type (0, 1), BuildingBlock: XIVTED_clean_linker_0, # of connection points: 2
#     Edge 24, Type (0, 1), BuildingBlock: XIVTED_clean_linker_0, # of connection points: 2
#     Edge 25, Type (0, 1), BuildingBlock: XIVTED_clean_linker_0, # of connection points: 2
#     Edge 26, Type (0, 1), BuildingBlock: XIVTED_clean_linker_0, # of connection points: 2
#     Edge 27, Type (0, 1), BuildingBlock: XIVTED_clean_linker_0, # of connection points: 2
#     Edge 28, Type (0, 1), BuildingBlock: XIVTED_clean_linker_0, # of connection points: 2
#     Edge 29, Type (0, 1), BuildingBlock: XIVTED_clean_linker_0, # of connection points: 2
#     Edge 30, Type (0, 1), BuildingBlock: XIVTED_clean_linker_0, # of connection points: 2
#     Edge 31, Type (0, 1), BuildingBlock: XIVTED_clean_linker_0, # of connection points: 2
#     Edge 32, Type (0, 1), BuildingBlock: XIVTED_clean_linker_0, # of connection points: 2
#     Edge 33, Type (0, 1), BuildingBlock: XIVTED_clean_linker_0, # of connection points: 2
#     Edge 34, Type (0, 1), BuildingBlock: XIVTED_clean_linker_0, # of connection points: 2
#     Edge 35, Type (0, 1), BuildingBlock: XIVTED_clean_linker_0, # of connection points: 2
# Relax obj value: 0.171
# Max RMSD: 0.224
# Mean RMSD: 0.184
data_MOF--net-nom--node1-UXUYUI_clean_sbu_0--node2-AZAVOO_clean_linker_0--edge1-XIVTED_clean_linker_0
_symmetry_space_group_name_H-M    P1
_symmetry_Int_Tables_number       1
_symmetry_cell_setting            triclinic
loop_
_symmetry_equiv_pos_as_xyz
'x, y, z'
_cell_length_a     57.730029
_cell_length_b     58.734159
_cell_length_c     72.474246
_cell_angle_alpha  89.967073
_cell_angle_beta   89.916064
_cell_angle_gamma 121.31564
loop_
_atom_site_label
_atom_site_type_symbol
_atom_site_fract_x
_atom_site_fract_y
_atom_site_fract_z
_atom_type_partial_charge
H0 H 0.08414 0.48444 0.19895 0.0
H1 H 0.21438 0.63136 0.37743 0.0
H2 H 0.01865 0.46031 0.29176 0.0
H3 H 0.9837 0.43663 0.26837 0.0
H4 H 0.97235 0.5037 0.26459 0.0
H5 H 0.0069 0.52688 0.28837 0.0
H6 H 0.08327 0.49116 0.27946 0.0
H7 H 0.08671 0.48354 0.24663 0.0
H8 H 0.05665 0.53523 0.23281 0.0
H9 H 0.05366 0.54293 0.26567 0.0
H10 H 0.13152 0.52804 0.30813 0.0
H11 H 0.17781 0.55731 0.29651 0.0
H12 H 0.15302 0.60827 0.27164 0.0
H13 H 0.10708 0.5789 0.28311 0.0
H14 H 0.10551 0.51771 0.34961 0.0
H15 H 0.14556 0.54107 0.36935 0.0
H16 H 0.16411 0.61614 0.34529 0.0
H17 H 0.12377 0.59256 0.32584 0.0
H18 H 0.04217 0.48962 0.35843 0.0
H19 H 0.04918 0.49498 0.39182 0.0
H20 H 0.08451 0.58 0.38573 0.0
H21 H 0.07657 0.57425 0.35251 0.0
H22 H 0.99228 0.46802 0.3306 0.0
H23 H 0.94872 0.46064 0.34206 0.0
H24 H 0.98176 0.54566 0.34139 0.0
H25 H 0.02485 0.55277 0.32995 0.0
O26 O 0.08277 0.48784 0.21185 0.0
O27 O 0.0671 0.51445 0.20549 0.0
O28 O 0.1879 0.58252 0.38179 0.0
O29 O 0.19847 0.62162 0.36975 0.0
C30 C 0.03979 0.51115 0.30309 0.0
C31 C 0.0656 0.52158 0.29487 0.0
C32 C 0.0892 0.53642 0.30557 0.0
C33 C 0.08703 0.53919 0.32473 0.0
C34 C 0.06122 0.52902 0.33288 0.0
C35 C 0.03769 0.51603 0.3219 0.0
C36 C 0.01524 0.49525 0.2917 0.0
C37 C 0.00807 0.46954 0.2862 0.0
C38 C 0.98833 0.4562 0.2727 0.0
C39 C 0.97553 0.46844 0.2644 0.0
C40 C 0.98166 0.49361 0.27078 0.0
C41 C 0.00137 0.50691 0.28437 0.0
C42 C 0.06801 0.5174 0.27492 0.0
C43 C 0.07752 0.50086 0.26931 0.0
C44 C 0.0794 0.49651 0.25056 0.0
C45 C 0.07185 0.5087 0.23709 0.0
C46 C 0.06254 0.52546 0.24281 0.0
C47 C 0.06073 0.52983 0.26156 0.0
C48 C 0.11606 0.55144 0.29646 0.0
C49 C 0.13609 0.54528 0.29987 0.0
C50 C 0.16247 0.56208 0.29333 0.0
C51 C 0.1691 0.58518 0.28324 0.0
C52 C 0.14855 0.59047 0.27913 0.0
C53 C 0.12229 0.57374 0.2857 0.0
C54 C 0.11184 0.55344 0.33626 0.0
C55 C 0.11829 0.53919 0.34862 0.0
C56 C 0.14116 0.55259 0.35987 0.0
C57 C 0.15807 0.58049 0.35888 0.0
C58 C 0.15157 0.59466 0.34638 0.0
C59 C 0.1286 0.58125 0.33521 0.0
C60 C 0.05916 0.53158 0.35309 0.0
C61 C 0.05054 0.50925 0.36443 0.0
C62 C 0.05485 0.5124 0.38345 0.0
C63 C 0.06788 0.53797 0.39139 0.0
C64 C 0.07431 0.56002 0.38012 0.0
C65 C 0.06989 0.55681 0.36111 0.0
C66 C 0.0116 0.51091 0.32948 0.0
C67 C 0.99002 0.48496 0.33302 0.0
C68 C 0.96529 0.48083 0.33959 0.0
C69 C 0.96186 0.5026 0.34248 0.0
C70 C 0.9837 0.52851 0.33904 0.0
C71 C 0.00834 0.53261 0.33265 0.0
C72 C 0.07373 0.50391 0.21719 0.0
C73 C 0.18234 0.59483 0.37085 0.0
H74 H 0.57586 0.07942 0.37254 0.0
H75 H 0.56973 0.18708 0.56153 0.0
H76 H 0.56626 0.01467 0.47124 0.0
H77 H 0.56364 0.9831 0.4482 0.0
H78 H 0.47952 0.95704 0.43845 0.0
H79 H 0.48224 0.9882 0.46212 0.0
H80 H 0.58343 0.0728 0.45266 0.0
H81 H 0.58851 0.07908 0.41916 0.0
H82 H 0.50174 0.0433 0.41402 0.0
H83 H 0.49703 0.0373 0.44754 0.0
H84 H 0.59416 0.11554 0.47933 0.0
H85 H 0.60634 0.15972 0.46771 0.0
H86 H 0.52146 0.13173 0.45997 0.0
H87 H 0.50951 0.0876 0.47138 0.0
H88 H 0.58879 0.09445 0.52366 0.0
H89 H 0.60444 0.13292 0.54405 0.0
H90 H 0.53269 0.13537 0.53097 0.0
H91 H 0.51713 0.09669 0.51083 0.0
H92 H 0.56254 0.02848 0.53045 0.0
H93 H 0.57015 0.03122 0.56374 0.0
H94 H 0.5126 0.05669 0.57088 0.0
H95 H 0.50411 0.05247 0.53771 0.0
H96 H 0.53785 0.9834 0.5034 0.0
H97 H 0.50903 0.93794 0.51549 0.0
H98 H 0.44467 0.95371 0.52494 0.0
H99 H 0.47354 -0.0012 0.51313 0.0
O100 O 0.5734 0.07679 0.38574 0.0
O101 O 0.52869 0.05821 0.38385 0.0
O102 O 0.60051 0.16968 0.55989 0.0
O103 O 0.56404 0.17188 0.55354 0.0
C104 C 0.52776 0.02535 0.48041 0.0
C105 C 0.53691 0.05071 0.4727 0.0
C106 C 0.54338 0.07246 0.48428 0.0
C107 C 0.54234 0.0693 0.50361 0.0
C108 C 0.53257 0.04375 0.51133 0.0
C109 C 0.52408 0.02156 0.49965 0.0
C110 C 0.52443 0.00359 0.46832 0.0
C111 C 0.54714 0.00171 0.46438 0.0
C112 C 0.54565 0.98388 0.45108 0.0
C113 C 0.52147 0.96778 0.44129 0.0
C114 C 0.49838 0.96898 0.44584 0.0
C115 C 0.49987 0.98677 0.45929 0.0
C116 C 0.53988 0.05456 0.45243 0.0
C117 C 0.56558 0.06639 0.44424 0.0
C118 C 0.5684 0.06992 0.42513 0.0
C119 C 0.54552 0.06166 0.4139 0.0
C120 C 0.51977 0.04985 0.42224 0.0
C121 C 0.517 0.04637 0.44136 0.0
C122 C 0.55101 0.09855 0.47617 0.0
C123 C 0.57829 0.11895 0.47492 0.0
C124 C 0.58517 0.14404 0.46827 0.0
C125 C 0.56479 0.14907 0.46304 0.0
C126 C 0.5375 0.1284 0.46407 0.0
C127 C 0.53068 0.10325 0.47046 0.0
C128 C 0.55191 0.0929 0.51573 0.0
C129 C 0.57651 0.10336 0.52522 0.0
C130 C 0.58539 0.12532 0.53685 0.0
C131 C 0.56982 0.13725 0.53913 0.0
C132 C 0.54519 0.12671 0.52952 0.0
C133 C 0.5363 0.10469 0.51795 0.0
C134 C 0.53308 0.04066 0.53164 0.0
C135 C 0.55101 0.03389 0.53929 0.0
C136 C 0.55556 0.03578 0.55829 0.0
C137 C 0.5424 0.04468 0.56999 0.0
C138 C 0.52301 0.04964 0.56236 0.0
C139 C 0.51827 0.04746 0.54337 0.0
C140 C 0.50771 0.9943 0.50735 0.0
C141 C 0.51752 0.97692 0.5081 0.0
C142 C 0.50103 0.95101 0.51497 0.0
C143 C 0.47458 0.94223 0.52126 0.0
C144 C 0.46507 0.95992 0.52056 0.0
C145 C 0.48148 0.98566 0.51371 0.0
C146 C 0.54858 0.0654 0.3936 0.0
C147 C 0.57914 0.16056 0.55148 0.0
H148 H 0.54697 0.49419 0.77176 0.0
H149 H 0.56027 0.40616 0.57373 0.0
H150 H 0.535 0.55276 0.67977 0.0
H151 H 0.52385 0.57015 0.70689 0.0
H152 H 0.44212 0.50207 0.70605 0.0
H153 H 0.45322 0.48516 0.67851 0.0
H154 H 0.55898 0.51439 0.69224 0.0
H155 H 0.56218 0.51099 0.72571 0.0
H156 H 0.47587 0.4542 0.7282 0.0
H157 H 0.47306 0.45758 0.69471 0.0
H158 H 0.57334 0.48281 0.65961 0.0
H159 H 0.58456 0.45007 0.67046 0.0
H160 H 0.50038 0.39595 0.68447 0.0
H161 H 0.48935 0.42852 0.67342 0.0
H162 H 0.57277 0.50864 0.62209 0.0
H163 H 0.59127 0.49105 0.59969 0.0
H164 H 0.51976 0.41259 0.606 0.0
H165 H 0.50133 0.43055 0.6282 0.0
H166 H 0.54893 0.54426 0.61647 0.0
H167 H 0.56576 0.54944 0.58489 0.0
H168 H 0.50138 0.46903 0.57263 0.0
H169 H 0.48494 0.46395 0.60437 0.0
H170 H 0.51198 0.55871 0.64773 0.0
H171 H 0.4821 0.57451 0.63804 0.0
H172 H 0.427 0.49718 0.61429 0.0
H173 H 0.45602 0.48124 0.62506 0.0
O174 O 0.5453 0.49504 0.75853 0.0
O175 O 0.50083 0.46607 0.75908 0.0
O176 O 0.5898 0.45435 0.57988 0.0
O177 O 0.55357 0.41356 0.58272 0.0
C178 C 0.50355 0.50464 0.66399 0.0
C179 C 0.51395 0.48924 0.67091 0.0
C180 C 0.52318 0.47704 0.65865 0.0
C181 C 0.52401 0.48197 0.63957 0.0
C182 C 0.51345 0.4973 0.63265 0.0
C183 C 0.50212 0.5077 0.64478 0.0
C184 C 0.49485 0.51783 0.67722 0.0
C185 C 0.51442 0.54217 0.68503 0.0
C186 C 0.50806 0.552 0.70048 0.0
C187 C 0.48222 0.53729 0.70851 0.0
C188 C 0.46219 0.51365 0.70006 0.0
C189 C 0.46842 0.50411 0.68434 0.0
C190 C 0.51578 0.48637 0.69113 0.0
C191 C 0.54084 0.50116 0.70006 0.0
C192 C 0.54258 0.49921 0.71916 0.0
C193 C 0.51926 0.4824 0.72964 0.0
C194 C 0.4942 0.46739 0.72056 0.0
C195 C 0.49252 0.46932 0.70145 0.0
C196 C 0.53056 0.458 0.66578 0.0
C197 C 0.55739 0.46387 0.66502 0.0
C198 C 0.56372 0.44518 0.67116 0.0
C199 C 0.54333 0.42052 0.67833 0.0
C200 C 0.51655 0.41491 0.67924 0.0
C201 C 0.51022 0.43345 0.67293 0.0
C202 C 0.53572 0.47086 0.62672 0.0
C203 C 0.56118 0.48765 0.61863 0.0
C204 C 0.57169 0.47755 0.60586 0.0
C205 C 0.55698 0.4504 0.60105 0.0
C206 C 0.53161 0.43358 0.6094 0.0
C207 C 0.52107 0.44375 0.62212 0.0
C208 C 0.51606 0.50359 0.61271 0.0
C209 C 0.53766 0.52826 0.6067 0.0
C210 C 0.54727 0.53116 0.58864 0.0
C211 C 0.53527 0.50937 0.57648 0.0
C212 C 0.51131 0.48595 0.58187 0.0
C213 C 0.50174 0.48308 0.59991 0.0
C214 C 0.486 0.51871 0.63733 0.0
C215 C 0.49338 0.5452 0.64052 0.0
C216 C 0.4764 0.55426 0.63479 0.0
C217 C 0.45191 0.53703 0.62556 0.0
C218 C 0.4453 0.51083 0.62175 0.0
C219 C 0.46206 0.50176 0.62768 0.0
C220 C 0.52112 0.4806 0.74996 0.0
C221 C 0.56787 0.43966 0.58726 0.0
H222 H 0.03841 0.53739 0.95196 0.0
H223 H 0.18914 0.58132 0.76889 0.0
H224 H 0.99073 0.54309 0.85998 0.0
H225 H 0.95698 0.52235 0.88453 0.0
H226 H 0.93752 0.44458 0.86567 0.0
H227 H 0.97162 0.4656 0.84121 0.0
H228 H 0.05328 0.56646 0.87375 0.0
H229 H 0.05117 0.56233 0.90741 0.0
H230 H 0.01075 0.47665 0.90228 0.0
H231 H 0.01347 0.48112 0.86867 0.0
H232 H 0.10715 0.58212 0.84688 0.0
H233 H 0.14682 0.58437 0.86119 0.0
H234 H 0.10151 0.49857 0.86703 0.0
H235 H 0.06273 0.49652 0.85207 0.0
H236 H 0.08857 0.59129 0.80547 0.0
H237 H 0.13108 0.61124 0.78805 0.0
H238 H 0.13165 0.53826 0.79402 0.0
H239 H 0.08896 0.51846 0.81121 0.0
H240 H 0.03105 0.57022 0.79051 0.0
H241 H 0.04399 0.5831 0.75818 0.0
H242 H 0.05741 0.51768 0.75171 0.0
H243 H 0.04443 0.50501 0.78386 0.0
H244 H 0.96694 0.52782 0.81875 0.0
H245 H 0.92195 0.49786 0.80533 0.0
H246 H 0.95097 0.44934 0.78242 0.0
H247 H 0.99515 0.47843 0.79638 0.0
O248 O 0.03931 0.53859 0.93864 0.0
O249 O 0.01817 0.49462 0.93522 0.0
O250 O 0.17105 0.61098 0.77304 0.0
O251 O 0.17239 0.57397 0.77581 0.0
C252 C 0.00952 0.5184 0.8385 0.0
C253 C 0.03377 0.52678 0.84837 0.0
C254 C 0.05847 0.53692 0.83881 0.0
C255 C 0.05951 0.54126 0.81963 0.0
C256 C 0.03529 0.53285 0.80972 0.0
C257 C 0.01008 0.52021 0.81903 0.0
C258 C 0.98368 0.50584 0.84893 0.0
C259 C 0.97837 0.52155 0.86069 0.0
C260 C 0.95911 0.50965 0.87472 0.0
C261 C 0.94496 0.48187 0.87717 0.0
C262 C 0.94844 0.46607 0.86422 0.0
C263 C 0.96764 0.47799 0.85013 0.0
C264 C 0.03325 0.52409 0.8688 0.0
C265 C 0.0441 0.54684 0.87994 0.0
C266 C 0.0428 0.54441 0.89916 0.0
C267 C 0.03065 0.51914 0.90754 0.0
C268 C 0.02014 0.49639 0.89628 0.0
C269 C 0.02157 0.49888 0.87708 0.0
C270 C 0.08214 0.53917 0.84849 0.0
C271 C 0.10591 0.5639 0.85132 0.0
C272 C 0.12841 0.56512 0.85959 0.0
C273 C 0.12733 0.5416 0.86516 0.0
C274 C 0.10319 0.51699 0.86263 0.0
C275 C 0.08091 0.5158 0.85427 0.0
C276 C 0.08582 0.55352 0.80967 0.0
C277 C 0.09797 0.5797 0.80303 0.0
C278 C 0.12223 0.59102 0.79308 0.0
C279 C 0.13479 0.57634 0.78965 0.0
C280 C 0.12256 0.55012 0.79643 0.0
C281 C 0.09824 0.5388 0.80632 0.0
C282 C 0.03676 0.53668 0.78945 0.0
C283 C 0.03595 0.55821 0.78189 0.0
C284 C 0.04357 0.56567 0.76352 0.0
C285 C 0.05188 0.5515 0.75246 0.0
C286 C 0.05082 0.52881 0.75979 0.0
C287 C 0.04342 0.52153 0.77815 0.0
C288 C 0.98443 0.50544 0.80844 0.0
C289 C 0.96366 0.51097 0.81057 0.0
C290 C 0.93805 0.49389 0.80295 0.0
C291 C 0.9331 0.47139 0.7928 0.0
C292 C 0.95435 0.46677 0.78991 0.0
C293 C 0.97967 0.48347 0.79781 0.0
C294 C 0.02896 0.5166 0.92795 0.0
C295 C 0.16049 0.58823 0.779 0.0
H296 H 0.41538 0.97821 0.87852 0.0
H297 H 0.44221 0.82669 0.0379 0.0
H298 H 0.46572 0.03362 0.96924 0.0
H299 H 0.48421 0.07039 0.94703 0.0
H300 H 0.56086 0.07365 0.94807 0.0
H301 H 0.5425 0.03793 0.97079 0.0
H302 H 0.42484 0.96753 0.95799 0.0
H303 H 0.4128 0.96871 0.92578 0.0
H304 H 0.49652 0.00147 0.90987 0.0
H305 H 0.50817 -0.00025 0.94205 0.0
H306 H 0.41655 0.91225 0.98302 0.0
H307 H 0.40483 0.86935 0.96916 0.0
H308 H 0.48095 0.90825 0.93963 0.0
H309 H 0.49314 0.95041 0.95414 0.0
H310 H 0.4311 0.93324 0.02525 0.0
H311 H 0.41599 0.89067 0.04071 0.0
H312 H 0.47656 0.88321 0.01074 0.0
H313 H 0.49172 0.92596 0.99561 0.0
H314 H 0.46614 0.99543 0.03907 0.0
H315 H 0.4728 0.99046 0.07191 0.0
H316 H 0.52622 0.9622 0.05733 0.0
H317 H 0.51988 0.96778 0.02467 0.0
H318 H 0.49107 0.04937 0.00889 0.0
H319 H 0.52534 0.09209 0.02252 0.0
H320 H 0.58049 0.0634 0.02701 0.0
H321 H 0.54661 0.02124 0.01299 0.0
O322 O 0.42054 0.97775 0.89115 0.0
O323 O 0.4639 0.99479 0.88372 0.0
O324 O 0.41735 0.84861 0.04736 0.0
O325 O 0.44788 0.84364 0.03208 0.0
C326 C 0.49032 0.00762 0.98182 0.0
C327 C 0.4745 0.9835 0.97206 0.0
C328 C 0.46603 0.95894 0.98085 0.0
C329 C 0.47134 0.95835 -0.00017 0.0
C330 C 0.48636 0.98243 0.00973 0.0
C331 C 0.49669 0.00709 0.00056 0.0
C332 C 0.50279 0.03316 0.97155 0.0
C333 C 0.48675 0.04294 0.96505 0.0
C334 C 0.49729 0.06372 0.95219 0.0
C335 C 0.52394 0.07479 0.94546 0.0
C336 C 0.5404 0.06597 0.95302 0.0
C337 C 0.52995 0.04546 0.96602 0.0
C338 C 0.46741 0.98386 0.95239 0.0
C339 C 0.44052 0.9749 0.94751 0.0
C340 C 0.43372 0.97564 0.92911 0.0
C341 C 0.45373 0.98532 0.91526 0.0
C342 C 0.48064 0.99402 0.9202 0.0
C343 C 0.48738 0.99318 0.93859 0.0
C344 C 0.45571 0.93445 0.9696 0.0
C345 C 0.43038 0.91155 0.97324 0.0
C346 C 0.42373 0.88717 0.96536 0.0
C347 C 0.44202 0.88567 0.95335 0.0
C348 C 0.46637 0.90899 0.94864 0.0
C349 C 0.47329 0.93311 0.95686 0.0
C350 C 0.46234 0.93256 0.00923 0.0
C351 C 0.44109 0.92238 0.02209 0.0
C352 C 0.43249 0.89807 0.03087 0.0
C353 C 0.44502 0.88349 0.02692 0.0
C354 C 0.46644 0.89388 0.01408 0.0
C355 C 0.4751 0.91825 0.00538 0.0
C356 C 0.49231 0.9817 0.02955 0.0
C357 C 0.47955 0.98852 0.04304 0.0
C358 C 0.48327 0.98553 0.06174 0.0
C359 C 0.49993 0.97581 0.0672 0.0
C360 C 0.51349 0.97 0.0536 0.0
C361 C 0.50972 0.97294 0.03494 0.0
C362 C 0.51631 0.03218 0.01007 0.0
C363 C 0.51049 0.05231 0.01295 0.0
C364 C 0.53001 0.0766 0.0207 0.0
C365 C 0.55544 0.0809 0.02589 0.0
C366 C 0.56089 0.06043 0.02342 0.0
C367 C 0.54158 0.03637 0.01543 0.0
C368 C 0.44648 0.98628 0.89575 0.0
C369 C 0.43585 0.85756 0.03611 0.0
H370 H 0.50086 0.45018 0.04258 0.0
H371 H 0.58935 0.42026 0.24011 0.0
H372 H 0.459 0.47426 0.13275 0.0
H373 H 0.44856 0.49368 0.10668 0.0
H374 H 0.52286 0.56893 0.11622 0.0
H375 H 0.53362 0.54883 0.14182 0.0
H376 H 0.48021 0.44015 0.12211 0.0
H377 H 0.48197 0.43697 0.0885 0.0
H378 H 0.55619 0.51411 0.08727 0.0
H379 H 0.55421 0.5169 0.1209 0.0
H380 H 0.5119 0.42294 0.13711 0.0
H381 H 0.54277 0.41205 0.12152 0.0
H382 H 0.61128 0.48543 0.14195 0.0
H383 H 0.58047 0.4966 0.15646 0.0
H384 H 0.4959 0.41936 0.1854 0.0
H385 H 0.50977 0.39573 0.20622 0.0
H386 H 0.58791 0.468 0.21298 0.0
H387 H 0.57379 0.49127 0.19209 0.0
H388 H 0.47539 0.45782 0.20713 0.0
H389 H 0.4795 0.45773 0.24083 0.0
H390 H 0.56246 0.52343 0.23667 0.0
H391 H 0.55802 0.5234 0.2033 0.0
H392 H 0.46058 0.50165 0.17464 0.0
H393 H 0.45622 0.53893 0.18565 0.0
H394 H 0.54277 0.58583 0.19442 0.0
H395 H 0.54699 0.54911 0.18299 0.0
O396 O 0.50063 0.45178 0.05587 0.0
O397 O 0.53863 0.49157 0.05597 0.0
O398 O 0.54295 0.3924 0.22778 0.0
O399 O 0.5834 0.42905 0.23174 0.0
C400 C 0.5061 0.49658 0.15175 0.0
C401 C 0.51563 0.48078 0.14417 0.0
C402 C 0.52625 0.46921 0.15581 0.0
C403 C 0.52488 0.47122 0.17509 0.0
C404 C 0.51578 0.48736 0.18266 0.0
C405 C 0.50756 0.50105 0.17095 0.0
C406 C 0.49701 0.51016 0.13911 0.0
C407 C 0.47262 0.49513 0.12948 0.0
C408 C 0.46669 0.50632 0.11462 0.0
C409 C 0.48503 0.53281 0.10924 0.0
C410 C 0.50855 0.54835 0.11982 0.0
C411 C 0.51457 0.53705 0.1346 0.0
C412 C 0.51711 0.47869 0.12385 0.0
C413 C 0.49687 0.45625 0.11453 0.0
C414 C 0.49792 0.45453 0.09535 0.0
C415 C 0.51922 0.47529 0.08519 0.0
C416 C 0.53951 0.49776 0.09466 0.0
C417 C 0.53846 0.49941 0.11385 0.0
C418 C 0.54403 0.4605 0.14791 0.0
C419 C 0.53359 0.43651 0.13819 0.0
C420 C 0.55124 0.43032 0.12938 0.0
C421 C 0.57951 0.44805 0.13028 0.0
C422 C 0.58967 0.47164 0.14056 0.0
C423 C 0.57212 0.47788 0.14912 0.0
C424 C 0.5338 0.45699 0.18734 0.0
C425 C 0.51602 0.42998 0.19136 0.0
C426 C 0.52399 0.41658 0.20327 0.0
C427 C 0.54995 0.43001 0.21131 0.0
C428 C 0.56777 0.45707 0.20707 0.0
C429 C 0.55977 0.47043 0.19516 0.0
C430 C 0.51635 0.49076 0.20288 0.0
C431 C 0.49411 0.47269 0.21364 0.0
C432 C 0.49656 0.47258 0.23281 0.0
C433 C 0.52132 0.49054 0.24141 0.0
C434 C 0.54296 0.50967 0.23057 0.0
C435 C 0.5405 0.50969 0.21146 0.0
C436 C 0.50402 0.5225 0.17846 0.0
C437 C 0.47848 0.51992 0.17912 0.0
C438 C 0.47606 0.54117 0.18533 0.0
C439 C 0.49914 0.56509 0.1911 0.0
C440 C 0.52459 0.56744 0.19046 0.0
C441 C 0.52702 0.54645 0.18402 0.0
C442 C 0.52018 0.47347 0.06481 0.0
C443 C 0.55845 0.41593 0.22408 0.0
Li444 Li 0.67278 0.46962 0.42643 0.0
Li445 Li 0.65991 0.42678 0.41513 0.0
Li446 Li 0.70352 0.46517 0.40727 0.0
Li447 Li 0.66174 0.46066 0.39505 0.0
C448 C 0.68429 0.43868 0.44938 0.0
N449 N 0.67165 0.41705 0.48446 0.0
C450 C 0.6583 0.42884 0.45661 0.0
C451 C 0.70381 0.43744 0.45997 0.0
C452 C 0.65232 0.41801 0.47438 0.0
C453 C 0.69703 0.42646 0.47768 0.0
C454 C 0.61172 0.42559 0.41 0.0
C455 C 0.581 0.39067 0.38936 0.0
N456 N 0.55979 0.39085 0.3974 0.0
C457 C 0.58963 0.42545 0.41804 0.0
C458 C 0.6074 0.40808 0.39553 0.0
C459 C 0.56353 0.40772 0.41148 0.0
C460 C 0.648 0.49339 0.44285 0.0
N461 N 0.66768 0.48779 0.44609 0.0
C462 C 0.67178 0.50216 0.47732 0.0
C463 C 0.68035 0.49283 0.46268 0.0
C464 C 0.65032 0.50658 0.47463 0.0
C465 C 0.63905 0.503 0.45697 0.0
H466 H 0.6384 0.4892 0.42945 0.0
H467 H 0.6962 0.48848 0.4648 0.0
C468 C 0.65831 0.37906 0.41523 0.0
N469 N 0.64337 0.38989 0.42009 0.0
C470 C 0.6487 0.35227 0.41879 0.0
C471 C 0.60827 0.34818 0.43212 0.0
C472 C 0.61883 0.37517 0.42848 0.0
C473 C 0.62332 0.33638 0.42734 0.0
H474 H 0.67793 0.39143 0.4088 0.0
H475 H 0.60752 0.38437 0.43247 0.0
C476 C 0.70693 0.51669 0.41426 0.0
N477 N 0.7319 0.56398 0.43372 0.0
C478 C 0.69902 0.53526 0.41158 0.0
C479 C 0.72763 0.52222 0.42675 0.0
C480 C 0.71187 0.55904 0.42158 0.0
C481 C 0.73999 0.54623 0.43648 0.0
C482 C 0.68741 0.44017 0.37324 0.0
C483 C 0.70066 0.46518 0.36471 0.0
C484 C 0.68575 0.41837 0.36419 0.0
C485 C 0.71196 0.46793 0.3472 0.0
C486 C 0.6973 0.42193 0.34668 0.0
N487 N 0.71006 0.44643 0.33862 0.0
C488 C 0.74427 0.45428 0.40428 0.0
C489 C 0.75776 0.49778 0.39391 0.0
C490 C 0.76907 0.45771 0.39892 0.0
N491 N 0.7391 0.47409 0.40159 0.0
C492 C 0.78296 0.50213 0.3884 0.0
C493 C 0.78877 0.48181 0.39071 0.0
H494 H 0.72875 0.43552 0.41016 0.0
H495 H 0.75285 0.51302 0.39172 0.0
C496 C 0.63495 0.4836 0.3797 0.0
N497 N 0.64333 0.46639 0.3758 0.0
C498 C 0.61846 0.48694 0.36735 0.0
C499 C 0.61937 0.45456 0.34725 0.0
C500 C 0.63588 0.45186 0.35999 0.0
C501 C 0.61028 0.47213 0.35095 0.0
H502 H 0.64034 0.49404 0.39273 0.0
H503 H 0.64199 0.4376 0.35751 0.0
O504 O 0.69079 0.44934 0.43199 0.0
O505 O 0.63737 0.44318 0.41618 0.0
O506 O 0.69417 0.49298 0.40499 0.0
O507 O 0.67649 0.43695 0.39049 0.0
H508 H 0.6429 0.42965 0.4487 0.0
H509 H 0.724 0.44492 0.45455 0.0
H510 H 0.63232 0.41039 0.48015 0.0
H511 H 0.71196 0.4254 0.48604 0.0
H512 H 0.57737 0.37703 0.37817 0.0
H513 H 0.59265 0.43894 0.42922 0.0
H514 H 0.62418 0.40785 0.3891 0.0
H515 H 0.54625 0.4074 0.41758 0.0
H516 H 0.68108 0.50489 0.49075 0.0
H517 H 0.62227 0.50588 0.45438 0.0
H518 H 0.66133 0.34431 0.41522 0.0
H519 H 0.58851 0.33672 0.43856 0.0
H520 H 0.6831 0.53135 0.40194 0.0
H521 H 0.73383 0.50795 0.4291 0.0
H522 H 0.7059 0.57356 0.4197 0.0
H523 H 0.75593 0.55071 0.44627 0.0
H524 H 0.70221 0.48231 0.3715 0.0
H525 H 0.67564 0.39891 0.37066 0.0
H526 H 0.72226 0.48716 0.34043 0.0
H527 H 0.69615 0.40523 0.33951 0.0
H528 H 0.7724 0.44131 0.40066 0.0
H529 H 0.79762 0.52111 0.3823 0.0
H530 H 0.61152 0.50035 0.37087 0.0
H531 H 0.61369 0.4429 0.33469 0.0
Li532 Li 0.22953 0.63394 0.59183 0.0
Li533 Li 0.26404 0.62668 0.57801 0.0
Li534 Li 0.2666 0.66787 0.57187 0.0
Li535 Li 0.2307 0.62718 0.55946 0.0
C536 C 0.28452 0.65139 0.60933 0.0
N537 N 0.31535 0.64349 0.63472 0.0
C538 C 0.27212 0.62991 0.62161 0.0
C539 C 0.31257 0.66894 0.61004 0.0
C540 C 0.28806 0.62625 0.63434 0.0
C541 C 0.32781 0.66458 0.62295 0.0
C542 C 0.21018 0.5781 0.57042 0.0
C543 C 0.20824 0.54571 0.54902 0.0
N544 N 0.18074 0.53158 0.55043 0.0
C545 C 0.18191 0.56321 0.57171 0.0
C546 C 0.22349 0.56928 0.55901 0.0
C547 C 0.16739 0.53977 0.56148 0.0
C548 C 0.17886 0.61356 0.608 0.0
N549 N 0.20579 0.6277 0.61185 0.0
C550 C 0.1967 0.63118 0.64355 0.0
C551 C 0.21502 0.637 0.62911 0.0
C552 C 0.16868 0.61578 0.64011 0.0
C553 C 0.15984 0.60723 0.62199 0.0
H554 H 0.17219 0.60716 0.59401 0.0
H555 H 0.23658 0.64876 0.6317 0.0
C556 C 0.31219 0.62646 0.5751 0.0
N557 N 0.28666 0.61263 0.58213 0.0
C558 C 0.33058 0.61844 0.57892 0.0
C559 C 0.29593 0.58195 0.59701 0.0
C560 C 0.27812 0.59055 0.5927 0.0
C561 C 0.32268 0.59608 0.59021 0.0
H562 H 0.31837 0.64403 0.5668 0.0
H563 H 0.25773 0.58011 0.59823 0.0
C564 C 0.22206 0.67389 0.57849 0.0
N565 N 0.21194 0.71148 0.59283 0.0
C566 C 0.20411 0.67945 0.56957 0.0
C567 C 0.23482 0.68741 0.59475 0.0
C568 C 0.19929 0.69855 0.57702 0.0
C569 C 0.22943 0.70634 0.60176 0.0
C570 C 0.2754 0.65587 0.53689 0.0
C571 C 0.2624 0.66903 0.53081 0.0
C572 C 0.29428 0.65477 0.52544 0.0
C573 C 0.26853 0.68083 0.51335 0.0
C574 C 0.29985 0.66683 0.50806 0.0
N575 N 0.28696 0.6795 0.50243 0.0
C576 C 0.31862 0.71019 0.56603 0.0
C577 C 0.28628 0.72338 0.56382 0.0
C578 C 0.33965 0.73599 0.56191 0.0
N579 N 0.29261 0.70444 0.5671 0.0
C580 C 0.30672 0.74952 0.55979 0.0
C581 C 0.33381 0.75608 0.5588 0.0
H582 H 0.32295 0.69454 0.56815 0.0
H583 H 0.26544 0.71827 0.56397 0.0
C584 C 0.18273 0.61034 0.54006 0.0
N585 N 0.20687 0.61161 0.5391 0.0
C586 C 0.16433 0.59953 0.52552 0.0
C587 C 0.19587 0.59115 0.50939 0.0
C588 C 0.21367 0.60215 0.52425 0.0
C589 C 0.17087 0.58989 0.50985 0.0
H590 H 0.1778 0.61777 0.55217 0.0
H591 H 0.23297 0.60328 0.52392 0.0
O592 O 0.26931 0.65485 0.59644 0.0
O593 O 0.22475 0.60151 0.5799 0.0
O594 O 0.22661 0.65498 0.57137 0.0
O595 O 0.26994 0.64417 0.55395 0.0
H596 H 0.25049 0.61588 0.62106 0.0
H597 H 0.3225 0.68572 0.60071 0.0
H598 H 0.27876 0.6096 0.64382 0.0
H599 H 0.34956 0.67794 0.62359 0.0
H600 H 0.21827 0.53874 0.54006 0.0
H601 H 0.17126 0.56973 0.58044 0.0
H602 H 0.24533 0.58074 0.55764 0.0
H603 H 0.14549 0.5281 0.56229 0.0
H604 H 0.2044 0.63809 0.65732 0.0
H605 H 0.13845 0.5958 0.61866 0.0
H606 H 0.35078 0.62971 0.57309 0.0
H607 H 0.28899 0.56487 0.606 0.0
H608 H 0.19403 0.66912 0.557 0.0
H609 H 0.24881 0.68349 0.60188 0.0
H610 H 0.18547 0.70307 0.57023 0.0
H611 H 0.23918 0.71696 0.61431 0.0
H612 H 0.24775 0.67016 0.53942 0.0
H613 H 0.30453 0.64469 0.52995 0.0
H614 H 0.25862 0.69107 0.50848 0.0
H615 H 0.31442 0.66612 0.49906 0.0
H616 H 0.36026 0.7402 0.56129 0.0
H617 H 0.3013 0.76431 0.55707 0.0
H618 H 0.14514 0.5986 0.52657 0.0
H619 H 0.20187 0.58422 0.49751 0.0
Li620 Li 0.66677 0.24053 0.75035 0.0
Li621 Li 0.62543 0.2083 0.76712 0.0
Li622 Li 0.63215 0.19922 0.7353 0.0
Li623 Li 0.62067 0.23246 0.74215 0.0
C624 C 0.67341 0.19626 0.75316 0.0
N625 N 0.71073 0.1819 0.74454 0.0
C626 C 0.67439 0.1767 0.7635 0.0
C627 C 0.69139 0.20854 0.73845 0.0
C628 C 0.69342 0.16972 0.75893 0.0
C629 C 0.71011 0.20099 0.7343 0.0
C630 C 0.64172 0.25544 0.78273 0.0
C631 C 0.61737 0.25776 0.80904 0.0
N632 N 0.64098 0.27085 0.81866 0.0
C633 C 0.66578 0.26916 0.79282 0.0
C634 C 0.61735 0.24993 0.79084 0.0
C635 C 0.66498 0.2767 0.81098 0.0
C636 C 0.71132 0.2907 0.74309 0.0
N637 N 0.70348 0.26794 0.75269 0.0
C638 C 0.74612 0.28819 0.76816 0.0
C639 C 0.7203 0.26611 0.76489 0.0
C640 C 0.75459 0.31212 0.75864 0.0
C641 C 0.73706 0.31308 0.7457 0.0
H642 H 0.69719 0.29169 0.73382 0.0
H643 H 0.71326 0.24789 0.77261 0.0
C644 C 0.58632 0.1739 0.79327 0.0
N645 N 0.61278 0.19309 0.79084 0.0
C646 C 0.57673 0.16303 0.81075 0.0
C647 C 0.62185 0.19183 0.82284 0.0
C648 C 0.63065 0.20176 0.80508 0.0
C649 C 0.59451 0.17214 0.82592 0.0
H650 H 0.57269 0.1669 0.78162 0.0
H651 H 0.65172 0.21663 0.80265 0.0
C652 C 0.65446 0.23697 0.70714 0.0
N653 N 0.66332 0.23767 0.66958 0.0
C654 C 0.6326 0.22327 0.69508 0.0
C655 C 0.68086 0.25099 0.70007 0.0
C656 C 0.63748 0.22385 0.67615 0.0
C657 C 0.68491 0.25113 0.68105 0.0
C658 C 0.57339 0.18876 0.74186 0.0
C659 C 0.56292 0.17832 0.72443 0.0
C660 C 0.55833 0.19462 0.75396 0.0
C661 C 0.5377 0.17424 0.71932 0.0
C662 C 0.53322 0.19031 0.74833 0.0
N663 N 0.52352 0.1803 0.73127 0.0
C664 C 0.6023 0.14777 0.72084 0.0
C665 C 0.64289 0.17542 0.70425 0.0
C666 C 0.59371 0.12786 0.70751 0.0
N667 N 0.62592 0.17142 0.71857 0.0
C668 C 0.635 0.15615 0.69049 0.0
C669 C 0.60964 0.13233 0.69169 0.0
H670 H 0.58949 0.14485 0.7326 0.0
H671 H 0.66193 0.19407 0.70295 0.0
C672 C 0.60748 0.27185 0.74495 0.0
N673 N 0.60385 0.25142 0.73405 0.0
C674 C 0.59795 0.28824 0.73942 0.0
C675 C 0.58103 0.26238 0.71145 0.0
C676 C 0.59068 0.2463 0.71762 0.0
C677 C 0.58488 0.28382 0.72235 0.0
H678 H 0.61852 0.276 0.75771 0.0
H679 H 0.58805 0.23011 0.7091 0.0
O680 O 0.65487 0.20326 0.7575 0.0
O681 O 0.64206 0.2476 0.76498 0.0
O682 O 0.65015 0.23647 0.72576 0.0
O683 O 0.59823 0.19324 0.74706 0.0
H684 H 0.66059 0.16704 0.77495 0.0
H685 H 0.69091 0.2237 0.73033 0.0
H686 H 0.69443 0.15462 0.76682 0.0
H687 H 0.72413 0.21032 0.72294 0.0
H688 H 0.5986 0.25344 0.81551 0.0
H689 H 0.68487 0.27384 0.78678 0.0
H690 H 0.5986 0.23964 0.7832 0.0
H691 H 0.68343 0.28719 0.81897 0.0
H692 H 0.75914 0.28674 0.77823 0.0
H693 H 0.74275 0.33129 0.7383 0.0
H694 H 0.55568 0.14738 0.81225 0.0
H695 H 0.63634 0.19976 0.83403 0.0
H696 H 0.61217 0.21163 0.7003 0.0
H697 H 0.69809 0.26153 0.70916 0.0
H698 H 0.62073 0.21313 0.66669 0.0
H699 H 0.70523 0.26187 0.67542 0.0
H700 H 0.57419 0.17366 0.71482 0.0
H701 H 0.56593 0.20246 0.76755 0.0
H702 H 0.52946 0.16633 0.70583 0.0
H703 H 0.52143 0.19489 0.75754 0.0
H704 H 0.57436 0.10954 0.70929 0.0
H705 H 0.64801 0.1606 0.67858 0.0
H706 H 0.60171 0.30483 0.74809 0.0
H707 H 0.57089 0.25825 0.69823 0.0
Li708 Li 0.43262 0.60205 0.92691 0.0
Li709 Li 0.43205 0.63858 0.9121 0.0
Li710 Li 0.39168 0.59231 0.91198 0.0
Li711 Li 0.43118 0.60369 0.89261 0.0
C712 C 0.41032 0.61816 0.95166 0.0
N713 N 0.41379 0.62113 0.9897 0.0
C714 C 0.42726 0.64261 0.9603 0.0
C715 C 0.39487 0.59529 0.96237 0.0
C716 C 0.42877 0.64368 0.97955 0.0
C717 C 0.39702 0.59717 0.98158 0.0
C718 C 0.48519 0.65067 0.90454 0.0
C719 C 0.51554 0.68028 0.88098 0.0
N720 N 0.53497 0.69358 0.89398 0.0
C721 C 0.50565 0.66442 0.9176 0.0
C722 C 0.49034 0.65848 0.88603 0.0
C723 C 0.53059 0.68614 0.91202 0.0
C724 C 0.43452 0.56738 0.95299 0.0
N725 N 0.44592 0.59332 0.94792 0.0
C726 C 0.47087 0.60792 0.97605 0.0
C727 C 0.46417 0.61346 0.95885 0.0
C728 C 0.45844 0.58139 0.98204 0.0
C729 C 0.44046 0.56092 0.97016 0.0
H730 H 0.41999 0.55179 0.94405 0.0
H731 H 0.47224 0.63389 0.95471 0.0
C732 C 0.41931 0.67715 0.90887 0.0
N733 N 0.44027 0.67413 0.9138 0.0
C734 C 0.4213 0.70164 0.91088 0.0
C735 C 0.46615 0.71945 0.92369 0.0
C736 C 0.46352 0.69464 0.92103 0.0
C737 C 0.44476 0.72299 0.91862 0.0
H738 H 0.40065 0.66024 0.90387 0.0
H739 H 0.47949 0.69149 0.92545 0.0
C740 C 0.3893 0.54696 0.90679 0.0
N741 N 0.3453 0.49614 0.90136 0.0
C742 C 0.38494 0.53473 0.88955 0.0
C743 C 0.37145 0.5332 0.92132 0.0
C744 C 0.36254 0.50906 0.88707 0.0
C745 C 0.34927 0.50757 0.91828 0.0
C746 C 0.40537 0.63023 0.87588 0.0
C747 C 0.38083 0.61906 0.86631 0.0
C748 C 0.42774 0.65404 0.86954 0.0
C749 C 0.37929 0.63153 0.85033 0.0
C750 C 0.42539 0.66594 0.85354 0.0
N751 N 0.40143 0.6545 0.84432 0.0
C752 C 0.3409 0.57874 0.92617 0.0
C753 C 0.33963 0.55998 0.89695 0.0
C754 C 0.31347 0.57021 0.9249 0.0
N755 N 0.35344 0.57405 0.91211 0.0
C756 C 0.31222 0.55122 0.89504 0.0
C757 C 0.29902 0.55712 0.90887 0.0
H758 H 0.35249 0.59039 0.93791 0.0
H759 H 0.35031 0.55709 0.88581 0.0
C760 C 0.46421 0.59536 0.86765 0.0
N761 N 0.44113 0.59603 0.86957 0.0
C762 C 0.47126 0.59 0.85043 0.0
C763 C 0.43059 0.58598 0.83769 0.0
C764 C 0.42414 0.59095 0.85513 0.0
C765 C 0.45443 0.58558 0.8352 0.0
H766 H 0.47716 0.59914 0.87946 0.0
H767 H 0.40533 0.59033 0.85719 0.0
O768 O 0.40906 0.6166 0.93281 0.0
O769 O 0.46073 0.62913 0.9098 0.0
O770 O 0.41101 0.57219 0.90944 0.0
O771 O 0.40716 0.61822 0.89161 0.0
H772 H 0.43933 0.66051 0.95225 0.0
H773 H 0.38161 0.57623 0.95593 0.0
H774 H 0.44194 0.66244 0.98642 0.0
H775 H 0.38539 0.57958 0.99003 0.0
H776 H 0.51967 0.68656 0.86671 0.0
H777 H 0.50236 0.65853 0.93193 0.0
H778 H 0.47519 0.64779 0.87559 0.0
H779 H 0.54648 0.69704 0.92203 0.0
H780 H 0.48451 0.62427 0.98494 0.0
H781 H 0.43068 0.5402 0.97426 0.0
H782 H 0.40417 0.70351 0.90722 0.0
H783 H 0.48442 0.73552 0.9299 0.0
H784 H 0.39868 0.54489 0.87821 0.0
H785 H 0.37451 0.54231 0.93475 0.0
H786 H 0.35887 0.4994 0.87378 0.0
H787 H 0.33519 0.4968 0.92937 0.0
H788 H 0.36317 0.60087 0.87106 0.0
H789 H 0.44653 0.66362 0.87711 0.0
H790 H 0.36047 0.62296 0.84273 0.0
H791 H 0.44257 0.68437 0.84852 0.0
H792 H 0.30401 0.57486 0.93598 0.0
H793 H 0.30204 0.54156 0.88232 0.0
H794 H 0.48976 0.58967 0.84896 0.0
H795 H 0.41681 0.58199 0.82633 0.0
Li796 Li 0.78515 0.38867 0.07646 0.0
Li797 Li 0.8175 0.37955 0.09322 0.0
Li798 Li 0.81965 0.38707 0.05895 0.0
Li799 Li 0.78377 0.34739 0.07197 0.0
C800 C 0.82817 0.43608 0.08445 0.0
N801 N 0.83297 0.48344 0.09537 0.0
C802 C 0.83759 0.44617 0.10212 0.0
C803 C 0.82136 0.45018 0.0723 0.0
C804 C 0.83985 0.47012 0.10738 0.0
C805 C 0.82386 0.47404 0.07809 0.0
C806 C 0.75682 0.33926 0.10289 0.0
C807 C 0.73931 0.29902 0.12085 0.0
N808 N 0.71361 0.29275 0.11693 0.0
C809 C 0.73027 0.33253 0.09912 0.0
C810 C 0.76144 0.32246 0.11389 0.0
C811 C 0.70868 0.30888 0.10631 0.0
C812 C 0.74144 0.39392 0.06677 0.0
N813 N 0.76169 0.40187 0.07932 0.0
C814 C 0.74334 0.4224 0.09779 0.0
C815 C 0.76292 0.4157 0.09469 0.0
C816 C 0.72191 0.41397 0.08524 0.0
C817 C 0.72114 0.39972 0.06951 0.0
H818 H 0.74043 0.38213 0.05502 0.0
H819 H 0.77858 0.42077 0.10482 0.0
C820 C 0.86373 0.39611 0.11558 0.0
N821 N 0.83662 0.38632 0.11564 0.0
C822 C 0.8781 0.40308 0.13217 0.0
C823 C 0.83626 0.38946 0.14846 0.0
C824 C 0.82275 0.38284 0.13158 0.0
C825 C 0.86437 0.40001 0.14891 0.0
H826 H 0.87423 0.399 0.10262 0.0
H827 H 0.80126 0.37541 0.13116 0.0
C828 C 0.78154 0.37234 0.03469 0.0
N829 N 0.78532 0.37825 0.99678 0.0
C830 C 0.78129 0.35276 0.0236 0.0
C831 C 0.78343 0.39481 0.0265 0.0
C832 C 0.78327 0.35613 0.00446 0.0
C833 C 0.78541 0.39746 0.00731 0.0
C834 C 0.82319 0.33639 0.07428 0.0
C835 C 0.8179 0.32042 0.05867 0.0
C836 C 0.82887 0.32864 0.09109 0.0
C837 C 0.8184 0.29696 0.06016 0.0
C838 C 0.82918 0.30504 0.09201 0.0
N839 N 0.82399 0.28982 0.07666 0.0
C840 C 0.85061 0.42711 0.03245 0.0
C841 C 0.84826 0.38608 0.02764 0.0
C842 C 0.86321 0.43658 0.01537 0.0
N843 N 0.84278 0.402 0.03799 0.0
C844 C 0.86075 0.39468 0.01045 0.0
C845 C 0.86782 0.42003 0.00391 0.0
H846 H 0.84607 0.43939 0.04094 0.0
H847 H 0.84175 0.3662 0.0323 0.0
C848 C 0.73572 0.30796 0.05742 0.0
N849 N 0.75664 0.31074 0.06778 0.0
C850 C 0.71375 0.28283 0.05338 0.0
C851 C 0.73454 0.26343 0.07122 0.0
C852 C 0.75613 0.28913 0.07509 0.0
C853 C 0.71308 0.26007 0.06005 0.0
H854 H 0.73582 0.32536 0.0525 0.0
H855 H 0.77219 0.29172 0.08409 0.0
O856 O 0.82581 0.41264 0.07906 0.0
O857 O 0.77819 0.36191 0.09553 0.0
O858 O 0.78048 0.36979 0.05349 0.0
O859 O 0.8234 0.35976 0.07305 0.0
H860 H 0.84312 0.43566 0.11169 0.0
H861 H 0.8137 0.44254 0.05867 0.0
H862 H 0.84706 0.47813 0.12102 0.0
H863 H 0.81845 0.48504 0.06888 0.0
H864 H 0.74256 0.28573 0.12928 0.0
H865 H 0.72638 0.34527 0.09055 0.0
H866 H 0.7819 0.32729 0.11678 0.0
H867 H 0.68801 0.30331 0.10341 0.0
H868 H 0.74425 0.43301 0.11025 0.0
H869 H 0.7048 0.39281 0.05961 0.0
H870 H 0.89982 0.41149 0.13184 0.0
H871 H 0.82481 0.38647 0.16101 0.0
H872 H 0.77995 0.3353 0.02972 0.0
H873 H 0.78373 0.41018 0.03488 0.0
H874 H 0.78331 0.34123 0.99572 0.0
H875 H 0.78713 0.41485 0.00079 0.0
H876 H 0.81295 0.32574 0.04563 0.0
H877 H 0.83295 0.34065 0.10332 0.0
H878 H 0.8142 0.28435 0.04823 0.0
H879 H 0.83352 0.29881 0.10493 0.0
H880 H 0.86879 0.45645 0.01103 0.0
H881 H 0.86367 0.38113 0.00205 0.0
H882 H 0.69725 0.28133 0.0453 0.0
H883 H 0.73479 0.24645 0.07679 0.0
Li884 Li 0.49197 0.82961 0.26928 0.0
Li885 Li 0.44913 0.80124 0.25155 0.0
Li886 Li 0.48959 0.80136 0.24377 0.0
Li887 Li 0.48602 0.83865 0.23631 0.0
C888 C 0.46968 0.76856 0.2724 0.0
N889 N 0.47098 0.72331 0.28057 0.0
C890 C 0.44888 0.74364 0.26632 0.0
C891 C 0.49103 0.77048 0.28275 0.0
C892 C 0.44995 0.721 0.27055 0.0
C893 C 0.49133 0.74736 0.28672 0.0
C894 C 0.44417 0.83936 0.26557 0.0
C895 C 0.40045 0.8347 0.26138 0.0
N896 N 0.39884 0.83757 0.27988 0.0
C897 C 0.44214 0.8424 0.28452 0.0
C898 C 0.42323 0.83563 0.25388 0.0
C899 C 0.41905 0.8414 0.29149 0.0
C900 C 0.52089 0.87147 0.29419 0.0
N901 N 0.50481 0.84458 0.29281 0.0
C902 C 0.49964 0.84016 0.32553 0.0
C903 C 0.49456 0.82879 0.30798 0.0
C904 C 0.51519 0.86803 0.3274 0.0
C905 C 0.52647 0.88369 0.31146 0.0
H906 H 0.52823 0.88348 0.2818 0.0
H907 H 0.48132 0.80749 0.3064 0.0
C908 C 0.39618 0.76391 0.2398 0.0
N909 N 0.41149 0.77768 0.25459 0.0
C910 C 0.3693 0.74345 0.24227 0.0
C911 C 0.3744 0.75217 0.27508 0.0
C912 C 0.40121 0.77236 0.27199 0.0
C913 C 0.35823 0.73703 0.26014 0.0
H914 H 0.40518 0.76801 0.22621 0.0
H915 H 0.41414 0.78323 0.28352 0.0
C916 C 0.54153 0.83967 0.24746 0.0
N917 N 0.5896 0.84014 0.24601 0.0
C918 C 0.55207 0.83802 0.23047 0.0
C919 C 0.55548 0.84164 0.2637 0.0
C920 C 0.57638 0.83825 0.23003 0.0
C921 C 0.57975 0.84184 0.26268 0.0
C922 C 0.46262 0.80705 0.20867 0.0
C923 C 0.48148 0.80715 0.19649 0.0
C924 C 0.4436 0.81299 0.20209 0.0
C925 C 0.48108 0.81336 0.17792 0.0
C926 C 0.44394 0.8192 0.18345 0.0
N927 N 0.46251 0.81925 0.17185 0.0
C928 C 0.47943 0.75679 0.22449 0.0
C929 C 0.51946 0.7735 0.24222 0.0
C930 C 0.48084 0.73479 0.21917 0.0
N931 N 0.49856 0.77567 0.23576 0.0
C932 C 0.52176 0.75178 0.23714 0.0
C933 C 0.50212 0.73193 0.22556 0.0
H934 H 0.4623 0.75818 0.22019 0.0
H935 H 0.53375 0.78795 0.25186 0.0
C936 C 0.48006 0.87852 0.21927 0.0
N937 N 0.4946 0.8663 0.21891 0.0
C938 C 0.48289 0.89593 0.20514 0.0
C939 C 0.51666 0.88894 0.19102 0.0
C940 C 0.51327 0.87179 0.2055 0.0
C941 C 0.50084 0.90076 0.19047 0.0
H942 H 0.46562 0.87411 0.23022 0.0
H943 H 0.52458 0.86184 0.20554 0.0
O944 O 0.46943 0.79103 0.2679 0.0
O945 O 0.46647 0.8399 0.2585 0.0
O946 O 0.51798 0.83989 0.24818 0.0
O947 O 0.46308 0.80161 0.22699 0.0
H948 H 0.43229 0.74187 0.25821 0.0
H949 H 0.5074 0.78967 0.28741 0.0
H950 H 0.43412 0.7016 0.26582 0.0
H951 H 0.50782 0.74854 0.2946 0.0
H952 H 0.38402 0.83162 0.25251 0.0
H953 H 0.45813 0.84543 0.29379 0.0
H954 H 0.42435 0.83307 0.2392 0.0
H955 H 0.41718 0.84364 0.30613 0.0
H956 H 0.49078 0.82733 0.33744 0.0
H957 H 0.53821 0.90524 0.3122 0.0
H958 H 0.35774 0.73201 0.2304 0.0
H959 H 0.36662 0.74809 0.28906 0.0
H960 H 0.54145 0.83626 0.21778 0.0
H961 H 0.54764 0.84295 0.27697 0.0
H962 H 0.5847 0.83684 0.217 0.0
H963 H 0.59074 0.8433 0.27514 0.0
H964 H 0.49653 0.80287 0.20135 0.0
H965 H 0.42894 0.81312 0.21132 0.0
H966 H 0.49565 0.81366 0.16837 0.0
H967 H 0.42948 0.82405 0.17821 0.0
H968 H 0.46476 0.71967 0.21071 0.0
H969 H 0.5385 0.75037 0.24245 0.0
H970 H 0.47069 0.90501 0.20548 0.0
H971 H 0.53053 0.89181 0.17994 0.0
H972 H 0.18865 0.61387 0.25113 0.0
H973 H 0.34103 0.70028 0.28804 0.0
H974 H 0.21446 0.602 0.30429 0.0
H975 H 0.31251 0.72036 0.23922 0.0
H976 H 0.29564 0.66174 0.29284 0.0
H977 H 0.23503 0.65009 0.24492 0.0
C978 C 0.2041 0.61878 0.26145 0.0
C979 C 0.19762 0.60496 0.2783 0.0
C980 C 0.29929 0.67458 0.28108 0.0
C981 C 0.25072 0.64632 0.27126 0.0
C982 C 0.32517 0.69674 0.27841 0.0
C983 C 0.33057 0.71375 0.26328 0.0
C984 C 0.27861 0.66926 0.26851 0.0
C985 C 0.30934 0.7077 0.251 0.0
C986 C 0.23056 0.63944 0.25789 0.0
C987 C 0.21855 0.61189 0.29104 0.0
N988 N 0.28428 0.68597 0.2539 0.0
N989 N 0.24412 0.63218 0.28729 0.0
H990 H 0.54302 0.17792 0.47516 0.0
H991 H 0.62923 0.30026 0.4069 0.0
H992 H 0.60278 0.1814 0.43757 0.0
H993 H 0.5939 0.30733 0.45757 0.0
H994 H 0.61425 0.25429 0.41506 0.0
H995 H 0.55581 0.22306 0.46577 0.0
C996 C 0.55869 0.18816 0.46482 0.0
C997 C 0.57191 0.17603 0.45711 0.0
C998 C 0.60978 0.26595 0.42434 0.0
C999 C 0.58657 0.22746 0.44633 0.0
C1000 C 0.61842 0.29226 0.41976 0.0
C1001 C 0.61303 0.3079 0.43162 0.0
C1002 C 0.59533 0.25502 0.44078 0.0
C1003 C 0.59827 0.29606 0.44786 0.0
C1004 C 0.56608 0.21392 0.45956 0.0
C1005 C 0.59227 0.1902 0.44392 0.0
N1006 N 0.58994 0.27034 0.45195 0.0
N1007 N 0.59893 0.21518 0.43888 0.0
H1008 H 0.39633 0.50807 0.62672 0.0
H1009 H 0.37725 0.62806 0.59729 0.0
H1010 H 0.46382 0.58624 0.61283 0.0
H1011 H 0.31304 0.54535 0.59454 0.0
H1012 H 0.409 0.61406 0.60554 0.0
H1013 H 0.36524 0.52239 0.61772 0.0
C1014 C 0.40469 0.5282 0.62162 0.0
C1015 C 0.43286 0.54587 0.62038 0.0
C1016 C 0.38797 0.59901 0.60307 0.0
C1017 C 0.39713 0.56258 0.61043 0.0
C1018 C 0.36981 0.60695 0.59825 0.0
C1019 C 0.34232 0.58787 0.59514 0.0
C1020 C 0.37859 0.57179 0.60501 0.0
C1021 C 0.33388 0.56083 0.59705 0.0
C1022 C 0.38685 0.53639 0.61658 0.0
C1023 C 0.44233 0.57196 0.61419 0.0
N1024 N 0.35191 0.55362 0.60191 0.0
N1025 N 0.4245 0.57953 0.60946 0.0
H1026 H 0.88664 0.44857 0.81321 0.0
H1027 H 0.79319 0.34714 0.73444 0.0
H1028 H 0.91692 0.44768 0.75894 0.0
H1029 H 0.77524 0.33266 0.79256 0.0
H1030 H 0.83585 0.38826 0.74201 0.0
H1031 H 0.84227 0.4107 0.80445 0.0
C1032 C 0.88376 0.44071 0.79933 0.0
C1033 C 0.9054 0.45118 0.78676 0.0
C1034 C 0.82256 0.37604 0.75308 0.0
C1035 C 0.85497 0.40778 0.77676 0.0
C1036 C 0.79828 0.35266 0.74878 0.0
C1037 C 0.78085 0.33646 0.76292 0.0
C1038 C 0.82919 0.38343 0.77163 0.0
C1039 C 0.78833 0.34443 0.78127 0.0
C1040 C 0.85857 0.41895 0.79442 0.0
C1041 C 0.90074 0.44002 0.76905 0.0
N1042 N 0.8119 0.36743 0.7851 0.0
N1043 N 0.87601 0.41886 0.76456 0.0
H1044 H 0.43098 0.84381 0.9754 0.0
H1045 H 0.43445 0.75304 0.89518 0.0
H1046 H 0.445 0.8694 0.91856 0.0
H1047 H 0.45582 0.74881 0.95153 0.0
H1048 H 0.43127 0.79192 0.90322 0.0
H1049 H 0.43148 0.80382 0.96656 0.0
C1050 C 0.43354 0.84065 0.96099 0.0
C1051 C 0.43782 0.85971 0.94763 0.0
C1052 C 0.43683 0.78256 0.91376 0.0
C1053 C 0.43886 0.8145 0.93753 0.0
C1054 C 0.43869 0.7605 0.90919 0.0
C1055 C 0.44559 0.74798 0.92272 0.0
C1056 C 0.44135 0.79169 0.93205 0.0
C1057 C 0.45079 0.7582 0.94069 0.0
C1058 C 0.43419 0.81808 0.95601 0.0
C1059 C 0.44162 0.85505 0.92921 0.0
N1060 N 0.44833 0.77937 0.9449 0.0
N1061 N 0.44205 0.83284 0.92467 0.0
H1062 H 0.62607 0.48329 0.1119 0.0
H1063 H 0.66761 0.37748 0.08543 0.0
H1064 H 0.57655 0.39997 0.12635 0.0
H1065 H 0.72578 0.46091 0.09423 0.0
H1066 H 0.63105 0.38511 0.09405 0.0
H1067 H 0.65984 0.47482 0.09888 0.0
C1068 C 0.62227 0.46319 0.11236 0.0
C1069 C 0.59864 0.4424 0.1206 0.0
C1070 C 0.65181 0.40173 0.09396 0.0
C1071 C 0.63702 0.43256 0.1053 0.0
C1072 C 0.67259 0.39745 0.08896 0.0
C1073 C 0.69964 0.41864 0.08919 0.0
C1074 C 0.65819 0.42744 0.09892 0.0
C1075 C 0.70515 0.44407 0.09403 0.0
C1076 C 0.64152 0.4584 0.10484 0.0
C1077 C 0.59443 0.41661 0.12016 0.0
N1078 N 0.68457 0.44779 0.09868 0.0
N1079 N 0.61355 0.41242 0.11273 0.0
H1080 H 0.46806 0.89572 0.50739 0.0
H1081 H 0.34096 0.80286 0.57217 0.0
H1082 H 0.43963 0.92573 0.55067 0.0
H1083 H 0.3767 0.77197 0.53517 0.0
H1084 H 0.37684 0.84811 0.56412 0.0
H1085 H 0.43525 0.85024 0.51743 0.0
C1086 C 0.45518 0.89278 0.51914 0.0
C1087 C 0.45647 0.9146 0.5281 0.0
C1088 C 0.37693 0.83145 0.55781 0.0
C1089 C 0.41857 0.86261 0.53945 0.0
C1090 C 0.35634 0.80562 0.56231 0.0
C1091 C 0.35581 0.78363 0.55429 0.0
C1092 C 0.39707 0.83538 0.54507 0.0
C1093 C 0.37648 0.78837 0.5418 0.0
C1094 C 0.43632 0.8668 0.52479 0.0
C1095 C 0.439 0.90953 0.54311 0.0
N1096 N 0.39619 0.81373 0.5375 0.0
N1097 N 0.42069 0.88411 0.54822 0.0
H1098 H 0.5747 0.40456 0.66105 0.0
H1099 H 0.55874 0.3041 0.74146 0.0
H1100 H 0.52634 0.39077 0.70993 0.0
H1101 H 0.59297 0.3062 0.68807 0.0
H1102 H 0.54842 0.33734 0.73072 0.0
H1103 H 0.58394 0.37039 0.67145 0.0
C1104 C 0.56619 0.39444 0.67403 0.0
C1105 C 0.54974 0.40045 0.68466 0.0
C1106 C 0.55805 0.33042 0.72131 0.0
C1107 C 0.56002 0.36129 0.69655 0.0
C1108 C 0.56399 0.31152 0.72745 0.0
C1109 C 0.57672 0.30243 0.71563 0.0
C1110 C 0.56514 0.3405 0.70328 0.0
C1111 C 0.58289 0.3125 0.69757 0.0
C1112 C 0.57128 0.37481 0.67988 0.0
C1113 C 0.53891 0.38653 0.70124 0.0
N1114 N 0.5772 0.33114 0.69197 0.0
N1115 N 0.54431 0.36765 0.70671 0.0
H1116 H 0.14546 0.5077 0.85823 0.0
H1117 H 0.28011 0.5899 0.91766 0.0
H1118 H 0.16419 0.57744 0.88996 0.0
H1119 H 0.25557 0.51426 0.89208 0.0
H1120 H 0.23695 0.58473 0.90887 0.0
H1121 H 0.1851 0.50919 0.87122 0.0
C1122 C 0.15777 0.5232 0.86808 0.0
C1123 C 0.15143 0.54245 0.87305 0.0
C1124 C 0.24087 0.56912 0.90534 0.0
C1125 C 0.19717 0.54449 0.88778 0.0
C1126 C 0.26545 0.57192 0.91051 0.0
C1127 C 0.27155 0.55249 0.90557 0.0
C1128 C 0.22229 0.54683 0.89502 0.0
C1129 C 0.25192 0.52993 0.89594 0.0
C1130 C 0.18048 0.52409 0.87545 0.0
C1131 C 0.16848 0.56239 0.88557 0.0
N1132 N 0.22825 0.52782 0.89085 0.0
N1133 N 0.19064 0.56294 0.89247 0.0
H1134 H 0.58877 0.09192 0.05568 0.0
H1135 H 0.68607 0.24366 0.0272 0.0
H1136 H 0.57156 0.12953 0.01105 0.0
H1137 H 0.6874 0.21509 0.0819 0.0
H1138 H 0.64656 0.20041 0.01994 0.0
H1139 H 0.62724 0.1356 0.06468 0.0
C1140 C 0.59302 0.10943 0.04788 0.0
C1141 C 0.57704 0.10723 0.03263 0.0
C1142 C 0.65543 0.20362 0.03356 0.0
C1143 C 0.62095 0.1569 0.04264 0.0
C1144 C 0.67797 0.22836 0.03776 0.0
C1145 C 0.68995 0.2332 0.05529 0.0
C1146 C 0.64489 0.18332 0.04686 0.0
C1147 C 0.67899 0.21224 0.06817 0.0
C1148 C 0.61487 0.13427 0.05303 0.0
C1149 C 0.58323 0.13043 0.02301 0.0
N1150 N 0.65704 0.18815 0.06369 0.0
N1151 N 0.60487 0.15429 0.02807 0.0
H1152 H 0.47231 0.58628 0.17412 0.0
H1153 H 0.51674 0.70329 0.24757 0.0
H1154 H 0.52208 0.59655 0.22143 0.0
H1155 H 0.48864 0.70494 0.19266 0.0
H1156 H 0.51501 0.66193 0.2398 0.0
H1157 H 0.47289 0.62689 0.18275 0.0
C1158 C 0.48305 0.59692 0.18645 0.0
C1159 C 0.49722 0.58815 0.19707 0.0
C1160 C 0.5093 0.67143 0.22946 0.0
C1161 C 0.49822 0.63463 0.20691 0.0
C1162 C 0.5105 0.69517 0.23383 0.0
C1163 C 0.5028 0.70768 0.22077 0.0
C1164 C 0.50012 0.65997 0.21198 0.0
C1165 C 0.49434 0.69583 0.20329 0.0
C1166 C 0.48361 0.6202 0.19127 0.0
C1167 C 0.51111 0.60282 0.2128 0.0
N1168 N 0.49311 0.67261 0.19945 0.0
N1169 N 0.51127 0.62536 0.21725 0.0
H1170 H 0.93479 0.52576 0.32911 0.0
H1171 H 0.81983 0.46441 0.40693 0.0
H1172 H 0.92947 0.47048 0.37056 0.0
H1173 H 0.81684 0.50671 0.35911 0.0
H1174 H 0.86129 0.46838 0.39486 0.0
H1175 H 0.8928 0.52092 0.34091 0.0
C1176 C 0.92474 0.5126 0.34072 0.0
C1177 C 0.93565 0.49858 0.34894 0.0
C1178 C 0.85155 0.47678 0.38702 0.0
C1179 C 0.88759 0.49293 0.36252 0.0
C1180 C 0.82782 0.47447 0.39387 0.0
C1181 C 0.81473 0.48521 0.38402 0.0
C1182 C 0.86242 0.49006 0.37024 0.0
C1183 C 0.82638 0.49847 0.36733 0.0
C1184 C 0.90073 0.50976 0.3474 0.0
C1185 C 0.92163 0.48151 0.36377 0.0
N1186 N 0.84953 0.50051 0.36098 0.0
N1187 N 0.89838 0.47928 0.37017 0.0
H1188 H 0.06826 0.57238 0.41735 0.0
H1189 H 0.15814 0.54641 0.48845 0.0
H1190 H 0.09077 0.51354 0.40933 0.0
H1191 H 0.14081 0.60917 0.49484 0.0
H1192 H 0.12934 0.53097 0.46109 0.0
H1193 H 0.09028 0.58282 0.44757 0.0
C1194 C 0.0776 0.56148 0.42201 0.0
C1195 C 0.07771 0.54211 0.41074 0.0
C1196 C 0.1317 0.54802 0.46853 0.0
C1197 C 0.10298 0.55396 0.44528 0.0
C1198 C 0.14828 0.55695 0.4841 0.0
C1199 C 0.1521 0.57926 0.49388 0.0
C1200 C 0.11887 0.56154 0.46263 0.0
C1201 C 0.13833 0.59178 0.48782 0.0
C1202 C 0.09013 0.56742 0.43927 0.0
C1203 C 0.08984 0.52839 0.41759 0.0
N1204 N 0.12248 0.58286 0.47252 0.0
N1205 N 0.10215 0.53473 0.43433 0.0
H1206 H 0.51048 0.03758 0.60033 0.0
H1207 H 0.63723 0.11791 0.66799 0.0
H1208 H 0.59359 0.06758 0.58439 0.0
H1209 H 0.5574 0.10431 0.67885 0.0
H1210 H 0.61992 0.09179 0.63968 0.0
H1211 H 0.52589 0.05427 0.63157 0.0
C1212 C 0.53192 0.04747 0.6034 0.0
C1213 C 0.55075 0.05134 0.5896 0.0
C1214 C 0.60616 0.09431 0.64839 0.0
C1215 C 0.56848 0.07028 0.6254 0.0
C1216 C 0.61604 0.10931 0.66453 0.0
C1217 C 0.59886 0.1136 0.6758 0.0
C1218 C 0.57887 0.08344 0.64348 0.0
C1219 C 0.57142 0.10141 0.67076 0.0
C1220 C 0.54068 0.05691 0.62126 0.0
C1221 C 0.57824 0.06385 0.59455 0.0
N1222 N 0.56236 0.0871 0.65492 0.0
N1223 N 0.58628 0.07304 0.61197 0.0
H1224 H 0.49006 0.58549 0.71903 0.0
H1225 H 0.46696 0.54821 0.82592 0.0
H1226 H 0.46447 0.50686 0.73945 0.0
H1227 H 0.45654 0.60995 0.80274 0.0
H1228 H 0.4741 0.53674 0.79472 0.0
H1229 H 0.48491 0.59853 0.75028 0.0
C1230 C 0.48317 0.57099 0.73011 0.0
C1231 C 0.47731 0.54503 0.72676 0.0
C1232 C 0.47034 0.55285 0.79651 0.0
C1233 C 0.47207 0.55983 0.76231 0.0
C1234 C 0.46652 0.55952 0.81425 0.0
C1235 C 0.4611 0.57995 0.81677 0.0
C1236 C 0.46914 0.56703 0.7813 0.0
C1237 C 0.46048 0.59392 0.80126 0.0
C1238 C 0.48026 0.57839 0.74785 0.0
C1239 C 0.46869 0.52693 0.74149 0.0
N1240 N 0.46451 0.58724 0.78414 0.0
N1241 N 0.4665 0.53473 0.7587 0.0
H1242 H 0.90921 0.49196 0.89504 0.0
H1243 H 0.90432 0.4116 0.98555 0.0
H1244 H 0.94764 0.44581 0.89927 0.0
H1245 H 0.85597 0.44763 0.97896 0.0
H1246 H 0.92073 0.42449 0.95397 0.0
H1247 H 0.88942 0.47618 0.92575 0.0
C1248 C 0.9132 0.47827 0.90236 0.0
C1249 C 0.92992 0.47004 0.89457 0.0
C1250 C 0.9065 0.42956 0.95942 0.0
C1251 C 0.90773 0.45221 0.92971 0.0
C1252 C 0.89708 0.42215 0.97745 0.0
C1253 C 0.87878 0.42859 0.98496 0.0
C1254 C 0.89766 0.44361 0.94879 0.0
C1255 C 0.87042 0.44264 0.97387 0.0
C1256 C 0.90194 0.46929 0.91986 0.0
C1257 C 0.93448 0.45229 0.90461 0.0
N1258 N 0.87995 0.44971 0.95636 0.0
N1259 N 0.92361 0.44413 0.9217 0.0
H1260 H 0.54494 0.98532 0.08659 0.0
H1261 H 0.45818 0.9003 0.17364 0.0
H1262 H 0.45884 0.95234 0.09251 0.0
H1263 H 0.54497 0.93619 0.16961 0.0
H1264 H 0.45892 0.92276 0.14522 0.0
H1265 H 0.54621 0.97074 0.118 0.0
C1266 C 0.52634 0.97517 0.09455 0.0
C1267 C 0.50172 0.96988 0.08687 0.0
C1268 C 0.47786 0.92595 0.15062 0.0
C1269 C 0.50301 0.95316 0.1228 0.0
C1270 C 0.4775 0.91326 0.16696 0.0
C1271 C 0.50156 0.91628 0.17406 0.0
C1272 C 0.50243 0.94166 0.14114 0.0
C1273 C 0.52587 0.93294 0.16451 0.0
C1274 C 0.5271 0.96694 0.11249 0.0
C1275 C 0.47831 0.95703 0.0979 0.0
N1276 N 0.52565 0.94485 0.14848 0.0
N1277 N 0.4795 0.9489 0.11523 0.0
H1278 H 0.50493 0.44395 0.25981 0.0
H1279 H 0.61215 0.51776 0.34006 0.0
H1280 H 0.54952 0.52926 0.26744 0.0
H1281 H 0.56705 0.43253 0.33207 0.0
H1282 H 0.58407 0.52189 0.31672 0.0
H1283 H 0.52121 0.43891 0.28959 0.0
C1284 C 0.51757 0.46161 0.26796 0.0
C1285 C 0.52617 0.48711 0.261 0.0
C1286 C 0.58014 0.50226 0.32019 0.0
C1287 C 0.54559 0.48151 0.2949 0.0
C1288 C 0.59613 0.49988 0.33355 0.0
C1289 C 0.59222 0.4748 0.33779 0.0
C1290 C 0.56015 0.47939 0.31098 0.0
C1291 C 0.57122 0.45232 0.32888 0.0
C1292 C 0.52711 0.45873 0.28492 0.0
C1293 C 0.54285 0.50926 0.27212 0.0
N1294 N 0.55614 0.45518 0.31578 0.0
N1295 N 0.55237 0.50598 0.28841 0.0
H1296 H 0.48084 0.91728 0.43146 0.0
H1297 H 0.55979 0.91222 0.34199 0.0
H1298 H 0.56083 0.98054 0.41531 0.0
H1299 H 0.47626 0.85328 0.35412 0.0
H1300 H 0.56203 0.93524 0.3706 0.0
H1301 H 0.4801 0.89139 0.40477 0.0
C1302 C 0.49824 0.92572 0.42233 0.0
C1303 C 0.52094 0.95113 0.42568 0.0
C1304 C 0.54326 0.91717 0.36706 0.0
C1305 C 0.52034 0.92153 0.39521 0.0
C1306 C 0.54195 0.90405 0.3507 0.0
C1307 C 0.51777 0.88083 0.34557 0.0
C1308 C 0.52022 0.90704 0.37842 0.0
C1309 C 0.49543 0.87094 0.35758 0.0
C1310 C 0.49787 0.91088 0.40715 0.0
C1311 C 0.54307 0.96089 0.41349 0.0
N1312 N 0.49715 0.88418 0.37337 0.0
N1313 N 0.54217 0.94612 0.39881 0.0
H1314 H 0.54397 0.47005 0.56618 0.0
H1315 H 0.63318 0.54223 0.47741 0.0
H1316 H 0.56252 0.54863 0.55026 0.0
H1317 H 0.6363 0.48047 0.5075 0.0
H1318 H 0.6048 0.54393 0.50201 0.0
H1319 H 0.57387 0.4715 0.54198 0.0
C1320 C 0.55395 0.48744 0.55735 0.0
C1321 C 0.55057 0.50918 0.56014 0.0
C1322 C 0.61204 0.5303 0.50329 0.0
C1323 C 0.58538 0.51118 0.53256 0.0
C1324 C 0.6282 0.52932 0.48931 0.0
C1325 C 0.63709 0.5112 0.49047 0.0
C1326 C 0.60441 0.51267 0.51828 0.0
C1327 C 0.63015 0.49494 0.50615 0.0
C1328 C 0.57134 0.48841 0.54369 0.0
C1329 C 0.56458 0.53146 0.54852 0.0
N1330 N 0.61397 0.49585 0.51933 0.0
N1331 N 0.58138 0.53188 0.53515 0.0
H1332 H 0.04392 0.52348 0.72045 0.0
H1333 H 0.16961 0.64616 0.66921 0.0
H1334 H 0.08916 0.60293 0.74299 0.0
H1335 H 0.12255 0.56728 0.64594 0.0
H1336 H 0.13814 0.63163 0.69528 0.0
H1337 H 0.0699 0.54011 0.6918 0.0
C1338 C 0.05912 0.54448 0.71928 0.0
C1339 C 0.06446 0.56182 0.73414 0.0
C1340 C 0.13457 0.61755 0.6844 0.0
C1341 C 0.09443 0.58099 0.70148 0.0
C1342 C 0.15263 0.6258 0.66957 0.0
C1343 C 0.14882 0.60787 0.65542 0.0
C1344 C 0.11261 0.59112 0.68517 0.0
C1345 C 0.12618 0.58185 0.65645 0.0
C1346 C 0.07394 0.55399 0.70293 0.0
C1347 C 0.0842 0.5889 0.73182 0.0
N1348 N 0.10907 0.57421 0.67113 0.0
N1349 N 0.09866 0.5976 0.71589 0.0
H1350 H 0.49463 0.07459 0.91555 0.0
H1351 H 0.62213 0.16358 0.85338 0.0
H1352 H 0.57562 0.11684 0.93821 0.0
H1353 H 0.54444 0.15466 0.84156 0.0
H1354 H 0.60523 0.14393 0.88371 0.0
H1355 H 0.5119 0.10144 0.88762 0.0
C1356 C 0.51594 0.08984 0.91489 0.0
C1357 C 0.53367 0.09329 0.92937 0.0
C1358 C 0.592 0.14651 0.87449 0.0
C1359 C 0.55365 0.12343 0.89701 0.0
C1360 C 0.60165 0.15785 0.85715 0.0
C1361 C 0.58472 0.16082 0.84471 0.0
C1362 C 0.56509 0.13757 0.87937 0.0
C1363 C 0.55811 0.1523 0.85042 0.0
C1364 C 0.52579 0.10502 0.89883 0.0
C1365 C 0.56123 0.113 0.92733 0.0
N1366 N 0.54904 0.14082 0.86725 0.0
N1367 N 0.57043 0.12707 0.91135 0.0
H1368 H 0.43749 0.5248 0.09452 0.0
H1369 H 0.50658 0.60196 0.00046 0.0
H1370 H 0.52337 0.56368 0.08349 0.0
H1371 H 0.42048 0.54747 0.00683 0.0
H1372 H 0.51325 0.59258 0.03228 0.0
H1373 H 0.431 0.53766 0.06375 0.0
C1374 C 0.455 0.53617 0.08569 0.0
C1375 C 0.481 0.5431 0.0916 0.0
C1376 C 0.49291 0.58264 0.0267 0.0
C1377 C 0.47373 0.55796 0.05645 0.0
C1378 C 0.48911 0.58803 0.00858 0.0
C1379 C 0.46298 0.5753 0.00101 0.0
C1380 C 0.47039 0.56462 0.03735 0.0
C1381 C 0.44101 0.55736 0.01207 0.0
C1382 C 0.45128 0.54351 0.06815 0.0
C1383 C 0.503 0.55821 0.07966 0.0
N1384 N 0.4452 0.55258 0.02971 0.0
N1385 N 0.49885 0.56503 0.06264 0.0
H1386 H 0.98248 0.44241 0.23564 0.0
H1387 H 0.8567 0.42545 0.17788 0.0
H1388 H 0.92812 0.4666 0.2559 0.0
H1389 H 0.90637 0.39424 0.16039 0.0
H1390 H 0.88213 0.44011 0.20668 0.0
H1391 H 0.95434 0.42402 0.20826 0.0
C1392 C 0.96439 0.44353 0.23447 0.0
C1393 C 0.9576 0.45598 0.24818 0.0
C1394 C 0.8874 0.42996 0.19658 0.0
C1395 C 0.92553 0.43541 0.21655 0.0
C1396 C 0.87278 0.42143 0.18015 0.0
C1397 C 0.87937 0.40854 0.16665 0.0
C1398 C 0.90888 0.42571 0.19956 0.0
C1399 C 0.90079 0.4044 0.17026 0.0
C1400 C 0.94843 0.43319 0.21873 0.0
C1401 C 0.93428 0.45741 0.24562 0.0
N1402 N 0.9148 0.413 0.18634 0.0
N1403 N 0.91913 0.44732 0.23009 0.0
loop_
_geom_bond_atom_site_label_1
_geom_bond_atom_site_label_2
_geom_bond_distance
_geom_bond_site_symmetry_2
_ccdc_geom_bond_type
H0 O26 0.856 . S
H1 O29 0.854 . S
H2 C37 0.930 . S
H3 C38 0.930 . S
H4 C40 0.930 . S
H5 C41 0.947 1_455 S
H6 C43 0.931 . S
H7 C44 0.930 . S
H8 C46 0.930 . S
H9 C47 0.929 . S
H10 C49 0.930 . S
H11 C50 0.931 . S
H12 C52 0.930 . S
H13 C53 0.929 . S
H14 C55 0.931 . S
H15 C56 0.930 . S
H16 C58 0.930 . S
H17 C59 0.932 . S
H18 C61 0.930 . S
H19 C62 0.929 . S
H20 C64 0.931 . S
H21 C65 0.930 . S
H22 C67 0.929 . S
H23 C68 0.931 . S
H24 C70 0.930 . S
H25 C71 0.929 . S
O26 H0 0.856 . S
O26 C72 1.300 . S
O27 C72 1.209 . S
O28 C73 1.199 . S
O29 H1 0.854 . S
O29 C73 1.297 . S
C30 C31 1.404 . S
C30 C35 1.397 . S
C30 C36 1.492 . S
C31 C30 1.404 . S
C31 C32 1.396 . S
C31 C42 1.492 . S
C32 C31 1.396 . S
C32 C33 1.397 . S
C32 C48 1.509 . S
C33 C32 1.397 . S
C33 C34 1.412 . S
C33 C54 1.485 . S
C34 C33 1.412 . S
C34 C35 1.388 . S
C34 C60 1.490 . S
C35 C30 1.397 . S
C35 C34 1.388 . S
C35 C66 1.519 . S
C36 C30 1.492 . S
C36 C37 1.363 . S
C36 C41 1.390 1_455 S
C37 H2 0.930 . S
C37 C36 1.363 . S
C37 C38 1.372 1_455 S
C38 H3 0.930 . S
C38 C37 1.372 1_655 S
C38 C39 1.383 . S
C39 C38 1.383 . S
C39 C40 1.395 . S
C40 H4 0.930 . S
C40 C39 1.395 . S
C40 C41 1.362 . S
C41 H5 0.947 1_655 S
C41 C36 1.390 1_655 S
C41 C40 1.362 . S
C42 C31 1.492 . S
C42 C43 1.377 . S
C42 C47 1.397 . S
C43 H6 0.931 . S
C43 C42 1.377 . S
C43 C44 1.376 . S
C44 H7 0.930 . S
C44 C43 1.376 . S
C44 C45 1.376 . S
C45 C44 1.376 . S
C45 C46 1.378 . S
C45 C72 1.486 . S
C46 H8 0.930 . S
C46 C45 1.378 . S
C46 C47 1.376 . S
C47 H9 0.929 . S
C47 C42 1.397 . S
C47 C46 1.376 . S
C48 C32 1.509 . S
C48 C49 1.391 . S
C48 C53 1.386 . S
C49 H10 0.930 . S
C49 C48 1.391 . S
C49 C50 1.375 . S
C50 H11 0.931 . S
C50 C49 1.375 . S
C50 C51 1.375 . S
C51 C50 1.375 . S
C51 C52 1.361 . S
C52 H12 0.930 . S
C52 C51 1.361 . S
C52 C53 1.399 . S
C53 H13 0.929 . S
C53 C48 1.386 . S
C53 C52 1.399 . S
C54 C33 1.485 . S
C54 C55 1.394 . S
C54 C59 1.360 . S
C55 H14 0.931 . S
C55 C54 1.394 . S
C55 C56 1.372 . S
C56 H15 0.930 . S
C56 C55 1.372 . S
C56 C57 1.397 . S
C57 C56 1.397 . S
C57 C58 1.390 . S
C57 C73 1.476 . S
C58 H16 0.930 . S
C58 C57 1.390 . S
C58 C59 1.366 . S
C59 H17 0.932 . S
C59 C54 1.360 . S
C59 C58 1.366 . S
C60 C34 1.490 . S
C60 C61 1.380 . S
C60 C65 1.386 . S
C61 H18 0.930 . S
C61 C60 1.380 . S
C61 C62 1.381 . S
C62 H19 0.929 . S
C62 C61 1.381 . S
C62 C63 1.371 . S
C63 C62 1.371 . S
C63 C64 1.380 . S
C64 H20 0.931 . S
C64 C63 1.380 . S
C64 C65 1.387 . S
C65 H21 0.930 . S
C65 C60 1.386 . S
C65 C64 1.387 . S
C66 C35 1.519 . S
C66 C67 1.377 1_455 S
C66 C71 1.361 . S
C67 H22 0.929 . S
C67 C66 1.377 1_655 S
C67 C68 1.386 . S
C68 H23 0.931 . S
C68 C67 1.386 . S
C68 C69 1.363 . S
C69 C68 1.363 . S
C69 C70 1.385 . S
C70 H24 0.930 . S
C70 C69 1.385 . S
C70 C71 1.396 1_655 S
C71 H25 0.929 . S
C71 C66 1.361 . S
C71 C70 1.396 1_455 S
C72 O26 1.300 . S
C72 O27 1.209 . S
C72 C45 1.486 . S
C73 O28 1.199 . S
C73 O29 1.297 . S
C73 C57 1.476 . S
H74 O100 0.856 . S
H75 O103 0.854 . S
H76 C111 0.930 . S
H77 C112 0.930 . S
H78 C114 0.930 . S
H79 C115 0.902 1_545 S
H80 C117 0.931 . S
H81 C118 0.930 . S
H82 C120 0.930 . S
H83 C121 0.929 . S
H84 C123 0.930 . S
H85 C124 0.931 . S
H86 C126 0.930 . S
H87 C127 0.929 . S
H88 C129 0.931 . S
H89 C130 0.930 . S
H90 C132 0.930 . S
H91 C133 0.932 . S
H92 C135 0.930 . S
H93 C136 0.929 . S
H94 C138 0.931 . S
H95 C139 0.930 . S
H96 C141 0.929 1_545 S
H97 C142 0.931 . S
H98 C144 0.930 . S
H99 C145 0.929 . S
O100 H74 0.856 . S
O100 C146 1.300 . S
O101 C146 1.209 . S
O102 C147 1.199 . S
O103 H75 0.854 . S
O103 C147 1.297 . S
C104 C105 1.404 . S
C104 C109 1.397 . S
C104 C110 1.492 . S
C105 C104 1.404 . S
C105 C106 1.396 . S
C105 C116 1.492 . S
C106 C105 1.396 . S
C106 C107 1.397 . S
C106 C122 1.509 . S
C107 C106 1.397 . S
C107 C108 1.412 . S
C107 C128 1.485 . S
C108 C107 1.412 . S
C108 C109 1.388 . S
C108 C134 1.490 . S
C109 C104 1.397 . S
C109 C108 1.388 . S
C109 C140 1.519 . S
C110 C104 1.492 . S
C110 C111 1.363 . S
C110 C115 1.381 1_545 S
C111 H76 0.930 . S
C111 C110 1.363 . S
C111 C112 1.372 1_545 S
C112 H77 0.930 . S
C112 C111 1.372 1_565 S
C112 C113 1.383 . S
C113 C112 1.383 . S
C113 C114 1.395 . S
C114 H78 0.930 . S
C114 C113 1.395 . S
C114 C115 1.391 . S
C115 H79 0.902 1_565 S
C115 C110 1.381 1_565 S
C115 C114 1.391 . S
C116 C105 1.492 . S
C116 C117 1.377 . S
C116 C121 1.397 . S
C117 H80 0.931 . S
C117 C116 1.377 . S
C117 C118 1.376 . S
C118 H81 0.930 . S
C118 C117 1.376 . S
C118 C119 1.376 . S
C119 C118 1.376 . S
C119 C120 1.378 . S
C119 C146 1.486 . S
C120 H82 0.930 . S
C120 C119 1.378 . S
C120 C121 1.376 . S
C121 H83 0.929 . S
C121 C116 1.397 . S
C121 C120 1.376 . S
C122 C106 1.509 . S
C122 C123 1.391 . S
C122 C127 1.386 . S
C123 H84 0.930 . S
C123 C122 1.391 . S
C123 C124 1.375 . S
C124 H85 0.931 . S
C124 C123 1.375 . S
C124 C125 1.375 . S
C125 C124 1.375 . S
C125 C126 1.361 . S
C126 H86 0.930 . S
C126 C125 1.361 . S
C126 C127 1.399 . S
C127 H87 0.929 . S
C127 C122 1.386 . S
C127 C126 1.399 . S
C128 C107 1.485 . S
C128 C129 1.394 . S
C128 C133 1.360 . S
C129 H88 0.931 . S
C129 C128 1.394 . S
C129 C130 1.372 . S
C130 H89 0.930 . S
C130 C129 1.372 . S
C130 C131 1.397 . S
C131 C130 1.397 . S
C131 C132 1.390 . S
C131 C147 1.476 . S
C132 H90 0.930 . S
C132 C131 1.390 . S
C132 C133 1.366 . S
C133 H91 0.932 . S
C133 C128 1.360 . S
C133 C132 1.366 . S
C134 C108 1.490 . S
C134 C135 1.380 . S
C134 C139 1.386 . S
C135 H92 0.930 . S
C135 C134 1.380 . S
C135 C136 1.381 . S
C136 H93 0.929 . S
C136 C135 1.381 . S
C136 C137 1.371 . S
C137 C136 1.371 . S
C137 C138 1.380 . S
C138 H94 0.931 . S
C138 C137 1.380 . S
C138 C139 1.387 . S
C139 H95 0.930 . S
C139 C134 1.386 . S
C139 C138 1.387 . S
C140 C109 1.519 . S
C140 C141 1.377 1_545 S
C140 C145 1.361 . S
C141 H96 0.929 1_565 S
C141 C140 1.377 1_565 S
C141 C142 1.386 . S
C142 H97 0.931 . S
C142 C141 1.386 . S
C142 C143 1.363 . S
C143 C142 1.363 . S
C143 C144 1.385 . S
C144 H98 0.930 . S
C144 C143 1.385 . S
C144 C145 1.396 1_565 S
C145 H99 0.929 . S
C145 C140 1.361 . S
C145 C144 1.396 1_545 S
C146 O100 1.300 . S
C146 O101 1.209 . S
C146 C119 1.486 . S
C147 O102 1.199 . S
C147 O103 1.297 . S
C147 C131 1.476 . S
H148 O174 0.856 . S
H149 O177 0.854 . S
H150 C185 0.930 . S
H151 C186 0.930 . S
H152 C188 0.930 . S
H153 C189 0.930 . S
H154 C191 0.931 . S
H155 C192 0.930 . S
H156 C194 0.930 . S
H157 C195 0.929 . S
H158 C197 0.930 . S
H159 C198 0.931 . S
H160 C200 0.930 . S
H161 C201 0.929 . S
H162 C203 0.931 . S
H163 C204 0.930 . S
H164 C206 0.930 . S
H165 C207 0.932 . S
H166 C209 0.930 . S
H167 C210 0.929 . S
H168 C212 0.931 . S
H169 C213 0.930 . S
H170 C215 0.929 . S
H171 C216 0.931 . S
H172 C218 0.930 . S
H173 C219 0.929 . S
O174 H148 0.856 . S
O174 C220 1.300 . S
O175 C220 1.209 . S
O176 C221 1.199 . S
O177 H149 0.854 . S
O177 C221 1.297 . S
C178 C179 1.404 . S
C178 C183 1.397 . S
C178 C184 1.492 . S
C179 C178 1.404 . S
C179 C180 1.396 . S
C179 C190 1.492 . S
C180 C179 1.396 . S
C180 C181 1.397 . S
C180 C196 1.509 . S
C181 C180 1.397 . S
C181 C182 1.412 . S
C181 C202 1.485 . S
C182 C181 1.412 . S
C182 C183 1.388 . S
C182 C208 1.490 . S
C183 C178 1.397 . S
C183 C182 1.388 . S
C183 C214 1.519 . S
C184 C178 1.492 . S
C184 C185 1.363 . S
C184 C189 1.390 . S
C185 H150 0.930 . S
C185 C184 1.363 . S
C185 C186 1.372 . S
C186 H151 0.930 . S
C186 C185 1.372 . S
C186 C187 1.383 . S
C187 C186 1.383 . S
C187 C188 1.395 . S
C188 H152 0.930 . S
C188 C187 1.395 . S
C188 C189 1.362 . S
C189 H153 0.930 . S
C189 C184 1.390 . S
C189 C188 1.362 . S
C190 C179 1.492 . S
C190 C191 1.377 . S
C190 C195 1.397 . S
C191 H154 0.931 . S
C191 C190 1.377 . S
C191 C192 1.376 . S
C192 H155 0.930 . S
C192 C191 1.376 . S
C192 C193 1.376 . S
C193 C192 1.376 . S
C193 C194 1.378 . S
C193 C220 1.486 . S
C194 H156 0.930 . S
C194 C193 1.378 . S
C194 C195 1.376 . S
C195 H157 0.929 . S
C195 C190 1.397 . S
C195 C194 1.376 . S
C196 C180 1.509 . S
C196 C197 1.391 . S
C196 C201 1.386 . S
C197 H158 0.930 . S
C197 C196 1.391 . S
C197 C198 1.375 . S
C198 H159 0.931 . S
C198 C197 1.375 . S
C198 C199 1.375 . S
C199 C198 1.375 . S
C199 C200 1.361 . S
C200 H160 0.930 . S
C200 C199 1.361 . S
C200 C201 1.399 . S
C201 H161 0.929 . S
C201 C196 1.386 . S
C201 C200 1.399 . S
C202 C181 1.485 . S
C202 C203 1.394 . S
C202 C207 1.360 . S
C203 H162 0.931 . S
C203 C202 1.394 . S
C203 C204 1.372 . S
C204 H163 0.930 . S
C204 C203 1.372 . S
C204 C205 1.397 . S
C205 C204 1.397 . S
C205 C206 1.390 . S
C205 C221 1.476 . S
C206 H164 0.930 . S
C206 C205 1.390 . S
C206 C207 1.366 . S
C207 H165 0.932 . S
C207 C202 1.360 . S
C207 C206 1.366 . S
C208 C182 1.490 . S
C208 C209 1.380 . S
C208 C213 1.386 . S
C209 H166 0.930 . S
C209 C208 1.380 . S
C209 C210 1.381 . S
C210 H167 0.929 . S
C210 C209 1.381 . S
C210 C211 1.371 . S
C211 C210 1.371 . S
C211 C212 1.380 . S
C212 H168 0.931 . S
C212 C211 1.380 . S
C212 C213 1.387 . S
C213 H169 0.930 . S
C213 C208 1.386 . S
C213 C212 1.387 . S
C214 C183 1.519 . S
C214 C215 1.377 . S
C214 C219 1.361 . S
C215 H170 0.929 . S
C215 C214 1.377 . S
C215 C216 1.386 . S
C216 H171 0.931 . S
C216 C215 1.386 . S
C216 C217 1.363 . S
C217 C216 1.363 . S
C217 C218 1.385 . S
C218 H172 0.930 . S
C218 C217 1.385 . S
C218 C219 1.396 . S
C219 H173 0.929 . S
C219 C214 1.361 . S
C219 C218 1.396 . S
C220 O174 1.300 . S
C220 O175 1.209 . S
C220 C193 1.486 . S
C221 O176 1.199 . S
C221 O177 1.297 . S
C221 C205 1.476 . S
H222 O248 0.856 . S
H223 O251 0.854 . S
H224 C259 0.929 . S
H225 C260 0.930 . S
H226 C262 0.930 . S
H227 C263 0.930 . S
H228 C265 0.931 . S
H229 C266 0.930 . S
H230 C268 0.930 . S
H231 C269 0.929 . S
H232 C271 0.930 . S
H233 C272 0.931 . S
H234 C274 0.930 . S
H235 C275 0.929 . S
H236 C277 0.931 . S
H237 C278 0.930 . S
H238 C280 0.930 . S
H239 C281 0.932 . S
H240 C283 0.930 . S
H241 C284 0.929 . S
H242 C286 0.931 . S
H243 C287 0.930 . S
H244 C289 0.929 . S
H245 C290 0.931 . S
H246 C292 0.930 . S
H247 C293 0.929 1_455 S
O248 H222 0.856 . S
O248 C294 1.300 . S
O249 C294 1.209 . S
O250 C295 1.199 . S
O251 H223 0.854 . S
O251 C295 1.297 . S
C252 C253 1.404 . S
C252 C257 1.397 . S
C252 C258 1.492 . S
C253 C252 1.404 . S
C253 C254 1.396 . S
C253 C264 1.492 . S
C254 C253 1.396 . S
C254 C255 1.397 . S
C254 C270 1.509 . S
C255 C254 1.397 . S
C255 C256 1.412 . S
C255 C276 1.485 . S
C256 C255 1.412 . S
C256 C257 1.388 . S
C256 C282 1.490 . S
C257 C252 1.397 . S
C257 C256 1.388 . S
C257 C288 1.519 1_455 S
C258 C252 1.492 . S
C258 C259 1.361 . S
C258 C263 1.390 1_455 S
C259 H224 0.929 . S
C259 C258 1.361 . S
C259 C260 1.376 1_455 S
C260 H225 0.930 . S
C260 C259 1.376 1_655 S
C260 C261 1.383 . S
C261 C260 1.383 . S
C261 C262 1.395 . S
C262 H226 0.930 . S
C262 C261 1.395 . S
C262 C263 1.362 . S
C263 H227 0.930 . S
C263 C258 1.390 1_655 S
C263 C262 1.362 . S
C264 C253 1.492 . S
C264 C265 1.377 . S
C264 C269 1.397 . S
C265 H228 0.931 . S
C265 C264 1.377 . S
C265 C266 1.376 . S
C266 H229 0.930 . S
C266 C265 1.376 . S
C266 C267 1.376 . S
C267 C266 1.376 . S
C267 C268 1.378 . S
C267 C294 1.486 . S
C268 H230 0.930 . S
C268 C267 1.378 . S
C268 C269 1.376 . S
C269 H231 0.929 . S
C269 C264 1.397 . S
C269 C268 1.376 . S
C270 C254 1.509 . S
C270 C271 1.391 . S
C270 C275 1.386 . S
C271 H232 0.930 . S
C271 C270 1.391 . S
C271 C272 1.375 . S
C272 H233 0.931 . S
C272 C271 1.375 . S
C272 C273 1.375 . S
C273 C272 1.375 . S
C273 C274 1.361 . S
C274 H234 0.930 . S
C274 C273 1.361 . S
C274 C275 1.399 . S
C275 H235 0.929 . S
C275 C270 1.386 . S
C275 C274 1.399 . S
C276 C255 1.485 . S
C276 C277 1.394 . S
C276 C281 1.360 . S
C277 H236 0.931 . S
C277 C276 1.394 . S
C277 C278 1.372 . S
C278 H237 0.930 . S
C278 C277 1.372 . S
C278 C279 1.397 . S
C279 C278 1.397 . S
C279 C280 1.390 . S
C279 C295 1.476 . S
C280 H238 0.930 . S
C280 C279 1.390 . S
C280 C281 1.366 . S
C281 H239 0.932 . S
C281 C276 1.360 . S
C281 C280 1.366 . S
C282 C256 1.490 . S
C282 C283 1.380 . S
C282 C287 1.386 . S
C283 H240 0.930 . S
C283 C282 1.380 . S
C283 C284 1.381 . S
C284 H241 0.929 . S
C284 C283 1.381 . S
C284 C285 1.371 . S
C285 C284 1.371 . S
C285 C286 1.380 . S
C286 H242 0.931 . S
C286 C285 1.380 . S
C286 C287 1.387 . S
C287 H243 0.930 . S
C287 C282 1.386 . S
C287 C286 1.387 . S
C288 C257 1.519 1_655 S
C288 C289 1.377 . S
C288 C293 1.361 . S
C289 H244 0.929 . S
C289 C288 1.377 . S
C289 C290 1.386 . S
C290 H245 0.931 . S
C290 C289 1.386 . S
C290 C291 1.363 . S
C291 C290 1.363 . S
C291 C292 1.385 . S
C292 H246 0.930 . S
C292 C291 1.385 . S
C292 C293 1.396 . S
C293 H247 0.929 1_655 S
C293 C288 1.361 . S
C293 C292 1.396 . S
C294 O248 1.300 . S
C294 O249 1.209 . S
C294 C267 1.486 . S
C295 O250 1.199 . S
C295 O251 1.297 . S
C295 C279 1.476 . S
H296 O322 0.856 . S
H297 O325 0.854 . S
H298 C333 0.930 . S
H299 C334 0.930 . S
H300 C336 0.930 . S
H301 C337 0.930 . S
H302 C339 0.931 . S
H303 C340 0.930 . S
H304 C342 0.930 . S
H305 C343 0.929 . S
H306 C345 0.930 . S
H307 C346 0.931 . S
H308 C348 0.930 . S
H309 C349 0.929 . S
H310 C351 0.931 . S
H311 C352 0.930 . S
H312 C354 0.930 . S
H313 C355 0.932 . S
H314 C357 0.930 . S
H315 C358 0.929 . S
H316 C360 0.931 . S
H317 C361 0.930 . S
H318 C363 0.929 1_556 S
H319 C364 0.931 . S
H320 C366 0.930 . S
H321 C367 0.929 . S
O322 H296 0.856 . S
O322 C368 1.300 . S
O323 C368 1.209 . S
O324 C369 1.199 . S
O325 H297 0.854 . S
O325 C369 1.297 . S
C326 C327 1.404 . S
C326 C331 1.397 . S
C326 C332 1.492 1_565 S
C327 C326 1.404 . S
C327 C328 1.396 . S
C327 C338 1.492 . S
C328 C327 1.396 . S
C328 C329 1.460 . S
C328 C344 1.509 . S
C329 C328 1.460 . S
C329 C330 1.389 1_556 S
C329 C350 1.448 1_556 S
C330 C329 1.389 1_554 S
C330 C331 1.388 1_554 S
C330 C356 1.490 . S
C331 C326 1.397 . S
C331 C330 1.388 1_556 S
C331 C362 1.519 1_566 S
C332 C326 1.492 1_545 S
C332 C333 1.363 . S
C332 C337 1.390 . S
C333 H298 0.930 . S
C333 C332 1.363 . S
C333 C334 1.372 . S
C334 H299 0.930 . S
C334 C333 1.372 . S
C334 C335 1.383 . S
C335 C334 1.383 . S
C335 C336 1.395 . S
C336 H300 0.930 . S
C336 C335 1.395 . S
C336 C337 1.362 . S
C337 H301 0.930 . S
C337 C332 1.390 . S
C337 C336 1.362 . S
C338 C327 1.492 . S
C338 C339 1.377 . S
C338 C343 1.397 . S
C339 H302 0.931 . S
C339 C338 1.377 . S
C339 C340 1.376 . S
C340 H303 0.930 . S
C340 C339 1.376 . S
C340 C341 1.376 . S
C341 C340 1.376 . S
C341 C342 1.378 . S
C341 C368 1.486 . S
C342 H304 0.930 . S
C342 C341 1.378 . S
C342 C343 1.376 . S
C343 H305 0.929 . S
C343 C338 1.397 . S
C343 C342 1.376 . S
C344 C328 1.509 . S
C344 C345 1.391 . S
C344 C349 1.386 . S
C345 H306 0.930 . S
C345 C344 1.391 . S
C345 C346 1.375 . S
C346 H307 0.931 . S
C346 C345 1.375 . S
C346 C347 1.375 . S
C347 C346 1.375 . S
C347 C348 1.361 . S
C348 H308 0.930 . S
C348 C347 1.361 . S
C348 C349 1.399 . S
C349 H309 0.929 . S
C349 C344 1.386 . S
C349 C348 1.399 . S
C350 C329 1.448 1_554 S
C350 C351 1.394 . S
C350 C355 1.360 . S
C351 H310 0.931 . S
C351 C350 1.394 . S
C351 C352 1.372 . S
C352 H311 0.930 . S
C352 C351 1.372 . S
C352 C353 1.397 . S
C353 C352 1.397 . S
C353 C354 1.390 . S
C353 C369 1.476 . S
C354 H312 0.930 . S
C354 C353 1.390 . S
C354 C355 1.366 . S
C355 H313 0.932 . S
C355 C350 1.360 . S
C355 C354 1.366 . S
C356 C330 1.490 . S
C356 C357 1.380 . S
C356 C361 1.386 . S
C357 H314 0.930 . S
C357 C356 1.380 . S
C357 C358 1.381 . S
C358 H315 0.929 . S
C358 C357 1.381 . S
C358 C359 1.371 . S
C359 C358 1.371 . S
C359 C360 1.380 . S
C360 H316 0.931 . S
C360 C359 1.380 . S
C360 C361 1.387 . S
C361 H317 0.930 . S
C361 C356 1.386 . S
C361 C360 1.387 . S
C362 C331 1.519 1_544 S
C362 C363 1.377 . S
C362 C367 1.361 . S
C363 H318 0.929 1_554 S
C363 C362 1.377 . S
C363 C364 1.386 . S
C364 H319 0.931 . S
C364 C363 1.386 . S
C364 C365 1.363 . S
C365 C364 1.363 . S
C365 C366 1.385 . S
C366 H320 0.930 . S
C366 C365 1.385 . S
C366 C367 1.396 . S
C367 H321 0.929 . S
C367 C362 1.361 . S
C367 C366 1.396 . S
C368 O322 1.300 . S
C368 O323 1.209 . S
C368 C341 1.486 . S
C369 O324 1.199 . S
C369 O325 1.297 . S
C369 C353 1.476 . S
H370 O396 0.856 . S
H371 O399 0.854 . S
H372 C407 0.930 . S
H373 C408 0.930 . S
H374 C410 0.930 . S
H375 C411 0.930 . S
H376 C413 0.931 . S
H377 C414 0.930 . S
H378 C416 0.930 . S
H379 C417 0.929 . S
H380 C419 0.930 . S
H381 C420 0.931 . S
H382 C422 0.930 . S
H383 C423 0.929 . S
H384 C425 0.931 . S
H385 C426 0.930 . S
H386 C428 0.930 . S
H387 C429 0.932 . S
H388 C431 0.930 . S
H389 C432 0.929 . S
H390 C434 0.931 . S
H391 C435 0.930 . S
H392 C437 0.929 . S
H393 C438 0.931 . S
H394 C440 0.930 . S
H395 C441 0.929 . S
O396 H370 0.856 . S
O396 C442 1.300 . S
O397 C442 1.209 . S
O398 C443 1.199 . S
O399 H371 0.854 . S
O399 C443 1.297 . S
C400 C401 1.404 . S
C400 C405 1.397 . S
C400 C406 1.492 . S
C401 C400 1.404 . S
C401 C402 1.396 . S
C401 C412 1.492 . S
C402 C401 1.396 . S
C402 C403 1.397 . S
C402 C418 1.509 . S
C403 C402 1.397 . S
C403 C404 1.412 . S
C403 C424 1.485 . S
C404 C403 1.412 . S
C404 C405 1.388 . S
C404 C430 1.490 . S
C405 C400 1.397 . S
C405 C404 1.388 . S
C405 C436 1.519 . S
C406 C400 1.492 . S
C406 C407 1.363 . S
C406 C411 1.390 . S
C407 H372 0.930 . S
C407 C406 1.363 . S
C407 C408 1.372 . S
C408 H373 0.930 . S
C408 C407 1.372 . S
C408 C409 1.383 . S
C409 C408 1.383 . S
C409 C410 1.395 . S
C410 H374 0.930 . S
C410 C409 1.395 . S
C410 C411 1.362 . S
C411 H375 0.930 . S
C411 C406 1.390 . S
C411 C410 1.362 . S
C412 C401 1.492 . S
C412 C413 1.377 . S
C412 C417 1.397 . S
C413 H376 0.931 . S
C413 C412 1.377 . S
C413 C414 1.376 . S
C414 H377 0.930 . S
C414 C413 1.376 . S
C414 C415 1.376 . S
C415 C414 1.376 . S
C415 C416 1.378 . S
C415 C442 1.486 . S
C416 H378 0.930 . S
C416 C415 1.378 . S
C416 C417 1.376 . S
C417 H379 0.929 . S
C417 C412 1.397 . S
C417 C416 1.376 . S
C418 C402 1.509 . S
C418 C419 1.391 . S
C418 C423 1.386 . S
C419 H380 0.930 . S
C419 C418 1.391 . S
C419 C420 1.375 . S
C420 H381 0.931 . S
C420 C419 1.375 . S
C420 C421 1.375 . S
C421 C420 1.375 . S
C421 C422 1.361 . S
C422 H382 0.930 . S
C422 C421 1.361 . S
C422 C423 1.399 . S
C423 H383 0.929 . S
C423 C418 1.386 . S
C423 C422 1.399 . S
C424 C403 1.485 . S
C424 C425 1.394 . S
C424 C429 1.360 . S
C425 H384 0.931 . S
C425 C424 1.394 . S
C425 C426 1.372 . S
C426 H385 0.930 . S
C426 C425 1.372 . S
C426 C427 1.397 . S
C427 C426 1.397 . S
C427 C428 1.390 . S
C427 C443 1.476 . S
C428 H386 0.930 . S
C428 C427 1.390 . S
C428 C429 1.366 . S
C429 H387 0.932 . S
C429 C424 1.360 . S
C429 C428 1.366 . S
C430 C404 1.490 . S
C430 C431 1.380 . S
C430 C435 1.386 . S
C431 H388 0.930 . S
C431 C430 1.380 . S
C431 C432 1.381 . S
C432 H389 0.929 . S
C432 C431 1.381 . S
C432 C433 1.371 . S
C433 C432 1.371 . S
C433 C434 1.380 . S
C434 H390 0.931 . S
C434 C433 1.380 . S
C434 C435 1.387 . S
C435 H391 0.930 . S
C435 C430 1.386 . S
C435 C434 1.387 . S
C436 C405 1.519 . S
C436 C437 1.377 . S
C436 C441 1.361 . S
C437 H392 0.929 . S
C437 C436 1.377 . S
C437 C438 1.386 . S
C438 H393 0.931 . S
C438 C437 1.386 . S
C438 C439 1.363 . S
C439 C438 1.363 . S
C439 C440 1.385 . S
C440 H394 0.930 . S
C440 C439 1.385 . S
C440 C441 1.396 . S
C441 H395 0.929 . S
C441 C436 1.361 . S
C441 C440 1.396 . S
C442 O396 1.300 . S
C442 O397 1.209 . S
C442 C415 1.486 . S
C443 O398 1.199 . S
C443 O399 1.297 . S
C443 C427 1.476 . S
Li444 N461 1.990 . S
Li444 O504 1.956 . S
Li444 O505 1.970 . S
Li444 O506 1.961 . S
Li445 N469 1.990 . S
Li445 O504 1.970 . S
Li445 O505 1.956 . S
Li445 O507 1.961 . S
Li446 N491 1.990 . S
Li446 O504 1.961 . S
Li446 O506 1.956 . S
Li446 O507 1.970 . S
Li447 N497 1.990 . S
Li447 O505 1.961 . S
Li447 O506 1.970 . S
Li447 O507 1.956 . S
C448 C450 1.348 . S
C448 C451 1.356 . S
C448 O504 1.325 . S
N449 C452 1.314 . S
N449 C453 1.279 . S
C450 C448 1.348 . S
C450 C452 1.353 . S
C450 H508 0.929 . S
C451 C448 1.356 . S
C451 C453 1.358 . S
C451 H509 0.930 . S
C452 N449 1.314 . S
C452 C450 1.353 . S
C452 H510 0.930 . S
C453 N449 1.279 . S
C453 C451 1.358 . S
C453 H511 0.930 . S
C454 C457 1.348 . S
C454 C458 1.356 . S
C454 O505 1.325 . S
C455 N456 1.279 . S
C455 C458 1.358 . S
C455 H512 0.930 . S
N456 C455 1.279 . S
N456 C459 1.314 . S
C457 C454 1.348 . S
C457 C459 1.353 . S
C457 H513 0.929 . S
C458 C454 1.356 . S
C458 C455 1.358 . S
C458 H514 0.930 . S
C459 N456 1.314 . S
C459 C457 1.353 . S
C459 H515 0.930 . S
C460 N461 1.314 . S
C460 C465 1.353 . S
C460 H466 0.930 . S
N461 Li444 1.990 . S
N461 C460 1.314 . S
N461 C463 1.279 . S
C462 C463 1.358 . S
C462 C464 1.356 . S
C462 H516 0.930 . S
C463 N461 1.279 . S
C463 C462 1.358 . S
C463 H467 0.930 . S
C464 C462 1.356 . S
C464 C465 1.348 . S
C465 C460 1.353 . S
C465 C464 1.348 . S
C465 H517 0.929 . S
H466 C460 0.930 . S
H467 C463 0.930 . S
C468 N469 1.314 . S
C468 C470 1.353 . S
C468 H474 0.930 . S
N469 Li445 1.990 . S
N469 C468 1.314 . S
N469 C472 1.279 . S
C470 C468 1.353 . S
C470 C473 1.348 . S
C470 H518 0.929 . S
C471 C472 1.358 . S
C471 C473 1.356 . S
C471 H519 0.930 . S
C472 N469 1.279 . S
C472 C471 1.358 . S
C472 H475 0.930 . S
C473 C470 1.348 . S
C473 C471 1.356 . S
H474 C468 0.930 . S
H475 C472 0.930 . S
C476 C478 1.348 . S
C476 C479 1.356 . S
C476 O506 1.325 . S
N477 C480 1.314 . S
N477 C481 1.279 . S
C478 C476 1.348 . S
C478 C480 1.353 . S
C478 H520 0.929 . S
C479 C476 1.356 . S
C479 C481 1.358 . S
C479 H521 0.930 . S
C480 N477 1.314 . S
C480 C478 1.353 . S
C480 H522 0.930 . S
C481 N477 1.279 . S
C481 C479 1.358 . S
C481 H523 0.930 . S
C482 C483 1.348 . S
C482 C484 1.356 . S
C482 O507 1.325 . S
C483 C482 1.348 . S
C483 C485 1.353 . S
C483 H524 0.929 . S
C484 C482 1.356 . S
C484 C486 1.358 . S
C484 H525 0.930 . S
C485 C483 1.353 . S
C485 N487 1.314 . S
C485 H526 0.930 . S
C486 C484 1.358 . S
C486 N487 1.279 . S
C486 H527 0.930 . S
N487 C485 1.314 . S
N487 C486 1.279 . S
C488 C490 1.353 . S
C488 N491 1.314 . S
C488 H494 0.930 . S
C489 N491 1.279 . S
C489 C492 1.358 . S
C489 H495 0.930 . S
C490 C488 1.353 . S
C490 C493 1.348 . S
C490 H528 0.929 . S
N491 Li446 1.990 . S
N491 C488 1.314 . S
N491 C489 1.279 . S
C492 C489 1.358 . S
C492 C493 1.356 . S
C492 H529 0.930 . S
C493 C490 1.348 . S
C493 C492 1.356 . S
H494 C488 0.930 . S
H495 C489 0.930 . S
C496 N497 1.314 . S
C496 C498 1.353 . S
C496 H502 0.930 . S
N497 Li447 1.990 . S
N497 C496 1.314 . S
N497 C500 1.279 . S
C498 C496 1.353 . S
C498 C501 1.348 . S
C498 H530 0.929 . S
C499 C500 1.358 . S
C499 C501 1.356 . S
C499 H531 0.930 . S
C500 N497 1.279 . S
C500 C499 1.358 . S
C500 H503 0.930 . S
C501 C498 1.348 . S
C501 C499 1.356 . S
H502 C496 0.930 . S
H503 C500 0.930 . S
O504 Li444 1.956 . S
O504 Li445 1.970 . S
O504 Li446 1.961 . S
O504 C448 1.325 . S
O505 Li444 1.970 . S
O505 Li445 1.956 . S
O505 Li447 1.961 . S
O505 C454 1.325 . S
O506 Li444 1.961 . S
O506 Li446 1.956 . S
O506 Li447 1.970 . S
O506 C476 1.325 . S
O507 Li445 1.961 . S
O507 Li446 1.970 . S
O507 Li447 1.956 . S
O507 C482 1.325 . S
H508 C450 0.929 . S
H509 C451 0.930 . S
H510 C452 0.930 . S
H511 C453 0.930 . S
H512 C455 0.930 . S
H513 C457 0.929 . S
H514 C458 0.930 . S
H515 C459 0.930 . S
H516 C462 0.930 . S
H517 C465 0.929 . S
H518 C470 0.929 . S
H519 C471 0.930 . S
H520 C478 0.929 . S
H521 C479 0.930 . S
H522 C480 0.930 . S
H523 C481 0.930 . S
H524 C483 0.929 . S
H525 C484 0.930 . S
H526 C485 0.930 . S
H527 C486 0.930 . S
H528 C490 0.929 . S
H529 C492 0.930 . S
H530 C498 0.929 . S
H531 C499 0.930 . S
Li532 N549 1.990 . S
Li532 O592 1.956 . S
Li532 O593 1.970 . S
Li532 O594 1.961 . S
Li533 N557 1.990 . S
Li533 O592 1.970 . S
Li533 O593 1.956 . S
Li533 O595 1.961 . S
Li534 N579 1.990 . S
Li534 O592 1.961 . S
Li534 O594 1.956 . S
Li534 O595 1.970 . S
Li535 N585 1.990 . S
Li535 O593 1.961 . S
Li535 O594 1.970 . S
Li535 O595 1.956 . S
C536 C538 1.348 . S
C536 C539 1.356 . S
C536 O592 1.325 . S
N537 C540 1.314 . S
N537 C541 1.279 . S
C538 C536 1.348 . S
C538 C540 1.353 . S
C538 H596 0.929 . S
C539 C536 1.356 . S
C539 C541 1.358 . S
C539 H597 0.930 . S
C540 N537 1.314 . S
C540 C538 1.353 . S
C540 H598 0.930 . S
C541 N537 1.279 . S
C541 C539 1.358 . S
C541 H599 0.930 . S
C542 C545 1.348 . S
C542 C546 1.356 . S
C542 O593 1.325 . S
C543 N544 1.279 . S
C543 C546 1.358 . S
C543 H600 0.930 . S
N544 C543 1.279 . S
N544 C547 1.314 . S
C545 C542 1.348 . S
C545 C547 1.353 . S
C545 H601 0.929 . S
C546 C542 1.356 . S
C546 C543 1.358 . S
C546 H602 0.930 . S
C547 N544 1.314 . S
C547 C545 1.353 . S
C547 H603 0.930 . S
C548 N549 1.314 . S
C548 C553 1.353 . S
C548 H554 0.930 . S
N549 Li532 1.990 . S
N549 C548 1.314 . S
N549 C551 1.279 . S
C550 C551 1.358 . S
C550 C552 1.356 . S
C550 H604 0.930 . S
C551 N549 1.279 . S
C551 C550 1.358 . S
C551 H555 0.930 . S
C552 C550 1.356 . S
C552 C553 1.348 . S
C553 C548 1.353 . S
C553 C552 1.348 . S
C553 H605 0.929 . S
H554 C548 0.930 . S
H555 C551 0.930 . S
C556 N557 1.314 . S
C556 C558 1.353 . S
C556 H562 0.930 . S
N557 Li533 1.990 . S
N557 C556 1.314 . S
N557 C560 1.279 . S
C558 C556 1.353 . S
C558 C561 1.348 . S
C558 H606 0.929 . S
C559 C560 1.358 . S
C559 C561 1.356 . S
C559 H607 0.930 . S
C560 N557 1.279 . S
C560 C559 1.358 . S
C560 H563 0.930 . S
C561 C558 1.348 . S
C561 C559 1.356 . S
H562 C556 0.930 . S
H563 C560 0.930 . S
C564 C566 1.348 . S
C564 C567 1.356 . S
C564 O594 1.325 . S
N565 C568 1.314 . S
N565 C569 1.279 . S
C566 C564 1.348 . S
C566 C568 1.353 . S
C566 H608 0.929 . S
C567 C564 1.356 . S
C567 C569 1.358 . S
C567 H609 0.930 . S
C568 N565 1.314 . S
C568 C566 1.353 . S
C568 H610 0.930 . S
C569 N565 1.279 . S
C569 C567 1.358 . S
C569 H611 0.930 . S
C570 C571 1.348 . S
C570 C572 1.356 . S
C570 O595 1.325 . S
C571 C570 1.348 . S
C571 C573 1.353 . S
C571 H612 0.929 . S
C572 C570 1.356 . S
C572 C574 1.358 . S
C572 H613 0.930 . S
C573 C571 1.353 . S
C573 N575 1.314 . S
C573 H614 0.930 . S
C574 C572 1.358 . S
C574 N575 1.279 . S
C574 H615 0.930 . S
N575 C573 1.314 . S
N575 C574 1.279 . S
C576 C578 1.353 . S
C576 N579 1.314 . S
C576 H582 0.930 . S
C577 N579 1.279 . S
C577 C580 1.358 . S
C577 H583 0.930 . S
C578 C576 1.353 . S
C578 C581 1.348 . S
C578 H616 0.929 . S
N579 Li534 1.990 . S
N579 C576 1.314 . S
N579 C577 1.279 . S
C580 C577 1.358 . S
C580 C581 1.356 . S
C580 H617 0.930 . S
C581 C578 1.348 . S
C581 C580 1.356 . S
H582 C576 0.930 . S
H583 C577 0.930 . S
C584 N585 1.314 . S
C584 C586 1.353 . S
C584 H590 0.930 . S
N585 Li535 1.990 . S
N585 C584 1.314 . S
N585 C588 1.279 . S
C586 C584 1.353 . S
C586 C589 1.348 . S
C586 H618 0.929 . S
C587 C588 1.358 . S
C587 C589 1.356 . S
C587 H619 0.930 . S
C588 N585 1.279 . S
C588 C587 1.358 . S
C588 H591 0.930 . S
C589 C586 1.348 . S
C589 C587 1.356 . S
H590 C584 0.930 . S
H591 C588 0.930 . S
O592 Li532 1.956 . S
O592 Li533 1.970 . S
O592 Li534 1.961 . S
O592 C536 1.325 . S
O593 Li532 1.970 . S
O593 Li533 1.956 . S
O593 Li535 1.961 . S
O593 C542 1.325 . S
O594 Li532 1.961 . S
O594 Li534 1.956 . S
O594 Li535 1.970 . S
O594 C564 1.325 . S
O595 Li533 1.961 . S
O595 Li534 1.970 . S
O595 Li535 1.956 . S
O595 C570 1.325 . S
H596 C538 0.929 . S
H597 C539 0.930 . S
H598 C540 0.930 . S
H599 C541 0.930 . S
H600 C543 0.930 . S
H601 C545 0.929 . S
H602 C546 0.930 . S
H603 C547 0.930 . S
H604 C550 0.930 . S
H605 C553 0.929 . S
H606 C558 0.929 . S
H607 C559 0.930 . S
H608 C566 0.929 . S
H609 C567 0.930 . S
H610 C568 0.930 . S
H611 C569 0.930 . S
H612 C571 0.929 . S
H613 C572 0.930 . S
H614 C573 0.930 . S
H615 C574 0.930 . S
H616 C578 0.929 . S
H617 C580 0.930 . S
H618 C586 0.929 . S
H619 C587 0.930 . S
Li620 N637 1.990 . S
Li620 O680 1.956 . S
Li620 O681 1.970 . S
Li620 O682 1.961 . S
Li621 N645 1.990 . S
Li621 O680 1.970 . S
Li621 O681 1.956 . S
Li621 O683 1.961 . S
Li622 N667 1.990 . S
Li622 O680 1.961 . S
Li622 O682 1.956 . S
Li622 O683 1.970 . S
Li623 N673 1.990 . S
Li623 O681 1.961 . S
Li623 O682 1.970 . S
Li623 O683 1.956 . S
C624 C626 1.348 . S
C624 C627 1.356 . S
C624 O680 1.325 . S
N625 C628 1.314 . S
N625 C629 1.279 . S
C626 C624 1.348 . S
C626 C628 1.353 . S
C626 H684 0.929 . S
C627 C624 1.356 . S
C627 C629 1.358 . S
C627 H685 0.930 . S
C628 N625 1.314 . S
C628 C626 1.353 . S
C628 H686 0.930 . S
C629 N625 1.279 . S
C629 C627 1.358 . S
C629 H687 0.930 . S
C630 C633 1.348 . S
C630 C634 1.356 . S
C630 O681 1.325 . S
C631 N632 1.279 . S
C631 C634 1.358 . S
C631 H688 0.930 . S
N632 C631 1.279 . S
N632 C635 1.314 . S
C633 C630 1.348 . S
C633 C635 1.353 . S
C633 H689 0.929 . S
C634 C630 1.356 . S
C634 C631 1.358 . S
C634 H690 0.930 . S
C635 N632 1.314 . S
C635 C633 1.353 . S
C635 H691 0.930 . S
C636 N637 1.314 . S
C636 C641 1.353 . S
C636 H642 0.930 . S
N637 Li620 1.990 . S
N637 C636 1.314 . S
N637 C639 1.279 . S
C638 C639 1.358 . S
C638 C640 1.356 . S
C638 H692 0.930 . S
C639 N637 1.279 . S
C639 C638 1.358 . S
C639 H643 0.930 . S
C640 C638 1.356 . S
C640 C641 1.348 . S
C641 C636 1.353 . S
C641 C640 1.348 . S
C641 H693 0.929 . S
H642 C636 0.930 . S
H643 C639 0.930 . S
C644 N645 1.314 . S
C644 C646 1.353 . S
C644 H650 0.930 . S
N645 Li621 1.990 . S
N645 C644 1.314 . S
N645 C648 1.279 . S
C646 C644 1.353 . S
C646 C649 1.348 . S
C646 H694 0.929 . S
C647 C648 1.358 . S
C647 C649 1.356 . S
C647 H695 0.930 . S
C648 N645 1.279 . S
C648 C647 1.358 . S
C648 H651 0.930 . S
C649 C646 1.348 . S
C649 C647 1.356 . S
H650 C644 0.930 . S
H651 C648 0.930 . S
C652 C654 1.348 . S
C652 C655 1.356 . S
C652 O682 1.325 . S
N653 C656 1.314 . S
N653 C657 1.279 . S
C654 C652 1.348 . S
C654 C656 1.353 . S
C654 H696 0.929 . S
C655 C652 1.356 . S
C655 C657 1.358 . S
C655 H697 0.930 . S
C656 N653 1.314 . S
C656 C654 1.353 . S
C656 H698 0.930 . S
C657 N653 1.279 . S
C657 C655 1.358 . S
C657 H699 0.930 . S
C658 C659 1.348 . S
C658 C660 1.356 . S
C658 O683 1.325 . S
C659 C658 1.348 . S
C659 C661 1.353 . S
C659 H700 0.929 . S
C660 C658 1.356 . S
C660 C662 1.358 . S
C660 H701 0.930 . S
C661 C659 1.353 . S
C661 N663 1.314 . S
C661 H702 0.930 . S
C662 C660 1.358 . S
C662 N663 1.279 . S
C662 H703 0.930 . S
N663 C661 1.314 . S
N663 C662 1.279 . S
C664 C666 1.353 . S
C664 N667 1.314 . S
C664 H670 0.930 . S
C665 N667 1.279 . S
C665 C668 1.358 . S
C665 H671 0.930 . S
C666 C664 1.353 . S
C666 C669 1.348 . S
C666 H704 0.929 . S
N667 Li622 1.990 . S
N667 C664 1.314 . S
N667 C665 1.279 . S
C668 C665 1.358 . S
C668 C669 1.356 . S
C668 H705 0.930 . S
C669 C666 1.348 . S
C669 C668 1.356 . S
H670 C664 0.930 . S
H671 C665 0.930 . S
C672 N673 1.314 . S
C672 C674 1.353 . S
C672 H678 0.930 . S
N673 Li623 1.990 . S
N673 C672 1.314 . S
N673 C676 1.279 . S
C674 C672 1.353 . S
C674 C677 1.348 . S
C674 H706 0.929 . S
C675 C676 1.358 . S
C675 C677 1.356 . S
C675 H707 0.930 . S
C676 N673 1.279 . S
C676 C675 1.358 . S
C676 H679 0.930 . S
C677 C674 1.348 . S
C677 C675 1.356 . S
H678 C672 0.930 . S
H679 C676 0.930 . S
O680 Li620 1.956 . S
O680 Li621 1.970 . S
O680 Li622 1.961 . S
O680 C624 1.325 . S
O681 Li620 1.970 . S
O681 Li621 1.956 . S
O681 Li623 1.961 . S
O681 C630 1.325 . S
O682 Li620 1.961 . S
O682 Li622 1.956 . S
O682 Li623 1.970 . S
O682 C652 1.325 . S
O683 Li621 1.961 . S
O683 Li622 1.970 . S
O683 Li623 1.956 . S
O683 C658 1.325 . S
H684 C626 0.929 . S
H685 C627 0.930 . S
H686 C628 0.930 . S
H687 C629 0.930 . S
H688 C631 0.930 . S
H689 C633 0.929 . S
H690 C634 0.930 . S
H691 C635 0.930 . S
H692 C638 0.930 . S
H693 C641 0.929 . S
H694 C646 0.929 . S
H695 C647 0.930 . S
H696 C654 0.929 . S
H697 C655 0.930 . S
H698 C656 0.930 . S
H699 C657 0.930 . S
H700 C659 0.929 . S
H701 C660 0.930 . S
H702 C661 0.930 . S
H703 C662 0.930 . S
H704 C666 0.929 . S
H705 C668 0.930 . S
H706 C674 0.929 . S
H707 C675 0.930 . S
Li708 N725 1.990 . S
Li708 O768 1.956 . S
Li708 O769 1.970 . S
Li708 O770 1.961 . S
Li709 N733 1.990 . S
Li709 O768 1.970 . S
Li709 O769 1.956 . S
Li709 O771 1.961 . S
Li710 N755 1.990 . S
Li710 O768 1.961 . S
Li710 O770 1.956 . S
Li710 O771 1.970 . S
Li711 N761 1.990 . S
Li711 O769 1.961 . S
Li711 O770 1.970 . S
Li711 O771 1.956 . S
C712 C714 1.348 . S
C712 C715 1.356 . S
C712 O768 1.325 . S
N713 C716 1.314 . S
N713 C717 1.279 . S
C714 C712 1.348 . S
C714 C716 1.353 . S
C714 H772 0.929 . S
C715 C712 1.356 . S
C715 C717 1.358 . S
C715 H773 0.930 . S
C716 N713 1.314 . S
C716 C714 1.353 . S
C716 H774 0.930 . S
C717 N713 1.279 . S
C717 C715 1.358 . S
C717 H775 0.930 . S
C718 C721 1.348 . S
C718 C722 1.356 . S
C718 O769 1.325 . S
C719 N720 1.279 . S
C719 C722 1.358 . S
C719 H776 0.930 . S
N720 C719 1.279 . S
N720 C723 1.314 . S
C721 C718 1.348 . S
C721 C723 1.353 . S
C721 H777 0.929 . S
C722 C718 1.356 . S
C722 C719 1.358 . S
C722 H778 0.930 . S
C723 N720 1.314 . S
C723 C721 1.353 . S
C723 H779 0.930 . S
C724 N725 1.314 . S
C724 C729 1.353 . S
C724 H730 0.930 . S
N725 Li708 1.990 . S
N725 C724 1.314 . S
N725 C727 1.279 . S
C726 C727 1.358 . S
C726 C728 1.356 . S
C726 H780 0.930 . S
C727 N725 1.279 . S
C727 C726 1.358 . S
C727 H731 0.930 . S
C728 C726 1.356 . S
C728 C729 1.348 . S
C729 C724 1.353 . S
C729 C728 1.348 . S
C729 H781 0.929 . S
H730 C724 0.930 . S
H731 C727 0.930 . S
C732 N733 1.314 . S
C732 C734 1.353 . S
C732 H738 0.930 . S
N733 Li709 1.990 . S
N733 C732 1.314 . S
N733 C736 1.279 . S
C734 C732 1.353 . S
C734 C737 1.348 . S
C734 H782 0.929 . S
C735 C736 1.358 . S
C735 C737 1.356 . S
C735 H783 0.930 . S
C736 N733 1.279 . S
C736 C735 1.358 . S
C736 H739 0.930 . S
C737 C734 1.348 . S
C737 C735 1.356 . S
H738 C732 0.930 . S
H739 C736 0.930 . S
C740 C742 1.348 . S
C740 C743 1.356 . S
C740 O770 1.325 . S
N741 C744 1.314 . S
N741 C745 1.279 . S
C742 C740 1.348 . S
C742 C744 1.353 . S
C742 H784 0.929 . S
C743 C740 1.356 . S
C743 C745 1.358 . S
C743 H785 0.930 . S
C744 N741 1.314 . S
C744 C742 1.353 . S
C744 H786 0.930 . S
C745 N741 1.279 . S
C745 C743 1.358 . S
C745 H787 0.930 . S
C746 C747 1.348 . S
C746 C748 1.356 . S
C746 O771 1.325 . S
C747 C746 1.348 . S
C747 C749 1.353 . S
C747 H788 0.929 . S
C748 C746 1.356 . S
C748 C750 1.358 . S
C748 H789 0.930 . S
C749 C747 1.353 . S
C749 N751 1.314 . S
C749 H790 0.930 . S
C750 C748 1.358 . S
C750 N751 1.279 . S
C750 H791 0.930 . S
N751 C749 1.314 . S
N751 C750 1.279 . S
C752 C754 1.353 . S
C752 N755 1.314 . S
C752 H758 0.930 . S
C753 N755 1.279 . S
C753 C756 1.358 . S
C753 H759 0.930 . S
C754 C752 1.353 . S
C754 C757 1.348 . S
C754 H792 0.929 . S
N755 Li710 1.990 . S
N755 C752 1.314 . S
N755 C753 1.279 . S
C756 C753 1.358 . S
C756 C757 1.356 . S
C756 H793 0.930 . S
C757 C754 1.348 . S
C757 C756 1.356 . S
H758 C752 0.930 . S
H759 C753 0.930 . S
C760 N761 1.314 . S
C760 C762 1.353 . S
C760 H766 0.930 . S
N761 Li711 1.990 . S
N761 C760 1.314 . S
N761 C764 1.279 . S
C762 C760 1.353 . S
C762 C765 1.348 . S
C762 H794 0.929 . S
C763 C764 1.358 . S
C763 C765 1.356 . S
C763 H795 0.930 . S
C764 N761 1.279 . S
C764 C763 1.358 . S
C764 H767 0.930 . S
C765 C762 1.348 . S
C765 C763 1.356 . S
H766 C760 0.930 . S
H767 C764 0.930 . S
O768 Li708 1.956 . S
O768 Li709 1.970 . S
O768 Li710 1.961 . S
O768 C712 1.325 . S
O769 Li708 1.970 . S
O769 Li709 1.956 . S
O769 Li711 1.961 . S
O769 C718 1.325 . S
O770 Li708 1.961 . S
O770 Li710 1.956 . S
O770 Li711 1.970 . S
O770 C740 1.325 . S
O771 Li709 1.961 . S
O771 Li710 1.970 . S
O771 Li711 1.956 . S
O771 C746 1.325 . S
H772 C714 0.929 . S
H773 C715 0.930 . S
H774 C716 0.930 . S
H775 C717 0.930 . S
H776 C719 0.930 . S
H777 C721 0.929 . S
H778 C722 0.930 . S
H779 C723 0.930 . S
H780 C726 0.930 . S
H781 C729 0.929 . S
H782 C734 0.929 . S
H783 C735 0.930 . S
H784 C742 0.929 . S
H785 C743 0.930 . S
H786 C744 0.930 . S
H787 C745 0.930 . S
H788 C747 0.929 . S
H789 C748 0.930 . S
H790 C749 0.930 . S
H791 C750 0.930 . S
H792 C754 0.929 . S
H793 C756 0.930 . S
H794 C762 0.929 . S
H795 C763 0.930 . S
Li796 N813 1.990 . S
Li796 O856 1.956 . S
Li796 O857 1.970 . S
Li796 O858 1.961 . S
Li797 N821 1.990 . S
Li797 O856 1.970 . S
Li797 O857 1.956 . S
Li797 O859 1.961 . S
Li798 N843 1.990 . S
Li798 O856 1.961 . S
Li798 O858 1.956 . S
Li798 O859 1.970 . S
Li799 N849 1.990 . S
Li799 O857 1.961 . S
Li799 O858 1.970 . S
Li799 O859 1.956 . S
C800 C802 1.348 . S
C800 C803 1.356 . S
C800 O856 1.325 . S
N801 C804 1.314 . S
N801 C805 1.279 . S
C802 C800 1.348 . S
C802 C804 1.353 . S
C802 H860 0.929 . S
C803 C800 1.356 . S
C803 C805 1.358 . S
C803 H861 0.930 . S
C804 N801 1.314 . S
C804 C802 1.353 . S
C804 H862 0.930 . S
C805 N801 1.279 . S
C805 C803 1.358 . S
C805 H863 0.930 . S
C806 C809 1.348 . S
C806 C810 1.356 . S
C806 O857 1.325 . S
C807 N808 1.279 . S
C807 C810 1.358 . S
C807 H864 0.930 . S
N808 C807 1.279 . S
N808 C811 1.314 . S
C809 C806 1.348 . S
C809 C811 1.353 . S
C809 H865 0.929 . S
C810 C806 1.356 . S
C810 C807 1.358 . S
C810 H866 0.930 . S
C811 N808 1.314 . S
C811 C809 1.353 . S
C811 H867 0.930 . S
C812 N813 1.314 . S
C812 C817 1.353 . S
C812 H818 0.930 . S
N813 Li796 1.990 . S
N813 C812 1.314 . S
N813 C815 1.279 . S
C814 C815 1.358 . S
C814 C816 1.356 . S
C814 H868 0.930 . S
C815 N813 1.279 . S
C815 C814 1.358 . S
C815 H819 0.930 . S
C816 C814 1.356 . S
C816 C817 1.348 . S
C817 C812 1.353 . S
C817 C816 1.348 . S
C817 H869 0.929 . S
H818 C812 0.930 . S
H819 C815 0.930 . S
C820 N821 1.314 . S
C820 C822 1.353 . S
C820 H826 0.930 . S
N821 Li797 1.990 . S
N821 C820 1.314 . S
N821 C824 1.279 . S
C822 C820 1.353 . S
C822 C825 1.348 . S
C822 H870 0.929 . S
C823 C824 1.358 . S
C823 C825 1.356 . S
C823 H871 0.930 . S
C824 N821 1.279 . S
C824 C823 1.358 . S
C824 H827 0.930 . S
C825 C822 1.348 . S
C825 C823 1.356 . S
H826 C820 0.930 . S
H827 C824 0.930 . S
C828 C830 1.348 . S
C828 C831 1.356 . S
C828 O858 1.325 . S
N829 C832 1.314 . S
N829 C833 1.279 . S
C830 C828 1.348 . S
C830 C832 1.353 . S
C830 H872 0.929 . S
C831 C828 1.356 . S
C831 C833 1.358 . S
C831 H873 0.930 . S
C832 N829 1.314 . S
C832 C830 1.353 . S
C832 H874 0.930 . S
C833 N829 1.279 . S
C833 C831 1.358 . S
C833 H875 0.930 . S
C834 C835 1.348 . S
C834 C836 1.356 . S
C834 O859 1.325 . S
C835 C834 1.348 . S
C835 C837 1.353 . S
C835 H876 0.929 . S
C836 C834 1.356 . S
C836 C838 1.358 . S
C836 H877 0.930 . S
C837 C835 1.353 . S
C837 N839 1.314 . S
C837 H878 0.930 . S
C838 C836 1.358 . S
C838 N839 1.279 . S
C838 H879 0.930 . S
N839 C837 1.314 . S
N839 C838 1.279 . S
C840 C842 1.353 . S
C840 N843 1.314 . S
C840 H846 0.930 . S
C841 N843 1.279 . S
C841 C844 1.358 . S
C841 H847 0.930 . S
C842 C840 1.353 . S
C842 C845 1.348 . S
C842 H880 0.929 . S
N843 Li798 1.990 . S
N843 C840 1.314 . S
N843 C841 1.279 . S
C844 C841 1.358 . S
C844 C845 1.356 . S
C844 H881 0.930 1_554 S
C845 C842 1.348 . S
C845 C844 1.356 . S
H846 C840 0.930 . S
H847 C841 0.930 . S
C848 N849 1.314 . S
C848 C850 1.353 . S
C848 H854 0.930 . S
N849 Li799 1.990 . S
N849 C848 1.314 . S
N849 C852 1.279 . S
C850 C848 1.353 . S
C850 C853 1.348 . S
C850 H882 0.929 . S
C851 C852 1.358 . S
C851 C853 1.356 . S
C851 H883 0.930 . S
C852 N849 1.279 . S
C852 C851 1.358 . S
C852 H855 0.930 . S
C853 C850 1.348 . S
C853 C851 1.356 . S
H854 C848 0.930 . S
H855 C852 0.930 . S
O856 Li796 1.956 . S
O856 Li797 1.970 . S
O856 Li798 1.961 . S
O856 C800 1.325 . S
O857 Li796 1.970 . S
O857 Li797 1.956 . S
O857 Li799 1.961 . S
O857 C806 1.325 . S
O858 Li796 1.961 . S
O858 Li798 1.956 . S
O858 Li799 1.970 . S
O858 C828 1.325 . S
O859 Li797 1.961 . S
O859 Li798 1.970 . S
O859 Li799 1.956 . S
O859 C834 1.325 . S
H860 C802 0.929 . S
H861 C803 0.930 . S
H862 C804 0.930 . S
H863 C805 0.930 . S
H864 C807 0.930 . S
H865 C809 0.929 . S
H866 C810 0.930 . S
H867 C811 0.930 . S
H868 C814 0.930 . S
H869 C817 0.929 . S
H870 C822 0.929 . S
H871 C823 0.930 . S
H872 C830 0.929 . S
H873 C831 0.930 . S
H874 C832 0.930 . S
H875 C833 0.930 . S
H876 C835 0.929 . S
H877 C836 0.930 . S
H878 C837 0.930 . S
H879 C838 0.930 . S
H880 C842 0.929 . S
H881 C844 0.930 1_556 S
H882 C850 0.929 . S
H883 C851 0.930 . S
Li884 N901 1.990 . S
Li884 O944 1.956 . S
Li884 O945 1.970 . S
Li884 O946 1.961 . S
Li885 N909 1.990 . S
Li885 O944 1.970 . S
Li885 O945 1.956 . S
Li885 O947 1.961 . S
Li886 N931 1.990 . S
Li886 O944 1.961 . S
Li886 O946 1.956 . S
Li886 O947 1.970 . S
Li887 N937 1.990 . S
Li887 O945 1.961 . S
Li887 O946 1.970 . S
Li887 O947 1.956 . S
C888 C890 1.348 . S
C888 C891 1.356 . S
C888 O944 1.325 . S
N889 C892 1.314 . S
N889 C893 1.279 . S
C890 C888 1.348 . S
C890 C892 1.353 . S
C890 H948 0.929 . S
C891 C888 1.356 . S
C891 C893 1.358 . S
C891 H949 0.930 . S
C892 N889 1.314 . S
C892 C890 1.353 . S
C892 H950 0.930 . S
C893 N889 1.279 . S
C893 C891 1.358 . S
C893 H951 0.930 . S
C894 C897 1.348 . S
C894 C898 1.356 . S
C894 O945 1.325 . S
C895 N896 1.279 . S
C895 C898 1.358 . S
C895 H952 0.930 . S
N896 C895 1.279 . S
N896 C899 1.314 . S
C897 C894 1.348 . S
C897 C899 1.353 . S
C897 H953 0.929 . S
C898 C894 1.356 . S
C898 C895 1.358 . S
C898 H954 0.930 . S
C899 N896 1.314 . S
C899 C897 1.353 . S
C899 H955 0.930 . S
C900 N901 1.314 . S
C900 C905 1.353 . S
C900 H906 0.930 . S
N901 Li884 1.990 . S
N901 C900 1.314 . S
N901 C903 1.279 . S
C902 C903 1.358 . S
C902 C904 1.356 . S
C902 H956 0.930 . S
C903 N901 1.279 . S
C903 C902 1.358 . S
C903 H907 0.930 . S
C904 C902 1.356 . S
C904 C905 1.348 . S
C905 C900 1.353 . S
C905 C904 1.348 . S
C905 H957 0.929 . S
H906 C900 0.930 . S
H907 C903 0.930 . S
C908 N909 1.314 . S
C908 C910 1.353 . S
C908 H914 0.930 . S
N909 Li885 1.990 . S
N909 C908 1.314 . S
N909 C912 1.279 . S
C910 C908 1.353 . S
C910 C913 1.348 . S
C910 H958 0.929 . S
C911 C912 1.358 . S
C911 C913 1.356 . S
C911 H959 0.930 . S
C912 N909 1.279 . S
C912 C911 1.358 . S
C912 H915 0.930 . S
C913 C910 1.348 . S
C913 C911 1.356 . S
H914 C908 0.930 . S
H915 C912 0.930 . S
C916 C918 1.348 . S
C916 C919 1.356 . S
C916 O946 1.325 . S
N917 C920 1.314 . S
N917 C921 1.279 . S
C918 C916 1.348 . S
C918 C920 1.353 . S
C918 H960 0.929 . S
C919 C916 1.356 . S
C919 C921 1.358 . S
C919 H961 0.930 . S
C920 N917 1.314 . S
C920 C918 1.353 . S
C920 H962 0.930 . S
C921 N917 1.279 . S
C921 C919 1.358 . S
C921 H963 0.930 . S
C922 C923 1.348 . S
C922 C924 1.356 . S
C922 O947 1.325 . S
C923 C922 1.348 . S
C923 C925 1.353 . S
C923 H964 0.929 . S
C924 C922 1.356 . S
C924 C926 1.358 . S
C924 H965 0.930 . S
C925 C923 1.353 . S
C925 N927 1.314 . S
C925 H966 0.930 . S
C926 C924 1.358 . S
C926 N927 1.279 . S
C926 H967 0.930 . S
N927 C925 1.314 . S
N927 C926 1.279 . S
C928 C930 1.353 . S
C928 N931 1.314 . S
C928 H934 0.930 . S
C929 N931 1.279 . S
C929 C932 1.358 . S
C929 H935 0.930 . S
C930 C928 1.353 . S
C930 C933 1.348 . S
C930 H968 0.929 . S
N931 Li886 1.990 . S
N931 C928 1.314 . S
N931 C929 1.279 . S
C932 C929 1.358 . S
C932 C933 1.356 . S
C932 H969 0.930 . S
C933 C930 1.348 . S
C933 C932 1.356 . S
H934 C928 0.930 . S
H935 C929 0.930 . S
C936 N937 1.314 . S
C936 C938 1.353 . S
C936 H942 0.930 . S
N937 Li887 1.990 . S
N937 C936 1.314 . S
N937 C940 1.279 . S
C938 C936 1.353 . S
C938 C941 1.348 . S
C938 H970 0.929 . S
C939 C940 1.358 . S
C939 C941 1.356 . S
C939 H971 0.930 . S
C940 N937 1.279 . S
C940 C939 1.358 . S
C940 H943 0.930 . S
C941 C938 1.348 . S
C941 C939 1.356 . S
H942 C936 0.930 . S
H943 C940 0.930 . S
O944 Li884 1.956 . S
O944 Li885 1.970 . S
O944 Li886 1.961 . S
O944 C888 1.325 . S
O945 Li884 1.970 . S
O945 Li885 1.956 . S
O945 Li887 1.961 . S
O945 C894 1.325 . S
O946 Li884 1.961 . S
O946 Li886 1.956 . S
O946 Li887 1.970 . S
O946 C916 1.325 . S
O947 Li885 1.961 . S
O947 Li886 1.970 . S
O947 Li887 1.956 . S
O947 C922 1.325 . S
H948 C890 0.929 . S
H949 C891 0.930 . S
H950 C892 0.930 . S
H951 C893 0.930 . S
H952 C895 0.930 . S
H953 C897 0.929 . S
H954 C898 0.930 . S
H955 C899 0.930 . S
H956 C902 0.930 . S
H957 C905 0.929 . S
H958 C910 0.929 . S
H959 C911 0.930 . S
H960 C918 0.929 . S
H961 C919 0.930 . S
H962 C920 0.930 . S
H963 C921 0.930 . S
H964 C923 0.929 . S
H965 C924 0.930 . S
H966 C925 0.930 . S
H967 C926 0.930 . S
H968 C930 0.929 . S
H969 C932 0.930 . S
H970 C938 0.929 . S
H971 C939 0.930 . S
H972 C978 0.930 . S
H973 C982 0.930 . S
H974 C987 0.929 . S
H975 C985 0.929 . S
H976 C980 0.929 . S
H977 C986 0.929 . S
C978 H972 0.930 . S
C978 C979 1.367 . S
C978 C986 1.378 . S
C979 C978 1.367 . S
C979 C987 1.433 . S
C980 H976 0.929 . S
C980 C982 1.378 . S
C980 C984 1.350 . S
C981 C984 1.463 . S
C981 C986 1.350 . S
C981 N989 1.427 . S
C982 H973 0.930 . S
C982 C980 1.378 . S
C982 C983 1.367 . S
C983 C982 1.367 . S
C983 C985 1.433 . S
C984 C980 1.350 . S
C984 C981 1.463 . S
C984 N988 1.427 . S
C985 H975 0.929 . S
C985 C983 1.433 . S
C985 N988 1.384 . S
C986 H977 0.929 . S
C986 C978 1.378 . S
C986 C981 1.350 . S
C987 H974 0.929 . S
C987 C979 1.433 . S
C987 N989 1.384 . S
N988 C984 1.427 . S
N988 C985 1.384 . S
N989 C981 1.427 . S
N989 C987 1.384 . S
H990 C996 0.930 . S
H991 C1000 0.930 . S
H992 C1005 0.929 . S
H993 C1003 0.929 . S
H994 C998 0.929 . S
H995 C1004 0.929 . S
C996 H990 0.930 . S
C996 C997 1.367 . S
C996 C1004 1.378 . S
C997 C996 1.367 . S
C997 C1005 1.433 . S
C998 H994 0.929 . S
C998 C1000 1.378 . S
C998 C1002 1.350 . S
C999 C1002 1.463 . S
C999 C1004 1.350 . S
C999 N1007 1.427 . S
C1000 H991 0.930 . S
C1000 C998 1.378 . S
C1000 C1001 1.367 . S
C1001 C1000 1.367 . S
C1001 C1003 1.433 . S
C1002 C998 1.350 . S
C1002 C999 1.463 . S
C1002 N1006 1.427 . S
C1003 H993 0.929 . S
C1003 C1001 1.433 . S
C1003 N1006 1.384 . S
C1004 H995 0.929 . S
C1004 C996 1.378 . S
C1004 C999 1.350 . S
C1005 H992 0.929 . S
C1005 C997 1.433 . S
C1005 N1007 1.384 . S
N1006 C1002 1.427 . S
N1006 C1003 1.384 . S
N1007 C999 1.427 . S
N1007 C1005 1.384 . S
H1008 C1014 0.930 . S
H1009 C1018 0.930 . S
H1010 C1023 0.929 . S
H1011 C1021 0.929 . S
H1012 C1016 0.929 . S
H1013 C1022 0.929 . S
C1014 H1008 0.930 . S
C1014 C1015 1.367 . S
C1014 C1022 1.378 . S
C1015 C1014 1.367 . S
C1015 C1023 1.433 . S
C1016 H1012 0.929 . S
C1016 C1018 1.378 . S
C1016 C1020 1.350 . S
C1017 C1020 1.463 . S
C1017 C1022 1.350 . S
C1017 N1025 1.427 . S
C1018 H1009 0.930 . S
C1018 C1016 1.378 . S
C1018 C1019 1.367 . S
C1019 C1018 1.367 . S
C1019 C1021 1.433 . S
C1020 C1016 1.350 . S
C1020 C1017 1.463 . S
C1020 N1024 1.427 . S
C1021 H1011 0.929 . S
C1021 C1019 1.433 . S
C1021 N1024 1.384 . S
C1022 H1013 0.929 . S
C1022 C1014 1.378 . S
C1022 C1017 1.350 . S
C1023 H1010 0.929 . S
C1023 C1015 1.433 . S
C1023 N1025 1.384 . S
N1024 C1020 1.427 . S
N1024 C1021 1.384 . S
N1025 C1017 1.427 . S
N1025 C1023 1.384 . S
H1026 C1032 0.930 . S
H1027 C1036 0.930 . S
H1028 C1041 0.929 . S
H1029 C1039 0.929 . S
H1030 C1034 0.929 . S
H1031 C1040 0.929 . S
C1032 H1026 0.930 . S
C1032 C1033 1.367 . S
C1032 C1040 1.378 . S
C1033 C1032 1.367 . S
C1033 C1041 1.433 . S
C1034 H1030 0.929 . S
C1034 C1036 1.378 . S
C1034 C1038 1.350 . S
C1035 C1038 1.463 . S
C1035 C1040 1.350 . S
C1035 N1043 1.427 . S
C1036 H1027 0.930 . S
C1036 C1034 1.378 . S
C1036 C1037 1.367 . S
C1037 C1036 1.367 . S
C1037 C1039 1.433 . S
C1038 C1034 1.350 . S
C1038 C1035 1.463 . S
C1038 N1042 1.427 . S
C1039 H1029 0.929 . S
C1039 C1037 1.433 . S
C1039 N1042 1.384 . S
C1040 H1031 0.929 . S
C1040 C1032 1.378 . S
C1040 C1035 1.350 . S
C1041 H1028 0.929 . S
C1041 C1033 1.433 . S
C1041 N1043 1.384 . S
N1042 C1038 1.427 . S
N1042 C1039 1.384 . S
N1043 C1035 1.427 . S
N1043 C1041 1.384 . S
H1044 C1050 0.930 . S
H1045 C1054 0.930 . S
H1046 C1059 0.929 . S
H1047 C1057 0.929 . S
H1048 C1052 0.929 . S
H1049 C1058 0.929 . S
C1050 H1044 0.930 . S
C1050 C1051 1.367 . S
C1050 C1058 1.378 . S
C1051 C1050 1.367 . S
C1051 C1059 1.433 . S
C1052 H1048 0.929 . S
C1052 C1054 1.378 . S
C1052 C1056 1.350 . S
C1053 C1056 1.463 . S
C1053 C1058 1.350 . S
C1053 N1061 1.427 . S
C1054 H1045 0.930 . S
C1054 C1052 1.378 . S
C1054 C1055 1.367 . S
C1055 C1054 1.367 . S
C1055 C1057 1.433 . S
C1056 C1052 1.350 . S
C1056 C1053 1.463 . S
C1056 N1060 1.427 . S
C1057 H1047 0.929 . S
C1057 C1055 1.433 . S
C1057 N1060 1.384 . S
C1058 H1049 0.929 . S
C1058 C1050 1.378 . S
C1058 C1053 1.350 . S
C1059 H1046 0.929 . S
C1059 C1051 1.433 . S
C1059 N1061 1.384 . S
N1060 C1056 1.427 . S
N1060 C1057 1.384 . S
N1061 C1053 1.427 . S
N1061 C1059 1.384 . S
H1062 C1068 0.930 . S
H1063 C1072 0.930 . S
H1064 C1077 0.929 . S
H1065 C1075 0.929 . S
H1066 C1070 0.929 . S
H1067 C1076 0.929 . S
C1068 H1062 0.930 . S
C1068 C1069 1.367 . S
C1068 C1076 1.378 . S
C1069 C1068 1.367 . S
C1069 C1077 1.433 . S
C1070 H1066 0.929 . S
C1070 C1072 1.378 . S
C1070 C1074 1.350 . S
C1071 C1074 1.463 . S
C1071 C1076 1.350 . S
C1071 N1079 1.427 . S
C1072 H1063 0.930 . S
C1072 C1070 1.378 . S
C1072 C1073 1.367 . S
C1073 C1072 1.367 . S
C1073 C1075 1.433 . S
C1074 C1070 1.350 . S
C1074 C1071 1.463 . S
C1074 N1078 1.427 . S
C1075 H1065 0.929 . S
C1075 C1073 1.433 . S
C1075 N1078 1.384 . S
C1076 H1067 0.929 . S
C1076 C1068 1.378 . S
C1076 C1071 1.350 . S
C1077 H1064 0.929 . S
C1077 C1069 1.433 . S
C1077 N1079 1.384 . S
N1078 C1074 1.427 . S
N1078 C1075 1.384 . S
N1079 C1071 1.427 . S
N1079 C1077 1.384 . S
H1080 C1086 0.930 . S
H1081 C1090 0.930 . S
H1082 C1095 0.929 . S
H1083 C1093 0.929 . S
H1084 C1088 0.929 . S
H1085 C1094 0.929 . S
C1086 H1080 0.930 . S
C1086 C1087 1.367 . S
C1086 C1094 1.378 . S
C1087 C1086 1.367 . S
C1087 C1095 1.433 . S
C1088 H1084 0.929 . S
C1088 C1090 1.378 . S
C1088 C1092 1.350 . S
C1089 C1092 1.463 . S
C1089 C1094 1.350 . S
C1089 N1097 1.427 . S
C1090 H1081 0.930 . S
C1090 C1088 1.378 . S
C1090 C1091 1.367 . S
C1091 C1090 1.367 . S
C1091 C1093 1.433 . S
C1092 C1088 1.350 . S
C1092 C1089 1.463 . S
C1092 N1096 1.427 . S
C1093 H1083 0.929 . S
C1093 C1091 1.433 . S
C1093 N1096 1.384 . S
C1094 H1085 0.929 . S
C1094 C1086 1.378 . S
C1094 C1089 1.350 . S
C1095 H1082 0.929 . S
C1095 C1087 1.433 . S
C1095 N1097 1.384 . S
N1096 C1092 1.427 . S
N1096 C1093 1.384 . S
N1097 C1089 1.427 . S
N1097 C1095 1.384 . S
H1098 C1104 0.930 . S
H1099 C1108 0.930 . S
H1100 C1113 0.929 . S
H1101 C1111 0.929 . S
H1102 C1106 0.929 . S
H1103 C1112 0.929 . S
C1104 H1098 0.930 . S
C1104 C1105 1.367 . S
C1104 C1112 1.378 . S
C1105 C1104 1.367 . S
C1105 C1113 1.433 . S
C1106 H1102 0.929 . S
C1106 C1108 1.378 . S
C1106 C1110 1.350 . S
C1107 C1110 1.463 . S
C1107 C1112 1.350 . S
C1107 N1115 1.427 . S
C1108 H1099 0.930 . S
C1108 C1106 1.378 . S
C1108 C1109 1.367 . S
C1109 C1108 1.367 . S
C1109 C1111 1.433 . S
C1110 C1106 1.350 . S
C1110 C1107 1.463 . S
C1110 N1114 1.427 . S
C1111 H1101 0.929 . S
C1111 C1109 1.433 . S
C1111 N1114 1.384 . S
C1112 H1103 0.929 . S
C1112 C1104 1.378 . S
C1112 C1107 1.350 . S
C1113 H1100 0.929 . S
C1113 C1105 1.433 . S
C1113 N1115 1.384 . S
N1114 C1110 1.427 . S
N1114 C1111 1.384 . S
N1115 C1107 1.427 . S
N1115 C1113 1.384 . S
H1116 C1122 0.930 . S
H1117 C1126 0.930 . S
H1118 C1131 0.929 . S
H1119 C1129 0.929 . S
H1120 C1124 0.929 . S
H1121 C1130 0.929 . S
C1122 H1116 0.930 . S
C1122 C1123 1.367 . S
C1122 C1130 1.378 . S
C1123 C1122 1.367 . S
C1123 C1131 1.433 . S
C1124 H1120 0.929 . S
C1124 C1126 1.378 . S
C1124 C1128 1.350 . S
C1125 C1128 1.463 . S
C1125 C1130 1.350 . S
C1125 N1133 1.427 . S
C1126 H1117 0.930 . S
C1126 C1124 1.378 . S
C1126 C1127 1.367 . S
C1127 C1126 1.367 . S
C1127 C1129 1.433 . S
C1128 C1124 1.350 . S
C1128 C1125 1.463 . S
C1128 N1132 1.427 . S
C1129 H1119 0.929 . S
C1129 C1127 1.433 . S
C1129 N1132 1.384 . S
C1130 H1121 0.929 . S
C1130 C1122 1.378 . S
C1130 C1125 1.350 . S
C1131 H1118 0.929 . S
C1131 C1123 1.433 . S
C1131 N1133 1.384 . S
N1132 C1128 1.427 . S
N1132 C1129 1.384 . S
N1133 C1125 1.427 . S
N1133 C1131 1.384 . S
H1134 C1140 0.930 . S
H1135 C1144 0.930 . S
H1136 C1149 0.929 . S
H1137 C1147 0.929 . S
H1138 C1142 0.929 . S
H1139 C1148 0.929 . S
C1140 H1134 0.930 . S
C1140 C1141 1.367 . S
C1140 C1148 1.378 . S
C1141 C1140 1.367 . S
C1141 C1149 1.433 . S
C1142 H1138 0.929 . S
C1142 C1144 1.378 . S
C1142 C1146 1.350 . S
C1143 C1146 1.463 . S
C1143 C1148 1.350 . S
C1143 N1151 1.427 . S
C1144 H1135 0.930 . S
C1144 C1142 1.378 . S
C1144 C1145 1.367 . S
C1145 C1144 1.367 . S
C1145 C1147 1.433 . S
C1146 C1142 1.350 . S
C1146 C1143 1.463 . S
C1146 N1150 1.427 . S
C1147 H1137 0.929 . S
C1147 C1145 1.433 . S
C1147 N1150 1.384 . S
C1148 H1139 0.929 . S
C1148 C1140 1.378 . S
C1148 C1143 1.350 . S
C1149 H1136 0.929 . S
C1149 C1141 1.433 . S
C1149 N1151 1.384 . S
N1150 C1146 1.427 . S
N1150 C1147 1.384 . S
N1151 C1143 1.427 . S
N1151 C1149 1.384 . S
H1152 C1158 0.930 . S
H1153 C1162 0.930 . S
H1154 C1167 0.929 . S
H1155 C1165 0.929 . S
H1156 C1160 0.929 . S
H1157 C1166 0.929 . S
C1158 H1152 0.930 . S
C1158 C1159 1.367 . S
C1158 C1166 1.378 . S
C1159 C1158 1.367 . S
C1159 C1167 1.433 . S
C1160 H1156 0.929 . S
C1160 C1162 1.378 . S
C1160 C1164 1.350 . S
C1161 C1164 1.463 . S
C1161 C1166 1.350 . S
C1161 N1169 1.427 . S
C1162 H1153 0.930 . S
C1162 C1160 1.378 . S
C1162 C1163 1.367 . S
C1163 C1162 1.367 . S
C1163 C1165 1.433 . S
C1164 C1160 1.350 . S
C1164 C1161 1.463 . S
C1164 N1168 1.427 . S
C1165 H1155 0.929 . S
C1165 C1163 1.433 . S
C1165 N1168 1.384 . S
C1166 H1157 0.929 . S
C1166 C1158 1.378 . S
C1166 C1161 1.350 . S
C1167 H1154 0.929 . S
C1167 C1159 1.433 . S
C1167 N1169 1.384 . S
N1168 C1164 1.427 . S
N1168 C1165 1.384 . S
N1169 C1161 1.427 . S
N1169 C1167 1.384 . S
H1170 C1176 0.930 . S
H1171 C1180 0.930 . S
H1172 C1185 0.929 . S
H1173 C1183 0.929 . S
H1174 C1178 0.929 . S
H1175 C1184 0.929 . S
C1176 H1170 0.930 . S
C1176 C1177 1.367 . S
C1176 C1184 1.378 . S
C1177 C1176 1.367 . S
C1177 C1185 1.433 . S
C1178 H1174 0.929 . S
C1178 C1180 1.378 . S
C1178 C1182 1.350 . S
C1179 C1182 1.463 . S
C1179 C1184 1.350 . S
C1179 N1187 1.427 . S
C1180 H1171 0.930 . S
C1180 C1178 1.378 . S
C1180 C1181 1.367 . S
C1181 C1180 1.367 . S
C1181 C1183 1.433 . S
C1182 C1178 1.350 . S
C1182 C1179 1.463 . S
C1182 N1186 1.427 . S
C1183 H1173 0.929 . S
C1183 C1181 1.433 . S
C1183 N1186 1.384 . S
C1184 H1175 0.929 . S
C1184 C1176 1.378 . S
C1184 C1179 1.350 . S
C1185 H1172 0.929 . S
C1185 C1177 1.433 . S
C1185 N1187 1.384 . S
N1186 C1182 1.427 . S
N1186 C1183 1.384 . S
N1187 C1179 1.427 . S
N1187 C1185 1.384 . S
H1188 C1194 0.930 . S
H1189 C1198 0.930 . S
H1190 C1203 0.929 . S
H1191 C1201 0.929 . S
H1192 C1196 0.929 . S
H1193 C1202 0.929 . S
C1194 H1188 0.930 . S
C1194 C1195 1.367 . S
C1194 C1202 1.378 . S
C1195 C1194 1.367 . S
C1195 C1203 1.433 . S
C1196 H1192 0.929 . S
C1196 C1198 1.378 . S
C1196 C1200 1.350 . S
C1197 C1200 1.463 . S
C1197 C1202 1.350 . S
C1197 N1205 1.427 . S
C1198 H1189 0.930 . S
C1198 C1196 1.378 . S
C1198 C1199 1.367 . S
C1199 C1198 1.367 . S
C1199 C1201 1.433 . S
C1200 C1196 1.350 . S
C1200 C1197 1.463 . S
C1200 N1204 1.427 . S
C1201 H1191 0.929 . S
C1201 C1199 1.433 . S
C1201 N1204 1.384 . S
C1202 H1193 0.929 . S
C1202 C1194 1.378 . S
C1202 C1197 1.350 . S
C1203 H1190 0.929 . S
C1203 C1195 1.433 . S
C1203 N1205 1.384 . S
N1204 C1200 1.427 . S
N1204 C1201 1.384 . S
N1205 C1197 1.427 . S
N1205 C1203 1.384 . S
H1206 C1212 0.930 . S
H1207 C1216 0.930 . S
H1208 C1221 0.929 . S
H1209 C1219 0.929 . S
H1210 C1214 0.929 . S
H1211 C1220 0.929 . S
C1212 H1206 0.930 . S
C1212 C1213 1.367 . S
C1212 C1220 1.378 . S
C1213 C1212 1.367 . S
C1213 C1221 1.433 . S
C1214 H1210 0.929 . S
C1214 C1216 1.378 . S
C1214 C1218 1.350 . S
C1215 C1218 1.463 . S
C1215 C1220 1.350 . S
C1215 N1223 1.427 . S
C1216 H1207 0.930 . S
C1216 C1214 1.378 . S
C1216 C1217 1.367 . S
C1217 C1216 1.367 . S
C1217 C1219 1.433 . S
C1218 C1214 1.350 . S
C1218 C1215 1.463 . S
C1218 N1222 1.427 . S
C1219 H1209 0.929 . S
C1219 C1217 1.433 . S
C1219 N1222 1.384 . S
C1220 H1211 0.929 . S
C1220 C1212 1.378 . S
C1220 C1215 1.350 . S
C1221 H1208 0.929 . S
C1221 C1213 1.433 . S
C1221 N1223 1.384 . S
N1222 C1218 1.427 . S
N1222 C1219 1.384 . S
N1223 C1215 1.427 . S
N1223 C1221 1.384 . S
H1224 C1230 0.930 . S
H1225 C1234 0.930 . S
H1226 C1239 0.929 . S
H1227 C1237 0.929 . S
H1228 C1232 0.929 . S
H1229 C1238 0.929 . S
C1230 H1224 0.930 . S
C1230 C1231 1.367 . S
C1230 C1238 1.378 . S
C1231 C1230 1.367 . S
C1231 C1239 1.433 . S
C1232 H1228 0.929 . S
C1232 C1234 1.378 . S
C1232 C1236 1.350 . S
C1233 C1236 1.463 . S
C1233 C1238 1.350 . S
C1233 N1241 1.427 . S
C1234 H1225 0.930 . S
C1234 C1232 1.378 . S
C1234 C1235 1.367 . S
C1235 C1234 1.367 . S
C1235 C1237 1.433 . S
C1236 C1232 1.350 . S
C1236 C1233 1.463 . S
C1236 N1240 1.427 . S
C1237 H1227 0.929 . S
C1237 C1235 1.433 . S
C1237 N1240 1.384 . S
C1238 H1229 0.929 . S
C1238 C1230 1.378 . S
C1238 C1233 1.350 . S
C1239 H1226 0.929 . S
C1239 C1231 1.433 . S
C1239 N1241 1.384 . S
N1240 C1236 1.427 . S
N1240 C1237 1.384 . S
N1241 C1233 1.427 . S
N1241 C1239 1.384 . S
H1242 C1248 0.930 . S
H1243 C1252 0.930 . S
H1244 C1257 0.929 . S
H1245 C1255 0.929 . S
H1246 C1250 0.929 . S
H1247 C1256 0.929 . S
C1248 H1242 0.930 . S
C1248 C1249 1.367 . S
C1248 C1256 1.378 . S
C1249 C1248 1.367 . S
C1249 C1257 1.433 . S
C1250 H1246 0.929 . S
C1250 C1252 1.378 . S
C1250 C1254 1.350 . S
C1251 C1254 1.463 . S
C1251 C1256 1.350 . S
C1251 N1259 1.427 . S
C1252 H1243 0.930 . S
C1252 C1250 1.378 . S
C1252 C1253 1.367 . S
C1253 C1252 1.367 . S
C1253 C1255 1.433 . S
C1254 C1250 1.350 . S
C1254 C1251 1.463 . S
C1254 N1258 1.427 . S
C1255 H1245 0.929 . S
C1255 C1253 1.433 . S
C1255 N1258 1.384 . S
C1256 H1247 0.929 . S
C1256 C1248 1.378 . S
C1256 C1251 1.350 . S
C1257 H1244 0.929 . S
C1257 C1249 1.433 . S
C1257 N1259 1.384 . S
N1258 C1254 1.427 . S
N1258 C1255 1.384 . S
N1259 C1251 1.427 . S
N1259 C1257 1.384 . S
H1260 C1266 0.930 1_545 S
H1261 C1270 0.930 . S
H1262 C1275 0.929 . S
H1263 C1273 0.929 . S
H1264 C1268 0.929 . S
H1265 C1274 0.929 . S
C1266 H1260 0.930 1_565 S
C1266 C1267 1.367 . S
C1266 C1274 1.378 . S
C1267 C1266 1.367 . S
C1267 C1275 1.433 . S
C1268 H1264 0.929 . S
C1268 C1270 1.378 . S
C1268 C1272 1.350 . S
C1269 C1272 1.463 . S
C1269 C1274 1.350 . S
C1269 N1277 1.427 . S
C1270 H1261 0.930 . S
C1270 C1268 1.378 . S
C1270 C1271 1.367 . S
C1271 C1270 1.367 . S
C1271 C1273 1.433 . S
C1272 C1268 1.350 . S
C1272 C1269 1.463 . S
C1272 N1276 1.427 . S
C1273 H1263 0.929 . S
C1273 C1271 1.433 . S
C1273 N1276 1.384 . S
C1274 H1265 0.929 . S
C1274 C1266 1.378 . S
C1274 C1269 1.350 . S
C1275 H1262 0.929 . S
C1275 C1267 1.433 . S
C1275 N1277 1.384 . S
N1276 C1272 1.427 . S
N1276 C1273 1.384 . S
N1277 C1269 1.427 . S
N1277 C1275 1.384 . S
H1278 C1284 0.930 . S
H1279 C1288 0.930 . S
H1280 C1293 0.929 . S
H1281 C1291 0.929 . S
H1282 C1286 0.929 . S
H1283 C1292 0.929 . S
C1284 H1278 0.930 . S
C1284 C1285 1.367 . S
C1284 C1292 1.378 . S
C1285 C1284 1.367 . S
C1285 C1293 1.433 . S
C1286 H1282 0.929 . S
C1286 C1288 1.378 . S
C1286 C1290 1.350 . S
C1287 C1290 1.463 . S
C1287 C1292 1.350 . S
C1287 N1295 1.427 . S
C1288 H1279 0.930 . S
C1288 C1286 1.378 . S
C1288 C1289 1.367 . S
C1289 C1288 1.367 . S
C1289 C1291 1.433 . S
C1290 C1286 1.350 . S
C1290 C1287 1.463 . S
C1290 N1294 1.427 . S
C1291 H1281 0.929 . S
C1291 C1289 1.433 . S
C1291 N1294 1.384 . S
C1292 H1283 0.929 . S
C1292 C1284 1.378 . S
C1292 C1287 1.350 . S
C1293 H1280 0.929 . S
C1293 C1285 1.433 . S
C1293 N1295 1.384 . S
N1294 C1290 1.427 . S
N1294 C1291 1.384 . S
N1295 C1287 1.427 . S
N1295 C1293 1.384 . S
H1296 C1302 0.930 . S
H1297 C1306 0.930 . S
H1298 C1311 0.929 . S
H1299 C1309 0.929 . S
H1300 C1304 0.929 . S
H1301 C1310 0.929 . S
C1302 H1296 0.930 . S
C1302 C1303 1.367 . S
C1302 C1310 1.378 . S
C1303 C1302 1.367 . S
C1303 C1311 1.433 . S
C1304 H1300 0.929 . S
C1304 C1306 1.378 . S
C1304 C1308 1.350 . S
C1305 C1308 1.463 . S
C1305 C1310 1.350 . S
C1305 N1313 1.427 . S
C1306 H1297 0.930 . S
C1306 C1304 1.378 . S
C1306 C1307 1.367 . S
C1307 C1306 1.367 . S
C1307 C1309 1.433 . S
C1308 C1304 1.350 . S
C1308 C1305 1.463 . S
C1308 N1312 1.427 . S
C1309 H1299 0.929 . S
C1309 C1307 1.433 . S
C1309 N1312 1.384 . S
C1310 H1301 0.929 . S
C1310 C1302 1.378 . S
C1310 C1305 1.350 . S
C1311 H1298 0.929 . S
C1311 C1303 1.433 . S
C1311 N1313 1.384 . S
N1312 C1308 1.427 . S
N1312 C1309 1.384 . S
N1313 C1305 1.427 . S
N1313 C1311 1.384 . S
H1314 C1320 0.930 . S
H1315 C1324 0.930 . S
H1316 C1329 0.929 . S
H1317 C1327 0.929 . S
H1318 C1322 0.929 . S
H1319 C1328 0.929 . S
C1320 H1314 0.930 . S
C1320 C1321 1.367 . S
C1320 C1328 1.378 . S
C1321 C1320 1.367 . S
C1321 C1329 1.433 . S
C1322 H1318 0.929 . S
C1322 C1324 1.378 . S
C1322 C1326 1.350 . S
C1323 C1326 1.463 . S
C1323 C1328 1.350 . S
C1323 N1331 1.427 . S
C1324 H1315 0.930 . S
C1324 C1322 1.378 . S
C1324 C1325 1.367 . S
C1325 C1324 1.367 . S
C1325 C1327 1.433 . S
C1326 C1322 1.350 . S
C1326 C1323 1.463 . S
C1326 N1330 1.427 . S
C1327 H1317 0.929 . S
C1327 C1325 1.433 . S
C1327 N1330 1.384 . S
C1328 H1319 0.929 . S
C1328 C1320 1.378 . S
C1328 C1323 1.350 . S
C1329 H1316 0.929 . S
C1329 C1321 1.433 . S
C1329 N1331 1.384 . S
N1330 C1326 1.427 . S
N1330 C1327 1.384 . S
N1331 C1323 1.427 . S
N1331 C1329 1.384 . S
H1332 C1338 0.930 . S
H1333 C1342 0.930 . S
H1334 C1347 0.929 . S
H1335 C1345 0.929 . S
H1336 C1340 0.929 . S
H1337 C1346 0.929 . S
C1338 H1332 0.930 . S
C1338 C1339 1.367 . S
C1338 C1346 1.378 . S
C1339 C1338 1.367 . S
C1339 C1347 1.433 . S
C1340 H1336 0.929 . S
C1340 C1342 1.378 . S
C1340 C1344 1.350 . S
C1341 C1344 1.463 . S
C1341 C1346 1.350 . S
C1341 N1349 1.427 . S
C1342 H1333 0.930 . S
C1342 C1340 1.378 . S
C1342 C1343 1.367 . S
C1343 C1342 1.367 . S
C1343 C1345 1.433 . S
C1344 C1340 1.350 . S
C1344 C1341 1.463 . S
C1344 N1348 1.427 . S
C1345 H1335 0.929 . S
C1345 C1343 1.433 . S
C1345 N1348 1.384 . S
C1346 H1337 0.929 . S
C1346 C1338 1.378 . S
C1346 C1341 1.350 . S
C1347 H1334 0.929 . S
C1347 C1339 1.433 . S
C1347 N1349 1.384 . S
N1348 C1344 1.427 . S
N1348 C1345 1.384 . S
N1349 C1341 1.427 . S
N1349 C1347 1.384 . S
H1350 C1356 0.930 . S
H1351 C1360 0.930 . S
H1352 C1365 0.929 . S
H1353 C1363 0.929 . S
H1354 C1358 0.929 . S
H1355 C1364 0.929 . S
C1356 H1350 0.930 . S
C1356 C1357 1.367 . S
C1356 C1364 1.378 . S
C1357 C1356 1.367 . S
C1357 C1365 1.433 . S
C1358 H1354 0.929 . S
C1358 C1360 1.378 . S
C1358 C1362 1.350 . S
C1359 C1362 1.463 . S
C1359 C1364 1.350 . S
C1359 N1367 1.427 . S
C1360 H1351 0.930 . S
C1360 C1358 1.378 . S
C1360 C1361 1.367 . S
C1361 C1360 1.367 . S
C1361 C1363 1.433 . S
C1362 C1358 1.350 . S
C1362 C1359 1.463 . S
C1362 N1366 1.427 . S
C1363 H1353 0.929 . S
C1363 C1361 1.433 . S
C1363 N1366 1.384 . S
C1364 H1355 0.929 . S
C1364 C1356 1.378 . S
C1364 C1359 1.350 . S
C1365 H1352 0.929 . S
C1365 C1357 1.433 . S
C1365 N1367 1.384 . S
N1366 C1362 1.427 . S
N1366 C1363 1.384 . S
N1367 C1359 1.427 . S
N1367 C1365 1.384 . S
H1368 C1374 0.930 . S
H1369 C1378 0.957 . S
H1370 C1383 0.929 . S
H1371 C1381 0.929 . S
H1372 C1376 0.929 . S
H1373 C1382 0.929 . S
C1374 H1368 0.930 . S
C1374 C1375 1.367 . S
C1374 C1382 1.378 . S
C1375 C1374 1.367 . S
C1375 C1383 1.433 . S
C1376 H1372 0.929 . S
C1376 C1378 1.378 . S
C1376 C1380 1.350 . S
C1377 C1380 1.463 . S
C1377 C1382 1.350 . S
C1377 N1385 1.427 . S
C1378 H1369 0.957 . S
C1378 C1376 1.378 . S
C1378 C1379 1.357 1_554 S
C1379 C1378 1.357 1_556 S
C1379 C1381 1.422 1_556 S
C1380 C1376 1.350 . S
C1380 C1377 1.463 . S
C1380 N1384 1.427 . S
C1381 H1371 0.929 . S
C1381 C1379 1.422 1_554 S
C1381 N1384 1.384 . S
C1382 H1373 0.929 . S
C1382 C1374 1.378 . S
C1382 C1377 1.350 . S
C1383 H1370 0.929 . S
C1383 C1375 1.433 . S
C1383 N1385 1.384 . S
N1384 C1380 1.427 . S
N1384 C1381 1.384 . S
N1385 C1377 1.427 . S
N1385 C1383 1.384 . S
H1386 C1392 0.930 . S
H1387 C1396 0.930 . S
H1388 C1401 0.929 . S
H1389 C1399 0.929 . S
H1390 C1394 0.929 . S
H1391 C1400 0.929 . S
C1392 H1386 0.930 . S
C1392 C1393 1.367 . S
C1392 C1400 1.378 . S
C1393 C1392 1.367 . S
C1393 C1401 1.433 . S
C1394 H1390 0.929 . S
C1394 C1396 1.378 . S
C1394 C1398 1.350 . S
C1395 C1398 1.463 . S
C1395 C1400 1.350 . S
C1395 N1403 1.427 . S
C1396 H1387 0.930 . S
C1396 C1394 1.378 . S
C1396 C1397 1.367 . S
C1397 C1396 1.367 . S
C1397 C1399 1.433 . S
C1398 C1394 1.350 . S
C1398 C1395 1.463 . S
C1398 N1402 1.427 . S
C1399 H1389 0.929 . S
C1399 C1397 1.433 . S
C1399 N1402 1.384 . S
C1400 H1391 0.929 . S
C1400 C1392 1.378 . S
C1400 C1395 1.350 . S
C1401 H1388 0.929 . S
C1401 C1393 1.433 . S
C1401 N1403 1.384 . S
N1402 C1398 1.427 . S
N1402 C1399 1.384 . S
N1403 C1395 1.427 . S
N1403 C1401 1.384 . S
C983 C913 1.185 . S
C979 C51 1.172 . S
C997 C125 1.641 . S
C1001 C473 1.645 . S
C1015 C217 2.604 . S
C1019 C561 2.609 . S
C1033 C291 1.837 . S
C1037 C640 1.842 . S
C1055 C737 0.699 . S
C1051 C347 0.692 . S
C1069 C421 0.930 . S
C1073 C816 0.937 . S
C1087 C143 2.618 . S
C1091 C581 2.622 . S
C1105 C199 1.411 . S
C1109 C677 1.409 . S
C1123 C273 0.701 . S
C1127 C757 0.702 . S
C1145 C853 1.535 . S
C1141 C365 1.541 . S
C1163 C933 2.209 . S
C1159 C439 2.234 . S
C1181 C493 2.499 . S
C1177 C69 2.518 . S
C1195 C63 1.345 . S
C1199 C589 1.421 . S
C1213 C137 1.422 . S
C1217 C669 1.473 . S
C1235 C765 1.284 . S
C1231 C187 1.258 . S
C1249 C261 1.374 . S
C1253 C845 1.415 1_556 S
C1271 C941 1.294 . S
C1267 C359 1.217 . S
C1289 C501 1.041 . S
C1285 C433 0.998 . S
C1307 C904 1.636 . S
C1303 C113 1.637 . S
C1321 C211 1.347 . S
C1325 C464 1.391 . S
C1343 C552 1.484 . S
C1339 C285 1.408 . S
C1357 C335 1.211 . S
C1361 C649 1.253 . S
C1375 C409 1.317 . S
C1379 C728 1.374 . S
C1393 C39 1.723 . S
C1397 C825 1.736 . S
