# Generated by pormake.
# Topology pth, (4,4)-cn, num edge types: 1
# Building blocks:
#     Node 0, Type 0, BuildingBlock: KUFVIS_clean_sbu_0, # of connection points: 4
#     Node 1, Type 0, BuildingBlock: KUFVIS_clean_sbu_0, # of connection points: 4
#     Node 2, Type 0, BuildingBlock: KUFVIS_clean_sbu_0, # of connection points: 4
#     Node 3, Type 1, BuildingBlock: NAHDIM_clean_linker_0, # of connection points: 4
#     Node 4, Type 1, BuildingBlock: NAHDIM_clean_linker_0, # of connection points: 4
#     Node 5, Type 1, BuildingBlock: NAHDIM_clean_linker_0, # of connection points: 4
#     Edge 6, Type (0, 1), BuildingBlock: XIVTED_clean_linker_0, # of connection points: 2
#     Edge 7, Type (0, 1), BuildingBlock: XIVTED_clean_linker_0, # of connection points: 2
#     Edge 8, Type (0, 1), BuildingBlock: XIVTED_clean_linker_0, # of connection points: 2
#     Edge 9, Type (0, 1), BuildingBlock: XIVTED_clean_linker_0, # of connection points: 2
#     Edge 10, Type (0, 1), BuildingBlock: XIVTED_clean_linker_0, # of connection points: 2
#     Edge 11, Type (0, 1), BuildingBlock: XIVTED_clean_linker_0, # of connection points: 2
#     Edge 12, Type (0, 1), BuildingBlock: XIVTED_clean_linker_0, # of connection points: 2
#     Edge 13, Type (0, 1), BuildingBlock: XIVTED_clean_linker_0, # of connection points: 2
#     Edge 14, Type (0, 1), BuildingBlock: XIVTED_clean_linker_0, # of connection points: 2
#     Edge 15, Type (0, 1), BuildingBlock: XIVTED_clean_linker_0, # of connection points: 2
#     Edge 16, Type (0, 1), BuildingBlock: XIVTED_clean_linker_0, # of connection points: 2
#     Edge 17, Type (0, 1), BuildingBlock: XIVTED_clean_linker_0, # of connection points: 2
# Relax obj value: 0.013
# Max RMSD: 0.083
# Mean RMSD: 0.063
data_MOF--net-pth--node1-KUFVIS_clean_sbu_0--node2-NAHDIM_clean_linker_0--edge1-XIVTED_clean_linker_0
_symmetry_space_group_name_H-M    P1
_symmetry_Int_Tables_number       1
_symmetry_cell_setting            triclinic
loop_
_symmetry_equiv_pos_as_xyz
'x, y, z'
_cell_length_a     31.582329
_cell_length_b     31.626243
_cell_length_c     81.757286
_cell_angle_alpha  90.184111
_cell_angle_beta   92.471729
_cell_angle_gamma 120.28976
loop_
_atom_site_label
_atom_site_type_symbol
_atom_site_fract_x
_atom_site_fract_y
_atom_site_fract_z
_atom_type_partial_charge
Mn0 Mn 0.03412 0.05946 0.05069 0.0
Mn1 Mn 0.94963 0.08451 0.03419 0.0
C2 C 0.97917 0.00795 0.03057 0.0
C3 C 0.05629 0.02535 0.07209 0.0
C4 C 0.05562 0.13545 0.02442 0.0
O5 O 0.0387 0.11184 0.06595 0.0
O6 O 0.9779 0.12245 0.05538 0.0
C7 C 0.87665 0.03755 0.05944 0.0
N8 N 0.88837 0.04125 0.04347 0.0
C9 C 0.80735 0.9758 0.03519 0.0
C10 C 0.79428 0.97156 0.05153 0.0
C11 C 0.82912 0.00252 0.06371 0.0
C12 C 0.85526 0.0114 0.03168 0.0
H13 H 0.90341 0.061 0.06887 0.0
C14 C 0.01254 0.13188 0.06613 0.0
O15 O 0.08952 0.05891 0.0633 0.0
O16 O 0.01084 0.01183 0.06843 0.0
N17 N 0.91835 0.05092 0.01382 0.0
C18 C 0.93644 0.06047 0.99859 0.0
C19 C 0.90613 0.03279 0.985 0.0
C20 C 0.85737 0.99609 0.98718 0.0
C21 C 0.83911 0.98796 0.00289 0.0
C22 C 0.87093 0.01696 0.01595 0.0
H23 H 0.97391 0.08841 0.99685 0.0
O24 O 0.01866 0.00653 0.03441 0.0
O25 O 0.97153 0.03785 0.0393 0.0
O26 O 0.06966 0.11171 0.03365 0.0
O27 O 0.01199 0.12873 0.02385 0.0
C28 C 0.79065 0.95205 0.00612 0.0
C29 C 0.77483 0.94588 0.02227 0.0
H30 H 0.75768 0.94453 0.05488 0.0
H31 H 0.8194 0.9993 0.07637 0.0
H32 H 0.92042 0.03953 0.9729 0.0
H33 H 0.83425 0.97452 0.97669 0.0
H34 H 0.7653 0.92888 0.99629 0.0
H35 H 0.73755 0.91801 0.02461 0.0
Mn36 Mn 0.03334 0.05433 0.3867 0.0
Mn37 Mn 0.11044 0.16408 0.40527 0.0
C38 C 0.08027 0.05838 0.40957 0.0
C39 C 0.01943 0.99622 0.36636 0.0
C40 C 0.0007 0.10798 0.40966 0.0
O41 O 0.03616 0.10271 0.37 0.0
O42 O 0.09157 0.17397 0.38265 0.0
C43 C 0.19495 0.19241 0.38465 0.0
N44 N 0.17581 0.18349 0.3997 0.0
C45 C 0.25287 0.2006 0.4127 0.0
C46 C 0.27353 0.21034 0.39735 0.0
C47 C 0.24441 0.20614 0.38326 0.0
C48 C 0.20341 0.18714 0.41332 0.0
H49 H 0.17258 0.18892 0.37379 0.0
C50 C 0.06219 0.14929 0.3705 0.0
O51 O 0.98311 0.99786 0.37262 0.0
O52 O 0.06334 0.02898 0.37162 0.0
N53 N 0.13199 0.16098 0.42724 0.0
C54 C 0.10653 0.15064 0.44112 0.0
C55 C 0.13032 0.15305 0.45631 0.0
C56 C 0.18015 0.16667 0.45708 0.0
C57 C 0.20592 0.17847 0.44269 0.0
C58 C 0.18037 0.17583 0.42793 0.0
H59 H 0.06824 0.14022 0.4406 0.0
O60 O 0.04193 0.01717 0.40482 0.0
O61 O 0.09115 0.0958 0.40042 0.0
O62 O 0.99064 0.07023 0.40085 0.0
O63 O 0.0439 0.14525 0.41184 0.0
C64 C 0.25584 0.19232 0.44238 0.0
C65 C 0.27926 0.20324 0.42739 0.0
H66 H 0.31163 0.22081 0.39622 0.0
H67 H 0.26002 0.21335 0.37136 0.0
H68 H 0.11025 0.14421 0.46738 0.0
H69 H 0.19824 0.16799 0.46879 0.0
H70 H 0.27648 0.19439 0.45358 0.0
H71 H 0.31756 0.21351 0.42729 0.0
Mn72 Mn 0.06341 0.07627 0.72505 0.0
Mn73 Mn 0.01841 0.13389 0.7471 0.0
C74 C 0.11081 0.13133 0.74613 0.0
C75 C 0.10576 0.07173 0.70311 0.0
C76 C 0.98885 0.02762 0.75148 0.0
O77 O 0.006 0.06832 0.71022 0.0
O78 O 0.98071 0.10956 0.72582 0.0
C79 C 0.04582 0.21842 0.72574 0.0
N80 N 0.04793 0.20056 0.7407 0.0
C81 C 0.09646 0.28197 0.75255 0.0
C82 C 0.09462 0.30123 0.73728 0.0
C83 C 0.06934 0.2693 0.72381 0.0
C84 C 0.07259 0.23095 0.7537 0.0
H85 H 0.02636 0.19404 0.71535 0.0
C86 C 0.97782 0.08553 0.71276 0.0
O87 O 0.07477 0.03274 0.71052 0.0
O88 O 0.11064 0.11309 0.70802 0.0
N89 N 0.05227 0.16008 0.76791 0.0
C90 C 0.0522 0.13566 0.78162 0.0
C91 C 0.0765 0.16233 0.79615 0.0
C92 C 0.10012 0.21372 0.79648 0.0
C93 C 0.09928 0.23801 0.78226 0.0
C94 C 0.07451 0.20951 0.76815 0.0
H95 H 0.03379 0.09616 0.78147 0.0
O96 O 0.12036 0.09789 0.74146 0.0
O97 O 0.07362 0.13073 0.73856 0.0
O98 O 0.01601 0.02605 0.74069 0.0
O99 O 0.98681 0.06601 0.75482 0.0
C100 C 0.12239 0.28941 0.7815 0.0
C101 C 0.12138 0.31139 0.76662 0.0
H102 H 0.11266 0.34045 0.73575 0.0
H103 H 0.06789 0.28389 0.71198 0.0
H104 H 0.07696 0.14331 0.80708 0.0
H105 H 0.11897 0.23417 0.8077 0.0
H106 H 0.14154 0.31242 0.79225 0.0
H107 H 0.14004 0.35096 0.76613 0.0
C108 C 0.92808 0.65291 0.31603 0.0
C109 C 0.96878 0.6958 0.30715 0.0
C110 C 0.97434 0.66902 0.27995 0.0
C111 C 0.02451 0.68467 0.27972 0.0
C112 C 0.04108 0.66026 0.26978 0.0
C113 C 0.00669 0.61944 0.2599 0.0
C114 C 0.95634 0.60516 0.25952 0.0
C115 C 0.94088 0.63064 0.26944 0.0
C116 C 0.09515 0.67723 0.27017 0.0
C117 C 0.91873 0.56195 0.24907 0.0
C118 C 0.031 0.29599 0.29729 0.0
C119 C 0.0213 0.32384 0.28466 0.0
C120 C 0.04901 0.40897 0.27805 0.0
C121 C 0.00646 0.39832 0.26852 0.0
C122 C 0.00259 0.43564 0.26063 0.0
C123 C 0.04233 0.48441 0.26208 0.0
C124 C 0.08478 0.49539 0.27192 0.0
C125 C 0.08741 0.45744 0.27984 0.0
C126 C 0.95648 0.42281 0.25043 0.0
C127 C 0.12777 0.54702 0.27372 0.0
C128 C 0.11894 0.44211 0.16551 0.0
C129 C 0.07069 0.43342 0.16458 0.0
C130 C 0.06025 0.46884 0.17032 0.0
C131 C 0.09896 0.51401 0.17692 0.0
C132 C 0.148 0.52424 0.17671 0.0
C133 C 0.15737 0.4881 0.17089 0.0
C134 C 0.00765 0.45726 0.16998 0.0
C135 C 0.19014 0.57236 0.18339 0.0
C136 C 0.99613 0.77091 0.1593 0.0
C137 C 0.04976 0.79387 0.15464 0.0
C138 C 0.06133 0.72417 0.15593 0.0
C139 C 0.02538 0.67488 0.15377 0.0
C140 C 0.02801 0.63894 0.16302 0.0
C141 C 0.06859 0.65282 0.17425 0.0
C142 C 0.1063 0.7026 0.17586 0.0
C143 C 0.10184 0.73792 0.16681 0.0
C144 C 0.98716 0.5863 0.1609 0.0
C145 C 0.15113 0.71854 0.18716 0.0
C146 C 0.02287 0.58943 0.25103 0.0
C147 C 0.02589 0.55295 0.25974 0.0
C148 C 0.04089 0.52318 0.25232 0.0
C149 C 0.05347 0.52981 0.23578 0.0
C150 C 0.06892 0.50054 0.22801 0.0
C151 C 0.08014 0.50646 0.21165 0.0
C152 C 0.07688 0.54225 0.20242 0.0
C153 C 0.08747 0.54789 0.18568 0.0
C154 C 0.08514 0.58456 0.17693 0.0
C155 C 0.07128 0.61533 0.18438 0.0
C156 C 0.05919 0.60935 0.20103 0.0
C157 C 0.04358 0.63855 0.20881 0.0
C158 C 0.032 0.63241 0.22521 0.0
C159 C 0.03501 0.59644 0.23441 0.0
C160 C 0.05036 0.56644 0.22678 0.0
C161 C 0.06236 0.57285 0.21008 0.0
C162 C 0.12808 0.34102 0.17594 0.0
C163 C 0.10039 0.35723 0.16412 0.0
O164 O 0.95736 0.68978 0.29042 0.0
O165 O 0.05636 0.7581 0.14739 0.0
O166 O 0.12963 0.40694 0.16151 0.0
O167 O 0.05453 0.37376 0.28565 0.0
H168 H 0.00299 0.69475 0.31011 0.0
H169 H 0.92642 0.61828 0.31229 0.0
H170 H 0.89169 0.64907 0.31294 0.0
H171 H 0.93575 0.65827 0.3295 0.0
H172 H 0.05061 0.71566 0.28743 0.0
H173 H 0.9023 0.61937 0.26956 0.0
H174 H 0.10145 0.64888 0.27582 0.0
H175 H 0.11764 0.71226 0.27726 0.0
H176 H 0.1079 0.68208 0.25749 0.0
H177 H 0.88108 0.5559 0.24998 0.0
H178 H 0.91879 0.52832 0.2529 0.0
H179 H 0.92848 0.56774 0.23606 0.0
H180 H 0.01268 0.30778 0.27197 0.0
H181 H 0.96677 0.26904 0.31319 0.0
H182 H 0.07004 0.3201 0.30234 0.0
H183 H 0.03941 0.27064 0.2902 0.0
H184 H 0.97629 0.36098 0.26707 0.0
H185 H 0.11994 0.46533 0.28729 0.0
H186 H 0.9649 0.42784 0.23729 0.0
H187 H 0.9428 0.44773 0.25374 0.0
H188 H 0.92686 0.38436 0.252 0.0
H189 H 0.15828 0.54946 0.28174 0.0
H190 H 0.11564 0.57136 0.27896 0.0
H191 H 0.14178 0.56088 0.26149 0.0
H192 H 0.0664 0.34913 0.17025 0.0
H193 H 0.04104 0.39879 0.15958 0.0
H194 H 0.19462 0.49483 0.17119 0.0
H195 H 0.99587 0.45476 0.18272 0.0
H196 H 0.98225 0.42219 0.16328 0.0
H197 H 0.00449 0.48721 0.1641 0.0
H198 H 0.22637 0.57613 0.18123 0.0
H199 H 0.18709 0.57532 0.19677 0.0
H200 H 0.18839 0.60324 0.17763 0.0
H201 H 0.07411 0.80914 0.16595 0.0
H202 H 0.98982 0.79836 0.16553 0.0
H203 H 0.98703 0.74069 0.16789 0.0
H204 H 0.97093 0.75584 0.14821 0.0
H205 H 0.9945 0.66489 0.14516 0.0
H206 H 0.13006 0.77621 0.1681 0.0
H207 H 0.97431 0.57026 0.17302 0.0
H208 H 0.00118 0.56464 0.15486 0.0
H209 H 0.95537 0.58258 0.1533 0.0
H210 H 0.18022 0.75693 0.18515 0.0
H211 H 0.16645 0.69412 0.18539 0.0
H212 H 0.14068 0.7158 0.20006 0.0
H213 H 0.01624 0.54752 0.27245 0.0
H214 H 0.07229 0.47246 0.23446 0.0
H215 H 0.09149 0.48257 0.20635 0.0
H216 H 0.09354 0.58876 0.1641 0.0
H217 H 0.04009 0.66649 0.20231 0.0
H218 H 0.02041 0.65602 0.23058 0.0
H219 H 0.10576 0.30101 0.17791 0.0
H220 H 0.13533 0.3606 0.18795 0.0
H221 H 0.16385 0.3495 0.17116 0.0
C222 C 0.39368 0.04573 0.65961 0.0
C223 C 0.37691 0.06894 0.64633 0.0
C224 C 0.40044 0.05233 0.62026 0.0
C225 C 0.43067 0.09995 0.61481 0.0
C226 C 0.46673 0.1096 0.60362 0.0
C227 C 0.47232 0.07072 0.59769 0.0
C228 C 0.44059 0.02235 0.60267 0.0
C229 C 0.4046 0.01372 0.6138 0.0
C230 C 0.49921 0.16139 0.59825 0.0
C231 C 0.44528 0.98003 0.59644 0.0
C232 C 0.85094 0.20987 0.61429 0.0
C233 C 0.80988 0.17099 0.62427 0.0
C234 C 0.73331 0.12778 0.60711 0.0
C235 C 0.6983 0.08165 0.60065 0.0
C236 C 0.65361 0.07325 0.59338 0.0
C237 C 0.64413 0.11239 0.59233 0.0
C238 C 0.6795 0.15938 0.59871 0.0
C239 C 0.72383 0.16669 0.60603 0.0
C240 C 0.6166 0.02257 0.58676 0.0
C241 C 0.67061 0.20192 0.59759 0.0
C242 C 0.69625 0.12576 0.48796 0.0
C243 C 0.66348 0.07817 0.4929 0.0
C244 C 0.62157 0.06817 0.50117 0.0
C245 C 0.61189 0.10644 0.50431 0.0
C246 C 0.6432 0.15375 0.49842 0.0
C247 C 0.68496 0.16272 0.49019 0.0
C248 C 0.5885 0.01705 0.50701 0.0
C249 C 0.63363 0.19518 0.50145 0.0
C250 C 0.20829 0.93441 0.50458 0.0
C251 C 0.2517 0.98269 0.4993 0.0
C252 C 0.33558 0.99837 0.49816 0.0
C253 C 0.36066 0.97261 0.4991 0.0
C254 C 0.40989 0.9956 0.50485 0.0
C255 C 0.43495 0.04613 0.50925 0.0
C256 C 0.41074 0.07329 0.5071 0.0
C257 C 0.36099 0.04896 0.50172 0.0
C258 C 0.43464 0.9655 0.50656 0.0
C259 C 0.43698 0.12761 0.51096 0.0
C260 C 0.51226 0.08103 0.58661 0.0
C261 C 0.55814 0.09304 0.59374 0.0
C262 C 0.59772 0.1042 0.58409 0.0
C263 C 0.59203 0.10478 0.56687 0.0
C264 C 0.63168 0.11784 0.55687 0.0
C265 C 0.62533 0.11656 0.53991 0.0
C266 C 0.57895 0.10165 0.53227 0.0
C267 C 0.57163 0.09778 0.51502 0.0
C268 C 0.52485 0.08178 0.50781 0.0
C269 C 0.48476 0.06906 0.51743 0.0
C270 C 0.49154 0.0734 0.53472 0.0
C271 C 0.45208 0.06102 0.5448 0.0
C272 C 0.45894 0.0645 0.56178 0.0
C273 C 0.50521 0.07905 0.56937 0.0
C274 C 0.5454 0.09138 0.55947 0.0
C275 C 0.53873 0.08933 0.54214 0.0
C276 C 0.80602 0.15825 0.50055 0.0
C277 C 0.7713 0.12228 0.48702 0.0
O278 O 0.36698 0.04265 0.63168 0.0
O279 O 0.28698 0.97311 0.49378 0.0
O280 O 0.73908 0.13711 0.48115 0.0
O281 O 0.77563 0.13297 0.61406 0.0
H282 H 0.40748 0.10726 0.64521 0.0
H283 H 0.42826 0.04762 0.6562 0.0
H284 H 0.36548 0.00665 0.66106 0.0
H285 H 0.40079 0.06579 0.67153 0.0
H286 H 0.42599 0.12958 0.61922 0.0
H287 H 0.3805 0.97697 0.6179 0.0
H288 H 0.53804 0.17393 0.60204 0.0
H289 H 0.4891 0.18729 0.60355 0.0
H290 H 0.49676 0.16258 0.58468 0.0
H291 H 0.41758 0.94455 0.60143 0.0
H292 H 0.48253 0.98647 0.59987 0.0
H293 H 0.44087 0.97744 0.58287 0.0
H294 H 0.79231 0.1888 0.63069 0.0
H295 H 0.87926 0.23955 0.62256 0.0
H296 H 0.83579 0.22637 0.60559 0.0
H297 H 0.86856 0.19359 0.60712 0.0
H298 H 0.70604 0.05198 0.60146 0.0
H299 H 0.75096 0.20296 0.61062 0.0
H300 H 0.58033 0.01032 0.59189 0.0
H301 H 0.62794 0.9953 0.58967 0.0
H302 H 0.61193 0.02341 0.57325 0.0
H303 H 0.70226 0.23655 0.60277 0.0
H304 H 0.63756 0.19363 0.6043 0.0
H305 H 0.66329 0.20738 0.58459 0.0
H306 H 0.75125 0.08578 0.49261 0.0
H307 H 0.67057 0.04875 0.4904 0.0
H308 H 0.71003 0.19914 0.48604 0.0
H309 H 0.58907 0.0176 0.5206 0.0
H310 H 0.59974 0.99082 0.50287 0.0
H311 H 0.55014 0.00367 0.50242 0.0
H312 H 0.65989 0.22915 0.49532 0.0
H313 H 0.63663 0.20316 0.51483 0.0
H314 H 0.59567 0.18427 0.497 0.0
H315 H 0.26614 0.00775 0.51032 0.0
H316 H 0.17986 0.94063 0.50977 0.0
H317 H 0.22104 0.91798 0.51418 0.0
H318 H 0.19154 0.90803 0.494 0.0
H319 H 0.34083 0.93379 0.49594 0.0
H320 H 0.34202 0.06938 0.50035 0.0
H321 H 0.45274 0.97114 0.51897 0.0
H322 H 0.46344 0.97761 0.49751 0.0
H323 H 0.40845 0.92573 0.50439 0.0
H324 H 0.41589 0.1447 0.50611 0.0
H325 H 0.47379 0.14608 0.50574 0.0
H326 H 0.44245 0.13398 0.52443 0.0
H327 H 0.56296 0.09318 0.60697 0.0
H328 H 0.6681 0.12909 0.56204 0.0
H329 H 0.65721 0.12686 0.53287 0.0
H330 H 0.51924 0.07749 0.49458 0.0
H331 H 0.41533 0.04851 0.53971 0.0
H332 H 0.42728 0.05472 0.56888 0.0
H333 H 0.83312 0.14771 0.50494 0.0
H334 H 0.78461 0.15756 0.51108 0.0
H335 H 0.82595 0.19626 0.49608 0.0
C336 C 0.80723 0.71837 0.82755 0.0
C337 C 0.77532 0.72577 0.81451 0.0
C338 C 0.69846 0.69735 0.8288 0.0
C339 C 0.67093 0.7136 0.83681 0.0
C340 C 0.62918 0.68108 0.84504 0.0
C341 C 0.61477 0.63088 0.84531 0.0
C342 C 0.64147 0.61373 0.83679 0.0
C343 C 0.68302 0.64712 0.82853 0.0
C344 C 0.60107 0.70057 0.85376 0.0
C345 C 0.62663 0.5603 0.83673 0.0
C346 C 0.24889 0.45648 0.80397 0.0
C347 C 0.29057 0.44578 0.80718 0.0
C348 C 0.34283 0.46718 0.83161 0.0
C349 C 0.37355 0.4474 0.83112 0.0
C350 C 0.42025 0.47155 0.83917 0.0
C351 C 0.43633 0.51664 0.84766 0.0
C352 C 0.40538 0.537 0.84789 0.0
C353 C 0.35852 0.5115 0.84001 0.0
C354 C 0.45223 0.4488 0.83871 0.0
C355 C 0.42171 0.58555 0.85646 0.0
C356 C 0.38328 0.45817 0.95469 0.0
C357 C 0.40276 0.4326 0.94709 0.0
C358 C 0.44437 0.45734 0.93778 0.0
C359 C 0.46595 0.50852 0.93586 0.0
C360 C 0.44648 0.53441 0.94377 0.0
C361 C 0.40559 0.50885 0.9533 0.0
C362 C 0.46501 0.42883 0.92993 0.0
C363 C 0.46847 0.58892 0.942 0.0
C364 C 0.87149 0.73717 0.94604 0.0
C365 C 0.8247 0.73954 0.94777 0.0
C366 C 0.7413 0.66996 0.94709 0.0
C367 C 0.71766 0.61898 0.94572 0.0
C368 C 0.67015 0.59167 0.93841 0.0
C369 C 0.64531 0.61613 0.93287 0.0
C370 C 0.66793 0.66756 0.93525 0.0
C371 C 0.71606 0.69406 0.94215 0.0
C372 C 0.64708 0.53689 0.9362 0.0
C373 C 0.64169 0.69466 0.93026 0.0
C374 C 0.57323 0.5971 0.85522 0.0
C375 C 0.52632 0.57126 0.84755 0.0
C376 C 0.48517 0.54212 0.85653 0.0
C377 C 0.49068 0.53893 0.87366 0.0
C378 C 0.44995 0.51092 0.88313 0.0
C379 C 0.45556 0.50971 0.90006 0.0
C380 C 0.50226 0.53551 0.90816 0.0
C381 C 0.50836 0.53498 0.92539 0.0
C382 C 0.55528 0.5613 0.93305 0.0
C383 C 0.59666 0.58827 0.92395 0.0
C384 C 0.59137 0.58905 0.9067 0.0
C385 C 0.63229 0.61541 0.89715 0.0
C386 C 0.62651 0.61783 0.88029 0.0
C387 C 0.57964 0.59335 0.87227 0.0
C388 C 0.53811 0.56484 0.88156 0.0
C389 C 0.54394 0.56293 0.89881 0.0
C390 C 0.27528 0.44345 0.95497 0.0
C391 C 0.29583 0.40882 0.9565 0.0
O392 O 0.73968 0.73166 0.82176 0.0
O393 O 0.78847 0.6948 0.95316 0.0
O394 O 0.34307 0.4341 0.96355 0.0
O395 O 0.29787 0.44372 0.82389 0.0
H396 H 0.75751 0.6936 0.80583 0.0
H397 H 0.78489 0.68438 0.8343 0.0
H398 H 0.82447 0.74973 0.83654 0.0
H399 H 0.83658 0.71508 0.82169 0.0
H400 H 0.68285 0.75231 0.83681 0.0
H401 H 0.70338 0.63374 0.82211 0.0
H402 H 0.56143 0.67877 0.84997 0.0
H403 H 0.61457 0.73971 0.85123 0.0
H404 H 0.60463 0.69687 0.86717 0.0
H405 H 0.65111 0.55262 0.8295 0.0
H406 H 0.58839 0.53776 0.83153 0.0
H407 H 0.6274 0.54873 0.8495 0.0
H408 H 0.32417 0.47651 0.80205 0.0
H409 H 0.24284 0.45913 0.79061 0.0
H410 H 0.2585 0.49192 0.81003 0.0
H411 H 0.21425 0.42713 0.80888 0.0
H412 H 0.36069 0.41293 0.82453 0.0
H413 H 0.33417 0.52631 0.84017 0.0
H414 H 0.46403 0.44519 0.85137 0.0
H415 H 0.48584 0.47306 0.83216 0.0
H416 H 0.4331 0.41212 0.83247 0.0
H417 H 0.39586 0.59907 0.85378 0.0
H418 H 0.45876 0.61348 0.85271 0.0
H419 H 0.42424 0.58163 0.86989 0.0
H420 H 0.29621 0.39479 0.94401 0.0
H421 H 0.3853 0.39334 0.94848 0.0
H422 H 0.39025 0.52811 0.95945 0.0
H423 H 0.45903 0.42793 0.91642 0.0
H424 H 0.44751 0.39053 0.93412 0.0
H425 H 0.50523 0.44712 0.93273 0.0
H426 H 0.44672 0.60289 0.94791 0.0
H427 H 0.47088 0.59793 0.92883 0.0
H428 H 0.50635 0.60836 0.94766 0.0
H429 H 0.81387 0.74662 0.93537 0.0
H430 H 0.90099 0.77196 0.9412 0.0
H431 H 0.86406 0.70686 0.93734 0.0
H432 H 0.88451 0.73049 0.95807 0.0
H433 H 0.73737 0.6008 0.94982 0.0
H434 H 0.7339 0.7335 0.94371 0.0
H435 H 0.63516 0.52583 0.92315 0.0
H436 H 0.61394 0.51822 0.94349 0.0
H437 H 0.67264 0.52395 0.94013 0.0
H438 H 0.66052 0.73257 0.93557 0.0
H439 H 0.60329 0.67483 0.93417 0.0
H440 H 0.64029 0.69679 0.91672 0.0
H441 H 0.52165 0.57459 0.83448 0.0
H442 H 0.41312 0.4901 0.87758 0.0
H443 H 0.42274 0.48826 0.90671 0.0
H444 H 0.5596 0.56114 0.94628 0.0
H445 H 0.66929 0.63497 0.90261 0.0
H446 H 0.65931 0.63922 0.87362 0.0
H447 H 0.27471 0.45846 0.96721 0.0
H448 H 0.23741 0.42395 0.94926 0.0
H449 H 0.29847 0.47438 0.94706 0.0
H450 H 0.95153 0.16021 0.0793 0.0
H451 H 0.1622 0.35873 0.14113 0.0
H452 H 0.10001 0.18733 0.08304 0.0
H453 H 0.00849 0.29152 0.15054 0.0
H454 H 0.14033 0.30745 0.1162 0.0
H455 H 0.97232 0.21933 0.10217 0.0
C456 C 0.98848 0.1788 0.08484 0.0
C457 C 0.02399 0.16858 0.07937 0.0
C458 C 0.11138 0.30408 0.12369 0.0
C459 C 0.048 0.23627 0.10522 0.0
C460 C 0.12384 0.33332 0.13787 0.0
C461 C 0.08712 0.3288 0.148 0.0
C462 C 0.06181 0.27047 0.11947 0.0
C463 C 0.03789 0.29576 0.14313 0.0
C464 C 0.00023 0.2123 0.09789 0.0
C465 C 0.07132 0.19363 0.08698 0.0
N466 N 0.02661 0.26768 0.1292 0.0
N467 N 0.08193 0.22634 0.09947 0.0
H468 H 0.91342 0.02953 0.41832 0.0
H469 H 0.82946 0.19444 0.46595 0.0
H470 H 0.99784 0.18756 0.4212 0.0
H471 H 0.77767 0.04302 0.47655 0.0
H472 H 0.88066 0.1901 0.44506 0.0
H473 H 0.8523 0.03172 0.43525 0.0
C474 C 0.91878 0.06466 0.42233 0.0
C475 C 0.96098 0.10841 0.41846 0.0
C476 C 0.85785 0.15779 0.45191 0.0
C477 C 0.89131 0.11112 0.43773 0.0
C478 C 0.82871 0.16026 0.4638 0.0
C479 C 0.79987 0.11923 0.47313 0.0
C480 C 0.85768 0.11382 0.44919 0.0
C481 C 0.79969 0.0756 0.46972 0.0
C482 C 0.88406 0.06586 0.43204 0.0
C483 C 0.96613 0.15291 0.42403 0.0
N484 N 0.8283 0.07407 0.45806 0.0
N485 N 0.93178 0.15312 0.4334 0.0
H486 H 0.96965 0.93408 0.74505 0.0
H487 H 0.80987 0.82224 0.82342 0.0
H488 H 0.93803 0.01859 0.77886 0.0
H489 H 0.81547 0.73263 0.78467 0.0
H490 H 0.86219 0.89534 0.80821 0.0
H491 H 0.91847 0.86061 0.76033 0.0
C492 C 0.95207 0.93729 0.75569 0.0
C493 C 0.95817 0.98271 0.76064 0.0
C494 C 0.85175 0.85972 0.80296 0.0
C495 C 0.89963 0.89864 0.7782 0.0
C496 C 0.8218 0.81799 0.81162 0.0
C497 C 0.8073 0.77124 0.80508 0.0
C498 C 0.86811 0.85487 0.78774 0.0
C499 C 0.82504 0.76795 0.78997 0.0
C500 C 0.92274 0.89525 0.76437 0.0
C501 C 0.9343 0.98444 0.77451 0.0
N502 N 0.85445 0.80921 0.78178 0.0
N503 N 0.90623 0.94308 0.78281 0.0
H504 H 0.12057 0.99136 0.07247 0.0
H505 H 0.05843 0.88247 0.16167 0.0
H506 H 0.01804 0.00527 0.10192 0.0
H507 H 0.07 0.8007 0.12141 0.0
H508 H 0.07009 0.94702 0.14272 0.0
H509 H 0.12887 0.94024 0.09365 0.0
C510 C 0.10087 0.98463 0.08357 0.0
C511 C 0.06847 0.0021 0.08555 0.0
C512 C 0.07072 0.91514 0.13817 0.0
C513 C 0.07823 0.94502 0.10962 0.0
C514 C 0.06399 0.87836 0.14892 0.0
C515 C 0.06251 0.83575 0.14314 0.0
C516 C 0.07725 0.90988 0.1216 0.0
C517 C 0.0705 0.83258 0.12648 0.0
C518 C 0.10533 0.95537 0.09553 0.0
C519 C 0.04318 0.99209 0.1 0.0
N520 N 0.07749 0.86918 0.11629 0.0
N521 N 0.04862 0.9642 0.11153 0.0
H522 H 0.17487 0.07958 0.40859 0.0
H523 H 0.1993 0.02888 0.50294 0.0
H524 H 0.05585 0.03369 0.44083 0.0
H525 H 0.26427 0.98621 0.46563 0.0
H526 H 0.16249 0.05608 0.48143 0.0
H527 H 0.22387 0.06961 0.4309 0.0
C528 C 0.15966 0.06848 0.4205 0.0
C529 C 0.11209 0.05872 0.42318 0.0
C530 C 0.18539 0.04134 0.47806 0.0
C531 C 0.16703 0.04691 0.44839 0.0
C532 C 0.20644 0.026 0.49026 0.0
C533 C 0.23474 0.00513 0.4861 0.0
C534 C 0.19333 0.03644 0.4616 0.0
C535 C 0.24282 0.0021 0.46946 0.0
C536 C 0.1873 0.06249 0.4331 0.0
C537 C 0.09291 0.04255 0.43852 0.0
N538 N 0.22215 0.01758 0.4578 0.0
N539 N 0.12066 0.03758 0.45065 0.0
H540 H 0.15409 0.2216 0.73416 0.0
H541 H 0.31523 0.43259 0.77672 0.0
H542 H 0.15472 0.14269 0.77693 0.0
H543 H 0.23652 0.35095 0.81811 0.0
H544 H 0.28523 0.35556 0.76128 0.0
H545 H 0.21096 0.2984 0.74856 0.0
C546 C 0.16707 0.22066 0.74657 0.0
C547 C 0.14915 0.17628 0.75458 0.0
C548 C 0.27475 0.35446 0.77377 0.0
C549 C 0.21519 0.26388 0.77109 0.0
C550 C 0.2922 0.39834 0.78262 0.0
C551 C 0.27821 0.3981 0.79867 0.0
C552 C 0.24239 0.31 0.78094 0.0
C553 C 0.2482 0.35271 0.80575 0.0
C554 C 0.20011 0.26446 0.75473 0.0
C555 C 0.16742 0.17657 0.77052 0.0
N556 N 0.23102 0.31039 0.7968 0.0
N557 N 0.19866 0.22004 0.77848 0.0
H558 H 0.89764 0.09529 0.71572 0.0
H559 H 0.85739 0.11882 0.61973 0.0
H560 H 0.97949 0.07106 0.67959 0.0
H561 H 0.80707 0.17515 0.65775 0.0
H562 H 0.89125 0.08743 0.64083 0.0
H563 H 0.85105 0.10817 0.69385 0.0
C564 C 0.90537 0.09196 0.70315 0.0
C565 C 0.9431 0.08282 0.6995 0.0
C566 C 0.87266 0.10654 0.64451 0.0
C567 C 0.89009 0.09824 0.67433 0.0
C568 C 0.85358 0.12463 0.63251 0.0
C569 C 0.83016 0.15039 0.63702 0.0
C570 C 0.86764 0.11369 0.66111 0.0
C571 C 0.82531 0.15604 0.65373 0.0
C572 C 0.87884 0.09956 0.69066 0.0
C573 C 0.95088 0.07822 0.68296 0.0
N574 N 0.84399 0.13797 0.66514 0.0
N575 N 0.92502 0.08666 0.67095 0.0
H576 H 0.88609 0.93135 0.03342 0.0
H577 H 0.86527 0.83636 0.94112 0.0
H578 H 0.99835 0.00592 0.99893 0.0
H579 H 0.80922 0.73733 0.98113 0.0
H580 H 0.89367 0.90564 0.9606 0.0
H581 H 0.83758 0.86633 0.01244 0.0
C582 C 0.89966 0.93462 0.02127 0.0
C583 C 0.94538 0.97434 0.01761 0.0
C584 C 0.87428 0.86864 0.96501 0.0
C585 C 0.89115 0.90073 0.99392 0.0
C586 C 0.85799 0.82923 0.95395 0.0
C587 C 0.83477 0.7811 0.95949 0.0
C588 C 0.86706 0.85986 0.98174 0.0
C589 C 0.82668 0.7738 0.97629 0.0
C590 C 0.87234 0.89756 0.00942 0.0
C591 C 0.96266 0.97624 0.002 0.0
N592 N 0.843 0.81285 0.98686 0.0
N593 N 0.93539 0.94008 0.99067 0.0
H594 H 0.08957 0.98351 0.35275 0.0
H595 H 0.90155 0.72781 0.3072 0.0
H596 H 0.93233 0.91905 0.35352 0.0
H597 H 0.05286 0.77477 0.32053 0.0
H598 H 0.91334 0.80425 0.31945 0.0
H599 H 0.07754 0.91413 0.33599 0.0
C600 C 0.05243 0.95497 0.34926 0.0
C601 C 0.01184 0.95686 0.35469 0.0
C602 C 0.94392 0.79778 0.31962 0.0
C603 C 0.99789 0.87704 0.33549 0.0
C604 C 0.93723 0.75423 0.31267 0.0
C605 C 0.97599 0.74441 0.31322 0.0
C606 C 0.98993 0.83211 0.32686 0.0
C607 C 0.02178 0.78046 0.32007 0.0
C608 C 0.04563 0.91525 0.33972 0.0
C609 C 0.96462 0.91889 0.34968 0.0
N610 N 0.0274 0.82254 0.32668 0.0
N611 N 0.95889 0.88029 0.34042 0.0
H612 H 0.10402 0.99077 0.69019 0.0
H613 H 0.36893 0.14862 0.65485 0.0
H614 H 0.18179 0.14858 0.68854 0.0
H615 H 0.28275 0.99126 0.64931 0.0
H616 H 0.29812 0.14921 0.66544 0.0
H617 H 0.16561 0.98963 0.67335 0.0
C618 C 0.13366 0.02514 0.68609 0.0
C619 C 0.13806 0.06988 0.69092 0.0
C620 C 0.29439 0.11453 0.66175 0.0
C621 C 0.209 0.06888 0.67183 0.0
C622 C 0.33485 0.11421 0.6557 0.0
C623 C 0.33174 0.06981 0.65128 0.0
C624 C 0.25057 0.07004 0.66361 0.0
C625 C 0.28668 0.02626 0.65266 0.0
C626 C 0.16886 0.02447 0.67649 0.0
C627 C 0.1771 0.11326 0.6852 0.0
N628 N 0.24799 0.02741 0.65887 0.0
N629 N 0.21137 0.11171 0.67613 0.0
H630 H 0.03728 0.17357 0.99682 0.0
H631 H 0.30863 0.39076 0.98923 0.0
H632 H 0.1562 0.18417 0.0281 0.0
H633 H 0.20735 0.32925 0.94705 0.0
H634 H 0.2515 0.3217 0.00522 0.0
H635 H 0.09718 0.23736 0.97991 0.0
C636 C 0.07596 0.18909 0.00012 0.0
C637 C 0.09172 0.17324 0.01387 0.0
C638 C 0.24214 0.32316 0.99242 0.0
C639 C 0.16033 0.24697 0.99471 0.0
C640 C 0.27469 0.36252 0.98325 0.0
C641 C 0.263 0.36541 0.96666 0.0
C642 C 0.19704 0.28729 0.98509 0.0
C643 C 0.21791 0.32813 0.95974 0.0
C644 C 0.11009 0.22542 0.99042 0.0
C645 C 0.14242 0.19503 0.01755 0.0
N646 N 0.18635 0.29083 0.96902 0.0
N647 N 0.17499 0.23123 0.00811 0.0
H648 H 0.10107 0.2486 0.36848 0.0
H649 H 0.93009 0.2237 0.27957 0.0
H650 H 0.00584 0.11223 0.34183 0.0
H651 H 0.02666 0.37792 0.3172 0.0
H652 H 0.96207 0.17617 0.30306 0.0
H653 H 0.07973 0.29154 0.34794 0.0
C654 C 0.07616 0.22767 0.35823 0.0
C655 C 0.05485 0.17652 0.35701 0.0
C656 C 0.97246 0.21413 0.30493 0.0
C657 C 0.03016 0.22561 0.33357 0.0
C658 C 0.94965 0.24185 0.29098 0.0
C659 C 0.98146 0.30938 0.29443 0.0
C660 C 0.01291 0.2496 0.32189 0.0
C661 C 0.01097 0.33912 0.31465 0.0
C662 C 0.06383 0.25227 0.34656 0.0
C663 C 0.02289 0.15157 0.34338 0.0
N664 N 0.02733 0.30637 0.32561 0.0
N665 N 0.01126 0.17637 0.33223 0.0
loop_
_geom_bond_atom_site_label_1
_geom_bond_atom_site_label_2
_geom_bond_distance
_geom_bond_site_symmetry_2
_ccdc_geom_bond_type
Mn0 O5 2.095 . S
Mn0 O15 2.162 . S
Mn0 O16 2.297 1_545 S
Mn0 O24 2.385 1_545 S
Mn0 O25 2.194 1_455 S
Mn0 O26 2.094 . S
Mn1 O6 2.121 . S
Mn1 N8 2.257 1_455 S
Mn1 N17 2.282 1_455 S
Mn1 O25 2.220 1_455 S
Mn1 O27 2.117 . S
C2 O24 1.234 1_645 S
C2 O25 1.277 . S
C3 O15 1.281 1_565 S
C3 O16 1.236 . S
C4 O26 1.240 . S
C4 O27 1.264 . S
O5 Mn0 2.095 . S
O5 C14 1.250 . S
O6 Mn1 2.121 . S
O6 C14 1.258 . S
C7 N8 1.326 . S
C7 C11 1.460 . S
C7 H13 0.929 . S
N8 Mn1 2.257 1_655 S
N8 C7 1.326 . S
N8 C12 1.362 . S
C9 C10 1.258 . S
C9 C12 1.431 . S
C9 C29 1.449 1_554 S
C10 C9 1.258 . S
C10 C11 1.477 . S
C10 H30 0.931 . S
C11 C7 1.460 . S
C11 C10 1.477 . S
C11 H31 0.930 . S
C12 N8 1.362 . S
C12 C9 1.431 . S
C12 C22 1.476 . S
H13 C7 0.929 . S
C14 O5 1.250 . S
C14 O6 1.258 . S
O15 Mn0 2.162 . S
O15 C3 1.281 1_545 S
O16 Mn0 2.297 1_565 S
O16 C3 1.236 . S
N17 Mn1 2.282 1_655 S
N17 C18 1.328 1_654 S
N17 C22 1.318 . S
C18 N17 1.328 1_456 S
C18 C19 1.457 1_455 S
C18 H23 0.929 1_556 S
C19 C18 1.457 1_655 S
C19 C20 1.291 . S
C19 H32 0.931 1_655 S
C20 C19 1.291 . S
C20 C21 1.373 . S
C20 H33 0.929 . S
C21 C20 1.373 . S
C21 C22 1.396 1_556 S
C21 C28 1.403 . S
C22 C12 1.476 . S
C22 N17 1.318 . S
C22 C21 1.396 1_554 S
H23 C18 0.929 1_554 S
O24 Mn0 2.385 1_565 S
O24 C2 1.234 1_465 S
O25 Mn0 2.194 1_655 S
O25 Mn1 2.220 1_655 S
O25 C2 1.277 . S
O26 Mn0 2.094 . S
O26 C4 1.240 . S
O27 Mn1 2.117 . S
O27 C4 1.264 . S
C28 C21 1.403 . S
C28 C29 1.399 . S
C28 H34 0.929 . S
C29 C9 1.449 1_556 S
C29 C28 1.399 . S
C29 H35 0.930 . S
H30 C10 0.931 . S
H31 C11 0.930 . S
H32 C19 0.931 1_455 S
H33 C20 0.929 . S
H34 C28 0.929 . S
H35 C29 0.930 . S
Mn36 O41 2.095 . S
Mn36 O51 2.162 1_445 S
Mn36 O52 2.297 . S
Mn36 O60 2.385 . S
Mn36 O61 2.209 . S
Mn36 O62 2.094 1_455 S
Mn37 O42 2.121 . S
Mn37 N44 2.257 . S
Mn37 N53 2.282 . S
Mn37 O61 2.215 . S
Mn37 O63 2.117 1_455 S
C38 O60 1.234 . S
C38 O61 1.283 . S
C39 O51 1.281 1_455 S
C39 O52 1.236 1_565 S
C40 O62 1.240 . S
C40 O63 1.264 . S
O41 Mn36 2.095 . S
O41 C50 1.250 . S
O42 Mn37 2.121 . S
O42 C50 1.258 . S
C43 N44 1.326 . S
C43 C47 1.460 . S
C43 H49 0.929 . S
N44 Mn37 2.257 . S
N44 C43 1.326 . S
N44 C48 1.362 . S
C45 C46 1.258 . S
C45 C48 1.431 . S
C45 C65 1.449 . S
C46 C45 1.258 . S
C46 C47 1.477 . S
C46 H66 0.931 . S
C47 C43 1.460 . S
C47 C46 1.477 . S
C47 H67 0.930 . S
C48 N44 1.362 . S
C48 C45 1.431 . S
C48 C58 1.476 . S
H49 C43 0.929 . S
C50 O41 1.250 . S
C50 O42 1.258 . S
O51 Mn36 2.162 1_665 S
O51 C39 1.281 1_655 S
O52 Mn36 2.297 . S
O52 C39 1.236 1_545 S
N53 Mn37 2.282 . S
N53 C54 1.328 . S
N53 C58 1.318 . S
C54 N53 1.328 . S
C54 C55 1.457 . S
C54 H59 0.929 . S
C55 C54 1.457 . S
C55 C56 1.291 . S
C55 H68 0.931 . S
C56 C55 1.291 . S
C56 C57 1.373 . S
C56 H69 0.929 . S
C57 C56 1.373 . S
C57 C58 1.396 . S
C57 C64 1.403 . S
C58 C48 1.476 . S
C58 N53 1.318 . S
C58 C57 1.396 . S
H59 C54 0.929 . S
O60 Mn36 2.385 . S
O60 C38 1.234 . S
O61 Mn36 2.209 . S
O61 Mn37 2.215 . S
O61 C38 1.283 . S
O62 Mn36 2.094 1_655 S
O62 C40 1.240 . S
O63 Mn37 2.117 1_655 S
O63 C40 1.264 . S
C64 C57 1.403 . S
C64 C65 1.399 . S
C64 H70 0.929 . S
C65 C45 1.449 . S
C65 C64 1.399 . S
C65 H71 0.930 . S
H66 C46 0.931 . S
H67 C47 0.930 . S
H68 C55 0.931 . S
H69 C56 0.929 . S
H70 C64 0.929 . S
H71 C65 0.930 . S
Mn72 O77 2.095 1_455 S
Mn72 O87 2.162 . S
Mn72 O88 2.297 . S
Mn72 O96 2.385 . S
Mn72 O97 2.209 . S
Mn72 O98 2.095 1_545 S
Mn73 O78 2.121 . S
Mn73 N80 2.257 1_655 S
Mn73 N89 2.282 1_655 S
Mn73 O97 2.215 1_655 S
Mn73 O99 2.117 . S
C74 O96 1.234 . S
C74 O97 1.283 . S
C75 O87 1.281 . S
C75 O88 1.236 . S
C76 O98 1.235 1_655 S
C76 O99 1.264 1_565 S
O77 Mn72 2.095 1_655 S
O77 C86 1.250 . S
O78 Mn73 2.121 . S
O78 C86 1.258 . S
C79 N80 1.326 . S
C79 C83 1.460 . S
C79 H85 0.929 1_455 S
N80 Mn73 2.257 1_455 S
N80 C79 1.326 . S
N80 C84 1.362 . S
C81 C82 1.258 . S
C81 C84 1.431 . S
C81 C101 1.449 . S
C82 C81 1.258 . S
C82 C83 1.477 . S
C82 H102 0.931 . S
C83 C79 1.460 . S
C83 C82 1.477 . S
C83 H103 0.930 . S
C84 N80 1.362 . S
C84 C81 1.431 . S
C84 C94 1.476 . S
H85 C79 0.929 1_655 S
C86 O77 1.250 . S
C86 O78 1.258 . S
O87 Mn72 2.162 . S
O87 C75 1.281 . S
O88 Mn72 2.297 . S
O88 C75 1.236 . S
N89 Mn73 2.282 1_455 S
N89 C90 1.328 . S
N89 C94 1.318 . S
C90 N89 1.328 . S
C90 C91 1.457 . S
C90 H95 0.929 . S
C91 C90 1.457 . S
C91 C92 1.291 . S
C91 H104 0.931 . S
C92 C91 1.291 . S
C92 C93 1.373 . S
C92 H105 0.929 . S
C93 C92 1.373 . S
C93 C94 1.396 . S
C93 C100 1.403 . S
C94 C84 1.476 . S
C94 N89 1.318 . S
C94 C93 1.396 . S
H95 C90 0.929 . S
O96 Mn72 2.385 . S
O96 C74 1.234 . S
O97 Mn72 2.209 . S
O97 Mn73 2.215 1_455 S
O97 C74 1.283 . S
O98 Mn72 2.095 1_565 S
O98 C76 1.235 1_455 S
O99 Mn73 2.117 . S
O99 C76 1.264 1_545 S
C100 C93 1.403 . S
C100 C101 1.399 . S
C100 H106 0.929 . S
C101 C81 1.449 . S
C101 C100 1.399 . S
C101 H107 0.930 . S
H102 C82 0.931 . S
H103 C83 0.930 . S
H104 C91 0.931 . S
H105 C92 0.929 . S
H106 C100 0.929 . S
H107 C101 0.930 . S
C108 C109 1.560 1_655 S
C108 H169 0.959 . S
C108 H170 0.959 . S
C108 H171 0.960 . S
C109 C108 1.560 1_455 S
C109 O164 1.426 1_455 S
C109 H168 0.980 . S
C110 C111 1.407 . S
C110 C115 1.418 1_455 S
C110 O164 1.334 1_455 S
C111 C110 1.407 . S
C111 C112 1.360 . S
C111 H172 0.929 . S
C112 C111 1.360 . S
C112 C113 1.401 . S
C112 C116 1.527 . S
C113 C112 1.401 . S
C113 C114 1.405 1_455 S
C113 C146 1.587 . S
C114 C113 1.405 1_655 S
C114 C115 1.332 . S
C114 C117 1.496 . S
C115 C110 1.418 1_655 S
C115 C114 1.332 . S
C115 H173 0.929 . S
C116 C112 1.527 . S
C116 H174 0.959 . S
C116 H175 0.961 . S
C116 H176 0.961 . S
C117 C114 1.496 . S
C117 H177 0.960 . S
C117 H178 0.960 . S
C117 H179 0.961 . S
C118 C119 1.517 . S
C118 H181 0.961 . S
C118 H182 0.960 . S
C118 H183 0.959 . S
C119 C118 1.517 . S
C119 O167 1.468 . S
C119 H180 0.980 . S
C120 C121 1.349 . S
C120 C125 1.367 . S
C120 O167 1.408 . S
C121 C120 1.349 . S
C121 C122 1.407 . S
C121 H184 0.930 . S
C122 C121 1.407 . S
C122 C123 1.449 . S
C122 C126 1.535 1_455 S
C123 C122 1.449 . S
C123 C124 1.384 . S
C123 C148 1.553 . S
C124 C123 1.384 . S
C124 C125 1.364 . S
C124 C127 1.450 . S
C125 C120 1.367 . S
C125 C124 1.364 . S
C125 H185 0.931 . S
C126 C122 1.535 1_655 S
C126 H186 0.959 . S
C126 H187 0.961 . S
C126 H188 0.959 . S
C127 C124 1.450 . S
C127 H189 0.960 . S
C127 H190 0.960 . S
C127 H191 0.960 . S
C128 C129 1.309 . S
C128 C133 1.304 . S
C128 O166 1.435 . S
C129 C128 1.309 . S
C129 C130 1.476 . S
C129 H193 0.930 . S
C130 C129 1.476 . S
C130 C131 1.400 . S
C130 C134 1.567 1_455 S
C131 C130 1.400 . S
C131 C132 1.373 . S
C131 C153 1.432 . S
C132 C131 1.373 . S
C132 C133 1.339 . S
C132 C135 1.530 . S
C133 C128 1.304 . S
C133 C132 1.339 . S
C133 H194 0.930 . S
C134 C130 1.567 1_655 S
C134 H195 0.961 . S
C134 H196 0.960 . S
C134 H197 0.958 . S
C135 C132 1.530 . S
C135 H198 0.961 . S
C135 H199 0.960 . S
C135 H200 0.960 . S
C136 C137 1.530 . S
C136 H202 0.961 . S
C136 H203 0.961 1_455 S
C136 H204 0.959 1_455 S
C137 C136 1.530 . S
C137 O165 1.412 . S
C137 H201 0.980 . S
C138 C139 1.288 1_455 S
C138 C143 1.377 . S
C138 O165 1.393 . S
C139 C138 1.288 1_655 S
C139 C140 1.369 . S
C139 H205 0.932 . S
C140 C139 1.369 . S
C140 C141 1.398 1_655 S
C140 C144 1.527 . S
C141 C140 1.398 1_455 S
C141 C142 1.380 . S
C141 C155 1.497 . S
C142 C141 1.380 . S
C142 C143 1.383 . S
C142 C145 1.603 . S
C143 C138 1.377 . S
C143 C142 1.383 . S
C143 H206 0.929 . S
C144 C140 1.527 . S
C144 H207 0.961 . S
C144 H208 0.959 . S
C144 H209 0.959 . S
C145 C142 1.603 . S
C145 H210 0.960 . S
C145 H211 0.962 . S
C145 H212 0.961 . S
C146 C113 1.587 . S
C146 C147 1.360 . S
C146 C159 1.412 . S
C147 C146 1.360 . S
C147 C148 1.365 . S
C147 H213 0.929 . S
C148 C123 1.553 . S
C148 C147 1.365 . S
C148 C149 1.404 . S
C149 C148 1.404 . S
C149 C150 1.395 . S
C149 C160 1.451 . S
C150 C149 1.395 . S
C150 C151 1.322 . S
C150 H214 0.930 . S
C151 C150 1.322 . S
C151 C152 1.459 . S
C151 H215 0.929 . S
C152 C151 1.459 . S
C152 C153 1.445 . S
C152 C161 1.395 . S
C153 C131 1.432 . S
C153 C152 1.445 . S
C153 C154 1.370 . S
C154 C153 1.370 . S
C154 C155 1.438 . S
C154 H216 0.930 . S
C155 C141 1.497 . S
C155 C154 1.438 . S
C155 C156 1.360 . S
C156 C155 1.360 . S
C156 C157 1.401 . S
C156 C161 1.446 . S
C157 C156 1.401 . S
C157 C158 1.347 . S
C157 H217 0.929 . S
C158 C157 1.347 . S
C158 C159 1.455 . S
C158 H218 0.930 . S
C159 C146 1.412 . S
C159 C158 1.455 . S
C159 C160 1.331 . S
C160 C149 1.451 . S
C160 C159 1.331 . S
C160 C161 1.497 . S
C161 C152 1.395 . S
C161 C156 1.446 . S
C161 C160 1.497 . S
C162 C163 1.582 . S
C162 H219 0.962 . S
C162 H220 0.959 . S
C162 H221 0.958 . S
C163 C162 1.582 . S
C163 O166 1.458 . S
C163 H192 0.980 . S
O164 C109 1.426 1_655 S
O164 C110 1.334 1_655 S
O165 C137 1.412 . S
O165 C138 1.393 . S
O166 C128 1.435 . S
O166 C163 1.458 . S
O167 C119 1.468 . S
O167 C120 1.408 . S
H168 C109 0.980 . S
H169 C108 0.959 . S
H170 C108 0.959 . S
H171 C108 0.960 . S
H172 C111 0.929 . S
H173 C115 0.929 . S
H174 C116 0.959 . S
H175 C116 0.961 . S
H176 C116 0.961 . S
H177 C117 0.960 . S
H178 C117 0.960 . S
H179 C117 0.961 . S
H180 C119 0.980 . S
H181 C118 0.961 . S
H182 C118 0.960 . S
H183 C118 0.959 . S
H184 C121 0.930 . S
H185 C125 0.931 . S
H186 C126 0.959 . S
H187 C126 0.961 . S
H188 C126 0.959 . S
H189 C127 0.960 . S
H190 C127 0.960 . S
H191 C127 0.960 . S
H192 C163 0.980 . S
H193 C129 0.930 . S
H194 C133 0.930 . S
H195 C134 0.961 . S
H196 C134 0.960 . S
H197 C134 0.958 . S
H198 C135 0.961 . S
H199 C135 0.960 . S
H200 C135 0.960 . S
H201 C137 0.980 . S
H202 C136 0.961 . S
H203 C136 0.961 1_655 S
H204 C136 0.959 1_655 S
H205 C139 0.932 . S
H206 C143 0.929 . S
H207 C144 0.961 . S
H208 C144 0.959 . S
H209 C144 0.959 . S
H210 C145 0.960 . S
H211 C145 0.962 . S
H212 C145 0.961 . S
H213 C147 0.929 . S
H214 C150 0.930 . S
H215 C151 0.929 . S
H216 C154 0.930 . S
H217 C157 0.929 . S
H218 C158 0.930 . S
H219 C162 0.962 . S
H220 C162 0.959 . S
H221 C162 0.958 . S
C222 C223 1.560 . S
C222 H283 0.959 . S
C222 H284 0.959 . S
C222 H285 0.960 . S
C223 C222 1.560 . S
C223 O278 1.426 . S
C223 H282 0.980 . S
C224 C225 1.407 . S
C224 C229 1.418 . S
C224 O278 1.334 . S
C225 C224 1.407 . S
C225 C226 1.360 . S
C225 H286 0.929 . S
C226 C225 1.360 . S
C226 C227 1.401 . S
C226 C230 1.527 . S
C227 C226 1.401 . S
C227 C228 1.405 . S
C227 C260 1.587 . S
C228 C227 1.405 . S
C228 C229 1.332 . S
C228 C231 1.496 . S
C229 C224 1.418 . S
C229 C228 1.332 . S
C229 H287 0.929 1_545 S
C230 C226 1.527 . S
C230 H288 0.959 . S
C230 H289 0.961 . S
C230 H290 0.961 . S
C231 C228 1.496 . S
C231 H291 0.960 1_545 S
C231 H292 0.960 . S
C231 H293 0.961 . S
C232 C233 1.517 . S
C232 H295 0.961 . S
C232 H296 0.960 . S
C232 H297 0.959 . S
C233 C232 1.517 . S
C233 O281 1.468 . S
C233 H294 0.980 . S
C234 C235 1.349 . S
C234 C239 1.367 . S
C234 O281 1.408 . S
C235 C234 1.349 . S
C235 C236 1.407 . S
C235 H298 0.930 . S
C236 C235 1.407 . S
C236 C237 1.449 . S
C236 C240 1.535 . S
C237 C236 1.449 . S
C237 C238 1.384 . S
C237 C262 1.553 . S
C238 C237 1.384 . S
C238 C239 1.364 . S
C238 C241 1.450 . S
C239 C234 1.367 . S
C239 C238 1.364 . S
C239 H299 0.931 . S
C240 C236 1.535 . S
C240 H300 0.959 . S
C240 H301 0.961 . S
C240 H302 0.959 . S
C241 C238 1.450 . S
C241 H303 0.960 . S
C241 H304 0.960 . S
C241 H305 0.960 . S
C242 C243 1.309 . S
C242 C247 1.304 . S
C242 O280 1.435 . S
C243 C242 1.309 . S
C243 C244 1.476 . S
C243 H307 0.930 . S
C244 C243 1.476 . S
C244 C245 1.400 . S
C244 C248 1.567 . S
C245 C244 1.400 . S
C245 C246 1.373 . S
C245 C267 1.432 . S
C246 C245 1.373 . S
C246 C247 1.339 . S
C246 C249 1.530 . S
C247 C242 1.304 . S
C247 C246 1.339 . S
C247 H308 0.930 . S
C248 C244 1.567 . S
C248 H309 0.961 . S
C248 H310 0.960 . S
C248 H311 0.958 . S
C249 C246 1.530 . S
C249 H312 0.961 . S
C249 H313 0.960 . S
C249 H314 0.960 . S
C250 C251 1.530 . S
C250 H316 0.961 . S
C250 H317 0.961 . S
C250 H318 0.959 . S
C251 C250 1.530 . S
C251 O279 1.412 . S
C251 H315 0.980 . S
C252 C253 1.288 . S
C252 C257 1.377 . S
C252 O279 1.393 . S
C253 C252 1.288 . S
C253 C254 1.369 . S
C253 H319 0.932 1_545 S
C254 C253 1.369 . S
C254 C255 1.398 . S
C254 C258 1.515 1_545 S
C255 C254 1.398 . S
C255 C256 1.380 . S
C255 C269 1.497 . S
C256 C255 1.380 . S
C256 C257 1.383 . S
C256 C259 1.603 . S
C257 C252 1.377 . S
C257 C256 1.383 . S
C257 H320 0.929 . S
C258 C254 1.515 1_565 S
C258 H321 0.961 1_565 S
C258 H322 0.967 1_565 S
C258 H323 0.966 . S
C259 C256 1.603 . S
C259 H324 0.960 . S
C259 H325 0.962 . S
C259 H326 0.961 . S
C260 C227 1.587 . S
C260 C261 1.360 . S
C260 C273 1.412 . S
C261 C260 1.360 . S
C261 C262 1.365 . S
C261 H327 0.929 . S
C262 C237 1.553 . S
C262 C261 1.365 . S
C262 C263 1.404 . S
C263 C262 1.404 . S
C263 C264 1.395 . S
C263 C274 1.451 . S
C264 C263 1.395 . S
C264 C265 1.322 . S
C264 H328 0.930 . S
C265 C264 1.322 . S
C265 C266 1.459 . S
C265 H329 0.929 . S
C266 C265 1.459 . S
C266 C267 1.445 . S
C266 C275 1.395 . S
C267 C245 1.432 . S
C267 C266 1.445 . S
C267 C268 1.370 . S
C268 C267 1.370 . S
C268 C269 1.438 . S
C268 H330 0.930 . S
C269 C255 1.497 . S
C269 C268 1.438 . S
C269 C270 1.360 . S
C270 C269 1.360 . S
C270 C271 1.401 . S
C270 C275 1.446 . S
C271 C270 1.401 . S
C271 C272 1.347 . S
C271 H331 0.929 . S
C272 C271 1.347 . S
C272 C273 1.455 . S
C272 H332 0.930 . S
C273 C260 1.412 . S
C273 C272 1.455 . S
C273 C274 1.331 . S
C274 C263 1.451 . S
C274 C273 1.331 . S
C274 C275 1.497 . S
C275 C266 1.395 . S
C275 C270 1.446 . S
C275 C274 1.497 . S
C276 C277 1.582 . S
C276 H333 0.962 . S
C276 H334 0.959 . S
C276 H335 0.958 . S
C277 C276 1.582 . S
C277 O280 1.458 . S
C277 H306 0.980 . S
O278 C223 1.426 . S
O278 C224 1.334 . S
O279 C251 1.412 . S
O279 C252 1.393 . S
O280 C242 1.435 . S
O280 C277 1.458 . S
O281 C233 1.468 . S
O281 C234 1.408 . S
H282 C223 0.980 . S
H283 C222 0.959 . S
H284 C222 0.959 . S
H285 C222 0.960 . S
H286 C225 0.929 . S
H287 C229 0.929 1_565 S
H288 C230 0.959 . S
H289 C230 0.961 . S
H290 C230 0.961 . S
H291 C231 0.960 1_565 S
H292 C231 0.960 . S
H293 C231 0.961 . S
H294 C233 0.980 . S
H295 C232 0.961 . S
H296 C232 0.960 . S
H297 C232 0.959 . S
H298 C235 0.930 . S
H299 C239 0.931 . S
H300 C240 0.959 . S
H301 C240 0.961 . S
H302 C240 0.959 . S
H303 C241 0.960 . S
H304 C241 0.960 . S
H305 C241 0.960 . S
H306 C277 0.980 . S
H307 C243 0.930 . S
H308 C247 0.930 . S
H309 C248 0.961 . S
H310 C248 0.960 . S
H311 C248 0.958 . S
H312 C249 0.961 . S
H313 C249 0.960 . S
H314 C249 0.960 . S
H315 C251 0.980 . S
H316 C250 0.961 . S
H317 C250 0.961 . S
H318 C250 0.959 . S
H319 C253 0.932 1_565 S
H320 C257 0.929 . S
H321 C258 0.961 1_545 S
H322 C258 0.967 1_545 S
H323 C258 0.966 . S
H324 C259 0.960 . S
H325 C259 0.962 . S
H326 C259 0.961 . S
H327 C261 0.929 . S
H328 C264 0.930 . S
H329 C265 0.929 . S
H330 C268 0.930 . S
H331 C271 0.929 . S
H332 C272 0.930 . S
H333 C276 0.962 . S
H334 C276 0.959 . S
H335 C276 0.958 . S
C336 C337 1.560 . S
C336 H397 0.959 . S
C336 H398 0.959 . S
C336 H399 0.960 . S
C337 C336 1.560 . S
C337 O392 1.426 . S
C337 H396 0.980 . S
C338 C339 1.407 . S
C338 C343 1.418 . S
C338 O392 1.334 . S
C339 C338 1.407 . S
C339 C340 1.360 . S
C339 H400 0.929 . S
C340 C339 1.360 . S
C340 C341 1.401 . S
C340 C344 1.527 . S
C341 C340 1.401 . S
C341 C342 1.405 . S
C341 C374 1.587 . S
C342 C341 1.405 . S
C342 C343 1.332 . S
C342 C345 1.496 . S
C343 C338 1.418 . S
C343 C342 1.332 . S
C343 H401 0.929 . S
C344 C340 1.527 . S
C344 H402 0.959 . S
C344 H403 0.961 . S
C344 H404 0.961 . S
C345 C342 1.496 . S
C345 H405 0.960 . S
C345 H406 0.960 . S
C345 H407 0.961 . S
C346 C347 1.517 . S
C346 H409 0.961 . S
C346 H410 0.960 . S
C346 H411 0.959 . S
C347 C346 1.517 . S
C347 O395 1.468 . S
C347 H408 0.980 . S
C348 C349 1.349 . S
C348 C353 1.367 . S
C348 O395 1.408 . S
C349 C348 1.349 . S
C349 C350 1.407 . S
C349 H412 0.930 . S
C350 C349 1.407 . S
C350 C351 1.449 . S
C350 C354 1.535 . S
C351 C350 1.449 . S
C351 C352 1.384 . S
C351 C376 1.553 . S
C352 C351 1.384 . S
C352 C353 1.364 . S
C352 C355 1.450 . S
C353 C348 1.367 . S
C353 C352 1.364 . S
C353 H413 0.931 . S
C354 C350 1.535 . S
C354 H414 0.959 . S
C354 H415 0.961 . S
C354 H416 0.959 . S
C355 C352 1.450 . S
C355 H417 0.960 . S
C355 H418 0.960 . S
C355 H419 0.960 . S
C356 C357 1.309 . S
C356 C361 1.304 . S
C356 O394 1.435 . S
C357 C356 1.309 . S
C357 C358 1.476 . S
C357 H421 0.930 . S
C358 C357 1.476 . S
C358 C359 1.400 . S
C358 C362 1.567 . S
C359 C358 1.400 . S
C359 C360 1.373 . S
C359 C381 1.432 . S
C360 C359 1.373 . S
C360 C361 1.339 . S
C360 C363 1.530 . S
C361 C356 1.304 . S
C361 C360 1.339 . S
C361 H422 0.930 . S
C362 C358 1.567 . S
C362 H423 0.961 . S
C362 H424 0.960 . S
C362 H425 0.958 . S
C363 C360 1.530 . S
C363 H426 0.961 . S
C363 H427 0.960 . S
C363 H428 0.960 . S
C364 C365 1.530 . S
C364 H430 0.961 . S
C364 H431 0.961 . S
C364 H432 0.959 . S
C365 C364 1.530 . S
C365 O393 1.412 . S
C365 H429 0.980 . S
C366 C367 1.288 . S
C366 C371 1.377 . S
C366 O393 1.393 . S
C367 C366 1.288 . S
C367 C368 1.369 . S
C367 H433 0.932 . S
C368 C367 1.369 . S
C368 C369 1.398 . S
C368 C372 1.527 . S
C369 C368 1.398 . S
C369 C370 1.380 . S
C369 C383 1.497 . S
C370 C369 1.380 . S
C370 C371 1.383 . S
C370 C373 1.603 . S
C371 C366 1.377 . S
C371 C370 1.383 . S
C371 H434 0.929 . S
C372 C368 1.527 . S
C372 H435 0.961 . S
C372 H436 0.959 . S
C372 H437 0.959 . S
C373 C370 1.603 . S
C373 H438 0.960 . S
C373 H439 0.962 . S
C373 H440 0.961 . S
C374 C341 1.587 . S
C374 C375 1.360 . S
C374 C387 1.412 . S
C375 C374 1.360 . S
C375 C376 1.365 . S
C375 H441 0.929 . S
C376 C351 1.553 . S
C376 C375 1.365 . S
C376 C377 1.404 . S
C377 C376 1.404 . S
C377 C378 1.395 . S
C377 C388 1.451 . S
C378 C377 1.395 . S
C378 C379 1.322 . S
C378 H442 0.930 . S
C379 C378 1.322 . S
C379 C380 1.459 . S
C379 H443 0.929 . S
C380 C379 1.459 . S
C380 C381 1.445 . S
C380 C389 1.395 . S
C381 C359 1.432 . S
C381 C380 1.445 . S
C381 C382 1.370 . S
C382 C381 1.370 . S
C382 C383 1.438 . S
C382 H444 0.930 . S
C383 C369 1.497 . S
C383 C382 1.438 . S
C383 C384 1.360 . S
C384 C383 1.360 . S
C384 C385 1.401 . S
C384 C389 1.446 . S
C385 C384 1.401 . S
C385 C386 1.347 . S
C385 H445 0.929 . S
C386 C385 1.347 . S
C386 C387 1.455 . S
C386 H446 0.930 . S
C387 C374 1.412 . S
C387 C386 1.455 . S
C387 C388 1.331 . S
C388 C377 1.451 . S
C388 C387 1.331 . S
C388 C389 1.497 . S
C389 C380 1.395 . S
C389 C384 1.446 . S
C389 C388 1.497 . S
C390 C391 1.582 . S
C390 H447 0.962 . S
C390 H448 0.959 . S
C390 H449 0.958 . S
C391 C390 1.582 . S
C391 O394 1.458 . S
C391 H420 0.980 . S
O392 C337 1.426 . S
O392 C338 1.334 . S
O393 C365 1.412 . S
O393 C366 1.393 . S
O394 C356 1.435 . S
O394 C391 1.458 . S
O395 C347 1.468 . S
O395 C348 1.408 . S
H396 C337 0.980 . S
H397 C336 0.959 . S
H398 C336 0.959 . S
H399 C336 0.960 . S
H400 C339 0.929 . S
H401 C343 0.929 . S
H402 C344 0.959 . S
H403 C344 0.961 . S
H404 C344 0.961 . S
H405 C345 0.960 . S
H406 C345 0.960 . S
H407 C345 0.961 . S
H408 C347 0.980 . S
H409 C346 0.961 . S
H410 C346 0.960 . S
H411 C346 0.959 . S
H412 C349 0.930 . S
H413 C353 0.931 . S
H414 C354 0.959 . S
H415 C354 0.961 . S
H416 C354 0.959 . S
H417 C355 0.960 . S
H418 C355 0.960 . S
H419 C355 0.960 . S
H420 C391 0.980 . S
H421 C357 0.930 . S
H422 C361 0.930 . S
H423 C362 0.961 . S
H424 C362 0.960 . S
H425 C362 0.958 . S
H426 C363 0.961 . S
H427 C363 0.960 . S
H428 C363 0.960 . S
H429 C365 0.980 . S
H430 C364 0.961 . S
H431 C364 0.961 . S
H432 C364 0.959 . S
H433 C367 0.932 . S
H434 C371 0.929 . S
H435 C372 0.961 . S
H436 C372 0.959 . S
H437 C372 0.959 . S
H438 C373 0.960 . S
H439 C373 0.962 . S
H440 C373 0.961 . S
H441 C375 0.929 . S
H442 C378 0.930 . S
H443 C379 0.929 . S
H444 C382 0.930 . S
H445 C385 0.929 . S
H446 C386 0.930 . S
H447 C390 0.962 . S
H448 C390 0.959 . S
H449 C390 0.958 . S
H450 C456 0.930 1_655 S
H451 C460 0.930 . S
H452 C465 0.929 . S
H453 C463 0.929 1_655 S
H454 C458 0.929 . S
H455 C464 0.929 1_655 S
C456 H450 0.930 1_455 S
C456 C457 1.367 . S
C456 C464 1.378 . S
C457 C456 1.367 . S
C457 C465 1.433 . S
C458 H454 0.929 . S
C458 C460 1.378 . S
C458 C462 1.350 . S
C459 C462 1.463 . S
C459 C464 1.350 . S
C459 N467 1.427 . S
C460 H451 0.930 . S
C460 C458 1.378 . S
C460 C461 1.367 . S
C461 C460 1.367 . S
C461 C463 1.433 . S
C462 C458 1.350 . S
C462 C459 1.463 . S
C462 N466 1.427 . S
C463 H453 0.929 1_455 S
C463 C461 1.433 . S
C463 N466 1.384 . S
C464 H455 0.929 1_455 S
C464 C456 1.378 . S
C464 C459 1.350 . S
C465 H452 0.929 . S
C465 C457 1.433 . S
C465 N467 1.384 . S
N466 C462 1.427 . S
N466 C463 1.384 . S
N467 C459 1.427 . S
N467 C465 1.384 . S
H468 C474 0.930 . S
H469 C478 0.930 . S
H470 C483 0.929 . S
H471 C481 0.929 . S
H472 C476 0.929 . S
H473 C482 0.929 . S
C474 H468 0.930 . S
C474 C475 1.367 . S
C474 C482 1.378 . S
C475 C474 1.367 . S
C475 C483 1.433 . S
C476 H472 0.929 . S
C476 C478 1.378 . S
C476 C480 1.350 . S
C477 C480 1.463 . S
C477 C482 1.350 . S
C477 N485 1.427 . S
C478 H469 0.930 . S
C478 C476 1.378 . S
C478 C479 1.367 . S
C479 C478 1.367 . S
C479 C481 1.433 . S
C480 C476 1.350 . S
C480 C477 1.463 . S
C480 N484 1.427 . S
C481 H471 0.929 . S
C481 C479 1.433 . S
C481 N484 1.384 . S
C482 H473 0.929 . S
C482 C474 1.378 . S
C482 C477 1.350 . S
C483 H470 0.929 . S
C483 C475 1.433 . S
C483 N485 1.384 . S
N484 C480 1.427 . S
N484 C481 1.384 . S
N485 C477 1.427 . S
N485 C483 1.384 . S
H486 C492 0.930 . S
H487 C496 0.930 . S
H488 C501 0.929 1_545 S
H489 C499 0.929 . S
H490 C494 0.929 . S
H491 C500 0.929 . S
C492 H486 0.930 . S
C492 C493 1.367 . S
C492 C500 1.378 . S
C493 C492 1.367 . S
C493 C501 1.433 . S
C494 H490 0.929 . S
C494 C496 1.378 . S
C494 C498 1.350 . S
C495 C498 1.463 . S
C495 C500 1.350 . S
C495 N503 1.427 . S
C496 H487 0.930 . S
C496 C494 1.378 . S
C496 C497 1.367 . S
C497 C496 1.367 . S
C497 C499 1.433 . S
C498 C494 1.350 . S
C498 C495 1.463 . S
C498 N502 1.427 . S
C499 H489 0.929 . S
C499 C497 1.433 . S
C499 N502 1.384 . S
C500 H491 0.929 . S
C500 C492 1.378 . S
C500 C495 1.350 . S
C501 H488 0.929 1_565 S
C501 C493 1.433 . S
C501 N503 1.384 . S
N502 C498 1.427 . S
N502 C499 1.384 . S
N503 C495 1.427 . S
N503 C501 1.384 . S
H504 C510 0.930 . S
H505 C514 0.930 . S
H506 C519 0.929 . S
H507 C517 0.929 . S
H508 C512 0.929 . S
H509 C518 0.929 . S
C510 H504 0.930 . S
C510 C511 1.367 . S
C510 C518 1.378 . S
C511 C510 1.367 . S
C511 C519 1.433 . S
C512 H508 0.929 . S
C512 C514 1.378 . S
C512 C516 1.350 . S
C513 C516 1.463 . S
C513 C518 1.350 . S
C513 N521 1.427 . S
C514 H505 0.930 . S
C514 C512 1.378 . S
C514 C515 1.367 . S
C515 C514 1.367 . S
C515 C517 1.433 . S
C516 C512 1.350 . S
C516 C513 1.463 . S
C516 N520 1.427 . S
C517 H507 0.929 . S
C517 C515 1.433 . S
C517 N520 1.384 . S
C518 H509 0.929 . S
C518 C510 1.378 . S
C518 C513 1.350 . S
C519 H506 0.929 . S
C519 C511 1.433 . S
C519 N521 1.384 . S
N520 C516 1.427 . S
N520 C517 1.384 . S
N521 C513 1.427 . S
N521 C519 1.384 . S
H522 C528 0.930 . S
H523 C532 0.930 . S
H524 C537 0.929 . S
H525 C535 0.929 . S
H526 C530 0.929 . S
H527 C536 0.929 . S
C528 H522 0.930 . S
C528 C529 1.367 . S
C528 C536 1.378 . S
C529 C528 1.367 . S
C529 C537 1.433 . S
C530 H526 0.929 . S
C530 C532 1.378 . S
C530 C534 1.350 . S
C531 C534 1.463 . S
C531 C536 1.350 . S
C531 N539 1.427 . S
C532 H523 0.930 . S
C532 C530 1.378 . S
C532 C533 1.367 . S
C533 C532 1.367 . S
C533 C535 1.433 . S
C534 C530 1.350 . S
C534 C531 1.463 . S
C534 N538 1.427 . S
C535 H525 0.929 . S
C535 C533 1.433 . S
C535 N538 1.384 . S
C536 H527 0.929 . S
C536 C528 1.378 . S
C536 C531 1.350 . S
C537 H524 0.929 . S
C537 C529 1.433 . S
C537 N539 1.384 . S
N538 C534 1.427 . S
N538 C535 1.384 . S
N539 C531 1.427 . S
N539 C537 1.384 . S
H540 C546 0.930 . S
H541 C550 0.930 . S
H542 C555 0.929 . S
H543 C553 0.929 . S
H544 C548 0.929 . S
H545 C554 0.929 . S
C546 H540 0.930 . S
C546 C547 1.367 . S
C546 C554 1.378 . S
C547 C546 1.367 . S
C547 C555 1.433 . S
C548 H544 0.929 . S
C548 C550 1.378 . S
C548 C552 1.350 . S
C549 C552 1.463 . S
C549 C554 1.350 . S
C549 N557 1.427 . S
C550 H541 0.930 . S
C550 C548 1.378 . S
C550 C551 1.367 . S
C551 C550 1.367 . S
C551 C553 1.433 . S
C552 C548 1.350 . S
C552 C549 1.463 . S
C552 N556 1.427 . S
C553 H543 0.929 . S
C553 C551 1.433 . S
C553 N556 1.384 . S
C554 H545 0.929 . S
C554 C546 1.378 . S
C554 C549 1.350 . S
C555 H542 0.929 . S
C555 C547 1.433 . S
C555 N557 1.384 . S
N556 C552 1.427 . S
N556 C553 1.384 . S
N557 C549 1.427 . S
N557 C555 1.384 . S
H558 C564 0.930 . S
H559 C568 0.930 . S
H560 C573 0.929 . S
H561 C571 0.929 . S
H562 C566 0.929 . S
H563 C572 0.929 . S
C564 H558 0.930 . S
C564 C565 1.367 . S
C564 C572 1.378 . S
C565 C564 1.367 . S
C565 C573 1.433 . S
C566 H562 0.929 . S
C566 C568 1.378 . S
C566 C570 1.350 . S
C567 C570 1.463 . S
C567 C572 1.350 . S
C567 N575 1.427 . S
C568 H559 0.930 . S
C568 C566 1.378 . S
C568 C569 1.367 . S
C569 C568 1.367 . S
C569 C571 1.433 . S
C570 C566 1.350 . S
C570 C567 1.463 . S
C570 N574 1.427 . S
C571 H561 0.929 . S
C571 C569 1.433 . S
C571 N574 1.384 . S
C572 H563 0.929 . S
C572 C564 1.378 . S
C572 C567 1.350 . S
C573 H560 0.929 . S
C573 C565 1.433 . S
C573 N575 1.384 . S
N574 C570 1.427 . S
N574 C571 1.384 . S
N575 C567 1.427 . S
N575 C573 1.384 . S
H576 C582 0.930 . S
H577 C586 0.930 . S
H578 C591 0.929 1_545 S
H579 C589 0.929 . S
H580 C584 0.929 . S
H581 C590 0.929 . S
C582 H576 0.930 . S
C582 C583 1.367 . S
C582 C590 1.378 . S
C583 C582 1.367 . S
C583 C591 1.433 . S
C584 H580 0.929 . S
C584 C586 1.378 . S
C584 C588 1.350 . S
C585 C588 1.463 1_554 S
C585 C590 1.350 . S
C585 N593 1.427 1_554 S
C586 H577 0.930 . S
C586 C584 1.378 . S
C586 C587 1.367 . S
C587 C586 1.367 . S
C587 C589 1.433 . S
C588 C584 1.350 . S
C588 C585 1.463 1_556 S
C588 N592 1.407 1_556 S
C589 H579 0.929 . S
C589 C587 1.433 . S
C589 N592 1.357 1_556 S
C590 H581 0.929 . S
C590 C582 1.378 . S
C590 C585 1.350 . S
C591 H578 0.929 1_565 S
C591 C583 1.433 . S
C591 N593 1.384 1_554 S
N592 C588 1.407 1_554 S
N592 C589 1.357 1_554 S
N593 C585 1.427 1_556 S
N593 C591 1.384 1_556 S
H594 C600 0.930 . S
H595 C604 0.930 . S
H596 C609 0.929 . S
H597 C607 0.929 . S
H598 C602 0.929 . S
H599 C608 0.929 . S
C600 H594 0.930 . S
C600 C601 1.367 . S
C600 C608 1.378 . S
C601 C600 1.367 . S
C601 C609 1.433 1_455 S
C602 H598 0.929 . S
C602 C604 1.378 . S
C602 C606 1.350 1_655 S
C603 C606 1.463 . S
C603 C608 1.350 . S
C603 N611 1.427 1_455 S
C604 H595 0.930 . S
C604 C602 1.378 . S
C604 C605 1.367 1_655 S
C605 C604 1.367 1_455 S
C605 C607 1.433 . S
C606 C602 1.350 1_455 S
C606 C603 1.463 . S
C606 N610 1.427 . S
C607 H597 0.929 . S
C607 C605 1.433 . S
C607 N610 1.384 . S
C608 H599 0.929 . S
C608 C600 1.378 . S
C608 C603 1.350 . S
C609 H596 0.929 . S
C609 C601 1.433 1_655 S
C609 N611 1.384 . S
N610 C606 1.427 . S
N610 C607 1.384 . S
N611 C603 1.427 1_655 S
N611 C609 1.384 . S
H612 C618 0.930 . S
H613 C622 0.930 . S
H614 C627 0.929 . S
H615 C625 0.929 . S
H616 C620 0.929 . S
H617 C626 0.929 . S
C618 H612 0.930 . S
C618 C619 1.367 . S
C618 C626 1.378 . S
C619 C618 1.367 . S
C619 C627 1.433 . S
C620 H616 0.929 . S
C620 C622 1.378 . S
C620 C624 1.350 . S
C621 C624 1.463 . S
C621 C626 1.350 . S
C621 N629 1.427 . S
C622 H613 0.930 . S
C622 C620 1.378 . S
C622 C623 1.367 . S
C623 C622 1.367 . S
C623 C625 1.433 . S
C624 C620 1.350 . S
C624 C621 1.463 . S
C624 N628 1.427 . S
C625 H615 0.929 . S
C625 C623 1.433 . S
C625 N628 1.384 . S
C626 H617 0.929 . S
C626 C618 1.378 . S
C626 C621 1.350 . S
C627 H614 0.929 . S
C627 C619 1.433 . S
C627 N629 1.384 . S
N628 C624 1.427 . S
N628 C625 1.384 . S
N629 C621 1.427 . S
N629 C627 1.384 . S
H630 C636 0.930 . S
H631 C640 0.930 . S
H632 C645 0.929 . S
H633 C643 0.929 . S
H634 C638 0.929 . S
H635 C644 0.929 . S
C636 H630 0.930 . S
C636 C637 1.367 . S
C636 C644 1.378 1_554 S
C637 C636 1.367 . S
C637 C645 1.433 . S
C638 H634 0.929 . S
C638 C640 1.378 . S
C638 C642 1.350 . S
C639 C642 1.485 . S
C639 C644 1.350 . S
C639 N647 1.405 1_556 S
C640 H631 0.930 . S
C640 C638 1.378 . S
C640 C641 1.367 . S
C641 C640 1.367 . S
C641 C643 1.433 . S
C642 C638 1.350 . S
C642 C639 1.485 . S
C642 N646 1.427 . S
C643 H633 0.929 . S
C643 C641 1.433 . S
C643 N646 1.384 . S
C644 H635 0.929 . S
C644 C636 1.378 1_556 S
C644 C639 1.350 . S
C645 H632 0.929 . S
C645 C637 1.433 . S
C645 N647 1.384 . S
N646 C642 1.427 . S
N646 C643 1.384 . S
N647 C639 1.405 1_554 S
N647 C645 1.384 . S
H648 C654 0.930 . S
H649 C658 0.930 1_655 S
H650 C663 0.929 . S
H651 C661 0.929 . S
H652 C656 0.929 1_655 S
H653 C662 0.929 . S
C654 H648 0.930 . S
C654 C655 1.367 . S
C654 C662 1.378 . S
C655 C654 1.367 . S
C655 C663 1.433 1_455 S
C656 H652 0.929 1_455 S
C656 C658 1.378 . S
C656 C660 1.350 . S
C657 C660 1.463 . S
C657 C662 1.350 . S
C657 N665 1.426 1_455 S
C658 H649 0.930 1_455 S
C658 C656 1.378 . S
C658 C659 1.367 . S
C659 C658 1.367 . S
C659 C661 1.433 . S
C660 C656 1.350 . S
C660 C657 1.463 . S
C660 N664 1.427 . S
C661 H651 0.929 . S
C661 C659 1.433 . S
C661 N664 1.384 . S
C662 H653 0.929 . S
C662 C654 1.378 . S
C662 C657 1.350 . S
C663 H650 0.929 . S
C663 C655 1.433 1_655 S
C663 N665 1.383 . S
N664 C660 1.427 . S
N664 C661 1.384 . S
N665 C657 1.426 1_655 S
N665 C663 1.383 . S
C461 C163 1.153 . S
C457 C14 1.531 . S
C475 C40 1.557 . S
C479 C277 1.207 . S
C493 C76 1.315 . S
C497 C337 1.053 . S
C511 C3 1.383 . S
C515 C137 1.092 . S
C533 C251 1.116 . S
C529 C38 1.443 . S
C547 C74 1.475 . S
C551 C347 0.923 . S
C569 C233 0.936 . S
C565 C86 1.430 . S
C583 C2 1.409 1_565 S
C587 C365 1.106 . S
C605 C109 1.020 . S
C601 C39 1.297 . S
C623 C223 1.002 . S
C619 C75 1.313 . S
C641 C391 1.191 . S
C637 C4 1.531 . S
C655 C50 1.451 . S
C659 C119 0.909 . S
