# Generated by pormake.
# Topology apo, (3,6)-cn, num edge types: 1
# Building blocks:
#     Node 0, Type 0, BuildingBlock: PAMTOO_clean_linker_0, # of connection points: 3
#     Node 1, Type 0, BuildingBlock: PAMTOO_clean_linker_0, # of connection points: 3
#     Node 2, Type 0, BuildingBlock: PAMTOO_clean_linker_0, # of connection points: 3
#     Node 3, Type 0, BuildingBlock: PAMTOO_clean_linker_0, # of connection points: 3
#     Node 4, Type 0, BuildingBlock: PAMTOO_clean_linker_0, # of connection points: 3
#     Node 5, Type 0, BuildingBlock: PAMTOO_clean_linker_0, # of connection points: 3
#     Node 6, Type 0, BuildingBlock: PAMTOO_clean_linker_0, # of connection points: 3
#     Node 7, Type 0, BuildingBlock: PAMTOO_clean_linker_0, # of connection points: 3
#     Node 8, Type 1, BuildingBlock: KUMBOL_clean_sbu_1, # of connection points: 6
#     Node 9, Type 1, BuildingBlock: KUMBOL_clean_sbu_1, # of connection points: 6
#     Node 10, Type 1, BuildingBlock: KUMBOL_clean_sbu_1, # of connection points: 6
#     Node 11, Type 1, BuildingBlock: KUMBOL_clean_sbu_1, # of connection points: 6
#     Edge 12, Type (0, 1), BuildingBlock: ZUJKAS_clean_linker_0, # of connection points: 2
#     Edge 13, Type (0, 1), BuildingBlock: ZUJKAS_clean_linker_0, # of connection points: 2
#     Edge 14, Type (0, 1), BuildingBlock: ZUJKAS_clean_linker_0, # of connection points: 2
#     Edge 15, Type (0, 1), BuildingBlock: ZUJKAS_clean_linker_0, # of connection points: 2
#     Edge 16, Type (0, 1), BuildingBlock: ZUJKAS_clean_linker_0, # of connection points: 2
#     Edge 17, Type (0, 1), BuildingBlock: ZUJKAS_clean_linker_0, # of connection points: 2
#     Edge 18, Type (0, 1), BuildingBlock: ZUJKAS_clean_linker_0, # of connection points: 2
#     Edge 19, Type (0, 1), BuildingBlock: ZUJKAS_clean_linker_0, # of connection points: 2
#     Edge 20, Type (0, 1), BuildingBlock: ZUJKAS_clean_linker_0, # of connection points: 2
#     Edge 21, Type (0, 1), BuildingBlock: ZUJKAS_clean_linker_0, # of connection points: 2
#     Edge 22, Type (0, 1), BuildingBlock: ZUJKAS_clean_linker_0, # of connection points: 2
#     Edge 23, Type (0, 1), BuildingBlock: ZUJKAS_clean_linker_0, # of connection points: 2
#     Edge 24, Type (0, 1), BuildingBlock: ZUJKAS_clean_linker_0, # of connection points: 2
#     Edge 25, Type (0, 1), BuildingBlock: ZUJKAS_clean_linker_0, # of connection points: 2
#     Edge 26, Type (0, 1), BuildingBlock: ZUJKAS_clean_linker_0, # of connection points: 2
#     Edge 27, Type (0, 1), BuildingBlock: ZUJKAS_clean_linker_0, # of connection points: 2
#     Edge 28, Type (0, 1), BuildingBlock: ZUJKAS_clean_linker_0, # of connection points: 2
#     Edge 29, Type (0, 1), BuildingBlock: ZUJKAS_clean_linker_0, # of connection points: 2
#     Edge 30, Type (0, 1), BuildingBlock: ZUJKAS_clean_linker_0, # of connection points: 2
#     Edge 31, Type (0, 1), BuildingBlock: ZUJKAS_clean_linker_0, # of connection points: 2
#     Edge 32, Type (0, 1), BuildingBlock: ZUJKAS_clean_linker_0, # of connection points: 2
#     Edge 33, Type (0, 1), BuildingBlock: ZUJKAS_clean_linker_0, # of connection points: 2
#     Edge 34, Type (0, 1), BuildingBlock: ZUJKAS_clean_linker_0, # of connection points: 2
#     Edge 35, Type (0, 1), BuildingBlock: ZUJKAS_clean_linker_0, # of connection points: 2
# Relax obj value: 0.041
# Max RMSD: 0.212
# Mean RMSD: 0.155
data_MOF--net-apo--node1-KUMBOL_clean_sbu_1--node2-PAMTOO_clean_linker_0--edge1-ZUJKAS_clean_linker_0
_symmetry_space_group_name_H-M    P1
_symmetry_Int_Tables_number       1
_symmetry_cell_setting            triclinic
loop_
_symmetry_equiv_pos_as_xyz
'x, y, z'
_cell_length_a     35.396197
_cell_length_b     55.549483
_cell_length_c     64.139663
_cell_angle_alpha  89.99269
_cell_angle_beta   90.046858
_cell_angle_gamma 90.384357
loop_
_atom_site_label
_atom_site_type_symbol
_atom_site_fract_x
_atom_site_fract_y
_atom_site_fract_z
_atom_type_partial_charge
H0 H 0.35068 0.41751 0.4335 0.0
H1 H 0.29748 0.38476 0.37998 0.0
H2 H 0.28657 0.35188 0.44017 0.0
H3 H 0.29992 0.31887 0.4044 0.0
C4 C 0.28387 0.32858 0.3921 0.0
O5 O 0.26787 0.3489 0.40071 0.0
H6 H 0.30381 0.33386 0.37947 0.0
C7 C 0.33419 0.40308 0.42657 0.0
C8 C 0.32025 0.38455 0.43942 0.0
C9 C 0.32642 0.40351 0.40506 0.0
C10 C 0.30356 0.38516 0.39653 0.0
C11 C 0.28925 0.36665 0.4092 0.0
C12 C 0.29743 0.36642 0.43059 0.0
H13 H 0.16864 0.09356 0.92997 0.0
H14 H 0.22951 0.16015 0.93903 0.0
H15 H 0.2277 0.1269 0.8787 0.0
H16 H 0.30153 0.14546 0.89548 0.0
C17 C 0.29126 0.16338 0.90072 0.0
O18 O 0.25225 0.16369 0.90026 0.0
H19 H 0.30119 0.16638 0.91697 0.0
C20 C 0.18609 0.10801 0.92384 0.0
C21 C 0.19663 0.10775 0.90269 0.0
C22 C 0.19776 0.12675 0.93718 0.0
C23 C 0.22042 0.14543 0.9291 0.0
C24 C 0.23102 0.14544 0.90803 0.0
C25 C 0.21905 0.12672 0.8949 0.0
H26 H 0.85645 0.10558 0.59128 0.0
H27 H 0.79597 0.13585 0.64331 0.0
H28 H 0.79743 0.1728 0.58483 0.0
H29 H 0.80497 0.2049 0.62012 0.0
C30 C 0.79066 0.19394 0.63235 0.0
O31 O 0.77385 0.17404 0.62332 0.0
H32 H 0.81257 0.18823 0.64377 0.0
C33 C 0.83898 0.11959 0.59785 0.0
C34 C 0.82802 0.13912 0.58525 0.0
C35 C 0.82781 0.11814 0.61891 0.0
C36 C 0.80533 0.13657 0.62724 0.0
C37 C 0.79458 0.15614 0.61493 0.0
C38 C 0.80563 0.15732 0.59401 0.0
H39 H 0.65851 0.40486 0.09253 0.0
H40 H 0.72352 0.33984 0.08632 0.0
H41 H 0.72005 0.37652 0.14495 0.0
H42 H 0.79339 0.35962 0.13275 0.0
C43 C 0.78555 0.34225 0.1252 0.0
O44 O 0.74677 0.33951 0.12494 0.0
H45 H 0.79626 0.3425 0.10889 0.0
C46 C 0.67727 0.39151 0.09909 0.0
C47 C 0.68794 0.39327 0.12019 0.0
C48 C 0.68955 0.37218 0.08666 0.0
C49 C 0.71311 0.35468 0.0956 0.0
C50 C 0.72396 0.35634 0.11654 0.0
C51 C 0.71115 0.37542 0.12881 0.0
H52 H 0.66796 0.59145 0.58717 0.0
H53 H 0.73119 0.65739 0.57951 0.0
H54 H 0.72313 0.62469 0.63985 0.0
H55 H 0.70879 0.67773 0.63586 0.0
C56 C 0.73354 0.68219 0.62582 0.0
O57 O 0.75002 0.6612 0.61887 0.0
H58 H 0.7233 0.69274 0.61224 0.0
C59 C 0.68522 0.60576 0.5937 0.0
C60 C 0.69385 0.60556 0.61513 0.0
C61 C 0.69854 0.62429 0.5806 0.0
C62 C 0.72092 0.6428 0.58922 0.0
C63 C 0.72924 0.64302 0.61059 0.0
C64 C 0.71591 0.62442 0.62344 0.0
H65 H 0.85597 0.91538 0.09079 0.0
H66 H 0.79989 0.88335 0.14362 0.0
H67 H 0.79207 0.84954 0.08372 0.0
H68 H 0.72064 0.85084 0.10835 0.0
C69 C 0.73277 0.84938 0.12431 0.0
O70 O 0.77151 0.84709 0.12283 0.0
H71 H 0.72571 0.86602 0.1331 0.0
C72 C 0.83863 0.90117 0.0974 0.0
C73 C 0.82537 0.88243 0.0845 0.0
C74 C 0.82979 0.90176 0.11878 0.0
C75 C 0.80735 0.88321 0.12724 0.0
C76 C 0.79347 0.86465 0.11453 0.0
C77 C 0.80253 0.86424 0.09326 0.0
H78 H 0.16987 0.91141 0.42671 0.0
H79 H 0.22662 0.84387 0.43609 0.0
H80 H 0.2311 0.87818 0.37637 0.0
H81 H 0.21234 0.8263 0.37747 0.0
C82 C 0.23386 0.82062 0.38913 0.0
O83 O 0.25124 0.84053 0.39782 0.0
H84 H 0.21897 0.81024 0.40153 0.0
C85 C 0.18721 0.89693 0.4208 0.0
C86 C 0.19932 0.89735 0.39989 0.0
C87 C 0.19702 0.8778 0.43409 0.0
C88 C 0.21925 0.85899 0.42625 0.0
C89 C 0.23102 0.8591 0.40543 0.0
C90 C 0.22134 0.87827 0.39237 0.0
H91 H 0.35636 0.605 0.92564 0.0
H92 H 0.29852 0.63851 0.87428 0.0
H93 H 0.30023 0.67302 0.93394 0.0
H94 H 0.22809 0.6787 0.91388 0.0
C95 C 0.23622 0.67462 0.89753 0.0
O96 O 0.27509 0.6754 0.89574 0.0
H97 H 0.22562 0.65621 0.89367 0.0
C98 C 0.34012 0.61983 0.91943 0.0
C99 C 0.32982 0.63899 0.93259 0.0
C100 C 0.32938 0.61953 0.8983 0.0
C101 C 0.30776 0.63859 0.89039 0.0
C102 C 0.29702 0.6576 0.90335 0.0
C103 C 0.30841 0.65796 0.92425 0.0
C104 C 0.89885 0.10764 0.2631 0.0
C105 C 0.89399 0.06464 0.26932 0.0
C106 C 0.91358 0.08668 0.27134 0.0
C107 C 0.86017 0.0638 0.25786 0.0
C108 C 0.86378 0.10713 0.25266 0.0
C109 C 0.84512 0.08501 0.24952 0.0
N110 N 0.91745 0.12873 0.26665 0.0
C111 C 0.90015 0.15011 0.26252 0.0
C112 C 0.84782 0.12898 0.24645 0.0
C113 C 0.86569 0.15059 0.25183 0.0
Gd114 Gd 0.05909 0.13023 0.23814 0.0
Gd115 Gd 0.9774 0.12556 0.28255 0.0
N116 N 0.94671 0.08802 0.28193 0.0
C117 C 0.90864 0.04426 0.27924 0.0
C118 C 0.96007 0.06861 0.29265 0.0
C119 C 0.94149 0.04636 0.29126 0.0
H120 H 0.98562 0.07028 0.30178 0.0
H121 H 0.95263 0.03083 0.29933 0.0
H122 H 0.02533 0.17329 0.20578 0.0
H123 H 0.91268 0.1669 0.26755 0.0
H124 H 0.03494 0.21665 0.19959 0.0
H125 H 0.89442 0.02698 0.27809 0.0
H126 H 0.84497 0.04697 0.25583 0.0
H127 H 0.13626 0.11065 0.26199 0.0
H128 H 0.82093 0.12938 0.23838 0.0
H129 H 0.85271 0.16762 0.24802 0.0
H130 H 0.14533 0.23622 0.2398 0.0
H131 H 0.81842 0.08422 0.24126 0.0
H132 H 0.20961 0.17103 0.27334 0.0
H133 H 0.19597 0.12738 0.27636 0.0
N134 N 0.1166 0.14457 0.25145 0.0
C135 C 0.12436 0.1683 0.24868 0.0
C136 C 0.14227 0.12968 0.2606 0.0
C137 C 0.18356 0.16376 0.26698 0.0
C138 C 0.17597 0.1391 0.26872 0.0
C139 C 0.15782 0.17865 0.25665 0.0
H140 H 0.19011 0.21171 0.25995 0.0
N141 N 0.06834 0.17096 0.22888 0.0
C142 C 0.09907 0.18202 0.23737 0.0
C143 C 0.08243 0.21937 0.22051 0.0
C144 C 0.10675 0.20658 0.2336 0.0
C145 C 0.04682 0.18276 0.21451 0.0
C146 C 0.05279 0.20725 0.21057 0.0
O147 O 0.98855 0.09491 0.26003 0.0
O148 O 0.00212 0.11466 0.22982 0.0
O149 O 0.08361 0.13281 0.20706 0.0
O150 O 0.08644 0.09941 0.2241 0.0
O151 O 0.03294 0.1078 0.29054 0.0
O152 O 0.0635 0.09772 0.25949 0.0
O153 O 0.06929 0.14289 0.27132 0.0
O154 O 0.01288 0.1594 0.28056 0.0
O155 O 0.99024 0.12336 0.31562 0.0
O156 O 0.93568 0.13588 0.30567 0.0
O157 O 1.00059 0.14451 0.23077 0.0
O158 O 0.9792 0.15903 0.26225 0.0
C159 C 0.98713 0.09631 0.23966 0.0
C160 C 0.05679 0.0946 0.27963 0.0
C161 C 0.07801 0.09699 0.18747 0.0
C162 C 0.07788 0.09194 0.14951 0.0
C163 C 0.03852 0.06622 0.17143 0.0
C164 C 0.05161 0.07809 0.1892 0.0
C165 C 0.05152 0.07301 0.15175 0.0
C166 C 0.09108 0.10382 0.16758 0.0
C167 C 0.09144 0.11001 0.2062 0.0
C168 C 0.13919 0.21731 0.24232 0.0
C169 C 0.16474 0.20335 0.25376 0.0
H170 H 0.08729 0.23827 0.21723 0.0
C171 C 0.04992 0.15951 0.28101 0.0
C172 C 0.98047 0.15981 0.24175 0.0
C173 C 0.96051 0.15217 0.33668 0.0
C174 C 0.95176 0.16656 0.37236 0.0
C175 C 0.97642 0.19343 0.34551 0.0
C176 C 0.97392 0.17498 0.33081 0.0
C177 C 0.9654 0.18932 0.36613 0.0
C178 C 0.94951 0.148 0.3574 0.0
C179 C 0.95822 0.13253 0.32138 0.0
H180 H 0.01826 0.05163 0.17293 0.0
H181 H 0.04104 0.07244 0.20427 0.0
H182 H 0.04127 0.06318 0.13828 0.0
H183 H 0.11104 0.11861 0.1662 0.0
H184 H 0.98676 0.21102 0.34089 0.0
H185 H 0.98232 0.1785 0.31488 0.0
H186 H 0.96703 0.2041 0.37711 0.0
H187 H 0.93964 0.13022 0.36189 0.0
C188 C 0.62406 0.40253 0.76449 0.0
C189 C 0.63029 0.4456 0.76978 0.0
C190 C 0.60975 0.42394 0.77198 0.0
C191 C 0.66461 0.44558 0.7588 0.0
C192 C 0.65963 0.40214 0.75462 0.0
C193 C 0.67925 0.42388 0.75121 0.0
N194 N 0.60467 0.38185 0.76844 0.0
C195 C 0.62138 0.36009 0.76524 0.0
C196 C 0.67516 0.37984 0.74938 0.0
C197 C 0.65633 0.35871 0.75517 0.0
Gd198 Gd 0.46059 0.38138 0.74024 0.0
Gd199 Gd 0.54434 0.38627 0.78345 0.0
N200 N 0.57635 0.42336 0.78232 0.0
C201 C 0.61621 0.46644 0.77922 0.0
C202 C 0.56359 0.44319 0.79266 0.0
C203 C 0.58307 0.46512 0.79104 0.0
H204 H 0.53784 0.44213 0.80165 0.0
H205 H 0.57241 0.48099 0.79879 0.0
H206 H 0.4926 0.33688 0.70865 0.0
H207 H 0.60796 0.34373 0.77063 0.0
H208 H 0.48264 0.29333 0.70405 0.0
H209 H 0.63118 0.48345 0.77792 0.0
H210 H 0.68059 0.4621 0.75666 0.0
H211 H 0.38532 0.40182 0.76531 0.0
H212 H 0.70244 0.37874 0.7418 0.0
H213 H 0.66898 0.34137 0.75222 0.0
H214 H 0.37516 0.2754 0.74705 0.0
H215 H 0.70638 0.42399 0.7434 0.0
H216 H 0.31301 0.34187 0.7799 0.0
H217 H 0.32682 0.3856 0.78148 0.0
N218 N 0.40398 0.36758 0.75503 0.0
C219 C 0.39597 0.34377 0.753 0.0
C220 C 0.37913 0.38276 0.76448 0.0
C221 C 0.33843 0.34893 0.77267 0.0
C222 C 0.34614 0.37363 0.77362 0.0
C223 C 0.36331 0.33368 0.76212 0.0
H224 H 0.33186 0.30064 0.76746 0.0
N225 N 0.45075 0.34032 0.73228 0.0
C226 C 0.42053 0.32962 0.74162 0.0
C227 C 0.43637 0.29154 0.72581 0.0
C228 C 0.41282 0.30488 0.73889 0.0
C229 C 0.47155 0.32786 0.71801 0.0
C230 C 0.46538 0.30322 0.71498 0.0
O231 O 0.5339 0.41676 0.7606 0.0
O232 O 0.51691 0.39712 0.73073 0.0
O233 O 0.43487 0.37797 0.7095 0.0
O234 O 0.431 0.41145 0.72636 0.0
O235 O 0.48937 0.40466 0.79158 0.0
O236 O 0.45843 0.4147 0.76067 0.0
O237 O 0.45266 0.36926 0.77375 0.0
O238 O 0.50935 0.35232 0.7813 0.0
O239 O 0.5306 0.38895 0.81633 0.0
O240 O 0.58509 0.37567 0.80708 0.0
O241 O 0.51852 0.3671 0.73161 0.0
O242 O 0.54209 0.35303 0.76281 0.0
C243 C 0.5335 0.41522 0.7402 0.0
C244 C 0.46589 0.41814 0.78067 0.0
C245 C 0.43844 0.41369 0.68972 0.0
C246 C 0.43707 0.41872 0.65181 0.0
C247 C 0.4777 0.44422 0.67321 0.0
C248 C 0.4652 0.43243 0.69113 0.0
C249 C 0.46377 0.43749 0.6537 0.0
C250 C 0.42441 0.40694 0.67002 0.0
C251 C 0.42595 0.4006 0.70857 0.0
C252 C 0.38124 0.29445 0.74873 0.0
C253 C 0.3565 0.30883 0.7603 0.0
H254 H 0.43143 0.27249 0.72329 0.0
C255 C 0.47245 0.35229 0.78267 0.0
C256 C 0.54036 0.35245 0.7423 0.0
C257 C 0.55854 0.35992 0.83789 0.0
C258 C 0.56627 0.34554 0.87362 0.0
C259 C 0.53805 0.31958 0.84718 0.0
C260 C 0.54252 0.33769 0.83229 0.0
C261 C 0.5498 0.32343 0.86772 0.0
C262 C 0.57045 0.36377 0.85851 0.0
C263 C 0.5621 0.3794 0.82251 0.0
H264 H 0.49831 0.45863 0.67444 0.0
H265 H 0.47658 0.43797 0.70607 0.0
H266 H 0.47364 0.44722 0.6401 0.0
H267 H 0.40424 0.39223 0.66888 0.0
H268 H 0.52555 0.30248 0.84277 0.0
H269 H 0.53347 0.33437 0.81645 0.0
H270 H 0.54651 0.30895 0.8789 0.0
H271 H 0.58243 0.38109 0.86281 0.0
C272 C 0.88087 0.85838 0.7631 0.0
C273 C 0.88633 0.81528 0.76844 0.0
C274 C 0.90174 0.83872 0.76989 0.0
C275 C 0.85024 0.81188 0.75976 0.0
C276 C 0.84461 0.85502 0.75441 0.0
C277 C 0.82946 0.83167 0.75277 0.0
N278 N 0.89674 0.88071 0.76418 0.0
C279 C 0.87765 0.90049 0.75744 0.0
C280 C 0.82494 0.87521 0.74728 0.0
C281 C 0.8415 0.89804 0.74886 0.0
Gd282 Gd 0.0438 0.88447 0.7373 0.0
Gd283 Gd 0.95748 0.88298 0.77844 0.0
N284 N 0.9371 0.84249 0.77774 0.0
C285 C 0.90752 0.79596 0.77593 0.0
C286 C 0.95643 0.82391 0.78655 0.0
C287 C 0.94244 0.80035 0.78534 0.0
H288 H 0.98194 0.82709 0.79521 0.0
H289 H 0.9583 0.78565 0.79203 0.0
H290 H 0.03098 0.944 0.73025 0.0
H291 H 0.89017 0.9182 0.75883 0.0
H292 H 0.06691 0.98169 0.73499 0.0
H293 H 0.89671 0.77769 0.77507 0.0
H294 H 0.83806 0.79399 0.75847 0.0
H295 H 0.10418 0.83978 0.74705 0.0
H296 H 0.79704 0.87336 0.74049 0.0
H297 H 0.82645 0.91375 0.74346 0.0
H298 H 0.18931 0.95576 0.75771 0.0
H299 H 0.80171 0.82872 0.74605 0.0
H300 H 0.21036 0.87097 0.76482 0.0
H301 H 0.17014 0.83498 0.75896 0.0
N302 N 0.10657 0.87794 0.74732 0.0
C303 C 0.12844 0.89794 0.74987 0.0
C304 C 0.12122 0.85554 0.75017 0.0
C305 C 0.18133 0.87316 0.75983 0.0
C306 C 0.15869 0.85279 0.75661 0.0
C307 C 0.16638 0.89609 0.75634 0.0
H308 H 0.21729 0.91603 0.76419 0.0
N309 N 0.07563 0.92157 0.74053 0.0
C310 C 0.11268 0.92039 0.74615 0.0
C311 C 0.11754 0.96378 0.74506 0.0
C312 C 0.13445 0.9415 0.74888 0.0
C313 C 0.05951 0.94315 0.73591 0.0
C314 C 0.08002 0.96457 0.73836 0.0
O315 O 0.94879 0.87037 0.74512 0.0
O316 O 0.00462 0.8522 0.73723 0.0
O317 O 0.03758 0.89474 0.70483 0.0
O318 O 0.07877 0.86801 0.71344 0.0
O319 O 0.01359 0.86613 0.78741 0.0
O320 O 0.03675 0.85095 0.75659 0.0
O321 O 0.0537 0.9022 0.76884 0.0
O322 O 0.99571 0.9155 0.7805 0.0
O323 O 0.95443 0.87482 0.81154 0.0
O324 O 0.91683 0.9011 0.79826 0.0
O325 O 0.99076 0.90549 0.72958 0.0
O326 O 0.96195 0.91769 0.76033 0.0
C327 C 0.96777 0.85352 0.73551 0.0
C328 C 0.03562 0.85128 0.77706 0.0
C329 C 0.05047 0.86445 0.6803 0.0
C330 C 0.05318 0.85561 0.64304 0.0
C331 C 0.01135 0.83261 0.66573 0.0
C332 C 0.02362 0.84605 0.68284 0.0
C333 C 0.0259 0.83737 0.64592 0.0
C334 C 0.06541 0.8691 0.66041 0.0
C335 C 0.0623 0.87926 0.69818 0.0
C336 C 0.1722 0.93973 0.75545 0.0
C337 C 0.18812 0.91709 0.75916 0.0
H338 H 0.13328 0.98042 0.74704 0.0
C339 C 0.03277 0.91684 0.77998 0.0
C340 C 0.96873 0.92012 0.74021 0.0
C341 C 0.93671 0.90707 0.83304 0.0
C342 C 0.93405 0.91501 0.87051 0.0
C343 C 0.96446 0.94368 0.84709 0.0
C344 C 0.95602 0.92892 0.8301 0.0
C345 C 0.95364 0.93681 0.86717 0.0
C346 C 0.92569 0.90019 0.85324 0.0
C347 C 0.92892 0.89101 0.81528 0.0
H348 H 0.99052 0.81845 0.66784 0.0
H349 H 0.01217 0.84213 0.69803 0.0
H350 H 0.01621 0.82655 0.63289 0.0
H351 H 0.08602 0.88344 0.65841 0.0
H352 H 0.97932 0.96054 0.84467 0.0
H353 H 0.96449 0.93455 0.81466 0.0
H354 H 0.96012 0.94876 0.88005 0.0
H355 H 0.91114 0.88316 0.85552 0.0
C356 C 0.62519 0.66544 0.26875 0.0
C357 C 0.61107 0.70397 0.28444 0.0
C358 C 0.6017 0.67962 0.28076 0.0
C359 C 0.64326 0.71405 0.27493 0.0
C360 C 0.65853 0.67509 0.26002 0.0
C361 C 0.667 0.69962 0.26278 0.0
N362 N 0.61578 0.64195 0.26597 0.0
C363 C 0.63969 0.62658 0.25604 0.0
C364 C 0.68252 0.65969 0.249 0.0
C365 C 0.67328 0.63526 0.24724 0.0
Gd366 Gd 0.47188 0.62544 0.23896 0.0
Gd367 Gd 0.55877 0.62879 0.28064 0.0
N368 N 0.57107 0.66921 0.28992 0.0
C369 C 0.58862 0.7172 0.29818 0.0
C370 C 0.55135 0.68141 0.3048 0.0
C371 C 0.55909 0.70572 0.30873 0.0
H372 H 0.52997 0.67243 0.31396 0.0
H373 H 0.54268 0.71545 0.32015 0.0
H374 H 0.47823 0.57039 0.21913 0.0
H375 H 0.63238 0.60772 0.25462 0.0
H376 H 0.44475 0.53113 0.22151 0.0
H377 H 0.59484 0.73596 0.30143 0.0
H378 H 0.65065 0.7328 0.27738 0.0
H379 H 0.40942 0.66636 0.25668 0.0
H380 H 0.70843 0.6664 0.24207 0.0
H381 H 0.6919 0.62315 0.23902 0.0
H382 H 0.34133 0.54664 0.26809 0.0
H383 H 0.6922 0.70748 0.25595 0.0
H384 H 0.32015 0.62868 0.28782 0.0
H385 H 0.35135 0.66697 0.27781 0.0
N386 N 0.41415 0.62824 0.25714 0.0
C387 C 0.39573 0.60713 0.26089 0.0
C388 C 0.39741 0.64957 0.262 0.0
C389 C 0.34636 0.62832 0.27911 0.0
C390 C 0.36394 0.64996 0.27357 0.0
C391 C 0.36154 0.60655 0.27216 0.0
H392 H 0.31671 0.58362 0.28412 0.0
N393 N 0.44169 0.58774 0.24052 0.0
C394 C 0.40949 0.58629 0.25195 0.0
C395 C 0.40292 0.54421 0.24308 0.0
C396 C 0.38962 0.56435 0.2539 0.0
C397 C 0.45371 0.56858 0.22902 0.0
C398 C 0.43475 0.54644 0.23031 0.0
O399 O 0.56612 0.64186 0.24738 0.0
O400 O 0.50908 0.65867 0.23945 0.0
O401 O 0.47792 0.62239 0.20522 0.0
O402 O 0.42869 0.63925 0.21821 0.0
O403 O 0.50195 0.64418 0.28987 0.0
O404 O 0.477 0.65886 0.25922 0.0
O405 O 0.48441 0.59473 0.26129 0.0
O406 O 0.50218 0.61438 0.29087 0.0
O407 O 0.5865 0.63025 0.31096 0.0
O408 O 0.58586 0.59713 0.2934 0.0
O409 O 0.52641 0.60798 0.22873 0.0
O410 O 0.55895 0.59657 0.2588 0.0
C411 C 0.54612 0.65872 0.23837 0.0
C412 C 0.481 0.65972 0.27963 0.0
C413 C 0.42034 0.61745 0.18701 0.0
C414 C 0.39941 0.60816 0.15157 0.0
C415 C 0.37186 0.58705 0.18116 0.0
C416 C 0.3944 0.60045 0.19475 0.0
C417 C 0.37436 0.59079 0.15971 0.0
C418 C 0.42256 0.62141 0.16538 0.0
C419 C 0.44473 0.63128 0.20139 0.0
C420 C 0.35673 0.56341 0.26612 0.0
C421 C 0.34277 0.58446 0.27529 0.0
H422 H 0.38837 0.52703 0.24412 0.0
C423 C 0.48559 0.59614 0.28168 0.0
C424 C 0.55027 0.59394 0.23883 0.0
C425 C 0.581 0.59413 0.33022 0.0
C426 C 0.58227 0.58953 0.36821 0.0
C427 C 0.54371 0.56269 0.34688 0.0
C428 C 0.55564 0.5746 0.32889 0.0
C429 C 0.55685 0.57004 0.36639 0.0
C430 C 0.59433 0.60144 0.34994 0.0
C431 C 0.59315 0.60727 0.31128 0.0
H432 H 0.35202 0.57394 0.18729 0.0
H433 H 0.39116 0.59767 0.2113 0.0
H434 H 0.35591 0.58054 0.14951 0.0
H435 H 0.44223 0.63472 0.15934 0.0
H436 H 0.5242 0.54766 0.34569 0.0
H437 H 0.54491 0.56851 0.31397 0.0
H438 H 0.54746 0.56023 0.38005 0.0
H439 H 0.61356 0.61666 0.35104 0.0
H440 H 0.17489 0.89454 0.35945 0.0
H441 H 0.15594 0.9276 0.33656 0.0
H442 H 0.17876 0.97848 0.38583 0.0
H443 H 0.19867 0.94561 0.40864 0.0
H444 H 0.09718 0.96002 0.34363 0.0
H445 H 0.23454 0.00783 0.33557 0.0
H446 H 0.23084 0.97726 0.34501 0.0
H447 H 0.22092 1.00209 0.36209 0.0
C448 C 0.17646 0.9128 0.36531 0.0
C449 C 0.18841 0.91746 0.38586 0.0
C450 C 0.16543 0.93165 0.35225 0.0
C451 C 0.16646 0.95551 0.3594 0.0
C452 C 0.17842 0.96024 0.37987 0.0
H453 H 0.04933 0.08167 0.32057 0.0
H454 H 0.07742 0.04737 0.3383 0.0
C455 C 0.18936 0.94141 0.39297 0.0
C456 C 0.15311 0.97533 0.34585 0.0
H457 H 0.17973 0.02895 0.32403 0.0
C458 C 0.11533 0.97497 0.33919 0.0
C459 C 0.17694 0.99471 0.3399 0.0
C460 C 0.21817 0.99548 0.34583 0.0
C461 C 0.10038 0.99391 0.32737 0.0
C462 C 0.12379 0.01372 0.32218 0.0
C463 C 0.16188 0.01375 0.32819 0.0
C464 C 0.10845 0.03504 0.31138 0.0
C465 C 0.05954 0.99283 0.32067 0.0
C466 C 0.11726 0.03967 0.29044 0.0
C467 C 0.10102 0.05927 0.28011 0.0
C468 C 0.07596 0.07462 0.29066 0.0
C469 C 0.06825 0.07021 0.31185 0.0
C470 C 0.08424 0.05058 0.32207 0.0
H471 H 0.04728 0.97448 0.32252 0.0
H472 H 0.04285 0.00547 0.33032 0.0
H473 H 0.05663 0.99844 0.30412 0.0
H474 H 0.13605 0.02785 0.282 0.0
H475 H 0.10773 0.06216 0.26383 0.0
H476 H 0.32611 0.57134 0.90696 0.0
H477 H 0.34652 0.53797 0.88479 0.0
H478 H 0.3774 0.58826 0.83642 0.0
H479 H 0.3575 0.6218 0.85861 0.0
H480 H 0.32155 0.52578 0.84203 0.0
H481 H 0.47478 0.54771 0.84887 0.0
H482 H 0.44013 0.5591 0.86695 0.0
H483 H 0.44411 0.57192 0.84137 0.0
C484 C 0.33742 0.5753 0.89164 0.0
C485 C 0.34047 0.59921 0.88458 0.0
C486 C 0.34878 0.55622 0.87895 0.0
C487 C 0.3637 0.5607 0.85907 0.0
C488 C 0.36621 0.58448 0.8518 0.0
H489 H 0.41787 0.45209 0.76446 0.0
H490 H 0.39119 0.48698 0.78246 0.0
C491 C 0.35463 0.60358 0.86443 0.0
C492 C 0.37747 0.54046 0.84619 0.0
H493 H 0.45802 0.51488 0.82746 0.0
C494 C 0.35134 0.52342 0.83871 0.0
C495 C 0.41638 0.53742 0.84209 0.0
C496 C 0.44566 0.55486 0.85032 0.0
C497 C 0.36318 0.50327 0.82725 0.0
C498 C 0.4021 0.50024 0.82315 0.0
C499 C 0.42817 0.51737 0.83055 0.0
C500 C 0.41673 0.47873 0.81224 0.0
C501 C 0.3342 0.48502 0.82011 0.0
C502 C 0.44001 0.46265 0.82301 0.0
C503 C 0.45524 0.44275 0.81285 0.0
C504 C 0.44781 0.4386 0.79158 0.0
C505 C 0.42412 0.45467 0.78084 0.0
C506 C 0.40874 0.47459 0.7911 0.0
H507 H 0.30633 0.48778 0.82766 0.0
H508 H 0.33041 0.48657 0.80299 0.0
H509 H 0.34391 0.46646 0.82354 0.0
H510 H 0.44652 0.46555 0.83934 0.0
H511 H 0.47326 0.43081 0.82168 0.0
H512 H 0.66497 0.60893 0.65472 0.0
H513 H 0.64025 0.57641 0.67666 0.0
H514 H 0.66375 0.52512 0.62799 0.0
H515 H 0.68986 0.55731 0.60631 0.0
H516 H 0.58015 0.54632 0.6688 0.0
H517 H 0.71079 0.49292 0.67838 0.0
H518 H 0.71127 0.52335 0.66851 0.0
H519 H 0.69896 0.49865 0.65163 0.0
C520 C 0.66552 0.59068 0.64882 0.0
C521 C 0.67952 0.58576 0.62875 0.0
C522 C 0.65112 0.57213 0.66133 0.0
C523 C 0.65062 0.54827 0.6541 0.0
C524 C 0.66453 0.5433 0.63409 0.0
H525 H 0.56095 0.41247 0.70051 0.0
H526 H 0.58892 0.44505 0.67968 0.0
C527 C 0.679 0.5618 0.62159 0.0
C528 C 0.6341 0.52874 0.66713 0.0
H529 H 0.65339 0.47425 0.68934 0.0
C530 C 0.59623 0.53064 0.6734 0.0
C531 C 0.6551 0.50827 0.67311 0.0
C532 C 0.69638 0.50572 0.66775 0.0
C533 C 0.57858 0.51241 0.68513 0.0
C534 C 0.5995 0.49186 0.69095 0.0
C535 C 0.63738 0.48998 0.68475 0.0
C536 C 0.58263 0.47219 0.7036 0.0
C537 C 0.53748 0.5151 0.69085 0.0
C538 C 0.57008 0.47663 0.72398 0.0
C539 C 0.55399 0.45811 0.73583 0.0
C540 C 0.55055 0.43476 0.72763 0.0
C541 C 0.56326 0.43031 0.70724 0.0
C542 C 0.57935 0.44885 0.69537 0.0
H543 H 0.5231 0.52851 0.6808 0.0
H544 H 0.52222 0.49765 0.68959 0.0
H545 H 0.53542 0.52135 0.70724 0.0
H546 H 0.57275 0.49443 0.73073 0.0
H547 H 0.54375 0.46218 0.75131 0.0
H548 H 0.83182 0.9499 0.10967 0.0
H549 H 0.85785 0.98261 0.13095 0.0
H550 H 0.88492 0.93191 0.17953 0.0
H551 H 0.8598 0.89896 0.15812 0.0
H552 H 0.83711 0.99781 0.17162 0.0
H553 H 0.98601 0.96691 0.16832 0.0
H554 H 0.95001 0.95566 0.15084 0.0
H555 H 0.9525 0.94472 0.17716 0.0
C556 C 0.8436 0.94566 0.12482 0.0
C557 C 0.84406 0.92177 0.13212 0.0
C558 C 0.85821 0.9644 0.137 0.0
C559 C 0.8738 0.95964 0.15668 0.0
C560 C 0.87357 0.93592 0.16424 0.0
H561 H 0.98136 0.04914 0.25084 0.0
H562 H 0.95212 0.01622 0.23108 0.0
C563 C 0.85887 0.91715 0.15208 0.0
C564 C 0.89037 0.97952 0.1692 0.0
H565 H 0.97317 1.0001 0.19027 0.0
C566 C 0.86686 0.99836 0.17568 0.0
C567 C 0.9292 0.98017 0.17445 0.0
C568 C 0.95606 0.96092 0.16721 0.0
C569 C 0.88108 0.01768 0.18752 0.0
C570 C 0.91991 0.01834 0.19269 0.0
C571 C 0.94339 0.99949 0.18628 0.0
C572 C 0.93679 0.03846 0.20475 0.0
C573 C 0.85439 0.03702 0.19476 0.0
C574 C 0.93815 0.06181 0.19639 0.0
C575 C 0.95462 0.08066 0.20772 0.0
C576 C 0.96994 0.07644 0.22759 0.0
C577 C 0.96898 0.05299 0.23578 0.0
C578 C 0.95257 0.03416 0.22445 0.0
H579 H 0.82439 0.03118 0.19357 0.0
H580 H 0.86044 0.04217 0.21117 0.0
H581 H 0.85826 0.05327 0.18491 0.0
H582 H 0.92675 0.0654 0.18103 0.0
H583 H 0.95521 0.09855 0.20099 0.0
H584 H 0.85033 0.11938 0.65987 0.0
H585 H 0.8714 0.08577 0.68155 0.0
H586 H 0.8556 0.03712 0.62993 0.0
H587 H 0.83325 0.07039 0.60824 0.0
H588 H 0.8271 0.03498 0.68668 0.0
H589 H 0.97257 0.0347 0.65353 0.0
H590 H 0.94411 0.06159 0.65409 0.0
H591 H 0.93312 0.03799 0.63598 0.0
C592 C 0.85072 0.10149 0.65317 0.0
C593 C 0.84011 0.09765 0.63225 0.0
C594 C 0.86296 0.08235 0.66557 0.0
C595 C 0.86511 0.05908 0.65727 0.0
C596 C 0.85427 0.05504 0.63653 0.0
H597 H 0.96074 0.92491 0.69813 0.0
H598 H 0.93367 0.95857 0.67898 0.0
C599 C 0.84179 0.07412 0.62414 0.0
C600 C 0.87955 0.03905 0.67011 0.0
H601 H 0.95753 1.00445 0.67788 0.0
C602 C 0.85562 0.02828 0.68487 0.0
C603 C 0.91667 0.03044 0.66757 0.0
C604 C 0.94339 0.04174 0.65202 0.0
C605 C 0.86771 0.00864 0.69694 0.0
C606 C 0.90503 1.00003 0.69447 0.0
C607 C 0.92896 0.01105 0.67978 0.0
C608 C 0.91971 0.97922 0.70649 0.0
C609 C 0.84006 0.99687 0.71172 0.0
C610 C 0.9209 0.97957 0.72839 0.0
C611 C 0.93612 0.96017 0.73944 0.0
C612 C 0.95094 0.94025 0.72877 0.0
C613 C 0.94969 0.93999 0.70685 0.0
C614 C 0.93421 0.95924 0.69586 0.0
H615 H 0.81036 1.00117 0.70759 0.0
H616 H 0.84334 0.977 0.71177 0.0
H617 H 0.84538 1.00359 0.72775 0.0
H618 H 0.91075 0.99504 0.73693 0.0
H619 H 0.93704 0.96104 0.75631 0.0
H620 H 0.68646 0.44099 0.10974 0.0
H621 H 0.6652 0.47475 0.13122 0.0
H622 H 0.63927 0.42575 0.18142 0.0
H623 H 0.66007 0.39183 0.15995 0.0
H624 H 0.58063 0.46004 0.17099 0.0
H625 H 0.72114 0.50301 0.18334 0.0
H626 H 0.70958 0.49595 0.15671 0.0
H627 H 0.71567 0.47204 0.17522 0.0
C628 C 0.67608 0.43739 0.12532 0.0
C629 C 0.675 0.41376 0.13318 0.0
C630 C 0.66429 0.45671 0.13762 0.0
C631 C 0.65114 0.45273 0.15797 0.0
C632 C 0.64962 0.42917 0.1658 0.0
H633 H 0.60027 0.56012 0.25315 0.0
H634 H 0.62536 0.52553 0.2341 0.0
C635 C 0.66165 0.40986 0.15356 0.0
C636 C 0.63801 0.47313 0.17088 0.0
H637 H 0.66754 0.52519 0.1943 0.0
C638 C 0.59962 0.47424 0.17618 0.0
C639 C 0.66298 0.49145 0.17778 0.0
C640 C 0.70473 0.49058 0.17316 0.0
C641 C 0.58532 0.49357 0.18777 0.0
C642 C 0.61007 0.51229 0.19409 0.0
C643 C 0.64864 0.51087 0.18928 0.0
C644 C 0.59613 0.53369 0.20537 0.0
C645 C 0.54387 0.49386 0.19322 0.0
C646 C 0.57208 0.54995 0.19534 0.0
C647 C 0.5579 0.56979 0.20608 0.0
C648 C 0.56736 0.57371 0.22714 0.0
C649 C 0.59224 0.55764 0.237 0.0
C650 C 0.60662 0.53785 0.22616 0.0
H651 H 0.53048 0.47586 0.19123 0.0
H652 H 0.53968 0.49989 0.20957 0.0
H653 H 0.52912 0.50674 0.18284 0.0
H654 H 0.56412 0.54721 0.17919 0.0
H655 H 0.53906 0.58183 0.19789 0.0
H656 H 0.39649 0.42461 0.40794 0.0
H657 H 0.42202 0.4578 0.38741 0.0
H658 H 0.32053 0.45863 0.35017 0.0
H659 H 0.29361 0.42641 0.37157 0.0
H660 H 0.43937 0.46117 0.34778 0.0
H661 H 0.32892 0.52844 0.36519 0.0
H662 H 0.33217 0.50026 0.37902 0.0
H663 H 0.31007 0.50145 0.35375 0.0
C664 C 0.37917 0.43211 0.39566 0.0
C665 C 0.34264 0.42299 0.39169 0.0
C666 C 0.39403 0.45098 0.38377 0.0
C667 C 0.37295 0.46111 0.36749 0.0
C668 C 0.33697 0.45159 0.36301 0.0
H669 H 0.47347 0.54956 0.27004 0.0
H670 H 0.4451 0.51719 0.29057 0.0
C671 C 0.32184 0.43287 0.37508 0.0
C672 C 0.38921 0.48125 0.35503 0.0
H673 H 0.37294 0.53877 0.33857 0.0
C674 C 0.42487 0.47816 0.34585 0.0
C675 C 0.37064 0.50361 0.35276 0.0
C676 C 0.33353 0.50878 0.36338 0.0
C677 C 0.44228 0.49665 0.33434 0.0
C678 C 0.42299 0.51862 0.33133 0.0
C679 C 0.38754 0.52184 0.34069 0.0
C680 C 0.43917 0.53852 0.31862 0.0
C681 C 0.48156 0.49257 0.32594 0.0
C682 C 0.44408 0.56158 0.32726 0.0
C683 C 0.45926 0.58034 0.31528 0.0
C684 C 0.46971 0.57637 0.29444 0.0
C685 C 0.46491 0.55329 0.28588 0.0
C686 C 0.4493 0.53465 0.29774 0.0
H687 H 0.49662 0.47849 0.33495 0.0
H688 H 0.47955 0.48636 0.30953 0.0
H689 H 0.49871 0.50937 0.32633 0.0
H690 H 0.43644 0.56501 0.34333 0.0
H691 H 0.4627 0.59795 0.32232 0.0
H692 H 0.1945 0.05954 0.91152 0.0
H693 H 0.17018 0.02689 0.88964 0.0
H694 H 0.14547 0.07778 0.84082 0.0
H695 H 0.16957 0.11062 0.86267 0.0
H696 H 0.0977 0.02219 0.87417 0.0
H697 H 0.20195 0.02474 0.80961 0.0
H698 H 0.21009 0.03956 0.83428 0.0
H699 H 0.18021 0.05319 0.815 0.0
C700 C 0.1839 0.06381 0.89612 0.0
C701 C 0.18388 0.08773 0.88887 0.0
C702 C 0.17019 0.0451 0.8836 0.0
C703 C 0.15639 0.04983 0.86351 0.0
C704 C 0.15672 0.07362 0.8561 0.0
H705 H 0.00281 0.95975 0.79211 0.0
H706 H 0.0334 0.99169 0.81232 0.0
C707 C 0.17048 0.09238 0.86862 0.0
C708 C 0.13975 0.03003 0.85085 0.0
H709 H 0.14737 1.00016 0.80447 0.0
C710 C 0.10867 0.01731 0.85897 0.0
C711 C 0.15432 0.02352 0.83111 0.0
C712 C 0.1887 0.03579 0.82202 0.0
C713 C 0.09134 0.99855 0.84776 0.0
C714 C 0.10512 0.99256 0.82773 0.0
C715 C 0.13666 0.00494 0.81975 0.0
C716 C 0.08705 0.97348 0.81488 0.0
C717 C 0.05863 0.98516 0.85756 0.0
C718 C 0.10738 0.95291 0.8091 0.0
C719 C 0.08982 0.93449 0.7977 0.0
C720 C 0.05172 0.93642 0.79174 0.0
C721 C 0.03185 0.95739 0.79699 0.0
C722 C 0.04933 0.97572 0.80846 0.0
H723 H 0.05832 0.98732 0.87478 0.0
H724 H 0.03177 0.99248 0.85137 0.0
H725 H 0.05959 0.96566 0.85383 0.0
H726 H 0.13661 0.95091 0.81376 0.0
H727 H 0.10594 0.91861 0.79382 0.0
H728 H 0.24158 0.13587 0.97165 0.0
H729 H 0.22322 0.13223 1.00842 0.0
H730 H 0.10959 0.11375 0.98981 0.0
H731 H 0.12775 0.11716 0.95316 0.0
H732 H 0.16865 0.15487 0.03259 0.0
H733 H 0.13832 0.05712 0.02655 0.0
H734 H 0.16315 0.07355 1.00647 0.0
H735 H 0.11243 0.07469 1.00799 0.0
C736 C 0.2126 0.13125 0.97542 0.0
C737 C 0.18623 0.12648 0.9595 0.0
C738 C 0.20219 0.12911 0.99643 0.0
C739 C 0.16525 0.12217 1.00186 0.0
C740 C 0.13851 0.11845 0.98599 0.0
H741 H 0.03667 0.09513 0.11344 0.0
H742 H 0.05959 0.1037 0.07829 0.0
C743 C 0.14892 0.12044 0.96505 0.0
C744 C 0.15463 0.1184 0.02406 0.0
H745 H 0.11778 0.07659 0.05755 0.0
C746 C 0.15782 0.13772 0.03811 0.0
C747 C 0.14073 0.09594 0.03129 0.0
C748 C 0.13878 0.07407 0.01735 0.0
C749 C 0.14625 0.13537 0.05901 0.0
C750 C 0.13143 0.1131 0.06603 0.0
C751 C 0.12889 0.0937 0.05208 0.0
C752 C 0.11763 0.1095 0.08766 0.0
C753 C 0.14892 0.15688 0.07329 0.0
C754 C 0.14268 0.10997 0.10464 0.0
C755 C 0.12973 0.10481 0.12481 0.0
C756 C 0.09147 0.099 0.12835 0.0
C757 C 0.06641 0.09909 0.11129 0.0
C758 C 0.0794 0.10415 0.09118 0.0
H759 H 0.15417 0.17384 0.06456 0.0
H760 H 0.12255 0.1588 0.0825 0.0
H761 H 0.17257 0.15425 0.08441 0.0
H762 H 0.17244 0.11368 0.10222 0.0
H763 H 0.14991 0.10462 0.1375 0.0
H764 H 0.2735 0.3763 0.47289 0.0
H765 H 0.28962 0.37963 0.51006 0.0
H766 H 0.40536 0.39537 0.49382 0.0
H767 H 0.38952 0.3922 0.45685 0.0
H768 H 0.34324 0.35585 0.53554 0.0
H769 H 0.37506 0.45341 0.5292 0.0
H770 H 0.35037 0.43694 0.50905 0.0
H771 H 0.40103 0.4355 0.51094 0.0
C772 C 0.30244 0.38021 0.47729 0.0
C773 C 0.33013 0.38436 0.46196 0.0
C774 C 0.31158 0.38217 0.4985 0.0
C775 C 0.3485 0.38829 0.50467 0.0
C776 C 0.37649 0.39126 0.4894 0.0
H777 H 0.47721 0.4147 0.61555 0.0
H778 H 0.45312 0.40605 0.58063 0.0
C779 C 0.36739 0.38943 0.46828 0.0
C780 C 0.35793 0.3922 0.52698 0.0
H781 H 0.39495 0.43398 0.56043 0.0
C782 C 0.35417 0.37298 0.54107 0.0
C783 C 0.37193 0.41464 0.53418 0.0
C784 C 0.37451 0.43638 0.52011 0.0
C785 C 0.36558 0.37536 0.562 0.0
C786 C 0.38077 0.39756 0.56896 0.0
C787 C 0.38357 0.41692 0.55499 0.0
C788 C 0.39517 0.40105 0.59047 0.0
C789 C 0.36254 0.35395 0.57637 0.0
C790 C 0.37055 0.40102 0.60761 0.0
C791 C 0.38419 0.40621 0.62764 0.0
C792 C 0.42269 0.41161 0.63084 0.0
C793 C 0.44731 0.41105 0.61363 0.0
C794 C 0.43365 0.40595 0.59367 0.0
H795 H 0.3564 0.33702 0.56774 0.0
H796 H 0.38911 0.35168 0.58536 0.0
H797 H 0.33936 0.35697 0.58769 0.0
H798 H 0.34064 0.39766 0.60542 0.0
H799 H 0.36439 0.40675 0.64048 0.0
H800 H 0.68376 0.40825 0.05761 0.0
H801 H 0.66295 0.40485 0.02132 0.0
H802 H 0.6478 0.3283 0.02905 0.0
H803 H 0.66809 0.33153 0.06541 0.0
H804 H 0.68734 0.34151 0.99244 0.0
H805 H 0.55372 0.39247 1.0012 0.0
H806 H 0.59544 0.40782 0.0103 0.0
H807 H 0.57966 0.38089 0.02324 0.0
C808 C 0.67561 0.39072 0.05167 0.0
C809 C 0.67746 0.37017 0.06448 0.0
C810 C 0.66376 0.38882 0.03092 0.0
C811 C 0.65339 0.36637 0.02259 0.0
C812 C 0.65565 0.3458 0.0352 0.0
H813 H 0.53005 0.33259 0.90967 0.0
H814 H 0.55218 0.33794 0.94554 0.0
C815 C 0.66743 0.34767 0.05595 0.0
C816 C 0.6406 0.3642 1.00064 0.0
H817 H 0.57083 0.38105 0.96693 0.0
C818 C 0.6619 0.35016 0.98683 0.0
C819 C 0.60719 0.37533 0.99345 0.0
C820 C 0.58242 0.38982 1.00782 0.0
C821 C 0.65082 0.34707 0.96596 0.0
C822 C 0.61777 0.35855 0.95868 0.0
C823 C 0.59632 0.37245 0.97253 0.0
C824 C 0.6044 0.35574 0.93689 0.0
C825 C 0.6741 0.33113 0.952 0.0
C826 C 0.6262 0.36428 0.92016 0.0
C827 C 0.61371 0.36116 0.89963 0.0
C828 C 0.57912 0.34948 0.89546 0.0
C829 C 0.55708 0.34132 0.91232 0.0
C830 C 0.56955 0.3445 0.93283 0.0
H831 H 0.69339 0.31941 0.96108 0.0
H832 H 0.65564 0.31958 0.94213 0.0
H833 H 0.69158 0.34255 0.94153 0.0
H834 H 0.65292 0.37333 0.92297 0.0
H835 H 0.63147 0.36753 0.88701 0.0
H836 H 0.89752 0.12822 0.56894 0.0
H837 H 0.91824 0.13178 0.53268 0.0
H838 H 0.80813 0.15764 0.51519 0.0
H839 H 0.78689 0.15376 0.55134 0.0
H840 H 0.88727 0.11011 0.49581 0.0
H841 H 0.88226 0.21004 0.49356 0.0
H842 H 0.88175 0.19323 0.51766 0.0
H843 H 0.83956 0.19549 0.50222 0.0
C844 C 0.87753 0.1344 0.55737 0.0
C845 C 0.84054 0.14079 0.56311 0.0
C846 C 0.8895 0.13654 0.53667 0.0
C847 C 0.86488 0.14527 0.52132 0.0
C848 C 0.8278 0.15129 0.52688 0.0
H849 H 0.89053 0.14066 0.38637 0.0
H850 H 0.87022 0.13453 0.42245 0.0
C851 C 0.81574 0.1491 0.54756 0.0
C852 C 0.87806 0.14813 0.49951 0.0
H853 H 0.8945 0.19014 0.46164 0.0
C854 C 0.88889 0.12759 0.48832 0.0
C855 C 0.88054 0.171 0.48988 0.0
C856 C 0.87074 0.19377 0.50145 0.0
C857 C 0.90165 0.12928 0.46762 0.0
C858 C 0.9033 0.15209 0.45784 0.0
C859 C 0.89294 0.17266 0.46913 0.0
C860 C 0.91618 0.15511 0.43598 0.0
C861 C 0.91385 0.10671 0.45649 0.0
C862 C 0.9485 0.16896 0.43159 0.0
C863 C 0.96027 0.17244 0.411 0.0
C864 C 0.93976 0.16229 0.39432 0.0
C865 C 0.90736 0.1484 0.39881 0.0
C866 C 0.89566 0.14489 0.41943 0.0
H867 H 0.91925 0.09172 0.46755 0.0
H868 H 0.89116 0.10089 0.44562 0.0
H869 H 0.93984 0.11007 0.44721 0.0
H870 H 0.96472 0.17702 0.44414 0.0
H871 H 0.98561 0.18296 0.40816 0.0
H872 H 0.89378 0.89299 0.06668 0.0
H873 H 0.90928 0.89508 0.02962 0.0
H874 H 0.79604 0.87226 0.01407 0.0
H875 H 0.77982 0.87099 0.05118 0.0
H876 H 0.90736 0.86012 0.99873 0.0
H877 H 0.80798 0.9343 0.98056 0.0
H878 H 0.82015 0.92611 1.00694 0.0
H879 H 0.78671 0.90826 0.99244 0.0
C880 C 0.87201 0.88863 0.0554 0.0
C881 C 0.83538 0.88213 0.06193 0.0
C882 C 0.88103 0.88964 0.0342 0.0
C883 C 0.85366 0.88423 0.01905 0.0
C884 C 0.8174 0.87698 0.02548 0.0
H885 H 0.86629 0.89564 0.88299 0.0
H886 H 0.84625 0.88567 0.91855 0.0
C887 C 0.80831 0.876 0.04671 0.0
C888 C 0.86322 0.88649 0.99658 0.0
H889 H 0.84195 0.91793 0.95235 0.0
C890 C 0.89299 0.8727 0.98857 0.0
C891 C 0.84441 0.90291 0.98333 0.0
C892 C 0.81325 0.91892 0.99123 0.0
C893 C 0.90454 0.87495 0.9677 0.0
C894 C 0.88619 0.89168 0.95458 0.0
C895 C 0.85591 0.90509 0.96245 0.0
C896 C 0.89905 0.89638 0.93292 0.0
C897 C 0.93618 0.85932 0.95985 0.0
C898 C 0.93533 0.90578 0.92921 0.0
C899 C 0.94686 0.91146 0.90894 0.0
C900 C 0.92228 0.90794 0.89195 0.0
C901 C 0.88605 0.8983 0.89569 0.0
C902 C 0.87448 0.89271 0.91601 0.0
H903 H 0.93994 0.8431 0.96976 0.0
H904 H 0.93092 0.85347 0.94355 0.0
H905 H 0.963 0.86978 0.96018 0.0
H906 H 0.95453 0.90915 0.94205 0.0
H907 H 0.97505 0.91866 0.90659 0.0
H908 H 0.62982 0.61463 0.56285 0.0
H909 H 0.61418 0.61247 0.52574 0.0
H910 H 0.72868 0.63225 0.5101 0.0
H911 H 0.74482 0.63397 0.54728 0.0
H912 H 0.62114 0.64888 0.49413 0.0
H913 H 0.70964 0.56864 0.47775 0.0
H914 H 0.69675 0.57737 0.50389 0.0
H915 H 0.73304 0.59362 0.4902 0.0
C916 C 0.65178 0.61837 0.55152 0.0
C917 C 0.68869 0.62423 0.55802 0.0
C918 C 0.64271 0.61729 0.53033 0.0
C919 C 0.67037 0.62189 0.51517 0.0
C920 C 0.70704 0.6283 0.52155 0.0
H921 H 0.65416 0.60308 0.37963 0.0
H922 H 0.67693 0.61379 0.41454 0.0
C923 C 0.71612 0.62948 0.54279 0.0
C924 C 0.66065 0.61964 0.49273 0.0
H925 H 0.67637 0.58528 0.44948 0.0
C926 C 0.63333 0.63506 0.48431 0.0
C927 C 0.67675 0.60168 0.47995 0.0
C928 C 0.70548 0.58422 0.48835 0.0
C929 C 0.62144 0.63288 0.46349 0.0
C930 C 0.63667 0.61442 0.45087 0.0
C931 C 0.66471 0.59941 0.45915 0.0
C932 C 0.62249 0.6095 0.42945 0.0
C933 C 0.59281 0.65045 0.45518 0.0
C934 C 0.58435 0.60349 0.42622 0.0
C935 C 0.57123 0.59754 0.40631 0.0
C936 C 0.59604 0.5972 0.38917 0.0
C937 C 0.6342 0.60344 0.39241 0.0
C938 C 0.64731 0.60942 0.41238 0.0
H939 H 0.5932 0.66755 0.46417 0.0
H940 H 0.59805 0.65463 0.43849 0.0
H941 H 0.56412 0.64245 0.45661 0.0
H942 H 0.5648 0.60293 0.43919 0.0
H943 H 0.54161 0.59307 0.40436 0.0
H944 H 0.2869 0.65284 0.96602 0.0
H945 H 0.30329 0.65098 1.00296 0.0
H946 H 0.41193 0.62133 0.98732 0.0
H947 H 0.39656 0.62426 0.95027 0.0
H948 H 0.31776 0.61155 0.02532 0.0
H949 H 0.44206 0.67254 0.02888 0.0
H950 H 0.4108 0.67143 1.00665 0.0
H951 H 0.44703 0.64914 0.00981 0.0
C952 C 0.31465 0.64645 0.97036 0.0
C953 C 0.34042 0.63876 0.95509 0.0
C954 C 0.32387 0.64523 0.99153 0.0
C955 C 0.35903 0.63632 0.99794 0.0
C956 C 0.38494 0.62877 0.98277 0.0
H957 H 0.40159 0.5752 0.12004 0.0
H958 H 0.39417 0.58259 0.08266 0.0
C959 C 0.37585 0.63012 0.96157 0.0
C960 C 0.36744 0.63343 0.02051 0.0
H961 H 0.43124 0.64762 0.0587 0.0
C962 C 0.34247 0.61956 0.03262 0.0
C963 C 0.39946 0.64411 0.03011 0.0
C964 C 0.42618 0.66034 0.01825 0.0
C965 C 0.34889 0.61574 0.05395 0.0
C966 C 0.38175 0.62554 0.06336 0.0
C967 C 0.40637 0.63983 0.05139 0.0
C968 C 0.39053 0.62131 0.0857 0.0
C969 C 0.32002 0.60154 0.06625 0.0
C970 C 0.393 0.6407 0.09969 0.0
C971 C 0.39764 0.63652 0.12107 0.0
C972 C 0.39982 0.61287 0.12878 0.0
C973 C 0.39932 0.59359 0.11458 0.0
C974 C 0.39497 0.59778 0.09324 0.0
H975 H 0.29211 0.60114 0.05831 0.0
H976 H 0.32975 0.58269 0.06789 0.0
H977 H 0.31629 0.6092 0.0821 0.0
H978 H 0.38988 0.65901 0.09418 0.0
H979 H 0.39778 0.65172 0.13165 0.0
H980 H 0.23693 0.86689 0.46939 0.0
H981 H 0.21325 0.86456 0.5053 0.0
H982 H 0.10231 0.88467 0.48404 0.0
H983 H 0.12564 0.88694 0.44813 0.0
H984 H 0.16964 0.9047 0.52867 0.0
H985 H 0.09309 0.81775 0.51748 0.0
H986 H 0.13224 0.82682 0.50113 0.0
H987 H 0.08696 0.84062 0.49788 0.0
C988 C 0.20748 0.87076 0.47238 0.0
C989 C 0.18312 0.87707 0.45594 0.0
C990 C 0.19408 0.86955 0.49287 0.0
C991 C 0.15605 0.87433 0.49722 0.0
C992 C 0.13174 0.88084 0.48093 0.0
H993 H 0.0143 0.85981 0.60645 0.0
H994 H 0.04004 0.86579 0.57143 0.0
C995 C 0.14516 0.88226 0.46047 0.0
C996 C 0.14155 0.8722 0.51878 0.0
H997 H 0.08601 0.83701 0.54994 0.0
C998 C 0.15144 0.8899 0.53342 0.0
C999 C 0.11772 0.85293 0.52476 0.0
C1000 C 0.1069 0.83329 0.5096 0.0
C1001 C 0.13745 0.88907 0.55392 0.0
C1002 C 0.11377 0.86964 0.56001 0.0
C1003 C 0.10411 0.8519 0.54529 0.0
C1004 C 0.0984 0.86732 0.58148 0.0
C1005 C 0.1473 0.90936 0.56863 0.0
C1006 C 0.12261 0.86619 0.59882 0.0
C1007 C 0.10791 0.86296 0.61889 0.0
C1008 C 0.06876 0.86037 0.62193 0.0
C1009 C 0.0446 0.86154 0.60456 0.0
C1010 C 0.05927 0.86501 0.58456 0.0
H1011 H 0.15585 0.92589 0.56005 0.0
H1012 H 0.12312 0.91376 0.57893 0.0
H1013 H 0.17143 0.90388 0.57856 0.0
H1014 H 0.15294 0.86726 0.59682 0.0
H1015 H 0.12723 0.86177 0.63195 0.0
H1016 H 0.21948 0.34086 0.37033 0.0
H1017 H 0.17381 0.3138 0.35336 0.0
H1018 H 0.23812 0.25253 0.37398 0.0
H1019 H 0.28296 0.27946 0.39147 0.0
H1020 H 0.1846 0.28273 0.32225 0.0
H1021 H 0.13378 0.2317 0.39085 0.0
H1022 H 0.161 0.25914 0.3933 0.0
H1023 H 0.18425 0.23087 0.38874 0.0
C1024 C 0.22326 0.32159 0.37166 0.0
C1025 C 0.25404 0.31221 0.38283 0.0
C1026 C 0.19732 0.30615 0.36185 0.0
C1027 C 0.20191 0.28106 0.36283 0.0
C1028 C 0.23312 0.27174 0.37361 0.0
H1029 H 0.11834 0.15544 0.30005 0.0
H1030 H 0.1528 0.18631 0.31976 0.0
C1031 C 0.25885 0.28714 0.38353 0.0
C1032 C 0.17553 0.26463 0.35155 0.0
H1033 H 0.12159 0.21378 0.35738 0.0
C1034 C 0.17038 0.26788 0.33001 0.0
C1035 C 0.15678 0.24526 0.36166 0.0
C1036 C 0.1589 0.24167 0.38495 0.0
C1037 C 0.1483 0.25176 0.3182 0.0
C1038 C 0.13096 0.2319 0.32819 0.0
C1039 C 0.13523 0.22895 0.34977 0.0
C1040 C 0.10965 0.2134 0.31631 0.0
C1041 C 0.14468 0.25549 0.295 0.0
C1042 C 0.07387 0.21841 0.30798 0.0
C1043 C 0.05416 0.20079 0.29666 0.0
C1044 C 0.07007 0.17798 0.29342 0.0
C1045 C 0.10569 0.17298 0.30201 0.0
C1046 C 0.12528 0.19053 0.31337 0.0
H1047 H 0.16327 0.27024 0.28923 0.0
H1048 H 0.15185 0.23865 0.28664 0.0
H1049 H 0.11499 0.25995 0.29111 0.0
H1050 H 0.06124 0.23592 0.31024 0.0
H1051 H 0.02676 0.20513 0.29019 0.0
H1052 H 0.27487 0.21155 0.90131 0.0
H1053 H 0.30315 0.24387 0.8802 0.0
H1054 H 0.37382 0.19189 0.84938 0.0
H1055 H 0.34503 0.1596 0.87006 0.0
H1056 H 0.37671 0.25843 0.87857 0.0
H1057 H 0.33097 0.22812 0.80011 0.0
H1058 H 0.31095 0.21593 0.82377 0.0
H1059 H 0.35578 0.20538 0.81439 0.0
C1060 C 0.296 0.20706 0.88976 0.0
C1061 C 0.30724 0.18306 0.88702 0.0
C1062 C 0.31225 0.22549 0.87779 0.0
C1063 C 0.34011 0.22027 0.8629 0.0
C1064 C 0.35165 0.19631 0.86033 0.0
H1065 H 0.49473 0.30582 0.78795 0.0
H1066 H 0.462 0.27394 0.80754 0.0
C1067 C 0.33531 0.17788 0.87222 0.0
C1068 C 0.35838 0.23998 0.85076 0.0
H1069 H 0.37799 0.25909 0.8012 0.0
C1070 C 0.37671 0.25865 0.86166 0.0
C1071 C 0.35842 0.24029 0.82867 0.0
C1072 C 0.33767 0.22149 0.81603 0.0
C1073 C 0.39569 0.27729 0.85108 0.0
C1074 C 0.39615 0.27734 0.82906 0.0
C1075 C 0.37769 0.25885 0.81812 0.0
C1076 C 0.41568 0.29656 0.81716 0.0
C1077 C 0.4158 0.29661 0.86344 0.0
C1078 C 0.40031 0.31973 0.81606 0.0
C1079 C 0.41889 0.3379 0.80491 0.0
C1080 C 0.45311 0.33317 0.79467 0.0
C1081 C 0.46848 0.30996 0.79581 0.0
C1082 C 0.44977 0.29175 0.80688 0.0
H1083 H 0.41724 0.29221 0.88032 0.0
H1084 H 0.44496 0.2993 0.85745 0.0
H1085 H 0.40059 0.31389 0.86161 0.0
H1086 H 0.37391 0.32373 0.82381 0.0
H1087 H 0.40662 0.3557 0.8044 0.0
H1088 H 0.76387 0.18838 0.67206 0.0
H1089 H 0.71767 0.2134 0.69047 0.0
H1090 H 0.7053 0.25756 0.63557 0.0
H1091 H 0.75111 0.23238 0.61711 0.0
H1092 H 0.7245 0.26257 0.69841 0.0
H1093 H 0.59579 0.24324 0.65173 0.0
H1094 H 0.63747 0.22473 0.65046 0.0
H1095 H 0.63571 0.25277 0.63649 0.0
C1096 C 0.75105 0.20337 0.66396 0.0
C1097 C 0.76132 0.20875 0.64333 0.0
C1098 C 0.72472 0.21761 0.67443 0.0
C1099 C 0.70783 0.23722 0.66434 0.0
C1100 C 0.71751 0.24229 0.64356 0.0
H1101 H 0.56598 0.35574 0.7023 0.0
H1102 H 0.60599 0.32708 0.68362 0.0
C1103 C 0.74384 0.22805 0.63308 0.0
C1104 C 0.68172 0.25317 0.67591 0.0
H1105 H 0.59227 0.27595 0.67568 0.0
C1106 C 0.69548 0.26532 0.69357 0.0
C1107 C 0.64394 0.25683 0.66947 0.0
C1108 C 0.62716 0.24355 0.65111 0.0
C1109 C 0.67274 0.28143 0.70471 0.0
C1110 C 0.63508 0.2852 0.69819 0.0
C1111 C 0.6212 0.27299 0.68061 0.0
C1112 C 0.60987 0.30204 0.70934 0.0
C1113 C 0.68947 0.29494 0.72295 0.0
C1114 C 0.59828 0.29718 0.72984 0.0
C1115 C 0.57532 0.31343 0.7405 0.0
C1116 C 0.56363 0.33484 0.73084 0.0
C1117 C 0.5746 0.33939 0.71014 0.0
C1118 C 0.59746 0.32309 0.69947 0.0
H1119 H 0.72069 0.29314 0.72372 0.0
H1120 H 0.68239 0.31435 0.72192 0.0
H1121 H 0.67736 0.28781 0.73768 0.0
H1122 H 0.60704 0.28081 0.73759 0.0
H1123 H 0.56676 0.30927 0.75631 0.0
H1124 H 0.84303 0.31235 0.11324 0.0
H1125 H 0.87377 0.28084 0.13383 0.0
H1126 H 0.79983 0.29604 0.18552 0.0
H1127 H 0.76901 0.32765 0.16494 0.0
H1128 H 0.91057 0.28726 0.17349 0.0
H1129 H 0.79122 0.22173 0.17701 0.0
H1130 H 0.79346 0.24563 0.15794 0.0
H1131 H 0.78034 0.25215 0.18436 0.0
C1132 C 0.83312 0.30877 0.12892 0.0
C1133 C 0.80328 0.32211 0.13743 0.0
C1134 C 0.85072 0.29085 0.14066 0.0
C1135 C 0.83872 0.28592 0.16107 0.0
C1136 C 0.80904 0.29929 0.16966 0.0
H1137 H 0.96051 0.20437 0.25568 0.0
H1138 H 0.92515 0.23526 0.23666 0.0
C1139 C 0.79153 0.31731 0.15795 0.0
C1140 C 0.85821 0.26732 0.17358 0.0
H1141 H 0.84568 0.21253 0.19685 0.0
C1142 C 0.89641 0.27094 0.17864 0.0
C1143 C 0.83966 0.246 0.18011 0.0
C1144 C 0.79898 0.24092 0.17449 0.0
C1145 C 0.91654 0.25381 0.1902 0.0
C1146 C 0.89787 0.23263 0.19694 0.0
C1147 C 0.85975 0.22892 0.19177 0.0
C1148 C 0.91794 0.21376 0.20879 0.0
C1149 C 0.95784 0.25819 0.19476 0.0
C1150 C 0.92489 0.19136 0.19953 0.0
C1151 C 0.94505 0.17376 0.21031 0.0
C1152 C 0.95828 0.17822 0.23062 0.0
C1153 C 0.95059 0.20048 0.24004 0.0
C1154 C 0.9306 0.21814 0.22919 0.0
H1155 H 0.96962 0.27331 0.18541 0.0
H1156 H 0.96137 0.26266 0.21152 0.0
H1157 H 0.97449 0.24174 0.19153 0.0
H1158 H 0.91521 0.18764 0.18382 0.0
H1159 H 0.95032 0.15667 0.20276 0.0
H1160 H 0.72486 0.70323 0.66419 0.0
H1161 H 0.76822 0.73075 0.68222 0.0
H1162 H 0.84878 0.72324 0.63225 0.0
H1163 H 0.80492 0.6961 0.6139 0.0
H1164 H 0.84042 0.72541 0.69688 0.0
H1165 H 0.83601 0.7957 0.63539 0.0
H1166 H 0.8036 0.77051 0.63585 0.0
H1167 H 0.85093 0.76673 0.62627 0.0
C1168 C 0.75196 0.7073 0.65715 0.0
C1169 C 0.76172 0.69738 0.63774 0.0
C1170 C 0.77671 0.72303 0.66745 0.0
C1171 C 0.81157 0.72932 0.65848 0.0
C1172 C 0.82176 0.719 0.6393 0.0
H1173 H 0.9894 0.80743 0.72664 0.0
H1174 H 0.95329 0.77664 0.70763 0.0
C1175 C 0.7969 0.70334 0.62893 0.0
C1176 C 0.83672 0.74704 0.6691 0.0
H1177 H 0.87835 0.80233 0.66338 0.0
C1178 C 0.8488 0.74221 0.68954 0.0
C1179 C 0.84723 0.76912 0.65963 0.0
C1180 C 0.83353 0.776 0.63816 0.0
C1181 C 0.87105 0.75881 0.70075 0.0
C1182 C 0.88213 0.78067 0.69111 0.0
C1183 C 0.87011 0.78548 0.67067 0.0
C1184 C 0.90471 0.7993 0.70225 0.0
C1185 C 0.88155 0.7531 0.72301 0.0
C1186 C 0.88996 0.82247 0.70498 0.0
C1187 C 0.91075 0.84014 0.7155 0.0
C1188 C 0.94669 0.83499 0.7236 0.0
C1189 C 0.96175 0.8119 0.72059 0.0
C1190 C 0.941 0.79424 0.70992 0.0
H1191 H 0.86279 0.73901 0.72977 0.0
H1192 H 0.91095 0.74632 0.72347 0.0
H1193 H 0.88011 0.7694 0.73297 0.0
H1194 H 0.86211 0.82684 0.69912 0.0
H1195 H 0.89862 0.85787 0.71734 0.0
H1196 H 0.66896 0.82376 0.11419 0.0
H1197 H 0.63844 0.79126 0.13389 0.0
H1198 H 0.72705 0.79507 0.18002 0.0
H1199 H 0.75709 0.82809 0.16059 0.0
H1200 H 0.66288 0.74686 0.14468 0.0
H1201 H 0.6335 0.80026 0.21584 0.0
H1202 H 0.64881 0.81395 0.19175 0.0
H1203 H 0.68253 0.79988 0.20877 0.0
C1204 C 0.68203 0.81753 0.12846 0.0
C1205 C 0.7157 0.82816 0.1357 0.0
C1206 C 0.66456 0.799 0.13972 0.0
C1207 C 0.68017 0.79089 0.15858 0.0
C1208 C 0.71407 0.80131 0.16573 0.0
H1209 H 0.61514 0.65643 0.21962 0.0
H1210 H 0.6486 0.68844 0.20092 0.0
C1211 C 0.73145 0.81996 0.15452 0.0
C1212 C 0.66091 0.77147 0.17058 0.0
H1213 H 0.62117 0.75826 0.21781 0.0
C1214 C 0.65372 0.74937 0.16067 0.0
C1215 C 0.64847 0.77485 0.19136 0.0
C1216 C 0.65335 0.79858 0.20252 0.0
C1217 C 0.63473 0.73052 0.17095 0.0
C1218 C 0.6233 0.73366 0.19192 0.0
C1219 C 0.63023 0.75581 0.2018 0.0
C1220 C 0.60348 0.71435 0.20375 0.0
C1221 C 0.6263 0.70765 0.15908 0.0
C1222 C 0.56743 0.71844 0.21214 0.0
C1223 C 0.54859 0.70029 0.22324 0.0
C1224 C 0.5656 0.67777 0.22627 0.0
C1225 C 0.60161 0.67372 0.21783 0.0
C1226 C 0.62055 0.6919 0.20688 0.0
H1227 H 0.62734 0.71058 0.14195 0.0
H1228 H 0.64779 0.69395 0.16307 0.0
H1229 H 0.59802 0.70032 0.16321 0.0
H1230 H 0.55376 0.73565 0.20999 0.0
H1231 H 0.52091 0.70397 0.22963 0.0
H1232 H 0.26855 0.78024 0.4043 0.0
H1233 H 0.31415 0.75432 0.38645 0.0
H1234 H 0.30992 0.80055 0.33245 0.0
H1235 H 0.26457 0.82661 0.35039 0.0
H1236 H 0.30159 0.72975 0.34884 0.0
H1237 H 0.42368 0.79255 0.34231 0.0
H1238 H 0.38478 0.79775 0.35991 0.0
H1239 H 0.37991 0.80431 0.3326 0.0
C1240 C 0.27757 0.78487 0.38866 0.0
C1241 C 0.2628 0.80516 0.37854 0.0
C1242 C 0.30358 0.77012 0.37851 0.0
C1243 C 0.31564 0.77562 0.3582 0.0
C1244 C 0.30145 0.79618 0.34824 0.0
H1245 H 0.45489 0.70332 0.2664 0.0
H1246 H 0.41495 0.73146 0.28575 0.0
C1247 C 0.27541 0.81092 0.35839 0.0
C1248 C 0.34144 0.75912 0.34705 0.0
H1249 H 0.42766 0.75589 0.32336 0.0
C1250 C 0.32926 0.7354 0.34338 0.0
C1251 C 0.37741 0.76661 0.33985 0.0
C1252 C 0.39247 0.79163 0.34399 0.0
C1253 C 0.3518 0.71905 0.33239 0.0
C1254 C 0.38783 0.72651 0.32522 0.0
C1255 C 0.40003 0.75024 0.32888 0.0
C1256 C 0.41315 0.70992 0.31384 0.0
C1257 C 0.33643 0.69412 0.32811 0.0
C1258 C 0.42601 0.68876 0.32339 0.0
C1259 C 0.44855 0.67264 0.31235 0.0
C1260 C 0.45886 0.67746 0.2916 0.0
C1261 C 0.447 0.69903 0.2823 0.0
C1262 C 0.42434 0.71514 0.29334 0.0
H1263 H 0.30519 0.69336 0.32967 0.0
H1264 H 0.34417 0.68803 0.31221 0.0
H1265 H 0.34865 0.68131 0.33951 0.0
H1266 H 0.41836 0.68463 0.33934 0.0
H1267 H 0.45735 0.65618 0.31995 0.0
H1268 H 0.18001 0.66765 0.86863 0.0
H1269 H 0.1483 0.69798 0.84722 0.0
H1270 H 0.21948 0.75335 0.87378 0.0
H1271 H 0.2513 0.72298 0.89529 0.0
H1272 H 0.10931 0.73926 0.86288 0.0
H1273 H 0.22711 0.76405 0.80956 0.0
H1274 H 0.2266 0.73643 0.82444 0.0
H1275 H 0.23818 0.76444 0.83693 0.0
C1276 C 0.18919 0.68625 0.8697 0.0
C1277 C 0.21845 0.69298 0.88336 0.0
C1278 C 0.17102 0.70354 0.85752 0.0
C1279 C 0.18188 0.72784 0.85873 0.0
C1280 C 0.21116 0.73462 0.87234 0.0
H1281 H 0.05569 0.85309 0.81814 0.0
H1282 H 0.0914 0.8232 0.83798 0.0
C1283 C 0.22924 0.71733 0.88461 0.0
C1284 C 0.16129 0.74617 0.84647 0.0
H1285 H 0.1715 0.78747 0.80737 0.0
C1286 C 0.12287 0.7498 0.85074 0.0
C1287 C 0.17905 0.75973 0.83054 0.0
C1288 C 0.21994 0.75593 0.8249 0.0
C1289 C 0.10179 0.76687 0.83964 0.0
C1290 C 0.1197 0.78072 0.82398 0.0
C1291 C 0.15799 0.7769 0.81951 0.0
C1292 C 0.09884 0.79904 0.81189 0.0
C1293 C 0.06037 0.76977 0.84453 0.0
C1294 C 0.09159 0.79542 0.79062 0.0
C1295 C 0.071 0.81236 0.77928 0.0
C1296 C 0.05784 0.83341 0.78895 0.0
C1297 C 0.06542 0.83705 0.81025 0.0
C1298 C 0.0858 0.82002 0.82161 0.0
H1299 H 0.04923 0.75463 0.8541 0.0
H1300 H 0.05629 0.78673 0.85337 0.0
H1301 H 0.04355 0.77096 0.82995 0.0
H1302 H 0.10132 0.77927 0.78289 0.0
H1303 H 0.06498 0.80879 0.76301 0.0
loop_
_geom_bond_atom_site_label_1
_geom_bond_atom_site_label_2
_geom_bond_distance
_geom_bond_site_symmetry_2
_ccdc_geom_bond_type
H0 C7 0.929 . S
H1 C10 0.930 . S
H2 C12 0.929 . S
H3 C4 0.969 . S
C4 H3 0.969 . S
C4 O5 1.550 . S
C4 H6 0.973 . S
O5 C4 1.550 . S
O5 C11 1.412 . S
H6 C4 0.973 . S
C7 H0 0.929 . S
C7 C8 1.400 . S
C7 C9 1.364 . S
C8 C7 1.400 . S
C8 C12 1.377 . S
C9 C7 1.364 . S
C9 C10 1.374 . S
C10 H1 0.930 . S
C10 C9 1.374 . S
C10 C11 1.383 . S
C11 O5 1.412 . S
C11 C10 1.383 . S
C11 C12 1.394 . S
C12 H2 0.929 . S
C12 C8 1.377 . S
C12 C11 1.394 . S
H13 C20 0.929 . S
H14 C23 0.930 . S
H15 C25 0.929 . S
H16 C17 0.969 . S
C17 H16 0.969 . S
C17 O18 1.550 . S
C17 H19 0.973 . S
O18 C17 1.550 . S
O18 C24 1.412 . S
H19 C17 0.973 . S
C20 H13 0.929 . S
C20 C21 1.400 . S
C20 C22 1.364 . S
C21 C20 1.400 . S
C21 C25 1.377 . S
C22 C20 1.364 . S
C22 C23 1.374 . S
C23 H14 0.930 . S
C23 C22 1.374 . S
C23 C24 1.383 . S
C24 O18 1.412 . S
C24 C23 1.383 . S
C24 C25 1.394 . S
C25 H15 0.929 . S
C25 C21 1.377 . S
C25 C24 1.394 . S
H26 C33 0.929 . S
H27 C36 0.930 . S
H28 C38 0.929 . S
H29 C30 0.969 . S
C30 H29 0.969 . S
C30 O31 1.550 . S
C30 H32 0.973 . S
O31 C30 1.550 . S
O31 C37 1.412 . S
H32 C30 0.973 . S
C33 H26 0.929 . S
C33 C34 1.400 . S
C33 C35 1.364 . S
C34 C33 1.400 . S
C34 C38 1.377 . S
C35 C33 1.364 . S
C35 C36 1.374 . S
C36 H27 0.930 . S
C36 C35 1.374 . S
C36 C37 1.383 . S
C37 O31 1.412 . S
C37 C36 1.383 . S
C37 C38 1.394 . S
C38 H28 0.929 . S
C38 C34 1.377 . S
C38 C37 1.394 . S
H39 C46 0.929 . S
H40 C49 0.930 . S
H41 C51 0.929 . S
H42 C43 0.969 . S
C43 H42 0.969 . S
C43 O44 1.550 . S
C43 H45 0.973 . S
O44 C43 1.550 . S
O44 C50 1.412 . S
H45 C43 0.973 . S
C46 H39 0.929 . S
C46 C47 1.400 . S
C46 C48 1.364 . S
C47 C46 1.400 . S
C47 C51 1.377 . S
C48 C46 1.364 . S
C48 C49 1.374 . S
C49 H40 0.930 . S
C49 C48 1.374 . S
C49 C50 1.383 . S
C50 O44 1.412 . S
C50 C49 1.383 . S
C50 C51 1.394 . S
C51 H41 0.929 . S
C51 C47 1.377 . S
C51 C50 1.394 . S
H52 C59 0.929 . S
H53 C62 0.930 . S
H54 C64 0.929 . S
H55 C56 0.969 . S
C56 H55 0.969 . S
C56 O57 1.550 . S
C56 H58 0.973 . S
O57 C56 1.550 . S
O57 C63 1.412 . S
H58 C56 0.973 . S
C59 H52 0.929 . S
C59 C60 1.400 . S
C59 C61 1.364 . S
C60 C59 1.400 . S
C60 C64 1.377 . S
C61 C59 1.364 . S
C61 C62 1.374 . S
C62 H53 0.930 . S
C62 C61 1.374 . S
C62 C63 1.383 . S
C63 O57 1.412 . S
C63 C62 1.383 . S
C63 C64 1.394 . S
C64 H54 0.929 . S
C64 C60 1.377 . S
C64 C63 1.394 . S
H65 C72 0.929 . S
H66 C75 0.930 . S
H67 C77 0.929 . S
H68 C69 0.969 . S
C69 H68 0.969 . S
C69 O70 1.550 . S
C69 H71 0.973 . S
O70 C69 1.550 . S
O70 C76 1.412 . S
H71 C69 0.973 . S
C72 H65 0.929 . S
C72 C73 1.400 . S
C72 C74 1.364 . S
C73 C72 1.400 . S
C73 C77 1.377 . S
C74 C72 1.364 . S
C74 C75 1.374 . S
C75 H66 0.930 . S
C75 C74 1.374 . S
C75 C76 1.383 . S
C76 O70 1.412 . S
C76 C75 1.383 . S
C76 C77 1.394 . S
C77 H67 0.929 . S
C77 C73 1.377 . S
C77 C76 1.394 . S
H78 C85 0.929 . S
H79 C88 0.930 . S
H80 C90 0.929 . S
H81 C82 0.969 . S
C82 H81 0.969 . S
C82 O83 1.550 . S
C82 H84 0.973 . S
O83 C82 1.550 . S
O83 C89 1.412 . S
H84 C82 0.973 . S
C85 H78 0.929 . S
C85 C86 1.400 . S
C85 C87 1.364 . S
C86 C85 1.400 . S
C86 C90 1.377 . S
C87 C85 1.364 . S
C87 C88 1.374 . S
C88 H79 0.930 . S
C88 C87 1.374 . S
C88 C89 1.383 . S
C89 O83 1.412 . S
C89 C88 1.383 . S
C89 C90 1.394 . S
C90 H80 0.929 . S
C90 C86 1.377 . S
C90 C89 1.394 . S
H91 C98 0.929 . S
H92 C101 0.930 . S
H93 C103 0.929 . S
H94 C95 0.969 . S
C95 H94 0.969 . S
C95 O96 1.550 . S
C95 H97 0.973 . S
O96 C95 1.550 . S
O96 C102 1.412 . S
H97 C95 0.973 . S
C98 H91 0.929 . S
C98 C99 1.400 . S
C98 C100 1.364 . S
C99 C98 1.400 . S
C99 C103 1.377 . S
C100 C98 1.364 . S
C100 C101 1.374 . S
C101 H92 0.930 . S
C101 C100 1.374 . S
C101 C102 1.383 . S
C102 O96 1.412 . S
C102 C101 1.383 . S
C102 C103 1.394 . S
C103 H93 0.929 . S
C103 C99 1.377 . S
C103 C102 1.394 . S
C104 C106 1.422 . S
C104 C108 1.415 . S
C104 N110 1.369 . S
C105 C106 1.421 . S
C105 C107 1.417 . S
C105 C117 1.422 . S
C106 C104 1.422 . S
C106 C105 1.421 . S
C106 N116 1.359 . S
C107 C105 1.417 . S
C107 C109 1.329 . S
C107 H126 0.930 . S
C108 C104 1.415 . S
C108 C109 1.437 . S
C108 C112 1.413 . S
C109 C107 1.329 . S
C109 C108 1.437 . S
C109 H131 0.929 . S
N110 C104 1.369 . S
N110 C111 1.338 . S
N110 Gd115 2.622 . S
C111 N110 1.338 . S
C111 C113 1.378 . S
C111 H123 0.929 . S
C112 C108 1.413 . S
C112 C113 1.348 . S
C112 H128 0.931 . S
C113 C111 1.378 . S
C113 C112 1.348 . S
C113 H129 0.930 . S
Gd114 N134 2.622 . S
Gd114 N141 2.570 . S
Gd114 O148 2.353 . S
Gd114 O149 2.468 . S
Gd114 O150 2.427 . S
Gd114 O152 2.388 . S
Gd114 O153 2.386 . S
Gd114 O157 2.307 . S
Gd114 C167 2.805 . S
Gd115 N110 2.622 . S
Gd115 N116 2.570 . S
Gd115 O147 2.386 . S
Gd115 O151 2.307 1_655 S
Gd115 O154 2.353 1_655 S
Gd115 O155 2.468 . S
Gd115 O156 2.427 . S
Gd115 O158 2.388 . S
Gd115 C179 2.805 . S
N116 C106 1.359 . S
N116 Gd115 2.570 . S
N116 C118 1.343 . S
C117 C105 1.422 . S
C117 C119 1.321 . S
C117 H125 0.931 . S
C118 N116 1.343 . S
C118 C119 1.390 . S
C118 H120 0.931 . S
C119 C117 1.321 . S
C119 C118 1.390 . S
C119 H121 0.930 . S
H120 C118 0.931 . S
H121 C119 0.930 . S
H122 C145 0.931 . S
H123 C111 0.929 . S
H124 C146 0.930 . S
H125 C117 0.931 . S
H126 C107 0.930 . S
H127 C136 0.929 . S
H128 C112 0.931 . S
H129 C113 0.930 . S
H130 C168 0.930 . S
H131 C109 0.929 . S
H132 C137 0.931 . S
H133 C138 0.930 . S
N134 Gd114 2.622 . S
N134 C135 1.369 . S
N134 C136 1.338 . S
C135 N134 1.369 . S
C135 C139 1.415 . S
C135 C142 1.422 . S
C136 H127 0.929 . S
C136 N134 1.338 . S
C136 C138 1.378 . S
C137 H132 0.931 . S
C137 C138 1.348 . S
C137 C139 1.413 . S
C138 H133 0.930 . S
C138 C136 1.378 . S
C138 C137 1.348 . S
C139 C135 1.415 . S
C139 C137 1.413 . S
C139 C169 1.437 . S
H140 C169 0.929 . S
N141 Gd114 2.570 . S
N141 C142 1.359 . S
N141 C145 1.343 . S
C142 C135 1.422 . S
C142 N141 1.359 . S
C142 C144 1.421 . S
C143 C144 1.422 . S
C143 C146 1.321 . S
C143 H170 0.931 . S
C144 C142 1.421 . S
C144 C143 1.422 . S
C144 C168 1.417 . S
C145 H122 0.931 . S
C145 N141 1.343 . S
C145 C146 1.390 . S
C146 H124 0.930 . S
C146 C143 1.321 . S
C146 C145 1.390 . S
O147 Gd115 2.386 . S
O147 C159 1.265 . S
O148 Gd114 2.353 . S
O148 C159 1.242 1_455 S
O149 Gd114 2.468 . S
O149 C167 1.263 . S
O150 Gd114 2.427 . S
O150 C167 1.252 . S
O151 Gd115 2.307 1_455 S
O151 C160 1.261 . S
O152 Gd114 2.388 . S
O152 C160 1.252 . S
O153 Gd114 2.386 . S
O153 C171 1.265 . S
O154 Gd115 2.353 1_455 S
O154 C171 1.242 . S
O155 Gd115 2.468 . S
O155 C179 1.263 . S
O156 Gd115 2.427 . S
O156 C179 1.252 . S
O157 Gd114 2.307 . S
O157 C172 1.261 1_455 S
O158 Gd115 2.388 . S
O158 C172 1.252 . S
C159 O147 1.265 . S
C159 O148 1.242 1_655 S
C160 O151 1.261 . S
C160 O152 1.252 . S
C161 C164 1.394 . S
C161 C166 1.370 . S
C161 C167 1.500 . S
C162 C165 1.383 . S
C162 C166 1.395 . S
C163 C164 1.396 . S
C163 C165 1.365 . S
C163 H180 0.929 . S
C164 C161 1.394 . S
C164 C163 1.396 . S
C164 H181 0.930 . S
C165 C162 1.383 . S
C165 C163 1.365 . S
C165 H182 0.931 . S
C166 C161 1.370 . S
C166 C162 1.395 . S
C166 H183 0.930 . S
C167 Gd114 2.805 . S
C167 O149 1.263 . S
C167 O150 1.252 . S
C167 C161 1.500 . S
C168 H130 0.930 . S
C168 C144 1.417 . S
C168 C169 1.329 . S
C169 C139 1.437 . S
C169 H140 0.929 . S
C169 C168 1.329 . S
H170 C143 0.931 . S
C171 O153 1.265 . S
C171 O154 1.242 . S
C172 O157 1.261 1_655 S
C172 O158 1.252 . S
C173 C176 1.394 . S
C173 C178 1.370 . S
C173 C179 1.500 . S
C174 C177 1.383 . S
C174 C178 1.395 . S
C175 C176 1.396 . S
C175 C177 1.365 . S
C175 H184 0.929 . S
C176 C173 1.394 . S
C176 C175 1.396 . S
C176 H185 0.930 . S
C177 C174 1.383 . S
C177 C175 1.365 . S
C177 H186 0.931 . S
C178 C173 1.370 . S
C178 C174 1.395 . S
C178 H187 0.930 . S
C179 Gd115 2.805 . S
C179 O155 1.263 . S
C179 O156 1.252 . S
C179 C173 1.500 . S
H180 C163 0.929 . S
H181 C164 0.930 . S
H182 C165 0.931 . S
H183 C166 0.930 . S
H184 C175 0.929 . S
H185 C176 0.930 . S
H186 C177 0.931 . S
H187 C178 0.930 . S
C188 C190 1.422 . S
C188 C192 1.415 . S
C188 N194 1.369 . S
C189 C190 1.421 . S
C189 C191 1.417 . S
C189 C201 1.422 . S
C190 C188 1.422 . S
C190 C189 1.421 . S
C190 N200 1.359 . S
C191 C189 1.417 . S
C191 C193 1.329 . S
C191 H210 0.930 . S
C192 C188 1.415 . S
C192 C193 1.437 . S
C192 C196 1.413 . S
C193 C191 1.329 . S
C193 C192 1.437 . S
C193 H215 0.929 . S
N194 C188 1.369 . S
N194 C195 1.338 . S
N194 Gd199 2.622 . S
C195 N194 1.338 . S
C195 C197 1.378 . S
C195 H207 0.929 . S
C196 C192 1.413 . S
C196 C197 1.348 . S
C196 H212 0.931 . S
C197 C195 1.378 . S
C197 C196 1.348 . S
C197 H213 0.930 . S
Gd198 N218 2.622 . S
Gd198 N225 2.570 . S
Gd198 O232 2.353 . S
Gd198 O233 2.468 . S
Gd198 O234 2.427 . S
Gd198 O236 2.388 . S
Gd198 O237 2.386 . S
Gd198 O241 2.307 . S
Gd198 C251 2.805 . S
Gd199 N194 2.622 . S
Gd199 N200 2.570 . S
Gd199 O231 2.386 . S
Gd199 O235 2.307 . S
Gd199 O238 2.353 . S
Gd199 O239 2.468 . S
Gd199 O240 2.427 . S
Gd199 O242 2.388 . S
Gd199 C263 2.805 . S
N200 C190 1.359 . S
N200 Gd199 2.570 . S
N200 C202 1.343 . S
C201 C189 1.422 . S
C201 C203 1.321 . S
C201 H209 0.931 . S
C202 N200 1.343 . S
C202 C203 1.390 . S
C202 H204 0.931 . S
C203 C201 1.321 . S
C203 C202 1.390 . S
C203 H205 0.930 . S
H204 C202 0.931 . S
H205 C203 0.930 . S
H206 C229 0.931 . S
H207 C195 0.929 . S
H208 C230 0.930 . S
H209 C201 0.931 . S
H210 C191 0.930 . S
H211 C220 0.929 . S
H212 C196 0.931 . S
H213 C197 0.930 . S
H214 C252 0.930 . S
H215 C193 0.929 . S
H216 C221 0.931 . S
H217 C222 0.930 . S
N218 Gd198 2.622 . S
N218 C219 1.369 . S
N218 C220 1.338 . S
C219 N218 1.369 . S
C219 C223 1.415 . S
C219 C226 1.422 . S
C220 H211 0.929 . S
C220 N218 1.338 . S
C220 C222 1.378 . S
C221 H216 0.931 . S
C221 C222 1.348 . S
C221 C223 1.413 . S
C222 H217 0.930 . S
C222 C220 1.378 . S
C222 C221 1.348 . S
C223 C219 1.415 . S
C223 C221 1.413 . S
C223 C253 1.437 . S
H224 C253 0.929 . S
N225 Gd198 2.570 . S
N225 C226 1.359 . S
N225 C229 1.343 . S
C226 C219 1.422 . S
C226 N225 1.359 . S
C226 C228 1.421 . S
C227 C228 1.422 . S
C227 C230 1.321 . S
C227 H254 0.931 . S
C228 C226 1.421 . S
C228 C227 1.422 . S
C228 C252 1.417 . S
C229 H206 0.931 . S
C229 N225 1.343 . S
C229 C230 1.390 . S
C230 H208 0.930 . S
C230 C227 1.321 . S
C230 C229 1.390 . S
O231 Gd199 2.386 . S
O231 C243 1.265 . S
O232 Gd198 2.353 . S
O232 C243 1.242 . S
O233 Gd198 2.468 . S
O233 C251 1.263 . S
O234 Gd198 2.427 . S
O234 C251 1.252 . S
O235 Gd199 2.307 . S
O235 C244 1.261 . S
O236 Gd198 2.388 . S
O236 C244 1.252 . S
O237 Gd198 2.386 . S
O237 C255 1.265 . S
O238 Gd199 2.353 . S
O238 C255 1.242 . S
O239 Gd199 2.468 . S
O239 C263 1.263 . S
O240 Gd199 2.427 . S
O240 C263 1.252 . S
O241 Gd198 2.307 . S
O241 C256 1.261 . S
O242 Gd199 2.388 . S
O242 C256 1.252 . S
C243 O231 1.265 . S
C243 O232 1.242 . S
C244 O235 1.261 . S
C244 O236 1.252 . S
C245 C248 1.394 . S
C245 C250 1.370 . S
C245 C251 1.500 . S
C246 C249 1.383 . S
C246 C250 1.395 . S
C247 C248 1.396 . S
C247 C249 1.365 . S
C247 H264 0.929 . S
C248 C245 1.394 . S
C248 C247 1.396 . S
C248 H265 0.930 . S
C249 C246 1.383 . S
C249 C247 1.365 . S
C249 H266 0.931 . S
C250 C245 1.370 . S
C250 C246 1.395 . S
C250 H267 0.930 . S
C251 Gd198 2.805 . S
C251 O233 1.263 . S
C251 O234 1.252 . S
C251 C245 1.500 . S
C252 H214 0.930 . S
C252 C228 1.417 . S
C252 C253 1.329 . S
C253 C223 1.437 . S
C253 H224 0.929 . S
C253 C252 1.329 . S
H254 C227 0.931 . S
C255 O237 1.265 . S
C255 O238 1.242 . S
C256 O241 1.261 . S
C256 O242 1.252 . S
C257 C260 1.394 . S
C257 C262 1.370 . S
C257 C263 1.500 . S
C258 C261 1.383 . S
C258 C262 1.395 . S
C259 C260 1.396 . S
C259 C261 1.365 . S
C259 H268 0.929 . S
C260 C257 1.394 . S
C260 C259 1.396 . S
C260 H269 0.930 . S
C261 C258 1.383 . S
C261 C259 1.365 . S
C261 H270 0.931 . S
C262 C257 1.370 . S
C262 C258 1.395 . S
C262 H271 0.930 . S
C263 Gd199 2.805 . S
C263 O239 1.263 . S
C263 O240 1.252 . S
C263 C257 1.500 . S
H264 C247 0.929 . S
H265 C248 0.930 . S
H266 C249 0.931 . S
H267 C250 0.930 . S
H268 C259 0.929 . S
H269 C260 0.930 . S
H270 C261 0.931 . S
H271 C262 0.930 . S
C272 C274 1.422 . S
C272 C276 1.415 . S
C272 N278 1.369 . S
C273 C274 1.421 . S
C273 C275 1.417 . S
C273 C285 1.422 . S
C274 C272 1.422 . S
C274 C273 1.421 . S
C274 N284 1.359 . S
C275 C273 1.417 . S
C275 C277 1.329 . S
C275 H294 0.930 . S
C276 C272 1.415 . S
C276 C277 1.437 . S
C276 C280 1.413 . S
C277 C275 1.329 . S
C277 C276 1.437 . S
C277 H299 0.929 . S
N278 C272 1.369 . S
N278 C279 1.338 . S
N278 Gd283 2.622 . S
C279 N278 1.338 . S
C279 C281 1.378 . S
C279 H291 0.929 . S
C280 C276 1.413 . S
C280 C281 1.348 . S
C280 H296 0.931 . S
C281 C279 1.378 . S
C281 C280 1.348 . S
C281 H297 0.930 . S
Gd282 N302 2.622 . S
Gd282 N309 2.570 . S
Gd282 O316 2.353 . S
Gd282 O317 2.468 . S
Gd282 O318 2.427 . S
Gd282 O320 2.388 . S
Gd282 O321 2.386 . S
Gd282 O325 2.307 . S
Gd282 C335 2.805 . S
Gd283 N278 2.622 . S
Gd283 N284 2.570 . S
Gd283 O315 2.386 . S
Gd283 O319 2.307 1_655 S
Gd283 O322 2.353 1_655 S
Gd283 O323 2.468 . S
Gd283 O324 2.427 . S
Gd283 O326 2.388 . S
Gd283 C347 2.805 . S
N284 C274 1.359 . S
N284 Gd283 2.570 . S
N284 C286 1.343 . S
C285 C273 1.422 . S
C285 C287 1.321 . S
C285 H293 0.931 . S
C286 N284 1.343 . S
C286 C287 1.390 . S
C286 H288 0.931 . S
C287 C285 1.321 . S
C287 C286 1.390 . S
C287 H289 0.930 . S
H288 C286 0.931 . S
H289 C287 0.930 . S
H290 C313 0.931 . S
H291 C279 0.929 . S
H292 C314 0.930 . S
H293 C285 0.931 . S
H294 C275 0.930 . S
H295 C304 0.929 . S
H296 C280 0.931 . S
H297 C281 0.930 . S
H298 C336 0.930 . S
H299 C277 0.929 . S
H300 C305 0.931 . S
H301 C306 0.930 . S
N302 Gd282 2.622 . S
N302 C303 1.369 . S
N302 C304 1.338 . S
C303 N302 1.369 . S
C303 C307 1.415 . S
C303 C310 1.422 . S
C304 H295 0.929 . S
C304 N302 1.338 . S
C304 C306 1.378 . S
C305 H300 0.931 . S
C305 C306 1.348 . S
C305 C307 1.413 . S
C306 H301 0.930 . S
C306 C304 1.378 . S
C306 C305 1.348 . S
C307 C303 1.415 . S
C307 C305 1.413 . S
C307 C337 1.437 . S
H308 C337 0.929 . S
N309 Gd282 2.570 . S
N309 C310 1.359 . S
N309 C313 1.343 . S
C310 C303 1.422 . S
C310 N309 1.359 . S
C310 C312 1.421 . S
C311 C312 1.422 . S
C311 C314 1.321 . S
C311 H338 0.931 . S
C312 C310 1.421 . S
C312 C311 1.422 . S
C312 C336 1.417 . S
C313 H290 0.931 . S
C313 N309 1.343 . S
C313 C314 1.390 . S
C314 H292 0.930 . S
C314 C311 1.321 . S
C314 C313 1.390 . S
O315 Gd283 2.386 . S
O315 C327 1.265 . S
O316 Gd282 2.353 . S
O316 C327 1.242 1_455 S
O317 Gd282 2.468 . S
O317 C335 1.263 . S
O318 Gd282 2.427 . S
O318 C335 1.252 . S
O319 Gd283 2.307 1_455 S
O319 C328 1.261 . S
O320 Gd282 2.388 . S
O320 C328 1.252 . S
O321 Gd282 2.386 . S
O321 C339 1.265 . S
O322 Gd283 2.353 1_455 S
O322 C339 1.242 . S
O323 Gd283 2.468 . S
O323 C347 1.263 . S
O324 Gd283 2.427 . S
O324 C347 1.252 . S
O325 Gd282 2.307 . S
O325 C340 1.261 1_455 S
O326 Gd283 2.388 . S
O326 C340 1.252 . S
C327 O315 1.265 . S
C327 O316 1.242 1_655 S
C328 O319 1.261 . S
C328 O320 1.252 . S
C329 C332 1.394 . S
C329 C334 1.370 . S
C329 C335 1.500 . S
C330 C333 1.383 . S
C330 C334 1.395 . S
C331 C332 1.396 . S
C331 C333 1.365 . S
C331 H348 0.929 . S
C332 C329 1.394 . S
C332 C331 1.396 . S
C332 H349 0.930 . S
C333 C330 1.383 . S
C333 C331 1.365 . S
C333 H350 0.931 . S
C334 C329 1.370 . S
C334 C330 1.395 . S
C334 H351 0.930 . S
C335 Gd282 2.805 . S
C335 O317 1.263 . S
C335 O318 1.252 . S
C335 C329 1.500 . S
C336 H298 0.930 . S
C336 C312 1.417 . S
C336 C337 1.329 . S
C337 C307 1.437 . S
C337 H308 0.929 . S
C337 C336 1.329 . S
H338 C311 0.931 . S
C339 O321 1.265 . S
C339 O322 1.242 . S
C340 O325 1.261 1_655 S
C340 O326 1.252 . S
C341 C344 1.394 . S
C341 C346 1.370 . S
C341 C347 1.500 . S
C342 C345 1.383 . S
C342 C346 1.395 . S
C343 C344 1.396 . S
C343 C345 1.365 . S
C343 H352 0.929 . S
C344 C341 1.394 . S
C344 C343 1.396 . S
C344 H353 0.930 . S
C345 C342 1.383 . S
C345 C343 1.365 . S
C345 H354 0.931 . S
C346 C341 1.370 . S
C346 C342 1.395 . S
C346 H355 0.930 . S
C347 Gd283 2.805 . S
C347 O323 1.263 . S
C347 O324 1.252 . S
C347 C341 1.500 . S
H348 C331 0.929 . S
H349 C332 0.930 . S
H350 C333 0.931 . S
H351 C334 0.930 . S
H352 C343 0.929 . S
H353 C344 0.930 . S
H354 C345 0.931 . S
H355 C346 0.930 . S
C356 C358 1.422 . S
C356 C360 1.415 . S
C356 N362 1.369 . S
C357 C358 1.421 . S
C357 C359 1.417 . S
C357 C369 1.422 . S
C358 C356 1.422 . S
C358 C357 1.421 . S
C358 N368 1.359 . S
C359 C357 1.417 . S
C359 C361 1.329 . S
C359 H378 0.930 . S
C360 C356 1.415 . S
C360 C361 1.437 . S
C360 C364 1.413 . S
C361 C359 1.329 . S
C361 C360 1.437 . S
C361 H383 0.929 . S
N362 C356 1.369 . S
N362 C363 1.338 . S
N362 Gd367 2.622 . S
C363 N362 1.338 . S
C363 C365 1.378 . S
C363 H375 0.929 . S
C364 C360 1.413 . S
C364 C365 1.348 . S
C364 H380 0.931 . S
C365 C363 1.378 . S
C365 C364 1.348 . S
C365 H381 0.930 . S
Gd366 N386 2.622 . S
Gd366 N393 2.570 . S
Gd366 O400 2.353 . S
Gd366 O401 2.468 . S
Gd366 O402 2.427 . S
Gd366 O404 2.388 . S
Gd366 O405 2.386 . S
Gd366 O409 2.307 . S
Gd366 C419 2.805 . S
Gd367 N362 2.622 . S
Gd367 N368 2.570 . S
Gd367 O399 2.386 . S
Gd367 O403 2.307 . S
Gd367 O406 2.353 . S
Gd367 O407 2.468 . S
Gd367 O408 2.427 . S
Gd367 O410 2.388 . S
Gd367 C431 2.805 . S
N368 C358 1.359 . S
N368 Gd367 2.570 . S
N368 C370 1.343 . S
C369 C357 1.422 . S
C369 C371 1.321 . S
C369 H377 0.931 . S
C370 N368 1.343 . S
C370 C371 1.390 . S
C370 H372 0.931 . S
C371 C369 1.321 . S
C371 C370 1.390 . S
C371 H373 0.930 . S
H372 C370 0.931 . S
H373 C371 0.930 . S
H374 C397 0.931 . S
H375 C363 0.929 . S
H376 C398 0.930 . S
H377 C369 0.931 . S
H378 C359 0.930 . S
H379 C388 0.929 . S
H380 C364 0.931 . S
H381 C365 0.930 . S
H382 C420 0.930 . S
H383 C361 0.929 . S
H384 C389 0.931 . S
H385 C390 0.930 . S
N386 Gd366 2.622 . S
N386 C387 1.369 . S
N386 C388 1.338 . S
C387 N386 1.369 . S
C387 C391 1.415 . S
C387 C394 1.422 . S
C388 H379 0.929 . S
C388 N386 1.338 . S
C388 C390 1.378 . S
C389 H384 0.931 . S
C389 C390 1.348 . S
C389 C391 1.413 . S
C390 H385 0.930 . S
C390 C388 1.378 . S
C390 C389 1.348 . S
C391 C387 1.415 . S
C391 C389 1.413 . S
C391 C421 1.437 . S
H392 C421 0.929 . S
N393 Gd366 2.570 . S
N393 C394 1.359 . S
N393 C397 1.343 . S
C394 C387 1.422 . S
C394 N393 1.359 . S
C394 C396 1.421 . S
C395 C396 1.422 . S
C395 C398 1.321 . S
C395 H422 0.931 . S
C396 C394 1.421 . S
C396 C395 1.422 . S
C396 C420 1.417 . S
C397 H374 0.931 . S
C397 N393 1.343 . S
C397 C398 1.390 . S
C398 H376 0.930 . S
C398 C395 1.321 . S
C398 C397 1.390 . S
O399 Gd367 2.386 . S
O399 C411 1.265 . S
O400 Gd366 2.353 . S
O400 C411 1.242 . S
O401 Gd366 2.468 . S
O401 C419 1.263 . S
O402 Gd366 2.427 . S
O402 C419 1.252 . S
O403 Gd367 2.307 . S
O403 C412 1.261 . S
O404 Gd366 2.388 . S
O404 C412 1.252 . S
O405 Gd366 2.386 . S
O405 C423 1.265 . S
O406 Gd367 2.353 . S
O406 C423 1.242 . S
O407 Gd367 2.468 . S
O407 C431 1.263 . S
O408 Gd367 2.427 . S
O408 C431 1.252 . S
O409 Gd366 2.307 . S
O409 C424 1.261 . S
O410 Gd367 2.388 . S
O410 C424 1.252 . S
C411 O399 1.265 . S
C411 O400 1.242 . S
C412 O403 1.261 . S
C412 O404 1.252 . S
C413 C416 1.394 . S
C413 C418 1.370 . S
C413 C419 1.500 . S
C414 C417 1.383 . S
C414 C418 1.395 . S
C415 C416 1.396 . S
C415 C417 1.365 . S
C415 H432 0.929 . S
C416 C413 1.394 . S
C416 C415 1.396 . S
C416 H433 0.930 . S
C417 C414 1.383 . S
C417 C415 1.365 . S
C417 H434 0.931 . S
C418 C413 1.370 . S
C418 C414 1.395 . S
C418 H435 0.930 . S
C419 Gd366 2.805 . S
C419 O401 1.263 . S
C419 O402 1.252 . S
C419 C413 1.500 . S
C420 H382 0.930 . S
C420 C396 1.417 . S
C420 C421 1.329 . S
C421 C391 1.437 . S
C421 H392 0.929 . S
C421 C420 1.329 . S
H422 C395 0.931 . S
C423 O405 1.265 . S
C423 O406 1.242 . S
C424 O409 1.261 . S
C424 O410 1.252 . S
C425 C428 1.394 . S
C425 C430 1.370 . S
C425 C431 1.500 . S
C426 C429 1.383 . S
C426 C430 1.395 . S
C427 C428 1.396 . S
C427 C429 1.365 . S
C427 H436 0.929 . S
C428 C425 1.394 . S
C428 C427 1.396 . S
C428 H437 0.930 . S
C429 C426 1.383 . S
C429 C427 1.365 . S
C429 H438 0.931 . S
C430 C425 1.370 . S
C430 C426 1.395 . S
C430 H439 0.930 . S
C431 Gd367 2.805 . S
C431 O407 1.263 . S
C431 O408 1.252 . S
C431 C425 1.500 . S
H432 C415 0.929 . S
H433 C416 0.930 . S
H434 C417 0.931 . S
H435 C418 0.930 . S
H436 C427 0.929 . S
H437 C428 0.930 . S
H438 C429 0.931 . S
H439 C430 0.930 . S
H440 C448 0.929 . S
H441 C450 0.930 . S
H442 C452 0.930 . S
H443 C455 0.929 . S
H444 C458 0.930 . S
H445 C460 0.960 1_545 S
H446 C460 0.960 . S
H447 C460 0.960 . S
C448 H440 0.929 . S
C448 C449 1.377 . S
C448 C450 1.384 . S
C449 C448 1.377 . S
C449 C455 1.390 . S
C450 H441 0.930 . S
C450 C448 1.384 . S
C450 C451 1.372 . S
C451 C450 1.372 . S
C451 C452 1.400 . S
C451 C456 1.490 . S
C452 H442 0.930 . S
C452 C451 1.400 . S
C452 C455 1.386 . S
H453 C469 0.930 . S
H454 C470 0.931 . S
C455 H443 0.929 . S
C455 C449 1.390 . S
C455 C452 1.386 . S
C456 C451 1.490 . S
C456 C458 1.395 . S
C456 C459 1.403 . S
H457 C463 0.930 . S
C458 H444 0.930 . S
C458 C456 1.395 . S
C458 C461 1.403 . S
C459 C456 1.403 . S
C459 C460 1.524 . S
C459 C463 1.400 1_565 S
C460 H445 0.960 1_565 S
C460 H446 0.960 . S
C460 H447 0.960 . S
C460 C459 1.524 . S
C461 C458 1.403 . S
C461 C462 1.392 . S
C461 C465 1.495 . S
C462 C461 1.392 . S
C462 C463 1.385 1_565 S
C462 C464 1.478 1_565 S
C463 H457 0.930 . S
C463 C459 1.400 1_545 S
C463 C462 1.385 1_545 S
C464 C462 1.478 1_545 S
C464 C466 1.381 . S
C464 C470 1.383 . S
C465 C461 1.495 . S
C465 H471 0.959 . S
C465 H472 0.961 . S
C465 H473 0.960 . S
C466 C464 1.381 . S
C466 C467 1.394 . S
C466 H474 0.915 1_545 S
C467 C466 1.394 . S
C467 C468 1.383 . S
C467 H475 0.929 . S
C468 C467 1.383 . S
C468 C469 1.377 . S
C469 H453 0.930 . S
C469 C468 1.377 . S
C469 C470 1.379 . S
C470 H454 0.931 . S
C470 C464 1.383 . S
C470 C469 1.379 . S
H471 C465 0.959 . S
H472 C465 0.961 . S
H473 C465 0.960 . S
H474 C466 0.915 1_565 S
H475 C467 0.929 . S
H476 C484 0.929 . S
H477 C486 0.930 . S
H478 C488 0.930 . S
H479 C491 0.929 . S
H480 C494 0.930 . S
H481 C496 0.960 . S
H482 C496 0.960 . S
H483 C496 0.960 . S
C484 H476 0.929 . S
C484 C485 1.377 . S
C484 C486 1.384 . S
C485 C484 1.377 . S
C485 C491 1.390 . S
C486 H477 0.930 . S
C486 C484 1.384 . S
C486 C487 1.372 . S
C487 C486 1.372 . S
C487 C488 1.400 . S
C487 C492 1.490 . S
C488 H478 0.930 . S
C488 C487 1.400 . S
C488 C491 1.386 . S
H489 C505 0.930 . S
H490 C506 0.931 . S
C491 H479 0.929 . S
C491 C485 1.390 . S
C491 C488 1.386 . S
C492 C487 1.490 . S
C492 C494 1.395 . S
C492 C495 1.403 . S
H493 C499 0.930 . S
C494 H480 0.930 . S
C494 C492 1.395 . S
C494 C497 1.403 . S
C495 C492 1.403 . S
C495 C496 1.524 . S
C495 C499 1.400 . S
C496 H481 0.960 . S
C496 H482 0.960 . S
C496 H483 0.960 . S
C496 C495 1.524 . S
C497 C494 1.403 . S
C497 C498 1.392 . S
C497 C501 1.495 . S
C498 C497 1.392 . S
C498 C499 1.385 . S
C498 C500 1.478 . S
C499 H493 0.930 . S
C499 C495 1.400 . S
C499 C498 1.385 . S
C500 C498 1.478 . S
C500 C502 1.381 . S
C500 C506 1.383 . S
C501 C497 1.495 . S
C501 H507 0.959 . S
C501 H508 0.961 . S
C501 H509 0.960 . S
C502 C500 1.381 . S
C502 C503 1.394 . S
C502 H510 0.930 . S
C503 C502 1.394 . S
C503 C504 1.383 . S
C503 H511 0.929 . S
C504 C503 1.383 . S
C504 C505 1.377 . S
C505 H489 0.930 . S
C505 C504 1.377 . S
C505 C506 1.379 . S
C506 H490 0.931 . S
C506 C500 1.383 . S
C506 C505 1.379 . S
H507 C501 0.959 . S
H508 C501 0.961 . S
H509 C501 0.960 . S
H510 C502 0.930 . S
H511 C503 0.929 . S
H512 C520 0.929 . S
H513 C522 0.930 . S
H514 C524 0.930 . S
H515 C527 0.929 . S
H516 C530 0.930 . S
H517 C532 0.960 . S
H518 C532 0.960 . S
H519 C532 0.960 . S
C520 H512 0.929 . S
C520 C521 1.377 . S
C520 C522 1.384 . S
C521 C520 1.377 . S
C521 C527 1.390 . S
C522 H513 0.930 . S
C522 C520 1.384 . S
C522 C523 1.372 . S
C523 C522 1.372 . S
C523 C524 1.400 . S
C523 C528 1.490 . S
C524 H514 0.930 . S
C524 C523 1.400 . S
C524 C527 1.386 . S
H525 C541 0.930 . S
H526 C542 0.931 . S
C527 H515 0.929 . S
C527 C521 1.390 . S
C527 C524 1.386 . S
C528 C523 1.490 . S
C528 C530 1.395 . S
C528 C531 1.403 . S
H529 C535 0.930 . S
C530 H516 0.930 . S
C530 C528 1.395 . S
C530 C533 1.403 . S
C531 C528 1.403 . S
C531 C532 1.524 . S
C531 C535 1.400 . S
C532 H517 0.960 . S
C532 H518 0.960 . S
C532 H519 0.960 . S
C532 C531 1.524 . S
C533 C530 1.403 . S
C533 C534 1.392 . S
C533 C537 1.495 . S
C534 C533 1.392 . S
C534 C535 1.385 . S
C534 C536 1.478 . S
C535 H529 0.930 . S
C535 C531 1.400 . S
C535 C534 1.385 . S
C536 C534 1.478 . S
C536 C538 1.381 . S
C536 C542 1.383 . S
C537 C533 1.495 . S
C537 H543 0.959 . S
C537 H544 0.961 . S
C537 H545 0.960 . S
C538 C536 1.381 . S
C538 C539 1.394 . S
C538 H546 0.930 . S
C539 C538 1.394 . S
C539 C540 1.383 . S
C539 H547 0.929 . S
C540 C539 1.383 . S
C540 C541 1.377 . S
C541 H525 0.930 . S
C541 C540 1.377 . S
C541 C542 1.379 . S
C542 H526 0.931 . S
C542 C536 1.383 . S
C542 C541 1.379 . S
H543 C537 0.959 . S
H544 C537 0.961 . S
H545 C537 0.960 . S
H546 C538 0.930 . S
H547 C539 0.929 . S
H548 C556 0.929 . S
H549 C558 0.930 . S
H550 C560 0.930 . S
H551 C563 0.929 . S
H552 C566 0.930 . S
H553 C568 0.960 . S
H554 C568 0.960 . S
H555 C568 0.960 . S
C556 H548 0.929 . S
C556 C557 1.377 . S
C556 C558 1.384 . S
C557 C556 1.377 . S
C557 C563 1.390 . S
C558 H549 0.930 . S
C558 C556 1.384 . S
C558 C559 1.372 . S
C559 C558 1.372 . S
C559 C560 1.400 . S
C559 C564 1.490 . S
C560 H550 0.930 . S
C560 C559 1.400 . S
C560 C563 1.386 . S
H561 C577 0.930 . S
H562 C578 0.931 1_565 S
C563 H551 0.929 . S
C563 C557 1.390 . S
C563 C560 1.386 . S
C564 C559 1.490 . S
C564 C566 1.395 . S
C564 C567 1.403 . S
H565 C571 0.930 . S
C566 H552 0.930 . S
C566 C564 1.395 . S
C566 C569 1.381 1_565 S
C567 C564 1.403 . S
C567 C568 1.524 . S
C567 C571 1.400 . S
C568 H553 0.960 . S
C568 H554 0.960 . S
C568 H555 0.960 . S
C568 C567 1.524 . S
C569 C566 1.381 1_545 S
C569 C570 1.392 . S
C569 C573 1.517 . S
C570 C569 1.392 . S
C570 C571 1.368 1_545 S
C570 C572 1.494 . S
C571 H565 0.930 . S
C571 C567 1.400 . S
C571 C570 1.368 1_565 S
C572 C570 1.494 . S
C572 C574 1.381 . S
C572 C578 1.383 . S
C573 C569 1.517 . S
C573 H579 0.959 . S
C573 H580 0.961 . S
C573 H581 0.960 . S
C574 C572 1.381 . S
C574 C575 1.394 . S
C574 H582 0.930 . S
C575 C574 1.394 . S
C575 C576 1.383 . S
C575 H583 0.929 . S
C576 C575 1.383 . S
C576 C577 1.377 . S
C577 H561 0.930 . S
C577 C576 1.377 . S
C577 C578 1.379 . S
C578 H562 0.931 1_545 S
C578 C572 1.383 . S
C578 C577 1.379 . S
H579 C573 0.959 . S
H580 C573 0.961 . S
H581 C573 0.960 . S
H582 C574 0.930 . S
H583 C575 0.929 . S
H584 C592 0.929 . S
H585 C594 0.930 . S
H586 C596 0.930 . S
H587 C599 0.929 . S
H588 C602 0.930 . S
H589 C604 0.960 . S
H590 C604 0.960 . S
H591 C604 0.960 . S
C592 H584 0.929 . S
C592 C593 1.377 . S
C592 C594 1.384 . S
C593 C592 1.377 . S
C593 C599 1.390 . S
C594 H585 0.930 . S
C594 C592 1.384 . S
C594 C595 1.372 . S
C595 C594 1.372 . S
C595 C596 1.400 . S
C595 C600 1.490 . S
C596 H586 0.930 . S
C596 C595 1.400 . S
C596 C599 1.386 . S
H597 C613 0.930 . S
H598 C614 0.931 . S
C599 H587 0.929 . S
C599 C593 1.390 . S
C599 C596 1.386 . S
C600 C595 1.490 . S
C600 C602 1.395 . S
C600 C603 1.403 . S
H601 C607 0.930 . S
C602 H588 0.930 . S
C602 C600 1.395 . S
C602 C605 1.403 . S
C603 C600 1.403 . S
C603 C604 1.524 . S
C603 C607 1.400 . S
C604 H589 0.960 . S
C604 H590 0.960 . S
C604 H591 0.960 . S
C604 C603 1.524 . S
C605 C602 1.403 . S
C605 C606 1.392 . S
C605 C609 1.495 1_545 S
C606 C605 1.392 . S
C606 C607 1.385 . S
C606 C608 1.478 1_545 S
C607 H601 0.930 . S
C607 C603 1.400 . S
C607 C606 1.385 . S
C608 C606 1.478 1_565 S
C608 C610 1.381 . S
C608 C614 1.383 . S
C609 C605 1.495 1_565 S
C609 H615 0.959 . S
C609 H616 0.961 . S
C609 H617 0.960 . S
C610 C608 1.381 . S
C610 C611 1.394 . S
C610 H618 0.930 . S
C611 C610 1.394 . S
C611 C612 1.383 . S
C611 H619 0.929 . S
C612 C611 1.383 . S
C612 C613 1.377 . S
C613 H597 0.930 . S
C613 C612 1.377 . S
C613 C614 1.379 . S
C614 H598 0.931 . S
C614 C608 1.383 . S
C614 C613 1.379 . S
H615 C609 0.959 . S
H616 C609 0.961 . S
H617 C609 0.960 . S
H618 C610 0.930 . S
H619 C611 0.929 . S
H620 C628 0.929 . S
H621 C630 0.930 . S
H622 C632 0.930 . S
H623 C635 0.929 . S
H624 C638 0.930 . S
H625 C640 0.960 . S
H626 C640 0.960 . S
H627 C640 0.960 . S
C628 H620 0.929 . S
C628 C629 1.377 . S
C628 C630 1.384 . S
C629 C628 1.377 . S
C629 C635 1.390 . S
C630 H621 0.930 . S
C630 C628 1.384 . S
C630 C631 1.372 . S
C631 C630 1.372 . S
C631 C632 1.400 . S
C631 C636 1.490 . S
C632 H622 0.930 . S
C632 C631 1.400 . S
C632 C635 1.386 . S
H633 C649 0.930 . S
H634 C650 0.931 . S
C635 H623 0.929 . S
C635 C629 1.390 . S
C635 C632 1.386 . S
C636 C631 1.490 . S
C636 C638 1.395 . S
C636 C639 1.403 . S
H637 C643 0.930 . S
C638 H624 0.930 . S
C638 C636 1.395 . S
C638 C641 1.403 . S
C639 C636 1.403 . S
C639 C640 1.524 . S
C639 C643 1.400 . S
C640 H625 0.960 . S
C640 H626 0.960 . S
C640 H627 0.960 . S
C640 C639 1.524 . S
C641 C638 1.403 . S
C641 C642 1.392 . S
C641 C645 1.495 . S
C642 C641 1.392 . S
C642 C643 1.385 . S
C642 C644 1.478 . S
C643 H637 0.930 . S
C643 C639 1.400 . S
C643 C642 1.385 . S
C644 C642 1.478 . S
C644 C646 1.381 . S
C644 C650 1.383 . S
C645 C641 1.495 . S
C645 H651 0.959 . S
C645 H652 0.961 . S
C645 H653 0.960 . S
C646 C644 1.381 . S
C646 C647 1.394 . S
C646 H654 0.930 . S
C647 C646 1.394 . S
C647 C648 1.383 . S
C647 H655 0.929 . S
C648 C647 1.383 . S
C648 C649 1.377 . S
C649 H633 0.930 . S
C649 C648 1.377 . S
C649 C650 1.379 . S
C650 H634 0.931 . S
C650 C644 1.383 . S
C650 C649 1.379 . S
H651 C645 0.959 . S
H652 C645 0.961 . S
H653 C645 0.960 . S
H654 C646 0.930 . S
H655 C647 0.929 . S
H656 C664 0.929 . S
H657 C666 0.930 . S
H658 C668 0.930 . S
H659 C671 0.929 . S
H660 C674 0.930 . S
H661 C676 0.960 . S
H662 C676 0.960 . S
H663 C676 0.960 . S
C664 H656 0.929 . S
C664 C665 1.377 . S
C664 C666 1.384 . S
C665 C664 1.377 . S
C665 C671 1.390 . S
C666 H657 0.930 . S
C666 C664 1.384 . S
C666 C667 1.372 . S
C667 C666 1.372 . S
C667 C668 1.400 . S
C667 C672 1.490 . S
C668 H658 0.930 . S
C668 C667 1.400 . S
C668 C671 1.386 . S
H669 C685 0.930 . S
H670 C686 0.931 . S
C671 H659 0.929 . S
C671 C665 1.390 . S
C671 C668 1.386 . S
C672 C667 1.490 . S
C672 C674 1.395 . S
C672 C675 1.403 . S
H673 C679 0.930 . S
C674 H660 0.930 . S
C674 C672 1.395 . S
C674 C677 1.403 . S
C675 C672 1.403 . S
C675 C676 1.524 . S
C675 C679 1.400 . S
C676 H661 0.960 . S
C676 H662 0.960 . S
C676 H663 0.960 . S
C676 C675 1.524 . S
C677 C674 1.403 . S
C677 C678 1.392 . S
C677 C681 1.495 . S
C678 C677 1.392 . S
C678 C679 1.385 . S
C678 C680 1.478 . S
C679 H673 0.930 . S
C679 C675 1.400 . S
C679 C678 1.385 . S
C680 C678 1.478 . S
C680 C682 1.381 . S
C680 C686 1.383 . S
C681 C677 1.495 . S
C681 H687 0.959 . S
C681 H688 0.961 . S
C681 H689 0.960 . S
C682 C680 1.381 . S
C682 C683 1.394 . S
C682 H690 0.930 . S
C683 C682 1.394 . S
C683 C684 1.383 . S
C683 H691 0.929 . S
C684 C683 1.383 . S
C684 C685 1.377 . S
C685 H669 0.930 . S
C685 C684 1.377 . S
C685 C686 1.379 . S
C686 H670 0.931 . S
C686 C680 1.383 . S
C686 C685 1.379 . S
H687 C681 0.959 . S
H688 C681 0.961 . S
H689 C681 0.960 . S
H690 C682 0.930 . S
H691 C683 0.929 . S
H692 C700 0.929 . S
H693 C702 0.930 . S
H694 C704 0.930 . S
H695 C707 0.929 . S
H696 C710 0.930 . S
H697 C712 0.960 . S
H698 C712 0.960 . S
H699 C712 0.960 . S
C700 H692 0.929 . S
C700 C701 1.377 . S
C700 C702 1.384 . S
C701 C700 1.377 . S
C701 C707 1.390 . S
C702 H693 0.930 . S
C702 C700 1.384 . S
C702 C703 1.372 . S
C703 C702 1.372 . S
C703 C704 1.400 . S
C703 C708 1.490 . S
C704 H694 0.930 . S
C704 C703 1.400 . S
C704 C707 1.386 . S
H705 C721 0.930 . S
H706 C722 0.931 1_545 S
C707 H695 0.929 . S
C707 C701 1.390 . S
C707 C704 1.386 . S
C708 C703 1.490 . S
C708 C710 1.395 . S
C708 C711 1.403 . S
H709 C715 0.930 . S
C710 H696 0.930 . S
C710 C708 1.395 . S
C710 C713 1.403 1_545 S
C711 C708 1.403 . S
C711 C712 1.524 . S
C711 C715 1.400 . S
C712 H697 0.960 . S
C712 H698 0.960 . S
C712 H699 0.960 . S
C712 C711 1.524 . S
C713 C710 1.403 1_565 S
C713 C714 1.392 . S
C713 C717 1.495 . S
C714 C713 1.392 . S
C714 C715 1.385 1_565 S
C714 C716 1.478 . S
C715 H709 0.930 . S
C715 C711 1.400 . S
C715 C714 1.385 1_545 S
C716 C714 1.478 . S
C716 C718 1.381 . S
C716 C722 1.383 . S
C717 C713 1.495 . S
C717 H723 0.959 . S
C717 H724 0.961 . S
C717 H725 0.960 . S
C718 C716 1.381 . S
C718 C719 1.394 . S
C718 H726 0.930 . S
C719 C718 1.394 . S
C719 C720 1.383 . S
C719 H727 0.929 . S
C720 C719 1.383 . S
C720 C721 1.377 . S
C721 H705 0.930 . S
C721 C720 1.377 . S
C721 C722 1.379 . S
C722 H706 0.931 1_565 S
C722 C716 1.383 . S
C722 C721 1.379 . S
H723 C717 0.959 . S
H724 C717 0.961 . S
H725 C717 0.960 . S
H726 C718 0.930 . S
H727 C719 0.929 . S
H728 C736 0.929 . S
H729 C738 0.930 . S
H730 C740 0.930 . S
H731 C743 0.929 . S
H732 C746 0.930 . S
H733 C748 0.944 1_554 S
H734 C748 0.974 . S
H735 C748 0.993 . S
C736 H728 0.929 . S
C736 C737 1.377 . S
C736 C738 1.384 . S
C737 C736 1.377 . S
C737 C743 1.390 . S
C738 H729 0.930 . S
C738 C736 1.384 . S
C738 C739 1.372 . S
C739 C738 1.372 . S
C739 C740 1.400 . S
C739 C744 1.490 1_556 S
C740 H730 0.930 . S
C740 C739 1.400 . S
C740 C743 1.386 . S
H741 C757 0.930 . S
H742 C758 0.931 . S
C743 H731 0.929 . S
C743 C737 1.390 . S
C743 C740 1.386 . S
C744 C739 1.490 1_554 S
C744 C746 1.395 . S
C744 C747 1.403 . S
H745 C751 0.930 . S
C746 H732 0.930 . S
C746 C744 1.395 . S
C746 C749 1.403 . S
C747 C744 1.403 . S
C747 C748 1.495 1_554 S
C747 C751 1.400 . S
C748 H733 0.944 1_556 S
C748 H734 0.974 . S
C748 H735 0.993 . S
C748 C747 1.495 1_556 S
C749 C746 1.403 . S
C749 C750 1.392 . S
C749 C753 1.495 . S
C750 C749 1.392 . S
C750 C751 1.385 . S
C750 C752 1.478 . S
C751 H745 0.930 . S
C751 C747 1.400 . S
C751 C750 1.385 . S
C752 C750 1.478 . S
C752 C754 1.381 . S
C752 C758 1.383 . S
C753 C749 1.495 . S
C753 H759 0.959 . S
C753 H760 0.961 . S
C753 H761 0.960 . S
C754 C752 1.381 . S
C754 C755 1.394 . S
C754 H762 0.930 . S
C755 C754 1.394 . S
C755 C756 1.383 . S
C755 H763 0.929 . S
C756 C755 1.383 . S
C756 C757 1.377 . S
C757 H741 0.930 . S
C757 C756 1.377 . S
C757 C758 1.379 . S
C758 H742 0.931 . S
C758 C752 1.383 . S
C758 C757 1.379 . S
H759 C753 0.959 . S
H760 C753 0.961 . S
H761 C753 0.960 . S
H762 C754 0.930 . S
H763 C755 0.929 . S
H764 C772 0.929 . S
H765 C774 0.930 . S
H766 C776 0.930 . S
H767 C779 0.929 . S
H768 C782 0.930 . S
H769 C784 0.960 . S
H770 C784 0.960 . S
H771 C784 0.960 . S
C772 H764 0.929 . S
C772 C773 1.377 . S
C772 C774 1.384 . S
C773 C772 1.377 . S
C773 C779 1.390 . S
C774 H765 0.930 . S
C774 C772 1.384 . S
C774 C775 1.372 . S
C775 C774 1.372 . S
C775 C776 1.400 . S
C775 C780 1.490 . S
C776 H766 0.930 . S
C776 C775 1.400 . S
C776 C779 1.386 . S
H777 C793 0.930 . S
H778 C794 0.931 . S
C779 H767 0.929 . S
C779 C773 1.390 . S
C779 C776 1.386 . S
C780 C775 1.490 . S
C780 C782 1.395 . S
C780 C783 1.403 . S
H781 C787 0.930 . S
C782 H768 0.930 . S
C782 C780 1.395 . S
C782 C785 1.403 . S
C783 C780 1.403 . S
C783 C784 1.524 . S
C783 C787 1.400 . S
C784 H769 0.960 . S
C784 H770 0.960 . S
C784 H771 0.960 . S
C784 C783 1.524 . S
C785 C782 1.403 . S
C785 C786 1.392 . S
C785 C789 1.495 . S
C786 C785 1.392 . S
C786 C787 1.385 . S
C786 C788 1.478 . S
C787 H781 0.930 . S
C787 C783 1.400 . S
C787 C786 1.385 . S
C788 C786 1.478 . S
C788 C790 1.381 . S
C788 C794 1.383 . S
C789 C785 1.495 . S
C789 H795 0.959 . S
C789 H796 0.961 . S
C789 H797 0.960 . S
C790 C788 1.381 . S
C790 C791 1.394 . S
C790 H798 0.930 . S
C791 C790 1.394 . S
C791 C792 1.383 . S
C791 H799 0.929 . S
C792 C791 1.383 . S
C792 C793 1.377 . S
C793 H777 0.930 . S
C793 C792 1.377 . S
C793 C794 1.379 . S
C794 H778 0.931 . S
C794 C788 1.383 . S
C794 C793 1.379 . S
H795 C789 0.959 . S
H796 C789 0.961 . S
H797 C789 0.960 . S
H798 C790 0.930 . S
H799 C791 0.929 . S
H800 C808 0.929 . S
H801 C810 0.930 . S
H802 C812 0.930 . S
H803 C815 0.929 . S
H804 C818 0.930 . S
H805 C820 0.960 . S
H806 C820 0.960 1_554 S
H807 C820 0.960 1_554 S
C808 H800 0.929 . S
C808 C809 1.377 . S
C808 C810 1.384 . S
C809 C808 1.377 . S
C809 C815 1.390 . S
C810 H801 0.930 . S
C810 C808 1.384 . S
C810 C811 1.372 . S
C811 C810 1.372 . S
C811 C812 1.400 . S
C811 C816 1.490 1_554 S
C812 H802 0.930 . S
C812 C811 1.400 . S
C812 C815 1.386 . S
H813 C829 0.930 . S
H814 C830 0.931 . S
C815 H803 0.929 . S
C815 C809 1.390 . S
C815 C812 1.386 . S
C816 C811 1.490 1_556 S
C816 C818 1.395 . S
C816 C819 1.403 . S
H817 C823 0.930 . S
C818 H804 0.930 . S
C818 C816 1.395 . S
C818 C821 1.403 . S
C819 C816 1.403 . S
C819 C820 1.524 . S
C819 C823 1.400 . S
C820 H805 0.960 . S
C820 H806 0.960 1_556 S
C820 H807 0.960 1_556 S
C820 C819 1.524 . S
C821 C818 1.403 . S
C821 C822 1.392 . S
C821 C825 1.495 . S
C822 C821 1.392 . S
C822 C823 1.385 . S
C822 C824 1.478 . S
C823 H817 0.930 . S
C823 C819 1.400 . S
C823 C822 1.385 . S
C824 C822 1.478 . S
C824 C826 1.381 . S
C824 C830 1.383 . S
C825 C821 1.495 . S
C825 H831 0.959 . S
C825 H832 0.961 . S
C825 H833 0.960 . S
C826 C824 1.381 . S
C826 C827 1.394 . S
C826 H834 0.930 . S
C827 C826 1.394 . S
C827 C828 1.383 . S
C827 H835 0.929 . S
C828 C827 1.383 . S
C828 C829 1.377 . S
C829 H813 0.930 . S
C829 C828 1.377 . S
C829 C830 1.379 . S
C830 H814 0.931 . S
C830 C824 1.383 . S
C830 C829 1.379 . S
H831 C825 0.959 . S
H832 C825 0.961 . S
H833 C825 0.960 . S
H834 C826 0.930 . S
H835 C827 0.929 . S
H836 C844 0.929 . S
H837 C846 0.930 . S
H838 C848 0.930 . S
H839 C851 0.929 . S
H840 C854 0.930 . S
H841 C856 0.960 . S
H842 C856 0.960 . S
H843 C856 0.960 . S
C844 H836 0.929 . S
C844 C845 1.377 . S
C844 C846 1.384 . S
C845 C844 1.377 . S
C845 C851 1.390 . S
C846 H837 0.930 . S
C846 C844 1.384 . S
C846 C847 1.372 . S
C847 C846 1.372 . S
C847 C848 1.400 . S
C847 C852 1.490 . S
C848 H838 0.930 . S
C848 C847 1.400 . S
C848 C851 1.386 . S
H849 C865 0.930 . S
H850 C866 0.931 . S
C851 H839 0.929 . S
C851 C845 1.390 . S
C851 C848 1.386 . S
C852 C847 1.490 . S
C852 C854 1.395 . S
C852 C855 1.403 . S
H853 C859 0.930 . S
C854 H840 0.930 . S
C854 C852 1.395 . S
C854 C857 1.403 . S
C855 C852 1.403 . S
C855 C856 1.524 . S
C855 C859 1.400 . S
C856 H841 0.960 . S
C856 H842 0.960 . S
C856 H843 0.960 . S
C856 C855 1.524 . S
C857 C854 1.403 . S
C857 C858 1.392 . S
C857 C861 1.495 . S
C858 C857 1.392 . S
C858 C859 1.385 . S
C858 C860 1.478 . S
C859 H853 0.930 . S
C859 C855 1.400 . S
C859 C858 1.385 . S
C860 C858 1.478 . S
C860 C862 1.381 . S
C860 C866 1.383 . S
C861 C857 1.495 . S
C861 H867 0.959 . S
C861 H868 0.961 . S
C861 H869 0.960 . S
C862 C860 1.381 . S
C862 C863 1.394 . S
C862 H870 0.930 . S
C863 C862 1.394 . S
C863 C864 1.383 . S
C863 H871 0.929 . S
C864 C863 1.383 . S
C864 C865 1.377 . S
C865 H849 0.930 . S
C865 C864 1.377 . S
C865 C866 1.379 . S
C866 H850 0.931 . S
C866 C860 1.383 . S
C866 C865 1.379 . S
H867 C861 0.959 . S
H868 C861 0.961 . S
H869 C861 0.960 . S
H870 C862 0.930 . S
H871 C863 0.929 . S
H872 C880 0.929 . S
H873 C882 0.930 . S
H874 C884 0.930 1_556 S
H875 C887 0.929 . S
H876 C890 0.930 . S
H877 C892 0.960 . S
H878 C892 0.960 . S
H879 C892 0.960 . S
C880 H872 0.929 . S
C880 C881 1.377 . S
C880 C882 1.384 . S
C881 C880 1.377 . S
C881 C887 1.390 . S
C882 H873 0.930 . S
C882 C880 1.384 . S
C882 C883 1.372 . S
C883 C882 1.372 . S
C883 C884 1.400 . S
C883 C888 1.490 1_554 S
C884 H874 0.930 1_554 S
C884 C883 1.400 . S
C884 C887 1.386 . S
H885 C901 0.930 . S
H886 C902 0.931 . S
C887 H875 0.929 . S
C887 C881 1.390 . S
C887 C884 1.386 . S
C888 C883 1.490 1_556 S
C888 C890 1.395 . S
C888 C891 1.403 . S
H889 C895 0.930 . S
C890 H876 0.930 . S
C890 C888 1.395 . S
C890 C893 1.403 . S
C891 C888 1.403 . S
C891 C892 1.524 . S
C891 C895 1.400 . S
C892 H877 0.960 . S
C892 H878 0.960 . S
C892 H879 0.960 . S
C892 C891 1.524 . S
C893 C890 1.403 . S
C893 C894 1.392 . S
C893 C897 1.495 . S
C894 C893 1.392 . S
C894 C895 1.385 . S
C894 C896 1.478 . S
C895 H889 0.930 . S
C895 C891 1.400 . S
C895 C894 1.385 . S
C896 C894 1.478 . S
C896 C898 1.381 . S
C896 C902 1.383 . S
C897 C893 1.495 . S
C897 H903 0.959 . S
C897 H904 0.961 . S
C897 H905 0.960 . S
C898 C896 1.381 . S
C898 C899 1.394 . S
C898 H906 0.930 . S
C899 C898 1.394 . S
C899 C900 1.383 . S
C899 H907 0.929 . S
C900 C899 1.383 . S
C900 C901 1.377 . S
C901 H885 0.930 . S
C901 C900 1.377 . S
C901 C902 1.379 . S
C902 H886 0.931 . S
C902 C896 1.383 . S
C902 C901 1.379 . S
H903 C897 0.959 . S
H904 C897 0.961 . S
H905 C897 0.960 . S
H906 C898 0.930 . S
H907 C899 0.929 . S
H908 C916 0.929 . S
H909 C918 0.930 . S
H910 C920 0.930 . S
H911 C923 0.929 . S
H912 C926 0.930 . S
H913 C928 0.960 . S
H914 C928 0.960 . S
H915 C928 0.960 . S
C916 H908 0.929 . S
C916 C917 1.377 . S
C916 C918 1.384 . S
C917 C916 1.377 . S
C917 C923 1.390 . S
C918 H909 0.930 . S
C918 C916 1.384 . S
C918 C919 1.372 . S
C919 C918 1.372 . S
C919 C920 1.400 . S
C919 C924 1.490 . S
C920 H910 0.930 . S
C920 C919 1.400 . S
C920 C923 1.386 . S
H921 C937 0.930 . S
H922 C938 0.931 . S
C923 H911 0.929 . S
C923 C917 1.390 . S
C923 C920 1.386 . S
C924 C919 1.490 . S
C924 C926 1.395 . S
C924 C927 1.403 . S
H925 C931 0.930 . S
C926 H912 0.930 . S
C926 C924 1.395 . S
C926 C929 1.403 . S
C927 C924 1.403 . S
C927 C928 1.524 . S
C927 C931 1.400 . S
C928 H913 0.960 . S
C928 H914 0.960 . S
C928 H915 0.960 . S
C928 C927 1.524 . S
C929 C926 1.403 . S
C929 C930 1.392 . S
C929 C933 1.495 . S
C930 C929 1.392 . S
C930 C931 1.385 . S
C930 C932 1.478 . S
C931 H925 0.930 . S
C931 C927 1.400 . S
C931 C930 1.385 . S
C932 C930 1.478 . S
C932 C934 1.381 . S
C932 C938 1.383 . S
C933 C929 1.495 . S
C933 H939 0.959 . S
C933 H940 0.961 . S
C933 H941 0.960 . S
C934 C932 1.381 . S
C934 C935 1.394 . S
C934 H942 0.930 . S
C935 C934 1.394 . S
C935 C936 1.383 . S
C935 H943 0.929 . S
C936 C935 1.383 . S
C936 C937 1.377 . S
C937 H921 0.930 . S
C937 C936 1.377 . S
C937 C938 1.379 . S
C938 H922 0.931 . S
C938 C932 1.383 . S
C938 C937 1.379 . S
H939 C933 0.959 . S
H940 C933 0.961 . S
H941 C933 0.960 . S
H942 C934 0.930 . S
H943 C935 0.929 . S
H944 C952 0.929 . S
H945 C954 0.930 1_554 S
H946 C956 0.930 . S
H947 C959 0.929 . S
H948 C962 0.930 . S
H949 C964 0.960 . S
H950 C964 0.955 1_556 S
H951 C964 0.960 1_556 S
C952 H944 0.929 . S
C952 C953 1.377 . S
C952 C954 1.384 . S
C953 C952 1.377 . S
C953 C959 1.390 . S
C954 H945 0.930 1_556 S
C954 C952 1.384 . S
C954 C955 1.372 . S
C955 C954 1.372 . S
C955 C956 1.400 . S
C955 C960 1.490 1_556 S
C956 H946 0.930 . S
C956 C955 1.400 . S
C956 C959 1.386 . S
H957 C973 0.930 . S
H958 C974 0.931 . S
C959 H947 0.929 . S
C959 C953 1.390 . S
C959 C956 1.386 . S
C960 C955 1.490 1_554 S
C960 C962 1.395 . S
C960 C963 1.403 . S
H961 C967 0.930 . S
C962 H948 0.930 . S
C962 C960 1.395 . S
C962 C965 1.403 . S
C963 C960 1.403 . S
C963 C964 1.524 . S
C963 C967 1.400 . S
C964 H949 0.960 . S
C964 H950 0.955 1_554 S
C964 H951 0.960 1_554 S
C964 C963 1.524 . S
C965 C962 1.403 . S
C965 C966 1.392 . S
C965 C969 1.495 . S
C966 C965 1.392 . S
C966 C967 1.385 . S
C966 C968 1.478 . S
C967 H961 0.930 . S
C967 C963 1.400 . S
C967 C966 1.385 . S
C968 C966 1.478 . S
C968 C970 1.381 . S
C968 C974 1.383 . S
C969 C965 1.495 . S
C969 H975 0.959 . S
C969 H976 0.961 . S
C969 H977 0.960 . S
C970 C968 1.381 . S
C970 C971 1.394 . S
C970 H978 0.930 . S
C971 C970 1.394 . S
C971 C972 1.383 . S
C971 H979 0.929 . S
C972 C971 1.383 . S
C972 C973 1.377 . S
C973 H957 0.930 . S
C973 C972 1.377 . S
C973 C974 1.379 . S
C974 H958 0.931 . S
C974 C968 1.383 . S
C974 C973 1.379 . S
H975 C969 0.959 . S
H976 C969 0.961 . S
H977 C969 0.960 . S
H978 C970 0.930 . S
H979 C971 0.929 . S
H980 C988 0.929 . S
H981 C990 0.930 . S
H982 C992 0.930 . S
H983 C995 0.929 . S
H984 C998 0.930 . S
H985 C1000 0.960 . S
H986 C1000 0.960 . S
H987 C1000 0.960 . S
C988 H980 0.929 . S
C988 C989 1.377 . S
C988 C990 1.384 . S
C989 C988 1.377 . S
C989 C995 1.390 . S
C990 H981 0.930 . S
C990 C988 1.384 . S
C990 C991 1.372 . S
C991 C990 1.372 . S
C991 C992 1.400 . S
C991 C996 1.490 . S
C992 H982 0.930 . S
C992 C991 1.400 . S
C992 C995 1.386 . S
H993 C1009 0.930 . S
H994 C1010 0.931 . S
C995 H983 0.929 . S
C995 C989 1.390 . S
C995 C992 1.386 . S
C996 C991 1.490 . S
C996 C998 1.395 . S
C996 C999 1.403 . S
H997 C1003 0.930 . S
C998 H984 0.930 . S
C998 C996 1.395 . S
C998 C1001 1.403 . S
C999 C996 1.403 . S
C999 C1000 1.524 . S
C999 C1003 1.400 . S
C1000 H985 0.960 . S
C1000 H986 0.960 . S
C1000 H987 0.960 . S
C1000 C999 1.524 . S
C1001 C998 1.403 . S
C1001 C1002 1.392 . S
C1001 C1005 1.495 . S
C1002 C1001 1.392 . S
C1002 C1003 1.385 . S
C1002 C1004 1.478 . S
C1003 H997 0.930 . S
C1003 C999 1.400 . S
C1003 C1002 1.385 . S
C1004 C1002 1.478 . S
C1004 C1006 1.381 . S
C1004 C1010 1.383 . S
C1005 C1001 1.495 . S
C1005 H1011 0.959 . S
C1005 H1012 0.961 . S
C1005 H1013 0.960 . S
C1006 C1004 1.381 . S
C1006 C1007 1.394 . S
C1006 H1014 0.930 . S
C1007 C1006 1.394 . S
C1007 C1008 1.383 . S
C1007 H1015 0.929 . S
C1008 C1007 1.383 . S
C1008 C1009 1.377 . S
C1009 H993 0.930 . S
C1009 C1008 1.377 . S
C1009 C1010 1.379 . S
C1010 H994 0.931 . S
C1010 C1004 1.383 . S
C1010 C1009 1.379 . S
H1011 C1005 0.959 . S
H1012 C1005 0.961 . S
H1013 C1005 0.960 . S
H1014 C1006 0.930 . S
H1015 C1007 0.929 . S
H1016 C1024 0.929 . S
H1017 C1026 0.930 . S
H1018 C1028 0.930 . S
H1019 C1031 0.929 . S
H1020 C1034 0.930 . S
H1021 C1036 0.960 . S
H1022 C1036 0.960 . S
H1023 C1036 0.960 . S
C1024 H1016 0.929 . S
C1024 C1025 1.377 . S
C1024 C1026 1.384 . S
C1025 C1024 1.377 . S
C1025 C1031 1.390 . S
C1026 H1017 0.930 . S
C1026 C1024 1.384 . S
C1026 C1027 1.372 . S
C1027 C1026 1.372 . S
C1027 C1028 1.400 . S
C1027 C1032 1.490 . S
C1028 H1018 0.930 . S
C1028 C1027 1.400 . S
C1028 C1031 1.386 . S
H1029 C1045 0.930 . S
H1030 C1046 0.931 . S
C1031 H1019 0.929 . S
C1031 C1025 1.390 . S
C1031 C1028 1.386 . S
C1032 C1027 1.490 . S
C1032 C1034 1.395 . S
C1032 C1035 1.403 . S
H1033 C1039 0.930 . S
C1034 H1020 0.930 . S
C1034 C1032 1.395 . S
C1034 C1037 1.403 . S
C1035 C1032 1.403 . S
C1035 C1036 1.524 . S
C1035 C1039 1.400 . S
C1036 H1021 0.960 . S
C1036 H1022 0.960 . S
C1036 H1023 0.960 . S
C1036 C1035 1.524 . S
C1037 C1034 1.403 . S
C1037 C1038 1.392 . S
C1037 C1041 1.495 . S
C1038 C1037 1.392 . S
C1038 C1039 1.385 . S
C1038 C1040 1.478 . S
C1039 H1033 0.930 . S
C1039 C1035 1.400 . S
C1039 C1038 1.385 . S
C1040 C1038 1.478 . S
C1040 C1042 1.381 . S
C1040 C1046 1.383 . S
C1041 C1037 1.495 . S
C1041 H1047 0.959 . S
C1041 H1048 0.961 . S
C1041 H1049 0.960 . S
C1042 C1040 1.381 . S
C1042 C1043 1.394 . S
C1042 H1050 0.930 . S
C1043 C1042 1.394 . S
C1043 C1044 1.383 . S
C1043 H1051 0.929 . S
C1044 C1043 1.383 . S
C1044 C1045 1.377 . S
C1045 H1029 0.930 . S
C1045 C1044 1.377 . S
C1045 C1046 1.379 . S
C1046 H1030 0.931 . S
C1046 C1040 1.383 . S
C1046 C1045 1.379 . S
H1047 C1041 0.959 . S
H1048 C1041 0.961 . S
H1049 C1041 0.960 . S
H1050 C1042 0.930 . S
H1051 C1043 0.929 . S
H1052 C1060 0.929 . S
H1053 C1062 0.930 . S
H1054 C1064 0.930 . S
H1055 C1067 0.929 . S
H1056 C1070 0.930 . S
H1057 C1072 0.960 . S
H1058 C1072 0.960 . S
H1059 C1072 0.960 . S
C1060 H1052 0.929 . S
C1060 C1061 1.377 . S
C1060 C1062 1.384 . S
C1061 C1060 1.377 . S
C1061 C1067 1.390 . S
C1062 H1053 0.930 . S
C1062 C1060 1.384 . S
C1062 C1063 1.372 . S
C1063 C1062 1.372 . S
C1063 C1064 1.400 . S
C1063 C1068 1.490 . S
C1064 H1054 0.930 . S
C1064 C1063 1.400 . S
C1064 C1067 1.386 . S
H1065 C1081 0.930 . S
H1066 C1082 0.931 . S
C1067 H1055 0.929 . S
C1067 C1061 1.390 . S
C1067 C1064 1.386 . S
C1068 C1063 1.490 . S
C1068 C1070 1.395 . S
C1068 C1071 1.403 . S
H1069 C1075 0.930 . S
C1070 H1056 0.930 . S
C1070 C1068 1.395 . S
C1070 C1073 1.403 . S
C1071 C1068 1.403 . S
C1071 C1072 1.524 . S
C1071 C1075 1.400 . S
C1072 H1057 0.960 . S
C1072 H1058 0.960 . S
C1072 H1059 0.960 . S
C1072 C1071 1.524 . S
C1073 C1070 1.403 . S
C1073 C1074 1.392 . S
C1073 C1077 1.495 . S
C1074 C1073 1.392 . S
C1074 C1075 1.385 . S
C1074 C1076 1.478 . S
C1075 H1069 0.930 . S
C1075 C1071 1.400 . S
C1075 C1074 1.385 . S
C1076 C1074 1.478 . S
C1076 C1078 1.381 . S
C1076 C1082 1.383 . S
C1077 C1073 1.495 . S
C1077 H1083 0.959 . S
C1077 H1084 0.961 . S
C1077 H1085 0.960 . S
C1078 C1076 1.381 . S
C1078 C1079 1.394 . S
C1078 H1086 0.930 . S
C1079 C1078 1.394 . S
C1079 C1080 1.383 . S
C1079 H1087 0.929 . S
C1080 C1079 1.383 . S
C1080 C1081 1.377 . S
C1081 H1065 0.930 . S
C1081 C1080 1.377 . S
C1081 C1082 1.379 . S
C1082 H1066 0.931 . S
C1082 C1076 1.383 . S
C1082 C1081 1.379 . S
H1083 C1077 0.959 . S
H1084 C1077 0.961 . S
H1085 C1077 0.960 . S
H1086 C1078 0.930 . S
H1087 C1079 0.929 . S
H1088 C1096 0.929 . S
H1089 C1098 0.930 . S
H1090 C1100 0.930 . S
H1091 C1103 0.929 . S
H1092 C1106 0.930 . S
H1093 C1108 0.960 . S
H1094 C1108 0.960 . S
H1095 C1108 0.960 . S
C1096 H1088 0.929 . S
C1096 C1097 1.377 . S
C1096 C1098 1.384 . S
C1097 C1096 1.377 . S
C1097 C1103 1.390 . S
C1098 H1089 0.930 . S
C1098 C1096 1.384 . S
C1098 C1099 1.372 . S
C1099 C1098 1.372 . S
C1099 C1100 1.400 . S
C1099 C1104 1.490 . S
C1100 H1090 0.930 . S
C1100 C1099 1.400 . S
C1100 C1103 1.386 . S
H1101 C1117 0.930 . S
H1102 C1118 0.931 . S
C1103 H1091 0.929 . S
C1103 C1097 1.390 . S
C1103 C1100 1.386 . S
C1104 C1099 1.490 . S
C1104 C1106 1.395 . S
C1104 C1107 1.403 . S
H1105 C1111 0.930 . S
C1106 H1092 0.930 . S
C1106 C1104 1.395 . S
C1106 C1109 1.403 . S
C1107 C1104 1.403 . S
C1107 C1108 1.524 . S
C1107 C1111 1.400 . S
C1108 H1093 0.960 . S
C1108 H1094 0.960 . S
C1108 H1095 0.960 . S
C1108 C1107 1.524 . S
C1109 C1106 1.403 . S
C1109 C1110 1.392 . S
C1109 C1113 1.495 . S
C1110 C1109 1.392 . S
C1110 C1111 1.385 . S
C1110 C1112 1.478 . S
C1111 H1105 0.930 . S
C1111 C1107 1.400 . S
C1111 C1110 1.385 . S
C1112 C1110 1.478 . S
C1112 C1114 1.381 . S
C1112 C1118 1.383 . S
C1113 C1109 1.495 . S
C1113 H1119 0.959 . S
C1113 H1120 0.961 . S
C1113 H1121 0.960 . S
C1114 C1112 1.381 . S
C1114 C1115 1.394 . S
C1114 H1122 0.930 . S
C1115 C1114 1.394 . S
C1115 C1116 1.383 . S
C1115 H1123 0.929 . S
C1116 C1115 1.383 . S
C1116 C1117 1.377 . S
C1117 H1101 0.930 . S
C1117 C1116 1.377 . S
C1117 C1118 1.379 . S
C1118 H1102 0.931 . S
C1118 C1112 1.383 . S
C1118 C1117 1.379 . S
H1119 C1113 0.959 . S
H1120 C1113 0.961 . S
H1121 C1113 0.960 . S
H1122 C1114 0.930 . S
H1123 C1115 0.929 . S
H1124 C1132 0.929 . S
H1125 C1134 0.930 . S
H1126 C1136 0.930 . S
H1127 C1139 0.929 . S
H1128 C1142 0.930 . S
H1129 C1144 0.960 . S
H1130 C1144 0.960 . S
H1131 C1144 0.960 . S
C1132 H1124 0.929 . S
C1132 C1133 1.377 . S
C1132 C1134 1.384 . S
C1133 C1132 1.377 . S
C1133 C1139 1.390 . S
C1134 H1125 0.930 . S
C1134 C1132 1.384 . S
C1134 C1135 1.372 . S
C1135 C1134 1.372 . S
C1135 C1136 1.400 . S
C1135 C1140 1.490 . S
C1136 H1126 0.930 . S
C1136 C1135 1.400 . S
C1136 C1139 1.386 . S
H1137 C1153 0.930 . S
H1138 C1154 0.931 . S
C1139 H1127 0.929 . S
C1139 C1133 1.390 . S
C1139 C1136 1.386 . S
C1140 C1135 1.490 . S
C1140 C1142 1.395 . S
C1140 C1143 1.403 . S
H1141 C1147 0.930 . S
C1142 H1128 0.930 . S
C1142 C1140 1.395 . S
C1142 C1145 1.403 . S
C1143 C1140 1.403 . S
C1143 C1144 1.524 . S
C1143 C1147 1.400 . S
C1144 H1129 0.960 . S
C1144 H1130 0.960 . S
C1144 H1131 0.960 . S
C1144 C1143 1.524 . S
C1145 C1142 1.403 . S
C1145 C1146 1.392 . S
C1145 C1149 1.495 . S
C1146 C1145 1.392 . S
C1146 C1147 1.385 . S
C1146 C1148 1.478 . S
C1147 H1141 0.930 . S
C1147 C1143 1.400 . S
C1147 C1146 1.385 . S
C1148 C1146 1.478 . S
C1148 C1150 1.381 . S
C1148 C1154 1.383 . S
C1149 C1145 1.495 . S
C1149 H1155 0.959 . S
C1149 H1156 0.961 . S
C1149 H1157 0.960 . S
C1150 C1148 1.381 . S
C1150 C1151 1.394 . S
C1150 H1158 0.930 . S
C1151 C1150 1.394 . S
C1151 C1152 1.383 . S
C1151 H1159 0.929 . S
C1152 C1151 1.383 . S
C1152 C1153 1.377 . S
C1153 H1137 0.930 . S
C1153 C1152 1.377 . S
C1153 C1154 1.379 . S
C1154 H1138 0.931 . S
C1154 C1148 1.383 . S
C1154 C1153 1.379 . S
H1155 C1149 0.959 . S
H1156 C1149 0.961 . S
H1157 C1149 0.960 . S
H1158 C1150 0.930 . S
H1159 C1151 0.929 . S
H1160 C1168 0.929 . S
H1161 C1170 0.930 . S
H1162 C1172 0.930 . S
H1163 C1175 0.929 . S
H1164 C1178 0.930 . S
H1165 C1180 0.960 . S
H1166 C1180 0.960 . S
H1167 C1180 0.960 . S
C1168 H1160 0.929 . S
C1168 C1169 1.377 . S
C1168 C1170 1.384 . S
C1169 C1168 1.377 . S
C1169 C1175 1.390 . S
C1170 H1161 0.930 . S
C1170 C1168 1.384 . S
C1170 C1171 1.372 . S
C1171 C1170 1.372 . S
C1171 C1172 1.400 . S
C1171 C1176 1.490 . S
C1172 H1162 0.930 . S
C1172 C1171 1.400 . S
C1172 C1175 1.386 . S
H1173 C1189 0.930 1_455 S
H1174 C1190 0.931 . S
C1175 H1163 0.929 . S
C1175 C1169 1.390 . S
C1175 C1172 1.386 . S
C1176 C1171 1.490 . S
C1176 C1178 1.395 . S
C1176 C1179 1.403 . S
H1177 C1183 0.930 . S
C1178 H1164 0.930 . S
C1178 C1176 1.395 . S
C1178 C1181 1.403 . S
C1179 C1176 1.403 . S
C1179 C1180 1.524 . S
C1179 C1183 1.400 . S
C1180 H1165 0.960 . S
C1180 H1166 0.960 . S
C1180 H1167 0.960 . S
C1180 C1179 1.524 . S
C1181 C1178 1.403 . S
C1181 C1182 1.392 . S
C1181 C1185 1.495 . S
C1182 C1181 1.392 . S
C1182 C1183 1.385 . S
C1182 C1184 1.478 . S
C1183 H1177 0.930 . S
C1183 C1179 1.400 . S
C1183 C1182 1.385 . S
C1184 C1182 1.478 . S
C1184 C1186 1.381 . S
C1184 C1190 1.383 . S
C1185 C1181 1.495 . S
C1185 H1191 0.959 . S
C1185 H1192 0.961 . S
C1185 H1193 0.960 . S
C1186 C1184 1.381 . S
C1186 C1187 1.394 . S
C1186 H1194 0.930 . S
C1187 C1186 1.394 . S
C1187 C1188 1.383 . S
C1187 H1195 0.929 . S
C1188 C1187 1.383 . S
C1188 C1189 1.377 . S
C1189 H1173 0.930 1_655 S
C1189 C1188 1.377 . S
C1189 C1190 1.379 . S
C1190 H1174 0.931 . S
C1190 C1184 1.383 . S
C1190 C1189 1.379 . S
H1191 C1185 0.959 . S
H1192 C1185 0.961 . S
H1193 C1185 0.960 . S
H1194 C1186 0.930 . S
H1195 C1187 0.929 . S
H1196 C1204 0.929 . S
H1197 C1206 0.930 . S
H1198 C1208 0.930 . S
H1199 C1211 0.929 . S
H1200 C1214 0.930 . S
H1201 C1216 0.960 . S
H1202 C1216 0.960 . S
H1203 C1216 0.960 . S
C1204 H1196 0.929 . S
C1204 C1205 1.377 . S
C1204 C1206 1.384 . S
C1205 C1204 1.377 . S
C1205 C1211 1.390 . S
C1206 H1197 0.930 . S
C1206 C1204 1.384 . S
C1206 C1207 1.372 . S
C1207 C1206 1.372 . S
C1207 C1208 1.400 . S
C1207 C1212 1.490 . S
C1208 H1198 0.930 . S
C1208 C1207 1.400 . S
C1208 C1211 1.386 . S
H1209 C1225 0.930 . S
H1210 C1226 0.931 . S
C1211 H1199 0.929 . S
C1211 C1205 1.390 . S
C1211 C1208 1.386 . S
C1212 C1207 1.490 . S
C1212 C1214 1.395 . S
C1212 C1215 1.403 . S
H1213 C1219 0.930 . S
C1214 H1200 0.930 . S
C1214 C1212 1.395 . S
C1214 C1217 1.403 . S
C1215 C1212 1.403 . S
C1215 C1216 1.524 . S
C1215 C1219 1.400 . S
C1216 H1201 0.960 . S
C1216 H1202 0.960 . S
C1216 H1203 0.960 . S
C1216 C1215 1.524 . S
C1217 C1214 1.403 . S
C1217 C1218 1.392 . S
C1217 C1221 1.495 . S
C1218 C1217 1.392 . S
C1218 C1219 1.385 . S
C1218 C1220 1.478 . S
C1219 H1213 0.930 . S
C1219 C1215 1.400 . S
C1219 C1218 1.385 . S
C1220 C1218 1.478 . S
C1220 C1222 1.381 . S
C1220 C1226 1.383 . S
C1221 C1217 1.495 . S
C1221 H1227 0.959 . S
C1221 H1228 0.961 . S
C1221 H1229 0.960 . S
C1222 C1220 1.381 . S
C1222 C1223 1.394 . S
C1222 H1230 0.930 . S
C1223 C1222 1.394 . S
C1223 C1224 1.383 . S
C1223 H1231 0.929 . S
C1224 C1223 1.383 . S
C1224 C1225 1.377 . S
C1225 H1209 0.930 . S
C1225 C1224 1.377 . S
C1225 C1226 1.379 . S
C1226 H1210 0.931 . S
C1226 C1220 1.383 . S
C1226 C1225 1.379 . S
H1227 C1221 0.959 . S
H1228 C1221 0.961 . S
H1229 C1221 0.960 . S
H1230 C1222 0.930 . S
H1231 C1223 0.929 . S
H1232 C1240 0.929 . S
H1233 C1242 0.930 . S
H1234 C1244 0.930 . S
H1235 C1247 0.929 . S
H1236 C1250 0.930 . S
H1237 C1252 0.960 . S
H1238 C1252 0.960 . S
H1239 C1252 0.960 . S
C1240 H1232 0.929 . S
C1240 C1241 1.377 . S
C1240 C1242 1.384 . S
C1241 C1240 1.377 . S
C1241 C1247 1.390 . S
C1242 H1233 0.930 . S
C1242 C1240 1.384 . S
C1242 C1243 1.372 . S
C1243 C1242 1.372 . S
C1243 C1244 1.400 . S
C1243 C1248 1.490 . S
C1244 H1234 0.930 . S
C1244 C1243 1.400 . S
C1244 C1247 1.386 . S
H1245 C1261 0.930 . S
H1246 C1262 0.931 . S
C1247 H1235 0.929 . S
C1247 C1241 1.390 . S
C1247 C1244 1.386 . S
C1248 C1243 1.490 . S
C1248 C1250 1.395 . S
C1248 C1251 1.403 . S
H1249 C1255 0.930 . S
C1250 H1236 0.930 . S
C1250 C1248 1.395 . S
C1250 C1253 1.403 . S
C1251 C1248 1.403 . S
C1251 C1252 1.524 . S
C1251 C1255 1.400 . S
C1252 H1237 0.960 . S
C1252 H1238 0.960 . S
C1252 H1239 0.960 . S
C1252 C1251 1.524 . S
C1253 C1250 1.403 . S
C1253 C1254 1.392 . S
C1253 C1257 1.495 . S
C1254 C1253 1.392 . S
C1254 C1255 1.385 . S
C1254 C1256 1.478 . S
C1255 H1249 0.930 . S
C1255 C1251 1.400 . S
C1255 C1254 1.385 . S
C1256 C1254 1.478 . S
C1256 C1258 1.381 . S
C1256 C1262 1.383 . S
C1257 C1253 1.495 . S
C1257 H1263 0.959 . S
C1257 H1264 0.961 . S
C1257 H1265 0.960 . S
C1258 C1256 1.381 . S
C1258 C1259 1.394 . S
C1258 H1266 0.930 . S
C1259 C1258 1.394 . S
C1259 C1260 1.383 . S
C1259 H1267 0.929 . S
C1260 C1259 1.383 . S
C1260 C1261 1.377 . S
C1261 H1245 0.930 . S
C1261 C1260 1.377 . S
C1261 C1262 1.379 . S
C1262 H1246 0.931 . S
C1262 C1256 1.383 . S
C1262 C1261 1.379 . S
H1263 C1257 0.959 . S
H1264 C1257 0.961 . S
H1265 C1257 0.960 . S
H1266 C1258 0.930 . S
H1267 C1259 0.929 . S
H1268 C1276 0.929 . S
H1269 C1278 0.930 . S
H1270 C1280 0.930 . S
H1271 C1283 0.929 . S
H1272 C1286 0.930 . S
H1273 C1288 0.960 . S
H1274 C1288 0.960 . S
H1275 C1288 0.960 . S
C1276 H1268 0.929 . S
C1276 C1277 1.377 . S
C1276 C1278 1.384 . S
C1277 C1276 1.377 . S
C1277 C1283 1.390 . S
C1278 H1269 0.930 . S
C1278 C1276 1.384 . S
C1278 C1279 1.372 . S
C1279 C1278 1.372 . S
C1279 C1280 1.400 . S
C1279 C1284 1.490 . S
C1280 H1270 0.930 . S
C1280 C1279 1.400 . S
C1280 C1283 1.386 . S
H1281 C1297 0.930 . S
H1282 C1298 0.931 . S
C1283 H1271 0.929 . S
C1283 C1277 1.390 . S
C1283 C1280 1.386 . S
C1284 C1279 1.490 . S
C1284 C1286 1.395 . S
C1284 C1287 1.403 . S
H1285 C1291 0.930 . S
C1286 H1272 0.930 . S
C1286 C1284 1.395 . S
C1286 C1289 1.403 . S
C1287 C1284 1.403 . S
C1287 C1288 1.524 . S
C1287 C1291 1.400 . S
C1288 H1273 0.960 . S
C1288 H1274 0.960 . S
C1288 H1275 0.960 . S
C1288 C1287 1.524 . S
C1289 C1286 1.403 . S
C1289 C1290 1.392 . S
C1289 C1293 1.495 . S
C1290 C1289 1.392 . S
C1290 C1291 1.385 . S
C1290 C1292 1.478 . S
C1291 H1285 0.930 . S
C1291 C1287 1.400 . S
C1291 C1290 1.385 . S
C1292 C1290 1.478 . S
C1292 C1294 1.381 . S
C1292 C1298 1.383 . S
C1293 C1289 1.495 . S
C1293 H1299 0.959 . S
C1293 H1300 0.961 . S
C1293 H1301 0.960 . S
C1294 C1292 1.381 . S
C1294 C1295 1.394 . S
C1294 H1302 0.930 . S
C1295 C1294 1.394 . S
C1295 C1296 1.383 . S
C1295 H1303 0.929 . S
C1296 C1295 1.383 . S
C1296 C1297 1.377 . S
C1297 H1281 0.930 . S
C1297 C1296 1.377 . S
C1297 C1298 1.379 . S
C1298 H1282 0.931 . S
C1298 C1292 1.383 . S
C1298 C1297 1.379 . S
H1299 C1293 0.959 . S
H1300 C1293 0.961 . S
H1301 C1293 0.960 . S
H1302 C1294 0.930 . S
H1303 C1295 0.929 . S
C449 C86 1.639 . S
C468 C160 1.615 . S
C504 C244 1.684 . S
C485 C100 1.721 . S
C540 C243 1.631 . S
C521 C60 1.630 . S
C557 C74 1.709 . S
C576 C159 1.704 . S
C612 C340 1.692 . S
C593 C35 1.721 . S
C648 C424 1.623 . S
C629 C47 1.643 . S
C665 C9 1.709 . S
C684 C423 1.715 . S
C701 C21 1.633 . S
C720 C339 1.622 . S
C756 C162 1.438 . S
C737 C22 1.599 . S
C792 C246 1.467 . S
C773 C8 1.615 . S
C828 C258 1.406 . S
C809 C48 1.608 . S
C864 C174 1.463 . S
C845 C34 1.625 . S
C900 C342 1.487 . S
C881 C73 1.615 . S
C917 C61 1.594 . S
C936 C426 1.474 . S
C972 C414 1.397 . S
C953 C99 1.629 . S
C989 C87 1.613 . S
C1008 C330 1.411 . S
C1044 C171 1.640 . S
C1025 C4 1.557 . S
C1080 C255 1.504 . S
C1061 C17 1.497 . S
C1097 C30 1.555 . S
C1116 C256 1.590 . S
C1152 C172 1.468 . S
C1133 C43 1.481 . S
C1188 C327 1.514 . S
C1169 C56 1.464 . S
C1205 C69 1.576 . S
C1224 C411 1.633 . S
C1241 C82 1.464 . S
C1260 C412 1.486 . S
C1277 C95 1.568 . S
C1296 C328 1.623 . S
