# Generated by pormake.
# Topology eea, (3,6)-cn, num edge types: 1
# Building blocks:
#     Node 0, Type 0, BuildingBlock: MIDCAF_clean_linker_0, # of connection points: 3
#     Node 1, Type 0, BuildingBlock: MIDCAF_clean_linker_0, # of connection points: 3
#     Node 2, Type 0, BuildingBlock: MIDCAF_clean_linker_0, # of connection points: 3
#     Node 3, Type 0, BuildingBlock: MIDCAF_clean_linker_0, # of connection points: 3
#     Node 4, Type 0, BuildingBlock: MIDCAF_clean_linker_0, # of connection points: 3
#     Node 5, Type 0, BuildingBlock: MIDCAF_clean_linker_0, # of connection points: 3
#     Node 6, Type 0, BuildingBlock: MIDCAF_clean_linker_0, # of connection points: 3
#     Node 7, Type 0, BuildingBlock: MIDCAF_clean_linker_0, # of connection points: 3
#     Node 8, Type 0, BuildingBlock: MIDCAF_clean_linker_0, # of connection points: 3
#     Node 9, Type 0, BuildingBlock: MIDCAF_clean_linker_0, # of connection points: 3
#     Node 10, Type 0, BuildingBlock: MIDCAF_clean_linker_0, # of connection points: 3
#     Node 11, Type 0, BuildingBlock: MIDCAF_clean_linker_0, # of connection points: 3
#     Node 12, Type 0, BuildingBlock: MIDCAF_clean_linker_0, # of connection points: 3
#     Node 13, Type 0, BuildingBlock: MIDCAF_clean_linker_0, # of connection points: 3
#     Node 14, Type 0, BuildingBlock: MIDCAF_clean_linker_0, # of connection points: 3
#     Node 15, Type 0, BuildingBlock: MIDCAF_clean_linker_0, # of connection points: 3
#     Node 16, Type 0, BuildingBlock: MIDCAF_clean_linker_0, # of connection points: 3
#     Node 17, Type 0, BuildingBlock: MIDCAF_clean_linker_0, # of connection points: 3
#     Node 18, Type 1, BuildingBlock: KUMBOL_clean_sbu_0, # of connection points: 6
#     Node 19, Type 1, BuildingBlock: KUMBOL_clean_sbu_0, # of connection points: 6
#     Node 20, Type 1, BuildingBlock: KUMBOL_clean_sbu_0, # of connection points: 6
#     Node 21, Type 1, BuildingBlock: KUMBOL_clean_sbu_0, # of connection points: 6
#     Node 22, Type 1, BuildingBlock: KUMBOL_clean_sbu_0, # of connection points: 6
#     Node 23, Type 1, BuildingBlock: KUMBOL_clean_sbu_0, # of connection points: 6
#     Node 24, Type 1, BuildingBlock: KUMBOL_clean_sbu_0, # of connection points: 6
#     Node 25, Type 1, BuildingBlock: KUMBOL_clean_sbu_0, # of connection points: 6
#     Node 26, Type 1, BuildingBlock: KUMBOL_clean_sbu_0, # of connection points: 6
#     Edge 27, Type (0, 1), BuildingBlock: AJUNOK_clean_linker_0, # of connection points: 2
#     Edge 28, Type (0, 1), BuildingBlock: AJUNOK_clean_linker_0, # of connection points: 2
#     Edge 29, Type (0, 1), BuildingBlock: AJUNOK_clean_linker_0, # of connection points: 2
#     Edge 30, Type (0, 1), BuildingBlock: AJUNOK_clean_linker_0, # of connection points: 2
#     Edge 31, Type (0, 1), BuildingBlock: AJUNOK_clean_linker_0, # of connection points: 2
#     Edge 32, Type (0, 1), BuildingBlock: AJUNOK_clean_linker_0, # of connection points: 2
#     Edge 33, Type (0, 1), BuildingBlock: AJUNOK_clean_linker_0, # of connection points: 2
#     Edge 34, Type (0, 1), BuildingBlock: AJUNOK_clean_linker_0, # of connection points: 2
#     Edge 35, Type (0, 1), BuildingBlock: AJUNOK_clean_linker_0, # of connection points: 2
#     Edge 36, Type (0, 1), BuildingBlock: AJUNOK_clean_linker_0, # of connection points: 2
#     Edge 37, Type (0, 1), BuildingBlock: AJUNOK_clean_linker_0, # of connection points: 2
#     Edge 38, Type (0, 1), BuildingBlock: AJUNOK_clean_linker_0, # of connection points: 2
#     Edge 39, Type (0, 1), BuildingBlock: AJUNOK_clean_linker_0, # of connection points: 2
#     Edge 40, Type (0, 1), BuildingBlock: AJUNOK_clean_linker_0, # of connection points: 2
#     Edge 41, Type (0, 1), BuildingBlock: AJUNOK_clean_linker_0, # of connection points: 2
#     Edge 42, Type (0, 1), BuildingBlock: AJUNOK_clean_linker_0, # of connection points: 2
#     Edge 43, Type (0, 1), BuildingBlock: AJUNOK_clean_linker_0, # of connection points: 2
#     Edge 44, Type (0, 1), BuildingBlock: AJUNOK_clean_linker_0, # of connection points: 2
#     Edge 45, Type (0, 1), BuildingBlock: AJUNOK_clean_linker_0, # of connection points: 2
#     Edge 46, Type (0, 1), BuildingBlock: AJUNOK_clean_linker_0, # of connection points: 2
#     Edge 47, Type (0, 1), BuildingBlock: AJUNOK_clean_linker_0, # of connection points: 2
#     Edge 48, Type (0, 1), BuildingBlock: AJUNOK_clean_linker_0, # of connection points: 2
#     Edge 49, Type (0, 1), BuildingBlock: AJUNOK_clean_linker_0, # of connection points: 2
#     Edge 50, Type (0, 1), BuildingBlock: AJUNOK_clean_linker_0, # of connection points: 2
#     Edge 51, Type (0, 1), BuildingBlock: AJUNOK_clean_linker_0, # of connection points: 2
#     Edge 52, Type (0, 1), BuildingBlock: AJUNOK_clean_linker_0, # of connection points: 2
#     Edge 53, Type (0, 1), BuildingBlock: AJUNOK_clean_linker_0, # of connection points: 2
#     Edge 54, Type (0, 1), BuildingBlock: AJUNOK_clean_linker_0, # of connection points: 2
#     Edge 55, Type (0, 1), BuildingBlock: AJUNOK_clean_linker_0, # of connection points: 2
#     Edge 56, Type (0, 1), BuildingBlock: AJUNOK_clean_linker_0, # of connection points: 2
#     Edge 57, Type (0, 1), BuildingBlock: AJUNOK_clean_linker_0, # of connection points: 2
#     Edge 58, Type (0, 1), BuildingBlock: AJUNOK_clean_linker_0, # of connection points: 2
#     Edge 59, Type (0, 1), BuildingBlock: AJUNOK_clean_linker_0, # of connection points: 2
#     Edge 60, Type (0, 1), BuildingBlock: AJUNOK_clean_linker_0, # of connection points: 2
#     Edge 61, Type (0, 1), BuildingBlock: AJUNOK_clean_linker_0, # of connection points: 2
#     Edge 62, Type (0, 1), BuildingBlock: AJUNOK_clean_linker_0, # of connection points: 2
#     Edge 63, Type (0, 1), BuildingBlock: AJUNOK_clean_linker_0, # of connection points: 2
#     Edge 64, Type (0, 1), BuildingBlock: AJUNOK_clean_linker_0, # of connection points: 2
#     Edge 65, Type (0, 1), BuildingBlock: AJUNOK_clean_linker_0, # of connection points: 2
#     Edge 66, Type (0, 1), BuildingBlock: AJUNOK_clean_linker_0, # of connection points: 2
#     Edge 67, Type (0, 1), BuildingBlock: AJUNOK_clean_linker_0, # of connection points: 2
#     Edge 68, Type (0, 1), BuildingBlock: AJUNOK_clean_linker_0, # of connection points: 2
#     Edge 69, Type (0, 1), BuildingBlock: AJUNOK_clean_linker_0, # of connection points: 2
#     Edge 70, Type (0, 1), BuildingBlock: AJUNOK_clean_linker_0, # of connection points: 2
#     Edge 71, Type (0, 1), BuildingBlock: AJUNOK_clean_linker_0, # of connection points: 2
#     Edge 72, Type (0, 1), BuildingBlock: AJUNOK_clean_linker_0, # of connection points: 2
#     Edge 73, Type (0, 1), BuildingBlock: AJUNOK_clean_linker_0, # of connection points: 2
#     Edge 74, Type (0, 1), BuildingBlock: AJUNOK_clean_linker_0, # of connection points: 2
#     Edge 75, Type (0, 1), BuildingBlock: AJUNOK_clean_linker_0, # of connection points: 2
#     Edge 76, Type (0, 1), BuildingBlock: AJUNOK_clean_linker_0, # of connection points: 2
#     Edge 77, Type (0, 1), BuildingBlock: AJUNOK_clean_linker_0, # of connection points: 2
#     Edge 78, Type (0, 1), BuildingBlock: AJUNOK_clean_linker_0, # of connection points: 2
#     Edge 79, Type (0, 1), BuildingBlock: AJUNOK_clean_linker_0, # of connection points: 2
#     Edge 80, Type (0, 1), BuildingBlock: AJUNOK_clean_linker_0, # of connection points: 2
# Relax obj value: 0.008
# Max RMSD: 0.089
# Mean RMSD: 0.072
data_MOF--net-eea--node1-KUMBOL_clean_sbu_0--node2-MIDCAF_clean_linker_0--edge1-AJUNOK_clean_linker_0
_symmetry_space_group_name_H-M    P1
_symmetry_Int_Tables_number       1
_symmetry_cell_setting            triclinic
loop_
_symmetry_equiv_pos_as_xyz
'x, y, z'
_cell_length_a     48.167697
_cell_length_b     49.590867
_cell_length_c     71.714263
_cell_angle_alpha  89.833036
_cell_angle_beta   89.883715
_cell_angle_gamma 119.92357
loop_
_atom_site_label
_atom_site_type_symbol
_atom_site_fract_x
_atom_site_fract_y
_atom_site_fract_z
_atom_type_partial_charge
C0 C 0.23801 0.01555 0.40779 0.0
C1 C 0.22279 0.00842 0.39038 0.0
C2 C 0.21459 0.02924 0.38221 0.0
C3 C 0.22155 0.05677 0.39128 0.0
H4 H 0.22559 0.14051 0.38316 0.0
H5 H 0.21312 0.17733 0.36817 0.0
H6 H 0.22531 0.22418 0.42072 0.0
H7 H 0.23883 0.18804 0.43568 0.0
H8 H 0.28079 0.17644 0.46722 0.0
H9 H 0.30708 0.1872 0.49759 0.0
H10 H 0.31097 0.10231 0.49401 0.0
H11 H 0.28439 0.09111 0.46394 0.0
H12 H 0.25674 0.0478 0.4303 0.0
H13 H 0.24465 -0.00012 0.41435 0.0
H14 H 0.20231 0.02398 0.36894 0.0
H15 H 0.21475 0.07224 0.38462 0.0
N16 N 0.23595 0.11316 0.41064 0.0
N17 N 0.25623 0.14592 0.43661 0.0
N18 N 0.258 0.09957 0.4355 0.0
C19 C 0.24203 0.13964 0.41957 0.0
C20 C 0.26437 0.12596 0.44465 0.0
C21 C 0.24378 0.09296 0.41852 0.0
C22 C 0.23354 0.1615 0.41062 0.0
C23 C 0.22565 0.15866 0.39156 0.0
C24 C 0.21839 0.17967 0.38294 0.0
C25 C 0.21872 0.20388 0.3932 0.0
C26 C 0.22574 0.20624 0.41234 0.0
C27 C 0.23332 0.18543 0.42094 0.0
C28 C 0.28026 0.13281 0.46311 0.0
C29 C 0.2871 0.15997 0.47291 0.0
C30 C 0.30224 0.16622 0.49028 0.0
C31 C 0.31066 0.14538 0.49822 0.0
C32 C 0.3041 0.11842 0.48839 0.0
C33 C 0.28902 0.11216 0.47108 0.0
C34 C 0.23678 0.06398 0.40875 0.0
C35 C 0.24498 0.04306 0.41688 0.0
C36 C 0.99059 0.2231 0.4031 0.0
C37 C 1.00072 0.2157 0.38648 0.0
C38 C 0.98241 0.18567 0.37911 0.0
C39 C 0.95461 0.1634 0.38829 0.0
H40 H 0.87458 0.07639 0.38135 0.0
H41 H 0.83794 0.02667 0.36677 0.0
H42 H 0.77647 -1e-05 0.41523 0.0
H43 H 0.81256 0.04961 0.42978 0.0
H44 H 0.83041 0.09181 0.4635 0.0
H45 H 0.81674 0.10115 0.4945 0.0
H46 H 0.90132 0.19213 0.4948 0.0
H47 H 0.91503 0.18316 0.46341 0.0
H48 H 0.95609 0.20737 0.42521 0.0
H49 H 1.00438 0.24605 0.40915 0.0
H50 H 0.98954 0.17947 0.36621 0.0
H51 H 0.94113 0.14044 0.38225 0.0
N52 N 0.89545 0.11917 0.40684 0.0
N53 N 0.86215 0.10339 0.43321 0.0
N54 N 0.90842 0.15255 0.43255 0.0
C55 C 0.86869 0.09731 0.41581 0.0
C56 C 0.88179 0.13084 0.44173 0.0
C57 C 0.91544 0.14688 0.41508 0.0
C58 C 0.84666 0.06711 0.4068 0.0
C59 C 0.85329 0.05996 0.38894 0.0
C60 C 0.83241 0.03141 0.3806 0.0
C61 C 0.8045 0.0094 0.38994 0.0
C62 C 0.79774 0.01659 0.40769 0.0
C63 C 0.81857 0.04503 0.41604 0.0
C64 C 0.87394 0.1367 0.46085 0.0
C65 C 0.84631 0.11382 0.47009 0.0
C66 C 0.83854 0.11902 0.48799 0.0
C67 C 0.85823 0.14716 0.49722 0.0
C68 C 0.88575 0.17017 0.48803 0.0
C69 C 0.8936 0.16498 0.47006 0.0
C70 C 0.94465 0.17064 0.40512 0.0
C71 C 0.96298 0.20083 0.41236 0.0
C72 C 0.78783 0.77292 0.40568 0.0
C73 C 0.79345 0.78809 0.38837 0.0
C74 C 0.82378 0.79995 0.37999 0.0
C75 C 0.84772 0.79592 0.38859 0.0
H76 H 0.9423 0.8078 0.38232 0.0
H77 H 0.99152 0.81647 0.36671 0.0
H78 H 0.00688 0.76573 0.41057 0.0
H79 H 0.95819 0.75703 0.42616 0.0
H80 H 0.9155 0.73633 0.46272 0.0
H81 H 0.90149 0.71152 0.49343 0.0
H82 H 0.81806 0.72243 0.4951 0.0
H83 H 0.83147 0.74652 0.46434 0.0
H84 H 0.80602 0.75712 0.4276 0.0
H85 H 0.7649 0.76407 0.41264 0.0
H86 H 0.82877 0.81188 0.36667 0.0
H87 H 0.87072 0.805 0.38171 0.0
N88 N 0.89434 0.78163 0.40652 0.0
N89 N 0.90949 0.76345 0.43278 0.0
N90 N 0.86082 0.76322 0.43285 0.0
C91 C 0.91598 0.77571 0.4152 0.0
C92 C 0.88202 0.75726 0.44176 0.0
C93 C 0.86657 0.77532 0.41529 0.0
C94 C 0.94608 0.78168 0.40556 0.0
C95 C 0.95619 0.79853 0.38867 0.0
C96 C 0.98447 0.80367 0.37975 0.0
C97 C 1.00306 0.7918 0.38743 0.0
C98 C 0.99297 0.77501 0.40425 0.0
C99 C 0.96503 0.77016 0.41323 0.0
C100 C 0.87462 0.74343 0.4609 0.0
C101 C 0.89428 0.73366 0.46965 0.0
C102 C 0.88638 0.71963 0.48737 0.0
C103 C 0.85876 0.71519 0.49683 0.0
C104 C 0.8394 0.72532 0.48818 0.0
C105 C 0.84719 0.73923 0.4705 0.0
C106 C 0.84188 0.78037 0.40588 0.0
C107 C 0.81162 0.76915 0.4143 0.0
C108 C 0.01794 0.22554 0.61777 0.0
C109 C 0.00811 0.20999 0.635 0.0
C110 C 0.02614 0.19766 0.64287 0.0
C111 C 0.05394 0.20158 0.63388 0.0
H112 H 0.13705 0.19079 0.64047 0.0
H113 H 0.17846 0.18346 0.65589 0.0
H114 H 0.24359 0.23154 0.61049 0.0
H115 H 0.20294 0.23879 0.59509 0.0
H116 H 0.17547 0.24547 0.55701 0.0
H117 H 0.18996 0.26977 0.52633 0.0
H118 H 0.11239 0.28951 0.52923 0.0
H119 H 0.09715 0.26439 0.55989 0.0
H120 H 0.0521 0.24153 0.59553 0.0
H121 H 1.00423 0.23481 0.61118 0.0
H122 H 0.01904 0.18545 0.65611 0.0
H123 H 0.06748 0.1921 0.64041 0.0
N124 N 0.11482 0.21578 0.61574 0.0
N125 N 0.14822 0.23288 0.58933 0.0
N126 N 0.10041 0.23433 0.58934 0.0
C127 C 0.14228 0.2211 0.60696 0.0
C128 C 0.12754 0.2395 0.58035 0.0
C129 C 0.0937 0.22236 0.607 0.0
C130 C 0.16653 0.21552 0.61652 0.0
C131 C 0.16018 0.19976 0.63377 0.0
C132 C 0.1838 0.19545 0.64258 0.0
C133 C 0.21431 0.20727 0.63447 0.0
C134 C 0.22044 0.22259 0.61719 0.0
C135 C 0.19694 0.22659 0.60833 0.0
C136 C 0.13528 0.25318 0.56115 0.0
C137 C 0.16136 0.2549 0.55119 0.0
C138 C 0.16985 0.26904 0.53358 0.0
C139 C 0.15278 0.2822 0.52545 0.0
C140 C 0.12608 0.27965 0.5351 0.0
C141 C 0.11743 0.26532 0.55272 0.0
C142 C 0.064 0.21752 0.61668 0.0
C143 C 0.04539 0.22921 0.60873 0.0
C144 C 0.76636 0.78212 0.61932 0.0
C145 C 0.77796 0.78808 0.63769 0.0
C146 C 0.78133 0.81455 0.6468 0.0
C147 C 0.77427 0.8352 0.63754 0.0
H148 H 0.78682 0.9219 0.64301 0.0
H149 H 0.80219 0.97181 0.65753 0.0
H150 H 0.77184 0.00049 0.60842 0.0
H151 H 0.75596 0.95055 0.5939 0.0
H152 H 0.72994 0.90776 0.56045 0.0
H153 H 0.70745 0.89868 0.52934 0.0
H154 H 0.69806 0.80748 0.5291 0.0
H155 H 0.72031 0.8162 0.56063 0.0
H156 H 0.75091 0.79779 0.59576 0.0
H157 H 0.76358 0.76187 0.61197 0.0
H158 H 0.78956 0.81935 0.66109 0.0
H159 H 0.77755 0.85555 0.64499 0.0
N160 N 0.76551 0.88029 0.61721 0.0
N161 N 0.74863 0.89587 0.59081 0.0
N162 N 0.74521 0.84701 0.59142 0.0
C163 C 0.76108 0.90197 0.60825 0.0
C164 C 0.74057 0.86854 0.58227 0.0
C165 C 0.75766 0.85276 0.60896 0.0
C166 C 0.7702 0.93214 0.61723 0.0
C167 C 0.78339 0.93878 0.63526 0.0
C168 C 0.7924 0.96744 0.64356 0.0
C169 C 0.78847 0.99006 0.63401 0.0
C170 C 0.77502 0.98338 0.61611 0.0
C171 C 0.76603 0.95478 0.60779 0.0
C172 C 0.72709 0.86274 0.56313 0.0
C173 C 0.72328 0.88574 0.55386 0.0
C174 C 0.71059 0.88069 0.53591 0.0
C175 C 0.70151 0.8526 0.52669 0.0
C176 C 0.70501 0.82942 0.53591 0.0
C177 C 0.7178 0.83447 0.55393 0.0
C178 C 0.7635 0.8298 0.61896 0.0
C179 C 0.75921 0.80277 0.61003 0.0
C180 C 0.21722 0.98033 0.6126 0.0
C181 C 0.20815 0.99084 0.62841 0.0
C182 C 0.17765 0.97169 0.63623 0.0
C183 C 0.15665 0.94278 0.62838 0.0
H184 H 0.07295 0.86243 0.6388 0.0
H185 H 0.02446 0.82617 0.65576 0.0
H186 H 1.00413 0.75593 0.61429 0.0
H187 H 0.05268 0.79192 0.59728 0.0
H188 H 0.09343 0.8132 0.55836 0.0
H189 H 0.1058 0.80142 0.5274 0.0
H190 H 0.19397 0.88955 0.5265 0.0
H191 H 0.18157 0.90173 0.55714 0.0
H192 H 0.20399 0.9442 0.5925 0.0
H193 H 0.24085 0.99414 0.60653 0.0
H194 H 0.16992 0.97918 0.64837 0.0
H195 H 0.13331 0.92872 0.63475 0.0
N196 N 0.1165 0.88086 0.61346 0.0
N197 N 0.10256 0.84533 0.58885 0.0
N198 N 0.14949 0.89402 0.58704 0.0
C199 C 0.09603 0.85261 0.60601 0.0
C200 C 0.12928 0.866 0.57924 0.0
C201 C 0.1433 0.90166 0.60411 0.0
C202 C 0.06685 0.8302 0.61658 0.0
C203 C 0.05837 0.83919 0.63331 0.0
C204 C 0.03058 0.81846 0.64308 0.0
C205 C 0.01078 0.78813 0.6365 0.0
C206 C 0.01934 0.77896 0.61993 0.0
C207 C 0.04702 0.79973 0.61008 0.0
C208 C 0.13651 0.85839 0.56039 0.0
C209 C 0.11549 0.83008 0.5516 0.0
C210 C 0.12264 0.82323 0.53388 0.0
C211 C 0.15103 0.84444 0.52456 0.0
C212 C 0.17184 0.87279 0.53326 0.0
C213 C 0.16473 0.87967 0.55092 0.0
C214 C 0.16559 0.93237 0.61245 0.0
C215 C 0.19613 0.95154 0.60464 0.0
C216 C 0.90748 0.35304 0.74 0.0
C217 C 0.89919 0.34879 0.72104 0.0
C218 C 0.90067 0.37367 0.71081 0.0
C219 C 0.90923 0.40191 0.71951 0.0
H220 H 0.90389 0.48004 0.71219 0.0
H221 H 0.89016 0.51539 0.69658 0.0
H222 H 0.91788 0.57351 0.74547 0.0
H223 H 0.93127 0.5379 0.7614 0.0
H224 H 0.96048 0.51924 0.79656 0.0
H225 H 0.98235 0.5282 0.82814 0.0
H226 H 0.97808 0.43921 0.82724 0.0
H227 H 0.95589 0.42985 0.79599 0.0
H228 H 0.92198 0.38364 0.76341 0.0
H229 H 0.90647 0.33421 0.74823 0.0
H230 H 0.89517 0.37129 0.69607 0.0
H231 H 0.9098 0.42049 0.71124 0.0
N232 N 0.91936 0.45679 0.73925 0.0
N233 N 0.93761 0.48911 0.7655 0.0
N234 N 0.93655 0.44129 0.76557 0.0
C235 C 0.92566 0.4836 0.74786 0.0
C236 C 0.9432 0.46802 0.77444 0.0
C237 C 0.9247 0.43552 0.74798 0.0
C238 C 0.9187 0.50603 0.73813 0.0
C239 C 0.90729 0.50041 0.71967 0.0
C240 C 0.8996 0.52078 0.71061 0.0
C241 C 0.90322 0.54731 0.71975 0.0
C242 C 0.91481 0.55315 0.73812 0.0
C243 C 0.92258 0.53279 0.7472 0.0
C244 C 0.95627 0.47377 0.79367 0.0
C245 C 0.96402 0.50149 0.80311 0.0
C246 C 0.9766 0.50669 0.82118 0.0
C247 C 0.98149 0.48422 0.83021 0.0
C248 C 0.97387 0.45663 0.82079 0.0
C249 C 0.96137 0.45142 0.80278 0.0
C250 C 0.91686 0.406 0.7386 0.0
C251 C 0.91627 0.38135 0.74869 0.0
C252 C 0.65835 0.55409 0.73501 0.0
C253 C 0.66757 0.54526 0.71856 0.0
C254 C 0.64795 0.51511 0.71165 0.0
C255 C 0.61978 0.49418 0.72104 0.0
H256 H 0.5439 0.40432 0.71834 0.0
H257 H 0.50724 0.35372 0.70475 0.0
H258 H 0.43719 0.33797 0.74734 0.0
H259 H 0.47397 0.38791 0.76128 0.0
H260 H 0.50008 0.42583 0.79825 0.0
H261 H 0.48632 0.43646 0.82888 0.0
H262 H 0.56385 0.53138 0.82512 0.0
H263 H 0.57831 0.52068 0.79439 0.0
H264 H 0.62417 0.54062 0.75725 0.0
H265 H 0.67337 0.57698 0.74088 0.0
H266 H 0.65456 0.50767 0.69904 0.0
H267 H 0.60542 0.47106 0.71535 0.0
N268 N 0.56109 0.45191 0.74029 0.0
N269 N 0.52801 0.43784 0.76668 0.0
N270 N 0.57463 0.48675 0.7653 0.0
C271 C 0.53429 0.43075 0.7495 0.0
C272 C 0.54796 0.46565 0.77475 0.0
C273 C 0.58137 0.48001 0.74802 0.0
C274 C 0.51203 0.40019 0.74099 0.0
C275 C 0.52073 0.39004 0.72486 0.0
C276 C 0.49972 0.36108 0.71704 0.0
C277 C 0.4695 0.34165 0.72513 0.0
C278 C 0.46063 0.35198 0.74108 0.0
C279 C 0.4817 0.38078 0.74899 0.0
C280 C 0.54033 0.47242 0.79371 0.0
C281 C 0.51442 0.44901 0.80387 0.0
C282 C 0.50642 0.45507 0.82148 0.0
C283 C 0.52403 0.4847 0.82948 0.0
C284 C 0.55015 0.50813 0.81948 0.0
C285 C 0.55828 0.50204 0.8018 0.0
C286 C 0.61073 0.50277 0.73771 0.0
C287 C 0.63029 0.53311 0.74449 0.0
C288 C 0.45339 0.10186 0.73737 0.0
C289 C 0.46075 0.11964 0.72095 0.0
C290 C 0.4917 0.13215 0.7133 0.0
C291 C 0.51473 0.12679 0.72192 0.0
H292 H 0.60622 0.1335 0.71487 0.0
H293 H 0.65572 0.14257 0.69955 0.0
H294 H 0.67154 0.09289 0.74389 0.0
H295 H 0.62236 0.08365 0.75918 0.0
H296 H 0.57693 0.06029 0.79498 0.0
H297 H 0.56263 0.03622 0.82594 0.0
H298 H 0.48534 0.05636 0.82917 0.0
H299 H 0.49887 0.07954 0.79817 0.0
H300 H 0.46958 0.083 0.75873 0.0
H301 H 0.42981 0.09206 0.74363 0.0
H302 H 0.49795 0.14575 0.70056 0.0
H303 H 0.53831 0.13664 0.71567 0.0
N304 N 0.55896 0.10883 0.73927 0.0
N305 N 0.5735 0.09031 0.76561 0.0
N306 N 0.52544 0.09135 0.76562 0.0
C307 C 0.58016 0.10234 0.74798 0.0
C308 C 0.54628 0.0849 0.77459 0.0
C309 C 0.5314 0.10323 0.74801 0.0
C310 C 0.61015 0.1079 0.73836 0.0
C311 C 0.6202 0.12445 0.72137 0.0
C312 C 0.64865 0.12981 0.71261 0.0
C313 C 0.66761 0.11854 0.72055 0.0
C314 C 0.65739 0.10172 0.73736 0.0
C315 C 0.62919 0.09659 0.74618 0.0
C316 C 0.53885 0.07158 0.79386 0.0
C317 C 0.55689 0.05962 0.80227 0.0
C318 C 0.54877 0.04591 0.82007 0.0
C319 C 0.52246 0.04382 0.82992 0.0
C320 C 0.50516 0.05673 0.82178 0.0
C321 C 0.51309 0.07022 0.80398 0.0
C322 C 0.50737 0.10912 0.73849 0.0
C323 C 0.47636 0.09682 0.74606 0.0
C324 C 0.68328 0.56096 0.95143 0.0
C325 C 0.67263 0.54376 0.96809 0.0
C326 C 0.69084 0.53148 0.9758 0.0
C327 C 0.71918 0.53646 0.96703 0.0
H328 H 0.80349 0.5278 0.97378 0.0
H329 H 0.84481 0.52004 0.98891 0.0
H330 H 0.90985 0.56869 0.94356 0.0
H331 H 0.86932 0.57646 0.92848 0.0
H332 H 0.84798 0.59478 0.89317 0.0
H333 H 0.86129 0.61942 0.86252 0.0
H334 H 0.77005 0.61599 0.86067 0.0
H335 H 0.75681 0.5919 0.89157 0.0
H336 H 0.71848 0.57902 0.92976 0.0
H337 H 0.66967 0.57054 0.94507 0.0
H338 H 0.68336 0.51834 0.98872 0.0
H339 H 0.73269 0.52677 0.97336 0.0
N340 N 0.78099 0.55264 0.94927 0.0
N341 N 0.81474 0.57101 0.92302 0.0
N342 N 0.76642 0.57147 0.92309 0.0
C343 C 0.80869 0.55864 0.94051 0.0
C344 C 0.79382 0.57742 0.91414 0.0
C345 C 0.7597 0.55908 0.94063 0.0
C346 C 0.83295 0.55292 0.94991 0.0
C347 C 0.8266 0.53684 0.96704 0.0
C348 C 0.85016 0.53228 0.97569 0.0
C349 C 0.88063 0.54412 0.9675 0.0
C350 C 0.88676 0.55975 0.95034 0.0
C351 C 0.86332 0.56404 0.94165 0.0
C352 C 0.80136 0.59148 0.89505 0.0
C353 C 0.83064 0.59921 0.88631 0.0
C354 C 0.83828 0.61324 0.86864 0.0
C355 C 0.81693 0.62004 0.85921 0.0
C356 C 0.78736 0.61173 0.86772 0.0
C357 C 0.7797 0.59772 0.88543 0.0
C358 C 0.72972 0.55355 0.95024 0.0
C359 C 0.71127 0.56566 0.94259 0.0
C360 C 0.43928 0.12014 0.94684 0.0
C361 C 0.4582 0.12915 0.96301 0.0
C362 C 0.46787 0.15849 0.9707 0.0
C363 C 0.45929 0.17867 0.96224 0.0
H364 H 0.44821 0.255 0.97347 0.0
H365 H 0.45908 0.30311 0.98891 0.0
H366 H 0.44489 0.33831 0.9368 0.0
H367 H 0.43304 0.29006 0.92146 0.0
H368 H 0.39267 0.24078 0.89088 0.0
H369 H 0.36687 0.22941 0.86056 0.0
H370 H 0.36753 0.14277 0.85874 0.0
H371 H 0.393 0.15371 0.88936 0.0
H372 H 0.41634 0.13272 0.9258 0.0
H373 H 0.43081 0.09734 0.94085 0.0
H374 H 0.48251 0.16605 0.98314 0.0
H375 H 0.46748 0.20125 0.96847 0.0
N376 N 0.43917 0.21875 0.9452 0.0
N377 N 0.41786 0.23224 0.9199 0.0
N378 N 0.41803 0.18507 0.91967 0.0
C379 C 0.43202 0.23914 0.9369 0.0
C380 C 0.4107 0.20527 0.91118 0.0
C381 C 0.43234 0.1917 0.93669 0.0
C382 C 0.43945 0.26854 0.94625 0.0
C383 C 0.44733 0.27296 0.9653 0.0
C384 C 0.45361 0.30051 0.97416 0.0
C385 C 0.45227 0.3242 0.96413 0.0
C386 C 0.44515 0.32007 0.94501 0.0
C387 C 0.43857 0.29247 0.9362 0.0
C388 C 0.3951 0.19822 0.89262 0.0
C389 C 0.38748 0.2193 0.88408 0.0
C390 C 0.37287 0.21293 0.86662 0.0
C391 C 0.36565 0.18544 0.8572 0.0
C392 C 0.37291 0.16417 0.86572 0.0
C393 C 0.38757 0.17052 0.88323 0.0
C394 C 0.44084 0.16994 0.94585 0.0
C395 C 0.43082 0.14037 0.93829 0.0
C396 C 0.87977 0.31658 0.94685 0.0
C397 C 0.87044 0.32663 0.96274 0.0
C398 C 0.83987 0.30718 0.97042 0.0
C399 C 0.81895 0.27848 0.96223 0.0
H400 H 0.7339 0.19525 0.97083 0.0
H401 H 0.68621 0.15598 0.98729 0.0
H402 H 0.67192 0.08885 0.94484 0.0
H403 H 0.71956 0.12779 0.92835 0.0
H404 H 0.76751 0.14886 0.89251 0.0
H405 H 0.78442 0.13915 0.86221 0.0
H406 H 0.85574 0.23639 0.8577 0.0
H407 H 0.83963 0.2461 0.88789 0.0
H408 H 0.86696 0.28122 0.92635 0.0
H409 H 0.90349 0.33054 0.94092 0.0
H410 H 0.83201 0.31431 0.98266 0.0
H411 H 0.79551 0.26415 0.96843 0.0
N412 N 0.77935 0.21662 0.94618 0.0
N413 N 0.76721 0.1826 0.92084 0.0
N414 N 0.81311 0.23202 0.92003 0.0
C415 C 0.75974 0.18861 0.93811 0.0
C416 C 0.79384 0.20434 0.91166 0.0
C417 C 0.80618 0.2384 0.93724 0.0
C418 C 0.73066 0.1648 0.94817 0.0
C419 C 0.72066 0.17213 0.96496 0.0
C420 C 0.69326 0.14972 0.97438 0.0
C421 C 0.67533 0.11943 0.9673 0.0
C422 C 0.68541 0.11199 0.95066 0.0
C423 C 0.71264 0.1344 0.94117 0.0
C424 C 0.80245 0.19819 0.89283 0.0
C425 C 0.78677 0.16818 0.88505 0.0
C426 C 0.79638 0.1626 0.86768 0.0
C427 C 0.82185 0.18689 0.85776 0.0
C428 C 0.83669 0.21701 0.86524 0.0
C429 C 0.82726 0.22257 0.88256 0.0
C430 C 0.82814 0.26868 0.94614 0.0
C431 C 0.85883 0.28811 0.93858 0.0
C432 C 0.5677 0.68238 0.07535 0.0
C433 C 0.56073 0.67933 0.0562 0.0
C434 C 0.56259 0.70473 0.04639 0.0
C435 C 0.56996 0.73219 0.05567 0.0
H436 H 0.55717 0.80669 0.05049 0.0
H437 H 0.54207 0.84167 0.03569 0.0
H438 H 0.56905 0.89813 0.08529 0.0
H439 H 0.5848 0.86346 0.10016 0.0
H440 H 0.62821 0.85059 0.1308 0.0
H441 H 0.65337 0.86091 0.16142 0.0
H442 H 0.62911 0.76474 0.166 0.0
H443 H 0.60493 0.75455 0.13518 0.0
H444 H 0.58 0.71136 0.09947 0.0
H445 H 0.56639 0.66313 0.08325 0.0
H446 H 0.55817 0.70331 0.03152 0.0
H447 H 0.57077 0.75117 0.04771 0.0
N448 N 0.57557 0.78427 0.07666 0.0
N449 N 0.59349 0.81605 0.10311 0.0
N450 N 0.59485 0.76941 0.10235 0.0
C451 C 0.58084 0.81044 0.08567 0.0
C452 C 0.60057 0.79561 0.11154 0.0
C453 C 0.58251 0.76367 0.08487 0.0
C454 C 0.57216 0.83214 0.07659 0.0
C455 C 0.55992 0.8265 0.05833 0.0
C456 C 0.551 0.84641 0.04984 0.0
C457 C 0.55398 0.87233 0.05943 0.0
C458 C 0.56653 0.87827 0.07758 0.0
C459 C 0.57549 0.85836 0.0861 0.0
C460 C 0.61459 0.80175 0.13049 0.0
C461 C 0.62804 0.83158 0.13838 0.0
C462 C 0.64227 0.83747 0.15599 0.0
C463 C 0.64294 0.81355 0.1662 0.0
C464 C 0.62916 0.78369 0.15841 0.0
C465 C 0.61524 0.77786 0.14075 0.0
C466 C 0.57609 0.73501 0.07494 0.0
C467 C 0.57538 0.70998 0.08463 0.0
C468 C 0.32785 0.89 0.06909 0.0
C469 C 0.33768 0.88302 0.05221 0.0
C470 C 0.32031 0.85266 0.04517 0.0
C471 C 0.29317 0.82989 0.05468 0.0
H472 H 0.20578 0.74611 0.04607 0.0
H473 H 0.16648 0.69724 0.03153 0.0
H474 H 0.11998 0.6633 0.08483 0.0
H475 H 0.15843 0.71201 0.0993 0.0
H476 H 0.16851 0.75915 0.12978 0.0
H477 H 0.15416 0.76919 0.16039 0.0
H478 H 0.24072 0.85865 0.1615 0.0
H479 H 0.25506 0.84903 0.13044 0.0
H480 H 0.29417 0.87364 0.0916 0.0
H481 H 0.3412 0.91307 0.07503 0.0
H482 H 0.32752 0.84667 0.03223 0.0
H483 H 0.28017 0.80675 0.04881 0.0
N484 N 0.23422 0.78518 0.07355 0.0
N485 N 0.20145 0.76954 0.10015 0.0
N486 N 0.24752 0.81874 0.09922 0.0
C487 C 0.2077 0.76332 0.08272 0.0
C488 C 0.22108 0.79707 0.10855 0.0
C489 C 0.25433 0.81296 0.08172 0.0
C490 C 0.18514 0.73321 0.07383 0.0
C491 C 0.18719 0.72823 0.0547 0.0
C492 C 0.16472 0.70025 0.04636 0.0
C493 C 0.13978 0.67672 0.05698 0.0
C494 C 0.13832 0.68136 0.07617 0.0
C495 C 0.16058 0.70928 0.08448 0.0
C496 C 0.21307 0.80324 0.12754 0.0
C497 C 0.18473 0.78096 0.13649 0.0
C498 C 0.17656 0.78656 0.15417 0.0
C499 C 0.19657 0.81447 0.16351 0.0
C500 C 0.22487 0.83687 0.15464 0.0
C501 C 0.23309 0.8313 0.13686 0.0
C502 C 0.28316 0.83693 0.07156 0.0
C503 C 0.30099 0.86727 0.07866 0.0
C504 C 0.1158 0.43353 0.07089 0.0
C505 C 0.12316 0.4512 0.05441 0.0
C506 C 0.15396 0.46329 0.04664 0.0
C507 C 0.17691 0.45782 0.05523 0.0
H508 H 0.2689 0.46731 0.04835 0.0
H509 H 0.31832 0.47707 0.03263 0.0
H510 H 0.33492 0.42637 0.07599 0.0
H511 H 0.28585 0.41654 0.09171 0.0
H512 H 0.24504 0.39889 0.12919 0.0
H513 H 0.23317 0.37649 0.16058 0.0
H514 H 0.14636 0.38159 0.16161 0.0
H515 H 0.15821 0.4043 0.13042 0.0
H516 H 0.13204 0.41471 0.0923 0.0
H517 H 0.09233 0.42406 0.07726 0.0
H518 H 0.16021 0.47677 0.03385 0.0
H519 H 0.20039 0.46747 0.04889 0.0
N520 N 0.22153 0.44091 0.07256 0.0
N521 N 0.23684 0.42286 0.09875 0.0
N522 N 0.18809 0.42264 0.09894 0.0
C523 C 0.24317 0.43497 0.08115 0.0
C524 C 0.20943 0.41674 0.10781 0.0
C525 C 0.19381 0.43468 0.08135 0.0
C526 C 0.27324 0.44116 0.07139 0.0
C527 C 0.28305 0.45822 0.05456 0.0
C528 C 0.31145 0.46397 0.04557 0.0
C529 C 0.33054 0.45255 0.05309 0.0
C530 C 0.32063 0.43532 0.06978 0.0
C531 C 0.29251 0.42984 0.07885 0.0
C532 C 0.20264 0.40352 0.12713 0.0
C533 C 0.2235 0.39546 0.13611 0.0
C534 C 0.2167 0.38255 0.15411 0.0
C535 C 0.18902 0.37758 0.16371 0.0
C536 C 0.16825 0.38574 0.15481 0.0
C537 C 0.17496 0.39854 0.1368 0.0
C538 C 0.16963 0.4404 0.07189 0.0
C539 C 0.13872 0.42834 0.07956 0.0
C540 C 0.35424 0.899 0.28533 0.0
C541 C 0.34356 0.88122 0.3018 0.0
C542 C 0.36215 0.86929 0.3094 0.0
C543 C 0.39081 0.8751 0.30072 0.0
H544 H 0.47479 0.86837 0.30837 0.0
H545 H 0.51487 0.85929 0.32375 0.0
H546 H 0.58174 0.90805 0.27913 0.0
H547 H 0.54223 0.91727 0.26381 0.0
H548 H 0.51328 0.92147 0.22477 0.0
H549 H 0.52701 0.94425 0.19369 0.0
H550 H 0.44988 0.96467 0.19636 0.0
H551 H 0.43534 0.94096 0.22742 0.0
H552 H 0.38986 0.91824 0.26385 0.0
H553 H 0.34036 0.90836 0.27908 0.0
H554 H 0.35467 0.85574 0.32218 0.0
H555 H 0.40455 0.8656 0.30698 0.0
N556 N 0.45311 0.89294 0.28354 0.0
N557 N 0.48695 0.91065 0.25735 0.0
N558 N 0.43837 0.91076 0.25697 0.0
C559 C 0.48095 0.89897 0.275 0.0
C560 C 0.46588 0.91656 0.24816 0.0
C561 C 0.43168 0.89884 0.27464 0.0
C562 C 0.50506 0.89345 0.28475 0.0
C563 C 0.49804 0.87721 0.30184 0.0
C564 C 0.52093 0.87188 0.31063 0.0
C565 C 0.55142 0.88289 0.30261 0.0
C566 C 0.55855 0.89946 0.28572 0.0
C567 C 0.53571 0.90455 0.27688 0.0
C568 C 0.47336 0.92961 0.22882 0.0
C569 C 0.49913 0.93077 0.21882 0.0
C570 C 0.50718 0.94403 0.20097 0.0
C571 C 0.49 0.95693 0.19265 0.0
C572 C 0.46365 0.955 0.20237 0.0
C573 C 0.4554 0.94149 0.22022 0.0
C574 C 0.40138 0.8927 0.2841 0.0
C575 C 0.3826 0.90451 0.27655 0.0
C576 C 0.10819 0.45315 0.27882 0.0
C577 C 0.12332 0.46066 0.29628 0.0
C578 C 0.13208 0.48967 0.30417 0.0
C579 C 0.12558 0.51066 0.29489 0.0
H580 H 0.12157 0.58998 0.30382 0.0
H581 H 0.13247 0.63797 0.31934 0.0
H582 H 0.12167 0.67481 0.26694 0.0
H583 H 0.10977 0.62657 0.25146 0.0
H584 H 0.07737 0.5804 0.21827 0.0
H585 H 0.04891 0.56872 0.18881 0.0
H586 H 0.02425 0.47255 0.19398 0.0
H587 H 0.05348 0.48425 0.22343 0.0
H588 H 0.0899 0.46763 0.25607 0.0
H589 H 0.10119 0.43089 0.27243 0.0
H590 H 0.14441 0.49635 0.31742 0.0
H591 H 0.13279 0.53283 0.30143 0.0
N592 N 0.11183 0.55345 0.27582 0.0
N593 N 0.09229 0.5679 0.25011 0.0
N594 N 0.08947 0.51929 0.2506 0.0
C595 C 0.10626 0.57461 0.26715 0.0
C596 C 0.08374 0.54032 0.24173 0.0
C597 C 0.10369 0.52581 0.26765 0.0
C598 C 0.11446 0.60429 0.27642 0.0
C599 C 0.12153 0.6083 0.29558 0.0
C600 C 0.12784 0.63579 0.30449 0.0
C601 C 0.12735 0.65986 0.29441 0.0
C602 C 0.12128 0.65626 0.27516 0.0
C603 C 0.11467 0.62869 0.26628 0.0
C604 C 0.06751 0.5332 0.22337 0.0
C605 C 0.06592 0.55671 0.21321 0.0
C606 C 0.0494 0.55001 0.19636 0.0
C607 C 0.03375 0.51959 0.18931 0.0
C608 C 0.03599 0.49619 0.19914 0.0
C609 C 0.05271 0.50292 0.21601 0.0
C610 C 0.11029 0.5032 0.27742 0.0
C611 C 0.10167 0.47417 0.26948 0.0
C612 C 0.54366 0.64953 0.28213 0.0
C613 C 0.53975 0.65315 0.30121 0.0
C614 C 0.51485 0.62825 0.31105 0.0
C615 C 0.49375 0.60067 0.3019 0.0
H616 H 0.40068 0.52661 0.30536 0.0
H617 H 0.35185 0.48804 0.32125 0.0
H618 H 0.33517 0.42197 0.27764 0.0
H619 H 0.38388 0.46025 0.26168 0.0
H620 H 0.42657 0.48472 0.22399 0.0
H621 H 0.44044 0.47591 0.19264 0.0
H622 H 0.52677 0.56552 0.19391 0.0
H623 H 0.51294 0.57473 0.22494 0.0
H624 H 0.52624 0.62007 0.25823 0.0
H625 H 0.56256 0.66835 0.27417 0.0
H626 H 0.5117 0.63005 0.32587 0.0
H627 H 0.47472 0.58206 0.30992 0.0
N628 N 0.44716 0.54659 0.28145 0.0
N629 N 0.43328 0.51468 0.25502 0.0
N630 N 0.48113 0.56264 0.25538 0.0
C631 C 0.42629 0.51986 0.27262 0.0
C632 C 0.46068 0.53603 0.24628 0.0
C633 C 0.47464 0.56809 0.27295 0.0
C634 C 0.39634 0.4966 0.28219 0.0
C635 C 0.38664 0.50389 0.2991 0.0
C636 C 0.35858 0.48191 0.30818 0.0
C637 C 0.33975 0.45211 0.30064 0.0
C638 C 0.34938 0.44477 0.2838 0.0
C639 C 0.37723 0.46678 0.27462 0.0
C640 C 0.46854 0.53049 0.22708 0.0
C641 C 0.44841 0.50267 0.21757 0.0
C642 C 0.45636 0.49755 0.19962 0.0
C643 C 0.48447 0.52019 0.19071 0.0
C644 C 0.50456 0.54793 0.2002 0.0
C645 C 0.49669 0.55306 0.21811 0.0
C646 C 0.49731 0.5972 0.28273 0.0
C647 C 0.52273 0.62187 0.273 0.0
Gd648 Gd 0.52111 0.02421 0.03306 0.0
Gd649 Gd 0.49274 0.97801 0.9894 0.0
C650 C 0.39424 0.89069 0.98599 0.0
C651 C 0.40802 0.85001 0.98256 0.0
C652 C 0.44993 0.90419 0.98471 0.0
C653 C 0.42711 0.91313 0.98649 0.0
C654 C 0.44069 0.87261 0.98228 0.0
C655 C 0.38483 0.85903 0.98445 0.0
C656 C 0.37185 0.90083 0.98654 0.0
C657 C 0.3825 0.93266 0.98683 0.0
N658 N 0.43707 0.94391 0.98779 0.0
C659 C 0.41538 0.95402 0.98716 0.0
H660 H 0.4232 0.97852 0.9875 0.0
C661 C 0.50453 0.91936 0.98062 0.0
N662 N 0.48122 0.92662 0.98447 0.0
C663 C 0.49659 0.88835 0.97819 0.0
C664 C 0.46455 0.86482 0.97922 0.0
H665 H 0.52935 0.93748 0.97992 0.0
H666 H 0.35969 0.84143 0.98424 0.0
H667 H 0.5919 0.02605 0.03295 0.0
H668 H 0.34637 0.88434 0.98628 0.0
H669 H 0.36541 0.94079 0.9869 0.0
H670 H 0.40043 0.82558 0.98093 0.0
H671 H 0.48448 0.06277 0.04707 0.0
H672 H 0.66697 0.12104 0.03213 0.0
H673 H 0.64935 0.06487 0.03181 0.0
H674 H 0.61082 0.17725 0.04081 0.0
H675 H 0.51518 0.88262 0.97557 0.0
H676 H 0.45844 0.84082 0.97731 0.0
H677 H 0.6523 0.16295 0.0352 0.0
H678 H 0.49739 0.11714 0.05196 0.0
N679 N 0.57673 0.05967 0.03341 0.0
C680 C 0.64164 0.10405 0.03267 0.0
C681 C 0.63179 0.07238 0.03255 0.0
C682 C 0.6187 0.11337 0.03421 0.0
C683 C 0.58605 0.09028 0.03476 0.0
C684 C 0.59909 0.05039 0.03323 0.0
N685 N 0.53205 0.07517 0.03934 0.0
C686 C 0.56288 0.09832 0.03782 0.0
C687 C 0.51603 0.1122 0.04788 0.0
C688 C 0.54742 0.13648 0.04527 0.0
C689 C 0.50882 0.08146 0.04514 0.0
C690 C 0.57145 0.12967 0.04053 0.0
H691 H 0.55299 0.16027 0.04747 0.0
O692 O 0.49603 0.0143 0.05967 0.0
O693 O 0.48186 0.98352 0.0187 0.0
O694 O 0.47979 0.0162 0.99024 0.0
O695 O 0.51063 0.05297 0.01303 0.0
O696 O 0.46845 0.00791 0.03621 0.0
O697 O 0.5397 0.01248 0.05756 0.0
O698 O 0.51765 0.98427 0.96303 0.0
O699 O 0.53185 0.01952 1.00337 0.0
O700 O 0.53562 0.98714 0.03057 0.0
O701 O 0.49799 0.94833 0.01136 0.0
O702 O 0.54541 0.99414 0.98677 0.0
O703 O 0.47593 0.98988 0.96425 0.0
C704 C 0.45795 0.98423 0.0253 0.0
C705 C 0.60376 0.15298 0.03901 0.0
C706 C 0.62737 0.14483 0.03583 0.0
C707 C 0.51719 0.01034 0.06862 0.0
C708 C 0.52736 0.02592 0.08684 0.0
C709 C 0.54591 0.05842 0.08775 0.0
C710 C 0.51812 0.00828 0.1035 0.0
C711 C 0.52761 0.02311 0.12099 0.0
C712 C 0.5549 0.07323 0.10499 0.0
C713 C 0.54576 0.05581 0.12148 0.0
C714 C 0.49178 0.04389 0.99822 0.0
C715 C 0.55585 0.01889 0.99673 0.0
C716 C 0.49789 0.98979 0.95361 0.0
C717 C 0.4873 0.97412 0.93547 0.0
C718 C 0.46891 0.94162 0.93456 0.0
C719 C 0.49594 0.9918 0.91884 0.0
C720 C 0.48604 0.97703 0.90137 0.0
C721 C 0.45943 0.92685 0.91733 0.0
C722 C 0.46799 0.94433 0.90086 0.0
C723 C 0.51978 0.95794 0.0247 0.0
H724 H 0.5533 0.07233 0.07516 0.0
H725 H 0.50393 0.98313 0.10283 0.0
H726 H 0.56896 0.09836 0.10559 0.0
H727 H 0.55272 0.06798 0.13466 0.0
H728 H 0.46203 0.92768 0.94715 0.0
H729 H 0.51002 0.01696 0.91952 0.0
H730 H 0.44547 0.90172 0.91672 0.0
H731 H 0.46072 0.9322 0.88767 0.0
Gd732 Gd 0.97792 0.49211 0.032 0.0
Gd733 Gd 0.0293 0.50953 0.99012 0.0
C734 C 0.11979 0.50169 0.9916 0.0
C735 C 0.16174 0.55562 0.9879 0.0
C736 C 0.10573 0.5419 0.98772 0.0
C737 C 0.09655 0.511 0.99051 0.0
C738 C 0.13839 0.56449 0.98587 0.0
C739 C 0.15245 0.52426 0.99078 0.0
C740 C 0.10948 0.46991 0.99293 0.0
C741 C 0.07676 0.44833 0.9924 0.0
N742 N 0.06481 0.48986 0.99117 0.0
C743 C 0.05464 0.45875 0.99125 0.0
H744 H 0.02943 0.44179 0.99103 0.0
C745 C 0.09018 0.57896 0.98036 0.0
N746 N 0.08255 0.54956 0.98572 0.0
C747 C 0.12225 0.60225 0.97845 0.0
C748 C 0.1465 0.59509 0.9815 0.0
H749 H 0.07148 0.58462 0.97815 0.0
H750 H 0.17067 0.5176 0.99183 0.0
H751 H 0.97486 0.55836 0.03025 0.0
H752 H 0.12656 0.46179 0.99387 0.0
H753 H 0.06853 0.42366 0.99301 0.0
H754 H 0.18698 0.57268 0.98676 0.0
H755 H 0.93807 0.4178 0.04578 0.0
H756 H 0.87679 0.53524 0.02813 0.0
H757 H 0.93444 0.57474 0.0284 0.0
H758 H 0.81974 0.42459 0.03672 0.0
H759 H 0.12823 0.6257 0.97468 0.0
H760 H 0.17132 0.61315 0.97997 0.0
H761 H 0.83408 0.47898 0.03087 0.0
H762 H 0.88205 0.37561 0.04993 0.0
N763 N 0.94082 0.51 0.03083 0.0
C764 C 0.8945 0.52791 0.02906 0.0
C765 C 0.92699 0.55026 0.02929 0.0
C766 C 0.88527 0.49642 0.03066 0.0
C767 C 0.90932 0.48814 0.03171 0.0
C768 C 0.94991 0.54086 0.03045 0.0
N769 N 0.92526 0.45118 0.03712 0.0
C770 C 0.90125 0.45767 0.03493 0.0
C771 C 0.88709 0.39854 0.04558 0.0
C772 C 0.86201 0.4044 0.04229 0.0
C773 C 0.91878 0.42248 0.04324 0.0
C774 C 0.86893 0.43443 0.03726 0.0
H775 H 0.8375 0.38588 0.04422 0.0
O776 O 0.98476 0.47764 0.05938 0.0
O777 O 0.022 0.49516 0.0199 0.0
O778 O 0.98982 0.45868 0.99122 0.0
O779 O 0.94928 0.45433 0.0113 0.0
O780 O 0.995 0.45774 0.03716 0.0
O781 O 0.98624 0.52173 0.05602 0.0
O782 O 0.02549 0.52625 0.96277 0.0
O783 O 0.98543 0.50646 1.00226 0.0
O784 O 0.01622 0.54353 0.03001 0.0
O785 O 0.05729 0.54677 0.01114 0.0
O786 O 0.01206 0.54373 0.98481 0.0
O787 O 0.01979 0.48023 0.96586 0.0
C788 C 0.02091 0.47155 0.02738 0.0
C789 C 0.84475 0.44217 0.0352 0.0
C790 C 0.85291 0.47314 0.03188 0.0
C791 C 0.98682 0.50184 0.06771 0.0
C792 C 0.9678 0.4955 0.08483 0.0
C793 C 0.9346 0.48353 0.08414 0.0
C794 C 0.98307 0.5008 0.10215 0.0
C795 C 0.96537 0.49415 0.11882 0.0
C796 C 0.9168 0.47657 0.10062 0.0
C797 C 0.932 0.48168 0.11788 0.0
C798 C 0.96003 0.44383 0.99776 0.0
C799 C 0.98627 0.52986 0.9947 0.0
C800 C 0.02133 0.5013 0.95431 0.0
C801 C 0.03993 0.50623 0.93717 0.0
C802 C 0.07267 0.51588 0.93777 0.0
C803 C 0.02457 0.50137 0.91992 0.0
C804 C 0.04166 0.50585 0.90319 0.0
C805 C 0.08989 0.52074 0.92122 0.0
C806 C 0.07455 0.51582 0.90401 0.0
C807 C 0.04637 0.55826 0.02399 0.0
H808 H 0.92246 0.47943 0.07093 0.0
H809 H 0.0088 0.51033 0.10263 0.0
H810 H 0.89113 0.46705 0.10002 0.0
H811 H 0.91764 0.47563 0.13047 0.0
H812 H 0.08485 0.51967 0.95096 0.0
H813 H 0.99935 0.49437 0.91953 0.0
H814 H 0.11518 0.52823 0.92173 0.0
H815 H 0.08828 0.51939 0.89134 0.0
Gd816 Gd 0.48714 0.5096 0.98827 0.0
Gd817 Gd 0.51701 0.49194 0.03138 0.0
C818 C 0.61271 0.49352 0.03285 0.0
C819 C 0.59575 0.43889 0.03756 0.0
C820 C 0.55635 0.45584 0.03617 0.0
C821 C 0.58038 0.48611 0.03323 0.0
C822 C 0.56374 0.43194 0.0388 0.0
C823 C 0.62021 0.46965 0.03458 0.0
C824 C 0.63653 0.52477 0.03123 0.0
C825 C 0.62786 0.54773 0.03076 0.0
N826 N 0.57221 0.50852 0.03165 0.0
C827 C 0.59544 0.53918 0.03124 0.0
H828 H 0.58921 0.55722 0.03067 0.0
C829 C 0.50161 0.42124 0.04254 0.0
N830 N 0.52578 0.45006 0.03737 0.0
C831 C 0.50768 0.3967 0.04519 0.0
C832 C 0.53883 0.40197 0.04306 0.0
H833 H 0.47742 0.41694 0.04405 0.0
H834 H 0.64488 0.47483 0.03409 0.0
H835 H 0.41361 0.44694 0.99104 0.0
H836 H 0.66165 0.53144 0.03081 0.0
H837 H 0.64611 0.57203 0.02988 0.0
H838 H 0.6019 0.4208 0.03933 0.0
H839 H 0.52989 0.58361 0.97386 0.0
H840 H 0.34446 0.47685 0.98827 0.0
H841 H 0.35739 0.43463 0.99145 0.0
H842 H 0.40837 0.58583 0.9749 0.0
H843 H 0.48833 0.37375 0.04882 0.0
H844 H 0.5435 0.38295 0.04517 0.0
H845 H 0.36378 0.53346 0.98228 0.0
H846 H 0.52134 0.62735 0.96601 0.0
N847 N 0.43267 0.49571 0.98829 0.0
C848 C 0.36925 0.48238 0.98811 0.0
C849 C 0.37644 0.45849 0.98983 0.0
C850 C 0.39411 0.51298 0.98548 0.0
C851 C 0.42597 0.51892 0.98552 0.0
C852 C 0.40842 0.46557 0.98954 0.0
N853 N 0.48105 0.55267 0.9809 0.0
C854 C 0.45096 0.54833 0.98155 0.0
C855 C 0.50134 0.60529 0.97044 0.0
C856 C 0.47067 0.6015 0.97171 0.0
C857 C 0.50609 0.58042 0.97492 0.0
C858 C 0.44494 0.57269 0.97718 0.0
H859 H 0.46704 0.62079 0.96821 0.0
O860 O 0.51051 0.5205 0.96114 0.0
O861 O 0.52634 0.50486 1.00146 0.0
O862 O 0.53373 0.54357 0.02814 0.0
O863 O 0.498 0.54835 1.00834 0.0
O864 O 0.54015 0.5418 0.98345 0.0
O865 O 0.46408 0.4793 0.9646 0.0
O866 O 0.49431 0.47766 0.0586 0.0
O867 O 0.47741 0.49624 0.01832 0.0
O868 O 0.46941 0.45784 0.99169 0.0
O869 O 0.50625 0.45384 0.01082 0.0
O870 O 0.46435 0.45888 0.03602 0.0
O871 O 0.53707 0.52261 0.05521 0.0
C872 C 0.55044 0.52754 0.9939 0.0
C873 C 0.41344 0.5673 0.97796 0.0
C874 C 0.38806 0.5375 0.98217 0.0
C875 C 0.48672 0.49704 0.95291 0.0
C876 C 0.47675 0.50405 0.93501 0.0
C877 C 0.45584 0.51602 0.93451 0.0
C878 C 0.48898 0.49949 0.91822 0.0
C879 C 0.48053 0.50702 0.90096 0.0
C880 C 0.44736 0.52353 0.91749 0.0
C881 C 0.45958 0.5191 0.90082 0.0
C882 C 0.52013 0.55922 0.02152 0.0
C883 C 0.4536 0.47305 0.02584 0.0
C884 C 0.51586 0.50274 0.06686 0.0
C885 C 0.52787 0.49811 0.08471 0.0
C886 C 0.55056 0.48828 0.08522 0.0
C887 C 0.51596 0.50307 0.10148 0.0
C888 C 0.52678 0.49847 0.11879 0.0
C889 C 0.56121 0.48343 0.10233 0.0
C890 C 0.54942 0.48843 0.11901 0.0
C891 C 0.48346 0.44248 0.99805 0.0
H892 H 0.44609 0.51957 0.94723 0.0
H893 H 0.5047 0.48971 0.91862 0.0
H894 H 0.43128 0.53285 0.91721 0.0
H895 H 0.45278 0.52528 0.8878 0.0
H896 H 0.55993 0.48431 0.07245 0.0
H897 H 0.49799 0.51013 0.10102 0.0
H898 H 0.57872 0.47583 0.10266 0.0
H899 H 0.55828 0.4848 0.1321 0.0
Gd900 Gd 0.18642 0.35654 0.36721 0.0
Gd901 Gd 0.15743 0.31036 0.32357 0.0
C902 C 0.05894 0.22259 0.32138 0.0
C903 C 0.07289 0.18209 0.31758 0.0
C904 C 0.11461 0.23642 0.319 0.0
C905 C 0.09178 0.24517 0.32132 0.0
C906 C 0.10547 0.20485 0.31666 0.0
C907 C 0.04965 0.19094 0.31996 0.0
C908 C 0.03646 0.23256 0.32237 0.0
C909 C 0.04696 0.26436 0.32254 0.0
N910 N 0.10167 0.27593 0.32263 0.0
C911 C 0.07982 0.28586 0.32239 0.0
H912 H 0.08747 0.31031 0.3227 0.0
C913 C 0.16895 0.25194 0.3135 0.0
N914 N 0.14577 0.25901 0.31811 0.0
C915 C 0.16114 0.22095 0.31114 0.0
C916 C 0.12929 0.19724 0.31298 0.0
H917 H 0.19365 0.2702 0.31225 0.0
H918 H 0.02455 0.17322 0.32021 0.0
H919 H 0.25926 0.36305 0.36482 0.0
H920 H 0.011 0.21596 0.32253 0.0
H921 H 0.02977 0.27236 0.32291 0.0
H922 H 0.06537 0.15766 0.31602 0.0
H923 H 0.1472 0.3908 0.38416 0.0
H924 H 0.33033 0.45947 0.36507 0.0
H925 H 0.31584 0.40413 0.36345 0.0
H926 H 0.26916 0.50972 0.37731 0.0
H927 H 0.17967 0.21537 0.30796 0.0
H928 H 0.12326 0.17326 0.3111 0.0
H929 H 0.31257 0.49884 0.36991 0.0
H930 H 0.1571 0.44379 0.39054 0.0
N931 N 0.24143 0.39441 0.36693 0.0
C932 C 0.30538 0.44144 0.36578 0.0
C933 C 0.29731 0.41025 0.36495 0.0
C934 C 0.28118 0.4489 0.36825 0.0
C935 C 0.24908 0.4245 0.36897 0.0
C936 C 0.26509 0.38693 0.36585 0.0
N937 N 0.19473 0.4062 0.37481 0.0
C938 C 0.22485 0.43062 0.37303 0.0
C939 C 0.17634 0.44046 0.38545 0.0
C940 C 0.20683 0.46607 0.38251 0.0
C941 C 0.1708 0.41048 0.38178 0.0
C942 C 0.23175 0.46129 0.3766 0.0
H943 H 0.21111 0.48925 0.38543 0.0
O944 O 0.16161 0.34346 0.39397 0.0
O945 O 0.14725 0.31496 0.35323 0.0
O946 O 0.14365 0.34791 0.32501 0.0
O947 O 0.17419 0.38484 0.34783 0.0
O948 O 0.13368 0.33911 0.37092 0.0
O949 O 0.20773 0.34673 0.39117 0.0
O950 O 0.18102 0.31605 0.29677 0.0
O951 O 0.1965 0.35225 0.33727 0.0
O952 O 0.20324 0.32136 0.3641 0.0
O953 O 0.16685 0.28207 0.34466 0.0
O954 O 0.21 0.32727 0.32014 0.0
O955 O 0.14093 0.32404 0.29902 0.0
C956 C 0.12326 0.31521 0.36022 0.0
C957 C 0.26341 0.48594 0.37486 0.0
C958 C 0.28811 0.47974 0.37066 0.0
C959 C 0.18443 0.3417 0.4025 0.0
C960 C 0.19346 0.3565 0.42098 0.0
C961 C 0.2113 0.38898 0.42246 0.0
C962 C 0.18382 0.33808 0.43732 0.0
C963 C 0.19226 0.3521 0.45508 0.0
C964 C 0.21926 0.40299 0.43996 0.0
C965 C 0.20977 0.38477 0.45614 0.0
C966 C 0.15492 0.37534 0.33319 0.0
C967 C 0.22041 0.35194 0.33017 0.0
C968 C 0.16189 0.32309 0.28792 0.0
C969 C 0.15017 0.30825 0.26965 0.0
C970 C 0.12799 0.27638 0.26848 0.0
C971 C 0.16153 0.32612 0.25317 0.0
C972 C 0.15078 0.31221 0.23554 0.0
C973 C 0.11732 0.26244 0.2511 0.0
C974 C 0.12862 0.28013 0.23476 0.0
C975 C 0.18893 0.29238 0.35787 0.0
H976 H 0.21897 0.4035 0.4101 0.0
H977 H 0.17016 0.31295 0.43622 0.0
H978 H 0.23281 0.42809 0.441 0.0
H979 H 0.21594 0.3963 0.46954 0.0
H980 H 0.11899 0.26231 0.28098 0.0
H981 H 0.17902 0.35069 0.25409 0.0
H982 H 0.10018 0.23781 0.25028 0.0
H983 H 0.11974 0.26876 0.22147 0.0
Gd984 Gd 0.64563 0.82511 0.36754 0.0
Gd985 Gd 0.69466 0.83891 0.32509 0.0
C986 C 0.78588 0.8322 0.32489 0.0
C987 C 0.82716 0.8861 0.32007 0.0
C988 C 0.77102 0.8719 0.3212 0.0
C989 C 0.76233 0.84117 0.32427 0.0
C990 C 0.80347 0.89463 0.3186 0.0
C991 C 0.81837 0.85494 0.32324 0.0
C992 C 0.776 0.80057 0.32663 0.0
C993 C 0.74334 0.77873 0.32699 0.0
N994 N 0.7307 0.81981 0.32564 0.0
C995 C 0.7209 0.78878 0.32621 0.0
H996 H 0.69579 0.77163 0.32667 0.0
C997 C 0.75462 0.90861 0.31463 0.0
N998 N 0.74753 0.87928 0.31981 0.0
C999 C 0.78646 0.93201 0.31204 0.0
C1000 C 0.81104 0.92508 0.31421 0.0
H1001 H 0.73574 0.91415 0.31301 0.0
H1002 H 0.83683 0.84855 0.32391 0.0
H1003 H 0.64385 0.89182 0.36401 0.0
H1004 H 0.79333 0.79273 0.32726 0.0
H1005 H 0.73541 0.75416 0.328 0.0
H1006 H 0.85225 0.90329 0.31835 0.0
H1007 H 0.60631 0.75206 0.38334 0.0
H1008 H 0.54615 0.87029 0.36463 0.0
H1009 H 0.60393 0.90891 0.3623 0.0
H1010 H 0.48878 0.76132 0.37901 0.0
H1011 H 0.79203 0.95537 0.30837 0.0
H1012 H 0.83569 0.94323 0.31215 0.0
H1013 H 0.50321 0.81495 0.37064 0.0
H1014 H 0.55089 0.71179 0.39123 0.0
N1015 N 0.60917 0.84372 0.36645 0.0
C1016 C 0.5636 0.86261 0.36532 0.0
C1017 C 0.59618 0.88448 0.36407 0.0
C1018 C 0.55404 0.83127 0.36825 0.0
C1019 C 0.57774 0.8225 0.3689 0.0
C1020 C 0.61878 0.87464 0.36503 0.0
N1021 N 0.59336 0.78543 0.37484 0.0
C1022 C 0.56958 0.79238 0.37339 0.0
C1023 C 0.55578 0.73431 0.38613 0.0
C1024 C 0.53082 0.7407 0.38395 0.0
C1025 C 0.58713 0.75716 0.38165 0.0
C1026 C 0.53757 0.77011 0.37765 0.0
H1027 H 0.50655 0.72297 0.38745 0.0
O1028 O 0.65395 0.81286 0.39524 0.0
O1029 O 0.6882 0.8262 0.35493 0.0
O1030 O 0.65591 0.78795 0.32824 0.0
O1031 O 0.61603 0.78539 0.34806 0.0
O1032 O 0.66272 0.79092 0.37373 0.0
O1033 O 0.65729 0.85753 0.39044 0.0
O1034 O 0.68879 0.8535 0.29755 0.0
O1035 O 0.65118 0.83708 0.3373 0.0
O1036 O 0.68428 0.87601 0.36365 0.0
O1037 O 0.7247 0.87544 0.34612 0.0
O1038 O 0.67823 0.8736 0.3194 0.0
O1039 O 0.68429 0.8081 0.30144 0.0
C1040 C 0.68756 0.80331 0.36303 0.0
C1041 C 0.51359 0.77822 0.37607 0.0
C1042 C 0.5218 0.80875 0.3713 0.0
C1043 C 0.65783 0.83837 0.40273 0.0
C1044 C 0.64049 0.83465 0.42027 0.0
C1045 C 0.60836 0.82732 0.42032 0.0
C1046 C 0.65627 0.83794 0.43724 0.0
C1047 C 0.64026 0.83431 0.4543 0.0
C1048 C 0.59217 0.82326 0.43719 0.0
C1049 C 0.60796 0.82669 0.4541 0.0
C1050 C 0.62625 0.77337 0.33508 0.0
C1051 C 0.65247 0.86046 0.32933 0.0
C1052 C 0.68504 0.82838 0.28952 0.0
C1053 C 0.70362 0.83322 0.27236 0.0
C1054 C 0.73639 0.84303 0.27297 0.0
C1055 C 0.68844 0.82893 0.25509 0.0
C1056 C 0.70593 0.83493 0.23837 0.0
C1057 C 0.75386 0.84872 0.25645 0.0
C1058 C 0.73881 0.84477 0.23923 0.0
C1059 C 0.71464 0.88878 0.35824 0.0
H1060 H 0.59583 0.82475 0.40739 0.0
H1061 H 0.68096 0.84309 0.43715 0.0
H1062 H 0.56736 0.81758 0.43716 0.0
H1063 H 0.59507 0.82384 0.46702 0.0
H1064 H 0.74845 0.84635 0.28614 0.0
H1065 H 0.66295 0.8207 0.25471 0.0
H1066 H 0.77918 0.85636 0.25699 0.0
H1067 H 0.75291 0.84966 0.2266 0.0
Gd1068 Gd 0.1567 0.84202 0.3217 0.0
Gd1069 Gd 0.18576 0.8232 0.36484 0.0
C1070 C 0.28302 0.82826 0.36617 0.0
C1071 C 0.26778 0.77384 0.36981 0.0
C1072 C 0.227 0.78904 0.36875 0.0
C1073 C 0.25038 0.81979 0.36643 0.0
C1074 C 0.23542 0.76577 0.37093 0.0
C1075 C 0.29155 0.80505 0.36741 0.0
C1076 C 0.3061 0.85985 0.36516 0.0
C1077 C 0.29639 0.88208 0.36516 0.0
N1078 N 0.24126 0.84158 0.36532 0.0
C1079 C 0.2637 0.8725 0.36551 0.0
H1080 H 0.25663 0.88998 0.36535 0.0
C1081 C 0.17244 0.75276 0.37453 0.0
N1082 N 0.19605 0.78211 0.36984 0.0
C1083 C 0.17955 0.72882 0.37673 0.0
C1084 C 0.21113 0.73526 0.37467 0.0
H1085 H 0.14796 0.74767 0.37597 0.0
H1086 H 0.31648 0.81106 0.36701 0.0
H1087 H 0.08395 0.77757 0.32407 0.0
H1088 H 0.33142 0.86733 0.36484 0.0
H1089 H 0.31405 0.90661 0.36477 0.0
H1090 H 0.27473 0.75626 0.37124 0.0
H1091 H 0.19542 0.91447 0.3049 0.0
H1092 H 0.01255 0.80468 0.32416 0.0
H1093 H 0.02732 0.76356 0.32552 0.0
H1094 H 0.07319 0.91447 0.31238 0.0
H1095 H 0.16068 0.70543 0.37997 0.0
H1096 H 0.2166 0.7167 0.37642 0.0
H1097 H 0.03 0.86128 0.31962 0.0
H1098 H 0.18526 0.95789 0.2989 0.0
N1099 N 0.10159 0.82627 0.32215 0.0
C1100 C 0.03754 0.81097 0.3234 0.0
C1101 C 0.04577 0.78771 0.32409 0.0
C1102 C 0.06161 0.84196 0.32103 0.0
C1103 C 0.09376 0.84885 0.32024 0.0
C1104 C 0.07803 0.79578 0.32315 0.0
N1105 N 0.14803 0.88355 0.31436 0.0
C1106 C 0.11787 0.87859 0.31625 0.0
C1107 C 0.16612 0.93578 0.30395 0.0
C1108 C 0.13559 0.93163 0.30702 0.0
C1109 C 0.17181 0.91118 0.3074 0.0
C1110 C 0.11079 0.90253 0.31285 0.0
H1111 H 0.13117 0.95065 0.30425 0.0
O1112 O 0.18072 0.85401 0.29474 0.0
O1113 O 0.19605 0.83779 0.33513 0.0
O1114 O 0.20044 0.87438 0.36355 0.0
O1115 O 0.1698 0.88217 0.34095 0.0
O1116 O 0.20955 0.87531 0.31757 0.0
O1117 O 0.13525 0.81165 0.2979 0.0
O1118 O 0.16223 0.80602 0.39163 0.0
O1119 O 0.1469 0.82848 0.3517 0.0
O1120 O 0.13965 0.79039 0.32474 0.0
O1121 O 0.17668 0.78644 0.34362 0.0
O1122 O 0.13284 0.79007 0.36864 0.0
O1123 O 0.20452 0.85168 0.38963 0.0
C1124 C 0.22008 0.8612 0.328 0.0
C1125 C 0.07908 0.8963 0.31469 0.0
C1126 C 0.0545 0.86603 0.3188 0.0
C1127 C 0.15786 0.82998 0.2864 0.0
C1128 C 0.14777 0.836 0.26828 0.0
C1129 C 0.1258 0.84667 0.26718 0.0
C1130 C 0.16073 0.83135 0.25186 0.0
C1131 C 0.15153 0.83688 0.23427 0.0
C1132 C 0.11685 0.85258 0.24981 0.0
C1133 C 0.12958 0.84774 0.23345 0.0
C1134 C 0.18952 0.89124 0.35535 0.0
C1135 C 0.12274 0.8053 0.35889 0.0
C1136 C 0.18309 0.83054 0.40067 0.0
C1137 C 0.19464 0.8247 0.41835 0.0
C1138 C 0.21758 0.81518 0.41848 0.0
C1139 C 0.18214 0.82825 0.43533 0.0
C1140 C 0.19232 0.82212 0.45243 0.0
C1141 C 0.22795 0.80929 0.43538 0.0
C1142 C 0.21551 0.81277 0.45224 0.0
C1143 C 0.15433 0.77538 0.33061 0.0
H1144 H 0.11563 0.85042 0.2797 0.0
H1145 H 0.1782 0.82369 0.25281 0.0
H1146 H 0.09987 0.8608 0.24901 0.0
H1147 H 0.12193 0.85209 0.22014 0.0
H1148 H 0.22748 0.81238 0.40557 0.0
H1149 H 0.16427 0.83546 0.43521 0.0
H1150 H 0.24581 0.80212 0.43541 0.0
H1151 H 0.22439 0.80859 0.46516 0.0
Gd1152 Gd 0.85442 0.68482 0.70082 0.0
Gd1153 Gd 0.8251 0.6479 0.65531 0.0
C1154 C 0.74209 0.54848 0.65144 0.0
C1155 C 0.76921 0.5201 0.64272 0.0
C1156 C 0.79971 0.5761 0.64715 0.0
C1157 C 0.77186 0.57633 0.65172 0.0
C1158 C 0.79855 0.54816 0.642 0.0
C1159 C 0.74104 0.52025 0.64748 0.0
C1160 C 0.71417 0.55002 0.65436 0.0
C1161 C 0.71629 0.57897 0.65651 0.0
N1162 N 0.77359 0.60408 0.65494 0.0
C1163 C 0.74636 0.60599 0.65639 0.0
H1164 H 0.74779 0.62829 0.65793 0.0
C1165 C 0.85455 0.6054 0.63881 0.0
N1166 N 0.82767 0.60363 0.64647 0.0
C1167 C 0.85461 0.57828 0.63357 0.0
C1168 C 0.82666 0.54946 0.63553 0.0
H1169 H 0.87616 0.62776 0.63738 0.0
H1170 H 0.71843 0.49857 0.6474 0.0
H1171 H 0.93222 0.70699 0.69778 0.0
H1172 H 0.69084 0.52914 0.65434 0.0
H1173 H 0.6948 0.58051 0.65827 0.0
H1174 H 0.76788 0.49832 0.63903 0.0
H1175 H 0.80001 0.70235 0.71655 0.0
H1176 H 0.98635 0.80603 0.70363 0.0
H1177 H 0.98437 0.75582 0.69829 0.0
H1178 H 0.90623 0.83276 0.71925 0.0
H1179 H 0.87619 0.57962 0.62804 0.0
H1180 H 0.82675 0.52851 0.63139 0.0
H1181 H 0.95692 0.83459 0.71138 0.0
H1182 H 0.79765 0.7493 0.72595 0.0
N1183 N 0.90506 0.72962 0.70166 0.0
C1184 C 0.96341 0.78472 0.70324 0.0
C1185 C 0.96241 0.75642 0.70027 0.0
C1186 C 0.93487 0.78503 0.70638 0.0
C1187 C 0.90566 0.75667 0.70559 0.0
C1188 C 0.93284 0.72884 0.6999 0.0
N1189 N 0.84956 0.72778 0.70975 0.0
C1190 C 0.87713 0.75568 0.71006 0.0
C1191 C 0.82009 0.75142 0.7214 0.0
C1192 C 0.84791 0.78059 0.72081 0.0
C1193 C 0.82145 0.72497 0.71613 0.0
C1194 C 0.877 0.78295 0.71537 0.0
H1195 H 0.8468 0.80103 0.72494 0.0
O1196 O 0.83265 0.67207 0.72833 0.0
O1197 O 0.81079 0.65275 0.68395 0.0
O1198 O 0.80098 0.67509 0.66384 0.0
O1199 O 0.83882 0.71319 0.68303 0.0
O1200 O 0.81342 0.63902 0.71049 0.0
O1201 O 0.8815 0.68156 0.72405 0.0
O1202 O 0.84731 0.66102 0.62794 0.0
O1203 O 0.86866 0.68001 0.67217 0.0
O1204 O 0.87916 0.65819 0.69264 0.0
O1205 O 0.84267 0.62032 0.67254 0.0
O1206 O 0.86614 0.69368 0.6456 0.0
O1207 O 0.79835 0.65119 0.63188 0.0
C1208 C 0.79691 0.63091 0.69558 0.0
C1209 C 0.90588 0.81148 0.7154 0.0
C1210 C 0.93474 0.81252 0.71088 0.0
C1211 C 0.85837 0.67463 0.73608 0.0
C1212 C 0.86715 0.69029 0.75433 0.0
C1213 C 0.88824 0.72242 0.75556 0.0
C1214 C 0.85379 0.67283 0.77077 0.0
C1215 C 0.86125 0.68741 0.78836 0.0
C1216 C 0.89593 0.73696 0.77292 0.0
C1217 C 0.88265 0.71965 0.78921 0.0
C1218 C 0.81574 0.70382 0.67044 0.0
C1219 C 0.88259 0.70184 0.66053 0.0
C1220 C 0.82174 0.65845 0.62001 0.0
C1221 C 0.81347 0.64298 0.60172 0.0
C1222 C 0.79524 0.61051 0.60042 0.0
C1223 C 0.82463 0.66102 0.5853 0.0
C1224 C 0.81774 0.64671 0.56762 0.0
C1225 C 0.78828 0.59618 0.583 0.0
C1226 C 0.7994 0.61406 0.56672 0.0
C1227 C 0.86535 0.62992 0.68544 0.0
H1228 H 0.89884 0.73625 0.74315 0.0
H1229 H 0.83734 0.648 0.76985 0.0
H1230 H 0.91238 0.76175 0.77378 0.0
H1231 H 0.88946 0.73145 0.80251 0.0
H1232 H 0.78639 0.59625 0.61284 0.0
H1233 H 0.8383 0.68616 0.58632 0.0
H1234 H 0.77426 0.57108 0.5821 0.0
H1235 H 0.79384 0.6023 0.5534 0.0
Gd1236 Gd 0.31277 0.15556 0.69841 0.0
Gd1237 Gd 0.3647 0.1755 0.65649 0.0
C1238 C 0.45514 0.16737 0.65846 0.0
C1239 C 0.49723 0.2213 0.65511 0.0
C1240 C 0.44125 0.20766 0.6545 0.0
C1241 C 0.43197 0.17676 0.65724 0.0
C1242 C 0.47395 0.2302 0.65281 0.0
C1243 C 0.48783 0.1899 0.65796 0.0
C1244 C 0.44474 0.13556 0.65951 0.0
C1245 C 0.41205 0.11405 0.65852 0.0
N1246 N 0.40019 0.15568 0.65756 0.0
C1247 C 0.39001 0.12456 0.65728 0.0
H1248 H 0.36484 0.1076 0.65672 0.0
C1249 C 0.42589 0.24448 0.64624 0.0
N1250 N 0.41813 0.2153 0.65214 0.0
C1251 C 0.45799 0.26778 0.64454 0.0
C1252 C 0.48217 0.26074 0.64817 0.0
H1253 H 0.4072 0.24997 0.6435 0.0
H1254 H 0.50598 0.18319 0.65916 0.0
H1255 H 0.31429 0.22441 0.699 0.0
H1256 H 0.46176 0.12736 0.66053 0.0
H1257 H 0.40376 0.08936 0.65887 0.0
H1258 H 0.5225 0.23834 0.65412 0.0
H1259 H 0.26907 0.08075 0.71023 0.0
H1260 H 0.21803 0.2066 0.69599 0.0
H1261 H 0.27626 0.2437 0.69748 0.0
H1262 H 0.15539 0.09559 0.70131 0.0
H1263 H 0.46405 0.29111 0.64045 0.0
H1264 H 0.50702 0.27877 0.64674 0.0
H1265 H 0.17302 0.15115 0.69706 0.0
H1266 H 0.21191 0.04033 0.71316 0.0
N1267 N 0.27824 0.17653 0.69795 0.0
C1268 C 0.23465 0.19792 0.69671 0.0
C1269 C 0.26748 0.21891 0.69761 0.0
C1270 C 0.22364 0.16596 0.69741 0.0
C1271 C 0.24633 0.1559 0.69823 0.0
C1272 C 0.28904 0.20778 0.69849 0.0
N1273 N 0.25906 0.11639 0.70243 0.0
C1274 C 0.23641 0.12475 0.70048 0.0
C1275 C 0.21844 0.06395 0.70945 0.0
C1276 C 0.19471 0.07178 0.7063 0.0
C1277 C 0.25072 0.08682 0.70781 0.0
C1278 C 0.20356 0.10265 0.70214 0.0
H1279 H 0.16973 0.05407 0.70769 0.0
O1280 O 0.3154 0.13671 0.72529 0.0
O1281 O 0.35735 0.16007 0.68613 0.0
O1282 O 0.32567 0.12449 0.65678 0.0
O1283 O 0.28487 0.11843 0.6772 0.0
O1284 O 0.33025 0.12131 0.70251 0.0
O1285 O 0.32292 0.18353 0.72333 0.0
O1286 O 0.36052 0.19278 0.6294 0.0
O1287 O 0.32042 0.17116 0.66893 0.0
O1288 O 0.35208 0.20645 0.69851 0.0
O1289 O 0.39197 0.21405 0.67687 0.0
O1290 O 0.34669 0.20926 0.65198 0.0
O1291 O 0.35562 0.14705 0.63187 0.0
C1292 C 0.35654 0.13628 0.69315 0.0
C1293 C 0.18077 0.11227 0.70032 0.0
C1294 C 0.1908 0.1439 0.69792 0.0
C1295 C 0.32044 0.16147 0.73434 0.0
C1296 C 0.30193 0.15631 0.75153 0.0
C1297 C 0.26885 0.14507 0.75112 0.0
C1298 C 0.31785 0.16282 0.76867 0.0
C1299 C 0.30097 0.15836 0.78547 0.0
C1300 C 0.25183 0.1402 0.76776 0.0
C1301 C 0.26773 0.14673 0.78487 0.0
C1302 C 0.29596 0.10883 0.66336 0.0
C1303 C 0.32091 0.19472 0.66184 0.0
C1304 C 0.35678 0.16826 0.62062 0.0
C1305 C 0.37542 0.17389 0.60344 0.0
C1306 C 0.40862 0.1858 0.60385 0.0
C1307 C 0.3595 0.16728 0.58631 0.0
C1308 C 0.37649 0.17232 0.56952 0.0
C1309 C 0.42574 0.19125 0.5872 0.0
C1310 C 0.40983 0.18463 0.57009 0.0
C1311 C 0.38114 0.223 0.69114 0.0
H1312 H 0.25624 0.14006 0.73801 0.0
H1313 H 0.34337 0.17113 0.76892 0.0
H1314 H 0.22628 0.13146 0.7674 0.0
H1315 H 0.25416 0.1431 0.79761 0.0
H1316 H 0.42124 0.19089 0.61697 0.0
H1317 H 0.33387 0.15845 0.58607 0.0
H1318 H 0.45139 0.20051 0.58755 0.0
H1319 H 0.42347 0.18875 0.55733 0.0
Gd1320 Gd 0.82388 0.1756 0.6563 0.0
Gd1321 Gd 0.85531 0.15988 0.69944 0.0
C1322 C 0.95207 0.16379 0.701 0.0
C1323 C 0.93633 0.10947 0.70586 0.0
C1324 C 0.89594 0.12514 0.70414 0.0
C1325 C 0.91952 0.15566 0.70127 0.0
C1326 C 0.90408 0.10177 0.70692 0.0
C1327 C 0.96029 0.14043 0.70288 0.0
C1328 C 0.97538 0.19522 0.69935 0.0
C1329 C 0.96601 0.21768 0.69874 0.0
N1330 N 0.91071 0.17763 0.69968 0.0
C1331 C 0.93342 0.20845 0.6992 0.0
H1332 H 0.92661 0.22608 0.69853 0.0
C1333 C 0.84125 0.0894 0.71 0.0
N1334 N 0.86506 0.11855 0.70511 0.0
C1335 C 0.84809 0.06539 0.71278 0.0
C1336 C 0.8796 0.07152 0.71104 0.0
H1337 H 0.81681 0.08446 0.71127 0.0
H1338 H 0.98514 0.14618 0.7025 0.0
H1339 H 0.75249 0.1098 0.65874 0.0
H1340 H 1.00063 0.20243 0.69899 0.0
H1341 H 0.98385 0.24211 0.69779 0.0
H1342 H 0.94304 0.09179 0.70774 0.0
H1343 H 0.86201 0.24915 0.64119 0.0
H1344 H 0.67864 0.13365 0.65681 0.0
H1345 H 0.69529 0.094 0.65955 0.0
H1346 H 0.73627 0.24299 0.6434 0.0
H1347 H 0.82906 0.04218 0.71623 0.0
H1348 H 0.88485 0.05289 0.71323 0.0
H1349 H 0.69422 0.18948 0.65099 0.0
H1350 H 0.84976 0.2906 0.63331 0.0
N1351 N 0.7685 0.15818 0.65636 0.0
C1352 C 0.70387 0.14076 0.6565 0.0
C1353 C 0.71317 0.11832 0.65799 0.0
C1354 C 0.72721 0.17197 0.65387 0.0
C1355 C 0.75973 0.17998 0.65373 0.0
C1356 C 0.74573 0.12743 0.65753 0.0
N1357 N 0.81402 0.21627 0.64874 0.0
C1358 C 0.78327 0.21001 0.64966 0.0
C1359 C 0.83084 0.26808 0.63797 0.0
C1360 C 0.79946 0.26238 0.63961 0.0
C1361 C 0.83769 0.24455 0.64245 0.0
C1362 C 0.77514 0.23297 0.64536 0.0
H1363 H 0.79419 0.28063 0.63613 0.0
O1364 O 0.84656 0.18807 0.62898 0.0
O1365 O 0.86416 0.17319 0.66962 0.0
O1366 O 0.87048 0.21114 0.69628 0.0
O1367 O 0.83476 0.21502 0.67591 0.0
O1368 O 0.87652 0.20929 0.65121 0.0
O1369 O 0.80323 0.14382 0.633 0.0
O1370 O 0.8324 0.14526 0.72657 0.0
O1371 O 0.81495 0.16302 0.68645 0.0
O1372 O 0.80867 0.12443 0.66014 0.0
O1373 O 0.84807 0.12345 0.67839 0.0
O1374 O 0.80277 0.12574 0.70403 0.0
O1375 O 0.8757 0.1899 0.72353 0.0
C1376 C 0.88773 0.19619 0.66196 0.0
C1377 C 0.74297 0.22556 0.6464 0.0
C1378 C 0.71904 0.19511 0.65072 0.0
C1379 C 0.82452 0.16288 0.62109 0.0
C1380 C 0.81254 0.16715 0.60312 0.0
C1381 C 0.78888 0.17572 0.6024 0.0
C1382 C 0.82541 0.16312 0.58646 0.0
C1383 C 0.81454 0.16733 0.56906 0.0
C1384 C 0.77823 0.18026 0.58521 0.0
C1385 C 0.79094 0.17613 0.56864 0.0
C1386 C 0.85687 0.22644 0.68912 0.0
C1387 C 0.79148 0.13958 0.69398 0.0
C1388 C 0.85428 0.16988 0.73505 0.0
C1389 C 0.86607 0.16416 0.75268 0.0
C1390 C 0.8871 0.15233 0.75269 0.0
C1391 C 0.85541 0.16976 0.76973 0.0
C1392 C 0.86581 0.1637 0.78677 0.0
C1393 C 0.89717 0.14588 0.76951 0.0
C1394 C 0.88653 0.15138 0.78645 0.0
C1395 C 0.82493 0.11088 0.6659 0.0
H1396 H 0.77869 0.17892 0.61507 0.0
H1397 H 0.8441 0.15703 0.58707 0.0
H1398 H 0.75996 0.18688 0.58473 0.0
H1399 H 0.78201 0.17941 0.55547 0.0
H1400 H 0.89557 0.1479 0.73974 0.0
H1401 H 0.83927 0.17908 0.76973 0.0
H1402 H 0.91318 0.13647 0.76942 0.0
H1403 H 0.89432 0.14574 0.7993 0.0
C1404 C 0.39229 0.90268 0.03808 0.0
C1405 C 0.36652 0.90748 0.04237 0.0
C1406 C 0.42156 0.92719 0.03142 0.0
C1407 C 0.42579 0.9571 0.02858 0.0
H1408 H 0.39038 0.88033 0.04083 0.0
H1409 H 0.44137 0.92304 0.02936 0.0
S1410 S 0.3644 0.98048 0.03509 0.0
N1411 N 0.34616 0.94348 0.04139 0.0
N1412 N 0.40108 0.9894 0.02894 0.0
C1413 C 0.39967 0.96164 0.0318 0.0
C1414 C 0.37002 0.93684 0.0386 0.0
C1415 C 0.06751 0.43215 0.04241 0.0
C1416 C 0.09858 0.45709 0.0457 0.0
C1417 C 0.04304 0.43724 0.03585 0.0
C1418 C 0.04861 0.46744 0.03219 0.0
H1419 H 0.06194 0.40849 0.04519 0.0
H1420 H 0.01937 0.41733 0.03382 0.0
S1421 S 0.12521 0.54084 0.03981 0.0
N1422 N 0.13336 0.51318 0.04532 0.0
N1423 N 0.08721 0.52276 0.03352 0.0
C1424 C 0.07954 0.49261 0.0355 0.0
C1425 C 0.10458 0.48741 0.04202 0.0
C1426 C 0.56797 0.63376 0.04915 0.0
C1427 C 0.55063 0.64937 0.04664 0.0
C1428 C 0.55819 0.60495 0.04072 0.0
C1429 C 0.53065 0.59055 0.02942 0.0
H1430 H 0.58931 0.64391 0.0577 0.0
H1431 H 0.57237 0.59391 0.04321 0.0
S1432 S 0.47618 0.6216 0.01922 0.0
N1433 N 0.50415 0.64812 0.03265 0.0
N1434 N 0.48594 0.59433 0.01656 0.0
C1435 C 0.51321 0.60613 0.02676 0.0
C1436 C 0.52314 0.63542 0.03542 0.0
C1437 C 0.89756 0.35902 0.99093 0.0
C1438 C 0.89285 0.35703 0.97148 0.0
C1439 C 0.91933 0.38721 0.99941 0.0
C1440 C 0.93718 0.41435 0.98876 0.0
H1441 H 0.88481 0.33849 0.99962 0.0
H1442 H 0.92278 0.38754 0.01431 0.0
S1443 S 0.93214 0.42251 0.9377 0.0
N1444 N 0.90666 0.38542 0.94202 0.0
N1445 N 0.94783 0.43813 0.95804 0.0
C1446 C 0.93251 0.41289 0.96941 0.0
C1447 C 0.91025 0.38431 0.96075 0.0
C1448 C 0.63782 0.56442 0.97996 0.0
C1449 C 0.64245 0.53887 0.97707 0.0
C1450 C 0.60834 0.56032 0.98627 0.0
C1451 C 0.58224 0.53054 0.99008 0.0
H1452 H 0.65697 0.58779 0.97691 0.0
H1453 H 0.60573 0.58067 0.98781 0.0
S1454 S 0.58149 0.45586 0.98416 0.0
N1455 N 0.61836 0.48266 0.97845 0.0
N1456 N 0.56276 0.47494 0.98983 0.0
C1457 C 0.58661 0.50478 0.98747 0.0
C1458 C 0.6168 0.50897 0.98118 0.0
C1459 C 0.46412 0.10252 0.99127 0.0
C1460 C 0.46778 0.10796 0.97188 0.0
C1461 C 0.47239 0.08207 0.99987 0.0
C1462 C 0.48442 0.06632 0.98933 0.0
H1463 H 0.45421 0.11369 0.99981 0.0
H1464 H 0.46851 0.07791 0.01471 0.0
S1465 S 0.50195 0.07494 0.93864 0.0
N1466 N 0.48677 0.09775 0.94275 0.0
N1467 N 0.50185 0.05906 0.95892 0.0
C1468 C 0.48894 0.07208 0.97009 0.0
C1469 C 0.48073 0.09297 0.96135 0.0
C1470 C 0.64194 0.06586 0.98061 0.0
C1471 C 0.64593 0.09548 0.97698 0.0
C1472 C 0.61315 0.0418 0.98793 0.0
C1473 C 0.58722 0.04638 0.99199 0.0
H1474 H 0.66104 0.06106 0.97739 0.0
H1475 H 0.61086 0.01912 0.99002 0.0
S1476 S 0.58515 0.11946 0.98462 0.0
N1477 N 0.62157 0.12815 0.97804 0.0
N1478 N 0.56726 0.08273 0.9914 0.0
C1479 C 0.59106 0.07604 0.98872 0.0
C1480 C 0.62051 0.10066 0.98139 0.0
C1481 C 0.90203 0.51106 0.98098 0.0
C1482 C 0.90646 0.54069 0.97664 0.0
C1483 C 0.92762 0.50748 0.98745 0.0
C1484 C 0.95832 0.53348 0.99008 0.0
H1485 H 0.87899 0.49047 0.97867 0.0
H1486 H 0.92357 0.48423 0.9899 0.0
S1487 S 0.98153 0.61606 0.98255 0.0
N1488 N 0.94334 0.59645 0.9767 0.0
N1489 N 0.99116 0.58972 0.98884 0.0
C1490 C 0.96269 0.56316 0.98635 0.0
C1491 C 0.93681 0.56678 0.97975 0.0
C1492 C 0.48562 0.36934 0.98501 0.0
C1493 C 0.45866 0.35336 0.97351 0.0
C1494 C 0.49297 0.39772 0.99322 0.0
C1495 C 0.47374 0.41135 0.9902 0.0
H1496 H 0.50163 0.36024 0.98732 0.0
H1497 H 0.51436 0.40934 1.00165 0.0
S1498 S 0.39838 0.37687 0.96278 0.0
N1499 N 0.41111 0.35167 0.96078 0.0
N1500 N 0.42515 0.40525 0.97583 0.0
C1501 C 0.44611 0.39502 0.97916 0.0
C1502 C 0.43854 0.36602 0.97091 0.0
C1503 C 0.12501 0.63068 0.03646 0.0
C1504 C 0.1154 0.64725 0.04815 0.0
C1505 C 0.1025 0.60218 0.02865 0.0
C1506 C 0.0694 0.58905 0.03212 0.0
H1507 H 0.15019 0.63945 0.03365 0.0
H1508 H 0.11137 0.59016 0.02008 0.0
S1509 S 0.0318 0.62461 0.06083 0.0
N1510 N 0.07058 0.64955 0.06204 0.0
N1511 N 0.02831 0.59589 0.04763 0.0
C1512 C 0.0595 0.60577 0.04357 0.0
C1513 C 0.08245 0.63485 0.05149 0.0
C1514 C 0.36655 0.43363 0.0407 0.0
C1515 C 0.36089 0.45846 0.04384 0.0
C1516 C 0.39619 0.43879 0.03395 0.0
C1517 C 0.42146 0.46898 0.02998 0.0
H1518 H 0.3481 0.40999 0.04388 0.0
H1519 H 0.39963 0.41895 0.03223 0.0
S1520 S 0.41915 0.54203 0.03623 0.0
N1521 N 0.38296 0.51439 0.04241 0.0
N1522 N 0.43894 0.52416 0.03011 0.0
C1523 C 0.416 0.49403 0.03275 0.0
C1524 C 0.38562 0.48872 0.03951 0.0
C1525 C 0.56574 0.92581 0.05054 0.0
C1526 C 0.54456 0.89352 0.05041 0.0
C1527 C 0.55755 0.94636 0.0421 0.0
C1528 C 0.52784 0.93544 0.03318 0.0
H1529 H 0.58902 0.93526 0.05706 0.0
H1530 H 0.57481 0.97101 0.04249 0.0
S1531 S 0.46285 0.85305 0.03027 0.0
N1532 N 0.49199 0.85158 0.04147 0.0
N1533 N 0.4765 0.89019 0.0256 0.0
C1534 C 0.50628 0.90318 0.03312 0.0
C1535 C 0.51466 0.88224 0.04173 0.0
C1536 C 0.03592 0.26942 0.37383 0.0
C1537 C 0.03082 0.23935 0.37725 0.0
C1538 C 0.06553 0.29326 0.36728 0.0
C1539 C 0.09117 0.28798 0.3638 0.0
H1540 H 0.0171 0.27477 0.37669 0.0
H1541 H 0.0687 0.31633 0.36539 0.0
S1542 S 0.09035 0.21346 0.37098 0.0
N1543 N 0.05375 0.20546 0.3766 0.0
N1544 N 0.10966 0.2505 0.36478 0.0
C1545 C 0.08624 0.25787 0.36685 0.0
C1546 C 0.05594 0.23347 0.37337 0.0
C1547 C 0.77214 0.82108 0.37479 0.0
C1548 C 0.76742 0.79147 0.37947 0.0
C1549 C 0.74647 0.82487 0.36877 0.0
C1550 C 0.71539 0.79914 0.36692 0.0
H1551 H 0.79548 0.84155 0.37655 0.0
H1552 H 0.7508 0.84813 0.36614 0.0
S1553 S 0.69118 0.71658 0.37553 0.0
N1554 N 0.72977 0.73588 0.3805 0.0
N1555 N 0.6818 0.74309 0.36922 0.0
C1556 C 0.71069 0.76944 0.37094 0.0
C1557 C 0.73666 0.76556 0.37708 0.0
C1558 C 0.19891 0.9507 0.39107 0.0
C1559 C 0.21478 0.97886 0.38104 0.0
C1560 C 0.19101 0.92239 0.38259 0.0
C1561 C 0.19852 0.92135 0.36379 0.0
H1562 H 0.19226 0.9505 0.40553 0.0
H1563 H 0.17854 0.90112 0.39071 0.0
S1564 S 0.24276 0.9885 0.33197 0.0
N1565 N 0.23955 0.00404 0.35163 0.0
N1566 N 0.22465 0.9506 0.33577 0.0
C1567 C 0.21483 0.9492 0.35368 0.0
C1568 C 0.22295 0.97807 0.36229 0.0
C1569 C 0.59466 0.69771 0.30804 0.0
C1570 C 0.56132 0.68308 0.31067 0.0
C1571 C 0.61534 0.7265 0.31626 0.0
C1572 C 0.6036 0.74196 0.32749 0.0
H1573 H 0.6049 0.68681 0.29954 0.0
H1574 H 0.64077 0.73672 0.31364 0.0
S1575 S 0.51778 0.71364 0.33811 0.0
N1576 N 0.51728 0.68636 0.3248 0.0
N1577 N 0.55593 0.74007 0.34052 0.0
C1578 C 0.5702 0.72731 0.33033 0.0
C1579 C 0.54916 0.69803 0.32187 0.0
C1580 C 0.30764 0.90029 0.31415 0.0
C1581 C 0.31299 0.87531 0.31076 0.0
C1582 C 0.27791 0.89526 0.32066 0.0
C1583 C 0.25224 0.86508 0.32414 0.0
H1584 H 0.32643 0.92394 0.31137 0.0
H1585 H 0.27472 0.91522 0.32259 0.0
S1586 S 0.25342 0.79161 0.3168 0.0
N1587 N 0.29006 0.81919 0.3113 0.0
N1588 N 0.23395 0.80975 0.32298 0.0
C1589 C 0.25733 0.83987 0.32099 0.0
C1590 C 0.28779 0.84501 0.31453 0.0
C1591 C 0.14605 0.42501 0.29639 0.0
C1592 C 0.13073 0.43862 0.30606 0.0
C1593 C 0.15381 0.40454 0.30539 0.0
C1594 C 0.1467 0.39718 0.32436 0.0
H1595 H 0.15245 0.43051 0.28182 0.0
H1596 H 0.16578 0.39466 0.2975 0.0
S1597 S 0.10379 0.42378 0.35542 0.0
N1598 N 0.10679 0.44152 0.33536 0.0
N1599 N 0.12144 0.40291 0.35216 0.0
C1600 C 0.13093 0.41006 0.33412 0.0
C1601 C 0.12293 0.43086 0.32498 0.0
C1602 C 0.30611 0.39855 0.31368 0.0
C1603 C 0.31028 0.42828 0.31028 0.0
C1604 C 0.27738 0.37459 0.32105 0.0
C1605 C 0.25168 0.37938 0.32538 0.0
H1606 H 0.32503 0.3936 0.31025 0.0
H1607 H 0.27494 0.35182 0.32298 0.0
S1608 S 0.25025 0.45292 0.31891 0.0
N1609 N 0.28648 0.46141 0.312 0.0
N1610 N 0.2321 0.41605 0.32545 0.0
C1611 C 0.25567 0.40915 0.32238 0.0
C1612 C 0.28513 0.43372 0.31501 0.0
C1613 C 0.60744 0.90118 0.31379 0.0
C1614 C 0.5758 0.87674 0.31139 0.0
C1615 C 0.6316 0.89556 0.32025 0.0
C1616 C 0.62517 0.8653 0.32469 0.0
H1617 H 0.61369 0.92484 0.31035 0.0
H1618 H 0.65572 0.91508 0.32155 0.0
S1619 S 0.54669 0.79307 0.31967 0.0
N1620 N 0.53951 0.82107 0.31347 0.0
N1621 N 0.585 0.8104 0.32527 0.0
C1622 C 0.59363 0.84064 0.32238 0.0
C1623 C 0.56893 0.84641 0.31591 0.0
C1624 C 0.15909 0.70411 0.31618 0.0
C1625 C 0.13303 0.68863 0.30399 0.0
C1626 C 0.16535 0.73175 0.32499 0.0
C1627 C 0.14584 0.74507 0.32194 0.0
H1628 H 0.17517 0.69514 0.31866 0.0
H1629 H 0.18608 0.743 0.33396 0.0
S1630 S 0.07281 0.71185 0.29245 0.0
N1631 N 0.08624 0.68723 0.29029 0.0
N1632 N 0.0982 0.73938 0.3065 0.0
C1633 C 0.11922 0.72932 0.31008 0.0
C1634 C 0.1128 0.7011 0.30119 0.0
C1635 C 0.74918 0.96828 0.38083 0.0
C1636 C 0.78227 0.97895 0.38129 0.0
C1637 C 0.72756 0.93921 0.37327 0.0
C1638 C 0.73816 0.91965 0.36584 0.0
H1639 H 0.73993 0.98259 0.38632 0.0
H1640 H 0.70234 0.93213 0.37319 0.0
S1641 S 0.82225 0.93584 0.365 0.0
N1642 N 0.8245 0.96718 0.37447 0.0
N1643 N 0.784 0.91256 0.3603 0.0
C1644 C 0.77122 0.92999 0.36633 0.0
C1645 C 0.79323 0.95962 0.37403 0.0
C1646 C 0.03664 0.77017 0.37509 0.0
C1647 C 0.0327 0.79611 0.37803 0.0
C1648 C 0.06547 0.77358 0.36815 0.0
C1649 C 0.09162 0.80303 0.36376 0.0
H1650 H 0.01741 0.74701 0.37852 0.0
H1651 H 0.06753 0.75293 0.36651 0.0
S1652 S 0.09409 0.87857 0.36936 0.0
N1653 N 0.05748 0.85238 0.37599 0.0
N1654 N 0.11194 0.8588 0.36337 0.0
C1655 C 0.08796 0.82921 0.36641 0.0
C1656 C 0.0584 0.82572 0.37335 0.0
C1657 C 0.18564 0.21682 0.37194 0.0
C1658 C 0.21213 0.22685 0.38386 0.0
C1659 C 0.17872 0.23818 0.36331 0.0
C1660 C 0.19795 0.27041 0.36629 0.0
H1661 H 0.16978 0.19222 0.36954 0.0
H1662 H 0.15774 0.22919 0.35452 0.0
S1663 S 0.27197 0.30863 0.39496 0.0
N1664 N 0.25906 0.27108 0.39711 0.0
N1665 N 0.24587 0.3112 0.38131 0.0
C1666 C 0.22499 0.2807 0.37787 0.0
C1667 C 0.2321 0.25895 0.38655 0.0
C1668 C 0.72094 0.55635 0.70623 0.0
C1669 C 0.69887 0.5666 0.70951 0.0
C1670 C 0.75233 0.57711 0.70031 0.0
C1671 C 0.76245 0.60859 0.69695 0.0
H1672 H 0.71448 0.53251 0.70927 0.0
H1673 H 0.7692 0.56877 0.69905 0.0
S1674 S 0.71339 0.64663 0.70178 0.0
N1675 N 0.68883 0.60999 0.70771 0.0
N1676 N 0.7479 0.6489 0.69653 0.0
C1677 C 0.74032 0.61888 0.69932 0.0
C1678 C 0.70845 0.59786 0.70553 0.0
C1679 C 0.40521 0.09919 0.7085 0.0
C1680 C 0.43578 0.12476 0.71206 0.0
C1681 C 0.3802 0.10334 0.70183 0.0
C1682 C 0.38473 0.1332 0.6983 0.0
H1683 H 0.40044 0.07574 0.71115 0.0
H1684 H 0.35695 0.08296 0.69956 0.0
S1685 S 0.45958 0.20794 0.7066 0.0
N1686 N 0.46892 0.18107 0.7121 0.0
N1687 N 0.42175 0.18886 0.7 0.0
C1688 C 0.41514 0.159 0.70188 0.0
C1689 C 0.44074 0.15477 0.70854 0.0
C1690 C 0.90606 0.30285 0.71473 0.0
C1691 C 0.88853 0.31823 0.71211 0.0
C1692 C 0.89582 0.27347 0.70702 0.0
C1693 C 0.86761 0.25822 0.69634 0.0
H1694 H 0.92793 0.31362 0.72282 0.0
H1695 H 0.91022 0.26268 0.70957 0.0
S1696 S 0.81244 0.2884 0.68607 0.0
N1697 N 0.84119 0.31592 0.69864 0.0
N1698 N 0.8221 0.26097 0.68388 0.0
C1699 C 0.84998 0.27356 0.69353 0.0
C1700 C 0.86038 0.30346 0.70147 0.0
C1701 C 0.23499 0.0236 0.65649 0.0
C1702 C 0.2306 0.02136 0.63702 0.0
C1703 C 0.25615 0.052 0.66497 0.0
C1704 C 0.27376 0.07914 0.6543 0.0
H1705 H 0.22234 0.00313 0.66525 0.0
H1706 H 0.25929 0.0525 0.67991 0.0
S1707 S 0.26961 0.08662 0.6031 0.0
N1708 N 0.24461 0.04943 0.60746 0.0
N1709 N 0.28469 0.10259 0.62347 0.0
C1710 C 0.26954 0.07741 0.6349 0.0
C1711 C 0.24787 0.04858 0.62624 0.0
C1712 C 0.95324 0.17739 0.64946 0.0
C1713 C 0.97899 0.20686 0.64448 0.0
C1714 C 0.92402 0.17393 0.65605 0.0
C1715 C 0.91976 0.19987 0.65817 0.0
H1716 H 0.95517 0.15675 0.64743 0.0
H1717 H 0.90432 0.15075 0.65878 0.0
S1718 S 0.98096 0.28224 0.64943 0.0
N1719 N 0.9991 0.26257 0.64383 0.0
N1720 N 0.94446 0.25602 0.65615 0.0
C1721 C 0.9458 0.22945 0.65408 0.0
C1722 C 0.97536 0.23298 0.64735 0.0
C1723 C 0.76651 0.73476 0.6471 0.0
C1724 C 0.78733 0.76714 0.64713 0.0
C1725 C 0.7755 0.7145 0.65519 0.0
C1726 C 0.80569 0.72585 0.66359 0.0
H1727 H 0.74311 0.72501 0.64071 0.0
H1728 H 0.75875 0.68972 0.65467 0.0
S1729 S 0.8696 0.80868 0.6665 0.0
N1730 N 0.83975 0.80962 0.65583 0.0
N1731 N 0.85673 0.77162 0.67092 0.0
C1732 C 0.82664 0.75822 0.66382 0.0
C1733 C 0.81745 0.77884 0.65562 0.0
C1734 C 0.95785 0.77682 0.64972 0.0
C1735 C 0.98001 0.76682 0.64608 0.0
C1736 C 0.92671 0.75588 0.65597 0.0
C1737 C 0.91698 0.72447 0.65928 0.0
H1738 H 0.96394 0.80056 0.64665 0.0
H1739 H 0.90968 0.76398 0.6574 0.0
S1740 S 0.96662 0.68718 0.6537 0.0
N1741 N 0.99071 0.72385 0.64764 0.0
N1742 N 0.93211 0.68458 0.65938 0.0
C1743 C 0.93932 0.7145 0.65667 0.0
C1744 C 0.97091 0.7357 0.65014 0.0
C1745 C 0.23631 0.17475 0.64801 0.0
C1746 C 0.24025 0.20422 0.64378 0.0
C1747 C 0.26215 0.1716 0.65453 0.0
C1748 C 0.2926 0.19787 0.65735 0.0
H1749 H 0.2135 0.15396 0.64555 0.0
H1750 H 0.2585 0.14846 0.65683 0.0
S1751 S 0.31448 0.28017 0.65007 0.0
N1752 N 0.27638 0.2601 0.64408 0.0
N1753 N 0.32463 0.25419 0.65634 0.0
C1754 C 0.29644 0.22738 0.65374 0.0
C1755 C 0.27032 0.23058 0.64708 0.0
C1756 C 0.77678 0.03212 0.64285 0.0
C1757 C 0.79818 0.02059 0.64265 0.0
C1758 C 0.78559 0.06123 0.65051 0.0
C1759 C 0.81614 0.07994 0.65828 0.0
H1760 H 0.75296 0.01844 0.63711 0.0
H1761 H 0.76821 0.06902 0.65039 0.0
S1762 S 0.88178 0.06124 0.65995 0.0
N1763 N 0.85166 0.03056 0.65011 0.0
N1764 N 0.86835 0.08534 0.66448 0.0
C1765 C 0.83785 0.06873 0.65806 0.0
C1766 C 0.82884 0.03905 0.65027 0.0
C1767 C 0.44179 0.30848 0.69733 0.0
C1768 C 0.44706 0.31096 0.71672 0.0
C1769 C 0.42035 0.27992 0.68911 0.0
C1770 C 0.40332 0.2529 0.69998 0.0
H1771 H 0.45394 0.32886 0.68846 0.0
H1772 H 0.41658 0.27917 0.67421 0.0
S1773 S 0.4102 0.24603 0.751 0.0
N1774 N 0.43476 0.28321 0.74637 0.0
N1775 N 0.39412 0.22978 0.73085 0.0
C1776 C 0.40852 0.25487 0.71929 0.0
C1777 C 0.43049 0.28383 0.72768 0.0
C1778 C 0.7044 0.09976 0.70917 0.0
C1779 C 0.69825 0.12443 0.71166 0.0
C1780 C 0.73423 0.10504 0.70265 0.0
C1781 C 0.75921 0.13519 0.69825 0.0
H1782 H 0.68616 0.07617 0.71262 0.0
H1783 H 0.738 0.08533 0.70135 0.0
S1784 S 0.75575 0.2079 0.70306 0.0
N1785 N 0.7197 0.18019 0.70939 0.0
N1786 N 0.77596 0.1902 0.69752 0.0
C1787 C 0.75331 0.16007 0.7005 0.0
C1788 C 0.72276 0.15464 0.70702 0.0
C1789 C 0.87357 0.57676 0.71976 0.0
C1790 C 0.89373 0.56823 0.71042 0.0
C1791 C 0.86415 0.5964 0.71129 0.0
C1792 C 0.87441 0.60803 0.6932 0.0
H1793 H 0.86485 0.56804 0.73367 0.0
H1794 H 0.84876 0.60261 0.71898 0.0
S1795 S 0.92914 0.5948 0.6633 0.0
N1796 N 0.9248 0.5742 0.68234 0.0
N1797 N 0.90699 0.61126 0.66656 0.0
C1798 C 0.89473 0.60005 0.68374 0.0
C1799 C 0.90437 0.58003 0.69232 0.0
C1800 C 0.47746 0.96691 0.15998 0.0
C1801 C 0.50012 0.97309 0.17414 0.0
C1802 C 0.48658 0.98238 0.14262 0.0
C1803 C 0.51865 0.00493 0.13882 0.0
H1804 H 0.45247 0.94994 0.16231 0.0
H1805 H 0.46824 0.97723 0.13229 0.0
S1806 S 0.58738 0.02935 0.17094 0.0
N1807 N 0.55616 0.00336 0.183 0.0
N1808 N 0.57325 0.03177 0.15044 0.0
C1809 C 0.54156 0.01095 0.15274 0.0
C1810 C 0.53234 0.99522 0.17035 0.0
C1811 C 0.02023 0.49587 0.15745 0.0
C1812 C 0.01523 0.51242 0.17171 0.0
C1813 C 1.00392 0.48995 0.14044 0.0
C1814 C 0.98183 0.50014 0.13711 0.0
H1815 H 0.03731 0.48793 0.15932 0.0
H1816 H 0.00859 0.47721 0.12981 0.0
S1817 S 0.95951 0.54368 0.17015 0.0
N1818 N 0.98584 0.538 0.18163 0.0
N1819 N 0.9558 0.52754 0.14952 0.0
C1820 C 0.97634 0.51639 0.15134 0.0
C1821 C 0.99292 0.52241 0.16865 0.0
C1822 C 0.49364 0.48665 0.16826 0.0
C1823 C 0.49354 0.51448 0.17188 0.0
C1824 C 0.50409 0.48156 0.15103 0.0
C1825 C 0.51458 0.50397 0.13665 0.0
H1826 H 0.48632 0.46896 0.179 0.0
H1827 H 0.50403 0.4599 0.14895 0.0
S1828 S 0.51776 0.58022 0.13877 0.0
N1829 N 0.50368 0.56423 0.15939 0.0
N1830 N 0.52375 0.55488 0.12713 0.0
C1831 C 0.51398 0.53163 0.13995 0.0
C1832 C 0.50343 0.53685 0.15752 0.0
C1833 C 0.02397 0.51762 0.85311 0.0
C1834 C 0.99545 0.48984 0.84921 0.0
C1835 C 0.0387 0.52265 0.8706 0.0
C1836 C 0.02528 0.50021 0.8849 0.0
H1837 H 0.03538 0.53533 0.84242 0.0
H1838 H 0.06074 0.54431 0.87297 0.0
S1839 S 0.95029 0.42396 0.88197 0.0
N1840 N 0.95377 0.44003 0.86127 0.0
N1841 N 0.9817 0.44924 0.89402 0.0
C1842 C 0.99651 0.47253 0.88127 0.0
C1843 C 0.98157 0.46738 0.86346 0.0
C1844 C 0.48152 0.48139 0.85113 0.0
C1845 C 0.51401 0.49106 0.84787 0.0
C1846 C 0.47106 0.4866 0.86829 0.0
C1847 C 0.4926 0.50161 0.883 0.0
H1848 H 0.46398 0.46987 0.84024 0.0
H1849 H 0.44578 0.47854 0.8701 0.0
S1850 S 0.58023 0.53149 0.88174 0.0
N1851 N 0.56767 0.5161 0.86092 0.0
N1852 N 0.54809 0.52646 0.89309 0.0
C1853 C 0.52518 0.51142 0.87997 0.0
C1854 C 0.53587 0.50613 0.86243 0.0
C1855 C 0.53545 0.0337 0.86242 0.0
C1856 C 0.51259 0.02752 0.84839 0.0
C1857 C 0.52662 0.01804 0.87972 0.0
C1858 C 0.49465 0.99532 0.88359 0.0
H1859 H 0.56038 0.05079 0.86002 0.0
H1860 H 0.54511 0.02321 0.88995 0.0
S1861 S 0.42546 0.9709 0.85184 0.0
N1862 N 0.45646 0.99712 0.83973 0.0
N1863 N 0.4399 0.96835 0.8722 0.0
C1864 C 0.47152 0.98932 0.86981 0.0
C1865 C 0.48046 0.00524 0.85226 0.0
C1866 C 0.14119 0.29362 0.4929 0.0
C1867 C 0.16339 0.29934 0.50727 0.0
C1868 C 0.15077 0.31001 0.47585 0.0
C1869 C 0.18285 0.33306 0.47258 0.0
H1870 H 0.1162 0.27629 0.49484 0.0
H1871 H 0.13277 0.30514 0.46533 0.0
S1872 S 0.25048 0.35666 0.50545 0.0
N1873 N 0.21901 0.32974 0.51691 0.0
N1874 N 0.23696 0.35995 0.48492 0.0
C1875 C 0.20531 0.33867 0.48672 0.0
C1876 C 0.19562 0.32199 0.50401 0.0
C1877 C 0.65794 0.82057 0.504 0.0
C1878 C 0.68749 0.84735 0.50772 0.0
C1879 C 0.64298 0.81638 0.48664 0.0
C1880 C 0.65716 0.83867 0.47231 0.0
H1881 H 0.64588 0.80312 0.51475 0.0
H1882 H 0.62006 0.79558 0.48443 0.0
S1883 S 0.7351 0.91221 0.47476 0.0
N1884 N 0.73105 0.89585 0.49543 0.0
N1885 N 0.70272 0.88825 0.46293 0.0
C1886 C 0.68705 0.86522 0.47573 0.0
C1887 C 0.70223 0.8695 0.4934 0.0
C1888 C 0.16985 0.85965 0.49148 0.0
C1889 C 0.15936 0.83727 0.50588 0.0
C1890 C 0.17961 0.85423 0.47409 0.0
C1891 C 0.17957 0.82634 0.47047 0.0
H1892 H 0.17072 0.88165 0.4937 0.0
H1893 H 0.18806 0.87238 0.46358 0.0
S1894 S 0.1532 0.75975 0.50316 0.0
N1895 N 0.14892 0.78583 0.51515 0.0
N1896 N 0.16679 0.7755 0.48244 0.0
C1897 C 0.16849 0.8035 0.48459 0.0
C1898 C 0.15845 0.80897 0.50227 0.0
C1899 C 0.68004 0.80867 0.18857 0.0
C1900 C 0.65883 0.81972 0.18469 0.0
C1901 C 0.69527 0.81389 0.20588 0.0
C1902 C 0.68988 0.83034 0.22003 0.0
H1903 H 0.68511 0.79601 0.17808 0.0
H1904 H 0.71109 0.80459 0.20827 0.0
S1905 S 0.63679 0.8645 0.21692 0.0
N1906 N 0.63298 0.84768 0.19652 0.0
N1907 N 0.66245 0.85842 0.22885 0.0
C1908 C 0.66892 0.84177 0.21631 0.0
C1909 C 0.65328 0.83632 0.19869 0.0
C1910 C 0.18726 0.84854 0.18546 0.0
C1911 C 0.18713 0.82052 0.18215 0.0
C1912 C 0.17608 0.85377 0.20241 0.0
C1913 C 0.16456 0.83129 0.21676 0.0
H1914 H 0.19525 0.86624 0.17469 0.0
H1915 H 0.17635 0.87557 0.20425 0.0
S1916 S 0.16052 0.75458 0.21539 0.0
N1917 N 0.17587 0.7706 0.19497 0.0
N1918 N 0.15422 0.7801 0.22659 0.0
C1919 C 0.16496 0.80345 0.21377 0.0
C1920 C 0.17634 0.79813 0.19653 0.0
C1921 C 0.18197 0.33498 0.1857 0.0
C1922 C 0.18106 0.36257 0.18258 0.0
C1923 C 0.17273 0.31928 0.20291 0.0
C1924 C 0.16248 0.33063 0.21785 0.0
H1925 H 0.18909 0.32495 0.17457 0.0
H1926 H 0.17344 0.2979 0.20451 0.0
S1927 S 0.15726 0.4028 0.21727 0.0
N1928 N 0.17036 0.40132 0.19621 0.0
N1929 N 0.15272 0.37168 0.22845 0.0
C1930 C 0.16223 0.35862 0.21509 0.0
C1931 C 0.17148 0.37454 0.1975 0.0
C1932 C 0.8393 0.62637 0.82665 0.0
C1933 C 0.82603 0.63631 0.84073 0.0
C1934 C 0.84965 0.64235 0.80954 0.0
C1935 C 0.84749 0.66915 0.80589 0.0
H1936 H 0.8419 0.60613 0.82891 0.0
H1937 H 0.86029 0.63418 0.7993 0.0
S1938 S 0.81358 0.7043 0.83776 0.0
N1939 N 0.81075 0.67443 0.84962 0.0
N1940 N 0.82972 0.70407 0.81747 0.0
C1941 C 0.83362 0.67894 0.81968 0.0
C1942 C 0.82298 0.66262 0.83705 0.0
C1943 C 0.32219 0.15008 0.83537 0.0
C1944 C 0.35004 0.17878 0.83865 0.0
C1945 C 0.30636 0.14372 0.81818 0.0
C1946 C 0.31799 0.16571 0.80358 0.0
H1947 H 0.31227 0.13259 0.84628 0.0
H1948 H 0.28498 0.12132 0.81624 0.0
S1949 S 0.39034 0.24417 0.80498 0.0
N1950 N 0.38898 0.22912 0.82577 0.0
N1951 N 0.35896 0.21738 0.79358 0.0
C1952 C 0.34595 0.19441 0.80664 0.0
C1953 C 0.362 0.20091 0.82415 0.0
C1954 C 0.81165 0.16429 0.82546 0.0
C1955 C 0.83338 0.18091 0.8398 0.0
C1956 C 0.82229 0.15912 0.80828 0.0
C1957 C 0.85503 0.17008 0.80488 0.0
H1958 H 0.78626 0.15554 0.82744 0.0
H1959 H 0.80472 0.14611 0.79766 0.0
S1960 S 0.92161 0.21465 0.83791 0.0
N1961 N 0.88911 0.20783 0.84954 0.0
N1962 N 0.90909 0.19869 0.81723 0.0
C1963 C 0.87696 0.18669 0.81912 0.0
C1964 C 0.86616 0.19198 0.83656 0.0
C1965 C 0.35411 0.18094 0.51998 0.0
C1966 C 0.32672 0.15192 0.51661 0.0
C1967 C 0.37027 0.18727 0.53706 0.0
C1968 C 0.35941 0.1649 0.55143 0.0
H1969 H 0.36338 0.19874 0.50923 0.0
H1970 H 0.39123 0.20994 0.5391 0.0
S1971 S 0.28865 0.08545 0.5497 0.0
N1972 N 0.28914 0.10081 0.52916 0.0
N1973 N 0.31979 0.11252 0.56113 0.0
C1974 C 0.33199 0.13584 0.54827 0.0
C1975 C 0.31561 0.12938 0.53088 0.0
C1976 C 0.84804 0.18005 0.51964 0.0
C1977 C 0.84925 0.15276 0.5161 0.0
C1978 C 0.83724 0.18475 0.53686 0.0
C1979 C 0.82751 0.16249 0.55129 0.0
H1980 H 0.85463 0.19753 0.50883 0.0
H1981 H 0.83633 0.20594 0.53887 0.0
S1982 S 0.82762 0.08776 0.54941 0.0
N1983 N 0.84121 0.10382 0.52875 0.0
N1984 N 0.82043 0.1124 0.56097 0.0
C1985 C 0.82936 0.13545 0.54809 0.0
C1986 C 0.84028 0.13063 0.53054 0.0
C1987 C 0.81725 0.67491 0.51815 0.0
C1988 C 0.84911 0.69876 0.51524 0.0
C1989 C 0.80741 0.65857 0.53512 0.0
C1990 C 0.82891 0.66542 0.55001 0.0
H1991 H 0.79979 0.66842 0.5071 0.0
H1992 H 0.78263 0.6404 0.53659 0.0
S1993 S 0.91488 0.72621 0.5498 0.0
N1994 N 0.90201 0.72895 0.52894 0.0
N1995 N 0.88366 0.69786 0.56069 0.0
C1996 C 0.86079 0.68942 0.54739 0.0
C1997 C 0.87085 0.70607 0.53005 0.0
loop_
_geom_bond_atom_site_label_1
_geom_bond_atom_site_label_2
_geom_bond_distance
_geom_bond_site_symmetry_2
_ccdc_geom_bond_type
C0 C1 1.384 . S
C0 H13 0.947 . S
C0 C35 1.382 . S
C1 C0 1.384 . S
C1 C2 1.378 . S
C2 C1 1.378 . S
C2 C3 1.378 . S
C2 H14 0.952 . S
C3 C2 1.378 . S
C3 H15 0.950 . S
C3 C34 1.383 . S
H4 C23 0.947 . S
H5 C24 0.946 . S
H6 C26 0.953 . S
H7 C27 0.945 . S
H8 C29 0.952 . S
H9 C30 0.949 . S
H10 C32 0.950 . S
H11 C33 0.948 . S
H12 C35 0.951 . S
H13 C0 0.947 . S
H14 C2 0.952 . S
H15 C3 0.950 . S
N16 C19 1.382 . S
N16 C21 1.363 . S
N17 C19 1.371 . S
N17 C20 1.372 . S
N18 C20 1.361 . S
N18 C21 1.377 . S
C19 N16 1.382 . S
C19 N17 1.371 . S
C19 C22 1.480 . S
C20 N17 1.372 . S
C20 N18 1.361 . S
C20 C28 1.457 . S
C21 N16 1.363 . S
C21 N18 1.377 . S
C21 C34 1.479 . S
C22 C19 1.480 . S
C22 C23 1.383 . S
C22 C27 1.385 . S
C23 H4 0.947 . S
C23 C22 1.383 . S
C23 C24 1.388 . S
C24 H5 0.946 . S
C24 C23 1.388 . S
C24 C25 1.384 . S
C25 C24 1.384 . S
C25 C26 1.377 . S
C26 H6 0.953 . S
C26 C25 1.377 . S
C26 C27 1.369 . S
C27 H7 0.945 . S
C27 C22 1.385 . S
C27 C26 1.369 . S
C28 C20 1.457 . S
C28 C29 1.372 . S
C28 C33 1.364 . S
C29 H8 0.952 . S
C29 C28 1.372 . S
C29 C30 1.389 . S
C30 H9 0.949 . S
C30 C29 1.389 . S
C30 C31 1.387 . S
C31 C30 1.387 . S
C31 C32 1.372 . S
C32 H10 0.950 . S
C32 C31 1.372 . S
C32 C33 1.379 . S
C33 H11 0.948 . S
C33 C28 1.364 . S
C33 C32 1.379 . S
C34 C3 1.383 . S
C34 C21 1.479 . S
C34 C35 1.398 . S
C35 C0 1.382 . S
C35 H12 0.951 . S
C35 C34 1.398 . S
C36 C37 1.384 . S
C36 H49 0.940 1_655 S
C36 C71 1.382 . S
C37 C36 1.384 . S
C37 C38 1.378 . S
C38 C37 1.378 . S
C38 C39 1.378 . S
C38 H50 0.952 . S
C39 C38 1.378 . S
C39 H51 0.950 . S
C39 C70 1.383 . S
H40 C59 0.947 . S
H41 C60 0.946 . S
H42 C62 0.953 . S
H43 C63 0.945 . S
H44 C65 0.952 . S
H45 C66 0.949 . S
H46 C68 0.950 . S
H47 C69 0.948 . S
H48 C71 0.951 . S
H49 C36 0.940 1_455 S
H50 C38 0.952 . S
H51 C39 0.950 . S
N52 C55 1.382 . S
N52 C57 1.363 . S
N53 C55 1.371 . S
N53 C56 1.372 . S
N54 C56 1.361 . S
N54 C57 1.377 . S
C55 N52 1.382 . S
C55 N53 1.371 . S
C55 C58 1.480 . S
C56 N53 1.372 . S
C56 N54 1.361 . S
C56 C64 1.457 . S
C57 N52 1.363 . S
C57 N54 1.377 . S
C57 C70 1.479 . S
C58 C55 1.480 . S
C58 C59 1.383 . S
C58 C63 1.385 . S
C59 H40 0.947 . S
C59 C58 1.383 . S
C59 C60 1.388 . S
C60 H41 0.946 . S
C60 C59 1.388 . S
C60 C61 1.384 . S
C61 C60 1.384 . S
C61 C62 1.377 . S
C62 H42 0.953 . S
C62 C61 1.377 . S
C62 C63 1.369 . S
C63 H43 0.945 . S
C63 C58 1.385 . S
C63 C62 1.369 . S
C64 C56 1.457 . S
C64 C65 1.372 . S
C64 C69 1.364 . S
C65 H44 0.952 . S
C65 C64 1.372 . S
C65 C66 1.389 . S
C66 H45 0.949 . S
C66 C65 1.389 . S
C66 C67 1.387 . S
C67 C66 1.387 . S
C67 C68 1.372 . S
C68 H46 0.950 . S
C68 C67 1.372 . S
C68 C69 1.379 . S
C69 H47 0.948 . S
C69 C64 1.364 . S
C69 C68 1.379 . S
C70 C39 1.383 . S
C70 C57 1.479 . S
C70 C71 1.398 . S
C71 C36 1.382 . S
C71 H48 0.951 . S
C71 C70 1.398 . S
C72 C73 1.384 . S
C72 H85 0.947 . S
C72 C107 1.382 . S
C73 C72 1.384 . S
C73 C74 1.378 . S
C74 C73 1.378 . S
C74 C75 1.378 . S
C74 H86 0.952 . S
C75 C74 1.378 . S
C75 H87 0.950 . S
C75 C106 1.383 . S
H76 C95 0.947 . S
H77 C96 0.946 . S
H78 C98 0.953 1_455 S
H79 C99 0.945 . S
H80 C101 0.952 . S
H81 C102 0.949 . S
H82 C104 0.950 . S
H83 C105 0.948 . S
H84 C107 0.951 . S
H85 C72 0.947 . S
H86 C74 0.952 . S
H87 C75 0.950 . S
N88 C91 1.382 . S
N88 C93 1.363 . S
N89 C91 1.371 . S
N89 C92 1.372 . S
N90 C92 1.361 . S
N90 C93 1.377 . S
C91 N88 1.382 . S
C91 N89 1.371 . S
C91 C94 1.480 . S
C92 N89 1.372 . S
C92 N90 1.361 . S
C92 C100 1.457 . S
C93 N88 1.363 . S
C93 N90 1.377 . S
C93 C106 1.479 . S
C94 C91 1.480 . S
C94 C95 1.383 . S
C94 C99 1.385 . S
C95 H76 0.947 . S
C95 C94 1.383 . S
C95 C96 1.388 . S
C96 H77 0.946 . S
C96 C95 1.388 . S
C96 C97 1.384 . S
C97 C96 1.384 . S
C97 C98 1.377 . S
C98 H78 0.953 1_655 S
C98 C97 1.377 . S
C98 C99 1.369 . S
C99 H79 0.945 . S
C99 C94 1.385 . S
C99 C98 1.369 . S
C100 C92 1.457 . S
C100 C101 1.372 . S
C100 C105 1.364 . S
C101 H80 0.952 . S
C101 C100 1.372 . S
C101 C102 1.389 . S
C102 H81 0.949 . S
C102 C101 1.389 . S
C102 C103 1.387 . S
C103 C102 1.387 . S
C103 C104 1.372 . S
C104 H82 0.950 . S
C104 C103 1.372 . S
C104 C105 1.379 . S
C105 H83 0.948 . S
C105 C100 1.364 . S
C105 C104 1.379 . S
C106 C75 1.383 . S
C106 C93 1.479 . S
C106 C107 1.398 . S
C107 C72 1.382 . S
C107 H84 0.951 . S
C107 C106 1.398 . S
C108 C109 1.384 . S
C108 H121 0.947 1_455 S
C108 C143 1.382 . S
C109 C108 1.384 . S
C109 C110 1.378 . S
C110 C109 1.378 . S
C110 C111 1.378 . S
C110 H122 0.952 . S
C111 C110 1.378 . S
C111 H123 0.950 . S
C111 C142 1.383 . S
H112 C131 0.947 . S
H113 C132 0.946 . S
H114 C134 0.953 . S
H115 C135 0.945 . S
H116 C137 0.952 . S
H117 C138 0.949 . S
H118 C140 0.950 . S
H119 C141 0.948 . S
H120 C143 0.951 . S
H121 C108 0.947 1_655 S
H122 C110 0.952 . S
H123 C111 0.950 . S
N124 C127 1.382 . S
N124 C129 1.363 . S
N125 C127 1.371 . S
N125 C128 1.372 . S
N126 C128 1.361 . S
N126 C129 1.377 . S
C127 N124 1.382 . S
C127 N125 1.371 . S
C127 C130 1.480 . S
C128 N125 1.372 . S
C128 N126 1.361 . S
C128 C136 1.457 . S
C129 N124 1.363 . S
C129 N126 1.377 . S
C129 C142 1.479 . S
C130 C127 1.480 . S
C130 C131 1.383 . S
C130 C135 1.385 . S
C131 H112 0.947 . S
C131 C130 1.383 . S
C131 C132 1.388 . S
C132 H113 0.946 . S
C132 C131 1.388 . S
C132 C133 1.384 . S
C133 C132 1.384 . S
C133 C134 1.377 . S
C134 H114 0.953 . S
C134 C133 1.377 . S
C134 C135 1.369 . S
C135 H115 0.945 . S
C135 C130 1.385 . S
C135 C134 1.369 . S
C136 C128 1.457 . S
C136 C137 1.372 . S
C136 C141 1.364 . S
C137 H116 0.952 . S
C137 C136 1.372 . S
C137 C138 1.389 . S
C138 H117 0.949 . S
C138 C137 1.389 . S
C138 C139 1.387 . S
C139 C138 1.387 . S
C139 C140 1.372 . S
C140 H118 0.950 . S
C140 C139 1.372 . S
C140 C141 1.379 . S
C141 H119 0.948 . S
C141 C136 1.364 . S
C141 C140 1.379 . S
C142 C111 1.383 . S
C142 C129 1.479 . S
C142 C143 1.398 . S
C143 C108 1.382 . S
C143 H120 0.951 . S
C143 C142 1.398 . S
C144 C145 1.384 . S
C144 H157 0.947 . S
C144 C179 1.382 . S
C145 C144 1.384 . S
C145 C146 1.378 . S
C146 C145 1.378 . S
C146 C147 1.378 . S
C146 H158 0.952 . S
C147 C146 1.378 . S
C147 H159 0.950 . S
C147 C178 1.383 . S
H148 C167 0.947 . S
H149 C168 0.946 . S
H150 C170 0.953 . S
H151 C171 0.945 . S
H152 C173 0.952 . S
H153 C174 0.949 . S
H154 C176 0.950 . S
H155 C177 0.948 . S
H156 C179 0.951 . S
H157 C144 0.947 . S
H158 C146 0.952 . S
H159 C147 0.950 . S
N160 C163 1.382 . S
N160 C165 1.363 . S
N161 C163 1.371 . S
N161 C164 1.372 . S
N162 C164 1.361 . S
N162 C165 1.377 . S
C163 N160 1.382 . S
C163 N161 1.371 . S
C163 C166 1.480 . S
C164 N161 1.372 . S
C164 N162 1.361 . S
C164 C172 1.457 . S
C165 N160 1.363 . S
C165 N162 1.377 . S
C165 C178 1.479 . S
C166 C163 1.480 . S
C166 C167 1.383 . S
C166 C171 1.385 . S
C167 H148 0.947 . S
C167 C166 1.383 . S
C167 C168 1.388 . S
C168 H149 0.946 . S
C168 C167 1.388 . S
C168 C169 1.384 . S
C169 C168 1.384 . S
C169 C170 1.377 . S
C170 H150 0.953 . S
C170 C169 1.377 . S
C170 C171 1.369 . S
C171 H151 0.945 . S
C171 C166 1.385 . S
C171 C170 1.369 . S
C172 C164 1.457 . S
C172 C173 1.372 . S
C172 C177 1.364 . S
C173 H152 0.952 . S
C173 C172 1.372 . S
C173 C174 1.389 . S
C174 H153 0.949 . S
C174 C173 1.389 . S
C174 C175 1.387 . S
C175 C174 1.387 . S
C175 C176 1.372 . S
C176 H154 0.950 . S
C176 C175 1.372 . S
C176 C177 1.379 . S
C177 H155 0.948 . S
C177 C172 1.364 . S
C177 C176 1.379 . S
C178 C147 1.383 . S
C178 C165 1.479 . S
C178 C179 1.398 . S
C179 C144 1.382 . S
C179 H156 0.951 . S
C179 C178 1.398 . S
C180 C181 1.384 . S
C180 H193 0.947 . S
C180 C215 1.382 . S
C181 C180 1.384 . S
C181 C182 1.378 . S
C182 C181 1.378 . S
C182 C183 1.378 . S
C182 H194 0.952 . S
C183 C182 1.378 . S
C183 H195 0.950 . S
C183 C214 1.383 . S
H184 C203 0.947 . S
H185 C204 0.946 . S
H186 C206 0.953 . S
H187 C207 0.945 . S
H188 C209 0.952 . S
H189 C210 0.949 . S
H190 C212 0.950 . S
H191 C213 0.948 . S
H192 C215 0.951 . S
H193 C180 0.947 . S
H194 C182 0.952 . S
H195 C183 0.950 . S
N196 C199 1.382 . S
N196 C201 1.363 . S
N197 C199 1.371 . S
N197 C200 1.372 . S
N198 C200 1.361 . S
N198 C201 1.377 . S
C199 N196 1.382 . S
C199 N197 1.371 . S
C199 C202 1.480 . S
C200 N197 1.372 . S
C200 N198 1.361 . S
C200 C208 1.457 . S
C201 N196 1.363 . S
C201 N198 1.377 . S
C201 C214 1.479 . S
C202 C199 1.480 . S
C202 C203 1.383 . S
C202 C207 1.385 . S
C203 H184 0.947 . S
C203 C202 1.383 . S
C203 C204 1.388 . S
C204 H185 0.946 . S
C204 C203 1.388 . S
C204 C205 1.384 . S
C205 C204 1.384 . S
C205 C206 1.377 . S
C206 H186 0.953 . S
C206 C205 1.377 . S
C206 C207 1.369 . S
C207 H187 0.945 . S
C207 C202 1.385 . S
C207 C206 1.369 . S
C208 C200 1.457 . S
C208 C209 1.372 . S
C208 C213 1.364 . S
C209 H188 0.952 . S
C209 C208 1.372 . S
C209 C210 1.389 . S
C210 H189 0.949 . S
C210 C209 1.389 . S
C210 C211 1.387 . S
C211 C210 1.387 . S
C211 C212 1.372 . S
C212 H190 0.950 . S
C212 C211 1.372 . S
C212 C213 1.379 . S
C213 H191 0.948 . S
C213 C208 1.364 . S
C213 C212 1.379 . S
C214 C183 1.383 . S
C214 C201 1.479 . S
C214 C215 1.398 . S
C215 C180 1.382 . S
C215 H192 0.951 . S
C215 C214 1.398 . S
C216 C217 1.384 . S
C216 H229 0.947 . S
C216 C251 1.382 . S
C217 C216 1.384 . S
C217 C218 1.378 . S
C218 C217 1.378 . S
C218 C219 1.378 . S
C218 H230 0.952 . S
C219 C218 1.378 . S
C219 H231 0.950 . S
C219 C250 1.383 . S
H220 C239 0.947 . S
H221 C240 0.946 . S
H222 C242 0.953 . S
H223 C243 0.945 . S
H224 C245 0.952 . S
H225 C246 0.949 . S
H226 C248 0.950 . S
H227 C249 0.948 . S
H228 C251 0.951 . S
H229 C216 0.947 . S
H230 C218 0.952 . S
H231 C219 0.950 . S
N232 C235 1.382 . S
N232 C237 1.363 . S
N233 C235 1.371 . S
N233 C236 1.372 . S
N234 C236 1.361 . S
N234 C237 1.377 . S
C235 N232 1.382 . S
C235 N233 1.371 . S
C235 C238 1.480 . S
C236 N233 1.372 . S
C236 N234 1.361 . S
C236 C244 1.457 . S
C237 N232 1.363 . S
C237 N234 1.377 . S
C237 C250 1.479 . S
C238 C235 1.480 . S
C238 C239 1.383 . S
C238 C243 1.385 . S
C239 H220 0.947 . S
C239 C238 1.383 . S
C239 C240 1.388 . S
C240 H221 0.946 . S
C240 C239 1.388 . S
C240 C241 1.384 . S
C241 C240 1.384 . S
C241 C242 1.377 . S
C242 H222 0.953 . S
C242 C241 1.377 . S
C242 C243 1.369 . S
C243 H223 0.945 . S
C243 C238 1.385 . S
C243 C242 1.369 . S
C244 C236 1.457 . S
C244 C245 1.372 . S
C244 C249 1.364 . S
C245 H224 0.952 . S
C245 C244 1.372 . S
C245 C246 1.389 . S
C246 H225 0.949 . S
C246 C245 1.389 . S
C246 C247 1.387 . S
C247 C246 1.387 . S
C247 C248 1.372 . S
C248 H226 0.950 . S
C248 C247 1.372 . S
C248 C249 1.379 . S
C249 H227 0.948 . S
C249 C244 1.364 . S
C249 C248 1.379 . S
C250 C219 1.383 . S
C250 C237 1.479 . S
C250 C251 1.398 . S
C251 C216 1.382 . S
C251 H228 0.951 . S
C251 C250 1.398 . S
C252 C253 1.384 . S
C252 H265 0.947 . S
C252 C287 1.382 . S
C253 C252 1.384 . S
C253 C254 1.378 . S
C254 C253 1.378 . S
C254 C255 1.378 . S
C254 H266 0.952 . S
C255 C254 1.378 . S
C255 H267 0.950 . S
C255 C286 1.383 . S
H256 C275 0.947 . S
H257 C276 0.946 . S
H258 C278 0.953 . S
H259 C279 0.945 . S
H260 C281 0.952 . S
H261 C282 0.949 . S
H262 C284 0.950 . S
H263 C285 0.948 . S
H264 C287 0.951 . S
H265 C252 0.947 . S
H266 C254 0.952 . S
H267 C255 0.950 . S
N268 C271 1.382 . S
N268 C273 1.363 . S
N269 C271 1.371 . S
N269 C272 1.372 . S
N270 C272 1.361 . S
N270 C273 1.377 . S
C271 N268 1.382 . S
C271 N269 1.371 . S
C271 C274 1.480 . S
C272 N269 1.372 . S
C272 N270 1.361 . S
C272 C280 1.457 . S
C273 N268 1.363 . S
C273 N270 1.377 . S
C273 C286 1.479 . S
C274 C271 1.480 . S
C274 C275 1.383 . S
C274 C279 1.385 . S
C275 H256 0.947 . S
C275 C274 1.383 . S
C275 C276 1.388 . S
C276 H257 0.946 . S
C276 C275 1.388 . S
C276 C277 1.384 . S
C277 C276 1.384 . S
C277 C278 1.377 . S
C278 H258 0.953 . S
C278 C277 1.377 . S
C278 C279 1.369 . S
C279 H259 0.945 . S
C279 C274 1.385 . S
C279 C278 1.369 . S
C280 C272 1.457 . S
C280 C281 1.372 . S
C280 C285 1.364 . S
C281 H260 0.952 . S
C281 C280 1.372 . S
C281 C282 1.389 . S
C282 H261 0.949 . S
C282 C281 1.389 . S
C282 C283 1.387 . S
C283 C282 1.387 . S
C283 C284 1.372 . S
C284 H262 0.950 . S
C284 C283 1.372 . S
C284 C285 1.379 . S
C285 H263 0.948 . S
C285 C280 1.364 . S
C285 C284 1.379 . S
C286 C255 1.383 . S
C286 C273 1.479 . S
C286 C287 1.398 . S
C287 C252 1.382 . S
C287 H264 0.951 . S
C287 C286 1.398 . S
C288 C289 1.384 . S
C288 H301 0.947 . S
C288 C323 1.382 . S
C289 C288 1.384 . S
C289 C290 1.378 . S
C290 C289 1.378 . S
C290 C291 1.378 . S
C290 H302 0.952 . S
C291 C290 1.378 . S
C291 H303 0.950 . S
C291 C322 1.383 . S
H292 C311 0.947 . S
H293 C312 0.946 . S
H294 C314 0.953 . S
H295 C315 0.945 . S
H296 C317 0.952 . S
H297 C318 0.949 . S
H298 C320 0.950 . S
H299 C321 0.948 . S
H300 C323 0.951 . S
H301 C288 0.947 . S
H302 C290 0.952 . S
H303 C291 0.950 . S
N304 C307 1.382 . S
N304 C309 1.363 . S
N305 C307 1.371 . S
N305 C308 1.372 . S
N306 C308 1.361 . S
N306 C309 1.377 . S
C307 N304 1.382 . S
C307 N305 1.371 . S
C307 C310 1.480 . S
C308 N305 1.372 . S
C308 N306 1.361 . S
C308 C316 1.457 . S
C309 N304 1.363 . S
C309 N306 1.377 . S
C309 C322 1.479 . S
C310 C307 1.480 . S
C310 C311 1.383 . S
C310 C315 1.385 . S
C311 H292 0.947 . S
C311 C310 1.383 . S
C311 C312 1.388 . S
C312 H293 0.946 . S
C312 C311 1.388 . S
C312 C313 1.384 . S
C313 C312 1.384 . S
C313 C314 1.377 . S
C314 H294 0.953 . S
C314 C313 1.377 . S
C314 C315 1.369 . S
C315 H295 0.945 . S
C315 C310 1.385 . S
C315 C314 1.369 . S
C316 C308 1.457 . S
C316 C317 1.372 . S
C316 C321 1.364 . S
C317 H296 0.952 . S
C317 C316 1.372 . S
C317 C318 1.389 . S
C318 H297 0.949 . S
C318 C317 1.389 . S
C318 C319 1.387 . S
C319 C318 1.387 . S
C319 C320 1.372 . S
C320 H298 0.950 . S
C320 C319 1.372 . S
C320 C321 1.379 . S
C321 H299 0.948 . S
C321 C316 1.364 . S
C321 C320 1.379 . S
C322 C291 1.383 . S
C322 C309 1.479 . S
C322 C323 1.398 . S
C323 C288 1.382 . S
C323 H300 0.951 . S
C323 C322 1.398 . S
C324 C325 1.384 . S
C324 H337 0.947 . S
C324 C359 1.382 . S
C325 C324 1.384 . S
C325 C326 1.378 . S
C326 C325 1.378 . S
C326 C327 1.378 . S
C326 H338 0.952 . S
C327 C326 1.378 . S
C327 H339 0.950 . S
C327 C358 1.383 . S
H328 C347 0.947 . S
H329 C348 0.946 . S
H330 C350 0.953 . S
H331 C351 0.945 . S
H332 C353 0.952 . S
H333 C354 0.949 . S
H334 C356 0.950 . S
H335 C357 0.948 . S
H336 C359 0.951 . S
H337 C324 0.947 . S
H338 C326 0.952 . S
H339 C327 0.950 . S
N340 C343 1.382 . S
N340 C345 1.363 . S
N341 C343 1.371 . S
N341 C344 1.372 . S
N342 C344 1.361 . S
N342 C345 1.377 . S
C343 N340 1.382 . S
C343 N341 1.371 . S
C343 C346 1.480 . S
C344 N341 1.372 . S
C344 N342 1.361 . S
C344 C352 1.457 . S
C345 N340 1.363 . S
C345 N342 1.377 . S
C345 C358 1.479 . S
C346 C343 1.480 . S
C346 C347 1.383 . S
C346 C351 1.385 . S
C347 H328 0.947 . S
C347 C346 1.383 . S
C347 C348 1.388 . S
C348 H329 0.946 . S
C348 C347 1.388 . S
C348 C349 1.384 . S
C349 C348 1.384 . S
C349 C350 1.377 . S
C350 H330 0.953 . S
C350 C349 1.377 . S
C350 C351 1.369 . S
C351 H331 0.945 . S
C351 C346 1.385 . S
C351 C350 1.369 . S
C352 C344 1.457 . S
C352 C353 1.372 . S
C352 C357 1.364 . S
C353 H332 0.952 . S
C353 C352 1.372 . S
C353 C354 1.389 . S
C354 H333 0.949 . S
C354 C353 1.389 . S
C354 C355 1.387 . S
C355 C354 1.387 . S
C355 C356 1.372 . S
C356 H334 0.950 . S
C356 C355 1.372 . S
C356 C357 1.379 . S
C357 H335 0.948 . S
C357 C352 1.364 . S
C357 C356 1.379 . S
C358 C327 1.383 . S
C358 C345 1.479 . S
C358 C359 1.398 . S
C359 C324 1.382 . S
C359 H336 0.951 . S
C359 C358 1.398 . S
C360 C361 1.384 . S
C360 H373 0.947 . S
C360 C395 1.382 . S
C361 C360 1.384 . S
C361 C362 1.378 . S
C362 C361 1.378 . S
C362 C363 1.378 . S
C362 H374 0.952 . S
C363 C362 1.378 . S
C363 H375 0.950 . S
C363 C394 1.383 . S
H364 C383 0.947 . S
H365 C384 0.946 . S
H366 C386 0.953 . S
H367 C387 0.945 . S
H368 C389 0.952 . S
H369 C390 0.949 . S
H370 C392 0.950 . S
H371 C393 0.948 . S
H372 C395 0.951 . S
H373 C360 0.947 . S
H374 C362 0.952 . S
H375 C363 0.950 . S
N376 C379 1.382 . S
N376 C381 1.363 . S
N377 C379 1.371 . S
N377 C380 1.372 . S
N378 C380 1.361 . S
N378 C381 1.377 . S
C379 N376 1.382 . S
C379 N377 1.371 . S
C379 C382 1.480 . S
C380 N377 1.372 . S
C380 N378 1.361 . S
C380 C388 1.457 . S
C381 N376 1.363 . S
C381 N378 1.377 . S
C381 C394 1.479 . S
C382 C379 1.480 . S
C382 C383 1.383 . S
C382 C387 1.385 . S
C383 H364 0.947 . S
C383 C382 1.383 . S
C383 C384 1.388 . S
C384 H365 0.946 . S
C384 C383 1.388 . S
C384 C385 1.384 . S
C385 C384 1.384 . S
C385 C386 1.377 . S
C386 H366 0.953 . S
C386 C385 1.377 . S
C386 C387 1.369 . S
C387 H367 0.945 . S
C387 C382 1.385 . S
C387 C386 1.369 . S
C388 C380 1.457 . S
C388 C389 1.372 . S
C388 C393 1.364 . S
C389 H368 0.952 . S
C389 C388 1.372 . S
C389 C390 1.389 . S
C390 H369 0.949 . S
C390 C389 1.389 . S
C390 C391 1.387 . S
C391 C390 1.387 . S
C391 C392 1.372 . S
C392 H370 0.950 . S
C392 C391 1.372 . S
C392 C393 1.379 . S
C393 H371 0.948 . S
C393 C388 1.364 . S
C393 C392 1.379 . S
C394 C363 1.383 . S
C394 C381 1.479 . S
C394 C395 1.398 . S
C395 C360 1.382 . S
C395 H372 0.951 . S
C395 C394 1.398 . S
C396 C397 1.384 . S
C396 H409 0.947 . S
C396 C431 1.382 . S
C397 C396 1.384 . S
C397 C398 1.378 . S
C398 C397 1.378 . S
C398 C399 1.378 . S
C398 H410 0.952 . S
C399 C398 1.378 . S
C399 H411 0.950 . S
C399 C430 1.383 . S
H400 C419 0.947 . S
H401 C420 0.946 . S
H402 C422 0.953 . S
H403 C423 0.945 . S
H404 C425 0.952 . S
H405 C426 0.949 . S
H406 C428 0.950 . S
H407 C429 0.948 . S
H408 C431 0.951 . S
H409 C396 0.947 . S
H410 C398 0.952 . S
H411 C399 0.950 . S
N412 C415 1.382 . S
N412 C417 1.363 . S
N413 C415 1.371 . S
N413 C416 1.372 . S
N414 C416 1.361 . S
N414 C417 1.377 . S
C415 N412 1.382 . S
C415 N413 1.371 . S
C415 C418 1.480 . S
C416 N413 1.372 . S
C416 N414 1.361 . S
C416 C424 1.457 . S
C417 N412 1.363 . S
C417 N414 1.377 . S
C417 C430 1.479 . S
C418 C415 1.480 . S
C418 C419 1.383 . S
C418 C423 1.385 . S
C419 H400 0.947 . S
C419 C418 1.383 . S
C419 C420 1.388 . S
C420 H401 0.946 . S
C420 C419 1.388 . S
C420 C421 1.384 . S
C421 C420 1.384 . S
C421 C422 1.377 . S
C422 H402 0.953 . S
C422 C421 1.377 . S
C422 C423 1.369 . S
C423 H403 0.945 . S
C423 C418 1.385 . S
C423 C422 1.369 . S
C424 C416 1.457 . S
C424 C425 1.372 . S
C424 C429 1.364 . S
C425 H404 0.952 . S
C425 C424 1.372 . S
C425 C426 1.389 . S
C426 H405 0.949 . S
C426 C425 1.389 . S
C426 C427 1.387 . S
C427 C426 1.387 . S
C427 C428 1.372 . S
C428 H406 0.950 . S
C428 C427 1.372 . S
C428 C429 1.379 . S
C429 H407 0.948 . S
C429 C424 1.364 . S
C429 C428 1.379 . S
C430 C399 1.383 . S
C430 C417 1.479 . S
C430 C431 1.398 . S
C431 C396 1.382 . S
C431 H408 0.951 . S
C431 C430 1.398 . S
C432 C433 1.384 . S
C432 H445 0.947 . S
C432 C467 1.382 . S
C433 C432 1.384 . S
C433 C434 1.378 . S
C434 C433 1.378 . S
C434 C435 1.378 . S
C434 H446 0.952 . S
C435 C434 1.378 . S
C435 H447 0.950 . S
C435 C466 1.383 . S
H436 C455 0.947 . S
H437 C456 0.946 . S
H438 C458 0.953 . S
H439 C459 0.945 . S
H440 C461 0.952 . S
H441 C462 0.949 . S
H442 C464 0.950 . S
H443 C465 0.948 . S
H444 C467 0.951 . S
H445 C432 0.947 . S
H446 C434 0.952 . S
H447 C435 0.950 . S
N448 C451 1.382 . S
N448 C453 1.363 . S
N449 C451 1.371 . S
N449 C452 1.372 . S
N450 C452 1.361 . S
N450 C453 1.377 . S
C451 N448 1.382 . S
C451 N449 1.371 . S
C451 C454 1.480 . S
C452 N449 1.372 . S
C452 N450 1.361 . S
C452 C460 1.457 . S
C453 N448 1.363 . S
C453 N450 1.377 . S
C453 C466 1.479 . S
C454 C451 1.480 . S
C454 C455 1.383 . S
C454 C459 1.385 . S
C455 H436 0.947 . S
C455 C454 1.383 . S
C455 C456 1.388 . S
C456 H437 0.946 . S
C456 C455 1.388 . S
C456 C457 1.384 . S
C457 C456 1.384 . S
C457 C458 1.377 . S
C458 H438 0.953 . S
C458 C457 1.377 . S
C458 C459 1.369 . S
C459 H439 0.945 . S
C459 C454 1.385 . S
C459 C458 1.369 . S
C460 C452 1.457 . S
C460 C461 1.372 . S
C460 C465 1.364 . S
C461 H440 0.952 . S
C461 C460 1.372 . S
C461 C462 1.389 . S
C462 H441 0.949 . S
C462 C461 1.389 . S
C462 C463 1.387 . S
C463 C462 1.387 . S
C463 C464 1.372 . S
C464 H442 0.950 . S
C464 C463 1.372 . S
C464 C465 1.379 . S
C465 H443 0.948 . S
C465 C460 1.364 . S
C465 C464 1.379 . S
C466 C435 1.383 . S
C466 C453 1.479 . S
C466 C467 1.398 . S
C467 C432 1.382 . S
C467 H444 0.951 . S
C467 C466 1.398 . S
C468 C469 1.384 . S
C468 H481 0.947 . S
C468 C503 1.382 . S
C469 C468 1.384 . S
C469 C470 1.378 . S
C470 C469 1.378 . S
C470 C471 1.378 . S
C470 H482 0.952 . S
C471 C470 1.378 . S
C471 H483 0.950 . S
C471 C502 1.383 . S
H472 C491 0.947 . S
H473 C492 0.946 . S
H474 C494 0.953 . S
H475 C495 0.945 . S
H476 C497 0.952 . S
H477 C498 0.949 . S
H478 C500 0.950 . S
H479 C501 0.948 . S
H480 C503 0.951 . S
H481 C468 0.947 . S
H482 C470 0.952 . S
H483 C471 0.950 . S
N484 C487 1.382 . S
N484 C489 1.363 . S
N485 C487 1.371 . S
N485 C488 1.372 . S
N486 C488 1.361 . S
N486 C489 1.377 . S
C487 N484 1.382 . S
C487 N485 1.371 . S
C487 C490 1.480 . S
C488 N485 1.372 . S
C488 N486 1.361 . S
C488 C496 1.457 . S
C489 N484 1.363 . S
C489 N486 1.377 . S
C489 C502 1.479 . S
C490 C487 1.480 . S
C490 C491 1.383 . S
C490 C495 1.385 . S
C491 H472 0.947 . S
C491 C490 1.383 . S
C491 C492 1.388 . S
C492 H473 0.946 . S
C492 C491 1.388 . S
C492 C493 1.384 . S
C493 C492 1.384 . S
C493 C494 1.377 . S
C494 H474 0.953 . S
C494 C493 1.377 . S
C494 C495 1.369 . S
C495 H475 0.945 . S
C495 C490 1.385 . S
C495 C494 1.369 . S
C496 C488 1.457 . S
C496 C497 1.372 . S
C496 C501 1.364 . S
C497 H476 0.952 . S
C497 C496 1.372 . S
C497 C498 1.389 . S
C498 H477 0.949 . S
C498 C497 1.389 . S
C498 C499 1.387 . S
C499 C498 1.387 . S
C499 C500 1.372 . S
C500 H478 0.950 . S
C500 C499 1.372 . S
C500 C501 1.379 . S
C501 H479 0.948 . S
C501 C496 1.364 . S
C501 C500 1.379 . S
C502 C471 1.383 . S
C502 C489 1.479 . S
C502 C503 1.398 . S
C503 C468 1.382 . S
C503 H480 0.951 . S
C503 C502 1.398 . S
C504 C505 1.384 . S
C504 H517 0.947 . S
C504 C539 1.382 . S
C505 C504 1.384 . S
C505 C506 1.378 . S
C506 C505 1.378 . S
C506 C507 1.378 . S
C506 H518 0.952 . S
C507 C506 1.378 . S
C507 H519 0.950 . S
C507 C538 1.383 . S
H508 C527 0.947 . S
H509 C528 0.946 . S
H510 C530 0.953 . S
H511 C531 0.945 . S
H512 C533 0.952 . S
H513 C534 0.949 . S
H514 C536 0.950 . S
H515 C537 0.948 . S
H516 C539 0.951 . S
H517 C504 0.947 . S
H518 C506 0.952 . S
H519 C507 0.950 . S
N520 C523 1.382 . S
N520 C525 1.363 . S
N521 C523 1.371 . S
N521 C524 1.372 . S
N522 C524 1.361 . S
N522 C525 1.377 . S
C523 N520 1.382 . S
C523 N521 1.371 . S
C523 C526 1.480 . S
C524 N521 1.372 . S
C524 N522 1.361 . S
C524 C532 1.457 . S
C525 N520 1.363 . S
C525 N522 1.377 . S
C525 C538 1.479 . S
C526 C523 1.480 . S
C526 C527 1.383 . S
C526 C531 1.385 . S
C527 H508 0.947 . S
C527 C526 1.383 . S
C527 C528 1.388 . S
C528 H509 0.946 . S
C528 C527 1.388 . S
C528 C529 1.384 . S
C529 C528 1.384 . S
C529 C530 1.377 . S
C530 H510 0.953 . S
C530 C529 1.377 . S
C530 C531 1.369 . S
C531 H511 0.945 . S
C531 C526 1.385 . S
C531 C530 1.369 . S
C532 C524 1.457 . S
C532 C533 1.372 . S
C532 C537 1.364 . S
C533 H512 0.952 . S
C533 C532 1.372 . S
C533 C534 1.389 . S
C534 H513 0.949 . S
C534 C533 1.389 . S
C534 C535 1.387 . S
C535 C534 1.387 . S
C535 C536 1.372 . S
C536 H514 0.950 . S
C536 C535 1.372 . S
C536 C537 1.379 . S
C537 H515 0.948 . S
C537 C532 1.364 . S
C537 C536 1.379 . S
C538 C507 1.383 . S
C538 C525 1.479 . S
C538 C539 1.398 . S
C539 C504 1.382 . S
C539 H516 0.951 . S
C539 C538 1.398 . S
C540 C541 1.384 . S
C540 H553 0.947 . S
C540 C575 1.382 . S
C541 C540 1.384 . S
C541 C542 1.378 . S
C542 C541 1.378 . S
C542 C543 1.378 . S
C542 H554 0.952 . S
C543 C542 1.378 . S
C543 H555 0.950 . S
C543 C574 1.383 . S
H544 C563 0.947 . S
H545 C564 0.946 . S
H546 C566 0.953 . S
H547 C567 0.945 . S
H548 C569 0.952 . S
H549 C570 0.949 . S
H550 C572 0.950 . S
H551 C573 0.948 . S
H552 C575 0.951 . S
H553 C540 0.947 . S
H554 C542 0.952 . S
H555 C543 0.950 . S
N556 C559 1.382 . S
N556 C561 1.363 . S
N557 C559 1.371 . S
N557 C560 1.372 . S
N558 C560 1.361 . S
N558 C561 1.377 . S
C559 N556 1.382 . S
C559 N557 1.371 . S
C559 C562 1.480 . S
C560 N557 1.372 . S
C560 N558 1.361 . S
C560 C568 1.457 . S
C561 N556 1.363 . S
C561 N558 1.377 . S
C561 C574 1.479 . S
C562 C559 1.480 . S
C562 C563 1.383 . S
C562 C567 1.385 . S
C563 H544 0.947 . S
C563 C562 1.383 . S
C563 C564 1.388 . S
C564 H545 0.946 . S
C564 C563 1.388 . S
C564 C565 1.384 . S
C565 C564 1.384 . S
C565 C566 1.377 . S
C566 H546 0.953 . S
C566 C565 1.377 . S
C566 C567 1.369 . S
C567 H547 0.945 . S
C567 C562 1.385 . S
C567 C566 1.369 . S
C568 C560 1.457 . S
C568 C569 1.372 . S
C568 C573 1.364 . S
C569 H548 0.952 . S
C569 C568 1.372 . S
C569 C570 1.389 . S
C570 H549 0.949 . S
C570 C569 1.389 . S
C570 C571 1.387 . S
C571 C570 1.387 . S
C571 C572 1.372 . S
C572 H550 0.950 . S
C572 C571 1.372 . S
C572 C573 1.379 . S
C573 H551 0.948 . S
C573 C568 1.364 . S
C573 C572 1.379 . S
C574 C543 1.383 . S
C574 C561 1.479 . S
C574 C575 1.398 . S
C575 C540 1.382 . S
C575 H552 0.951 . S
C575 C574 1.398 . S
C576 C577 1.384 . S
C576 H589 0.947 . S
C576 C611 1.382 . S
C577 C576 1.384 . S
C577 C578 1.378 . S
C578 C577 1.378 . S
C578 C579 1.378 . S
C578 H590 0.952 . S
C579 C578 1.378 . S
C579 H591 0.950 . S
C579 C610 1.383 . S
H580 C599 0.947 . S
H581 C600 0.946 . S
H582 C602 0.953 . S
H583 C603 0.945 . S
H584 C605 0.952 . S
H585 C606 0.949 . S
H586 C608 0.950 . S
H587 C609 0.948 . S
H588 C611 0.951 . S
H589 C576 0.947 . S
H590 C578 0.952 . S
H591 C579 0.950 . S
N592 C595 1.382 . S
N592 C597 1.363 . S
N593 C595 1.371 . S
N593 C596 1.372 . S
N594 C596 1.361 . S
N594 C597 1.377 . S
C595 N592 1.382 . S
C595 N593 1.371 . S
C595 C598 1.480 . S
C596 N593 1.372 . S
C596 N594 1.361 . S
C596 C604 1.457 . S
C597 N592 1.363 . S
C597 N594 1.377 . S
C597 C610 1.479 . S
C598 C595 1.480 . S
C598 C599 1.383 . S
C598 C603 1.385 . S
C599 H580 0.947 . S
C599 C598 1.383 . S
C599 C600 1.388 . S
C600 H581 0.946 . S
C600 C599 1.388 . S
C600 C601 1.384 . S
C601 C600 1.384 . S
C601 C602 1.377 . S
C602 H582 0.953 . S
C602 C601 1.377 . S
C602 C603 1.369 . S
C603 H583 0.945 . S
C603 C598 1.385 . S
C603 C602 1.369 . S
C604 C596 1.457 . S
C604 C605 1.372 . S
C604 C609 1.364 . S
C605 H584 0.952 . S
C605 C604 1.372 . S
C605 C606 1.389 . S
C606 H585 0.949 . S
C606 C605 1.389 . S
C606 C607 1.387 . S
C607 C606 1.387 . S
C607 C608 1.372 . S
C608 H586 0.950 . S
C608 C607 1.372 . S
C608 C609 1.379 . S
C609 H587 0.948 . S
C609 C604 1.364 . S
C609 C608 1.379 . S
C610 C579 1.383 . S
C610 C597 1.479 . S
C610 C611 1.398 . S
C611 C576 1.382 . S
C611 H588 0.951 . S
C611 C610 1.398 . S
C612 C613 1.384 . S
C612 H625 0.947 . S
C612 C647 1.382 . S
C613 C612 1.384 . S
C613 C614 1.378 . S
C614 C613 1.378 . S
C614 C615 1.378 . S
C614 H626 0.952 . S
C615 C614 1.378 . S
C615 H627 0.950 . S
C615 C646 1.383 . S
H616 C635 0.947 . S
H617 C636 0.946 . S
H618 C638 0.953 . S
H619 C639 0.945 . S
H620 C641 0.952 . S
H621 C642 0.949 . S
H622 C644 0.950 . S
H623 C645 0.948 . S
H624 C647 0.951 . S
H625 C612 0.947 . S
H626 C614 0.952 . S
H627 C615 0.950 . S
N628 C631 1.382 . S
N628 C633 1.363 . S
N629 C631 1.371 . S
N629 C632 1.372 . S
N630 C632 1.361 . S
N630 C633 1.377 . S
C631 N628 1.382 . S
C631 N629 1.371 . S
C631 C634 1.480 . S
C632 N629 1.372 . S
C632 N630 1.361 . S
C632 C640 1.457 . S
C633 N628 1.363 . S
C633 N630 1.377 . S
C633 C646 1.479 . S
C634 C631 1.480 . S
C634 C635 1.383 . S
C634 C639 1.385 . S
C635 H616 0.947 . S
C635 C634 1.383 . S
C635 C636 1.388 . S
C636 H617 0.946 . S
C636 C635 1.388 . S
C636 C637 1.384 . S
C637 C636 1.384 . S
C637 C638 1.377 . S
C638 H618 0.953 . S
C638 C637 1.377 . S
C638 C639 1.369 . S
C639 H619 0.945 . S
C639 C634 1.385 . S
C639 C638 1.369 . S
C640 C632 1.457 . S
C640 C641 1.372 . S
C640 C645 1.364 . S
C641 H620 0.952 . S
C641 C640 1.372 . S
C641 C642 1.389 . S
C642 H621 0.949 . S
C642 C641 1.389 . S
C642 C643 1.387 . S
C643 C642 1.387 . S
C643 C644 1.372 . S
C644 H622 0.950 . S
C644 C643 1.372 . S
C644 C645 1.379 . S
C645 H623 0.948 . S
C645 C640 1.364 . S
C645 C644 1.379 . S
C646 C615 1.383 . S
C646 C633 1.479 . S
C646 C647 1.398 . S
C647 C612 1.382 . S
C647 H624 0.951 . S
C647 C646 1.398 . S
Gd648 N679 2.661 . S
Gd648 N685 2.601 . S
Gd648 O692 2.545 . S
Gd648 O693 2.606 1_545 S
Gd648 O695 2.429 . S
Gd648 O696 2.545 1_545 S
Gd648 O697 2.412 . S
Gd648 O699 2.362 1_554 S
Gd648 O700 2.324 1_545 S
Gd648 C707 2.828 . S
Gd649 N658 2.661 . S
Gd649 N662 2.601 . S
Gd649 O693 2.362 1_556 S
Gd649 O694 2.324 1_565 S
Gd649 O698 2.545 . S
Gd649 O699 2.606 1_565 S
Gd649 O701 2.429 . S
Gd649 O702 2.545 1_565 S
Gd649 O703 2.412 . S
Gd649 C716 2.828 . S
C650 C653 1.417 . S
C650 C655 1.431 . S
C650 C656 1.412 . S
C651 C654 1.437 . S
C651 C655 1.317 . S
C651 H670 0.929 . S
C652 C653 1.426 . S
C652 C654 1.413 . S
C652 N662 1.359 . S
C653 C650 1.417 . S
C653 C652 1.426 . S
C653 N658 1.350 . S
C654 C651 1.437 . S
C654 C652 1.413 . S
C654 C664 1.391 . S
C655 C650 1.431 . S
C655 C651 1.317 . S
C655 H666 0.930 . S
C656 C650 1.412 . S
C656 C657 1.355 . S
C656 H668 0.930 . S
C657 C656 1.355 . S
C657 C659 1.402 . S
C657 H669 0.930 . S
N658 Gd649 2.661 . S
N658 C653 1.350 . S
N658 C659 1.307 . S
C659 C657 1.402 . S
C659 N658 1.307 . S
C659 H660 0.930 . S
H660 C659 0.930 . S
C661 N662 1.334 . S
C661 C663 1.394 . S
C661 H665 0.930 . S
N662 Gd649 2.601 . S
N662 C652 1.359 . S
N662 C661 1.334 . S
C663 C661 1.394 . S
C663 C664 1.359 . S
C663 H675 0.930 . S
C664 C654 1.391 . S
C664 C663 1.359 . S
C664 H676 0.929 . S
H665 C661 0.930 . S
H666 C655 0.930 . S
H667 C684 0.930 . S
H668 C656 0.930 . S
H669 C657 0.930 . S
H670 C651 0.929 . S
H671 C689 0.930 . S
H672 C680 0.930 . S
H673 C681 0.930 . S
H674 C705 0.929 . S
H675 C663 0.930 . S
H676 C664 0.929 . S
H677 C706 0.930 . S
H678 C687 0.930 . S
N679 Gd648 2.661 . S
N679 C683 1.350 . S
N679 C684 1.307 . S
C680 H672 0.930 . S
C680 C681 1.355 . S
C680 C682 1.412 . S
C681 H673 0.930 . S
C681 C680 1.355 . S
C681 C684 1.402 . S
C682 C680 1.412 . S
C682 C683 1.417 . S
C682 C706 1.431 . S
C683 N679 1.350 . S
C683 C682 1.417 . S
C683 C686 1.426 . S
C684 H667 0.930 . S
C684 N679 1.307 . S
C684 C681 1.402 . S
N685 Gd648 2.601 . S
N685 C686 1.359 . S
N685 C689 1.334 . S
C686 C683 1.426 . S
C686 N685 1.359 . S
C686 C690 1.413 . S
C687 H678 0.930 . S
C687 C688 1.359 . S
C687 C689 1.394 . S
C688 C687 1.359 . S
C688 C690 1.391 . S
C688 H691 0.929 . S
C689 H671 0.930 . S
C689 N685 1.334 . S
C689 C687 1.394 . S
C690 C686 1.413 . S
C690 C688 1.391 . S
C690 C705 1.437 . S
H691 C688 0.929 . S
O692 Gd648 2.545 . S
O692 C707 1.258 . S
O693 Gd648 2.606 1_565 S
O693 Gd649 2.362 1_554 S
O693 C704 1.284 . S
O694 Gd649 2.324 1_545 S
O694 C714 1.254 . S
O695 Gd648 2.429 . S
O695 C714 1.268 1_554 S
O696 Gd648 2.545 1_565 S
O696 C704 1.250 . S
O697 Gd648 2.412 . S
O697 C707 1.252 . S
O698 Gd649 2.545 . S
O698 C716 1.258 . S
O699 Gd648 2.362 1_556 S
O699 Gd649 2.606 1_545 S
O699 C715 1.284 . S
O700 Gd648 2.324 1_565 S
O700 C723 1.254 . S
O701 Gd649 2.429 . S
O701 C723 1.268 1_556 S
O702 Gd649 2.545 1_545 S
O702 C715 1.250 . S
O703 Gd649 2.412 . S
O703 C716 1.252 . S
C704 O693 1.284 . S
C704 O696 1.250 . S
C705 H674 0.929 . S
C705 C690 1.437 . S
C705 C706 1.317 . S
C706 H677 0.930 . S
C706 C682 1.431 . S
C706 C705 1.317 . S
C707 Gd648 2.828 . S
C707 O692 1.258 . S
C707 O697 1.252 . S
C707 C708 1.497 . S
C708 C707 1.497 . S
C708 C709 1.395 . S
C708 C710 1.380 1_545 S
C709 C708 1.395 . S
C709 C712 1.398 . S
C709 H724 0.930 . S
C710 C708 1.380 1_565 S
C710 C711 1.391 . S
C710 H725 0.930 . S
C711 C710 1.391 . S
C711 C713 1.387 1_565 S
C712 C709 1.398 . S
C712 C713 1.380 . S
C712 H726 0.930 . S
C713 C711 1.387 1_545 S
C713 C712 1.380 . S
C713 H727 0.930 . S
C714 O694 1.254 . S
C714 O695 1.268 1_556 S
C715 O699 1.284 . S
C715 O702 1.250 . S
C716 Gd649 2.828 . S
C716 O698 1.258 . S
C716 O703 1.252 . S
C716 C717 1.497 . S
C717 C716 1.497 . S
C717 C718 1.395 . S
C717 C719 1.380 1_565 S
C718 C717 1.395 . S
C718 C721 1.398 . S
C718 H728 0.930 . S
C719 C717 1.380 1_545 S
C719 C720 1.391 . S
C719 H729 0.930 . S
C720 C719 1.391 . S
C720 C722 1.387 1_545 S
C721 C718 1.398 . S
C721 C722 1.380 . S
C721 H730 0.930 . S
C722 C720 1.387 1_565 S
C722 C721 1.380 . S
C722 H731 0.930 . S
C723 O700 1.254 . S
C723 O701 1.268 1_554 S
H724 C709 0.930 . S
H725 C710 0.930 . S
H726 C712 0.930 . S
H727 C713 0.930 . S
H728 C718 0.930 . S
H729 C719 0.930 . S
H730 C721 0.930 . S
H731 C722 0.930 . S
Gd732 N763 2.661 . S
Gd732 N769 2.601 . S
Gd732 O776 2.545 . S
Gd732 O777 2.606 1_655 S
Gd732 O779 2.429 . S
Gd732 O780 2.545 1_655 S
Gd732 O781 2.412 . S
Gd732 O783 2.362 1_554 S
Gd732 O784 2.324 1_655 S
Gd732 C791 2.828 . S
Gd733 N742 2.661 . S
Gd733 N746 2.601 . S
Gd733 O777 2.362 1_556 S
Gd733 O778 2.324 1_455 S
Gd733 O782 2.545 . S
Gd733 O783 2.606 1_455 S
Gd733 O785 2.429 . S
Gd733 O786 2.545 1_455 S
Gd733 O787 2.412 . S
Gd733 C800 2.828 . S
C734 C737 1.417 . S
C734 C739 1.431 . S
C734 C740 1.412 . S
C735 C738 1.437 . S
C735 C739 1.317 . S
C735 H754 0.929 . S
C736 C737 1.426 . S
C736 C738 1.413 . S
C736 N746 1.359 . S
C737 C734 1.417 . S
C737 C736 1.426 . S
C737 N742 1.350 . S
C738 C735 1.437 . S
C738 C736 1.413 . S
C738 C748 1.391 . S
C739 C734 1.431 . S
C739 C735 1.317 . S
C739 H750 0.930 . S
C740 C734 1.412 . S
C740 C741 1.355 . S
C740 H752 0.930 . S
C741 C740 1.355 . S
C741 C743 1.402 . S
C741 H753 0.930 . S
N742 Gd733 2.661 . S
N742 C737 1.350 . S
N742 C743 1.307 . S
C743 C741 1.402 . S
C743 N742 1.307 . S
C743 H744 0.930 . S
H744 C743 0.930 . S
C745 N746 1.334 . S
C745 C747 1.394 . S
C745 H749 0.930 . S
N746 Gd733 2.601 . S
N746 C736 1.359 . S
N746 C745 1.334 . S
C747 C745 1.394 . S
C747 C748 1.359 . S
C747 H759 0.930 . S
C748 C738 1.391 . S
C748 C747 1.359 . S
C748 H760 0.929 . S
H749 C745 0.930 . S
H750 C739 0.930 . S
H751 C768 0.930 . S
H752 C740 0.930 . S
H753 C741 0.930 . S
H754 C735 0.929 . S
H755 C773 0.930 . S
H756 C764 0.930 . S
H757 C765 0.930 . S
H758 C789 0.929 . S
H759 C747 0.930 . S
H760 C748 0.929 . S
H761 C790 0.930 . S
H762 C771 0.930 . S
N763 Gd732 2.661 . S
N763 C767 1.350 . S
N763 C768 1.307 . S
C764 H756 0.930 . S
C764 C765 1.355 . S
C764 C766 1.412 . S
C765 H757 0.930 . S
C765 C764 1.355 . S
C765 C768 1.402 . S
C766 C764 1.412 . S
C766 C767 1.417 . S
C766 C790 1.431 . S
C767 N763 1.350 . S
C767 C766 1.417 . S
C767 C770 1.426 . S
C768 H751 0.930 . S
C768 N763 1.307 . S
C768 C765 1.402 . S
N769 Gd732 2.601 . S
N769 C770 1.359 . S
N769 C773 1.334 . S
C770 C767 1.426 . S
C770 N769 1.359 . S
C770 C774 1.413 . S
C771 H762 0.930 . S
C771 C772 1.359 . S
C771 C773 1.394 . S
C772 C771 1.359 . S
C772 C774 1.391 . S
C772 H775 0.929 . S
C773 H755 0.930 . S
C773 N769 1.334 . S
C773 C771 1.394 . S
C774 C770 1.413 . S
C774 C772 1.391 . S
C774 C789 1.437 . S
H775 C772 0.929 . S
O776 Gd732 2.545 . S
O776 C791 1.258 . S
O777 Gd732 2.606 1_455 S
O777 Gd733 2.362 1_554 S
O777 C788 1.284 . S
O778 Gd733 2.324 1_655 S
O778 C798 1.254 . S
O779 Gd732 2.429 . S
O779 C798 1.268 1_554 S
O780 Gd732 2.545 1_455 S
O780 C788 1.250 . S
O781 Gd732 2.412 . S
O781 C791 1.252 . S
O782 Gd733 2.545 . S
O782 C800 1.258 . S
O783 Gd732 2.362 1_556 S
O783 Gd733 2.606 1_655 S
O783 C799 1.284 . S
O784 Gd732 2.324 1_455 S
O784 C807 1.254 . S
O785 Gd733 2.429 . S
O785 C807 1.268 1_556 S
O786 Gd733 2.545 1_655 S
O786 C799 1.250 . S
O787 Gd733 2.412 . S
O787 C800 1.252 . S
C788 O777 1.284 . S
C788 O780 1.250 . S
C789 H758 0.929 . S
C789 C774 1.437 . S
C789 C790 1.317 . S
C790 H761 0.930 . S
C790 C766 1.431 . S
C790 C789 1.317 . S
C791 Gd732 2.828 . S
C791 O776 1.258 . S
C791 O781 1.252 . S
C791 C792 1.497 . S
C792 C791 1.497 . S
C792 C793 1.395 . S
C792 C794 1.380 1_655 S
C793 C792 1.395 . S
C793 C796 1.398 . S
C793 H808 0.930 . S
C794 C792 1.380 1_455 S
C794 C795 1.391 . S
C794 H809 0.930 . S
C795 C794 1.391 . S
C795 C797 1.387 1_455 S
C796 C793 1.398 . S
C796 C797 1.380 . S
C796 H810 0.930 . S
C797 C795 1.387 1_655 S
C797 C796 1.380 . S
C797 H811 0.930 . S
C798 O778 1.254 . S
C798 O779 1.268 1_556 S
C799 O783 1.284 . S
C799 O786 1.250 . S
C800 Gd733 2.828 . S
C800 O782 1.258 . S
C800 O787 1.252 . S
C800 C801 1.497 . S
C801 C800 1.497 . S
C801 C802 1.395 . S
C801 C803 1.380 1_455 S
C802 C801 1.395 . S
C802 C805 1.398 . S
C802 H812 0.930 . S
C803 C801 1.380 1_655 S
C803 C804 1.391 . S
C803 H813 0.930 . S
C804 C803 1.391 . S
C804 C806 1.387 1_655 S
C805 C802 1.398 . S
C805 C806 1.380 . S
C805 H814 0.930 . S
C806 C804 1.387 1_455 S
C806 C805 1.380 . S
C806 H815 0.930 . S
C807 O784 1.254 . S
C807 O785 1.268 1_554 S
H808 C793 0.930 . S
H809 C794 0.930 . S
H810 C796 0.930 . S
H811 C797 0.930 . S
H812 C802 0.930 . S
H813 C803 0.930 . S
H814 C805 0.930 . S
H815 C806 0.930 . S
Gd816 N847 2.661 . S
Gd816 N853 2.601 . S
Gd816 O860 2.545 . S
Gd816 O861 2.606 . S
Gd816 O863 2.429 . S
Gd816 O864 2.545 . S
Gd816 O865 2.412 . S
Gd816 O867 2.362 1_556 S
Gd816 O868 2.324 . S
Gd816 C875 2.828 . S
Gd817 N826 2.661 . S
Gd817 N830 2.601 . S
Gd817 O861 2.362 1_554 S
Gd817 O862 2.324 . S
Gd817 O866 2.545 . S
Gd817 O867 2.606 . S
Gd817 O869 2.429 . S
Gd817 O870 2.545 . S
Gd817 O871 2.412 . S
Gd817 C884 2.828 . S
C818 C821 1.417 . S
C818 C823 1.431 . S
C818 C824 1.412 . S
C819 C822 1.437 . S
C819 C823 1.317 . S
C819 H838 0.929 . S
C820 C821 1.426 . S
C820 C822 1.413 . S
C820 N830 1.359 . S
C821 C818 1.417 . S
C821 C820 1.426 . S
C821 N826 1.350 . S
C822 C819 1.437 . S
C822 C820 1.413 . S
C822 C832 1.391 . S
C823 C818 1.431 . S
C823 C819 1.317 . S
C823 H834 0.930 . S
C824 C818 1.412 . S
C824 C825 1.355 . S
C824 H836 0.930 . S
C825 C824 1.355 . S
C825 C827 1.402 . S
C825 H837 0.930 . S
N826 Gd817 2.661 . S
N826 C821 1.350 . S
N826 C827 1.307 . S
C827 C825 1.402 . S
C827 N826 1.307 . S
C827 H828 0.930 . S
H828 C827 0.930 . S
C829 N830 1.334 . S
C829 C831 1.394 . S
C829 H833 0.930 . S
N830 Gd817 2.601 . S
N830 C820 1.359 . S
N830 C829 1.334 . S
C831 C829 1.394 . S
C831 C832 1.359 . S
C831 H843 0.930 . S
C832 C822 1.391 . S
C832 C831 1.359 . S
C832 H844 0.929 . S
H833 C829 0.930 . S
H834 C823 0.930 . S
H835 C852 0.930 . S
H836 C824 0.930 . S
H837 C825 0.930 . S
H838 C819 0.929 . S
H839 C857 0.930 . S
H840 C848 0.930 . S
H841 C849 0.930 . S
H842 C873 0.929 . S
H843 C831 0.930 . S
H844 C832 0.929 . S
H845 C874 0.930 . S
H846 C855 0.930 . S
N847 Gd816 2.661 . S
N847 C851 1.350 . S
N847 C852 1.307 . S
C848 H840 0.930 . S
C848 C849 1.355 . S
C848 C850 1.412 . S
C849 H841 0.930 . S
C849 C848 1.355 . S
C849 C852 1.402 . S
C850 C848 1.412 . S
C850 C851 1.417 . S
C850 C874 1.431 . S
C851 N847 1.350 . S
C851 C850 1.417 . S
C851 C854 1.426 . S
C852 H835 0.930 . S
C852 N847 1.307 . S
C852 C849 1.402 . S
N853 Gd816 2.601 . S
N853 C854 1.359 . S
N853 C857 1.334 . S
C854 C851 1.426 . S
C854 N853 1.359 . S
C854 C858 1.413 . S
C855 H846 0.930 . S
C855 C856 1.359 . S
C855 C857 1.394 . S
C856 C855 1.359 . S
C856 C858 1.391 . S
C856 H859 0.929 . S
C857 H839 0.930 . S
C857 N853 1.334 . S
C857 C855 1.394 . S
C858 C854 1.413 . S
C858 C856 1.391 . S
C858 C873 1.437 . S
H859 C856 0.929 . S
O860 Gd816 2.545 . S
O860 C875 1.258 . S
O861 Gd816 2.606 . S
O861 Gd817 2.362 1_556 S
O861 C872 1.284 . S
O862 Gd817 2.324 . S
O862 C882 1.254 . S
O863 Gd816 2.429 . S
O863 C882 1.268 1_556 S
O864 Gd816 2.545 . S
O864 C872 1.250 . S
O865 Gd816 2.412 . S
O865 C875 1.252 . S
O866 Gd817 2.545 . S
O866 C884 1.258 . S
O867 Gd816 2.362 1_554 S
O867 Gd817 2.606 . S
O867 C883 1.284 . S
O868 Gd816 2.324 . S
O868 C891 1.254 . S
O869 Gd817 2.429 . S
O869 C891 1.268 1_554 S
O870 Gd817 2.545 . S
O870 C883 1.250 . S
O871 Gd817 2.412 . S
O871 C884 1.252 . S
C872 O861 1.284 . S
C872 O864 1.250 . S
C873 H842 0.929 . S
C873 C858 1.437 . S
C873 C874 1.317 . S
C874 H845 0.930 . S
C874 C850 1.431 . S
C874 C873 1.317 . S
C875 Gd816 2.828 . S
C875 O860 1.258 . S
C875 O865 1.252 . S
C875 C876 1.497 . S
C876 C875 1.497 . S
C876 C877 1.395 . S
C876 C878 1.380 . S
C877 C876 1.395 . S
C877 C880 1.398 . S
C877 H892 0.930 . S
C878 C876 1.380 . S
C878 C879 1.391 . S
C878 H893 0.930 . S
C879 C878 1.391 . S
C879 C881 1.387 . S
C880 C877 1.398 . S
C880 C881 1.380 . S
C880 H894 0.930 . S
C881 C879 1.387 . S
C881 C880 1.380 . S
C881 H895 0.930 . S
C882 O862 1.254 . S
C882 O863 1.268 1_554 S
C883 O867 1.284 . S
C883 O870 1.250 . S
C884 Gd817 2.828 . S
C884 O866 1.258 . S
C884 O871 1.252 . S
C884 C885 1.497 . S
C885 C884 1.497 . S
C885 C886 1.395 . S
C885 C887 1.380 . S
C886 C885 1.395 . S
C886 C889 1.398 . S
C886 H896 0.930 . S
C887 C885 1.380 . S
C887 C888 1.391 . S
C887 H897 0.930 . S
C888 C887 1.391 . S
C888 C890 1.387 . S
C889 C886 1.398 . S
C889 C890 1.380 . S
C889 H898 0.930 . S
C890 C888 1.387 . S
C890 C889 1.380 . S
C890 H899 0.930 . S
C891 O868 1.254 . S
C891 O869 1.268 1_556 S
H892 C877 0.930 . S
H893 C878 0.930 . S
H894 C880 0.930 . S
H895 C881 0.930 . S
H896 C886 0.930 . S
H897 C887 0.930 . S
H898 C889 0.930 . S
H899 C890 0.930 . S
Gd900 N931 2.661 . S
Gd900 N937 2.601 . S
Gd900 O944 2.545 . S
Gd900 O945 2.606 . S
Gd900 O947 2.429 . S
Gd900 O948 2.545 . S
Gd900 O949 2.412 . S
Gd900 O951 2.362 . S
Gd900 O952 2.324 . S
Gd900 C959 2.828 . S
Gd901 N910 2.661 . S
Gd901 N914 2.601 . S
Gd901 O945 2.362 . S
Gd901 O946 2.324 . S
Gd901 O950 2.545 . S
Gd901 O951 2.606 . S
Gd901 O953 2.429 . S
Gd901 O954 2.545 . S
Gd901 O955 2.412 . S
Gd901 C968 2.828 . S
C902 C905 1.417 . S
C902 C907 1.431 . S
C902 C908 1.412 . S
C903 C906 1.437 . S
C903 C907 1.317 . S
C903 H922 0.929 . S
C904 C905 1.426 . S
C904 C906 1.413 . S
C904 N914 1.359 . S
C905 C902 1.417 . S
C905 C904 1.426 . S
C905 N910 1.350 . S
C906 C903 1.437 . S
C906 C904 1.413 . S
C906 C916 1.391 . S
C907 C902 1.431 . S
C907 C903 1.317 . S
C907 H918 0.930 . S
C908 C902 1.412 . S
C908 C909 1.355 . S
C908 H920 0.930 . S
C909 C908 1.355 . S
C909 C911 1.402 . S
C909 H921 0.930 . S
N910 Gd901 2.661 . S
N910 C905 1.350 . S
N910 C911 1.307 . S
C911 C909 1.402 . S
C911 N910 1.307 . S
C911 H912 0.930 . S
H912 C911 0.930 . S
C913 N914 1.334 . S
C913 C915 1.394 . S
C913 H917 0.930 . S
N914 Gd901 2.601 . S
N914 C904 1.359 . S
N914 C913 1.334 . S
C915 C913 1.394 . S
C915 C916 1.359 . S
C915 H927 0.930 . S
C916 C906 1.391 . S
C916 C915 1.359 . S
C916 H928 0.929 . S
H917 C913 0.930 . S
H918 C907 0.930 . S
H919 C936 0.930 . S
H920 C908 0.930 . S
H921 C909 0.930 . S
H922 C903 0.929 . S
H923 C941 0.930 . S
H924 C932 0.930 . S
H925 C933 0.930 . S
H926 C957 0.929 . S
H927 C915 0.930 . S
H928 C916 0.929 . S
H929 C958 0.930 . S
H930 C939 0.930 . S
N931 Gd900 2.661 . S
N931 C935 1.350 . S
N931 C936 1.307 . S
C932 H924 0.930 . S
C932 C933 1.355 . S
C932 C934 1.412 . S
C933 H925 0.930 . S
C933 C932 1.355 . S
C933 C936 1.402 . S
C934 C932 1.412 . S
C934 C935 1.417 . S
C934 C958 1.431 . S
C935 N931 1.350 . S
C935 C934 1.417 . S
C935 C938 1.426 . S
C936 H919 0.930 . S
C936 N931 1.307 . S
C936 C933 1.402 . S
N937 Gd900 2.601 . S
N937 C938 1.359 . S
N937 C941 1.334 . S
C938 C935 1.426 . S
C938 N937 1.359 . S
C938 C942 1.413 . S
C939 H930 0.930 . S
C939 C940 1.359 . S
C939 C941 1.394 . S
C940 C939 1.359 . S
C940 C942 1.391 . S
C940 H943 0.929 . S
C941 H923 0.930 . S
C941 N937 1.334 . S
C941 C939 1.394 . S
C942 C938 1.413 . S
C942 C940 1.391 . S
C942 C957 1.437 . S
H943 C940 0.929 . S
O944 Gd900 2.545 . S
O944 C959 1.258 . S
O945 Gd900 2.606 . S
O945 Gd901 2.362 . S
O945 C956 1.284 . S
O946 Gd901 2.324 . S
O946 C966 1.254 . S
O947 Gd900 2.429 . S
O947 C966 1.268 . S
O948 Gd900 2.545 . S
O948 C956 1.250 . S
O949 Gd900 2.412 . S
O949 C959 1.252 . S
O950 Gd901 2.545 . S
O950 C968 1.258 . S
O951 Gd900 2.362 . S
O951 Gd901 2.606 . S
O951 C967 1.284 . S
O952 Gd900 2.324 . S
O952 C975 1.254 . S
O953 Gd901 2.429 . S
O953 C975 1.268 . S
O954 Gd901 2.545 . S
O954 C967 1.250 . S
O955 Gd901 2.412 . S
O955 C968 1.252 . S
C956 O945 1.284 . S
C956 O948 1.250 . S
C957 H926 0.929 . S
C957 C942 1.437 . S
C957 C958 1.317 . S
C958 H929 0.930 . S
C958 C934 1.431 . S
C958 C957 1.317 . S
C959 Gd900 2.828 . S
C959 O944 1.258 . S
C959 O949 1.252 . S
C959 C960 1.497 . S
C960 C959 1.497 . S
C960 C961 1.395 . S
C960 C962 1.380 . S
C961 C960 1.395 . S
C961 C964 1.398 . S
C961 H976 0.930 . S
C962 C960 1.380 . S
C962 C963 1.391 . S
C962 H977 0.930 . S
C963 C962 1.391 . S
C963 C965 1.387 . S
C964 C961 1.398 . S
C964 C965 1.380 . S
C964 H978 0.930 . S
C965 C963 1.387 . S
C965 C964 1.380 . S
C965 H979 0.930 . S
C966 O946 1.254 . S
C966 O947 1.268 . S
C967 O951 1.284 . S
C967 O954 1.250 . S
C968 Gd901 2.828 . S
C968 O950 1.258 . S
C968 O955 1.252 . S
C968 C969 1.497 . S
C969 C968 1.497 . S
C969 C970 1.395 . S
C969 C971 1.380 . S
C970 C969 1.395 . S
C970 C973 1.398 . S
C970 H980 0.930 . S
C971 C969 1.380 . S
C971 C972 1.391 . S
C971 H981 0.930 . S
C972 C971 1.391 . S
C972 C974 1.387 . S
C973 C970 1.398 . S
C973 C974 1.380 . S
C973 H982 0.930 . S
C974 C972 1.387 . S
C974 C973 1.380 . S
C974 H983 0.930 . S
C975 O952 1.254 . S
C975 O953 1.268 . S
H976 C961 0.930 . S
H977 C962 0.930 . S
H978 C964 0.930 . S
H979 C965 0.930 . S
H980 C970 0.930 . S
H981 C971 0.930 . S
H982 C973 0.930 . S
H983 C974 0.930 . S
Gd984 N1015 2.661 . S
Gd984 N1021 2.601 . S
Gd984 O1028 2.545 . S
Gd984 O1029 2.606 . S
Gd984 O1031 2.429 . S
Gd984 O1032 2.545 . S
Gd984 O1033 2.412 . S
Gd984 O1035 2.362 . S
Gd984 O1036 2.324 . S
Gd984 C1043 2.828 . S
Gd985 N994 2.661 . S
Gd985 N998 2.601 . S
Gd985 O1029 2.362 . S
Gd985 O1030 2.324 . S
Gd985 O1034 2.545 . S
Gd985 O1035 2.606 . S
Gd985 O1037 2.429 . S
Gd985 O1038 2.545 . S
Gd985 O1039 2.412 . S
Gd985 C1052 2.828 . S
C986 C989 1.417 . S
C986 C991 1.431 . S
C986 C992 1.412 . S
C987 C990 1.437 . S
C987 C991 1.317 . S
C987 H1006 0.929 . S
C988 C989 1.426 . S
C988 C990 1.413 . S
C988 N998 1.359 . S
C989 C986 1.417 . S
C989 C988 1.426 . S
C989 N994 1.350 . S
C990 C987 1.437 . S
C990 C988 1.413 . S
C990 C1000 1.391 . S
C991 C986 1.431 . S
C991 C987 1.317 . S
C991 H1002 0.930 . S
C992 C986 1.412 . S
C992 C993 1.355 . S
C992 H1004 0.930 . S
C993 C992 1.355 . S
C993 C995 1.402 . S
C993 H1005 0.930 . S
N994 Gd985 2.661 . S
N994 C989 1.350 . S
N994 C995 1.307 . S
C995 C993 1.402 . S
C995 N994 1.307 . S
C995 H996 0.930 . S
H996 C995 0.930 . S
C997 N998 1.334 . S
C997 C999 1.394 . S
C997 H1001 0.930 . S
N998 Gd985 2.601 . S
N998 C988 1.359 . S
N998 C997 1.334 . S
C999 C997 1.394 . S
C999 C1000 1.359 . S
C999 H1011 0.930 . S
C1000 C990 1.391 . S
C1000 C999 1.359 . S
C1000 H1012 0.929 . S
H1001 C997 0.930 . S
H1002 C991 0.930 . S
H1003 C1020 0.930 . S
H1004 C992 0.930 . S
H1005 C993 0.930 . S
H1006 C987 0.929 . S
H1007 C1025 0.930 . S
H1008 C1016 0.930 . S
H1009 C1017 0.930 . S
H1010 C1041 0.929 . S
H1011 C999 0.930 . S
H1012 C1000 0.929 . S
H1013 C1042 0.930 . S
H1014 C1023 0.930 . S
N1015 Gd984 2.661 . S
N1015 C1019 1.350 . S
N1015 C1020 1.307 . S
C1016 H1008 0.930 . S
C1016 C1017 1.355 . S
C1016 C1018 1.412 . S
C1017 H1009 0.930 . S
C1017 C1016 1.355 . S
C1017 C1020 1.402 . S
C1018 C1016 1.412 . S
C1018 C1019 1.417 . S
C1018 C1042 1.431 . S
C1019 N1015 1.350 . S
C1019 C1018 1.417 . S
C1019 C1022 1.426 . S
C1020 H1003 0.930 . S
C1020 N1015 1.307 . S
C1020 C1017 1.402 . S
N1021 Gd984 2.601 . S
N1021 C1022 1.359 . S
N1021 C1025 1.334 . S
C1022 C1019 1.426 . S
C1022 N1021 1.359 . S
C1022 C1026 1.413 . S
C1023 H1014 0.930 . S
C1023 C1024 1.359 . S
C1023 C1025 1.394 . S
C1024 C1023 1.359 . S
C1024 C1026 1.391 . S
C1024 H1027 0.929 . S
C1025 H1007 0.930 . S
C1025 N1021 1.334 . S
C1025 C1023 1.394 . S
C1026 C1022 1.413 . S
C1026 C1024 1.391 . S
C1026 C1041 1.437 . S
H1027 C1024 0.929 . S
O1028 Gd984 2.545 . S
O1028 C1043 1.258 . S
O1029 Gd984 2.606 . S
O1029 Gd985 2.362 . S
O1029 C1040 1.284 . S
O1030 Gd985 2.324 . S
O1030 C1050 1.254 . S
O1031 Gd984 2.429 . S
O1031 C1050 1.268 . S
O1032 Gd984 2.545 . S
O1032 C1040 1.250 . S
O1033 Gd984 2.412 . S
O1033 C1043 1.252 . S
O1034 Gd985 2.545 . S
O1034 C1052 1.258 . S
O1035 Gd984 2.362 . S
O1035 Gd985 2.606 . S
O1035 C1051 1.284 . S
O1036 Gd984 2.324 . S
O1036 C1059 1.254 . S
O1037 Gd985 2.429 . S
O1037 C1059 1.268 . S
O1038 Gd985 2.545 . S
O1038 C1051 1.250 . S
O1039 Gd985 2.412 . S
O1039 C1052 1.252 . S
C1040 O1029 1.284 . S
C1040 O1032 1.250 . S
C1041 H1010 0.929 . S
C1041 C1026 1.437 . S
C1041 C1042 1.317 . S
C1042 H1013 0.930 . S
C1042 C1018 1.431 . S
C1042 C1041 1.317 . S
C1043 Gd984 2.828 . S
C1043 O1028 1.258 . S
C1043 O1033 1.252 . S
C1043 C1044 1.497 . S
C1044 C1043 1.497 . S
C1044 C1045 1.395 . S
C1044 C1046 1.380 . S
C1045 C1044 1.395 . S
C1045 C1048 1.398 . S
C1045 H1060 0.930 . S
C1046 C1044 1.380 . S
C1046 C1047 1.391 . S
C1046 H1061 0.930 . S
C1047 C1046 1.391 . S
C1047 C1049 1.387 . S
C1048 C1045 1.398 . S
C1048 C1049 1.380 . S
C1048 H1062 0.930 . S
C1049 C1047 1.387 . S
C1049 C1048 1.380 . S
C1049 H1063 0.930 . S
C1050 O1030 1.254 . S
C1050 O1031 1.268 . S
C1051 O1035 1.284 . S
C1051 O1038 1.250 . S
C1052 Gd985 2.828 . S
C1052 O1034 1.258 . S
C1052 O1039 1.252 . S
C1052 C1053 1.497 . S
C1053 C1052 1.497 . S
C1053 C1054 1.395 . S
C1053 C1055 1.380 . S
C1054 C1053 1.395 . S
C1054 C1057 1.398 . S
C1054 H1064 0.930 . S
C1055 C1053 1.380 . S
C1055 C1056 1.391 . S
C1055 H1065 0.930 . S
C1056 C1055 1.391 . S
C1056 C1058 1.387 . S
C1057 C1054 1.398 . S
C1057 C1058 1.380 . S
C1057 H1066 0.930 . S
C1058 C1056 1.387 . S
C1058 C1057 1.380 . S
C1058 H1067 0.930 . S
C1059 O1036 1.254 . S
C1059 O1037 1.268 . S
H1060 C1045 0.930 . S
H1061 C1046 0.930 . S
H1062 C1048 0.930 . S
H1063 C1049 0.930 . S
H1064 C1054 0.930 . S
H1065 C1055 0.930 . S
H1066 C1057 0.930 . S
H1067 C1058 0.930 . S
Gd1068 N1099 2.661 . S
Gd1068 N1105 2.601 . S
Gd1068 O1112 2.545 . S
Gd1068 O1113 2.606 . S
Gd1068 O1115 2.429 . S
Gd1068 O1116 2.545 . S
Gd1068 O1117 2.412 . S
Gd1068 O1119 2.362 . S
Gd1068 O1120 2.324 . S
Gd1068 C1127 2.828 . S
Gd1069 N1078 2.661 . S
Gd1069 N1082 2.601 . S
Gd1069 O1113 2.362 . S
Gd1069 O1114 2.324 . S
Gd1069 O1118 2.545 . S
Gd1069 O1119 2.606 . S
Gd1069 O1121 2.429 . S
Gd1069 O1122 2.545 . S
Gd1069 O1123 2.412 . S
Gd1069 C1136 2.828 . S
C1070 C1073 1.417 . S
C1070 C1075 1.431 . S
C1070 C1076 1.412 . S
C1071 C1074 1.437 . S
C1071 C1075 1.317 . S
C1071 H1090 0.929 . S
C1072 C1073 1.426 . S
C1072 C1074 1.413 . S
C1072 N1082 1.359 . S
C1073 C1070 1.417 . S
C1073 C1072 1.426 . S
C1073 N1078 1.350 . S
C1074 C1071 1.437 . S
C1074 C1072 1.413 . S
C1074 C1084 1.391 . S
C1075 C1070 1.431 . S
C1075 C1071 1.317 . S
C1075 H1086 0.930 . S
C1076 C1070 1.412 . S
C1076 C1077 1.355 . S
C1076 H1088 0.930 . S
C1077 C1076 1.355 . S
C1077 C1079 1.402 . S
C1077 H1089 0.930 . S
N1078 Gd1069 2.661 . S
N1078 C1073 1.350 . S
N1078 C1079 1.307 . S
C1079 C1077 1.402 . S
C1079 N1078 1.307 . S
C1079 H1080 0.930 . S
H1080 C1079 0.930 . S
C1081 N1082 1.334 . S
C1081 C1083 1.394 . S
C1081 H1085 0.930 . S
N1082 Gd1069 2.601 . S
N1082 C1072 1.359 . S
N1082 C1081 1.334 . S
C1083 C1081 1.394 . S
C1083 C1084 1.359 . S
C1083 H1095 0.930 . S
C1084 C1074 1.391 . S
C1084 C1083 1.359 . S
C1084 H1096 0.929 . S
H1085 C1081 0.930 . S
H1086 C1075 0.930 . S
H1087 C1104 0.930 . S
H1088 C1076 0.930 . S
H1089 C1077 0.930 . S
H1090 C1071 0.929 . S
H1091 C1109 0.930 . S
H1092 C1100 0.930 . S
H1093 C1101 0.930 . S
H1094 C1125 0.929 . S
H1095 C1083 0.930 . S
H1096 C1084 0.929 . S
H1097 C1126 0.930 . S
H1098 C1107 0.930 . S
N1099 Gd1068 2.661 . S
N1099 C1103 1.350 . S
N1099 C1104 1.307 . S
C1100 H1092 0.930 . S
C1100 C1101 1.355 . S
C1100 C1102 1.412 . S
C1101 H1093 0.930 . S
C1101 C1100 1.355 . S
C1101 C1104 1.402 . S
C1102 C1100 1.412 . S
C1102 C1103 1.417 . S
C1102 C1126 1.431 . S
C1103 N1099 1.350 . S
C1103 C1102 1.417 . S
C1103 C1106 1.426 . S
C1104 H1087 0.930 . S
C1104 N1099 1.307 . S
C1104 C1101 1.402 . S
N1105 Gd1068 2.601 . S
N1105 C1106 1.359 . S
N1105 C1109 1.334 . S
C1106 C1103 1.426 . S
C1106 N1105 1.359 . S
C1106 C1110 1.413 . S
C1107 H1098 0.930 . S
C1107 C1108 1.359 . S
C1107 C1109 1.394 . S
C1108 C1107 1.359 . S
C1108 C1110 1.391 . S
C1108 H1111 0.929 . S
C1109 H1091 0.930 . S
C1109 N1105 1.334 . S
C1109 C1107 1.394 . S
C1110 C1106 1.413 . S
C1110 C1108 1.391 . S
C1110 C1125 1.437 . S
H1111 C1108 0.929 . S
O1112 Gd1068 2.545 . S
O1112 C1127 1.258 . S
O1113 Gd1068 2.606 . S
O1113 Gd1069 2.362 . S
O1113 C1124 1.284 . S
O1114 Gd1069 2.324 . S
O1114 C1134 1.254 . S
O1115 Gd1068 2.429 . S
O1115 C1134 1.268 . S
O1116 Gd1068 2.545 . S
O1116 C1124 1.250 . S
O1117 Gd1068 2.412 . S
O1117 C1127 1.252 . S
O1118 Gd1069 2.545 . S
O1118 C1136 1.258 . S
O1119 Gd1068 2.362 . S
O1119 Gd1069 2.606 . S
O1119 C1135 1.284 . S
O1120 Gd1068 2.324 . S
O1120 C1143 1.254 . S
O1121 Gd1069 2.429 . S
O1121 C1143 1.268 . S
O1122 Gd1069 2.545 . S
O1122 C1135 1.250 . S
O1123 Gd1069 2.412 . S
O1123 C1136 1.252 . S
C1124 O1113 1.284 . S
C1124 O1116 1.250 . S
C1125 H1094 0.929 . S
C1125 C1110 1.437 . S
C1125 C1126 1.317 . S
C1126 H1097 0.930 . S
C1126 C1102 1.431 . S
C1126 C1125 1.317 . S
C1127 Gd1068 2.828 . S
C1127 O1112 1.258 . S
C1127 O1117 1.252 . S
C1127 C1128 1.497 . S
C1128 C1127 1.497 . S
C1128 C1129 1.395 . S
C1128 C1130 1.380 . S
C1129 C1128 1.395 . S
C1129 C1132 1.398 . S
C1129 H1144 0.930 . S
C1130 C1128 1.380 . S
C1130 C1131 1.391 . S
C1130 H1145 0.930 . S
C1131 C1130 1.391 . S
C1131 C1133 1.387 . S
C1132 C1129 1.398 . S
C1132 C1133 1.380 . S
C1132 H1146 0.930 . S
C1133 C1131 1.387 . S
C1133 C1132 1.380 . S
C1133 H1147 0.930 . S
C1134 O1114 1.254 . S
C1134 O1115 1.268 . S
C1135 O1119 1.284 . S
C1135 O1122 1.250 . S
C1136 Gd1069 2.828 . S
C1136 O1118 1.258 . S
C1136 O1123 1.252 . S
C1136 C1137 1.497 . S
C1137 C1136 1.497 . S
C1137 C1138 1.395 . S
C1137 C1139 1.380 . S
C1138 C1137 1.395 . S
C1138 C1141 1.398 . S
C1138 H1148 0.930 . S
C1139 C1137 1.380 . S
C1139 C1140 1.391 . S
C1139 H1149 0.930 . S
C1140 C1139 1.391 . S
C1140 C1142 1.387 . S
C1141 C1138 1.398 . S
C1141 C1142 1.380 . S
C1141 H1150 0.930 . S
C1142 C1140 1.387 . S
C1142 C1141 1.380 . S
C1142 H1151 0.930 . S
C1143 O1120 1.254 . S
C1143 O1121 1.268 . S
H1144 C1129 0.930 . S
H1145 C1130 0.930 . S
H1146 C1132 0.930 . S
H1147 C1133 0.930 . S
H1148 C1138 0.930 . S
H1149 C1139 0.930 . S
H1150 C1141 0.930 . S
H1151 C1142 0.930 . S
Gd1152 N1183 2.661 . S
Gd1152 N1189 2.601 . S
Gd1152 O1196 2.545 . S
Gd1152 O1197 2.606 . S
Gd1152 O1199 2.429 . S
Gd1152 O1200 2.545 . S
Gd1152 O1201 2.412 . S
Gd1152 O1203 2.362 . S
Gd1152 O1204 2.324 . S
Gd1152 C1211 2.828 . S
Gd1153 N1162 2.661 . S
Gd1153 N1166 2.601 . S
Gd1153 O1197 2.362 . S
Gd1153 O1198 2.324 . S
Gd1153 O1202 2.545 . S
Gd1153 O1203 2.606 . S
Gd1153 O1205 2.429 . S
Gd1153 O1206 2.545 . S
Gd1153 O1207 2.412 . S
Gd1153 C1220 2.828 . S
C1154 C1157 1.417 . S
C1154 C1159 1.431 . S
C1154 C1160 1.412 . S
C1155 C1158 1.437 . S
C1155 C1159 1.317 . S
C1155 H1174 0.929 . S
C1156 C1157 1.426 . S
C1156 C1158 1.413 . S
C1156 N1166 1.359 . S
C1157 C1154 1.417 . S
C1157 C1156 1.426 . S
C1157 N1162 1.350 . S
C1158 C1155 1.437 . S
C1158 C1156 1.413 . S
C1158 C1168 1.391 . S
C1159 C1154 1.431 . S
C1159 C1155 1.317 . S
C1159 H1170 0.930 . S
C1160 C1154 1.412 . S
C1160 C1161 1.355 . S
C1160 H1172 0.930 . S
C1161 C1160 1.355 . S
C1161 C1163 1.402 . S
C1161 H1173 0.930 . S
N1162 Gd1153 2.661 . S
N1162 C1157 1.350 . S
N1162 C1163 1.307 . S
C1163 C1161 1.402 . S
C1163 N1162 1.307 . S
C1163 H1164 0.930 . S
H1164 C1163 0.930 . S
C1165 N1166 1.334 . S
C1165 C1167 1.394 . S
C1165 H1169 0.930 . S
N1166 Gd1153 2.601 . S
N1166 C1156 1.359 . S
N1166 C1165 1.334 . S
C1167 C1165 1.394 . S
C1167 C1168 1.359 . S
C1167 H1179 0.930 . S
C1168 C1158 1.391 . S
C1168 C1167 1.359 . S
C1168 H1180 0.929 . S
H1169 C1165 0.930 . S
H1170 C1159 0.930 . S
H1171 C1188 0.930 . S
H1172 C1160 0.930 . S
H1173 C1161 0.930 . S
H1174 C1155 0.929 . S
H1175 C1193 0.930 . S
H1176 C1184 0.930 . S
H1177 C1185 0.930 . S
H1178 C1209 0.929 . S
H1179 C1167 0.930 . S
H1180 C1168 0.929 . S
H1181 C1210 0.930 . S
H1182 C1191 0.930 . S
N1183 Gd1152 2.661 . S
N1183 C1187 1.350 . S
N1183 C1188 1.307 . S
C1184 H1176 0.930 . S
C1184 C1185 1.355 . S
C1184 C1186 1.412 . S
C1185 H1177 0.930 . S
C1185 C1184 1.355 . S
C1185 C1188 1.402 . S
C1186 C1184 1.412 . S
C1186 C1187 1.417 . S
C1186 C1210 1.431 . S
C1187 N1183 1.350 . S
C1187 C1186 1.417 . S
C1187 C1190 1.426 . S
C1188 H1171 0.930 . S
C1188 N1183 1.307 . S
C1188 C1185 1.402 . S
N1189 Gd1152 2.601 . S
N1189 C1190 1.359 . S
N1189 C1193 1.334 . S
C1190 C1187 1.426 . S
C1190 N1189 1.359 . S
C1190 C1194 1.413 . S
C1191 H1182 0.930 . S
C1191 C1192 1.359 . S
C1191 C1193 1.394 . S
C1192 C1191 1.359 . S
C1192 C1194 1.391 . S
C1192 H1195 0.929 . S
C1193 H1175 0.930 . S
C1193 N1189 1.334 . S
C1193 C1191 1.394 . S
C1194 C1190 1.413 . S
C1194 C1192 1.391 . S
C1194 C1209 1.437 . S
H1195 C1192 0.929 . S
O1196 Gd1152 2.545 . S
O1196 C1211 1.258 . S
O1197 Gd1152 2.606 . S
O1197 Gd1153 2.362 . S
O1197 C1208 1.284 . S
O1198 Gd1153 2.324 . S
O1198 C1218 1.254 . S
O1199 Gd1152 2.429 . S
O1199 C1218 1.268 . S
O1200 Gd1152 2.545 . S
O1200 C1208 1.250 . S
O1201 Gd1152 2.412 . S
O1201 C1211 1.252 . S
O1202 Gd1153 2.545 . S
O1202 C1220 1.258 . S
O1203 Gd1152 2.362 . S
O1203 Gd1153 2.606 . S
O1203 C1219 1.284 . S
O1204 Gd1152 2.324 . S
O1204 C1227 1.254 . S
O1205 Gd1153 2.429 . S
O1205 C1227 1.268 . S
O1206 Gd1153 2.545 . S
O1206 C1219 1.250 . S
O1207 Gd1153 2.412 . S
O1207 C1220 1.252 . S
C1208 O1197 1.284 . S
C1208 O1200 1.250 . S
C1209 H1178 0.929 . S
C1209 C1194 1.437 . S
C1209 C1210 1.317 . S
C1210 H1181 0.930 . S
C1210 C1186 1.431 . S
C1210 C1209 1.317 . S
C1211 Gd1152 2.828 . S
C1211 O1196 1.258 . S
C1211 O1201 1.252 . S
C1211 C1212 1.497 . S
C1212 C1211 1.497 . S
C1212 C1213 1.395 . S
C1212 C1214 1.380 . S
C1213 C1212 1.395 . S
C1213 C1216 1.398 . S
C1213 H1228 0.930 . S
C1214 C1212 1.380 . S
C1214 C1215 1.391 . S
C1214 H1229 0.930 . S
C1215 C1214 1.391 . S
C1215 C1217 1.387 . S
C1216 C1213 1.398 . S
C1216 C1217 1.380 . S
C1216 H1230 0.930 . S
C1217 C1215 1.387 . S
C1217 C1216 1.380 . S
C1217 H1231 0.930 . S
C1218 O1198 1.254 . S
C1218 O1199 1.268 . S
C1219 O1203 1.284 . S
C1219 O1206 1.250 . S
C1220 Gd1153 2.828 . S
C1220 O1202 1.258 . S
C1220 O1207 1.252 . S
C1220 C1221 1.497 . S
C1221 C1220 1.497 . S
C1221 C1222 1.395 . S
C1221 C1223 1.380 . S
C1222 C1221 1.395 . S
C1222 C1225 1.398 . S
C1222 H1232 0.930 . S
C1223 C1221 1.380 . S
C1223 C1224 1.391 . S
C1223 H1233 0.930 . S
C1224 C1223 1.391 . S
C1224 C1226 1.387 . S
C1225 C1222 1.398 . S
C1225 C1226 1.380 . S
C1225 H1234 0.930 . S
C1226 C1224 1.387 . S
C1226 C1225 1.380 . S
C1226 H1235 0.930 . S
C1227 O1204 1.254 . S
C1227 O1205 1.268 . S
H1228 C1213 0.930 . S
H1229 C1214 0.930 . S
H1230 C1216 0.930 . S
H1231 C1217 0.930 . S
H1232 C1222 0.930 . S
H1233 C1223 0.930 . S
H1234 C1225 0.930 . S
H1235 C1226 0.930 . S
Gd1236 N1267 2.661 . S
Gd1236 N1273 2.601 . S
Gd1236 O1280 2.545 . S
Gd1236 O1281 2.606 . S
Gd1236 O1283 2.429 . S
Gd1236 O1284 2.545 . S
Gd1236 O1285 2.412 . S
Gd1236 O1287 2.362 . S
Gd1236 O1288 2.324 . S
Gd1236 C1295 2.828 . S
Gd1237 N1246 2.661 . S
Gd1237 N1250 2.601 . S
Gd1237 O1281 2.362 . S
Gd1237 O1282 2.324 . S
Gd1237 O1286 2.545 . S
Gd1237 O1287 2.606 . S
Gd1237 O1289 2.429 . S
Gd1237 O1290 2.545 . S
Gd1237 O1291 2.412 . S
Gd1237 C1304 2.828 . S
C1238 C1241 1.417 . S
C1238 C1243 1.431 . S
C1238 C1244 1.412 . S
C1239 C1242 1.437 . S
C1239 C1243 1.317 . S
C1239 H1258 0.929 . S
C1240 C1241 1.426 . S
C1240 C1242 1.413 . S
C1240 N1250 1.359 . S
C1241 C1238 1.417 . S
C1241 C1240 1.426 . S
C1241 N1246 1.350 . S
C1242 C1239 1.437 . S
C1242 C1240 1.413 . S
C1242 C1252 1.391 . S
C1243 C1238 1.431 . S
C1243 C1239 1.317 . S
C1243 H1254 0.930 . S
C1244 C1238 1.412 . S
C1244 C1245 1.355 . S
C1244 H1256 0.930 . S
C1245 C1244 1.355 . S
C1245 C1247 1.402 . S
C1245 H1257 0.930 . S
N1246 Gd1237 2.661 . S
N1246 C1241 1.350 . S
N1246 C1247 1.307 . S
C1247 C1245 1.402 . S
C1247 N1246 1.307 . S
C1247 H1248 0.930 . S
H1248 C1247 0.930 . S
C1249 N1250 1.334 . S
C1249 C1251 1.394 . S
C1249 H1253 0.930 . S
N1250 Gd1237 2.601 . S
N1250 C1240 1.359 . S
N1250 C1249 1.334 . S
C1251 C1249 1.394 . S
C1251 C1252 1.359 . S
C1251 H1263 0.930 . S
C1252 C1242 1.391 . S
C1252 C1251 1.359 . S
C1252 H1264 0.929 . S
H1253 C1249 0.930 . S
H1254 C1243 0.930 . S
H1255 C1272 0.930 . S
H1256 C1244 0.930 . S
H1257 C1245 0.930 . S
H1258 C1239 0.929 . S
H1259 C1277 0.930 . S
H1260 C1268 0.930 . S
H1261 C1269 0.930 . S
H1262 C1293 0.929 . S
H1263 C1251 0.930 . S
H1264 C1252 0.929 . S
H1265 C1294 0.930 . S
H1266 C1275 0.930 . S
N1267 Gd1236 2.661 . S
N1267 C1271 1.350 . S
N1267 C1272 1.307 . S
C1268 H1260 0.930 . S
C1268 C1269 1.355 . S
C1268 C1270 1.412 . S
C1269 H1261 0.930 . S
C1269 C1268 1.355 . S
C1269 C1272 1.402 . S
C1270 C1268 1.412 . S
C1270 C1271 1.417 . S
C1270 C1294 1.431 . S
C1271 N1267 1.350 . S
C1271 C1270 1.417 . S
C1271 C1274 1.426 . S
C1272 H1255 0.930 . S
C1272 N1267 1.307 . S
C1272 C1269 1.402 . S
N1273 Gd1236 2.601 . S
N1273 C1274 1.359 . S
N1273 C1277 1.334 . S
C1274 C1271 1.426 . S
C1274 N1273 1.359 . S
C1274 C1278 1.413 . S
C1275 H1266 0.930 . S
C1275 C1276 1.359 . S
C1275 C1277 1.394 . S
C1276 C1275 1.359 . S
C1276 C1278 1.391 . S
C1276 H1279 0.929 . S
C1277 H1259 0.930 . S
C1277 N1273 1.334 . S
C1277 C1275 1.394 . S
C1278 C1274 1.413 . S
C1278 C1276 1.391 . S
C1278 C1293 1.437 . S
H1279 C1276 0.929 . S
O1280 Gd1236 2.545 . S
O1280 C1295 1.258 . S
O1281 Gd1236 2.606 . S
O1281 Gd1237 2.362 . S
O1281 C1292 1.284 . S
O1282 Gd1237 2.324 . S
O1282 C1302 1.254 . S
O1283 Gd1236 2.429 . S
O1283 C1302 1.268 . S
O1284 Gd1236 2.545 . S
O1284 C1292 1.250 . S
O1285 Gd1236 2.412 . S
O1285 C1295 1.252 . S
O1286 Gd1237 2.545 . S
O1286 C1304 1.258 . S
O1287 Gd1236 2.362 . S
O1287 Gd1237 2.606 . S
O1287 C1303 1.284 . S
O1288 Gd1236 2.324 . S
O1288 C1311 1.254 . S
O1289 Gd1237 2.429 . S
O1289 C1311 1.268 . S
O1290 Gd1237 2.545 . S
O1290 C1303 1.250 . S
O1291 Gd1237 2.412 . S
O1291 C1304 1.252 . S
C1292 O1281 1.284 . S
C1292 O1284 1.250 . S
C1293 H1262 0.929 . S
C1293 C1278 1.437 . S
C1293 C1294 1.317 . S
C1294 H1265 0.930 . S
C1294 C1270 1.431 . S
C1294 C1293 1.317 . S
C1295 Gd1236 2.828 . S
C1295 O1280 1.258 . S
C1295 O1285 1.252 . S
C1295 C1296 1.497 . S
C1296 C1295 1.497 . S
C1296 C1297 1.395 . S
C1296 C1298 1.380 . S
C1297 C1296 1.395 . S
C1297 C1300 1.398 . S
C1297 H1312 0.930 . S
C1298 C1296 1.380 . S
C1298 C1299 1.391 . S
C1298 H1313 0.930 . S
C1299 C1298 1.391 . S
C1299 C1301 1.387 . S
C1300 C1297 1.398 . S
C1300 C1301 1.380 . S
C1300 H1314 0.930 . S
C1301 C1299 1.387 . S
C1301 C1300 1.380 . S
C1301 H1315 0.930 . S
C1302 O1282 1.254 . S
C1302 O1283 1.268 . S
C1303 O1287 1.284 . S
C1303 O1290 1.250 . S
C1304 Gd1237 2.828 . S
C1304 O1286 1.258 . S
C1304 O1291 1.252 . S
C1304 C1305 1.497 . S
C1305 C1304 1.497 . S
C1305 C1306 1.395 . S
C1305 C1307 1.380 . S
C1306 C1305 1.395 . S
C1306 C1309 1.398 . S
C1306 H1316 0.930 . S
C1307 C1305 1.380 . S
C1307 C1308 1.391 . S
C1307 H1317 0.930 . S
C1308 C1307 1.391 . S
C1308 C1310 1.387 . S
C1309 C1306 1.398 . S
C1309 C1310 1.380 . S
C1309 H1318 0.930 . S
C1310 C1308 1.387 . S
C1310 C1309 1.380 . S
C1310 H1319 0.930 . S
C1311 O1288 1.254 . S
C1311 O1289 1.268 . S
H1312 C1297 0.930 . S
H1313 C1298 0.930 . S
H1314 C1300 0.930 . S
H1315 C1301 0.930 . S
H1316 C1306 0.930 . S
H1317 C1307 0.930 . S
H1318 C1309 0.930 . S
H1319 C1310 0.930 . S
Gd1320 N1351 2.661 . S
Gd1320 N1357 2.601 . S
Gd1320 O1364 2.545 . S
Gd1320 O1365 2.606 . S
Gd1320 O1367 2.429 . S
Gd1320 O1368 2.545 . S
Gd1320 O1369 2.412 . S
Gd1320 O1371 2.362 . S
Gd1320 O1372 2.324 . S
Gd1320 C1379 2.828 . S
Gd1321 N1330 2.661 . S
Gd1321 N1334 2.601 . S
Gd1321 O1365 2.362 . S
Gd1321 O1366 2.324 . S
Gd1321 O1370 2.545 . S
Gd1321 O1371 2.606 . S
Gd1321 O1373 2.429 . S
Gd1321 O1374 2.545 . S
Gd1321 O1375 2.412 . S
Gd1321 C1388 2.828 . S
C1322 C1325 1.417 . S
C1322 C1327 1.431 . S
C1322 C1328 1.412 . S
C1323 C1326 1.437 . S
C1323 C1327 1.317 . S
C1323 H1342 0.929 . S
C1324 C1325 1.426 . S
C1324 C1326 1.413 . S
C1324 N1334 1.359 . S
C1325 C1322 1.417 . S
C1325 C1324 1.426 . S
C1325 N1330 1.350 . S
C1326 C1323 1.437 . S
C1326 C1324 1.413 . S
C1326 C1336 1.391 . S
C1327 C1322 1.431 . S
C1327 C1323 1.317 . S
C1327 H1338 0.930 . S
C1328 C1322 1.412 . S
C1328 C1329 1.355 . S
C1328 H1340 0.930 . S
C1329 C1328 1.355 . S
C1329 C1331 1.402 . S
C1329 H1341 0.930 . S
N1330 Gd1321 2.661 . S
N1330 C1325 1.350 . S
N1330 C1331 1.307 . S
C1331 C1329 1.402 . S
C1331 N1330 1.307 . S
C1331 H1332 0.930 . S
H1332 C1331 0.930 . S
C1333 N1334 1.334 . S
C1333 C1335 1.394 . S
C1333 H1337 0.930 . S
N1334 Gd1321 2.601 . S
N1334 C1324 1.359 . S
N1334 C1333 1.334 . S
C1335 C1333 1.394 . S
C1335 C1336 1.359 . S
C1335 H1347 0.930 . S
C1336 C1326 1.391 . S
C1336 C1335 1.359 . S
C1336 H1348 0.929 . S
H1337 C1333 0.930 . S
H1338 C1327 0.930 . S
H1339 C1356 0.930 . S
H1340 C1328 0.930 . S
H1341 C1329 0.930 . S
H1342 C1323 0.929 . S
H1343 C1361 0.930 . S
H1344 C1352 0.930 . S
H1345 C1353 0.930 . S
H1346 C1377 0.929 . S
H1347 C1335 0.930 . S
H1348 C1336 0.929 . S
H1349 C1378 0.930 . S
H1350 C1359 0.930 . S
N1351 Gd1320 2.661 . S
N1351 C1355 1.350 . S
N1351 C1356 1.307 . S
C1352 H1344 0.930 . S
C1352 C1353 1.355 . S
C1352 C1354 1.412 . S
C1353 H1345 0.930 . S
C1353 C1352 1.355 . S
C1353 C1356 1.402 . S
C1354 C1352 1.412 . S
C1354 C1355 1.417 . S
C1354 C1378 1.431 . S
C1355 N1351 1.350 . S
C1355 C1354 1.417 . S
C1355 C1358 1.426 . S
C1356 H1339 0.930 . S
C1356 N1351 1.307 . S
C1356 C1353 1.402 . S
N1357 Gd1320 2.601 . S
N1357 C1358 1.359 . S
N1357 C1361 1.334 . S
C1358 C1355 1.426 . S
C1358 N1357 1.359 . S
C1358 C1362 1.413 . S
C1359 H1350 0.930 . S
C1359 C1360 1.359 . S
C1359 C1361 1.394 . S
C1360 C1359 1.359 . S
C1360 C1362 1.391 . S
C1360 H1363 0.929 . S
C1361 H1343 0.930 . S
C1361 N1357 1.334 . S
C1361 C1359 1.394 . S
C1362 C1358 1.413 . S
C1362 C1360 1.391 . S
C1362 C1377 1.437 . S
H1363 C1360 0.929 . S
O1364 Gd1320 2.545 . S
O1364 C1379 1.258 . S
O1365 Gd1320 2.606 . S
O1365 Gd1321 2.362 . S
O1365 C1376 1.284 . S
O1366 Gd1321 2.324 . S
O1366 C1386 1.254 . S
O1367 Gd1320 2.429 . S
O1367 C1386 1.268 . S
O1368 Gd1320 2.545 . S
O1368 C1376 1.250 . S
O1369 Gd1320 2.412 . S
O1369 C1379 1.252 . S
O1370 Gd1321 2.545 . S
O1370 C1388 1.258 . S
O1371 Gd1320 2.362 . S
O1371 Gd1321 2.606 . S
O1371 C1387 1.284 . S
O1372 Gd1320 2.324 . S
O1372 C1395 1.254 . S
O1373 Gd1321 2.429 . S
O1373 C1395 1.268 . S
O1374 Gd1321 2.545 . S
O1374 C1387 1.250 . S
O1375 Gd1321 2.412 . S
O1375 C1388 1.252 . S
C1376 O1365 1.284 . S
C1376 O1368 1.250 . S
C1377 H1346 0.929 . S
C1377 C1362 1.437 . S
C1377 C1378 1.317 . S
C1378 H1349 0.930 . S
C1378 C1354 1.431 . S
C1378 C1377 1.317 . S
C1379 Gd1320 2.828 . S
C1379 O1364 1.258 . S
C1379 O1369 1.252 . S
C1379 C1380 1.497 . S
C1380 C1379 1.497 . S
C1380 C1381 1.395 . S
C1380 C1382 1.380 . S
C1381 C1380 1.395 . S
C1381 C1384 1.398 . S
C1381 H1396 0.930 . S
C1382 C1380 1.380 . S
C1382 C1383 1.391 . S
C1382 H1397 0.930 . S
C1383 C1382 1.391 . S
C1383 C1385 1.387 . S
C1384 C1381 1.398 . S
C1384 C1385 1.380 . S
C1384 H1398 0.930 . S
C1385 C1383 1.387 . S
C1385 C1384 1.380 . S
C1385 H1399 0.930 . S
C1386 O1366 1.254 . S
C1386 O1367 1.268 . S
C1387 O1371 1.284 . S
C1387 O1374 1.250 . S
C1388 Gd1321 2.828 . S
C1388 O1370 1.258 . S
C1388 O1375 1.252 . S
C1388 C1389 1.497 . S
C1389 C1388 1.497 . S
C1389 C1390 1.395 . S
C1389 C1391 1.380 . S
C1390 C1389 1.395 . S
C1390 C1393 1.398 . S
C1390 H1400 0.930 . S
C1391 C1389 1.380 . S
C1391 C1392 1.391 . S
C1391 H1401 0.930 . S
C1392 C1391 1.391 . S
C1392 C1394 1.387 . S
C1393 C1390 1.398 . S
C1393 C1394 1.380 . S
C1393 H1402 0.930 . S
C1394 C1392 1.387 . S
C1394 C1393 1.380 . S
C1394 H1403 0.930 . S
C1395 O1372 1.254 . S
C1395 O1373 1.268 . S
H1396 C1381 0.930 . S
H1397 C1382 0.930 . S
H1398 C1384 0.930 . S
H1399 C1385 0.930 . S
H1400 C1390 0.930 . S
H1401 C1391 0.930 . S
H1402 C1393 0.930 . S
H1403 C1394 0.930 . S
C1404 C1405 1.369 . S
C1404 C1406 1.419 . S
C1404 H1408 0.930 . S
C1405 C1404 1.369 . S
C1405 C1414 1.429 . S
C1406 C1404 1.419 . S
C1406 C1407 1.363 . S
C1406 H1409 0.929 . S
C1407 C1406 1.363 . S
C1407 C1413 1.428 . S
H1408 C1404 0.930 . S
H1409 C1406 0.929 . S
S1410 N1411 1.613 1_556 S
S1410 N1412 1.610 1_556 S
N1411 S1410 1.613 1_554 S
N1411 C1414 1.350 . S
N1412 S1410 1.610 1_554 S
N1412 C1413 1.351 . S
C1413 C1407 1.428 . S
C1413 N1412 1.351 . S
C1413 C1414 1.434 . S
C1414 C1405 1.429 . S
C1414 N1411 1.350 . S
C1414 C1413 1.434 . S
C1415 C1416 1.369 . S
C1415 C1417 1.419 . S
C1415 H1419 0.930 . S
C1416 C1415 1.369 . S
C1416 C1425 1.429 . S
C1417 C1415 1.419 . S
C1417 C1418 1.363 . S
C1417 H1420 0.929 . S
C1418 C1417 1.363 . S
C1418 C1424 1.428 . S
H1419 C1415 0.930 . S
H1420 C1417 0.929 . S
S1421 N1422 1.613 . S
S1421 N1423 1.610 . S
N1422 S1421 1.613 . S
N1422 C1425 1.350 . S
N1423 S1421 1.610 . S
N1423 C1424 1.351 . S
C1424 C1418 1.428 . S
C1424 N1423 1.351 . S
C1424 C1425 1.434 . S
C1425 C1416 1.429 . S
C1425 N1422 1.350 . S
C1425 C1424 1.434 . S
C1426 C1427 1.369 . S
C1426 C1428 1.419 . S
C1426 H1430 0.930 . S
C1427 C1426 1.369 . S
C1427 C1436 1.429 . S
C1428 C1426 1.419 . S
C1428 C1429 1.363 . S
C1428 H1431 0.929 . S
C1429 C1428 1.363 . S
C1429 C1435 1.428 . S
H1430 C1426 0.930 . S
H1431 C1428 0.929 . S
S1432 N1433 1.613 . S
S1432 N1434 1.610 . S
N1433 S1432 1.613 . S
N1433 C1436 1.350 . S
N1434 S1432 1.610 . S
N1434 C1435 1.351 . S
C1435 C1429 1.428 . S
C1435 N1434 1.351 . S
C1435 C1436 1.434 . S
C1436 C1427 1.429 . S
C1436 N1433 1.350 . S
C1436 C1435 1.434 . S
C1437 C1438 1.369 . S
C1437 C1439 1.419 . S
C1437 H1441 0.930 . S
C1438 C1437 1.369 . S
C1438 C1447 1.429 . S
C1439 C1437 1.419 . S
C1439 C1440 1.363 . S
C1439 H1442 0.929 1_556 S
C1440 C1439 1.363 . S
C1440 C1446 1.428 . S
H1441 C1437 0.930 . S
H1442 C1439 0.929 1_554 S
S1443 N1444 1.613 . S
S1443 N1445 1.610 . S
N1444 S1443 1.613 . S
N1444 C1447 1.350 . S
N1445 S1443 1.610 . S
N1445 C1446 1.351 . S
C1446 C1440 1.428 . S
C1446 N1445 1.351 . S
C1446 C1447 1.434 . S
C1447 C1438 1.429 . S
C1447 N1444 1.350 . S
C1447 C1446 1.434 . S
C1448 C1449 1.369 . S
C1448 C1450 1.419 . S
C1448 H1452 0.930 . S
C1449 C1448 1.369 . S
C1449 C1458 1.429 . S
C1450 C1448 1.419 . S
C1450 C1451 1.363 . S
C1450 H1453 0.929 . S
C1451 C1450 1.363 . S
C1451 C1457 1.428 . S
H1452 C1448 0.930 . S
H1453 C1450 0.929 . S
S1454 N1455 1.613 1_554 S
S1454 N1456 1.610 . S
N1455 S1454 1.613 1_556 S
N1455 C1458 1.350 . S
N1456 S1454 1.610 . S
N1456 C1457 1.351 1_554 S
C1457 C1451 1.428 . S
C1457 N1456 1.351 1_556 S
C1457 C1458 1.434 . S
C1458 C1449 1.429 . S
C1458 N1455 1.350 . S
C1458 C1457 1.434 . S
C1459 C1460 1.369 . S
C1459 C1461 1.419 . S
C1459 H1463 0.930 . S
C1460 C1459 1.369 . S
C1460 C1469 1.429 . S
C1461 C1459 1.419 . S
C1461 C1462 1.363 . S
C1461 H1464 0.929 . S
C1462 C1461 1.363 . S
C1462 C1468 1.428 . S
H1463 C1459 0.930 . S
H1464 C1461 0.929 . S
S1465 N1466 1.613 . S
S1465 N1467 1.610 . S
N1466 S1465 1.613 . S
N1466 C1469 1.350 . S
N1467 S1465 1.610 . S
N1467 C1468 1.351 . S
C1468 C1462 1.428 . S
C1468 N1467 1.351 . S
C1468 C1469 1.434 . S
C1469 C1460 1.429 . S
C1469 N1466 1.350 . S
C1469 C1468 1.434 . S
C1470 C1471 1.369 . S
C1470 C1472 1.419 . S
C1470 H1474 0.930 . S
C1471 C1470 1.369 . S
C1471 C1480 1.429 . S
C1472 C1470 1.419 . S
C1472 C1473 1.363 . S
C1472 H1475 0.929 . S
C1473 C1472 1.363 . S
C1473 C1479 1.428 . S
H1474 C1470 0.930 . S
H1475 C1472 0.929 . S
S1476 N1477 1.613 . S
S1476 N1478 1.610 . S
N1477 S1476 1.613 . S
N1477 C1480 1.350 . S
N1478 S1476 1.610 . S
N1478 C1479 1.351 . S
C1479 C1473 1.428 . S
C1479 N1478 1.351 . S
C1479 C1480 1.434 . S
C1480 C1471 1.429 . S
C1480 N1477 1.350 . S
C1480 C1479 1.434 . S
C1481 C1482 1.369 . S
C1481 C1483 1.419 . S
C1481 H1485 0.930 . S
C1482 C1481 1.369 . S
C1482 C1491 1.429 . S
C1483 C1481 1.419 . S
C1483 C1484 1.363 . S
C1483 H1486 0.929 . S
C1484 C1483 1.363 . S
C1484 C1490 1.428 . S
H1485 C1481 0.930 . S
H1486 C1483 0.929 . S
S1487 N1488 1.613 1_554 S
S1487 N1489 1.610 . S
N1488 S1487 1.613 1_556 S
N1488 C1491 1.350 . S
N1489 S1487 1.610 . S
N1489 C1490 1.351 1_554 S
C1490 C1484 1.428 . S
C1490 N1489 1.351 1_556 S
C1490 C1491 1.434 . S
C1491 C1482 1.429 . S
C1491 N1488 1.350 . S
C1491 C1490 1.434 . S
C1492 C1493 1.369 . S
C1492 C1494 1.419 . S
C1492 H1496 0.930 . S
C1493 C1492 1.369 . S
C1493 C1502 1.429 . S
C1494 C1492 1.419 . S
C1494 C1495 1.363 . S
C1494 H1497 0.929 . S
C1495 C1494 1.363 . S
C1495 C1501 1.428 . S
H1496 C1492 0.930 . S
H1497 C1494 0.929 . S
S1498 N1499 1.613 . S
S1498 N1500 1.610 . S
N1499 S1498 1.613 . S
N1499 C1502 1.350 . S
N1500 S1498 1.610 . S
N1500 C1501 1.351 . S
C1501 C1495 1.428 . S
C1501 N1500 1.351 . S
C1501 C1502 1.434 . S
C1502 C1493 1.429 . S
C1502 N1499 1.350 . S
C1502 C1501 1.434 . S
C1503 C1504 1.369 . S
C1503 C1505 1.419 . S
C1503 H1507 0.930 . S
C1504 C1503 1.369 . S
C1504 C1513 1.429 . S
C1505 C1503 1.419 . S
C1505 C1506 1.363 . S
C1505 H1508 0.929 . S
C1506 C1505 1.363 . S
C1506 C1512 1.428 . S
H1507 C1503 0.930 . S
H1508 C1505 0.929 . S
S1509 N1510 1.613 . S
S1509 N1511 1.610 . S
N1510 S1509 1.613 . S
N1510 C1513 1.350 . S
N1511 S1509 1.610 . S
N1511 C1512 1.351 . S
C1512 C1506 1.428 . S
C1512 N1511 1.351 . S
C1512 C1513 1.434 . S
C1513 C1504 1.429 . S
C1513 N1510 1.350 . S
C1513 C1512 1.434 . S
C1514 C1515 1.369 . S
C1514 C1516 1.419 . S
C1514 H1518 0.930 . S
C1515 C1514 1.369 . S
C1515 C1524 1.429 . S
C1516 C1514 1.419 . S
C1516 C1517 1.363 . S
C1516 H1519 0.937 . S
C1517 C1516 1.363 . S
C1517 C1523 1.428 . S
H1518 C1514 0.930 . S
H1519 C1516 0.937 . S
S1520 N1521 1.613 . S
S1520 N1522 1.610 . S
N1521 S1520 1.613 . S
N1521 C1524 1.350 . S
N1522 S1520 1.610 . S
N1522 C1523 1.351 . S
C1523 C1517 1.428 . S
C1523 N1522 1.351 . S
C1523 C1524 1.434 . S
C1524 C1515 1.429 . S
C1524 N1521 1.350 . S
C1524 C1523 1.434 . S
C1525 C1526 1.369 . S
C1525 C1527 1.419 . S
C1525 H1529 0.930 . S
C1526 C1525 1.369 . S
C1526 C1535 1.429 . S
C1527 C1525 1.419 . S
C1527 C1528 1.363 . S
C1527 H1530 0.929 . S
C1528 C1527 1.363 . S
C1528 C1534 1.428 . S
H1529 C1525 0.930 . S
H1530 C1527 0.929 . S
S1531 N1532 1.578 1_556 S
S1531 N1533 1.603 1_556 S
N1532 S1531 1.578 1_554 S
N1532 C1535 1.350 . S
N1533 S1531 1.603 1_554 S
N1533 C1534 1.351 . S
C1534 C1528 1.428 . S
C1534 N1533 1.351 . S
C1534 C1535 1.434 . S
C1535 C1526 1.429 . S
C1535 N1532 1.350 . S
C1535 C1534 1.434 . S
C1536 C1537 1.369 . S
C1536 C1538 1.419 . S
C1536 H1540 0.930 . S
C1537 C1536 1.369 . S
C1537 C1546 1.429 . S
C1538 C1536 1.419 . S
C1538 C1539 1.363 . S
C1538 H1541 0.929 . S
C1539 C1538 1.363 . S
C1539 C1545 1.428 . S
H1540 C1536 0.930 . S
H1541 C1538 0.929 . S
S1542 N1543 1.613 . S
S1542 N1544 1.610 . S
N1543 S1542 1.613 . S
N1543 C1546 1.350 . S
N1544 S1542 1.610 . S
N1544 C1545 1.351 . S
C1545 C1539 1.428 . S
C1545 N1544 1.351 . S
C1545 C1546 1.434 . S
C1546 C1537 1.429 . S
C1546 N1543 1.350 . S
C1546 C1545 1.434 . S
C1547 C1548 1.369 . S
C1547 C1549 1.419 . S
C1547 H1551 0.930 . S
C1548 C1547 1.369 . S
C1548 C1557 1.429 . S
C1549 C1547 1.419 . S
C1549 C1550 1.363 . S
C1549 H1552 0.929 . S
C1550 C1549 1.363 . S
C1550 C1556 1.428 . S
H1551 C1547 0.930 . S
H1552 C1549 0.929 . S
S1553 N1554 1.613 . S
S1553 N1555 1.610 . S
N1554 S1553 1.613 . S
N1554 C1557 1.350 . S
N1555 S1553 1.610 . S
N1555 C1556 1.351 . S
C1556 C1550 1.428 . S
C1556 N1555 1.351 . S
C1556 C1557 1.434 . S
C1557 C1548 1.429 . S
C1557 N1554 1.350 . S
C1557 C1556 1.434 . S
C1558 C1559 1.369 . S
C1558 C1560 1.419 . S
C1558 H1562 0.930 . S
C1559 C1558 1.369 . S
C1559 C1568 1.429 . S
C1560 C1558 1.419 . S
C1560 C1561 1.363 . S
C1560 H1563 0.929 . S
C1561 C1560 1.363 . S
C1561 C1567 1.428 . S
H1562 C1558 0.930 . S
H1563 C1560 0.929 . S
S1564 N1565 1.613 . S
S1564 N1566 1.610 . S
N1565 S1564 1.613 . S
N1565 C1568 1.350 . S
N1566 S1564 1.610 . S
N1566 C1567 1.351 . S
C1567 C1561 1.428 . S
C1567 N1566 1.351 . S
C1567 C1568 1.434 . S
C1568 C1559 1.429 . S
C1568 N1565 1.350 . S
C1568 C1567 1.434 . S
C1569 C1570 1.369 . S
C1569 C1571 1.419 . S
C1569 H1573 0.930 . S
C1570 C1569 1.369 . S
C1570 C1579 1.429 . S
C1571 C1569 1.419 . S
C1571 C1572 1.363 . S
C1571 H1574 0.929 . S
C1572 C1571 1.363 . S
C1572 C1578 1.428 . S
H1573 C1569 0.930 . S
H1574 C1571 0.929 . S
S1575 N1576 1.613 . S
S1575 N1577 1.610 . S
N1576 S1575 1.613 . S
N1576 C1579 1.350 . S
N1577 S1575 1.610 . S
N1577 C1578 1.351 . S
C1578 C1572 1.428 . S
C1578 N1577 1.351 . S
C1578 C1579 1.434 . S
C1579 C1570 1.429 . S
C1579 N1576 1.350 . S
C1579 C1578 1.434 . S
C1580 C1581 1.369 . S
C1580 C1582 1.419 . S
C1580 H1584 0.930 . S
C1581 C1580 1.369 . S
C1581 C1590 1.429 . S
C1582 C1580 1.419 . S
C1582 C1583 1.363 . S
C1582 H1585 0.929 . S
C1583 C1582 1.363 . S
C1583 C1589 1.428 . S
H1584 C1580 0.930 . S
H1585 C1582 0.929 . S
S1586 N1587 1.613 . S
S1586 N1588 1.610 . S
N1587 S1586 1.613 . S
N1587 C1590 1.350 . S
N1588 S1586 1.610 . S
N1588 C1589 1.351 . S
C1589 C1583 1.428 . S
C1589 N1588 1.351 . S
C1589 C1590 1.434 . S
C1590 C1581 1.429 . S
C1590 N1587 1.350 . S
C1590 C1589 1.434 . S
C1591 C1592 1.369 . S
C1591 C1593 1.419 . S
C1591 H1595 0.930 . S
C1592 C1591 1.369 . S
C1592 C1601 1.429 . S
C1593 C1591 1.419 . S
C1593 C1594 1.363 . S
C1593 H1596 0.929 . S
C1594 C1593 1.363 . S
C1594 C1600 1.428 . S
H1595 C1591 0.930 . S
H1596 C1593 0.929 . S
S1597 N1598 1.613 . S
S1597 N1599 1.610 . S
N1598 S1597 1.613 . S
N1598 C1601 1.350 . S
N1599 S1597 1.610 . S
N1599 C1600 1.351 . S
C1600 C1594 1.428 . S
C1600 N1599 1.351 . S
C1600 C1601 1.434 . S
C1601 C1592 1.429 . S
C1601 N1598 1.350 . S
C1601 C1600 1.434 . S
C1602 C1603 1.369 . S
C1602 C1604 1.419 . S
C1602 H1606 0.930 . S
C1603 C1602 1.369 . S
C1603 C1612 1.429 . S
C1604 C1602 1.419 . S
C1604 C1605 1.363 . S
C1604 H1607 0.929 . S
C1605 C1604 1.363 . S
C1605 C1611 1.428 . S
H1606 C1602 0.930 . S
H1607 C1604 0.929 . S
S1608 N1609 1.613 . S
S1608 N1610 1.610 . S
N1609 S1608 1.613 . S
N1609 C1612 1.350 . S
N1610 S1608 1.610 . S
N1610 C1611 1.351 . S
C1611 C1605 1.428 . S
C1611 N1610 1.351 . S
C1611 C1612 1.434 . S
C1612 C1603 1.429 . S
C1612 N1609 1.350 . S
C1612 C1611 1.434 . S
C1613 C1614 1.369 . S
C1613 C1615 1.419 . S
C1613 H1617 0.930 . S
C1614 C1613 1.369 . S
C1614 C1623 1.429 . S
C1615 C1613 1.419 . S
C1615 C1616 1.363 . S
C1615 H1618 0.929 . S
C1616 C1615 1.363 . S
C1616 C1622 1.428 . S
H1617 C1613 0.930 . S
H1618 C1615 0.929 . S
S1619 N1620 1.613 . S
S1619 N1621 1.610 . S
N1620 S1619 1.613 . S
N1620 C1623 1.350 . S
N1621 S1619 1.610 . S
N1621 C1622 1.351 . S
C1622 C1616 1.428 . S
C1622 N1621 1.351 . S
C1622 C1623 1.434 . S
C1623 C1614 1.429 . S
C1623 N1620 1.350 . S
C1623 C1622 1.434 . S
C1624 C1625 1.369 . S
C1624 C1626 1.419 . S
C1624 H1628 0.930 . S
C1625 C1624 1.369 . S
C1625 C1634 1.429 . S
C1626 C1624 1.419 . S
C1626 C1627 1.363 . S
C1626 H1629 0.929 . S
C1627 C1626 1.363 . S
C1627 C1633 1.428 . S
H1628 C1624 0.930 . S
H1629 C1626 0.929 . S
S1630 N1631 1.613 . S
S1630 N1632 1.610 . S
N1631 S1630 1.613 . S
N1631 C1634 1.350 . S
N1632 S1630 1.610 . S
N1632 C1633 1.351 . S
C1633 C1627 1.428 . S
C1633 N1632 1.351 . S
C1633 C1634 1.434 . S
C1634 C1625 1.429 . S
C1634 N1631 1.350 . S
C1634 C1633 1.434 . S
C1635 C1636 1.369 . S
C1635 C1637 1.419 . S
C1635 H1639 0.930 . S
C1636 C1635 1.369 . S
C1636 C1645 1.429 . S
C1637 C1635 1.419 . S
C1637 C1638 1.363 . S
C1637 H1640 0.929 . S
C1638 C1637 1.363 . S
C1638 C1644 1.428 . S
H1639 C1635 0.930 . S
H1640 C1637 0.929 . S
S1641 N1642 1.613 . S
S1641 N1643 1.610 . S
N1642 S1641 1.613 . S
N1642 C1645 1.350 . S
N1643 S1641 1.610 . S
N1643 C1644 1.351 . S
C1644 C1638 1.428 . S
C1644 N1643 1.351 . S
C1644 C1645 1.434 . S
C1645 C1636 1.429 . S
C1645 N1642 1.350 . S
C1645 C1644 1.434 . S
C1646 C1647 1.369 . S
C1646 C1648 1.419 . S
C1646 H1650 0.930 . S
C1647 C1646 1.369 . S
C1647 C1656 1.429 . S
C1648 C1646 1.419 . S
C1648 C1649 1.363 . S
C1648 H1651 0.929 . S
C1649 C1648 1.363 . S
C1649 C1655 1.428 . S
H1650 C1646 0.930 . S
H1651 C1648 0.929 . S
S1652 N1653 1.613 . S
S1652 N1654 1.610 . S
N1653 S1652 1.613 . S
N1653 C1656 1.350 . S
N1654 S1652 1.610 . S
N1654 C1655 1.351 . S
C1655 C1649 1.428 . S
C1655 N1654 1.351 . S
C1655 C1656 1.434 . S
C1656 C1647 1.429 . S
C1656 N1653 1.350 . S
C1656 C1655 1.434 . S
C1657 C1658 1.369 . S
C1657 C1659 1.419 . S
C1657 H1661 0.930 . S
C1658 C1657 1.369 . S
C1658 C1667 1.429 . S
C1659 C1657 1.419 . S
C1659 C1660 1.363 . S
C1659 H1662 0.929 . S
C1660 C1659 1.363 . S
C1660 C1666 1.428 . S
H1661 C1657 0.930 . S
H1662 C1659 0.929 . S
S1663 N1664 1.613 . S
S1663 N1665 1.610 . S
N1664 S1663 1.613 . S
N1664 C1667 1.350 . S
N1665 S1663 1.610 . S
N1665 C1666 1.351 . S
C1666 C1660 1.428 . S
C1666 N1665 1.351 . S
C1666 C1667 1.434 . S
C1667 C1658 1.429 . S
C1667 N1664 1.350 . S
C1667 C1666 1.434 . S
C1668 C1669 1.369 . S
C1668 C1670 1.419 . S
C1668 H1672 0.930 . S
C1669 C1668 1.369 . S
C1669 C1678 1.429 . S
C1670 C1668 1.419 . S
C1670 C1671 1.363 . S
C1670 H1673 0.929 . S
C1671 C1670 1.363 . S
C1671 C1677 1.428 . S
H1672 C1668 0.930 . S
H1673 C1670 0.929 . S
S1674 N1675 1.613 . S
S1674 N1676 1.610 . S
N1675 S1674 1.613 . S
N1675 C1678 1.350 . S
N1676 S1674 1.610 . S
N1676 C1677 1.351 . S
C1677 C1671 1.428 . S
C1677 N1676 1.351 . S
C1677 C1678 1.434 . S
C1678 C1669 1.429 . S
C1678 N1675 1.350 . S
C1678 C1677 1.434 . S
C1679 C1680 1.369 . S
C1679 C1681 1.419 . S
C1679 H1683 0.930 . S
C1680 C1679 1.369 . S
C1680 C1689 1.429 . S
C1681 C1679 1.419 . S
C1681 C1682 1.363 . S
C1681 H1684 0.929 . S
C1682 C1681 1.363 . S
C1682 C1688 1.428 . S
H1683 C1679 0.930 . S
H1684 C1681 0.929 . S
S1685 N1686 1.613 . S
S1685 N1687 1.610 . S
N1686 S1685 1.613 . S
N1686 C1689 1.350 . S
N1687 S1685 1.610 . S
N1687 C1688 1.351 . S
C1688 C1682 1.428 . S
C1688 N1687 1.351 . S
C1688 C1689 1.434 . S
C1689 C1680 1.429 . S
C1689 N1686 1.350 . S
C1689 C1688 1.434 . S
C1690 C1691 1.369 . S
C1690 C1692 1.419 . S
C1690 H1694 0.930 . S
C1691 C1690 1.369 . S
C1691 C1700 1.429 . S
C1692 C1690 1.419 . S
C1692 C1693 1.363 . S
C1692 H1695 0.929 . S
C1693 C1692 1.363 . S
C1693 C1699 1.428 . S
H1694 C1690 0.930 . S
H1695 C1692 0.929 . S
S1696 N1697 1.613 . S
S1696 N1698 1.610 . S
N1697 S1696 1.613 . S
N1697 C1700 1.350 . S
N1698 S1696 1.610 . S
N1698 C1699 1.351 . S
C1699 C1693 1.428 . S
C1699 N1698 1.351 . S
C1699 C1700 1.434 . S
C1700 C1691 1.429 . S
C1700 N1697 1.350 . S
C1700 C1699 1.434 . S
C1701 C1702 1.369 . S
C1701 C1703 1.419 . S
C1701 H1705 0.930 . S
C1702 C1701 1.369 . S
C1702 C1711 1.429 . S
C1703 C1701 1.419 . S
C1703 C1704 1.363 . S
C1703 H1706 0.929 . S
C1704 C1703 1.363 . S
C1704 C1710 1.428 . S
H1705 C1701 0.930 . S
H1706 C1703 0.929 . S
S1707 N1708 1.613 . S
S1707 N1709 1.610 . S
N1708 S1707 1.613 . S
N1708 C1711 1.350 . S
N1709 S1707 1.610 . S
N1709 C1710 1.351 . S
C1710 C1704 1.428 . S
C1710 N1709 1.351 . S
C1710 C1711 1.434 . S
C1711 C1702 1.429 . S
C1711 N1708 1.350 . S
C1711 C1710 1.434 . S
C1712 C1713 1.369 . S
C1712 C1714 1.419 . S
C1712 H1716 0.930 . S
C1713 C1712 1.369 . S
C1713 C1722 1.429 . S
C1714 C1712 1.419 . S
C1714 C1715 1.363 . S
C1714 H1717 0.929 . S
C1715 C1714 1.363 . S
C1715 C1721 1.428 . S
H1716 C1712 0.930 . S
H1717 C1714 0.929 . S
S1718 N1719 1.613 . S
S1718 N1720 1.610 . S
N1719 S1718 1.613 . S
N1719 C1722 1.350 . S
N1720 S1718 1.610 . S
N1720 C1721 1.351 . S
C1721 C1715 1.428 . S
C1721 N1720 1.351 . S
C1721 C1722 1.434 . S
C1722 C1713 1.429 . S
C1722 N1719 1.350 . S
C1722 C1721 1.434 . S
C1723 C1724 1.369 . S
C1723 C1725 1.419 . S
C1723 H1727 0.930 . S
C1724 C1723 1.369 . S
C1724 C1733 1.429 . S
C1725 C1723 1.419 . S
C1725 C1726 1.363 . S
C1725 H1728 0.929 . S
C1726 C1725 1.363 . S
C1726 C1732 1.428 . S
H1727 C1723 0.930 . S
H1728 C1725 0.929 . S
S1729 N1730 1.613 . S
S1729 N1731 1.610 . S
N1730 S1729 1.613 . S
N1730 C1733 1.350 . S
N1731 S1729 1.610 . S
N1731 C1732 1.351 . S
C1732 C1726 1.428 . S
C1732 N1731 1.351 . S
C1732 C1733 1.434 . S
C1733 C1724 1.429 . S
C1733 N1730 1.350 . S
C1733 C1732 1.434 . S
C1734 C1735 1.369 . S
C1734 C1736 1.419 . S
C1734 H1738 0.930 . S
C1735 C1734 1.369 . S
C1735 C1744 1.429 . S
C1736 C1734 1.419 . S
C1736 C1737 1.363 . S
C1736 H1739 0.929 . S
C1737 C1736 1.363 . S
C1737 C1743 1.428 . S
H1738 C1734 0.930 . S
H1739 C1736 0.929 . S
S1740 N1741 1.613 . S
S1740 N1742 1.610 . S
N1741 S1740 1.613 . S
N1741 C1744 1.350 . S
N1742 S1740 1.610 . S
N1742 C1743 1.351 . S
C1743 C1737 1.428 . S
C1743 N1742 1.351 . S
C1743 C1744 1.434 . S
C1744 C1735 1.429 . S
C1744 N1741 1.350 . S
C1744 C1743 1.434 . S
C1745 C1746 1.369 . S
C1745 C1747 1.419 . S
C1745 H1749 0.930 . S
C1746 C1745 1.369 . S
C1746 C1755 1.429 . S
C1747 C1745 1.419 . S
C1747 C1748 1.363 . S
C1747 H1750 0.929 . S
C1748 C1747 1.363 . S
C1748 C1754 1.428 . S
H1749 C1745 0.930 . S
H1750 C1747 0.929 . S
S1751 N1752 1.613 . S
S1751 N1753 1.610 . S
N1752 S1751 1.613 . S
N1752 C1755 1.350 . S
N1753 S1751 1.610 . S
N1753 C1754 1.351 . S
C1754 C1748 1.428 . S
C1754 N1753 1.351 . S
C1754 C1755 1.434 . S
C1755 C1746 1.429 . S
C1755 N1752 1.350 . S
C1755 C1754 1.434 . S
C1756 C1757 1.369 . S
C1756 C1758 1.419 . S
C1756 H1760 0.930 . S
C1757 C1756 1.369 . S
C1757 C1766 1.429 . S
C1758 C1756 1.419 . S
C1758 C1759 1.363 . S
C1758 H1761 0.929 . S
C1759 C1758 1.363 . S
C1759 C1765 1.428 . S
H1760 C1756 0.930 . S
H1761 C1758 0.929 . S
S1762 N1763 1.613 . S
S1762 N1764 1.610 . S
N1763 S1762 1.613 . S
N1763 C1766 1.350 . S
N1764 S1762 1.610 . S
N1764 C1765 1.351 . S
C1765 C1759 1.428 . S
C1765 N1764 1.351 . S
C1765 C1766 1.434 . S
C1766 C1757 1.429 . S
C1766 N1763 1.350 . S
C1766 C1765 1.434 . S
C1767 C1768 1.369 . S
C1767 C1769 1.419 . S
C1767 H1771 0.930 . S
C1768 C1767 1.369 . S
C1768 C1777 1.429 . S
C1769 C1767 1.419 . S
C1769 C1770 1.363 . S
C1769 H1772 0.929 . S
C1770 C1769 1.363 . S
C1770 C1776 1.428 . S
H1771 C1767 0.930 . S
H1772 C1769 0.929 . S
S1773 N1774 1.613 . S
S1773 N1775 1.610 . S
N1774 S1773 1.613 . S
N1774 C1777 1.350 . S
N1775 S1773 1.610 . S
N1775 C1776 1.351 . S
C1776 C1770 1.428 . S
C1776 N1775 1.351 . S
C1776 C1777 1.434 . S
C1777 C1768 1.429 . S
C1777 N1774 1.350 . S
C1777 C1776 1.434 . S
C1778 C1779 1.369 . S
C1778 C1780 1.419 . S
C1778 H1782 0.930 . S
C1779 C1778 1.369 . S
C1779 C1788 1.429 . S
C1780 C1778 1.419 . S
C1780 C1781 1.363 . S
C1780 H1783 0.929 . S
C1781 C1780 1.363 . S
C1781 C1787 1.428 . S
H1782 C1778 0.930 . S
H1783 C1780 0.929 . S
S1784 N1785 1.613 . S
S1784 N1786 1.610 . S
N1785 S1784 1.613 . S
N1785 C1788 1.350 . S
N1786 S1784 1.610 . S
N1786 C1787 1.351 . S
C1787 C1781 1.428 . S
C1787 N1786 1.351 . S
C1787 C1788 1.434 . S
C1788 C1779 1.429 . S
C1788 N1785 1.350 . S
C1788 C1787 1.434 . S
C1789 C1790 1.369 . S
C1789 C1791 1.419 . S
C1789 H1793 0.930 . S
C1790 C1789 1.369 . S
C1790 C1799 1.429 . S
C1791 C1789 1.419 . S
C1791 C1792 1.363 . S
C1791 H1794 0.929 . S
C1792 C1791 1.363 . S
C1792 C1798 1.428 . S
H1793 C1789 0.930 . S
H1794 C1791 0.929 . S
S1795 N1796 1.613 . S
S1795 N1797 1.610 . S
N1796 S1795 1.613 . S
N1796 C1799 1.350 . S
N1797 S1795 1.610 . S
N1797 C1798 1.351 . S
C1798 C1792 1.428 . S
C1798 N1797 1.351 . S
C1798 C1799 1.434 . S
C1799 C1790 1.429 . S
C1799 N1796 1.350 . S
C1799 C1798 1.434 . S
C1800 C1801 1.369 . S
C1800 C1802 1.419 . S
C1800 H1804 0.930 . S
C1801 C1800 1.369 . S
C1801 C1810 1.429 . S
C1802 C1800 1.419 . S
C1802 C1803 1.363 . S
C1802 H1805 0.929 . S
C1803 C1802 1.363 . S
C1803 C1809 1.428 . S
H1804 C1800 0.930 . S
H1805 C1802 0.929 . S
S1806 N1807 1.584 1_545 S
S1806 N1808 1.610 . S
N1807 S1806 1.584 1_565 S
N1807 C1810 1.372 . S
N1808 S1806 1.610 . S
N1808 C1809 1.351 1_545 S
C1809 C1803 1.428 . S
C1809 N1808 1.351 1_565 S
C1809 C1810 1.434 . S
C1810 C1801 1.429 . S
C1810 N1807 1.372 . S
C1810 C1809 1.434 . S
C1811 C1812 1.369 . S
C1811 C1813 1.419 . S
C1811 H1815 0.930 . S
C1812 C1811 1.369 . S
C1812 C1821 1.429 . S
C1813 C1811 1.419 . S
C1813 C1814 1.363 . S
C1813 H1816 0.929 . S
C1814 C1813 1.363 . S
C1814 C1820 1.428 . S
H1815 C1811 0.930 . S
H1816 C1813 0.929 . S
S1817 N1818 1.613 . S
S1817 N1819 1.610 . S
N1818 S1817 1.613 . S
N1818 C1821 1.350 1_655 S
N1819 S1817 1.610 . S
N1819 C1820 1.351 1_655 S
C1820 C1814 1.428 . S
C1820 N1819 1.351 1_455 S
C1820 C1821 1.434 . S
C1821 C1812 1.429 . S
C1821 N1818 1.350 1_455 S
C1821 C1820 1.434 . S
C1822 C1823 1.369 . S
C1822 C1824 1.419 . S
C1822 H1826 0.930 . S
C1823 C1822 1.369 . S
C1823 C1832 1.429 . S
C1824 C1822 1.419 . S
C1824 C1825 1.363 . S
C1824 H1827 0.929 . S
C1825 C1824 1.363 . S
C1825 C1831 1.428 . S
H1826 C1822 0.930 . S
H1827 C1824 0.929 . S
S1828 N1829 1.613 . S
S1828 N1830 1.610 . S
N1829 S1828 1.613 . S
N1829 C1832 1.350 . S
N1830 S1828 1.610 . S
N1830 C1831 1.351 . S
C1831 C1825 1.428 . S
C1831 N1830 1.351 . S
C1831 C1832 1.434 . S
C1832 C1823 1.429 . S
C1832 N1829 1.350 . S
C1832 C1831 1.434 . S
C1833 C1834 1.369 . S
C1833 C1835 1.419 . S
C1833 H1837 0.930 . S
C1834 C1833 1.369 . S
C1834 C1843 1.429 . S
C1835 C1833 1.419 . S
C1835 C1836 1.363 . S
C1835 H1838 0.929 . S
C1836 C1835 1.363 . S
C1836 C1842 1.428 . S
H1837 C1833 0.930 . S
H1838 C1835 0.929 . S
S1839 N1840 1.613 . S
S1839 N1841 1.610 . S
N1840 S1839 1.613 . S
N1840 C1843 1.350 . S
N1841 S1839 1.610 . S
N1841 C1842 1.351 . S
C1842 C1836 1.428 . S
C1842 N1841 1.351 . S
C1842 C1843 1.434 . S
C1843 C1834 1.429 . S
C1843 N1840 1.350 . S
C1843 C1842 1.434 . S
C1844 C1845 1.369 . S
C1844 C1846 1.419 . S
C1844 H1848 0.930 . S
C1845 C1844 1.369 . S
C1845 C1854 1.429 . S
C1846 C1844 1.419 . S
C1846 C1847 1.363 . S
C1846 H1849 0.929 . S
C1847 C1846 1.363 . S
C1847 C1853 1.428 . S
H1848 C1844 0.930 . S
H1849 C1846 0.929 . S
S1850 N1851 1.613 . S
S1850 N1852 1.610 . S
N1851 S1850 1.613 . S
N1851 C1854 1.350 . S
N1852 S1850 1.610 . S
N1852 C1853 1.351 . S
C1853 C1847 1.428 . S
C1853 N1852 1.351 . S
C1853 C1854 1.434 . S
C1854 C1845 1.429 . S
C1854 N1851 1.350 . S
C1854 C1853 1.434 . S
C1855 C1856 1.369 . S
C1855 C1857 1.419 . S
C1855 H1859 0.930 . S
C1856 C1855 1.369 . S
C1856 C1865 1.429 . S
C1857 C1855 1.419 . S
C1857 C1858 1.363 . S
C1857 H1860 0.929 . S
C1858 C1857 1.363 . S
C1858 C1864 1.428 . S
H1859 C1855 0.930 . S
H1860 C1857 0.929 . S
S1861 N1862 1.613 1_565 S
S1861 N1863 1.610 . S
N1862 S1861 1.613 1_545 S
N1862 C1865 1.350 . S
N1863 S1861 1.610 . S
N1863 C1864 1.351 1_565 S
C1864 C1858 1.428 . S
C1864 N1863 1.351 1_545 S
C1864 C1865 1.434 . S
C1865 C1856 1.429 . S
C1865 N1862 1.350 . S
C1865 C1864 1.434 . S
C1866 C1867 1.369 . S
C1866 C1868 1.419 . S
C1866 H1870 0.930 . S
C1867 C1866 1.369 . S
C1867 C1876 1.429 . S
C1868 C1866 1.419 . S
C1868 C1869 1.363 . S
C1868 H1871 0.929 . S
C1869 C1868 1.363 . S
C1869 C1875 1.428 . S
H1870 C1866 0.930 . S
H1871 C1868 0.929 . S
S1872 N1873 1.613 . S
S1872 N1874 1.610 . S
N1873 S1872 1.613 . S
N1873 C1876 1.350 . S
N1874 S1872 1.610 . S
N1874 C1875 1.351 . S
C1875 C1869 1.428 . S
C1875 N1874 1.351 . S
C1875 C1876 1.434 . S
C1876 C1867 1.429 . S
C1876 N1873 1.350 . S
C1876 C1875 1.434 . S
C1877 C1878 1.369 . S
C1877 C1879 1.419 . S
C1877 H1881 0.930 . S
C1878 C1877 1.369 . S
C1878 C1887 1.429 . S
C1879 C1877 1.419 . S
C1879 C1880 1.363 . S
C1879 H1882 0.929 . S
C1880 C1879 1.363 . S
C1880 C1886 1.428 . S
H1881 C1877 0.930 . S
H1882 C1879 0.929 . S
S1883 N1884 1.613 . S
S1883 N1885 1.610 . S
N1884 S1883 1.613 . S
N1884 C1887 1.350 . S
N1885 S1883 1.610 . S
N1885 C1886 1.351 . S
C1886 C1880 1.428 . S
C1886 N1885 1.351 . S
C1886 C1887 1.434 . S
C1887 C1878 1.429 . S
C1887 N1884 1.350 . S
C1887 C1886 1.434 . S
C1888 C1889 1.369 . S
C1888 C1890 1.419 . S
C1888 H1892 0.930 . S
C1889 C1888 1.369 . S
C1889 C1898 1.429 . S
C1890 C1888 1.419 . S
C1890 C1891 1.363 . S
C1890 H1893 0.929 . S
C1891 C1890 1.363 . S
C1891 C1897 1.428 . S
H1892 C1888 0.930 . S
H1893 C1890 0.929 . S
S1894 N1895 1.613 . S
S1894 N1896 1.610 . S
N1895 S1894 1.613 . S
N1895 C1898 1.350 . S
N1896 S1894 1.610 . S
N1896 C1897 1.351 . S
C1897 C1891 1.428 . S
C1897 N1896 1.351 . S
C1897 C1898 1.434 . S
C1898 C1889 1.429 . S
C1898 N1895 1.350 . S
C1898 C1897 1.434 . S
C1899 C1900 1.369 . S
C1899 C1901 1.419 . S
C1899 H1903 0.930 . S
C1900 C1899 1.369 . S
C1900 C1909 1.429 . S
C1901 C1899 1.419 . S
C1901 C1902 1.363 . S
C1901 H1904 0.929 . S
C1902 C1901 1.363 . S
C1902 C1908 1.428 . S
H1903 C1899 0.930 . S
H1904 C1901 0.929 . S
S1905 N1906 1.613 . S
S1905 N1907 1.610 . S
N1906 S1905 1.613 . S
N1906 C1909 1.350 . S
N1907 S1905 1.610 . S
N1907 C1908 1.351 . S
C1908 C1902 1.428 . S
C1908 N1907 1.351 . S
C1908 C1909 1.434 . S
C1909 C1900 1.429 . S
C1909 N1906 1.350 . S
C1909 C1908 1.434 . S
C1910 C1911 1.369 . S
C1910 C1912 1.419 . S
C1910 H1914 0.930 . S
C1911 C1910 1.369 . S
C1911 C1920 1.429 . S
C1912 C1910 1.419 . S
C1912 C1913 1.363 . S
C1912 H1915 0.929 . S
C1913 C1912 1.363 . S
C1913 C1919 1.428 . S
H1914 C1910 0.930 . S
H1915 C1912 0.929 . S
S1916 N1917 1.613 . S
S1916 N1918 1.610 . S
N1917 S1916 1.613 . S
N1917 C1920 1.350 . S
N1918 S1916 1.610 . S
N1918 C1919 1.351 . S
C1919 C1913 1.428 . S
C1919 N1918 1.351 . S
C1919 C1920 1.434 . S
C1920 C1911 1.429 . S
C1920 N1917 1.350 . S
C1920 C1919 1.434 . S
C1921 C1922 1.369 . S
C1921 C1923 1.419 . S
C1921 H1925 0.930 . S
C1922 C1921 1.369 . S
C1922 C1931 1.429 . S
C1923 C1921 1.419 . S
C1923 C1924 1.363 . S
C1923 H1926 0.929 . S
C1924 C1923 1.363 . S
C1924 C1930 1.428 . S
H1925 C1921 0.930 . S
H1926 C1923 0.929 . S
S1927 N1928 1.613 . S
S1927 N1929 1.610 . S
N1928 S1927 1.613 . S
N1928 C1931 1.350 . S
N1929 S1927 1.610 . S
N1929 C1930 1.351 . S
C1930 C1924 1.428 . S
C1930 N1929 1.351 . S
C1930 C1931 1.434 . S
C1931 C1922 1.429 . S
C1931 N1928 1.350 . S
C1931 C1930 1.434 . S
C1932 C1933 1.369 . S
C1932 C1934 1.419 . S
C1932 H1936 0.930 . S
C1933 C1932 1.369 . S
C1933 C1942 1.429 . S
C1934 C1932 1.419 . S
C1934 C1935 1.363 . S
C1934 H1937 0.929 . S
C1935 C1934 1.363 . S
C1935 C1941 1.428 . S
H1936 C1932 0.930 . S
H1937 C1934 0.929 . S
S1938 N1939 1.613 . S
S1938 N1940 1.610 . S
N1939 S1938 1.613 . S
N1939 C1942 1.350 . S
N1940 S1938 1.610 . S
N1940 C1941 1.351 . S
C1941 C1935 1.428 . S
C1941 N1940 1.351 . S
C1941 C1942 1.434 . S
C1942 C1933 1.429 . S
C1942 N1939 1.350 . S
C1942 C1941 1.434 . S
C1943 C1944 1.369 . S
C1943 C1945 1.419 . S
C1943 H1947 0.930 . S
C1944 C1943 1.369 . S
C1944 C1953 1.429 . S
C1945 C1943 1.419 . S
C1945 C1946 1.363 . S
C1945 H1948 0.929 . S
C1946 C1945 1.363 . S
C1946 C1952 1.428 . S
H1947 C1943 0.930 . S
H1948 C1945 0.929 . S
S1949 N1950 1.613 . S
S1949 N1951 1.610 . S
N1950 S1949 1.613 . S
N1950 C1953 1.350 . S
N1951 S1949 1.610 . S
N1951 C1952 1.351 . S
C1952 C1946 1.428 . S
C1952 N1951 1.351 . S
C1952 C1953 1.434 . S
C1953 C1944 1.429 . S
C1953 N1950 1.350 . S
C1953 C1952 1.434 . S
C1954 C1955 1.369 . S
C1954 C1956 1.419 . S
C1954 H1958 0.930 . S
C1955 C1954 1.369 . S
C1955 C1964 1.429 . S
C1956 C1954 1.419 . S
C1956 C1957 1.363 . S
C1956 H1959 0.929 . S
C1957 C1956 1.363 . S
C1957 C1963 1.428 . S
H1958 C1954 0.930 . S
H1959 C1956 0.929 . S
S1960 N1961 1.613 . S
S1960 N1962 1.610 . S
N1961 S1960 1.613 . S
N1961 C1964 1.350 . S
N1962 S1960 1.610 . S
N1962 C1963 1.351 . S
C1963 C1957 1.428 . S
C1963 N1962 1.351 . S
C1963 C1964 1.434 . S
C1964 C1955 1.429 . S
C1964 N1961 1.350 . S
C1964 C1963 1.434 . S
C1965 C1966 1.369 . S
C1965 C1967 1.419 . S
C1965 H1969 0.930 . S
C1966 C1965 1.369 . S
C1966 C1975 1.429 . S
C1967 C1965 1.419 . S
C1967 C1968 1.363 . S
C1967 H1970 0.929 . S
C1968 C1967 1.363 . S
C1968 C1974 1.428 . S
H1969 C1965 0.930 . S
H1970 C1967 0.929 . S
S1971 N1972 1.613 . S
S1971 N1973 1.610 . S
N1972 S1971 1.613 . S
N1972 C1975 1.350 . S
N1973 S1971 1.610 . S
N1973 C1974 1.351 . S
C1974 C1968 1.428 . S
C1974 N1973 1.351 . S
C1974 C1975 1.434 . S
C1975 C1966 1.429 . S
C1975 N1972 1.350 . S
C1975 C1974 1.434 . S
C1976 C1977 1.369 . S
C1976 C1978 1.419 . S
C1976 H1980 0.930 . S
C1977 C1976 1.369 . S
C1977 C1986 1.429 . S
C1978 C1976 1.419 . S
C1978 C1979 1.363 . S
C1978 H1981 0.929 . S
C1979 C1978 1.363 . S
C1979 C1985 1.428 . S
H1980 C1976 0.930 . S
H1981 C1978 0.929 . S
S1982 N1983 1.613 . S
S1982 N1984 1.610 . S
N1983 S1982 1.613 . S
N1983 C1986 1.350 . S
N1984 S1982 1.610 . S
N1984 C1985 1.351 . S
C1985 C1979 1.428 . S
C1985 N1984 1.351 . S
C1985 C1986 1.434 . S
C1986 C1977 1.429 . S
C1986 N1983 1.350 . S
C1986 C1985 1.434 . S
C1987 C1988 1.369 . S
C1987 C1989 1.419 . S
C1987 H1991 0.930 . S
C1988 C1987 1.369 . S
C1988 C1997 1.429 . S
C1989 C1987 1.419 . S
C1989 C1990 1.363 . S
C1989 H1992 0.929 . S
C1990 C1989 1.363 . S
C1990 C1996 1.428 . S
H1991 C1987 0.930 . S
H1992 C1989 0.929 . S
S1993 N1994 1.613 . S
S1993 N1995 1.610 . S
N1994 S1993 1.613 . S
N1994 C1997 1.350 . S
N1995 S1993 1.610 . S
N1995 C1996 1.351 . S
C1996 C1990 1.428 . S
C1996 N1995 1.351 . S
C1996 C1997 1.434 . S
C1997 C1988 1.429 . S
C1997 N1994 1.350 . S
C1997 C1996 1.434 . S
C1405 C469 1.487 . S
C1407 C704 1.402 . S
C1416 C505 1.495 . S
C1418 C788 1.420 . S
C1427 C433 1.519 . S
C1429 C882 1.458 . S
C1438 C397 1.477 . S
C1440 C798 1.418 . S
C1451 C872 1.366 . S
C1449 C325 1.443 . S
C1460 C361 1.470 . S
C1462 C714 1.409 . S
C1473 C715 1.405 . S
C1471 C421 1.486 . S
C1484 C799 1.420 . S
C1482 C349 1.495 . S
C1493 C385 1.520 . S
C1495 C891 1.454 . S
C1504 C493 1.475 . S
C1506 C807 1.417 . S
C1515 C529 1.443 . S
C1517 C883 1.362 . S
C1528 C723 1.407 . S
C1526 C457 1.473 . S
C1539 C956 1.399 . S
C1537 C37 1.485 1_455 S
C1548 C73 1.496 . S
C1550 C1040 1.415 . S
C1559 C1 1.523 1_565 S
C1561 C1134 1.450 . S
C1570 C613 1.475 . S
C1572 C1050 1.422 . S
C1581 C541 1.443 . S
C1583 C1124 1.364 . S
C1592 C577 1.472 . S
C1594 C966 1.403 . S
C1603 C637 1.486 . S
C1605 C967 1.406 . S
C1614 C565 1.496 . S
C1616 C1051 1.424 . S
C1627 C1143 1.455 . S
C1625 C601 1.519 . S
C1636 C61 1.477 1_565 S
C1638 C1059 1.417 . S
C1649 C1135 1.360 . S
C1647 C97 1.442 1_455 S
C1658 C25 1.473 . S
C1660 C975 1.403 . S
C1671 C1208 1.397 . S
C1669 C253 1.487 . S
C1680 C289 1.496 . S
C1682 C1292 1.416 . S
C1693 C1386 1.458 . S
C1691 C217 1.520 . S
C1704 C1302 1.419 . S
C1702 C181 1.476 1_545 S
C1715 C1376 1.358 . S
C1713 C109 1.444 1_655 S
C1724 C145 1.470 . S
C1726 C1218 1.407 . S
C1735 C205 1.486 1_655 S
C1737 C1219 1.398 . S
C1746 C133 1.493 . S
C1748 C1303 1.416 . S
C1759 C1395 1.456 . S
C1757 C169 1.521 1_545 S
C1768 C277 1.474 . S
C1770 C1311 1.421 . S
C1779 C313 1.443 . S
C1781 C1387 1.361 . S
C1790 C241 1.474 . S
C1792 C1227 1.402 . S
C1801 C571 1.472 . S
C1803 C711 1.371 . S
C1814 C795 1.362 . S
C1812 C607 1.516 . S
C1823 C643 1.491 . S
C1825 C888 1.368 . S
C1834 C247 1.517 . S
C1836 C804 1.371 . S
C1845 C283 1.491 . S
C1847 C879 1.362 . S
C1858 C720 1.373 . S
C1856 C319 1.473 . S
C1867 C139 1.472 . S
C1869 C963 1.372 . S
C1878 C175 1.517 . S
C1880 C1047 1.371 . S
C1889 C211 1.491 . S
C1891 C1140 1.360 . S
C1900 C463 1.517 . S
C1902 C1056 1.371 . S
C1913 C1131 1.367 . S
C1911 C499 1.492 . S
C1922 C535 1.476 . S
C1924 C972 1.381 . S
C1933 C355 1.473 . S
C1935 C1215 1.373 . S
C1944 C391 1.517 . S
C1946 C1299 1.373 . S
C1957 C1392 1.366 . S
C1955 C427 1.491 . S
C1966 C31 1.517 . S
C1968 C1308 1.371 . S
C1977 C67 1.492 . S
C1979 C1383 1.367 . S
C1988 C103 1.476 . S
C1990 C1224 1.380 . S
