# Generated by pormake.
# Topology nom, (4,4)-cn, num edge types: 1
# Building blocks:
#     Node 0, Type 0, BuildingBlock: NAWXER_clean_linker_0, # of connection points: 4
#     Node 1, Type 0, BuildingBlock: NAWXER_clean_linker_0, # of connection points: 4
#     Node 2, Type 0, BuildingBlock: NAWXER_clean_linker_0, # of connection points: 4
#     Node 3, Type 0, BuildingBlock: NAWXER_clean_linker_0, # of connection points: 4
#     Node 4, Type 0, BuildingBlock: NAWXER_clean_linker_0, # of connection points: 4
#     Node 5, Type 0, BuildingBlock: NAWXER_clean_linker_0, # of connection points: 4
#     Node 6, Type 1, BuildingBlock: TATPOV_clean_sbu_0, # of connection points: 4
#     Node 7, Type 1, BuildingBlock: TATPOV_clean_sbu_0, # of connection points: 4
#     Node 8, Type 1, BuildingBlock: TATPOV_clean_sbu_0, # of connection points: 4
#     Node 9, Type 1, BuildingBlock: TATPOV_clean_sbu_0, # of connection points: 4
#     Node 10, Type 1, BuildingBlock: TATPOV_clean_sbu_0, # of connection points: 4
#     Node 11, Type 1, BuildingBlock: TATPOV_clean_sbu_0, # of connection points: 4
#     Edge 12, Type (0, 1), BuildingBlock: EZIPEK_clean_linker_0, # of connection points: 2
#     Edge 13, Type (0, 1), BuildingBlock: EZIPEK_clean_linker_0, # of connection points: 2
#     Edge 14, Type (0, 1), BuildingBlock: EZIPEK_clean_linker_0, # of connection points: 2
#     Edge 15, Type (0, 1), BuildingBlock: EZIPEK_clean_linker_0, # of connection points: 2
#     Edge 16, Type (0, 1), BuildingBlock: EZIPEK_clean_linker_0, # of connection points: 2
#     Edge 17, Type (0, 1), BuildingBlock: EZIPEK_clean_linker_0, # of connection points: 2
#     Edge 18, Type (0, 1), BuildingBlock: EZIPEK_clean_linker_0, # of connection points: 2
#     Edge 19, Type (0, 1), BuildingBlock: EZIPEK_clean_linker_0, # of connection points: 2
#     Edge 20, Type (0, 1), BuildingBlock: EZIPEK_clean_linker_0, # of connection points: 2
#     Edge 21, Type (0, 1), BuildingBlock: EZIPEK_clean_linker_0, # of connection points: 2
#     Edge 22, Type (0, 1), BuildingBlock: EZIPEK_clean_linker_0, # of connection points: 2
#     Edge 23, Type (0, 1), BuildingBlock: EZIPEK_clean_linker_0, # of connection points: 2
#     Edge 24, Type (0, 1), BuildingBlock: EZIPEK_clean_linker_0, # of connection points: 2
#     Edge 25, Type (0, 1), BuildingBlock: EZIPEK_clean_linker_0, # of connection points: 2
#     Edge 26, Type (0, 1), BuildingBlock: EZIPEK_clean_linker_0, # of connection points: 2
#     Edge 27, Type (0, 1), BuildingBlock: EZIPEK_clean_linker_0, # of connection points: 2
#     Edge 28, Type (0, 1), BuildingBlock: EZIPEK_clean_linker_0, # of connection points: 2
#     Edge 29, Type (0, 1), BuildingBlock: EZIPEK_clean_linker_0, # of connection points: 2
#     Edge 30, Type (0, 1), BuildingBlock: EZIPEK_clean_linker_0, # of connection points: 2
#     Edge 31, Type (0, 1), BuildingBlock: EZIPEK_clean_linker_0, # of connection points: 2
#     Edge 32, Type (0, 1), BuildingBlock: EZIPEK_clean_linker_0, # of connection points: 2
#     Edge 33, Type (0, 1), BuildingBlock: EZIPEK_clean_linker_0, # of connection points: 2
#     Edge 34, Type (0, 1), BuildingBlock: EZIPEK_clean_linker_0, # of connection points: 2
#     Edge 35, Type (0, 1), BuildingBlock: EZIPEK_clean_linker_0, # of connection points: 2
# Relax obj value: 0.025
# Max RMSD: 0.117
# Mean RMSD: 0.110
data_MOF--net-nom--node1-TATPOV_clean_sbu_0--node2-NAWXER_clean_linker_0--edge1-EZIPEK_clean_linker_0
_symmetry_space_group_name_H-M    P1
_symmetry_Int_Tables_number       1
_symmetry_cell_setting            triclinic
loop_
_symmetry_equiv_pos_as_xyz
'x, y, z'
_cell_length_a     40.450909
_cell_length_b     41.015844
_cell_length_c     44.356675
_cell_angle_alpha  90.43579
_cell_angle_beta   90.716092
_cell_angle_gamma 120.02617
loop_
_atom_site_label
_atom_site_type_symbol
_atom_site_fract_x
_atom_site_fract_y
_atom_site_fract_z
_atom_type_partial_charge
C0 C 0.87685 0.44666 0.33112 0.0
C1 C 0.86758 0.43664 0.36134 0.0
C2 C 0.91077 0.4512 0.3195 0.0
C3 C 0.93485 0.44307 0.33714 0.0
C4 C 0.8914 0.42844 0.37904 0.0
C5 C 0.92433 0.43102 0.3669 0.0
C6 C 0.97392 0.45357 0.32731 0.0
C7 C 0.89473 0.38737 0.25027 0.0
C8 C 0.90174 0.4098 0.22472 0.0
C9 C 0.92202 0.39932 0.27375 0.0
C10 C 0.95626 0.43399 0.27193 0.0
C11 C 0.9368 0.4431 0.22217 0.0
C12 C 0.96386 0.45503 0.2455 0.0
C13 C 0.98393 0.4502 0.29747 0.0
C14 C 0.15832 0.54721 0.3073 0.0
C15 C 0.16149 0.56607 0.28021 0.0
C16 C 0.12279 0.51773 0.31611 0.0
C17 C 0.08965 0.50907 0.29919 0.0
C18 C 0.1296 0.55241 0.26076 0.0
C19 C 0.0939 0.52477 0.2704 0.0
C20 C 0.05039 0.48678 0.31126 0.0
C21 C 0.11881 0.57023 0.38736 0.0
C22 C 0.11385 0.55372 0.41584 0.0
C23 C 0.09465 0.54977 0.3631 0.0
C24 C 0.06728 0.51148 0.3662 0.0
C25 C 0.08515 0.51604 0.41927 0.0
C26 C 0.0625 0.49504 0.39464 0.0
C27 C 0.04025 0.4892 0.34138 0.0
H28 H 0.85911 0.45354 0.31713 0.0
H29 H 0.91885 0.46308 0.29732 0.0
H30 H 0.8851 0.4211 0.40251 0.0
H31 H 0.94263 0.42536 0.38132 0.0
H32 H 0.86778 0.36143 0.25241 0.0
H33 H 0.91589 0.38227 0.29367 0.0
H34 H 0.94265 0.4606 0.20254 0.0
H35 H 0.9901 0.48172 0.24341 0.0
H36 H 0.18283 0.55654 0.32233 0.0
H37 H 0.12098 0.50398 0.33725 0.0
H38 H 0.13164 0.56576 0.23933 0.0
H39 H 0.06929 0.51779 0.25606 0.0
H40 H 0.14052 0.59935 0.3842 0.0
H41 H 0.09746 0.56386 0.34194 0.0
H42 H 0.08033 0.50283 0.44107 0.0
H43 H 0.04076 0.46593 0.3979 0.0
N44 N 0.00259 0.4722 0.34794 0.0
N45 N 0.0216 0.46707 0.29086 0.0
C46 C 0.41524 0.89172 0.50301 0.0
C47 C 0.42211 0.87805 0.52982 0.0
C48 C 0.44336 0.92571 0.49132 0.0
C49 C 0.47911 0.94645 0.50603 0.0
C50 C 0.45781 0.89843 0.54454 0.0
C51 C 0.48603 0.9326 0.53283 0.0
C52 C 0.50705 0.98461 0.49555 0.0
C53 C 0.49893 0.90518 0.42289 0.0
C54 C 0.48136 0.90764 0.39623 0.0
C55 C 0.51062 0.93326 0.44521 0.0
C56 C 0.50481 0.96403 0.44106 0.0
C57 C 0.47683 0.93896 0.39163 0.0
C58 C 0.48864 0.96706 0.41381 0.0
C59 C 0.51552 0.99323 0.46487 0.0
C60 C 0.60335 0.16519 0.46663 0.0
C61 C 0.58426 0.16969 0.44174 0.0
C62 C 0.59151 0.12927 0.47791 0.0
C63 C 0.55974 0.09741 0.46492 0.0
C64 C 0.55363 0.13781 0.428 0.0
C65 C 0.54145 0.10208 0.43952 0.0
C66 C 0.54494 0.05892 0.47691 0.0
C67 C 0.5383 0.12251 0.56017 0.0
C68 C 0.561 0.12226 0.58427 0.0
C69 C 0.53287 0.10061 0.53429 0.0
C70 C 0.5502 0.07837 0.5323 0.0
C71 C 0.57956 0.10127 0.58173 0.0
C72 C 0.5739 0.0792 0.556 0.0
C73 C 0.53959 0.05021 0.50789 0.0
H74 H 0.38779 0.87637 0.49144 0.0
H75 H 0.43659 0.93634 0.47131 0.0
H76 H 0.46352 0.88818 0.56527 0.0
H77 H 0.51309 0.94844 0.54486 0.0
H78 H 0.50287 0.88126 0.4266 0.0
H79 H 0.52394 0.93082 0.46574 0.0
H80 H 0.46345 0.94127 0.37106 0.0
H81 H 0.48417 0.99064 0.41 0.0
H82 H 0.62735 0.18949 0.47731 0.0
H83 H 0.60722 0.12653 0.4967 0.0
H84 H 0.53874 0.14071 0.40865 0.0
H85 H 0.51712 0.07806 0.42884 0.0
H86 H 0.52363 0.13844 0.56194 0.0
H87 H 0.51386 0.0997 0.51646 0.0
H88 H 0.59703 0.10071 0.60021 0.0
H89 H 0.58707 0.06182 0.55497 0.0
N90 N 0.52041 0.01346 0.51591 0.0
N91 N 0.53326 0.02995 0.45669 0.0
C92 C 0.57806 0.47728 0.58854 0.0
C93 C 0.55677 0.45889 0.5624 0.0
C94 C 0.56183 0.48818 0.61126 0.0
C95 C 0.52414 0.48098 0.60805 0.0
C96 C 0.51858 0.45022 0.55975 0.0
C97 C 0.50253 0.46163 0.58227 0.0
C98 C 0.50837 0.49619 0.63038 0.0
C99 C 0.51048 0.40102 0.67631 0.0
C100 C 0.53514 0.4111 0.70146 0.0
C101 C 0.50284 0.42734 0.66315 0.0
C102 C 0.52013 0.46437 0.67471 0.0
C103 C 0.55223 0.4479 0.71334 0.0
C104 C 0.5445 0.47433 0.70016 0.0
C105 C 0.51034 0.49162 0.66168 0.0
C106 C 0.42464 0.56192 0.71583 0.0
C107 C 0.44523 0.57299 0.7433 0.0
C108 C 0.43738 0.54901 0.69191 0.0
C109 C 0.47245 0.54967 0.69418 0.0
C110 C 0.48044 0.57423 0.74554 0.0
C111 C 0.49412 0.56315 0.7211 0.0
C112 C 0.48496 0.53224 0.67078 0.0
C113 C 0.45485 0.60974 0.62197 0.0
C114 C 0.4215 0.58871 0.60434 0.0
C115 C 0.47543 0.59295 0.63259 0.0
C116 C 0.46276 0.55497 0.62569 0.0
C117 C 0.41002 0.55139 0.59624 0.0
C118 C 0.4307 0.53474 0.60664 0.0
C119 C 0.48108 0.53511 0.63926 0.0
H120 H 0.60765 0.48444 0.59081 0.0
H121 H 0.57923 0.5036 0.63075 0.0
H122 H 0.50184 0.43617 0.53963 0.0
H123 H 0.47346 0.4559 0.57936 0.0
H124 H 0.497 0.37266 0.66698 0.0
H125 H 0.48285 0.41851 0.64426 0.0
H126 H 0.57139 0.45604 0.73274 0.0
H127 H 0.55767 0.50256 0.7097 0.0
H128 H 0.39721 0.56047 0.71375 0.0
H129 H 0.41867 0.53683 0.67243 0.0
H130 H 0.49669 0.58247 0.76657 0.0
H131 H 0.52104 0.56365 0.72371 0.0
H132 H 0.46415 0.63867 0.62827 0.0
H133 H 0.50043 0.60915 0.64693 0.0
H134 H 0.38443 0.53485 0.58258 0.0
H135 H 0.42065 0.50548 0.60091 0.0
N136 N 0.49317 0.51716 0.62033 0.0
N137 N 0.4992 0.51029 0.68061 0.0
C138 C 0.85656 0.40877 0.78646 0.0
C139 C 0.82983 0.42094 0.78472 0.0
C140 C 0.89502 0.4347 0.79213 0.0
C141 C 0.9071 0.47302 0.79612 0.0
C142 C 0.84206 0.45946 0.78769 0.0
C143 C 0.88064 0.48545 0.79332 0.0
C144 C 0.94667 0.49885 0.80603 0.0
C145 C 0.88171 0.49574 0.89195 0.0
C146 C 0.88188 0.46941 0.91189 0.0
C147 C 0.90475 0.50645 0.86652 0.0
C148 C 0.92807 0.49087 0.86083 0.0
C149 C 0.90416 0.45287 0.90556 0.0
C150 C 0.9273 0.46372 0.88029 0.0
C151 C 0.95648 0.50565 0.83678 0.0
C152 C 0.13105 0.5829 0.83462 0.0
C153 C 0.13381 0.56585 0.86118 0.0
C154 C 0.09546 0.57613 0.82388 0.0
C155 C 0.06178 0.54955 0.83802 0.0
C156 C 0.10076 0.54377 0.8776 0.0
C157 C 0.06517 0.53493 0.86581 0.0
C158 C 0.02268 0.53546 0.82501 0.0
C159 C 0.0936 0.5416 0.74389 0.0
C160 C 0.0956 0.56878 0.72376 0.0
C161 C 0.0659 0.52775 0.76629 0.0
C162 C 0.04074 0.54184 0.76931 0.0
C163 C 0.06943 0.58159 0.72605 0.0
C164 C 0.04216 0.56816 0.74859 0.0
C165 C 0.01271 0.52962 0.79376 0.0
H166 H 0.84746 0.37911 0.78427 0.0
H167 H 0.91517 0.42473 0.79445 0.0
H168 H 0.82162 0.46917 0.78643 0.0
H169 H 0.88963 0.51498 0.79638 0.0
H170 H 0.86491 0.50899 0.89671 0.0
H171 H 0.90565 0.52805 0.8521 0.0
H172 H 0.90474 0.43266 0.92084 0.0
H173 H 0.94541 0.45169 0.87636 0.0
H174 H 0.15635 0.601 0.82197 0.0
H175 H 0.09461 0.59101 0.80417 0.0
H176 H 0.10227 0.53121 0.89861 0.0
H177 H 0.04018 0.51532 0.87811 0.0
H178 H 0.11348 0.53128 0.74228 0.0
H179 H 0.06474 0.50688 0.78174 0.0
H180 H 0.0705 0.60242 0.71059 0.0
H181 H 0.02268 0.57897 0.7503 0.0
N182 N 0.97502 0.51126 0.78557 0.0
N183 N 0.99385 0.52329 0.84501 0.0
C184 C 0.48194 0.86473 0.98283 0.0
C185 C 0.45783 0.84819 0.95761 0.0
C186 C 0.49097 0.90061 0.99281 0.0
C187 C 0.47582 0.92048 0.97785 0.0
C188 C 0.44279 0.86793 0.94243 0.0
C189 C 0.45198 0.90401 0.95237 0.0
C190 C 0.48768 0.95955 0.98732 0.0
C191 C 0.41518 0.89424 0.06526 0.0
C192 C 0.43116 0.90528 0.09472 0.0
C193 C 0.43505 0.91449 0.04003 0.0
C194 C 0.47263 0.94458 0.04305 0.0
C195 C 0.47072 0.93196 0.09657 0.0
C196 C 0.49072 0.95203 0.0714 0.0
C197 C 0.49165 0.97087 0.01793 0.0
C198 C 0.56918 0.14051 0.01632 0.0
C199 C 0.60061 0.14802 0.03494 0.0
C200 C 0.5444 0.10374 0.00578 0.0
C201 C 0.55119 0.07442 0.01363 0.0
C202 C 0.60699 0.11868 0.04303 0.0
C203 C 0.58239 0.08217 0.03256 0.0
C204 C 0.52595 0.03517 0.00336 0.0
C205 C 0.57336 0.10509 0.91979 0.0
C206 C 0.54379 0.10207 0.90094 0.0
C207 C 0.56528 0.07949 0.94311 0.0
C208 C 0.52749 0.05082 0.9479 0.0
C209 C 0.50623 0.07313 0.90543 0.0
C210 C 0.49818 0.04757 0.92864 0.0
C211 C 0.51772 0.02391 0.97276 0.0
H212 H 0.49393 0.8499 0.99465 0.0
H213 H 0.51049 0.91312 0.01187 0.0
H214 H 0.42414 0.85546 0.92288 0.0
H215 H 0.44045 0.91903 0.94022 0.0
H216 H 0.38743 0.87016 0.06084 0.0
H217 H 0.42033 0.90724 0.01835 0.0
H218 H 0.48674 0.93812 0.11754 0.0
H219 H 0.52029 0.97399 0.07425 0.0
H220 H 0.5639 0.163 0.01007 0.0
H221 H 0.52 0.0982 0.99171 0.0
H222 H 0.63109 0.12412 0.05746 0.0
H223 H 0.58797 0.05992 0.03903 0.0
H224 H 0.60256 0.12714 0.91638 0.0
H225 H 0.58843 0.08208 0.95738 0.0
H226 H 0.48318 0.07031 0.89091 0.0
H227 H 0.46891 0.02553 0.93185 0.0
N228 N 0.49956 0.98645 0.96584 0.0
N229 N 0.51182 0.00824 0.02471 0.0
C230 C 0.48011 0.61722 0.17802 0.0
C231 C 0.45488 0.60713 0.20206 0.0
C232 C 0.49054 0.59183 0.1668 0.0
C233 C 0.47559 0.55589 0.17935 0.0
C234 C 0.44019 0.57147 0.21488 0.0
C235 C 0.45072 0.54609 0.20372 0.0
C236 C 0.48774 0.5295 0.16837 0.0
C237 C 0.41769 0.5356 0.09079 0.0
C238 C 0.43879 0.55155 0.06474 0.0
C239 C 0.43414 0.5269 0.11506 0.0
C240 C 0.47185 0.53399 0.11349 0.0
C241 C 0.47682 0.5597 0.06355 0.0
C242 C 0.49311 0.55067 0.08765 0.0
C243 C 0.48833 0.5214 0.13752 0.0
C244 C 0.54995 0.41372 0.13869 0.0
C245 C 0.58098 0.43352 0.11954 0.0
C246 C 0.52808 0.42975 0.14768 0.0
C247 C 0.5373 0.46571 0.13764 0.0
C248 C 0.58826 0.46807 0.10785 0.0
C249 C 0.56643 0.48395 0.11669 0.0
C250 C 0.51864 0.48596 0.14967 0.0
C251 C 0.58449 0.47198 0.22663 0.0
C252 C 0.56597 0.46203 0.25443 0.0
C253 C 0.56943 0.48287 0.2028 0.0
C254 C 0.53392 0.48112 0.20539 0.0
C255 C 0.53124 0.46158 0.25747 0.0
C256 C 0.51515 0.47048 0.2331 0.0
C257 C 0.51744 0.49342 0.18079 0.0
H258 H 0.49179 0.64477 0.16805 0.0
H259 H 0.51071 0.60049 0.14863 0.0
H260 H 0.42073 0.56343 0.23353 0.0
H261 H 0.4393 0.51872 0.21396 0.0
H262 H 0.38819 0.52883 0.0919 0.0
H263 H 0.41698 0.5134 0.13454 0.0
H264 H 0.49339 0.57183 0.04353 0.0
H265 H 0.52217 0.55621 0.08595 0.0
H266 H 0.54392 0.38688 0.14774 0.0
H267 H 0.50518 0.41495 0.16341 0.0
H268 H 0.61198 0.48355 0.09293 0.0
H269 H 0.57367 0.51149 0.10841 0.0
H270 H 0.61156 0.473 0.22385 0.0
H271 H 0.58622 0.49346 0.18273 0.0
H272 H 0.51664 0.45446 0.27878 0.0
H273 H 0.48817 0.4696 0.2361 0.0
N274 N 0.50186 0.51486 0.18877 0.0
N275 N 0.50413 0.50033 0.12938 0.0
Zn276 Zn 0.68701 0.47102 0.41446 0.0
Zn277 Zn 0.64793 0.39659 0.41061 0.0
O278 O 0.70403 0.41223 0.40427 0.0
O279 O 0.73791 0.47316 0.41281 0.0
O280 O 0.62461 0.34082 0.4166 0.0
O281 O 0.66532 0.47393 0.45376 0.0
O282 O 0.62945 0.41237 0.44861 0.0
C283 C 0.73626 0.44242 0.40584 0.0
C284 C 0.63393 0.43755 0.36167 0.0
O285 O 0.62661 0.40563 0.37172 0.0
O286 O 0.65711 0.4676 0.37591 0.0
C287 C 0.62911 0.31914 0.39864 0.0
O288 O 0.64663 0.33226 0.37307 0.0
C289 C 0.63865 0.44288 0.46296 0.0
Zn290 Zn 0.21191 0.68779 0.57425 0.0
Zn291 Zn 0.25446 0.6539 0.57584 0.0
O292 O 0.29344 0.71001 0.57309 0.0
O293 O 0.25993 0.73862 0.56821 0.0
O294 O 0.28812 0.6309 0.58102 0.0
O295 O 0.19093 0.66791 0.61546 0.0
O296 O 0.22 0.63463 0.61312 0.0
C297 C 0.29182 0.73981 0.56888 0.0
C298 C 0.19736 0.63479 0.52445 0.0
O299 O 0.22562 0.63314 0.53569 0.0
O300 O 0.185 0.65403 0.53764 0.0
C301 C 0.32165 0.6461 0.57052 0.0
O302 O 0.33432 0.67635 0.55403 0.0
C303 C 0.19749 0.64321 0.62628 0.0
Zn304 Zn 0.52322 0.2077 0.74641 0.0
Zn305 Zn 0.60114 0.24956 0.74896 0.0
O306 O 0.58305 0.28757 0.74402 0.0
O307 O 0.52014 0.25551 0.74335 0.0
O308 O 0.65776 0.28375 0.75258 0.0
O309 O 0.52494 0.1848 0.78653 0.0
O310 O 0.58791 0.21853 0.78745 0.0
C311 C 0.55117 0.28651 0.7418 0.0
C312 C 0.56247 0.19444 0.69698 0.0
O313 O 0.59298 0.21865 0.71061 0.0
O314 O 0.52998 0.18512 0.70755 0.0
C315 C 0.66971 0.3097 0.77259 0.0
O316 O 0.64518 0.31201 0.79034 0.0
C317 C 0.55679 0.19403 0.7991 0.0
Zn318 Zn 0.32896 0.54772 0.90158 0.0
Zn319 Zn 0.36152 0.6193 0.90846 0.0
O320 O 0.30489 0.60323 0.90775 0.0
O321 O 0.28011 0.5462 0.88867 0.0
O322 O 0.38414 0.67456 0.91615 0.0
O323 O 0.34122 0.54115 0.94455 0.0
O324 O 0.38088 0.60234 0.94485 0.0
C325 C 0.27662 0.57419 0.89594 0.0
C326 C 0.3818 0.58566 0.85569 0.0
O327 O 0.38084 0.61391 0.86685 0.0
O328 O 0.36565 0.55444 0.86905 0.0
C329 C 0.41948 0.69823 0.91911 0.0
O330 O 0.44477 0.68733 0.91605 0.0
C331 C 0.3681 0.57039 0.95714 0.0
Zn332 Zn 0.78988 0.45186 0.08634 0.0
Zn333 Zn 0.75322 0.37718 0.07169 0.0
O334 O 0.70904 0.3862 0.08135 0.0
O335 O 0.73823 0.4466 0.0938 0.0
O336 O 0.72688 0.32237 0.06072 0.0
O337 O 0.81269 0.46323 0.04461 0.0
O338 O 0.78347 0.4024 0.03383 0.0
C339 C 0.70785 0.41524 0.08999 0.0
C340 C 0.80924 0.40763 0.12545 0.0
O341 O 0.78566 0.38036 0.10863 0.0
O342 O 0.81628 0.4409 0.1207 0.0
C343 C 0.7034 0.29849 0.07887 0.0
O344 O 0.69411 0.31151 0.10247 0.0
C345 C 0.80547 0.43643 0.0264 0.0
Zn346 Zn 0.33809 0.79164 0.25882 0.0
Zn347 Zn 0.37947 0.76061 0.24067 0.0
O348 O 0.32541 0.71584 0.24604 0.0
O349 O 0.29307 0.74007 0.26622 0.0
O350 O 0.40593 0.73303 0.22715 0.0
O351 O 0.34811 0.81743 0.21824 0.0
O352 O 0.38629 0.79569 0.20583 0.0
C353 C 0.2949 0.71153 0.25761 0.0
C354 C 0.40308 0.81058 0.29731 0.0
O355 O 0.40806 0.78882 0.27964 0.0
O356 O 0.37582 0.81686 0.29293 0.0
C357 C 0.41151 0.713 0.24594 0.0
O358 O 0.40261 0.71295 0.27431 0.0
C359 C 0.37105 0.81563 0.20004 0.0
C360 C 0.19267 0.635 0.26888 0.0
C361 C 0.19625 0.60272 0.2738 0.0
C362 C 0.26567 0.64237 0.27087 0.0
C363 C 0.26131 0.6732 0.26144 0.0
N364 N 0.21816 0.69324 0.24211 0.0
N365 N 0.23618 0.57447 0.2723 0.0
C366 C 0.22404 0.66784 0.25755 0.0
C367 C 0.23277 0.60594 0.27251 0.0
N368 N 0.16006 0.63516 0.27628 0.0
N369 N 0.30042 0.64783 0.28017 0.0
H370 H 0.21262 0.5473 0.27266 0.0
H371 H 0.26204 0.5754 0.26862 0.0
H372 H 0.32478 0.67428 0.28216 0.0
H373 H 0.30396 0.6265 0.2895 0.0
H374 H 0.15777 0.65934 0.27517 0.0
H375 H 0.13725 0.61276 0.28693 0.0
H376 H 0.1909 0.68865 0.23699 0.0
H377 H 0.23994 0.71619 0.23112 0.0
C378 C 0.57055 0.22229 0.43277 0.0
C379 C 0.59579 0.20782 0.43019 0.0
C380 C 0.64398 0.26726 0.40838 0.0
C381 C 0.61721 0.28013 0.40797 0.0
N382 N 0.55221 0.26627 0.41383 0.0
N383 N 0.65342 0.21347 0.4098 0.0
C384 C 0.57964 0.25658 0.41846 0.0
C385 C 0.6316 0.22939 0.41625 0.0
N386 N 0.53856 0.20402 0.44979 0.0
N387 N 0.68169 0.2916 0.40296 0.0
H388 H 0.6452 0.18568 0.41496 0.0
H389 H 0.67787 0.22667 0.39682 0.0
H390 H 0.69251 0.31995 0.39822 0.0
H391 H 0.70292 0.28459 0.4062 0.0
H392 H 0.52131 0.21539 0.455 0.0
H393 H 0.53126 0.17923 0.46119 0.0
H394 H 0.52346 0.24833 0.41834 0.0
H395 H 0.5574 0.29056 0.40254 0.0
C396 C 0.39377 0.61248 0.56505 0.0
C397 C 0.39709 0.60481 0.59572 0.0
C398 C 0.35458 0.62848 0.61006 0.0
C399 C 0.3476 0.63184 0.5791 0.0
N400 N 0.3557 0.62114 0.5268 0.0
N401 N 0.37505 0.59869 0.64686 0.0
C402 C 0.36597 0.62235 0.55645 0.0
C403 C 0.37591 0.61088 0.61811 0.0
N404 N 0.41779 0.6112 0.54429 0.0
N405 N 0.34243 0.64365 0.63184 0.0
H406 H 0.38997 0.58531 0.65372 0.0
H407 H 0.35674 0.59871 0.66316 0.0
H408 H 0.32796 0.65811 0.62699 0.0
H409 H 0.35022 0.64538 0.65452 0.0
H410 H 0.41939 0.62029 0.52221 0.0
H411 H 0.43864 0.60427 0.54985 0.0
H412 H 0.36524 0.61062 0.50962 0.0
H413 H 0.33481 0.62729 0.51962 0.0
C414 C 0.76989 0.38676 0.7531 0.0
C415 C 0.78866 0.39287 0.78151 0.0
C416 C 0.73049 0.34179 0.8031 0.0
C417 C 0.71079 0.33788 0.77543 0.0
N418 N 0.70957 0.36108 0.72578 0.0
N419 N 0.78581 0.38105 0.83489 0.0
C420 C 0.72989 0.3615 0.7508 0.0
C421 C 0.76864 0.37178 0.80694 0.0
N422 N 0.79046 0.40441 0.72819 0.0
N423 N 0.71328 0.3159 0.82525 0.0
H424 H 0.81385 0.40275 0.83861 0.0
H425 H 0.77131 0.36943 0.85472 0.0
H426 H 0.68554 0.29311 0.82309 0.0
H427 H 0.72759 0.31494 0.8446 0.0
H428 H 0.77917 0.39787 0.70631 0.0
H429 H 0.81974 0.42356 0.72912 0.0
H430 H 0.72127 0.38051 0.70854 0.0
H431 H 0.6801 0.3435 0.72339 0.0
C432 C 0.42312 0.77842 0.96474 0.0
C433 C 0.44821 0.80988 0.94741 0.0
C434 C 0.45402 0.76804 0.91074 0.0
C435 C 0.43132 0.73699 0.92935 0.0
N436 N 0.40122 0.71347 0.97715 0.0
N437 N 0.49283 0.83589 0.90682 0.0
C438 C 0.41781 0.74241 0.95725 0.0
C439 C 0.46521 0.80507 0.9212 0.0
N440 N 0.4035 0.78278 0.98783 0.0
N441 N 0.46359 0.76205 0.88261 0.0
H442 H 0.50162 0.86346 0.91373 0.0
H443 H 0.50921 0.83423 0.8896 0.0
H444 H 0.45605 0.73534 0.87423 0.0
H445 H 0.47637 0.78313 0.86669 0.0
H446 H 0.38174 0.76024 0.99914 0.0
H447 H 0.40652 0.80876 0.99398 0.0
H448 H 0.39442 0.71681 0.9991 0.0
H449 H 0.3977 0.68686 0.97285 0.0
C450 C 0.63663 0.4267 0.13601 0.0
C451 C 0.60858 0.42058 0.11368 0.0
C452 C 0.64315 0.40579 0.07601 0.0
C453 C 0.67118 0.41211 0.09838 0.0
N454 N 0.68911 0.41743 0.15095 0.0
N455 N 0.57976 0.39589 0.0649 0.0
C456 C 0.66606 0.41892 0.12885 0.0
C457 C 0.61006 0.40721 0.08444 0.0
N458 N 0.63652 0.44202 0.16348 0.0
N459 N 0.64912 0.40048 0.04656 0.0
H460 H 0.55522 0.39667 0.07066 0.0
H461 H 0.57744 0.38272 0.0442 0.0
H462 H 0.67281 0.39884 0.03966 0.0
H463 H 0.63193 0.40002 0.02871 0.0
H464 H 0.65889 0.45142 0.1792 0.0
H465 H 0.61537 0.44796 0.16988 0.0
H466 H 0.68443 0.41847 0.17389 0.0
H467 H 0.71071 0.41132 0.14642 0.0
C468 C 0.37002 0.84287 0.5672 0.0
C469 C 0.39137 0.84228 0.54222 0.0
C470 C 0.34682 0.77494 0.53434 0.0
C471 C 0.32691 0.77487 0.56056 0.0
N472 N 0.32353 0.80688 0.60517 0.0
N473 N 0.40531 0.80676 0.50618 0.0
C474 C 0.3397 0.80832 0.57798 0.0
C475 C 0.38143 0.80792 0.52717 0.0
N476 N 0.37767 0.8765 0.57981 0.0
N477 N 0.33154 0.74436 0.51519 0.0
H478 H 0.43093 0.83047 0.50033 0.0
H479 H 0.40156 0.78177 0.49673 0.0
H480 H 0.3055 0.71999 0.51878 0.0
H481 H 0.34275 0.74447 0.49416 0.0
H482 H 0.36035 0.879 0.59576 0.0
H483 H 0.39981 0.90237 0.57274 0.0
H484 H 0.33418 0.82952 0.62035 0.0
H485 H 0.30142 0.78198 0.61377 0.0
C486 C 0.52475 0.36336 0.74098 0.0
C487 C 0.54346 0.3828 0.71456 0.0
C488 C 0.56742 0.3394 0.70622 0.0
C489 C 0.55036 0.32098 0.73349 0.0
N490 N 0.51974 0.32002 0.77999 0.0
N491 N 0.58978 0.39539 0.67617 0.0
C492 C 0.5311 0.33438 0.75187 0.0
C493 C 0.56724 0.3728 0.69859 0.0
N494 N 0.4998 0.37157 0.75495 0.0
N495 N 0.58154 0.32372 0.68655 0.0
H496 H 0.5902 0.42007 0.66992 0.0
H497 H 0.61064 0.39164 0.66582 0.0
H498 H 0.58104 0.29846 0.69045 0.0
H499 H 0.59037 0.33377 0.66492 0.0
H500 H 0.48199 0.35548 0.77218 0.0
H501 H 0.49494 0.39305 0.74794 0.0
H502 H 0.50894 0.33117 0.79564 0.0
H503 H 0.52434 0.29904 0.78872 0.0
C504 C 0.17222 0.53565 0.87662 0.0
C505 C 0.17057 0.56885 0.871 0.0
C506 C 0.23965 0.6061 0.87908 0.0
C507 C 0.2401 0.57343 0.8893 0.0
N508 N 0.20283 0.50937 0.90672 0.0
N509 N 0.20197 0.63671 0.87538 0.0
C510 C 0.20516 0.53885 0.89087 0.0
C511 C 0.20403 0.60448 0.87495 0.0
N512 N 0.14334 0.50115 0.86719 0.0
N513 N 0.27248 0.63781 0.87124 0.0
H514 H 0.17617 0.63658 0.87377 0.0
H515 H 0.22548 0.66301 0.88071 0.0
H516 H 0.29902 0.63953 0.87062 0.0
H517 H 0.27244 0.66083 0.86147 0.0
H518 H 0.14516 0.47675 0.86894 0.0
H519 H 0.11991 0.49758 0.85442 0.0
H520 H 0.17699 0.48463 0.91001 0.0
H521 H 0.22549 0.51148 0.91974 0.0
C522 C 0.62255 0.19715 0.07578 0.0
C523 C 0.62743 0.18648 0.04645 0.0
C524 C 0.6895 0.24416 0.04331 0.0
C525 C 0.68215 0.25724 0.0708 0.0
N526 N 0.65327 0.23718 0.11943 0.0
N527 N 0.66387 0.20015 0.00104 0.0
C528 C 0.65185 0.23126 0.08897 0.0
C529 C 0.6605 0.21005 0.02986 0.0
N530 N 0.58953 0.17503 0.09078 0.0
N531 N 0.72544 0.26205 0.03185 0.0
H532 H 0.64356 0.17494 0.99067 0.0
H533 H 0.68513 0.21824 0.98657 0.0
H534 H 0.74884 0.28313 0.04382 0.0
H535 H 0.73334 0.25232 0.01308 0.0
H536 H 0.58244 0.18347 0.11072 0.0
H537 H 0.56764 0.14952 0.08199 0.0
H538 H 0.63341 0.21791 0.13419 0.0
H539 H 0.67753 0.25832 0.13051 0.0
C540 C 0.40907 0.63128 0.20329 0.0
C541 C 0.44364 0.63402 0.21372 0.0
C542 C 0.45843 0.69012 0.24398 0.0
C543 C 0.42264 0.6858 0.23512 0.0
N544 N 0.3605 0.64829 0.21141 0.0
N545 N 0.49884 0.66209 0.24703 0.0
C546 C 0.39699 0.6553 0.21611 0.0
C547 C 0.46767 0.66233 0.23499 0.0
N548 N 0.38823 0.60629 0.18061 0.0
N549 N 0.48406 0.72145 0.26008 0.0
H550 H 0.50684 0.64255 0.24053 0.0
H551 H 0.51515 0.67937 0.265 0.0
H552 H 0.47809 0.74224 0.26719 0.0
H553 H 0.51219 0.72838 0.26444 0.0
H554 H 0.36518 0.60602 0.16965 0.0
H555 H 0.39575 0.58765 0.17104 0.0
H556 H 0.33924 0.6241 0.20055 0.0
H557 H 0.35029 0.6649 0.22074 0.0
C558 C 0.80511 0.40692 0.38934 0.0
C559 C 0.83509 0.43853 0.37498 0.0
C560 C 0.79899 0.47141 0.37878 0.0
C561 C 0.77128 0.44195 0.39661 0.0
N562 N 0.75471 0.38626 0.42565 0.0
N563 N 0.86544 0.50538 0.36573 0.0
C564 C 0.77631 0.41101 0.40399 0.0
C565 C 0.83366 0.47228 0.37286 0.0
N566 N 0.80302 0.37266 0.388 0.0
N567 N 0.79159 0.4971 0.36549 0.0
H568 H 0.89209 0.50772 0.3628 0.0
H569 H 0.8661 0.53113 0.3663 0.0
H570 H 0.76509 0.49552 0.36602 0.0
H571 H 0.81027 0.51703 0.35044 0.0
H572 H 0.77962 0.34812 0.39575 0.0
H573 H 0.82262 0.36806 0.37642 0.0
H574 H 0.7596 0.36506 0.43338 0.0
H575 H 0.73501 0.38957 0.43832 0.0
C576 C 0.14013 0.61034 0.45108 0.0
C577 C 0.13781 0.57586 0.44243 0.0
C578 C 0.17252 0.57827 0.48883 0.0
C579 C 0.17892 0.61499 0.49546 0.0
N580 N 0.17928 0.67028 0.47615 0.0
N581 N 0.16225 0.53328 0.44914 0.0
C582 C 0.16596 0.63242 0.47453 0.0
C583 C 0.15737 0.56179 0.46004 0.0
N584 N 0.11655 0.62138 0.43816 0.0
N585 N 0.1785 0.55795 0.51027 0.0
H586 H 0.15314 0.52166 0.42756 0.0
H587 H 0.17911 0.52432 0.46023 0.0
H588 H 0.18651 0.56727 0.53249 0.0
H589 H 0.17095 0.52986 0.50688 0.0
H590 H 0.11535 0.64486 0.44582 0.0
H591 H 0.09524 0.60493 0.42234 0.0
H592 H 0.17257 0.68433 0.45983 0.0
H593 H 0.20073 0.68822 0.49134 0.0
C594 C 0.58406 0.18098 0.61593 0.0
C595 C 0.5626 0.14118 0.61328 0.0
C596 C 0.54694 0.13676 0.66676 0.0
C597 C 0.56453 0.17654 0.66856 0.0
N598 N 0.59496 0.23664 0.64377 0.0
N599 N 0.518 0.08117 0.63455 0.0
C600 C 0.58201 0.1988 0.6429 0.0
C601 C 0.54249 0.11901 0.63827 0.0
N602 N 0.60698 0.20167 0.59295 0.0
N603 N 0.53568 0.11599 0.69245 0.0
H604 H 0.51353 0.06702 0.61395 0.0
H605 H 0.4995 0.06442 0.6512 0.0
H606 H 0.53935 0.12808 0.7139 0.0
H607 H 0.52631 0.08727 0.69282 0.0
H608 H 0.62642 0.23042 0.59482 0.0
H609 H 0.60894 0.18951 0.57279 0.0
H610 H 0.60405 0.25351 0.62479 0.0
H611 H 0.59361 0.25077 0.66293 0.0
C612 C 0.39236 0.54932 0.7807 0.0
C613 C 0.42793 0.57885 0.77074 0.0
C614 C 0.434 0.61514 0.81682 0.0
C615 C 0.39693 0.58673 0.8252 0.0
N616 N 0.33608 0.53427 0.80881 0.0
N617 N 0.47802 0.6438 0.77579 0.0
C618 C 0.37456 0.55625 0.80507 0.0
C619 C 0.44736 0.61312 0.78769 0.0
N620 N 0.37647 0.51391 0.76831 0.0
N621 N 0.45719 0.64287 0.83694 0.0
H622 H 0.48789 0.64349 0.75423 0.0
H623 H 0.49109 0.6704 0.78605 0.0
H624 H 0.44888 0.64494 0.85868 0.0
H625 H 0.48583 0.66188 0.8329 0.0
H626 H 0.35219 0.49097 0.77697 0.0
H627 H 0.38975 0.50638 0.75191 0.0
H628 H 0.3183 0.51358 0.79315 0.0
H629 H 0.32143 0.53983 0.82542 0.0
C630 C 0.8214 0.43846 0.9417 0.0
C631 C 0.86168 0.46167 0.94094 0.0
C632 C 0.86505 0.46507 0.9961 0.0
C633 C 0.82456 0.44482 0.99688 0.0
N634 N 0.7638 0.41761 0.97043 0.0
N635 N 0.9212 0.50351 0.96683 0.0
C636 C 0.80255 0.43288 0.96966 0.0
C637 C 0.88332 0.47692 0.96799 0.0
N638 N 0.80133 0.42097 0.91587 0.0
N639 N 0.88617 0.47142 0.02206 0.0
H640 H 0.93569 0.51318 0.94664 0.0
H641 H 0.93737 0.51854 0.98572 0.0
H642 H 0.87399 0.46219 0.04311 0.0
H643 H 0.91563 0.48246 0.02234 0.0
H644 H 0.77252 0.40045 0.91552 0.0
H645 H 0.8142 0.42486 0.89496 0.0
H646 H 0.74668 0.41199 0.95118 0.0
H647 H 0.74902 0.4136 0.99042 0.0
C648 C 0.37188 0.85494 0.12263 0.0
C649 C 0.40877 0.88753 0.12322 0.0
C650 C 0.41497 0.87753 0.17687 0.0
C651 C 0.38343 0.84045 0.17369 0.0
N652 N 0.33037 0.79374 0.14364 0.0
N653 N 0.4452 0.94034 0.15686 0.0
C654 C 0.36135 0.82907 0.14661 0.0
C655 C 0.42489 0.90228 0.15219 0.0
N656 N 0.34455 0.85262 0.10303 0.0
N657 N 0.43591 0.88901 0.20316 0.0
H658 H 0.44791 0.959 0.1399 0.0
H659 H 0.4547 0.95291 0.17809 0.0
H660 H 0.42909 0.87203 0.2221 0.0
H661 H 0.46156 0.91444 0.20531 0.0
H662 H 0.31624 0.83081 0.10325 0.0
H663 H 0.34887 0.8758 0.09045 0.0
H664 H 0.31564 0.78324 0.12319 0.0
H665 H 0.32126 0.77425 0.161 0.0
C666 C 0.62156 0.48064 0.29045 0.0
C667 C 0.58384 0.45397 0.28083 0.0
C668 C 0.57751 0.41616 0.32523 0.0
C669 C 0.61674 0.44066 0.33271 0.0
N670 N 0.67852 0.48863 0.31527 0.0
N671 N 0.53011 0.39086 0.28488 0.0
C672 C 0.63957 0.47055 0.31308 0.0
C673 C 0.56308 0.41993 0.29688 0.0
N674 N 0.63972 0.51628 0.2793 0.0
N675 N 0.55335 0.39084 0.34554 0.0
H676 H 0.51947 0.39195 0.26359 0.0
H677 H 0.51582 0.36436 0.29462 0.0
H678 H 0.56174 0.38857 0.36734 0.0
H679 H 0.52391 0.375 0.34181 0.0
H680 H 0.66607 0.53736 0.28778 0.0
H681 H 0.62671 0.52603 0.26429 0.0
H682 H 0.69607 0.50868 0.2998 0.0
H683 H 0.69307 0.48021 0.32998 0.0
C684 C 0.43 0.84439 0.37723 0.0
C685 C 0.46613 0.87704 0.37316 0.0
C686 C 0.46531 0.86037 0.31993 0.0
C687 C 0.42847 0.82871 0.32374 0.0
N688 N 0.38081 0.78415 0.35668 0.0
N689 N 0.5228 0.9108 0.34384 0.0
C690 C 0.41261 0.81854 0.35276 0.0
C691 C 0.48541 0.88312 0.3455 0.0
N692 N 0.41131 0.83929 0.40379 0.0
N693 N 0.47997 0.86995 0.29168 0.0
H694 H 0.53802 0.9278 0.36237 0.0
H695 H 0.53959 0.91471 0.32513 0.0
H696 H 0.46642 0.85334 0.27259 0.0
H697 H 0.50452 0.8952 0.28688 0.0
H698 H 0.38304 0.81849 0.40685 0.0
H699 H 0.4233 0.8573 0.42244 0.0
H700 H 0.36961 0.77349 0.37769 0.0
H701 H 0.3678 0.76471 0.33896 0.0
C702 C 0.58215 0.47404 0.51011 0.0
C703 C 0.57575 0.45245 0.53647 0.0
C704 C 0.61078 0.42361 0.51478 0.0
C705 C 0.61473 0.44338 0.48773 0.0
N706 N 0.59452 0.47865 0.45676 0.0
N707 N 0.57755 0.40168 0.56204 0.0
C708 C 0.59746 0.46594 0.48452 0.0
C709 C 0.58812 0.42563 0.53826 0.0
N710 N 0.57531 0.5035 0.50988 0.0
N711 N 0.62989 0.40427 0.51855 0.0
H712 H 0.56091 0.40242 0.57953 0.0
H713 H 0.58248 0.37911 0.56317 0.0
H714 H 0.64664 0.40215 0.50182 0.0
H715 H 0.63147 0.39272 0.53897 0.0
H716 H 0.58344 0.52256 0.49231 0.0
H717 H 0.56505 0.51128 0.52841 0.0
H718 H 0.57878 0.49202 0.45272 0.0
H719 H 0.60416 0.47221 0.43712 0.0
C720 C 0.11827 0.56611 0.6719 0.0
C721 C 0.12534 0.58473 0.70031 0.0
C722 C 0.18491 0.63763 0.68171 0.0
C723 C 0.17517 0.62126 0.65238 0.0
N724 N 0.13234 0.57098 0.61855 0.0
N725 N 0.16477 0.63771 0.7331 0.0
C726 C 0.14207 0.58549 0.64726 0.0
C727 C 0.15875 0.62024 0.70555 0.0
N728 N 0.08874 0.52992 0.66854 0.0
N729 N 0.21946 0.66947 0.6867 0.0
H730 H 0.1473 0.6249 0.75147 0.0
H731 H 0.18596 0.6654 0.73756 0.0
H732 H 0.23904 0.6827 0.66958 0.0
H733 H 0.23014 0.68121 0.70796 0.0
H734 H 0.08435 0.51322 0.64946 0.0
H735 H 0.07006 0.51534 0.68585 0.0
H736 H 0.10631 0.54743 0.6126 0.0
H737 H 0.14946 0.58379 0.60002 0.0
C738 C 0.54664 0.15999 0.87994 0.0
C739 C 0.55183 0.12852 0.87578 0.0
C740 C 0.567 0.14448 0.82266 0.0
C741 C 0.55772 0.17343 0.82604 0.0
N742 N 0.53716 0.20833 0.85688 0.0
N743 N 0.56438 0.08866 0.84341 0.0
C744 C 0.54725 0.18119 0.85447 0.0
C745 C 0.56171 0.12039 0.84725 0.0
N746 N 0.54173 0.16983 0.90837 0.0
N747 N 0.58077 0.13998 0.79587 0.0
H748 H 0.56187 0.07097 0.86109 0.0
H749 H 0.56677 0.0784 0.82251 0.0
H750 H 0.58322 0.1557 0.7768 0.0
H751 H 0.59221 0.12242 0.79293 0.0
H752 H 0.54146 0.19448 0.91355 0.0
H753 H 0.54081 0.15463 0.92742 0.0
H754 H 0.52501 0.21258 0.87597 0.0
H755 H 0.53912 0.22559 0.83903 0.0
C756 C 0.41042 0.58534 0.03684 0.0
C757 C 0.42018 0.55658 0.03755 0.0
C758 C 0.40063 0.54094 0.9846 0.0
C759 C 0.38676 0.56661 0.98478 0.0
N760 N 0.37303 0.60926 0.01246 0.0
N761 N 0.41704 0.50169 0.0142 0.0
C762 C 0.39025 0.58787 0.01127 0.0
C763 C 0.41305 0.53279 0.01204 0.0
N764 N 0.4213 0.61077 0.06019 0.0
N765 N 0.40379 0.5257 0.95801 0.0
H766 H 0.42552 0.49427 0.03407 0.0
H767 H 0.40831 0.48126 0.99716 0.0
H768 H 0.39672 0.53222 0.93709 0.0
H769 H 0.41737 0.50988 0.95636 0.0
H770 H 0.41861 0.63472 0.05953 0.0
H771 H 0.43597 0.60965 0.07931 0.0
H772 H 0.3713 0.62228 0.03214 0.0
H773 H 0.35746 0.61133 0.99441 0.0
C774 C 0.84412 0.41151 0.20552 0.0
C775 C 0.87195 0.4006 0.20113 0.0
C776 C 0.85526 0.38938 0.14728 0.0
C777 C 0.8277 0.40066 0.15165 0.0
N778 N 0.7885 0.41233 0.18548 0.0
N779 N 0.89794 0.37068 0.17031 0.0
C780 C 0.81975 0.40845 0.18103 0.0
C781 C 0.87536 0.38657 0.17275 0.0
N782 N 0.84233 0.42664 0.23262 0.0
N783 N 0.86378 0.38351 0.11874 0.0
H784 H 0.91298 0.36842 0.1887 0.0
H785 H 0.89908 0.35679 0.15095 0.0
H786 H 0.84954 0.3851 0.09954 0.0
H787 H 0.88662 0.37952 0.11383 0.0
H788 H 0.82602 0.43947 0.23603 0.0
H789 H 0.85901 0.42853 0.25139 0.0
H790 H 0.77898 0.4144 0.20673 0.0
H791 H 0.76986 0.40984 0.16798 0.0
loop_
_geom_bond_atom_site_label_1
_geom_bond_atom_site_label_2
_geom_bond_distance
_geom_bond_site_symmetry_2
_ccdc_geom_bond_type
C0 C1 1.384 . S
C0 C2 1.384 . S
C0 H28 0.931 . S
C1 C0 1.384 . S
C1 C4 1.382 . S
C2 C0 1.384 . S
C2 C3 1.381 . S
C2 H29 0.930 . S
C3 C2 1.381 . S
C3 C5 1.381 . S
C3 C6 1.487 . S
C4 C1 1.382 . S
C4 C5 1.387 . S
C4 H30 0.930 . S
C5 C3 1.381 . S
C5 C4 1.387 . S
C5 H31 0.931 . S
C6 C3 1.487 . S
C6 C13 1.399 . S
C6 N44 1.343 . S
C7 C8 1.384 . S
C7 C9 1.384 . S
C7 H32 0.931 . S
C8 C7 1.384 . S
C8 C11 1.382 . S
C9 C7 1.384 . S
C9 C10 1.381 . S
C9 H33 0.930 . S
C10 C9 1.381 . S
C10 C12 1.381 . S
C10 C13 1.487 . S
C11 C8 1.382 . S
C11 C12 1.387 . S
C11 H34 0.930 . S
C12 C10 1.381 . S
C12 C11 1.387 . S
C12 H35 0.931 . S
C13 C6 1.399 . S
C13 C10 1.487 . S
C13 N45 1.343 1_655 S
C14 C15 1.384 . S
C14 C16 1.384 . S
C14 H36 0.931 . S
C15 C14 1.384 . S
C15 C18 1.382 . S
C16 C14 1.384 . S
C16 C17 1.381 . S
C16 H37 0.930 . S
C17 C16 1.381 . S
C17 C19 1.381 . S
C17 C20 1.487 . S
C18 C15 1.382 . S
C18 C19 1.387 . S
C18 H38 0.930 . S
C19 C17 1.381 . S
C19 C18 1.387 . S
C19 H39 0.931 . S
C20 C17 1.487 . S
C20 C27 1.399 . S
C20 N45 1.343 . S
C21 C22 1.384 . S
C21 C23 1.384 . S
C21 H40 0.931 . S
C22 C21 1.384 . S
C22 C25 1.382 . S
C23 C21 1.384 . S
C23 C24 1.381 . S
C23 H41 0.930 . S
C24 C23 1.381 . S
C24 C26 1.381 . S
C24 C27 1.487 . S
C25 C22 1.382 . S
C25 C26 1.387 . S
C25 H42 0.930 . S
C26 C24 1.381 . S
C26 C25 1.387 . S
C26 H43 0.931 . S
C27 C20 1.399 . S
C27 C24 1.487 . S
C27 N44 1.343 1_455 S
H28 C0 0.931 . S
H29 C2 0.930 . S
H30 C4 0.930 . S
H31 C5 0.931 . S
H32 C7 0.931 . S
H33 C9 0.930 . S
H34 C11 0.930 . S
H35 C12 0.931 . S
H36 C14 0.931 . S
H37 C16 0.930 . S
H38 C18 0.930 . S
H39 C19 0.931 . S
H40 C21 0.931 . S
H41 C23 0.930 . S
H42 C25 0.930 . S
H43 C26 0.931 . S
N44 C6 1.343 . S
N44 C27 1.343 1_655 S
N45 C13 1.343 1_455 S
N45 C20 1.343 . S
C46 C47 1.384 . S
C46 C48 1.384 . S
C46 H74 0.931 . S
C47 C46 1.384 . S
C47 C50 1.382 . S
C48 C46 1.384 . S
C48 C49 1.381 . S
C48 H75 0.930 . S
C49 C48 1.381 . S
C49 C51 1.381 . S
C49 C52 1.487 . S
C50 C47 1.382 . S
C50 C51 1.387 . S
C50 H76 0.930 . S
C51 C49 1.381 . S
C51 C50 1.387 . S
C51 H77 0.931 . S
C52 C49 1.487 . S
C52 C59 1.399 . S
C52 N90 1.343 . S
C53 C54 1.384 . S
C53 C55 1.384 . S
C53 H78 0.931 . S
C54 C53 1.384 . S
C54 C57 1.382 . S
C55 C53 1.384 . S
C55 C56 1.381 . S
C55 H79 0.930 . S
C56 C55 1.381 . S
C56 C58 1.381 . S
C56 C59 1.487 . S
C57 C54 1.382 . S
C57 C58 1.387 . S
C57 H80 0.930 . S
C58 C56 1.381 . S
C58 C57 1.387 . S
C58 H81 0.931 . S
C59 C52 1.399 . S
C59 C56 1.487 . S
C59 N91 1.343 1_565 S
C60 C61 1.384 . S
C60 C62 1.384 . S
C60 H82 0.931 . S
C61 C60 1.384 . S
C61 C64 1.382 . S
C62 C60 1.384 . S
C62 C63 1.381 . S
C62 H83 0.930 . S
C63 C62 1.381 . S
C63 C65 1.381 . S
C63 C66 1.487 . S
C64 C61 1.382 . S
C64 C65 1.387 . S
C64 H84 0.930 . S
C65 C63 1.381 . S
C65 C64 1.387 . S
C65 H85 0.931 . S
C66 C63 1.487 . S
C66 C73 1.399 . S
C66 N91 1.343 . S
C67 C68 1.384 . S
C67 C69 1.384 . S
C67 H86 0.931 . S
C68 C67 1.384 . S
C68 C71 1.382 . S
C69 C67 1.384 . S
C69 C70 1.381 . S
C69 H87 0.930 . S
C70 C69 1.381 . S
C70 C72 1.381 . S
C70 C73 1.487 . S
C71 C68 1.382 . S
C71 C72 1.387 . S
C71 H88 0.930 . S
C72 C70 1.381 . S
C72 C71 1.387 . S
C72 H89 0.931 . S
C73 C66 1.399 . S
C73 C70 1.487 . S
C73 N90 1.343 1_545 S
H74 C46 0.931 . S
H75 C48 0.930 . S
H76 C50 0.930 . S
H77 C51 0.931 . S
H78 C53 0.931 . S
H79 C55 0.930 . S
H80 C57 0.930 . S
H81 C58 0.931 . S
H82 C60 0.931 . S
H83 C62 0.930 . S
H84 C64 0.930 . S
H85 C65 0.931 . S
H86 C67 0.931 . S
H87 C69 0.930 . S
H88 C71 0.930 . S
H89 C72 0.931 . S
N90 C52 1.343 . S
N90 C73 1.343 1_565 S
N91 C59 1.343 1_545 S
N91 C66 1.343 . S
C92 C93 1.384 . S
C92 C94 1.384 . S
C92 H120 0.931 . S
C93 C92 1.384 . S
C93 C96 1.382 . S
C94 C92 1.384 . S
C94 C95 1.381 . S
C94 H121 0.930 . S
C95 C94 1.381 . S
C95 C97 1.381 . S
C95 C98 1.487 . S
C96 C93 1.382 . S
C96 C97 1.387 . S
C96 H122 0.930 . S
C97 C95 1.381 . S
C97 C96 1.387 . S
C97 H123 0.931 . S
C98 C95 1.487 . S
C98 C105 1.399 . S
C98 N136 1.343 . S
C99 C100 1.384 . S
C99 C101 1.384 . S
C99 H124 0.931 . S
C100 C99 1.384 . S
C100 C103 1.382 . S
C101 C99 1.384 . S
C101 C102 1.381 . S
C101 H125 0.930 . S
C102 C101 1.381 . S
C102 C104 1.381 . S
C102 C105 1.487 . S
C103 C100 1.382 . S
C103 C104 1.387 . S
C103 H126 0.930 . S
C104 C102 1.381 . S
C104 C103 1.387 . S
C104 H127 0.931 . S
C105 C98 1.399 . S
C105 C102 1.487 . S
C105 N137 1.343 . S
C106 C107 1.384 . S
C106 C108 1.384 . S
C106 H128 0.931 . S
C107 C106 1.384 . S
C107 C110 1.382 . S
C108 C106 1.384 . S
C108 C109 1.381 . S
C108 H129 0.930 . S
C109 C108 1.381 . S
C109 C111 1.381 . S
C109 C112 1.487 . S
C110 C107 1.382 . S
C110 C111 1.387 . S
C110 H130 0.930 . S
C111 C109 1.381 . S
C111 C110 1.387 . S
C111 H131 0.931 . S
C112 C109 1.487 . S
C112 C119 1.399 . S
C112 N137 1.343 . S
C113 C114 1.384 . S
C113 C115 1.384 . S
C113 H132 0.931 . S
C114 C113 1.384 . S
C114 C117 1.382 . S
C115 C113 1.384 . S
C115 C116 1.381 . S
C115 H133 0.930 . S
C116 C115 1.381 . S
C116 C118 1.381 . S
C116 C119 1.487 . S
C117 C114 1.382 . S
C117 C118 1.387 . S
C117 H134 0.930 . S
C118 C116 1.381 . S
C118 C117 1.387 . S
C118 H135 0.931 . S
C119 C112 1.399 . S
C119 C116 1.487 . S
C119 N136 1.343 . S
H120 C92 0.931 . S
H121 C94 0.930 . S
H122 C96 0.930 . S
H123 C97 0.931 . S
H124 C99 0.931 . S
H125 C101 0.930 . S
H126 C103 0.930 . S
H127 C104 0.931 . S
H128 C106 0.931 . S
H129 C108 0.930 . S
H130 C110 0.930 . S
H131 C111 0.931 . S
H132 C113 0.931 . S
H133 C115 0.930 . S
H134 C117 0.930 . S
H135 C118 0.931 . S
N136 C98 1.343 . S
N136 C119 1.343 . S
N137 C105 1.343 . S
N137 C112 1.343 . S
C138 C139 1.384 . S
C138 C140 1.384 . S
C138 H166 0.931 . S
C139 C138 1.384 . S
C139 C142 1.382 . S
C140 C138 1.384 . S
C140 C141 1.381 . S
C140 H167 0.930 . S
C141 C140 1.381 . S
C141 C143 1.381 . S
C141 C144 1.487 . S
C142 C139 1.382 . S
C142 C143 1.387 . S
C142 H168 0.930 . S
C143 C141 1.381 . S
C143 C142 1.387 . S
C143 H169 0.931 . S
C144 C141 1.487 . S
C144 C151 1.399 . S
C144 N182 1.343 . S
C145 C146 1.384 . S
C145 C147 1.384 . S
C145 H170 0.931 . S
C146 C145 1.384 . S
C146 C149 1.382 . S
C147 C145 1.384 . S
C147 C148 1.381 . S
C147 H171 0.930 . S
C148 C147 1.381 . S
C148 C150 1.381 . S
C148 C151 1.487 . S
C149 C146 1.382 . S
C149 C150 1.387 . S
C149 H172 0.930 . S
C150 C148 1.381 . S
C150 C149 1.387 . S
C150 H173 0.931 . S
C151 C144 1.399 . S
C151 C148 1.487 . S
C151 N183 1.343 1_655 S
C152 C153 1.384 . S
C152 C154 1.384 . S
C152 H174 0.931 . S
C153 C152 1.384 . S
C153 C156 1.382 . S
C154 C152 1.384 . S
C154 C155 1.381 . S
C154 H175 0.930 . S
C155 C154 1.381 . S
C155 C157 1.381 . S
C155 C158 1.487 . S
C156 C153 1.382 . S
C156 C157 1.387 . S
C156 H176 0.930 . S
C157 C155 1.381 . S
C157 C156 1.387 . S
C157 H177 0.931 . S
C158 C155 1.487 . S
C158 C165 1.399 . S
C158 N183 1.343 . S
C159 C160 1.384 . S
C159 C161 1.384 . S
C159 H178 0.931 . S
C160 C159 1.384 . S
C160 C163 1.382 . S
C161 C159 1.384 . S
C161 C162 1.381 . S
C161 H179 0.930 . S
C162 C161 1.381 . S
C162 C164 1.381 . S
C162 C165 1.487 . S
C163 C160 1.382 . S
C163 C164 1.387 . S
C163 H180 0.930 . S
C164 C162 1.381 . S
C164 C163 1.387 . S
C164 H181 0.931 . S
C165 C158 1.399 . S
C165 C162 1.487 . S
C165 N182 1.343 1_455 S
H166 C138 0.931 . S
H167 C140 0.930 . S
H168 C142 0.930 . S
H169 C143 0.931 . S
H170 C145 0.931 . S
H171 C147 0.930 . S
H172 C149 0.930 . S
H173 C150 0.931 . S
H174 C152 0.931 . S
H175 C154 0.930 . S
H176 C156 0.930 . S
H177 C157 0.931 . S
H178 C159 0.931 . S
H179 C161 0.930 . S
H180 C163 0.930 . S
H181 C164 0.931 . S
N182 C144 1.343 . S
N182 C165 1.343 1_655 S
N183 C151 1.343 1_455 S
N183 C158 1.343 . S
C184 C185 1.384 . S
C184 C186 1.384 . S
C184 H212 0.931 . S
C185 C184 1.384 . S
C185 C188 1.382 . S
C186 C184 1.384 . S
C186 C187 1.381 . S
C186 H213 0.930 1_556 S
C187 C186 1.381 . S
C187 C189 1.381 . S
C187 C190 1.487 . S
C188 C185 1.382 . S
C188 C189 1.387 . S
C188 H214 0.930 . S
C189 C187 1.381 . S
C189 C188 1.387 . S
C189 H215 0.931 . S
C190 C187 1.487 . S
C190 C197 1.399 1_556 S
C190 N228 1.343 . S
C191 C192 1.384 . S
C191 C193 1.384 . S
C191 H216 0.931 . S
C192 C191 1.384 . S
C192 C195 1.382 . S
C193 C191 1.384 . S
C193 C194 1.381 . S
C193 H217 0.930 . S
C194 C193 1.381 . S
C194 C196 1.381 . S
C194 C197 1.487 . S
C195 C192 1.382 . S
C195 C196 1.387 . S
C195 H218 0.930 . S
C196 C194 1.381 . S
C196 C195 1.387 . S
C196 H219 0.931 . S
C197 C190 1.399 1_554 S
C197 C194 1.487 . S
C197 N229 1.343 1_565 S
C198 C199 1.384 . S
C198 C200 1.384 1_554 S
C198 H220 0.940 . S
C199 C198 1.384 . S
C199 C202 1.382 . S
C200 C198 1.384 1_556 S
C200 C201 1.381 1_556 S
C200 H221 0.930 . S
C201 C200 1.381 1_554 S
C201 C203 1.381 . S
C201 C204 1.487 1_554 S
C202 C199 1.382 . S
C202 C203 1.387 . S
C202 H222 0.930 . S
C203 C201 1.381 . S
C203 C202 1.387 . S
C203 H223 0.931 . S
C204 C201 1.487 1_556 S
C204 C211 1.399 . S
C204 N229 1.343 1_556 S
C205 C206 1.384 . S
C205 C207 1.384 . S
C205 H224 0.931 . S
C206 C205 1.384 . S
C206 C209 1.382 . S
C207 C205 1.384 . S
C207 C208 1.381 . S
C207 H225 0.930 . S
C208 C207 1.381 . S
C208 C210 1.381 . S
C208 C211 1.487 . S
C209 C206 1.382 . S
C209 C210 1.387 . S
C209 H226 0.930 . S
C210 C208 1.381 . S
C210 C209 1.387 . S
C210 H227 0.931 . S
C211 C204 1.399 . S
C211 C208 1.487 . S
C211 N228 1.343 1_545 S
H212 C184 0.931 . S
H213 C186 0.930 1_554 S
H214 C188 0.930 . S
H215 C189 0.931 . S
H216 C191 0.931 . S
H217 C193 0.930 . S
H218 C195 0.930 . S
H219 C196 0.931 . S
H220 C198 0.940 . S
H221 C200 0.930 . S
H222 C202 0.930 . S
H223 C203 0.931 . S
H224 C205 0.931 . S
H225 C207 0.930 . S
H226 C209 0.930 . S
H227 C210 0.931 . S
N228 C190 1.343 . S
N228 C211 1.343 1_565 S
N229 C197 1.343 1_545 S
N229 C204 1.343 1_554 S
C230 C231 1.384 . S
C230 C232 1.384 . S
C230 H258 0.931 . S
C231 C230 1.384 . S
C231 C234 1.382 . S
C232 C230 1.384 . S
C232 C233 1.381 . S
C232 H259 0.930 . S
C233 C232 1.381 . S
C233 C235 1.381 . S
C233 C236 1.487 . S
C234 C231 1.382 . S
C234 C235 1.387 . S
C234 H260 0.930 . S
C235 C233 1.381 . S
C235 C234 1.387 . S
C235 H261 0.931 . S
C236 C233 1.487 . S
C236 C243 1.399 . S
C236 N274 1.343 . S
C237 C238 1.384 . S
C237 C239 1.384 . S
C237 H262 0.931 . S
C238 C237 1.384 . S
C238 C241 1.382 . S
C239 C237 1.384 . S
C239 C240 1.381 . S
C239 H263 0.930 . S
C240 C239 1.381 . S
C240 C242 1.381 . S
C240 C243 1.487 . S
C241 C238 1.382 . S
C241 C242 1.387 . S
C241 H264 0.930 . S
C242 C240 1.381 . S
C242 C241 1.387 . S
C242 H265 0.931 . S
C243 C236 1.399 . S
C243 C240 1.487 . S
C243 N275 1.343 . S
C244 C245 1.384 . S
C244 C246 1.384 . S
C244 H266 0.931 . S
C245 C244 1.384 . S
C245 C248 1.382 . S
C246 C244 1.384 . S
C246 C247 1.381 . S
C246 H267 0.930 . S
C247 C246 1.381 . S
C247 C249 1.381 . S
C247 C250 1.487 . S
C248 C245 1.382 . S
C248 C249 1.387 . S
C248 H268 0.930 . S
C249 C247 1.381 . S
C249 C248 1.387 . S
C249 H269 0.931 . S
C250 C247 1.487 . S
C250 C257 1.399 . S
C250 N275 1.343 . S
C251 C252 1.384 . S
C251 C253 1.384 . S
C251 H270 0.931 . S
C252 C251 1.384 . S
C252 C255 1.382 . S
C253 C251 1.384 . S
C253 C254 1.381 . S
C253 H271 0.930 . S
C254 C253 1.381 . S
C254 C256 1.381 . S
C254 C257 1.487 . S
C255 C252 1.382 . S
C255 C256 1.387 . S
C255 H272 0.930 . S
C256 C254 1.381 . S
C256 C255 1.387 . S
C256 H273 0.931 . S
C257 C250 1.399 . S
C257 C254 1.487 . S
C257 N274 1.343 . S
H258 C230 0.931 . S
H259 C232 0.930 . S
H260 C234 0.930 . S
H261 C235 0.931 . S
H262 C237 0.931 . S
H263 C239 0.930 . S
H264 C241 0.930 . S
H265 C242 0.931 . S
H266 C244 0.931 . S
H267 C246 0.930 . S
H268 C248 0.930 . S
H269 C249 0.931 . S
H270 C251 0.931 . S
H271 C253 0.930 . S
H272 C255 0.930 . S
H273 C256 0.931 . S
N274 C236 1.343 . S
N274 C257 1.343 . S
N275 C243 1.343 . S
N275 C250 1.343 . S
Zn276 O279 2.031 . S
Zn276 O281 2.049 . S
Zn276 O286 2.067 . S
Zn277 O278 1.962 . S
Zn277 O280 1.986 . S
Zn277 O282 1.996 . S
Zn277 O285 1.943 . S
O278 Zn277 1.962 . S
O278 C283 1.254 . S
O279 Zn276 2.031 . S
O279 C283 1.269 . S
O280 Zn277 1.986 . S
O280 C287 1.262 . S
O281 Zn276 2.049 . S
O281 C289 1.260 . S
O282 Zn277 1.996 . S
O282 C289 1.257 . S
C283 O278 1.254 . S
C283 O279 1.269 . S
C284 O285 1.249 . S
C284 O286 1.270 . S
O285 Zn277 1.943 . S
O285 C284 1.249 . S
O286 Zn276 2.067 . S
O286 C284 1.270 . S
C287 O280 1.262 . S
C287 O288 1.232 . S
O288 C287 1.232 . S
C289 O281 1.260 . S
C289 O282 1.257 . S
Zn290 O293 2.031 . S
Zn290 O295 2.049 . S
Zn290 O300 2.067 . S
Zn291 O292 1.962 . S
Zn291 O294 1.986 . S
Zn291 O296 1.996 . S
Zn291 O299 1.943 . S
O292 Zn291 1.962 . S
O292 C297 1.254 . S
O293 Zn290 2.031 . S
O293 C297 1.269 . S
O294 Zn291 1.986 . S
O294 C301 1.262 . S
O295 Zn290 2.049 . S
O295 C303 1.260 . S
O296 Zn291 1.996 . S
O296 C303 1.257 . S
C297 O292 1.254 . S
C297 O293 1.269 . S
C298 O299 1.249 . S
C298 O300 1.270 . S
O299 Zn291 1.943 . S
O299 C298 1.249 . S
O300 Zn290 2.067 . S
O300 C298 1.270 . S
C301 O294 1.262 . S
C301 O302 1.232 . S
O302 C301 1.232 . S
C303 O295 1.260 . S
C303 O296 1.257 . S
Zn304 O307 2.031 . S
Zn304 O309 2.049 . S
Zn304 O314 2.067 . S
Zn305 O306 1.962 . S
Zn305 O308 1.986 . S
Zn305 O310 1.996 . S
Zn305 O313 1.943 . S
O306 Zn305 1.962 . S
O306 C311 1.254 . S
O307 Zn304 2.031 . S
O307 C311 1.269 . S
O308 Zn305 1.986 . S
O308 C315 1.262 . S
O309 Zn304 2.049 . S
O309 C317 1.260 . S
O310 Zn305 1.996 . S
O310 C317 1.257 . S
C311 O306 1.254 . S
C311 O307 1.269 . S
C312 O313 1.249 . S
C312 O314 1.270 . S
O313 Zn305 1.943 . S
O313 C312 1.249 . S
O314 Zn304 2.067 . S
O314 C312 1.270 . S
C315 O308 1.262 . S
C315 O316 1.232 . S
O316 C315 1.232 . S
C317 O309 1.260 . S
C317 O310 1.257 . S
Zn318 O321 2.031 . S
Zn318 O323 2.049 . S
Zn318 O328 2.067 . S
Zn319 O320 1.962 . S
Zn319 O322 1.986 . S
Zn319 O324 1.996 . S
Zn319 O327 1.943 . S
O320 Zn319 1.962 . S
O320 C325 1.254 . S
O321 Zn318 2.031 . S
O321 C325 1.269 . S
O322 Zn319 1.986 . S
O322 C329 1.262 . S
O323 Zn318 2.049 . S
O323 C331 1.260 . S
O324 Zn319 1.996 . S
O324 C331 1.257 . S
C325 O320 1.254 . S
C325 O321 1.269 . S
C326 O327 1.249 . S
C326 O328 1.270 . S
O327 Zn319 1.943 . S
O327 C326 1.249 . S
O328 Zn318 2.067 . S
O328 C326 1.270 . S
C329 O322 1.262 . S
C329 O330 1.232 . S
O330 C329 1.232 . S
C331 O323 1.260 . S
C331 O324 1.257 . S
Zn332 O335 2.031 . S
Zn332 O337 2.049 . S
Zn332 O342 2.067 . S
Zn333 O334 1.962 . S
Zn333 O336 1.986 . S
Zn333 O338 1.996 . S
Zn333 O341 1.943 . S
O334 Zn333 1.962 . S
O334 C339 1.254 . S
O335 Zn332 2.031 . S
O335 C339 1.269 . S
O336 Zn333 1.986 . S
O336 C343 1.262 . S
O337 Zn332 2.049 . S
O337 C345 1.260 . S
O338 Zn333 1.996 . S
O338 C345 1.257 . S
C339 O334 1.254 . S
C339 O335 1.269 . S
C340 O341 1.249 . S
C340 O342 1.270 . S
O341 Zn333 1.943 . S
O341 C340 1.249 . S
O342 Zn332 2.067 . S
O342 C340 1.270 . S
C343 O336 1.262 . S
C343 O344 1.232 . S
O344 C343 1.232 . S
C345 O337 1.260 . S
C345 O338 1.257 . S
Zn346 O349 2.031 . S
Zn346 O351 2.049 . S
Zn346 O356 2.067 . S
Zn347 O348 1.962 . S
Zn347 O350 1.986 . S
Zn347 O352 1.996 . S
Zn347 O355 1.943 . S
O348 Zn347 1.962 . S
O348 C353 1.254 . S
O349 Zn346 2.031 . S
O349 C353 1.269 . S
O350 Zn347 1.986 . S
O350 C357 1.262 . S
O351 Zn346 2.049 . S
O351 C359 1.260 . S
O352 Zn347 1.996 . S
O352 C359 1.257 . S
C353 O348 1.254 . S
C353 O349 1.269 . S
C354 O355 1.249 . S
C354 O356 1.270 . S
O355 Zn347 1.943 . S
O355 C354 1.249 . S
O356 Zn346 2.067 . S
O356 C354 1.270 . S
C357 O350 1.262 . S
C357 O358 1.232 . S
O358 C357 1.232 . S
C359 O351 1.260 . S
C359 O352 1.257 . S
C360 C361 1.363 . S
C360 C366 1.379 . S
C360 N368 1.356 . S
C361 C360 1.363 . S
C361 C367 1.363 . S
C362 C363 1.363 . S
C362 C367 1.379 . S
C362 N369 1.356 . S
C363 C362 1.363 . S
C363 C366 1.363 . S
N364 C366 1.356 . S
N364 H376 0.984 . S
N364 H377 0.985 . S
N365 C367 1.356 . S
N365 H370 0.984 . S
N365 H371 0.985 . S
C366 C360 1.379 . S
C366 C363 1.363 . S
C366 N364 1.356 . S
C367 C361 1.363 . S
C367 C362 1.379 . S
C367 N365 1.356 . S
N368 C360 1.356 . S
N368 H374 0.984 . S
N368 H375 0.984 . S
N369 C362 1.356 . S
N369 H372 0.984 . S
N369 H373 0.985 . S
H370 N365 0.984 . S
H371 N365 0.985 . S
H372 N369 0.984 . S
H373 N369 0.985 . S
H374 N368 0.984 . S
H375 N368 0.984 . S
H376 N364 0.984 . S
H377 N364 0.985 . S
C378 C379 1.363 . S
C378 C384 1.379 . S
C378 N386 1.356 . S
C379 C378 1.363 . S
C379 C385 1.363 . S
C380 C381 1.363 . S
C380 C385 1.379 . S
C380 N387 1.356 . S
C381 C380 1.363 . S
C381 C384 1.363 . S
N382 C384 1.356 . S
N382 H394 0.984 . S
N382 H395 0.985 . S
N383 C385 1.356 . S
N383 H388 0.984 . S
N383 H389 0.985 . S
C384 C378 1.379 . S
C384 C381 1.363 . S
C384 N382 1.356 . S
C385 C379 1.363 . S
C385 C380 1.379 . S
C385 N383 1.356 . S
N386 C378 1.356 . S
N386 H392 0.984 . S
N386 H393 0.984 . S
N387 C380 1.356 . S
N387 H390 0.984 . S
N387 H391 0.985 . S
H388 N383 0.984 . S
H389 N383 0.985 . S
H390 N387 0.984 . S
H391 N387 0.985 . S
H392 N386 0.984 . S
H393 N386 0.984 . S
H394 N382 0.984 . S
H395 N382 0.985 . S
C396 C397 1.363 . S
C396 C402 1.379 . S
C396 N404 1.356 . S
C397 C396 1.363 . S
C397 C403 1.363 . S
C398 C399 1.363 . S
C398 C403 1.379 . S
C398 N405 1.356 . S
C399 C398 1.363 . S
C399 C402 1.363 . S
N400 C402 1.356 . S
N400 H412 0.984 . S
N400 H413 0.985 . S
N401 C403 1.356 . S
N401 H406 0.984 . S
N401 H407 0.985 . S
C402 C396 1.379 . S
C402 C399 1.363 . S
C402 N400 1.356 . S
C403 C397 1.363 . S
C403 C398 1.379 . S
C403 N401 1.356 . S
N404 C396 1.356 . S
N404 H410 0.984 . S
N404 H411 0.984 . S
N405 C398 1.356 . S
N405 H408 0.984 . S
N405 H409 0.985 . S
H406 N401 0.984 . S
H407 N401 0.985 . S
H408 N405 0.984 . S
H409 N405 0.985 . S
H410 N404 0.984 . S
H411 N404 0.984 . S
H412 N400 0.984 . S
H413 N400 0.985 . S
C414 C415 1.363 . S
C414 C420 1.379 . S
C414 N422 1.356 . S
C415 C414 1.363 . S
C415 C421 1.363 . S
C416 C417 1.363 . S
C416 C421 1.379 . S
C416 N423 1.356 . S
C417 C416 1.363 . S
C417 C420 1.363 . S
N418 C420 1.356 . S
N418 H430 0.984 . S
N418 H431 0.985 . S
N419 C421 1.356 . S
N419 H424 0.984 . S
N419 H425 0.985 . S
C420 C414 1.379 . S
C420 C417 1.363 . S
C420 N418 1.356 . S
C421 C415 1.363 . S
C421 C416 1.379 . S
C421 N419 1.356 . S
N422 C414 1.356 . S
N422 H428 0.984 . S
N422 H429 0.984 . S
N423 C416 1.356 . S
N423 H426 0.984 . S
N423 H427 0.985 . S
H424 N419 0.984 . S
H425 N419 0.985 . S
H426 N423 0.984 . S
H427 N423 0.985 . S
H428 N422 0.984 . S
H429 N422 0.984 . S
H430 N418 0.984 . S
H431 N418 0.985 . S
C432 C433 1.363 . S
C432 C438 1.379 . S
C432 N440 1.356 . S
C433 C432 1.363 . S
C433 C439 1.363 . S
C434 C435 1.363 . S
C434 C439 1.379 . S
C434 N441 1.356 . S
C435 C434 1.363 . S
C435 C438 1.363 . S
N436 C438 1.356 . S
N436 H448 0.984 . S
N436 H449 0.985 . S
N437 C439 1.356 . S
N437 H442 0.984 . S
N437 H443 0.985 . S
C438 C432 1.379 . S
C438 C435 1.363 . S
C438 N436 1.356 . S
C439 C433 1.363 . S
C439 C434 1.379 . S
C439 N437 1.356 . S
N440 C432 1.356 . S
N440 H446 0.984 . S
N440 H447 0.984 . S
N441 C434 1.356 . S
N441 H444 0.984 . S
N441 H445 0.985 . S
H442 N437 0.984 . S
H443 N437 0.985 . S
H444 N441 0.984 . S
H445 N441 0.985 . S
H446 N440 0.984 . S
H447 N440 0.984 . S
H448 N436 0.984 . S
H449 N436 0.985 . S
C450 C451 1.363 . S
C450 C456 1.379 . S
C450 N458 1.356 . S
C451 C450 1.363 . S
C451 C457 1.363 . S
C452 C453 1.363 . S
C452 C457 1.379 . S
C452 N459 1.356 . S
C453 C452 1.363 . S
C453 C456 1.363 . S
N454 C456 1.356 . S
N454 H466 0.984 . S
N454 H467 0.985 . S
N455 C457 1.356 . S
N455 H460 0.984 . S
N455 H461 0.985 . S
C456 C450 1.379 . S
C456 C453 1.363 . S
C456 N454 1.356 . S
C457 C451 1.363 . S
C457 C452 1.379 . S
C457 N455 1.356 . S
N458 C450 1.356 . S
N458 H464 0.984 . S
N458 H465 0.984 . S
N459 C452 1.356 . S
N459 H462 0.984 . S
N459 H463 0.985 . S
H460 N455 0.984 . S
H461 N455 0.985 . S
H462 N459 0.984 . S
H463 N459 0.985 . S
H464 N458 0.984 . S
H465 N458 0.984 . S
H466 N454 0.984 . S
H467 N454 0.985 . S
C468 C469 1.363 . S
C468 C474 1.379 . S
C468 N476 1.356 . S
C469 C468 1.363 . S
C469 C475 1.363 . S
C470 C471 1.363 . S
C470 C475 1.379 . S
C470 N477 1.356 . S
C471 C470 1.363 . S
C471 C474 1.363 . S
N472 C474 1.356 . S
N472 H484 0.984 . S
N472 H485 0.985 . S
N473 C475 1.356 . S
N473 H478 0.984 . S
N473 H479 0.985 . S
C474 C468 1.379 . S
C474 C471 1.363 . S
C474 N472 1.356 . S
C475 C469 1.363 . S
C475 C470 1.379 . S
C475 N473 1.356 . S
N476 C468 1.356 . S
N476 H482 0.984 . S
N476 H483 0.984 . S
N477 C470 1.356 . S
N477 H480 0.984 . S
N477 H481 0.985 . S
H478 N473 0.984 . S
H479 N473 0.985 . S
H480 N477 0.984 . S
H481 N477 0.985 . S
H482 N476 0.984 . S
H483 N476 0.984 . S
H484 N472 0.984 . S
H485 N472 0.985 . S
C486 C487 1.363 . S
C486 C492 1.379 . S
C486 N494 1.356 . S
C487 C486 1.363 . S
C487 C493 1.363 . S
C488 C489 1.363 . S
C488 C493 1.379 . S
C488 N495 1.356 . S
C489 C488 1.363 . S
C489 C492 1.363 . S
N490 C492 1.356 . S
N490 H502 0.984 . S
N490 H503 0.985 . S
N491 C493 1.356 . S
N491 H496 0.984 . S
N491 H497 0.985 . S
C492 C486 1.379 . S
C492 C489 1.363 . S
C492 N490 1.356 . S
C493 C487 1.363 . S
C493 C488 1.379 . S
C493 N491 1.356 . S
N494 C486 1.356 . S
N494 H500 0.984 . S
N494 H501 0.984 . S
N495 C488 1.356 . S
N495 H498 0.984 . S
N495 H499 0.985 . S
H496 N491 0.984 . S
H497 N491 0.985 . S
H498 N495 0.984 . S
H499 N495 0.985 . S
H500 N494 0.984 . S
H501 N494 0.984 . S
H502 N490 0.984 . S
H503 N490 0.985 . S
C504 C505 1.363 . S
C504 C510 1.379 . S
C504 N512 1.356 . S
C505 C504 1.363 . S
C505 C511 1.363 . S
C506 C507 1.363 . S
C506 C511 1.379 . S
C506 N513 1.356 . S
C507 C506 1.363 . S
C507 C510 1.363 . S
N508 C510 1.356 . S
N508 H520 0.984 . S
N508 H521 0.985 . S
N509 C511 1.356 . S
N509 H514 0.984 . S
N509 H515 0.985 . S
C510 C504 1.379 . S
C510 C507 1.363 . S
C510 N508 1.356 . S
C511 C505 1.363 . S
C511 C506 1.379 . S
C511 N509 1.356 . S
N512 C504 1.356 . S
N512 H518 0.984 . S
N512 H519 0.984 . S
N513 C506 1.356 . S
N513 H516 0.984 . S
N513 H517 0.985 . S
H514 N509 0.984 . S
H515 N509 0.985 . S
H516 N513 0.984 . S
H517 N513 0.985 . S
H518 N512 0.984 . S
H519 N512 0.984 . S
H520 N508 0.984 . S
H521 N508 0.985 . S
C522 C523 1.363 . S
C522 C528 1.379 . S
C522 N530 1.356 . S
C523 C522 1.363 . S
C523 C529 1.363 . S
C524 C525 1.363 . S
C524 C529 1.379 . S
C524 N531 1.356 . S
C525 C524 1.363 . S
C525 C528 1.363 . S
N526 C528 1.356 . S
N526 H538 0.984 . S
N526 H539 0.985 . S
N527 C529 1.368 . S
N527 H532 0.984 . S
N527 H533 0.972 1_554 S
C528 C522 1.379 . S
C528 C525 1.363 . S
C528 N526 1.356 . S
C529 C523 1.363 . S
C529 C524 1.379 . S
C529 N527 1.368 . S
N530 C522 1.356 . S
N530 H536 0.984 . S
N530 H537 0.984 . S
N531 C524 1.356 . S
N531 H534 0.984 . S
N531 H535 0.994 . S
H532 N527 0.984 . S
H533 N527 0.972 1_556 S
H534 N531 0.984 . S
H535 N531 0.994 . S
H536 N530 0.984 . S
H537 N530 0.984 . S
H538 N526 0.984 . S
H539 N526 0.985 . S
C540 C541 1.363 . S
C540 C546 1.379 . S
C540 N548 1.356 . S
C541 C540 1.363 . S
C541 C547 1.363 . S
C542 C543 1.363 . S
C542 C547 1.379 . S
C542 N549 1.356 . S
C543 C542 1.363 . S
C543 C546 1.363 . S
N544 C546 1.356 . S
N544 H556 0.984 . S
N544 H557 0.985 . S
N545 C547 1.356 . S
N545 H550 0.984 . S
N545 H551 0.985 . S
C546 C540 1.379 . S
C546 C543 1.363 . S
C546 N544 1.356 . S
C547 C541 1.363 . S
C547 C542 1.379 . S
C547 N545 1.356 . S
N548 C540 1.356 . S
N548 H554 0.984 . S
N548 H555 0.984 . S
N549 C542 1.356 . S
N549 H552 0.984 . S
N549 H553 0.985 . S
H550 N545 0.984 . S
H551 N545 0.985 . S
H552 N549 0.984 . S
H553 N549 0.985 . S
H554 N548 0.984 . S
H555 N548 0.984 . S
H556 N544 0.984 . S
H557 N544 0.985 . S
C558 C559 1.363 . S
C558 C564 1.379 . S
C558 N566 1.356 . S
C559 C558 1.363 . S
C559 C565 1.363 . S
C560 C561 1.363 . S
C560 C565 1.379 . S
C560 N567 1.356 . S
C561 C560 1.363 . S
C561 C564 1.363 . S
N562 C564 1.356 . S
N562 H574 0.984 . S
N562 H575 0.985 . S
N563 C565 1.356 . S
N563 H568 0.984 . S
N563 H569 0.985 . S
C564 C558 1.379 . S
C564 C561 1.363 . S
C564 N562 1.356 . S
C565 C559 1.363 . S
C565 C560 1.379 . S
C565 N563 1.356 . S
N566 C558 1.356 . S
N566 H572 0.984 . S
N566 H573 0.984 . S
N567 C560 1.356 . S
N567 H570 0.984 . S
N567 H571 0.985 . S
H568 N563 0.984 . S
H569 N563 0.985 . S
H570 N567 0.984 . S
H571 N567 0.985 . S
H572 N566 0.984 . S
H573 N566 0.984 . S
H574 N562 0.984 . S
H575 N562 0.985 . S
C576 C577 1.363 . S
C576 C582 1.379 . S
C576 N584 1.356 . S
C577 C576 1.363 . S
C577 C583 1.363 . S
C578 C579 1.363 . S
C578 C583 1.379 . S
C578 N585 1.356 . S
C579 C578 1.363 . S
C579 C582 1.363 . S
N580 C582 1.356 . S
N580 H592 0.984 . S
N580 H593 0.985 . S
N581 C583 1.356 . S
N581 H586 0.984 . S
N581 H587 0.985 . S
C582 C576 1.379 . S
C582 C579 1.363 . S
C582 N580 1.356 . S
C583 C577 1.363 . S
C583 C578 1.379 . S
C583 N581 1.356 . S
N584 C576 1.356 . S
N584 H590 0.984 . S
N584 H591 0.984 . S
N585 C578 1.356 . S
N585 H588 0.984 . S
N585 H589 0.985 . S
H586 N581 0.984 . S
H587 N581 0.985 . S
H588 N585 0.984 . S
H589 N585 0.985 . S
H590 N584 0.984 . S
H591 N584 0.984 . S
H592 N580 0.984 . S
H593 N580 0.985 . S
C594 C595 1.363 . S
C594 C600 1.379 . S
C594 N602 1.356 . S
C595 C594 1.363 . S
C595 C601 1.363 . S
C596 C597 1.363 . S
C596 C601 1.379 . S
C596 N603 1.356 . S
C597 C596 1.363 . S
C597 C600 1.363 . S
N598 C600 1.356 . S
N598 H610 0.984 . S
N598 H611 0.985 . S
N599 C601 1.356 . S
N599 H604 0.984 . S
N599 H605 0.985 . S
C600 C594 1.379 . S
C600 C597 1.363 . S
C600 N598 1.356 . S
C601 C595 1.363 . S
C601 C596 1.379 . S
C601 N599 1.356 . S
N602 C594 1.356 . S
N602 H608 0.984 . S
N602 H609 0.984 . S
N603 C596 1.356 . S
N603 H606 0.984 . S
N603 H607 0.985 . S
H604 N599 0.984 . S
H605 N599 0.985 . S
H606 N603 0.984 . S
H607 N603 0.985 . S
H608 N602 0.984 . S
H609 N602 0.984 . S
H610 N598 0.984 . S
H611 N598 0.985 . S
C612 C613 1.363 . S
C612 C618 1.379 . S
C612 N620 1.356 . S
C613 C612 1.363 . S
C613 C619 1.363 . S
C614 C615 1.363 . S
C614 C619 1.379 . S
C614 N621 1.356 . S
C615 C614 1.363 . S
C615 C618 1.363 . S
N616 C618 1.356 . S
N616 H628 0.984 . S
N616 H629 0.985 . S
N617 C619 1.356 . S
N617 H622 0.984 . S
N617 H623 0.985 . S
C618 C612 1.379 . S
C618 C615 1.363 . S
C618 N616 1.356 . S
C619 C613 1.363 . S
C619 C614 1.379 . S
C619 N617 1.356 . S
N620 C612 1.356 . S
N620 H626 0.984 . S
N620 H627 0.984 . S
N621 C614 1.356 . S
N621 H624 0.984 . S
N621 H625 0.985 . S
H622 N617 0.984 . S
H623 N617 0.985 . S
H624 N621 0.984 . S
H625 N621 0.985 . S
H626 N620 0.984 . S
H627 N620 0.984 . S
H628 N616 0.984 . S
H629 N616 0.985 . S
C630 C631 1.363 . S
C630 C636 1.379 . S
C630 N638 1.356 . S
C631 C630 1.363 . S
C631 C637 1.363 . S
C632 C633 1.363 . S
C632 C637 1.379 1_554 S
C632 N639 1.356 . S
C633 C632 1.363 . S
C633 C636 1.363 1_554 S
N634 C636 1.356 . S
N634 H646 0.984 . S
N634 H647 0.985 . S
N635 C637 1.356 . S
N635 H640 0.984 . S
N635 H641 0.985 . S
C636 C630 1.379 . S
C636 C633 1.363 1_556 S
C636 N634 1.356 . S
C637 C631 1.363 . S
C637 C632 1.379 1_556 S
C637 N635 1.356 . S
N638 C630 1.356 . S
N638 H644 0.984 . S
N638 H645 0.984 . S
N639 C632 1.356 . S
N639 H642 0.984 . S
N639 H643 0.985 . S
H640 N635 0.984 . S
H641 N635 0.985 . S
H642 N639 0.984 . S
H643 N639 0.985 . S
H644 N638 0.984 . S
H645 N638 0.984 . S
H646 N634 0.984 . S
H647 N634 0.985 . S
C648 C649 1.363 . S
C648 C654 1.379 . S
C648 N656 1.356 . S
C649 C648 1.363 . S
C649 C655 1.363 . S
C650 C651 1.363 . S
C650 C655 1.379 . S
C650 N657 1.356 . S
C651 C650 1.363 . S
C651 C654 1.363 . S
N652 C654 1.356 . S
N652 H664 0.984 . S
N652 H665 0.985 . S
N653 C655 1.356 . S
N653 H658 0.984 . S
N653 H659 0.985 . S
C654 C648 1.379 . S
C654 C651 1.363 . S
C654 N652 1.356 . S
C655 C649 1.363 . S
C655 C650 1.379 . S
C655 N653 1.356 . S
N656 C648 1.356 . S
N656 H662 0.984 . S
N656 H663 0.984 . S
N657 C650 1.356 . S
N657 H660 0.984 . S
N657 H661 0.985 . S
H658 N653 0.984 . S
H659 N653 0.985 . S
H660 N657 0.984 . S
H661 N657 0.985 . S
H662 N656 0.984 . S
H663 N656 0.984 . S
H664 N652 0.984 . S
H665 N652 0.985 . S
C666 C667 1.363 . S
C666 C672 1.379 . S
C666 N674 1.356 . S
C667 C666 1.363 . S
C667 C673 1.363 . S
C668 C669 1.363 . S
C668 C673 1.379 . S
C668 N675 1.356 . S
C669 C668 1.363 . S
C669 C672 1.363 . S
N670 C672 1.356 . S
N670 H682 0.984 . S
N670 H683 0.985 . S
N671 C673 1.356 . S
N671 H676 0.984 . S
N671 H677 0.985 . S
C672 C666 1.379 . S
C672 C669 1.363 . S
C672 N670 1.356 . S
C673 C667 1.363 . S
C673 C668 1.379 . S
C673 N671 1.356 . S
N674 C666 1.356 . S
N674 H680 0.984 . S
N674 H681 0.984 . S
N675 C668 1.356 . S
N675 H678 0.984 . S
N675 H679 0.985 . S
H676 N671 0.984 . S
H677 N671 0.985 . S
H678 N675 0.984 . S
H679 N675 0.985 . S
H680 N674 0.984 . S
H681 N674 0.984 . S
H682 N670 0.984 . S
H683 N670 0.985 . S
C684 C685 1.363 . S
C684 C690 1.379 . S
C684 N692 1.356 . S
C685 C684 1.363 . S
C685 C691 1.363 . S
C686 C687 1.363 . S
C686 C691 1.379 . S
C686 N693 1.356 . S
C687 C686 1.363 . S
C687 C690 1.363 . S
N688 C690 1.356 . S
N688 H700 0.984 . S
N688 H701 0.985 . S
N689 C691 1.356 . S
N689 H694 0.984 . S
N689 H695 0.985 . S
C690 C684 1.379 . S
C690 C687 1.363 . S
C690 N688 1.356 . S
C691 C685 1.363 . S
C691 C686 1.379 . S
C691 N689 1.356 . S
N692 C684 1.356 . S
N692 H698 0.984 . S
N692 H699 0.984 . S
N693 C686 1.356 . S
N693 H696 0.984 . S
N693 H697 0.985 . S
H694 N689 0.984 . S
H695 N689 0.985 . S
H696 N693 0.984 . S
H697 N693 0.985 . S
H698 N692 0.984 . S
H699 N692 0.984 . S
H700 N688 0.984 . S
H701 N688 0.985 . S
C702 C703 1.363 . S
C702 C708 1.379 . S
C702 N710 1.356 . S
C703 C702 1.363 . S
C703 C709 1.363 . S
C704 C705 1.363 . S
C704 C709 1.379 . S
C704 N711 1.356 . S
C705 C704 1.363 . S
C705 C708 1.363 . S
N706 C708 1.356 . S
N706 H718 0.984 . S
N706 H719 0.985 . S
N707 C709 1.356 . S
N707 H712 0.984 . S
N707 H713 0.985 . S
C708 C702 1.379 . S
C708 C705 1.363 . S
C708 N706 1.356 . S
C709 C703 1.363 . S
C709 C704 1.379 . S
C709 N707 1.356 . S
N710 C702 1.356 . S
N710 H716 0.984 . S
N710 H717 0.984 . S
N711 C704 1.356 . S
N711 H714 0.984 . S
N711 H715 0.985 . S
H712 N707 0.984 . S
H713 N707 0.985 . S
H714 N711 0.984 . S
H715 N711 0.985 . S
H716 N710 0.984 . S
H717 N710 0.984 . S
H718 N706 0.984 . S
H719 N706 0.985 . S
C720 C721 1.363 . S
C720 C726 1.379 . S
C720 N728 1.356 . S
C721 C720 1.363 . S
C721 C727 1.363 . S
C722 C723 1.363 . S
C722 C727 1.379 . S
C722 N729 1.356 . S
C723 C722 1.363 . S
C723 C726 1.363 . S
N724 C726 1.356 . S
N724 H736 0.984 . S
N724 H737 0.985 . S
N725 C727 1.356 . S
N725 H730 0.984 . S
N725 H731 0.985 . S
C726 C720 1.379 . S
C726 C723 1.363 . S
C726 N724 1.356 . S
C727 C721 1.363 . S
C727 C722 1.379 . S
C727 N725 1.356 . S
N728 C720 1.356 . S
N728 H734 0.984 . S
N728 H735 0.984 . S
N729 C722 1.356 . S
N729 H732 0.984 . S
N729 H733 0.985 . S
H730 N725 0.984 . S
H731 N725 0.985 . S
H732 N729 0.984 . S
H733 N729 0.985 . S
H734 N728 0.984 . S
H735 N728 0.984 . S
H736 N724 0.984 . S
H737 N724 0.985 . S
C738 C739 1.363 . S
C738 C744 1.379 . S
C738 N746 1.356 . S
C739 C738 1.363 . S
C739 C745 1.363 . S
C740 C741 1.363 . S
C740 C745 1.379 . S
C740 N747 1.356 . S
C741 C740 1.363 . S
C741 C744 1.363 . S
N742 C744 1.356 . S
N742 H754 0.984 . S
N742 H755 0.985 . S
N743 C745 1.356 . S
N743 H748 0.984 . S
N743 H749 0.985 . S
C744 C738 1.379 . S
C744 C741 1.363 . S
C744 N742 1.356 . S
C745 C739 1.363 . S
C745 C740 1.379 . S
C745 N743 1.356 . S
N746 C738 1.356 . S
N746 H752 0.984 . S
N746 H753 0.984 . S
N747 C740 1.356 . S
N747 H750 0.984 . S
N747 H751 0.985 . S
H748 N743 0.984 . S
H749 N743 0.985 . S
H750 N747 0.984 . S
H751 N747 0.985 . S
H752 N746 0.984 . S
H753 N746 0.984 . S
H754 N742 0.984 . S
H755 N742 0.985 . S
C756 C757 1.363 . S
C756 C762 1.379 . S
C756 N764 1.356 . S
C757 C756 1.363 . S
C757 C763 1.363 . S
C758 C759 1.363 . S
C758 C763 1.379 1_556 S
C758 N765 1.356 . S
C759 C758 1.363 . S
C759 C762 1.363 1_556 S
N760 C762 1.356 . S
N760 H772 0.984 . S
N760 H773 0.985 1_554 S
N761 C763 1.356 . S
N761 H766 0.984 . S
N761 H767 0.985 1_554 S
C762 C756 1.379 . S
C762 C759 1.363 1_554 S
C762 N760 1.356 . S
C763 C757 1.363 . S
C763 C758 1.379 1_554 S
C763 N761 1.356 . S
N764 C756 1.356 . S
N764 H770 0.984 . S
N764 H771 0.984 . S
N765 C758 1.356 . S
N765 H768 0.984 . S
N765 H769 0.985 . S
H766 N761 0.984 . S
H767 N761 0.985 1_556 S
H768 N765 0.984 . S
H769 N765 0.985 . S
H770 N764 0.984 . S
H771 N764 0.984 . S
H772 N760 0.984 . S
H773 N760 0.985 1_556 S
C774 C775 1.363 . S
C774 C780 1.379 . S
C774 N782 1.356 . S
C775 C774 1.363 . S
C775 C781 1.363 . S
C776 C777 1.363 . S
C776 C781 1.379 . S
C776 N783 1.356 . S
C777 C776 1.363 . S
C777 C780 1.363 . S
N778 C780 1.356 . S
N778 H790 0.984 . S
N778 H791 0.985 . S
N779 C781 1.356 . S
N779 H784 0.984 . S
N779 H785 0.985 . S
C780 C774 1.379 . S
C780 C777 1.363 . S
C780 N778 1.356 . S
C781 C775 1.363 . S
C781 C776 1.379 . S
C781 N779 1.356 . S
N782 C774 1.356 . S
N782 H788 0.984 . S
N782 H789 0.984 . S
N783 C776 1.356 . S
N783 H786 0.984 . S
N783 H787 0.985 . S
H784 N779 0.984 . S
H785 N779 0.985 . S
H786 N783 0.984 . S
H787 N783 0.985 . S
H788 N782 0.984 . S
H789 N782 0.984 . S
H790 N778 0.984 . S
H791 N778 0.985 . S
C363 C353 1.601 . S
C361 C15 1.564 . S
C379 C61 1.504 . S
C381 C287 1.498 . S
C397 C114 1.462 . S
C399 C301 1.457 . S
C415 C139 1.549 . S
C417 C315 1.523 . S
C435 C329 1.581 . S
C433 C185 1.610 . S
C451 C245 1.554 . S
C453 C339 1.603 . S
C469 C47 1.600 . S
C471 C297 1.628 . S
C487 C100 1.676 . S
C489 C311 1.708 . S
C505 C153 1.609 . S
C507 C325 1.665 . S
C525 C343 1.566 . S
C523 C199 1.571 . S
C543 C357 1.549 . S
C541 C231 1.572 . S
C561 C283 1.583 . S
C559 C1 1.561 . S
C577 C22 1.495 . S
C579 C298 1.437 . S
C595 C68 1.559 . S
C597 C312 1.502 . S
C615 C326 1.503 . S
C613 C107 1.561 . S
C631 C146 1.482 . S
C633 C345 1.435 . S
C651 C359 1.399 . S
C649 C192 1.459 . S
C669 C284 1.413 . S
C667 C252 1.472 . S
C687 C354 1.418 . S
C685 C54 1.483 . S
C703 C93 1.400 . S
C705 C289 1.362 . S
C723 C303 1.371 . S
C721 C160 1.398 . S
C739 C206 1.463 . S
C741 C317 1.413 . S
C757 C238 1.488 . S
C759 C331 1.444 . S
C775 C8 1.512 . S
C777 C340 1.445 . S
