# Generated by pormake.
# Topology pyr, (3,6)-cn, num edge types: 1
# Building blocks:
#     Node 0, Type 0, BuildingBlock: ESEHIV_clean_linker_0, # of connection points: 3
#     Node 1, Type 0, BuildingBlock: ESEHIV_clean_linker_0, # of connection points: 3
#     Node 2, Type 0, BuildingBlock: ESEHIV_clean_linker_0, # of connection points: 3
#     Node 3, Type 0, BuildingBlock: ESEHIV_clean_linker_0, # of connection points: 3
#     Node 4, Type 0, BuildingBlock: ESEHIV_clean_linker_0, # of connection points: 3
#     Node 5, Type 0, BuildingBlock: ESEHIV_clean_linker_0, # of connection points: 3
#     Node 6, Type 0, BuildingBlock: ESEHIV_clean_linker_0, # of connection points: 3
#     Node 7, Type 0, BuildingBlock: ESEHIV_clean_linker_0, # of connection points: 3
#     Node 8, Type 1, BuildingBlock: BETDIP_clean_sbu_0, # of connection points: 6
#     Node 9, Type 1, BuildingBlock: BETDIP_clean_sbu_0, # of connection points: 6
#     Node 10, Type 1, BuildingBlock: BETDIP_clean_sbu_0, # of connection points: 6
#     Node 11, Type 1, BuildingBlock: BETDIP_clean_sbu_0, # of connection points: 6
#     Edge 12, Type (0, 1), BuildingBlock: KIFKEQ_clean_linker_1, # of connection points: 2
#     Edge 13, Type (0, 1), BuildingBlock: KIFKEQ_clean_linker_1, # of connection points: 2
#     Edge 14, Type (0, 1), BuildingBlock: KIFKEQ_clean_linker_1, # of connection points: 2
#     Edge 15, Type (0, 1), BuildingBlock: KIFKEQ_clean_linker_1, # of connection points: 2
#     Edge 16, Type (0, 1), BuildingBlock: KIFKEQ_clean_linker_1, # of connection points: 2
#     Edge 17, Type (0, 1), BuildingBlock: KIFKEQ_clean_linker_1, # of connection points: 2
#     Edge 18, Type (0, 1), BuildingBlock: KIFKEQ_clean_linker_1, # of connection points: 2
#     Edge 19, Type (0, 1), BuildingBlock: KIFKEQ_clean_linker_1, # of connection points: 2
#     Edge 20, Type (0, 1), BuildingBlock: KIFKEQ_clean_linker_1, # of connection points: 2
#     Edge 21, Type (0, 1), BuildingBlock: KIFKEQ_clean_linker_1, # of connection points: 2
#     Edge 22, Type (0, 1), BuildingBlock: KIFKEQ_clean_linker_1, # of connection points: 2
#     Edge 23, Type (0, 1), BuildingBlock: KIFKEQ_clean_linker_1, # of connection points: 2
#     Edge 24, Type (0, 1), BuildingBlock: KIFKEQ_clean_linker_1, # of connection points: 2
#     Edge 25, Type (0, 1), BuildingBlock: KIFKEQ_clean_linker_1, # of connection points: 2
#     Edge 26, Type (0, 1), BuildingBlock: KIFKEQ_clean_linker_1, # of connection points: 2
#     Edge 27, Type (0, 1), BuildingBlock: KIFKEQ_clean_linker_1, # of connection points: 2
#     Edge 28, Type (0, 1), BuildingBlock: KIFKEQ_clean_linker_1, # of connection points: 2
#     Edge 29, Type (0, 1), BuildingBlock: KIFKEQ_clean_linker_1, # of connection points: 2
#     Edge 30, Type (0, 1), BuildingBlock: KIFKEQ_clean_linker_1, # of connection points: 2
#     Edge 31, Type (0, 1), BuildingBlock: KIFKEQ_clean_linker_1, # of connection points: 2
#     Edge 32, Type (0, 1), BuildingBlock: KIFKEQ_clean_linker_1, # of connection points: 2
#     Edge 33, Type (0, 1), BuildingBlock: KIFKEQ_clean_linker_1, # of connection points: 2
#     Edge 34, Type (0, 1), BuildingBlock: KIFKEQ_clean_linker_1, # of connection points: 2
#     Edge 35, Type (0, 1), BuildingBlock: KIFKEQ_clean_linker_1, # of connection points: 2
# Relax obj value: 0.153
# Max RMSD: 0.204
# Mean RMSD: 0.091
data_MOF--net-pyr--node1-BETDIP_clean_sbu_0--node2-ESEHIV_clean_linker_0--edge1-KIFKEQ_clean_linker_1
_symmetry_space_group_name_H-M    P1
_symmetry_Int_Tables_number       1
_symmetry_cell_setting            triclinic
loop_
_symmetry_equiv_pos_as_xyz
'x, y, z'
_cell_length_a     35.383245
_cell_length_b     37.579502
_cell_length_c     33.967493
_cell_angle_alpha  88.898868
_cell_angle_beta   93.123845
_cell_angle_gamma 104.08412
loop_
_atom_site_label
_atom_site_type_symbol
_atom_site_fract_x
_atom_site_fract_y
_atom_site_fract_z
_atom_type_partial_charge
H0 H 0.33873 0.34478 0.32963 0.0
H1 H 0.41896 0.2752 0.33847 0.0
H2 H 0.40087 0.3294 0.22898 0.0
C3 C 0.36138 0.33424 0.31727 0.0
C4 C 0.3695 0.34178 0.27755 0.0
C5 C 0.37877 0.3101 0.33969 0.0
C6 C 0.40585 0.29443 0.32191 0.0
C7 C 0.41322 0.30044 0.28177 0.0
C8 C 0.39558 0.32484 0.26002 0.0
H9 H 0.10649 0.80454 0.84322 0.0
H10 H 0.19633 0.74611 0.83645 0.0
H11 H 0.14181 0.77849 0.73048 0.0
C12 C 0.12429 0.79157 0.8261 0.0
C13 C 0.1216 0.79432 0.78479 0.0
C14 C 0.15161 0.77476 0.84538 0.0
C15 C 0.17363 0.75743 0.82237 0.0
C16 C 0.16951 0.75759 0.78098 0.0
C17 C 0.14353 0.77636 0.76234 0.0
H18 H 0.66369 0.33716 0.98143 0.0
H19 H 0.67753 0.42426 0.89534 0.0
H20 H 0.57699 0.33214 0.88708 0.0
C21 C 0.6536 0.34912 0.95482 0.0
C22 C 0.61828 0.33061 0.9358 0.0
C23 C 0.67584 0.38256 0.94022 0.0
C24 C 0.66109 0.39821 0.90641 0.0
C25 C 0.62512 0.38073 0.88698 0.0
C26 C 0.60429 0.3464 0.90172 0.0
H27 H 0.81837 0.73664 0.46201 0.0
H28 H 0.90753 0.73899 0.37988 0.0
H29 H 0.81075 0.64406 0.38771 0.0
C30 C 0.83052 0.72364 0.43924 0.0
C31 C 0.81093 0.68818 0.42715 0.0
C32 C 0.86566 0.74227 0.42292 0.0
C33 C 0.88033 0.72513 0.39248 0.0
C34 C 0.86088 0.68946 0.37944 0.0
C35 C 0.82635 0.67121 0.39746 0.0
H36 H 0.58767 0.81989 0.87201 0.0
H37 H 0.66892 0.75168 0.87157 0.0
H38 H 0.59925 0.75015 0.97151 0.0
C39 C 0.59996 0.79864 0.88564 0.0
C40 C 0.58961 0.78618 0.92376 0.0
C41 C 0.6287 0.78651 0.86652 0.0
C42 C 0.64526 0.75977 0.88505 0.0
C43 C 0.63462 0.74619 0.92274 0.0
C44 C 0.60667 0.75951 0.9419 0.0
H45 H 0.81341 0.36061 0.37229 0.0
H46 H 0.88483 0.28461 0.35881 0.0
H47 H 0.87177 0.32409 0.47383 0.0
C48 C 0.83396 0.34585 0.38496 0.0
C49 C 0.84113 0.34563 0.42601 0.0
C50 C 0.84921 0.32373 0.36041 0.0
C51 C 0.87462 0.30336 0.37704 0.0
C52 C 0.8828 0.30335 0.41795 0.0
C53 C 0.86643 0.32497 0.44214 0.0
H54 H 0.32488 0.73573 0.22523 0.0
H55 H 0.31306 0.64396 0.30511 0.0
H56 H 0.41032 0.73781 0.32075 0.0
C57 C 0.33487 0.72308 0.25139 0.0
C58 C 0.36927 0.74183 0.27218 0.0
C59 C 0.31392 0.6879 0.26291 0.0
C60 C 0.32897 0.67078 0.2954 0.0
C61 C 0.36398 0.68825 0.31627 0.0
C62 C 0.38365 0.72403 0.30468 0.0
H63 H 0.08607 0.32578 0.82162 0.0
H64 H 0.1718 0.3331 0.73477 0.0
H65 H 0.18092 0.42251 0.81437 0.0
C66 C 0.11229 0.34091 0.8081 0.0
C67 C 0.1318 0.37613 0.82232 0.0
C68 C 0.12645 0.32529 0.77623 0.0
C69 C 0.16064 0.345 0.75912 0.0
C70 C 0.18053 0.37991 0.77271 0.0
C71 C 0.16581 0.39538 0.80411 0.0
Tb72 Tb 0.96153 1.03154 0.60134 0.0
Tb73 Tb 0.04283 0.05072 0.57361 0.0
C74 C 0.88867 1.01277 0.60735 0.0
C75 C 0.85977 0.98613 0.62957 0.0
C76 C 0.85693 0.9482 0.62802 0.0
C77 C 0.82812 0.92357 0.64815 0.0
C78 C 0.80174 0.93637 0.67036 0.0
C79 C 0.80501 0.97439 0.67206 0.0
C80 C 0.83358 0.99894 0.65172 0.0
C81 C 0.01305 0.07805 0.64731 0.0
C82 C 0.01944 0.98954 0.63812 0.0
C83 C 0.11325 0.07657 0.56043 0.0
C84 C 0.14321 0.10942 0.55072 0.0
C85 C 0.13671 0.14478 0.55085 0.0
C86 C 0.16639 0.1751 0.54041 0.0
C87 C 0.2028 0.17028 0.5298 0.0
C88 C 0.20886 0.13464 0.53023 0.0
C89 C 0.17943 0.10464 0.54068 0.0
C90 C -0.00084 0.98824 0.54464 0.0
C91 C 0.98515 0.097 0.53967 0.0
O92 O 0.90715 0.99971 0.58102 0.0
O93 O 0.91171 0.03939 0.62757 0.0
O94 O 0.01116 0.077 0.6102 0.0
O95 O 0.98457 0.05247 0.66008 0.0
O96 O 0.98246 0.98607 0.62672 0.0
O97 O 0.04703 1.01783 0.62671 0.0
O98 O 0.09948 0.07477 0.5957 0.0
O99 O 0.08642 0.06351 0.53275 0.0
O100 O 0.98798 1.01711 0.55065 0.0
O101 O 0.03639 0.99527 0.55158 0.0
O102 O 0.02076 0.09181 0.53911 0.0
O103 O 0.9581 0.07676 0.56149 0.0
H104 H 0.87669 0.93748 0.61109 0.0
H105 H 0.82623 0.89448 0.64589 0.0
H106 H 0.78577 0.98532 0.68949 0.0
H107 H 0.83521 1.02805 0.65329 0.0
H108 H 0.10876 0.14884 0.5586 0.0
H109 H 0.1608 0.20218 0.54043 0.0
H110 H 0.23598 0.12962 0.52124 0.0
H111 H 0.18481 0.07746 0.54031 0.0
Tb112 Tb 0.54145 0.04757 0.11429 0.0
Tb113 Tb 0.45485 1.02766 0.10305 0.0
C114 C 0.61354 0.07617 0.11896 0.0
C115 C 0.64191 0.11053 0.12998 0.0
C116 C 0.63944 0.14471 0.11396 0.0
C117 C 0.66769 0.17655 0.12487 0.0
C118 C 0.69871 0.17466 0.15199 0.0
C119 C 0.7009 0.14024 0.16766 0.0
C120 C 0.67296 0.1086 0.15659 0.0
C121 C 0.50613 0.98672 0.15145 0.0
C122 C 0.49144 0.09005 0.16174 0.0
C123 C 0.38296 0.9982 1.0989 0.0
C124 C 0.35617 0.96278 1.08944 0.0
C125 C 0.36888 0.93022 1.08893 0.0
C126 C 0.3427 0.89727 1.07749 0.0
C127 C 0.30358 0.89659 1.06635 0.0
C128 C 0.29109 0.92932 1.06811 0.0
C129 C 0.31712 0.962 1.0796 0.0
C130 C 0.48981 0.08862 1.06598 0.0
C131 C 0.50508 0.98563 1.05536 0.0
O132 O 0.59145 0.07635 1.08679 0.0
O133 O 0.59449 0.05752 0.14769 0.0
O134 O 0.49458 1.01588 0.14771 0.0
O135 O 0.5397 0.99188 0.13614 0.0
O136 O 0.52533 0.0915 0.14626 0.0
O137 O 0.46054 0.06307 0.15346 0.0
O138 O 0.40506 0.99952 0.13124 0.0
O139 O 0.40186 1.01579 1.06951 0.0
O140 O 0.50162 0.05954 1.06957 0.0
O141 O 0.45609 0.08308 1.08108 0.0
O142 O 0.47129 0.98382 1.07117 0.0
O143 O 0.53576 1.01284 1.06344 0.0
H144 H 0.61576 0.14689 1.09318 0.0
H145 H 0.66518 0.20257 0.11215 0.0
H146 H 0.72363 0.1377 0.18942 0.0
H147 H 0.67543 0.08249 0.16919 0.0
H148 H 0.39906 0.93042 1.09665 0.0
H149 H 0.35323 0.87256 1.07665 0.0
H150 H 0.26156 0.93019 1.05886 0.0
H151 H 0.30694 0.98697 1.0798 0.0
Tb152 Tb 0.49388 0.57242 0.61922 0.0
Tb153 Tb 0.49912 0.50204 0.5861 0.0
C154 C 0.48675 0.63622 0.63107 0.0
C155 C 0.45339 0.65038 0.64175 0.0
C156 C 0.4153 0.63355 0.62752 0.0
C157 C 0.38362 0.64614 0.63913 0.0
C158 C 0.38936 0.67531 0.66576 0.0
C159 C 0.42748 0.69213 0.67998 0.0
C160 C 0.45927 0.67986 0.66789 0.0
C161 C 0.51963 0.52847 0.67037 0.0
C162 C 0.42306 0.50622 0.63087 0.0
C163 C 0.50874 0.43912 0.57487 0.0
C164 C 0.54462 0.42811 0.56633 0.0
C165 C 0.58106 0.44922 0.58044 0.0
C166 C 0.61543 0.44076 0.57009 0.0
C167 C 0.61422 0.4113 0.54482 0.0
C168 C 0.57759 0.38991 0.53098 0.0
C169 C 0.54308 0.39827 0.5417 0.0
C170 C 0.47344 0.54586 0.53466 0.0
C171 C 0.56951 0.56824 0.57382 0.0
O172 O 0.48407 0.62163 0.59605 0.0
O173 O 0.49997 0.61652 0.65813 0.0
O174 O 0.52858 0.53382 0.63482 0.0
O175 O 0.49739 0.54969 0.67871 0.0
O176 O 0.43453 0.54237 0.62937 0.0
O177 O 0.44464 0.48527 0.61737 0.0
O178 O 0.50825 0.45278 0.60996 0.0
O179 O 0.49581 0.45845 0.54721 0.0
O180 O 0.46455 0.54076 0.57026 0.0
O181 O 0.4951 0.52407 0.52644 0.0
O182 O 0.55836 0.5322 0.57633 0.0
O183 O 0.54776 0.58921 0.58683 0.0
H184 H 0.4099 0.61027 0.60794 0.0
H185 H 0.35449 0.63235 0.62821 0.0
H186 H 0.43264 0.71474 0.70049 0.0
H187 H 0.48838 0.69302 0.6794 0.0
H188 H 0.5831 0.47271 0.599 0.0
H189 H 0.64297 0.45749 0.58181 0.0
H190 H 0.57555 0.36734 0.511 0.0
H191 H 0.51526 0.38197 0.53006 0.0
Tb192 Tb 0.99067 0.56356 1.07185 0.0
Tb193 Tb 0.00205 0.5043 0.12725 0.0
C194 C 0.96178 0.60679 1.0294 0.0
C195 C 0.92375 0.61666 1.02611 0.0
C196 C 0.89917 0.60647 0.99227 0.0
C197 C 0.8631 0.61541 0.98826 0.0
C198 C 0.85088 0.635 1.01792 0.0
C199 C 0.87538 0.64507 1.05194 0.0
C200 C 0.91145 0.63594 1.05605 0.0
C201 C 0.06205 0.57519 0.10561 0.0
C202 C 0.96164 0.56154 0.15949 0.0
C203 C 0.03141 0.461 0.16896 0.0
C204 C 0.07007 0.45225 0.17153 0.0
C205 C 0.09728 0.46711 0.20218 0.0
C206 C 0.134 0.45945 0.20503 0.0
C207 C 0.14426 0.43643 0.17751 0.0
C208 C 0.1171 0.42157 0.14677 0.0
C209 C 0.08039 0.42944 0.14375 0.0
C210 C 0.93069 0.49284 1.0934 0.0
C211 C 0.03117 0.5062 1.03993 0.0
O212 O 0.96116 0.57332 1.01919 0.0
O213 O 0.98423 0.61706 1.06112 0.0
O214 O 0.03042 0.56084 0.12122 0.0
O215 O 0.0539 0.58658 1.07066 0.0
O216 O 0.95588 0.57038 0.12202 0.0
O217 O 0.98297 0.5381 0.16941 0.0
O218 O 0.03095 0.49399 0.18004 0.0
O219 O 0.00911 0.45088 0.1371 0.0
O220 O 0.96241 0.50703 1.07793 0.0
O221 O 0.93875 0.48129 0.12831 0.0
O222 O 0.03744 0.49807 1.07748 0.0
O223 O 0.0094 0.52923 1.02982 0.0
H224 H 0.90799 0.59172 0.96869 0.0
H225 H 0.84522 0.60778 0.9614 0.0
H226 H 0.86665 0.65998 1.07541 0.0
H227 H 0.92967 0.64412 1.08257 0.0
H228 H 0.09012 0.48461 0.22415 0.0
H229 H 0.15401 0.47082 0.22943 0.0
H230 H 0.12428 0.4039 0.12501 0.0
H231 H 0.06016 0.41759 0.11971 0.0
H232 H 0.35228 0.34828 0.39673 0.0
H233 H 0.36871 0.24074 0.37119 0.0
H234 H 0.3136 0.32207 0.4525 0.0
H235 H 0.33293 0.2159 0.42818 0.0
H236 H 0.28192 0.18312 0.54418 0.0
H237 H 0.33219 0.22396 0.50697 0.0
H238 H 0.24436 0.26927 0.44591 0.0
H239 H 0.19369 0.22739 0.48167 0.0
C240 C 0.34851 0.31937 0.40331 0.0
C241 C 0.36339 0.29669 0.37878 0.0
C242 C 0.32664 0.30455 0.43545 0.0
C243 C 0.3204 0.26708 0.44447 0.0
C244 C 0.33779 0.24503 0.42208 0.0
C245 C 0.35866 0.25951 0.38942 0.0
C246 C 0.2733 0.20212 0.52321 0.0
C247 C 0.23363 0.20128 0.51515 0.0
C248 C 0.30215 0.22567 0.50225 0.0
C249 C 0.29199 0.24942 0.4735 0.0
C250 C 0.25289 0.25133 0.46821 0.0
C251 C 0.22388 0.22733 0.48875 0.0
H252 H 0.17913 0.72931 0.89909 0.0
H253 H 0.14914 0.8344 0.88984 0.0
H254 H 0.21141 0.74694 0.96375 0.0
H255 H 0.17822 0.84996 0.95497 0.0
H256 H 0.22506 0.87071 1.0758 0.0
H257 H 0.179 0.82927 1.03121 0.0
H258 H 0.27492 0.80527 0.97254 0.0
H259 H 0.32103 0.84779 1.01563 0.0
C260 C 0.17843 0.75566 0.91095 0.0
C261 C 0.16201 0.78061 0.88842 0.0
C262 C 0.19652 0.76543 0.94819 0.0
C263 C 0.19717 0.79971 0.96418 0.0
C264 C 0.17759 0.82309 0.94351 0.0
C265 C 0.16062 0.81391 0.90597 0.0
C266 C 0.23639 0.85601 1.05394 0.0
C267 C 0.27673 0.86347 1.04849 0.0
C268 C 0.20999 0.83203 1.02877 0.0
C269 C 0.22352 0.81449 0.99834 0.0
C270 C 0.2638 0.81832 0.99602 0.0
C271 C 0.29024 0.84276 1.02077 0.0
H272 H 0.66474 0.42118 0.82651 0.0
H273 H 0.54873 0.38245 0.86838 0.0
H274 H 0.63934 0.45512 0.77376 0.0
H275 H 0.52307 0.41496 0.81457 0.0
H276 H 0.49658 0.51239 0.74503 0.0
H277 H 0.5214 0.47537 0.79497 0.0
H278 H 0.60155 0.45287 0.71281 0.0
H279 H 0.57724 0.49126 0.6632 0.0
C280 C 0.63375 0.41969 0.82448 0.0
C281 C 0.609 0.3991 0.8523 0.0
C282 C 0.61903 0.43891 0.79373 0.0
C283 C 0.57902 0.43823 0.78967 0.0
C284 C 0.55413 0.41684 0.81686 0.0
C285 C 0.56885 0.39765 0.84761 0.0
C286 C 0.51947 0.4995 0.73754 0.0
C287 C 0.53474 0.50467 0.69991 0.0
C288 C 0.53356 0.47789 0.7662 0.0
C289 C 0.56349 0.46065 0.75825 0.0
C290 C 0.57874 0.4658 0.72041 0.0
C291 C 0.56455 0.48752 0.69167 0.0
H292 H 0.86353 0.61715 0.37495 0.0
H293 H 0.89338 0.71955 0.31071 0.0
H294 H 0.8858 0.58623 0.3217 0.0
H295 H 0.91702 0.68877 0.25783 0.0
H296 H 0.91918 0.61409 0.15218 0.0
H297 H 0.89514 0.64493 0.20471 0.0
H298 H 0.94385 0.58101 0.29163 0.0
H299 H 0.96724 0.54989 0.23932 0.0
C300 C 0.87484 0.63316 0.34946 0.0
C301 C 0.8764 0.67096 0.34728 0.0
C302 C 0.88807 0.61542 0.31897 0.0
C303 C 0.90331 0.63484 0.28519 0.0
C304 C 0.90508 0.67271 0.28306 0.0
C305 C 0.89195 0.69052 0.31369 0.0
C306 C 0.92459 0.60644 0.18248 0.0
C307 C 0.94517 0.57933 0.19129 0.0
C308 C 0.91104 0.62439 0.21272 0.0
C309 C 0.91752 0.61565 0.25267 0.0
C310 C 0.93777 0.58826 0.26135 0.0
C311 C 0.95138 0.57044 0.23119 0.0
H312 H 0.38915 0.26402 0.21312 0.0
H313 H 0.48085 0.28014 0.30513 0.0
H314 H 0.41342 0.21502 0.18577 0.0
H315 H 0.50506 0.23043 0.27748 0.0
H316 H 0.42493 0.09693 0.19415 0.0
H317 H 0.41203 0.15157 0.22183 0.0
H318 H 0.53171 0.20999 0.20842 0.0
H319 H 0.54499 0.155 0.17978 0.0
C320 C 0.4152 0.25788 0.22686 0.0
C321 C 0.43305 0.27598 0.26136 0.0
C322 C 0.42882 0.22953 0.21141 0.0
C323 C 0.46074 0.21874 0.22987 0.0
C324 C 0.48035 0.2383 0.26279 0.0
C325 C 0.46644 0.26657 0.2786 0.0
C326 C 0.4488 0.12114 0.19739 0.0
C327 C 0.48595 0.12159 0.18435 0.0
C328 C 0.44126 0.15252 0.21309 0.0
C329 C 0.47072 0.18504 0.21659 0.0
C330 C 0.50851 0.18519 0.20581 0.0
C331 C 0.51605 0.15372 0.18954 0.0
H332 H 0.07453 0.78583 0.7165 0.0
H333 H 0.12284 0.86296 0.80961 0.0
H334 H 0.04654 0.83252 0.68273 0.0
H335 H 0.09427 0.90878 0.77661 0.0
H336 H 0.08906 0.99316 0.67817 0.0
H337 H 0.10982 0.94439 0.71481 0.0
H338 H 0.99692 0.87101 0.68967 0.0
H339 H 0.97596 0.92001 0.65261 0.0
C340 C 0.07873 0.81249 0.72997 0.0
C341 C 0.10078 0.82059 0.76579 0.0
C342 C 0.06251 0.83909 0.71082 0.0
C343 C 0.06846 0.87434 0.72697 0.0
C344 C 0.08952 0.88198 0.76327 0.0
C345 C 0.10549 0.85551 0.78241 0.0
C346 C 0.0685 0.96675 0.68062 0.0
C347 C 0.03083 0.96051 0.66258 0.0
C348 C 0.08036 0.93883 0.70177 0.0
C349 C 0.05495 0.90391 0.70516 0.0
C350 C 0.01717 0.89762 0.68732 0.0
C351 C 0.00511 0.92575 0.66642 0.0
H352 H 0.7095 0.45682 0.95044 0.0
H353 H 0.73011 0.34987 0.97684 0.0
H354 H 0.77089 0.48545 0.98647 0.0
H355 H 0.78985 0.37856 1.01442 0.0
H356 H 0.86639 0.4427 0.11724 0.0
H357 H 0.80522 0.4177 1.07926 0.0
H358 H 0.84704 0.48876 0.98155 0.0
H359 H 0.90886 0.51289 1.01909 0.0
C360 C 0.72699 0.43932 0.96357 0.0
C361 C 0.71417 0.4008 0.96085 0.0
C362 C 0.7621 0.45582 0.98446 0.0
C363 C 0.7849 0.43422 1.0037 0.0
C364 C 0.77254 0.39591 1.00053 0.0
C365 C 0.73801 0.37948 0.97909 0.0
C366 C 0.86252 0.45315 1.08773 0.0
C367 C 0.89257 0.47982 1.07119 0.0
C368 C 0.82752 0.43874 1.06595 0.0
C369 C 0.82136 0.45119 1.02738 0.0
C370 C 0.85086 0.47876 1.01126 0.0
C371 C 0.88626 0.49261 1.03278 0.0
H372 H 0.7936 0.61929 0.45967 0.0
H373 H 0.74679 0.71412 0.43892 0.0
H374 H 0.73689 0.59025 0.49677 0.0
H375 H 0.68928 0.68479 0.47439 0.0
H376 H 0.60879 0.64084 0.57214 0.0
H377 H 0.66707 0.66872 0.53712 0.0
H378 H 0.67045 0.56196 0.49432 0.0
H379 H 0.61343 0.53408 0.53086 0.0
C380 C 0.77077 0.63361 0.46248 0.0
C381 C 0.77469 0.669 0.4465 0.0
C382 C 0.73813 0.61699 0.48373 0.0
C383 C 0.70828 0.63514 0.48908 0.0
C384 C 0.71191 0.67019 0.47198 0.0
C385 C 0.74476 0.68696 0.45126 0.0
C386 C 0.6222 0.6233 0.55554 0.0
C387 C 0.60636 0.58521 0.55442 0.0
C388 C 0.65551 0.63933 0.53503 0.0
C389 C 0.67361 0.61779 0.51234 0.0
C390 C 0.65792 0.57957 0.51176 0.0
C391 C 0.62494 0.56351 0.53267 0.0
H392 H 0.3509 0.4054 0.29707 0.0
H393 H 0.33368 0.32501 0.20446 0.0
H394 H 0.30066 0.43177 0.26526 0.0
H395 H 0.28462 0.35246 0.17155 0.0
H396 H 0.15829 0.36862 0.17103 0.0
H397 H 0.21888 0.35072 0.18718 0.0
H398 H 0.27721 0.46387 0.21125 0.0
H399 H 0.21614 0.48166 0.19555 0.0
C400 C 0.33706 0.39398 0.26934 0.0
C401 C 0.3459 0.36283 0.25359 0.0
C402 C 0.30846 0.4093 0.25087 0.0
C403 C 0.28816 0.39392 0.21607 0.0
C404 C 0.29919 0.36454 0.1987 0.0
C405 C 0.32772 0.34911 0.2173 0.0
C406 C 0.18424 0.38979 0.17891 0.0
C407 C 0.18235 0.42648 0.18239 0.0
C408 C 0.2191 0.37956 0.18807 0.0
C409 C 0.25297 0.40583 0.20074 0.0
C410 C 0.25153 0.44285 0.20224 0.0
C411 C 0.21658 0.45305 0.19326 0.0
H412 H 0.5933 0.31762 1.01029 0.0
H413 H 0.59534 0.26304 0.90024 0.0
H414 H 0.5633 0.25891 1.04095 0.0
H415 H 0.56546 0.20377 0.9311 0.0
H416 H 0.55295 0.10224 1.01851 0.0
H417 H 0.58281 0.16033 0.98532 0.0
H418 H 0.5002 0.21149 1.03608 0.0
H419 H 0.47061 0.15395 1.06879 0.0
C420 C 0.58697 0.29301 0.99256 0.0
C421 C 0.59639 0.29502 0.95276 0.0
C422 C 0.56977 0.25933 1.01012 0.0
C423 C 0.56203 0.22649 0.98859 0.0
C424 C 0.5713 0.22846 0.94864 0.0
C425 C 0.58797 0.2624 0.93082 0.0
C426 C 0.54133 0.12597 1.02255 0.0
C427 C 0.5094 0.12346 1.04627 0.0
C428 C 0.5582 0.15916 1.00333 0.0
C429 C 0.54388 0.19066 1.00795 0.0
C430 C 0.5122 0.18799 1.03203 0.0
C431 C 0.49513 0.15488 1.0507 0.0
H432 H 0.90513 0.80355 0.3825 0.0
H433 H 0.87449 0.76487 0.49987 0.0
H434 H 0.93594 0.8645 0.40916 0.0
H435 H 0.90414 0.82554 0.52599 0.0
H436 H 0.92546 0.94599 0.55611 0.0
H437 H 0.89289 0.88811 0.52424 0.0
H438 H 0.99258 0.896 0.4538 0.0
H439 H 0.02464 0.95429 0.48538 0.0
C440 C 0.90511 0.80786 0.41392 0.0
C441 C 0.88673 0.77918 0.43882 0.0
C442 C 0.92262 0.84288 0.42919 0.0
C443 C 0.92195 0.85014 0.46967 0.0
C444 C 0.90433 0.82127 0.49456 0.0
C445 C 0.88726 0.78636 0.47945 0.0
C446 C 0.93976 0.93612 0.53292 0.0
C447 C 0.97714 0.95526 0.52263 0.0
C448 C 0.92146 0.90251 0.51508 0.0
C449 C 0.94011 0.88729 0.48638 0.0
C450 C 0.97714 0.90702 0.47539 0.0
C451 C 0.99556 0.94037 0.4936 0.0
H452 H 0.20868 0.78638 0.71544 0.0
H453 H 0.19121 0.69336 0.79508 0.0
H454 H 0.25962 0.76471 0.68446 0.0
H455 H 0.24297 0.67256 0.76486 0.0
H456 H 0.3738 0.68526 0.74172 0.0
H457 H 0.31698 0.70263 0.76573 0.0
H458 H 0.27146 0.7089 0.64595 0.0
H459 H 0.32841 0.69123 0.62183 0.0
C460 C 0.21502 0.76091 0.72577 0.0
C461 C 0.19607 0.74177 0.75801 0.0
C462 C 0.24435 0.74866 0.70814 0.0
C463 C 0.25553 0.7173 0.7227 0.0
C464 C 0.23532 0.69718 0.75355 0.0
C465 C 0.20573 0.70912 0.77081 0.0
C466 C 0.35176 0.69055 0.72054 0.0
C467 C 0.35546 0.68701 0.67996 0.0
C468 C 0.31913 0.70014 0.73426 0.0
C469 C 0.28978 0.70684 0.70766 0.0
C470 C 0.29371 0.70388 0.66701 0.0
C471 C 0.32612 0.69368 0.65328 0.0
H472 H 0.64313 0.85989 0.84927 0.0
H473 H 0.65481 0.75694 0.80279 0.0
H474 H 0.67951 0.89257 0.7957 0.0
H475 H 0.69277 0.79028 0.7497 0.0
H476 H 0.80841 0.87415 0.71084 0.0
H477 H 0.76039 0.83469 0.75147 0.0
H478 H 0.67874 0.9008 0.72148 0.0
H479 H 0.72627 0.93979 0.67988 0.0
C480 C 0.65244 0.84402 0.82709 0.0
C481 C 0.64592 0.80564 0.83049 0.0
C482 C 0.67356 0.86289 0.79643 0.0
C483 C 0.68911 0.84397 0.76869 0.0
C484 C 0.6814 0.80554 0.77099 0.0
C485 C 0.65976 0.78652 0.80142 0.0
C486 C 0.77993 0.87982 0.71208 0.0
C487 C 0.77141 0.91044 0.6924 0.0
C488 C 0.75242 0.85717 0.73537 0.0
C489 C 0.71594 0.86482 0.73972 0.0
C490 C 0.70683 0.89455 0.71895 0.0
C491 C 0.73417 0.91699 0.69537 0.0
H492 H 0.77275 0.3121 0.33635 0.0
H493 H 0.88611 0.31543 0.29294 0.0
H494 H 0.74197 0.28792 0.2745 0.0
H495 H 0.85484 0.29112 0.22968 0.0
H496 H 0.77706 0.18426 0.16961 0.0
H497 H 0.81816 0.2318 0.21081 0.0
H498 H 0.72717 0.2907 0.20651 0.0
H499 H 0.68484 0.24153 0.16796 0.0
C500 C 0.79135 0.30908 0.31298 0.0
C501 C 0.832 0.31573 0.31971 0.0
C502 C 0.77354 0.29516 0.27715 0.0
C503 C 0.7958 0.28736 0.24689 0.0
C504 C 0.83676 0.29633 0.25255 0.0
C505 C 0.85469 0.31026 0.28872 0.0
C506 C 0.76591 0.20752 0.17717 0.0
C507 C 0.72708 0.2083 0.16682 0.0
C508 C 0.78982 0.23522 0.20029 0.0
C509 C 0.77561 0.26465 0.21302 0.0
C510 C 0.7386 0.26781 0.19826 0.0
C511 C 0.71441 0.23975 0.1757 0.0
H512 H 0.37074 0.61724 0.31796 0.0
H513 H 0.39357 0.71414 0.3901 0.0
H514 H 0.39615 0.58415 0.3716 0.0
H515 H 0.41919 0.68082 0.44412 0.0
H516 H 0.42292 0.59076 0.54355 0.0
H517 H 0.3969 0.62666 0.49211 0.0
H518 H 0.46084 0.58631 0.4056 0.0
H519 H 0.48712 0.55137 0.4567 0.0
C520 C 0.38104 0.63149 0.34536 0.0
C521 C 0.38005 0.66845 0.34955 0.0
C522 C 0.39588 0.61254 0.37611 0.0
C523 C 0.40984 0.62974 0.41231 0.0
C524 C 0.40848 0.6666 0.41679 0.0
C525 C 0.39412 0.68581 0.38569 0.0
C526 C 0.43163 0.58991 0.51363 0.0
C527 C 0.45718 0.56822 0.50438 0.0
C528 C 0.41677 0.61048 0.48412 0.0
C529 C 0.42657 0.60929 0.44453 0.0
C530 C 0.45221 0.58762 0.43554 0.0
C531 C 0.4674 0.56761 0.46498 0.0
H532 H 0.05632 0.37912 0.83399 0.0
H533 H 0.17331 0.41254 0.88625 0.0
H534 H 0.03258 0.4101 0.88677 0.0
H535 H 0.14969 0.44372 0.93878 0.0
H536 H 0.08443 0.46362 1.04822 0.0
H537 H 0.10829 0.43123 0.99682 0.0
H538 H 0.03795 0.47394 0.90897 0.0
H539 H 0.01416 0.50635 0.96017 0.0
C540 C 0.07693 0.3928 0.8569 0.0
C541 C 0.11677 0.39335 0.85571 0.0
C542 C 0.06339 0.4109 0.88699 0.0
C543 C 0.08921 0.42964 0.91706 0.0
C544 C 0.12889 0.42945 0.91633 0.0
C545 C 0.1425 0.41177 0.886 0.0
C546 C 0.07419 0.46631 1.01792 0.0
C547 C 0.0474 0.48781 1.00848 0.0
C548 C 0.08797 0.44776 0.98839 0.0
C549 C 0.07495 0.44976 0.94864 0.0
C550 C 0.04827 0.47134 0.93925 0.0
C551 C 0.03487 0.49024 0.96867 0.0
H552 H 0.52234 0.80687 0.90051 0.0
H553 H 0.60695 0.81236 0.99826 0.0
H554 H 0.49537 0.85252 0.93269 0.0
H555 H 0.57991 0.85746 1.03008 0.0
H556 H 0.57251 0.97845 1.02542 0.0
H557 H 0.58542 0.92443 0.99643 0.0
H558 H 0.4646 0.86715 1.00431 0.0
H559 H 0.45126 0.92153 1.03451 0.0
C560 C 0.53442 0.81703 0.92929 0.0
C561 C 0.56693 0.80622 0.94673 0.0
C562 C 0.51889 0.84295 0.94768 0.0
C563 C 0.53595 0.85862 0.98352 0.0
C564 C 0.56645 0.8458 1.0023 0.0
C565 C 0.58169 0.81975 0.9842 0.0
C566 C 0.5484 0.95462 1.0208 0.0
C567 C 0.51085 0.95432 1.03259 0.0
C568 C 0.55596 0.9236 1.00439 0.0
C569 C 0.52613 0.89161 0.99884 0.0
C570 C 0.48807 0.89156 1.00861 0.0
C571 C 0.4805 0.92266 1.02572 0.0
H572 H 0.95251 0.28887 0.4003 0.0
H573 H 0.85521 0.25424 0.4749 0.0
H574 H 0.98211 0.24118 0.42963 0.0
H575 H 0.88327 0.20612 0.50274 0.0
H576 H 0.95276 0.14464 0.57456 0.0
H577 H 0.93336 0.19741 0.54585 0.0
H578 H 0.97678 0.17625 0.43421 0.0
H579 H -0.00142 0.12416 0.46442 0.0
C580 C 0.9376 0.27109 0.42302 0.0
C581 C 0.90206 0.2757 0.43601 0.0
C582 C 0.95432 0.24364 0.43959 0.0
C583 C 0.93544 0.22003 0.46904 0.0
C584 C 0.89946 0.22444 0.48119 0.0
C585 C 0.8832 0.25203 0.46516 0.0
C586 C 0.95835 0.15143 0.54391 0.0
C587 C 0.97645 0.1301 0.5214 0.0
C588 C 0.94702 0.18156 0.52731 0.0
C589 C 0.95243 0.19063 0.48732 0.0
C590 C 0.97214 0.17012 0.4651 0.0
C591 C 0.98443 0.14021 0.48219 0.0
H592 H 0.25833 0.71974 0.22722 0.0
H593 H 0.28357 0.61377 0.24816 0.0
H594 H 0.19964 0.69065 0.18825 0.0
H595 H 0.2232 0.58466 0.21085 0.0
H596 H 0.08525 0.55319 0.17855 0.0
H597 H 0.14665 0.5781 0.21651 0.0
H598 H 0.18552 0.65391 0.12167 0.0
H599 H 0.12478 0.6282 1.08325 0.0
C600 C 0.25174 0.6903 0.22345 0.0
C601 C 0.2765 0.6694 0.24072 0.0
C602 C 0.21778 0.67362 0.20122 0.0
C603 C 0.20692 0.63541 0.19625 0.0
C604 C 0.23078 0.61419 0.21429 0.0
C605 C 0.26531 0.63097 0.23593 0.0
C606 C 0.1071 0.57476 0.16559 0.0
C607 C 0.10008 0.58866 0.12787 0.0
C608 C 0.14228 0.58902 0.18732 0.0
C609 C 0.17081 0.61813 0.17217 0.0
C610 C 0.16397 0.63169 0.13425 0.0
C611 C 0.12923 0.61686 0.1122 0.0
H612 H 0.19842 0.45064 0.7447 0.0
H613 H 0.24381 0.35419 0.757 0.0
H614 H 0.25534 0.48156 0.70875 0.0
H615 H 0.30141 0.38525 0.72269 0.0
H616 H 0.38224 0.43424 0.62736 0.0
H617 H 0.32351 0.40501 0.66088 0.0
H618 H 0.32222 0.50913 0.7121 0.0
H619 H 0.37988 0.53855 0.67699 0.0
C620 C 0.22093 0.43629 0.74023 0.0
C621 C 0.21656 0.39994 0.75351 0.0
C622 C 0.25368 0.454 0.71966 0.0
C623 C 0.28317 0.43596 0.7123 0.0
C624 C 0.27906 0.39987 0.72666 0.0
C625 C 0.24613 0.38206 0.74669 0.0
C626 C 0.36923 0.45095 0.64551 0.0
C627 C 0.38587 0.48876 0.64942 0.0
C628 C 0.33564 0.4341 0.66515 0.0
C629 C 0.31801 0.45445 0.6898 0.0
C630 C 0.33442 0.49246 0.69313 0.0
C631 C 0.36772 0.50939 0.67304 0.0
H632 H 0.6558 0.68705 0.89348 0.0
H633 H 0.66521 0.75189 0.99879 0.0
H634 H 0.70354 0.65609 0.92272 0.0
H635 H 0.71181 0.71981 1.02879 0.0
H636 H 0.83763 0.7018 1.03351 0.0
H637 H 0.77911 0.72313 1.01678 0.0
H638 H 0.7212 0.61558 0.97236 0.0
H639 H 0.78013 0.59433 0.98883 0.0
C640 C 0.66742 0.69406 0.92326 0.0
C641 C 0.65705 0.7222 0.94361 0.0
C642 C 0.69455 0.67608 0.94021 0.0
C643 C 0.71189 0.68575 0.97798 0.0
C644 C 0.69949 0.71214 0.99939 0.0
C645 C 0.67238 0.73019 0.98238 0.0
C646 C 0.81214 0.68247 1.02098 0.0
C647 C 0.81364 0.64649 1.01216 0.0
C648 C 0.77848 0.69467 1.01145 0.0
C649 C 0.74545 0.67112 0.99301 0.0
C650 C 0.74634 0.63459 0.98593 0.0
C651 C 0.78008 0.62243 0.99535 0.0
H652 H 0.33709 0.79779 0.24469 0.0
H653 H 0.44852 0.77198 0.2689 0.0
H654 H 0.36956 0.85646 0.21648 0.0
H655 H 0.48132 0.83173 0.24256 0.0
H656 H 0.52514 0.92091 0.15088 0.0
H657 H 0.49281 0.86343 0.18195 0.0
H658 H 0.40884 0.91628 0.22767 0.0
H659 H 0.44101 0.97372 0.19555 0.0
C660 C 0.36862 0.80465 0.24425 0.0
C661 C 0.39 0.7796 0.25876 0.0
C662 C 0.38738 0.83873 0.22843 0.0
C663 C 0.42826 0.84916 0.22679 0.0
C664 C 0.44977 0.82462 0.24251 0.0
C665 C 0.43095 0.79039 0.25823 0.0
C666 C 0.49977 0.92027 0.16761 0.0
C667 C 0.48562 0.95192 0.17065 0.0
C668 C 0.48132 0.88726 0.18577 0.0
C669 C 0.44816 0.88485 0.20778 0.0
C670 C 0.43395 0.91668 0.21069 0.0
C671 C 0.45242 0.94975 0.19232 0.0
H672 H 0.10524 0.30802 0.69942 0.0
H673 H 0.10232 0.25959 0.81564 0.0
H674 H 0.07849 0.24782 0.67066 0.0
H675 H 0.07659 0.19861 0.78684 0.0
H676 H -0.00163 0.0974 0.72152 0.0
H677 H 0.0237 0.15653 0.75408 0.0
H678 H 0.09669 0.19399 0.6562 0.0
H679 H 0.07006 0.1356 0.62327 0.0
C680 C 0.09884 0.28435 0.71886 0.0
C681 C 0.1061 0.2886 0.75981 0.0
C682 C 0.08382 0.24964 0.70233 0.0
C683 C 0.07596 0.21786 0.72617 0.0
C684 C 0.08203 0.22226 0.76739 0.0
C685 C 0.09676 0.25724 0.78401 0.0
C686 C 0.02012 0.11821 0.70722 0.0
C687 C 0.03207 0.11186 0.66971 0.0
C688 C 0.03477 0.15218 0.72593 0.0
C689 C 0.06195 0.1806 0.70771 0.0
C690 C 0.07504 0.1734 0.67087 0.0
C691 C 0.06013 0.13966 0.65208 0.0
H692 H 0.80639 0.31519 0.49279 0.0
H693 H 0.81835 0.41025 0.41652 0.0
H694 H 0.75588 0.33381 0.52691 0.0
H695 H 0.76594 0.42759 0.44901 0.0
H696 H 0.68184 0.46096 0.52683 0.0
H697 H 0.74197 0.44864 0.50574 0.0
H698 H 0.68943 0.33216 0.51045 0.0
H699 H 0.63022 0.34444 0.53399 0.0
C700 C 0.79894 0.34055 0.48382 0.0
C701 C 0.81633 0.36109 0.45163 0.0
C702 C 0.76935 0.35085 0.50297 0.0
C703 C 0.75614 0.38173 0.49019 0.0
C704 C 0.77533 0.40365 0.45976 0.0
C705 C 0.80521 0.39355 0.44085 0.0
C706 C 0.68334 0.43268 0.52416 0.0
C707 C 0.65109 0.40367 0.53219 0.0
C708 C 0.71774 0.42563 0.51158 0.0
C709 C 0.72068 0.38941 0.50637 0.0
C710 C 0.68854 0.36041 0.51475 0.0
C711 C 0.65426 0.36745 0.52763 0.0
loop_
_geom_bond_atom_site_label_1
_geom_bond_atom_site_label_2
_geom_bond_distance
_geom_bond_site_symmetry_2
_ccdc_geom_bond_type
H0 C3 0.931 . S
H1 C6 0.928 . S
H2 C8 0.930 . S
C3 H0 0.931 . S
C3 C4 1.413 . S
C3 C5 1.360 . S
C4 C3 1.413 . S
C4 C8 1.429 . S
C5 C3 1.360 . S
C5 C6 1.372 . S
C6 H1 0.928 . S
C6 C5 1.372 . S
C6 C7 1.404 . S
C7 C6 1.404 . S
C7 C8 1.391 . S
C8 H2 0.930 . S
C8 C4 1.429 . S
C8 C7 1.391 . S
H9 C12 0.931 . S
H10 C15 0.928 . S
H11 C17 0.930 . S
C12 H9 0.931 . S
C12 C13 1.413 . S
C12 C14 1.360 . S
C13 C12 1.413 . S
C13 C17 1.429 . S
C14 C12 1.360 . S
C14 C15 1.372 . S
C15 H10 0.928 . S
C15 C14 1.372 . S
C15 C16 1.404 . S
C16 C15 1.404 . S
C16 C17 1.391 . S
C17 H11 0.930 . S
C17 C13 1.429 . S
C17 C16 1.391 . S
H18 C21 0.931 . S
H19 C24 0.928 . S
H20 C26 0.930 . S
C21 H18 0.931 . S
C21 C22 1.413 . S
C21 C23 1.360 . S
C22 C21 1.413 . S
C22 C26 1.429 . S
C23 C21 1.360 . S
C23 C24 1.372 . S
C24 H19 0.928 . S
C24 C23 1.372 . S
C24 C25 1.404 . S
C25 C24 1.404 . S
C25 C26 1.391 . S
C26 H20 0.930 . S
C26 C22 1.429 . S
C26 C25 1.391 . S
H27 C30 0.931 . S
H28 C33 0.928 . S
H29 C35 0.930 . S
C30 H27 0.931 . S
C30 C31 1.413 . S
C30 C32 1.360 . S
C31 C30 1.413 . S
C31 C35 1.429 . S
C32 C30 1.360 . S
C32 C33 1.372 . S
C33 H28 0.928 . S
C33 C32 1.372 . S
C33 C34 1.404 . S
C34 C33 1.404 . S
C34 C35 1.391 . S
C35 H29 0.930 . S
C35 C31 1.429 . S
C35 C34 1.391 . S
H36 C39 0.931 . S
H37 C42 0.928 . S
H38 C44 0.930 . S
C39 H36 0.931 . S
C39 C40 1.413 . S
C39 C41 1.360 . S
C40 C39 1.413 . S
C40 C44 1.429 . S
C41 C39 1.360 . S
C41 C42 1.372 . S
C42 H37 0.928 . S
C42 C41 1.372 . S
C42 C43 1.404 . S
C43 C42 1.404 . S
C43 C44 1.391 . S
C44 H38 0.930 . S
C44 C40 1.429 . S
C44 C43 1.391 . S
H45 C48 0.931 . S
H46 C51 0.928 . S
H47 C53 0.930 . S
C48 H45 0.931 . S
C48 C49 1.413 . S
C48 C50 1.360 . S
C49 C48 1.413 . S
C49 C53 1.429 . S
C50 C48 1.360 . S
C50 C51 1.372 . S
C51 H46 0.928 . S
C51 C50 1.372 . S
C51 C52 1.404 . S
C52 C51 1.404 . S
C52 C53 1.391 . S
C53 H47 0.930 . S
C53 C49 1.429 . S
C53 C52 1.391 . S
H54 C57 0.931 . S
H55 C60 0.928 . S
H56 C62 0.930 . S
C57 H54 0.931 . S
C57 C58 1.413 . S
C57 C59 1.360 . S
C58 C57 1.413 . S
C58 C62 1.429 . S
C59 C57 1.360 . S
C59 C60 1.372 . S
C60 H55 0.928 . S
C60 C59 1.372 . S
C60 C61 1.404 . S
C61 C60 1.404 . S
C61 C62 1.391 . S
C62 H56 0.930 . S
C62 C58 1.429 . S
C62 C61 1.391 . S
H63 C66 0.931 . S
H64 C69 0.928 . S
H65 C71 0.930 . S
C66 H63 0.931 . S
C66 C67 1.413 . S
C66 C68 1.360 . S
C67 C66 1.413 . S
C67 C71 1.429 . S
C68 C66 1.360 . S
C68 C69 1.372 . S
C69 H64 0.928 . S
C69 C68 1.372 . S
C69 C70 1.404 . S
C70 C69 1.404 . S
C70 C71 1.391 . S
C71 H65 0.930 . S
C71 C67 1.429 . S
C71 C70 1.391 . S
Tb72 C74 2.809 1_545 S
Tb72 O92 2.484 1_545 S
Tb72 O93 2.440 1_545 S
Tb72 O94 2.658 1_655 S
Tb72 O95 2.409 . S
Tb72 O96 2.378 1_645 S
Tb72 O100 2.325 1_545 S
Tb72 O103 2.341 . S
Tb73 C83 2.809 . S
Tb73 O94 2.325 . S
Tb73 O97 2.341 1_545 S
Tb73 O98 2.484 . S
Tb73 O99 2.440 . S
Tb73 O100 2.658 1_445 S
Tb73 O101 2.409 1_545 S
Tb73 O102 2.400 . S
C74 Tb72 2.809 1_565 S
C74 C75 1.514 . S
C74 O92 1.248 . S
C74 O93 1.266 . S
C75 C74 1.514 . S
C75 C76 1.359 . S
C75 C80 1.348 . S
C76 C75 1.359 . S
C76 C77 1.380 . S
C76 H104 0.929 . S
C77 C76 1.380 . S
C77 C78 1.347 . S
C77 H105 0.931 . S
C78 C77 1.347 . S
C78 C79 1.369 . S
C79 C78 1.369 . S
C79 C80 1.408 . S
C79 H106 0.930 . S
C80 C75 1.348 . S
C80 C79 1.408 . S
C80 H107 0.930 . S
C81 O94 1.281 . S
C81 O95 1.254 1_455 S
C82 O96 1.236 . S
C82 O97 1.266 . S
C83 Tb73 2.809 . S
C83 C84 1.514 . S
C83 O98 1.248 . S
C83 O99 1.266 . S
C84 C83 1.514 . S
C84 C85 1.359 . S
C84 C89 1.348 . S
C85 C84 1.359 . S
C85 C86 1.380 . S
C85 H108 0.929 . S
C86 C85 1.380 . S
C86 C87 1.347 . S
C86 H109 0.931 . S
C87 C86 1.347 . S
C87 C88 1.369 . S
C88 C87 1.369 . S
C88 C89 1.408 . S
C88 H110 0.930 . S
C89 C84 1.348 . S
C89 C88 1.408 . S
C89 H111 0.930 . S
C90 O100 1.281 . S
C90 O101 1.254 1_655 S
C91 O102 1.212 1_655 S
C91 O103 1.266 . S
O92 Tb72 2.484 1_565 S
O92 C74 1.248 . S
O93 Tb72 2.440 1_565 S
O93 C74 1.266 . S
O94 Tb72 2.658 1_455 S
O94 Tb73 2.325 . S
O94 C81 1.281 . S
O95 Tb72 2.409 . S
O95 C81 1.254 1_655 S
O96 Tb72 2.378 1_465 S
O96 C82 1.236 . S
O97 Tb73 2.341 1_565 S
O97 C82 1.266 . S
O98 Tb73 2.484 . S
O98 C83 1.248 . S
O99 Tb73 2.440 . S
O99 C83 1.266 . S
O100 Tb72 2.325 1_565 S
O100 Tb73 2.658 1_665 S
O100 C90 1.281 . S
O101 Tb73 2.409 1_565 S
O101 C90 1.254 1_455 S
O102 Tb73 2.400 . S
O102 C91 1.212 1_455 S
O103 Tb72 2.341 . S
O103 C91 1.266 . S
H104 C76 0.929 . S
H105 C77 0.931 . S
H106 C79 0.930 . S
H107 C80 0.930 . S
H108 C85 0.929 . S
H109 C86 0.931 . S
H110 C88 0.930 . S
H111 C89 0.930 . S
Tb112 C114 2.809 . S
Tb112 O132 2.484 . S
Tb112 O133 2.440 . S
Tb112 O134 2.658 1_545 S
Tb112 O135 2.409 1_545 S
Tb112 O136 2.378 . S
Tb112 O140 2.325 1_554 S
Tb112 O143 2.341 1_544 S
Tb113 C123 2.809 . S
Tb113 O134 2.325 1_556 S
Tb113 O137 2.341 1_566 S
Tb113 O138 2.484 . S
Tb113 O139 2.440 . S
Tb113 O140 2.658 1_565 S
Tb113 O141 2.409 1_565 S
Tb113 O142 2.378 . S
C114 Tb112 2.809 . S
C114 C115 1.514 . S
C114 O132 1.248 . S
C114 O133 1.266 . S
C115 C114 1.514 . S
C115 C116 1.359 . S
C115 C120 1.348 . S
C116 C115 1.359 . S
C116 C117 1.380 . S
C116 H144 0.929 . S
C117 C116 1.380 . S
C117 C118 1.347 . S
C117 H145 0.931 . S
C118 C117 1.347 . S
C118 C119 1.369 . S
C119 C118 1.369 . S
C119 C120 1.408 . S
C119 H146 0.930 . S
C120 C115 1.348 . S
C120 C119 1.408 . S
C120 H147 0.930 . S
C121 O134 1.281 . S
C121 O135 1.254 . S
C122 O136 1.236 . S
C122 O137 1.266 . S
C123 Tb113 2.809 . S
C123 C124 1.514 . S
C123 O138 1.248 . S
C123 O139 1.266 . S
C124 C123 1.514 . S
C124 C125 1.359 . S
C124 C129 1.348 . S
C125 C124 1.359 . S
C125 C126 1.380 . S
C125 H148 0.929 . S
C126 C125 1.380 . S
C126 C127 1.347 . S
C126 H149 0.931 . S
C127 C126 1.347 . S
C127 C128 1.369 . S
C128 C127 1.369 . S
C128 C129 1.408 . S
C128 H150 0.930 . S
C129 C124 1.348 . S
C129 C128 1.408 . S
C129 H151 0.930 . S
C130 O140 1.281 . S
C130 O141 1.254 . S
C131 O142 1.236 . S
C131 O143 1.266 . S
O132 Tb112 2.484 . S
O132 C114 1.248 . S
O133 Tb112 2.440 . S
O133 C114 1.266 . S
O134 Tb112 2.658 1_565 S
O134 Tb113 2.325 1_554 S
O134 C121 1.281 . S
O135 Tb112 2.409 1_565 S
O135 C121 1.254 . S
O136 Tb112 2.378 . S
O136 C122 1.236 . S
O137 Tb113 2.341 1_544 S
O137 C122 1.266 . S
O138 Tb113 2.484 . S
O138 C123 1.248 . S
O139 Tb113 2.440 . S
O139 C123 1.266 . S
O140 Tb112 2.325 1_556 S
O140 Tb113 2.658 1_545 S
O140 C130 1.281 . S
O141 Tb113 2.409 1_545 S
O141 C130 1.254 . S
O142 Tb113 2.378 . S
O142 C131 1.236 . S
O143 Tb112 2.341 1_566 S
O143 C131 1.266 . S
H144 C116 0.929 . S
H145 C117 0.931 . S
H146 C119 0.930 . S
H147 C120 0.930 . S
H148 C125 0.929 . S
H149 C126 0.931 . S
H150 C128 0.930 . S
H151 C129 0.930 . S
Tb152 C154 2.809 . S
Tb152 O172 2.484 . S
Tb152 O173 2.440 . S
Tb152 O174 2.658 . S
Tb152 O175 2.409 . S
Tb152 O176 2.378 . S
Tb152 O180 2.325 . S
Tb152 O183 2.341 . S
Tb153 C163 2.809 . S
Tb153 O174 2.325 . S
Tb153 O177 2.341 . S
Tb153 O178 2.484 . S
Tb153 O179 2.440 . S
Tb153 O180 2.658 . S
Tb153 O181 2.409 . S
Tb153 O182 2.378 . S
C154 Tb152 2.809 . S
C154 C155 1.514 . S
C154 O172 1.248 . S
C154 O173 1.266 . S
C155 C154 1.514 . S
C155 C156 1.359 . S
C155 C160 1.348 . S
C156 C155 1.359 . S
C156 C157 1.380 . S
C156 H184 0.929 . S
C157 C156 1.380 . S
C157 C158 1.347 . S
C157 H185 0.931 . S
C158 C157 1.347 . S
C158 C159 1.369 . S
C159 C158 1.369 . S
C159 C160 1.408 . S
C159 H186 0.930 . S
C160 C155 1.348 . S
C160 C159 1.408 . S
C160 H187 0.930 . S
C161 O174 1.281 . S
C161 O175 1.254 . S
C162 O176 1.236 . S
C162 O177 1.266 . S
C163 Tb153 2.809 . S
C163 C164 1.514 . S
C163 O178 1.248 . S
C163 O179 1.266 . S
C164 C163 1.514 . S
C164 C165 1.359 . S
C164 C169 1.348 . S
C165 C164 1.359 . S
C165 C166 1.380 . S
C165 H188 0.929 . S
C166 C165 1.380 . S
C166 C167 1.347 . S
C166 H189 0.931 . S
C167 C166 1.347 . S
C167 C168 1.369 . S
C168 C167 1.369 . S
C168 C169 1.408 . S
C168 H190 0.930 . S
C169 C164 1.348 . S
C169 C168 1.408 . S
C169 H191 0.930 . S
C170 O180 1.281 . S
C170 O181 1.254 . S
C171 O182 1.236 . S
C171 O183 1.266 . S
O172 Tb152 2.484 . S
O172 C154 1.248 . S
O173 Tb152 2.440 . S
O173 C154 1.266 . S
O174 Tb152 2.658 . S
O174 Tb153 2.325 . S
O174 C161 1.281 . S
O175 Tb152 2.409 . S
O175 C161 1.254 . S
O176 Tb152 2.378 . S
O176 C162 1.236 . S
O177 Tb153 2.341 . S
O177 C162 1.266 . S
O178 Tb153 2.484 . S
O178 C163 1.248 . S
O179 Tb153 2.440 . S
O179 C163 1.266 . S
O180 Tb152 2.325 . S
O180 Tb153 2.658 . S
O180 C170 1.281 . S
O181 Tb153 2.409 . S
O181 C170 1.254 . S
O182 Tb153 2.378 . S
O182 C171 1.236 . S
O183 Tb152 2.341 . S
O183 C171 1.266 . S
H184 C156 0.929 . S
H185 C157 0.931 . S
H186 C159 0.930 . S
H187 C160 0.930 . S
H188 C165 0.929 . S
H189 C166 0.931 . S
H190 C168 0.930 . S
H191 C169 0.930 . S
Tb192 C194 2.809 . S
Tb192 O212 2.484 . S
Tb192 O213 2.440 . S
Tb192 O214 2.658 1_656 S
Tb192 O215 2.409 1_656 S
Tb192 O216 2.378 1_556 S
Tb192 O220 2.325 . S
Tb192 O223 2.341 1_655 S
Tb193 C203 2.809 . S
Tb193 O214 2.325 . S
Tb193 O217 2.341 1_455 S
Tb193 O218 2.484 . S
Tb193 O219 2.440 . S
Tb193 O220 2.658 1_454 S
Tb193 O221 2.409 1_455 S
Tb193 O222 2.378 1_554 S
C194 Tb192 2.809 . S
C194 C195 1.514 . S
C194 O212 1.248 . S
C194 O213 1.266 . S
C195 C194 1.514 . S
C195 C196 1.359 . S
C195 C200 1.348 . S
C196 C195 1.359 . S
C196 C197 1.380 . S
C196 H224 0.929 . S
C197 C196 1.380 . S
C197 C198 1.347 . S
C197 H225 0.931 . S
C198 C197 1.347 . S
C198 C199 1.369 . S
C199 C198 1.369 . S
C199 C200 1.408 . S
C199 H226 0.930 . S
C200 C195 1.348 . S
C200 C199 1.408 . S
C200 H227 0.930 . S
C201 O214 1.281 . S
C201 O215 1.254 . S
C202 O216 1.236 . S
C202 O217 1.266 . S
C203 Tb193 2.809 . S
C203 C204 1.514 . S
C203 O218 1.248 . S
C203 O219 1.266 . S
C204 C203 1.514 . S
C204 C205 1.359 . S
C204 C209 1.348 . S
C205 C204 1.359 . S
C205 C206 1.380 . S
C205 H228 0.929 . S
C206 C205 1.380 . S
C206 C207 1.347 . S
C206 H229 0.931 . S
C207 C206 1.347 . S
C207 C208 1.369 . S
C208 C207 1.369 . S
C208 C209 1.408 . S
C208 H230 0.930 . S
C209 C204 1.348 . S
C209 C208 1.408 . S
C209 H231 0.930 . S
C210 O220 1.281 . S
C210 O221 1.254 1_556 S
C211 O222 1.236 . S
C211 O223 1.266 . S
O212 Tb192 2.484 . S
O212 C194 1.248 . S
O213 Tb192 2.440 . S
O213 C194 1.266 . S
O214 Tb192 2.658 1_454 S
O214 Tb193 2.325 . S
O214 C201 1.281 . S
O215 Tb192 2.409 1_454 S
O215 C201 1.254 . S
O216 Tb192 2.378 1_554 S
O216 C202 1.236 . S
O217 Tb193 2.341 1_655 S
O217 C202 1.266 . S
O218 Tb193 2.484 . S
O218 C203 1.248 . S
O219 Tb193 2.440 . S
O219 C203 1.266 . S
O220 Tb192 2.325 . S
O220 Tb193 2.658 1_656 S
O220 C210 1.281 . S
O221 Tb193 2.409 1_655 S
O221 C210 1.254 1_554 S
O222 Tb193 2.378 1_556 S
O222 C211 1.236 . S
O223 Tb192 2.341 1_455 S
O223 C211 1.266 . S
H224 C196 0.929 . S
H225 C197 0.931 . S
H226 C199 0.930 . S
H227 C200 0.930 . S
H228 C205 0.929 . S
H229 C206 0.931 . S
H230 C208 0.930 . S
H231 C209 0.930 . S
H232 C240 0.950 . S
H233 C245 0.950 . S
H234 C242 0.950 . S
H235 C244 0.950 . S
H236 C246 0.950 . S
H237 C248 0.950 . S
H238 C250 0.950 . S
H239 C251 0.950 . S
C240 H232 0.950 . S
C240 C241 1.386 . S
C240 C242 1.391 . S
C241 C240 1.386 . S
C241 C245 1.393 . S
C242 H234 0.950 . S
C242 C240 1.391 . S
C242 C243 1.400 . S
C243 C242 1.400 . S
C243 C244 1.398 . S
C243 C249 1.491 . S
C244 H235 0.950 . S
C244 C243 1.398 . S
C244 C245 1.391 . S
C245 H233 0.950 . S
C245 C241 1.393 . S
C245 C244 1.391 . S
C246 H236 0.950 . S
C246 C247 1.386 . S
C246 C248 1.391 . S
C247 C246 1.386 . S
C247 C251 1.393 . S
C248 H237 0.950 . S
C248 C246 1.391 . S
C248 C249 1.400 . S
C249 C243 1.491 . S
C249 C248 1.400 . S
C249 C250 1.398 . S
C250 H238 0.950 . S
C250 C249 1.398 . S
C250 C251 1.391 . S
C251 H239 0.950 . S
C251 C247 1.393 . S
C251 C250 1.391 . S
H252 C260 0.950 . S
H253 C265 0.950 . S
H254 C262 0.950 . S
H255 C264 0.950 . S
H256 C266 0.950 . S
H257 C268 0.950 . S
H258 C270 0.950 . S
H259 C271 0.950 . S
C260 H252 0.950 . S
C260 C261 1.386 . S
C260 C262 1.391 . S
C261 C260 1.386 . S
C261 C265 1.393 . S
C262 H254 0.950 . S
C262 C260 1.391 . S
C262 C263 1.400 . S
C263 C262 1.400 . S
C263 C264 1.398 . S
C263 C269 1.491 . S
C264 H255 0.950 . S
C264 C263 1.398 . S
C264 C265 1.391 . S
C265 H253 0.950 . S
C265 C261 1.393 . S
C265 C264 1.391 . S
C266 H256 0.950 . S
C266 C267 1.386 . S
C266 C268 1.391 . S
C267 C266 1.386 . S
C267 C271 1.393 . S
C268 H257 0.950 . S
C268 C266 1.391 . S
C268 C269 1.400 . S
C269 C263 1.491 . S
C269 C268 1.400 . S
C269 C270 1.398 . S
C270 H258 0.950 . S
C270 C269 1.398 . S
C270 C271 1.391 . S
C271 H259 0.950 . S
C271 C267 1.393 . S
C271 C270 1.391 . S
H272 C280 0.950 . S
H273 C285 0.950 . S
H274 C282 0.950 . S
H275 C284 0.950 . S
H276 C286 0.950 . S
H277 C288 0.950 . S
H278 C290 0.950 . S
H279 C291 0.950 . S
C280 H272 0.950 . S
C280 C281 1.386 . S
C280 C282 1.391 . S
C281 C280 1.386 . S
C281 C285 1.393 . S
C282 H274 0.950 . S
C282 C280 1.391 . S
C282 C283 1.400 . S
C283 C282 1.400 . S
C283 C284 1.398 . S
C283 C289 1.491 . S
C284 H275 0.950 . S
C284 C283 1.398 . S
C284 C285 1.391 . S
C285 H273 0.950 . S
C285 C281 1.393 . S
C285 C284 1.391 . S
C286 H276 0.950 . S
C286 C287 1.386 . S
C286 C288 1.391 . S
C287 C286 1.386 . S
C287 C291 1.393 . S
C288 H277 0.950 . S
C288 C286 1.391 . S
C288 C289 1.400 . S
C289 C283 1.491 . S
C289 C288 1.400 . S
C289 C290 1.398 . S
C290 H278 0.950 . S
C290 C289 1.398 . S
C290 C291 1.391 . S
C291 H279 0.950 . S
C291 C287 1.393 . S
C291 C290 1.391 . S
H292 C300 0.950 . S
H293 C305 0.950 . S
H294 C302 0.950 . S
H295 C304 0.950 . S
H296 C306 0.950 . S
H297 C308 0.950 . S
H298 C310 0.950 . S
H299 C311 0.950 . S
C300 H292 0.950 . S
C300 C301 1.386 . S
C300 C302 1.391 . S
C301 C300 1.386 . S
C301 C305 1.393 . S
C302 H294 0.950 . S
C302 C300 1.391 . S
C302 C303 1.400 . S
C303 C302 1.400 . S
C303 C304 1.398 . S
C303 C309 1.491 . S
C304 H295 0.950 . S
C304 C303 1.398 . S
C304 C305 1.391 . S
C305 H293 0.950 . S
C305 C301 1.393 . S
C305 C304 1.391 . S
C306 H296 0.950 . S
C306 C307 1.386 . S
C306 C308 1.391 . S
C307 C306 1.386 . S
C307 C311 1.393 . S
C308 H297 0.950 . S
C308 C306 1.391 . S
C308 C309 1.400 . S
C309 C303 1.491 . S
C309 C308 1.400 . S
C309 C310 1.398 . S
C310 H298 0.950 . S
C310 C309 1.398 . S
C310 C311 1.391 . S
C311 H299 0.950 . S
C311 C307 1.393 . S
C311 C310 1.391 . S
H312 C320 0.950 . S
H313 C325 0.950 . S
H314 C322 0.950 . S
H315 C324 0.950 . S
H316 C326 0.950 . S
H317 C328 0.950 . S
H318 C330 0.950 . S
H319 C331 0.950 . S
C320 H312 0.950 . S
C320 C321 1.386 . S
C320 C322 1.391 . S
C321 C320 1.386 . S
C321 C325 1.393 . S
C322 H314 0.950 . S
C322 C320 1.391 . S
C322 C323 1.400 . S
C323 C322 1.400 . S
C323 C324 1.398 . S
C323 C329 1.491 . S
C324 H315 0.950 . S
C324 C323 1.398 . S
C324 C325 1.391 . S
C325 H313 0.950 . S
C325 C321 1.393 . S
C325 C324 1.391 . S
C326 H316 0.950 . S
C326 C327 1.386 . S
C326 C328 1.391 . S
C327 C326 1.386 . S
C327 C331 1.393 . S
C328 H317 0.950 . S
C328 C326 1.391 . S
C328 C329 1.400 . S
C329 C323 1.491 . S
C329 C328 1.400 . S
C329 C330 1.398 . S
C330 H318 0.950 . S
C330 C329 1.398 . S
C330 C331 1.391 . S
C331 H319 0.950 . S
C331 C327 1.393 . S
C331 C330 1.391 . S
H332 C340 0.950 . S
H333 C345 0.950 . S
H334 C342 0.950 . S
H335 C344 0.950 . S
H336 C346 0.950 . S
H337 C348 0.950 . S
H338 C350 0.950 1_655 S
H339 C351 0.950 1_655 S
C340 H332 0.950 . S
C340 C341 1.386 . S
C340 C342 1.391 . S
C341 C340 1.386 . S
C341 C345 1.393 . S
C342 H334 0.950 . S
C342 C340 1.391 . S
C342 C343 1.400 . S
C343 C342 1.400 . S
C343 C344 1.398 . S
C343 C349 1.491 . S
C344 H335 0.950 . S
C344 C343 1.398 . S
C344 C345 1.391 . S
C345 H333 0.950 . S
C345 C341 1.393 . S
C345 C344 1.391 . S
C346 H336 0.950 . S
C346 C347 1.386 . S
C346 C348 1.391 . S
C347 C346 1.386 . S
C347 C351 1.393 . S
C348 H337 0.950 . S
C348 C346 1.391 . S
C348 C349 1.400 . S
C349 C343 1.491 . S
C349 C348 1.400 . S
C349 C350 1.398 . S
C350 H338 0.950 1_455 S
C350 C349 1.398 . S
C350 C351 1.391 . S
C351 H339 0.950 1_455 S
C351 C347 1.393 . S
C351 C350 1.391 . S
H352 C360 0.950 . S
H353 C365 0.950 . S
H354 C362 0.950 . S
H355 C364 0.950 . S
H356 C366 0.950 . S
H357 C368 0.950 . S
H358 C370 0.950 . S
H359 C371 0.950 . S
C360 H352 0.950 . S
C360 C361 1.386 . S
C360 C362 1.391 . S
C361 C360 1.386 . S
C361 C365 1.393 . S
C362 H354 0.950 . S
C362 C360 1.391 . S
C362 C363 1.400 . S
C363 C362 1.400 . S
C363 C364 1.398 . S
C363 C369 1.491 . S
C364 H355 0.950 . S
C364 C363 1.398 . S
C364 C365 1.391 . S
C365 H353 0.950 . S
C365 C361 1.393 . S
C365 C364 1.391 . S
C366 H356 0.950 . S
C366 C367 1.386 . S
C366 C368 1.391 . S
C367 C366 1.386 . S
C367 C371 1.393 . S
C368 H357 0.950 . S
C368 C366 1.391 . S
C368 C369 1.400 . S
C369 C363 1.491 . S
C369 C368 1.400 . S
C369 C370 1.398 . S
C370 H358 0.950 . S
C370 C369 1.398 . S
C370 C371 1.391 . S
C371 H359 0.950 . S
C371 C367 1.393 . S
C371 C370 1.391 . S
H372 C380 0.950 . S
H373 C385 0.950 . S
H374 C382 0.950 . S
H375 C384 0.950 . S
H376 C386 0.950 . S
H377 C388 0.950 . S
H378 C390 0.950 . S
H379 C391 0.950 . S
C380 H372 0.950 . S
C380 C381 1.386 . S
C380 C382 1.391 . S
C381 C380 1.386 . S
C381 C385 1.393 . S
C382 H374 0.950 . S
C382 C380 1.391 . S
C382 C383 1.400 . S
C383 C382 1.400 . S
C383 C384 1.398 . S
C383 C389 1.491 . S
C384 H375 0.950 . S
C384 C383 1.398 . S
C384 C385 1.391 . S
C385 H373 0.950 . S
C385 C381 1.393 . S
C385 C384 1.391 . S
C386 H376 0.950 . S
C386 C387 1.386 . S
C386 C388 1.391 . S
C387 C386 1.386 . S
C387 C391 1.393 . S
C388 H377 0.950 . S
C388 C386 1.391 . S
C388 C389 1.400 . S
C389 C383 1.491 . S
C389 C388 1.400 . S
C389 C390 1.398 . S
C390 H378 0.950 . S
C390 C389 1.398 . S
C390 C391 1.391 . S
C391 H379 0.950 . S
C391 C387 1.393 . S
C391 C390 1.391 . S
H392 C400 0.950 . S
H393 C405 0.950 . S
H394 C402 0.950 . S
H395 C404 0.950 . S
H396 C406 0.950 . S
H397 C408 0.950 . S
H398 C410 0.950 . S
H399 C411 0.950 . S
C400 H392 0.950 . S
C400 C401 1.386 . S
C400 C402 1.391 . S
C401 C400 1.386 . S
C401 C405 1.393 . S
C402 H394 0.950 . S
C402 C400 1.391 . S
C402 C403 1.400 . S
C403 C402 1.400 . S
C403 C404 1.398 . S
C403 C409 1.491 . S
C404 H395 0.950 . S
C404 C403 1.398 . S
C404 C405 1.391 . S
C405 H393 0.950 . S
C405 C401 1.393 . S
C405 C404 1.391 . S
C406 H396 0.950 . S
C406 C407 1.386 . S
C406 C408 1.391 . S
C407 C406 1.386 . S
C407 C411 1.393 . S
C408 H397 0.950 . S
C408 C406 1.391 . S
C408 C409 1.400 . S
C409 C403 1.491 . S
C409 C408 1.400 . S
C409 C410 1.398 . S
C410 H398 0.950 . S
C410 C409 1.398 . S
C410 C411 1.391 . S
C411 H399 0.950 . S
C411 C407 1.393 . S
C411 C410 1.391 . S
H412 C420 0.950 . S
H413 C425 0.950 . S
H414 C422 0.950 . S
H415 C424 0.950 . S
H416 C426 0.950 . S
H417 C428 0.950 . S
H418 C430 0.950 . S
H419 C431 0.950 . S
C420 H412 0.950 . S
C420 C421 1.386 . S
C420 C422 1.391 . S
C421 C420 1.386 . S
C421 C425 1.393 . S
C422 H414 0.950 . S
C422 C420 1.391 . S
C422 C423 1.400 . S
C423 C422 1.400 . S
C423 C424 1.398 . S
C423 C429 1.491 . S
C424 H415 0.950 . S
C424 C423 1.398 . S
C424 C425 1.391 . S
C425 H413 0.950 . S
C425 C421 1.393 . S
C425 C424 1.391 . S
C426 H416 0.950 . S
C426 C427 1.386 . S
C426 C428 1.391 . S
C427 C426 1.386 . S
C427 C431 1.393 . S
C428 H417 0.950 . S
C428 C426 1.391 . S
C428 C429 1.400 . S
C429 C423 1.491 . S
C429 C428 1.400 . S
C429 C430 1.398 . S
C430 H418 0.950 . S
C430 C429 1.398 . S
C430 C431 1.391 . S
C431 H419 0.950 . S
C431 C427 1.393 . S
C431 C430 1.391 . S
H432 C440 0.950 . S
H433 C445 0.950 . S
H434 C442 0.950 . S
H435 C444 0.950 . S
H436 C446 0.950 . S
H437 C448 0.950 . S
H438 C450 0.950 . S
H439 C451 0.950 . S
C440 H432 0.950 . S
C440 C441 1.386 . S
C440 C442 1.391 . S
C441 C440 1.386 . S
C441 C445 1.393 . S
C442 H434 0.950 . S
C442 C440 1.391 . S
C442 C443 1.400 . S
C443 C442 1.400 . S
C443 C444 1.398 . S
C443 C449 1.491 . S
C444 H435 0.950 . S
C444 C443 1.398 . S
C444 C445 1.391 . S
C445 H433 0.950 . S
C445 C441 1.393 . S
C445 C444 1.391 . S
C446 H436 0.950 . S
C446 C447 1.386 . S
C446 C448 1.391 . S
C447 C446 1.386 . S
C447 C451 1.393 . S
C448 H437 0.950 . S
C448 C446 1.391 . S
C448 C449 1.400 . S
C449 C443 1.491 . S
C449 C448 1.400 . S
C449 C450 1.398 . S
C450 H438 0.950 . S
C450 C449 1.398 . S
C450 C451 1.391 . S
C451 H439 0.950 . S
C451 C447 1.393 . S
C451 C450 1.391 . S
H452 C460 0.950 . S
H453 C465 0.950 . S
H454 C462 0.950 . S
H455 C464 0.950 . S
H456 C466 0.950 . S
H457 C468 0.950 . S
H458 C470 0.950 . S
H459 C471 0.950 . S
C460 H452 0.950 . S
C460 C461 1.386 . S
C460 C462 1.391 . S
C461 C460 1.386 . S
C461 C465 1.393 . S
C462 H454 0.950 . S
C462 C460 1.391 . S
C462 C463 1.400 . S
C463 C462 1.400 . S
C463 C464 1.398 . S
C463 C469 1.491 . S
C464 H455 0.950 . S
C464 C463 1.398 . S
C464 C465 1.391 . S
C465 H453 0.950 . S
C465 C461 1.393 . S
C465 C464 1.391 . S
C466 H456 0.950 . S
C466 C467 1.386 . S
C466 C468 1.391 . S
C467 C466 1.386 . S
C467 C471 1.393 . S
C468 H457 0.950 . S
C468 C466 1.391 . S
C468 C469 1.400 . S
C469 C463 1.491 . S
C469 C468 1.400 . S
C469 C470 1.398 . S
C470 H458 0.950 . S
C470 C469 1.398 . S
C470 C471 1.391 . S
C471 H459 0.950 . S
C471 C467 1.393 . S
C471 C470 1.391 . S
H472 C480 0.950 . S
H473 C485 0.950 . S
H474 C482 0.950 . S
H475 C484 0.950 . S
H476 C486 0.950 . S
H477 C488 0.950 . S
H478 C490 0.950 . S
H479 C491 0.950 . S
C480 H472 0.950 . S
C480 C481 1.386 . S
C480 C482 1.391 . S
C481 C480 1.386 . S
C481 C485 1.393 . S
C482 H474 0.950 . S
C482 C480 1.391 . S
C482 C483 1.400 . S
C483 C482 1.400 . S
C483 C484 1.398 . S
C483 C489 1.491 . S
C484 H475 0.950 . S
C484 C483 1.398 . S
C484 C485 1.391 . S
C485 H473 0.950 . S
C485 C481 1.393 . S
C485 C484 1.391 . S
C486 H476 0.950 . S
C486 C487 1.386 . S
C486 C488 1.391 . S
C487 C486 1.386 . S
C487 C491 1.393 . S
C488 H477 0.950 . S
C488 C486 1.391 . S
C488 C489 1.400 . S
C489 C483 1.491 . S
C489 C488 1.400 . S
C489 C490 1.398 . S
C490 H478 0.950 . S
C490 C489 1.398 . S
C490 C491 1.391 . S
C491 H479 0.950 . S
C491 C487 1.393 . S
C491 C490 1.391 . S
H492 C500 0.950 . S
H493 C505 0.950 . S
H494 C502 0.950 . S
H495 C504 0.950 . S
H496 C506 0.950 . S
H497 C508 0.950 . S
H498 C510 0.950 . S
H499 C511 0.950 . S
C500 H492 0.950 . S
C500 C501 1.386 . S
C500 C502 1.391 . S
C501 C500 1.386 . S
C501 C505 1.393 . S
C502 H494 0.950 . S
C502 C500 1.391 . S
C502 C503 1.400 . S
C503 C502 1.400 . S
C503 C504 1.398 . S
C503 C509 1.491 . S
C504 H495 0.950 . S
C504 C503 1.398 . S
C504 C505 1.391 . S
C505 H493 0.950 . S
C505 C501 1.393 . S
C505 C504 1.391 . S
C506 H496 0.950 . S
C506 C507 1.386 . S
C506 C508 1.391 . S
C507 C506 1.386 . S
C507 C511 1.393 . S
C508 H497 0.950 . S
C508 C506 1.391 . S
C508 C509 1.400 . S
C509 C503 1.491 . S
C509 C508 1.400 . S
C509 C510 1.398 . S
C510 H498 0.950 . S
C510 C509 1.398 . S
C510 C511 1.391 . S
C511 H499 0.950 . S
C511 C507 1.393 . S
C511 C510 1.391 . S
H512 C520 0.950 . S
H513 C525 0.950 . S
H514 C522 0.950 . S
H515 C524 0.950 . S
H516 C526 0.950 . S
H517 C528 0.950 . S
H518 C530 0.950 . S
H519 C531 0.950 . S
C520 H512 0.950 . S
C520 C521 1.386 . S
C520 C522 1.391 . S
C521 C520 1.386 . S
C521 C525 1.393 . S
C522 H514 0.950 . S
C522 C520 1.391 . S
C522 C523 1.400 . S
C523 C522 1.400 . S
C523 C524 1.398 . S
C523 C529 1.491 . S
C524 H515 0.950 . S
C524 C523 1.398 . S
C524 C525 1.391 . S
C525 H513 0.950 . S
C525 C521 1.393 . S
C525 C524 1.391 . S
C526 H516 0.950 . S
C526 C527 1.386 . S
C526 C528 1.391 . S
C527 C526 1.386 . S
C527 C531 1.393 . S
C528 H517 0.950 . S
C528 C526 1.391 . S
C528 C529 1.400 . S
C529 C523 1.491 . S
C529 C528 1.400 . S
C529 C530 1.398 . S
C530 H518 0.950 . S
C530 C529 1.398 . S
C530 C531 1.391 . S
C531 H519 0.950 . S
C531 C527 1.393 . S
C531 C530 1.391 . S
H532 C540 0.950 . S
H533 C545 0.950 . S
H534 C542 0.950 . S
H535 C544 0.950 . S
H536 C546 0.950 . S
H537 C548 0.950 . S
H538 C550 0.950 . S
H539 C551 0.950 . S
C540 H532 0.950 . S
C540 C541 1.386 . S
C540 C542 1.391 . S
C541 C540 1.386 . S
C541 C545 1.393 . S
C542 H534 0.950 . S
C542 C540 1.391 . S
C542 C543 1.400 . S
C543 C542 1.400 . S
C543 C544 1.398 . S
C543 C549 1.491 . S
C544 H535 0.950 . S
C544 C543 1.398 . S
C544 C545 1.391 . S
C545 H533 0.950 . S
C545 C541 1.393 . S
C545 C544 1.391 . S
C546 H536 0.950 . S
C546 C547 1.386 . S
C546 C548 1.391 . S
C547 C546 1.386 . S
C547 C551 1.393 . S
C548 H537 0.950 . S
C548 C546 1.391 . S
C548 C549 1.400 . S
C549 C543 1.491 . S
C549 C548 1.400 . S
C549 C550 1.398 . S
C550 H538 0.950 . S
C550 C549 1.398 . S
C550 C551 1.391 . S
C551 H539 0.950 . S
C551 C547 1.393 . S
C551 C550 1.391 . S
H552 C560 0.950 . S
H553 C565 0.950 . S
H554 C562 0.950 . S
H555 C564 0.950 . S
H556 C566 0.950 . S
H557 C568 0.950 . S
H558 C570 0.950 . S
H559 C571 0.950 . S
C560 H552 0.950 . S
C560 C561 1.386 . S
C560 C562 1.391 . S
C561 C560 1.386 . S
C561 C565 1.393 . S
C562 H554 0.950 . S
C562 C560 1.391 . S
C562 C563 1.400 . S
C563 C562 1.400 . S
C563 C564 1.398 . S
C563 C569 1.491 . S
C564 H555 0.950 . S
C564 C563 1.398 . S
C564 C565 1.391 . S
C565 H553 0.950 . S
C565 C561 1.393 . S
C565 C564 1.391 . S
C566 H556 0.950 . S
C566 C567 1.386 . S
C566 C568 1.391 . S
C567 C566 1.386 . S
C567 C571 1.393 . S
C568 H557 0.950 . S
C568 C566 1.391 . S
C568 C569 1.400 . S
C569 C563 1.491 . S
C569 C568 1.400 . S
C569 C570 1.398 . S
C570 H558 0.950 . S
C570 C569 1.398 . S
C570 C571 1.391 . S
C571 H559 0.950 . S
C571 C567 1.393 . S
C571 C570 1.391 . S
H572 C580 0.950 . S
H573 C585 0.950 . S
H574 C582 0.950 . S
H575 C584 0.950 . S
H576 C586 0.950 . S
H577 C588 0.950 . S
H578 C590 0.950 . S
H579 C591 0.950 . S
C580 H572 0.950 . S
C580 C581 1.386 . S
C580 C582 1.391 . S
C581 C580 1.386 . S
C581 C585 1.393 . S
C582 H574 0.950 . S
C582 C580 1.391 . S
C582 C583 1.400 . S
C583 C582 1.400 . S
C583 C584 1.398 . S
C583 C589 1.491 . S
C584 H575 0.950 . S
C584 C583 1.398 . S
C584 C585 1.391 . S
C585 H573 0.950 . S
C585 C581 1.393 . S
C585 C584 1.391 . S
C586 H576 0.950 . S
C586 C587 1.386 . S
C586 C588 1.391 . S
C587 C586 1.386 . S
C587 C591 1.393 . S
C588 H577 0.950 . S
C588 C586 1.391 . S
C588 C589 1.400 . S
C589 C583 1.491 . S
C589 C588 1.400 . S
C589 C590 1.398 . S
C590 H578 0.950 . S
C590 C589 1.398 . S
C590 C591 1.391 . S
C591 H579 0.950 . S
C591 C587 1.393 . S
C591 C590 1.391 . S
H592 C600 0.950 . S
H593 C605 0.950 . S
H594 C602 0.950 . S
H595 C604 0.950 . S
H596 C606 0.950 . S
H597 C608 0.950 . S
H598 C610 0.950 . S
H599 C611 0.950 . S
C600 H592 0.950 . S
C600 C601 1.386 . S
C600 C602 1.391 . S
C601 C600 1.386 . S
C601 C605 1.393 . S
C602 H594 0.950 . S
C602 C600 1.391 . S
C602 C603 1.400 . S
C603 C602 1.400 . S
C603 C604 1.398 . S
C603 C609 1.491 . S
C604 H595 0.950 . S
C604 C603 1.398 . S
C604 C605 1.391 . S
C605 H593 0.950 . S
C605 C601 1.393 . S
C605 C604 1.391 . S
C606 H596 0.950 . S
C606 C607 1.386 . S
C606 C608 1.391 . S
C607 C606 1.386 . S
C607 C611 1.393 . S
C608 H597 0.950 . S
C608 C606 1.391 . S
C608 C609 1.400 . S
C609 C603 1.491 . S
C609 C608 1.400 . S
C609 C610 1.398 . S
C610 H598 0.950 . S
C610 C609 1.398 . S
C610 C611 1.391 . S
C611 H599 0.950 . S
C611 C607 1.393 . S
C611 C610 1.391 . S
H612 C620 0.950 . S
H613 C625 0.950 . S
H614 C622 0.950 . S
H615 C624 0.950 . S
H616 C626 0.950 . S
H617 C628 0.950 . S
H618 C630 0.950 . S
H619 C631 0.950 . S
C620 H612 0.950 . S
C620 C621 1.386 . S
C620 C622 1.391 . S
C621 C620 1.386 . S
C621 C625 1.393 . S
C622 H614 0.950 . S
C622 C620 1.391 . S
C622 C623 1.400 . S
C623 C622 1.400 . S
C623 C624 1.398 . S
C623 C629 1.491 . S
C624 H615 0.950 . S
C624 C623 1.398 . S
C624 C625 1.391 . S
C625 H613 0.950 . S
C625 C621 1.393 . S
C625 C624 1.391 . S
C626 H616 0.950 . S
C626 C627 1.386 . S
C626 C628 1.391 . S
C627 C626 1.386 . S
C627 C631 1.393 . S
C628 H617 0.950 . S
C628 C626 1.391 . S
C628 C629 1.400 . S
C629 C623 1.491 . S
C629 C628 1.400 . S
C629 C630 1.398 . S
C630 H618 0.950 . S
C630 C629 1.398 . S
C630 C631 1.391 . S
C631 H619 0.950 . S
C631 C627 1.393 . S
C631 C630 1.391 . S
H632 C640 0.950 . S
H633 C645 0.950 . S
H634 C642 0.950 . S
H635 C644 0.950 . S
H636 C646 0.950 . S
H637 C648 0.950 . S
H638 C650 0.950 . S
H639 C651 0.950 . S
C640 H632 0.950 . S
C640 C641 1.386 . S
C640 C642 1.391 . S
C641 C640 1.386 . S
C641 C645 1.393 . S
C642 H634 0.950 . S
C642 C640 1.391 . S
C642 C643 1.400 . S
C643 C642 1.400 . S
C643 C644 1.398 . S
C643 C649 1.491 . S
C644 H635 0.950 . S
C644 C643 1.398 . S
C644 C645 1.391 . S
C645 H633 0.950 . S
C645 C641 1.393 . S
C645 C644 1.391 . S
C646 H636 0.950 . S
C646 C647 1.386 . S
C646 C648 1.391 . S
C647 C646 1.386 . S
C647 C651 1.393 . S
C648 H637 0.950 . S
C648 C646 1.391 . S
C648 C649 1.400 . S
C649 C643 1.491 . S
C649 C648 1.400 . S
C649 C650 1.398 . S
C650 H638 0.950 . S
C650 C649 1.398 . S
C650 C651 1.391 . S
C651 H639 0.950 . S
C651 C647 1.393 . S
C651 C650 1.391 . S
H652 C660 0.950 . S
H653 C665 0.950 . S
H654 C662 0.950 . S
H655 C664 0.950 . S
H656 C666 0.950 . S
H657 C668 0.950 . S
H658 C670 0.950 . S
H659 C671 0.950 . S
C660 H652 0.950 . S
C660 C661 1.386 . S
C660 C662 1.391 . S
C661 C660 1.386 . S
C661 C665 1.393 . S
C662 H654 0.950 . S
C662 C660 1.391 . S
C662 C663 1.400 . S
C663 C662 1.400 . S
C663 C664 1.398 . S
C663 C669 1.491 . S
C664 H655 0.950 . S
C664 C663 1.398 . S
C664 C665 1.391 . S
C665 H653 0.950 . S
C665 C661 1.393 . S
C665 C664 1.391 . S
C666 H656 0.950 . S
C666 C667 1.386 . S
C666 C668 1.391 . S
C667 C666 1.386 . S
C667 C671 1.393 . S
C668 H657 0.950 . S
C668 C666 1.391 . S
C668 C669 1.400 . S
C669 C663 1.491 . S
C669 C668 1.400 . S
C669 C670 1.398 . S
C670 H658 0.950 . S
C670 C669 1.398 . S
C670 C671 1.391 . S
C671 H659 0.950 . S
C671 C667 1.393 . S
C671 C670 1.391 . S
H672 C680 0.950 . S
H673 C685 0.950 . S
H674 C682 0.950 . S
H675 C684 0.950 . S
H676 C686 0.950 . S
H677 C688 0.950 . S
H678 C690 0.950 . S
H679 C691 0.950 . S
C680 H672 0.950 . S
C680 C681 1.386 . S
C680 C682 1.391 . S
C681 C680 1.386 . S
C681 C685 1.393 . S
C682 H674 0.950 . S
C682 C680 1.391 . S
C682 C683 1.400 . S
C683 C682 1.400 . S
C683 C684 1.398 . S
C683 C689 1.491 . S
C684 H675 0.950 . S
C684 C683 1.398 . S
C684 C685 1.391 . S
C685 H673 0.950 . S
C685 C681 1.393 . S
C685 C684 1.391 . S
C686 H676 0.950 . S
C686 C687 1.386 . S
C686 C688 1.391 . S
C687 C686 1.386 . S
C687 C691 1.393 . S
C688 H677 0.950 . S
C688 C686 1.391 . S
C688 C689 1.400 . S
C689 C683 1.491 . S
C689 C688 1.400 . S
C689 C690 1.398 . S
C690 H678 0.950 . S
C690 C689 1.398 . S
C690 C691 1.391 . S
C691 H679 0.950 . S
C691 C687 1.393 . S
C691 C690 1.391 . S
H692 C700 0.950 . S
H693 C705 0.950 . S
H694 C702 0.950 . S
H695 C704 0.950 . S
H696 C706 0.950 . S
H697 C708 0.950 . S
H698 C710 0.950 . S
H699 C711 0.950 . S
C700 H692 0.950 . S
C700 C701 1.386 . S
C700 C702 1.391 . S
C701 C700 1.386 . S
C701 C705 1.393 . S
C702 H694 0.950 . S
C702 C700 1.391 . S
C702 C703 1.400 . S
C703 C702 1.400 . S
C703 C704 1.398 . S
C703 C709 1.491 . S
C704 H695 0.950 . S
C704 C703 1.398 . S
C704 C705 1.391 . S
C705 H693 0.950 . S
C705 C701 1.393 . S
C705 C704 1.391 . S
C706 H696 0.950 . S
C706 C707 1.386 . S
C706 C708 1.391 . S
C707 C706 1.386 . S
C707 C711 1.393 . S
C708 H697 0.950 . S
C708 C706 1.391 . S
C708 C709 1.400 . S
C709 C703 1.491 . S
C709 C708 1.400 . S
C709 C710 1.398 . S
C710 H698 0.950 . S
C710 C709 1.398 . S
C710 C711 1.391 . S
C711 H699 0.950 . S
C711 C707 1.393 . S
C711 C710 1.391 . S
C241 C5 1.128 . S
C247 C87 1.141 . S
C261 C14 0.964 . S
C267 C127 0.993 . S
C287 C161 2.301 . S
C281 C25 2.335 . S
C301 C34 2.640 . S
C307 C202 2.565 . S
C327 C122 1.241 . S
C321 C7 1.234 . S
C347 C82 1.787 . S
C341 C13 1.708 . S
C367 C210 1.626 . S
C361 C23 1.630 . S
C387 C171 1.780 . S
C381 C31 1.840 . S
C401 C4 1.228 . S
C407 C207 1.235 . S
C427 C130 2.015 . S
C421 C22 2.071 . S
C441 C32 2.407 . S
C447 C90 2.319 . S
C461 C16 1.344 . S
C467 C158 1.386 . S
C487 C78 1.125 . S
C481 C41 1.111 . S
C501 C50 1.012 . S
C507 C118 1.023 . S
C521 C61 2.331 . S
C527 C170 2.300 . S
C541 C67 2.652 . S
C547 C211 2.587 . S
C561 C40 1.241 . S
C567 C131 1.267 . S
C587 C91 1.766 . S
C581 C52 1.698 . S
C607 C201 1.629 . S
C601 C59 1.638 . S
C627 C162 1.790 . S
C621 C70 1.846 . S
C641 C43 1.228 . S
C647 C198 1.249 . S
C667 C121 2.034 . S
C661 C58 2.086 . S
C687 C81 2.306 . S
C681 C68 2.388 . S
C701 C49 1.365 . S
C707 C167 1.404 . S
