# Generated by pormake.
# Topology eea, (3,6)-cn, num edge types: 1
# Building blocks:
#     Node 0, Type 0, BuildingBlock: MIDCAF_clean_linker_0, # of connection points: 3
#     Node 1, Type 0, BuildingBlock: MIDCAF_clean_linker_0, # of connection points: 3
#     Node 2, Type 0, BuildingBlock: MIDCAF_clean_linker_0, # of connection points: 3
#     Node 3, Type 0, BuildingBlock: MIDCAF_clean_linker_0, # of connection points: 3
#     Node 4, Type 0, BuildingBlock: MIDCAF_clean_linker_0, # of connection points: 3
#     Node 5, Type 0, BuildingBlock: MIDCAF_clean_linker_0, # of connection points: 3
#     Node 6, Type 0, BuildingBlock: MIDCAF_clean_linker_0, # of connection points: 3
#     Node 7, Type 0, BuildingBlock: MIDCAF_clean_linker_0, # of connection points: 3
#     Node 8, Type 0, BuildingBlock: MIDCAF_clean_linker_0, # of connection points: 3
#     Node 9, Type 0, BuildingBlock: MIDCAF_clean_linker_0, # of connection points: 3
#     Node 10, Type 0, BuildingBlock: MIDCAF_clean_linker_0, # of connection points: 3
#     Node 11, Type 0, BuildingBlock: MIDCAF_clean_linker_0, # of connection points: 3
#     Node 12, Type 0, BuildingBlock: MIDCAF_clean_linker_0, # of connection points: 3
#     Node 13, Type 0, BuildingBlock: MIDCAF_clean_linker_0, # of connection points: 3
#     Node 14, Type 0, BuildingBlock: MIDCAF_clean_linker_0, # of connection points: 3
#     Node 15, Type 0, BuildingBlock: MIDCAF_clean_linker_0, # of connection points: 3
#     Node 16, Type 0, BuildingBlock: MIDCAF_clean_linker_0, # of connection points: 3
#     Node 17, Type 0, BuildingBlock: MIDCAF_clean_linker_0, # of connection points: 3
#     Node 18, Type 1, BuildingBlock: CUKXOW_clean_sbu_0, # of connection points: 6
#     Node 19, Type 1, BuildingBlock: CUKXOW_clean_sbu_0, # of connection points: 6
#     Node 20, Type 1, BuildingBlock: CUKXOW_clean_sbu_0, # of connection points: 6
#     Node 21, Type 1, BuildingBlock: CUKXOW_clean_sbu_0, # of connection points: 6
#     Node 22, Type 1, BuildingBlock: CUKXOW_clean_sbu_0, # of connection points: 6
#     Node 23, Type 1, BuildingBlock: CUKXOW_clean_sbu_0, # of connection points: 6
#     Node 24, Type 1, BuildingBlock: CUKXOW_clean_sbu_0, # of connection points: 6
#     Node 25, Type 1, BuildingBlock: CUKXOW_clean_sbu_0, # of connection points: 6
#     Node 26, Type 1, BuildingBlock: CUKXOW_clean_sbu_0, # of connection points: 6
#     Edge 27, Type (0, 1), BuildingBlock: XIVTED_clean_linker_0, # of connection points: 2
#     Edge 28, Type (0, 1), BuildingBlock: XIVTED_clean_linker_0, # of connection points: 2
#     Edge 29, Type (0, 1), BuildingBlock: XIVTED_clean_linker_0, # of connection points: 2
#     Edge 30, Type (0, 1), BuildingBlock: XIVTED_clean_linker_0, # of connection points: 2
#     Edge 31, Type (0, 1), BuildingBlock: XIVTED_clean_linker_0, # of connection points: 2
#     Edge 32, Type (0, 1), BuildingBlock: XIVTED_clean_linker_0, # of connection points: 2
#     Edge 33, Type (0, 1), BuildingBlock: XIVTED_clean_linker_0, # of connection points: 2
#     Edge 34, Type (0, 1), BuildingBlock: XIVTED_clean_linker_0, # of connection points: 2
#     Edge 35, Type (0, 1), BuildingBlock: XIVTED_clean_linker_0, # of connection points: 2
#     Edge 36, Type (0, 1), BuildingBlock: XIVTED_clean_linker_0, # of connection points: 2
#     Edge 37, Type (0, 1), BuildingBlock: XIVTED_clean_linker_0, # of connection points: 2
#     Edge 38, Type (0, 1), BuildingBlock: XIVTED_clean_linker_0, # of connection points: 2
#     Edge 39, Type (0, 1), BuildingBlock: XIVTED_clean_linker_0, # of connection points: 2
#     Edge 40, Type (0, 1), BuildingBlock: XIVTED_clean_linker_0, # of connection points: 2
#     Edge 41, Type (0, 1), BuildingBlock: XIVTED_clean_linker_0, # of connection points: 2
#     Edge 42, Type (0, 1), BuildingBlock: XIVTED_clean_linker_0, # of connection points: 2
#     Edge 43, Type (0, 1), BuildingBlock: XIVTED_clean_linker_0, # of connection points: 2
#     Edge 44, Type (0, 1), BuildingBlock: XIVTED_clean_linker_0, # of connection points: 2
#     Edge 45, Type (0, 1), BuildingBlock: XIVTED_clean_linker_0, # of connection points: 2
#     Edge 46, Type (0, 1), BuildingBlock: XIVTED_clean_linker_0, # of connection points: 2
#     Edge 47, Type (0, 1), BuildingBlock: XIVTED_clean_linker_0, # of connection points: 2
#     Edge 48, Type (0, 1), BuildingBlock: XIVTED_clean_linker_0, # of connection points: 2
#     Edge 49, Type (0, 1), BuildingBlock: XIVTED_clean_linker_0, # of connection points: 2
#     Edge 50, Type (0, 1), BuildingBlock: XIVTED_clean_linker_0, # of connection points: 2
#     Edge 51, Type (0, 1), BuildingBlock: XIVTED_clean_linker_0, # of connection points: 2
#     Edge 52, Type (0, 1), BuildingBlock: XIVTED_clean_linker_0, # of connection points: 2
#     Edge 53, Type (0, 1), BuildingBlock: XIVTED_clean_linker_0, # of connection points: 2
#     Edge 54, Type (0, 1), BuildingBlock: XIVTED_clean_linker_0, # of connection points: 2
#     Edge 55, Type (0, 1), BuildingBlock: XIVTED_clean_linker_0, # of connection points: 2
#     Edge 56, Type (0, 1), BuildingBlock: XIVTED_clean_linker_0, # of connection points: 2
#     Edge 57, Type (0, 1), BuildingBlock: XIVTED_clean_linker_0, # of connection points: 2
#     Edge 58, Type (0, 1), BuildingBlock: XIVTED_clean_linker_0, # of connection points: 2
#     Edge 59, Type (0, 1), BuildingBlock: XIVTED_clean_linker_0, # of connection points: 2
#     Edge 60, Type (0, 1), BuildingBlock: XIVTED_clean_linker_0, # of connection points: 2
#     Edge 61, Type (0, 1), BuildingBlock: XIVTED_clean_linker_0, # of connection points: 2
#     Edge 62, Type (0, 1), BuildingBlock: XIVTED_clean_linker_0, # of connection points: 2
#     Edge 63, Type (0, 1), BuildingBlock: XIVTED_clean_linker_0, # of connection points: 2
#     Edge 64, Type (0, 1), BuildingBlock: XIVTED_clean_linker_0, # of connection points: 2
#     Edge 65, Type (0, 1), BuildingBlock: XIVTED_clean_linker_0, # of connection points: 2
#     Edge 66, Type (0, 1), BuildingBlock: XIVTED_clean_linker_0, # of connection points: 2
#     Edge 67, Type (0, 1), BuildingBlock: XIVTED_clean_linker_0, # of connection points: 2
#     Edge 68, Type (0, 1), BuildingBlock: XIVTED_clean_linker_0, # of connection points: 2
#     Edge 69, Type (0, 1), BuildingBlock: XIVTED_clean_linker_0, # of connection points: 2
#     Edge 70, Type (0, 1), BuildingBlock: XIVTED_clean_linker_0, # of connection points: 2
#     Edge 71, Type (0, 1), BuildingBlock: XIVTED_clean_linker_0, # of connection points: 2
#     Edge 72, Type (0, 1), BuildingBlock: XIVTED_clean_linker_0, # of connection points: 2
#     Edge 73, Type (0, 1), BuildingBlock: XIVTED_clean_linker_0, # of connection points: 2
#     Edge 74, Type (0, 1), BuildingBlock: XIVTED_clean_linker_0, # of connection points: 2
#     Edge 75, Type (0, 1), BuildingBlock: XIVTED_clean_linker_0, # of connection points: 2
#     Edge 76, Type (0, 1), BuildingBlock: XIVTED_clean_linker_0, # of connection points: 2
#     Edge 77, Type (0, 1), BuildingBlock: XIVTED_clean_linker_0, # of connection points: 2
#     Edge 78, Type (0, 1), BuildingBlock: XIVTED_clean_linker_0, # of connection points: 2
#     Edge 79, Type (0, 1), BuildingBlock: XIVTED_clean_linker_0, # of connection points: 2
#     Edge 80, Type (0, 1), BuildingBlock: XIVTED_clean_linker_0, # of connection points: 2
# Relax obj value: 0.018
# Max RMSD: 0.126
# Mean RMSD: 0.056
data_MOF--net-eea--node1-CUKXOW_clean_sbu_0--node2-MIDCAF_clean_linker_0--edge1-XIVTED_clean_linker_0
_symmetry_space_group_name_H-M    P1
_symmetry_Int_Tables_number       1
_symmetry_cell_setting            triclinic
loop_
_symmetry_equiv_pos_as_xyz
'x, y, z'
_cell_length_a     67.187816
_cell_length_b     64.155349
_cell_length_c     73.474799
_cell_angle_alpha  93.097983
_cell_angle_beta   93.052926
_cell_angle_gamma 119.93133
loop_
_atom_site_label
_atom_site_type_symbol
_atom_site_fract_x
_atom_site_fract_y
_atom_site_fract_z
_atom_type_partial_charge
C0 C 0.26499 0.06314 0.40587 0.0
C1 C 0.2481 0.05368 0.39092 0.0
C2 C 0.24003 0.06829 0.38384 0.0
C3 C 0.24835 0.09176 0.39182 0.0
H4 H 0.26156 0.16228 0.38154 0.0
H5 H 0.24805 0.18726 0.3677 0.0
H6 H 0.25591 0.22419 0.42077 0.0
H7 H 0.26947 0.19934 0.4347 0.0
H8 H 0.30561 0.19405 0.46588 0.0
H9 H 0.31692 0.2004 0.49885 0.0
H10 H 0.29764 0.12542 0.49921 0.0
H11 H 0.28655 0.11897 0.46646 0.0
H12 H 0.28574 0.09301 0.42578 0.0
H13 H 0.27141 0.05221 0.41167 0.0
H14 H 0.22716 0.06149 0.37221 0.0
H15 H 0.24146 0.10241 0.38626 0.0
N16 N 0.26749 0.14085 0.40865 0.0
N17 N 0.28206 0.16721 0.43557 0.0
N18 N 0.28124 0.13021 0.43441 0.0
C19 C 0.27267 0.16213 0.41791 0.0
C20 C 0.28646 0.15134 0.44389 0.0
C21 C 0.27181 0.12484 0.4168 0.0
C22 C 0.26645 0.17868 0.40926 0.0
C23 C 0.26061 0.17586 0.39026 0.0
C24 C 0.25299 0.19023 0.3823 0.0
C25 C 0.2508 0.20752 0.39319 0.0
C26 C 0.25721 0.2108 0.4121 0.0
C27 C 0.2651 0.19665 0.42004 0.0
C28 C 0.29504 0.15597 0.46352 0.0
C29 C 0.30396 0.17897 0.47296 0.0
C30 C 0.31053 0.18266 0.49179 0.0
C31 C 0.30794 0.16334 0.50152 0.0
C32 C 0.29956 0.14055 0.49203 0.0
C33 C 0.29332 0.13692 0.47324 0.0
C34 C 0.26467 0.10095 0.4072 0.0
C35 C 0.2731 0.08647 0.414 0.0
C36 C 0.9493 0.2061 0.4254 0.0
C37 C 0.95102 0.20136 0.40679 0.0
C38 C 0.93136 0.18313 0.39614 0.0
C39 C 0.9108 0.16932 0.404 0.0
H40 H 0.85053 0.1039 0.39387 0.0
H41 H 0.82458 0.06345 0.37877 0.0
H42 H 0.79303 0.04077 0.42912 0.0
H43 H 0.81879 0.08096 0.44426 0.0
H44 H 0.83221 0.11685 0.47705 0.0
H45 H 0.82487 0.12515 0.50763 0.0
H46 H 0.88112 0.19874 0.50923 0.0
H47 H 0.88901 0.19021 0.47841 0.0
H48 H 0.92806 0.196 0.44774 0.0
H49 H 0.96414 0.2199 0.43404 0.0
H50 H 0.93188 0.17937 0.38167 0.0
H51 H 0.89617 0.15517 0.39537 0.0
N52 N 0.87228 0.13559 0.42209 0.0
N53 N 0.84999 0.12575 0.44698 0.0
N54 N 0.88446 0.16295 0.44842 0.0
C55 C 0.85326 0.11976 0.42988 0.0
C56 C 0.86534 0.14726 0.45634 0.0
C57 C 0.88798 0.1572 0.43122 0.0
C58 C 0.83684 0.09569 0.42031 0.0
C59 C 0.838 0.09033 0.40171 0.0
C60 C 0.82309 0.06722 0.39302 0.0
C61 C 0.80693 0.04897 0.40282 0.0
C62 C 0.80553 0.05442 0.4213 0.0
C63 C 0.82023 0.07753 0.42993 0.0
C64 C 0.86119 0.15289 0.47514 0.0
C65 C 0.84307 0.13489 0.48378 0.0
C66 C 0.8387 0.1397 0.50137 0.0
C67 C 0.85218 0.16271 0.51086 0.0
C68 C 0.87046 0.18077 0.50234 0.0
C69 C 0.87493 0.17591 0.48465 0.0
C70 C 0.90926 0.17346 0.42273 0.0
C71 C 0.92862 0.19234 0.43327 0.0
C72 C 0.80236 0.73087 0.42252 0.0
C73 C 0.81045 0.74888 0.41027 0.0
C74 C 0.83336 0.75901 0.40584 0.0
C75 C 0.84793 0.75164 0.41368 0.0
H76 H 0.90641 0.74825 0.40586 0.0
H77 H 0.94429 0.7643 0.39501 0.0
H78 H 0.96993 0.75174 0.446 0.0
H79 H 0.93159 0.73494 0.45679 0.0
H80 H 0.89534 0.71309 0.48834 0.0
H81 H 0.88539 0.69755 0.51807 0.0
H82 H 0.81303 0.66678 0.50042 0.0
H83 H 0.82301 0.68305 0.47103 0.0
H84 H 0.81033 0.70998 0.4401 0.0
H85 H 0.78469 0.72235 0.42599 0.0
H86 H 0.84034 0.7732 0.39671 0.0
H87 H 0.8656 0.76024 0.41019 0.0
N88 N 0.87726 0.7355 0.42977 0.0
N89 N 0.88719 0.71947 0.45426 0.0
N90 N 0.85056 0.71573 0.45086 0.0
C91 C 0.89284 0.73131 0.43888 0.0
C92 C 0.86595 0.71146 0.46023 0.0
C93 C 0.85613 0.72783 0.43565 0.0
C94 C 0.91594 0.74039 0.43226 0.0
C95 C 0.92006 0.74887 0.41483 0.0
C96 C 0.94188 0.75826 0.40862 0.0
C97 C 0.96025 0.7596 0.41971 0.0
C98 C 0.95611 0.75082 0.43706 0.0
C99 C 0.93415 0.74125 0.44327 0.0
C100 C 0.85998 0.69959 0.47741 0.0
C101 C 0.8773 0.70278 0.49075 0.0
C102 C 0.87158 0.69376 0.50778 0.0
C103 C 0.84841 0.68117 0.51175 0.0
C104 C 0.83108 0.67694 0.49802 0.0
C105 C 0.8368 0.68616 0.48111 0.0
C106 C 0.84004 0.73414 0.42632 0.0
C107 C 0.81702 0.72365 0.43053 0.0
C108 C 0.05013 0.26111 0.57616 0.0
C109 C 0.04491 0.24635 0.5907 0.0
C110 C 0.06143 0.24091 0.59781 0.0
C111 C 0.08281 0.25028 0.5908 0.0
H112 H 0.14378 0.25562 0.60132 0.0
H113 H 0.16996 0.24398 0.61491 0.0
H114 H 0.21751 0.27924 0.57448 0.0
H115 H 0.19088 0.29051 0.56044 0.0
H116 H 0.17705 0.31755 0.53076 0.0
H117 H 0.18307 0.33338 0.50088 0.0
H118 H 0.11231 0.31693 0.49447 0.0
H119 H 0.1061 0.30095 0.52425 0.0
H120 H 0.07515 0.28191 0.55797 0.0
H121 H 0.03783 0.2658 0.57049 0.0
H122 H 0.05781 0.22922 0.60876 0.0
H123 H 0.09504 0.24563 0.5967 0.0
N124 N 0.12732 0.27127 0.57738 0.0
N125 N 0.15267 0.29162 0.55554 0.0
N126 N 0.11575 0.28726 0.55393 0.0
C127 C 0.14816 0.27946 0.57077 0.0
C128 C 0.13656 0.29566 0.54707 0.0
C129 C 0.11104 0.27507 0.56912 0.0
C130 C 0.16511 0.27393 0.57967 0.0
C131 C 0.15984 0.26108 0.5953 0.0
C132 C 0.17498 0.25452 0.60324 0.0
C133 C 0.19586 0.2607 0.59582 0.0
C134 C 0.20141 0.27396 0.5804 0.0
C135 C 0.18621 0.28054 0.57242 0.0
C136 C 0.14101 0.30766 0.52985 0.0
C137 C 0.16282 0.31753 0.5231 0.0
C138 C 0.16634 0.32679 0.50603 0.0
C139 C 0.14811 0.32624 0.49531 0.0
C140 C 0.1266 0.31732 0.50236 0.0
C141 C 0.1231 0.30823 0.51947 0.0
C142 C 0.08821 0.26525 0.57639 0.0
C143 C 0.07158 0.27046 0.56907 0.0
C144 C 0.74454 0.7886 0.58293 0.0
C145 C 0.75233 0.79175 0.60154 0.0
C146 C 0.75249 0.81016 0.61292 0.0
C147 C 0.7456 0.82553 0.60574 0.0
H148 H 0.76368 0.89835 0.61281 0.0
H149 H 0.77722 0.93828 0.62857 0.0
H150 H 0.73334 0.94955 0.59016 0.0
H151 H 0.71977 0.90979 0.57441 0.0
H152 H 0.72503 0.88715 0.5316 0.0
H153 H 0.71264 0.88175 0.49904 0.0
H154 H 0.6802 0.80445 0.49983 0.0
H155 H 0.69309 0.80972 0.53252 0.0
H156 H 0.73187 0.80111 0.5613 0.0
H157 H 0.74398 0.77438 0.57389 0.0
H158 H 0.75858 0.81314 0.62729 0.0
H159 H 0.74636 0.83981 0.61485 0.0
N160 N 0.73791 0.86101 0.58915 0.0
N161 N 0.72437 0.87323 0.56423 0.0
N162 N 0.72293 0.83592 0.56162 0.0
C163 C 0.73378 0.87761 0.58179 0.0
C164 C 0.71885 0.85245 0.55408 0.0
C165 C 0.73245 0.84007 0.57918 0.0
C166 C 0.74073 0.90092 0.59229 0.0
C167 C 0.75673 0.90923 0.60784 0.0
C168 C 0.76461 0.93214 0.6168 0.0
C169 C 0.75637 0.94701 0.61054 0.0
C170 C 0.73985 0.93839 0.59537 0.0
C171 C 0.73219 0.91566 0.58628 0.0
C172 C 0.71007 0.84884 0.53462 0.0
C173 C 0.71513 0.86896 0.52493 0.0
C174 C 0.70815 0.86593 0.5063 0.0
C175 C 0.69556 0.84273 0.49707 0.0
C176 C 0.68986 0.82251 0.50677 0.0
C177 C 0.6973 0.82555 0.52538 0.0
C178 C 0.73824 0.82273 0.58703 0.0
C179 C 0.73746 0.80385 0.57576 0.0
C180 C 0.20066 0.94077 0.58747 0.0
C181 C 0.19792 0.94568 0.60571 0.0
C182 C 0.18076 0.92726 0.61471 0.0
C183 C 0.16581 0.90462 0.6053 0.0
H184 H 0.10029 0.84688 0.60588 0.0
H185 H 0.06219 0.82434 0.61648 0.0
H186 H 0.03593 0.78305 0.5637 0.0
H187 H 0.07428 0.80529 0.55311 0.0
H188 H 0.10785 0.82216 0.51991 0.0
H189 H 0.11597 0.8172 0.4885 0.0
H190 H 0.18898 0.86284 0.50438 0.0
H191 H 0.18085 0.8684 0.53549 0.0
H192 H 0.18828 0.91516 0.56394 0.0
H193 H 0.21393 0.95466 0.58029 0.0
H194 H 0.17831 0.93068 0.62878 0.0
H195 H 0.15224 0.89098 0.61241 0.0
N196 N 0.13006 0.86267 0.58236 0.0
N197 N 0.11796 0.8371 0.55507 0.0
N198 N 0.15514 0.87106 0.5594 0.0
C199 C 0.11349 0.84268 0.57194 0.0
C200 C 0.13888 0.85114 0.5488 0.0
C201 C 0.15091 0.87697 0.57618 0.0
C202 C 0.09041 0.82803 0.57858 0.0
C203 C 0.08647 0.83296 0.59649 0.0
C204 C 0.06454 0.82013 0.60256 0.0
C205 C 0.04593 0.80205 0.59088 0.0
C206 C 0.04992 0.79674 0.57309 0.0
C207 C 0.07192 0.80957 0.567 0.0
C208 C 0.14368 0.84591 0.53017 0.0
C209 C 0.12564 0.83094 0.51672 0.0
C210 C 0.13031 0.82803 0.49871 0.0
C211 C 0.15313 0.83987 0.49383 0.0
C212 C 0.17117 0.85395 0.50751 0.0
C213 C 0.1665 0.85703 0.52542 0.0
C214 C 0.16804 0.89994 0.58681 0.0
C215 C 0.18601 0.91809 0.57815 0.0
C216 C 0.92284 0.39342 0.75081 0.0
C217 C 0.91328 0.38666 0.73254 0.0
C218 C 0.91234 0.40394 0.72214 0.0
C219 C 0.92018 0.42737 0.73007 0.0
H220 H 0.90641 0.48385 0.72733 0.0
H221 H 0.89371 0.50953 0.71366 0.0
H222 H 0.93995 0.56891 0.75319 0.0
H223 H 0.95273 0.5433 0.76698 0.0
H224 H 0.9606 0.52518 0.80716 0.0
H225 H 0.97498 0.53323 0.8395 0.0
H226 H 0.98183 0.46971 0.83555 0.0
H227 H 0.96801 0.4619 0.8034 0.0
H228 H 0.93784 0.42122 0.77288 0.0
H229 H 0.92406 0.38054 0.75907 0.0
H230 H 0.90495 0.39915 0.70804 0.0
H231 H 0.91881 0.44015 0.7218 0.0
N232 N 0.93147 0.4736 0.74882 0.0
N233 N 0.94769 0.50182 0.77469 0.0
N234 N 0.94706 0.46499 0.77463 0.0
C235 C 0.9371 0.49544 0.75737 0.0
C236 C 0.95276 0.48667 0.7834 0.0
C237 C 0.93649 0.45831 0.75736 0.0
C238 C 0.93052 0.51147 0.74833 0.0
C239 C 0.91405 0.50242 0.73305 0.0
C240 C 0.90665 0.51706 0.72527 0.0
C241 C 0.91577 0.54114 0.73243 0.0
C242 C 0.93273 0.55044 0.74734 0.0
C243 C 0.93993 0.53572 0.75529 0.0
C244 C 0.96304 0.49283 0.80265 0.0
C245 C 0.96542 0.51309 0.81315 0.0
C246 C 0.97352 0.51763 0.8317 0.0
C247 C 0.97953 0.50211 0.84009 0.0
C248 C 0.97767 0.48223 0.82947 0.0
C249 C 0.96955 0.47766 0.81101 0.0
C250 C 0.92932 0.434 0.7485 0.0
C251 C 0.93085 0.41682 0.75868 0.0
C252 C 0.61851 0.53283 0.76367 0.0
C253 C 0.62332 0.52796 0.74606 0.0
C254 C 0.60532 0.50975 0.73402 0.0
C255 C 0.58315 0.49642 0.73953 0.0
H256 H 0.52448 0.43249 0.72625 0.0
H257 H 0.49782 0.39414 0.7088 0.0
H258 H 0.44546 0.38285 0.745 0.0
H259 H 0.47199 0.42131 0.76249 0.0
H260 H 0.48577 0.4575 0.79835 0.0
H261 H 0.47686 0.46334 0.82917 0.0
H262 H 0.5492 0.51299 0.84507 0.0
H263 H 0.55809 0.50773 0.81405 0.0
H264 H 0.59321 0.52349 0.78293 0.0
H265 H 0.63204 0.54662 0.77332 0.0
H266 H 0.60832 0.50587 0.72023 0.0
H267 H 0.56981 0.48248 0.72985 0.0
N268 N 0.53874 0.46651 0.75217 0.0
N269 N 0.51223 0.45764 0.77406 0.0
N270 N 0.54957 0.49122 0.77975 0.0
C271 C 0.51737 0.4522 0.75749 0.0
C272 C 0.5282 0.47712 0.78527 0.0
C273 C 0.55491 0.48609 0.76313 0.0
C274 C 0.50048 0.42995 0.74591 0.0
C275 C 0.50722 0.42202 0.73043 0.0
C276 C 0.492 0.39997 0.72045 0.0
C277 C 0.46964 0.38544 0.72561 0.0
C278 C 0.46255 0.39375 0.74063 0.0
C279 C 0.47783 0.41574 0.75072 0.0
C280 C 0.52268 0.482 0.80372 0.0
C281 C 0.4998 0.46979 0.80836 0.0
C282 C 0.49469 0.47304 0.82609 0.0
C283 C 0.51233 0.48843 0.83969 0.0
C284 C 0.53515 0.50118 0.83492 0.0
C285 C 0.54026 0.49806 0.81712 0.0
C286 C 0.57835 0.501 0.75722 0.0
C287 C 0.59625 0.51949 0.76919 0.0
C288 C 0.46851 0.06983 0.75492 0.0
C289 C 0.47151 0.077 0.73705 0.0
C290 C 0.4895 0.07713 0.728 0.0
C291 C 0.50464 0.07117 0.73685 0.0
H292 H 0.56887 0.07979 0.73403 0.0
H293 H 0.60663 0.09605 0.72275 0.0
H294 H 0.6345 0.08935 0.77506 0.0
H295 H 0.59645 0.07239 0.78626 0.0
H296 H 0.56212 0.05127 0.81838 0.0
H297 H 0.55388 0.03694 0.84868 0.0
H298 H 0.48092 0.0059 0.83341 0.0
H299 H 0.48916 0.02086 0.80349 0.0
H300 H 0.48104 0.05882 0.77766 0.0
H301 H 0.45505 0.0698 0.76242 0.0
H302 H 0.49202 0.08203 0.71409 0.0
H303 H 0.51855 0.07191 0.72958 0.0
N304 N 0.5401 0.06793 0.75844 0.0
N305 N 0.55214 0.05569 0.78427 0.0
N306 N 0.51492 0.0504 0.781 0.0
C307 C 0.55665 0.06564 0.76803 0.0
C308 C 0.53121 0.04784 0.79074 0.0
C309 C 0.51924 0.06043 0.76484 0.0
C310 C 0.57959 0.07482 0.76109 0.0
C311 C 0.583 0.08173 0.74316 0.0
C312 C 0.60473 0.09123 0.73671 0.0
C313 C 0.62367 0.09422 0.74804 0.0
C314 C 0.62024 0.08707 0.76591 0.0
C315 C 0.59842 0.07741 0.77235 0.0
C316 C 0.52632 0.03748 0.80859 0.0
C317 C 0.54432 0.04124 0.82147 0.0
C318 C 0.53958 0.03293 0.83882 0.0
C319 C 0.51675 0.02051 0.84358 0.0
C320 C 0.49875 0.01593 0.8304 0.0
C321 C 0.50348 0.02442 0.81317 0.0
C322 C 0.50203 0.0647 0.75491 0.0
C323 C 0.48352 0.06364 0.76372 0.0
C324 C 0.71448 0.58938 0.90334 0.0
C325 C 0.71089 0.58229 0.92121 0.0
C326 C 0.72958 0.58462 0.93249 0.0
C327 C 0.7511 0.59296 0.92588 0.0
H328 H 0.80896 0.58909 0.93651 0.0
H329 H 0.83353 0.57601 0.95144 0.0
H330 H 0.87604 0.59615 0.90623 0.0
H331 H 0.85136 0.60898 0.8911 0.0
H332 H 0.83607 0.62478 0.85658 0.0
H333 H 0.84494 0.64071 0.8271 0.0
H334 H 0.79055 0.6581 0.82819 0.0
H335 H 0.78107 0.64125 0.8576 0.0
H336 H 0.73817 0.60262 0.88275 0.0
H337 H 0.70041 0.58768 0.89425 0.0
H338 H 0.72759 0.5799 0.94647 0.0
H339 H 0.76496 0.59415 0.93492 0.0
N340 N 0.79212 0.60147 0.90967 0.0
N341 N 0.81713 0.61631 0.88667 0.0
N342 N 0.7821 0.61619 0.88432 0.0
C343 C 0.81223 0.60642 0.90285 0.0
C344 C 0.80226 0.62137 0.87735 0.0
C345 C 0.77695 0.60626 0.90054 0.0
C346 C 0.82805 0.59996 0.91252 0.0
C347 C 0.82359 0.59087 0.92975 0.0
C348 C 0.83776 0.58349 0.93839 0.0
C349 C 0.85664 0.58494 0.92997 0.0
C350 C 0.86141 0.5945 0.91294 0.0
C351 C 0.84732 0.60199 0.90433 0.0
C352 C 0.80783 0.63171 0.85951 0.0
C353 C 0.826 0.63207 0.85063 0.0
C354 C 0.83122 0.6414 0.83371 0.0
C355 C 0.8186 0.6509 0.82527 0.0
C356 C 0.80048 0.65069 0.83419 0.0
C357 C 0.7951 0.64112 0.8511 0.0
C358 C 0.75456 0.59936 0.90784 0.0
C359 C 0.73612 0.59789 0.89673 0.0
C360 C 0.39653 0.11724 0.92662 0.0
C361 C 0.41815 0.12742 0.9369 0.0
C362 C 0.43236 0.15273 0.93882 0.0
C363 C 0.42512 0.1674 0.93094 0.0
H364 H 0.41817 0.22909 0.94657 0.0
H365 H 0.43379 0.27037 0.96024 0.0
H366 H 0.41581 0.29019 0.90931 0.0
H367 H 0.4003 0.24908 0.89554 0.0
H368 H 0.37837 0.21228 0.86267 0.0
H369 H 0.36537 0.2038 0.83026 0.0
H370 H 0.34586 0.12908 0.83297 0.0
H371 H 0.35923 0.13746 0.86569 0.0
H372 H 0.37295 0.12367 0.91034 0.0
H373 H 0.38484 0.09792 0.92506 0.0
H374 H 0.44937 0.1614 0.94609 0.0
H375 H 0.43659 0.1868 0.93262 0.0
N376 N 0.40405 0.19542 0.91978 0.0
N377 N 0.38783 0.20403 0.8944 0.0
N378 N 0.38513 0.16617 0.89474 0.0
C379 C 0.39939 0.21097 0.91132 0.0
C380 C 0.38059 0.18171 0.886 0.0
C381 C 0.3969 0.173 0.91164 0.0
C382 C 0.40802 0.23574 0.91993 0.0
C383 C 0.41748 0.24221 0.93828 0.0
C384 C 0.42634 0.26582 0.94615 0.0
C385 C 0.42611 0.28349 0.9358 0.0
C386 C 0.41648 0.277 0.91754 0.0
C387 C 0.40745 0.25337 0.9097 0.0
C388 C 0.37008 0.17559 0.86682 0.0
C389 C 0.37109 0.19393 0.85655 0.0
C390 C 0.36372 0.18915 0.83794 0.0
C391 C 0.35485 0.16588 0.82919 0.0
C392 C 0.35266 0.14717 0.8395 0.0
C393 C 0.36039 0.15202 0.85817 0.0
C394 C 0.40377 0.15717 0.92048 0.0
C395 C 0.38957 0.13197 0.91828 0.0
C396 C 0.86917 0.27359 0.9254 0.0
C397 C 0.86266 0.28149 0.94101 0.0
C398 C 0.84082 0.26645 0.9469 0.0
C399 C 0.82554 0.24427 0.93713 0.0
H400 H 0.76005 0.19084 0.9344 0.0
H401 H 0.72252 0.16719 0.9454 0.0
H402 H 0.70561 0.10931 0.90364 0.0
H403 H 0.74327 0.13349 0.89214 0.0
H404 H 0.78005 0.14519 0.86056 0.0
H405 H 0.78847 0.13695 0.82996 0.0
H406 H 0.84735 0.20929 0.8335 0.0
H407 H 0.83954 0.21713 0.86409 0.0
H408 H 0.85921 0.24613 0.90336 0.0
H409 H 0.88583 0.28489 0.92046 0.0
H410 H 0.83546 0.27193 0.95902 0.0
H411 H 0.80872 0.23335 0.94195 0.0
N412 N 0.79386 0.19941 0.91603 0.0
N413 N 0.78293 0.17298 0.88936 0.0
N414 N 0.81965 0.20779 0.89366 0.0
C415 C 0.77783 0.17895 0.90581 0.0
C416 C 0.80386 0.18739 0.88319 0.0
C417 C 0.81482 0.21387 0.91013 0.0
C418 C 0.7548 0.16404 0.91241 0.0
C419 C 0.74845 0.17305 0.92753 0.0
C420 C 0.72689 0.15939 0.93393 0.0
C421 C 0.71109 0.13621 0.92555 0.0
C422 C 0.7173 0.12718 0.91033 0.0
C423 C 0.73893 0.14099 0.9038 0.0
C424 C 0.80912 0.1818 0.86483 0.0
C425 C 0.79489 0.15925 0.85483 0.0
C426 C 0.79965 0.15457 0.83723 0.0
C427 C 0.81864 0.17241 0.82921 0.0
C428 C 0.83289 0.19488 0.83932 0.0
C429 C 0.82828 0.19946 0.8569 0.0
C430 C 0.83171 0.23665 0.92116 0.0
C431 C 0.85383 0.25143 0.91554 0.0
C432 C 0.58363 0.72499 0.07848 0.0
C433 C 0.57416 0.71948 0.06019 0.0
C434 C 0.57443 0.73787 0.05046 0.0
C435 C 0.58331 0.76116 0.0591 0.0
H436 H 0.58819 0.82767 0.05297 0.0
H437 H 0.57619 0.8541 0.03965 0.0
H438 H 0.58977 0.89373 0.09254 0.0
H439 H 0.60168 0.86732 0.10598 0.0
H440 H 0.61569 0.84819 0.14144 0.0
H441 H 0.62765 0.85199 0.17397 0.0
H442 H 0.64989 0.80016 0.16346 0.0
H443 H 0.63722 0.79575 0.13122 0.0
H444 H 0.59951 0.75165 0.10127 0.0
H445 H 0.58397 0.71124 0.08621 0.0
H446 H 0.56718 0.73408 0.03635 0.0
H447 H 0.5828 0.77481 0.05137 0.0
N448 N 0.59594 0.80688 0.07946 0.0
N449 N 0.61117 0.83296 0.10653 0.0
N450 N 0.61001 0.7958 0.10476 0.0
C451 C 0.60149 0.82815 0.08896 0.0
C452 C 0.61567 0.81692 0.11444 0.0
C453 C 0.60011 0.79057 0.0873 0.0
C454 C 0.59576 0.84524 0.08059 0.0
C455 C 0.58877 0.8421 0.06177 0.0
C456 C 0.58203 0.85733 0.05409 0.0
C457 C 0.58194 0.87588 0.06508 0.0
C458 C 0.58942 0.87939 0.08379 0.0
C459 C 0.59636 0.86431 0.09145 0.0
C460 C 0.62523 0.82144 0.13378 0.0
C461 C 0.62333 0.8378 0.14608 0.0
C462 C 0.63027 0.84003 0.16473 0.0
C463 C 0.63942 0.8261 0.17141 0.0
C464 C 0.64231 0.81066 0.15891 0.0
C465 C 0.63517 0.80824 0.14036 0.0
C466 C 0.59229 0.76653 0.07758 0.0
C467 C 0.59269 0.74824 0.08705 0.0
C468 C 0.28039 0.87156 0.09271 0.0
C469 C 0.28757 0.86098 0.0792 0.0
C470 C 0.27262 0.83675 0.0725 0.0
C471 C 0.25081 0.82366 0.07862 0.0
H472 H 0.1885 0.76888 0.05957 0.0
H473 H 0.16226 0.7306 0.042 0.0
H474 H 0.11114 0.71611 0.08016 0.0
H475 H 0.13731 0.75462 0.09781 0.0
H476 H 0.15011 0.79531 0.13145 0.0
H477 H 0.14088 0.80101 0.16219 0.0
H478 H 0.21351 0.84682 0.17945 0.0
H479 H 0.22271 0.84179 0.14851 0.0
H480 H 0.25334 0.86699 0.10924 0.0
H481 H 0.29138 0.89024 0.09808 0.0
H482 H 0.27776 0.82776 0.06249 0.0
H483 H 0.23976 0.80509 0.073 0.0
N484 N 0.20366 0.80067 0.0868 0.0
N485 N 0.17676 0.79307 0.10813 0.0
N486 N 0.21442 0.82622 0.11392 0.0
C487 C 0.18206 0.787 0.09185 0.0
C488 C 0.19281 0.81265 0.11924 0.0
C489 C 0.21989 0.82029 0.09765 0.0
C490 C 0.16515 0.76478 0.08027 0.0
C491 C 0.17161 0.75772 0.06419 0.0
C492 C 0.15661 0.73572 0.05412 0.0
C493 C 0.13476 0.72028 0.05981 0.0
C494 C 0.12785 0.72773 0.0754 0.0
C495 C 0.14291 0.74974 0.08556 0.0
C496 C 0.18717 0.81793 0.13752 0.0
C497 C 0.16412 0.80678 0.14175 0.0
C498 C 0.15883 0.80993 0.15944 0.0
C499 C 0.17645 0.82412 0.1734 0.0
C500 C 0.19947 0.83595 0.16902 0.0
C501 C 0.20476 0.83298 0.15126 0.0
C502 C 0.24343 0.83431 0.09184 0.0
C503 C 0.25856 0.85829 0.09905 0.0
C504 C 0.13392 0.39609 0.08757 0.0
C505 C 0.14313 0.41531 0.07639 0.0
C506 C 0.16605 0.42478 0.07211 0.0
C507 C 0.17939 0.41529 0.07879 0.0
H508 H 0.23654 0.41335 0.06997 0.0
H509 H 0.27327 0.42688 0.05779 0.0
H510 H 0.28961 0.38775 0.09623 0.0
H511 H 0.25268 0.37454 0.10897 0.0
H512 H 0.21593 0.34808 0.13955 0.0
H513 H 0.20956 0.33427 0.17031 0.0
H514 H 0.15253 0.3472 0.17182 0.0
H515 H 0.15839 0.36058 0.14127 0.0
H516 H 0.13982 0.37208 0.10311 0.0
H517 H 0.11623 0.38805 0.0909 0.0
H518 H 0.17393 0.43988 0.06386 0.0
H519 H 0.19705 0.42326 0.07535 0.0
N520 N 0.20496 0.39261 0.09073 0.0
N521 N 0.21345 0.37295 0.11326 0.0
N522 N 0.17926 0.37456 0.1128 0.0
C523 C 0.21928 0.38552 0.09822 0.0
C524 C 0.19337 0.36736 0.1206 0.0
C525 C 0.18493 0.38716 0.09786 0.0
C526 C 0.24153 0.39278 0.09048 0.0
C527 C 0.24779 0.40744 0.07587 0.0
C528 C 0.2689 0.41513 0.06875 0.0
C529 C 0.28434 0.40826 0.07592 0.0
C530 C 0.27815 0.39351 0.0905 0.0
C531 C 0.25694 0.38583 0.09772 0.0
C532 C 0.18789 0.35579 0.13799 0.0
C533 C 0.20177 0.34757 0.14629 0.0
C534 C 0.19809 0.33954 0.16382 0.0
C535 C 0.18068 0.33989 0.17332 0.0
C536 C 0.16613 0.34691 0.16471 0.0
C537 C 0.16956 0.35459 0.1472 0.0
C538 C 0.17029 0.39632 0.09015 0.0
C539 C 0.1474 0.3868 0.09447 0.0
C540 C 0.37618 0.91226 0.23344 0.0
C541 C 0.37286 0.90428 0.25108 0.0
C542 C 0.39163 0.90584 0.26173 0.0
C543 C 0.41298 0.91444 0.25476 0.0
H544 H 0.47235 0.91185 0.26346 0.0
H545 H 0.49808 0.89924 0.27692 0.0
H546 H 0.5367 0.91829 0.2294 0.0
H547 H 0.51147 0.93157 0.21617 0.0
H548 H 0.49977 0.95599 0.18643 0.0
H549 H 0.50888 0.97482 0.15811 0.0
H550 H 0.45037 0.98559 0.15929 0.0
H551 H 0.4407 0.9659 0.18765 0.0
H552 H 0.3995 0.92661 0.21272 0.0
H553 H 0.36204 0.91113 0.2248 0.0
H554 H 0.38988 0.90042 0.27553 0.0
H555 H 0.42696 0.9151 0.26333 0.0
N556 N 0.45369 0.92396 0.23744 0.0
N557 N 0.47865 0.94128 0.21475 0.0
N558 N 0.4436 0.94106 0.21376 0.0
C559 C 0.47378 0.92975 0.23023 0.0
C560 C 0.46377 0.94712 0.20646 0.0
C561 C 0.43849 0.9295 0.22931 0.0
C562 C 0.48979 0.92271 0.23871 0.0
C563 C 0.48637 0.91344 0.25589 0.0
C564 C 0.50105 0.90606 0.26357 0.0
C565 C 0.51941 0.90764 0.25421 0.0
C566 C 0.52294 0.91713 0.23711 0.0
C567 C 0.50837 0.92465 0.22948 0.0
C568 C 0.46945 0.95936 0.18938 0.0
C569 C 0.48882 0.96243 0.18079 0.0
C570 C 0.4942 0.97347 0.16455 0.0
C571 C 0.4805 0.98196 0.15646 0.0
C572 C 0.46118 0.97908 0.16508 0.0
C573 C 0.45569 0.96787 0.18136 0.0
C574 C 0.41619 0.92192 0.23699 0.0
C575 C 0.39765 0.92108 0.22649 0.0
C576 C 0.0747 0.45403 0.25549 0.0
C577 C 0.08136 0.45768 0.27438 0.0
C578 C 0.07898 0.47491 0.28516 0.0
C579 C 0.0708 0.48877 0.27714 0.0
H580 H 0.09775 0.56738 0.2715 0.0
H581 H 0.11234 0.60861 0.28428 0.0
H582 H 0.04847 0.60418 0.26402 0.0
H583 H 0.03491 0.56357 0.24996 0.0
H584 H 0.03758 0.54126 0.20171 0.0
H585 H 0.02485 0.53358 0.16922 0.0
H586 H 0.0083 0.4595 0.17029 0.0
H587 H 0.02134 0.46709 0.20301 0.0
H588 H 0.06158 0.4647 0.23284 0.0
H589 H 0.07618 0.44069 0.24689 0.0
H590 H 0.08411 0.47819 0.29973 0.0
H591 H 0.06962 0.50224 0.2858 0.0
N592 N 0.06314 0.52302 0.25849 0.0
N593 N 0.04641 0.53187 0.2335 0.0
N594 N 0.04645 0.49528 0.2324 0.0
C595 C 0.05754 0.53824 0.25056 0.0
C596 C 0.04082 0.51044 0.22428 0.0
C597 C 0.05745 0.50139 0.24958 0.0
C598 C 0.06526 0.56239 0.25973 0.0
C599 C 0.08684 0.57526 0.2699 0.0
C600 C 0.09512 0.59893 0.27735 0.0
C601 C 0.08171 0.61008 0.27526 0.0
C602 C 0.05968 0.59668 0.26557 0.0
C603 C 0.05172 0.57325 0.25764 0.0
C604 C 0.0307 0.50484 0.20499 0.0
C605 C 0.03101 0.52322 0.19518 0.0
C606 C 0.0238 0.51889 0.17653 0.0
C607 C 0.01579 0.49603 0.16728 0.0
C608 C 0.01438 0.47727 0.17716 0.0
C609 C 0.02194 0.48169 0.19584 0.0
C610 C 0.06456 0.48549 0.25818 0.0
C611 C 0.06622 0.46767 0.24748 0.0
C612 C 0.53285 0.60964 0.24971 0.0
C613 C 0.53031 0.61592 0.26768 0.0
C614 C 0.51308 0.59837 0.27723 0.0
C615 C 0.49813 0.57516 0.26872 0.0
H616 H 0.43818 0.51189 0.27432 0.0
H617 H 0.40192 0.4885 0.28747 0.0
H618 H 0.37023 0.44839 0.23487 0.0
H619 H 0.40688 0.47147 0.22171 0.0
H620 H 0.43951 0.48758 0.18618 0.0
H621 H 0.44705 0.48245 0.15451 0.0
H622 H 0.52016 0.52885 0.16947 0.0
H623 H 0.51263 0.5345 0.20073 0.0
H624 H 0.52037 0.58239 0.22729 0.0
H625 H 0.5462 0.62275 0.24212 0.0
H626 H 0.51071 0.60279 0.29109 0.0
H627 H 0.48468 0.56219 0.2763 0.0
N628 N 0.46362 0.53025 0.24822 0.0
N629 N 0.45108 0.50295 0.22183 0.0
N630 N 0.48708 0.5386 0.22413 0.0
C631 C 0.44735 0.50912 0.23882 0.0
C632 C 0.47112 0.51758 0.21452 0.0
C633 C 0.48349 0.54513 0.24094 0.0
C634 C 0.42545 0.49371 0.24689 0.0
C635 C 0.42354 0.49804 0.26551 0.0
C636 C 0.40266 0.4847 0.27306 0.0
C637 C 0.38304 0.46676 0.26219 0.0
C638 C 0.38505 0.46196 0.24367 0.0
C639 C 0.40605 0.47525 0.23611 0.0
C640 C 0.47543 0.51174 0.1959 0.0
C641 C 0.45719 0.49644 0.1827 0.0
C642 C 0.46152 0.49346 0.16457 0.0
C643 C 0.48419 0.5056 0.15937 0.0
C644 C 0.50245 0.5198 0.17285 0.0
C645 C 0.49812 0.52293 0.19083 0.0
C646 C 0.50031 0.56903 0.25055 0.0
C647 C 0.5181 0.58643 0.24127 0.0
Tb648 Tb 0.52152 0.01721 0.99449 0.0
C649 C 0.51556 0.97169 0.01252 0.0
Tb650 Tb 0.47354 0.981 0.00588 0.0
O651 O 0.53538 0.02714 0.02318 0.0
O652 O 0.50079 0.01582 0.01565 0.0
O653 O 0.52743 0.988 0.00113 0.0
C654 C 0.43701 0.95317 0.02352 0.0
O655 O 0.49539 0.96785 0.01761 0.0
C656 C 0.47934 0.97701 0.97125 0.0
C657 C 0.47943 0.02674 0.98796 0.0
O658 O 0.45249 0.97535 0.02883 0.0
O659 O 0.44213 0.94658 0.0083 0.0
O660 O 0.45955 0.97114 0.97726 0.0
O661 O 0.49413 0.98259 0.98464 0.0
O662 O 0.46651 0.00895 0.99794 0.0
O663 O 0.50056 0.03224 0.98415 0.0
C664 C 0.5585 0.04477 0.97713 0.0
O665 O 0.55534 0.04946 0.99375 0.0
O666 O 0.5407 0.02466 0.97015 0.0
C667 C 0.5156 0.02163 0.02906 0.0
Tb668 Tb 0.97903 0.50505 -8e-05 0.0
C669 C 0.03038 0.54842 0.01043 0.0
Tb670 Tb 0.01994 0.49457 0.00864 0.0
O671 O 0.96401 0.48882 0.02502 0.0
O672 O -0.00075 0.50494 0.02284 0.0
O673 O 0.00961 0.54112 0.00198 0.0
C674 C 0.04765 0.48298 0.02691 0.0
O675 O 0.0371 0.53333 0.0161 0.0
C676 C 0.01424 0.49925 0.9736 0.0
C677 C 0.9695 0.45175 0.99421 0.0
O678 O 0.0537 0.49799 0.01435 0.0
O679 O 0.02603 0.47462 0.02929 0.0
O680 O 0.02954 0.49429 0.98034 0.0
O681 O 0.00361 0.50076 0.98663 0.0
O682 O 0.98982 0.45829 0.00314 0.0
O683 O 0.96273 0.46724 0.98988 0.0
C684 C 0.951 0.5195 0.98606 0.0
O685 O 0.95612 0.50478 0.97756 0.0
O686 O 0.96152 0.52597 0.00248 0.0
C687 C 0.9836 0.49274 0.03275 0.0
Tb688 Tb 0.4742 0.49168 0.00541 0.0
C689 C 0.48543 0.45359 0.98854 0.0
Tb690 Tb 0.5228 0.50966 0.99315 0.0
O691 O 0.45924 0.47958 0.97703 0.0
O692 O 0.4925 0.50907 0.98313 0.0
O693 O 0.47289 0.45741 0.00018 0.0
C694 C 0.55982 0.5213 0.97508 0.0
O695 O 0.50399 0.47152 0.98234 0.0
C696 C 0.51888 0.50554 0.02822 0.0
C697 C 0.5114 0.548 0.00966 0.0
O698 O 0.55467 0.50917 0.98936 0.0
O699 O 0.54411 0.52681 0.97096 0.0
O700 O 0.53764 0.52131 0.02168 0.0
O701 O 0.50441 0.492 0.01524 0.0
O702 O 0.52472 0.54415 0.99889 0.0
O703 O 0.4922 0.53017 0.01521 0.0
C704 C 0.43674 0.47897 0.02313 0.0
O705 O 0.43973 0.48675 0.00701 0.0
O706 O 0.45497 0.47863 0.02941 0.0
C707 C 0.47784 0.49526 0.9703 0.0
Tb708 Tb 0.19223 0.35393 0.33203 0.0
C709 C 0.18204 0.30228 0.34339 0.0
Tb710 Tb 0.14246 0.31471 0.33784 0.0
O711 O 0.19648 0.37325 0.35893 0.0
O712 O 0.1739 0.33631 0.35404 0.0
O713 O 0.19611 0.3223 0.33581 0.0
C714 C 0.102 0.2913 0.35199 0.0
O715 O 0.16128 0.29741 0.34779 0.0
C716 C 0.15495 0.31463 0.30461 0.0
C717 C 0.15263 0.36641 0.32657 0.0
O718 O 0.10856 0.28241 0.33886 0.0
O719 O 0.11815 0.3133 0.35707 0.0
O720 O 0.13864 0.29551 0.31087 0.0
O721 O 0.16078 0.3324 0.31597 0.0
O722 O 0.13851 0.34628 0.334 0.0
O723 O 0.17352 0.3715 0.32239 0.0
C724 C 0.23232 0.37725 0.31736 0.0
O725 O 0.22643 0.38582 0.33117 0.0
O726 O 0.2157 0.3556 0.31189 0.0
C727 C 0.18012 0.35429 0.36532 0.0
Tb728 Tb 0.65024 0.84091 0.32861 0.0
C729 C 0.69917 0.88029 0.34636 0.0
Tb730 Tb 0.6852 0.82493 0.34006 0.0
O731 O 0.64704 0.84996 0.35712 0.0
O732 O 0.6562 0.82403 0.35046 0.0
O733 O 0.68083 0.87612 0.33555 0.0
C734 C 0.71372 0.81302 0.35685 0.0
O735 O 0.70296 0.86282 0.35125 0.0
C736 C 0.68031 0.82926 0.30514 0.0
C737 C 0.6363 0.7857 0.32256 0.0
O738 O 0.71834 0.82616 0.34315 0.0
O739 O 0.69313 0.80673 0.36119 0.0
O740 O 0.68617 0.81438 0.31144 0.0
O741 O 0.67952 0.84214 0.31828 0.0
O742 O 0.65418 0.78994 0.33396 0.0
O743 O 0.63309 0.80324 0.31692 0.0
C744 C 0.62134 0.85144 0.31071 0.0
O745 O 0.61617 0.83719 0.32372 0.0
O746 O 0.64274 0.8597 0.30773 0.0
C747 C 0.65451 0.8364 0.36351 0.0
Tb748 Tb 0.14138 0.82565 0.33986 0.0
C749 C 0.14646 0.78365 0.32133 0.0
Tb750 Tb 0.1889 0.83779 0.32739 0.0
O751 O 0.12609 0.81688 0.31147 0.0
O752 O 0.16106 0.84216 0.31805 0.0
O753 O 0.13395 0.78933 0.33169 0.0
C754 C 0.2243 0.84636 0.30812 0.0
O755 O 0.1673 0.7997 0.31693 0.0
C756 C 0.18432 0.83307 0.36227 0.0
C757 C 0.18366 0.8799 0.3454 0.0
O758 O 0.21985 0.83558 0.32308 0.0
O759 O 0.20879 0.85215 0.30402 0.0
O760 O 0.20393 0.84702 0.3559 0.0
O761 O 0.16919 0.82127 0.34917 0.0
O762 O 0.19567 0.8741 0.33455 0.0
O763 O 0.16331 0.86366 0.35053 0.0
C764 C 0.10651 0.81735 0.35966 0.0
O765 O 0.11147 0.82934 0.34529 0.0
O766 O 0.12114 0.81012 0.36283 0.0
C767 C 0.14574 0.8305 0.30503 0.0
Tb768 Tb 0.85836 0.68525 0.66258 0.0
C769 C 0.85264 0.64111 0.68271 0.0
Tb770 Tb 0.8108 0.65077 0.67587 0.0
O771 O 0.874 0.69703 0.69085 0.0
O772 O 0.8392 0.68538 0.68446 0.0
O773 O 0.86456 0.65692 0.67102 0.0
C774 C 0.77478 0.6243 0.6945 0.0
O775 O 0.83268 0.63781 0.68791 0.0
C776 C 0.81468 0.64459 0.64101 0.0
C777 C 0.81645 0.69486 0.65586 0.0
O778 O 0.78127 0.61604 0.68094 0.0
O779 O 0.78858 0.64742 0.69758 0.0
O780 O 0.79535 0.63957 0.64753 0.0
O781 O 0.82997 0.65066 0.65406 0.0
O782 O 0.8049 0.67945 0.6679 0.0
O783 O 0.83624 0.69792 0.6504 0.0
C784 C 0.89416 0.71071 0.64345 0.0
O785 O 0.88806 0.71954 0.65694 0.0
O786 O 0.88004 0.68761 0.64069 0.0
C787 C 0.85464 0.69173 0.69745 0.0
Tb788 Tb 0.31211 0.17189 0.66249 0.0
C789 C 0.36384 0.21414 0.67443 0.0
Tb790 Tb 0.3505 0.15987 0.66913 0.0
O791 O 0.29778 0.15688 0.68794 0.0
O792 O 0.33306 0.17256 0.6852 0.0
O793 O 0.34322 0.20786 0.66628 0.0
C794 C 0.37624 0.14256 0.68294 0.0
O795 O 0.3694 0.19789 0.67925 0.0
C796 C 0.34469 0.17016 0.63595 0.0
C797 C 0.29841 0.11742 0.65738 0.0
O798 O 0.38079 0.15549 0.66912 0.0
O799 O 0.35726 0.13945 0.68902 0.0
O800 O 0.36429 0.17361 0.64316 0.0
O801 O 0.32948 0.15898 0.6465 0.0
O802 O 0.31953 0.12367 0.66448 0.0
O803 O 0.29229 0.13358 0.65357 0.0
C804 C 0.28688 0.18941 0.64802 0.0
O805 O 0.28694 0.18393 0.66477 0.0
O806 O 0.30083 0.18484 0.63944 0.0
C807 C 0.3175 0.16082 0.6954 0.0
Tb808 Tb 0.81004 0.161 0.6752 0.0
C809 C 0.81686 0.11922 0.65831 0.0
Tb810 Tb 0.85799 0.17415 0.66402 0.0
O811 O 0.7961 0.1528 0.64648 0.0
O812 O 0.8306 0.17884 0.65401 0.0
O813 O 0.80359 0.12484 0.66773 0.0
C814 C 0.89497 0.18319 0.64665 0.0
O815 O 0.83793 0.13557 0.65453 0.0
C816 C 0.85228 0.1681 0.69867 0.0
C817 C 0.85117 0.21529 0.68125 0.0
O818 O 0.87533 0.17879 0.63884 0.0
O819 O 0.89367 0.18224 0.66414 0.0
O820 O 0.87198 0.18253 0.69272 0.0
O821 O 0.83755 0.15649 0.68527 0.0
O822 O 0.86261 0.21004 0.66938 0.0
O823 O 0.83171 0.1984 0.68714 0.0
C824 C 0.77371 0.15219 0.69339 0.0
O825 O 0.77946 0.16419 0.67905 0.0
O826 O 0.78839 0.14529 0.69742 0.0
C827 C 0.81588 0.16727 0.6406 0.0
H828 H 0.32918 0.89545 0.09743 0.0
H829 H 0.39998 0.90983 0.01049 0.0
H830 H 0.29778 0.85884 0.0438 0.0
H831 H 0.42622 0.96357 0.05681 0.0
H832 H 0.36388 0.88713 0.02459 0.0
H833 H 0.36632 0.91767 0.08453 0.0
C834 C 0.33001 0.89214 0.08296 0.0
C835 C 0.31027 0.87507 0.07173 0.0
C836 C 0.37756 0.90386 0.0317 0.0
C837 C 0.35275 0.90006 0.05704 0.0
C838 C 0.39816 0.91672 0.02371 0.0
C839 C 0.41594 0.93858 0.0325 0.0
C840 C 0.37484 0.91283 0.04868 0.0
C841 C 0.41279 0.94679 0.04959 0.0
C842 C 0.35124 0.90473 0.07565 0.0
C843 C 0.31255 0.87135 0.05311 0.0
N844 N 0.39257 0.93388 0.05717 0.0
N845 N 0.33338 0.88364 0.0464 0.0
H846 H 0.14317 0.43242 0.04291 0.0
H847 H 0.03907 0.45579 0.05592 0.0
H848 H 0.11086 0.42173 0.09355 0.0
H849 H 0.0894 0.49121 0.0175 0.0
H850 H 0.06268 0.43975 0.06867 0.0
H851 H 0.12091 0.45046 0.03187 0.0
C852 C 0.13155 0.43399 0.0518 0.0
C853 C 0.12906 0.42562 0.06928 0.0
C854 C 0.0686 0.45118 0.05754 0.0
C855 C 0.1031 0.44584 0.05646 0.0
C856 C 0.05517 0.46029 0.05028 0.0
C857 C 0.06237 0.47475 0.03566 0.0
C858 C 0.0891 0.45629 0.04989 0.0
C859 C 0.0833 0.48012 0.0288 0.0
C860 C 0.11877 0.44423 0.04543 0.0
C861 C 0.11318 0.4276 0.0799 0.0
N862 N 0.09585 0.47069 0.03587 0.0
N863 N 0.10074 0.43744 0.0733 0.0
H864 H 0.57984 0.70421 0.02629 0.0
H865 H 0.49543 0.56403 0.03751 0.0
H866 H 0.54424 0.67782 0.07444 0.0
H867 H 0.54401 0.58946 0.99652 0.0
H868 H 0.50928 0.60593 0.04895 0.0
H869 H 0.56296 0.66239 0.01289 0.0
C870 C 0.56835 0.68961 0.03397 0.0
C871 C 0.56355 0.69442 0.05154 0.0
C872 C 0.51683 0.60231 0.03741 0.0
C873 C 0.54422 0.6467 0.03636 0.0
C874 C 0.50887 0.5784 0.03081 0.0
C875 C 0.51863 0.57322 0.01608 0.0
C876 C 0.53456 0.62118 0.02912 0.0
C877 C 0.53608 0.5926 0.00799 0.0
C878 C 0.55883 0.66579 0.02637 0.0
C879 C 0.54866 0.67486 0.06096 0.0
N880 N 0.5435 0.61573 0.01463 0.0
N881 N 0.53952 0.65187 0.05326 0.0
H882 H 0.85108 0.31465 0.95313 0.0
H883 H 0.97929 0.41496 0.99249 0.0
H884 H 0.90935 0.30384 0.95047 0.0
H885 H 0.92372 0.42956 0.98224 0.0
H886 H 0.95313 0.37271 0.98092 0.0
H887 H 0.87676 0.35535 0.96776 0.0
C888 C 0.86927 0.32077 0.9558 0.0
C889 C 0.8781 0.30584 0.95057 0.0
C890 C 0.9467 0.38519 0.98127 0.0
C891 C 0.90766 0.35253 0.96717 0.0
C892 C 0.96158 0.40928 0.98794 0.0
C893 C 0.95372 0.42588 0.98825 0.0
C894 C 0.92377 0.37763 0.97505 0.0
C895 C 0.9306 0.41749 0.98213 0.0
C896 C 0.88394 0.34406 0.96403 0.0
C897 C 0.90188 0.31486 0.95412 0.0
N898 N 0.91647 0.39397 0.97579 0.0
N899 N 0.91586 0.33764 0.96221 0.0
H900 H 0.69022 0.54449 0.94234 0.0
H901 H 0.57431 0.55023 0.94709 0.0
H902 H 0.67849 0.59618 0.91552 0.0
H903 H 0.59307 0.50954 0.98188 0.0
H904 H 0.61045 0.56417 0.93276 0.0
H905 H 0.6528 0.52856 0.95448 0.0
C906 C 0.67984 0.55261 0.93908 0.0
C907 C 0.68769 0.57194 0.92805 0.0
C908 C 0.60663 0.55214 0.94349 0.0
C909 C 0.64451 0.5534 0.9417 0.0
C910 C 0.58602 0.54416 0.95162 0.0
C911 C 0.58086 0.52883 0.9657 0.0
C912 C 0.62205 0.5446 0.94945 0.0
C913 C 0.5965 0.52143 0.97109 0.0
C914 C 0.65839 0.54338 0.94594 0.0
C915 C 0.67313 0.58121 0.92388 0.0
N916 N 0.61642 0.52941 0.96297 0.0
N917 N 0.65227 0.57191 0.93076 0.0
H918 H 0.44656 0.13768 0.96866 0.0
H919 H 0.43529 0.01045 0.97411 0.0
H920 H 0.40809 0.08137 0.92462 0.0
H921 H 0.50165 0.07532 0.98532 0.0
H922 H 0.41946 0.03457 0.9617 0.0
H923 H 0.46167 0.11323 0.98087 0.0
C924 C 0.4413 0.12032 0.96143 0.0
C925 C 0.42617 0.11189 0.94531 0.0
C926 C 0.43746 0.04342 0.96693 0.0
C927 C 0.44275 0.08346 0.9599 0.0
C928 C 0.44644 0.02979 0.97406 0.0
C929 C 0.46975 0.04104 0.98071 0.0
C930 C 0.45177 0.06848 0.96701 0.0
C931 C 0.4836 0.06606 0.98023 0.0
C932 C 0.44986 0.10635 0.96856 0.0
C933 C 0.41942 0.08868 0.93715 0.0
N934 N 0.47432 0.07906 0.97368 0.0
N935 N 0.42767 0.07522 0.94459 0.0
H936 H 0.70176 0.13275 0.96142 0.0
H937 H 0.56714 0.03803 0.94194 0.0
H938 H 0.66858 0.10641 0.9065 0.0
H939 H 0.59875 0.08276 0.99277 0.0
H940 H 0.60426 0.05991 0.92873 0.0
H941 H 0.66429 0.11104 0.97335 0.0
C942 C 0.68658 0.12251 0.95183 0.0
C943 C 0.68836 0.12171 0.93288 0.0
C944 C 0.60299 0.06499 0.94273 0.0
C945 C 0.64527 0.09637 0.94657 0.0
C946 C 0.58187 0.05256 0.95025 0.0
C947 C 0.58 0.05866 0.96844 0.0
C948 C 0.6223 0.08336 0.95362 0.0
C949 C 0.5995 0.07753 0.97868 0.0
C950 C 0.66517 0.11004 0.95868 0.0
C951 C 0.66808 0.10747 0.9212 0.0
N952 N 0.61987 0.0891 0.97116 0.0
N953 N 0.64733 0.09536 0.92824 0.0
H954 H 0.87282 0.59123 0.9661 0.0
H955 H 0.93106 0.5097 0.95112 0.0
H956 H 0.87257 0.55753 0.91357 0.0
H957 H 0.93831 0.54973 0.00252 0.0
H958 H 0.90803 0.52566 0.93748 0.0
H959 H 0.89539 0.5749 0.98009 0.0
C960 C 0.87748 0.58036 0.95752 0.0
C961 C 0.87085 0.57577 0.93863 0.0
C962 C 0.91462 0.53096 0.95175 0.0
C963 C 0.89668 0.55708 0.95452 0.0
C964 C 0.9277 0.52179 0.95954 0.0
C965 C 0.93652 0.52844 0.97794 0.0
C966 C 0.91029 0.54682 0.96247 0.0
C967 C 0.93176 0.54419 0.98826 0.0
C968 C 0.89044 0.57113 0.96549 0.0
C969 C 0.87757 0.56179 0.92814 0.0
N970 N 0.91894 0.55287 0.98038 0.0
N971 N 0.89005 0.55289 0.93623 0.0
H972 H 0.4546 0.32509 0.92068 0.0
H973 H 0.45391 0.41205 0.00223 0.0
H974 H 0.42022 0.29915 0.96942 0.0
H975 H 0.49969 0.43781 0.95933 0.0
H976 H 0.44036 0.37058 0.98993 0.0
H977 H 0.47014 0.3666 0.93404 0.0
C978 C 0.45029 0.32816 0.93419 0.0
C979 C 0.43604 0.30869 0.94395 0.0
C980 C 0.45347 0.3853 0.98328 0.0
C981 C 0.45382 0.35608 0.95933 0.0
C982 C 0.46119 0.409 0.99026 0.0
C983 C 0.47796 0.42844 0.98179 0.0
C984 C 0.46239 0.38099 0.96758 0.0
C985 C 0.48681 0.42338 0.96635 0.0
C986 C 0.45928 0.35184 0.94185 0.0
C987 C 0.43127 0.31366 0.96149 0.0
N988 N 0.47881 0.40014 0.95968 0.0
N989 N 0.44003 0.33688 0.96859 0.0
H990 H 0.14761 0.68802 0.04809 0.0
H991 H 0.02034 0.58487 0.0094 0.0
H992 H 0.08815 0.69693 0.04984 0.0
H993 H 0.07644 0.57167 0.02184 0.0
H994 H 0.04614 0.62765 0.01944 0.0
H995 H 0.12278 0.64701 0.03368 0.0
C996 C 0.12935 0.68143 0.04523 0.0
C997 C 0.1199 0.69588 0.05018 0.0
C998 C 0.05279 0.61538 0.01986 0.0
C999 C 0.09137 0.64887 0.03384 0.0
C1000 C 0.03812 0.59098 0.01405 0.0
C1001 C 0.0462 0.57461 0.0149 0.0
C1002 C 0.07572 0.6235 0.02639 0.0
C1003 C 0.0694 0.58358 0.0211 0.0
C1004 C 0.11517 0.65796 0.03713 0.0
C1005 C 0.09607 0.68628 0.0464 0.0
N1006 N 0.08333 0.60741 0.02664 0.0
N1007 N 0.08259 0.66333 0.03846 0.0
H1008 H 0.29308 0.41228 0.03996 0.0
H1009 H 0.42858 0.46396 0.0575 0.0
H1010 H 0.32696 0.42391 0.09421 0.0
H1011 H 0.39571 0.47207 0.00851 0.0
H1012 H 0.39139 0.44569 0.07083 0.0
H1013 H 0.33044 0.42987 0.02761 0.0
C1014 C 0.30839 0.41859 0.0493 0.0
C1015 C 0.30686 0.4169 0.0682 0.0
C1016 C 0.39239 0.45159 0.05721 0.0
C1017 C 0.3498 0.43684 0.05406 0.0
C1018 C 0.41355 0.46201 0.04962 0.0
C1019 C 0.41509 0.46949 0.03192 0.0
C1020 C 0.37272 0.44841 0.04686 0.0
C1021 C 0.39521 0.46657 0.02223 0.0
C1022 C 0.32973 0.42859 0.04222 0.0
C1023 C 0.32729 0.42475 0.07955 0.0
N1024 N 0.37481 0.45612 0.02979 0.0
N1025 N 0.34796 0.43447 0.07231 0.0
H1026 H 0.59132 0.89712 0.0328 0.0
H1027 H 0.50135 0.94343 0.04099 0.0
H1028 H 0.55225 0.88837 0.07938 0.0
H1029 H 0.55194 0.96752 0.0015 0.0
H1030 H 0.5179 0.92054 0.05379 0.0
H1031 H 0.5753 0.92057 0.01972 0.0
C1032 C 0.57938 0.90015 0.04026 0.0
C1033 C 0.57313 0.89085 0.05721 0.0
C1034 C 0.5254 0.93084 0.04233 0.0
C1035 C 0.55472 0.91751 0.04235 0.0
C1036 C 0.51588 0.94384 0.03494 0.0
C1037 C 0.52524 0.9574 0.02011 0.0
C1038 C 0.54431 0.9312 0.03477 0.0
C1039 C 0.54419 0.95735 0.01295 0.0
C1040 C 0.57033 0.9136 0.03284 0.0
C1041 C 0.55773 0.89545 0.06638 0.0
N1042 N 0.55306 0.94438 0.02031 0.0
N1043 N 0.54897 0.90835 0.05879 0.0
H1044 H 0.96918 0.18339 0.38215 0.0
H1045 H 0.0865 0.30883 0.37897 0.0
H1046 H 0.98396 0.24963 0.41285 0.0
H1047 H 0.06731 0.24469 0.34345 0.0
H1048 H 0.04973 0.28722 0.39244 0.0
H1049 H 0.00562 0.20531 0.36863 0.0
C1050 C 0.97998 0.2026 0.38595 0.0
C1051 C 0.97334 0.21468 0.39859 0.0
C1052 C 0.05352 0.27787 0.38168 0.0
C1053 C 0.01546 0.23989 0.38332 0.0
C1054 C 0.07449 0.29019 0.374 0.0
C1055 C 0.07985 0.27848 0.36008 0.0
C1056 C 0.03786 0.25364 0.37542 0.0
C1057 C 0.06378 0.25434 0.35415 0.0
C1058 C 0.0009 0.21509 0.37829 0.0
C1059 C 0.98841 0.2395 0.4033 0.0
N1060 N 0.04351 0.24269 0.36188 0.0
N1061 N 0.00875 0.25127 0.39566 0.0
H1062 H 0.77832 0.75562 0.4272 0.0
H1063 H 0.75344 0.81807 0.34495 0.0
H1064 H 0.80829 0.76246 0.37571 0.0
H1065 H 0.70781 0.78929 0.38755 0.0
H1066 H 0.77696 0.80225 0.35803 0.0
H1067 H 0.75482 0.77155 0.41453 0.0
C1068 C 0.77983 0.76022 0.41319 0.0
C1069 C 0.79538 0.75767 0.40253 0.0
C1070 C 0.76182 0.79942 0.36452 0.0
C1071 C 0.76891 0.7765 0.38814 0.0
C1072 C 0.74849 0.80854 0.35713 0.0
C1073 C 0.72871 0.80487 0.3652 0.0
C1074 C 0.75539 0.78679 0.38019 0.0
C1075 C 0.72295 0.7924 0.38093 0.0
C1076 C 0.76651 0.76948 0.40602 0.0
C1077 C 0.79688 0.76447 0.38457 0.0
N1078 N 0.73628 0.78381 0.38796 0.0
N1079 N 0.7839 0.77367 0.37798 0.0
H1080 H 0.20269 0.01958 0.38261 0.0
H1081 H 0.2279 0.91693 0.34449 0.0
H1082 H 0.27127 0.03012 0.382 0.0
H1083 H 0.16152 0.90152 0.36101 0.0
H1084 H 0.24358 0.95944 0.35496 0.0
H1085 H 0.18674 0.97719 0.37119 0.0
C1086 C 0.21438 0.01299 0.37991 0.0
C1087 C 0.23832 0.02832 0.38324 0.0
C1088 C 0.22559 0.94674 0.35631 0.0
C1089 C 0.22025 0.97995 0.37029 0.0
C1090 C 0.21659 0.92247 0.35029 0.0
C1091 C 0.19334 0.90562 0.35187 0.0
C1092 C 0.2112 0.9543 0.36378 0.0
C1093 C 0.17956 0.91386 0.35958 0.0
C1094 C 0.20528 0.98879 0.37354 0.0
C1095 C 0.2527 0.01882 0.37974 0.0
N1096 N 0.18868 0.93766 0.36518 0.0
N1097 N 0.24344 0.99525 0.3734 0.0
H1098 H 0.54105 0.65773 0.25249 0.0
H1099 H 0.63109 0.74422 0.33556 0.0
H1100 H 0.55321 0.63104 0.30205 0.0
H1101 H 0.60392 0.76974 0.29315 0.0
H1102 H 0.60453 0.70269 0.32272 0.0
H1103 H 0.5661 0.69907 0.26632 0.0
C1104 C 0.54908 0.66061 0.26628 0.0
C1105 C 0.54517 0.64098 0.27613 0.0
C1106 C 0.60431 0.71739 0.3163 0.0
C1107 C 0.57377 0.68819 0.29205 0.0
C1108 C 0.6195 0.7411 0.32358 0.0
C1109 C 0.61972 0.76049 0.31541 0.0
C1110 C 0.58944 0.71305 0.30061 0.0
C1111 C 0.60427 0.75535 0.29995 0.0
C1112 C 0.56324 0.68419 0.2742 0.0
C1113 C 0.55571 0.6457 0.29404 0.0
N1114 N 0.58986 0.73213 0.29298 0.0
N1115 N 0.56968 0.66886 0.3014 0.0
H1116 H 0.35222 0.86597 0.27184 0.0
H1117 H 0.23748 0.87325 0.27901 0.0
H1118 H 0.34096 0.91904 0.24677 0.0
H1119 H 0.25747 0.83432 0.31471 0.0
H1120 H 0.27288 0.88615 0.26386 0.0
H1121 H 0.31522 0.8504 0.28471 0.0
C1122 C 0.34205 0.87446 0.2691 0.0
C1123 C 0.3499 0.89406 0.25834 0.0
C1124 C 0.26948 0.87472 0.27497 0.0
C1125 C 0.30722 0.87593 0.27278 0.0
C1126 C 0.24929 0.86731 0.28356 0.0
C1127 C 0.24472 0.85283 0.29816 0.0
C1128 C 0.28508 0.86744 0.28095 0.0
C1129 C 0.26047 0.84556 0.30354 0.0
C1130 C 0.32084 0.86544 0.27637 0.0
C1131 C 0.33559 0.90382 0.25486 0.0
N1132 N 0.28 0.85298 0.29494 0.0
N1133 N 0.31497 0.89468 0.2621 0.0
H1134 H 0.07107 0.43479 0.30586 0.0
H1135 H 0.17075 0.4015 0.30292 0.0
H1136 H 0.11527 0.45054 0.26199 0.0
H1137 H 0.1136 0.36633 0.33593 0.0
H1138 H 0.1537 0.42431 0.29077 0.0
H1139 H 0.08926 0.41377 0.31977 0.0
C1140 C 0.08461 0.43382 0.29918 0.0
C1141 C 0.09163 0.44429 0.28272 0.0
C1142 C 0.14494 0.41166 0.30072 0.0
C1143 C 0.11258 0.42056 0.29858 0.0
C1144 C 0.15473 0.39873 0.30778 0.0
C1145 C 0.14353 0.38188 0.32042 0.0
C1146 C 0.12391 0.40792 0.30648 0.0
C1147 C 0.12276 0.37903 0.32613 0.0
C1148 C 0.09492 0.42179 0.30708 0.0
C1149 C 0.10917 0.44244 0.27457 0.0
N1150 N 0.1136 0.39192 0.3191 0.0
N1151 N 0.11912 0.4309 0.28263 0.0
H1152 H 0.36485 0.48496 0.28664 0.0
H1153 H 0.24686 0.36011 0.28939 0.0
H1154 H 0.34973 0.41867 0.25583 0.0
H1155 H 0.26756 0.42345 0.32637 0.0
H1156 H 0.28344 0.38172 0.27562 0.0
H1157 H 0.32834 0.46318 0.3001 0.0
C1158 C 0.35395 0.46577 0.28279 0.0
C1159 C 0.36054 0.45362 0.27016 0.0
C1160 C 0.28001 0.39089 0.28677 0.0
C1161 C 0.31836 0.42859 0.28536 0.0
C1162 C 0.25915 0.37858 0.2946 0.0
C1163 C 0.25429 0.39006 0.30903 0.0
C1164 C 0.29603 0.41489 0.29336 0.0
C1165 C 0.27071 0.41397 0.31528 0.0
C1166 C 0.33301 0.45336 0.29042 0.0
C1167 C 0.34533 0.42885 0.26537 0.0
N1168 N 0.29084 0.42562 0.30738 0.0
N1169 N 0.32496 0.41715 0.27299 0.0
H1170 H 0.56625 0.92806 0.25335 0.0
H1171 H 0.57585 0.83404 0.31497 0.0
H1172 H 0.50732 0.86786 0.27309 0.0
H1173 H 0.63161 0.88464 0.28589 0.0
H1174 H 0.5507 0.8472 0.30075 0.0
H1175 H 0.59083 0.91349 0.26618 0.0
C1176 C 0.55843 0.9117 0.26028 0.0
C1177 C 0.53464 0.89918 0.26213 0.0
C1178 C 0.5684 0.85535 0.2974 0.0
C1179 C 0.56278 0.8826 0.27708 0.0
C1180 C 0.58273 0.84786 0.30551 0.0
C1181 C 0.60577 0.85834 0.30158 0.0
C1182 C 0.57728 0.8736 0.28541 0.0
C1183 C 0.6139 0.87614 0.28926 0.0
C1184 C 0.57251 0.90345 0.26767 0.0
C1185 C 0.5256 0.87833 0.27157 0.0
N1186 N 0.59969 0.88332 0.28167 0.0
N1187 N 0.53968 0.87073 0.27871 0.0
H1188 H 0.11228 0.63513 0.30579 0.0
H1189 H 0.10194 0.75161 0.30874 0.0
H1190 H 0.07242 0.64409 0.26186 0.0
H1191 H 0.16876 0.75806 0.31837 0.0
H1192 H 0.08577 0.70898 0.29741 0.0
H1193 H 0.12861 0.67764 0.31655 0.0
C1194 C 0.10696 0.64585 0.29829 0.0
C1195 C 0.09093 0.6357 0.2827 0.0
C1196 C 0.10395 0.71981 0.30203 0.0
C1197 C 0.10897 0.68417 0.29561 0.0
C1198 C 0.11313 0.74397 0.30853 0.0
C1199 C 0.13666 0.7582 0.31442 0.0
C1200 C 0.11829 0.70976 0.30201 0.0
C1201 C 0.15054 0.74762 0.31381 0.0
C1202 C 0.11623 0.6701 0.30458 0.0
C1203 C 0.08429 0.65068 0.27409 0.0
N1204 N 0.14108 0.72385 0.30791 0.0
N1205 N 0.0932 0.67409 0.28075 0.0
H1206 H 0.79797 0.00665 0.4163 0.0
H1207 H 0.70304 0.92212 0.33507 0.0
H1208 H 0.78175 0.03485 0.36934 0.0
H1209 H 0.73319 0.89577 0.37444 0.0
H1210 H 0.73001 0.96344 0.34821 0.0
H1211 H 0.7724 0.96566 0.40203 0.0
C1212 C 0.78894 0.00417 0.40299 0.0
C1213 C 0.79187 0.02413 0.39401 0.0
C1214 C 0.73078 0.9486 0.35389 0.0
C1215 C 0.76263 0.9773 0.37756 0.0
C1216 C 0.71535 0.92501 0.34644 0.0
C1217 C 0.71585 0.90544 0.35367 0.0
C1218 C 0.74661 0.95262 0.36881 0.0
C1219 C 0.73223 0.91028 0.36837 0.0
C1220 C 0.77448 0.9808 0.3948 0.0
C1221 C 0.78004 0.01993 0.37666 0.0
N1222 N 0.74685 0.93337 0.37552 0.0
N1223 N 0.7658 0.99694 0.36904 0.0
H1224 H 0.99155 0.74411 0.42396 0.0
H1225 H 0.07521 0.83235 0.35508 0.0
H1226 H 0.982 0.79894 0.40013 0.0
H1227 H 0.09254 0.78882 0.3878 0.0
H1228 H 0.04079 0.82018 0.37141 0.0
H1229 H 0.02867 0.76022 0.41106 0.0
C1230 C 0.99734 0.75969 0.4162 0.0
C1231 C 0.98349 0.77002 0.41299 0.0
C1232 C 0.0522 0.81342 0.37512 0.0
C1233 C 0.0258 0.7883 0.39794 0.0
C1234 C 0.07179 0.82034 0.36579 0.0
C1235 C 0.08656 0.81144 0.37008 0.0
C1236 C 0.04728 0.79732 0.38869 0.0
C1237 C 0.08147 0.79598 0.38407 0.0
C1238 C 0.0185 0.76881 0.40875 0.0
C1239 C 0.99182 0.79002 0.40262 0.0
N1240 N 0.06213 0.78924 0.3928 0.0
N1241 N 0.01233 0.79839 0.39537 0.0
H1242 H 0.26155 0.2311 0.362 0.0
H1243 H 0.16351 0.26664 0.36653 0.0
H1244 H 0.21708 0.21478 0.40573 0.0
H1245 H 0.22093 0.30217 0.33384 0.0
H1246 H 0.17989 0.2429 0.37794 0.0
H1247 H 0.24404 0.25312 0.34865 0.0
C1248 C 0.24808 0.23214 0.36875 0.0
C1249 C 0.24082 0.22126 0.38503 0.0
C1250 C 0.18887 0.25585 0.36823 0.0
C1251 C 0.22067 0.24611 0.36982 0.0
C1252 C 0.17946 0.26933 0.36161 0.0
C1253 C 0.19093 0.28653 0.34927 0.0
C1254 C 0.20978 0.25939 0.36235 0.0
C1255 C 0.21159 0.28922 0.34343 0.0
C1256 C 0.23818 0.24474 0.36118 0.0
C1257 C 0.22339 0.2232 0.39329 0.0
N1258 N 0.22038 0.27579 0.35004 0.0
N1259 N 0.21385 0.2353 0.38556 0.0
H1260 H 0.64605 0.51062 0.726 0.0
H1261 H 0.75814 0.64036 0.72159 0.0
H1262 H 0.65454 0.57655 0.75269 0.0
H1263 H 0.74448 0.5759 0.68896 0.0
H1264 H 0.72225 0.61666 0.73582 0.0
H1265 H 0.68398 0.53369 0.71487 0.0
C1266 C 0.65587 0.52997 0.72949 0.0
C1267 C 0.64695 0.54169 0.74014 0.0
C1268 C 0.72715 0.60768 0.72561 0.0
C1269 C 0.69062 0.56822 0.7276 0.0
C1270 C 0.74762 0.62117 0.71752 0.0
C1271 C 0.7541 0.61002 0.70403 0.0
C1272 C 0.71316 0.58287 0.72017 0.0
C1273 C 0.73999 0.58515 0.69926 0.0
C1274 C 0.6776 0.54312 0.7232 0.0
C1275 C 0.66074 0.56673 0.7446 0.0
N1276 N 0.72012 0.57241 0.70729 0.0
N1277 N 0.68185 0.57918 0.73823 0.0
H1278 H 0.42505 0.05923 0.739 0.0
H1279 H 0.41816 0.15129 0.67338 0.0
H1280 H 0.48401 0.11404 0.71506 0.0
H1281 H 0.36587 0.11124 0.70926 0.0
H1282 H 0.44109 0.13447 0.68589 0.0
H1283 H 0.40157 0.07482 0.72561 0.0
C1284 C 0.4331 0.07455 0.73097 0.0
C1285 C 0.45662 0.08534 0.72822 0.0
C1286 C 0.42461 0.12938 0.69104 0.0
C1287 C 0.4297 0.10302 0.71264 0.0
C1288 C 0.41154 0.13893 0.6839 0.0
C1289 C 0.3902 0.13264 0.69037 0.0
C1290 C 0.41613 0.11325 0.70462 0.0
C1291 C 0.38232 0.11656 0.70397 0.0
C1292 C 0.41965 0.08337 0.72328 0.0
C1293 C 0.46592 0.10485 0.71735 0.0
N1294 N 0.39528 0.10735 0.71063 0.0
N1295 N 0.45245 0.11305 0.70998 0.0
H1296 H 0.88507 0.34544 0.74801 0.0
H1297 H 0.88533 0.25603 0.66824 0.0
H1298 H 0.91957 0.37048 0.69919 0.0
H1299 H 0.83774 0.23262 0.71001 0.0
H1300 H 0.90026 0.298 0.68028 0.0
H1301 H 0.86979 0.3038 0.73525 0.0
C1302 C 0.88949 0.34213 0.73461 0.0
C1303 C 0.90368 0.3614 0.72466 0.0
C1304 C 0.88649 0.28365 0.68674 0.0
C1305 C 0.88618 0.31379 0.70993 0.0
C1306 C 0.87801 0.25969 0.67993 0.0
C1307 C 0.86023 0.24077 0.68812 0.0
C1308 C 0.87731 0.28868 0.70198 0.0
C1309 C 0.85137 0.2466 0.7032 0.0
C1310 C 0.88065 0.31838 0.72729 0.0
C1311 C 0.90858 0.35611 0.70725 0.0
N1312 N 0.86008 0.27002 0.70969 0.0
N1313 N 0.89995 0.33277 0.70046 0.0
H1314 H 0.22319 0.9603 0.63921 0.0
H1315 H 0.25906 0.09852 0.63424 0.0
H1316 H 0.20421 0.9872 0.59281 0.0
H1317 H 0.30016 0.07764 0.66733 0.0
H1318 H 0.23355 0.05628 0.62293 0.0
H1319 H 0.24677 0.00206 0.65346 0.0
C1320 C 0.22395 0.97501 0.6321 0.0
C1321 C 0.21197 0.97046 0.61479 0.0
C1322 C 0.2481 0.06094 0.63273 0.0
C1323 C 0.23839 0.01781 0.63097 0.0
C1324 C 0.26261 0.08504 0.63929 0.0
C1325 C 0.28188 0.09166 0.65167 0.0
C1326 C 0.25267 0.04323 0.63873 0.0
C1327 C 0.2856 0.07335 0.65767 0.0
C1328 C 0.2374 0.99873 0.64017 0.0
C1329 C 0.21345 0.99003 0.60608 0.0
N1330 N 0.27111 0.0499 0.65113 0.0
N1331 N 0.22634 0.01284 0.61429 0.0
H1332 H 0.03723 0.24294 0.62684 0.0
H1333 H 0.90092 0.18846 0.61027 0.0
H1334 H 0.0016 0.22832 0.57294 0.0
H1335 H 0.93706 0.19485 0.66245 0.0
H1336 H 0.93731 0.20346 0.59605 0.0
H1337 H 0.00042 0.22618 0.63996 0.0
C1338 C 0.02162 0.23605 0.61773 0.0
C1339 C 0.02252 0.23687 0.59873 0.0
C1340 C 0.93723 0.20144 0.61058 0.0
C1341 C 0.98016 0.21788 0.61375 0.0
C1342 C 0.9165 0.19285 0.61867 0.0
C1343 C 0.91612 0.19049 0.63753 0.0
C1344 C 0.9576 0.20777 0.62151 0.0
C1345 C 0.93667 0.19645 0.64786 0.0
C1346 C 0.00058 0.22656 0.62525 0.0
C1347 C 0.00174 0.22821 0.58767 0.0
N1348 N 0.9566 0.20491 0.63973 0.0
N1349 N 0.98138 0.21904 0.59534 0.0
H1350 H 0.78117 0.77856 0.58633 0.0
H1351 H 0.78109 0.70027 0.66747 0.0
H1352 H 0.74348 0.77035 0.63372 0.0
H1353 H 0.82925 0.72116 0.62613 0.0
H1354 H 0.76482 0.7231 0.65397 0.0
H1355 H 0.79643 0.75448 0.59928 0.0
C1356 C 0.77595 0.7715 0.59939 0.0
C1357 C 0.76103 0.77645 0.60897 0.0
C1358 C 0.77898 0.72273 0.64788 0.0
C1359 C 0.77858 0.74907 0.62394 0.0
C1360 C 0.78827 0.70966 0.65556 0.0
C1361 C 0.80665 0.70888 0.64797 0.0
C1362 C 0.78798 0.73494 0.6324 0.0
C1363 C 0.81522 0.72141 0.63253 0.0
C1364 C 0.78481 0.75792 0.60684 0.0
C1365 C 0.75511 0.76715 0.62597 0.0
N1366 N 0.80577 0.73387 0.62522 0.0
N1367 N 0.76387 0.75387 0.6329 0.0
H1368 H 0.02486 0.82075 0.61169 0.0
H1369 H 0.90995 0.69339 0.61652 0.0
H1370 H 0.01343 0.75377 0.5846 0.0
H1371 H 0.92561 0.75889 0.64868 0.0
H1372 H 0.94607 0.71584 0.60229 0.0
H1373 H 0.987 0.79895 0.62319 0.0
C1374 C 0.01443 0.80142 0.60821 0.0
C1375 C 0.02248 0.78905 0.59729 0.0
C1376 C 0.94156 0.72534 0.6124 0.0
C1377 C 0.97886 0.76399 0.61025 0.0
C1378 C 0.92095 0.71255 0.62048 0.0
C1379 C 0.91494 0.72434 0.63383 0.0
C1380 C 0.9562 0.75009 0.61771 0.0
C1381 C 0.9297 0.74914 0.63847 0.0
C1382 C 0.99273 0.78901 0.6147 0.0
C1383 C 0.00791 0.76409 0.59287 0.0
N1384 N 0.9497 0.76119 0.63046 0.0
N1385 N 0.98686 0.75237 0.59943 0.0
H1386 H 0.2066 0.25925 0.6321 0.0
H1387 H 0.28422 0.19953 0.61277 0.0
H1388 H 0.21995 0.24308 0.57784 0.0
H1389 H 0.26047 0.20405 0.66543 0.0
H1390 H 0.26336 0.21842 0.6 0.0
H1391 H 0.22915 0.24234 0.64489 0.0
C1392 C 0.21427 0.25215 0.62286 0.0
C1393 C 0.2112 0.25242 0.60384 0.0
C1394 C 0.26268 0.21526 0.61434 0.0
C1395 C 0.23725 0.23321 0.61843 0.0
C1396 C 0.27456 0.20448 0.62162 0.0
C1397 C 0.27395 0.20022 0.64014 0.0
C1398 C 0.25025 0.22193 0.62572 0.0
C1399 C 0.26127 0.20698 0.65105 0.0
C1400 C 0.2272 0.24255 0.63019 0.0
C1401 C 0.222 0.24344 0.59258 0.0
N1402 N 0.24993 0.21756 0.64368 0.0
N1403 N 0.23446 0.23412 0.60004 0.0
H1404 H 0.80146 0.98124 0.62036 0.0
H1405 H 0.77268 0.08157 0.65807 0.0
H1406 H 0.73231 0.96926 0.62032 0.0
H1407 H 0.84054 0.09823 0.64453 0.0
H1408 H 0.75805 0.03925 0.6477 0.0
H1409 H 0.81653 0.02305 0.63294 0.0
C1410 C 0.78945 0.98736 0.62319 0.0
C1411 C 0.76561 0.97183 0.61927 0.0
C1412 C 0.77614 0.05217 0.64701 0.0
C1413 C 0.7827 0.01957 0.6335 0.0
C1414 C 0.78455 0.07635 0.65297 0.0
C1415 C 0.80789 0.09352 0.65214 0.0
C1416 C 0.79121 0.04502 0.64031 0.0
C1417 C 0.8224 0.08565 0.64534 0.0
C1418 C 0.79806 0.01124 0.63022 0.0
C1419 C 0.75082 0.98074 0.62299 0.0
N1420 N 0.81383 0.06195 0.63972 0.0
N1421 N 0.7596 0.00402 0.62991 0.0
H1422 H 0.42355 0.36423 0.71432 0.0
H1423 H 0.40933 0.23511 0.68724 0.0
H1424 H 0.48065 0.35116 0.71538 0.0
H1425 H 0.35588 0.25209 0.67418 0.0
H1426 H 0.43555 0.27746 0.69808 0.0
H1427 H 0.39813 0.323 0.70016 0.0
C1428 C 0.43072 0.35269 0.71151 0.0
C1429 C 0.45422 0.36109 0.71603 0.0
C1430 C 0.41813 0.27195 0.69272 0.0
C1431 C 0.42531 0.31399 0.69992 0.0
C1432 C 0.40312 0.24775 0.68657 0.0
C1433 C 0.38033 0.23999 0.67987 0.0
C1434 C 0.41024 0.2885 0.69238 0.0
C1435 C 0.3733 0.25724 0.67924 0.0
C1436 C 0.41626 0.32923 0.70336 0.0
C1437 C 0.46269 0.34549 0.71195 0.0
N1438 N 0.38815 0.28065 0.68556 0.0
N1439 N 0.44822 0.32264 0.70426 0.0
H1440 H 0.64392 0.13156 0.72631 0.0
H1441 H 0.75946 0.12504 0.72221 0.0
H1442 H 0.65633 0.08092 0.75408 0.0
H1443 H 0.74097 0.16478 0.68615 0.0
H1444 H 0.72377 0.1124 0.73679 0.0
H1445 H 0.6813 0.14732 0.71398 0.0
C1446 C 0.65445 0.12368 0.72978 0.0
C1447 C 0.64683 0.10471 0.74115 0.0
C1448 C 0.72753 0.12394 0.72573 0.0
C1449 C 0.68986 0.12299 0.72728 0.0
C1450 C 0.7479 0.13119 0.71744 0.0
C1451 C 0.753 0.14582 0.70292 0.0
C1452 C 0.71222 0.13146 0.71947 0.0
C1453 C 0.73756 0.1534 0.69728 0.0
C1454 C 0.67586 0.13279 0.7228 0.0
C1455 C 0.66152 0.09567 0.74551 0.0
N1456 N 0.71779 0.14607 0.70554 0.0
N1457 N 0.68229 0.10484 0.73853 0.0
H1458 H 0.94066 0.5876 0.72321 0.0
H1459 H 0.82992 0.60025 0.70043 0.0
H1460 H 0.87093 0.52897 0.72452 0.0
H1461 H 0.89644 0.6485 0.68213 0.0
H1462 H 0.84544 0.57599 0.71248 0.0
H1463 H 0.92548 0.61233 0.71114 0.0
C1464 C 0.92217 0.57998 0.72097 0.0
C1465 C 0.907 0.55622 0.72479 0.0
C1466 C 0.85661 0.59186 0.7058 0.0
C1467 C 0.88958 0.58433 0.71115 0.0
C1468 C 0.8478 0.60579 0.69898 0.0
C1469 C 0.86188 0.62641 0.6902 0.0
C1470 C 0.87975 0.59876 0.70405 0.0
C1471 C 0.88492 0.63266 0.68869 0.0
C1472 C 0.91353 0.59402 0.71401 0.0
C1473 C 0.8832 0.54712 0.72155 0.0
N1474 N 0.89317 0.61894 0.69561 0.0
N1475 N 0.87521 0.56124 0.71501 0.0
H1476 H 0.5232 0.01231 0.14546 0.0
H1477 H 0.47778 0.01793 0.04424 0.0
H1478 H 0.45064 0.97661 0.12707 0.0
H1479 H 0.54334 0.02303 0.05793 0.0
H1480 H 0.469 0.01139 0.07619 0.0
H1481 H 0.5323 0.02557 0.11496 0.0
C1482 C 0.50915 0.00731 0.13505 0.0
C1483 C 0.4861 0.99288 0.13877 0.0
C1484 C 0.48531 0.01401 0.07216 0.0
C1485 C 0.49649 0.00846 0.10393 0.0
C1486 C 0.4902 0.01747 0.05396 0.0
C1487 C 0.51092 0.02013 0.04841 0.0
C1488 C 0.50159 0.0139 0.08489 0.0
C1489 C 0.52702 0.0207 0.06164 0.0
C1490 C 0.51439 0.01499 0.11767 0.0
C1491 C 0.46865 0.98769 0.12486 0.0
N1492 N 0.52198 0.01751 0.07928 0.0
N1493 N 0.47421 0.99533 0.10799 0.0
H1494 H 0.97655 0.46088 0.1469 0.0
H1495 H 0.02525 0.51047 0.05197 0.0
H1496 H 0.04317 0.52313 0.1421 0.0
H1497 H 0.95223 0.468 0.05718 0.0
H1498 H 0.03297 0.50839 0.08439 0.0
H1499 H 0.96816 0.45702 0.11341 0.0
C1500 C 0.98941 0.47359 0.13876 0.0
C1501 C 0.01048 0.49248 0.14718 0.0
C1502 C 0.01524 0.49939 0.07845 0.0
C1503 C 0.00121 0.48804 0.1092 0.0
C1504 C 0.01082 0.50044 0.05992 0.0
C1505 C 0.98805 0.48946 0.05194 0.0
C1506 C 0.99679 0.48724 0.08915 0.0
C1507 C 0.97002 0.4768 0.0629 0.0
C1508 C 0.98461 0.47144 0.11975 0.0
C1509 C 0.02661 0.50851 0.13613 0.0
N1510 N 0.97476 0.47609 0.08104 0.0
N1511 N 0.02166 0.5059 0.11773 0.0
H1512 H 0.46382 0.46663 0.13317 0.0
H1513 H 0.54211 0.54169 0.05552 0.0
H1514 H 0.51518 0.54247 0.14101 0.0
H1515 H 0.48582 0.46834 0.04494 0.0
H1516 H 0.53372 0.54133 0.08751 0.0
H1517 H 0.47229 0.46604 0.10117 0.0
C1518 C 0.47682 0.48315 0.12818 0.0
C1519 C 0.48892 0.50458 0.13988 0.0
C1520 C 0.52314 0.52529 0.07822 0.0
C1521 C 0.49885 0.50397 0.10337 0.0
C1522 C 0.52801 0.52548 0.05999 0.0
C1523 C 0.51446 0.50511 0.04763 0.0
C1524 C 0.50468 0.50449 0.08414 0.0
C1525 C 0.4964 0.48456 0.05406 0.0
C1526 C 0.48172 0.48277 0.10994 0.0
C1527 C 0.50573 0.52539 0.13267 0.0
N1528 N 0.49198 0.48475 0.07189 0.0
N1529 N 0.5102 0.52454 0.11494 0.0
H1530 H 0.96161 0.51522 0.86832 0.0
H1531 H 0.03192 0.48786 0.94507 0.0
H1532 H 0.01393 0.49716 0.85722 0.0
H1533 H 0.98869 0.51744 0.95808 0.0
H1534 H 0.02545 0.49152 0.91274 0.0
H1535 H 0.97141 0.51705 0.90116 0.0
C1536 C 0.97538 0.51199 0.87278 0.0
C1537 C 0.98682 0.5058 0.85999 0.0
C1538 C 0.01729 0.49719 0.92261 0.0
C1539 C 0.99783 0.50746 0.8975 0.0
C1540 C 0.02094 0.49506 0.94107 0.0
C1541 C 0.01033 0.50184 0.95417 0.0
C1542 C 0.00286 0.50617 0.91716 0.0
C1543 C 0.99649 0.51126 0.94831 0.0
C1544 C 0.98085 0.51288 0.89153 0.0
C1545 C 0.00433 0.50152 0.86657 0.0
N1546 N 0.99301 0.51304 0.93018 0.0
N1547 N 0.00917 0.50226 0.88483 0.0
H1548 H 0.53124 0.52881 0.86442 0.0
H1549 H 0.45419 0.45804 0.94389 0.0
H1550 H 0.48145 0.45243 0.85887 0.0
H1551 H 0.51109 0.53125 0.95274 0.0
H1552 H 0.46217 0.45672 0.91191 0.0
H1553 H 0.52272 0.53103 0.8962 0.0
C1554 C 0.51856 0.5125 0.86986 0.0
C1555 C 0.50702 0.4904 0.85888 0.0
C1556 C 0.47296 0.47309 0.92082 0.0
C1557 C 0.49701 0.4929 0.89519 0.0
C1558 C 0.46834 0.47387 0.93904 0.0
C1559 C 0.48217 0.49471 0.95091 0.0
C1560 C 0.49143 0.49339 0.91441 0.0
C1561 C 0.5003 0.51471 0.94402 0.0
C1562 C 0.51364 0.51381 0.88798 0.0
C1563 C 0.49051 0.46995 0.86665 0.0
N1564 N 0.50444 0.51358 0.92618 0.0
N1565 N 0.48602 0.4717 0.88429 0.0
H1566 H 0.53742 0.00259 0.86641 0.0
H1567 H 0.45473 0.98581 0.94559 0.0
H1568 H 0.48455 0.02221 0.86388 0.0
H1569 H 0.51515 0.97894 0.95373 0.0
H1570 H 0.46376 0.99565 0.9144 0.0
H1571 H 0.52845 0.99118 0.89751 0.0
C1572 C 0.52399 0.00456 0.87237 0.0
C1573 C 0.51162 0.01323 0.86241 0.0
C1574 C 0.47511 0.99202 0.92296 0.0
C1575 C 0.50111 -8e-05 0.89784 0.0
C1576 C 0.46988 0.98628 0.94073 0.0
C1577 C 0.48439 0.98184 0.95221 0.0
C1578 C 0.49491 0.99314 0.91654 0.0
C1579 C 0.50378 0.98266 0.94529 0.0
C1580 C 0.51882 0.99794 0.89008 0.0
C1581 C 0.49423 0.01514 0.8708 0.0
N1582 N 0.50855 0.98827 0.92785 0.0
N1583 N 0.48949 0.00851 0.88797 0.0
H1584 H 0.1188 0.30151 0.4649 0.0
H1585 H 0.19759 0.39014 0.39367 0.0
H1586 H 0.18401 0.36575 0.48227 0.0
H1587 H 0.14943 0.31412 0.38036 0.0
H1588 H 0.18848 0.38544 0.42574 0.0
H1589 H 0.12506 0.31036 0.43314 0.0
C1590 C 0.13428 0.3177 0.46204 0.0
C1591 C 0.15095 0.33289 0.47623 0.0
C1592 C 0.17979 0.36991 0.41569 0.0
C1593 C 0.15832 0.34297 0.43989 0.0
C1594 C 0.18492 0.37258 0.39745 0.0
C1595 C 0.17408 0.35252 0.38437 0.0
C1596 C 0.16352 0.34712 0.42068 0.0
C1597 C 0.15791 0.33013 0.38994 0.0
C1598 C 0.13792 0.32263 0.44391 0.0
C1599 C 0.17085 0.35346 0.47169 0.0
N1600 N 0.15309 0.32805 0.40765 0.0
N1601 N 0.17403 0.3579 0.45387 0.0
H1602 H 0.72441 0.86135 0.47046 0.0
H1603 H 0.62729 0.83137 0.39094 0.0
H1604 H 0.65243 0.81805 0.47882 0.0
H1605 H 0.69338 0.84024 0.38039 0.0
H1606 H 0.63649 0.83092 0.42376 0.0
H1607 H 0.71382 0.85823 0.43758 0.0
C1608 C 0.70637 0.85114 0.46528 0.0
C1609 C 0.68922 0.83991 0.4772 0.0
C1610 C 0.64881 0.83263 0.41417 0.0
C1611 C 0.67699 0.83657 0.43986 0.0
C1612 C 0.64363 0.83298 0.39556 0.0
C1613 C 0.65944 0.83526 0.38302 0.0
C1614 C 0.67023 0.83534 0.4202 0.0
C1615 C 0.68046 0.83759 0.38955 0.0
C1616 C 0.70035 0.8493 0.44659 0.0
C1617 C 0.66609 0.82684 0.46995 0.0
N1618 N 0.68537 0.83779 0.40774 0.0
N1619 N 0.66058 0.82572 0.4517 0.0
H1620 H 0.18532 0.87601 0.47552 0.0
H1621 H 0.14936 0.7975 0.37876 0.0
H1622 H 0.13224 0.80076 0.46779 0.0
H1623 H 0.20974 0.86819 0.38982 0.0
H1624 H 0.14157 0.79863 0.41093 0.0
H1625 H 0.19347 0.87374 0.44383 0.0
C1626 C 0.17551 0.8589 0.46724 0.0
C1627 C 0.15816 0.83848 0.47446 0.0
C1628 C 0.15655 0.81387 0.40634 0.0
C1629 C 0.16716 0.83593 0.43787 0.0
C1630 C 0.16088 0.81329 0.38799 0.0
C1631 C 0.18 0.83292 0.38169 0.0
C1632 C 0.17148 0.83427 0.4184 0.0
C1633 C 0.19478 0.85271 0.39419 0.0
C1634 C 0.18009 0.85768 0.44906 0.0
C1635 C 0.14562 0.81703 0.46281 0.0
N1636 N 0.19013 0.85295 0.41194 0.0
N1637 N 0.15035 0.81632 0.44509 0.0
H1638 H 0.63232 0.78826 0.19099 0.0
H1639 H 0.67779 0.86516 0.28853 0.0
H1640 H 0.65882 0.86522 0.19749 0.0
H1641 H 0.66878 0.79409 0.27776 0.0
H1642 H 0.66713 0.86475 0.25594 0.0
H1643 H 0.64203 0.78935 0.22352 0.0
C1644 C 0.64039 0.80547 0.1992 0.0
C1645 C 0.64502 0.82675 0.19136 0.0
C1646 C 0.66749 0.84927 0.26074 0.0
C1647 C 0.65574 0.82798 0.22888 0.0
C1648 C 0.67339 0.84943 0.2793 0.0
C1649 C 0.67401 0.82957 0.28574 0.0
C1650 C 0.66203 0.82901 0.24867 0.0
C1651 C 0.66857 0.80979 0.27327 0.0
C1652 C 0.64579 0.80603 0.21784 0.0
C1653 C 0.65482 0.84835 0.20292 0.0
N1654 N 0.66273 0.80997 0.25534 0.0
N1655 N 0.65987 0.84842 0.22111 0.0
H1656 H 0.1435 0.78817 0.19141 0.0
H1657 H 0.18092 0.8658 0.28854 0.0
H1658 H 0.19688 0.86329 0.19936 0.0
H1659 H 0.11946 0.79596 0.27736 0.0
H1660 H 0.18815 0.86489 0.25623 0.0
H1661 H 0.13521 0.79042 0.22308 0.0
C1662 C 0.15333 0.80525 0.19972 0.0
C1663 C 0.17088 0.82561 0.19259 0.0
C1664 C 0.17304 0.8498 0.26082 0.0
C1665 C 0.16175 0.82813 0.22915 0.0
C1666 C 0.16903 0.85024 0.27925 0.0
C1667 C 0.14977 0.83079 0.28555 0.0
C1668 C 0.15766 0.82969 0.24868 0.0
C1669 C 0.13454 0.8113 0.27298 0.0
C1670 C 0.14866 0.80646 0.21788 0.0
C1671 C 0.18339 0.84705 0.20427 0.0
N1672 N 0.13889 0.81117 0.25514 0.0
N1673 N 0.17863 0.84772 0.22198 0.0
H1674 H 0.18536 0.37149 0.20122 0.0
H1675 H 0.14249 0.27859 0.2769 0.0
H1676 H 0.17246 0.29901 0.18958 0.0
H1677 H 0.18125 0.356 0.2891 0.0
H1678 H 0.15091 0.28405 0.24469 0.0
H1679 H 0.1812 0.36476 0.23347 0.0
C1680 C 0.18168 0.35414 0.20556 0.0
C1681 C 0.17914 0.33573 0.19286 0.0
C1682 C 0.15775 0.29975 0.25453 0.0
C1683 C 0.17418 0.32775 0.22969 0.0
C1684 C 0.15291 0.29666 0.27283 0.0
C1685 C 0.16109 0.31688 0.28559 0.0
C1686 C 0.17053 0.32322 0.2491 0.0
C1687 C 0.17455 0.33991 0.27971 0.0
C1688 C 0.17941 0.35031 0.22395 0.0
C1689 C 0.17454 0.3136 0.19909 0.0
N1690 N 0.17865 0.34244 0.26189 0.0
N1691 N 0.17193 0.31008 0.21713 0.0
H1692 H 0.78863 0.64685 0.7964 0.0
H1693 H 0.88288 0.69109 0.72507 0.0
H1694 H 0.8612 0.67662 0.81245 0.0
H1695 H 0.81782 0.68814 0.71414 0.0
H1696 H 0.87473 0.68411 0.75692 0.0
H1697 H 0.79812 0.6601 0.76588 0.0
C1698 C 0.80657 0.65643 0.79364 0.0
C1699 C 0.82411 0.66039 0.80705 0.0
C1700 C 0.86224 0.68504 0.74758 0.0
C1701 C 0.83499 0.67514 0.772 0.0
C1702 C 0.86689 0.68903 0.72942 0.0
C1703 C 0.85067 0.68953 0.71693 0.0
C1704 C 0.84115 0.68135 0.75321 0.0
C1705 C 0.83031 0.68692 0.72325 0.0
C1706 C 0.81194 0.66388 0.77616 0.0
C1707 C 0.84702 0.67261 0.80248 0.0
N1708 N 0.82596 0.68265 0.74094 0.0
N1709 N 0.85176 0.67932 0.78531 0.0
H1710 H 0.38336 0.19022 0.80373 0.0
H1711 H 0.28636 0.13749 0.72023 0.0
H1712 H 0.31429 0.13274 0.80924 0.0
H1713 H 0.35929 0.17682 0.71401 0.0
H1714 H 0.29524 0.13552 0.75278 0.0
H1715 H 0.37413 0.18595 0.7707 0.0
C1716 C 0.36624 0.17661 0.79789 0.0
C1717 C 0.34949 0.1619 0.80912 0.0
C1718 C 0.30925 0.14432 0.7442 0.0
C1719 C 0.33869 0.15697 0.77135 0.0
C1720 C 0.30419 0.1455 0.72569 0.0
C1721 C 0.32213 0.15749 0.71452 0.0
C1722 C 0.33238 0.15548 0.7515 0.0
C1723 C 0.34494 0.1675 0.72217 0.0
C1724 C 0.36099 0.17409 0.77905 0.0
C1725 C 0.32763 0.14438 0.80094 0.0
N1726 N 0.3494 0.16647 0.74021 0.0
N1727 N 0.32272 0.14257 0.7825 0.0
H1728 H 0.78742 0.14684 0.79933 0.0
H1729 H 0.88038 0.19868 0.72761 0.0
H1730 H 0.86063 0.18832 0.81556 0.0
H1731 H 0.81483 0.13353 0.71395 0.0
H1732 H 0.87248 0.19724 0.75976 0.0
H1733 H 0.79585 0.14324 0.76771 0.0
C1734 C 0.80525 0.15491 0.79635 0.0
C1735 C 0.82333 0.16815 0.8102 0.0
C1736 C 0.85981 0.18324 0.74973 0.0
C1737 C 0.83299 0.16454 0.77395 0.0
C1738 C 0.86428 0.18408 0.7314 0.0
C1739 C 0.84792 0.16654 0.71811 0.0
C1740 C 0.83871 0.16485 0.75476 0.0
C1741 C 0.82745 0.1479 0.72373 0.0
C1742 C 0.81002 0.15293 0.77827 0.0
C1743 C 0.84609 0.17849 0.80535 0.0
N1744 N 0.82326 0.14767 0.74165 0.0
N1745 N 0.85025 0.1767 0.78762 0.0
H1746 H 0.28017 0.13567 0.52638 0.0
H1747 H 0.37531 0.19516 0.61138 0.0
H1748 H 0.34701 0.19796 0.52225 0.0
H1749 H 0.30266 0.14951 0.61659 0.0
H1750 H 0.36633 0.1958 0.57861 0.0
H1751 H 0.28899 0.13948 0.55946 0.0
C1752 C 0.29673 0.15017 0.5325 0.0
C1753 C 0.31297 0.16644 0.52164 0.0
C1754 C 0.35237 0.18587 0.587 0.0
C1755 C 0.32324 0.17091 0.55946 0.0
C1756 C 0.35749 0.18545 0.60563 0.0
C1757 C 0.33969 0.17226 0.61661 0.0
C1758 C 0.32934 0.17268 0.57937 0.0
C1759 C 0.31689 0.15999 0.6086 0.0
C1760 C 0.30171 0.15244 0.55138 0.0
C1761 C 0.33405 0.1851 0.53023 0.0
N1762 N 0.31239 0.16034 0.59043 0.0
N1763 N 0.33871 0.18671 0.54867 0.0
H1764 H 0.88286 0.18953 0.54075 0.0
H1765 H 0.78745 0.13815 0.61113 0.0
H1766 H 0.80994 0.14642 0.52391 0.0
H1767 H 0.85451 0.20086 0.62597 0.0
H1768 H 0.79603 0.13977 0.57915 0.0
H1769 H 0.87377 0.1933 0.57219 0.0
C1770 C 0.86496 0.18113 0.54357 0.0
C1771 C 0.84716 0.16734 0.52966 0.0
C1772 C 0.80887 0.15324 0.58938 0.0
C1773 C 0.8367 0.17126 0.56562 0.0
C1774 C 0.80397 0.15229 0.60762 0.0
C1775 C 0.8205 0.16909 0.6212 0.0
C1776 C 0.83053 0.171 0.58471 0.0
C1777 C 0.84157 0.18717 0.61593 0.0
C1778 C 0.85979 0.18321 0.56154 0.0
C1779 C 0.82427 0.15669 0.53423 0.0
N1780 N 0.84613 0.1875 0.59809 0.0
N1781 N 0.81973 0.15865 0.55181 0.0
H1782 H 0.81504 0.68252 0.53073 0.0
H1783 H 0.84981 0.64487 0.62376 0.0
H1784 H 0.86818 0.66341 0.53559 0.0
H1785 H 0.78902 0.65081 0.61439 0.0
H1786 H 0.85776 0.65257 0.59184 0.0
H1787 H 0.8059 0.6716 0.56161 0.0
C1788 C 0.82462 0.67572 0.53817 0.0
C1789 C 0.84234 0.67376 0.53042 0.0
C1790 C 0.84263 0.65207 0.59675 0.0
C1791 C 0.83225 0.66171 0.56614 0.0
C1792 C 0.83821 0.64787 0.61495 0.0
C1793 C 0.81895 0.64756 0.62166 0.0
C1794 C 0.82765 0.65603 0.58528 0.0
C1795 C 0.80408 0.65093 0.60969 0.0
C1796 C 0.81947 0.66963 0.55591 0.0
C1797 C 0.85454 0.66546 0.54104 0.0
N1798 N 0.80883 0.6552 0.59211 0.0
N1799 N 0.84932 0.65982 0.55839 0.0
loop_
_geom_bond_atom_site_label_1
_geom_bond_atom_site_label_2
_geom_bond_distance
_geom_bond_site_symmetry_2
_ccdc_geom_bond_type
C0 C1 1.384 . S
C0 H13 0.947 . S
C0 C35 1.382 . S
C1 C0 1.384 . S
C1 C2 1.378 . S
C2 C1 1.378 . S
C2 C3 1.378 . S
C2 H14 0.952 . S
C3 C2 1.378 . S
C3 H15 0.950 . S
C3 C34 1.383 . S
H4 C23 0.947 . S
H5 C24 0.946 . S
H6 C26 0.953 . S
H7 C27 0.945 . S
H8 C29 0.952 . S
H9 C30 0.949 . S
H10 C32 0.950 . S
H11 C33 0.948 . S
H12 C35 0.951 . S
H13 C0 0.947 . S
H14 C2 0.952 . S
H15 C3 0.950 . S
N16 C19 1.382 . S
N16 C21 1.363 . S
N17 C19 1.371 . S
N17 C20 1.372 . S
N18 C20 1.361 . S
N18 C21 1.377 . S
C19 N16 1.382 . S
C19 N17 1.371 . S
C19 C22 1.480 . S
C20 N17 1.372 . S
C20 N18 1.361 . S
C20 C28 1.457 . S
C21 N16 1.363 . S
C21 N18 1.377 . S
C21 C34 1.479 . S
C22 C19 1.480 . S
C22 C23 1.383 . S
C22 C27 1.385 . S
C23 H4 0.947 . S
C23 C22 1.383 . S
C23 C24 1.388 . S
C24 H5 0.946 . S
C24 C23 1.388 . S
C24 C25 1.384 . S
C25 C24 1.384 . S
C25 C26 1.377 . S
C26 H6 0.953 . S
C26 C25 1.377 . S
C26 C27 1.369 . S
C27 H7 0.945 . S
C27 C22 1.385 . S
C27 C26 1.369 . S
C28 C20 1.457 . S
C28 C29 1.372 . S
C28 C33 1.364 . S
C29 H8 0.952 . S
C29 C28 1.372 . S
C29 C30 1.389 . S
C30 H9 0.949 . S
C30 C29 1.389 . S
C30 C31 1.387 . S
C31 C30 1.387 . S
C31 C32 1.372 . S
C32 H10 0.950 . S
C32 C31 1.372 . S
C32 C33 1.379 . S
C33 H11 0.948 . S
C33 C28 1.364 . S
C33 C32 1.379 . S
C34 C3 1.383 . S
C34 C21 1.479 . S
C34 C35 1.398 . S
C35 C0 1.382 . S
C35 H12 0.951 . S
C35 C34 1.398 . S
C36 C37 1.384 . S
C36 H49 0.947 . S
C36 C71 1.382 . S
C37 C36 1.384 . S
C37 C38 1.378 . S
C38 C37 1.378 . S
C38 C39 1.378 . S
C38 H50 0.952 . S
C39 C38 1.378 . S
C39 H51 0.950 . S
C39 C70 1.383 . S
H40 C59 0.947 . S
H41 C60 0.946 . S
H42 C62 0.953 . S
H43 C63 0.945 . S
H44 C65 0.952 . S
H45 C66 0.949 . S
H46 C68 0.950 . S
H47 C69 0.948 . S
H48 C71 0.951 . S
H49 C36 0.947 . S
H50 C38 0.952 . S
H51 C39 0.950 . S
N52 C55 1.382 . S
N52 C57 1.363 . S
N53 C55 1.371 . S
N53 C56 1.372 . S
N54 C56 1.361 . S
N54 C57 1.377 . S
C55 N52 1.382 . S
C55 N53 1.371 . S
C55 C58 1.480 . S
C56 N53 1.372 . S
C56 N54 1.361 . S
C56 C64 1.457 . S
C57 N52 1.363 . S
C57 N54 1.377 . S
C57 C70 1.479 . S
C58 C55 1.480 . S
C58 C59 1.383 . S
C58 C63 1.385 . S
C59 H40 0.947 . S
C59 C58 1.383 . S
C59 C60 1.388 . S
C60 H41 0.946 . S
C60 C59 1.388 . S
C60 C61 1.384 . S
C61 C60 1.384 . S
C61 C62 1.377 . S
C62 H42 0.953 . S
C62 C61 1.377 . S
C62 C63 1.369 . S
C63 H43 0.945 . S
C63 C58 1.385 . S
C63 C62 1.369 . S
C64 C56 1.457 . S
C64 C65 1.372 . S
C64 C69 1.364 . S
C65 H44 0.952 . S
C65 C64 1.372 . S
C65 C66 1.389 . S
C66 H45 0.949 . S
C66 C65 1.389 . S
C66 C67 1.387 . S
C67 C66 1.387 . S
C67 C68 1.372 . S
C68 H46 0.950 . S
C68 C67 1.372 . S
C68 C69 1.379 . S
C69 H47 0.948 . S
C69 C64 1.364 . S
C69 C68 1.379 . S
C70 C39 1.383 . S
C70 C57 1.479 . S
C70 C71 1.398 . S
C71 C36 1.382 . S
C71 H48 0.951 . S
C71 C70 1.398 . S
C72 C73 1.384 . S
C72 H85 0.947 . S
C72 C107 1.382 . S
C73 C72 1.384 . S
C73 C74 1.378 . S
C74 C73 1.378 . S
C74 C75 1.378 . S
C74 H86 0.952 . S
C75 C74 1.378 . S
C75 H87 0.950 . S
C75 C106 1.383 . S
H76 C95 0.947 . S
H77 C96 0.946 . S
H78 C98 0.953 . S
H79 C99 0.945 . S
H80 C101 0.952 . S
H81 C102 0.949 . S
H82 C104 0.950 . S
H83 C105 0.948 . S
H84 C107 0.951 . S
H85 C72 0.947 . S
H86 C74 0.952 . S
H87 C75 0.950 . S
N88 C91 1.382 . S
N88 C93 1.363 . S
N89 C91 1.371 . S
N89 C92 1.372 . S
N90 C92 1.361 . S
N90 C93 1.377 . S
C91 N88 1.382 . S
C91 N89 1.371 . S
C91 C94 1.480 . S
C92 N89 1.372 . S
C92 N90 1.361 . S
C92 C100 1.457 . S
C93 N88 1.363 . S
C93 N90 1.377 . S
C93 C106 1.479 . S
C94 C91 1.480 . S
C94 C95 1.383 . S
C94 C99 1.385 . S
C95 H76 0.947 . S
C95 C94 1.383 . S
C95 C96 1.388 . S
C96 H77 0.946 . S
C96 C95 1.388 . S
C96 C97 1.384 . S
C97 C96 1.384 . S
C97 C98 1.377 . S
C98 H78 0.953 . S
C98 C97 1.377 . S
C98 C99 1.369 . S
C99 H79 0.945 . S
C99 C94 1.385 . S
C99 C98 1.369 . S
C100 C92 1.457 . S
C100 C101 1.372 . S
C100 C105 1.364 . S
C101 H80 0.952 . S
C101 C100 1.372 . S
C101 C102 1.389 . S
C102 H81 0.949 . S
C102 C101 1.389 . S
C102 C103 1.387 . S
C103 C102 1.387 . S
C103 C104 1.372 . S
C104 H82 0.950 . S
C104 C103 1.372 . S
C104 C105 1.379 . S
C105 H83 0.948 . S
C105 C100 1.364 . S
C105 C104 1.379 . S
C106 C75 1.383 . S
C106 C93 1.479 . S
C106 C107 1.398 . S
C107 C72 1.382 . S
C107 H84 0.951 . S
C107 C106 1.398 . S
C108 C109 1.384 . S
C108 H121 0.947 . S
C108 C143 1.382 . S
C109 C108 1.384 . S
C109 C110 1.378 . S
C110 C109 1.378 . S
C110 C111 1.378 . S
C110 H122 0.952 . S
C111 C110 1.378 . S
C111 H123 0.950 . S
C111 C142 1.383 . S
H112 C131 0.947 . S
H113 C132 0.946 . S
H114 C134 0.953 . S
H115 C135 0.945 . S
H116 C137 0.952 . S
H117 C138 0.949 . S
H118 C140 0.950 . S
H119 C141 0.948 . S
H120 C143 0.951 . S
H121 C108 0.947 . S
H122 C110 0.952 . S
H123 C111 0.950 . S
N124 C127 1.382 . S
N124 C129 1.363 . S
N125 C127 1.371 . S
N125 C128 1.372 . S
N126 C128 1.361 . S
N126 C129 1.377 . S
C127 N124 1.382 . S
C127 N125 1.371 . S
C127 C130 1.480 . S
C128 N125 1.372 . S
C128 N126 1.361 . S
C128 C136 1.457 . S
C129 N124 1.363 . S
C129 N126 1.377 . S
C129 C142 1.479 . S
C130 C127 1.480 . S
C130 C131 1.383 . S
C130 C135 1.385 . S
C131 H112 0.947 . S
C131 C130 1.383 . S
C131 C132 1.388 . S
C132 H113 0.946 . S
C132 C131 1.388 . S
C132 C133 1.384 . S
C133 C132 1.384 . S
C133 C134 1.377 . S
C134 H114 0.953 . S
C134 C133 1.377 . S
C134 C135 1.369 . S
C135 H115 0.945 . S
C135 C130 1.385 . S
C135 C134 1.369 . S
C136 C128 1.457 . S
C136 C137 1.372 . S
C136 C141 1.364 . S
C137 H116 0.952 . S
C137 C136 1.372 . S
C137 C138 1.389 . S
C138 H117 0.949 . S
C138 C137 1.389 . S
C138 C139 1.387 . S
C139 C138 1.387 . S
C139 C140 1.372 . S
C140 H118 0.950 . S
C140 C139 1.372 . S
C140 C141 1.379 . S
C141 H119 0.948 . S
C141 C136 1.364 . S
C141 C140 1.379 . S
C142 C111 1.383 . S
C142 C129 1.479 . S
C142 C143 1.398 . S
C143 C108 1.382 . S
C143 H120 0.951 . S
C143 C142 1.398 . S
C144 C145 1.384 . S
C144 H157 0.947 . S
C144 C179 1.382 . S
C145 C144 1.384 . S
C145 C146 1.378 . S
C146 C145 1.378 . S
C146 C147 1.378 . S
C146 H158 0.952 . S
C147 C146 1.378 . S
C147 H159 0.950 . S
C147 C178 1.383 . S
H148 C167 0.947 . S
H149 C168 0.946 . S
H150 C170 0.953 . S
H151 C171 0.945 . S
H152 C173 0.952 . S
H153 C174 0.949 . S
H154 C176 0.950 . S
H155 C177 0.948 . S
H156 C179 0.951 . S
H157 C144 0.947 . S
H158 C146 0.952 . S
H159 C147 0.950 . S
N160 C163 1.382 . S
N160 C165 1.363 . S
N161 C163 1.371 . S
N161 C164 1.372 . S
N162 C164 1.361 . S
N162 C165 1.377 . S
C163 N160 1.382 . S
C163 N161 1.371 . S
C163 C166 1.480 . S
C164 N161 1.372 . S
C164 N162 1.361 . S
C164 C172 1.457 . S
C165 N160 1.363 . S
C165 N162 1.377 . S
C165 C178 1.479 . S
C166 C163 1.480 . S
C166 C167 1.383 . S
C166 C171 1.385 . S
C167 H148 0.947 . S
C167 C166 1.383 . S
C167 C168 1.388 . S
C168 H149 0.946 . S
C168 C167 1.388 . S
C168 C169 1.384 . S
C169 C168 1.384 . S
C169 C170 1.377 . S
C170 H150 0.953 . S
C170 C169 1.377 . S
C170 C171 1.369 . S
C171 H151 0.945 . S
C171 C166 1.385 . S
C171 C170 1.369 . S
C172 C164 1.457 . S
C172 C173 1.372 . S
C172 C177 1.364 . S
C173 H152 0.952 . S
C173 C172 1.372 . S
C173 C174 1.389 . S
C174 H153 0.949 . S
C174 C173 1.389 . S
C174 C175 1.387 . S
C175 C174 1.387 . S
C175 C176 1.372 . S
C176 H154 0.950 . S
C176 C175 1.372 . S
C176 C177 1.379 . S
C177 H155 0.948 . S
C177 C172 1.364 . S
C177 C176 1.379 . S
C178 C147 1.383 . S
C178 C165 1.479 . S
C178 C179 1.398 . S
C179 C144 1.382 . S
C179 H156 0.951 . S
C179 C178 1.398 . S
C180 C181 1.384 . S
C180 H193 0.947 . S
C180 C215 1.382 . S
C181 C180 1.384 . S
C181 C182 1.378 . S
C182 C181 1.378 . S
C182 C183 1.378 . S
C182 H194 0.952 . S
C183 C182 1.378 . S
C183 H195 0.950 . S
C183 C214 1.383 . S
H184 C203 0.947 . S
H185 C204 0.946 . S
H186 C206 0.953 . S
H187 C207 0.945 . S
H188 C209 0.952 . S
H189 C210 0.949 . S
H190 C212 0.950 . S
H191 C213 0.948 . S
H192 C215 0.951 . S
H193 C180 0.947 . S
H194 C182 0.952 . S
H195 C183 0.950 . S
N196 C199 1.382 . S
N196 C201 1.363 . S
N197 C199 1.371 . S
N197 C200 1.372 . S
N198 C200 1.361 . S
N198 C201 1.377 . S
C199 N196 1.382 . S
C199 N197 1.371 . S
C199 C202 1.480 . S
C200 N197 1.372 . S
C200 N198 1.361 . S
C200 C208 1.457 . S
C201 N196 1.363 . S
C201 N198 1.377 . S
C201 C214 1.479 . S
C202 C199 1.480 . S
C202 C203 1.383 . S
C202 C207 1.385 . S
C203 H184 0.947 . S
C203 C202 1.383 . S
C203 C204 1.388 . S
C204 H185 0.946 . S
C204 C203 1.388 . S
C204 C205 1.384 . S
C205 C204 1.384 . S
C205 C206 1.377 . S
C206 H186 0.953 . S
C206 C205 1.377 . S
C206 C207 1.369 . S
C207 H187 0.945 . S
C207 C202 1.385 . S
C207 C206 1.369 . S
C208 C200 1.457 . S
C208 C209 1.372 . S
C208 C213 1.364 . S
C209 H188 0.952 . S
C209 C208 1.372 . S
C209 C210 1.389 . S
C210 H189 0.949 . S
C210 C209 1.389 . S
C210 C211 1.387 . S
C211 C210 1.387 . S
C211 C212 1.372 . S
C212 H190 0.950 . S
C212 C211 1.372 . S
C212 C213 1.379 . S
C213 H191 0.948 . S
C213 C208 1.364 . S
C213 C212 1.379 . S
C214 C183 1.383 . S
C214 C201 1.479 . S
C214 C215 1.398 . S
C215 C180 1.382 . S
C215 H192 0.951 . S
C215 C214 1.398 . S
C216 C217 1.384 . S
C216 H229 0.947 . S
C216 C251 1.382 . S
C217 C216 1.384 . S
C217 C218 1.378 . S
C218 C217 1.378 . S
C218 C219 1.378 . S
C218 H230 0.952 . S
C219 C218 1.378 . S
C219 H231 0.950 . S
C219 C250 1.383 . S
H220 C239 0.947 . S
H221 C240 0.946 . S
H222 C242 0.953 . S
H223 C243 0.945 . S
H224 C245 0.952 . S
H225 C246 0.949 . S
H226 C248 0.950 . S
H227 C249 0.948 . S
H228 C251 0.951 . S
H229 C216 0.947 . S
H230 C218 0.952 . S
H231 C219 0.950 . S
N232 C235 1.382 . S
N232 C237 1.363 . S
N233 C235 1.371 . S
N233 C236 1.372 . S
N234 C236 1.361 . S
N234 C237 1.377 . S
C235 N232 1.382 . S
C235 N233 1.371 . S
C235 C238 1.480 . S
C236 N233 1.372 . S
C236 N234 1.361 . S
C236 C244 1.457 . S
C237 N232 1.363 . S
C237 N234 1.377 . S
C237 C250 1.479 . S
C238 C235 1.480 . S
C238 C239 1.383 . S
C238 C243 1.385 . S
C239 H220 0.947 . S
C239 C238 1.383 . S
C239 C240 1.388 . S
C240 H221 0.946 . S
C240 C239 1.388 . S
C240 C241 1.384 . S
C241 C240 1.384 . S
C241 C242 1.377 . S
C242 H222 0.953 . S
C242 C241 1.377 . S
C242 C243 1.369 . S
C243 H223 0.945 . S
C243 C238 1.385 . S
C243 C242 1.369 . S
C244 C236 1.457 . S
C244 C245 1.372 . S
C244 C249 1.364 . S
C245 H224 0.952 . S
C245 C244 1.372 . S
C245 C246 1.389 . S
C246 H225 0.949 . S
C246 C245 1.389 . S
C246 C247 1.387 . S
C247 C246 1.387 . S
C247 C248 1.372 . S
C248 H226 0.950 . S
C248 C247 1.372 . S
C248 C249 1.379 . S
C249 H227 0.948 . S
C249 C244 1.364 . S
C249 C248 1.379 . S
C250 C219 1.383 . S
C250 C237 1.479 . S
C250 C251 1.398 . S
C251 C216 1.382 . S
C251 H228 0.951 . S
C251 C250 1.398 . S
C252 C253 1.384 . S
C252 H265 0.947 . S
C252 C287 1.382 . S
C253 C252 1.384 . S
C253 C254 1.378 . S
C254 C253 1.378 . S
C254 C255 1.378 . S
C254 H266 0.952 . S
C255 C254 1.378 . S
C255 H267 0.950 . S
C255 C286 1.383 . S
H256 C275 0.947 . S
H257 C276 0.946 . S
H258 C278 0.953 . S
H259 C279 0.945 . S
H260 C281 0.952 . S
H261 C282 0.949 . S
H262 C284 0.950 . S
H263 C285 0.948 . S
H264 C287 0.951 . S
H265 C252 0.947 . S
H266 C254 0.952 . S
H267 C255 0.950 . S
N268 C271 1.382 . S
N268 C273 1.363 . S
N269 C271 1.371 . S
N269 C272 1.372 . S
N270 C272 1.361 . S
N270 C273 1.377 . S
C271 N268 1.382 . S
C271 N269 1.371 . S
C271 C274 1.480 . S
C272 N269 1.372 . S
C272 N270 1.361 . S
C272 C280 1.457 . S
C273 N268 1.363 . S
C273 N270 1.377 . S
C273 C286 1.479 . S
C274 C271 1.480 . S
C274 C275 1.383 . S
C274 C279 1.385 . S
C275 H256 0.947 . S
C275 C274 1.383 . S
C275 C276 1.388 . S
C276 H257 0.946 . S
C276 C275 1.388 . S
C276 C277 1.384 . S
C277 C276 1.384 . S
C277 C278 1.377 . S
C278 H258 0.953 . S
C278 C277 1.377 . S
C278 C279 1.369 . S
C279 H259 0.945 . S
C279 C274 1.385 . S
C279 C278 1.369 . S
C280 C272 1.457 . S
C280 C281 1.372 . S
C280 C285 1.364 . S
C281 H260 0.952 . S
C281 C280 1.372 . S
C281 C282 1.389 . S
C282 H261 0.949 . S
C282 C281 1.389 . S
C282 C283 1.387 . S
C283 C282 1.387 . S
C283 C284 1.372 . S
C284 H262 0.950 . S
C284 C283 1.372 . S
C284 C285 1.379 . S
C285 H263 0.948 . S
C285 C280 1.364 . S
C285 C284 1.379 . S
C286 C255 1.383 . S
C286 C273 1.479 . S
C286 C287 1.398 . S
C287 C252 1.382 . S
C287 H264 0.951 . S
C287 C286 1.398 . S
C288 C289 1.384 . S
C288 H301 0.947 . S
C288 C323 1.382 . S
C289 C288 1.384 . S
C289 C290 1.378 . S
C290 C289 1.378 . S
C290 C291 1.378 . S
C290 H302 0.952 . S
C291 C290 1.378 . S
C291 H303 0.950 . S
C291 C322 1.383 . S
H292 C311 0.947 . S
H293 C312 0.946 . S
H294 C314 0.953 . S
H295 C315 0.945 . S
H296 C317 0.952 . S
H297 C318 0.949 . S
H298 C320 0.950 . S
H299 C321 0.948 . S
H300 C323 0.951 . S
H301 C288 0.947 . S
H302 C290 0.952 . S
H303 C291 0.950 . S
N304 C307 1.382 . S
N304 C309 1.363 . S
N305 C307 1.371 . S
N305 C308 1.372 . S
N306 C308 1.361 . S
N306 C309 1.377 . S
C307 N304 1.382 . S
C307 N305 1.371 . S
C307 C310 1.480 . S
C308 N305 1.372 . S
C308 N306 1.361 . S
C308 C316 1.457 . S
C309 N304 1.363 . S
C309 N306 1.377 . S
C309 C322 1.479 . S
C310 C307 1.480 . S
C310 C311 1.383 . S
C310 C315 1.385 . S
C311 H292 0.947 . S
C311 C310 1.383 . S
C311 C312 1.388 . S
C312 H293 0.946 . S
C312 C311 1.388 . S
C312 C313 1.384 . S
C313 C312 1.384 . S
C313 C314 1.377 . S
C314 H294 0.953 . S
C314 C313 1.377 . S
C314 C315 1.369 . S
C315 H295 0.945 . S
C315 C310 1.385 . S
C315 C314 1.369 . S
C316 C308 1.457 . S
C316 C317 1.372 . S
C316 C321 1.364 . S
C317 H296 0.952 . S
C317 C316 1.372 . S
C317 C318 1.389 . S
C318 H297 0.949 . S
C318 C317 1.389 . S
C318 C319 1.387 . S
C319 C318 1.387 . S
C319 C320 1.372 . S
C320 H298 0.950 . S
C320 C319 1.372 . S
C320 C321 1.379 . S
C321 H299 0.948 . S
C321 C316 1.364 . S
C321 C320 1.379 . S
C322 C291 1.383 . S
C322 C309 1.479 . S
C322 C323 1.398 . S
C323 C288 1.382 . S
C323 H300 0.951 . S
C323 C322 1.398 . S
C324 C325 1.384 . S
C324 H337 0.947 . S
C324 C359 1.382 . S
C325 C324 1.384 . S
C325 C326 1.378 . S
C326 C325 1.378 . S
C326 C327 1.378 . S
C326 H338 0.952 . S
C327 C326 1.378 . S
C327 H339 0.950 . S
C327 C358 1.383 . S
H328 C347 0.947 . S
H329 C348 0.946 . S
H330 C350 0.953 . S
H331 C351 0.945 . S
H332 C353 0.952 . S
H333 C354 0.949 . S
H334 C356 0.950 . S
H335 C357 0.948 . S
H336 C359 0.951 . S
H337 C324 0.947 . S
H338 C326 0.952 . S
H339 C327 0.950 . S
N340 C343 1.382 . S
N340 C345 1.363 . S
N341 C343 1.371 . S
N341 C344 1.372 . S
N342 C344 1.361 . S
N342 C345 1.377 . S
C343 N340 1.382 . S
C343 N341 1.371 . S
C343 C346 1.480 . S
C344 N341 1.372 . S
C344 N342 1.361 . S
C344 C352 1.457 . S
C345 N340 1.363 . S
C345 N342 1.377 . S
C345 C358 1.479 . S
C346 C343 1.480 . S
C346 C347 1.383 . S
C346 C351 1.385 . S
C347 H328 0.947 . S
C347 C346 1.383 . S
C347 C348 1.388 . S
C348 H329 0.946 . S
C348 C347 1.388 . S
C348 C349 1.384 . S
C349 C348 1.384 . S
C349 C350 1.377 . S
C350 H330 0.953 . S
C350 C349 1.377 . S
C350 C351 1.369 . S
C351 H331 0.945 . S
C351 C346 1.385 . S
C351 C350 1.369 . S
C352 C344 1.457 . S
C352 C353 1.372 . S
C352 C357 1.364 . S
C353 H332 0.952 . S
C353 C352 1.372 . S
C353 C354 1.389 . S
C354 H333 0.949 . S
C354 C353 1.389 . S
C354 C355 1.387 . S
C355 C354 1.387 . S
C355 C356 1.372 . S
C356 H334 0.950 . S
C356 C355 1.372 . S
C356 C357 1.379 . S
C357 H335 0.948 . S
C357 C352 1.364 . S
C357 C356 1.379 . S
C358 C327 1.383 . S
C358 C345 1.479 . S
C358 C359 1.398 . S
C359 C324 1.382 . S
C359 H336 0.951 . S
C359 C358 1.398 . S
C360 C361 1.384 . S
C360 H373 0.947 . S
C360 C395 1.382 . S
C361 C360 1.384 . S
C361 C362 1.378 . S
C362 C361 1.378 . S
C362 C363 1.378 . S
C362 H374 0.952 . S
C363 C362 1.378 . S
C363 H375 0.950 . S
C363 C394 1.383 . S
H364 C383 0.947 . S
H365 C384 0.946 . S
H366 C386 0.953 . S
H367 C387 0.945 . S
H368 C389 0.952 . S
H369 C390 0.949 . S
H370 C392 0.950 . S
H371 C393 0.948 . S
H372 C395 0.951 . S
H373 C360 0.947 . S
H374 C362 0.952 . S
H375 C363 0.950 . S
N376 C379 1.382 . S
N376 C381 1.363 . S
N377 C379 1.371 . S
N377 C380 1.372 . S
N378 C380 1.361 . S
N378 C381 1.377 . S
C379 N376 1.382 . S
C379 N377 1.371 . S
C379 C382 1.480 . S
C380 N377 1.372 . S
C380 N378 1.361 . S
C380 C388 1.457 . S
C381 N376 1.363 . S
C381 N378 1.377 . S
C381 C394 1.479 . S
C382 C379 1.480 . S
C382 C383 1.383 . S
C382 C387 1.385 . S
C383 H364 0.947 . S
C383 C382 1.383 . S
C383 C384 1.388 . S
C384 H365 0.946 . S
C384 C383 1.388 . S
C384 C385 1.384 . S
C385 C384 1.384 . S
C385 C386 1.377 . S
C386 H366 0.953 . S
C386 C385 1.377 . S
C386 C387 1.369 . S
C387 H367 0.945 . S
C387 C382 1.385 . S
C387 C386 1.369 . S
C388 C380 1.457 . S
C388 C389 1.372 . S
C388 C393 1.364 . S
C389 H368 0.952 . S
C389 C388 1.372 . S
C389 C390 1.389 . S
C390 H369 0.949 . S
C390 C389 1.389 . S
C390 C391 1.387 . S
C391 C390 1.387 . S
C391 C392 1.372 . S
C392 H370 0.950 . S
C392 C391 1.372 . S
C392 C393 1.379 . S
C393 H371 0.948 . S
C393 C388 1.364 . S
C393 C392 1.379 . S
C394 C363 1.383 . S
C394 C381 1.479 . S
C394 C395 1.398 . S
C395 C360 1.382 . S
C395 H372 0.951 . S
C395 C394 1.398 . S
C396 C397 1.384 . S
C396 H409 0.947 . S
C396 C431 1.382 . S
C397 C396 1.384 . S
C397 C398 1.378 . S
C398 C397 1.378 . S
C398 C399 1.378 . S
C398 H410 0.952 . S
C399 C398 1.378 . S
C399 H411 0.950 . S
C399 C430 1.383 . S
H400 C419 0.947 . S
H401 C420 0.946 . S
H402 C422 0.953 . S
H403 C423 0.945 . S
H404 C425 0.952 . S
H405 C426 0.949 . S
H406 C428 0.950 . S
H407 C429 0.948 . S
H408 C431 0.951 . S
H409 C396 0.947 . S
H410 C398 0.952 . S
H411 C399 0.950 . S
N412 C415 1.382 . S
N412 C417 1.363 . S
N413 C415 1.371 . S
N413 C416 1.372 . S
N414 C416 1.361 . S
N414 C417 1.377 . S
C415 N412 1.382 . S
C415 N413 1.371 . S
C415 C418 1.480 . S
C416 N413 1.372 . S
C416 N414 1.361 . S
C416 C424 1.457 . S
C417 N412 1.363 . S
C417 N414 1.377 . S
C417 C430 1.479 . S
C418 C415 1.480 . S
C418 C419 1.383 . S
C418 C423 1.385 . S
C419 H400 0.947 . S
C419 C418 1.383 . S
C419 C420 1.388 . S
C420 H401 0.946 . S
C420 C419 1.388 . S
C420 C421 1.384 . S
C421 C420 1.384 . S
C421 C422 1.377 . S
C422 H402 0.953 . S
C422 C421 1.377 . S
C422 C423 1.369 . S
C423 H403 0.945 . S
C423 C418 1.385 . S
C423 C422 1.369 . S
C424 C416 1.457 . S
C424 C425 1.372 . S
C424 C429 1.364 . S
C425 H404 0.952 . S
C425 C424 1.372 . S
C425 C426 1.389 . S
C426 H405 0.949 . S
C426 C425 1.389 . S
C426 C427 1.387 . S
C427 C426 1.387 . S
C427 C428 1.372 . S
C428 H406 0.950 . S
C428 C427 1.372 . S
C428 C429 1.379 . S
C429 H407 0.948 . S
C429 C424 1.364 . S
C429 C428 1.379 . S
C430 C399 1.383 . S
C430 C417 1.479 . S
C430 C431 1.398 . S
C431 C396 1.382 . S
C431 H408 0.951 . S
C431 C430 1.398 . S
C432 C433 1.384 . S
C432 H445 0.947 . S
C432 C467 1.382 . S
C433 C432 1.384 . S
C433 C434 1.378 . S
C434 C433 1.378 . S
C434 C435 1.378 . S
C434 H446 0.952 . S
C435 C434 1.378 . S
C435 H447 0.950 . S
C435 C466 1.383 . S
H436 C455 0.947 . S
H437 C456 0.946 . S
H438 C458 0.953 . S
H439 C459 0.945 . S
H440 C461 0.952 . S
H441 C462 0.949 . S
H442 C464 0.950 . S
H443 C465 0.948 . S
H444 C467 0.951 . S
H445 C432 0.947 . S
H446 C434 0.952 . S
H447 C435 0.950 . S
N448 C451 1.382 . S
N448 C453 1.363 . S
N449 C451 1.371 . S
N449 C452 1.372 . S
N450 C452 1.361 . S
N450 C453 1.377 . S
C451 N448 1.382 . S
C451 N449 1.371 . S
C451 C454 1.480 . S
C452 N449 1.372 . S
C452 N450 1.361 . S
C452 C460 1.457 . S
C453 N448 1.363 . S
C453 N450 1.377 . S
C453 C466 1.479 . S
C454 C451 1.480 . S
C454 C455 1.383 . S
C454 C459 1.385 . S
C455 H436 0.947 . S
C455 C454 1.383 . S
C455 C456 1.388 . S
C456 H437 0.946 . S
C456 C455 1.388 . S
C456 C457 1.384 . S
C457 C456 1.384 . S
C457 C458 1.377 . S
C458 H438 0.953 . S
C458 C457 1.377 . S
C458 C459 1.369 . S
C459 H439 0.945 . S
C459 C454 1.385 . S
C459 C458 1.369 . S
C460 C452 1.457 . S
C460 C461 1.372 . S
C460 C465 1.364 . S
C461 H440 0.952 . S
C461 C460 1.372 . S
C461 C462 1.389 . S
C462 H441 0.949 . S
C462 C461 1.389 . S
C462 C463 1.387 . S
C463 C462 1.387 . S
C463 C464 1.372 . S
C464 H442 0.950 . S
C464 C463 1.372 . S
C464 C465 1.379 . S
C465 H443 0.948 . S
C465 C460 1.364 . S
C465 C464 1.379 . S
C466 C435 1.383 . S
C466 C453 1.479 . S
C466 C467 1.398 . S
C467 C432 1.382 . S
C467 H444 0.951 . S
C467 C466 1.398 . S
C468 C469 1.384 . S
C468 H481 0.947 . S
C468 C503 1.382 . S
C469 C468 1.384 . S
C469 C470 1.378 . S
C470 C469 1.378 . S
C470 C471 1.378 . S
C470 H482 0.952 . S
C471 C470 1.378 . S
C471 H483 0.950 . S
C471 C502 1.383 . S
H472 C491 0.947 . S
H473 C492 0.946 . S
H474 C494 0.953 . S
H475 C495 0.945 . S
H476 C497 0.952 . S
H477 C498 0.949 . S
H478 C500 0.950 . S
H479 C501 0.948 . S
H480 C503 0.951 . S
H481 C468 0.947 . S
H482 C470 0.952 . S
H483 C471 0.950 . S
N484 C487 1.382 . S
N484 C489 1.363 . S
N485 C487 1.371 . S
N485 C488 1.372 . S
N486 C488 1.361 . S
N486 C489 1.377 . S
C487 N484 1.382 . S
C487 N485 1.371 . S
C487 C490 1.480 . S
C488 N485 1.372 . S
C488 N486 1.361 . S
C488 C496 1.457 . S
C489 N484 1.363 . S
C489 N486 1.377 . S
C489 C502 1.479 . S
C490 C487 1.480 . S
C490 C491 1.383 . S
C490 C495 1.385 . S
C491 H472 0.947 . S
C491 C490 1.383 . S
C491 C492 1.388 . S
C492 H473 0.946 . S
C492 C491 1.388 . S
C492 C493 1.384 . S
C493 C492 1.384 . S
C493 C494 1.377 . S
C494 H474 0.953 . S
C494 C493 1.377 . S
C494 C495 1.369 . S
C495 H475 0.945 . S
C495 C490 1.385 . S
C495 C494 1.369 . S
C496 C488 1.457 . S
C496 C497 1.372 . S
C496 C501 1.364 . S
C497 H476 0.952 . S
C497 C496 1.372 . S
C497 C498 1.389 . S
C498 H477 0.949 . S
C498 C497 1.389 . S
C498 C499 1.387 . S
C499 C498 1.387 . S
C499 C500 1.372 . S
C500 H478 0.950 . S
C500 C499 1.372 . S
C500 C501 1.379 . S
C501 H479 0.948 . S
C501 C496 1.364 . S
C501 C500 1.379 . S
C502 C471 1.383 . S
C502 C489 1.479 . S
C502 C503 1.398 . S
C503 C468 1.382 . S
C503 H480 0.951 . S
C503 C502 1.398 . S
C504 C505 1.384 . S
C504 H517 0.947 . S
C504 C539 1.382 . S
C505 C504 1.384 . S
C505 C506 1.378 . S
C506 C505 1.378 . S
C506 C507 1.378 . S
C506 H518 0.952 . S
C507 C506 1.378 . S
C507 H519 0.950 . S
C507 C538 1.383 . S
H508 C527 0.947 . S
H509 C528 0.946 . S
H510 C530 0.953 . S
H511 C531 0.945 . S
H512 C533 0.952 . S
H513 C534 0.949 . S
H514 C536 0.950 . S
H515 C537 0.948 . S
H516 C539 0.951 . S
H517 C504 0.947 . S
H518 C506 0.952 . S
H519 C507 0.950 . S
N520 C523 1.382 . S
N520 C525 1.363 . S
N521 C523 1.371 . S
N521 C524 1.372 . S
N522 C524 1.361 . S
N522 C525 1.377 . S
C523 N520 1.382 . S
C523 N521 1.371 . S
C523 C526 1.480 . S
C524 N521 1.372 . S
C524 N522 1.361 . S
C524 C532 1.457 . S
C525 N520 1.363 . S
C525 N522 1.377 . S
C525 C538 1.479 . S
C526 C523 1.480 . S
C526 C527 1.383 . S
C526 C531 1.385 . S
C527 H508 0.947 . S
C527 C526 1.383 . S
C527 C528 1.388 . S
C528 H509 0.946 . S
C528 C527 1.388 . S
C528 C529 1.384 . S
C529 C528 1.384 . S
C529 C530 1.377 . S
C530 H510 0.953 . S
C530 C529 1.377 . S
C530 C531 1.369 . S
C531 H511 0.945 . S
C531 C526 1.385 . S
C531 C530 1.369 . S
C532 C524 1.457 . S
C532 C533 1.372 . S
C532 C537 1.364 . S
C533 H512 0.952 . S
C533 C532 1.372 . S
C533 C534 1.389 . S
C534 H513 0.949 . S
C534 C533 1.389 . S
C534 C535 1.387 . S
C535 C534 1.387 . S
C535 C536 1.372 . S
C536 H514 0.950 . S
C536 C535 1.372 . S
C536 C537 1.379 . S
C537 H515 0.948 . S
C537 C532 1.364 . S
C537 C536 1.379 . S
C538 C507 1.383 . S
C538 C525 1.479 . S
C538 C539 1.398 . S
C539 C504 1.382 . S
C539 H516 0.951 . S
C539 C538 1.398 . S
C540 C541 1.384 . S
C540 H553 0.947 . S
C540 C575 1.382 . S
C541 C540 1.384 . S
C541 C542 1.378 . S
C542 C541 1.378 . S
C542 C543 1.378 . S
C542 H554 0.952 . S
C543 C542 1.378 . S
C543 H555 0.950 . S
C543 C574 1.383 . S
H544 C563 0.947 . S
H545 C564 0.946 . S
H546 C566 0.953 . S
H547 C567 0.945 . S
H548 C569 0.952 . S
H549 C570 0.949 . S
H550 C572 0.950 . S
H551 C573 0.948 . S
H552 C575 0.951 . S
H553 C540 0.947 . S
H554 C542 0.952 . S
H555 C543 0.950 . S
N556 C559 1.382 . S
N556 C561 1.363 . S
N557 C559 1.371 . S
N557 C560 1.372 . S
N558 C560 1.361 . S
N558 C561 1.377 . S
C559 N556 1.382 . S
C559 N557 1.371 . S
C559 C562 1.480 . S
C560 N557 1.372 . S
C560 N558 1.361 . S
C560 C568 1.457 . S
C561 N556 1.363 . S
C561 N558 1.377 . S
C561 C574 1.479 . S
C562 C559 1.480 . S
C562 C563 1.383 . S
C562 C567 1.385 . S
C563 H544 0.947 . S
C563 C562 1.383 . S
C563 C564 1.388 . S
C564 H545 0.946 . S
C564 C563 1.388 . S
C564 C565 1.384 . S
C565 C564 1.384 . S
C565 C566 1.377 . S
C566 H546 0.953 . S
C566 C565 1.377 . S
C566 C567 1.369 . S
C567 H547 0.945 . S
C567 C562 1.385 . S
C567 C566 1.369 . S
C568 C560 1.457 . S
C568 C569 1.372 . S
C568 C573 1.364 . S
C569 H548 0.952 . S
C569 C568 1.372 . S
C569 C570 1.389 . S
C570 H549 0.949 . S
C570 C569 1.389 . S
C570 C571 1.387 . S
C571 C570 1.387 . S
C571 C572 1.372 . S
C572 H550 0.950 . S
C572 C571 1.372 . S
C572 C573 1.379 . S
C573 H551 0.948 . S
C573 C568 1.364 . S
C573 C572 1.379 . S
C574 C543 1.383 . S
C574 C561 1.479 . S
C574 C575 1.398 . S
C575 C540 1.382 . S
C575 H552 0.951 . S
C575 C574 1.398 . S
C576 C577 1.384 . S
C576 H589 0.947 . S
C576 C611 1.382 . S
C577 C576 1.384 . S
C577 C578 1.378 . S
C578 C577 1.378 . S
C578 C579 1.378 . S
C578 H590 0.952 . S
C579 C578 1.378 . S
C579 H591 0.950 . S
C579 C610 1.383 . S
H580 C599 0.947 . S
H581 C600 0.946 . S
H582 C602 0.953 . S
H583 C603 0.945 . S
H584 C605 0.952 . S
H585 C606 0.949 . S
H586 C608 0.950 . S
H587 C609 0.948 . S
H588 C611 0.951 . S
H589 C576 0.947 . S
H590 C578 0.952 . S
H591 C579 0.950 . S
N592 C595 1.382 . S
N592 C597 1.363 . S
N593 C595 1.371 . S
N593 C596 1.372 . S
N594 C596 1.361 . S
N594 C597 1.377 . S
C595 N592 1.382 . S
C595 N593 1.371 . S
C595 C598 1.480 . S
C596 N593 1.372 . S
C596 N594 1.361 . S
C596 C604 1.457 . S
C597 N592 1.363 . S
C597 N594 1.377 . S
C597 C610 1.479 . S
C598 C595 1.480 . S
C598 C599 1.383 . S
C598 C603 1.385 . S
C599 H580 0.947 . S
C599 C598 1.383 . S
C599 C600 1.388 . S
C600 H581 0.946 . S
C600 C599 1.388 . S
C600 C601 1.384 . S
C601 C600 1.384 . S
C601 C602 1.377 . S
C602 H582 0.953 . S
C602 C601 1.377 . S
C602 C603 1.369 . S
C603 H583 0.945 . S
C603 C598 1.385 . S
C603 C602 1.369 . S
C604 C596 1.457 . S
C604 C605 1.372 . S
C604 C609 1.364 . S
C605 H584 0.952 . S
C605 C604 1.372 . S
C605 C606 1.389 . S
C606 H585 0.949 . S
C606 C605 1.389 . S
C606 C607 1.387 . S
C607 C606 1.387 . S
C607 C608 1.372 . S
C608 H586 0.950 . S
C608 C607 1.372 . S
C608 C609 1.379 . S
C609 H587 0.948 . S
C609 C604 1.364 . S
C609 C608 1.379 . S
C610 C579 1.383 . S
C610 C597 1.479 . S
C610 C611 1.398 . S
C611 C576 1.382 . S
C611 H588 0.951 . S
C611 C610 1.398 . S
C612 C613 1.384 . S
C612 H625 0.947 . S
C612 C647 1.382 . S
C613 C612 1.384 . S
C613 C614 1.378 . S
C614 C613 1.378 . S
C614 C615 1.378 . S
C614 H626 0.952 . S
C615 C614 1.378 . S
C615 H627 0.950 . S
C615 C646 1.383 . S
H616 C635 0.947 . S
H617 C636 0.946 . S
H618 C638 0.953 . S
H619 C639 0.945 . S
H620 C641 0.952 . S
H621 C642 0.949 . S
H622 C644 0.950 . S
H623 C645 0.948 . S
H624 C647 0.951 . S
H625 C612 0.947 . S
H626 C614 0.952 . S
H627 C615 0.950 . S
N628 C631 1.382 . S
N628 C633 1.363 . S
N629 C631 1.371 . S
N629 C632 1.372 . S
N630 C632 1.361 . S
N630 C633 1.377 . S
C631 N628 1.382 . S
C631 N629 1.371 . S
C631 C634 1.480 . S
C632 N629 1.372 . S
C632 N630 1.361 . S
C632 C640 1.457 . S
C633 N628 1.363 . S
C633 N630 1.377 . S
C633 C646 1.479 . S
C634 C631 1.480 . S
C634 C635 1.383 . S
C634 C639 1.385 . S
C635 H616 0.947 . S
C635 C634 1.383 . S
C635 C636 1.388 . S
C636 H617 0.946 . S
C636 C635 1.388 . S
C636 C637 1.384 . S
C637 C636 1.384 . S
C637 C638 1.377 . S
C638 H618 0.953 . S
C638 C637 1.377 . S
C638 C639 1.369 . S
C639 H619 0.945 . S
C639 C634 1.385 . S
C639 C638 1.369 . S
C640 C632 1.457 . S
C640 C641 1.372 . S
C640 C645 1.364 . S
C641 H620 0.952 . S
C641 C640 1.372 . S
C641 C642 1.389 . S
C642 H621 0.949 . S
C642 C641 1.389 . S
C642 C643 1.387 . S
C643 C642 1.387 . S
C643 C644 1.372 . S
C644 H622 0.950 . S
C644 C643 1.372 . S
C644 C645 1.379 . S
C645 H623 0.948 . S
C645 C640 1.364 . S
C645 C644 1.379 . S
C646 C615 1.383 . S
C646 C633 1.479 . S
C646 C647 1.398 . S
C647 C612 1.382 . S
C647 H624 0.951 . S
C647 C646 1.398 . S
Tb648 O651 2.453 . S
Tb648 O652 2.596 1_545 S
Tb648 O653 2.374 1_545 S
Tb648 O661 2.343 1_554 S
Tb648 O663 2.353 . S
Tb648 O665 2.427 1_554 S
Tb648 O666 2.513 1_554 S
C649 O653 1.251 . S
C649 O655 1.248 1_554 S
Tb650 O652 2.343 1_556 S
Tb650 O655 2.360 . S
Tb650 O658 2.427 1_556 S
Tb650 O659 2.513 1_556 S
Tb650 O660 2.453 . S
Tb650 O661 2.596 1_565 S
Tb650 O662 2.374 1_565 S
O651 Tb648 2.453 . S
O651 C667 1.245 . S
O652 Tb648 2.596 1_565 S
O652 Tb650 2.343 1_554 S
O652 C667 1.259 1_565 S
O653 Tb648 2.374 1_565 S
O653 C649 1.251 . S
C654 O658 1.275 . S
C654 O659 1.246 . S
O655 C649 1.248 1_556 S
O655 Tb650 2.360 . S
C656 O660 1.273 . S
C656 O661 1.254 1_565 S
C657 O662 1.250 . S
C657 O663 1.263 1_556 S
O658 Tb650 2.427 1_554 S
O658 C654 1.275 . S
O659 Tb650 2.513 1_554 S
O659 C654 1.246 . S
O660 Tb650 2.453 . S
O660 C656 1.273 . S
O661 Tb648 2.343 1_556 S
O661 Tb650 2.596 1_545 S
O661 C656 1.254 1_545 S
O662 Tb650 2.374 1_545 S
O662 C657 1.250 . S
O663 Tb648 2.353 . S
O663 C657 1.263 1_554 S
C664 O665 1.275 . S
C664 O666 1.246 . S
O665 Tb648 2.427 1_556 S
O665 C664 1.275 . S
O666 Tb648 2.513 1_556 S
O666 C664 1.246 . S
C667 O651 1.245 . S
C667 O652 1.259 1_545 S
Tb668 O671 2.453 . S
Tb668 O672 2.596 1_655 S
Tb668 O673 2.374 1_655 S
Tb668 O681 2.343 1_554 S
Tb668 O683 2.356 . S
Tb668 O685 2.427 1_554 S
Tb668 O686 2.513 1_554 S
C669 O673 1.251 . S
C669 O675 1.263 . S
Tb670 O672 2.343 1_556 S
Tb670 O675 2.353 1_556 S
Tb670 O678 2.427 1_556 S
Tb670 O679 2.513 1_556 S
Tb670 O680 2.453 . S
Tb670 O681 2.596 1_455 S
Tb670 O682 2.374 1_455 S
O671 Tb668 2.453 . S
O671 C687 1.245 1_655 S
O672 Tb668 2.596 1_455 S
O672 Tb670 2.343 1_554 S
O672 C687 1.259 . S
O673 Tb668 2.374 1_455 S
O673 C669 1.251 . S
C674 O678 1.275 . S
C674 O679 1.246 . S
O675 C669 1.263 . S
O675 Tb670 2.353 1_554 S
C676 O680 1.241 . S
C676 O681 1.261 1_455 S
C677 O682 1.250 . S
C677 O683 1.256 1_556 S
O678 Tb670 2.427 1_554 S
O678 C674 1.275 . S
O679 Tb670 2.513 1_554 S
O679 C674 1.246 . S
O680 Tb670 2.453 . S
O680 C676 1.241 . S
O681 Tb668 2.343 1_556 S
O681 Tb670 2.596 1_655 S
O681 C676 1.261 1_655 S
O682 Tb670 2.374 1_655 S
O682 C677 1.250 . S
O683 Tb668 2.356 . S
O683 C677 1.256 1_554 S
C684 O685 1.275 . S
C684 O686 1.246 . S
O685 Tb668 2.427 1_556 S
O685 C684 1.275 . S
O686 Tb668 2.513 1_556 S
O686 C684 1.246 . S
C687 O671 1.245 1_455 S
C687 O672 1.259 . S
Tb688 O691 2.453 . S
Tb688 O692 2.596 . S
Tb688 O693 2.374 . S
Tb688 O701 2.343 1_556 S
Tb688 O703 2.353 1_556 S
Tb688 O705 2.427 1_556 S
Tb688 O706 2.513 1_556 S
C689 O693 1.251 . S
C689 O695 1.263 1_556 S
Tb690 O692 2.343 1_554 S
Tb690 O695 2.353 . S
Tb690 O698 2.427 1_554 S
Tb690 O699 2.513 1_554 S
Tb690 O700 2.453 . S
Tb690 O701 2.596 . S
Tb690 O702 2.374 . S
O691 Tb688 2.453 . S
O691 C707 1.245 . S
O692 Tb688 2.596 . S
O692 Tb690 2.343 1_556 S
O692 C707 1.259 . S
O693 Tb688 2.374 . S
O693 C689 1.251 . S
C694 O698 1.275 . S
C694 O699 1.246 . S
O695 C689 1.263 1_554 S
O695 Tb690 2.353 . S
C696 O700 1.245 . S
C696 O701 1.259 . S
C697 O702 1.250 . S
C697 O703 1.263 . S
O698 Tb690 2.427 1_556 S
O698 C694 1.275 . S
O699 Tb690 2.513 1_556 S
O699 C694 1.246 . S
O700 Tb690 2.453 . S
O700 C696 1.245 . S
O701 Tb688 2.343 1_554 S
O701 Tb690 2.596 . S
O701 C696 1.259 . S
O702 Tb690 2.374 . S
O702 C697 1.250 . S
O703 Tb688 2.353 1_554 S
O703 C697 1.263 . S
C704 O705 1.275 . S
C704 O706 1.246 . S
O705 Tb688 2.427 1_554 S
O705 C704 1.275 . S
O706 Tb688 2.513 1_554 S
O706 C704 1.246 . S
C707 O691 1.245 . S
C707 O692 1.259 . S
Tb708 O711 2.453 . S
Tb708 O712 2.596 . S
Tb708 O713 2.374 . S
Tb708 O721 2.343 . S
Tb708 O723 2.353 . S
Tb708 O725 2.427 . S
Tb708 O726 2.513 . S
C709 O713 1.251 . S
C709 O715 1.263 . S
Tb710 O712 2.343 . S
Tb710 O715 2.353 . S
Tb710 O718 2.427 . S
Tb710 O719 2.513 . S
Tb710 O720 2.453 . S
Tb710 O721 2.596 . S
Tb710 O722 2.374 . S
O711 Tb708 2.453 . S
O711 C727 1.245 . S
O712 Tb708 2.596 . S
O712 Tb710 2.343 . S
O712 C727 1.259 . S
O713 Tb708 2.374 . S
O713 C709 1.251 . S
C714 O718 1.275 . S
C714 O719 1.246 . S
O715 C709 1.263 . S
O715 Tb710 2.353 . S
C716 O720 1.245 . S
C716 O721 1.259 . S
C717 O722 1.250 . S
C717 O723 1.263 . S
O718 Tb710 2.427 . S
O718 C714 1.275 . S
O719 Tb710 2.513 . S
O719 C714 1.246 . S
O720 Tb710 2.453 . S
O720 C716 1.245 . S
O721 Tb708 2.343 . S
O721 Tb710 2.596 . S
O721 C716 1.259 . S
O722 Tb710 2.374 . S
O722 C717 1.250 . S
O723 Tb708 2.353 . S
O723 C717 1.263 . S
C724 O725 1.275 . S
C724 O726 1.246 . S
O725 Tb708 2.427 . S
O725 C724 1.275 . S
O726 Tb708 2.513 . S
O726 C724 1.246 . S
C727 O711 1.245 . S
C727 O712 1.259 . S
Tb728 O731 2.453 . S
Tb728 O732 2.596 . S
Tb728 O733 2.374 . S
Tb728 O741 2.343 . S
Tb728 O743 2.353 . S
Tb728 O745 2.427 . S
Tb728 O746 2.513 . S
C729 O733 1.251 . S
C729 O735 1.263 . S
Tb730 O732 2.343 . S
Tb730 O735 2.353 . S
Tb730 O738 2.427 . S
Tb730 O739 2.513 . S
Tb730 O740 2.453 . S
Tb730 O741 2.596 . S
Tb730 O742 2.374 . S
O731 Tb728 2.453 . S
O731 C747 1.245 . S
O732 Tb728 2.596 . S
O732 Tb730 2.343 . S
O732 C747 1.259 . S
O733 Tb728 2.374 . S
O733 C729 1.251 . S
C734 O738 1.275 . S
C734 O739 1.246 . S
O735 C729 1.263 . S
O735 Tb730 2.353 . S
C736 O740 1.245 . S
C736 O741 1.259 . S
C737 O742 1.250 . S
C737 O743 1.263 . S
O738 Tb730 2.427 . S
O738 C734 1.275 . S
O739 Tb730 2.513 . S
O739 C734 1.246 . S
O740 Tb730 2.453 . S
O740 C736 1.245 . S
O741 Tb728 2.343 . S
O741 Tb730 2.596 . S
O741 C736 1.259 . S
O742 Tb730 2.374 . S
O742 C737 1.250 . S
O743 Tb728 2.353 . S
O743 C737 1.263 . S
C744 O745 1.275 . S
C744 O746 1.246 . S
O745 Tb728 2.427 . S
O745 C744 1.275 . S
O746 Tb728 2.513 . S
O746 C744 1.246 . S
C747 O731 1.245 . S
C747 O732 1.259 . S
Tb748 O751 2.453 . S
Tb748 O752 2.596 . S
Tb748 O753 2.374 . S
Tb748 O761 2.343 . S
Tb748 O763 2.353 . S
Tb748 O765 2.427 . S
Tb748 O766 2.513 . S
C749 O753 1.251 . S
C749 O755 1.263 . S
Tb750 O752 2.343 . S
Tb750 O755 2.353 . S
Tb750 O758 2.427 . S
Tb750 O759 2.513 . S
Tb750 O760 2.453 . S
Tb750 O761 2.596 . S
Tb750 O762 2.374 . S
O751 Tb748 2.453 . S
O751 C767 1.245 . S
O752 Tb748 2.596 . S
O752 Tb750 2.343 . S
O752 C767 1.259 . S
O753 Tb748 2.374 . S
O753 C749 1.251 . S
C754 O758 1.275 . S
C754 O759 1.246 . S
O755 C749 1.263 . S
O755 Tb750 2.353 . S
C756 O760 1.245 . S
C756 O761 1.259 . S
C757 O762 1.250 . S
C757 O763 1.263 . S
O758 Tb750 2.427 . S
O758 C754 1.275 . S
O759 Tb750 2.513 . S
O759 C754 1.246 . S
O760 Tb750 2.453 . S
O760 C756 1.245 . S
O761 Tb748 2.343 . S
O761 Tb750 2.596 . S
O761 C756 1.259 . S
O762 Tb750 2.374 . S
O762 C757 1.250 . S
O763 Tb748 2.353 . S
O763 C757 1.263 . S
C764 O765 1.275 . S
C764 O766 1.246 . S
O765 Tb748 2.427 . S
O765 C764 1.275 . S
O766 Tb748 2.513 . S
O766 C764 1.246 . S
C767 O751 1.245 . S
C767 O752 1.259 . S
Tb768 O771 2.453 . S
Tb768 O772 2.596 . S
Tb768 O773 2.374 . S
Tb768 O781 2.343 . S
Tb768 O783 2.353 . S
Tb768 O785 2.427 . S
Tb768 O786 2.513 . S
C769 O773 1.251 . S
C769 O775 1.263 . S
Tb770 O772 2.343 . S
Tb770 O775 2.353 . S
Tb770 O778 2.427 . S
Tb770 O779 2.513 . S
Tb770 O780 2.453 . S
Tb770 O781 2.596 . S
Tb770 O782 2.374 . S
O771 Tb768 2.453 . S
O771 C787 1.245 . S
O772 Tb768 2.596 . S
O772 Tb770 2.343 . S
O772 C787 1.259 . S
O773 Tb768 2.374 . S
O773 C769 1.251 . S
C774 O778 1.275 . S
C774 O779 1.246 . S
O775 C769 1.263 . S
O775 Tb770 2.353 . S
C776 O780 1.245 . S
C776 O781 1.259 . S
C777 O782 1.250 . S
C777 O783 1.263 . S
O778 Tb770 2.427 . S
O778 C774 1.275 . S
O779 Tb770 2.513 . S
O779 C774 1.246 . S
O780 Tb770 2.453 . S
O780 C776 1.245 . S
O781 Tb768 2.343 . S
O781 Tb770 2.596 . S
O781 C776 1.259 . S
O782 Tb770 2.374 . S
O782 C777 1.250 . S
O783 Tb768 2.353 . S
O783 C777 1.263 . S
C784 O785 1.275 . S
C784 O786 1.246 . S
O785 Tb768 2.427 . S
O785 C784 1.275 . S
O786 Tb768 2.513 . S
O786 C784 1.246 . S
C787 O771 1.245 . S
C787 O772 1.259 . S
Tb788 O791 2.453 . S
Tb788 O792 2.596 . S
Tb788 O793 2.374 . S
Tb788 O801 2.343 . S
Tb788 O803 2.353 . S
Tb788 O805 2.427 . S
Tb788 O806 2.513 . S
C789 O793 1.251 . S
C789 O795 1.263 . S
Tb790 O792 2.343 . S
Tb790 O795 2.353 . S
Tb790 O798 2.427 . S
Tb790 O799 2.513 . S
Tb790 O800 2.453 . S
Tb790 O801 2.596 . S
Tb790 O802 2.374 . S
O791 Tb788 2.453 . S
O791 C807 1.245 . S
O792 Tb788 2.596 . S
O792 Tb790 2.343 . S
O792 C807 1.259 . S
O793 Tb788 2.374 . S
O793 C789 1.251 . S
C794 O798 1.275 . S
C794 O799 1.246 . S
O795 C789 1.263 . S
O795 Tb790 2.353 . S
C796 O800 1.245 . S
C796 O801 1.259 . S
C797 O802 1.250 . S
C797 O803 1.263 . S
O798 Tb790 2.427 . S
O798 C794 1.275 . S
O799 Tb790 2.513 . S
O799 C794 1.246 . S
O800 Tb790 2.453 . S
O800 C796 1.245 . S
O801 Tb788 2.343 . S
O801 Tb790 2.596 . S
O801 C796 1.259 . S
O802 Tb790 2.374 . S
O802 C797 1.250 . S
O803 Tb788 2.353 . S
O803 C797 1.263 . S
C804 O805 1.275 . S
C804 O806 1.246 . S
O805 Tb788 2.427 . S
O805 C804 1.275 . S
O806 Tb788 2.513 . S
O806 C804 1.246 . S
C807 O791 1.245 . S
C807 O792 1.259 . S
Tb808 O811 2.453 . S
Tb808 O812 2.596 . S
Tb808 O813 2.374 . S
Tb808 O821 2.343 . S
Tb808 O823 2.353 . S
Tb808 O825 2.427 . S
Tb808 O826 2.513 . S
C809 O813 1.251 . S
C809 O815 1.263 . S
Tb810 O812 2.343 . S
Tb810 O815 2.353 . S
Tb810 O818 2.427 . S
Tb810 O819 2.513 . S
Tb810 O820 2.453 . S
Tb810 O821 2.596 . S
Tb810 O822 2.374 . S
O811 Tb808 2.453 . S
O811 C827 1.245 . S
O812 Tb808 2.596 . S
O812 Tb810 2.343 . S
O812 C827 1.259 . S
O813 Tb808 2.374 . S
O813 C809 1.251 . S
C814 O818 1.275 . S
C814 O819 1.246 . S
O815 C809 1.263 . S
O815 Tb810 2.353 . S
C816 O820 1.245 . S
C816 O821 1.259 . S
C817 O822 1.250 . S
C817 O823 1.263 . S
O818 Tb810 2.427 . S
O818 C814 1.275 . S
O819 Tb810 2.513 . S
O819 C814 1.246 . S
O820 Tb810 2.453 . S
O820 C816 1.245 . S
O821 Tb808 2.343 . S
O821 Tb810 2.596 . S
O821 C816 1.259 . S
O822 Tb810 2.374 . S
O822 C817 1.250 . S
O823 Tb808 2.353 . S
O823 C817 1.263 . S
C824 O825 1.275 . S
C824 O826 1.246 . S
O825 Tb808 2.427 . S
O825 C824 1.275 . S
O826 Tb808 2.513 . S
O826 C824 1.246 . S
C827 O811 1.245 . S
C827 O812 1.259 . S
H828 C834 0.930 . S
H829 C838 0.930 . S
H830 C843 0.929 . S
H831 C841 0.929 . S
H832 C836 0.929 . S
H833 C842 0.929 . S
C834 H828 0.930 . S
C834 C835 1.367 . S
C834 C842 1.378 . S
C835 C834 1.367 . S
C835 C843 1.433 . S
C836 H832 0.929 . S
C836 C838 1.378 . S
C836 C840 1.350 . S
C837 C840 1.463 . S
C837 C842 1.350 . S
C837 N845 1.427 . S
C838 H829 0.930 . S
C838 C836 1.378 . S
C838 C839 1.367 . S
C839 C838 1.367 . S
C839 C841 1.433 . S
C840 C836 1.350 . S
C840 C837 1.463 . S
C840 N844 1.427 . S
C841 H831 0.929 . S
C841 C839 1.433 . S
C841 N844 1.384 . S
C842 H833 0.929 . S
C842 C834 1.378 . S
C842 C837 1.350 . S
C843 H830 0.929 . S
C843 C835 1.433 . S
C843 N845 1.384 . S
N844 C840 1.427 . S
N844 C841 1.384 . S
N845 C837 1.427 . S
N845 C843 1.384 . S
H846 C852 0.930 . S
H847 C856 0.930 . S
H848 C861 0.929 . S
H849 C859 0.929 . S
H850 C854 0.929 . S
H851 C860 0.929 . S
C852 H846 0.930 . S
C852 C853 1.367 . S
C852 C860 1.378 . S
C853 C852 1.367 . S
C853 C861 1.433 . S
C854 H850 0.929 . S
C854 C856 1.378 . S
C854 C858 1.350 . S
C855 C858 1.463 . S
C855 C860 1.350 . S
C855 N863 1.427 . S
C856 H847 0.930 . S
C856 C854 1.378 . S
C856 C857 1.367 . S
C857 C856 1.367 . S
C857 C859 1.433 . S
C858 C854 1.350 . S
C858 C855 1.463 . S
C858 N862 1.427 . S
C859 H849 0.929 . S
C859 C857 1.433 . S
C859 N862 1.384 . S
C860 H851 0.929 . S
C860 C852 1.378 . S
C860 C855 1.350 . S
C861 H848 0.929 . S
C861 C853 1.433 . S
C861 N863 1.384 . S
N862 C858 1.427 . S
N862 C859 1.384 . S
N863 C855 1.427 . S
N863 C861 1.384 . S
H864 C870 0.930 . S
H865 C874 0.930 . S
H866 C879 0.929 . S
H867 C877 0.929 1_556 S
H868 C872 0.929 . S
H869 C878 0.929 . S
C870 H864 0.930 . S
C870 C871 1.367 . S
C870 C878 1.378 . S
C871 C870 1.367 . S
C871 C879 1.433 . S
C872 H868 0.929 . S
C872 C874 1.378 . S
C872 C876 1.350 . S
C873 C876 1.463 . S
C873 C878 1.350 . S
C873 N881 1.427 . S
C874 H865 0.930 . S
C874 C872 1.378 . S
C874 C875 1.367 . S
C875 C874 1.367 . S
C875 C877 1.433 . S
C876 C872 1.350 . S
C876 C873 1.463 . S
C876 N880 1.427 . S
C877 H867 0.929 1_554 S
C877 C875 1.433 . S
C877 N880 1.384 . S
C878 H869 0.929 . S
C878 C870 1.378 . S
C878 C873 1.350 . S
C879 H866 0.929 . S
C879 C871 1.433 . S
C879 N881 1.384 . S
N880 C876 1.427 . S
N880 C877 1.384 . S
N881 C873 1.427 . S
N881 C879 1.384 . S
H882 C888 0.930 . S
H883 C892 0.930 . S
H884 C897 0.929 . S
H885 C895 0.929 . S
H886 C890 0.929 . S
H887 C896 0.929 . S
C888 H882 0.930 . S
C888 C889 1.367 . S
C888 C896 1.378 . S
C889 C888 1.367 . S
C889 C897 1.433 . S
C890 H886 0.929 . S
C890 C892 1.378 . S
C890 C894 1.350 . S
C891 C894 1.463 . S
C891 C896 1.350 . S
C891 N899 1.427 . S
C892 H883 0.930 . S
C892 C890 1.378 . S
C892 C893 1.367 . S
C893 C892 1.367 . S
C893 C895 1.433 . S
C894 C890 1.350 . S
C894 C891 1.463 . S
C894 N898 1.427 . S
C895 H885 0.929 . S
C895 C893 1.433 . S
C895 N898 1.384 . S
C896 H887 0.929 . S
C896 C888 1.378 . S
C896 C891 1.350 . S
C897 H884 0.929 . S
C897 C889 1.433 . S
C897 N899 1.384 . S
N898 C894 1.427 . S
N898 C895 1.384 . S
N899 C891 1.427 . S
N899 C897 1.384 . S
H900 C906 0.930 . S
H901 C910 0.930 . S
H902 C915 0.929 . S
H903 C913 0.929 . S
H904 C908 0.929 . S
H905 C914 0.929 . S
C906 H900 0.930 . S
C906 C907 1.367 . S
C906 C914 1.378 . S
C907 C906 1.367 . S
C907 C915 1.433 . S
C908 H904 0.929 . S
C908 C910 1.378 . S
C908 C912 1.350 . S
C909 C912 1.463 . S
C909 C914 1.350 . S
C909 N917 1.427 . S
C910 H901 0.930 . S
C910 C908 1.378 . S
C910 C911 1.367 . S
C911 C910 1.367 . S
C911 C913 1.433 . S
C912 C908 1.350 . S
C912 C909 1.463 . S
C912 N916 1.427 . S
C913 H903 0.929 . S
C913 C911 1.433 . S
C913 N916 1.384 . S
C914 H905 0.929 . S
C914 C906 1.378 . S
C914 C909 1.350 . S
C915 H902 0.929 . S
C915 C907 1.433 . S
C915 N917 1.384 . S
N916 C912 1.427 . S
N916 C913 1.384 . S
N917 C909 1.427 . S
N917 C915 1.384 . S
H918 C924 0.930 . S
H919 C928 0.930 . S
H920 C933 0.929 . S
H921 C931 0.868 1_554 S
H922 C926 0.929 . S
H923 C932 0.929 . S
C924 H918 0.930 . S
C924 C925 1.367 . S
C924 C932 1.378 . S
C925 C924 1.367 . S
C925 C933 1.433 . S
C926 H922 0.929 . S
C926 C928 1.378 . S
C926 C930 1.350 . S
C927 C930 1.463 . S
C927 C932 1.350 . S
C927 N935 1.427 . S
C928 H919 0.930 . S
C928 C926 1.378 . S
C928 C929 1.367 . S
C929 C928 1.367 . S
C929 C931 1.476 . S
C930 C926 1.350 . S
C930 C927 1.463 . S
C930 N934 1.427 . S
C931 H921 0.868 1_556 S
C931 C929 1.476 . S
C931 N934 1.408 . S
C932 H923 0.929 . S
C932 C924 1.378 . S
C932 C927 1.350 . S
C933 H920 0.929 . S
C933 C925 1.433 . S
C933 N935 1.384 . S
N934 C930 1.427 . S
N934 C931 1.408 . S
N935 C927 1.427 . S
N935 C933 1.384 . S
H936 C942 0.930 . S
H937 C946 0.930 . S
H938 C951 0.929 . S
H939 C949 0.929 . S
H940 C944 0.929 . S
H941 C950 0.929 . S
C942 H936 0.930 . S
C942 C943 1.367 . S
C942 C950 1.378 . S
C943 C942 1.367 . S
C943 C951 1.433 . S
C944 H940 0.929 . S
C944 C946 1.378 . S
C944 C948 1.350 . S
C945 C948 1.463 . S
C945 C950 1.350 . S
C945 N953 1.427 . S
C946 H937 0.930 . S
C946 C944 1.378 . S
C946 C947 1.367 . S
C947 C946 1.367 . S
C947 C949 1.433 . S
C948 C944 1.350 . S
C948 C945 1.463 . S
C948 N952 1.427 . S
C949 H939 0.929 . S
C949 C947 1.433 . S
C949 N952 1.384 . S
C950 H941 0.929 . S
C950 C942 1.378 . S
C950 C945 1.350 . S
C951 H938 0.929 . S
C951 C943 1.433 . S
C951 N953 1.384 . S
N952 C948 1.427 . S
N952 C949 1.384 . S
N953 C945 1.427 . S
N953 C951 1.384 . S
H954 C960 0.930 . S
H955 C964 0.930 . S
H956 C969 0.929 . S
H957 C967 0.929 . S
H958 C962 0.929 . S
H959 C968 0.929 . S
C960 H954 0.930 . S
C960 C961 1.367 . S
C960 C968 1.378 . S
C961 C960 1.367 . S
C961 C969 1.433 . S
C962 H958 0.929 . S
C962 C964 1.378 . S
C962 C966 1.350 . S
C963 C966 1.463 . S
C963 C968 1.350 . S
C963 N971 1.427 . S
C964 H955 0.930 . S
C964 C962 1.378 . S
C964 C965 1.367 . S
C965 C964 1.367 . S
C965 C967 1.433 . S
C966 C962 1.350 . S
C966 C963 1.463 . S
C966 N970 1.427 . S
C967 H957 0.929 . S
C967 C965 1.433 . S
C967 N970 1.384 . S
C968 H959 0.929 . S
C968 C960 1.378 . S
C968 C963 1.350 . S
C969 H956 0.929 . S
C969 C961 1.433 . S
C969 N971 1.384 . S
N970 C966 1.427 . S
N970 C967 1.384 . S
N971 C963 1.427 . S
N971 C969 1.384 . S
H972 C978 0.930 . S
H973 C982 0.930 1_554 S
H974 C987 0.929 . S
H975 C985 0.929 . S
H976 C980 0.960 . S
H977 C986 0.929 . S
C978 H972 0.930 . S
C978 C979 1.367 . S
C978 C986 1.378 . S
C979 C978 1.367 . S
C979 C987 1.433 . S
C980 H976 0.960 . S
C980 C982 1.378 . S
C980 C984 1.350 . S
C981 C984 1.463 . S
C981 C986 1.350 . S
C981 N989 1.427 . S
C982 H973 0.930 1_556 S
C982 C980 1.378 . S
C982 C983 1.367 . S
C983 C982 1.367 . S
C983 C985 1.433 . S
C984 C980 1.350 . S
C984 C981 1.463 . S
C984 N988 1.427 . S
C985 H975 0.929 . S
C985 C983 1.433 . S
C985 N988 1.384 . S
C986 H977 0.929 . S
C986 C978 1.378 . S
C986 C981 1.350 . S
C987 H974 0.929 . S
C987 C979 1.433 . S
C987 N989 1.384 . S
N988 C984 1.427 . S
N988 C985 1.384 . S
N989 C981 1.427 . S
N989 C987 1.384 . S
H990 C996 0.930 . S
H991 C1000 0.930 . S
H992 C1005 0.929 . S
H993 C1003 0.929 . S
H994 C998 0.929 . S
H995 C1004 0.929 . S
C996 H990 0.930 . S
C996 C997 1.367 . S
C996 C1004 1.378 . S
C997 C996 1.367 . S
C997 C1005 1.433 . S
C998 H994 0.929 . S
C998 C1000 1.378 . S
C998 C1002 1.350 . S
C999 C1002 1.463 . S
C999 C1004 1.350 . S
C999 N1007 1.427 . S
C1000 H991 0.930 . S
C1000 C998 1.378 . S
C1000 C1001 1.367 . S
C1001 C1000 1.367 . S
C1001 C1003 1.433 . S
C1002 C998 1.350 . S
C1002 C999 1.463 . S
C1002 N1006 1.427 . S
C1003 H993 0.929 . S
C1003 C1001 1.433 . S
C1003 N1006 1.384 . S
C1004 H995 0.929 . S
C1004 C996 1.378 . S
C1004 C999 1.350 . S
C1005 H992 0.929 . S
C1005 C997 1.433 . S
C1005 N1007 1.384 . S
N1006 C1002 1.427 . S
N1006 C1003 1.384 . S
N1007 C999 1.427 . S
N1007 C1005 1.384 . S
H1008 C1014 0.930 . S
H1009 C1018 0.930 . S
H1010 C1023 0.929 . S
H1011 C1021 0.929 . S
H1012 C1016 0.929 . S
H1013 C1022 0.929 . S
C1014 H1008 0.930 . S
C1014 C1015 1.367 . S
C1014 C1022 1.378 . S
C1015 C1014 1.367 . S
C1015 C1023 1.433 . S
C1016 H1012 0.929 . S
C1016 C1018 1.378 . S
C1016 C1020 1.350 . S
C1017 C1020 1.463 . S
C1017 C1022 1.350 . S
C1017 N1025 1.427 . S
C1018 H1009 0.930 . S
C1018 C1016 1.378 . S
C1018 C1019 1.367 . S
C1019 C1018 1.367 . S
C1019 C1021 1.433 . S
C1020 C1016 1.350 . S
C1020 C1017 1.463 . S
C1020 N1024 1.427 . S
C1021 H1011 0.929 . S
C1021 C1019 1.433 . S
C1021 N1024 1.384 . S
C1022 H1013 0.929 . S
C1022 C1014 1.378 . S
C1022 C1017 1.350 . S
C1023 H1010 0.929 . S
C1023 C1015 1.433 . S
C1023 N1025 1.384 . S
N1024 C1020 1.427 . S
N1024 C1021 1.384 . S
N1025 C1017 1.427 . S
N1025 C1023 1.384 . S
H1026 C1032 0.930 . S
H1027 C1036 0.930 . S
H1028 C1041 0.929 . S
H1029 C1039 0.929 1_556 S
H1030 C1034 0.929 . S
H1031 C1040 0.929 . S
C1032 H1026 0.930 . S
C1032 C1033 1.367 . S
C1032 C1040 1.378 . S
C1033 C1032 1.367 . S
C1033 C1041 1.433 . S
C1034 H1030 0.929 . S
C1034 C1036 1.378 . S
C1034 C1038 1.350 . S
C1035 C1038 1.463 . S
C1035 C1040 1.350 . S
C1035 N1043 1.427 . S
C1036 H1027 0.930 . S
C1036 C1034 1.378 . S
C1036 C1037 1.367 . S
C1037 C1036 1.367 . S
C1037 C1039 1.433 . S
C1038 C1034 1.350 . S
C1038 C1035 1.463 . S
C1038 N1042 1.427 . S
C1039 H1029 0.929 1_554 S
C1039 C1037 1.433 . S
C1039 N1042 1.384 . S
C1040 H1031 0.929 . S
C1040 C1032 1.378 . S
C1040 C1035 1.350 . S
C1041 H1028 0.929 . S
C1041 C1033 1.433 . S
C1041 N1043 1.384 . S
N1042 C1038 1.427 . S
N1042 C1039 1.384 . S
N1043 C1035 1.427 . S
N1043 C1041 1.384 . S
H1044 C1050 0.930 . S
H1045 C1054 0.930 . S
H1046 C1059 0.929 . S
H1047 C1057 0.929 . S
H1048 C1052 0.929 . S
H1049 C1058 0.929 . S
C1050 H1044 0.930 . S
C1050 C1051 1.367 . S
C1050 C1058 1.378 1_655 S
C1051 C1050 1.367 . S
C1051 C1059 1.433 . S
C1052 H1048 0.929 . S
C1052 C1054 1.378 . S
C1052 C1056 1.350 . S
C1053 C1056 1.463 . S
C1053 C1058 1.350 . S
C1053 N1061 1.427 . S
C1054 H1045 0.930 . S
C1054 C1052 1.378 . S
C1054 C1055 1.367 . S
C1055 C1054 1.367 . S
C1055 C1057 1.433 . S
C1056 C1052 1.350 . S
C1056 C1053 1.463 . S
C1056 N1060 1.427 . S
C1057 H1047 0.929 . S
C1057 C1055 1.433 . S
C1057 N1060 1.384 . S
C1058 H1049 0.929 . S
C1058 C1050 1.378 1_455 S
C1058 C1053 1.350 . S
C1059 H1046 0.929 . S
C1059 C1051 1.433 . S
C1059 N1061 1.384 1_655 S
N1060 C1056 1.427 . S
N1060 C1057 1.384 . S
N1061 C1053 1.427 . S
N1061 C1059 1.384 1_455 S
H1062 C1068 0.930 . S
H1063 C1072 0.930 . S
H1064 C1077 0.929 . S
H1065 C1075 0.929 . S
H1066 C1070 0.929 . S
H1067 C1076 0.929 . S
C1068 H1062 0.930 . S
C1068 C1069 1.367 . S
C1068 C1076 1.378 . S
C1069 C1068 1.367 . S
C1069 C1077 1.433 . S
C1070 H1066 0.929 . S
C1070 C1072 1.378 . S
C1070 C1074 1.350 . S
C1071 C1074 1.463 . S
C1071 C1076 1.350 . S
C1071 N1079 1.427 . S
C1072 H1063 0.930 . S
C1072 C1070 1.378 . S
C1072 C1073 1.367 . S
C1073 C1072 1.367 . S
C1073 C1075 1.433 . S
C1074 C1070 1.350 . S
C1074 C1071 1.463 . S
C1074 N1078 1.427 . S
C1075 H1065 0.929 . S
C1075 C1073 1.433 . S
C1075 N1078 1.384 . S
C1076 H1067 0.929 . S
C1076 C1068 1.378 . S
C1076 C1071 1.350 . S
C1077 H1064 0.929 . S
C1077 C1069 1.433 . S
C1077 N1079 1.384 . S
N1078 C1074 1.427 . S
N1078 C1075 1.384 . S
N1079 C1071 1.427 . S
N1079 C1077 1.384 . S
H1080 C1086 0.930 . S
H1081 C1090 0.930 . S
H1082 C1095 0.929 . S
H1083 C1093 0.929 . S
H1084 C1088 0.929 . S
H1085 C1094 0.929 . S
C1086 H1080 0.930 . S
C1086 C1087 1.367 . S
C1086 C1094 1.378 1_545 S
C1087 C1086 1.367 . S
C1087 C1095 1.433 . S
C1088 H1084 0.929 . S
C1088 C1090 1.378 . S
C1088 C1092 1.350 . S
C1089 C1092 1.463 . S
C1089 C1094 1.350 . S
C1089 N1097 1.427 . S
C1090 H1081 0.930 . S
C1090 C1088 1.378 . S
C1090 C1091 1.367 . S
C1091 C1090 1.367 . S
C1091 C1093 1.433 . S
C1092 C1088 1.350 . S
C1092 C1089 1.463 . S
C1092 N1096 1.427 . S
C1093 H1083 0.929 . S
C1093 C1091 1.433 . S
C1093 N1096 1.384 . S
C1094 H1085 0.929 . S
C1094 C1086 1.378 1_565 S
C1094 C1089 1.350 . S
C1095 H1082 0.929 . S
C1095 C1087 1.433 . S
C1095 N1097 1.384 1_545 S
N1096 C1092 1.427 . S
N1096 C1093 1.384 . S
N1097 C1089 1.427 . S
N1097 C1095 1.384 1_565 S
H1098 C1104 0.930 . S
H1099 C1108 0.930 . S
H1100 C1113 0.929 . S
H1101 C1111 0.929 . S
H1102 C1106 0.929 . S
H1103 C1112 0.929 . S
C1104 H1098 0.930 . S
C1104 C1105 1.367 . S
C1104 C1112 1.378 . S
C1105 C1104 1.367 . S
C1105 C1113 1.433 . S
C1106 H1102 0.929 . S
C1106 C1108 1.378 . S
C1106 C1110 1.350 . S
C1107 C1110 1.463 . S
C1107 C1112 1.350 . S
C1107 N1115 1.427 . S
C1108 H1099 0.930 . S
C1108 C1106 1.378 . S
C1108 C1109 1.367 . S
C1109 C1108 1.367 . S
C1109 C1111 1.433 . S
C1110 C1106 1.350 . S
C1110 C1107 1.463 . S
C1110 N1114 1.427 . S
C1111 H1101 0.929 . S
C1111 C1109 1.433 . S
C1111 N1114 1.384 . S
C1112 H1103 0.929 . S
C1112 C1104 1.378 . S
C1112 C1107 1.350 . S
C1113 H1100 0.929 . S
C1113 C1105 1.433 . S
C1113 N1115 1.384 . S
N1114 C1110 1.427 . S
N1114 C1111 1.384 . S
N1115 C1107 1.427 . S
N1115 C1113 1.384 . S
H1116 C1122 0.930 . S
H1117 C1126 0.930 . S
H1118 C1131 0.929 . S
H1119 C1129 0.929 . S
H1120 C1124 0.929 . S
H1121 C1130 0.929 . S
C1122 H1116 0.930 . S
C1122 C1123 1.367 . S
C1122 C1130 1.378 . S
C1123 C1122 1.367 . S
C1123 C1131 1.433 . S
C1124 H1120 0.929 . S
C1124 C1126 1.378 . S
C1124 C1128 1.350 . S
C1125 C1128 1.463 . S
C1125 C1130 1.350 . S
C1125 N1133 1.427 . S
C1126 H1117 0.930 . S
C1126 C1124 1.378 . S
C1126 C1127 1.367 . S
C1127 C1126 1.367 . S
C1127 C1129 1.433 . S
C1128 C1124 1.350 . S
C1128 C1125 1.463 . S
C1128 N1132 1.427 . S
C1129 H1119 0.929 . S
C1129 C1127 1.433 . S
C1129 N1132 1.384 . S
C1130 H1121 0.929 . S
C1130 C1122 1.378 . S
C1130 C1125 1.350 . S
C1131 H1118 0.929 . S
C1131 C1123 1.433 . S
C1131 N1133 1.384 . S
N1132 C1128 1.427 . S
N1132 C1129 1.384 . S
N1133 C1125 1.427 . S
N1133 C1131 1.384 . S
H1134 C1140 0.930 . S
H1135 C1144 0.930 . S
H1136 C1149 0.929 . S
H1137 C1147 0.929 . S
H1138 C1142 0.929 . S
H1139 C1148 0.929 . S
C1140 H1134 0.930 . S
C1140 C1141 1.367 . S
C1140 C1148 1.378 . S
C1141 C1140 1.367 . S
C1141 C1149 1.433 . S
C1142 H1138 0.929 . S
C1142 C1144 1.378 . S
C1142 C1146 1.350 . S
C1143 C1146 1.463 . S
C1143 C1148 1.350 . S
C1143 N1151 1.427 . S
C1144 H1135 0.930 . S
C1144 C1142 1.378 . S
C1144 C1145 1.367 . S
C1145 C1144 1.367 . S
C1145 C1147 1.433 . S
C1146 C1142 1.350 . S
C1146 C1143 1.463 . S
C1146 N1150 1.427 . S
C1147 H1137 0.929 . S
C1147 C1145 1.433 . S
C1147 N1150 1.384 . S
C1148 H1139 0.929 . S
C1148 C1140 1.378 . S
C1148 C1143 1.350 . S
C1149 H1136 0.929 . S
C1149 C1141 1.433 . S
C1149 N1151 1.384 . S
N1150 C1146 1.427 . S
N1150 C1147 1.384 . S
N1151 C1143 1.427 . S
N1151 C1149 1.384 . S
H1152 C1158 0.930 . S
H1153 C1162 0.930 . S
H1154 C1167 0.929 . S
H1155 C1165 0.929 . S
H1156 C1160 0.929 . S
H1157 C1166 0.929 . S
C1158 H1152 0.930 . S
C1158 C1159 1.367 . S
C1158 C1166 1.378 . S
C1159 C1158 1.367 . S
C1159 C1167 1.433 . S
C1160 H1156 0.929 . S
C1160 C1162 1.378 . S
C1160 C1164 1.350 . S
C1161 C1164 1.463 . S
C1161 C1166 1.350 . S
C1161 N1169 1.427 . S
C1162 H1153 0.930 . S
C1162 C1160 1.378 . S
C1162 C1163 1.367 . S
C1163 C1162 1.367 . S
C1163 C1165 1.433 . S
C1164 C1160 1.350 . S
C1164 C1161 1.463 . S
C1164 N1168 1.427 . S
C1165 H1155 0.929 . S
C1165 C1163 1.433 . S
C1165 N1168 1.384 . S
C1166 H1157 0.929 . S
C1166 C1158 1.378 . S
C1166 C1161 1.350 . S
C1167 H1154 0.929 . S
C1167 C1159 1.433 . S
C1167 N1169 1.384 . S
N1168 C1164 1.427 . S
N1168 C1165 1.384 . S
N1169 C1161 1.427 . S
N1169 C1167 1.384 . S
H1170 C1176 0.930 . S
H1171 C1180 0.930 . S
H1172 C1185 0.929 . S
H1173 C1183 0.929 . S
H1174 C1178 0.929 . S
H1175 C1184 0.929 . S
C1176 H1170 0.930 . S
C1176 C1177 1.367 . S
C1176 C1184 1.378 . S
C1177 C1176 1.367 . S
C1177 C1185 1.433 . S
C1178 H1174 0.929 . S
C1178 C1180 1.378 . S
C1178 C1182 1.350 . S
C1179 C1182 1.463 . S
C1179 C1184 1.350 . S
C1179 N1187 1.427 . S
C1180 H1171 0.930 . S
C1180 C1178 1.378 . S
C1180 C1181 1.367 . S
C1181 C1180 1.367 . S
C1181 C1183 1.433 . S
C1182 C1178 1.350 . S
C1182 C1179 1.463 . S
C1182 N1186 1.427 . S
C1183 H1173 0.929 . S
C1183 C1181 1.433 . S
C1183 N1186 1.384 . S
C1184 H1175 0.929 . S
C1184 C1176 1.378 . S
C1184 C1179 1.350 . S
C1185 H1172 0.929 . S
C1185 C1177 1.433 . S
C1185 N1187 1.384 . S
N1186 C1182 1.427 . S
N1186 C1183 1.384 . S
N1187 C1179 1.427 . S
N1187 C1185 1.384 . S
H1188 C1194 0.930 . S
H1189 C1198 0.930 . S
H1190 C1203 0.929 . S
H1191 C1201 0.929 . S
H1192 C1196 0.929 . S
H1193 C1202 0.929 . S
C1194 H1188 0.930 . S
C1194 C1195 1.367 . S
C1194 C1202 1.378 . S
C1195 C1194 1.367 . S
C1195 C1203 1.433 . S
C1196 H1192 0.929 . S
C1196 C1198 1.378 . S
C1196 C1200 1.350 . S
C1197 C1200 1.463 . S
C1197 C1202 1.350 . S
C1197 N1205 1.427 . S
C1198 H1189 0.930 . S
C1198 C1196 1.378 . S
C1198 C1199 1.367 . S
C1199 C1198 1.367 . S
C1199 C1201 1.433 . S
C1200 C1196 1.350 . S
C1200 C1197 1.463 . S
C1200 N1204 1.427 . S
C1201 H1191 0.929 . S
C1201 C1199 1.433 . S
C1201 N1204 1.384 . S
C1202 H1193 0.929 . S
C1202 C1194 1.378 . S
C1202 C1197 1.350 . S
C1203 H1190 0.929 . S
C1203 C1195 1.433 . S
C1203 N1205 1.384 . S
N1204 C1200 1.427 . S
N1204 C1201 1.384 . S
N1205 C1197 1.427 . S
N1205 C1203 1.384 . S
H1206 C1212 0.930 . S
H1207 C1216 0.930 . S
H1208 C1221 0.929 . S
H1209 C1219 0.929 . S
H1210 C1214 0.929 . S
H1211 C1220 0.929 . S
C1212 H1206 0.930 . S
C1212 C1213 1.367 . S
C1212 C1220 1.378 1_545 S
C1213 C1212 1.367 . S
C1213 C1221 1.433 . S
C1214 H1210 0.929 . S
C1214 C1216 1.378 . S
C1214 C1218 1.350 . S
C1215 C1218 1.463 . S
C1215 C1220 1.350 . S
C1215 N1223 1.427 . S
C1216 H1207 0.930 . S
C1216 C1214 1.378 . S
C1216 C1217 1.367 . S
C1217 C1216 1.367 . S
C1217 C1219 1.433 . S
C1218 C1214 1.350 . S
C1218 C1215 1.463 . S
C1218 N1222 1.427 . S
C1219 H1209 0.929 . S
C1219 C1217 1.433 . S
C1219 N1222 1.384 . S
C1220 H1211 0.929 . S
C1220 C1212 1.378 1_565 S
C1220 C1215 1.350 . S
C1221 H1208 0.929 . S
C1221 C1213 1.433 . S
C1221 N1223 1.384 1_545 S
N1222 C1218 1.427 . S
N1222 C1219 1.384 . S
N1223 C1215 1.427 . S
N1223 C1221 1.384 1_565 S
H1224 C1230 0.930 . S
H1225 C1234 0.930 . S
H1226 C1239 0.929 . S
H1227 C1237 0.929 . S
H1228 C1232 0.929 . S
H1229 C1238 0.929 . S
C1230 H1224 0.930 . S
C1230 C1231 1.367 . S
C1230 C1238 1.378 1_655 S
C1231 C1230 1.367 . S
C1231 C1239 1.433 . S
C1232 H1228 0.929 . S
C1232 C1234 1.378 . S
C1232 C1236 1.350 . S
C1233 C1236 1.463 . S
C1233 C1238 1.350 . S
C1233 N1241 1.427 . S
C1234 H1225 0.930 . S
C1234 C1232 1.378 . S
C1234 C1235 1.367 . S
C1235 C1234 1.367 . S
C1235 C1237 1.433 . S
C1236 C1232 1.350 . S
C1236 C1233 1.463 . S
C1236 N1240 1.427 . S
C1237 H1227 0.929 . S
C1237 C1235 1.433 . S
C1237 N1240 1.384 . S
C1238 H1229 0.929 . S
C1238 C1230 1.378 1_455 S
C1238 C1233 1.350 . S
C1239 H1226 0.929 . S
C1239 C1231 1.433 . S
C1239 N1241 1.384 1_655 S
N1240 C1236 1.427 . S
N1240 C1237 1.384 . S
N1241 C1233 1.427 . S
N1241 C1239 1.384 1_455 S
H1242 C1248 0.930 . S
H1243 C1252 0.930 . S
H1244 C1257 0.929 . S
H1245 C1255 0.929 . S
H1246 C1250 0.929 . S
H1247 C1256 0.929 . S
C1248 H1242 0.930 . S
C1248 C1249 1.367 . S
C1248 C1256 1.378 . S
C1249 C1248 1.367 . S
C1249 C1257 1.433 . S
C1250 H1246 0.929 . S
C1250 C1252 1.378 . S
C1250 C1254 1.350 . S
C1251 C1254 1.463 . S
C1251 C1256 1.350 . S
C1251 N1259 1.427 . S
C1252 H1243 0.930 . S
C1252 C1250 1.378 . S
C1252 C1253 1.367 . S
C1253 C1252 1.367 . S
C1253 C1255 1.433 . S
C1254 C1250 1.350 . S
C1254 C1251 1.463 . S
C1254 N1258 1.427 . S
C1255 H1245 0.929 . S
C1255 C1253 1.433 . S
C1255 N1258 1.384 . S
C1256 H1247 0.929 . S
C1256 C1248 1.378 . S
C1256 C1251 1.350 . S
C1257 H1244 0.929 . S
C1257 C1249 1.433 . S
C1257 N1259 1.384 . S
N1258 C1254 1.427 . S
N1258 C1255 1.384 . S
N1259 C1251 1.427 . S
N1259 C1257 1.384 . S
H1260 C1266 0.930 . S
H1261 C1270 0.930 . S
H1262 C1275 0.929 . S
H1263 C1273 0.929 . S
H1264 C1268 0.929 . S
H1265 C1274 0.929 . S
C1266 H1260 0.930 . S
C1266 C1267 1.367 . S
C1266 C1274 1.378 . S
C1267 C1266 1.367 . S
C1267 C1275 1.433 . S
C1268 H1264 0.929 . S
C1268 C1270 1.378 . S
C1268 C1272 1.350 . S
C1269 C1272 1.463 . S
C1269 C1274 1.350 . S
C1269 N1277 1.427 . S
C1270 H1261 0.930 . S
C1270 C1268 1.378 . S
C1270 C1271 1.367 . S
C1271 C1270 1.367 . S
C1271 C1273 1.433 . S
C1272 C1268 1.350 . S
C1272 C1269 1.463 . S
C1272 N1276 1.427 . S
C1273 H1263 0.929 . S
C1273 C1271 1.433 . S
C1273 N1276 1.384 . S
C1274 H1265 0.929 . S
C1274 C1266 1.378 . S
C1274 C1269 1.350 . S
C1275 H1262 0.929 . S
C1275 C1267 1.433 . S
C1275 N1277 1.384 . S
N1276 C1272 1.427 . S
N1276 C1273 1.384 . S
N1277 C1269 1.427 . S
N1277 C1275 1.384 . S
H1278 C1284 0.930 . S
H1279 C1288 0.930 . S
H1280 C1293 0.929 . S
H1281 C1291 0.929 . S
H1282 C1286 0.929 . S
H1283 C1292 0.929 . S
C1284 H1278 0.930 . S
C1284 C1285 1.367 . S
C1284 C1292 1.378 . S
C1285 C1284 1.367 . S
C1285 C1293 1.433 . S
C1286 H1282 0.929 . S
C1286 C1288 1.378 . S
C1286 C1290 1.350 . S
C1287 C1290 1.463 . S
C1287 C1292 1.350 . S
C1287 N1295 1.427 . S
C1288 H1279 0.930 . S
C1288 C1286 1.378 . S
C1288 C1289 1.367 . S
C1289 C1288 1.367 . S
C1289 C1291 1.433 . S
C1290 C1286 1.350 . S
C1290 C1287 1.463 . S
C1290 N1294 1.427 . S
C1291 H1281 0.929 . S
C1291 C1289 1.433 . S
C1291 N1294 1.384 . S
C1292 H1283 0.929 . S
C1292 C1284 1.378 . S
C1292 C1287 1.350 . S
C1293 H1280 0.929 . S
C1293 C1285 1.433 . S
C1293 N1295 1.384 . S
N1294 C1290 1.427 . S
N1294 C1291 1.384 . S
N1295 C1287 1.427 . S
N1295 C1293 1.384 . S
H1296 C1302 0.930 . S
H1297 C1306 0.930 . S
H1298 C1311 0.929 . S
H1299 C1309 0.929 . S
H1300 C1304 0.929 . S
H1301 C1310 0.929 . S
C1302 H1296 0.930 . S
C1302 C1303 1.367 . S
C1302 C1310 1.378 . S
C1303 C1302 1.367 . S
C1303 C1311 1.433 . S
C1304 H1300 0.929 . S
C1304 C1306 1.378 . S
C1304 C1308 1.350 . S
C1305 C1308 1.463 . S
C1305 C1310 1.350 . S
C1305 N1313 1.427 . S
C1306 H1297 0.930 . S
C1306 C1304 1.378 . S
C1306 C1307 1.367 . S
C1307 C1306 1.367 . S
C1307 C1309 1.433 . S
C1308 C1304 1.350 . S
C1308 C1305 1.463 . S
C1308 N1312 1.427 . S
C1309 H1299 0.929 . S
C1309 C1307 1.433 . S
C1309 N1312 1.384 . S
C1310 H1301 0.929 . S
C1310 C1302 1.378 . S
C1310 C1305 1.350 . S
C1311 H1298 0.929 . S
C1311 C1303 1.433 . S
C1311 N1313 1.384 . S
N1312 C1308 1.427 . S
N1312 C1309 1.384 . S
N1313 C1305 1.427 . S
N1313 C1311 1.384 . S
H1314 C1320 0.930 . S
H1315 C1324 0.930 . S
H1316 C1329 0.929 . S
H1317 C1327 0.929 . S
H1318 C1322 0.929 . S
H1319 C1328 0.929 . S
C1320 H1314 0.930 . S
C1320 C1321 1.367 . S
C1320 C1328 1.378 1_565 S
C1321 C1320 1.367 . S
C1321 C1329 1.433 . S
C1322 H1318 0.929 . S
C1322 C1324 1.378 . S
C1322 C1326 1.350 . S
C1323 C1326 1.463 . S
C1323 C1328 1.350 . S
C1323 N1331 1.427 . S
C1324 H1315 0.930 . S
C1324 C1322 1.378 . S
C1324 C1325 1.367 . S
C1325 C1324 1.367 . S
C1325 C1327 1.433 . S
C1326 C1322 1.350 . S
C1326 C1323 1.463 . S
C1326 N1330 1.427 . S
C1327 H1317 0.929 . S
C1327 C1325 1.433 . S
C1327 N1330 1.384 . S
C1328 H1319 0.929 . S
C1328 C1320 1.378 1_545 S
C1328 C1323 1.350 . S
C1329 H1316 0.929 . S
C1329 C1321 1.433 . S
C1329 N1331 1.384 1_565 S
N1330 C1326 1.427 . S
N1330 C1327 1.384 . S
N1331 C1323 1.427 . S
N1331 C1329 1.384 1_545 S
H1332 C1338 0.930 . S
H1333 C1342 0.930 . S
H1334 C1347 0.909 1_455 S
H1335 C1345 0.929 . S
H1336 C1340 0.929 . S
H1337 C1346 0.929 . S
C1338 H1332 0.930 . S
C1338 C1339 1.367 . S
C1338 C1346 1.378 1_455 S
C1339 C1338 1.367 . S
C1339 C1347 1.435 1_455 S
C1340 H1336 0.929 . S
C1340 C1342 1.378 . S
C1340 C1344 1.350 . S
C1341 C1344 1.463 . S
C1341 C1346 1.350 . S
C1341 N1349 1.427 . S
C1342 H1333 0.930 . S
C1342 C1340 1.378 . S
C1342 C1343 1.367 . S
C1343 C1342 1.367 . S
C1343 C1345 1.433 . S
C1344 C1340 1.350 . S
C1344 C1341 1.463 . S
C1344 N1348 1.427 . S
C1345 H1335 0.929 . S
C1345 C1343 1.433 . S
C1345 N1348 1.384 . S
C1346 H1337 0.929 . S
C1346 C1338 1.378 1_655 S
C1346 C1341 1.350 . S
C1347 H1334 0.909 1_655 S
C1347 C1339 1.435 1_655 S
C1347 N1349 1.380 . S
N1348 C1344 1.427 . S
N1348 C1345 1.384 . S
N1349 C1341 1.427 . S
N1349 C1347 1.380 . S
H1350 C1356 0.930 . S
H1351 C1360 0.930 . S
H1352 C1365 0.929 . S
H1353 C1363 0.929 . S
H1354 C1358 0.929 . S
H1355 C1364 0.929 . S
C1356 H1350 0.930 . S
C1356 C1357 1.367 . S
C1356 C1364 1.378 . S
C1357 C1356 1.367 . S
C1357 C1365 1.433 . S
C1358 H1354 0.929 . S
C1358 C1360 1.378 . S
C1358 C1362 1.350 . S
C1359 C1362 1.463 . S
C1359 C1364 1.350 . S
C1359 N1367 1.427 . S
C1360 H1351 0.930 . S
C1360 C1358 1.378 . S
C1360 C1361 1.367 . S
C1361 C1360 1.367 . S
C1361 C1363 1.433 . S
C1362 C1358 1.350 . S
C1362 C1359 1.463 . S
C1362 N1366 1.427 . S
C1363 H1353 0.929 . S
C1363 C1361 1.433 . S
C1363 N1366 1.384 . S
C1364 H1355 0.929 . S
C1364 C1356 1.378 . S
C1364 C1359 1.350 . S
C1365 H1352 0.929 . S
C1365 C1357 1.433 . S
C1365 N1367 1.384 . S
N1366 C1362 1.427 . S
N1366 C1363 1.384 . S
N1367 C1359 1.427 . S
N1367 C1365 1.384 . S
H1368 C1374 0.930 . S
H1369 C1378 0.930 . S
H1370 C1383 0.929 . S
H1371 C1381 0.929 . S
H1372 C1376 0.929 . S
H1373 C1382 0.929 . S
C1374 H1368 0.930 . S
C1374 C1375 1.367 . S
C1374 C1382 1.378 1_455 S
C1375 C1374 1.367 . S
C1375 C1383 1.433 . S
C1376 H1372 0.929 . S
C1376 C1378 1.378 . S
C1376 C1380 1.350 . S
C1377 C1380 1.463 . S
C1377 C1382 1.350 . S
C1377 N1385 1.470 . S
C1378 H1369 0.930 . S
C1378 C1376 1.378 . S
C1378 C1379 1.367 . S
C1379 C1378 1.367 . S
C1379 C1381 1.433 . S
C1380 C1376 1.350 . S
C1380 C1377 1.463 . S
C1380 N1384 1.427 . S
C1381 H1371 0.929 . S
C1381 C1379 1.433 . S
C1381 N1384 1.384 . S
C1382 H1373 0.929 . S
C1382 C1374 1.378 1_655 S
C1382 C1377 1.350 . S
C1383 H1370 0.929 . S
C1383 C1375 1.433 . S
C1383 N1385 1.344 1_455 S
N1384 C1380 1.427 . S
N1384 C1381 1.384 . S
N1385 C1377 1.470 . S
N1385 C1383 1.344 1_655 S
H1386 C1392 0.930 . S
H1387 C1396 0.930 . S
H1388 C1401 0.929 . S
H1389 C1399 0.929 . S
H1390 C1394 0.929 . S
H1391 C1400 0.929 . S
C1392 H1386 0.930 . S
C1392 C1393 1.367 . S
C1392 C1400 1.378 . S
C1393 C1392 1.367 . S
C1393 C1401 1.433 . S
C1394 H1390 0.929 . S
C1394 C1396 1.378 . S
C1394 C1398 1.350 . S
C1395 C1398 1.463 . S
C1395 C1400 1.350 . S
C1395 N1403 1.427 . S
C1396 H1387 0.930 . S
C1396 C1394 1.378 . S
C1396 C1397 1.367 . S
C1397 C1396 1.367 . S
C1397 C1399 1.433 . S
C1398 C1394 1.350 . S
C1398 C1395 1.463 . S
C1398 N1402 1.427 . S
C1399 H1389 0.929 . S
C1399 C1397 1.433 . S
C1399 N1402 1.384 . S
C1400 H1391 0.929 . S
C1400 C1392 1.378 . S
C1400 C1395 1.350 . S
C1401 H1388 0.929 . S
C1401 C1393 1.433 . S
C1401 N1403 1.384 . S
N1402 C1398 1.427 . S
N1402 C1399 1.384 . S
N1403 C1395 1.427 . S
N1403 C1401 1.384 . S
H1404 C1410 0.930 . S
H1405 C1414 0.930 . S
H1406 C1419 0.929 . S
H1407 C1417 0.929 . S
H1408 C1412 0.929 . S
H1409 C1418 0.929 . S
C1410 H1404 0.930 . S
C1410 C1411 1.367 . S
C1410 C1418 1.378 1_565 S
C1411 C1410 1.367 . S
C1411 C1419 1.433 . S
C1412 H1408 0.929 . S
C1412 C1414 1.378 . S
C1412 C1416 1.350 . S
C1413 C1416 1.463 . S
C1413 C1418 1.350 . S
C1413 N1421 1.427 . S
C1414 H1405 0.930 . S
C1414 C1412 1.378 . S
C1414 C1415 1.367 . S
C1415 C1414 1.367 . S
C1415 C1417 1.433 . S
C1416 C1412 1.350 . S
C1416 C1413 1.463 . S
C1416 N1420 1.427 . S
C1417 H1407 0.929 . S
C1417 C1415 1.433 . S
C1417 N1420 1.384 . S
C1418 H1409 0.929 . S
C1418 C1410 1.378 1_545 S
C1418 C1413 1.350 . S
C1419 H1406 0.929 . S
C1419 C1411 1.433 . S
C1419 N1421 1.384 1_565 S
N1420 C1416 1.427 . S
N1420 C1417 1.384 . S
N1421 C1413 1.427 . S
N1421 C1419 1.384 1_545 S
H1422 C1428 0.930 . S
H1423 C1432 0.930 . S
H1424 C1437 0.929 . S
H1425 C1435 0.929 . S
H1426 C1430 0.929 . S
H1427 C1436 0.929 . S
C1428 H1422 0.930 . S
C1428 C1429 1.367 . S
C1428 C1436 1.378 . S
C1429 C1428 1.367 . S
C1429 C1437 1.433 . S
C1430 H1426 0.929 . S
C1430 C1432 1.378 . S
C1430 C1434 1.350 . S
C1431 C1434 1.463 . S
C1431 C1436 1.350 . S
C1431 N1439 1.427 . S
C1432 H1423 0.930 . S
C1432 C1430 1.378 . S
C1432 C1433 1.367 . S
C1433 C1432 1.367 . S
C1433 C1435 1.433 . S
C1434 C1430 1.350 . S
C1434 C1431 1.463 . S
C1434 N1438 1.427 . S
C1435 H1425 0.929 . S
C1435 C1433 1.433 . S
C1435 N1438 1.384 . S
C1436 H1427 0.929 . S
C1436 C1428 1.378 . S
C1436 C1431 1.350 . S
C1437 H1424 0.929 . S
C1437 C1429 1.433 . S
C1437 N1439 1.384 . S
N1438 C1434 1.427 . S
N1438 C1435 1.384 . S
N1439 C1431 1.427 . S
N1439 C1437 1.384 . S
H1440 C1446 0.930 . S
H1441 C1450 0.930 . S
H1442 C1455 0.929 . S
H1443 C1453 0.929 . S
H1444 C1448 0.929 . S
H1445 C1454 0.929 . S
C1446 H1440 0.930 . S
C1446 C1447 1.367 . S
C1446 C1454 1.378 . S
C1447 C1446 1.367 . S
C1447 C1455 1.433 . S
C1448 H1444 0.929 . S
C1448 C1450 1.378 . S
C1448 C1452 1.350 . S
C1449 C1452 1.463 . S
C1449 C1454 1.350 . S
C1449 N1457 1.427 . S
C1450 H1441 0.930 . S
C1450 C1448 1.378 . S
C1450 C1451 1.367 . S
C1451 C1450 1.367 . S
C1451 C1453 1.433 . S
C1452 C1448 1.350 . S
C1452 C1449 1.463 . S
C1452 N1456 1.427 . S
C1453 H1443 0.929 . S
C1453 C1451 1.433 . S
C1453 N1456 1.384 . S
C1454 H1445 0.929 . S
C1454 C1446 1.378 . S
C1454 C1449 1.350 . S
C1455 H1442 0.929 . S
C1455 C1447 1.433 . S
C1455 N1457 1.384 . S
N1456 C1452 1.427 . S
N1456 C1453 1.384 . S
N1457 C1449 1.427 . S
N1457 C1455 1.384 . S
H1458 C1464 0.930 . S
H1459 C1468 0.930 . S
H1460 C1473 0.929 . S
H1461 C1471 0.929 . S
H1462 C1466 0.929 . S
H1463 C1472 0.929 . S
C1464 H1458 0.930 . S
C1464 C1465 1.367 . S
C1464 C1472 1.378 . S
C1465 C1464 1.367 . S
C1465 C1473 1.433 . S
C1466 H1462 0.929 . S
C1466 C1468 1.378 . S
C1466 C1470 1.350 . S
C1467 C1470 1.463 . S
C1467 C1472 1.350 . S
C1467 N1475 1.427 . S
C1468 H1459 0.930 . S
C1468 C1466 1.378 . S
C1468 C1469 1.367 . S
C1469 C1468 1.367 . S
C1469 C1471 1.433 . S
C1470 C1466 1.350 . S
C1470 C1467 1.463 . S
C1470 N1474 1.427 . S
C1471 H1461 0.929 . S
C1471 C1469 1.433 . S
C1471 N1474 1.384 . S
C1472 H1463 0.929 . S
C1472 C1464 1.378 . S
C1472 C1467 1.350 . S
C1473 H1460 0.929 . S
C1473 C1465 1.433 . S
C1473 N1475 1.384 . S
N1474 C1470 1.427 . S
N1474 C1471 1.384 . S
N1475 C1467 1.427 . S
N1475 C1473 1.384 . S
H1476 C1482 0.930 . S
H1477 C1486 0.930 . S
H1478 C1491 0.929 . S
H1479 C1489 0.924 . S
H1480 C1484 0.929 . S
H1481 C1490 0.929 . S
C1482 H1476 0.930 . S
C1482 C1483 1.367 . S
C1482 C1490 1.378 . S
C1483 C1482 1.367 . S
C1483 C1491 1.433 . S
C1484 H1480 0.929 . S
C1484 C1486 1.378 . S
C1484 C1488 1.350 . S
C1485 C1488 1.463 . S
C1485 C1490 1.350 . S
C1485 N1493 1.427 . S
C1486 H1477 0.930 . S
C1486 C1484 1.378 . S
C1486 C1487 1.367 . S
C1487 C1486 1.367 . S
C1487 C1489 1.433 . S
C1488 C1484 1.350 . S
C1488 C1485 1.463 . S
C1488 N1492 1.427 . S
C1489 H1479 0.924 . S
C1489 C1487 1.433 . S
C1489 N1492 1.384 . S
C1490 H1481 0.929 . S
C1490 C1482 1.378 . S
C1490 C1485 1.350 . S
C1491 H1478 0.929 . S
C1491 C1483 1.433 . S
C1491 N1493 1.384 . S
N1492 C1488 1.427 . S
N1492 C1489 1.384 . S
N1493 C1485 1.427 . S
N1493 C1491 1.384 . S
H1494 C1500 0.930 1_655 S
H1495 C1504 0.930 . S
H1496 C1509 0.929 . S
H1497 C1507 0.929 . S
H1498 C1502 0.929 . S
H1499 C1508 0.929 1_655 S
C1500 H1494 0.930 1_455 S
C1500 C1501 1.367 . S
C1500 C1508 1.378 . S
C1501 C1500 1.367 . S
C1501 C1509 1.433 . S
C1502 H1498 0.929 . S
C1502 C1504 1.378 . S
C1502 C1506 1.350 . S
C1503 C1506 1.463 . S
C1503 C1508 1.350 . S
C1503 N1511 1.427 . S
C1504 H1495 0.930 . S
C1504 C1502 1.378 . S
C1504 C1505 1.367 . S
C1505 C1504 1.367 . S
C1505 C1507 1.433 1_455 S
C1506 C1502 1.350 . S
C1506 C1503 1.463 . S
C1506 N1510 1.427 1_455 S
C1507 H1497 0.929 . S
C1507 C1505 1.433 1_655 S
C1507 N1510 1.384 . S
C1508 H1499 0.929 1_455 S
C1508 C1500 1.378 . S
C1508 C1503 1.350 . S
C1509 H1496 0.929 . S
C1509 C1501 1.433 . S
C1509 N1511 1.384 . S
N1510 C1506 1.427 1_655 S
N1510 C1507 1.384 . S
N1511 C1503 1.427 . S
N1511 C1509 1.384 . S
H1512 C1518 0.930 . S
H1513 C1522 0.930 . S
H1514 C1527 0.929 . S
H1515 C1525 0.929 . S
H1516 C1520 0.929 . S
H1517 C1526 0.929 . S
C1518 H1512 0.930 . S
C1518 C1519 1.367 . S
C1518 C1526 1.378 . S
C1519 C1518 1.367 . S
C1519 C1527 1.433 . S
C1520 H1516 0.929 . S
C1520 C1522 1.378 . S
C1520 C1524 1.350 . S
C1521 C1524 1.463 . S
C1521 C1526 1.350 . S
C1521 N1529 1.427 . S
C1522 H1513 0.930 . S
C1522 C1520 1.378 . S
C1522 C1523 1.367 . S
C1523 C1522 1.367 . S
C1523 C1525 1.433 . S
C1524 C1520 1.350 . S
C1524 C1521 1.463 . S
C1524 N1528 1.427 . S
C1525 H1515 0.929 . S
C1525 C1523 1.433 . S
C1525 N1528 1.384 . S
C1526 H1517 0.929 . S
C1526 C1518 1.378 . S
C1526 C1521 1.350 . S
C1527 H1514 0.929 . S
C1527 C1519 1.433 . S
C1527 N1529 1.384 . S
N1528 C1524 1.427 . S
N1528 C1525 1.384 . S
N1529 C1521 1.427 . S
N1529 C1527 1.384 . S
H1530 C1536 0.930 . S
H1531 C1540 0.930 . S
H1532 C1545 0.927 . S
H1533 C1543 0.929 . S
H1534 C1538 0.929 . S
H1535 C1544 0.929 . S
C1536 H1530 0.930 . S
C1536 C1537 1.367 . S
C1536 C1544 1.378 . S
C1537 C1536 1.367 . S
C1537 C1545 1.436 1_655 S
C1538 H1534 0.929 . S
C1538 C1540 1.378 . S
C1538 C1542 1.350 1_455 S
C1539 C1542 1.463 . S
C1539 C1544 1.350 . S
C1539 N1547 1.427 1_655 S
C1540 H1531 0.930 . S
C1540 C1538 1.378 . S
C1540 C1541 1.367 1_455 S
C1541 C1540 1.367 1_655 S
C1541 C1543 1.433 . S
C1542 C1538 1.350 1_655 S
C1542 C1539 1.463 . S
C1542 N1546 1.427 . S
C1543 H1533 0.929 . S
C1543 C1541 1.433 . S
C1543 N1546 1.384 . S
C1544 H1535 0.929 . S
C1544 C1536 1.378 . S
C1544 C1539 1.350 . S
C1545 H1532 0.927 . S
C1545 C1537 1.436 1_455 S
C1545 N1547 1.383 . S
N1546 C1542 1.427 . S
N1546 C1543 1.384 . S
N1547 C1539 1.427 1_455 S
N1547 C1545 1.383 . S
H1548 C1554 0.930 . S
H1549 C1558 0.930 . S
H1550 C1563 0.929 . S
H1551 C1561 0.929 . S
H1552 C1556 0.929 . S
H1553 C1562 0.929 . S
C1554 H1548 0.930 . S
C1554 C1555 1.367 . S
C1554 C1562 1.378 . S
C1555 C1554 1.367 . S
C1555 C1563 1.433 . S
C1556 H1552 0.929 . S
C1556 C1558 1.378 . S
C1556 C1560 1.350 . S
C1557 C1560 1.463 . S
C1557 C1562 1.350 . S
C1557 N1565 1.427 . S
C1558 H1549 0.930 . S
C1558 C1556 1.378 . S
C1558 C1559 1.367 . S
C1559 C1558 1.367 . S
C1559 C1561 1.433 . S
C1560 C1556 1.350 . S
C1560 C1557 1.463 . S
C1560 N1564 1.427 . S
C1561 H1551 0.929 . S
C1561 C1559 1.433 . S
C1561 N1564 1.384 . S
C1562 H1553 0.929 . S
C1562 C1554 1.378 . S
C1562 C1557 1.350 . S
C1563 H1550 0.929 . S
C1563 C1555 1.433 . S
C1563 N1565 1.384 . S
N1564 C1560 1.427 . S
N1564 C1561 1.384 . S
N1565 C1557 1.427 . S
N1565 C1563 1.384 . S
H1566 C1572 0.930 . S
H1567 C1576 0.930 . S
H1568 C1581 0.929 . S
H1569 C1579 0.929 . S
H1570 C1574 0.929 . S
H1571 C1580 0.946 . S
C1572 H1566 0.930 . S
C1572 C1573 1.367 . S
C1572 C1580 1.378 . S
C1573 C1572 1.367 . S
C1573 C1581 1.433 . S
C1574 H1570 0.929 . S
C1574 C1576 1.378 . S
C1574 C1578 1.350 . S
C1575 C1578 1.463 . S
C1575 C1580 1.350 . S
C1575 N1583 1.427 . S
C1576 H1567 0.930 . S
C1576 C1574 1.378 . S
C1576 C1577 1.367 . S
C1577 C1576 1.367 . S
C1577 C1579 1.433 1_545 S
C1578 C1574 1.350 . S
C1578 C1575 1.463 . S
C1578 N1582 1.427 . S
C1579 H1569 0.929 . S
C1579 C1577 1.433 1_565 S
C1579 N1582 1.384 1_565 S
C1580 H1571 0.946 . S
C1580 C1572 1.378 . S
C1580 C1575 1.350 . S
C1581 H1568 0.929 . S
C1581 C1573 1.433 . S
C1581 N1583 1.384 . S
N1582 C1578 1.427 . S
N1582 C1579 1.384 1_545 S
N1583 C1575 1.427 . S
N1583 C1581 1.384 . S
H1584 C1590 0.930 . S
H1585 C1594 0.930 . S
H1586 C1599 0.929 . S
H1587 C1597 0.929 . S
H1588 C1592 0.929 . S
H1589 C1598 0.929 . S
C1590 H1584 0.930 . S
C1590 C1591 1.367 . S
C1590 C1598 1.378 . S
C1591 C1590 1.367 . S
C1591 C1599 1.433 . S
C1592 H1588 0.929 . S
C1592 C1594 1.378 . S
C1592 C1596 1.350 . S
C1593 C1596 1.463 . S
C1593 C1598 1.350 . S
C1593 N1601 1.427 . S
C1594 H1585 0.930 . S
C1594 C1592 1.378 . S
C1594 C1595 1.367 . S
C1595 C1594 1.367 . S
C1595 C1597 1.433 . S
C1596 C1592 1.350 . S
C1596 C1593 1.463 . S
C1596 N1600 1.427 . S
C1597 H1587 0.929 . S
C1597 C1595 1.433 . S
C1597 N1600 1.384 . S
C1598 H1589 0.929 . S
C1598 C1590 1.378 . S
C1598 C1593 1.350 . S
C1599 H1586 0.929 . S
C1599 C1591 1.433 . S
C1599 N1601 1.384 . S
N1600 C1596 1.427 . S
N1600 C1597 1.384 . S
N1601 C1593 1.427 . S
N1601 C1599 1.384 . S
H1602 C1608 0.930 . S
H1603 C1612 0.930 . S
H1604 C1617 0.929 . S
H1605 C1615 0.929 . S
H1606 C1610 0.929 . S
H1607 C1616 0.929 . S
C1608 H1602 0.930 . S
C1608 C1609 1.367 . S
C1608 C1616 1.378 . S
C1609 C1608 1.367 . S
C1609 C1617 1.433 . S
C1610 H1606 0.929 . S
C1610 C1612 1.378 . S
C1610 C1614 1.350 . S
C1611 C1614 1.463 . S
C1611 C1616 1.350 . S
C1611 N1619 1.427 . S
C1612 H1603 0.930 . S
C1612 C1610 1.378 . S
C1612 C1613 1.367 . S
C1613 C1612 1.367 . S
C1613 C1615 1.433 . S
C1614 C1610 1.350 . S
C1614 C1611 1.463 . S
C1614 N1618 1.427 . S
C1615 H1605 0.929 . S
C1615 C1613 1.433 . S
C1615 N1618 1.384 . S
C1616 H1607 0.929 . S
C1616 C1608 1.378 . S
C1616 C1611 1.350 . S
C1617 H1604 0.929 . S
C1617 C1609 1.433 . S
C1617 N1619 1.384 . S
N1618 C1614 1.427 . S
N1618 C1615 1.384 . S
N1619 C1611 1.427 . S
N1619 C1617 1.384 . S
H1620 C1626 0.930 . S
H1621 C1630 0.930 . S
H1622 C1635 0.929 . S
H1623 C1633 0.929 . S
H1624 C1628 0.929 . S
H1625 C1634 0.929 . S
C1626 H1620 0.930 . S
C1626 C1627 1.367 . S
C1626 C1634 1.378 . S
C1627 C1626 1.367 . S
C1627 C1635 1.433 . S
C1628 H1624 0.929 . S
C1628 C1630 1.378 . S
C1628 C1632 1.350 . S
C1629 C1632 1.463 . S
C1629 C1634 1.350 . S
C1629 N1637 1.427 . S
C1630 H1621 0.930 . S
C1630 C1628 1.378 . S
C1630 C1631 1.367 . S
C1631 C1630 1.367 . S
C1631 C1633 1.433 . S
C1632 C1628 1.350 . S
C1632 C1629 1.463 . S
C1632 N1636 1.427 . S
C1633 H1623 0.929 . S
C1633 C1631 1.433 . S
C1633 N1636 1.384 . S
C1634 H1625 0.929 . S
C1634 C1626 1.378 . S
C1634 C1629 1.350 . S
C1635 H1622 0.929 . S
C1635 C1627 1.433 . S
C1635 N1637 1.384 . S
N1636 C1632 1.427 . S
N1636 C1633 1.384 . S
N1637 C1629 1.427 . S
N1637 C1635 1.384 . S
H1638 C1644 0.930 . S
H1639 C1648 0.930 . S
H1640 C1653 0.929 . S
H1641 C1651 0.929 . S
H1642 C1646 0.929 . S
H1643 C1652 0.929 . S
C1644 H1638 0.930 . S
C1644 C1645 1.367 . S
C1644 C1652 1.378 . S
C1645 C1644 1.367 . S
C1645 C1653 1.433 . S
C1646 H1642 0.929 . S
C1646 C1648 1.378 . S
C1646 C1650 1.350 . S
C1647 C1650 1.463 . S
C1647 C1652 1.350 . S
C1647 N1655 1.427 . S
C1648 H1639 0.930 . S
C1648 C1646 1.378 . S
C1648 C1649 1.367 . S
C1649 C1648 1.367 . S
C1649 C1651 1.433 . S
C1650 C1646 1.350 . S
C1650 C1647 1.463 . S
C1650 N1654 1.427 . S
C1651 H1641 0.929 . S
C1651 C1649 1.433 . S
C1651 N1654 1.384 . S
C1652 H1643 0.929 . S
C1652 C1644 1.378 . S
C1652 C1647 1.350 . S
C1653 H1640 0.929 . S
C1653 C1645 1.433 . S
C1653 N1655 1.384 . S
N1654 C1650 1.427 . S
N1654 C1651 1.384 . S
N1655 C1647 1.427 . S
N1655 C1653 1.384 . S
H1656 C1662 0.930 . S
H1657 C1666 0.930 . S
H1658 C1671 0.929 . S
H1659 C1669 0.929 . S
H1660 C1664 0.929 . S
H1661 C1670 0.929 . S
C1662 H1656 0.930 . S
C1662 C1663 1.367 . S
C1662 C1670 1.378 . S
C1663 C1662 1.367 . S
C1663 C1671 1.433 . S
C1664 H1660 0.929 . S
C1664 C1666 1.378 . S
C1664 C1668 1.350 . S
C1665 C1668 1.463 . S
C1665 C1670 1.350 . S
C1665 N1673 1.427 . S
C1666 H1657 0.930 . S
C1666 C1664 1.378 . S
C1666 C1667 1.367 . S
C1667 C1666 1.367 . S
C1667 C1669 1.433 . S
C1668 C1664 1.350 . S
C1668 C1665 1.463 . S
C1668 N1672 1.427 . S
C1669 H1659 0.929 . S
C1669 C1667 1.433 . S
C1669 N1672 1.384 . S
C1670 H1661 0.929 . S
C1670 C1662 1.378 . S
C1670 C1665 1.350 . S
C1671 H1658 0.929 . S
C1671 C1663 1.433 . S
C1671 N1673 1.384 . S
N1672 C1668 1.427 . S
N1672 C1669 1.384 . S
N1673 C1665 1.427 . S
N1673 C1671 1.384 . S
H1674 C1680 0.930 . S
H1675 C1684 0.930 . S
H1676 C1689 0.929 . S
H1677 C1687 0.929 . S
H1678 C1682 0.929 . S
H1679 C1688 0.929 . S
C1680 H1674 0.930 . S
C1680 C1681 1.367 . S
C1680 C1688 1.378 . S
C1681 C1680 1.367 . S
C1681 C1689 1.433 . S
C1682 H1678 0.929 . S
C1682 C1684 1.378 . S
C1682 C1686 1.350 . S
C1683 C1686 1.463 . S
C1683 C1688 1.350 . S
C1683 N1691 1.427 . S
C1684 H1675 0.930 . S
C1684 C1682 1.378 . S
C1684 C1685 1.367 . S
C1685 C1684 1.367 . S
C1685 C1687 1.433 . S
C1686 C1682 1.350 . S
C1686 C1683 1.463 . S
C1686 N1690 1.427 . S
C1687 H1677 0.929 . S
C1687 C1685 1.433 . S
C1687 N1690 1.384 . S
C1688 H1679 0.929 . S
C1688 C1680 1.378 . S
C1688 C1683 1.350 . S
C1689 H1676 0.929 . S
C1689 C1681 1.433 . S
C1689 N1691 1.384 . S
N1690 C1686 1.427 . S
N1690 C1687 1.384 . S
N1691 C1683 1.427 . S
N1691 C1689 1.384 . S
H1692 C1698 0.930 . S
H1693 C1702 0.930 . S
H1694 C1707 0.929 . S
H1695 C1705 0.929 . S
H1696 C1700 0.929 . S
H1697 C1706 0.929 . S
C1698 H1692 0.930 . S
C1698 C1699 1.367 . S
C1698 C1706 1.378 . S
C1699 C1698 1.367 . S
C1699 C1707 1.433 . S
C1700 H1696 0.929 . S
C1700 C1702 1.378 . S
C1700 C1704 1.350 . S
C1701 C1704 1.463 . S
C1701 C1706 1.350 . S
C1701 N1709 1.427 . S
C1702 H1693 0.930 . S
C1702 C1700 1.378 . S
C1702 C1703 1.367 . S
C1703 C1702 1.367 . S
C1703 C1705 1.433 . S
C1704 C1700 1.350 . S
C1704 C1701 1.463 . S
C1704 N1708 1.427 . S
C1705 H1695 0.929 . S
C1705 C1703 1.433 . S
C1705 N1708 1.384 . S
C1706 H1697 0.929 . S
C1706 C1698 1.378 . S
C1706 C1701 1.350 . S
C1707 H1694 0.929 . S
C1707 C1699 1.433 . S
C1707 N1709 1.384 . S
N1708 C1704 1.427 . S
N1708 C1705 1.384 . S
N1709 C1701 1.427 . S
N1709 C1707 1.384 . S
H1710 C1716 0.930 . S
H1711 C1720 0.930 . S
H1712 C1725 0.929 . S
H1713 C1723 0.929 . S
H1714 C1718 0.929 . S
H1715 C1724 0.929 . S
C1716 H1710 0.930 . S
C1716 C1717 1.367 . S
C1716 C1724 1.378 . S
C1717 C1716 1.367 . S
C1717 C1725 1.433 . S
C1718 H1714 0.929 . S
C1718 C1720 1.378 . S
C1718 C1722 1.350 . S
C1719 C1722 1.463 . S
C1719 C1724 1.350 . S
C1719 N1727 1.427 . S
C1720 H1711 0.930 . S
C1720 C1718 1.378 . S
C1720 C1721 1.367 . S
C1721 C1720 1.367 . S
C1721 C1723 1.433 . S
C1722 C1718 1.350 . S
C1722 C1719 1.463 . S
C1722 N1726 1.427 . S
C1723 H1713 0.929 . S
C1723 C1721 1.433 . S
C1723 N1726 1.384 . S
C1724 H1715 0.929 . S
C1724 C1716 1.378 . S
C1724 C1719 1.350 . S
C1725 H1712 0.929 . S
C1725 C1717 1.433 . S
C1725 N1727 1.384 . S
N1726 C1722 1.427 . S
N1726 C1723 1.384 . S
N1727 C1719 1.427 . S
N1727 C1725 1.384 . S
H1728 C1734 0.930 . S
H1729 C1738 0.930 . S
H1730 C1743 0.929 . S
H1731 C1741 0.929 . S
H1732 C1736 0.929 . S
H1733 C1742 0.929 . S
C1734 H1728 0.930 . S
C1734 C1735 1.367 . S
C1734 C1742 1.378 . S
C1735 C1734 1.367 . S
C1735 C1743 1.433 . S
C1736 H1732 0.929 . S
C1736 C1738 1.378 . S
C1736 C1740 1.350 . S
C1737 C1740 1.463 . S
C1737 C1742 1.350 . S
C1737 N1745 1.427 . S
C1738 H1729 0.930 . S
C1738 C1736 1.378 . S
C1738 C1739 1.367 . S
C1739 C1738 1.367 . S
C1739 C1741 1.433 . S
C1740 C1736 1.350 . S
C1740 C1737 1.463 . S
C1740 N1744 1.427 . S
C1741 H1731 0.929 . S
C1741 C1739 1.433 . S
C1741 N1744 1.384 . S
C1742 H1733 0.929 . S
C1742 C1734 1.378 . S
C1742 C1737 1.350 . S
C1743 H1730 0.929 . S
C1743 C1735 1.433 . S
C1743 N1745 1.384 . S
N1744 C1740 1.427 . S
N1744 C1741 1.384 . S
N1745 C1737 1.427 . S
N1745 C1743 1.384 . S
H1746 C1752 0.930 . S
H1747 C1756 0.930 . S
H1748 C1761 0.929 . S
H1749 C1759 0.929 . S
H1750 C1754 0.929 . S
H1751 C1760 0.929 . S
C1752 H1746 0.930 . S
C1752 C1753 1.367 . S
C1752 C1760 1.378 . S
C1753 C1752 1.367 . S
C1753 C1761 1.433 . S
C1754 H1750 0.929 . S
C1754 C1756 1.378 . S
C1754 C1758 1.350 . S
C1755 C1758 1.463 . S
C1755 C1760 1.350 . S
C1755 N1763 1.427 . S
C1756 H1747 0.930 . S
C1756 C1754 1.378 . S
C1756 C1757 1.367 . S
C1757 C1756 1.367 . S
C1757 C1759 1.433 . S
C1758 C1754 1.350 . S
C1758 C1755 1.463 . S
C1758 N1762 1.427 . S
C1759 H1749 0.929 . S
C1759 C1757 1.433 . S
C1759 N1762 1.384 . S
C1760 H1751 0.929 . S
C1760 C1752 1.378 . S
C1760 C1755 1.350 . S
C1761 H1748 0.929 . S
C1761 C1753 1.433 . S
C1761 N1763 1.384 . S
N1762 C1758 1.427 . S
N1762 C1759 1.384 . S
N1763 C1755 1.427 . S
N1763 C1761 1.384 . S
H1764 C1770 0.930 . S
H1765 C1774 0.930 . S
H1766 C1779 0.929 . S
H1767 C1777 0.929 . S
H1768 C1772 0.929 . S
H1769 C1778 0.929 . S
C1770 H1764 0.930 . S
C1770 C1771 1.367 . S
C1770 C1778 1.378 . S
C1771 C1770 1.367 . S
C1771 C1779 1.433 . S
C1772 H1768 0.929 . S
C1772 C1774 1.378 . S
C1772 C1776 1.350 . S
C1773 C1776 1.463 . S
C1773 C1778 1.350 . S
C1773 N1781 1.427 . S
C1774 H1765 0.930 . S
C1774 C1772 1.378 . S
C1774 C1775 1.367 . S
C1775 C1774 1.367 . S
C1775 C1777 1.433 . S
C1776 C1772 1.350 . S
C1776 C1773 1.463 . S
C1776 N1780 1.427 . S
C1777 H1767 0.929 . S
C1777 C1775 1.433 . S
C1777 N1780 1.384 . S
C1778 H1769 0.929 . S
C1778 C1770 1.378 . S
C1778 C1773 1.350 . S
C1779 H1766 0.929 . S
C1779 C1771 1.433 . S
C1779 N1781 1.384 . S
N1780 C1776 1.427 . S
N1780 C1777 1.384 . S
N1781 C1773 1.427 . S
N1781 C1779 1.384 . S
H1782 C1788 0.930 . S
H1783 C1792 0.930 . S
H1784 C1797 0.929 . S
H1785 C1795 0.929 . S
H1786 C1790 0.929 . S
H1787 C1796 0.929 . S
C1788 H1782 0.930 . S
C1788 C1789 1.367 . S
C1788 C1796 1.378 . S
C1789 C1788 1.367 . S
C1789 C1797 1.433 . S
C1790 H1786 0.929 . S
C1790 C1792 1.378 . S
C1790 C1794 1.350 . S
C1791 C1794 1.463 . S
C1791 C1796 1.350 . S
C1791 N1799 1.427 . S
C1792 H1783 0.930 . S
C1792 C1790 1.378 . S
C1792 C1793 1.367 . S
C1793 C1792 1.367 . S
C1793 C1795 1.433 . S
C1794 C1790 1.350 . S
C1794 C1791 1.463 . S
C1794 N1798 1.427 . S
C1795 H1785 0.929 . S
C1795 C1793 1.433 . S
C1795 N1798 1.384 . S
C1796 H1787 0.929 . S
C1796 C1788 1.378 . S
C1796 C1791 1.350 . S
C1797 H1784 0.929 . S
C1797 C1789 1.433 . S
C1797 N1799 1.384 . S
N1798 C1794 1.427 . S
N1798 C1795 1.384 . S
N1799 C1791 1.427 . S
N1799 C1797 1.384 . S
C835 C469 1.571 . S
C839 C654 1.541 . S
C853 C505 1.527 . S
C857 C674 1.498 . S
C871 C433 1.581 . S
C875 C697 1.567 . S
C889 C397 1.476 . S
C893 C677 1.461 . S
C911 C694 1.428 . S
C907 C325 1.440 . S
C925 C361 1.484 . S
C929 C657 1.473 . S
C947 C664 1.550 . S
C943 C421 1.579 . S
C965 C684 1.497 . S
C961 C349 1.526 . S
C979 C385 1.571 . S
C983 C689 1.559 . S
C997 C493 1.474 . S
C1001 C669 1.461 . S
C1015 C529 1.448 . S
C1019 C704 1.430 . S
C1037 C649 1.475 . S
C1033 C457 1.489 . S
C1055 C714 1.543 . S
C1051 C37 1.571 . S
C1069 C73 1.527 . S
C1073 C734 1.486 . S
C1087 C1 1.580 . S
C1091 C757 1.564 . S
C1105 C613 1.476 . S
C1109 C737 1.460 . S
C1123 C541 1.440 . S
C1127 C754 1.422 . S
C1141 C577 1.487 . S
C1145 C717 1.476 . S
C1159 C637 1.577 . S
C1163 C724 1.544 . S
C1177 C565 1.525 . S
C1181 C744 1.492 . S
C1199 C749 1.566 . S
C1195 C601 1.577 . S
C1213 C61 1.473 . S
C1217 C729 1.460 . S
C1235 C764 1.425 . S
C1231 C97 1.449 . S
C1249 C25 1.489 . S
C1253 C709 1.474 . S
C1271 C774 1.545 . S
C1267 C253 1.571 . S
C1285 C289 1.527 . S
C1289 C794 1.489 . S
C1307 C817 1.559 . S
C1303 C217 1.577 . S
C1325 C797 1.469 . S
C1321 C181 1.480 . S
C1343 C814 1.430 . S
C1339 C109 1.442 . S
C1357 C145 1.482 . S
C1361 C777 1.467 . S
C1375 C205 1.576 . S
C1379 C784 1.543 . S
C1393 C133 1.527 . S
C1397 C804 1.496 . S
C1415 C809 1.564 . S
C1411 C169 1.576 . S
C1429 C277 1.474 . S
C1433 C789 1.463 . S
C1447 C313 1.447 . S
C1451 C824 1.427 . S
C1465 C241 1.488 . S
C1469 C769 1.476 . S
C1483 C571 1.278 . S
C1487 C667 1.250 1_565 S
C1505 C687 1.624 . S
C1501 C607 1.694 . S
C1519 C643 1.509 . S
C1523 C696 1.455 . S
C1537 C247 1.687 . S
C1541 C676 1.612 1_655 S
C1555 C283 1.513 . S
C1559 C707 1.466 . S
C1577 C656 1.230 1_545 S
C1573 C319 1.277 . S
C1591 C139 1.279 . S
C1595 C727 1.238 . S
C1609 C175 1.691 . S
C1613 C747 1.613 . S
C1627 C211 1.505 . S
C1631 C756 1.460 . S
C1645 C463 1.687 . S
C1649 C736 1.619 . S
C1667 C767 1.459 . S
C1663 C499 1.510 . S
C1681 C535 1.275 . S
C1685 C716 1.239 . S
C1699 C355 1.279 . S
C1703 C787 1.239 . S
C1717 C391 1.690 . S
C1721 C807 1.613 . S
C1739 C816 1.454 . S
C1735 C427 1.509 . S
C1753 C31 1.687 . S
C1757 C796 1.612 . S
C1771 C67 1.510 . S
C1775 C827 1.452 . S
C1789 C103 1.274 . S
C1793 C776 1.246 . S
