# Generated by pormake.
# Topology apo, (3,6)-cn, num edge types: 1
# Building blocks:
#     Node 0, Type 0, BuildingBlock: PAMTOO_clean_linker_0, # of connection points: 3
#     Node 1, Type 0, BuildingBlock: PAMTOO_clean_linker_0, # of connection points: 3
#     Node 2, Type 0, BuildingBlock: PAMTOO_clean_linker_0, # of connection points: 3
#     Node 3, Type 0, BuildingBlock: PAMTOO_clean_linker_0, # of connection points: 3
#     Node 4, Type 0, BuildingBlock: PAMTOO_clean_linker_0, # of connection points: 3
#     Node 5, Type 0, BuildingBlock: PAMTOO_clean_linker_0, # of connection points: 3
#     Node 6, Type 0, BuildingBlock: PAMTOO_clean_linker_0, # of connection points: 3
#     Node 7, Type 0, BuildingBlock: PAMTOO_clean_linker_0, # of connection points: 3
#     Node 8, Type 1, BuildingBlock: KUMBOL_clean_sbu_1, # of connection points: 6
#     Node 9, Type 1, BuildingBlock: KUMBOL_clean_sbu_1, # of connection points: 6
#     Node 10, Type 1, BuildingBlock: KUMBOL_clean_sbu_1, # of connection points: 6
#     Node 11, Type 1, BuildingBlock: KUMBOL_clean_sbu_1, # of connection points: 6
#     Edge 12, Type (0, 1), BuildingBlock: CIFDUS_clean_linker_0, # of connection points: 2
#     Edge 13, Type (0, 1), BuildingBlock: CIFDUS_clean_linker_0, # of connection points: 2
#     Edge 14, Type (0, 1), BuildingBlock: CIFDUS_clean_linker_0, # of connection points: 2
#     Edge 15, Type (0, 1), BuildingBlock: CIFDUS_clean_linker_0, # of connection points: 2
#     Edge 16, Type (0, 1), BuildingBlock: CIFDUS_clean_linker_0, # of connection points: 2
#     Edge 17, Type (0, 1), BuildingBlock: CIFDUS_clean_linker_0, # of connection points: 2
#     Edge 18, Type (0, 1), BuildingBlock: CIFDUS_clean_linker_0, # of connection points: 2
#     Edge 19, Type (0, 1), BuildingBlock: CIFDUS_clean_linker_0, # of connection points: 2
#     Edge 20, Type (0, 1), BuildingBlock: CIFDUS_clean_linker_0, # of connection points: 2
#     Edge 21, Type (0, 1), BuildingBlock: CIFDUS_clean_linker_0, # of connection points: 2
#     Edge 22, Type (0, 1), BuildingBlock: CIFDUS_clean_linker_0, # of connection points: 2
#     Edge 23, Type (0, 1), BuildingBlock: CIFDUS_clean_linker_0, # of connection points: 2
#     Edge 24, Type (0, 1), BuildingBlock: CIFDUS_clean_linker_0, # of connection points: 2
#     Edge 25, Type (0, 1), BuildingBlock: CIFDUS_clean_linker_0, # of connection points: 2
#     Edge 26, Type (0, 1), BuildingBlock: CIFDUS_clean_linker_0, # of connection points: 2
#     Edge 27, Type (0, 1), BuildingBlock: CIFDUS_clean_linker_0, # of connection points: 2
#     Edge 28, Type (0, 1), BuildingBlock: CIFDUS_clean_linker_0, # of connection points: 2
#     Edge 29, Type (0, 1), BuildingBlock: CIFDUS_clean_linker_0, # of connection points: 2
#     Edge 30, Type (0, 1), BuildingBlock: CIFDUS_clean_linker_0, # of connection points: 2
#     Edge 31, Type (0, 1), BuildingBlock: CIFDUS_clean_linker_0, # of connection points: 2
#     Edge 32, Type (0, 1), BuildingBlock: CIFDUS_clean_linker_0, # of connection points: 2
#     Edge 33, Type (0, 1), BuildingBlock: CIFDUS_clean_linker_0, # of connection points: 2
#     Edge 34, Type (0, 1), BuildingBlock: CIFDUS_clean_linker_0, # of connection points: 2
#     Edge 35, Type (0, 1), BuildingBlock: CIFDUS_clean_linker_0, # of connection points: 2
# Relax obj value: 0.039
# Max RMSD: 0.233
# Mean RMSD: 0.166
data_MOF--net-apo--node1-KUMBOL_clean_sbu_1--node2-PAMTOO_clean_linker_0--edge1-CIFDUS_clean_linker_0
_symmetry_space_group_name_H-M    P1
_symmetry_Int_Tables_number       1
_symmetry_cell_setting            triclinic
loop_
_symmetry_equiv_pos_as_xyz
'x, y, z'
_cell_length_a     24.298928
_cell_length_b     36.803435
_cell_length_c     45.080245
_cell_angle_alpha  89.954386
_cell_angle_beta   89.993816
_cell_angle_gamma 90.386589
loop_
_atom_site_label
_atom_site_type_symbol
_atom_site_fract_x
_atom_site_fract_y
_atom_site_fract_z
_atom_type_partial_charge
H0 H 0.38315 0.44131 0.43173 0.0
H1 H 0.30076 0.38571 0.36063 0.0
H2 H 0.28829 0.34405 0.44941 0.0
H3 H 0.30839 0.29015 0.40326 0.0
C4 C 0.28398 0.30188 0.38472 0.0
O5 O 0.25973 0.33373 0.39407 0.0
H6 H 0.31267 0.3077 0.36604 0.0
C7 C 0.35746 0.41893 0.42427 0.0
C8 C 0.33734 0.39319 0.44479 0.0
C9 C 0.3446 0.41644 0.39401 0.0
C10 C 0.31032 0.38821 0.38402 0.0
C11 C 0.29029 0.36209 0.40406 0.0
C12 C 0.30343 0.36475 0.43434 0.0
H13 H 0.16783 0.06237 0.93129 0.0
H14 H 0.26407 0.15936 0.94833 0.0
H15 H 0.23592 0.12416 0.859 0.0
H16 H 0.35467 0.14104 0.88291 0.0
C17 C 0.34371 0.16859 0.89121 0.0
O18 O 0.28707 0.17175 0.89256 0.0
H19 H 0.36111 0.17166 0.91388 0.0
C20 C 0.19162 0.08554 0.92361 0.0
C21 C 0.19834 0.0907 0.89294 0.0
C22 C 0.2146 0.11022 0.94417 0.0
C23 C 0.24612 0.1397 0.93326 0.0
C24 C 0.25477 0.14422 0.90268 0.0
C25 C 0.2301 0.12009 0.8826 0.0
H26 H 0.88941 0.09004 0.59854 0.0
H27 H 0.78855 0.1254 0.67169 0.0
H28 H 0.79965 0.1902 0.59282 0.0
H29 H 0.80123 0.23366 0.6467 0.0
C30 C 0.7796 0.21483 0.66219 0.0
O31 O 0.75818 0.18588 0.64637 0.0
H32 H 0.81025 0.20503 0.67867 0.0
C33 C 0.86136 0.10942 0.60832 0.0
C34 C 0.84665 0.14049 0.59202 0.0
C35 C 0.84045 0.10328 0.63708 0.0
C36 C 0.8053 0.12934 0.64964 0.0
C37 C 0.79097 0.16064 0.63375 0.0
C38 C 0.81087 0.16586 0.60486 0.0
H39 H 0.62764 0.42621 0.11136 0.0
H40 H 0.72277 0.32939 0.0956 0.0
H41 H 0.71082 0.37266 0.18333 0.0
H42 H 0.81921 0.35157 0.16231 0.0
C43 C 0.80801 0.32457 0.15284 0.0
O44 O 0.75154 0.3209 0.15096 0.0
H45 H 0.82596 0.32305 0.13017 0.0
C46 C 0.65319 0.40429 0.11935 0.0
C47 C 0.6673 0.40308 0.14967 0.0
C48 C 0.6727 0.37788 0.09929 0.0
C49 C 0.70596 0.34968 0.11037 0.0
C50 C 0.71938 0.34794 0.14057 0.0
C51 C 0.69999 0.37444 0.16005 0.0
H52 H 0.66595 0.55862 0.5948 0.0
H53 H 0.76386 0.65517 0.57974 0.0
H54 H 0.7462 0.61292 0.66776 0.0
H55 H 0.73271 0.69403 0.65689 0.0
C56 C 0.76994 0.69772 0.64275 0.0
O57 O 0.79096 0.66408 0.63542 0.0
H58 H 0.75777 0.71216 0.62212 0.0
C59 C 0.69092 0.58085 0.60318 0.0
C60 C 0.703 0.58248 0.63375 0.0
C61 C 0.71288 0.60675 0.58322 0.0
C62 C 0.74691 0.63467 0.59446 0.0
C63 C 0.75852 0.63691 0.62486 0.0
C64 C 0.73685 0.61083 0.64432 0.0
H65 H 0.88122 0.94195 0.10897 0.0
H66 H 0.79214 0.88934 0.17952 0.0
H67 H 0.79358 0.84155 0.09266 0.0
H68 H 0.69076 0.82664 0.12001 0.0
C69 C 0.70054 0.83477 0.14317 0.0
O70 O 0.75694 0.83472 0.14706 0.0
H71 H 0.68427 0.8627 0.1466 0.0
C72 C 0.85624 0.91935 0.11673 0.0
C73 C 0.83956 0.89197 0.09682 0.0
C74 C 0.83939 0.91854 0.14649 0.0
C75 C 0.80554 0.89009 0.1566 0.0
C76 C 0.78928 0.8623 0.13717 0.0
C77 C 0.80645 0.8632 0.10744 0.0
H78 H 0.14781 0.92958 0.42999 0.0
H79 H 0.22757 0.82703 0.44528 0.0
H80 H 0.22139 0.8706 0.35747 0.0
H81 H 0.19876 0.79151 0.3627 0.0
C82 C 0.22856 0.78507 0.38066 0.0
O83 O 0.25443 0.81649 0.39015 0.0
H84 H 0.20569 0.77266 0.39955 0.0
C85 C 0.1704 0.90645 0.42166 0.0
C86 C 0.18228 0.90381 0.39107 0.0
C87 C 0.18611 0.87876 0.44148 0.0
C88 C 0.2141 0.84836 0.43042 0.0
C89 C 0.22617 0.84545 0.40024 0.0
C90 C 0.21059 0.87307 0.38069 0.0
H91 H 0.39726 0.59916 0.93106 0.0
H92 H 0.31107 0.63219 0.85178 0.0
H93 H 0.28305 0.68786 0.93372 0.0
H94 H 0.18432 0.66894 0.89797 0.0
C95 C 0.20093 0.67594 0.87564 0.0
O96 O 0.25634 0.68413 0.87763 0.0
H97 H 0.19495 0.65182 0.86109 0.0
C98 C 0.3689 0.61697 0.91966 0.0
C99 C 0.3423 0.6443 0.93592 0.0
C100 C 0.35787 0.6118 0.88923 0.0
C101 C 0.31961 0.63482 0.87526 0.0
C102 C 0.29243 0.66188 0.89138 0.0
C103 C 0.30373 0.66651 0.9216 0.0
C104 C 0.87776 0.05999 0.28805 0.0
C105 C 0.90418 1.00589 0.31504 0.0
C106 C 0.91412 0.04231 0.30675 0.0
C107 C 0.85894 0.98708 0.30294 0.0
C108 C 0.83083 0.04183 0.277 0.0
C109 C 0.82228 1.00504 0.284 0.0
N110 N 0.88786 0.09532 0.2811 0.0
C111 C 0.8507 0.11503 0.26522 0.0
C112 C 0.79363 0.06139 0.25953 0.0
C113 C 0.80328 0.09827 0.25394 0.0
Gd114 Gd 0.0928 0.12633 0.23957 0.0
Gd115 Gd 0.96883 0.12101 0.30019 0.0
N116 N 0.95705 0.06143 0.31835 0.0
C117 C 0.93879 0.98994 0.3361 0.0
C118 C 0.98723 0.04716 0.34103 0.0
C119 C 0.97976 0.01093 0.34962 0.0
H120 H 0.01671 0.06375 0.35282 0.0
H121 H 0.00505 0.99942 0.36697 0.0
H122 H 0.07364 0.20627 0.20754 0.0
H123 H 0.85822 0.14352 0.2609 0.0
H124 H 0.11722 0.26745 0.20669 0.0
H125 H 0.93266 0.962 0.34303 0.0
H126 H 0.85103 0.95896 0.30878 0.0
H127 H 0.18913 0.07017 0.26937 0.0
H128 H 0.75705 0.04842 0.25062 0.0
H129 H 0.77433 0.11374 0.24086 0.0
H130 H 0.27417 0.25538 0.27083 0.0
H131 H 0.78688 0.99044 0.27538 0.0
H132 H 0.31574 0.1364 0.30739 0.0
H133 H 0.27408 0.07585 0.29861 0.0
N134 N 0.17838 0.12737 0.26453 0.0
C135 C 0.20295 0.16051 0.26714 0.0
C136 C 0.20502 0.09698 0.2742 0.0
C137 C 0.27748 0.13419 0.29516 0.0
C138 C 0.25402 0.09998 0.29031 0.0
C139 C 0.25283 0.16491 0.28279 0.0
H140 H 0.31534 0.20348 0.29696 0.0
N141 N 0.13214 0.18453 0.23755 0.0
C142 C 0.17983 0.18981 0.25261 0.0
C143 C 0.18254 0.25245 0.23658 0.0
C144 C 0.20582 0.22415 0.25305 0.0
C145 C 0.11052 0.21142 0.22033 0.0
C146 C 0.13505 0.24591 0.21984 0.0
O147 O 0.95961 0.09385 0.25497 0.0
O148 O 0.04632 0.07349 0.24441 0.0
O149 O 0.07989 0.12901 0.19198 0.0
O150 O 0.15563 0.10727 0.20893 0.0
O151 O 0.0543 0.10287 0.31387 0.0
O152 O 0.0922 0.07829 0.27152 0.0
O153 O 0.06889 0.17422 0.26841 0.0
O154 O 0.04934 0.14775 0.31278 0.0
O155 O 0.92661 0.11967 0.34274 0.0
O156 O 0.92835 0.16922 0.31721 0.0
O157 O 0.00906 0.1454 0.22443 0.0
O158 O 0.9607 0.16587 0.26575 0.0
C159 C 0.99263 0.06944 0.24349 0.0
C160 C 0.0857 0.07888 0.30056 0.0
C161 C 0.12224 0.08404 0.16335 0.0
C162 C 0.12385 0.06457 0.11152 0.0
C163 C 0.09796 0.02198 0.15053 0.0
C164 C 0.10563 0.04901 0.17187 0.0
C165 C 0.10665 0.0297 0.12053 0.0
C166 C 0.13189 0.09165 0.13318 0.0
C167 C 0.12606 0.11338 0.18542 0.0
C168 C 0.2541 0.22904 0.26973 0.0
C169 C 0.27743 0.1995 0.28469 0.0
H170 H 0.20125 0.27926 0.23635 0.0
C171 C 0.07168 0.17422 0.29742 0.0
C172 C 0.97198 0.16648 0.23701 0.0
C173 C 0.93524 0.17403 0.36966 0.0
C174 C 0.93052 0.18267 0.42347 0.0
C175 C 0.99964 0.21482 0.39429 0.0
C176 C 0.97988 0.19847 0.36845 0.0
C177 C 0.97538 0.2069 0.42163 0.0
C178 C 0.91037 0.16648 0.39725 0.0
C179 C 0.91705 0.15434 0.34277 0.0
H180 H 0.08481 0.99504 0.15724 0.0
H181 H 0.09813 0.04274 0.19498 0.0
H182 H 0.10025 1.00834 0.10434 0.0
H183 H 0.14405 0.11886 0.12651 0.0
H184 H 0.03418 0.2335 0.39313 0.0
H185 H 0.99994 0.20468 0.34761 0.0
H186 H 0.99146 0.21997 0.44136 0.0
H187 H 0.87646 0.14722 0.39839 0.0
C188 C 0.69823 0.38813 0.77573 0.0
C189 C 0.72965 0.45071 0.77387 0.0
C190 C 0.68784 0.42475 0.7791 0.0
C191 C 0.78125 0.43922 0.76356 0.0
C192 C 0.75055 0.37628 0.7665 0.0
C193 C 0.79162 0.40206 0.75978 0.0
N194 N 0.65814 0.36403 0.78318 0.0
C195 C 0.66852 0.32767 0.78375 0.0
C196 C 0.76044 0.33887 0.76523 0.0
C197 C 0.71946 0.31447 0.7743 0.0
Gd198 Gd 0.43516 0.37655 0.74229 0.0
Gd199 Gd 0.57282 0.38809 0.79704 0.0
N200 N 0.63744 0.43487 0.7889 0.0
C201 C 0.7186 0.48731 0.77973 0.0
C202 C 0.62726 0.47029 0.79611 0.0
C203 C 0.66736 0.49708 0.79122 0.0
H204 H 0.58776 0.47778 0.80512 0.0
H205 H 0.65878 0.52519 0.79635 0.0
H206 H 0.491 0.30732 0.70147 0.0
H207 H 0.63714 0.30883 0.79126 0.0
H208 H 0.49059 0.24078 0.70192 0.0
H209 H 0.74961 0.5081 0.77598 0.0
H210 H 0.81372 0.45877 0.75904 0.0
H211 H 0.32605 0.40185 0.78111 0.0
H212 H 0.8 0.32861 0.75814 0.0
H213 H 0.72712 0.28553 0.77412 0.0
H214 H 0.34795 0.20929 0.77079 0.0
H215 H 0.83197 0.39352 0.75244 0.0
H216 H 0.24239 0.30627 0.81234 0.0
H217 H 0.24939 0.37329 0.80917 0.0
N218 N 0.36129 0.35144 0.76876 0.0
C219 C 0.35713 0.31468 0.76925 0.0
C220 C 0.32266 0.37258 0.7822 0.0
C221 C 0.27563 0.31866 0.79982 0.0
C222 C 0.27947 0.35651 0.79811 0.0
C223 C 0.31455 0.29723 0.78519 0.0
H224 H 0.28036 0.24521 0.79858 0.0
N225 N 0.43498 0.31237 0.73774 0.0
C226 C 0.39571 0.29454 0.75379 0.0
C227 C 0.42831 0.23674 0.73573 0.0
C228 C 0.39194 0.25624 0.75359 0.0
C229 C 0.46594 0.29348 0.71771 0.0
C230 C 0.46455 0.25551 0.71716 0.0
O231 O 0.57287 0.42691 0.75776 0.0
O232 O 0.49653 0.41878 0.72636 0.0
O233 O 0.40002 0.36524 0.69865 0.0
O234 O 0.36781 0.4087 0.72508 0.0
O235 O 0.50551 0.42988 0.8034 0.0
O236 O 0.43267 0.42812 0.76893 0.0
O237 O 0.43524 0.36729 0.79226 0.0
O238 O 0.51706 0.33917 0.79796 0.0
O239 O 0.54943 0.40159 0.84255 0.0
O240 O 0.62103 0.36893 0.83431 0.0
O241 O 0.51891 0.36278 0.72384 0.0
O242 O 0.55476 0.34101 0.76671 0.0
C243 C 0.54335 0.43487 0.73397 0.0
C244 C 0.45953 0.4426 0.79159 0.0
C245 C 0.36906 0.41741 0.67299 0.0
C246 C 0.36301 0.42601 0.61927 0.0
C247 C 0.38501 0.4771 0.65133 0.0
C248 C 0.38103 0.45465 0.67618 0.0
C249 C 0.37649 0.46289 0.62304 0.0
C250 C 0.35907 0.40333 0.64439 0.0
C251 C 0.36767 0.39318 0.69923 0.0
C252 C 0.35089 0.23867 0.77036 0.0
C253 C 0.31223 0.25912 0.78607 0.0
H254 H 0.42685 0.20732 0.735 0.0
C255 C 0.46537 0.34261 0.80537 0.0
C256 C 0.55811 0.34566 0.73798 0.0
C257 C 0.62529 0.40805 0.8755 0.0
C258 C 0.6491 0.42535 0.92646 0.0
C259 C 0.69934 0.45125 0.88472 0.0
C260 C 0.66751 0.43091 0.86509 0.0
C261 C 0.69027 0.4486 0.91513 0.0
C262 C 0.61648 0.405 0.90638 0.0
C263 C 0.59263 0.38627 0.85415 0.0
H264 H 0.39492 0.50563 0.65403 0.0
H265 H 0.38812 0.46645 0.69786 0.0
H266 H 0.37955 0.48088 0.60406 0.0
H267 H 0.3492 0.37475 0.64165 0.0
H268 H 0.73181 0.46874 0.87634 0.0
H269 H 0.67686 0.43256 0.84179 0.0
H270 H 0.71661 0.46411 0.92988 0.0
H271 H 0.58461 0.38694 0.91469 0.0
C272 C 0.81348 0.88099 0.79004 0.0
C273 C 0.79513 0.81603 0.78959 0.0
C274 C 0.83221 0.84547 0.79233 0.0
C275 C 0.7391 0.82277 0.7845 0.0
C276 C 0.75723 0.88783 0.785 0.0
C277 C 0.72021 0.85855 0.78221 0.0
N278 N 0.85034 0.90879 0.79241 0.0
C279 C 0.8336 0.94405 0.79074 0.0
C280 C 0.7399 0.92394 0.78276 0.0
C281 C 0.77823 0.95216 0.78577 0.0
Gd282 Gd 0.0566 0.89304 0.73499 0.0
Gd283 Gd 0.94226 0.89225 0.79968 0.0
N284 N 0.88707 0.83975 0.79615 0.0
C285 C 0.81557 0.78067 0.79179 0.0
C286 C 0.90686 0.80537 0.79945 0.0
C287 C 0.87159 0.77535 0.79698 0.0
H288 H 0.94967 0.80083 0.80405 0.0
H289 H 0.88761 0.74812 0.79918 0.0
H290 H 0.02442 0.97484 0.70535 0.0
H291 H 0.86281 0.96599 0.79373 0.0
H292 H 0.05749 0.03804 0.70818 0.0
H293 H 0.78842 0.75733 0.78974 0.0
H294 H 0.71004 0.80048 0.78222 0.0
H295 H 0.15631 0.84132 0.76293 0.0
H296 H 0.69703 0.93032 0.77888 0.0
H297 H 0.76512 0.98015 0.78437 0.0
H298 H 0.22766 0.02955 0.76153 0.0
H299 H 0.67687 0.8633 0.77824 0.0
H300 H 0.28923 0.91096 0.78982 0.0
H301 H 0.24861 0.84935 0.7853 0.0
N302 N 0.145 0.89772 0.75545 0.0
C303 C 0.16729 0.93172 0.75675 0.0
C304 C 0.17379 0.86824 0.76496 0.0
C305 C 0.24889 0.90757 0.77993 0.0
C306 C 0.22603 0.87274 0.77749 0.0
C307 C 0.2196 0.93759 0.76941 0.0
H308 H 0.28071 0.97821 0.78124 0.0
N309 N 0.08625 0.95414 0.73393 0.0
C310 C 0.13678 0.96075 0.74599 0.0
C311 C 0.1287 0.02457 0.73432 0.0
C312 C 0.15877 0.99629 0.74708 0.0
C313 C 0.05975 0.98097 0.71885 0.0
C314 C 0.07956 0.01672 0.71956 0.0
O315 O 0.91603 0.86816 0.75571 0.0
O316 O 0.99265 0.84826 0.72978 0.0
O317 O 0.05814 0.9035 0.68749 0.0
O318 O 0.11346 0.86416 0.7063 0.0
O319 O 0.01488 0.85351 0.80416 0.0
O320 O 0.04795 0.8388 0.7573 0.0
O321 O 0.07592 0.9069 0.78325 0.0
O322 O 1.00134 0.93922 0.79736 0.0
O323 O 0.96722 0.87704 0.84428 0.0
O324 O 0.89849 0.91315 0.83799 0.0
O325 O 0.97563 0.92209 0.72691 0.0
O326 O 0.95166 0.94392 0.77297 0.0
C327 C 0.93934 0.84802 0.73521 0.0
C328 C 0.04277 0.83235 0.7859 0.0
C329 C 0.14477 0.89784 0.66463 0.0
C330 C 0.18145 0.91516 0.61603 0.0
C331 C 0.23365 0.92803 0.66092 0.0
C332 C 0.1923 0.91209 0.67808 0.0
C333 C 0.22835 0.92965 0.63013 0.0
C334 C 0.13963 0.89929 0.63355 0.0
C335 C 0.09974 0.88228 0.68267 0.0
C336 C 0.21043 1.00236 0.76023 0.0
C337 C 0.24076 0.97311 0.77136 0.0
H338 H 0.14415 0.05225 0.73468 0.0
C339 C 0.05443 0.93419 0.79773 0.0
C340 C 0.94934 0.94549 0.74381 0.0
C341 C 0.9513 0.92094 0.88134 0.0
C342 C 0.95914 0.93352 0.93448 0.0
C343 C 1.00085 0.97446 0.89822 0.0
C344 C 0.98148 0.95264 0.87515 0.0
C345 C 0.98976 0.96509 0.92767 0.0
C346 C 0.94017 0.91146 0.91097 0.0
C347 C 0.93095 0.89773 0.85709 0.0
H348 H 0.27015 0.93895 0.67151 0.0
H349 H 0.19771 0.91082 0.7018 0.0
H350 H 0.26155 0.94159 0.61729 0.0
H351 H 0.10289 0.8884 0.62309 0.0
H352 H 0.02414 0.9989 0.89326 0.0
H353 H 0.98966 0.96064 0.85251 0.0
H354 H 0.00431 0.98299 0.94508 0.0
H355 H 0.91711 0.8868 0.91566 0.0
C356 C 0.66658 0.6808 0.2711 0.0
C357 C 0.64494 0.74165 0.28763 0.0
C358 C 0.63173 0.7043 0.28595 0.0
C359 C 0.69154 0.75517 0.27269 0.0
C360 C 0.71454 0.69398 0.25702 0.0
C361 C 0.72627 0.73138 0.25743 0.0
N362 N 0.65327 0.64496 0.2702 0.0
C363 C 0.68751 0.6204 0.25722 0.0
C364 C 0.74912 0.66914 0.24284 0.0
C365 C 0.73579 0.63214 0.24318 0.0
Gd366 Gd 0.43994 0.63615 0.23296 0.0
Gd367 Gd 0.57031 0.6275 0.29258 0.0
N368 N 0.58657 0.69041 0.29993 0.0
C369 C 0.61202 0.7641 0.30512 0.0
C370 C 0.55859 0.7115 0.31974 0.0
C371 C 0.56956 0.74875 0.32187 0.0
H372 H 0.52842 0.69983 0.33453 0.0
H373 H 0.54591 0.76547 0.33687 0.0
H374 H 0.38202 0.55449 0.22217 0.0
H375 H 0.6768 0.59185 0.25721 0.0
H376 H 0.29237 0.52393 0.23158 0.0
H377 H 0.62073 0.79292 0.307 0.0
H378 H 0.70177 0.78385 0.27338 0.0
H379 H 0.41431 0.72476 0.23165 0.0
H380 H 0.7863 0.67821 0.23172 0.0
H381 H 0.76247 0.61271 0.23248 0.0
H382 H 0.17729 0.61957 0.26862 0.0
H383 H 0.76247 0.74212 0.24637 0.0
H384 H 0.2498 0.74109 0.26336 0.0
H385 H 0.33856 0.76634 0.2455 0.0
N386 N 0.36883 0.67712 0.24237 0.0
C387 C 0.3197 0.66271 0.25056 0.0
C388 C 0.37548 0.71374 0.23936 0.0
C389 C 0.28282 0.72287 0.25737 0.0
C390 C 0.33278 0.73722 0.24716 0.0
C391 C 0.27532 0.68512 0.2585 0.0
H392 H 0.19001 0.68588 0.27257 0.0
N393 N 0.35556 0.60542 0.23884 0.0
C394 C 0.3127 0.62553 0.24857 0.0
C395 C 0.25408 0.57229 0.24866 0.0
C396 C 0.2609 0.60952 0.25415 0.0
C397 C 0.34814 0.56977 0.23128 0.0
C398 C 0.29764 0.55248 0.23665 0.0
O399 O 0.57956 0.64138 0.24342 0.0
O400 O 0.50641 0.67846 0.2368 0.0
O401 O 0.47832 0.62543 0.19038 0.0
O402 O 0.39792 0.65008 0.19198 0.0
O403 O 0.48856 0.64928 0.30901 0.0
O404 O 0.46777 0.67746 0.26605 0.0
O405 O 0.426 0.59364 0.26855 0.0
O406 O 0.49917 0.5896 0.30256 0.0
O407 O 0.60068 0.63317 0.33798 0.0
O408 O 0.62506 0.58739 0.31173 0.0
O409 O 0.48979 0.58479 0.22984 0.0
O410 O 0.56689 0.57953 0.26128 0.0
C411 C 0.55765 0.67025 0.23117 0.0
C412 C 0.45733 0.67166 0.29402 0.0
C413 C 0.45503 0.66546 0.15158 0.0
C414 C 0.46023 0.68065 0.09894 0.0
C415 C 0.50208 0.72048 0.13572 0.0
C416 C 0.48392 0.69747 0.15839 0.0
C417 C 0.4907 0.71203 0.10612 0.0
C418 C 0.4425 0.65738 0.12187 0.0
C419 C 0.43855 0.64002 0.17517 0.0
C420 C 0.21725 0.63141 0.26381 0.0
C421 C 0.22449 0.66917 0.26605 0.0
H422 H 0.21493 0.55891 0.25267 0.0
C423 C 0.45038 0.57983 0.29216 0.0
C424 C 0.53415 0.56793 0.23969 0.0
C425 C 0.61421 0.57759 0.36359 0.0
C426 C 0.61144 0.56663 0.41729 0.0
C427 C 0.58377 0.5191 0.38288 0.0
C428 C 0.5948 0.54196 0.35892 0.0
C429 C 0.59155 0.53134 0.41181 0.0
C430 C 0.62322 0.58967 0.39299 0.0
C431 C 0.62532 0.60198 0.33798 0.0
H432 H 0.52492 0.74496 0.14112 0.0
H433 H 0.49237 0.7046 0.18118 0.0
H434 H 0.50484 0.73033 0.08885 0.0
H435 H 0.41977 0.63278 0.11655 0.0
H436 H 0.56943 0.49163 0.37908 0.0
H437 H 0.58833 0.5316 0.33672 0.0
H438 H 0.58283 0.51292 0.43 0.0
H439 H 0.63854 0.61697 0.39694 0.0
H440 H 0.18419 0.97741 0.39948 0.0
H441 H 0.14116 0.8955 0.33487 0.0
H442 H 0.11289 0.94258 0.30005 0.0
H443 H 0.09613 1.00709 0.28861 0.0
H444 H 0.1335 0.08853 0.35434 0.0
H445 H 0.16819 0.04174 0.38798 0.0
C446 C 0.16825 0.96978 0.37789 0.0
C447 C 0.16499 0.93283 0.36992 0.0
C448 C 0.15121 0.997 0.35806 0.0
C449 C 0.14498 0.92366 0.34156 0.0
C450 C 0.1285 0.95059 0.32162 0.0
C451 C 0.11283 0.01451 0.31011 0.0
C452 C 0.11261 0.05106 0.31904 0.0
C453 C 0.1312 0.98734 0.32965 0.0
C454 C 0.13337 0.06046 0.34709 0.0
C455 C 0.15295 0.03373 0.36634 0.0
H456 H 0.31523 0.56911 0.84496 0.0
H457 H 0.4641 0.58766 0.89524 0.0
H458 H 0.5082 0.53722 0.86984 0.0
H459 H 0.50423 0.48705 0.83407 0.0
H460 H 0.35724 0.47101 0.78161 0.0
H461 H 0.3135 0.52168 0.80678 0.0
C462 C 0.35763 0.56265 0.85009 0.0
C463 C 0.38582 0.5822 0.87235 0.0
C464 C 0.38334 0.53397 0.83495 0.0
C465 C 0.44063 0.57275 0.8788 0.0
C466 C 0.46619 0.544 0.86408 0.0
C467 C 0.46281 0.49471 0.82788 0.0
C468 C 0.43432 0.47493 0.80589 0.0
C469 C 0.43781 0.52423 0.84227 0.0
C470 C 0.38051 0.48554 0.79836 0.0
C471 C 0.35524 0.51457 0.81282 0.0
H472 H 0.59859 0.55475 0.63698 0.0
H473 H 0.75896 0.54673 0.67738 0.0
H474 H 0.72419 0.50062 0.71176 0.0
H475 H 0.64847 0.46186 0.72979 0.0
H476 H 0.48779 0.47108 0.69054 0.0
H477 H 0.52241 0.51663 0.65589 0.0
C478 C 0.62597 0.54277 0.65322 0.0
C479 C 0.68132 0.55427 0.65457 0.0
C480 C 0.6056 0.51637 0.67311 0.0
C481 C 0.71606 0.53872 0.67602 0.0
C482 C 0.69625 0.51222 0.69564 0.0
C483 C 0.62073 0.47429 0.71417 0.0
C484 C 0.56518 0.4632 0.71329 0.0
C485 C 0.64104 0.50088 0.69445 0.0
C486 C 0.53053 0.47893 0.69191 0.0
C487 C 0.55039 0.50514 0.67205 0.0
H488 H 0.93764 0.9248 0.17379 0.0
H489 H 0.78139 0.97777 0.16361 0.0
H490 H 0.81434 0.02937 0.1934 0.0
H491 H 0.89017 0.06083 0.21952 0.0
H492 H 0.04457 1.00578 0.232 0.0
H493 H 0.01051 0.95396 0.20362 0.0
C494 C 0.91082 0.94754 0.17847 0.0
C495 C 0.85738 0.94779 0.16673 0.0
C496 C 0.93001 0.97686 0.19563 0.0
C497 C 0.82267 0.97721 0.17267 0.0
C498 C 0.84158 1.00666 0.18955 0.0
C499 C 0.91581 0.03715 0.21665 0.0
C500 C 0.96982 0.03729 0.22786 0.0
C501 C 0.89547 1.00699 0.20082 0.0
C502 C 0.00306 1.00667 0.22329 0.0
C503 C 0.98354 0.97687 0.20719 0.0
H504 H 0.86481 0.09667 0.69621 0.0
H505 H 0.84994 0.03415 0.61557 0.0
H506 H 0.87955 0.97973 0.64178 0.0
H507 H 0.91299 0.95017 0.68704 0.0
H508 H 0.92761 0.01214 0.76787 0.0
H509 H 0.89321 0.06608 0.74238 0.0
C510 C 0.86725 0.07105 0.68444 0.0
C511 C 0.85565 0.06977 0.6538 0.0
C512 C 0.88401 0.03963 0.69973 0.0
C513 C 0.85969 0.03627 0.63895 0.0
C514 C 0.87626 1.00499 0.65398 0.0
C515 C 0.90819 0.97542 0.69915 0.0
C516 C 0.92288 0.97709 0.72931 0.0
C517 C 0.88911 1.00643 0.68426 0.0
C518 C 0.91616 0.00996 0.74471 0.0
C519 C 0.8969 0.04093 0.73007 0.0
H520 H 0.56602 0.43396 0.15405 0.0
H521 H 0.72906 0.43787 0.19178 0.0
H522 H 0.70139 0.48721 0.22468 0.0
H523 H 0.63214 0.53149 0.24095 0.0
H524 H 0.46964 0.52795 0.20213 0.0
H525 H 0.4959 0.47643 0.1717 0.0
C526 C 0.59553 0.4457 0.16941 0.0
C527 C 0.64955 0.4323 0.17033 0.0
C528 C 0.57947 0.47422 0.18817 0.0
C529 C 0.68704 0.44743 0.19075 0.0
C530 C 0.67133 0.47578 0.20951 0.0
C531 C 0.60222 0.51923 0.22612 0.0
C532 C 0.54905 0.53397 0.22385 0.0
C533 C 0.61776 0.48965 0.20824 0.0
C534 C 0.51101 0.51756 0.20434 0.0
C535 C 0.52597 0.48801 0.1868 0.0
H536 H 0.29534 0.46908 0.36087 0.0
H537 H 0.45252 0.42134 0.38071 0.0
H538 H 0.4988 0.46638 0.34936 0.0
H539 H 0.49553 0.52199 0.31957 0.0
H540 H 0.33943 0.57157 0.30046 0.0
H541 H 0.29174 0.52368 0.3284 0.0
C542 C 0.33966 0.46859 0.35807 0.0
C543 C 0.37072 0.44216 0.37299 0.0
C544 C 0.36622 0.49533 0.34071 0.0
C545 C 0.42807 0.44166 0.36947 0.0
C546 C 0.45452 0.46753 0.35179 0.0
C547 C 0.45113 0.52241 0.3217 0.0
C548 C 0.42111 0.5504 0.30821 0.0
C549 C 0.42422 0.49498 0.3379 0.0
C550 C 0.36342 0.55015 0.31049 0.0
C551 C 0.33619 0.52288 0.3266 0.0
H552 H 0.2157 0.01864 0.88387 0.0
H553 H 0.11652 0.10857 0.85504 0.0
H554 H 0.06322 0.06806 0.82268 0.0
H555 H 0.04264 1.0066 0.80412 0.0
H556 H 0.14513 0.91706 0.83029 0.0
H557 H 0.1999 0.95771 0.8619 0.0
C558 C 0.18265 0.02922 0.87028 0.0
C559 C 0.16965 0.06634 0.8718 0.0
C560 C 0.15286 1.00585 0.85138 0.0
C561 C 0.12712 0.08004 0.85405 0.0
C562 C 0.09662 0.05691 0.83568 0.0
C563 C 0.07703 0.99611 0.81678 0.0
C564 C 0.08954 0.95894 0.81534 0.0
C565 C 0.10872 0.01972 0.83442 0.0
C566 C 0.13473 0.94562 0.83127 0.0
C567 C 0.1659 0.96881 0.84935 0.0
H568 H 0.12219 0.08453 0.97233 0.0
H569 H 0.28645 0.1246 0.98998 0.0
H570 H 0.27168 0.11632 0.04306 0.0
H571 H 0.21324 0.09557 0.08475 0.0
H572 H 0.05213 0.05126 0.06644 0.0
H573 H 0.06508 0.06253 1.01343 0.0
C574 C 0.15524 0.09102 0.98762 0.0
C575 C 0.20545 0.10522 0.9768 0.0
C576 C 0.14709 0.08525 1.01816 0.0
C577 C 0.24699 0.11422 0.99739 0.0
C578 C 0.23877 0.1092 0.02786 0.0
C579 C 0.18093 0.08865 0.0691 0.0
C580 C 0.13179 0.07264 0.07947 0.0
C581 C 0.18909 0.09459 0.03852 0.0
C582 C 0.09044 0.0634 0.05897 0.0
C583 C 0.09779 0.06991 0.02867 0.0
H584 H 0.27353 0.37838 0.49376 0.0
H585 H 0.43649 0.41421 0.46824 0.0
H586 H 0.45926 0.42598 0.51987 0.0
H587 H 0.43139 0.42993 0.5721 0.0
H588 H 0.27109 0.39129 0.59863 0.0
H589 H 0.24935 0.37581 0.54698 0.0
C590 C 0.31437 0.38813 0.49947 0.0
C591 C 0.35263 0.39623 0.47683 0.0
C592 C 0.32776 0.39431 0.52947 0.0
C593 C 0.40538 0.40888 0.48491 0.0
C594 C 0.41874 0.41536 0.51454 0.0
C595 C 0.39196 0.41772 0.56653 0.0
C596 C 0.3527 0.41196 0.58895 0.0
C597 C 0.37994 0.40889 0.53692 0.0
C598 C 0.30195 0.39582 0.58166 0.0
C599 C 0.28945 0.38721 0.55214 0.0
H600 H 0.6638 0.4393 0.0653 0.0
H601 H 0.65398 0.32232 0.05951 0.0
H602 H 0.64167 0.32652 1.00589 0.0
H603 H 0.63958 0.36345 0.95995 0.0
H604 H 0.64563 0.48031 0.96677 0.0
H605 H 0.65163 0.476 0.02064 0.0
C606 C 0.65771 0.41463 0.05259 0.0
C607 C 0.66047 0.38052 0.06675 0.0
C608 C 0.64981 0.41719 0.02175 0.0
C609 C 0.65343 0.349 0.04938 0.0
C610 C 0.64588 0.35134 1.01863 0.0
C611 C 0.64097 0.38794 0.9733 0.0
C612 C 0.64279 0.42214 0.95927 0.0
C613 C 0.64485 0.38529 1.00446 0.0
C614 C 0.64499 0.45363 0.97694 0.0
C615 C 0.64848 0.4512 1.00778 0.0
H616 H 0.79201 0.15711 0.54095 0.0
H617 H 0.95441 0.13801 0.57593 0.0
H618 H 0.99453 0.14888 0.52696 0.0
H619 H 0.9837 0.16446 0.47429 0.0
H620 H 0.82144 0.18174 0.43852 0.0
H621 H 0.78091 0.17063 0.4875 0.0
C622 C 0.83617 0.15546 0.53778 0.0
C623 C 0.87025 0.14689 0.56202 0.0
C624 C 0.85891 0.16128 0.5094 0.0
C625 C 0.92734 0.14436 0.55758 0.0
C626 C 0.95029 0.15067 0.52961 0.0
C627 C 0.93946 0.16588 0.47726 0.0
C628 C 0.90564 0.17415 0.45286 0.0
C629 C 0.91653 0.15923 0.50539 0.0
C630 C 0.84832 0.17526 0.45692 0.0
C631 C 0.82518 0.1691 0.48495 0.0
H632 H 0.93911 0.91102 0.07329 0.0
H633 H 0.77443 0.87879 0.04844 0.0
H634 H 0.79749 0.88699 0.99609 0.0
H635 H 0.86275 0.90693 0.9575 0.0
H636 H 0.02743 0.93919 0.98255 0.0
H637 H 0.00561 0.92812 0.0346 0.0
C638 C 0.90822 0.90583 0.05642 0.0
C639 C 0.85503 0.89444 0.06487 0.0
C640 C 0.92157 0.91098 0.02635 0.0
C641 C 0.81584 0.88723 0.04264 0.0
C642 C 0.82887 0.89218 1.01267 0.0
C643 C 0.89417 0.91101 0.97426 0.0
C644 C 0.94656 0.9242 0.966 0.0
C645 C 0.88143 0.90445 1.00427 0.0
C646 C 0.98646 0.92972 0.98821 0.0
C647 C 0.97413 0.92319 1.01803 0.0
H648 H 0.61557 0.5895 0.55604 0.0
H649 H 0.78436 0.61822 0.53698 0.0
H650 H 0.76667 0.61215 0.48389 0.0
H651 H 0.70458 0.59471 0.44267 0.0
H652 H 0.53716 0.56359 0.46225 0.0
H653 H 0.5529 0.57451 0.51504 0.0
C654 C 0.64861 0.59428 0.54032 0.0
C655 C 0.70131 0.60416 0.55069 0.0
C656 C 0.63835 0.59031 0.50974 0.0
C657 C 0.74324 0.61092 0.52978 0.0
C658 C 0.73324 0.60727 0.49933 0.0
C659 C 0.67139 0.59099 0.45849 0.0
C660 C 0.61979 0.57835 0.44858 0.0
C661 C 0.6811 0.5966 0.48902 0.0
C662 C 0.57729 0.57318 0.46937 0.0
C663 C 0.58631 0.57931 0.49957 0.0
H664 H 0.44322 0.6518 0.96103 0.0
H665 H 0.27023 0.64944 0.98214 0.0
H666 H 0.29142 0.65881 0.03472 0.0
H667 H 0.35945 0.66869 0.07467 0.0
H668 H 0.53198 0.67466 0.05295 0.0
H669 H 0.51097 0.66265 1.00072 0.0
C670 C 0.41027 0.65313 0.97723 0.0
C671 C 0.35528 0.64981 0.96781 0.0
C672 C 0.42276 0.65916 1.00728 0.0
C673 C 0.31285 0.6521 0.98889 0.0
C674 C 0.32497 0.65734 1.01893 0.0
C675 C 0.39232 0.66708 0.05845 0.0
C676 C 0.44716 0.67234 0.06753 0.0
C677 C 0.37977 0.66102 0.02838 0.0
C678 C 0.48947 0.67075 0.04636 0.0
C679 C 0.47747 0.66387 1.01656 0.0
H680 H 0.20107 0.93754 0.47741 0.0
H681 H 0.146 0.82589 0.47824 0.0
H682 H 0.13605 0.82801 0.53212 0.0
H683 H 0.14934 0.8602 0.57937 0.0
H684 H 0.20549 0.97163 0.57869 0.0
H685 H 0.20827 0.97108 0.52451 0.0
C686 C 0.186 0.91389 0.48935 0.0
C687 C 0.17471 0.88153 0.47383 0.0
C688 C 0.18095 0.91517 0.52042 0.0
C689 C 0.15574 0.85098 0.48969 0.0
C690 C 0.1499 0.85219 0.5205 0.0
C691 C 0.16124 0.88455 0.56735 0.0
C692 C 0.17753 0.91581 0.58309 0.0
C693 C 0.16334 0.88393 0.53617 0.0
C694 C 0.19349 0.94703 0.56713 0.0
C695 C 0.19496 0.94677 0.53614 0.0
H696 H 0.21099 0.31001 0.33937 0.0
H697 H 0.26224 0.23339 0.40602 0.0
H698 H 0.19864 0.18776 0.38606 0.0
H699 H 0.1323 0.16845 0.34775 0.0
H700 H 0.0808 0.24506 0.28114 0.0
H701 H 0.14 0.29193 0.30299 0.0
C702 C 0.20753 0.28345 0.34968 0.0
C703 C 0.24101 0.27507 0.37414 0.0
C704 C 0.17103 0.25731 0.338 0.0
C705 C 0.23669 0.24049 0.38724 0.0
C706 C 0.20043 0.21438 0.3758 0.0
C707 C 0.13357 0.19558 0.33832 0.0
C708 C 0.10304 0.20325 0.31263 0.0
C709 C 0.16792 0.22231 0.35095 0.0
C710 C 0.1048 0.23844 0.30063 0.0
C711 C 0.13851 0.26524 0.31315 0.0
H712 H 0.32152 0.24172 0.88913 0.0
H713 H 0.4254 0.16007 0.85027 0.0
H714 H 0.47379 0.20659 0.82149 0.0
H715 H 0.48762 0.27063 0.80772 0.0
H716 H 0.38169 0.3524 0.84462 0.0
H717 H 0.33339 0.30599 0.87394 0.0
C718 C 0.35425 0.23417 0.87404 0.0
C719 C 0.36919 0.19741 0.87145 0.0
C720 C 0.38208 0.26117 0.85755 0.0
C721 C 0.4125 0.18807 0.85229 0.0
C722 C 0.44047 0.21469 0.83598 0.0
C723 C 0.45439 0.27828 0.82248 0.0
C724 C 0.43846 0.31484 0.82428 0.0
C725 C 0.42597 0.25134 0.83861 0.0
C726 C 0.3947 0.32437 0.84301 0.0
C727 C 0.36702 0.29785 0.85968 0.0
H728 H 0.73967 0.28318 0.65221 0.0
H729 H 0.71877 0.18971 0.70881 0.0
H730 H 0.64782 0.22157 0.73721 0.0
H731 H 0.59287 0.27652 0.74633 0.0
H732 H 0.61437 0.37017 0.69002 0.0
H733 H 0.68373 0.33783 0.66091 0.0
C734 C 0.71937 0.26983 0.67071 0.0
C735 C 0.73435 0.23424 0.67856 0.0
C736 C 0.67896 0.2884 0.68696 0.0
C737 C 0.70775 0.21712 0.70249 0.0
C738 C 0.66736 0.23533 0.7187 0.0
C739 C 0.61316 0.28982 0.7278 0.0
C740 C 0.59948 0.32578 0.72052 0.0
C741 C 0.6529 0.27105 0.71126 0.0
C742 C 0.62473 0.34254 0.69605 0.0
C743 C 0.66436 0.3241 0.67948 0.0
H744 H 0.87216 0.26706 0.13711 0.0
H745 H 0.79583 0.31722 0.2128 0.0
H746 H 0.83772 0.27204 0.24574 0.0
H747 H 0.89933 0.21971 0.253 0.0
H748 H 0.97643 0.1707 0.17661 0.0
H749 H 0.93106 0.21386 0.14412 0.0
C750 C 0.86455 0.26793 0.1608 0.0
C751 C 0.83134 0.29544 0.17263 0.0
C752 C 0.88913 0.24215 0.17951 0.0
C753 C 0.8215 0.29625 0.20333 0.0
C754 C 0.84549 0.27051 0.2221 0.0
C755 C 0.90599 0.21831 0.22924 0.0
C756 C 0.94161 0.19195 0.21744 0.0
C757 C 0.87991 0.24352 0.21047 0.0
C758 C 0.94958 0.19068 0.18652 0.0
C759 C 0.92359 0.21541 0.16779 0.0
H760 H 0.74852 0.75871 0.67327 0.0
H761 H 0.88417 0.69056 0.64795 0.0
H762 H 0.94841 0.73116 0.67375 0.0
H763 H 0.96599 0.78639 0.70401 0.0
H764 H 0.82911 0.85496 0.72727 0.0
H765 H 0.76588 0.81393 0.70213 0.0
C766 C 0.79215 0.75263 0.67363 0.0
C767 C 0.81117 0.72125 0.65929 0.0
C768 C 0.82883 0.77628 0.68818 0.0
C769 C 0.86804 0.71411 0.65929 0.0
C770 C 0.90491 0.73746 0.67395 0.0
C771 C 0.9224 0.79245 0.70335 0.0
C772 C 0.90245 0.82358 0.71791 0.0
C773 C 0.88581 0.76869 0.68849 0.0
C774 C 0.84572 0.83093 0.71682 0.0
C775 C 0.80935 0.80753 0.70229 0.0
H776 H 0.71619 0.76142 0.14773 0.0
H777 H 0.62191 0.84906 0.185 0.0
H778 H 0.57035 0.80598 0.21571 0.0
H779 H 0.54911 0.74329 0.23035 0.0
H780 H 0.64351 0.6551 0.19419 0.0
H781 H 0.69824 0.69831 0.16477 0.0
C782 C 0.68477 0.77096 0.16286 0.0
C783 C 0.67288 0.80832 0.16414 0.0
C784 C 0.65508 0.74595 0.18043 0.0
C785 C 0.63189 0.82047 0.18368 0.0
C786 C 0.60227 0.79584 0.20116 0.0
C787 C 0.58163 0.73357 0.21596 0.0
C788 C 0.59207 0.69613 0.21414 0.0
C789 C 0.61295 0.75853 0.19939 0.0
C790 C 0.63478 0.68385 0.19583 0.0
C791 C 0.66595 0.70853 0.17903 0.0
H792 H 0.31139 0.79944 0.34178 0.0
H793 H 0.23754 0.7119 0.39164 0.0
H794 H 0.30324 0.66897 0.3703 0.0
H795 H 0.38088 0.65621 0.33627 0.0
H796 H 0.45404 0.74445 0.28689 0.0
H797 H 0.39046 0.78733 0.30956 0.0
C798 C 0.31024 0.77103 0.34821 0.0
C799 C 0.27046 0.75891 0.36859 0.0
C800 C 0.34815 0.74667 0.33598 0.0
C801 C 0.26841 0.7219 0.37628 0.0
C802 C 0.30588 0.69738 0.36408 0.0
C803 C 0.38304 0.68491 0.33086 0.0
C804 C 0.4215 0.69726 0.30988 0.0
C805 C 0.34591 0.70942 0.34383 0.0
C806 C 0.4242 0.7344 0.30283 0.0
C807 C 0.38792 0.7589 0.31576 0.0
H808 H 0.17562 0.69014 0.8178 0.0
H809 H 0.15895 0.73387 0.90591 0.0
H810 H 0.10746 0.78566 0.88627 0.0
H811 H 0.06684 0.81825 0.84395 0.0
H812 H 0.08489 0.7746 0.75563 0.0
H813 H 0.13566 0.72303 0.7754 0.0
C814 C 0.16049 0.71102 0.83262 0.0
C815 C 0.17012 0.70802 0.86327 0.0
C816 C 0.13098 0.74064 0.82115 0.0
C817 C 0.15127 0.73548 0.88228 0.0
C818 C 0.12188 0.76502 0.87105 0.0
C819 C 0.08152 0.79735 0.82903 0.0
C820 C 0.07181 0.80036 0.79832 0.0
C821 C 0.11122 0.7678 0.84052 0.0
C822 C 0.09175 0.77312 0.77934 0.0
C823 C 0.12088 0.74356 0.79062 0.0
loop_
_geom_bond_atom_site_label_1
_geom_bond_atom_site_label_2
_geom_bond_distance
_geom_bond_site_symmetry_2
_ccdc_geom_bond_type
H0 C7 0.929 . S
H1 C10 0.930 . S
H2 C12 0.929 . S
H3 C4 0.969 . S
C4 H3 0.969 . S
C4 O5 1.550 . S
C4 H6 0.973 . S
O5 C4 1.550 . S
O5 C11 1.412 . S
H6 C4 0.973 . S
C7 H0 0.929 . S
C7 C8 1.400 . S
C7 C9 1.364 . S
C8 C7 1.400 . S
C8 C12 1.377 . S
C9 C7 1.364 . S
C9 C10 1.374 . S
C10 H1 0.930 . S
C10 C9 1.374 . S
C10 C11 1.383 . S
C11 O5 1.412 . S
C11 C10 1.383 . S
C11 C12 1.394 . S
C12 H2 0.929 . S
C12 C8 1.377 . S
C12 C11 1.394 . S
H13 C20 0.929 . S
H14 C23 0.930 . S
H15 C25 0.929 . S
H16 C17 0.969 . S
C17 H16 0.969 . S
C17 O18 1.550 . S
C17 H19 0.973 . S
O18 C17 1.550 . S
O18 C24 1.412 . S
H19 C17 0.973 . S
C20 H13 0.929 . S
C20 C21 1.400 . S
C20 C22 1.364 . S
C21 C20 1.400 . S
C21 C25 1.377 . S
C22 C20 1.364 . S
C22 C23 1.374 . S
C23 H14 0.930 . S
C23 C22 1.374 . S
C23 C24 1.383 . S
C24 O18 1.412 . S
C24 C23 1.383 . S
C24 C25 1.394 . S
C25 H15 0.929 . S
C25 C21 1.377 . S
C25 C24 1.394 . S
H26 C33 0.929 . S
H27 C36 0.930 . S
H28 C38 0.929 . S
H29 C30 0.969 . S
C30 H29 0.969 . S
C30 O31 1.550 . S
C30 H32 0.973 . S
O31 C30 1.550 . S
O31 C37 1.412 . S
H32 C30 0.973 . S
C33 H26 0.929 . S
C33 C34 1.400 . S
C33 C35 1.364 . S
C34 C33 1.400 . S
C34 C38 1.377 . S
C35 C33 1.364 . S
C35 C36 1.374 . S
C36 H27 0.930 . S
C36 C35 1.374 . S
C36 C37 1.383 . S
C37 O31 1.412 . S
C37 C36 1.383 . S
C37 C38 1.394 . S
C38 H28 0.929 . S
C38 C34 1.377 . S
C38 C37 1.394 . S
H39 C46 0.929 . S
H40 C49 0.930 . S
H41 C51 0.929 . S
H42 C43 0.969 . S
C43 H42 0.969 . S
C43 O44 1.550 . S
C43 H45 0.973 . S
O44 C43 1.550 . S
O44 C50 1.412 . S
H45 C43 0.973 . S
C46 H39 0.929 . S
C46 C47 1.400 . S
C46 C48 1.364 . S
C47 C46 1.400 . S
C47 C51 1.377 . S
C48 C46 1.364 . S
C48 C49 1.374 . S
C49 H40 0.930 . S
C49 C48 1.374 . S
C49 C50 1.383 . S
C50 O44 1.412 . S
C50 C49 1.383 . S
C50 C51 1.394 . S
C51 H41 0.929 . S
C51 C47 1.377 . S
C51 C50 1.394 . S
H52 C59 0.929 . S
H53 C62 0.930 . S
H54 C64 0.929 . S
H55 C56 0.969 . S
C56 H55 0.969 . S
C56 O57 1.550 . S
C56 H58 0.973 . S
O57 C56 1.550 . S
O57 C63 1.412 . S
H58 C56 0.973 . S
C59 H52 0.929 . S
C59 C60 1.400 . S
C59 C61 1.364 . S
C60 C59 1.400 . S
C60 C64 1.377 . S
C61 C59 1.364 . S
C61 C62 1.374 . S
C62 H53 0.930 . S
C62 C61 1.374 . S
C62 C63 1.383 . S
C63 O57 1.412 . S
C63 C62 1.383 . S
C63 C64 1.394 . S
C64 H54 0.929 . S
C64 C60 1.377 . S
C64 C63 1.394 . S
H65 C72 0.929 . S
H66 C75 0.930 . S
H67 C77 0.929 . S
H68 C69 0.969 . S
C69 H68 0.969 . S
C69 O70 1.550 . S
C69 H71 0.973 . S
O70 C69 1.550 . S
O70 C76 1.412 . S
H71 C69 0.973 . S
C72 H65 0.929 . S
C72 C73 1.400 . S
C72 C74 1.364 . S
C73 C72 1.400 . S
C73 C77 1.377 . S
C74 C72 1.364 . S
C74 C75 1.374 . S
C75 H66 0.930 . S
C75 C74 1.374 . S
C75 C76 1.383 . S
C76 O70 1.412 . S
C76 C75 1.383 . S
C76 C77 1.394 . S
C77 H67 0.929 . S
C77 C73 1.377 . S
C77 C76 1.394 . S
H78 C85 0.929 . S
H79 C88 0.930 . S
H80 C90 0.929 . S
H81 C82 0.969 . S
C82 H81 0.969 . S
C82 O83 1.550 . S
C82 H84 0.973 . S
O83 C82 1.550 . S
O83 C89 1.412 . S
H84 C82 0.973 . S
C85 H78 0.929 . S
C85 C86 1.400 . S
C85 C87 1.364 . S
C86 C85 1.400 . S
C86 C90 1.377 . S
C87 C85 1.364 . S
C87 C88 1.374 . S
C88 H79 0.930 . S
C88 C87 1.374 . S
C88 C89 1.383 . S
C89 O83 1.412 . S
C89 C88 1.383 . S
C89 C90 1.394 . S
C90 H80 0.929 . S
C90 C86 1.377 . S
C90 C89 1.394 . S
H91 C98 0.929 . S
H92 C101 0.930 . S
H93 C103 0.929 . S
H94 C95 0.969 . S
C95 H94 0.969 . S
C95 O96 1.550 . S
C95 H97 0.973 . S
O96 C95 1.550 . S
O96 C102 1.412 . S
H97 C95 0.973 . S
C98 H91 0.929 . S
C98 C99 1.400 . S
C98 C100 1.364 . S
C99 C98 1.400 . S
C99 C103 1.377 . S
C100 C98 1.364 . S
C100 C101 1.374 . S
C101 H92 0.930 . S
C101 C100 1.374 . S
C101 C102 1.383 . S
C102 O96 1.412 . S
C102 C101 1.383 . S
C102 C103 1.394 . S
C103 H93 0.929 . S
C103 C99 1.377 . S
C103 C102 1.394 . S
C104 C106 1.422 . S
C104 C108 1.415 . S
C104 N110 1.369 . S
C105 C106 1.421 . S
C105 C107 1.417 . S
C105 C117 1.422 1_545 S
C106 C104 1.422 . S
C106 C105 1.421 . S
C106 N116 1.359 . S
C107 C105 1.417 . S
C107 C109 1.329 . S
C107 H126 0.930 1_545 S
C108 C104 1.415 . S
C108 C109 1.437 . S
C108 C112 1.413 . S
C109 C107 1.329 . S
C109 C108 1.437 . S
C109 H131 0.929 . S
N110 C104 1.369 . S
N110 C111 1.338 . S
N110 Gd115 2.622 . S
C111 N110 1.338 . S
C111 C113 1.378 . S
C111 H123 0.929 . S
C112 C108 1.413 . S
C112 C113 1.348 . S
C112 H128 0.931 . S
C113 C111 1.378 . S
C113 C112 1.348 . S
C113 H129 0.930 . S
Gd114 N134 2.622 . S
Gd114 N141 2.570 . S
Gd114 O148 2.353 . S
Gd114 O149 2.468 . S
Gd114 O150 2.427 . S
Gd114 O152 2.388 . S
Gd114 O153 2.386 . S
Gd114 O157 2.307 . S
Gd114 C167 2.805 . S
Gd115 N110 2.622 . S
Gd115 N116 2.570 . S
Gd115 O147 2.386 . S
Gd115 O151 2.307 1_655 S
Gd115 O154 2.353 1_655 S
Gd115 O155 2.468 . S
Gd115 O156 2.427 . S
Gd115 O158 2.388 . S
Gd115 C179 2.805 . S
N116 C106 1.359 . S
N116 Gd115 2.570 . S
N116 C118 1.343 . S
C117 C105 1.422 1_565 S
C117 C119 1.321 . S
C117 H125 0.931 . S
C118 N116 1.343 . S
C118 C119 1.390 1_545 S
C118 H120 0.931 . S
C119 C117 1.321 . S
C119 C118 1.390 1_565 S
C119 H121 0.930 . S
H120 C118 0.931 . S
H121 C119 0.930 . S
H122 C145 0.931 . S
H123 C111 0.929 . S
H124 C146 0.930 . S
H125 C117 0.931 . S
H126 C107 0.930 1_565 S
H127 C136 0.929 . S
H128 C112 0.931 . S
H129 C113 0.930 . S
H130 C168 0.930 . S
H131 C109 0.929 . S
H132 C137 0.931 . S
H133 C138 0.930 . S
N134 Gd114 2.622 . S
N134 C135 1.369 . S
N134 C136 1.338 . S
C135 N134 1.369 . S
C135 C139 1.415 . S
C135 C142 1.422 . S
C136 H127 0.929 . S
C136 N134 1.338 . S
C136 C138 1.378 . S
C137 H132 0.931 . S
C137 C138 1.348 . S
C137 C139 1.413 . S
C138 H133 0.930 . S
C138 C136 1.378 . S
C138 C137 1.348 . S
C139 C135 1.415 . S
C139 C137 1.413 . S
C139 C169 1.437 . S
H140 C169 0.929 . S
N141 Gd114 2.570 . S
N141 C142 1.359 . S
N141 C145 1.343 . S
C142 C135 1.422 . S
C142 N141 1.359 . S
C142 C144 1.421 . S
C143 C144 1.422 . S
C143 C146 1.321 . S
C143 H170 0.931 . S
C144 C142 1.421 . S
C144 C143 1.422 . S
C144 C168 1.417 . S
C145 H122 0.931 . S
C145 N141 1.343 . S
C145 C146 1.390 . S
C146 H124 0.930 . S
C146 C143 1.321 . S
C146 C145 1.390 . S
O147 Gd115 2.386 . S
O147 C159 1.265 . S
O148 Gd114 2.353 . S
O148 C159 1.242 1_455 S
O149 Gd114 2.468 . S
O149 C167 1.263 . S
O150 Gd114 2.427 . S
O150 C167 1.252 . S
O151 Gd115 2.307 1_455 S
O151 C160 1.261 . S
O152 Gd114 2.388 . S
O152 C160 1.252 . S
O153 Gd114 2.386 . S
O153 C171 1.265 . S
O154 Gd115 2.353 1_455 S
O154 C171 1.242 . S
O155 Gd115 2.468 . S
O155 C179 1.263 . S
O156 Gd115 2.427 . S
O156 C179 1.252 . S
O157 Gd114 2.307 . S
O157 C172 1.261 1_455 S
O158 Gd115 2.388 . S
O158 C172 1.252 . S
C159 O147 1.265 . S
C159 O148 1.242 1_655 S
C160 O151 1.261 . S
C160 O152 1.252 . S
C161 C164 1.394 . S
C161 C166 1.370 . S
C161 C167 1.500 . S
C162 C165 1.383 . S
C162 C166 1.395 . S
C163 C164 1.396 . S
C163 C165 1.365 . S
C163 H180 0.929 . S
C164 C161 1.394 . S
C164 C163 1.396 . S
C164 H181 0.930 . S
C165 C162 1.383 . S
C165 C163 1.365 . S
C165 H182 0.931 . S
C166 C161 1.370 . S
C166 C162 1.395 . S
C166 H183 0.930 . S
C167 Gd114 2.805 . S
C167 O149 1.263 . S
C167 O150 1.252 . S
C167 C161 1.500 . S
C168 H130 0.930 . S
C168 C144 1.417 . S
C168 C169 1.329 . S
C169 C139 1.437 . S
C169 H140 0.929 . S
C169 C168 1.329 . S
H170 C143 0.931 . S
C171 O153 1.265 . S
C171 O154 1.242 . S
C172 O157 1.261 1_655 S
C172 O158 1.252 . S
C173 C176 1.394 . S
C173 C178 1.370 . S
C173 C179 1.500 . S
C174 C177 1.383 . S
C174 C178 1.395 . S
C175 C176 1.396 . S
C175 C177 1.365 . S
C175 H184 0.929 . S
C176 C173 1.394 . S
C176 C175 1.396 . S
C176 H185 0.930 . S
C177 C174 1.383 . S
C177 C175 1.365 . S
C177 H186 0.931 . S
C178 C173 1.370 . S
C178 C174 1.395 . S
C178 H187 0.930 . S
C179 Gd115 2.805 . S
C179 O155 1.263 . S
C179 O156 1.252 . S
C179 C173 1.500 . S
H180 C163 0.929 . S
H181 C164 0.930 . S
H182 C165 0.931 . S
H183 C166 0.930 . S
H184 C175 0.929 . S
H185 C176 0.930 . S
H186 C177 0.931 . S
H187 C178 0.930 . S
C188 C190 1.422 . S
C188 C192 1.415 . S
C188 N194 1.369 . S
C189 C190 1.421 . S
C189 C191 1.417 . S
C189 C201 1.422 . S
C190 C188 1.422 . S
C190 C189 1.421 . S
C190 N200 1.359 . S
C191 C189 1.417 . S
C191 C193 1.329 . S
C191 H210 0.930 . S
C192 C188 1.415 . S
C192 C193 1.437 . S
C192 C196 1.413 . S
C193 C191 1.329 . S
C193 C192 1.437 . S
C193 H215 0.929 . S
N194 C188 1.369 . S
N194 C195 1.338 . S
N194 Gd199 2.622 . S
C195 N194 1.338 . S
C195 C197 1.378 . S
C195 H207 0.929 . S
C196 C192 1.413 . S
C196 C197 1.348 . S
C196 H212 0.931 . S
C197 C195 1.378 . S
C197 C196 1.348 . S
C197 H213 0.930 . S
Gd198 N218 2.622 . S
Gd198 N225 2.570 . S
Gd198 O232 2.353 . S
Gd198 O233 2.468 . S
Gd198 O234 2.427 . S
Gd198 O236 2.388 . S
Gd198 O237 2.386 . S
Gd198 O241 2.307 . S
Gd198 C251 2.805 . S
Gd199 N194 2.622 . S
Gd199 N200 2.570 . S
Gd199 O231 2.386 . S
Gd199 O235 2.307 . S
Gd199 O238 2.353 . S
Gd199 O239 2.468 . S
Gd199 O240 2.427 . S
Gd199 O242 2.388 . S
Gd199 C263 2.805 . S
N200 C190 1.359 . S
N200 Gd199 2.570 . S
N200 C202 1.343 . S
C201 C189 1.422 . S
C201 C203 1.321 . S
C201 H209 0.931 . S
C202 N200 1.343 . S
C202 C203 1.390 . S
C202 H204 0.931 . S
C203 C201 1.321 . S
C203 C202 1.390 . S
C203 H205 0.930 . S
H204 C202 0.931 . S
H205 C203 0.930 . S
H206 C229 0.931 . S
H207 C195 0.929 . S
H208 C230 0.930 . S
H209 C201 0.931 . S
H210 C191 0.930 . S
H211 C220 0.929 . S
H212 C196 0.931 . S
H213 C197 0.930 . S
H214 C252 0.930 . S
H215 C193 0.929 . S
H216 C221 0.931 . S
H217 C222 0.930 . S
N218 Gd198 2.622 . S
N218 C219 1.369 . S
N218 C220 1.338 . S
C219 N218 1.369 . S
C219 C223 1.415 . S
C219 C226 1.422 . S
C220 H211 0.929 . S
C220 N218 1.338 . S
C220 C222 1.378 . S
C221 H216 0.931 . S
C221 C222 1.348 . S
C221 C223 1.413 . S
C222 H217 0.930 . S
C222 C220 1.378 . S
C222 C221 1.348 . S
C223 C219 1.415 . S
C223 C221 1.413 . S
C223 C253 1.437 . S
H224 C253 0.929 . S
N225 Gd198 2.570 . S
N225 C226 1.359 . S
N225 C229 1.343 . S
C226 C219 1.422 . S
C226 N225 1.359 . S
C226 C228 1.421 . S
C227 C228 1.422 . S
C227 C230 1.321 . S
C227 H254 0.931 . S
C228 C226 1.421 . S
C228 C227 1.422 . S
C228 C252 1.417 . S
C229 H206 0.931 . S
C229 N225 1.343 . S
C229 C230 1.390 . S
C230 H208 0.930 . S
C230 C227 1.321 . S
C230 C229 1.390 . S
O231 Gd199 2.386 . S
O231 C243 1.265 . S
O232 Gd198 2.353 . S
O232 C243 1.242 . S
O233 Gd198 2.468 . S
O233 C251 1.263 . S
O234 Gd198 2.427 . S
O234 C251 1.252 . S
O235 Gd199 2.307 . S
O235 C244 1.261 . S
O236 Gd198 2.388 . S
O236 C244 1.252 . S
O237 Gd198 2.386 . S
O237 C255 1.265 . S
O238 Gd199 2.353 . S
O238 C255 1.242 . S
O239 Gd199 2.468 . S
O239 C263 1.263 . S
O240 Gd199 2.427 . S
O240 C263 1.252 . S
O241 Gd198 2.307 . S
O241 C256 1.261 . S
O242 Gd199 2.388 . S
O242 C256 1.252 . S
C243 O231 1.265 . S
C243 O232 1.242 . S
C244 O235 1.261 . S
C244 O236 1.252 . S
C245 C248 1.394 . S
C245 C250 1.370 . S
C245 C251 1.500 . S
C246 C249 1.383 . S
C246 C250 1.395 . S
C247 C248 1.396 . S
C247 C249 1.365 . S
C247 H264 0.929 . S
C248 C245 1.394 . S
C248 C247 1.396 . S
C248 H265 0.930 . S
C249 C246 1.383 . S
C249 C247 1.365 . S
C249 H266 0.931 . S
C250 C245 1.370 . S
C250 C246 1.395 . S
C250 H267 0.930 . S
C251 Gd198 2.805 . S
C251 O233 1.263 . S
C251 O234 1.252 . S
C251 C245 1.500 . S
C252 H214 0.930 . S
C252 C228 1.417 . S
C252 C253 1.329 . S
C253 C223 1.437 . S
C253 H224 0.929 . S
C253 C252 1.329 . S
H254 C227 0.931 . S
C255 O237 1.265 . S
C255 O238 1.242 . S
C256 O241 1.261 . S
C256 O242 1.252 . S
C257 C260 1.394 . S
C257 C262 1.370 . S
C257 C263 1.500 . S
C258 C261 1.383 . S
C258 C262 1.395 . S
C259 C260 1.396 . S
C259 C261 1.365 . S
C259 H268 0.929 . S
C260 C257 1.394 . S
C260 C259 1.396 . S
C260 H269 0.930 . S
C261 C258 1.383 . S
C261 C259 1.365 . S
C261 H270 0.931 . S
C262 C257 1.370 . S
C262 C258 1.395 . S
C262 H271 0.930 . S
C263 Gd199 2.805 . S
C263 O239 1.263 . S
C263 O240 1.252 . S
C263 C257 1.500 . S
H264 C247 0.929 . S
H265 C248 0.930 . S
H266 C249 0.931 . S
H267 C250 0.930 . S
H268 C259 0.929 . S
H269 C260 0.930 . S
H270 C261 0.931 . S
H271 C262 0.930 . S
C272 C274 1.422 . S
C272 C276 1.415 . S
C272 N278 1.369 . S
C273 C274 1.421 . S
C273 C275 1.417 . S
C273 C285 1.422 . S
C274 C272 1.422 . S
C274 C273 1.421 . S
C274 N284 1.359 . S
C275 C273 1.417 . S
C275 C277 1.329 . S
C275 H294 0.930 . S
C276 C272 1.415 . S
C276 C277 1.437 . S
C276 C280 1.413 . S
C277 C275 1.329 . S
C277 C276 1.437 . S
C277 H299 0.929 . S
N278 C272 1.369 . S
N278 C279 1.338 . S
N278 Gd283 2.622 . S
C279 N278 1.338 . S
C279 C281 1.378 . S
C279 H291 0.929 . S
C280 C276 1.413 . S
C280 C281 1.348 . S
C280 H296 0.931 . S
C281 C279 1.378 . S
C281 C280 1.348 . S
C281 H297 0.930 . S
Gd282 N302 2.622 . S
Gd282 N309 2.570 . S
Gd282 O316 2.353 . S
Gd282 O317 2.468 . S
Gd282 O318 2.427 . S
Gd282 O320 2.388 . S
Gd282 O321 2.386 . S
Gd282 O325 2.307 . S
Gd282 C335 2.805 . S
Gd283 N278 2.622 . S
Gd283 N284 2.570 . S
Gd283 O315 2.386 . S
Gd283 O319 2.307 1_655 S
Gd283 O322 2.353 1_655 S
Gd283 O323 2.468 . S
Gd283 O324 2.427 . S
Gd283 O326 2.388 . S
Gd283 C347 2.805 . S
N284 C274 1.359 . S
N284 Gd283 2.570 . S
N284 C286 1.343 . S
C285 C273 1.422 . S
C285 C287 1.321 . S
C285 H293 0.931 . S
C286 N284 1.343 . S
C286 C287 1.390 . S
C286 H288 0.931 . S
C287 C285 1.321 . S
C287 C286 1.390 . S
C287 H289 0.930 . S
H288 C286 0.931 . S
H289 C287 0.930 . S
H290 C313 0.931 . S
H291 C279 0.929 . S
H292 C314 0.930 . S
H293 C285 0.931 . S
H294 C275 0.930 . S
H295 C304 0.929 . S
H296 C280 0.931 . S
H297 C281 0.930 . S
H298 C336 0.930 1_545 S
H299 C277 0.929 . S
H300 C305 0.931 . S
H301 C306 0.930 . S
N302 Gd282 2.622 . S
N302 C303 1.369 . S
N302 C304 1.338 . S
C303 N302 1.369 . S
C303 C307 1.415 . S
C303 C310 1.422 . S
C304 H295 0.929 . S
C304 N302 1.338 . S
C304 C306 1.378 . S
C305 H300 0.931 . S
C305 C306 1.348 . S
C305 C307 1.413 . S
C306 H301 0.930 . S
C306 C304 1.378 . S
C306 C305 1.348 . S
C307 C303 1.415 . S
C307 C305 1.413 . S
C307 C337 1.437 . S
H308 C337 0.929 . S
N309 Gd282 2.570 . S
N309 C310 1.359 . S
N309 C313 1.343 . S
C310 C303 1.422 . S
C310 N309 1.359 . S
C310 C312 1.421 . S
C311 C312 1.422 1_545 S
C311 C314 1.321 . S
C311 H338 0.931 . S
C312 C310 1.421 . S
C312 C311 1.422 1_565 S
C312 C336 1.417 . S
C313 H290 0.931 . S
C313 N309 1.343 . S
C313 C314 1.390 1_565 S
C314 H292 0.930 . S
C314 C311 1.321 . S
C314 C313 1.390 1_545 S
O315 Gd283 2.386 . S
O315 C327 1.265 . S
O316 Gd282 2.353 . S
O316 C327 1.242 1_455 S
O317 Gd282 2.468 . S
O317 C335 1.263 . S
O318 Gd282 2.427 . S
O318 C335 1.252 . S
O319 Gd283 2.307 1_455 S
O319 C328 1.261 . S
O320 Gd282 2.388 . S
O320 C328 1.252 . S
O321 Gd282 2.386 . S
O321 C339 1.265 . S
O322 Gd283 2.353 1_455 S
O322 C339 1.242 . S
O323 Gd283 2.468 . S
O323 C347 1.263 . S
O324 Gd283 2.427 . S
O324 C347 1.252 . S
O325 Gd282 2.307 . S
O325 C340 1.261 1_455 S
O326 Gd283 2.388 . S
O326 C340 1.252 . S
C327 O315 1.265 . S
C327 O316 1.242 1_655 S
C328 O319 1.261 . S
C328 O320 1.252 . S
C329 C332 1.394 . S
C329 C334 1.370 . S
C329 C335 1.500 . S
C330 C333 1.383 . S
C330 C334 1.395 . S
C331 C332 1.396 . S
C331 C333 1.365 . S
C331 H348 0.929 . S
C332 C329 1.394 . S
C332 C331 1.396 . S
C332 H349 0.930 . S
C333 C330 1.383 . S
C333 C331 1.365 . S
C333 H350 0.931 . S
C334 C329 1.370 . S
C334 C330 1.395 . S
C334 H351 0.930 . S
C335 Gd282 2.805 . S
C335 O317 1.263 . S
C335 O318 1.252 . S
C335 C329 1.500 . S
C336 H298 0.930 1_565 S
C336 C312 1.417 . S
C336 C337 1.329 . S
C337 C307 1.437 . S
C337 H308 0.929 . S
C337 C336 1.329 . S
H338 C311 0.931 . S
C339 O321 1.265 . S
C339 O322 1.242 . S
C340 O325 1.261 1_655 S
C340 O326 1.252 . S
C341 C344 1.394 . S
C341 C346 1.370 . S
C341 C347 1.500 . S
C342 C345 1.383 . S
C342 C346 1.395 . S
C343 C344 1.396 . S
C343 C345 1.365 . S
C343 H352 0.929 . S
C344 C341 1.394 . S
C344 C343 1.396 . S
C344 H353 0.930 . S
C345 C342 1.383 . S
C345 C343 1.365 . S
C345 H354 0.931 . S
C346 C341 1.370 . S
C346 C342 1.395 . S
C346 H355 0.930 . S
C347 Gd283 2.805 . S
C347 O323 1.263 . S
C347 O324 1.252 . S
C347 C341 1.500 . S
H348 C331 0.929 . S
H349 C332 0.930 . S
H350 C333 0.931 . S
H351 C334 0.930 . S
H352 C343 0.929 . S
H353 C344 0.930 . S
H354 C345 0.931 . S
H355 C346 0.930 . S
C356 C358 1.422 . S
C356 C360 1.415 . S
C356 N362 1.369 . S
C357 C358 1.421 . S
C357 C359 1.417 . S
C357 C369 1.422 . S
C358 C356 1.422 . S
C358 C357 1.421 . S
C358 N368 1.359 . S
C359 C357 1.417 . S
C359 C361 1.329 . S
C359 H378 0.930 . S
C360 C356 1.415 . S
C360 C361 1.437 . S
C360 C364 1.413 . S
C361 C359 1.329 . S
C361 C360 1.437 . S
C361 H383 0.929 . S
N362 C356 1.369 . S
N362 C363 1.338 . S
N362 Gd367 2.622 . S
C363 N362 1.338 . S
C363 C365 1.378 . S
C363 H375 0.929 . S
C364 C360 1.413 . S
C364 C365 1.348 . S
C364 H380 0.931 . S
C365 C363 1.378 . S
C365 C364 1.348 . S
C365 H381 0.930 . S
Gd366 N386 2.622 . S
Gd366 N393 2.570 . S
Gd366 O400 2.353 . S
Gd366 O401 2.468 . S
Gd366 O402 2.427 . S
Gd366 O404 2.388 . S
Gd366 O405 2.386 . S
Gd366 O409 2.307 . S
Gd366 C419 2.805 . S
Gd367 N362 2.622 . S
Gd367 N368 2.570 . S
Gd367 O399 2.386 . S
Gd367 O403 2.307 . S
Gd367 O406 2.353 . S
Gd367 O407 2.468 . S
Gd367 O408 2.427 . S
Gd367 O410 2.388 . S
Gd367 C431 2.805 . S
N368 C358 1.359 . S
N368 Gd367 2.570 . S
N368 C370 1.343 . S
C369 C357 1.422 . S
C369 C371 1.321 . S
C369 H377 0.931 . S
C370 N368 1.343 . S
C370 C371 1.390 . S
C370 H372 0.931 . S
C371 C369 1.321 . S
C371 C370 1.390 . S
C371 H373 0.930 . S
H372 C370 0.931 . S
H373 C371 0.930 . S
H374 C397 0.931 . S
H375 C363 0.929 . S
H376 C398 0.930 . S
H377 C369 0.931 . S
H378 C359 0.930 . S
H379 C388 0.929 . S
H380 C364 0.931 . S
H381 C365 0.930 . S
H382 C420 0.930 . S
H383 C361 0.929 . S
H384 C389 0.931 . S
H385 C390 0.930 . S
N386 Gd366 2.622 . S
N386 C387 1.369 . S
N386 C388 1.338 . S
C387 N386 1.369 . S
C387 C391 1.415 . S
C387 C394 1.422 . S
C388 H379 0.929 . S
C388 N386 1.338 . S
C388 C390 1.378 . S
C389 H384 0.931 . S
C389 C390 1.348 . S
C389 C391 1.413 . S
C390 H385 0.930 . S
C390 C388 1.378 . S
C390 C389 1.348 . S
C391 C387 1.415 . S
C391 C389 1.413 . S
C391 C421 1.437 . S
H392 C421 0.929 . S
N393 Gd366 2.570 . S
N393 C394 1.359 . S
N393 C397 1.343 . S
C394 C387 1.422 . S
C394 N393 1.359 . S
C394 C396 1.421 . S
C395 C396 1.422 . S
C395 C398 1.321 . S
C395 H422 0.931 . S
C396 C394 1.421 . S
C396 C395 1.422 . S
C396 C420 1.417 . S
C397 H374 0.931 . S
C397 N393 1.343 . S
C397 C398 1.390 . S
C398 H376 0.930 . S
C398 C395 1.321 . S
C398 C397 1.390 . S
O399 Gd367 2.386 . S
O399 C411 1.265 . S
O400 Gd366 2.353 . S
O400 C411 1.242 . S
O401 Gd366 2.468 . S
O401 C419 1.263 . S
O402 Gd366 2.427 . S
O402 C419 1.252 . S
O403 Gd367 2.307 . S
O403 C412 1.261 . S
O404 Gd366 2.388 . S
O404 C412 1.252 . S
O405 Gd366 2.386 . S
O405 C423 1.265 . S
O406 Gd367 2.353 . S
O406 C423 1.242 . S
O407 Gd367 2.468 . S
O407 C431 1.263 . S
O408 Gd367 2.427 . S
O408 C431 1.252 . S
O409 Gd366 2.307 . S
O409 C424 1.261 . S
O410 Gd367 2.388 . S
O410 C424 1.252 . S
C411 O399 1.265 . S
C411 O400 1.242 . S
C412 O403 1.261 . S
C412 O404 1.252 . S
C413 C416 1.394 . S
C413 C418 1.370 . S
C413 C419 1.500 . S
C414 C417 1.383 . S
C414 C418 1.395 . S
C415 C416 1.396 . S
C415 C417 1.365 . S
C415 H432 0.929 . S
C416 C413 1.394 . S
C416 C415 1.396 . S
C416 H433 0.930 . S
C417 C414 1.383 . S
C417 C415 1.365 . S
C417 H434 0.931 . S
C418 C413 1.370 . S
C418 C414 1.395 . S
C418 H435 0.930 . S
C419 Gd366 2.805 . S
C419 O401 1.263 . S
C419 O402 1.252 . S
C419 C413 1.500 . S
C420 H382 0.930 . S
C420 C396 1.417 . S
C420 C421 1.329 . S
C421 C391 1.437 . S
C421 H392 0.929 . S
C421 C420 1.329 . S
H422 C395 0.931 . S
C423 O405 1.265 . S
C423 O406 1.242 . S
C424 O409 1.261 . S
C424 O410 1.252 . S
C425 C428 1.394 . S
C425 C430 1.370 . S
C425 C431 1.500 . S
C426 C429 1.383 . S
C426 C430 1.395 . S
C427 C428 1.396 . S
C427 C429 1.365 . S
C427 H436 0.929 . S
C428 C425 1.394 . S
C428 C427 1.396 . S
C428 H437 0.930 . S
C429 C426 1.383 . S
C429 C427 1.365 . S
C429 H438 0.931 . S
C430 C425 1.370 . S
C430 C426 1.395 . S
C430 H439 0.930 . S
C431 Gd367 2.805 . S
C431 O407 1.263 . S
C431 O408 1.252 . S
C431 C425 1.500 . S
H432 C415 0.929 . S
H433 C416 0.930 . S
H434 C417 0.931 . S
H435 C418 0.930 . S
H436 C427 0.929 . S
H437 C428 0.930 . S
H438 C429 0.931 . S
H439 C430 0.930 . S
H440 C446 0.930 . S
H441 C449 0.930 . S
H442 C450 0.930 . S
H443 C451 0.930 . S
H444 C454 0.930 . S
H445 C455 0.930 . S
C446 H440 0.930 . S
C446 C447 1.355 . S
C446 C448 1.415 . S
C447 C446 1.355 . S
C447 C449 1.419 . S
C448 C446 1.415 . S
C448 C453 1.425 . S
C448 C455 1.409 . S
C449 H441 0.930 . S
C449 C447 1.419 . S
C449 C450 1.362 . S
C450 H442 0.930 . S
C450 C449 1.362 . S
C450 C453 1.409 . S
C451 H443 0.930 . S
C451 C452 1.355 . S
C451 C453 1.415 1_545 S
C452 C451 1.355 . S
C452 C454 1.419 . S
C453 C448 1.425 . S
C453 C450 1.409 . S
C453 C451 1.415 1_565 S
C454 H444 0.930 . S
C454 C452 1.419 . S
C454 C455 1.362 1_545 S
C455 H445 0.930 . S
C455 C448 1.409 . S
C455 C454 1.362 1_565 S
H456 C462 0.930 . S
H457 C465 0.930 . S
H458 C466 0.930 . S
H459 C467 0.930 . S
H460 C470 0.930 . S
H461 C471 0.930 . S
C462 H456 0.930 . S
C462 C463 1.355 . S
C462 C464 1.415 . S
C463 C462 1.355 . S
C463 C465 1.419 . S
C464 C462 1.415 . S
C464 C469 1.425 . S
C464 C471 1.409 . S
C465 H457 0.930 . S
C465 C463 1.419 . S
C465 C466 1.362 . S
C466 H458 0.930 . S
C466 C465 1.362 . S
C466 C469 1.409 . S
C467 H459 0.930 . S
C467 C468 1.355 . S
C467 C469 1.415 . S
C468 C467 1.355 . S
C468 C470 1.419 . S
C469 C464 1.425 . S
C469 C466 1.409 . S
C469 C467 1.415 . S
C470 H460 0.930 . S
C470 C468 1.419 . S
C470 C471 1.362 . S
C471 H461 0.930 . S
C471 C464 1.409 . S
C471 C470 1.362 . S
H472 C478 0.930 . S
H473 C481 0.930 . S
H474 C482 0.930 . S
H475 C483 0.930 . S
H476 C486 0.930 . S
H477 C487 0.930 . S
C478 H472 0.930 . S
C478 C479 1.355 . S
C478 C480 1.415 . S
C479 C478 1.355 . S
C479 C481 1.419 . S
C480 C478 1.415 . S
C480 C485 1.425 . S
C480 C487 1.409 . S
C481 H473 0.930 . S
C481 C479 1.419 . S
C481 C482 1.362 . S
C482 H474 0.930 . S
C482 C481 1.362 . S
C482 C485 1.409 . S
C483 H475 0.930 . S
C483 C484 1.355 . S
C483 C485 1.415 . S
C484 C483 1.355 . S
C484 C486 1.419 . S
C485 C480 1.425 . S
C485 C482 1.409 . S
C485 C483 1.415 . S
C486 H476 0.930 . S
C486 C484 1.419 . S
C486 C487 1.362 . S
C487 H477 0.930 . S
C487 C480 1.409 . S
C487 C486 1.362 . S
H488 C494 0.930 . S
H489 C497 0.930 . S
H490 C498 0.930 . S
H491 C499 0.930 . S
H492 C502 0.930 . S
H493 C503 0.930 . S
C494 H488 0.930 . S
C494 C495 1.355 . S
C494 C496 1.415 . S
C495 C494 1.355 . S
C495 C497 1.419 . S
C496 C494 1.415 . S
C496 C501 1.425 . S
C496 C503 1.409 . S
C497 H489 0.930 . S
C497 C495 1.419 . S
C497 C498 1.362 . S
C498 H490 0.930 . S
C498 C497 1.362 . S
C498 C501 1.409 . S
C499 H491 0.930 . S
C499 C500 1.355 . S
C499 C501 1.415 1_545 S
C500 C499 1.355 . S
C500 C502 1.419 . S
C501 C496 1.425 . S
C501 C498 1.409 . S
C501 C499 1.415 1_565 S
C502 H492 0.930 . S
C502 C500 1.419 . S
C502 C503 1.362 1_545 S
C503 H493 0.930 . S
C503 C496 1.409 . S
C503 C502 1.362 1_565 S
H504 C510 0.930 . S
H505 C513 0.930 . S
H506 C514 0.930 . S
H507 C515 0.930 . S
H508 C518 0.929 . S
H509 C519 0.930 . S
C510 H504 0.930 . S
C510 C511 1.355 . S
C510 C512 1.415 . S
C511 C510 1.355 . S
C511 C513 1.419 . S
C512 C510 1.415 . S
C512 C517 1.425 . S
C512 C519 1.409 . S
C513 H505 0.930 . S
C513 C511 1.419 . S
C513 C514 1.362 . S
C514 H506 0.930 . S
C514 C513 1.362 . S
C514 C517 1.409 . S
C515 H507 0.930 . S
C515 C516 1.355 . S
C515 C517 1.415 1_565 S
C516 C515 1.355 . S
C516 C518 1.419 1_565 S
C517 C512 1.425 . S
C517 C514 1.409 . S
C517 C515 1.415 1_545 S
C518 H508 0.929 . S
C518 C516 1.419 1_545 S
C518 C519 1.362 . S
C519 H509 0.930 . S
C519 C512 1.409 . S
C519 C518 1.362 . S
H520 C526 0.930 . S
H521 C529 0.930 . S
H522 C530 0.930 . S
H523 C531 0.930 . S
H524 C534 0.930 . S
H525 C535 0.930 . S
C526 H520 0.930 . S
C526 C527 1.355 . S
C526 C528 1.415 . S
C527 C526 1.355 . S
C527 C529 1.419 . S
C528 C526 1.415 . S
C528 C533 1.425 . S
C528 C535 1.409 . S
C529 H521 0.930 . S
C529 C527 1.419 . S
C529 C530 1.362 . S
C530 H522 0.930 . S
C530 C529 1.362 . S
C530 C533 1.409 . S
C531 H523 0.930 . S
C531 C532 1.355 . S
C531 C533 1.415 . S
C532 C531 1.355 . S
C532 C534 1.419 . S
C533 C528 1.425 . S
C533 C530 1.409 . S
C533 C531 1.415 . S
C534 H524 0.930 . S
C534 C532 1.419 . S
C534 C535 1.362 . S
C535 H525 0.930 . S
C535 C528 1.409 . S
C535 C534 1.362 . S
H536 C542 0.930 . S
H537 C545 0.930 . S
H538 C546 0.930 . S
H539 C547 0.930 . S
H540 C550 0.930 . S
H541 C551 0.930 . S
C542 H536 0.930 . S
C542 C543 1.355 . S
C542 C544 1.415 . S
C543 C542 1.355 . S
C543 C545 1.419 . S
C544 C542 1.415 . S
C544 C549 1.425 . S
C544 C551 1.409 . S
C545 H537 0.930 . S
C545 C543 1.419 . S
C545 C546 1.362 . S
C546 H538 0.930 . S
C546 C545 1.362 . S
C546 C549 1.409 . S
C547 H539 0.930 . S
C547 C548 1.355 . S
C547 C549 1.415 . S
C548 C547 1.355 . S
C548 C550 1.419 . S
C549 C544 1.425 . S
C549 C546 1.409 . S
C549 C547 1.415 . S
C550 H540 0.930 . S
C550 C548 1.419 . S
C550 C551 1.362 . S
C551 H541 0.930 . S
C551 C544 1.409 . S
C551 C550 1.362 . S
H552 C558 0.930 . S
H553 C561 0.930 . S
H554 C562 0.930 . S
H555 C563 0.930 . S
H556 C566 0.930 . S
H557 C567 0.930 . S
C558 H552 0.930 . S
C558 C559 1.355 . S
C558 C560 1.415 . S
C559 C558 1.355 . S
C559 C561 1.419 . S
C560 C558 1.415 . S
C560 C565 1.425 . S
C560 C567 1.409 1_545 S
C561 H553 0.930 . S
C561 C559 1.419 . S
C561 C562 1.362 . S
C562 H554 0.930 . S
C562 C561 1.362 . S
C562 C565 1.409 . S
C563 H555 0.930 . S
C563 C564 1.355 . S
C563 C565 1.415 1_565 S
C564 C563 1.355 . S
C564 C566 1.419 . S
C565 C560 1.425 . S
C565 C562 1.409 . S
C565 C563 1.415 1_545 S
C566 H556 0.930 . S
C566 C564 1.419 . S
C566 C567 1.362 . S
C567 H557 0.930 . S
C567 C560 1.409 1_565 S
C567 C566 1.362 . S
H568 C574 0.930 . S
H569 C577 0.930 . S
H570 C578 0.930 . S
H571 C579 0.930 . S
H572 C582 0.930 . S
H573 C583 0.930 1_556 S
C574 H568 0.930 . S
C574 C575 1.355 . S
C574 C576 1.415 . S
C575 C574 1.355 . S
C575 C577 1.419 . S
C576 C574 1.415 . S
C576 C581 1.425 1_556 S
C576 C583 1.409 1_556 S
C577 H569 0.930 . S
C577 C575 1.419 . S
C577 C578 1.362 1_556 S
C578 H570 0.930 . S
C578 C577 1.362 1_554 S
C578 C581 1.409 . S
C579 H571 0.930 . S
C579 C580 1.355 . S
C579 C581 1.415 . S
C580 C579 1.355 . S
C580 C582 1.419 . S
C581 C576 1.425 1_554 S
C581 C578 1.409 . S
C581 C579 1.415 . S
C582 H572 0.930 . S
C582 C580 1.419 . S
C582 C583 1.362 . S
C583 H573 0.930 1_554 S
C583 C576 1.409 1_554 S
C583 C582 1.362 . S
H584 C590 0.930 . S
H585 C593 0.930 . S
H586 C594 0.930 . S
H587 C595 0.930 . S
H588 C598 0.930 . S
H589 C599 0.930 . S
C590 H584 0.930 . S
C590 C591 1.355 . S
C590 C592 1.415 . S
C591 C590 1.355 . S
C591 C593 1.419 . S
C592 C590 1.415 . S
C592 C597 1.425 . S
C592 C599 1.409 . S
C593 H585 0.930 . S
C593 C591 1.419 . S
C593 C594 1.362 . S
C594 H586 0.930 . S
C594 C593 1.362 . S
C594 C597 1.409 . S
C595 H587 0.930 . S
C595 C596 1.355 . S
C595 C597 1.415 . S
C596 C595 1.355 . S
C596 C598 1.419 . S
C597 C592 1.425 . S
C597 C594 1.409 . S
C597 C595 1.415 . S
C598 H588 0.930 . S
C598 C596 1.419 . S
C598 C599 1.362 . S
C599 H589 0.930 . S
C599 C592 1.409 . S
C599 C598 1.362 . S
H600 C606 0.930 . S
H601 C609 0.930 . S
H602 C610 0.930 . S
H603 C611 0.930 . S
H604 C614 0.930 . S
H605 C615 0.930 1_554 S
C606 H600 0.930 . S
C606 C607 1.355 . S
C606 C608 1.415 . S
C607 C606 1.355 . S
C607 C609 1.419 . S
C608 C606 1.415 . S
C608 C613 1.425 1_554 S
C608 C615 1.409 1_554 S
C609 H601 0.930 . S
C609 C607 1.419 . S
C609 C610 1.362 1_554 S
C610 H602 0.930 . S
C610 C609 1.362 1_556 S
C610 C613 1.409 . S
C611 H603 0.930 . S
C611 C612 1.355 . S
C611 C613 1.415 . S
C612 C611 1.355 . S
C612 C614 1.419 . S
C613 C608 1.425 1_556 S
C613 C610 1.409 . S
C613 C611 1.415 . S
C614 H604 0.930 . S
C614 C612 1.419 . S
C614 C615 1.362 . S
C615 H605 0.930 1_556 S
C615 C608 1.409 1_556 S
C615 C614 1.362 . S
H616 C622 0.930 . S
H617 C625 0.930 . S
H618 C626 0.930 . S
H619 C627 0.930 . S
H620 C630 0.930 . S
H621 C631 0.930 . S
C622 H616 0.930 . S
C622 C623 1.355 . S
C622 C624 1.415 . S
C623 C622 1.355 . S
C623 C625 1.419 . S
C624 C622 1.415 . S
C624 C629 1.425 . S
C624 C631 1.409 . S
C625 H617 0.930 . S
C625 C623 1.419 . S
C625 C626 1.362 . S
C626 H618 0.930 . S
C626 C625 1.362 . S
C626 C629 1.409 . S
C627 H619 0.930 . S
C627 C628 1.355 . S
C627 C629 1.415 . S
C628 C627 1.355 . S
C628 C630 1.419 . S
C629 C624 1.425 . S
C629 C626 1.409 . S
C629 C627 1.415 . S
C630 H620 0.930 . S
C630 C628 1.419 . S
C630 C631 1.362 . S
C631 H621 0.930 . S
C631 C624 1.409 . S
C631 C630 1.362 . S
H632 C638 0.930 . S
H633 C641 0.930 . S
H634 C642 0.930 . S
H635 C643 0.930 . S
H636 C646 0.930 . S
H637 C647 0.930 . S
C638 H632 0.930 . S
C638 C639 1.355 . S
C638 C640 1.415 1_554 S
C639 C638 1.355 . S
C639 C641 1.419 . S
C640 C638 1.415 1_556 S
C640 C645 1.425 . S
C640 C647 1.409 . S
C641 H633 0.930 . S
C641 C639 1.419 . S
C641 C642 1.362 1_554 S
C642 H634 0.930 . S
C642 C641 1.362 1_556 S
C642 C645 1.409 . S
C643 H635 0.930 . S
C643 C644 1.355 . S
C643 C645 1.415 . S
C644 C643 1.355 . S
C644 C646 1.419 . S
C645 C640 1.425 . S
C645 C642 1.409 . S
C645 C643 1.415 . S
C646 H636 0.930 . S
C646 C644 1.419 . S
C646 C647 1.362 . S
C647 H637 0.930 . S
C647 C640 1.409 . S
C647 C646 1.362 . S
H648 C654 0.930 . S
H649 C657 0.930 . S
H650 C658 0.930 . S
H651 C659 0.930 . S
H652 C662 0.930 . S
H653 C663 0.930 . S
C654 H648 0.930 . S
C654 C655 1.355 . S
C654 C656 1.415 . S
C655 C654 1.355 . S
C655 C657 1.419 . S
C656 C654 1.415 . S
C656 C661 1.425 . S
C656 C663 1.409 . S
C657 H649 0.930 . S
C657 C655 1.419 . S
C657 C658 1.362 . S
C658 H650 0.930 . S
C658 C657 1.362 . S
C658 C661 1.409 . S
C659 H651 0.930 . S
C659 C660 1.355 . S
C659 C661 1.415 . S
C660 C659 1.355 . S
C660 C662 1.419 . S
C661 C656 1.425 . S
C661 C658 1.409 . S
C661 C659 1.415 . S
C662 H652 0.930 . S
C662 C660 1.419 . S
C662 C663 1.362 . S
C663 H653 0.930 . S
C663 C656 1.409 . S
C663 C662 1.362 . S
H664 C670 0.930 . S
H665 C673 0.930 . S
H666 C674 0.930 . S
H667 C675 0.930 . S
H668 C678 0.930 . S
H669 C679 0.930 1_556 S
C670 H664 0.930 . S
C670 C671 1.355 . S
C670 C672 1.435 . S
C671 C670 1.355 . S
C671 C673 1.419 . S
C672 C670 1.435 . S
C672 C677 1.411 1_556 S
C672 C679 1.403 1_556 S
C673 H665 0.930 . S
C673 C671 1.419 . S
C673 C674 1.362 1_556 S
C674 H666 0.930 . S
C674 C673 1.362 1_554 S
C674 C677 1.409 . S
C675 H667 0.930 . S
C675 C676 1.355 . S
C675 C677 1.415 . S
C676 C675 1.355 . S
C676 C678 1.419 . S
C677 C672 1.411 1_554 S
C677 C674 1.409 . S
C677 C675 1.415 . S
C678 H668 0.930 . S
C678 C676 1.419 . S
C678 C679 1.362 . S
C679 H669 0.930 1_554 S
C679 C672 1.403 1_554 S
C679 C678 1.362 . S
H680 C686 0.930 . S
H681 C689 0.930 . S
H682 C690 0.930 . S
H683 C691 0.930 . S
H684 C694 0.930 . S
H685 C695 0.930 . S
C686 H680 0.930 . S
C686 C687 1.355 . S
C686 C688 1.415 . S
C687 C686 1.355 . S
C687 C689 1.419 . S
C688 C686 1.415 . S
C688 C693 1.425 . S
C688 C695 1.409 . S
C689 H681 0.930 . S
C689 C687 1.419 . S
C689 C690 1.362 . S
C690 H682 0.930 . S
C690 C689 1.362 . S
C690 C693 1.409 . S
C691 H683 0.930 . S
C691 C692 1.355 . S
C691 C693 1.415 . S
C692 C691 1.355 . S
C692 C694 1.419 . S
C693 C688 1.425 . S
C693 C690 1.409 . S
C693 C691 1.415 . S
C694 H684 0.930 . S
C694 C692 1.419 . S
C694 C695 1.362 . S
C695 H685 0.930 . S
C695 C688 1.409 . S
C695 C694 1.362 . S
H696 C702 0.930 . S
H697 C705 0.930 . S
H698 C706 0.930 . S
H699 C707 0.930 . S
H700 C710 0.930 . S
H701 C711 0.930 . S
C702 H696 0.930 . S
C702 C703 1.355 . S
C702 C704 1.415 . S
C703 C702 1.355 . S
C703 C705 1.419 . S
C704 C702 1.415 . S
C704 C709 1.425 . S
C704 C711 1.409 . S
C705 H697 0.930 . S
C705 C703 1.419 . S
C705 C706 1.362 . S
C706 H698 0.930 . S
C706 C705 1.362 . S
C706 C709 1.409 . S
C707 H699 0.930 . S
C707 C708 1.355 . S
C707 C709 1.415 . S
C708 C707 1.355 . S
C708 C710 1.419 . S
C709 C704 1.425 . S
C709 C706 1.409 . S
C709 C707 1.415 . S
C710 H700 0.930 . S
C710 C708 1.419 . S
C710 C711 1.362 . S
C711 H701 0.930 . S
C711 C704 1.409 . S
C711 C710 1.362 . S
H712 C718 0.930 . S
H713 C721 0.930 . S
H714 C722 0.930 . S
H715 C723 0.930 . S
H716 C726 0.930 . S
H717 C727 0.930 . S
C718 H712 0.930 . S
C718 C719 1.355 . S
C718 C720 1.415 . S
C719 C718 1.355 . S
C719 C721 1.419 . S
C720 C718 1.415 . S
C720 C725 1.425 . S
C720 C727 1.409 . S
C721 H713 0.930 . S
C721 C719 1.419 . S
C721 C722 1.362 . S
C722 H714 0.930 . S
C722 C721 1.362 . S
C722 C725 1.409 . S
C723 H715 0.930 . S
C723 C724 1.355 . S
C723 C725 1.415 . S
C724 C723 1.355 . S
C724 C726 1.419 . S
C725 C720 1.425 . S
C725 C722 1.409 . S
C725 C723 1.415 . S
C726 H716 0.930 . S
C726 C724 1.419 . S
C726 C727 1.362 . S
C727 H717 0.930 . S
C727 C720 1.409 . S
C727 C726 1.362 . S
H728 C734 0.930 . S
H729 C737 0.930 . S
H730 C738 0.930 . S
H731 C739 0.930 . S
H732 C742 0.930 . S
H733 C743 0.930 . S
C734 H728 0.930 . S
C734 C735 1.355 . S
C734 C736 1.415 . S
C735 C734 1.355 . S
C735 C737 1.419 . S
C736 C734 1.415 . S
C736 C741 1.425 . S
C736 C743 1.409 . S
C737 H729 0.930 . S
C737 C735 1.419 . S
C737 C738 1.362 . S
C738 H730 0.930 . S
C738 C737 1.362 . S
C738 C741 1.409 . S
C739 H731 0.930 . S
C739 C740 1.355 . S
C739 C741 1.415 . S
C740 C739 1.355 . S
C740 C742 1.419 . S
C741 C736 1.425 . S
C741 C738 1.409 . S
C741 C739 1.415 . S
C742 H732 0.930 . S
C742 C740 1.419 . S
C742 C743 1.362 . S
C743 H733 0.930 . S
C743 C736 1.409 . S
C743 C742 1.362 . S
H744 C750 0.930 . S
H745 C753 0.930 . S
H746 C754 0.930 . S
H747 C755 0.930 . S
H748 C758 0.923 1_455 S
H749 C759 0.930 . S
C750 H744 0.930 . S
C750 C751 1.355 . S
C750 C752 1.415 . S
C751 C750 1.355 . S
C751 C753 1.419 . S
C752 C750 1.415 . S
C752 C757 1.425 . S
C752 C759 1.409 . S
C753 H745 0.930 . S
C753 C751 1.419 . S
C753 C754 1.362 . S
C754 H746 0.930 . S
C754 C753 1.362 . S
C754 C757 1.409 . S
C755 H747 0.930 . S
C755 C756 1.355 . S
C755 C757 1.415 . S
C756 C755 1.355 . S
C756 C758 1.419 . S
C757 C752 1.425 . S
C757 C754 1.409 . S
C757 C755 1.415 . S
C758 H748 0.923 1_655 S
C758 C756 1.419 . S
C758 C759 1.362 . S
C759 H749 0.930 . S
C759 C752 1.409 . S
C759 C758 1.362 . S
H760 C766 0.930 . S
H761 C769 0.930 . S
H762 C770 0.930 . S
H763 C771 0.930 . S
H764 C774 0.930 . S
H765 C775 0.930 . S
C766 H760 0.930 . S
C766 C767 1.355 . S
C766 C768 1.415 . S
C767 C766 1.355 . S
C767 C769 1.419 . S
C768 C766 1.415 . S
C768 C773 1.425 . S
C768 C775 1.409 . S
C769 H761 0.930 . S
C769 C767 1.419 . S
C769 C770 1.362 . S
C770 H762 0.930 . S
C770 C769 1.362 . S
C770 C773 1.409 . S
C771 H763 0.930 . S
C771 C772 1.355 . S
C771 C773 1.415 . S
C772 C771 1.355 . S
C772 C774 1.419 . S
C773 C768 1.425 . S
C773 C770 1.409 . S
C773 C771 1.415 . S
C774 H764 0.930 . S
C774 C772 1.419 . S
C774 C775 1.362 . S
C775 H765 0.930 . S
C775 C768 1.409 . S
C775 C774 1.362 . S
H776 C782 0.930 . S
H777 C785 0.930 . S
H778 C786 0.930 . S
H779 C787 0.930 . S
H780 C790 0.930 . S
H781 C791 0.930 . S
C782 H776 0.930 . S
C782 C783 1.355 . S
C782 C784 1.415 . S
C783 C782 1.355 . S
C783 C785 1.419 . S
C784 C782 1.415 . S
C784 C789 1.425 . S
C784 C791 1.409 . S
C785 H777 0.930 . S
C785 C783 1.419 . S
C785 C786 1.362 . S
C786 H778 0.930 . S
C786 C785 1.362 . S
C786 C789 1.409 . S
C787 H779 0.930 . S
C787 C788 1.355 . S
C787 C789 1.415 . S
C788 C787 1.355 . S
C788 C790 1.419 . S
C789 C784 1.425 . S
C789 C786 1.409 . S
C789 C787 1.415 . S
C790 H780 0.930 . S
C790 C788 1.419 . S
C790 C791 1.362 . S
C791 H781 0.930 . S
C791 C784 1.409 . S
C791 C790 1.362 . S
H792 C798 0.930 . S
H793 C801 0.930 . S
H794 C802 0.930 . S
H795 C803 0.930 . S
H796 C806 0.930 . S
H797 C807 0.930 . S
C798 H792 0.930 . S
C798 C799 1.355 . S
C798 C800 1.415 . S
C799 C798 1.355 . S
C799 C801 1.419 . S
C800 C798 1.415 . S
C800 C805 1.425 . S
C800 C807 1.409 . S
C801 H793 0.930 . S
C801 C799 1.419 . S
C801 C802 1.362 . S
C802 H794 0.930 . S
C802 C801 1.362 . S
C802 C805 1.409 . S
C803 H795 0.930 . S
C803 C804 1.355 . S
C803 C805 1.415 . S
C804 C803 1.355 . S
C804 C806 1.419 . S
C805 C800 1.425 . S
C805 C802 1.409 . S
C805 C803 1.415 . S
C806 H796 0.930 . S
C806 C804 1.419 . S
C806 C807 1.362 . S
C807 H797 0.930 . S
C807 C800 1.409 . S
C807 C806 1.362 . S
H808 C814 0.930 . S
H809 C817 0.930 . S
H810 C818 0.930 . S
H811 C819 0.930 . S
H812 C822 0.930 . S
H813 C823 0.930 . S
C814 H808 0.930 . S
C814 C815 1.355 . S
C814 C816 1.415 . S
C815 C814 1.355 . S
C815 C817 1.419 . S
C816 C814 1.415 . S
C816 C821 1.425 . S
C816 C823 1.409 . S
C817 H809 0.930 . S
C817 C815 1.419 . S
C817 C818 1.362 . S
C818 H810 0.930 . S
C818 C817 1.362 . S
C818 C821 1.409 . S
C819 H811 0.930 . S
C819 C820 1.355 . S
C819 C821 1.415 . S
C820 C819 1.355 . S
C820 C822 1.419 . S
C821 C816 1.425 . S
C821 C818 1.409 . S
C821 C819 1.415 . S
C822 H812 0.930 . S
C822 C820 1.419 . S
C822 C823 1.362 . S
C823 H813 0.930 . S
C823 C816 1.409 . S
C823 C822 1.362 . S
C447 C86 1.619 . S
C452 C160 1.630 . S
C468 C244 1.650 . S
C463 C100 1.675 . S
C484 C243 1.627 . S
C479 C60 1.629 . S
C495 C74 1.688 . S
C500 C159 1.677 . S
C516 C340 1.648 . S
C511 C35 1.673 . S
C532 C424 1.620 . S
C527 C47 1.628 . S
C543 C9 1.666 . S
C548 C423 1.671 . S
C559 C21 1.616 . S
C564 C339 1.606 . S
C580 C162 1.406 . S
C575 C22 1.596 . S
C596 C246 1.363 . S
C591 C8 1.566 . S
C612 C258 1.424 . S
C607 C48 1.599 . S
C628 C174 1.309 . S
C623 C34 1.573 . S
C644 C342 1.473 . S
C639 C73 1.590 . S
C655 C61 1.587 . S
C660 C426 1.483 . S
C676 C414 1.429 . S
C671 C99 1.595 . S
C687 C87 1.602 . S
C692 C330 1.435 . S
C708 C171 1.584 . S
C703 C4 1.538 . S
C724 C255 1.487 . S
C719 C17 1.483 . S
C735 C30 1.483 . S
C740 C256 1.574 . S
C756 C172 1.477 . S
C751 C43 1.487 . S
C772 C327 1.487 . S
C767 C56 1.477 . S
C783 C69 1.506 . S
C788 C411 1.579 . S
C799 C82 1.411 . S
C804 C412 1.457 . S
C815 C95 1.538 . S
C820 C328 1.536 . S
