# Generated by pormake.
# Topology pyr, (3,6)-cn, num edge types: 1
# Building blocks:
#     Node 0, Type 0, BuildingBlock: MIDCAF_clean_linker_0, # of connection points: 3
#     Node 1, Type 0, BuildingBlock: MIDCAF_clean_linker_0, # of connection points: 3
#     Node 2, Type 0, BuildingBlock: MIDCAF_clean_linker_0, # of connection points: 3
#     Node 3, Type 0, BuildingBlock: MIDCAF_clean_linker_0, # of connection points: 3
#     Node 4, Type 0, BuildingBlock: MIDCAF_clean_linker_0, # of connection points: 3
#     Node 5, Type 0, BuildingBlock: MIDCAF_clean_linker_0, # of connection points: 3
#     Node 6, Type 0, BuildingBlock: MIDCAF_clean_linker_0, # of connection points: 3
#     Node 7, Type 0, BuildingBlock: MIDCAF_clean_linker_0, # of connection points: 3
#     Node 8, Type 1, BuildingBlock: INOVEN_clean_sbu_0, # of connection points: 6
#     Node 9, Type 1, BuildingBlock: INOVEN_clean_sbu_0, # of connection points: 6
#     Node 10, Type 1, BuildingBlock: INOVEN_clean_sbu_0, # of connection points: 6
#     Node 11, Type 1, BuildingBlock: INOVEN_clean_sbu_0, # of connection points: 6
#     Edge 12, Type (0, 1), BuildingBlock: AJUNOK_clean_linker_0, # of connection points: 2
#     Edge 13, Type (0, 1), BuildingBlock: AJUNOK_clean_linker_0, # of connection points: 2
#     Edge 14, Type (0, 1), BuildingBlock: AJUNOK_clean_linker_0, # of connection points: 2
#     Edge 15, Type (0, 1), BuildingBlock: AJUNOK_clean_linker_0, # of connection points: 2
#     Edge 16, Type (0, 1), BuildingBlock: AJUNOK_clean_linker_0, # of connection points: 2
#     Edge 17, Type (0, 1), BuildingBlock: AJUNOK_clean_linker_0, # of connection points: 2
#     Edge 18, Type (0, 1), BuildingBlock: AJUNOK_clean_linker_0, # of connection points: 2
#     Edge 19, Type (0, 1), BuildingBlock: AJUNOK_clean_linker_0, # of connection points: 2
#     Edge 20, Type (0, 1), BuildingBlock: AJUNOK_clean_linker_0, # of connection points: 2
#     Edge 21, Type (0, 1), BuildingBlock: AJUNOK_clean_linker_0, # of connection points: 2
#     Edge 22, Type (0, 1), BuildingBlock: AJUNOK_clean_linker_0, # of connection points: 2
#     Edge 23, Type (0, 1), BuildingBlock: AJUNOK_clean_linker_0, # of connection points: 2
#     Edge 24, Type (0, 1), BuildingBlock: AJUNOK_clean_linker_0, # of connection points: 2
#     Edge 25, Type (0, 1), BuildingBlock: AJUNOK_clean_linker_0, # of connection points: 2
#     Edge 26, Type (0, 1), BuildingBlock: AJUNOK_clean_linker_0, # of connection points: 2
#     Edge 27, Type (0, 1), BuildingBlock: AJUNOK_clean_linker_0, # of connection points: 2
#     Edge 28, Type (0, 1), BuildingBlock: AJUNOK_clean_linker_0, # of connection points: 2
#     Edge 29, Type (0, 1), BuildingBlock: AJUNOK_clean_linker_0, # of connection points: 2
#     Edge 30, Type (0, 1), BuildingBlock: AJUNOK_clean_linker_0, # of connection points: 2
#     Edge 31, Type (0, 1), BuildingBlock: AJUNOK_clean_linker_0, # of connection points: 2
#     Edge 32, Type (0, 1), BuildingBlock: AJUNOK_clean_linker_0, # of connection points: 2
#     Edge 33, Type (0, 1), BuildingBlock: AJUNOK_clean_linker_0, # of connection points: 2
#     Edge 34, Type (0, 1), BuildingBlock: AJUNOK_clean_linker_0, # of connection points: 2
#     Edge 35, Type (0, 1), BuildingBlock: AJUNOK_clean_linker_0, # of connection points: 2
# Relax obj value: 0.130
# Max RMSD: 0.141
# Mean RMSD: 0.065
data_MOF--net-pyr--node1-INOVEN_clean_sbu_0--node2-MIDCAF_clean_linker_0--edge1-AJUNOK_clean_linker_0
_symmetry_space_group_name_H-M    P1
_symmetry_Int_Tables_number       1
_symmetry_cell_setting            triclinic
loop_
_symmetry_equiv_pos_as_xyz
'x, y, z'
_cell_length_a     36.812601
_cell_length_b     38.006343
_cell_length_c     33.099003
_cell_angle_alpha  90.398804
_cell_angle_beta   87.897667
_cell_angle_gamma 102.78741
loop_
_atom_site_label
_atom_site_type_symbol
_atom_site_fract_x
_atom_site_fract_y
_atom_site_fract_z
_atom_type_partial_charge
C0 C 0.29361 0.3151 0.40294 0.0
C1 C 0.30109 0.28436 0.42125 0.0
C2 C 0.33611 0.27608 0.41353 0.0
C3 C 0.36012 0.29412 0.38286 0.0
H4 H 0.44124 0.27468 0.2967 0.0
H5 H 0.46741 0.22631 0.26668 0.0
H6 H 0.42448 0.2455 0.15135 0.0
H7 H 0.39836 0.29396 0.18092 0.0
H8 H 0.33046 0.33815 0.18136 0.0
H9 H 0.27908 0.35961 0.15235 0.0
H10 H 0.28494 0.43857 0.24765 0.0
H11 H 0.33541 0.41652 0.27726 0.0
H12 H 0.30951 0.35525 0.3573 0.0
H13 H 0.26722 0.32273 0.40852 0.0
H14 H 0.34355 0.25366 0.42871 0.0
H15 H 0.38507 0.28465 0.37467 0.0
N16 N 0.3889 0.31108 0.3013 0.0
N17 N 0.38082 0.33527 0.23793 0.0
N18 N 0.35208 0.35351 0.29628 0.0
C19 C 0.39667 0.31338 0.26077 0.0
C20 C 0.35907 0.356 0.25582 0.0
C21 C 0.36653 0.33104 0.31933 0.0
C22 C 0.41731 0.288 0.24133 0.0
C23 C 0.43781 0.269 0.26479 0.0
C24 C 0.45292 0.24141 0.24767 0.0
C25 C 0.44746 0.23202 0.20696 0.0
C26 C 0.42866 0.25209 0.18299 0.0
C27 C 0.4139 0.27994 0.19993 0.0
C28 C 0.33658 0.37537 0.23185 0.0
C29 C 0.32155 0.36083 0.19537 0.0
C30 C 0.292 0.37298 0.17889 0.0
C31 C 0.27729 0.39997 0.19852 0.0
C32 C 0.29492 0.41691 0.23266 0.0
C33 C 0.32407 0.40455 0.24933 0.0
C34 C 0.34984 0.32136 0.36032 0.0
C35 C 0.31796 0.3337 0.37313 0.0
C36 C 0.09478 0.89666 0.69682 0.0
C37 C 0.10316 0.90206 0.65527 0.0
C38 C 0.12447 0.88039 0.63515 0.0
C39 C 0.13759 0.85429 0.65624 0.0
H40 H 0.19876 0.77491 0.64233 0.0
H41 H 0.24253 0.74149 0.61186 0.0
H42 H 0.25044 0.69216 0.72741 0.0
H43 H 0.20638 0.7245 0.75748 0.0
H44 H 0.21344 0.77889 0.83223 0.0
H45 H 0.2479 0.80521 0.89064 0.0
H46 H 0.20001 0.89867 0.88267 0.0
H47 H 0.16513 0.8725 0.82452 0.0
H48 H 0.10213 0.86802 0.75025 0.0
H49 H 0.07816 0.91271 0.71307 0.0
H50 H 0.13225 0.88447 0.60337 0.0
H51 H 0.15481 0.83877 0.64005 0.0
N52 N 0.16175 0.79904 0.70235 0.0
N53 N 0.18663 0.78566 0.76304 0.0
N54 N 0.15459 0.83224 0.76111 0.0
C55 C 0.18058 0.77862 0.72333 0.0
C56 C 0.17388 0.8124 0.78223 0.0
C57 C 0.14808 0.82553 0.72133 0.0
C58 C 0.1997 0.75288 0.70251 0.0
C59 C 0.20902 0.75612 0.6609 0.0
C60 C 0.23431 0.73727 0.64353 0.0
C61 C 0.25048 0.71488 0.66749 0.0
C62 C 0.2385 0.70925 0.70815 0.0
C63 C 0.2134 0.72802 0.72546 0.0
C64 C 0.18716 0.82396 0.82298 0.0
C65 C 0.20951 0.8047 0.84338 0.0
C66 C 0.22939 0.81976 0.87676 0.0
C67 C 0.22724 0.85428 0.89041 0.0
C68 C 0.20224 0.87204 0.87257 0.0
C69 C 0.18233 0.85701 0.83916 0.0
C70 C 0.13034 0.84983 0.69808 0.0
C71 C 0.10838 0.87095 0.71805 0.0
C72 C 0.6128 0.27506 0.98719 0.0
C73 C 0.59806 0.24652 0.96098 0.0
C74 C 0.5974 0.25437 0.91944 0.0
C75 C 0.61202 0.28939 0.90453 0.0
H76 H 0.5842 0.38086 0.83347 0.0
H77 H 0.56024 0.40932 0.7772 0.0
H78 H 0.66365 0.48896 0.76696 0.0
H79 H 0.68777 0.46079 0.82322 0.0
H80 H 0.74601 0.46842 0.89685 0.0
H81 H 0.80453 0.49664 0.92849 0.0
H82 H 0.78225 0.41474 1.02123 0.0
H83 H 0.72448 0.38629 0.98979 0.0
H84 H 0.64 0.33073 0.99327 0.0
H85 H 0.61235 0.27079 1.01951 0.0
H86 H 0.58629 0.23325 0.89822 0.0
H87 H 0.61176 0.29432 0.87236 0.0
N88 N 0.63457 0.36837 0.88227 0.0
N89 N 0.68342 0.41986 0.88714 0.0
N90 N 0.67759 0.37254 0.93365 0.0
C91 C 0.65246 0.40167 0.86825 0.0
C92 C 0.69617 0.40547 0.91994 0.0
C93 C 0.64703 0.3537 0.91507 0.0
C94 C 0.63806 0.41836 0.83308 0.0
C95 C 0.60202 0.4043 0.81916 0.0
C96 C 0.58815 0.4207 0.78698 0.0
C97 C 0.61011 0.45124 0.76738 0.0
C98 C 0.64621 0.46516 0.78101 0.0
C99 C 0.65993 0.44907 0.81349 0.0
C100 C 0.73055 0.42466 0.94028 0.0
C101 C 0.75347 0.45649 0.92409 0.0
C102 C 0.78697 0.47277 0.94227 0.0
C103 C 0.79839 0.45753 0.97693 0.0
C104 C 0.77476 0.42665 0.99398 0.0
C105 C 0.74145 0.4104 0.97591 0.0
C106 C 0.62827 0.3173 0.93067 0.0
C107 C 0.62823 0.30971 0.97219 0.0
C108 C 0.75051 0.6676 0.49776 0.0
C109 C 0.72849 0.63502 0.484 0.0
C110 C 0.74032 0.61941 0.4486 0.0
C111 C 0.7736 0.63595 0.42769 0.0
H112 H 0.84815 0.62282 0.33369 0.0
H113 H 0.87503 0.59193 0.27945 0.0
H114 H 0.96829 0.68306 0.26675 0.0
H115 H 0.94112 0.71449 0.32059 0.0
H116 H 0.91014 0.80007 0.36575 0.0
H117 H 0.93219 0.86166 0.39067 0.0
H118 H 0.91218 0.82255 0.51359 0.0
H119 H 0.88773 0.76194 0.48846 0.0
H120 H 0.79938 0.70936 0.48861 0.0
H121 H 0.7418 0.68083 0.52432 0.0
H122 H 0.72386 0.59436 0.43716 0.0
H123 H 0.78184 0.62327 0.40051 0.0
N124 N 0.84462 0.67202 0.38675 0.0
N125 N 0.8932 0.72374 0.37821 0.0
N126 N 0.84811 0.72103 0.43083 0.0
C127 C 0.87618 0.68973 0.36621 0.0
C128 C 0.87924 0.73943 0.41072 0.0
C129 C 0.83034 0.68755 0.41906 0.0
C130 C 0.89228 0.6714 0.33182 0.0
C131 C 0.87428 0.63656 0.31929 0.0
C132 C 0.88979 0.61866 0.28815 0.0
C133 C 0.92375 0.63498 0.26835 0.0
C134 C 0.94172 0.66987 0.28063 0.0
C135 C 0.92619 0.68785 0.31182 0.0
C136 C 0.89723 0.77613 0.4251 0.0
C137 C 0.91092 0.80473 0.39807 0.0
C138 C 0.9238 0.84007 0.41249 0.0
C139 C 0.92433 0.84747 0.45439 0.0
C140 C 0.9117 0.81836 0.48121 0.0
C141 C 0.89795 0.78341 0.4668 0.0
C142 C 0.79557 0.66872 0.44148 0.0
C143 C 0.78351 0.68415 0.47692 0.0
C144 C 0.58356 0.872 0.91808 0.0
C145 C 0.58631 0.88054 0.95931 0.0
C146 C 0.60447 0.86061 0.98423 0.0
C147 C 0.62044 0.83322 0.96805 0.0
H148 H 0.6962 0.76832 0.99365 0.0
H149 H 0.74237 0.74297 1.02819 0.0
H150 H 0.74929 0.67305 0.92619 0.0
H151 H 0.70309 0.69764 0.89218 0.0
H152 H 0.70716 0.73841 0.80471 0.0
H153 H 0.7503 0.75996 0.74806 0.0
H154 H 0.71135 0.85905 0.74645 0.0
H155 H 0.66777 0.83742 0.80221 0.0
H156 H 0.59799 0.8396 0.86964 0.0
H157 H 0.57005 0.88722 0.89815 0.0
H158 H 0.60684 0.86666 1.01619 0.0
H159 H 0.63503 0.81901 0.98794 0.0
N160 N 0.65449 0.77756 0.9319 0.0
N161 N 0.68282 0.75718 0.87446 0.0
N162 N 0.64763 0.80083 0.86772 0.0
C163 C 0.67566 0.75579 0.91496 0.0
C164 C 0.66914 0.77961 0.85057 0.0
C165 C 0.6397 0.79966 0.9082 0.0
C166 C 0.69622 0.73519 0.94004 0.0
C167 C 0.70662 0.74665 0.97926 0.0
C168 C 0.73322 0.73234 0.99892 0.0
C169 C 0.74939 0.70601 0.97992 0.0
C170 C 0.73692 0.69281 0.94198 0.0
C171 C 0.71062 0.70717 0.92232 0.0
C172 C 0.6848 0.78667 0.80881 0.0
C173 C 0.70675 0.76422 0.79128 0.0
C174 C 0.73149 0.77651 0.7588 0.0
C175 C 0.73466 0.81139 0.74328 0.0
C176 C 0.7094 0.8319 0.75746 0.0
C177 C 0.68448 0.81953 0.78977 0.0
C178 C 0.61899 0.82554 0.92644 0.0
C179 C 0.59979 0.84485 0.90179 0.0
C180 C 0.84235 0.24049 0.27276 0.0
C181 C 0.81617 0.25753 0.25622 0.0
C182 C 0.81489 0.29258 0.26866 0.0
C183 C 0.83661 0.3088 0.30025 0.0
H184 H 0.84505 0.39234 0.38336 0.0
H185 H 0.8009 0.42584 0.41095 0.0
H186 H 0.80232 0.37536 0.52717 0.0
H187 H 0.84608 0.34076 0.49918 0.0
H188 H 0.88896 0.27545 0.50404 0.0
H189 H 0.90681 0.22717 0.54124 0.0
H190 H 0.95849 0.19436 0.43232 0.0
H191 H 0.93952 0.24181 0.39473 0.0
H192 H 0.88187 0.24156 0.31871 0.0
H193 H 0.84387 0.21345 0.26345 0.0
H194 H 0.79524 0.30639 0.2558 0.0
H195 H 0.83305 0.33487 0.31093 0.0
N196 N 0.86168 0.32961 0.37916 0.0
N197 N 0.88428 0.31529 0.44081 0.0
N198 N 0.89117 0.28134 0.38256 0.0
C199 C 0.86709 0.33666 0.41898 0.0
C200 C 0.89708 0.28796 0.42247 0.0
C201 C 0.87345 0.30203 0.36065 0.0
C202 C 0.84845 0.36328 0.43883 0.0
C203 C 0.83661 0.38883 0.41504 0.0
C204 C 0.81144 0.40825 0.43092 0.0
C205 C 0.79753 0.4026 0.47095 0.0
C206 C 0.81199 0.37959 0.49591 0.0
C207 C 0.83731 0.36007 0.47998 0.0
C208 C 0.91266 0.26239 0.44638 0.0
C209 C 0.90473 0.25839 0.48816 0.0
C210 C 0.9151 0.23078 0.50953 0.0
C211 C 0.93417 0.207 0.48971 0.0
C212 C 0.94347 0.21201 0.44831 0.0
C213 C 0.93274 0.2393 0.42685 0.0
C214 C 0.85972 0.29004 0.32017 0.0
C215 C 0.86402 0.25662 0.30451 0.0
C216 C 0.23764 0.63423 0.2144 0.0
C217 C 0.22392 0.65087 0.18215 0.0
C218 C 0.24382 0.6851 0.16928 0.0
C219 C 0.27652 0.70225 0.18798 0.0
H220 H 0.3469 0.79806 0.19123 0.0
H221 H 0.37531 0.8584 0.1669 0.0
H222 H 0.46583 0.86369 0.24752 0.0
H223 H 0.43702 0.8032 0.27275 0.0
H224 H 0.39965 0.73543 0.36048 0.0
H225 H 0.42368 0.70481 0.41483 0.0
H226 H 0.40621 0.60729 0.34327 0.0
H227 H 0.37904 0.63713 0.29105 0.0
H228 H 0.28004 0.63784 0.258 0.0
H229 H 0.22262 0.60818 0.22565 0.0
H230 H 0.23422 0.69859 0.1444 0.0
H231 H 0.2909 0.72861 0.17699 0.0
N232 N 0.34118 0.73925 0.22978 0.0
N233 N 0.38672 0.74151 0.27808 0.0
N234 N 0.34008 0.6886 0.27014 0.0
C235 C 0.37207 0.75788 0.24802 0.0
C236 C 0.37092 0.70677 0.28917 0.0
C237 C 0.32483 0.70481 0.24055 0.0
C238 C 0.38951 0.79544 0.23421 0.0
C239 C 0.37277 0.81195 0.20413 0.0
C240 C 0.38914 0.84666 0.18993 0.0
C241 C 0.42273 0.86612 0.20536 0.0
C242 C 0.43954 0.8498 0.2355 0.0
C243 C 0.42311 0.81496 0.24982 0.0
C244 C 0.3871 0.68863 0.32162 0.0
C245 C 0.40068 0.70733 0.35666 0.0
C246 C 0.41465 0.68969 0.38779 0.0
C247 C 0.41644 0.65304 0.38434 0.0
C248 C 0.40387 0.63484 0.34843 0.0
C249 C 0.38874 0.65215 0.31798 0.0
C250 C 0.29038 0.68572 0.22026 0.0
C251 C 0.2705 0.65137 0.23313 0.0
C252 C 0.15237 0.26392 0.69047 0.0
C253 C 0.11505 0.24723 0.6997 0.0
C254 C 0.09465 0.26421 0.72753 0.0
C255 C 0.11082 0.29807 0.74413 0.0
H256 H 0.11926 0.37499 0.85217 0.0
H257 H 0.09328 0.4063 0.90694 0.0
H258 H 0.14266 0.50859 0.85021 0.0
H259 H 0.17053 0.47735 0.79709 0.0
H260 H 0.25152 0.47671 0.74283 0.0
H261 H 0.30911 0.50563 0.70556 0.0
H262 H 0.31328 0.40383 0.6491 0.0
H263 H 0.25599 0.3753 0.68507 0.0
H264 H 0.19712 0.3095 0.69816 0.0
H265 H 0.16913 0.25119 0.66993 0.0
H266 H 0.06584 0.25189 0.73535 0.0
H267 H 0.09406 0.31098 0.76444 0.0
N268 N 0.14857 0.36998 0.77679 0.0
N269 N 0.19668 0.42219 0.76794 0.0
N270 N 0.19701 0.3709 0.72854 0.0
C271 C 0.16444 0.4047 0.78744 0.0
C272 C 0.21328 0.40531 0.73852 0.0
C273 C 0.16481 0.35293 0.74707 0.0
C274 C 0.147 0.42356 0.82007 0.0
C275 C 0.12443 0.40416 0.85133 0.0
C276 C 0.10919 0.42222 0.88265 0.0
C277 C 0.11521 0.4602 0.88305 0.0
C278 C 0.13758 0.47944 0.85146 0.0
C279 C 0.15347 0.46146 0.82072 0.0
C280 C 0.24879 0.42359 0.71704 0.0
C281 C 0.26478 0.4605 0.72251 0.0
C282 C 0.29793 0.47706 0.7013 0.0
C283 C 0.31592 0.45705 0.67431 0.0
C284 C 0.3 0.42021 0.66918 0.0
C285 C 0.26704 0.40378 0.6901 0.0
C286 C 0.14777 0.31552 0.7333 0.0
C287 C 0.16843 0.29748 0.70688 0.0
Gd288 Gd 0.03047 0.06636 0.53263 0.0
Gd289 Gd 0.99365 1.03593 0.61203 0.0
C290 C 0.04938 0.11181 0.6175 0.0
C291 C 0.06006 0.11003 0.47553 0.0
C292 C 0.09519 0.13734 0.47504 0.0
C293 C 0.12462 0.13228 0.49865 0.0
C294 C 0.09953 0.16868 0.45168 0.0
C295 C 0.16354 0.18786 0.47248 0.0
C296 C 0.13358 0.19391 0.45047 0.0
C297 C 0.15869 0.15722 0.49706 0.0
C298 C 0.06542 1.02157 0.5705 0.0
C299 C 0.9756 0.99039 0.52693 0.0
C300 C 0.96509 0.99357 0.67088 0.0
C301 C 0.93184 0.96355 0.67489 0.0
C302 C 0.89617 0.97067 0.68111 0.0
C303 C 0.93535 0.9275 0.67206 0.0
C304 C 0.86822 0.90647 0.68165 0.0
C305 C 0.9038 0.8992 0.67546 0.0
C306 C 0.86476 0.94246 0.68444 0.0
C307 C 0.95953 0.08165 0.57425 0.0
O308 O 0.04818 0.11173 0.57759 0.0
O309 O 0.03468 0.08238 0.63868 0.0
O310 O 0.06355 0.07654 0.47697 0.0
O311 O 0.03378 0.11651 0.50024 0.0
O312 O 0.06435 1.02383 0.53159 0.0
O313 O 0.05082 1.04511 0.58727 0.0
O314 O 0.97554 0.99022 0.56701 0.0
O315 O 0.99035 1.01982 0.50584 0.0
O316 O 0.95883 1.02588 0.66645 0.0
O317 O 0.99269 0.9879 0.64746 0.0
O318 O 0.96102 0.0795 0.61316 0.0
O319 O 0.97342 0.05757 0.55754 0.0
H320 H 0.12152 0.10862 0.51765 0.0
H321 H 0.07693 0.17324 0.43381 0.0
H322 H 0.13706 0.21735 0.43108 0.0
H323 H 0.18156 0.15215 0.51414 0.0
H324 H 0.89238 0.99806 0.68381 0.0
H325 H 0.96248 0.92117 0.66744 0.0
H326 H 0.90722 0.87164 0.67367 0.0
H327 H 0.83783 0.94884 0.69053 0.0
Gd328 Gd 0.54911 0.06113 0.10392 0.0
Gd329 Gd 0.47989 1.04904 1.06215 0.0
C330 C 0.49374 0.10841 0.134 0.0
C331 C 0.61783 0.07348 0.12499 0.0
C332 C 0.64652 0.10356 0.13924 0.0
C333 C 0.68226 0.09816 0.14552 0.0
C334 C 0.63843 0.13727 0.14754 0.0
C335 C 0.70159 0.15972 0.16995 0.0
C336 C 0.66594 0.16533 0.16233 0.0
C337 C 0.70959 0.12598 0.16087 0.0
C338 C 0.49514 1.00776 0.13835 0.0
C339 C 0.53543 1.00216 1.03135 0.0
C340 C 0.41063 1.035 1.04303 0.0
C341 C 0.38306 1.00467 1.02738 0.0
C342 C 0.34961 1.01091 1.01348 0.0
C343 C 0.3903 0.96999 1.02459 0.0
C344 C 0.33136 0.94843 0.9919 0.0
C345 C 0.36449 0.94197 1.00708 0.0
C346 C 0.32392 0.98303 0.9959 0.0
C347 C 0.53333 0.10242 1.02698 0.0
O348 O 0.52956 0.10884 0.1295 0.0
O349 O 0.46923 0.08383 0.1151 0.0
O350 O 0.58946 0.06207 0.14999 0.0
O351 O 0.60808 0.0755 0.08766 0.0
O352 O 0.51781 1.03198 0.15834 0.0
O353 O 0.50237 1.01271 0.10106 0.0
O354 O 0.49973 1.00219 1.03525 0.0
O355 O 0.56003 1.02609 1.05107 0.0
O356 O 0.43809 1.04911 1.0179 0.0
O357 O 0.42146 1.03147 0.07966 0.0
O358 O 0.50956 0.07876 1.00749 0.0
O359 O 0.52701 0.09749 1.0645 0.0
H360 H 0.68883 0.07219 0.13931 0.0
H361 H 0.61087 0.1418 0.14275 0.0
H362 H 0.65919 0.19126 0.16815 0.0
H363 H 0.73666 0.12074 0.16675 0.0
H364 H 0.34374 1.0376 1.0154 0.0
H365 H 0.41608 0.96479 1.03531 0.0
H366 H 0.37066 0.91543 1.00489 0.0
H367 H 0.2988 0.98885 0.98415 0.0
Gd368 Gd 0.52418 0.52277 0.54274 0.0
Gd369 Gd 0.51594 0.58562 0.60364 0.0
C370 C 0.54895 0.52124 0.63658 0.0
C371 C 0.55697 0.48558 0.49421 0.0
C372 C 0.59314 0.47505 0.495 0.0
C373 C 0.60475 0.46106 0.53033 0.0
C374 C 0.61687 0.47993 0.46043 0.0
C375 C 0.6626 0.4555 0.49584 0.0
C376 C 0.65139 0.47035 0.46086 0.0
C377 C 0.63913 0.45125 0.53067 0.0
C378 C 0.45645 0.50681 0.58305 0.0
C379 C 0.48284 0.58273 0.51135 0.0
C380 C 0.49025 0.63235 0.64585 0.0
C381 C 0.45575 0.64578 0.64426 0.0
C382 C 0.44428 0.65816 0.6079 0.0
C383 C 0.43249 0.64362 0.67906 0.0
C384 C 0.38674 0.66584 0.64139 0.0
C385 C 0.39823 0.65344 0.67762 0.0
C386 C 0.41008 0.66829 0.60656 0.0
C387 C 0.58464 0.58953 0.5694 0.0
O388 O 0.55542 0.51316 0.59827 0.0
O389 O 0.52905 0.54518 0.64674 0.0
O390 O 0.5318 0.47088 0.52177 0.0
O391 O 0.55856 0.52001 0.48868 0.0
O392 O 0.46621 0.48663 0.55461 0.0
O393 O 0.48269 0.53396 0.58639 0.0
O394 O 0.48637 0.59781 0.54778 0.0
O395 O 0.4956 0.55373 0.50144 0.0
O396 O 0.51488 0.64142 0.61596 0.0
O397 O 0.48552 0.59854 0.65671 0.0
O398 O 0.57889 0.60118 0.60559 0.0
O399 O 0.55388 0.5791 0.55271 0.0
H400 H 0.58726 0.45752 0.55768 0.0
H401 H 0.60862 0.491 0.43303 0.0
H402 H 0.66896 0.47374 0.43356 0.0
H403 H 0.64735 0.44024 0.5581 0.0
H404 H 0.46142 0.6596 0.5804 0.0
H405 H 0.44063 0.63383 0.70727 0.0
H406 H 0.38078 0.65162 0.70495 0.0
H407 H 0.40161 0.67753 0.57824 0.0
Gd408 Gd 0.01866 0.51258 0.08863 0.0
Gd409 Gd 0.0154 0.58689 1.04973 0.0
C410 C 0.08501 0.58392 0.10383 0.0
C411 C 0.04055 0.453 0.09551 0.0
C412 C 0.07125 0.44214 0.11559 0.0
C413 C 0.08823 0.46169 0.14861 0.0
C414 C 0.08691 0.41496 0.09815 0.0
C415 C 0.13705 0.42767 0.14558 0.0
C416 C 0.1196 0.40782 0.11295 0.0
C417 C 0.12078 0.45434 0.16365 0.0
C418 C 0.98926 0.55324 0.14444 0.0
C419 C 0.94377 0.51784 1.04563 0.0
C420 C 0.99578 0.64319 1.02242 0.0
C421 C 0.96003 0.65433 1.02328 0.0
C422 C 0.95516 0.68206 0.99783 0.0
C423 C 0.92986 0.63587 1.04762 0.0
C424 C 0.88968 0.67162 1.01945 0.0
C425 C 0.89498 0.64452 1.04583 0.0
C426 C 0.92027 0.69072 0.996 0.0
C427 C 0.05271 0.54432 1.0064 0.0
O428 O 0.0746 0.54828 0.10228 0.0
O429 O 0.06446 0.60517 0.08932 0.0
O430 O 0.01368 0.46095 0.11853 0.0
O431 O 0.05144 0.47583 1.0658 0.0
O432 O 0.99373 0.5208 0.15118 0.0
O433 O 1.00043 0.56148 0.10848 0.0
O434 O 0.95607 0.55345 1.04547 0.0
O435 O 0.96429 0.49589 1.05828 0.0
O436 O 0.99696 0.6148 1.00028 0.0
O437 O 1.01125 0.64254 1.05726 0.0
O438 O 0.06347 0.5792 1.00807 0.0
O439 O 0.02262 0.53444 1.02676 0.0
H440 H 0.07705 0.4834 0.16184 0.0
H441 H 0.0745 0.40004 1.07222 0.0
H442 H 0.1315 0.38703 0.09863 0.0
H443 H 0.13399 0.4704 0.18845 0.0
H444 H 0.97811 0.69644 0.97871 0.0
H445 H 0.93312 0.61437 1.06752 0.0
H446 H 0.87208 0.62979 1.06473 0.0
H447 H 0.91692 0.7116 0.97526 0.0
C448 C 0.24308 0.27027 0.46614 0.0
C449 C 0.26985 0.25802 0.4415 0.0
C450 C 0.20902 0.24714 0.47758 0.0
C451 C 0.20101 0.21089 0.46547 0.0
H452 H 0.24776 0.29833 0.47508 0.0
H453 H 0.18841 0.25787 0.49495 0.0
S454 S 0.26129 0.16459 0.40258 0.0
N455 N 0.28554 0.2065 0.40618 0.0
N456 N 0.22233 0.16311 0.42943 0.0
C457 C 0.22807 0.19771 0.44293 0.0
C458 C 0.26238 0.22122 0.43063 0.0
C459 C 0.2415 0.89158 0.95286 0.0
C460 C 0.25406 0.87377 0.91961 0.0
C461 C 0.26678 0.91433 0.97743 0.0
C462 C 0.30548 0.92022 0.96944 0.0
H463 H 0.2119 0.88864 0.95927 0.0
H464 H 0.25593 0.92823 1.0022 0.0
S465 S 0.3525 0.88023 0.8856 0.0
N466 N 0.30764 0.86333 0.88002 0.0
N467 N 0.3551 0.90628 0.92597 0.0
C468 C 0.31841 0.90172 0.93697 0.0
C469 C 0.29269 0.87847 0.91209 0.0
C470 C 0.56055 0.47894 0.7383 0.0
C471 C 0.59507 0.46889 0.7334 0.0
C472 C 0.54609 0.49615 0.70707 0.0
C473 C 0.56515 0.50335 0.66929 0.0
H474 H 0.54479 0.47389 0.76675 0.0
H475 H 0.5195 0.50346 0.71242 0.0
S476 S 0.65663 0.4826 0.64087 0.0
N477 N 0.648 0.46766 0.68776 0.0
N478 N 0.62071 0.49945 0.62907 0.0
C479 C 0.59959 0.49327 0.66391 0.0
C480 C 0.61458 0.47627 0.69593 0.0
C481 C 0.94223 0.57872 0.24176 0.0
C482 C 0.94063 0.61503 0.23591 0.0
C483 C 0.95798 0.55935 0.21204 0.0
C484 C 0.97269 0.5752 0.17484 0.0
H485 H 0.93162 0.56517 0.26986 0.0
H486 H 0.95857 0.53157 0.21839 0.0
S487 S 0.97459 0.6692 0.14376 0.0
N488 N 0.95446 0.6658 0.18938 0.0
N489 N 0.98435 0.62954 0.1341 0.0
C490 C 0.97115 0.61139 0.16854 0.0
C491 C 0.95515 0.63123 0.19886 0.0
C492 C 0.49617 0.19674 0.19013 0.0
C493 C 0.45878 0.19968 0.19019 0.0
C494 C 0.50718 0.16665 0.1729 0.0
C495 C 0.48107 0.13825 0.15561 0.0
H496 H 0.51715 0.21823 0.20261 0.0
H497 H 0.53647 0.16605 0.17251 0.0
S498 S 0.37888 0.13188 0.15239 0.0
N499 N 0.3953 0.17101 0.1743 0.0
N500 N 0.41541 0.11434 0.14245 0.0
C501 C 0.44326 0.14043 0.1571 0.0
C502 C 0.43228 0.17118 0.17421 0.0
C503 C 0.0966 0.96618 0.65141 0.0
C504 C 0.0917 0.93172 0.6336 0.0
C505 C 0.08769 0.99513 0.63093 0.0
C506 C 0.07425 0.99079 0.59169 0.0
H507 H 0.10809 0.97104 0.68111 0.0
H508 H 0.09204 1.02124 0.64559 0.0
S509 S 0.05217 0.9055 0.53337 0.0
N510 N 0.06898 0.89435 0.57585 0.0
N511 N 0.05371 0.94915 0.53681 0.0
C512 C 0.06843 0.95646 0.57379 0.0
C513 C 0.07683 0.92683 0.59489 0.0
C514 C 0.84683 0.50973 1.00317 0.0
C515 C 0.83543 0.47268 0.9945 0.0
C516 C 0.88153 0.52405 1.0202 0.0
C517 C 0.90636 0.50192 1.02914 0.0
H518 H 0.82862 0.52776 0.99713 0.0
H519 H 0.88888 0.55274 1.02634 0.0
S520 S 0.89079 0.40339 1.00887 0.0
N521 N 0.85257 0.41454 0.99393 0.0
N522 N 0.91725 0.44098 1.02591 0.0
C523 C 0.89532 0.46483 1.02003 0.0
C524 C 0.86009 0.45037 1.00274 0.0
C525 C 0.65922 0.6092 0.48469 0.0
C526 C 0.69252 0.61865 0.50582 0.0
C527 C 0.62444 0.59831 0.50531 0.0
C528 C 0.62166 0.59651 0.54784 0.0
H529 H 0.65987 0.61177 0.45208 0.0
H530 H 0.5995 0.59276 0.48786 0.0
S531 S 0.70075 0.61253 0.61687 0.0
N532 N 0.72064 0.62112 0.5714 0.0
N533 N 0.65545 0.60107 0.60999 0.0
C534 C 0.65483 0.6038 0.56912 0.0
C535 C 0.69018 0.61477 0.54818 0.0
C536 C 0.23647 0.41441 0.14468 0.0
C537 C 0.2418 0.40816 0.18564 0.0
C538 C 0.20256 0.42086 0.132 0.0
C539 C 0.17277 0.42122 0.15981 0.0
H540 H 0.25872 0.41446 0.12232 0.0
H541 H 0.1997 0.42581 0.1002 0.0
S542 S 0.1714 0.40351 0.26988 0.0
N543 N 0.21362 0.40077 0.25362 0.0
N544 N 0.15015 0.41318 0.2297 0.0
C545 C 0.17762 0.41476 0.20074 0.0
C546 C 0.21204 0.40813 0.21366 0.0
C547 C 0.55015 0.18735 0.96194 0.0
C548 C 0.58307 0.20897 0.97702 0.0
C549 C 0.53489 0.15262 0.97746 0.0
C550 C 0.55149 0.13816 1.00922 0.0
H551 H 0.53547 0.19759 0.93852 0.0
H552 H 0.50923 0.13742 0.96523 0.0
S553 S 0.63997 0.18132 1.05646 0.0
N554 N 0.63371 0.21119 1.02297 0.0
N555 N 0.60371 0.14703 1.05348 0.0
C556 C 0.58463 0.15899 1.02409 0.0
C557 C 0.60071 0.19402 1.0077 0.0
C558 C 0.91811 0.89641 0.50472 0.0
C559 C 0.93686 0.88518 0.47062 0.0
C560 C 0.93024 0.93067 0.52214 0.0
C561 C 0.96102 0.95577 0.50564 0.0
H562 H 0.89385 0.87848 0.5184 0.0
H563 H 0.9154 0.93751 0.54889 0.0
S564 S 0.02116 0.9402 0.41796 0.0
N565 N 0.9893 0.90217 0.4224 0.0
N566 N 1.01061 0.96703 0.45384 0.0
C567 C 0.97966 0.94544 0.4712 0.0
C568 C 0.96793 0.91016 0.454 0.0
C569 C 0.28476 0.66506 0.66145 0.0
C570 C 0.28294 0.70075 0.65246 0.0
C571 C 0.31808 0.65337 0.65584 0.0
C572 C 0.35069 0.67689 0.64078 0.0
H573 H 0.26066 0.64652 0.67467 0.0
H574 H 0.31871 0.62613 0.6647 0.0
S575 S 0.3604 0.77228 0.6105 0.0
N576 N 0.31639 0.75903 0.6261 0.0
N577 N 0.37886 0.73673 0.61499 0.0
C578 C 0.34879 0.71193 0.6294 0.0
C579 C 0.31491 0.72394 0.63533 0.0
C580 C 0.80378 0.82807 0.73469 0.0
C581 C 0.76873 0.82932 0.71978 0.0
C582 C 0.83636 0.85143 0.71996 0.0
C583 C 0.83509 0.87694 0.68984 0.0
H584 H 0.80585 0.81084 0.76005 0.0
H585 H 0.86229 0.85123 0.73434 0.0
S586 S 0.75156 0.88613 0.6351 0.0
N587 N 0.73548 0.85437 0.66913 0.0
N588 N 0.79694 0.89843 0.64131 0.0
C589 C 0.80077 0.87633 0.6722 0.0
C590 C 0.76754 0.85249 0.68722 0.0
C591 C 0.79527 0.21873 0.19628 0.0
C592 C 0.78642 0.23647 0.23141 0.0
C593 C 0.76742 0.19507 0.17551 0.0
C594 C 0.72989 0.188 0.18952 0.0
H595 H 0.82397 0.22265 0.18529 0.0
H596 H 0.77544 0.18162 0.14876 0.0
S597 S 0.6929 0.22665 0.28139 0.0
N598 N 0.73791 0.24526 0.27969 0.0
N599 N 0.68573 0.2002 0.24138 0.0
C600 C 0.72074 0.20604 0.22439 0.0
C601 C 0.74899 0.23037 0.24519 0.0
C602 C 0.46242 0.65346 0.43975 0.0
C603 C 0.43218 0.63441 0.41755 0.0
C604 C 0.47803 0.63677 0.47053 0.0
C605 C 0.46482 0.60003 0.47986 0.0
H606 H 0.47473 0.68147 0.43294 0.0
H607 H 0.50131 0.65255 0.48648 0.0
S608 S 0.38447 0.53826 0.43458 0.0
N609 N 0.38763 0.57689 0.41069 0.0
N610 N 0.41881 0.5454 0.46645 0.0
C611 C 0.43461 0.5806 0.45852 0.0
C612 C 0.4179 0.59776 0.42793 0.0
C613 C 0.11999 0.51274 0.9315 0.0
C614 C 0.09891 0.48004 0.9162 0.0
C615 C 0.10504 0.53292 0.961 0.0
C616 C 0.06852 0.52115 0.97713 0.0
H617 H 0.14842 0.52301 0.92055 0.0
H618 H 0.1223 0.55808 0.9712 0.0
S619 S 1.00097 0.43797 0.94778 0.0
N620 N 0.03872 0.4375 0.91942 0.0
N621 N 1.01148 0.47463 0.97586 0.0
C622 C 0.04728 0.48823 0.96295 0.0
C623 C 0.06224 0.46791 0.93237 0.0
C624 C 0.59688 0.93876 0.99701 0.0
C625 C 0.57256 0.91173 0.97592 0.0
C626 C 0.58489 0.96846 1.01345 0.0
C627 C 0.54791 0.97221 1.00986 0.0
H628 H 0.62552 0.93695 1.00082 0.0
H629 H 0.60474 0.9882 1.02987 0.0
S630 S 0.47331 0.90875 0.95675 0.0
N631 N 0.51005 0.89061 0.95155 0.0
N632 N 0.48717 0.94632 0.98266 0.0
C633 C 0.52338 0.94554 0.98821 0.0
C634 C 0.53578 0.91537 0.97118 0.0
C635 C 0.93406 0.14112 0.49364 0.0
C636 C 0.94224 0.17566 0.51144 0.0
C637 C 0.93995 0.11079 0.51406 0.0
C638 C 0.95357 0.11383 0.55325 0.0
H639 H 0.9224 0.13737 0.46393 0.0
H640 H 0.9332 0.0847 0.49937 0.0
S641 S 0.98362 0.19844 0.61144 0.0
N642 N 0.96814 0.2114 0.56907 0.0
N643 N 0.97782 0.1542 0.60805 0.0
C644 C 0.9626 0.14818 0.57115 0.0
C645 C 0.95724 0.17914 0.5501 0.0
C646 C 0.16153 0.65278 0.15434 0.0
C647 C 0.18875 0.63306 0.16213 0.0
C648 C 0.12839 0.63686 0.13527 0.0
C649 C 0.12091 0.60043 0.12313 0.0
H650 H 0.16566 0.68076 0.16352 0.0
H651 H 0.10828 0.65321 0.13048 0.0
S652 S 0.18448 0.53762 0.13372 0.0
N653 N 0.20686 0.57563 0.15418 0.0
N654 N 0.14473 0.54553 0.1188 0.0
C655 C 0.14817 0.58048 0.13031 0.0
C656 C 0.18195 0.59678 0.14968 0.0
C657 C 0.35492 0.46562 0.60967 0.0
C658 C 0.35104 0.47383 0.65099 0.0
C659 C 0.38879 0.47748 0.58782 0.0
C660 C 0.42019 0.49847 0.60612 0.0
H661 H 0.3317 0.44924 0.59417 0.0
H662 H 0.39054 0.46965 0.5564 0.0
S663 S 0.42548 0.52707 0.71345 0.0
N664 N 0.38203 0.50428 0.70933 0.0
N665 N 0.44551 0.52664 0.66804 0.0
C666 C 0.41661 0.50774 0.64703 0.0
C667 C 0.38209 0.49547 0.66948 0.0
C668 C 0.81349 0.72314 1.00667 0.0
C669 C 0.78262 0.69586 0.99651 0.0
C670 C 0.84765 0.71495 1.01549 0.0
C671 C 0.85216 0.67916 1.01478 0.0
H672 H 0.81184 0.75123 1.00579 0.0
H673 H 0.87101 0.73691 1.02189 0.0
S674 S 0.77912 0.59758 0.99318 0.0
N675 N 0.75799 0.6314 0.98906 0.0
N676 N 0.82236 0.61601 1.00505 0.0
C677 C 0.82104 0.65146 1.00655 0.0
C678 C 0.78627 0.65981 0.99749 0.0
C679 C 0.44335 0.90924 0.14709 0.0
C680 C 0.44033 0.90291 0.18915 0.0
C681 C 0.46023 0.94335 0.13098 0.0
C682 C 0.47483 0.97267 0.15623 0.0
H683 H 0.43322 0.88743 0.12631 0.0
H684 H 0.46242 0.94654 0.09842 0.0
S685 S 0.47107 0.97145 0.26848 0.0
N686 N 0.45123 0.92973 0.2557 0.0
N687 N 0.48319 0.99356 0.22557 0.0
C688 C 0.47114 0.96701 0.19833 0.0
C689 C 0.45396 0.93226 0.21473 0.0
C690 C 0.07908 0.1822 0.70051 0.0
C691 C 0.09752 0.21306 0.67864 0.0
C692 C 0.06414 0.14945 0.68076 0.0
C693 C 0.06673 0.1463 0.63828 0.0
H694 H 0.0767 0.18323 0.7332 0.0
H695 H 0.05026 0.12651 0.69898 0.0
S696 S 0.11048 0.22027 0.56701 0.0
N697 N 0.1161 0.2389 0.61218 0.0
N698 N 0.08848 0.17802 0.57511 0.0
C699 C 0.08468 0.17735 0.61614 0.0
C700 C 0.09991 0.21047 0.63626 0.0
C701 C 0.76413 0.45332 0.47537 0.0
C702 C 0.76489 0.41732 0.48423 0.0
C703 C 0.73125 0.46593 0.48064 0.0
C704 C 0.698 0.44303 0.49512 0.0
H705 H 0.78885 0.47154 0.46296 0.0
H706 H 0.7316 0.49355 0.4724 0.0
S707 S 0.68509 0.34665 0.52316 0.0
N708 N 0.72946 0.35911 0.50869 0.0
N709 N 0.66787 0.38299 0.51899 0.0
C710 C 0.69868 0.40743 0.50562 0.0
C711 C 0.73209 0.39454 0.50012 0.0
loop_
_geom_bond_atom_site_label_1
_geom_bond_atom_site_label_2
_geom_bond_distance
_geom_bond_site_symmetry_2
_ccdc_geom_bond_type
C0 C1 1.384 . S
C0 H13 0.947 . S
C0 C35 1.382 . S
C1 C0 1.384 . S
C1 C2 1.378 . S
C2 C1 1.378 . S
C2 C3 1.378 . S
C2 H14 0.952 . S
C3 C2 1.378 . S
C3 H15 0.950 . S
C3 C34 1.383 . S
H4 C23 0.947 . S
H5 C24 0.946 . S
H6 C26 0.953 . S
H7 C27 0.945 . S
H8 C29 0.952 . S
H9 C30 0.949 . S
H10 C32 0.950 . S
H11 C33 0.948 . S
H12 C35 0.951 . S
H13 C0 0.947 . S
H14 C2 0.952 . S
H15 C3 0.950 . S
N16 C19 1.382 . S
N16 C21 1.363 . S
N17 C19 1.371 . S
N17 C20 1.372 . S
N18 C20 1.361 . S
N18 C21 1.377 . S
C19 N16 1.382 . S
C19 N17 1.371 . S
C19 C22 1.480 . S
C20 N17 1.372 . S
C20 N18 1.361 . S
C20 C28 1.457 . S
C21 N16 1.363 . S
C21 N18 1.377 . S
C21 C34 1.479 . S
C22 C19 1.480 . S
C22 C23 1.383 . S
C22 C27 1.385 . S
C23 H4 0.947 . S
C23 C22 1.383 . S
C23 C24 1.388 . S
C24 H5 0.946 . S
C24 C23 1.388 . S
C24 C25 1.384 . S
C25 C24 1.384 . S
C25 C26 1.377 . S
C26 H6 0.953 . S
C26 C25 1.377 . S
C26 C27 1.369 . S
C27 H7 0.945 . S
C27 C22 1.385 . S
C27 C26 1.369 . S
C28 C20 1.457 . S
C28 C29 1.372 . S
C28 C33 1.364 . S
C29 H8 0.952 . S
C29 C28 1.372 . S
C29 C30 1.389 . S
C30 H9 0.949 . S
C30 C29 1.389 . S
C30 C31 1.387 . S
C31 C30 1.387 . S
C31 C32 1.372 . S
C32 H10 0.950 . S
C32 C31 1.372 . S
C32 C33 1.379 . S
C33 H11 0.948 . S
C33 C28 1.364 . S
C33 C32 1.379 . S
C34 C3 1.383 . S
C34 C21 1.479 . S
C34 C35 1.398 . S
C35 C0 1.382 . S
C35 H12 0.951 . S
C35 C34 1.398 . S
C36 C37 1.384 . S
C36 H49 0.947 . S
C36 C71 1.382 . S
C37 C36 1.384 . S
C37 C38 1.378 . S
C38 C37 1.378 . S
C38 C39 1.378 . S
C38 H50 0.952 . S
C39 C38 1.378 . S
C39 H51 0.950 . S
C39 C70 1.383 . S
H40 C59 0.947 . S
H41 C60 0.946 . S
H42 C62 0.953 . S
H43 C63 0.945 . S
H44 C65 0.952 . S
H45 C66 0.949 . S
H46 C68 0.950 . S
H47 C69 0.948 . S
H48 C71 0.951 . S
H49 C36 0.947 . S
H50 C38 0.952 . S
H51 C39 0.950 . S
N52 C55 1.382 . S
N52 C57 1.363 . S
N53 C55 1.371 . S
N53 C56 1.372 . S
N54 C56 1.361 . S
N54 C57 1.377 . S
C55 N52 1.382 . S
C55 N53 1.371 . S
C55 C58 1.480 . S
C56 N53 1.372 . S
C56 N54 1.361 . S
C56 C64 1.457 . S
C57 N52 1.363 . S
C57 N54 1.377 . S
C57 C70 1.479 . S
C58 C55 1.480 . S
C58 C59 1.383 . S
C58 C63 1.385 . S
C59 H40 0.947 . S
C59 C58 1.383 . S
C59 C60 1.388 . S
C60 H41 0.946 . S
C60 C59 1.388 . S
C60 C61 1.384 . S
C61 C60 1.384 . S
C61 C62 1.377 . S
C62 H42 0.953 . S
C62 C61 1.377 . S
C62 C63 1.369 . S
C63 H43 0.945 . S
C63 C58 1.385 . S
C63 C62 1.369 . S
C64 C56 1.457 . S
C64 C65 1.372 . S
C64 C69 1.364 . S
C65 H44 0.952 . S
C65 C64 1.372 . S
C65 C66 1.389 . S
C66 H45 0.949 . S
C66 C65 1.389 . S
C66 C67 1.387 . S
C67 C66 1.387 . S
C67 C68 1.372 . S
C68 H46 0.950 . S
C68 C67 1.372 . S
C68 C69 1.379 . S
C69 H47 0.948 . S
C69 C64 1.364 . S
C69 C68 1.379 . S
C70 C39 1.383 . S
C70 C57 1.479 . S
C70 C71 1.398 . S
C71 C36 1.382 . S
C71 H48 0.951 . S
C71 C70 1.398 . S
C72 C73 1.384 . S
C72 H85 0.947 . S
C72 C107 1.382 . S
C73 C72 1.384 . S
C73 C74 1.378 . S
C74 C73 1.378 . S
C74 C75 1.378 . S
C74 H86 0.952 . S
C75 C74 1.378 . S
C75 H87 0.950 . S
C75 C106 1.383 . S
H76 C95 0.947 . S
H77 C96 0.946 . S
H78 C98 0.953 . S
H79 C99 0.945 . S
H80 C101 0.952 . S
H81 C102 0.949 . S
H82 C104 0.950 . S
H83 C105 0.948 . S
H84 C107 0.951 . S
H85 C72 0.947 . S
H86 C74 0.952 . S
H87 C75 0.950 . S
N88 C91 1.382 . S
N88 C93 1.363 . S
N89 C91 1.371 . S
N89 C92 1.372 . S
N90 C92 1.361 . S
N90 C93 1.377 . S
C91 N88 1.382 . S
C91 N89 1.371 . S
C91 C94 1.480 . S
C92 N89 1.372 . S
C92 N90 1.361 . S
C92 C100 1.457 . S
C93 N88 1.363 . S
C93 N90 1.377 . S
C93 C106 1.479 . S
C94 C91 1.480 . S
C94 C95 1.383 . S
C94 C99 1.385 . S
C95 H76 0.947 . S
C95 C94 1.383 . S
C95 C96 1.388 . S
C96 H77 0.946 . S
C96 C95 1.388 . S
C96 C97 1.384 . S
C97 C96 1.384 . S
C97 C98 1.377 . S
C98 H78 0.953 . S
C98 C97 1.377 . S
C98 C99 1.369 . S
C99 H79 0.945 . S
C99 C94 1.385 . S
C99 C98 1.369 . S
C100 C92 1.457 . S
C100 C101 1.372 . S
C100 C105 1.364 . S
C101 H80 0.952 . S
C101 C100 1.372 . S
C101 C102 1.389 . S
C102 H81 0.949 . S
C102 C101 1.389 . S
C102 C103 1.387 . S
C103 C102 1.387 . S
C103 C104 1.372 . S
C104 H82 0.950 . S
C104 C103 1.372 . S
C104 C105 1.379 . S
C105 H83 0.948 . S
C105 C100 1.364 . S
C105 C104 1.379 . S
C106 C75 1.383 . S
C106 C93 1.479 . S
C106 C107 1.398 . S
C107 C72 1.382 . S
C107 H84 0.951 . S
C107 C106 1.398 . S
C108 C109 1.384 . S
C108 H121 0.947 . S
C108 C143 1.382 . S
C109 C108 1.384 . S
C109 C110 1.378 . S
C110 C109 1.378 . S
C110 C111 1.378 . S
C110 H122 0.952 . S
C111 C110 1.378 . S
C111 H123 0.950 . S
C111 C142 1.383 . S
H112 C131 0.947 . S
H113 C132 0.946 . S
H114 C134 0.953 . S
H115 C135 0.945 . S
H116 C137 0.952 . S
H117 C138 0.949 . S
H118 C140 0.950 . S
H119 C141 0.948 . S
H120 C143 0.951 . S
H121 C108 0.947 . S
H122 C110 0.952 . S
H123 C111 0.950 . S
N124 C127 1.382 . S
N124 C129 1.363 . S
N125 C127 1.371 . S
N125 C128 1.372 . S
N126 C128 1.361 . S
N126 C129 1.377 . S
C127 N124 1.382 . S
C127 N125 1.371 . S
C127 C130 1.480 . S
C128 N125 1.372 . S
C128 N126 1.361 . S
C128 C136 1.457 . S
C129 N124 1.363 . S
C129 N126 1.377 . S
C129 C142 1.479 . S
C130 C127 1.480 . S
C130 C131 1.383 . S
C130 C135 1.385 . S
C131 H112 0.947 . S
C131 C130 1.383 . S
C131 C132 1.388 . S
C132 H113 0.946 . S
C132 C131 1.388 . S
C132 C133 1.384 . S
C133 C132 1.384 . S
C133 C134 1.377 . S
C134 H114 0.953 . S
C134 C133 1.377 . S
C134 C135 1.369 . S
C135 H115 0.945 . S
C135 C130 1.385 . S
C135 C134 1.369 . S
C136 C128 1.457 . S
C136 C137 1.372 . S
C136 C141 1.364 . S
C137 H116 0.952 . S
C137 C136 1.372 . S
C137 C138 1.389 . S
C138 H117 0.949 . S
C138 C137 1.389 . S
C138 C139 1.387 . S
C139 C138 1.387 . S
C139 C140 1.372 . S
C140 H118 0.950 . S
C140 C139 1.372 . S
C140 C141 1.379 . S
C141 H119 0.948 . S
C141 C136 1.364 . S
C141 C140 1.379 . S
C142 C111 1.383 . S
C142 C129 1.479 . S
C142 C143 1.398 . S
C143 C108 1.382 . S
C143 H120 0.951 . S
C143 C142 1.398 . S
C144 C145 1.384 . S
C144 H157 0.947 . S
C144 C179 1.382 . S
C145 C144 1.384 . S
C145 C146 1.378 . S
C146 C145 1.378 . S
C146 C147 1.378 . S
C146 H158 0.952 . S
C147 C146 1.378 . S
C147 H159 0.950 . S
C147 C178 1.383 . S
H148 C167 0.947 . S
H149 C168 0.946 . S
H150 C170 0.953 . S
H151 C171 0.945 . S
H152 C173 0.952 . S
H153 C174 0.949 . S
H154 C176 0.950 . S
H155 C177 0.948 . S
H156 C179 0.951 . S
H157 C144 0.947 . S
H158 C146 0.952 . S
H159 C147 0.950 . S
N160 C163 1.382 . S
N160 C165 1.363 . S
N161 C163 1.371 . S
N161 C164 1.372 . S
N162 C164 1.361 . S
N162 C165 1.377 . S
C163 N160 1.382 . S
C163 N161 1.371 . S
C163 C166 1.480 . S
C164 N161 1.372 . S
C164 N162 1.361 . S
C164 C172 1.457 . S
C165 N160 1.363 . S
C165 N162 1.377 . S
C165 C178 1.479 . S
C166 C163 1.480 . S
C166 C167 1.383 . S
C166 C171 1.385 . S
C167 H148 0.947 . S
C167 C166 1.383 . S
C167 C168 1.388 . S
C168 H149 0.946 . S
C168 C167 1.388 . S
C168 C169 1.384 . S
C169 C168 1.384 . S
C169 C170 1.377 . S
C170 H150 0.953 . S
C170 C169 1.377 . S
C170 C171 1.369 . S
C171 H151 0.945 . S
C171 C166 1.385 . S
C171 C170 1.369 . S
C172 C164 1.457 . S
C172 C173 1.372 . S
C172 C177 1.364 . S
C173 H152 0.952 . S
C173 C172 1.372 . S
C173 C174 1.389 . S
C174 H153 0.949 . S
C174 C173 1.389 . S
C174 C175 1.387 . S
C175 C174 1.387 . S
C175 C176 1.372 . S
C176 H154 0.950 . S
C176 C175 1.372 . S
C176 C177 1.379 . S
C177 H155 0.948 . S
C177 C172 1.364 . S
C177 C176 1.379 . S
C178 C147 1.383 . S
C178 C165 1.479 . S
C178 C179 1.398 . S
C179 C144 1.382 . S
C179 H156 0.951 . S
C179 C178 1.398 . S
C180 C181 1.384 . S
C180 H193 0.947 . S
C180 C215 1.382 . S
C181 C180 1.384 . S
C181 C182 1.378 . S
C182 C181 1.378 . S
C182 C183 1.378 . S
C182 H194 0.952 . S
C183 C182 1.378 . S
C183 H195 0.950 . S
C183 C214 1.383 . S
H184 C203 0.947 . S
H185 C204 0.946 . S
H186 C206 0.953 . S
H187 C207 0.945 . S
H188 C209 0.952 . S
H189 C210 0.949 . S
H190 C212 0.950 . S
H191 C213 0.948 . S
H192 C215 0.951 . S
H193 C180 0.947 . S
H194 C182 0.952 . S
H195 C183 0.950 . S
N196 C199 1.382 . S
N196 C201 1.363 . S
N197 C199 1.371 . S
N197 C200 1.372 . S
N198 C200 1.361 . S
N198 C201 1.377 . S
C199 N196 1.382 . S
C199 N197 1.371 . S
C199 C202 1.480 . S
C200 N197 1.372 . S
C200 N198 1.361 . S
C200 C208 1.457 . S
C201 N196 1.363 . S
C201 N198 1.377 . S
C201 C214 1.479 . S
C202 C199 1.480 . S
C202 C203 1.383 . S
C202 C207 1.385 . S
C203 H184 0.947 . S
C203 C202 1.383 . S
C203 C204 1.388 . S
C204 H185 0.946 . S
C204 C203 1.388 . S
C204 C205 1.384 . S
C205 C204 1.384 . S
C205 C206 1.377 . S
C206 H186 0.953 . S
C206 C205 1.377 . S
C206 C207 1.369 . S
C207 H187 0.945 . S
C207 C202 1.385 . S
C207 C206 1.369 . S
C208 C200 1.457 . S
C208 C209 1.372 . S
C208 C213 1.364 . S
C209 H188 0.952 . S
C209 C208 1.372 . S
C209 C210 1.389 . S
C210 H189 0.949 . S
C210 C209 1.389 . S
C210 C211 1.387 . S
C211 C210 1.387 . S
C211 C212 1.372 . S
C212 H190 0.950 . S
C212 C211 1.372 . S
C212 C213 1.379 . S
C213 H191 0.948 . S
C213 C208 1.364 . S
C213 C212 1.379 . S
C214 C183 1.383 . S
C214 C201 1.479 . S
C214 C215 1.398 . S
C215 C180 1.382 . S
C215 H192 0.951 . S
C215 C214 1.398 . S
C216 C217 1.384 . S
C216 H229 0.947 . S
C216 C251 1.382 . S
C217 C216 1.384 . S
C217 C218 1.378 . S
C218 C217 1.378 . S
C218 C219 1.378 . S
C218 H230 0.952 . S
C219 C218 1.378 . S
C219 H231 0.950 . S
C219 C250 1.383 . S
H220 C239 0.947 . S
H221 C240 0.946 . S
H222 C242 0.953 . S
H223 C243 0.945 . S
H224 C245 0.952 . S
H225 C246 0.949 . S
H226 C248 0.950 . S
H227 C249 0.948 . S
H228 C251 0.951 . S
H229 C216 0.947 . S
H230 C218 0.952 . S
H231 C219 0.950 . S
N232 C235 1.382 . S
N232 C237 1.363 . S
N233 C235 1.371 . S
N233 C236 1.372 . S
N234 C236 1.361 . S
N234 C237 1.377 . S
C235 N232 1.382 . S
C235 N233 1.371 . S
C235 C238 1.480 . S
C236 N233 1.372 . S
C236 N234 1.361 . S
C236 C244 1.457 . S
C237 N232 1.363 . S
C237 N234 1.377 . S
C237 C250 1.479 . S
C238 C235 1.480 . S
C238 C239 1.383 . S
C238 C243 1.385 . S
C239 H220 0.947 . S
C239 C238 1.383 . S
C239 C240 1.388 . S
C240 H221 0.946 . S
C240 C239 1.388 . S
C240 C241 1.384 . S
C241 C240 1.384 . S
C241 C242 1.377 . S
C242 H222 0.953 . S
C242 C241 1.377 . S
C242 C243 1.369 . S
C243 H223 0.945 . S
C243 C238 1.385 . S
C243 C242 1.369 . S
C244 C236 1.457 . S
C244 C245 1.372 . S
C244 C249 1.364 . S
C245 H224 0.952 . S
C245 C244 1.372 . S
C245 C246 1.389 . S
C246 H225 0.949 . S
C246 C245 1.389 . S
C246 C247 1.387 . S
C247 C246 1.387 . S
C247 C248 1.372 . S
C248 H226 0.950 . S
C248 C247 1.372 . S
C248 C249 1.379 . S
C249 H227 0.948 . S
C249 C244 1.364 . S
C249 C248 1.379 . S
C250 C219 1.383 . S
C250 C237 1.479 . S
C250 C251 1.398 . S
C251 C216 1.382 . S
C251 H228 0.951 . S
C251 C250 1.398 . S
C252 C253 1.384 . S
C252 H265 0.947 . S
C252 C287 1.382 . S
C253 C252 1.384 . S
C253 C254 1.378 . S
C254 C253 1.378 . S
C254 C255 1.378 . S
C254 H266 0.952 . S
C255 C254 1.378 . S
C255 H267 0.950 . S
C255 C286 1.383 . S
H256 C275 0.947 . S
H257 C276 0.946 . S
H258 C278 0.953 . S
H259 C279 0.945 . S
H260 C281 0.952 . S
H261 C282 0.949 . S
H262 C284 0.950 . S
H263 C285 0.948 . S
H264 C287 0.951 . S
H265 C252 0.947 . S
H266 C254 0.952 . S
H267 C255 0.950 . S
N268 C271 1.382 . S
N268 C273 1.363 . S
N269 C271 1.371 . S
N269 C272 1.372 . S
N270 C272 1.361 . S
N270 C273 1.377 . S
C271 N268 1.382 . S
C271 N269 1.371 . S
C271 C274 1.480 . S
C272 N269 1.372 . S
C272 N270 1.361 . S
C272 C280 1.457 . S
C273 N268 1.363 . S
C273 N270 1.377 . S
C273 C286 1.479 . S
C274 C271 1.480 . S
C274 C275 1.383 . S
C274 C279 1.385 . S
C275 H256 0.947 . S
C275 C274 1.383 . S
C275 C276 1.388 . S
C276 H257 0.946 . S
C276 C275 1.388 . S
C276 C277 1.384 . S
C277 C276 1.384 . S
C277 C278 1.377 . S
C278 H258 0.953 . S
C278 C277 1.377 . S
C278 C279 1.369 . S
C279 H259 0.945 . S
C279 C274 1.385 . S
C279 C278 1.369 . S
C280 C272 1.457 . S
C280 C281 1.372 . S
C280 C285 1.364 . S
C281 H260 0.952 . S
C281 C280 1.372 . S
C281 C282 1.389 . S
C282 H261 0.949 . S
C282 C281 1.389 . S
C282 C283 1.387 . S
C283 C282 1.387 . S
C283 C284 1.372 . S
C284 H262 0.950 . S
C284 C283 1.372 . S
C284 C285 1.379 . S
C285 H263 0.948 . S
C285 C280 1.364 . S
C285 C284 1.379 . S
C286 C255 1.383 . S
C286 C273 1.479 . S
C286 C287 1.398 . S
C287 C252 1.382 . S
C287 H264 0.951 . S
C287 C286 1.398 . S
Gd288 C291 2.818 . S
Gd288 O308 2.377 . S
Gd288 O310 2.448 . S
Gd288 O311 2.506 . S
Gd288 O312 2.435 1_545 S
Gd288 O313 2.717 1_545 S
Gd288 O315 2.395 1_445 S
Gd288 O319 2.327 1_455 S
Gd289 C300 2.818 . S
Gd289 O309 2.395 1_665 S
Gd289 O313 2.327 1_655 S
Gd289 O314 2.377 . S
Gd289 O316 2.448 . S
Gd289 O317 2.506 . S
Gd289 O318 2.435 1_565 S
Gd289 O319 2.717 1_565 S
C290 O308 1.240 . S
C290 O309 1.240 . S
C291 Gd288 2.818 . S
C291 C292 1.510 . S
C291 O310 1.249 . S
C291 O311 1.252 . S
C292 C291 1.510 . S
C292 C293 1.404 . S
C292 C294 1.352 . S
C293 C292 1.404 . S
C293 C297 1.389 . S
C293 H320 0.930 . S
C294 C292 1.352 . S
C294 C296 1.374 . S
C294 H321 0.931 . S
C295 C296 1.359 . S
C295 C297 1.364 . S
C296 C294 1.374 . S
C296 C295 1.359 . S
C296 H322 0.931 . S
C297 C293 1.389 . S
C297 C295 1.364 . S
C297 H323 0.931 . S
C298 O312 1.256 . S
C298 O313 1.257 . S
C299 O314 1.240 . S
C299 O315 1.240 . S
C300 Gd289 2.818 . S
C300 C301 1.510 . S
C300 O316 1.249 . S
C300 O317 1.252 . S
C301 C300 1.510 . S
C301 C302 1.404 . S
C301 C303 1.352 . S
C302 C301 1.404 . S
C302 C306 1.389 . S
C302 H324 0.930 . S
C303 C301 1.352 . S
C303 C305 1.374 . S
C303 H325 0.931 . S
C304 C305 1.359 . S
C304 C306 1.364 . S
C305 C303 1.374 . S
C305 C304 1.359 . S
C305 H326 0.931 . S
C306 C302 1.389 . S
C306 C304 1.364 . S
C306 H327 0.931 . S
C307 O318 1.256 . S
C307 O319 1.257 . S
O308 Gd288 2.377 . S
O308 C290 1.240 . S
O309 Gd289 2.395 1_445 S
O309 C290 1.240 . S
O310 Gd288 2.448 . S
O310 C291 1.249 . S
O311 Gd288 2.506 . S
O311 C291 1.252 . S
O312 Gd288 2.435 1_565 S
O312 C298 1.256 . S
O313 Gd288 2.717 1_565 S
O313 Gd289 2.327 1_455 S
O313 C298 1.257 . S
O314 Gd289 2.377 . S
O314 C299 1.240 . S
O315 Gd288 2.395 1_665 S
O315 C299 1.240 . S
O316 Gd289 2.448 . S
O316 C300 1.249 . S
O317 Gd289 2.506 . S
O317 C300 1.252 . S
O318 Gd289 2.435 1_545 S
O318 C307 1.256 . S
O319 Gd288 2.327 1_655 S
O319 Gd289 2.717 1_545 S
O319 C307 1.257 . S
H320 C293 0.930 . S
H321 C294 0.931 . S
H322 C296 0.931 . S
H323 C297 0.931 . S
H324 C302 0.930 . S
H325 C303 0.931 . S
H326 C305 0.931 . S
H327 C306 0.931 . S
Gd328 C331 2.818 1_565 S
Gd328 O348 2.377 1_565 S
Gd328 O350 2.448 1_565 S
Gd328 O351 2.506 1_565 S
Gd328 O352 2.435 . S
Gd328 O353 2.717 . S
Gd328 O355 2.395 1_554 S
Gd328 O359 2.327 1_564 S
Gd329 C340 2.818 1_545 S
Gd329 O349 2.395 1_556 S
Gd329 O353 2.327 1_546 S
Gd329 O354 2.377 1_545 S
Gd329 O356 2.448 1_545 S
Gd329 O357 2.506 1_545 S
Gd329 O358 2.435 . S
Gd329 O359 2.717 . S
C330 O348 1.240 . S
C330 O349 1.240 . S
C331 Gd328 2.818 1_545 S
C331 C332 1.510 . S
C331 O350 1.249 . S
C331 O351 1.252 . S
C332 C331 1.510 . S
C332 C333 1.404 . S
C332 C334 1.352 . S
C333 C332 1.404 . S
C333 C337 1.389 . S
C333 H360 0.930 . S
C334 C332 1.352 . S
C334 C336 1.374 . S
C334 H361 0.931 . S
C335 C336 1.359 . S
C335 C337 1.364 . S
C336 C334 1.374 . S
C336 C335 1.359 . S
C336 H362 0.931 . S
C337 C333 1.389 . S
C337 C335 1.364 . S
C337 H363 0.931 . S
C338 O352 1.256 . S
C338 O353 1.257 . S
C339 O354 1.240 . S
C339 O355 1.240 . S
C340 Gd329 2.818 1_565 S
C340 C341 1.510 . S
C340 O356 1.249 . S
C340 O357 1.252 . S
C341 C340 1.510 . S
C341 C342 1.404 . S
C341 C343 1.352 . S
C342 C341 1.404 . S
C342 C346 1.389 . S
C342 H364 0.930 . S
C343 C341 1.352 . S
C343 C345 1.374 . S
C343 H365 0.931 . S
C344 C345 1.359 . S
C344 C346 1.364 . S
C345 C343 1.374 . S
C345 C344 1.359 . S
C345 H366 0.931 . S
C346 C342 1.389 . S
C346 C344 1.364 . S
C346 H367 0.931 . S
C347 O358 1.256 . S
C347 O359 1.257 . S
O348 Gd328 2.377 1_545 S
O348 C330 1.240 . S
O349 Gd329 2.395 1_554 S
O349 C330 1.240 . S
O350 Gd328 2.448 1_545 S
O350 C331 1.249 . S
O351 Gd328 2.506 1_545 S
O351 C331 1.252 . S
O352 Gd328 2.435 . S
O352 C338 1.256 . S
O353 Gd328 2.717 . S
O353 Gd329 2.327 1_564 S
O353 C338 1.257 . S
O354 Gd329 2.377 1_565 S
O354 C339 1.240 . S
O355 Gd328 2.395 1_556 S
O355 C339 1.240 . S
O356 Gd329 2.448 1_565 S
O356 C340 1.249 . S
O357 Gd329 2.506 1_565 S
O357 C340 1.252 . S
O358 Gd329 2.435 . S
O358 C347 1.256 . S
O359 Gd328 2.327 1_546 S
O359 Gd329 2.717 . S
O359 C347 1.257 . S
H360 C333 0.930 . S
H361 C334 0.931 . S
H362 C336 0.931 . S
H363 C337 0.931 . S
H364 C342 0.930 . S
H365 C343 0.931 . S
H366 C345 0.931 . S
H367 C346 0.931 . S
Gd368 C371 2.818 . S
Gd368 O388 2.377 . S
Gd368 O390 2.448 . S
Gd368 O391 2.506 . S
Gd368 O392 2.435 . S
Gd368 O393 2.717 . S
Gd368 O395 2.395 . S
Gd368 O399 2.327 . S
Gd369 C380 2.818 . S
Gd369 O389 2.395 . S
Gd369 O393 2.327 . S
Gd369 O394 2.377 . S
Gd369 O396 2.448 . S
Gd369 O397 2.506 . S
Gd369 O398 2.435 . S
Gd369 O399 2.717 . S
C370 O388 1.240 . S
C370 O389 1.240 . S
C371 Gd368 2.818 . S
C371 C372 1.510 . S
C371 O390 1.249 . S
C371 O391 1.252 . S
C372 C371 1.510 . S
C372 C373 1.404 . S
C372 C374 1.352 . S
C373 C372 1.404 . S
C373 C377 1.389 . S
C373 H400 0.930 . S
C374 C372 1.352 . S
C374 C376 1.374 . S
C374 H401 0.931 . S
C375 C376 1.359 . S
C375 C377 1.364 . S
C376 C374 1.374 . S
C376 C375 1.359 . S
C376 H402 0.931 . S
C377 C373 1.389 . S
C377 C375 1.364 . S
C377 H403 0.931 . S
C378 O392 1.256 . S
C378 O393 1.257 . S
C379 O394 1.240 . S
C379 O395 1.240 . S
C380 Gd369 2.818 . S
C380 C381 1.510 . S
C380 O396 1.249 . S
C380 O397 1.252 . S
C381 C380 1.510 . S
C381 C382 1.404 . S
C381 C383 1.352 . S
C382 C381 1.404 . S
C382 C386 1.389 . S
C382 H404 0.930 . S
C383 C381 1.352 . S
C383 C385 1.374 . S
C383 H405 0.931 . S
C384 C385 1.359 . S
C384 C386 1.364 . S
C385 C383 1.374 . S
C385 C384 1.359 . S
C385 H406 0.931 . S
C386 C382 1.389 . S
C386 C384 1.364 . S
C386 H407 0.931 . S
C387 O398 1.256 . S
C387 O399 1.257 . S
O388 Gd368 2.377 . S
O388 C370 1.240 . S
O389 Gd369 2.395 . S
O389 C370 1.240 . S
O390 Gd368 2.448 . S
O390 C371 1.249 . S
O391 Gd368 2.506 . S
O391 C371 1.252 . S
O392 Gd368 2.435 . S
O392 C378 1.256 . S
O393 Gd368 2.717 . S
O393 Gd369 2.327 . S
O393 C378 1.257 . S
O394 Gd369 2.377 . S
O394 C379 1.240 . S
O395 Gd368 2.395 . S
O395 C379 1.240 . S
O396 Gd369 2.448 . S
O396 C380 1.249 . S
O397 Gd369 2.506 . S
O397 C380 1.252 . S
O398 Gd369 2.435 . S
O398 C387 1.256 . S
O399 Gd368 2.327 . S
O399 Gd369 2.717 . S
O399 C387 1.257 . S
H400 C373 0.930 . S
H401 C374 0.931 . S
H402 C376 0.931 . S
H403 C377 0.931 . S
H404 C382 0.930 . S
H405 C383 0.931 . S
H406 C385 0.931 . S
H407 C386 0.931 . S
Gd408 C411 2.818 . S
Gd408 O428 2.377 . S
Gd408 O430 2.448 . S
Gd408 O431 2.506 . S
Gd408 O432 2.435 1_455 S
Gd408 O433 2.717 1_455 S
Gd408 O435 2.398 1_455 S
Gd408 O439 2.327 1_554 S
Gd409 C420 2.817 . S
Gd409 O429 2.397 1_656 S
Gd409 O433 2.327 1_556 S
Gd409 O434 2.376 . S
Gd409 O436 2.447 . S
Gd409 O437 2.504 . S
Gd409 O438 2.436 1_655 S
Gd409 O439 2.718 1_655 S
C410 O428 1.240 . S
C410 O429 1.240 . S
C411 Gd408 2.818 . S
C411 C412 1.510 . S
C411 O430 1.249 . S
C411 O431 1.252 . S
C412 C411 1.510 . S
C412 C413 1.404 . S
C412 C414 1.352 . S
C413 C412 1.404 . S
C413 C417 1.389 . S
C413 H440 0.930 . S
C414 C412 1.352 . S
C414 C416 1.374 . S
C414 H441 0.931 . S
C415 C416 1.359 . S
C415 C417 1.364 . S
C416 C414 1.374 . S
C416 C415 1.359 . S
C416 H442 0.931 . S
C417 C413 1.389 . S
C417 C415 1.364 . S
C417 H443 0.931 . S
C418 O432 1.256 . S
C418 O433 1.257 . S
C419 O434 1.240 . S
C419 O435 1.237 1_556 S
C420 Gd409 2.817 . S
C420 C421 1.510 . S
C420 O436 1.249 . S
C420 O437 1.252 . S
C421 C420 1.510 . S
C421 C422 1.404 . S
C421 C423 1.352 . S
C422 C421 1.404 . S
C422 C426 1.389 . S
C422 H444 0.930 . S
C423 C421 1.352 . S
C423 C425 1.374 . S
C423 H445 0.931 . S
C424 C425 1.359 . S
C424 C426 1.364 . S
C425 C423 1.374 . S
C425 C424 1.359 . S
C425 H446 0.931 . S
C426 C422 1.389 . S
C426 C424 1.364 . S
C426 H447 0.931 . S
C427 O438 1.256 . S
C427 O439 1.257 . S
O428 Gd408 2.377 . S
O428 C410 1.240 . S
O429 Gd409 2.397 1_454 S
O429 C410 1.240 . S
O430 Gd408 2.448 . S
O430 C411 1.249 . S
O431 Gd408 2.506 . S
O431 C411 1.252 . S
O432 Gd408 2.435 1_655 S
O432 C418 1.256 . S
O433 Gd408 2.717 1_655 S
O433 Gd409 2.327 1_554 S
O433 C418 1.257 . S
O434 Gd409 2.376 . S
O434 C419 1.240 . S
O435 Gd408 2.398 1_655 S
O435 C419 1.237 1_554 S
O436 Gd409 2.447 . S
O436 C420 1.249 . S
O437 Gd409 2.504 . S
O437 C420 1.252 . S
O438 Gd409 2.436 1_455 S
O438 C427 1.256 . S
O439 Gd408 2.327 1_556 S
O439 Gd409 2.718 1_455 S
O439 C427 1.257 . S
H440 C413 0.930 . S
H441 C414 0.931 . S
H442 C416 0.931 . S
H443 C417 0.931 . S
H444 C422 0.930 . S
H445 C423 0.931 . S
H446 C425 0.931 . S
H447 C426 0.931 . S
C448 C449 1.369 . S
C448 C450 1.419 . S
C448 H452 0.930 . S
C449 C448 1.369 . S
C449 C458 1.429 . S
C450 C448 1.419 . S
C450 C451 1.363 . S
C450 H453 0.929 . S
C451 C450 1.363 . S
C451 C457 1.428 . S
H452 C448 0.930 . S
H453 C450 0.929 . S
S454 N455 1.613 . S
S454 N456 1.610 . S
N455 S454 1.613 . S
N455 C458 1.350 . S
N456 S454 1.610 . S
N456 C457 1.351 . S
C457 C451 1.428 . S
C457 N456 1.351 . S
C457 C458 1.434 . S
C458 C449 1.429 . S
C458 N455 1.350 . S
C458 C457 1.434 . S
C459 C460 1.369 . S
C459 C461 1.419 . S
C459 H463 0.930 . S
C460 C459 1.369 . S
C460 C469 1.429 . S
C461 C459 1.419 . S
C461 C462 1.363 . S
C461 H464 0.929 . S
C462 C461 1.363 . S
C462 C468 1.428 . S
H463 C459 0.930 . S
H464 C461 0.929 . S
S465 N466 1.613 . S
S465 N467 1.610 . S
N466 S465 1.613 . S
N466 C469 1.350 . S
N467 S465 1.610 . S
N467 C468 1.351 . S
C468 C462 1.428 . S
C468 N467 1.351 . S
C468 C469 1.434 . S
C469 C460 1.429 . S
C469 N466 1.350 . S
C469 C468 1.434 . S
C470 C471 1.369 . S
C470 C472 1.419 . S
C470 H474 0.930 . S
C471 C470 1.369 . S
C471 C480 1.429 . S
C472 C470 1.419 . S
C472 C473 1.363 . S
C472 H475 0.929 . S
C473 C472 1.363 . S
C473 C479 1.428 . S
H474 C470 0.930 . S
H475 C472 0.929 . S
S476 N477 1.613 . S
S476 N478 1.610 . S
N477 S476 1.613 . S
N477 C480 1.350 . S
N478 S476 1.610 . S
N478 C479 1.351 . S
C479 C473 1.428 . S
C479 N478 1.351 . S
C479 C480 1.434 . S
C480 C471 1.429 . S
C480 N477 1.350 . S
C480 C479 1.434 . S
C481 C482 1.369 . S
C481 C483 1.419 . S
C481 H485 0.930 . S
C482 C481 1.369 . S
C482 C491 1.429 . S
C483 C481 1.419 . S
C483 C484 1.363 . S
C483 H486 0.929 . S
C484 C483 1.363 . S
C484 C490 1.428 . S
H485 C481 0.930 . S
H486 C483 0.929 . S
S487 N488 1.613 . S
S487 N489 1.610 . S
N488 S487 1.613 . S
N488 C491 1.350 . S
N489 S487 1.610 . S
N489 C490 1.351 . S
C490 C484 1.428 . S
C490 N489 1.351 . S
C490 C491 1.434 . S
C491 C482 1.429 . S
C491 N488 1.350 . S
C491 C490 1.434 . S
C492 C493 1.369 . S
C492 C494 1.419 . S
C492 H496 0.930 . S
C493 C492 1.369 . S
C493 C502 1.429 . S
C494 C492 1.419 . S
C494 C495 1.363 . S
C494 H497 0.929 . S
C495 C494 1.363 . S
C495 C501 1.428 . S
H496 C492 0.930 . S
H497 C494 0.929 . S
S498 N499 1.613 . S
S498 N500 1.610 . S
N499 S498 1.613 . S
N499 C502 1.350 . S
N500 S498 1.610 . S
N500 C501 1.351 . S
C501 C495 1.428 . S
C501 N500 1.351 . S
C501 C502 1.434 . S
C502 C493 1.429 . S
C502 N499 1.350 . S
C502 C501 1.434 . S
C503 C504 1.369 . S
C503 C505 1.419 . S
C503 H507 0.930 . S
C504 C503 1.369 . S
C504 C513 1.429 . S
C505 C503 1.419 . S
C505 C506 1.363 . S
C505 H508 0.929 . S
C506 C505 1.363 . S
C506 C512 1.428 . S
H507 C503 0.930 . S
H508 C505 0.929 . S
S509 N510 1.613 . S
S509 N511 1.610 . S
N510 S509 1.613 . S
N510 C513 1.350 . S
N511 S509 1.610 . S
N511 C512 1.351 . S
C512 C506 1.428 . S
C512 N511 1.351 . S
C512 C513 1.434 . S
C513 C504 1.429 . S
C513 N510 1.350 . S
C513 C512 1.434 . S
C514 C515 1.369 . S
C514 C516 1.419 . S
C514 H518 0.930 . S
C515 C514 1.369 . S
C515 C524 1.429 . S
C516 C514 1.419 . S
C516 C517 1.363 . S
C516 H519 0.929 . S
C517 C516 1.363 . S
C517 C523 1.428 . S
H518 C514 0.930 . S
H519 C516 0.929 . S
S520 N521 1.613 . S
S520 N522 1.610 . S
N521 S520 1.613 . S
N521 C524 1.350 . S
N522 S520 1.610 . S
N522 C523 1.351 . S
C523 C517 1.428 . S
C523 N522 1.351 . S
C523 C524 1.434 . S
C524 C515 1.429 . S
C524 N521 1.350 . S
C524 C523 1.434 . S
C525 C526 1.369 . S
C525 C527 1.419 . S
C525 H529 0.930 . S
C526 C525 1.369 . S
C526 C535 1.429 . S
C527 C525 1.419 . S
C527 C528 1.363 . S
C527 H530 0.929 . S
C528 C527 1.363 . S
C528 C534 1.428 . S
H529 C525 0.930 . S
H530 C527 0.929 . S
S531 N532 1.613 . S
S531 N533 1.610 . S
N532 S531 1.613 . S
N532 C535 1.350 . S
N533 S531 1.610 . S
N533 C534 1.351 . S
C534 C528 1.428 . S
C534 N533 1.351 . S
C534 C535 1.434 . S
C535 C526 1.429 . S
C535 N532 1.350 . S
C535 C534 1.434 . S
C536 C537 1.369 . S
C536 C538 1.419 . S
C536 H540 0.930 . S
C537 C536 1.369 . S
C537 C546 1.429 . S
C538 C536 1.419 . S
C538 C539 1.363 . S
C538 H541 0.929 . S
C539 C538 1.363 . S
C539 C545 1.428 . S
H540 C536 0.930 . S
H541 C538 0.929 . S
S542 N543 1.613 . S
S542 N544 1.610 . S
N543 S542 1.613 . S
N543 C546 1.350 . S
N544 S542 1.610 . S
N544 C545 1.351 . S
C545 C539 1.428 . S
C545 N544 1.351 . S
C545 C546 1.434 . S
C546 C537 1.429 . S
C546 N543 1.350 . S
C546 C545 1.434 . S
C547 C548 1.369 . S
C547 C549 1.419 . S
C547 H551 0.930 . S
C548 C547 1.369 . S
C548 C557 1.429 . S
C549 C547 1.419 . S
C549 C550 1.363 . S
C549 H552 0.929 . S
C550 C549 1.363 . S
C550 C556 1.428 . S
H551 C547 0.930 . S
H552 C549 0.929 . S
S553 N554 1.613 . S
S553 N555 1.610 . S
N554 S553 1.613 . S
N554 C557 1.350 . S
N555 S553 1.610 . S
N555 C556 1.351 . S
C556 C550 1.428 . S
C556 N555 1.351 . S
C556 C557 1.434 . S
C557 C548 1.429 . S
C557 N554 1.350 . S
C557 C556 1.434 . S
C558 C559 1.369 . S
C558 C560 1.419 . S
C558 H562 0.930 . S
C559 C558 1.369 . S
C559 C568 1.429 . S
C560 C558 1.419 . S
C560 C561 1.363 . S
C560 H563 0.929 . S
C561 C560 1.363 . S
C561 C567 1.428 . S
H562 C558 0.930 . S
H563 C560 0.929 . S
S564 N565 1.613 1_455 S
S564 N566 1.610 1_455 S
N565 S564 1.613 1_655 S
N565 C568 1.350 . S
N566 S564 1.610 1_655 S
N566 C567 1.351 . S
C567 C561 1.428 . S
C567 N566 1.351 . S
C567 C568 1.434 . S
C568 C559 1.429 . S
C568 N565 1.350 . S
C568 C567 1.434 . S
C569 C570 1.369 . S
C569 C571 1.419 . S
C569 H573 0.930 . S
C570 C569 1.369 . S
C570 C579 1.429 . S
C571 C569 1.419 . S
C571 C572 1.363 . S
C571 H574 0.929 . S
C572 C571 1.363 . S
C572 C578 1.428 . S
H573 C569 0.930 . S
H574 C571 0.929 . S
S575 N576 1.613 . S
S575 N577 1.610 . S
N576 S575 1.613 . S
N576 C579 1.350 . S
N577 S575 1.610 . S
N577 C578 1.351 . S
C578 C572 1.428 . S
C578 N577 1.351 . S
C578 C579 1.434 . S
C579 C570 1.429 . S
C579 N576 1.350 . S
C579 C578 1.434 . S
C580 C581 1.369 . S
C580 C582 1.419 . S
C580 H584 0.930 . S
C581 C580 1.369 . S
C581 C590 1.429 . S
C582 C580 1.419 . S
C582 C583 1.363 . S
C582 H585 0.929 . S
C583 C582 1.363 . S
C583 C589 1.428 . S
H584 C580 0.930 . S
H585 C582 0.929 . S
S586 N587 1.613 . S
S586 N588 1.610 . S
N587 S586 1.613 . S
N587 C590 1.350 . S
N588 S586 1.610 . S
N588 C589 1.351 . S
C589 C583 1.428 . S
C589 N588 1.351 . S
C589 C590 1.434 . S
C590 C581 1.429 . S
C590 N587 1.350 . S
C590 C589 1.434 . S
C591 C592 1.369 . S
C591 C593 1.419 . S
C591 H595 0.930 . S
C592 C591 1.369 . S
C592 C601 1.429 . S
C593 C591 1.419 . S
C593 C594 1.363 . S
C593 H596 0.929 . S
C594 C593 1.363 . S
C594 C600 1.428 . S
H595 C591 0.930 . S
H596 C593 0.929 . S
S597 N598 1.613 . S
S597 N599 1.610 . S
N598 S597 1.613 . S
N598 C601 1.350 . S
N599 S597 1.610 . S
N599 C600 1.351 . S
C600 C594 1.428 . S
C600 N599 1.351 . S
C600 C601 1.434 . S
C601 C592 1.429 . S
C601 N598 1.350 . S
C601 C600 1.434 . S
C602 C603 1.369 . S
C602 C604 1.419 . S
C602 H606 0.930 . S
C603 C602 1.369 . S
C603 C612 1.429 . S
C604 C602 1.419 . S
C604 C605 1.363 . S
C604 H607 0.929 . S
C605 C604 1.363 . S
C605 C611 1.428 . S
H606 C602 0.930 . S
H607 C604 0.929 . S
S608 N609 1.613 . S
S608 N610 1.610 . S
N609 S608 1.613 . S
N609 C612 1.350 . S
N610 S608 1.610 . S
N610 C611 1.351 . S
C611 C605 1.428 . S
C611 N610 1.351 . S
C611 C612 1.434 . S
C612 C603 1.429 . S
C612 N609 1.350 . S
C612 C611 1.434 . S
C613 C614 1.369 . S
C613 C615 1.419 . S
C613 H617 0.930 . S
C614 C613 1.369 . S
C614 C623 1.429 . S
C615 C613 1.419 . S
C615 C616 1.363 . S
C615 H618 0.929 . S
C616 C615 1.363 . S
C616 C622 1.428 . S
H617 C613 0.930 . S
H618 C615 0.929 . S
S619 N620 1.613 1_655 S
S619 N621 1.602 1_655 S
N620 S619 1.613 1_455 S
N620 C623 1.350 . S
N621 S619 1.602 1_455 S
N621 C622 1.379 . S
C622 C616 1.428 . S
C622 N621 1.379 . S
C622 C623 1.434 . S
C623 C614 1.429 . S
C623 N620 1.350 . S
C623 C622 1.434 . S
C624 C625 1.369 . S
C624 C626 1.419 . S
C624 H628 0.930 . S
C625 C624 1.369 . S
C625 C634 1.429 . S
C626 C624 1.419 . S
C626 C627 1.363 . S
C626 H629 0.929 . S
C627 C626 1.363 . S
C627 C633 1.428 . S
H628 C624 0.930 . S
H629 C626 0.929 . S
S630 N631 1.613 . S
S630 N632 1.610 . S
N631 S630 1.613 . S
N631 C634 1.350 . S
N632 S630 1.610 . S
N632 C633 1.351 . S
C633 C627 1.428 . S
C633 N632 1.351 . S
C633 C634 1.434 . S
C634 C625 1.429 . S
C634 N631 1.350 . S
C634 C633 1.434 . S
C635 C636 1.369 . S
C635 C637 1.419 . S
C635 H639 0.930 . S
C636 C635 1.369 . S
C636 C645 1.429 . S
C637 C635 1.419 . S
C637 C638 1.363 . S
C637 H640 0.929 . S
C638 C637 1.363 . S
C638 C644 1.428 . S
H639 C635 0.930 . S
H640 C637 0.929 . S
S641 N642 1.613 1_455 S
S641 N643 1.610 1_455 S
N642 S641 1.613 1_655 S
N642 C645 1.350 . S
N643 S641 1.610 1_655 S
N643 C644 1.351 . S
C644 C638 1.428 . S
C644 N643 1.351 . S
C644 C645 1.434 . S
C645 C636 1.429 . S
C645 N642 1.350 . S
C645 C644 1.434 . S
C646 C647 1.369 . S
C646 C648 1.419 . S
C646 H650 0.930 . S
C647 C646 1.369 . S
C647 C656 1.429 . S
C648 C646 1.419 . S
C648 C649 1.363 . S
C648 H651 0.929 . S
C649 C648 1.363 . S
C649 C655 1.428 . S
H650 C646 0.930 . S
H651 C648 0.929 . S
S652 N653 1.613 . S
S652 N654 1.610 . S
N653 S652 1.613 . S
N653 C656 1.350 . S
N654 S652 1.610 . S
N654 C655 1.351 . S
C655 C649 1.428 . S
C655 N654 1.351 . S
C655 C656 1.434 . S
C656 C647 1.429 . S
C656 N653 1.350 . S
C656 C655 1.434 . S
C657 C658 1.369 . S
C657 C659 1.419 . S
C657 H661 0.930 . S
C658 C657 1.369 . S
C658 C667 1.429 . S
C659 C657 1.419 . S
C659 C660 1.363 . S
C659 H662 0.929 . S
C660 C659 1.363 . S
C660 C666 1.428 . S
H661 C657 0.930 . S
H662 C659 0.929 . S
S663 N664 1.613 . S
S663 N665 1.610 . S
N664 S663 1.613 . S
N664 C667 1.350 . S
N665 S663 1.610 . S
N665 C666 1.351 . S
C666 C660 1.428 . S
C666 N665 1.351 . S
C666 C667 1.434 . S
C667 C658 1.429 . S
C667 N664 1.350 . S
C667 C666 1.434 . S
C668 C669 1.369 . S
C668 C670 1.419 . S
C668 H672 0.930 . S
C669 C668 1.369 . S
C669 C678 1.429 . S
C670 C668 1.419 . S
C670 C671 1.363 . S
C670 H673 0.929 . S
C671 C670 1.363 . S
C671 C677 1.428 . S
H672 C668 0.930 . S
H673 C670 0.929 . S
S674 N675 1.613 . S
S674 N676 1.610 . S
N675 S674 1.613 . S
N675 C678 1.350 . S
N676 S674 1.610 . S
N676 C677 1.351 . S
C677 C671 1.428 . S
C677 N676 1.351 . S
C677 C678 1.434 . S
C678 C669 1.429 . S
C678 N675 1.350 . S
C678 C677 1.434 . S
C679 C680 1.369 . S
C679 C681 1.419 . S
C679 H683 0.930 . S
C680 C679 1.369 . S
C680 C689 1.429 . S
C681 C679 1.419 . S
C681 C682 1.363 . S
C681 H684 0.929 . S
C682 C681 1.363 . S
C682 C688 1.428 . S
H683 C679 0.930 . S
H684 C681 0.929 . S
S685 N686 1.613 . S
S685 N687 1.610 . S
N686 S685 1.613 . S
N686 C689 1.350 . S
N687 S685 1.610 . S
N687 C688 1.351 . S
C688 C682 1.428 . S
C688 N687 1.351 . S
C688 C689 1.434 . S
C689 C680 1.429 . S
C689 N686 1.350 . S
C689 C688 1.434 . S
C690 C691 1.369 . S
C690 C692 1.419 . S
C690 H694 0.930 . S
C691 C690 1.369 . S
C691 C700 1.429 . S
C692 C690 1.419 . S
C692 C693 1.363 . S
C692 H695 0.929 . S
C693 C692 1.363 . S
C693 C699 1.428 . S
H694 C690 0.930 . S
H695 C692 0.929 . S
S696 N697 1.613 . S
S696 N698 1.610 . S
N697 S696 1.613 . S
N697 C700 1.350 . S
N698 S696 1.610 . S
N698 C699 1.351 . S
C699 C693 1.428 . S
C699 N698 1.351 . S
C699 C700 1.434 . S
C700 C691 1.429 . S
C700 N697 1.350 . S
C700 C699 1.434 . S
C701 C702 1.369 . S
C701 C703 1.419 . S
C701 H705 0.930 . S
C702 C701 1.369 . S
C702 C711 1.429 . S
C703 C701 1.419 . S
C703 C704 1.363 . S
C703 H706 0.929 . S
C704 C703 1.363 . S
C704 C710 1.428 . S
H705 C701 0.930 . S
H706 C703 0.929 . S
S707 N708 1.613 . S
S707 N709 1.610 . S
N708 S707 1.613 . S
N708 C711 1.350 . S
N709 S707 1.610 . S
N709 C710 1.351 . S
C710 C704 1.428 . S
C710 N709 1.351 . S
C710 C711 1.434 . S
C711 C702 1.429 . S
C711 N708 1.350 . S
C711 C710 1.434 . S
C449 C1 1.349 . S
C451 C295 1.414 . S
C460 C67 1.128 . S
C462 C344 1.120 . S
C473 C370 2.465 . S
C471 C97 2.489 . S
C482 C133 2.460 . S
C484 C418 2.401 . S
C495 C330 2.618 . S
C493 C25 2.469 . S
C506 C298 0.915 . S
C504 C37 0.936 . S
C517 C419 1.930 . S
C515 C103 1.980 . S
C528 C387 1.678 . S
C526 C109 1.695 . S
C537 C31 1.748 . S
C539 C415 1.850 . S
C550 C347 2.321 . S
C548 C73 2.404 . S
C559 C139 2.357 . S
C561 C299 2.353 . S
C570 C61 1.137 . S
C572 C384 1.183 . S
C583 C304 1.411 . S
C581 C175 1.283 . S
C592 C181 1.086 . S
C594 C335 1.110 . S
C603 C247 2.515 . S
C605 C379 2.486 . S
C614 C277 2.443 . S
C616 C427 2.385 . S
C625 C145 2.353 . S
C627 C339 2.605 . S
C638 C307 0.919 . S
C636 C211 0.932 . S
C649 C410 1.921 . S
C647 C217 1.948 . S
C660 C378 1.695 . S
C658 C283 1.707 . S
C669 C169 1.661 . S
C671 C424 1.839 . S
C682 C338 2.325 . S
C680 C241 2.410 . S
C693 C290 2.338 . S
C691 C253 2.348 . S
C702 C205 1.175 . S
C704 C375 1.189 . S
