# Generated by pormake.
# Topology zzz, (3,6)-cn, num edge types: 1
# Building blocks:
#     Node 0, Type 0, BuildingBlock: ESEHIV_clean_linker_0, # of connection points: 3
#     Node 1, Type 0, BuildingBlock: ESEHIV_clean_linker_0, # of connection points: 3
#     Node 2, Type 0, BuildingBlock: ESEHIV_clean_linker_0, # of connection points: 3
#     Node 3, Type 0, BuildingBlock: ESEHIV_clean_linker_0, # of connection points: 3
#     Node 4, Type 0, BuildingBlock: ESEHIV_clean_linker_0, # of connection points: 3
#     Node 5, Type 0, BuildingBlock: ESEHIV_clean_linker_0, # of connection points: 3
#     Node 6, Type 0, BuildingBlock: ESEHIV_clean_linker_0, # of connection points: 3
#     Node 7, Type 0, BuildingBlock: ESEHIV_clean_linker_0, # of connection points: 3
#     Node 8, Type 1, BuildingBlock: CUWYAW_clean_sbu_0, # of connection points: 6
#     Node 9, Type 1, BuildingBlock: CUWYAW_clean_sbu_0, # of connection points: 6
#     Node 10, Type 1, BuildingBlock: CUWYAW_clean_sbu_0, # of connection points: 6
#     Node 11, Type 1, BuildingBlock: CUWYAW_clean_sbu_0, # of connection points: 6
#     Edge 12, Type (0, 1), BuildingBlock: UVAHIK_clean_linker_0, # of connection points: 2
#     Edge 13, Type (0, 1), BuildingBlock: UVAHIK_clean_linker_0, # of connection points: 2
#     Edge 14, Type (0, 1), BuildingBlock: UVAHIK_clean_linker_0, # of connection points: 2
#     Edge 15, Type (0, 1), BuildingBlock: UVAHIK_clean_linker_0, # of connection points: 2
#     Edge 16, Type (0, 1), BuildingBlock: UVAHIK_clean_linker_0, # of connection points: 2
#     Edge 17, Type (0, 1), BuildingBlock: UVAHIK_clean_linker_0, # of connection points: 2
#     Edge 18, Type (0, 1), BuildingBlock: UVAHIK_clean_linker_0, # of connection points: 2
#     Edge 19, Type (0, 1), BuildingBlock: UVAHIK_clean_linker_0, # of connection points: 2
#     Edge 20, Type (0, 1), BuildingBlock: UVAHIK_clean_linker_0, # of connection points: 2
#     Edge 21, Type (0, 1), BuildingBlock: UVAHIK_clean_linker_0, # of connection points: 2
#     Edge 22, Type (0, 1), BuildingBlock: UVAHIK_clean_linker_0, # of connection points: 2
#     Edge 23, Type (0, 1), BuildingBlock: UVAHIK_clean_linker_0, # of connection points: 2
#     Edge 24, Type (0, 1), BuildingBlock: UVAHIK_clean_linker_0, # of connection points: 2
#     Edge 25, Type (0, 1), BuildingBlock: UVAHIK_clean_linker_0, # of connection points: 2
#     Edge 26, Type (0, 1), BuildingBlock: UVAHIK_clean_linker_0, # of connection points: 2
#     Edge 27, Type (0, 1), BuildingBlock: UVAHIK_clean_linker_0, # of connection points: 2
#     Edge 28, Type (0, 1), BuildingBlock: UVAHIK_clean_linker_0, # of connection points: 2
#     Edge 29, Type (0, 1), BuildingBlock: UVAHIK_clean_linker_0, # of connection points: 2
#     Edge 30, Type (0, 1), BuildingBlock: UVAHIK_clean_linker_0, # of connection points: 2
#     Edge 31, Type (0, 1), BuildingBlock: UVAHIK_clean_linker_0, # of connection points: 2
#     Edge 32, Type (0, 1), BuildingBlock: UVAHIK_clean_linker_0, # of connection points: 2
#     Edge 33, Type (0, 1), BuildingBlock: UVAHIK_clean_linker_0, # of connection points: 2
#     Edge 34, Type (0, 1), BuildingBlock: UVAHIK_clean_linker_0, # of connection points: 2
#     Edge 35, Type (0, 1), BuildingBlock: UVAHIK_clean_linker_0, # of connection points: 2
# Relax obj value: 0.426
# Max RMSD: 0.249
# Mean RMSD: 0.230
data_MOF--net-zzz--node1-CUWYAW_clean_sbu_0--node2-ESEHIV_clean_linker_0--edge1-UVAHIK_clean_linker_0
_symmetry_space_group_name_H-M    P1
_symmetry_Int_Tables_number       1
_symmetry_cell_setting            triclinic
loop_
_symmetry_equiv_pos_as_xyz
'x, y, z'
_cell_length_a     59.153162
_cell_length_b     59.122678
_cell_length_c     19.289104
_cell_angle_alpha  89.770909
_cell_angle_beta   90.077959
_cell_angle_gamma 89.943288
loop_
_atom_site_label
_atom_site_type_symbol
_atom_site_fract_x
_atom_site_fract_y
_atom_site_fract_z
_atom_type_partial_charge
H0 H 0.77611 0.46118 0.33346 0.0
H1 H 0.72517 0.45982 0.17515 0.0
H2 H 0.7212 0.50868 0.34027 0.0
C3 C 0.76052 0.46766 0.3114 0.0
C4 C 0.75 0.48612 0.34319 0.0
C5 C 0.75224 0.45847 0.24961 0.0
C6 C 0.73161 0.46652 0.22346 0.0
C7 C 0.71969 0.48404 0.25692 0.0
C8 C 0.72952 0.49451 0.31561 0.0
H9 H 0.06615 0.77843 0.32268 0.0
H10 H 0.07035 0.72061 0.19035 0.0
H11 H 0.01325 0.72844 0.32746 0.0
C12 C 0.05949 0.76223 0.30615 0.0
C13 C 0.03884 0.75465 0.33336 0.0
C14 C 0.07077 0.75025 0.25424 0.0
C15 C 0.06169 0.72982 0.23097 0.0
C16 C 0.04113 0.72158 0.25745 0.0
C17 C 0.02933 0.73437 0.30774 0.0
H18 H 0.73007 0.05142 0.32666 0.0
H19 H 0.78156 0.05575 0.17048 0.0
H20 H 0.78379 1.00257 0.32396 0.0
C21 C 0.74559 0.04526 0.30358 0.0
C22 C 0.75565 0.02578 0.33125 0.0
C23 C 0.75432 0.05588 0.24436 0.0
C24 C 0.77482 0.048 0.21703 0.0
C25 C 0.78611 0.02927 0.24652 0.0
C26 C 0.77595 0.01762 0.30255 0.0
H27 H 0.443 0.74725 0.34314 0.0
H28 H 0.49449 0.79835 0.36093 0.0
H29 H 0.44019 0.80605 0.21295 0.0
C30 C 0.44958 0.76373 0.32877 0.0
C31 C 0.43913 0.77586 0.27517 0.0
C32 C 0.46945 0.77157 0.36038 0.0
C33 C 0.47896 0.79224 0.33783 0.0
C34 C 0.46793 0.80514 0.28594 0.0
C35 C 0.44818 0.79668 0.25482 0.0
H36 H 0.24302 0.57343 0.0678 0.0
H37 H 0.29959 0.57559 0.20607 0.0
H38 H 0.29304 0.52042 0.06138 0.0
C39 C 0.25909 0.56647 0.08482 0.0
C40 C 0.26683 0.5461 0.0562 0.0
C41 C 0.27062 0.57696 0.13914 0.0
C42 C 0.29082 0.56756 0.16332 0.0
C43 C 0.29937 0.54743 0.13486 0.0
C44 C 0.28696 0.53628 0.08229 0.0
H45 H 0.06782 0.24664 0.08584 0.0
H46 H 0.06993 0.30501 0.21607 0.0
H47 H 0.01927 0.30003 0.05538 0.0
C48 C 0.06182 0.26353 0.09796 0.0
C49 C 0.04313 0.27221 0.06195 0.0
C50 C 0.07125 0.27504 0.15415 0.0
C51 C 0.06283 0.29635 0.17161 0.0
C52 C 0.04439 0.30589 0.13574 0.0
C53 C 0.03404 0.29338 0.08175 0.0
H54 H 0.26418 0.95094 0.10609 0.0
H55 H 0.20377 0.95416 0.22933 0.0
H56 H 0.21755 1.00592 0.07787 0.0
C57 C 0.248 0.95859 0.11786 0.0
C58 C 0.24179 0.9784 0.08216 0.0
C59 C 0.23472 0.94972 0.17182 0.0
C60 C 0.21444 0.96073 0.18832 0.0
C61 C 0.20831 0.98106 0.15554 0.0
C62 C 0.22206 0.99004 0.10252 0.0
H63 H 0.54575 0.27745 0.09734 0.0
H64 H 0.50009 0.2222 0.06094 0.0
H65 H 0.54352 0.22192 0.24074 0.0
C66 C 0.53896 0.26119 0.11296 0.0
C67 C 0.54651 0.2511 0.17456 0.0
C68 C 0.522 0.25129 0.07239 0.0
C69 C 0.51314 0.23004 0.09205 0.0
C70 C 0.52186 0.21878 0.15126 0.0
C71 C 0.53808 0.22977 0.19267 0.0
C72 C 0.9813 0.04083 0.53684 0.0
Eu73 Eu 0.98924 0.01879 0.6501 0.0
C74 C 0.99706 0.05712 0.50597 0.0
C75 C 0.99017 0.07293 0.45608 0.0
C76 C 1.00565 0.08886 0.43065 0.0
C77 C 0.02825 0.089 0.45445 0.0
C78 C 0.03495 0.07281 0.50379 0.0
C79 C 0.01944 0.05736 0.52997 0.0
C80 C 0.96309 1.00465 0.7573 0.0
C81 C 1.00861 0.05493 0.76396 0.0
C82 C 0.02837 0.98473 0.90263 0.0
Eu83 Eu 0.01602 1.00148 0.78429 0.0
C84 C 0.04571 0.96802 0.92075 0.0
C85 C 0.05696 0.95618 0.86817 0.0
C86 C 0.07343 0.94014 0.8849 0.0
C87 C 0.07895 0.93569 0.95455 0.0
C88 C 0.06798 0.94803 1.007 0.0
C89 C 0.05147 0.96409 0.99015 0.0
C90 C 0.04439 1.0078 0.67304 0.0
C91 C 1.00013 0.9656 0.66489 0.0
O92 O 0.98864 0.01991 0.53737 0.0
O93 O 0.97281 0.04696 0.59662 0.0
O94 O 0.95682 1.00373 0.69258 0.0
O95 O 0.98165 0.01503 0.76223 0.0
O96 O 1.00396 0.05077 0.69798 0.0
O97 O 0.01097 0.03841 0.80993 0.0
O98 O 0.01108 0.97695 0.86719 0.0
O99 O 0.03621 1.00389 0.87811 0.0
O100 O 0.05152 1.00136 0.73352 0.0
O101 O 0.02357 1.01063 0.67792 0.0
O102 O 1.00468 0.9689 0.73159 0.0
O103 O 0.99629 0.98253 0.6212 0.0
H104 H 0.97286 0.07319 0.43777 0.0
H105 H 0.99977 0.10134 0.39358 0.0
H106 H 0.0522 0.07203 0.52258 0.0
H107 H 0.0249 0.04565 0.56981 0.0
H108 H 0.05285 0.95922 0.81416 0.0
H109 H 0.0817 0.93106 0.84337 0.0
H110 H 0.07161 0.94476 0.06117 0.0
H111 H 0.04301 0.97322 0.03124 0.0
C112 C 0.47543 0.97467 0.51768 0.0
Eu113 Eu 0.49101 0.99053 0.63342 0.0
C114 C 0.45837 0.95751 0.50108 0.0
C115 C 0.45199 0.94135 0.55082 0.0
C116 C 0.43439 0.92629 0.53713 0.0
C117 C 0.42273 0.92725 0.47364 0.0
C118 C 0.42972 0.94303 0.4231 0.0
C119 C 0.4474 0.95803 0.43679 0.0
C120 C 0.49473 0.96571 0.75323 0.0
C121 C 0.45357 1.00743 0.74521 0.0
C122 C 0.52371 0.04343 0.8577 0.0
Eu123 Eu 0.50488 0.02256 0.75436 0.0
C124 C 0.5442 0.05754 0.86579 0.0
C125 C 0.54361 0.08098 0.85254 0.0
C126 C 0.56318 0.09407 0.85905 0.0
C127 C 0.58372 0.08399 0.87891 0.0
C128 C 0.5842 0.0606 0.89267 0.0
C129 C 0.56469 0.04757 0.88634 0.0
C130 C 0.49123 0.0433 0.63501 0.0
C131 C 0.54421 1.00267 0.65126 0.0
O132 O 0.46764 0.99319 0.5464 0.0
O133 O 0.49391 0.9671 0.54743 0.0
O134 O 0.48931 0.95722 0.69375 0.0
O135 O 0.49802 0.98653 0.74499 0.0
O136 O 0.45755 1.00265 0.67917 0.0
O137 O 0.47021 0.01187 0.78889 0.0
O138 O 0.52695 0.02193 0.84474 0.0
O139 O 0.50713 0.05206 0.82119 0.0
O140 O 0.48688 0.05074 0.69669 0.0
O141 O 0.50344 0.02584 0.63919 0.0
O142 O 0.53912 0.01431 0.70767 0.0
O143 O 0.52853 0.99305 0.61223 0.0
H144 H 0.46023 0.94072 0.60091 0.0
H145 H 0.42957 0.91424 0.57687 0.0
H146 H 0.42086 0.94454 0.37413 0.0
H147 H 0.45204 0.97049 0.398 0.0
H148 H 0.52804 0.08923 0.83703 0.0
H149 H 0.56227 0.11204 0.84828 0.0
H150 H 0.59959 0.05239 0.90995 0.0
H151 H 0.56568 0.02964 0.89778 0.0
C152 C 0.53468 0.48568 0.55424 0.0
Eu153 Eu 0.51661 0.50545 0.66046 0.0
C154 C 0.54774 0.46452 0.54699 0.0
C155 C 0.56927 0.46195 0.57734 0.0
C156 C 0.58055 0.44117 0.57448 0.0
C157 C 0.57038 0.42258 0.54198 0.0
C158 C 0.54908 0.42531 0.51058 0.0
C159 C 0.53794 0.44608 0.51282 0.0
C160 C 0.54006 0.51754 0.77618 0.0
C161 C 0.49775 0.46653 0.76769 0.0
C162 C 0.47358 0.53587 0.90494 0.0
Eu163 Eu 0.48728 0.52 0.78723 0.0
C164 C 0.45726 0.55357 0.9227 0.0
C165 C 0.44761 0.56695 0.87022 0.0
C166 C 0.43254 0.58426 0.88697 0.0
C167 C 0.42685 0.58844 0.9565 0.0
C168 C 0.43612 0.57453 0.00873 0.0
C169 C 0.45123 0.55722 0.99187 0.0
C170 C 0.46043 0.51745 0.67121 0.0
C171 C 0.50377 0.55733 0.67398 0.0
O172 O 0.51339 0.48324 0.57119 0.0
O173 O 0.54445 0.50229 0.58744 0.0
O174 O 0.54662 0.5217 0.71333 0.0
O175 O 0.52197 0.50625 0.77508 0.0
O176 O 0.50762 0.4713 0.70779 0.0
O177 O 0.49005 0.48248 0.80947 0.0
O178 O 0.49204 0.54292 0.87388 0.0
O179 O 0.46488 0.5178 0.87623 0.0
O180 O 0.45302 0.52291 0.73201 0.0
O181 O 0.48119 0.51353 0.6766 0.0
O182 O 0.50011 0.5531 0.74064 0.0
O183 O 0.50672 0.54081 0.62883 0.0
H184 H 0.5773 0.47584 0.60428 0.0
H185 H 0.59699 0.43951 0.59881 0.0
H186 H 0.54107 0.41138 0.48377 0.0
H187 H 0.52144 0.44762 0.48876 0.0
H188 H 0.452 0.5642 0.81638 0.0
H189 H 0.42554 0.59455 0.84558 0.0
H190 H 0.43234 0.57753 0.06284 0.0
H191 H 0.4585 0.54694 0.03288 0.0
C192 C 0.03031 0.54016 0.49493 0.0
Eu193 Eu 0.01703 0.5288 0.61805 0.0
C194 C 0.04637 0.55681 0.46752 0.0
C195 C 0.04422 0.56451 0.39913 0.0
C196 C 0.05975 0.58001 0.37219 0.0
C197 C 0.07773 0.58797 0.41329 0.0
C198 C 0.07932 0.5807 0.48267 0.0
C199 C 0.06372 0.5653 0.50962 0.0
C200 C 0.01336 0.55673 0.73141 0.0
C201 C 0.05411 0.51271 0.73339 0.0
C202 C 0.98468 0.48954 0.87812 0.0
Eu203 Eu 1.00063 0.50162 0.75899 0.0
C204 C 0.96693 0.47324 0.89721 0.0
C205 C 0.96617 0.45152 0.86755 0.0
C206 C 0.94741 0.43755 0.87803 0.0
C207 C 0.92901 0.44526 0.91722 0.0
C208 C 0.93019 0.4666 0.94888 0.0
C209 C 0.94902 0.48043 0.93914 0.0
C210 C 1.00511 0.4738 0.64537 0.0
C211 C 0.96342 0.51807 0.64528 0.0
O212 O 0.03916 0.5232 0.53001 0.0
O213 O 0.01218 0.54866 0.52409 0.0
O214 O 0.02006 0.56353 0.67071 0.0
O215 O 1.00891 0.53607 0.72625 0.0
O216 O 0.05022 0.51752 0.66697 0.0
O217 O 0.03768 0.509 0.77905 0.0
O218 O 0.97744 0.50746 0.84433 0.0
O219 O 1.00349 0.48117 0.85261 0.0
O220 O 0.99935 0.4666 0.70648 0.0
O221 O 1.00816 0.49466 0.6504 0.0
O222 O 0.96748 0.51284 0.71107 0.0
O223 O 0.97971 0.52195 0.59939 0.0
H224 H 0.0307 0.55835 0.36633 0.0
H225 H 0.05787 0.58552 0.31887 0.0
H226 H 0.0931 0.58622 0.51549 0.0
H227 H 0.06544 0.5597 0.56293 0.0
H228 H 0.97967 0.44563 0.8343 0.0
H229 H 0.94685 0.42116 0.85316 0.0
H230 H 0.91633 0.47277 0.98023 0.0
H231 H 0.94921 0.49711 0.96218 0.0
C232 C 0.19215 1.00708 0.24293 0.0
C233 C 0.18881 0.99349 0.18441 0.0
C234 C 0.17388 0.0134 0.28452 0.0
C235 C 0.11653 0.99262 0.32945 0.0
H236 H 0.11721 0.04455 0.45155 0.0
C237 C 0.08139 0.01558 0.61588 0.0
C238 C 0.05836 1.01027 0.61002 0.0
C239 C 0.095 0.01709 0.55676 0.0
C240 C 0.11678 0.02999 0.41764 0.0
H241 H 0.1638 0.97669 0.12121 0.0
H242 H 0.13155 0.98869 0.19151 0.0
H243 H 0.14443 0.04225 0.35679 0.0
H244 H 0.0315 1.002 0.5382 0.0
H245 H 0.0554 1.00423 0.43456 0.0
H246 H 0.08884 0.98045 0.39068 0.0
C247 C 0.14833 0.99409 0.20662 0.0
C248 C 0.13244 0.02859 0.36341 0.0
C249 C 0.16671 0.98754 0.16547 0.0
C250 C 0.04915 1.00641 0.54397 0.0
C251 C 0.06284 1.00757 0.48482 0.0
C252 C 0.10067 0.99421 0.38302 0.0
C253 C 0.15174 1.00631 0.26843 0.0
C254 C 0.13298 1.00957 0.31958 0.0
C255 C 0.08595 0.01285 0.49062 0.0
C256 C 0.10099 0.01262 0.42879 0.0
H257 H 0.20913 0.01136 0.25945 0.0
H258 H 0.17742 0.02249 0.33188 0.0
H259 H 0.1165 0.97751 0.29798 0.0
H260 H 0.0889 0.0185 0.66631 0.0
H261 H 0.1128 0.0209 0.56301 0.0
C262 C 0.49137 0.19057 0.18246 0.0
C263 C 0.51433 0.19578 0.17309 0.0
C264 C 0.485 0.17052 0.21674 0.0
C265 C 0.50869 0.11606 0.2905 0.0
H266 H 0.46057 0.12341 0.4244 0.0
C267 C 0.49436 0.04902 0.50595 0.0
C268 C 0.48864 0.05737 0.57168 0.0
C269 C 0.49354 0.06318 0.44738 0.0
C270 C 0.47422 0.12105 0.38781 0.0
H271 H 0.54847 0.18329 0.18707 0.0
H272 H 0.53767 0.14913 0.24777 0.0
H273 H 0.467 0.15262 0.33808 0.0
H274 H 0.47707 0.08694 0.62737 0.0
H275 H 0.47657 0.11173 0.52707 0.0
H276 H 0.51711 0.08541 0.34355 0.0
C277 C 0.52434 0.16004 0.22855 0.0
C278 C 0.47764 0.13773 0.33707 0.0
C279 C 0.53063 0.17985 0.19412 0.0
C280 C 0.48152 0.07995 0.57738 0.0
C281 C 0.48104 0.09417 0.51932 0.0
C282 C 0.50554 0.09959 0.34199 0.0
C283 C 0.50147 0.15532 0.2424 0.0
C284 C 0.49538 0.13584 0.28884 0.0
C285 C 0.48729 0.08615 0.45336 0.0
C286 C 0.48866 0.10212 0.39278 0.0
H287 H 0.47842 0.20252 0.16685 0.0
H288 H 0.46719 0.16733 0.22501 0.0
H289 H 0.52213 0.11355 0.25329 0.0
H290 H 0.49976 0.03162 0.49994 0.0
H291 H 0.49804 0.05613 0.39759 0.0
C292 C 0.32119 0.51825 0.20271 0.0
C293 C 0.32085 0.53845 0.1641 0.0
C294 C 0.33958 0.51323 0.24645 0.0
C295 C 0.38054 0.54473 0.34983 0.0
H296 H 0.40736 0.48645 0.39287 0.0
C297 C 0.42472 0.52689 0.60916 0.0
C298 C 0.44657 0.5176 0.6071 0.0
C299 C 0.41138 0.52796 0.54945 0.0
C300 C 0.40012 0.50285 0.38093 0.0
H301 H 0.3401 0.56825 0.13641 0.0
H302 H 0.3722 0.55938 0.21135 0.0
H303 H 0.38106 0.49008 0.29438 0.0
H304 H 0.47145 0.50172 0.54096 0.0
H305 H 0.44771 0.50311 0.43589 0.0
H306 H 0.39888 0.55741 0.43716 0.0
C307 C 0.35823 0.54757 0.20906 0.0
C308 C 0.38499 0.5049 0.32493 0.0
C309 C 0.33995 0.55256 0.16564 0.0
C310 C 0.45468 0.50898 0.54399 0.0
C311 C 0.44109 0.5097 0.48408 0.0
C312 C 0.39529 0.54261 0.40608 0.0
C313 C 0.35785 0.52839 0.25236 0.0
C314 C 0.37496 0.52589 0.30891 0.0
C315 C 0.41939 0.51948 0.48614 0.0
C316 C 0.40511 0.52164 0.42278 0.0
H317 H 0.30655 0.50725 0.20314 0.0
H318 H 0.33873 0.49834 0.27923 0.0
H319 H 0.37292 0.56108 0.33971 0.0
H320 H 0.41798 0.53367 0.65697 0.0
H321 H 0.39468 0.53542 0.55282 0.0
C322 C 0.05101 0.34557 0.17541 0.0
C323 C 0.03564 0.3281 0.16065 0.0
C324 C 0.04451 0.36423 0.21499 0.0
C325 C 1.00216 0.3792 0.34881 0.0
H326 H 0.0337 0.43663 0.34365 0.0
C327 C 1.00663 0.43585 0.58998 0.0
C328 C 1.00717 0.45948 0.58273 0.0
C329 C 1.00788 0.42181 0.53198 0.0
C330 C 0.02444 0.42086 0.34561 0.0
H331 H 1.00083 0.31747 0.17122 0.0
H332 H 0.98908 0.35056 0.2383 0.0
H333 H 0.03823 0.41006 0.24866 0.0
H334 H 1.00917 0.487 0.50875 0.0
H335 H 0.01097 0.46248 0.40659 0.0
H336 H 0.98797 0.39016 0.44485 0.0
C337 C 1.00645 0.34951 0.221 0.0
C338 C 0.02727 0.4054 0.29128 0.0
C339 C 0.01304 0.33068 0.1815 0.0
C340 C 1.00898 0.46883 0.51591 0.0
C341 C 1.01003 0.45472 0.45742 0.0
C342 C 0.99915 0.39474 0.40267 0.0
C343 C 0.02233 0.36613 0.24067 0.0
C344 C 0.01668 0.38404 0.29291 0.0
C345 C 1.0094 0.43095 0.46461 0.0
C346 C 0.01074 0.41555 0.40304 0.0
H347 H 0.06854 0.34412 0.15981 0.0
H348 H 0.05738 0.37638 0.229 0.0
H349 H 0.99379 0.36298 0.3528 0.0
H350 H 1.00535 0.42813 0.64085 0.0
H351 H 1.00795 0.40369 0.54034 0.0
C352 C 0.81224 0.99925 0.1986 0.0
C353 C 0.808 0.02197 0.21549 0.0
C354 C 0.83147 0.99334 0.15999 0.0
C355 C 0.88653 0.01657 0.09347 0.0
H356 H 0.87718 0.97377 0.94468 0.0
C357 C 0.95519 1.00314 0.88499 0.0
C358 C 0.94756 1.00084 0.81641 0.0
C359 C 0.94001 1.00158 0.94053 0.0
C360 C 0.8801 0.98589 0.98563 0.0
H361 H 0.8214 0.05602 0.20921 0.0
H362 H 0.85426 0.046 0.14115 0.0
H363 H 0.84775 0.97926 0.0309 0.0
H364 H 0.9182 0.99445 0.75225 0.0
H365 H 0.89164 0.99259 0.84817 0.0
H366 H 0.91815 0.02439 0.04588 0.0
C367 C 0.84308 0.03255 0.15777 0.0
C368 C 0.86329 0.98877 0.03599 0.0
C369 C 0.82401 0.03839 0.19632 0.0
C370 C 0.9246 0.99626 0.80458 0.0
C371 C 0.90937 0.99501 0.85992 0.0
C372 C 0.9032 0.0139 0.04273 0.0
C373 C 0.8469 1.01002 0.13766 0.0
C374 C 0.86602 1.00457 0.08973 0.0
C375 C 0.91675 0.99801 0.92877 0.0
C376 C 0.90005 0.99889 0.98708 0.0
H377 H 0.8002 0.98621 0.21247 0.0
H378 H 0.834 0.97576 0.14648 0.0
H379 H 0.88955 0.02854 0.13479 0.0
H380 H 0.97284 1.00655 0.89571 0.0
H381 H 0.94651 1.0035 0.99265 0.0
C382 C 0.4627 0.8462 0.26168 0.0
C383 C 0.47677 0.82706 0.25998 0.0
C384 C 0.46747 0.86512 0.22064 0.0
C385 C 0.50933 0.89271 0.10361 0.0
H386 H 0.45582 0.90795 0.99666 0.0
C387 C 0.50364 0.96168 0.88102 0.0
C388 C 0.49487 0.95276 0.8191 0.0
C389 C 0.50324 0.94877 0.94248 0.0
C390 C 0.47087 0.90405 0.02648 0.0
H391 H 0.50768 0.81326 0.21782 0.0
H392 H 0.51615 0.84646 0.14565 0.0
H393 H 0.4528 0.88183 0.09399 0.0
H394 H 0.47885 0.92348 0.77293 0.0
H395 H 0.47763 0.90144 0.87966 0.0
H396 H 0.52739 0.91475 0.03391 0.0
C397 C 0.50151 0.84692 0.17928 0.0
C398 C 0.46914 0.8892 0.08265 0.0
C399 C 0.49674 0.82793 0.22073 0.0
C400 C 0.48573 0.93085 0.81976 0.0
C401 C 0.48497 0.91821 0.88093 0.0
C402 C 0.511 0.90792 0.04763 0.0
C403 C 0.48635 0.8653 0.1764 0.0
C404 C 0.48838 0.883 0.12134 0.0
C405 C 0.49362 0.927 0.94302 0.0
C406 C 0.49183 0.91333 0.00766 0.0
H407 H 0.44717 0.84591 0.2914 0.0
H408 H 0.45567 0.87915 0.22069 0.0
H409 H 0.52445 0.88832 0.13245 0.0
H410 H 0.5108 0.97852 0.88188 0.0
H411 H 0.50997 0.95595 0.98977 0.0
C412 C 0.69179 0.51405 0.21746 0.0
C413 C 0.69736 0.49116 0.22775 0.0
C414 C 0.67208 0.52012 0.18094 0.0
C415 C 0.6182 0.4959 0.10742 0.0
H416 H 0.62397 0.54503 0.97532 0.0
C417 C 0.54803 0.51312 0.9038 0.0
C418 C 0.55533 0.51923 0.83705 0.0
C419 C 0.56323 0.51307 0.95981 0.0
C420 C 0.62205 0.53111 0.01146 0.0
H421 H 0.68575 0.45679 0.21194 0.0
H422 H 0.65224 0.46713 0.14714 0.0
H423 H 0.65403 0.53812 0.05865 0.0
H424 H 0.58411 0.53058 0.77698 0.0
H425 H 0.61063 0.5297 0.873 0.0
H426 H 0.58701 0.48786 0.0573 0.0
C427 C 0.66269 0.48059 0.16744 0.0
C428 C 0.63923 0.52739 0.06037 0.0
C429 C 0.68218 0.4746 0.20405 0.0
C430 C 0.57793 0.52584 0.82783 0.0
C431 C 0.59315 0.52551 0.88339 0.0
C432 C 0.60119 0.49942 0.05793 0.0
C433 C 0.65749 0.50342 0.15396 0.0
C434 C 0.63784 0.50936 0.10808 0.0
C435 C 0.58616 0.51886 0.95023 0.0
C436 C 0.60307 0.51676 0.00806 0.0
H437 H 0.7031 0.52724 0.23499 0.0
H438 H 0.66852 0.53789 0.17278 0.0
H439 H 0.61613 0.48218 0.1442 0.0
H440 H 0.53066 0.50808 0.91255 0.0
H441 H 0.55698 0.50827 0.01049 0.0
C442 C 0.01256 0.69944 0.18872 0.0
C443 C 0.03245 0.69996 0.2286 0.0
C444 C 1.00787 0.68081 0.14588 0.0
C445 C 0.03994 0.63863 0.04814 0.0
H446 H 0.98174 0.61231 1.00329 0.0
C447 C 0.02387 0.5923 0.79195 0.0
C448 C 0.01368 0.57086 0.79485 0.0
C449 C 0.02485 0.60605 0.8506 0.0
C450 C 0.99812 0.61939 0.01575 0.0
H451 H 0.06202 0.68078 0.25934 0.0
H452 H 0.05371 0.64828 0.18607 0.0
H453 H 0.98485 0.63941 0.09935 0.0
H454 H 0.99617 0.54719 0.86155 0.0
H455 H 0.99741 0.57161 0.9647 0.0
H456 H 0.05315 0.61928 0.96378 0.0
C457 C 0.04191 0.6623 0.18658 0.0
C458 C 0.99987 0.635 0.07036 0.0
C459 C 0.04657 0.68082 0.22908 0.0
C460 C 1.00414 0.56359 0.85782 0.0
C461 C 1.00477 0.5776 0.91665 0.0
C462 C 0.03813 0.62337 0.99327 0.0
C463 C 0.02304 0.66245 0.14214 0.0
C464 C 0.02083 0.64488 0.08701 0.0
C465 C 0.01537 0.5989 0.91372 0.0
C466 C 0.0172 0.61372 0.97588 0.0
H467 H 1.00156 0.71408 0.18669 0.0
H468 H 0.99322 0.6815 0.11221 0.0
H469 H 0.0563 0.6461 0.05872 0.0
H470 H 0.03136 0.59844 0.74424 0.0
H471 H 0.03294 0.62243 0.84642 0.0
C472 C 0.07944 0.26005 0.27169 0.0
C473 C 0.08615 0.26242 0.20235 0.0
C474 C 0.08732 0.24194 0.31133 0.0
C475 C 0.10222 0.18386 0.26834 0.0
H476 H 0.08753 0.177 0.46282 0.0
C477 C 0.04406 0.11406 0.36091 0.0
C478 C 0.04468 0.10625 0.4297 0.0
C479 C 0.05882 0.13099 0.33874 0.0
C480 C 0.09221 0.17831 0.40873 0.0
H481 H 0.10927 0.25036 0.12386 0.0
H482 H 0.12388 0.21916 0.19416 0.0
H483 H 0.10116 0.2131 0.42027 0.0
H484 H 0.06184 0.10992 0.52878 0.0
H485 H 0.08821 0.13856 0.48913 0.0
H486 H 0.0934 0.14908 0.25684 0.0
C487 C 0.11171 0.23059 0.21705 0.0
C488 C 0.09981 0.19921 0.38409 0.0
C489 C 0.10352 0.24856 0.1769 0.0
C490 C 0.06099 0.11527 0.4751 0.0
C491 C 0.07599 0.13196 0.4526 0.0
C492 C 0.09516 0.16286 0.29326 0.0
C493 C 0.10223 0.22595 0.2825 0.0
C494 C 0.10316 0.20272 0.31266 0.0
C495 C 0.07484 0.14036 0.38447 0.0
C496 C 0.08846 0.1603 0.36267 0.0
H497 H 0.06607 0.27049 0.29276 0.0
H498 H 0.07954 0.23921 0.36141 0.0
H499 H 0.10478 0.1856 0.21304 0.0
H500 H 0.03203 0.10727 0.32415 0.0
H501 H 0.05702 0.13727 0.28622 0.0
C502 C 0.24038 0.93163 0.28903 0.0
C503 C 0.24394 0.93126 0.21689 0.0
C504 C 0.25383 0.91859 0.33331 0.0
C505 C 0.30553 0.88085 0.33508 0.0
H506 H 0.32382 0.9239 0.47524 0.0
C507 C 0.39655 0.90511 0.39687 0.0
C508 C 0.40187 0.91374 0.4627 0.0
C509 C 0.37494 0.89673 0.38309 0.0
C510 C 0.31879 0.91124 0.43784 0.0
H511 H 0.26174 0.91366 0.13479 0.0
H512 H 0.28657 0.89287 0.21144 0.0
H513 H 0.28749 0.92785 0.42127 0.0
H514 H 0.38933 0.91821 0.56752 0.0
H515 H 0.35185 0.90327 0.54364 0.0
H516 H 0.33826 0.86569 0.34825 0.0
C517 C 0.27328 0.90291 0.23451 0.0
C518 C 0.29768 0.91344 0.40662 0.0
C519 C 0.25927 0.91532 0.19014 0.0
C520 C 0.38585 0.91172 0.51619 0.0
C521 C 0.36429 0.90328 0.50246 0.0
C522 C 0.32691 0.87886 0.36581 0.0
C523 C 0.27176 0.90559 0.30684 0.0
C524 C 0.29114 0.89899 0.35232 0.0
C525 C 0.35825 0.89681 0.43493 0.0
C526 C 0.33409 0.89468 0.41532 0.0
H527 H 0.22861 0.94336 0.31236 0.0
H528 H 0.25135 0.92027 0.38866 0.0
H529 H 0.30088 0.86896 0.295 0.0
H530 H 0.4087 0.90598 0.35497 0.0
H531 H 0.37083 0.89194 0.33043 0.0
C532 C 0.57807 0.25276 0.26353 0.0
C533 C 0.56175 0.2638 0.22204 0.0
C534 C 0.59133 0.26507 0.31047 0.0
C535 C 0.6114 0.32225 0.34756 0.0
H536 H 0.59346 0.31336 0.53884 0.0
C537 C 0.60441 0.3988 0.51562 0.0
C538 C 0.58193 0.40039 0.53846 0.0
C539 C 0.61356 0.37775 0.49806 0.0
C540 C 0.59912 0.31589 0.486 0.0
H541 H 0.54645 0.29649 0.19931 0.0
H542 H 0.5701 0.31766 0.27756 0.0
H543 H 0.58807 0.28289 0.45521 0.0
H544 H 0.55244 0.38125 0.56963 0.0
H545 H 0.56793 0.34483 0.53743 0.0
H546 H 0.61997 0.35595 0.37538 0.0
C547 C 0.57283 0.29959 0.27327 0.0
C548 C 0.59624 0.29836 0.43836 0.0
C549 C 0.55932 0.28737 0.22801 0.0
C550 C 0.56965 0.38049 0.55057 0.0
C551 C 0.57874 0.35954 0.53311 0.0
C552 C 0.61423 0.33976 0.39493 0.0
C553 C 0.58883 0.2886 0.31518 0.0
C554 C 0.60075 0.30211 0.36789 0.0
C555 C 0.60034 0.35803 0.50299 0.0
C556 C 0.60637 0.33737 0.46337 0.0
H557 H 0.58054 0.23466 0.26007 0.0
H558 H 0.6034 0.25627 0.34313 0.0
H559 H 0.61515 0.3254 0.29339 0.0
H560 H 0.61433 0.4139 0.50641 0.0
H561 H 0.63038 0.37713 0.47601 0.0
C562 C 0.25003 0.61392 0.14079 0.0
C563 C 0.2593 0.59546 0.17693 0.0
C564 C 0.23363 0.62751 0.172 0.0
C565 C 0.19824 0.63199 0.33444 0.0
H566 H 0.14971 0.6338 0.19945 0.0
C567 C 0.10653 0.61927 0.42047 0.0
C568 C 0.09596 0.602 0.38236 0.0
C569 C 0.12591 0.62997 0.39483 0.0
C570 C 0.16306 0.63357 0.23794 0.0
H571 H 0.26062 0.57807 0.27572 0.0
H572 H 0.23157 0.60084 0.32922 0.0
H573 H 0.1884 0.63251 0.16008 0.0
H574 H 0.0969 0.5832 0.28605 0.0
H575 H 0.1304 0.60149 0.24193 0.0
H576 H 0.17255 0.63033 0.41202 0.0
C577 C 0.23706 0.60552 0.27763 0.0
C578 C 0.18544 0.63318 0.21538 0.0
C579 C 0.25376 0.59228 0.24688 0.0
C580 C 0.10436 0.59664 0.31641 0.0
C581 C 0.12365 0.60727 0.29092 0.0
C582 C 0.17578 0.6319 0.35697 0.0
C583 C 0.22574 0.62242 0.23916 0.0
C584 C 0.2033 0.63082 0.26325 0.0
C585 C 0.13509 0.62359 0.3306 0.0
C586 C 0.15797 0.63115 0.30867 0.0
H587 H 0.2543 0.61682 0.08688 0.0
H588 H 0.22591 0.64086 0.14151 0.0
H589 H 0.21155 0.63106 0.37295 0.0
H590 H 0.10022 0.62405 0.47102 0.0
H591 H 0.13414 0.64267 0.42632 0.0
C592 C 0.10682 0.77245 0.25612 0.0
C593 C 0.09006 0.76107 0.21819 0.0
C594 C 0.12077 0.78829 0.22348 0.0
C595 C 0.13159 0.81705 0.05264 0.0
H596 H 0.11889 0.87062 0.16098 0.0
C597 C 0.09255 0.896 0.93928 0.0
C598 C 0.09456 0.91694 0.97284 0.0
C599 C 0.10439 0.87716 0.96354 0.0
C600 C 0.12333 0.85601 0.13014 0.0
H601 H 0.07658 0.75522 0.11534 0.0
H602 H 0.10043 0.78297 0.05872 0.0
H603 H 0.11882 0.83411 0.21674 0.0
H604 H 0.11227 0.93511 0.05374 0.0
H605 H 0.13306 0.9021 0.09628 0.0
H606 H 0.13438 0.83916 0.96484 0.0
C607 C 0.10317 0.77967 0.11335 0.0
C608 C 0.12332 0.83488 0.16239 0.0
C609 C 0.08936 0.76373 0.14589 0.0
C610 C 0.11003 0.91905 0.02779 0.0
C611 C 0.12199 0.90018 0.05193 0.0
C612 C 0.13163 0.83827 0.02028 0.0
C613 C 0.11798 0.79318 0.15255 0.0
C614 C 0.12598 0.81504 0.12322 0.0
C615 C 0.11856 0.8788 0.02193 0.0
C616 C 0.12604 0.85782 0.05797 0.0
H617 H 0.10797 0.77037 0.31184 0.0
H618 H 0.1324 0.79802 0.25484 0.0
H619 H 0.13424 0.80212 0.02133 0.0
H620 H 0.08065 0.89374 0.89716 0.0
H621 H 0.101 0.86096 0.93967 0.0
C622 C 0.71696 0.07134 0.20583 0.0
C623 C 0.74065 0.07334 0.20717 0.0
C624 C 0.70382 0.08631 0.16744 0.0
C625 C 0.70394 0.11576 0.00783 0.0
H626 H 0.6442 0.13125 0.07478 0.0
C627 C 0.62563 0.08892 0.87141 0.0
C628 C 0.60442 0.0977 0.8898 0.0
C629 C 0.64541 0.09891 0.8959 0.0
C630 C 0.6609 0.12788 0.05439 0.0
H631 H 0.76895 0.09327 0.1694 0.0
H632 H 0.74569 0.11887 0.09848 0.0
H633 H 0.67464 0.12544 0.15668 0.0
H634 H 0.58738 0.12559 0.94045 0.0
H635 H 0.62197 0.14348 0.98154 0.0
H636 H 0.68988 0.11688 0.9056 0.0
C637 C 0.73752 0.10586 0.12916 0.0
C638 C 0.67837 0.12441 0.10179 0.0
C639 C 0.75079 0.09105 0.16919 0.0
C640 C 0.60347 0.11826 0.92602 0.0
C641 C 0.62333 0.12842 0.95002 0.0
C642 C 0.68648 0.11949 0.96013 0.0
C643 C 0.71391 0.10349 0.12785 0.0
C644 C 0.69946 0.11646 0.07922 0.0
C645 C 0.64445 0.11806 0.93898 0.0
C646 C 0.6643 0.12364 0.9834 0.0
H647 H 0.7084 0.05756 0.23189 0.0
H648 H 0.68572 0.08359 0.16573 0.0
H649 H 0.72015 0.10989 0.98899 0.0
H650 H 0.62692 0.07344 0.8418 0.0
H651 H 0.66122 0.09029 0.88602 0.0
C652 C 0.40358 0.753 0.26856 0.0
C653 C 0.42093 0.76488 0.23469 0.0
C654 C 0.39053 0.73727 0.2324 0.0
C655 C 0.38261 0.71043 0.05797 0.0
H656 H 0.39124 0.65538 0.16457 0.0
C657 C 0.41726 0.62943 0.94357 0.0
C658 C 0.41298 0.60843 0.97521 0.0
C659 C 0.40702 0.64906 0.96833 0.0
C660 C 0.38798 0.67046 0.1341 0.0
H661 H 0.43657 0.77156 0.13523 0.0
H662 H 0.41425 0.74399 0.07248 0.0
H663 H 0.39221 0.69141 0.22262 0.0
H664 H 0.39299 0.59121 0.05329 0.0
H665 H 0.37501 0.62558 0.09669 0.0
H666 H 0.37999 0.68921 0.96853 0.0
C667 C 0.41036 0.74685 0.12658 0.0
C668 C 0.38851 0.69129 0.16763 0.0
C669 C 0.42327 0.76268 0.16264 0.0
C670 C 0.39695 0.60724 0.02882 0.0
C671 C 0.38661 0.6269 0.05347 0.0
C672 C 0.38206 0.68952 0.02432 0.0
C673 C 0.39481 0.73299 0.16194 0.0
C674 C 0.38711 0.71157 0.12947 0.0
C675 C 0.39223 0.64815 0.02528 0.0
C676 C 0.38602 0.66939 0.06159 0.0
H677 H 0.4012 0.75469 0.32399 0.0
H678 H 0.3783 0.72726 0.26078 0.0
H679 H 0.38099 0.72573 0.0273 0.0
H680 H 0.42967 0.63098 0.9026 0.0
H681 H 0.41205 0.6651 0.94596 0.0
C682 C 0.75691 0.42525 0.16763 0.0
C683 C 0.76645 0.44224 0.20967 0.0
C684 C 0.77077 0.41145 0.12653 0.0
C685 C 0.83009 0.39354 0.10352 0.0
H686 H 0.82351 0.41048 0.91038 0.0
C687 C 0.90876 0.40916 0.94657 0.0
C688 C 0.90813 0.4317 0.92344 0.0
C689 C 0.88865 0.39783 0.96281 0.0
C690 C 0.82547 0.40508 0.96377 0.0
H691 H 0.79826 0.45793 0.23982 0.0
H692 H 0.8219 0.43346 0.17223 0.0
H693 H 0.79103 0.41301 0.98776 0.0
H694 H 0.88626 0.45925 0.8918 0.0
H695 H 0.85144 0.43994 0.92095 0.0
H696 H 0.86504 0.38839 0.08232 0.0
C697 C 0.80381 0.43053 0.17161 0.0
C698 C 0.80678 0.40629 0.00789 0.0
C699 C 0.79012 0.44458 0.21082 0.0
C700 C 0.88716 0.442 0.91085 0.0
C701 C 0.86717 0.43071 0.92651 0.0
C702 C 0.84877 0.39246 0.05965 0.0
C703 C 0.79436 0.41404 0.1284 0.0
C704 C 0.80952 0.40243 0.07921 0.0
C705 C 0.86766 0.40885 0.95557 0.0
C706 C 0.84706 0.40019 0.99081 0.0
H707 H 0.73879 0.42281 0.16566 0.0
H708 H 0.76312 0.39905 0.09268 0.0
H709 H 0.83248 0.39019 0.15832 0.0
H710 H 0.92478 0.40081 0.9561 0.0
H711 H 0.88959 0.38094 0.98464 0.0
C712 C 0.01199 0.24643 0.02307 0.0
C713 C 0.03269 0.25715 0.00922 0.0
C714 C 1.00587 0.22666 0.98741 0.0
C715 C 0.02252 0.18846 0.83992 0.0
H716 H 0.99892 0.14154 0.96044 0.0
C717 C 1.00578 0.09696 0.74158 0.0
C718 C 1.01033 0.07892 0.78744 0.0
C719 C 1.00653 0.11946 0.7644 0.0
C720 C 1.00569 0.15435 0.92601 0.0
H721 H 0.06246 0.25644 0.94431 0.0
H722 H 0.0519 0.22235 0.88203 0.0
H723 H 1.00263 0.17993 1.00361 0.0
H724 H 0.01962 0.0707 0.8934 0.0
H725 H 0.02143 0.10974 0.9326 0.0
H726 H 0.02656 0.16262 0.76338 0.0
C727 C 0.04015 0.22907 0.91969 0.0
C728 C 1.00744 0.17658 0.9505 0.0
C729 C 0.04621 0.24875 0.95523 0.0
C730 C 0.01591 0.08407 0.85653 0.0
C731 C 0.01675 0.10656 0.87925 0.0
C732 C 0.02084 0.16619 0.8155 0.0
C733 C 0.02035 0.21715 0.9372 0.0
C734 C 0.01617 0.19397 0.9082 0.0
C735 C 0.01193 0.12464 0.83371 0.0
C736 C 0.01269 0.14869 0.85848 0.0
H737 H 1.00142 0.25228 0.0652 0.0
H738 H 0.99026 0.21828 1.00148 0.0
H739 H 0.02908 0.20133 0.80533 0.0
H740 H 1.00134 0.09372 0.68803 0.0
H741 H 1.00246 0.13279 0.72778 0.0
C742 C 0.26641 0.97189 0.97898 0.0
C743 C 0.25747 0.98705 0.02778 0.0
C744 C 0.28501 0.97783 0.93833 0.0
C745 C 0.33421 0.01653 0.94268 0.0
H746 H 0.34723 0.98776 0.76699 0.0
C747 C 0.42565 1.00757 0.84307 0.0
C748 C 0.42992 1.00773 0.77139 0.0
C749 C 0.40348 1.00773 0.86834 0.0
C750 C 0.34389 0.99628 0.81549 0.0
H751 H 0.26 0.02102 0.06837 0.0
H752 H 0.29211 0.03185 0.99533 0.0
H753 H 0.30953 0.98504 0.81592 0.0
H754 H 0.41409 1.0085 0.67002 0.0
H755 H 0.37543 1.00945 0.71392 0.0
H756 H 0.3684 0.02825 0.94144 0.0
C757 C 0.28511 0.01504 0.9899 0.0
C758 C 0.32222 0.99444 0.8442 0.0
C759 C 0.26646 1.009 0.03105 0.0
C760 C 0.41142 1.00822 0.72556 0.0
C761 C 0.3892 1.00866 0.75088 0.0
C762 C 0.3558 0.0186 0.91357 0.0
C763 C 0.29517 0.99924 0.94471 0.0
C764 C 0.31719 1.00402 0.90916 0.0
C765 C 0.38487 1.00835 0.82275 0.0
C766 C 0.36118 1.008 0.85039 0.0
H767 H 0.25978 0.95486 0.97509 0.0
H768 H 0.29221 0.96502 0.90499 0.0
H769 H 0.33122 0.02403 0.99295 0.0
H770 H 0.43945 1.00698 0.87998 0.0
H771 H 0.40102 1.00692 0.92389 0.0
C772 C 0.49199 0.27519 0.0169 0.0
C773 C 0.5134 0.26492 0.01303 0.0
C774 C 0.4872 0.29469 0.97753 0.0
C775 C 0.51649 0.3444 0.93146 0.0
H776 H 0.47002 0.36051 0.79808 0.0
C777 C 0.49455 0.43707 0.86141 0.0
C778 C 0.49656 0.4425 0.79063 0.0
C779 C 0.49471 0.41448 0.88361 0.0
C780 C 0.48305 0.35618 0.83535 0.0
H781 H 0.54572 0.26567 0.96058 0.0
H782 H 0.53741 0.29962 0.89248 0.0
H783 H 0.47286 0.32122 0.84088 0.0
H784 H 0.49961 0.42833 0.6875 0.0
H785 H 0.4992 0.38878 0.72648 0.0
H786 H 0.52635 0.37927 0.9279 0.0
C787 C 0.52435 0.29265 0.92558 0.0
C788 C 0.48462 0.3338 0.85983 0.0
C789 C 0.52901 0.27311 0.96403 0.0
C790 C 0.49809 0.42474 0.74241 0.0
C791 C 0.49773 0.40211 0.76458 0.0
C792 C 0.51459 0.36677 0.9084 0.0
C793 C 0.50383 0.30421 0.93434 0.0
C794 C 0.50151 0.32771 0.90768 0.0
C795 C 0.49637 0.39677 0.83551 0.0
C796 C 0.49794 0.37291 0.8599 0.0
H797 H 0.47984 0.26952 0.05514 0.0
H798 H 0.47128 0.30338 0.98537 0.0
H799 H 0.52957 0.34016 0.9687 0.0
H800 H 0.49344 0.45029 0.89998 0.0
H801 H 0.49362 0.41083 0.93859 0.0
C802 C 0.24412 0.54845 0.9473 0.0
C803 C 0.25224 0.53526 1.0028 0.0
C804 C 0.22534 0.54157 0.90872 0.0
C805 C 0.17446 0.50529 0.92896 0.0
H806 H 0.16147 0.52847 0.74499 0.0
C807 C 0.08263 0.51367 0.83006 0.0
C808 C 0.07792 0.51201 0.75878 0.0
C809 C 0.10494 0.51348 0.85448 0.0
C810 C 0.16475 0.52149 0.79597 0.0
H811 H 0.24818 0.50354 0.05754 0.0
H812 H 0.21594 0.49084 0.98801 0.0
H813 H 0.19951 0.5313 0.79123 0.0
H814 H 0.09319 0.5084 0.65737 0.0
H815 H 0.13203 0.50723 0.6999 0.0
H816 H 0.1399 0.49481 0.93286 0.0
C817 C 0.22362 0.50696 0.97565 0.0
C818 C 0.18667 0.52343 0.82312 0.0
C819 C 0.24241 0.51399 0.01478 0.0
C820 C 0.09617 0.50987 0.71258 0.0
C821 C 0.11853 0.50933 0.73713 0.0
C822 C 0.15263 0.50304 0.90141 0.0
C823 C 0.21419 0.52112 0.92396 0.0
C824 C 0.19176 0.51594 0.89085 0.0
C825 C 0.12331 0.51126 0.80855 0.0
C826 C 0.14722 0.51165 0.83517 0.0
H827 H 0.2513 0.56498 0.93702 0.0
H828 H 0.21873 0.55317 0.87017 0.0
H829 H 0.17742 0.49943 0.98142 0.0
H830 H 0.06906 0.51558 0.86724 0.0
H831 H 0.1077 0.51559 0.90955 0.0
C832 C 0.0403 0.77743 0.44192 0.0
C833 C 0.02759 0.7694 0.38553 0.0
C834 C 0.03306 0.79611 0.48017 0.0
C835 C 0.99646 0.84695 0.4597 0.0
H836 H 0.01781 0.85872 0.64606 0.0
C837 C 1.00199 0.93813 0.56588 0.0
C838 C 0.99982 0.94207 0.63741 0.0
C839 C 1.00242 0.91606 0.53966 0.0
C840 C 0.01132 0.85578 0.59439 0.0
H841 H 0.99637 0.77363 0.32851 0.0
H842 H 0.98301 0.80573 0.39741 0.0
H843 H 0.02164 0.82112 0.59779 0.0
H844 H 0.99592 0.92568 0.73735 0.0
H845 H 0.99578 0.88728 0.69171 0.0
H846 H 0.98543 0.8814 0.45715 0.0
C847 C 0.99905 0.79802 0.4108 0.0
C848 C 0.01386 0.83412 0.56606 0.0
C849 C 1.00645 0.77931 0.372 0.0
C850 C 0.99777 0.9233 0.68199 0.0
C851 C 0.99783 0.90119 0.65565 0.0
C852 C 0.9936 0.86853 0.48841 0.0
C853 C 0.01269 0.80728 0.46375 0.0
C854 C 1.00702 0.82946 0.49755 0.0
C855 C 1.00034 0.89716 0.584 0.0
C856 C 1.0015 0.87351 0.55564 0.0
H857 H 0.05674 0.7702 0.45337 0.0
H858 H 0.0443 0.80261 0.51964 0.0
H859 H 0.99109 0.84433 0.40668 0.0
H860 H 1.00387 0.95213 0.52996 0.0
H861 H 1.00493 0.91392 0.48452 0.0
C862 C 0.74017 0.02336 0.45082 0.0
C863 C 0.74267 0.01356 0.38513 0.0
C864 C 0.72156 0.01792 0.49249 0.0
C865 C 0.67013 0.98083 0.50606 0.0
H866 H 0.64322 0.03539 0.58046 0.0
C867 C 0.57464 0.98864 0.57079 0.0
C868 C 0.56833 1.00117 0.62958 0.0
C869 C 0.59726 0.98777 0.54937 0.0
C870 C 0.65058 0.01988 0.56107 0.0
H871 H 0.72854 0.98948 0.31311 0.0
H872 H 0.69607 0.97995 0.38523 0.0
H873 H 0.68103 0.03677 0.53208 0.0
H874 H 0.58117 0.02225 0.71268 0.0
H875 H 0.62047 0.02071 0.67534 0.0
H876 H 0.63914 0.9642 0.53321 0.0
C877 C 0.70856 0.99152 0.40568 0.0
C878 C 0.67242 0.02063 0.53345 0.0
C879 C 0.7273 0.99682 0.36436 0.0
C880 C 0.5853 0.01252 0.66695 0.0
C881 C 0.60789 0.01171 0.64537 0.0
C882 C 0.64819 0.98011 0.53348 0.0
C883 C 0.70483 1.00286 0.46877 0.0
C884 C 0.68247 1.00118 0.50481 0.0
C885 C 0.61416 0.99947 0.58598 0.0
C886 C 0.63802 0.99971 0.56064 0.0
H887 H 0.75156 0.03662 0.46738 0.0
H888 H 0.71961 0.02658 0.54147 0.0
H889 H 0.67735 0.96544 0.48527 0.0
H890 H 0.56209 0.97965 0.54071 0.0
H891 H 0.60139 0.9784 0.50296 0.0
C892 C 0.50164 0.74727 0.40237 0.0
C893 C 0.48013 0.75664 0.41338 0.0
C894 C 0.50875 0.72828 0.44072 0.0
C895 C 0.49227 0.69009 0.5898 0.0
H896 H 0.52128 0.64418 0.47813 0.0
C897 C 0.5067 0.5992 0.696 0.0
C898 C 0.50438 0.58119 0.64914 0.0
C899 C 0.50714 0.62167 0.67235 0.0
C900 C 0.51297 0.65668 0.51006 0.0
H901 H 0.44999 0.75469 0.47655 0.0
H902 H 0.462 0.72178 0.54226 0.0
H903 H 0.51648 0.68207 0.4316 0.0
H904 H 0.50044 0.5728 0.54051 0.0
H905 H 0.5003 0.61172 0.49959 0.0
H906 H 0.48735 0.66434 0.66637 0.0
C907 C 0.4737 0.72891 0.50505 0.0
C908 C 0.5106 0.67869 0.48373 0.0
C909 C 0.46672 0.74786 0.46717 0.0
C910 C 0.50246 0.58621 0.57809 0.0
C911 C 0.50257 0.60865 0.55452 0.0
C912 C 0.49435 0.66802 0.61575 0.0
C913 C 0.49445 0.71824 0.49065 0.0
C914 C 0.4998 0.69566 0.5226 0.0
C915 C 0.50493 0.62678 0.6012 0.0
C916 C 0.50435 0.65082 0.57579 0.0
H917 H 0.51225 0.75357 0.36085 0.0
H918 H 0.52507 0.72091 0.42909 0.0
H919 H 0.48425 0.70269 0.62211 0.0
H920 H 0.50838 0.59596 0.75108 0.0
H921 H 0.50936 0.63499 0.71005 0.0
C922 C 0.76952 0.48357 0.45721 0.0
C923 C 0.76264 0.49702 0.40067 0.0
C924 C 0.7888 0.48918 0.49544 0.0
C925 C 0.83207 0.53125 0.53795 0.0
H926 H 0.87433 0.48165 0.5134 0.0
C927 C 0.92175 0.52268 0.668 0.0
C928 C 0.93953 0.51866 0.62119 0.0
C929 C 0.89918 0.52247 0.64543 0.0
C930 C 0.86271 0.49561 0.5208 0.0
H931 H 0.76917 0.52808 0.3446 0.0
H932 H 0.8025 0.53843 0.41354 0.0
H933 H 0.83529 0.47773 0.47355 0.0
H934 H 0.94747 0.51126 0.51393 0.0
H935 H 0.90807 0.5101 0.47528 0.0
H936 H 0.85967 0.54895 0.58631 0.0
C937 C 0.79305 0.52341 0.42761 0.0
C938 C 0.84034 0.49333 0.49847 0.0
C939 C 0.77383 0.51763 0.38863 0.0
C940 C 0.93422 0.51454 0.55128 0.0
C941 C 0.91167 0.5138 0.52914 0.0
C942 C 0.85443 0.53334 0.56192 0.0
C943 C 0.80143 0.50854 0.47867 0.0
C944 C 0.82478 0.51113 0.50639 0.0
C945 C 0.89392 0.51769 0.57598 0.0
C946 C 0.87001 0.51559 0.55283 0.0
H947 H 0.76137 0.46747 0.46711 0.0
H948 H 0.79476 0.47754 0.53496 0.0
H949 H 0.82045 0.54525 0.5444 0.0
H950 H 0.92526 0.52598 0.72215 0.0
H951 H 0.88581 0.52539 0.68266 0.0
loop_
_geom_bond_atom_site_label_1
_geom_bond_atom_site_label_2
_geom_bond_distance
_geom_bond_site_symmetry_2
_ccdc_geom_bond_type
H0 C3 0.931 . S
H1 C6 0.928 . S
H2 C8 0.930 . S
C3 H0 0.931 . S
C3 C4 1.413 . S
C3 C5 1.360 . S
C4 C3 1.413 . S
C4 C8 1.429 . S
C5 C3 1.360 . S
C5 C6 1.372 . S
C6 H1 0.928 . S
C6 C5 1.372 . S
C6 C7 1.404 . S
C7 C6 1.404 . S
C7 C8 1.391 . S
C8 H2 0.930 . S
C8 C4 1.429 . S
C8 C7 1.391 . S
H9 C12 0.931 . S
H10 C15 0.928 . S
H11 C17 0.930 . S
C12 H9 0.931 . S
C12 C13 1.413 . S
C12 C14 1.360 . S
C13 C12 1.413 . S
C13 C17 1.429 1_655 S
C14 C12 1.360 . S
C14 C15 1.372 . S
C15 H10 0.928 . S
C15 C14 1.372 . S
C15 C16 1.404 . S
C16 C15 1.404 . S
C16 C17 1.390 1_655 S
C17 H11 0.930 . S
C17 C13 1.429 1_455 S
C17 C16 1.390 1_455 S
H18 C21 0.931 . S
H19 C24 0.928 . S
H20 C26 0.930 . S
C21 H18 0.931 . S
C21 C22 1.413 . S
C21 C23 1.360 . S
C22 C21 1.413 . S
C22 C26 1.429 1_565 S
C23 C21 1.360 . S
C23 C24 1.372 . S
C24 H19 0.928 . S
C24 C23 1.372 . S
C24 C25 1.404 . S
C25 C24 1.404 . S
C25 C26 1.390 1_565 S
C26 H20 0.930 . S
C26 C22 1.429 1_545 S
C26 C25 1.390 1_545 S
H27 C30 0.931 . S
H28 C33 0.928 . S
H29 C35 0.930 . S
C30 H27 0.931 . S
C30 C31 1.413 . S
C30 C32 1.360 . S
C31 C30 1.413 . S
C31 C35 1.429 . S
C32 C30 1.360 . S
C32 C33 1.372 . S
C33 H28 0.928 . S
C33 C32 1.372 . S
C33 C34 1.404 . S
C34 C33 1.404 . S
C34 C35 1.391 . S
C35 H29 0.930 . S
C35 C31 1.429 . S
C35 C34 1.391 . S
H36 C39 0.931 . S
H37 C42 0.928 . S
H38 C44 0.930 1_556 S
C39 H36 0.931 . S
C39 C40 1.413 1_554 S
C39 C41 1.360 . S
C40 C39 1.413 1_556 S
C40 C44 1.429 1_556 S
C41 C39 1.360 . S
C41 C42 1.372 . S
C42 H37 0.928 . S
C42 C41 1.372 . S
C42 C43 1.404 . S
C43 C42 1.404 . S
C43 C44 1.391 . S
C44 H38 0.930 1_554 S
C44 C40 1.429 1_554 S
C44 C43 1.391 . S
H45 C48 0.931 . S
H46 C51 0.928 . S
H47 C53 0.930 1_556 S
C48 H45 0.931 . S
C48 C49 1.413 1_554 S
C48 C50 1.360 . S
C49 C48 1.413 1_556 S
C49 C53 1.429 1_656 S
C50 C48 1.360 . S
C50 C51 1.372 . S
C51 H46 0.928 . S
C51 C50 1.372 . S
C51 C52 1.404 . S
C52 C51 1.404 . S
C52 C53 1.391 1_655 S
C53 H47 0.930 1_554 S
C53 C49 1.429 1_454 S
C53 C52 1.391 1_455 S
H54 C57 0.931 . S
H55 C60 0.928 . S
H56 C62 0.930 1_556 S
C57 H54 0.931 . S
C57 C58 1.413 1_554 S
C57 C59 1.360 . S
C58 C57 1.413 1_556 S
C58 C62 1.429 1_566 S
C59 C57 1.360 . S
C59 C60 1.372 . S
C60 H55 0.928 . S
C60 C59 1.372 . S
C60 C61 1.404 . S
C61 C60 1.404 . S
C61 C62 1.391 1_565 S
C62 H56 0.930 1_554 S
C62 C58 1.429 1_544 S
C62 C61 1.391 1_545 S
H63 C66 0.931 . S
H64 C69 0.924 1_556 S
H65 C71 0.930 . S
C66 H63 0.931 . S
C66 C67 1.413 . S
C66 C68 1.360 1_554 S
C67 C66 1.413 . S
C67 C71 1.429 . S
C68 C66 1.360 1_556 S
C68 C69 1.371 1_556 S
C69 H64 0.924 1_554 S
C69 C68 1.371 1_554 S
C69 C70 1.409 . S
C70 C69 1.409 . S
C70 C71 1.391 . S
C71 H65 0.930 . S
C71 C67 1.429 . S
C71 C70 1.391 . S
C72 Eu73 2.835 . S
C72 C74 1.500 . S
C72 O92 1.257 . S
C72 O93 1.260 . S
Eu73 C72 2.835 . S
Eu73 O92 2.473 . S
Eu73 O93 2.480 . S
Eu73 O94 2.430 . S
Eu73 O95 2.670 1_545 S
Eu73 O96 2.394 . S
Eu73 O101 2.355 1_655 S
Eu73 O103 2.374 1_545 S
C74 C72 1.500 . S
C74 C75 1.377 . S
C74 C79 1.377 . S
C75 C74 1.377 . S
C75 C76 1.395 . S
C75 H104 0.931 . S
C76 C75 1.395 . S
C76 C77 1.383 . S
C76 H105 0.931 . S
C77 C76 1.383 . S
C77 C78 1.394 . S
C78 C77 1.394 . S
C78 C79 1.378 . S
C78 H106 0.931 1_655 S
C79 C74 1.377 . S
C79 C78 1.378 . S
C79 H107 0.931 1_655 S
C80 O94 1.259 . S
C80 O95 1.270 1_545 S
C81 O96 1.251 1_455 S
C81 O97 1.251 . S
C82 Eu83 2.835 . S
C82 C84 1.500 . S
C82 O98 1.257 . S
C82 O99 1.260 . S
Eu83 C82 2.835 . S
Eu83 O95 2.355 1_455 S
Eu83 O97 2.374 1_565 S
Eu83 O98 2.473 . S
Eu83 O99 2.480 . S
Eu83 O100 2.430 . S
Eu83 O101 2.670 1_565 S
Eu83 O102 2.394 . S
C84 C82 1.500 . S
C84 C85 1.377 . S
C84 C89 1.377 . S
C85 C84 1.377 . S
C85 C86 1.395 . S
C85 H108 0.931 . S
C86 C85 1.395 . S
C86 C87 1.383 . S
C86 H109 0.931 . S
C87 C86 1.383 . S
C87 C88 1.394 . S
C88 C87 1.394 . S
C88 C89 1.378 . S
C88 H110 0.931 1_455 S
C89 C84 1.377 . S
C89 C88 1.378 . S
C89 H111 0.931 1_455 S
C90 O100 1.280 . S
C90 O101 1.255 1_565 S
C91 O102 1.251 1_655 S
C91 O103 1.251 . S
O92 C72 1.257 . S
O92 Eu73 2.473 . S
O93 C72 1.260 . S
O93 Eu73 2.480 . S
O94 Eu73 2.430 . S
O94 C80 1.259 . S
O95 Eu73 2.670 1_565 S
O95 C80 1.270 1_565 S
O95 Eu83 2.355 1_655 S
O96 Eu73 2.394 . S
O96 C81 1.251 1_655 S
O97 C81 1.251 . S
O97 Eu83 2.374 1_545 S
O98 C82 1.257 . S
O98 Eu83 2.473 . S
O99 C82 1.260 . S
O99 Eu83 2.480 . S
O100 Eu83 2.430 . S
O100 C90 1.280 . S
O101 Eu73 2.355 1_455 S
O101 Eu83 2.670 1_545 S
O101 C90 1.255 1_545 S
O102 Eu83 2.394 . S
O102 C91 1.251 1_455 S
O103 Eu73 2.374 1_565 S
O103 C91 1.251 . S
H104 C75 0.931 . S
H105 C76 0.931 . S
H106 C78 0.931 1_455 S
H107 C79 0.931 1_455 S
H108 C85 0.931 . S
H109 C86 0.931 . S
H110 C88 0.931 1_655 S
H111 C89 0.931 1_655 S
C112 Eu113 2.835 . S
C112 C114 1.500 . S
C112 O132 1.257 . S
C112 O133 1.260 . S
Eu113 C112 2.835 . S
Eu113 O132 2.473 . S
Eu113 O133 2.480 . S
Eu113 O134 2.430 . S
Eu113 O135 2.670 . S
Eu113 O136 2.394 . S
Eu113 O141 2.355 1_565 S
Eu113 O143 2.374 . S
C114 C112 1.500 . S
C114 C115 1.377 . S
C114 C119 1.377 . S
C115 C114 1.377 . S
C115 C116 1.395 . S
C115 H144 0.931 . S
C116 C115 1.395 . S
C116 C117 1.383 . S
C116 H145 0.931 . S
C117 C116 1.383 . S
C117 C118 1.394 . S
C118 C117 1.394 . S
C118 C119 1.378 . S
C118 H146 0.931 1_565 S
C119 C114 1.377 . S
C119 C118 1.378 . S
C119 H147 0.931 1_565 S
C120 O134 1.259 . S
C120 O135 1.270 . S
C121 O136 1.251 1_545 S
C121 O137 1.251 . S
C122 Eu123 2.835 . S
C122 C124 1.500 . S
C122 O138 1.257 . S
C122 O139 1.260 . S
Eu123 C122 2.835 . S
Eu123 O135 2.355 1_545 S
Eu123 O137 2.374 . S
Eu123 O138 2.473 . S
Eu123 O139 2.480 . S
Eu123 O140 2.430 . S
Eu123 O141 2.670 . S
Eu123 O142 2.394 . S
C124 C122 1.500 . S
C124 C125 1.377 . S
C124 C129 1.377 . S
C125 C124 1.377 . S
C125 C126 1.395 . S
C125 H148 0.931 . S
C126 C125 1.395 . S
C126 C127 1.383 . S
C126 H149 0.931 . S
C127 C126 1.383 . S
C127 C128 1.394 . S
C128 C127 1.394 . S
C128 C129 1.378 . S
C128 H150 0.931 1_545 S
C129 C124 1.377 . S
C129 C128 1.378 . S
C129 H151 0.931 1_545 S
C130 O140 1.259 . S
C130 O141 1.270 . S
C131 O142 1.251 1_565 S
C131 O143 1.251 . S
O132 C112 1.257 . S
O132 Eu113 2.473 . S
O133 C112 1.260 . S
O133 Eu113 2.480 . S
O134 Eu113 2.430 . S
O134 C120 1.259 . S
O135 Eu113 2.670 . S
O135 C120 1.270 . S
O135 Eu123 2.355 1_565 S
O136 Eu113 2.394 . S
O136 C121 1.251 1_565 S
O137 C121 1.251 . S
O137 Eu123 2.374 . S
O138 C122 1.257 . S
O138 Eu123 2.473 . S
O139 C122 1.260 . S
O139 Eu123 2.480 . S
O140 Eu123 2.430 . S
O140 C130 1.259 . S
O141 Eu113 2.355 1_545 S
O141 Eu123 2.670 . S
O141 C130 1.270 . S
O142 Eu123 2.394 . S
O142 C131 1.251 1_545 S
O143 Eu113 2.374 . S
O143 C131 1.251 . S
H144 C115 0.931 . S
H145 C116 0.931 . S
H146 C118 0.931 1_545 S
H147 C119 0.931 1_545 S
H148 C125 0.931 . S
H149 C126 0.931 . S
H150 C128 0.931 1_565 S
H151 C129 0.931 1_565 S
C152 Eu153 2.835 . S
C152 C154 1.500 . S
C152 O172 1.257 . S
C152 O173 1.260 . S
Eu153 C152 2.835 . S
Eu153 O172 2.473 . S
Eu153 O173 2.480 . S
Eu153 O174 2.430 . S
Eu153 O175 2.670 . S
Eu153 O176 2.394 . S
Eu153 O181 2.355 . S
Eu153 O183 2.374 . S
C154 C152 1.500 . S
C154 C155 1.377 . S
C154 C159 1.377 . S
C155 C154 1.377 . S
C155 C156 1.395 . S
C155 H184 0.931 . S
C156 C155 1.395 . S
C156 C157 1.383 . S
C156 H185 0.931 . S
C157 C156 1.383 . S
C157 C158 1.394 . S
C158 C157 1.394 . S
C158 C159 1.378 . S
C158 H186 0.931 . S
C159 C154 1.377 . S
C159 C158 1.378 . S
C159 H187 0.931 . S
C160 O174 1.259 . S
C160 O175 1.270 . S
C161 O176 1.251 . S
C161 O177 1.251 . S
C162 Eu163 2.835 . S
C162 C164 1.500 . S
C162 O178 1.257 . S
C162 O179 1.260 . S
Eu163 C162 2.835 . S
Eu163 O175 2.355 . S
Eu163 O177 2.374 . S
Eu163 O178 2.473 . S
Eu163 O179 2.480 . S
Eu163 O180 2.430 . S
Eu163 O181 2.670 . S
Eu163 O182 2.394 . S
C164 C162 1.500 . S
C164 C165 1.377 . S
C164 C169 1.377 . S
C165 C164 1.377 . S
C165 C166 1.395 . S
C165 H188 0.931 . S
C166 C165 1.395 . S
C166 C167 1.383 . S
C166 H189 0.931 . S
C167 C166 1.383 . S
C167 C168 1.394 . S
C168 C167 1.394 . S
C168 C169 1.378 . S
C168 H190 0.931 . S
C169 C164 1.377 . S
C169 C168 1.378 . S
C169 H191 0.931 . S
C170 O180 1.259 . S
C170 O181 1.270 . S
C171 O182 1.251 . S
C171 O183 1.251 . S
O172 C152 1.257 . S
O172 Eu153 2.473 . S
O173 C152 1.260 . S
O173 Eu153 2.480 . S
O174 Eu153 2.430 . S
O174 C160 1.259 . S
O175 Eu153 2.670 . S
O175 C160 1.270 . S
O175 Eu163 2.355 . S
O176 Eu153 2.394 . S
O176 C161 1.251 . S
O177 C161 1.251 . S
O177 Eu163 2.374 . S
O178 C162 1.257 . S
O178 Eu163 2.473 . S
O179 C162 1.260 . S
O179 Eu163 2.480 . S
O180 Eu163 2.430 . S
O180 C170 1.259 . S
O181 Eu153 2.355 . S
O181 Eu163 2.670 . S
O181 C170 1.270 . S
O182 Eu163 2.394 . S
O182 C171 1.251 . S
O183 Eu153 2.374 . S
O183 C171 1.251 . S
H184 C155 0.931 . S
H185 C156 0.931 . S
H186 C158 0.931 . S
H187 C159 0.931 . S
H188 C165 0.931 . S
H189 C166 0.931 . S
H190 C168 0.931 . S
H191 C169 0.931 . S
C192 Eu193 2.835 . S
C192 C194 1.500 . S
C192 O212 1.257 . S
C192 O213 1.260 . S
Eu193 C192 2.835 . S
Eu193 O212 2.473 . S
Eu193 O213 2.480 . S
Eu193 O214 2.430 . S
Eu193 O215 2.670 1_455 S
Eu193 O216 2.394 . S
Eu193 O221 2.355 . S
Eu193 O223 2.374 1_455 S
C194 C192 1.500 . S
C194 C195 1.377 . S
C194 C199 1.377 . S
C195 C194 1.377 . S
C195 C196 1.395 . S
C195 H224 0.931 . S
C196 C195 1.395 . S
C196 C197 1.383 . S
C196 H225 0.931 . S
C197 C196 1.383 . S
C197 C198 1.394 . S
C198 C197 1.394 . S
C198 C199 1.378 . S
C198 H226 0.931 . S
C199 C194 1.377 . S
C199 C198 1.378 . S
C199 H227 0.931 . S
C200 O214 1.268 . S
C200 O215 1.263 1_455 S
C201 O216 1.251 . S
C201 O217 1.251 . S
C202 Eu203 2.835 . S
C202 C204 1.500 . S
C202 O218 1.257 . S
C202 O219 1.260 . S
Eu203 C202 2.835 . S
Eu203 O215 2.355 . S
Eu203 O217 2.374 1_655 S
Eu203 O218 2.473 . S
Eu203 O219 2.480 . S
Eu203 O220 2.430 . S
Eu203 O221 2.670 1_655 S
Eu203 O222 2.394 . S
C204 C202 1.500 . S
C204 C205 1.377 . S
C204 C209 1.377 . S
C205 C204 1.377 . S
C205 C206 1.395 . S
C205 H228 0.931 . S
C206 C205 1.395 . S
C206 C207 1.383 . S
C206 H229 0.931 . S
C207 C206 1.383 . S
C207 C208 1.394 . S
C208 C207 1.394 . S
C208 C209 1.378 . S
C208 H230 0.931 . S
C209 C204 1.377 . S
C209 C208 1.378 . S
C209 H231 0.931 . S
C210 O220 1.262 . S
C210 O221 1.268 1_655 S
C211 O222 1.251 . S
C211 O223 1.251 . S
O212 C192 1.257 . S
O212 Eu193 2.473 . S
O213 C192 1.260 . S
O213 Eu193 2.480 . S
O214 Eu193 2.430 . S
O214 C200 1.268 . S
O215 Eu193 2.670 1_655 S
O215 C200 1.263 1_655 S
O215 Eu203 2.355 . S
O216 Eu193 2.394 . S
O216 C201 1.251 . S
O217 C201 1.251 . S
O217 Eu203 2.374 1_455 S
O218 C202 1.257 . S
O218 Eu203 2.473 . S
O219 C202 1.260 . S
O219 Eu203 2.480 . S
O220 Eu203 2.430 . S
O220 C210 1.262 . S
O221 Eu193 2.355 . S
O221 Eu203 2.670 1_455 S
O221 C210 1.268 1_455 S
O222 Eu203 2.394 . S
O222 C211 1.251 . S
O223 Eu193 2.374 1_655 S
O223 C211 1.251 . S
H224 C195 0.931 . S
H225 C196 0.931 . S
H226 C198 0.931 . S
H227 C199 0.931 . S
H228 C205 0.931 . S
H229 C206 0.931 . S
H230 C208 0.931 . S
H231 C209 0.931 . S
C232 C233 1.350 . S
C232 C234 1.327 . S
C232 H257 0.950 . S
C233 C232 1.350 . S
C233 C249 1.347 1_545 S
C234 C232 1.327 . S
C234 C253 1.434 . S
C234 H258 0.950 . S
C235 C252 1.574 . S
C235 C254 1.360 1_565 S
C235 H259 0.949 . S
H236 C240 0.949 . S
C237 C238 1.332 1_565 S
C237 C239 1.327 . S
C237 H260 0.950 . S
C238 C237 1.332 1_545 S
C238 C250 1.366 . S
C239 C237 1.327 . S
C239 C255 1.416 1_565 S
C239 H261 0.950 . S
C240 H236 0.949 . S
C240 C248 1.574 . S
C240 C256 1.380 . S
H241 C249 0.950 . S
H242 C247 0.950 . S
H243 C248 0.949 . S
H244 C250 0.950 . S
H245 C251 0.950 . S
H246 C252 0.949 . S
C247 H242 0.950 . S
C247 C249 1.327 . S
C247 C253 1.423 1_565 S
C248 C240 1.574 . S
C248 H243 0.949 . S
C248 C254 1.376 . S
C249 C233 1.347 1_565 S
C249 H241 0.950 . S
C249 C247 1.327 . S
C250 C238 1.366 . S
C250 H244 0.950 . S
C250 C251 1.327 . S
C251 H245 0.950 . S
C251 C250 1.327 . S
C251 C255 1.441 . S
C252 C235 1.574 . S
C252 H246 0.949 . S
C252 C256 1.357 1_565 S
C253 C234 1.434 . S
C253 C247 1.423 1_545 S
C253 C254 1.523 . S
C254 C235 1.360 1_545 S
C254 C248 1.376 . S
C254 C253 1.523 . S
C255 C239 1.416 1_545 S
C255 C251 1.441 . S
C255 C256 1.523 . S
C256 C240 1.380 . S
C256 C252 1.357 1_545 S
C256 C255 1.523 . S
H257 C232 0.950 . S
H258 C234 0.950 . S
H259 C235 0.949 . S
H260 C237 0.950 . S
H261 C239 0.950 . S
C262 C263 1.349 . S
C262 C264 1.327 . S
C262 H287 0.950 . S
C263 C262 1.349 . S
C263 C279 1.349 . S
C264 C262 1.327 . S
C264 C283 1.429 . S
C264 H288 0.950 . S
C265 C282 1.574 . S
C265 C284 1.368 . S
C265 H289 0.949 . S
H266 C270 0.949 . S
C267 C268 1.349 . S
C267 C269 1.327 . S
C267 H290 0.950 . S
C268 C267 1.349 . S
C268 C280 1.349 . S
C269 C267 1.327 . S
C269 C285 1.429 . S
C269 H291 0.950 . S
C270 H266 0.949 . S
C270 C278 1.574 . S
C270 C286 1.368 . S
H271 C279 0.950 . S
H272 C277 0.950 . S
H273 C278 0.949 . S
H274 C280 0.950 . S
H275 C281 0.950 . S
H276 C282 0.949 . S
C277 H272 0.950 . S
C277 C279 1.327 . S
C277 C283 1.429 . S
C278 C270 1.574 . S
C278 H273 0.949 . S
C278 C284 1.368 . S
C279 C263 1.349 . S
C279 H271 0.950 . S
C279 C277 1.327 . S
C280 C268 1.349 . S
C280 H274 0.950 . S
C280 C281 1.327 . S
C281 H275 0.950 . S
C281 C280 1.327 . S
C281 C285 1.429 . S
C282 C265 1.574 . S
C282 H276 0.949 . S
C282 C286 1.368 . S
C283 C264 1.429 . S
C283 C277 1.429 . S
C283 C284 1.523 . S
C284 C265 1.368 . S
C284 C278 1.368 . S
C284 C283 1.523 . S
C285 C269 1.429 . S
C285 C281 1.429 . S
C285 C286 1.523 . S
C286 C270 1.368 . S
C286 C282 1.368 . S
C286 C285 1.523 . S
H287 C262 0.950 . S
H288 C264 0.950 . S
H289 C265 0.949 . S
H290 C267 0.950 . S
H291 C269 0.950 . S
C292 C293 1.349 . S
C292 C294 1.327 . S
C292 H317 0.950 . S
C293 C292 1.349 . S
C293 C309 1.349 . S
C294 C292 1.327 . S
C294 C313 1.429 . S
C294 H318 0.950 . S
C295 C312 1.574 . S
C295 C314 1.368 . S
C295 H319 0.949 . S
H296 C300 0.949 . S
C297 C298 1.349 . S
C297 C299 1.327 . S
C297 H320 0.950 . S
C298 C297 1.349 . S
C298 C310 1.349 . S
C299 C297 1.327 . S
C299 C315 1.429 . S
C299 H321 0.950 . S
C300 H296 0.949 . S
C300 C308 1.574 . S
C300 C316 1.368 . S
H301 C309 0.950 . S
H302 C307 0.950 . S
H303 C308 0.949 . S
H304 C310 0.950 . S
H305 C311 0.950 . S
H306 C312 0.949 . S
C307 H302 0.950 . S
C307 C309 1.327 . S
C307 C313 1.429 . S
C308 C300 1.574 . S
C308 H303 0.949 . S
C308 C314 1.368 . S
C309 C293 1.349 . S
C309 H301 0.950 . S
C309 C307 1.327 . S
C310 C298 1.349 . S
C310 H304 0.950 . S
C310 C311 1.327 . S
C311 H305 0.950 . S
C311 C310 1.327 . S
C311 C315 1.429 . S
C312 C295 1.574 . S
C312 H306 0.949 . S
C312 C316 1.368 . S
C313 C294 1.429 . S
C313 C307 1.429 . S
C313 C314 1.523 . S
C314 C295 1.368 . S
C314 C308 1.368 . S
C314 C313 1.523 . S
C315 C299 1.429 . S
C315 C311 1.429 . S
C315 C316 1.523 . S
C316 C300 1.368 . S
C316 C312 1.368 . S
C316 C315 1.523 . S
H317 C292 0.950 . S
H318 C294 0.950 . S
H319 C295 0.949 . S
H320 C297 0.950 . S
H321 C299 0.950 . S
C322 C323 1.352 . S
C322 C324 1.327 . S
C322 H347 0.950 . S
C323 C322 1.352 . S
C323 C339 1.346 1_455 S
C324 C322 1.327 . S
C324 C343 1.441 . S
C324 H348 0.950 . S
C325 C342 1.574 . S
C325 C344 1.350 1_655 S
C325 H349 0.949 . S
H326 C330 0.949 . S
C327 C328 1.349 1_655 S
C327 C329 1.327 . S
C327 H350 0.950 . S
C328 C327 1.349 1_455 S
C328 C340 1.349 . S
C329 C327 1.327 . S
C329 C345 1.399 1_655 S
C329 H351 0.950 . S
C330 H326 0.949 . S
C330 C338 1.574 . S
C330 C346 1.396 . S
H331 C339 0.950 . S
H332 C337 0.950 . S
H333 C338 0.949 . S
H334 C340 0.950 . S
H335 C341 0.950 . S
H336 C342 0.949 . S
C337 H332 0.950 . S
C337 C339 1.327 . S
C337 C343 1.417 1_655 S
C338 C330 1.574 . S
C338 H333 0.949 . S
C338 C344 1.387 . S
C339 C323 1.346 1_655 S
C339 H331 0.950 . S
C339 C337 1.327 . S
C340 C328 1.349 . S
C340 H334 0.950 . S
C340 C341 1.327 . S
C341 H335 0.950 . S
C341 C340 1.327 . S
C341 C345 1.459 . S
C342 C325 1.574 . S
C342 H336 0.949 . S
C342 C346 1.341 1_655 S
C343 C324 1.441 . S
C343 C337 1.417 1_455 S
C343 C344 1.523 . S
C344 C325 1.350 1_455 S
C344 C338 1.387 . S
C344 C343 1.523 . S
C345 C329 1.399 1_455 S
C345 C341 1.459 . S
C345 C346 1.523 . S
C346 C330 1.396 . S
C346 C342 1.341 1_455 S
C346 C345 1.523 . S
H347 C322 0.950 . S
H348 C324 0.950 . S
H349 C325 0.949 . S
H350 C327 0.950 . S
H351 C329 0.950 . S
C352 C353 1.350 1_565 S
C352 C354 1.327 . S
C352 H377 0.950 . S
C353 C352 1.350 1_545 S
C353 C369 1.347 . S
C354 C352 1.327 . S
C354 C373 1.425 . S
C354 H378 0.950 . S
C355 C372 1.574 . S
C355 C374 1.369 1_545 S
C355 H379 0.949 . S
H356 C360 0.949 . S
C357 C358 1.340 1_545 S
C357 C359 1.327 . S
C357 H380 0.950 . S
C358 C357 1.340 1_565 S
C358 C370 1.357 . S
C359 C357 1.327 . S
C359 C375 1.424 1_545 S
C359 H381 0.950 . S
C360 H356 0.949 . S
C360 C368 1.574 1_556 S
C360 C376 1.371 . S
H361 C369 0.950 . S
H362 C367 0.950 . S
H363 C368 0.949 . S
H364 C370 0.950 . S
H365 C371 0.950 . S
H366 C372 0.949 . S
C367 H362 0.950 . S
C367 C369 1.327 . S
C367 C373 1.432 1_545 S
C368 C360 1.574 1_554 S
C368 H363 0.949 . S
C368 C374 1.367 . S
C369 C353 1.347 . S
C369 H361 0.950 . S
C369 C367 1.327 . S
C370 C358 1.357 . S
C370 H364 0.950 . S
C370 C371 1.327 . S
C371 H365 0.950 . S
C371 C370 1.327 . S
C371 C375 1.433 . S
C372 C355 1.574 . S
C372 H366 0.949 . S
C372 C376 1.366 1_544 S
C373 C354 1.425 . S
C373 C367 1.432 1_565 S
C373 C374 1.523 . S
C374 C355 1.369 1_565 S
C374 C368 1.367 . S
C374 C373 1.523 . S
C375 C359 1.424 1_565 S
C375 C371 1.433 . S
C375 C376 1.523 . S
C376 C360 1.371 . S
C376 C372 1.366 1_566 S
C376 C375 1.523 . S
H377 C352 0.950 . S
H378 C354 0.950 . S
H379 C355 0.949 . S
H380 C357 0.950 . S
H381 C359 0.950 . S
C382 C383 1.349 . S
C382 C384 1.327 . S
C382 H407 0.950 . S
C383 C382 1.349 . S
C383 C399 1.349 . S
C384 C382 1.327 . S
C384 C403 1.429 . S
C384 H408 0.950 . S
C385 C402 1.574 . S
C385 C404 1.368 . S
C385 H409 0.949 . S
H386 C390 0.949 . S
C387 C388 1.349 . S
C387 C389 1.327 . S
C387 H410 0.950 . S
C388 C387 1.349 . S
C388 C400 1.349 . S
C389 C387 1.327 . S
C389 C405 1.429 . S
C389 H411 0.950 . S
C390 H386 0.949 . S
C390 C398 1.574 1_556 S
C390 C406 1.368 . S
H391 C399 0.950 . S
H392 C397 0.950 . S
H393 C398 0.949 . S
H394 C400 0.950 . S
H395 C401 0.950 . S
H396 C402 0.949 . S
C397 H392 0.950 . S
C397 C399 1.327 . S
C397 C403 1.429 . S
C398 C390 1.574 1_554 S
C398 H393 0.949 . S
C398 C404 1.368 . S
C399 C383 1.349 . S
C399 H391 0.950 . S
C399 C397 1.327 . S
C400 C388 1.349 . S
C400 H394 0.950 . S
C400 C401 1.327 . S
C401 H395 0.950 . S
C401 C400 1.327 . S
C401 C405 1.429 . S
C402 C385 1.574 . S
C402 H396 0.949 . S
C402 C406 1.368 1_554 S
C403 C384 1.429 . S
C403 C397 1.429 . S
C403 C404 1.523 . S
C404 C385 1.368 . S
C404 C398 1.368 . S
C404 C403 1.523 . S
C405 C389 1.429 . S
C405 C401 1.429 . S
C405 C406 1.523 . S
C406 C390 1.368 . S
C406 C402 1.368 1_556 S
C406 C405 1.523 . S
H407 C382 0.950 . S
H408 C384 0.950 . S
H409 C385 0.949 . S
H410 C387 0.950 . S
H411 C389 0.950 . S
C412 C413 1.349 . S
C412 C414 1.327 . S
C412 H437 0.950 . S
C413 C412 1.349 . S
C413 C429 1.349 . S
C414 C412 1.327 . S
C414 C433 1.429 . S
C414 H438 0.950 . S
C415 C432 1.574 . S
C415 C434 1.368 . S
C415 H439 0.949 . S
H416 C420 0.951 . S
C417 C418 1.349 . S
C417 C419 1.327 . S
C417 H440 0.950 . S
C418 C417 1.349 . S
C418 C430 1.349 . S
C419 C417 1.327 . S
C419 C435 1.429 . S
C419 H441 0.950 . S
C420 H416 0.951 . S
C420 C428 1.571 1_556 S
C420 C436 1.368 . S
H421 C429 0.950 . S
H422 C427 0.950 . S
H423 C428 0.949 . S
H424 C430 0.950 . S
H425 C431 0.950 . S
H426 C432 0.949 . S
C427 H422 0.950 . S
C427 C429 1.327 . S
C427 C433 1.429 . S
C428 C420 1.571 1_554 S
C428 H423 0.949 . S
C428 C434 1.368 . S
C429 C413 1.349 . S
C429 H421 0.950 . S
C429 C427 1.327 . S
C430 C418 1.349 . S
C430 H424 0.950 . S
C430 C431 1.327 . S
C431 H425 0.950 . S
C431 C430 1.327 . S
C431 C435 1.429 . S
C432 C415 1.574 . S
C432 H426 0.949 . S
C432 C436 1.360 1_554 S
C433 C414 1.429 . S
C433 C427 1.429 . S
C433 C434 1.523 . S
C434 C415 1.368 . S
C434 C428 1.368 . S
C434 C433 1.523 . S
C435 C419 1.429 . S
C435 C431 1.429 . S
C435 C436 1.534 . S
C436 C420 1.368 . S
C436 C432 1.360 1_556 S
C436 C435 1.534 . S
H437 C412 0.950 . S
H438 C414 0.950 . S
H439 C415 0.949 . S
H440 C417 0.950 . S
H441 C419 0.950 . S
C442 C443 1.352 . S
C442 C444 1.327 . S
C442 H467 0.950 . S
C443 C442 1.352 . S
C443 C459 1.345 1_655 S
C444 C442 1.327 . S
C444 C463 1.441 . S
C444 H468 0.950 . S
C445 C462 1.574 1_554 S
C445 C464 1.349 1_455 S
C445 H469 0.949 . S
H446 C450 0.949 . S
C447 C448 1.349 1_455 S
C447 C449 1.327 . S
C447 H470 0.950 . S
C448 C447 1.349 1_655 S
C448 C460 1.349 . S
C449 C447 1.327 . S
C449 C465 1.398 1_455 S
C449 H471 0.950 . S
C450 H446 0.949 . S
C450 C458 1.574 . S
C450 C466 1.397 1_554 S
H451 C459 0.950 . S
H452 C457 0.950 . S
H453 C458 0.949 . S
H454 C460 0.950 . S
H455 C461 0.950 . S
H456 C462 0.949 . S
C457 H452 0.950 . S
C457 C459 1.327 . S
C457 C463 1.416 1_455 S
C458 C450 1.574 . S
C458 H453 0.949 . S
C458 C464 1.388 . S
C459 C443 1.345 1_455 S
C459 H451 0.950 . S
C459 C457 1.327 . S
C460 C448 1.349 . S
C460 H454 0.950 . S
C460 C461 1.327 . S
C461 H455 0.950 . S
C461 C460 1.327 . S
C461 C465 1.461 . S
C462 C445 1.574 1_556 S
C462 H456 0.949 . S
C462 C466 1.339 1_455 S
C463 C444 1.441 . S
C463 C457 1.416 1_655 S
C463 C464 1.523 . S
C464 C445 1.349 1_655 S
C464 C458 1.388 . S
C464 C463 1.523 . S
C465 C449 1.398 1_655 S
C465 C461 1.461 . S
C465 C466 1.523 . S
C466 C450 1.397 1_556 S
C466 C462 1.339 1_655 S
C466 C465 1.523 . S
H467 C442 0.950 . S
H468 C444 0.950 . S
H469 C445 0.949 . S
H470 C447 0.950 . S
H471 C449 0.950 . S
C472 C473 1.349 1_655 S
C472 C474 1.327 . S
C472 H497 0.950 . S
C473 C472 1.349 1_455 S
C473 C489 1.349 . S
C474 C472 1.327 . S
C474 C493 1.429 . S
C474 H498 0.950 . S
C475 C492 1.574 . S
C475 C494 1.368 . S
C475 H499 0.949 1_655 S
H476 C480 0.949 . S
C477 C478 1.349 . S
C477 C479 1.327 . S
C477 H500 0.950 . S
C478 C477 1.349 . S
C478 C490 1.349 . S
C479 C477 1.327 . S
C479 C495 1.429 . S
C479 H501 0.950 . S
C480 H476 0.949 . S
C480 C488 1.574 . S
C480 C496 1.368 . S
H481 C489 0.950 . S
H482 C487 0.950 . S
H483 C488 0.949 . S
H484 C490 0.950 . S
H485 C491 0.950 . S
H486 C492 0.949 . S
C487 H482 0.950 . S
C487 C489 1.327 . S
C487 C493 1.429 1_455 S
C488 C480 1.574 . S
C488 H483 0.949 . S
C488 C494 1.368 . S
C489 C473 1.349 . S
C489 H481 0.950 . S
C489 C487 1.327 . S
C490 C478 1.349 . S
C490 H484 0.950 . S
C490 C491 1.327 . S
C491 H485 0.950 . S
C491 C490 1.327 . S
C491 C495 1.429 . S
C492 C475 1.574 . S
C492 H486 0.949 . S
C492 C496 1.368 . S
C493 C474 1.429 . S
C493 C487 1.429 1_655 S
C493 C494 1.523 . S
C494 C475 1.368 . S
C494 C488 1.368 . S
C494 C493 1.523 . S
C495 C479 1.429 . S
C495 C491 1.429 . S
C495 C496 1.523 . S
C496 C480 1.368 . S
C496 C492 1.368 . S
C496 C495 1.523 . S
H497 C472 0.950 . S
H498 C474 0.950 . S
H499 C475 0.949 1_455 S
H500 C477 0.950 . S
H501 C479 0.950 . S
C502 C503 1.349 . S
C502 C504 1.327 . S
C502 H527 0.950 . S
C503 C502 1.349 . S
C503 C519 1.349 1_545 S
C504 C502 1.327 . S
C504 C523 1.429 1_545 S
C504 H528 0.950 . S
C505 C522 1.574 . S
C505 C524 1.368 . S
C505 H529 0.949 . S
H506 C510 0.949 1_545 S
C507 C508 1.349 . S
C507 C509 1.327 . S
C507 H530 0.950 . S
C508 C507 1.349 . S
C508 C520 1.349 . S
C509 C507 1.327 . S
C509 C525 1.429 . S
C509 H531 0.950 . S
C510 H506 0.949 1_565 S
C510 C518 1.574 1_565 S
C510 C526 1.368 . S
H511 C519 0.950 . S
H512 C517 0.950 . S
H513 C518 0.949 . S
H514 C520 0.950 . S
H515 C521 0.950 1_545 S
H516 C522 0.949 . S
C517 H512 0.950 . S
C517 C519 1.327 . S
C517 C523 1.429 . S
C518 C510 1.574 1_545 S
C518 H513 0.949 . S
C518 C524 1.368 1_545 S
C519 C503 1.349 1_565 S
C519 H511 0.950 . S
C519 C517 1.327 . S
C520 C508 1.349 . S
C520 H514 0.950 . S
C520 C521 1.327 . S
C521 H515 0.950 1_565 S
C521 C520 1.327 . S
C521 C525 1.429 . S
C522 C505 1.574 . S
C522 H516 0.949 . S
C522 C526 1.368 . S
C523 C504 1.429 1_565 S
C523 C517 1.429 . S
C523 C524 1.523 . S
C524 C505 1.368 . S
C524 C518 1.368 1_565 S
C524 C523 1.523 . S
C525 C509 1.429 . S
C525 C521 1.429 . S
C525 C526 1.523 . S
C526 C510 1.368 . S
C526 C522 1.368 . S
C526 C525 1.523 . S
H527 C502 0.950 . S
H528 C504 0.950 . S
H529 C505 0.949 . S
H530 C507 0.950 . S
H531 C509 0.950 . S
C532 C533 1.349 . S
C532 C534 1.327 . S
C532 H557 0.950 . S
C533 C532 1.349 . S
C533 C549 1.349 . S
C534 C532 1.327 . S
C534 C553 1.429 . S
C534 H558 0.950 . S
C535 C552 1.574 . S
C535 C554 1.368 . S
C535 H559 0.949 . S
H536 C540 0.949 . S
C537 C538 1.349 . S
C537 C539 1.327 . S
C537 H560 0.950 . S
C538 C537 1.349 . S
C538 C550 1.349 . S
C539 C537 1.327 . S
C539 C555 1.429 . S
C539 H561 0.950 . S
C540 H536 0.949 . S
C540 C548 1.574 . S
C540 C556 1.368 . S
H541 C549 0.950 . S
H542 C547 0.950 . S
H543 C548 0.949 . S
H544 C550 0.950 . S
H545 C551 0.950 . S
H546 C552 0.949 . S
C547 H542 0.950 . S
C547 C549 1.327 . S
C547 C553 1.429 . S
C548 C540 1.574 . S
C548 H543 0.949 . S
C548 C554 1.368 . S
C549 C533 1.349 . S
C549 H541 0.950 . S
C549 C547 1.327 . S
C550 C538 1.349 . S
C550 H544 0.950 . S
C550 C551 1.327 . S
C551 H545 0.950 . S
C551 C550 1.327 . S
C551 C555 1.429 . S
C552 C535 1.574 . S
C552 H546 0.949 . S
C552 C556 1.368 . S
C553 C534 1.429 . S
C553 C547 1.429 . S
C553 C554 1.523 . S
C554 C535 1.368 . S
C554 C548 1.368 . S
C554 C553 1.523 . S
C555 C539 1.429 . S
C555 C551 1.429 . S
C555 C556 1.523 . S
C556 C540 1.368 . S
C556 C552 1.368 . S
C556 C555 1.523 . S
H557 C532 0.950 . S
H558 C534 0.950 . S
H559 C535 0.949 . S
H560 C537 0.950 . S
H561 C539 0.950 . S
C562 C563 1.349 . S
C562 C564 1.327 . S
C562 H587 0.950 . S
C563 C562 1.349 . S
C563 C579 1.349 . S
C564 C562 1.327 . S
C564 C583 1.429 . S
C564 H588 0.950 . S
C565 C582 1.574 . S
C565 C584 1.368 . S
C565 H589 0.949 . S
H566 C570 0.949 . S
C567 C568 1.349 . S
C567 C569 1.327 . S
C567 H590 0.950 . S
C568 C567 1.349 . S
C568 C580 1.349 . S
C569 C567 1.327 . S
C569 C585 1.429 . S
C569 H591 0.950 . S
C570 H566 0.949 . S
C570 C578 1.574 . S
C570 C586 1.368 . S
H571 C579 0.950 . S
H572 C577 0.950 . S
H573 C578 0.949 . S
H574 C580 0.950 . S
H575 C581 0.950 . S
H576 C582 0.949 . S
C577 H572 0.950 . S
C577 C579 1.327 . S
C577 C583 1.429 . S
C578 C570 1.574 . S
C578 H573 0.949 . S
C578 C584 1.368 . S
C579 C563 1.349 . S
C579 H571 0.950 . S
C579 C577 1.327 . S
C580 C568 1.349 . S
C580 H574 0.950 . S
C580 C581 1.327 . S
C581 H575 0.950 . S
C581 C580 1.327 . S
C581 C585 1.429 . S
C582 C565 1.574 . S
C582 H576 0.949 . S
C582 C586 1.368 . S
C583 C564 1.429 . S
C583 C577 1.429 . S
C583 C584 1.523 . S
C584 C565 1.368 . S
C584 C578 1.368 . S
C584 C583 1.523 . S
C585 C569 1.429 . S
C585 C581 1.429 . S
C585 C586 1.523 . S
C586 C570 1.368 . S
C586 C582 1.368 . S
C586 C585 1.523 . S
H587 C562 0.950 . S
H588 C564 0.950 . S
H589 C565 0.949 . S
H590 C567 0.950 . S
H591 C569 0.950 . S
C592 C593 1.349 1_455 S
C592 C594 1.327 . S
C592 H617 0.950 . S
C593 C592 1.349 1_655 S
C593 C609 1.349 . S
C594 C592 1.327 . S
C594 C613 1.429 . S
C594 H618 0.950 . S
C595 C612 1.574 . S
C595 C614 1.368 . S
C595 H619 0.949 1_455 S
H596 C600 0.949 . S
C597 C598 1.349 . S
C597 C599 1.327 . S
C597 H620 0.950 . S
C598 C597 1.349 . S
C598 C610 1.349 1_556 S
C599 C597 1.327 . S
C599 C615 1.429 1_556 S
C599 H621 0.950 . S
C600 H596 0.949 . S
C600 C608 1.574 . S
C600 C616 1.368 . S
H601 C609 0.950 . S
H602 C607 0.950 . S
H603 C608 0.949 . S
H604 C610 0.950 . S
H605 C611 0.950 . S
H606 C612 0.949 1_556 S
C607 H602 0.950 . S
C607 C609 1.327 . S
C607 C613 1.429 1_655 S
C608 C600 1.574 . S
C608 H603 0.949 . S
C608 C614 1.368 . S
C609 C593 1.349 . S
C609 H601 0.950 . S
C609 C607 1.327 . S
C610 C598 1.349 1_554 S
C610 H604 0.950 . S
C610 C611 1.327 . S
C611 H605 0.950 . S
C611 C610 1.327 . S
C611 C615 1.429 . S
C612 C595 1.574 . S
C612 H606 0.949 1_554 S
C612 C616 1.368 . S
C613 C594 1.429 . S
C613 C607 1.429 1_455 S
C613 C614 1.523 . S
C614 C595 1.368 . S
C614 C608 1.368 . S
C614 C613 1.523 . S
C615 C599 1.429 1_554 S
C615 C611 1.429 . S
C615 C616 1.523 . S
C616 C600 1.368 . S
C616 C612 1.368 . S
C616 C615 1.523 . S
H617 C592 0.950 . S
H618 C594 0.950 . S
H619 C595 0.949 1_655 S
H620 C597 0.950 . S
H621 C599 0.950 . S
C622 C623 1.349 . S
C622 C624 1.327 . S
C622 H647 0.950 . S
C623 C622 1.349 . S
C623 C639 1.349 1_565 S
C624 C622 1.327 . S
C624 C643 1.429 1_565 S
C624 H648 0.950 . S
C625 C642 1.574 . S
C625 C644 1.368 . S
C625 H649 0.949 . S
H626 C630 0.949 . S
C627 C628 1.349 . S
C627 C629 1.327 . S
C627 H650 0.950 . S
C628 C627 1.349 . S
C628 C640 1.349 . S
C629 C627 1.327 . S
C629 C645 1.429 1_556 S
C629 H651 0.950 . S
C630 H626 0.949 . S
C630 C638 1.574 . S
C630 C646 1.368 1_565 S
H631 C639 0.950 . S
H632 C637 0.950 . S
H633 C638 0.949 . S
H634 C640 0.966 . S
H635 C641 0.950 1_565 S
H636 C642 0.949 . S
C637 H632 0.950 . S
C637 C639 1.327 . S
C637 C643 1.429 . S
C638 C630 1.574 . S
C638 H633 0.949 . S
C638 C644 1.368 1_565 S
C639 C623 1.349 1_545 S
C639 H631 0.950 . S
C639 C637 1.327 . S
C640 C628 1.349 . S
C640 H634 0.966 . S
C640 C641 1.327 1_556 S
C641 H635 0.950 1_545 S
C641 C640 1.327 1_554 S
C641 C645 1.429 . S
C642 C625 1.574 . S
C642 H636 0.949 . S
C642 C646 1.368 . S
C643 C624 1.429 1_545 S
C643 C637 1.429 . S
C643 C644 1.523 . S
C644 C625 1.368 . S
C644 C638 1.368 1_545 S
C644 C643 1.523 . S
C645 C629 1.429 1_554 S
C645 C641 1.429 . S
C645 C646 1.523 . S
C646 C630 1.368 1_545 S
C646 C642 1.368 . S
C646 C645 1.523 . S
H647 C622 0.950 . S
H648 C624 0.950 . S
H649 C625 0.949 . S
H650 C627 0.950 . S
H651 C629 0.950 . S
C652 C653 1.349 . S
C652 C654 1.327 . S
C652 H677 0.950 . S
C653 C652 1.349 . S
C653 C669 1.349 . S
C654 C652 1.327 . S
C654 C673 1.429 . S
C654 H678 0.950 . S
C655 C672 1.574 . S
C655 C674 1.368 . S
C655 H679 0.949 . S
H656 C660 0.949 . S
C657 C658 1.349 . S
C657 C659 1.327 . S
C657 H680 0.950 . S
C658 C657 1.349 . S
C658 C670 1.349 1_556 S
C659 C657 1.327 . S
C659 C675 1.429 1_556 S
C659 H681 0.950 . S
C660 H656 0.949 . S
C660 C668 1.574 . S
C660 C676 1.368 . S
H661 C669 0.950 . S
H662 C667 0.950 . S
H663 C668 0.949 . S
H664 C670 0.950 . S
H665 C671 0.950 . S
H666 C672 0.949 1_556 S
C667 H662 0.950 . S
C667 C669 1.327 . S
C667 C673 1.429 . S
C668 C660 1.574 . S
C668 H663 0.949 . S
C668 C674 1.368 . S
C669 C653 1.349 . S
C669 H661 0.950 . S
C669 C667 1.327 . S
C670 C658 1.349 1_554 S
C670 H664 0.950 . S
C670 C671 1.327 . S
C671 H665 0.950 . S
C671 C670 1.327 . S
C671 C675 1.429 . S
C672 C655 1.574 . S
C672 H666 0.949 1_554 S
C672 C676 1.368 . S
C673 C654 1.429 . S
C673 C667 1.429 . S
C673 C674 1.523 . S
C674 C655 1.368 . S
C674 C668 1.368 . S
C674 C673 1.523 . S
C675 C659 1.429 1_554 S
C675 C671 1.429 . S
C675 C676 1.523 . S
C676 C660 1.368 . S
C676 C672 1.368 . S
C676 C675 1.523 . S
H677 C652 0.950 . S
H678 C654 0.950 . S
H679 C655 0.949 . S
H680 C657 0.950 . S
H681 C659 0.950 . S
C682 C683 1.349 . S
C682 C684 1.327 . S
C682 H707 0.950 . S
C683 C682 1.349 . S
C683 C699 1.349 . S
C684 C682 1.327 . S
C684 C703 1.429 . S
C684 H708 0.950 . S
C685 C702 1.574 . S
C685 C704 1.368 . S
C685 H709 0.949 . S
H686 C690 0.949 . S
C687 C688 1.349 . S
C687 C689 1.327 1_556 S
C687 H710 0.950 . S
C688 C687 1.349 . S
C688 C700 1.349 . S
C689 C687 1.327 1_554 S
C689 C705 1.429 . S
C689 H711 0.950 . S
C690 H686 0.949 . S
C690 C698 1.574 . S
C690 C706 1.368 . S
H691 C699 0.950 . S
H692 C697 0.950 . S
H693 C698 0.949 . S
H694 C700 0.950 . S
H695 C701 0.950 . S
H696 C702 0.949 . S
C697 H692 0.950 . S
C697 C699 1.327 . S
C697 C703 1.429 . S
C698 C690 1.574 . S
C698 H693 0.949 . S
C698 C704 1.368 . S
C699 C683 1.349 . S
C699 H691 0.950 . S
C699 C697 1.327 . S
C700 C688 1.349 . S
C700 H694 0.950 . S
C700 C701 1.327 . S
C701 H695 0.950 . S
C701 C700 1.327 . S
C701 C705 1.429 1_556 S
C702 C685 1.574 . S
C702 H696 0.949 . S
C702 C706 1.368 . S
C703 C684 1.429 . S
C703 C697 1.429 . S
C703 C704 1.523 . S
C704 C685 1.368 . S
C704 C698 1.368 . S
C704 C703 1.523 . S
C705 C689 1.429 . S
C705 C701 1.429 1_554 S
C705 C706 1.523 . S
C706 C690 1.368 . S
C706 C702 1.368 . S
C706 C705 1.523 . S
H707 C682 0.950 . S
H708 C684 0.950 . S
H709 C685 0.949 . S
H710 C687 0.950 . S
H711 C689 0.950 . S
C712 C713 1.349 1_655 S
C712 C714 1.327 . S
C712 H737 0.950 1_556 S
C713 C712 1.349 1_455 S
C713 C729 1.349 . S
C714 C712 1.327 . S
C714 C733 1.429 1_655 S
C714 H738 0.950 . S
C715 C732 1.574 . S
C715 C734 1.368 . S
C715 H739 0.949 . S
H716 C720 0.946 1_655 S
C717 C718 1.349 . S
C717 C719 1.327 . S
C717 H740 0.950 . S
C718 C717 1.349 . S
C718 C730 1.349 . S
C719 C717 1.327 . S
C719 C735 1.429 . S
C719 H741 0.950 . S
C720 H716 0.946 1_455 S
C720 C728 1.572 1_455 S
C720 C736 1.373 . S
H721 C729 0.950 . S
H722 C727 0.950 . S
H723 C728 0.959 . S
H724 C730 0.958 . S
H725 C731 0.950 1_655 S
H726 C732 0.949 . S
C727 H722 0.950 . S
C727 C729 1.327 . S
C727 C733 1.429 . S
C728 C720 1.572 1_655 S
C728 H723 0.959 . S
C728 C734 1.360 1_655 S
C729 C713 1.349 . S
C729 H721 0.950 . S
C729 C727 1.327 . S
C730 C718 1.349 . S
C730 H724 0.958 . S
C730 C731 1.327 . S
C731 H725 0.950 1_455 S
C731 C730 1.327 . S
C731 C735 1.429 . S
C732 C715 1.574 . S
C732 H726 0.949 . S
C732 C736 1.368 . S
C733 C714 1.429 1_455 S
C733 C727 1.429 . S
C733 C734 1.523 . S
C734 C715 1.368 . S
C734 C728 1.360 1_455 S
C734 C733 1.523 . S
C735 C719 1.429 . S
C735 C731 1.429 . S
C735 C736 1.523 . S
C736 C720 1.373 . S
C736 C732 1.368 . S
C736 C735 1.523 . S
H737 C712 0.950 1_554 S
H738 C714 0.950 . S
H739 C715 0.949 . S
H740 C717 0.950 . S
H741 C719 0.950 . S
C742 C743 1.349 1_565 S
C742 C744 1.327 . S
C742 H767 0.950 . S
C743 C742 1.349 1_545 S
C743 C759 1.349 . S
C744 C742 1.327 . S
C744 C763 1.429 1_565 S
C744 H768 0.950 . S
C745 C762 1.574 . S
C745 C764 1.368 . S
C745 H769 0.949 . S
H746 C750 0.949 . S
C747 C748 1.349 . S
C747 C749 1.327 . S
C747 H770 0.950 . S
C748 C747 1.349 . S
C748 C760 1.349 1_545 S
C749 C747 1.327 . S
C749 C765 1.429 . S
C749 H771 0.950 . S
C750 H746 0.949 . S
C750 C758 1.574 . S
C750 C766 1.368 1_565 S
H751 C759 0.950 . S
H752 C757 0.950 . S
H753 C758 0.949 . S
H754 C760 0.950 . S
H755 C761 0.950 . S
H756 C762 0.949 . S
C757 H752 0.950 . S
C757 C759 1.327 . S
C757 C763 1.429 . S
C758 C750 1.574 . S
C758 H753 0.949 . S
C758 C764 1.368 1_565 S
C759 C743 1.349 . S
C759 H751 0.950 . S
C759 C757 1.327 . S
C760 C748 1.349 1_565 S
C760 H754 0.950 . S
C760 C761 1.327 . S
C761 H755 0.950 . S
C761 C760 1.327 . S
C761 C765 1.429 1_565 S
C762 C745 1.574 . S
C762 H756 0.949 . S
C762 C766 1.368 . S
C763 C744 1.429 1_545 S
C763 C757 1.429 . S
C763 C764 1.523 . S
C764 C745 1.368 . S
C764 C758 1.368 1_545 S
C764 C763 1.523 . S
C765 C749 1.429 . S
C765 C761 1.429 1_545 S
C765 C766 1.523 . S
C766 C750 1.368 1_545 S
C766 C762 1.368 . S
C766 C765 1.523 . S
H767 C742 0.950 . S
H768 C744 0.950 . S
H769 C745 0.949 . S
H770 C747 0.950 . S
H771 C749 0.950 . S
C772 C773 1.349 . S
C772 C774 1.327 . S
C772 H797 0.950 . S
C773 C772 1.349 . S
C773 C789 1.349 . S
C774 C772 1.327 . S
C774 C793 1.429 . S
C774 H798 0.950 . S
C775 C792 1.574 . S
C775 C794 1.368 . S
C775 H799 0.949 . S
H776 C780 0.949 . S
C777 C778 1.349 . S
C777 C779 1.327 . S
C777 H800 0.950 . S
C778 C777 1.349 . S
C778 C790 1.349 . S
C779 C777 1.327 . S
C779 C795 1.429 . S
C779 H801 0.950 . S
C780 H776 0.949 . S
C780 C788 1.574 . S
C780 C796 1.368 . S
H781 C789 0.950 1_554 S
H782 C787 0.950 . S
H783 C788 0.949 . S
H784 C790 0.950 . S
H785 C791 0.950 . S
H786 C792 0.949 . S
C787 H782 0.950 . S
C787 C789 1.327 . S
C787 C793 1.429 . S
C788 C780 1.574 . S
C788 H783 0.949 . S
C788 C794 1.368 . S
C789 C773 1.349 . S
C789 H781 0.950 1_556 S
C789 C787 1.327 . S
C790 C778 1.349 . S
C790 H784 0.950 . S
C790 C791 1.327 . S
C791 H785 0.950 . S
C791 C790 1.327 . S
C791 C795 1.429 . S
C792 C775 1.574 . S
C792 H786 0.949 . S
C792 C796 1.368 . S
C793 C774 1.429 . S
C793 C787 1.429 . S
C793 C794 1.523 . S
C794 C775 1.368 . S
C794 C788 1.368 . S
C794 C793 1.523 . S
C795 C779 1.429 . S
C795 C791 1.429 . S
C795 C796 1.523 . S
C796 C780 1.368 . S
C796 C792 1.368 . S
C796 C795 1.523 . S
H797 C772 0.950 . S
H798 C774 0.950 . S
H799 C775 0.949 . S
H800 C777 0.950 . S
H801 C779 0.950 . S
C802 C803 1.349 . S
C802 C804 1.327 . S
C802 H827 0.950 . S
C803 C802 1.349 . S
C803 C819 1.349 . S
C804 C802 1.327 . S
C804 C823 1.429 . S
C804 H828 0.950 . S
C805 C822 1.574 . S
C805 C824 1.368 . S
C805 H829 0.949 . S
H806 C810 0.949 . S
C807 C808 1.349 . S
C807 C809 1.327 . S
C807 H830 0.950 . S
C808 C807 1.349 . S
C808 C820 1.349 . S
C809 C807 1.327 . S
C809 C825 1.429 . S
C809 H831 0.950 . S
C810 H806 0.949 . S
C810 C818 1.574 . S
C810 C826 1.368 . S
H811 C819 0.950 . S
H812 C817 0.950 . S
H813 C818 0.949 . S
H814 C820 0.950 . S
H815 C821 0.950 . S
H816 C822 0.949 . S
C817 H812 0.950 . S
C817 C819 1.327 . S
C817 C823 1.429 . S
C818 C810 1.574 . S
C818 H813 0.949 . S
C818 C824 1.368 . S
C819 C803 1.349 . S
C819 H811 0.950 . S
C819 C817 1.327 . S
C820 C808 1.349 . S
C820 H814 0.950 . S
C820 C821 1.327 . S
C821 H815 0.950 . S
C821 C820 1.327 . S
C821 C825 1.429 . S
C822 C805 1.574 . S
C822 H816 0.949 . S
C822 C826 1.368 . S
C823 C804 1.429 . S
C823 C817 1.429 . S
C823 C824 1.523 . S
C824 C805 1.368 . S
C824 C818 1.368 . S
C824 C823 1.523 . S
C825 C809 1.429 . S
C825 C821 1.429 . S
C825 C826 1.523 . S
C826 C810 1.368 . S
C826 C822 1.368 . S
C826 C825 1.523 . S
H827 C802 0.950 . S
H828 C804 0.950 . S
H829 C805 0.949 . S
H830 C807 0.950 . S
H831 C809 0.950 . S
C832 C833 1.349 1_455 S
C832 C834 1.327 . S
C832 H857 0.950 . S
C833 C832 1.349 1_655 S
C833 C849 1.349 . S
C834 C832 1.327 . S
C834 C853 1.429 1_455 S
C834 H858 0.950 . S
C835 C852 1.574 . S
C835 C854 1.368 . S
C835 H859 0.949 . S
H836 C840 0.949 . S
C837 C838 1.349 . S
C837 C839 1.327 . S
C837 H860 0.950 . S
C838 C837 1.349 . S
C838 C850 1.340 1_655 S
C839 C837 1.327 . S
C839 C855 1.429 . S
C839 H861 0.950 . S
C840 H836 0.949 . S
C840 C848 1.574 . S
C840 C856 1.368 1_455 S
H841 C849 0.950 . S
H842 C847 0.950 . S
H843 C848 0.949 . S
H844 C850 0.958 . S
H845 C851 0.950 . S
H846 C852 0.949 . S
C847 H842 0.950 . S
C847 C849 1.327 . S
C847 C853 1.429 . S
C848 C840 1.574 . S
C848 H843 0.949 . S
C848 C854 1.368 1_455 S
C849 C833 1.349 . S
C849 H841 0.950 . S
C849 C847 1.327 . S
C850 C838 1.340 1_455 S
C850 H844 0.958 . S
C850 C851 1.328 . S
C851 H845 0.950 . S
C851 C850 1.328 . S
C851 C855 1.429 1_455 S
C852 C835 1.574 . S
C852 H846 0.949 . S
C852 C856 1.368 . S
C853 C834 1.429 1_655 S
C853 C847 1.429 . S
C853 C854 1.523 . S
C854 C835 1.368 . S
C854 C848 1.368 1_655 S
C854 C853 1.523 . S
C855 C839 1.429 . S
C855 C851 1.429 1_655 S
C855 C856 1.523 . S
C856 C840 1.368 1_655 S
C856 C852 1.368 . S
C856 C855 1.523 . S
H857 C832 0.950 . S
H858 C834 0.950 . S
H859 C835 0.949 . S
H860 C837 0.950 . S
H861 C839 0.950 . S
C862 C863 1.315 1_545 S
C862 C864 1.327 . S
C862 H887 0.950 . S
C863 C862 1.315 1_565 S
C863 C879 1.386 . S
C864 C862 1.327 . S
C864 C883 1.429 1_545 S
C864 H888 0.950 . S
C865 C882 1.574 . S
C865 C884 1.368 . S
C865 H889 0.949 . S
H866 C870 0.949 . S
C867 C868 1.349 . S
C867 C869 1.327 . S
C867 H890 0.950 . S
C868 C867 1.349 . S
C868 C880 1.349 1_565 S
C869 C867 1.327 . S
C869 C885 1.429 . S
C869 H891 0.950 . S
C870 H866 0.949 . S
C870 C878 1.574 . S
C870 C886 1.368 1_545 S
H871 C879 0.950 . S
H872 C877 0.950 . S
H873 C878 0.949 . S
H874 C880 0.950 . S
H875 C881 0.950 . S
H876 C882 0.949 . S
C877 H872 0.950 . S
C877 C879 1.327 . S
C877 C883 1.429 . S
C878 C870 1.574 . S
C878 H873 0.949 . S
C878 C884 1.368 1_545 S
C879 C863 1.386 . S
C879 H871 0.950 . S
C879 C877 1.327 . S
C880 C868 1.349 1_545 S
C880 H874 0.950 . S
C880 C881 1.327 . S
C881 H875 0.950 . S
C881 C880 1.327 . S
C881 C885 1.429 1_545 S
C882 C865 1.574 . S
C882 H876 0.949 . S
C882 C886 1.368 . S
C883 C864 1.429 1_565 S
C883 C877 1.429 . S
C883 C884 1.523 . S
C884 C865 1.368 . S
C884 C878 1.368 1_565 S
C884 C883 1.523 . S
C885 C869 1.429 . S
C885 C881 1.429 1_565 S
C885 C886 1.523 . S
C886 C870 1.368 1_565 S
C886 C882 1.368 . S
C886 C885 1.523 . S
H887 C862 0.950 . S
H888 C864 0.950 . S
H889 C865 0.949 . S
H890 C867 0.950 . S
H891 C869 0.950 . S
C892 C893 1.349 . S
C892 C894 1.327 . S
C892 H917 0.950 . S
C893 C892 1.349 . S
C893 C909 1.349 . S
C894 C892 1.327 . S
C894 C913 1.429 . S
C894 H918 0.950 . S
C895 C912 1.574 . S
C895 C914 1.368 . S
C895 H919 0.949 . S
H896 C900 0.949 . S
C897 C898 1.349 . S
C897 C899 1.327 . S
C897 H920 0.950 . S
C898 C897 1.349 . S
C898 C910 1.349 . S
C899 C897 1.327 . S
C899 C915 1.429 . S
C899 H921 0.950 . S
C900 H896 0.949 . S
C900 C908 1.574 . S
C900 C916 1.368 . S
H901 C909 0.950 . S
H902 C907 0.950 . S
H903 C908 0.949 . S
H904 C910 0.950 . S
H905 C911 0.950 . S
H906 C912 0.949 . S
C907 H902 0.950 . S
C907 C909 1.327 . S
C907 C913 1.429 . S
C908 C900 1.574 . S
C908 H903 0.949 . S
C908 C914 1.368 . S
C909 C893 1.349 . S
C909 H901 0.950 . S
C909 C907 1.327 . S
C910 C898 1.349 . S
C910 H904 0.950 . S
C910 C911 1.327 . S
C911 H905 0.950 . S
C911 C910 1.327 . S
C911 C915 1.429 . S
C912 C895 1.574 . S
C912 H906 0.949 . S
C912 C916 1.368 . S
C913 C894 1.429 . S
C913 C907 1.429 . S
C913 C914 1.523 . S
C914 C895 1.368 . S
C914 C908 1.368 . S
C914 C913 1.523 . S
C915 C899 1.429 . S
C915 C911 1.429 . S
C915 C916 1.523 . S
C916 C900 1.368 . S
C916 C912 1.368 . S
C916 C915 1.523 . S
H917 C892 0.950 . S
H918 C894 0.950 . S
H919 C895 0.949 . S
H920 C897 0.950 . S
H921 C899 0.950 . S
C922 C923 1.349 . S
C922 C924 1.327 . S
C922 H947 0.950 . S
C923 C922 1.349 . S
C923 C939 1.349 . S
C924 C922 1.327 . S
C924 C943 1.429 . S
C924 H948 0.950 . S
C925 C942 1.574 . S
C925 C944 1.368 . S
C925 H949 0.949 . S
H926 C930 0.949 . S
C927 C928 1.349 . S
C927 C929 1.327 . S
C927 H950 0.950 . S
C928 C927 1.349 . S
C928 C940 1.349 . S
C929 C927 1.327 . S
C929 C945 1.429 . S
C929 H951 0.950 . S
C930 H926 0.949 . S
C930 C938 1.574 . S
C930 C946 1.368 . S
H931 C939 0.950 . S
H932 C937 0.950 . S
H933 C938 0.949 . S
H934 C940 0.950 . S
H935 C941 0.950 . S
H936 C942 0.949 . S
C937 H932 0.950 . S
C937 C939 1.327 . S
C937 C943 1.429 . S
C938 C930 1.574 . S
C938 H933 0.949 . S
C938 C944 1.368 . S
C939 C923 1.349 . S
C939 H931 0.950 . S
C939 C937 1.327 . S
C940 C928 1.349 . S
C940 H934 0.950 . S
C940 C941 1.327 . S
C941 H935 0.950 . S
C941 C940 1.327 . S
C941 C945 1.429 . S
C942 C925 1.574 . S
C942 H936 0.949 . S
C942 C946 1.368 . S
C943 C924 1.429 . S
C943 C937 1.429 . S
C943 C944 1.523 . S
C944 C925 1.368 . S
C944 C938 1.368 . S
C944 C943 1.523 . S
C945 C929 1.429 . S
C945 C941 1.429 . S
C945 C946 1.523 . S
C946 C930 1.368 . S
C946 C942 1.368 . S
C946 C945 1.523 . S
H947 C922 0.950 . S
H948 C924 0.950 . S
H949 C925 0.949 . S
H950 C927 0.950 . S
H951 C929 0.950 . S
C233 C61 1.671 1_545 S
C238 C90 1.759 1_545 S
C268 C130 1.774 . S
C263 C70 1.686 . S
C298 C170 1.779 . S
C293 C43 1.687 . S
C328 C210 1.772 1_455 S
C323 C52 1.680 1_455 S
C358 C80 1.763 1_565 S
C353 C25 1.675 1_545 S
C383 C34 1.691 . S
C388 C120 1.777 . S
C413 C7 1.687 . S
C418 C160 1.779 . S
C443 C16 1.680 . S
C448 C200 1.772 1_655 S
C478 C77 0.273 . S
C473 C50 0.235 1_455 S
C508 C117 0.275 . S
C503 C59 0.245 1_545 S
C538 C157 0.276 . S
C533 C67 0.236 . S
C563 C41 0.240 . S
C568 C197 0.270 . S
C593 C14 0.231 . S
C598 C87 0.267 . S
C628 C127 0.275 . S
C623 C23 0.235 . S
C658 C167 0.276 . S
C653 C31 0.243 . S
C683 C5 0.225 . S
C688 C207 0.277 . S
C713 C49 1.845 1_455 S
C718 C81 2.012 . S
C743 C58 1.812 1_545 S
C748 C121 1.982 . S
C778 C161 1.966 . S
C773 C68 1.794 . S
C808 C201 1.997 . S
C803 C40 1.821 . S
C833 C13 1.844 . S
C838 C91 2.024 . S
C868 C131 1.983 . S
C863 C22 1.811 . S
C898 C171 1.966 . S
C893 C32 1.796 . S
C923 C4 1.824 . S
C928 C211 2.003 . S
