# Generated by pormake.
# Topology eea, (3,6)-cn, num edge types: 1
# Building blocks:
#     Node 0, Type 0, BuildingBlock: VETTIZ_charged_linker_0, # of connection points: 3
#     Node 1, Type 0, BuildingBlock: VETTIZ_charged_linker_0, # of connection points: 3
#     Node 2, Type 0, BuildingBlock: VETTIZ_charged_linker_0, # of connection points: 3
#     Node 3, Type 0, BuildingBlock: VETTIZ_charged_linker_0, # of connection points: 3
#     Node 4, Type 0, BuildingBlock: VETTIZ_charged_linker_0, # of connection points: 3
#     Node 5, Type 0, BuildingBlock: VETTIZ_charged_linker_0, # of connection points: 3
#     Node 6, Type 0, BuildingBlock: VETTIZ_charged_linker_0, # of connection points: 3
#     Node 7, Type 0, BuildingBlock: VETTIZ_charged_linker_0, # of connection points: 3
#     Node 8, Type 0, BuildingBlock: VETTIZ_charged_linker_0, # of connection points: 3
#     Node 9, Type 0, BuildingBlock: VETTIZ_charged_linker_0, # of connection points: 3
#     Node 10, Type 0, BuildingBlock: VETTIZ_charged_linker_0, # of connection points: 3
#     Node 11, Type 0, BuildingBlock: VETTIZ_charged_linker_0, # of connection points: 3
#     Node 12, Type 0, BuildingBlock: VETTIZ_charged_linker_0, # of connection points: 3
#     Node 13, Type 0, BuildingBlock: VETTIZ_charged_linker_0, # of connection points: 3
#     Node 14, Type 0, BuildingBlock: VETTIZ_charged_linker_0, # of connection points: 3
#     Node 15, Type 0, BuildingBlock: VETTIZ_charged_linker_0, # of connection points: 3
#     Node 16, Type 0, BuildingBlock: VETTIZ_charged_linker_0, # of connection points: 3
#     Node 17, Type 0, BuildingBlock: VETTIZ_charged_linker_0, # of connection points: 3
#     Node 18, Type 1, BuildingBlock: KUMJIN_clean_sbu_0, # of connection points: 6
#     Node 19, Type 1, BuildingBlock: KUMJIN_clean_sbu_0, # of connection points: 6
#     Node 20, Type 1, BuildingBlock: KUMJIN_clean_sbu_0, # of connection points: 6
#     Node 21, Type 1, BuildingBlock: KUMJIN_clean_sbu_0, # of connection points: 6
#     Node 22, Type 1, BuildingBlock: KUMJIN_clean_sbu_0, # of connection points: 6
#     Node 23, Type 1, BuildingBlock: KUMJIN_clean_sbu_0, # of connection points: 6
#     Node 24, Type 1, BuildingBlock: KUMJIN_clean_sbu_0, # of connection points: 6
#     Node 25, Type 1, BuildingBlock: KUMJIN_clean_sbu_0, # of connection points: 6
#     Node 26, Type 1, BuildingBlock: KUMJIN_clean_sbu_0, # of connection points: 6
#     Edge 27, Type (0, 1), BuildingBlock: EZIPEK_clean_linker_0, # of connection points: 2
#     Edge 28, Type (0, 1), BuildingBlock: EZIPEK_clean_linker_0, # of connection points: 2
#     Edge 29, Type (0, 1), BuildingBlock: EZIPEK_clean_linker_0, # of connection points: 2
#     Edge 30, Type (0, 1), BuildingBlock: EZIPEK_clean_linker_0, # of connection points: 2
#     Edge 31, Type (0, 1), BuildingBlock: EZIPEK_clean_linker_0, # of connection points: 2
#     Edge 32, Type (0, 1), BuildingBlock: EZIPEK_clean_linker_0, # of connection points: 2
#     Edge 33, Type (0, 1), BuildingBlock: EZIPEK_clean_linker_0, # of connection points: 2
#     Edge 34, Type (0, 1), BuildingBlock: EZIPEK_clean_linker_0, # of connection points: 2
#     Edge 35, Type (0, 1), BuildingBlock: EZIPEK_clean_linker_0, # of connection points: 2
#     Edge 36, Type (0, 1), BuildingBlock: EZIPEK_clean_linker_0, # of connection points: 2
#     Edge 37, Type (0, 1), BuildingBlock: EZIPEK_clean_linker_0, # of connection points: 2
#     Edge 38, Type (0, 1), BuildingBlock: EZIPEK_clean_linker_0, # of connection points: 2
#     Edge 39, Type (0, 1), BuildingBlock: EZIPEK_clean_linker_0, # of connection points: 2
#     Edge 40, Type (0, 1), BuildingBlock: EZIPEK_clean_linker_0, # of connection points: 2
#     Edge 41, Type (0, 1), BuildingBlock: EZIPEK_clean_linker_0, # of connection points: 2
#     Edge 42, Type (0, 1), BuildingBlock: EZIPEK_clean_linker_0, # of connection points: 2
#     Edge 43, Type (0, 1), BuildingBlock: EZIPEK_clean_linker_0, # of connection points: 2
#     Edge 44, Type (0, 1), BuildingBlock: EZIPEK_clean_linker_0, # of connection points: 2
#     Edge 45, Type (0, 1), BuildingBlock: EZIPEK_clean_linker_0, # of connection points: 2
#     Edge 46, Type (0, 1), BuildingBlock: EZIPEK_clean_linker_0, # of connection points: 2
#     Edge 47, Type (0, 1), BuildingBlock: EZIPEK_clean_linker_0, # of connection points: 2
#     Edge 48, Type (0, 1), BuildingBlock: EZIPEK_clean_linker_0, # of connection points: 2
#     Edge 49, Type (0, 1), BuildingBlock: EZIPEK_clean_linker_0, # of connection points: 2
#     Edge 50, Type (0, 1), BuildingBlock: EZIPEK_clean_linker_0, # of connection points: 2
#     Edge 51, Type (0, 1), BuildingBlock: EZIPEK_clean_linker_0, # of connection points: 2
#     Edge 52, Type (0, 1), BuildingBlock: EZIPEK_clean_linker_0, # of connection points: 2
#     Edge 53, Type (0, 1), BuildingBlock: EZIPEK_clean_linker_0, # of connection points: 2
#     Edge 54, Type (0, 1), BuildingBlock: EZIPEK_clean_linker_0, # of connection points: 2
#     Edge 55, Type (0, 1), BuildingBlock: EZIPEK_clean_linker_0, # of connection points: 2
#     Edge 56, Type (0, 1), BuildingBlock: EZIPEK_clean_linker_0, # of connection points: 2
#     Edge 57, Type (0, 1), BuildingBlock: EZIPEK_clean_linker_0, # of connection points: 2
#     Edge 58, Type (0, 1), BuildingBlock: EZIPEK_clean_linker_0, # of connection points: 2
#     Edge 59, Type (0, 1), BuildingBlock: EZIPEK_clean_linker_0, # of connection points: 2
#     Edge 60, Type (0, 1), BuildingBlock: EZIPEK_clean_linker_0, # of connection points: 2
#     Edge 61, Type (0, 1), BuildingBlock: EZIPEK_clean_linker_0, # of connection points: 2
#     Edge 62, Type (0, 1), BuildingBlock: EZIPEK_clean_linker_0, # of connection points: 2
#     Edge 63, Type (0, 1), BuildingBlock: EZIPEK_clean_linker_0, # of connection points: 2
#     Edge 64, Type (0, 1), BuildingBlock: EZIPEK_clean_linker_0, # of connection points: 2
#     Edge 65, Type (0, 1), BuildingBlock: EZIPEK_clean_linker_0, # of connection points: 2
#     Edge 66, Type (0, 1), BuildingBlock: EZIPEK_clean_linker_0, # of connection points: 2
#     Edge 67, Type (0, 1), BuildingBlock: EZIPEK_clean_linker_0, # of connection points: 2
#     Edge 68, Type (0, 1), BuildingBlock: EZIPEK_clean_linker_0, # of connection points: 2
#     Edge 69, Type (0, 1), BuildingBlock: EZIPEK_clean_linker_0, # of connection points: 2
#     Edge 70, Type (0, 1), BuildingBlock: EZIPEK_clean_linker_0, # of connection points: 2
#     Edge 71, Type (0, 1), BuildingBlock: EZIPEK_clean_linker_0, # of connection points: 2
#     Edge 72, Type (0, 1), BuildingBlock: EZIPEK_clean_linker_0, # of connection points: 2
#     Edge 73, Type (0, 1), BuildingBlock: EZIPEK_clean_linker_0, # of connection points: 2
#     Edge 74, Type (0, 1), BuildingBlock: EZIPEK_clean_linker_0, # of connection points: 2
#     Edge 75, Type (0, 1), BuildingBlock: EZIPEK_clean_linker_0, # of connection points: 2
#     Edge 76, Type (0, 1), BuildingBlock: EZIPEK_clean_linker_0, # of connection points: 2
#     Edge 77, Type (0, 1), BuildingBlock: EZIPEK_clean_linker_0, # of connection points: 2
#     Edge 78, Type (0, 1), BuildingBlock: EZIPEK_clean_linker_0, # of connection points: 2
#     Edge 79, Type (0, 1), BuildingBlock: EZIPEK_clean_linker_0, # of connection points: 2
#     Edge 80, Type (0, 1), BuildingBlock: EZIPEK_clean_linker_0, # of connection points: 2
# Relax obj value: 0.009
# Max RMSD: 0.091
# Mean RMSD: 0.072
data_MOF--net-eea--node1-KUMJIN_clean_sbu_0--node2-VETTIZ_charged_linker_0--edge1-EZIPEK_clean_linker_0
_symmetry_space_group_name_H-M    P1
_symmetry_Int_Tables_number       1
_symmetry_cell_setting            triclinic
loop_
_symmetry_equiv_pos_as_xyz
'x, y, z'
_cell_length_a     48.058701
_cell_length_b     49.2153
_cell_length_c     72.037154
_cell_angle_alpha  90.128899
_cell_angle_beta   90.253631
_cell_angle_gamma 119.96404
loop_
_atom_site_label
_atom_site_type_symbol
_atom_site_fract_x
_atom_site_fract_y
_atom_site_fract_z
_atom_type_partial_charge
C0 C 0.23637 0.18686 0.38037 0.0
C1 C 0.24363 0.2171 0.3866 0.0
C2 C 0.25183 0.22381 0.40574 0.0
C3 C 0.25124 0.1749 0.41024 0.0
C4 C 0.24089 0.16671 0.39217 0.0
C5 C 0.23432 0.13416 0.38749 0.0
H6 H 0.22639 -0.00116 0.41483 0.0
C7 C 0.25264 0.1485 0.419 0.0
C8 C 0.2426 0.12443 0.40576 0.0
H9 H 0.20588 0.02185 0.36055 0.0
H10 H 0.21941 0.07359 0.37152 0.0
H11 H 0.2915 0.06457 0.42041 0.0
H12 H 0.19523 0.03289 0.43954 0.0
H13 H 0.22224 0.05178 0.45806 0.0
H14 H 0.21934 0.01696 0.44794 0.0
H15 H 0.27428 0.03737 0.43919 0.0
H16 H 0.29447 0.07922 0.443 0.0
C17 C 0.2575 0.13684 0.37179 0.0
C18 C 0.1982 0.11364 0.38256 0.0
C19 C 0.29385 0.15957 0.48521 0.0
C20 C 0.29879 0.13959 0.49689 0.0
C21 C 0.28986 0.10912 0.49074 0.0
C22 C 0.2767 0.09887 0.47293 0.0
C23 C 0.27246 0.11935 0.46117 0.0
C24 C 0.28078 0.14906 0.46747 0.0
C25 C 0.27444 0.16759 0.45321 0.0
C26 C 0.26194 0.14453 0.43708 0.0
C27 C 0.26062 0.11624 0.44182 0.0
C28 C 0.3068 0.1973 0.44863 0.0
C29 C 0.2484 0.17439 0.46092 0.0
C30 C 0.22479 0.01513 0.40539 0.0
C31 C 0.21479 0.00637 0.38688 0.0
C32 C 0.21335 0.02817 0.37488 0.0
C33 C 0.22125 0.05813 0.38129 0.0
C34 C 0.23113 0.06657 0.39985 0.0
C35 C 0.23314 0.04534 0.41151 0.0
C36 C 0.2456 0.05897 0.43052 0.0
C37 C 0.24991 0.09157 0.4285 0.0
C38 C 0.2412 0.09578 0.41053 0.0
C39 C 0.27805 0.06 0.43364 0.0
C40 C 0.21947 0.03914 0.4449 0.0
H41 H 0.26285 0.21063 0.43145 0.0
H42 H 0.22602 0.17765 0.36695 0.0
H43 H 0.18336 0.11987 0.39149 0.0
H44 H 0.18881 0.08841 0.38499 0.0
H45 H 0.19348 0.11702 0.36788 0.0
H46 H 0.28099 0.15893 0.37316 0.0
H47 H 0.24737 0.13692 0.35791 0.0
H48 H 0.26361 0.11798 0.37221 0.0
H49 H 0.30045 0.18305 0.48974 0.0
H50 H 0.29348 0.09347 0.49968 0.0
H51 H 0.27053 0.0755 0.46896 0.0
H52 H 0.32622 0.19137 0.44723 0.0
H53 H 0.314 0.21518 0.45982 0.0
H54 H 0.3064 0.20815 0.43533 0.0
H55 H 0.23276 0.15643 0.47119 0.0
H56 H 0.23159 0.17336 0.45002 0.0
H57 H 0.25941 0.1976 0.46797 0.0
H58 H 0.25371 0.24422 0.4125 0.0
C59 C 0.25624 0.20346 0.41729 0.0
C60 C 0.9757 0.18803 0.38223 0.0
C61 C 0.00226 0.2141 0.39029 0.0
C62 C 1.00068 0.22216 0.40886 0.0
C63 C 0.94661 0.17799 0.41125 0.0
C64 C 0.94832 0.1702 0.393 0.0
C65 C 0.91864 0.14068 0.38695 0.0
H66 H 0.77226 0.01815 0.40704 0.0
C67 C 0.91482 0.15458 0.41853 0.0
C68 C 0.89836 0.13267 0.40435 0.0
H69 H 0.82832 0.03383 0.35745 0.0
H70 H 0.86927 0.08398 0.36943 0.0
H71 H 0.83267 0.04284 0.43642 0.0
H72 H 0.78613 0.0895 0.41147 0.0
H73 H 0.79782 0.10458 0.43404 0.0
H74 H 0.76874 0.06351 0.43077 0.0
H75 H 0.79136 0.03149 0.44032 0.0
H76 H 0.82301 0.06238 0.45365 0.0
C77 C 0.92825 0.11562 0.38235 0.0
C78 C 0.90319 0.14887 0.37059 0.0
C79 C 0.88413 0.16544 0.48439 0.0
C80 C 0.8548 0.15085 0.49395 0.0
C81 C 0.82771 0.12574 0.48533 0.0
C82 C 0.82978 0.11536 0.46749 0.0
C83 C 0.85908 0.13072 0.45792 0.0
C84 C 0.88546 0.15567 0.46629 0.0
C85 C 0.91348 0.17159 0.45332 0.0
C86 C 0.89987 0.15163 0.43595 0.0
C87 C 0.86821 0.12726 0.43881 0.0
C88 C 0.94174 0.16886 0.46164 0.0
C89 C 0.92082 0.20577 0.45037 0.0
C90 C 0.7933 0.03272 0.39879 0.0
C91 C 0.79726 0.02228 0.38129 0.0
C92 C 0.82488 0.04157 0.3709 0.0
C93 C 0.84869 0.07051 0.37797 0.0
C94 C 0.84512 0.08015 0.39577 0.0
C95 C 0.81766 0.06154 0.40584 0.0
C96 C 0.81858 0.07544 0.42469 0.0
C97 C 0.85165 0.10474 0.42451 0.0
C98 C 0.86682 0.10742 0.40744 0.0
C99 C 0.81614 0.05188 0.43967 0.0
C100 C 0.79134 0.08356 0.42547 0.0
H101 H 0.97333 0.21148 0.4335 0.0
H102 H 0.9766 0.18132 0.368 0.0
H103 H 0.90382 0.17145 0.37328 0.0
H104 H 0.87758 0.1314 0.36844 0.0
H105 H 0.91631 0.15138 0.35747 0.0
H106 H 0.9507 0.12047 0.3897 0.0
H107 H 0.93237 0.11488 0.36725 0.0
H108 H 0.91015 0.09187 0.38702 0.0
H109 H 0.9052 0.18509 0.49055 0.0
H110 H 0.80482 0.11432 0.4924 0.0
H111 H 0.80838 0.09612 0.46169 0.0
H112 H 0.93297 0.14518 0.46768 0.0
H113 H 0.95404 0.18643 0.47287 0.0
H114 H 0.95965 0.17156 0.45118 0.0
H115 H 0.8986 0.20741 0.45139 0.0
H116 H 0.9302 0.21479 0.43639 0.0
H117 H 0.93805 0.22187 0.46098 0.0
H118 H 0.02109 0.24221 0.41525 0.0
C119 C 0.97299 0.20428 0.41939 0.0
C120 C 0.97413 0.78701 0.38006 0.0
C121 C 0.99782 0.78097 0.38716 0.0
C122 C 0.99441 0.76894 0.40525 0.0
C123 C 0.94448 0.76943 0.40906 0.0
C124 C 0.94774 0.78108 0.39124 0.0
C125 C 0.92031 0.78621 0.38598 0.0
H126 H 0.78485 0.78789 0.41063 0.0
C127 C 0.91489 0.76675 0.4172 0.0
C128 C 0.90072 0.77677 0.40373 0.0
H129 H 0.83018 0.80851 0.35696 0.0
H130 H 0.87088 0.79735 0.36862 0.0
H131 H 0.79199 0.72521 0.41757 0.0
H132 H 0.84707 0.82177 0.43494 0.0
H133 H 0.84821 0.79925 0.45345 0.0
H134 H 0.81014 0.79473 0.44604 0.0
H135 H 0.77727 0.74318 0.43349 0.0
H136 H 0.8007 0.72612 0.44138 0.0
C137 C 0.90167 0.76388 0.36962 0.0
C138 C 0.93426 0.82143 0.38166 0.0
C139 C 0.88024 0.72408 0.48278 0.0
C140 C 0.85553 0.72156 0.4944 0.0
C141 C 0.83578 0.7333 0.48809 0.0
C142 C 0.83944 0.7459 0.47025 0.0
C143 C 0.86355 0.74744 0.45858 0.0
C144 C 0.88412 0.73754 0.46509 0.0
C145 C 0.91006 0.74364 0.45126 0.0
C146 C 0.90055 0.75715 0.43503 0.0
C147 C 0.87301 0.75891 0.43935 0.0
C148 C 0.90756 0.71193 0.44616 0.0
C149 C 0.94281 0.76802 0.45988 0.0
C150 C 0.80359 0.78993 0.40145 0.0
C151 C 0.8047 0.79941 0.38296 0.0
C152 C 0.82912 0.80144 0.37128 0.0
C153 C 0.85266 0.79497 0.3781 0.0
C154 C 0.85157 0.78596 0.39675 0.0
C155 C 0.827 0.78314 0.40799 0.0
C156 C 0.82886 0.77217 0.4272 0.0
C157 C 0.85867 0.76902 0.42572 0.0
C158 C 0.87212 0.77743 0.40792 0.0
C159 C 0.79811 0.74008 0.43027 0.0
C160 C 0.83358 0.79806 0.44126 0.0
H161 H 0.96672 0.75384 0.42983 0.0
H162 H 0.97623 0.79621 0.36617 0.0
H163 H 0.95291 0.83619 0.3921 0.0
H164 H 0.91614 0.8289 0.38226 0.0
H165 H 0.94565 0.82727 0.36776 0.0
H166 H 0.90263 0.74179 0.37042 0.0
H167 H 0.91195 0.77497 0.35605 0.0
H168 H 0.87577 0.75615 0.36975 0.0
H169 H 0.89612 0.71574 0.4874 0.0
H170 H 0.81689 0.73194 0.49688 0.0
H171 H 0.82316 0.75379 0.4662 0.0
H172 H 0.88202 0.69355 0.44398 0.0
H173 H 0.91754 0.70389 0.45744 0.0
H174 H 0.91986 0.71281 0.43309 0.0
H175 H 0.94007 0.78432 0.46944 0.0
H176 H 0.9602 0.78347 0.44939 0.0
H177 H 0.95358 0.75636 0.46799 0.0
H178 H 0.01244 0.76414 0.4109 0.0
C179 C 0.96792 0.76308 0.4162 0.0
C180 C 0.1852 0.21152 0.6348 0.0
C181 C 0.21369 0.2158 0.6267 0.0
C182 C 0.22238 0.22946 0.60899 0.0
C183 C 0.1737 0.23279 0.60715 0.0
C184 C 0.1655 0.21996 0.62473 0.0
C185 C 0.13359 0.21571 0.63079 0.0
H186 H 0.99805 0.22081 0.61077 0.0
C187 C 0.1473 0.23736 0.60003 0.0
C188 C 0.12361 0.2272 0.6138 0.0
H189 H 0.02343 0.1937 0.66224 0.0
H190 H 0.07462 0.20506 0.6494 0.0
H191 H 0.07088 0.28323 0.60368 0.0
H192 H 0.02408 0.18758 0.58384 0.0
H193 H 0.04626 0.21199 0.56541 0.0
H194 H 0.01354 0.21541 0.5751 0.0
H195 H 0.03635 0.26698 0.58861 0.0
H196 H 0.07628 0.28312 0.57951 0.0
C197 C 0.13947 0.23703 0.64793 0.0
C198 C 0.11058 0.18034 0.63428 0.0
C199 C 0.15566 0.28424 0.53582 0.0
C200 C 0.13397 0.28851 0.5247 0.0
C201 C 0.10276 0.27814 0.53148 0.0
C202 C 0.09373 0.26499 0.54925 0.0
C203 C 0.11586 0.26144 0.56035 0.0
C204 C 0.14595 0.27024 0.55336 0.0
C205 C 0.1653 0.26216 0.56641 0.0
C206 C 0.14256 0.24858 0.58277 0.0
C207 C 0.11372 0.24853 0.57925 0.0
C208 C 0.19632 0.29283 0.57177 0.0
C209 C 0.17119 0.23725 0.55679 0.0
C210 C 0.01488 0.21764 0.61925 0.0
C211 C 0.00685 0.2063 0.63751 0.0
C212 C 0.02923 0.20241 0.64817 0.0
C213 C 0.05884 0.20894 0.64065 0.0
C214 C 0.06637 0.21967 0.62225 0.0
C215 C 0.04472 0.22429 0.61195 0.0
C216 C 0.05709 0.23635 0.59276 0.0
C217 C 0.0897 0.23826 0.59324 0.0
C218 C 0.09484 0.22811 0.6105 0.0
C219 C 0.06023 0.26908 0.59085 0.0
C220 C 0.03407 0.21182 0.57841 0.0
H221 H 0.21056 0.24815 0.58574 0.0
H222 H 0.17806 0.20107 0.64841 0.0
H223 H 0.11356 0.16592 0.6234 0.0
H224 H 0.085 0.17363 0.63363 0.0
H225 H 0.11557 0.1732 0.64795 0.0
H226 H 0.16338 0.25873 0.64723 0.0
H227 H 0.13875 0.22478 0.66101 0.0
H228 H 0.12214 0.24554 0.64881 0.0
H229 H 0.1796 0.29146 0.53087 0.0
H230 H 0.08553 0.28082 0.52308 0.0
H231 H 0.06982 0.25808 0.55366 0.0
H232 H 0.19089 0.31193 0.57464 0.0
H233 H 0.2141 0.30073 0.56035 0.0
H234 H 0.20776 0.29064 0.58456 0.0
H235 H 0.15156 0.2227 0.54679 0.0
H236 H 0.17129 0.22013 0.56666 0.0
H237 H 0.19408 0.24845 0.54896 0.0
H238 H 0.24432 0.23303 0.6026 0.0
C239 C 0.20265 0.23805 0.59921 0.0
C240 C 0.77191 0.80924 0.63544 0.0
C241 C 0.76904 0.78121 0.62886 0.0
C242 C 0.75478 0.7694 0.61139 0.0
C243 C 0.74787 0.8146 0.60696 0.0
C244 C 0.76128 0.82547 0.62433 0.0
C245 C 0.76391 0.85629 0.62915 0.0
H246 H 0.75382 0.98283 0.6043 0.0
C247 C 0.74118 0.8383 0.59867 0.0
C248 C 0.75068 0.86272 0.61165 0.0
H249 H 0.78475 0.96397 0.65665 0.0
H250 H 0.77238 0.91284 0.64569 0.0
H251 H 0.78672 0.95517 0.57849 0.0
H252 H 0.68989 0.91031 0.59938 0.0
H253 H 0.68852 0.90109 0.57566 0.0
H254 H 0.70459 0.94138 0.58266 0.0
H255 H 0.75732 0.96413 0.56955 0.0
H256 H 0.76088 0.93173 0.56059 0.0
C257 C 0.8 0.88061 0.63218 0.0
C258 C 0.74213 0.85125 0.64615 0.0
C259 C 0.69213 0.82183 0.53403 0.0
C260 C 0.68579 0.84094 0.52232 0.0
C261 C 0.69398 0.87131 0.52833 0.0
C262 C 0.70741 0.88219 0.54599 0.0
C263 C 0.71325 0.86271 0.55767 0.0
C264 C 0.70621 0.8333 0.55148 0.0
C265 C 0.71614 0.81674 0.56527 0.0
C266 C 0.72882 0.84039 0.5811 0.0
C267 C 0.72693 0.86725 0.57661 0.0
C268 C 0.74294 0.81235 0.55638 0.0
C269 C 0.68596 0.78576 0.57093 0.0
C270 C 0.75752 0.96733 0.61332 0.0
C271 C 0.77029 0.97708 0.6313 0.0
C272 C 0.77492 0.95666 0.64279 0.0
C273 C 0.7678 0.92708 0.63634 0.0
C274 C 0.75606 0.91785 0.61814 0.0
C275 C 0.75046 0.93751 0.60705 0.0
C276 C 0.73746 0.92323 0.5882 0.0
C277 C 0.73667 0.892 0.58981 0.0
C278 C 0.74792 0.88933 0.60731 0.0
C279 C 0.76157 0.94462 0.57331 0.0
C280 C 0.70339 0.91885 0.58617 0.0
H281 H 0.73363 0.77605 0.58711 0.0
H282 H 0.78284 0.81864 0.64886 0.0
H283 H 0.72155 0.8268 0.64661 0.0
H284 H 0.73078 0.86603 0.64569 0.0
H285 H 0.75572 0.85571 0.65938 0.0
H286 H 0.81528 0.87622 0.62246 0.0
H287 H 0.80782 0.87936 0.64654 0.0
H288 H 0.80599 0.90496 0.62934 0.0
H289 H 0.68646 0.79856 0.5296 0.0
H290 H 0.68954 0.88643 0.5194 0.0
H291 H 0.7128 0.90539 0.54985 0.0
H292 H 0.75835 0.83238 0.54716 0.0
H293 H 0.73261 0.79061 0.54784 0.0
H294 H 0.75972 0.81187 0.56671 0.0
H295 H 0.66522 0.78953 0.57308 0.0
H296 H 0.68907 0.77635 0.58417 0.0
H297 H 0.6791 0.76757 0.55997 0.0
H298 H 0.75244 0.74767 0.60621 0.0
C299 C 0.74409 0.78597 0.60037 0.0
C300 C 0.02672 0.81199 0.63221 0.0
C301 C 0.0031 0.78253 0.62547 0.0
C302 C 0.00847 0.77113 0.6087 0.0
C303 C 0.05935 0.81931 0.60505 0.0
C304 C 0.05485 0.82957 0.62204 0.0
C305 C 0.08321 0.86038 0.62787 0.0
H306 H 0.21916 0.99191 0.60405 0.0
C307 C 0.09019 0.84413 0.59751 0.0
C308 C 0.10451 0.86801 0.61096 0.0
H309 H 0.17544 0.96719 0.6582 0.0
H310 H 0.13555 0.91596 0.64653 0.0
H311 H 0.21758 0.92705 0.59851 0.0
H312 H 0.1548 0.95979 0.57899 0.0
H313 H 0.16191 0.94095 0.56035 0.0
H314 H 0.19514 0.97499 0.57086 0.0
H315 H 0.22775 0.95282 0.579 0.0
H316 H 0.20456 0.91069 0.57633 0.0
C317 C 0.0987 0.85492 0.64537 0.0
C318 C 0.07168 0.88435 0.63074 0.0
C319 C 0.12038 0.83695 0.53086 0.0
C320 C 0.14623 0.85756 0.51974 0.0
C321 C 0.16991 0.88652 0.52703 0.0
C322 C 0.1679 0.89493 0.54535 0.0
C323 C 0.14189 0.87414 0.55642 0.0
C324 C 0.11868 0.84568 0.54914 0.0
C325 C 0.09289 0.82655 0.56297 0.0
C326 C 0.10457 0.84818 0.57979 0.0
C327 C 0.13317 0.87603 0.57581 0.0
C328 C 0.09311 0.79561 0.56652 0.0
C329 C 0.06068 0.82191 0.55524 0.0
C330 C 0.20105 0.97533 0.61339 0.0
C331 C 0.19996 0.9836 0.63195 0.0
C332 C 0.17644 0.9613 0.64381 0.0
C333 C 0.15338 0.93169 0.63701 0.0
C334 C 0.15424 0.92413 0.61826 0.0
C335 C 0.17846 0.94541 0.60698 0.0
C336 C 0.17727 0.93236 0.58791 0.0
C337 C 0.14782 0.89999 0.58947 0.0
C338 C 0.134 0.89563 0.60711 0.0
C339 C 0.2084 0.93075 0.5851 0.0
C340 C 0.17222 0.95306 0.57365 0.0
H341 H 0.03886 0.77982 0.58554 0.0
H342 H 0.02336 0.82106 0.64521 0.0
H343 H 0.0568 0.88382 0.61872 0.0
H344 H 0.0916 0.90873 0.63194 0.0
H345 H 0.05684 0.87885 0.64344 0.0
H346 H 0.09186 0.82984 0.64689 0.0
H347 H 0.09119 0.86194 0.65823 0.0
H348 H 0.12529 0.86768 0.64469 0.0
H349 H 0.10201 0.81449 0.52543 0.0
H350 H 0.18995 0.90252 0.51852 0.0
H351 H 0.18664 0.91732 0.55016 0.0
H352 H 0.1177 0.79905 0.56501 0.0
H353 H 0.07716 0.77701 0.55653 0.0
H354 H 0.08604 0.78691 0.58084 0.0
H355 H 0.06393 0.8443 0.54952 0.0
H356 H 0.04188 0.81469 0.56584 0.0
H357 H 0.05141 0.80422 0.54386 0.0
H358 H 0.99062 0.74833 0.6034 0.0
C359 C 0.03637 0.78947 0.59838 0.0
C360 C 0.89462 0.51885 0.71336 0.0
C361 C 0.89837 0.54686 0.7207 0.0
C362 C 0.91102 0.55639 0.73873 0.0
C363 C 0.91413 0.50902 0.74234 0.0
C364 C 0.9025 0.50029 0.72442 0.0
C365 C 0.89779 0.46871 0.7192 0.0
H366 H 0.90065 0.33721 0.74258 0.0
C367 C 0.91745 0.48323 0.75054 0.0
C368 C 0.90774 0.45954 0.73705 0.0
H369 H 0.87495 0.36052 0.68991 0.0
H370 H 0.88565 0.41058 0.70215 0.0
H371 H 0.96385 0.40905 0.75087 0.0
H372 H 0.86462 0.3614 0.76754 0.0
H373 H 0.88697 0.38572 0.78614 0.0
H374 H 0.89364 0.35425 0.77889 0.0
H375 H 0.94603 0.37479 0.76528 0.0
H376 H 0.96164 0.41333 0.77505 0.0
C377 C 0.92093 0.47333 0.70304 0.0
C378 C 0.86168 0.44665 0.71469 0.0
C379 C 0.96164 0.49309 0.81608 0.0
C380 C 0.9698 0.47391 0.82682 0.0
C381 C 0.95605 0.44219 0.82088 0.0
C382 C 0.94157 0.43222 0.80339 0.0
C383 C 0.93892 0.45355 0.79177 0.0
C384 C 0.9475 0.48297 0.79848 0.0
C385 C 0.94009 0.50161 0.78478 0.0
C386 C 0.9273 0.47901 0.76841 0.0
C387 C 0.92666 0.45083 0.77263 0.0
C388 C 0.97188 0.53185 0.7801 0.0
C389 C 0.91399 0.50751 0.79326 0.0
C390 C 0.89757 0.35335 0.73379 0.0
C391 C 0.88708 0.34531 0.71531 0.0
C392 C 0.88308 0.36653 0.70417 0.0
C393 C 0.88931 0.3955 0.71132 0.0
C394 C 0.89962 0.40334 0.72985 0.0
C395 C 0.90378 0.38253 0.74075 0.0
C396 C 0.91495 0.39507 0.7601 0.0
C397 C 0.91698 0.42689 0.75892 0.0
C398 C 0.90781 0.43141 0.74121 0.0
C399 C 0.94831 0.39817 0.76317 0.0
C400 C 0.88896 0.373 0.77401 0.0
H401 H 0.92797 0.5458 0.76336 0.0
H402 H 0.88442 0.51093 0.69963 0.0
H403 H 0.84632 0.45199 0.72377 0.0
H404 H 0.85357 0.42169 0.7173 0.0
H405 H 0.8561 0.44934 0.70006 0.0
H406 H 0.94346 0.49641 0.70416 0.0
H407 H 0.90973 0.47253 0.68939 0.0
H408 H 0.92907 0.45592 0.7031 0.0
H409 H 0.96533 0.51536 0.82085 0.0
H410 H 0.95654 0.42462 0.82962 0.0
H411 H 0.93317 0.40828 0.79957 0.0
H412 H 0.99174 0.52662 0.7784 0.0
H413 H 0.97891 0.54958 0.79136 0.0
H414 H 0.97079 0.54256 0.76688 0.0
H415 H 0.89731 0.48757 0.80216 0.0
H416 H 0.89835 0.50932 0.78263 0.0
H417 H 0.92491 0.52903 0.80201 0.0
H418 H 0.91367 0.57786 0.74459 0.0
C419 C 0.919 0.53763 0.7496 0.0
C420 C 0.64141 0.52086 0.7123 0.0
C421 C 0.6669 0.54892 0.71931 0.0
C422 C 0.66531 0.55844 0.73754 0.0
C423 C 0.61393 0.51117 0.74189 0.0
C424 C 0.61541 0.50229 0.72384 0.0
C425 C 0.58724 0.47088 0.71889 0.0
H426 H 0.4449 0.34543 0.74217 0.0
C427 C 0.5843 0.48586 0.75037 0.0
C428 C 0.56869 0.46218 0.73693 0.0
H429 H 0.49716 0.36183 0.69095 0.0
H430 H 0.53969 0.41115 0.70289 0.0
H431 H 0.50323 0.36228 0.76686 0.0
H432 H 0.46268 0.41944 0.75099 0.0
H433 H 0.46921 0.42222 0.77524 0.0
H434 H 0.4426 0.3847 0.76492 0.0
H435 H 0.4706 0.36108 0.77949 0.0
H436 H 0.51198 0.38884 0.78524 0.0
C437 C 0.5999 0.44822 0.71413 0.0
C438 C 0.56845 0.47579 0.70297 0.0
C439 C 0.55467 0.49613 0.81683 0.0
C440 C 0.5295 0.47547 0.82842 0.0
C441 C 0.50724 0.44528 0.82182 0.0
C442 C 0.50909 0.43621 0.80365 0.0
C443 C 0.53381 0.45733 0.79202 0.0
C444 C 0.55661 0.48641 0.79879 0.0
C445 C 0.58246 0.50471 0.78479 0.0
C446 C 0.57077 0.4822 0.76834 0.0
C447 C 0.54198 0.45471 0.77262 0.0
C448 C 0.61476 0.50978 0.79272 0.0
C449 C 0.58223 0.5354 0.78049 0.0
C450 C 0.46542 0.35995 0.73354 0.0
C451 C 0.46762 0.35014 0.71552 0.0
C452 C 0.49493 0.36918 0.70478 0.0
C453 C 0.5196 0.39772 0.71178 0.0
C454 C 0.51726 0.40716 0.72987 0.0
C455 C 0.49072 0.38819 0.74052 0.0
C456 C 0.4937 0.40082 0.75993 0.0
C457 C 0.52581 0.43111 0.75889 0.0
C458 C 0.53927 0.43477 0.7412 0.0
C459 C 0.49474 0.3771 0.77369 0.0
C460 C 0.46556 0.40707 0.76311 0.0
H461 H 0.63915 0.54811 0.76267 0.0
H462 H 0.64225 0.51314 0.69832 0.0
H463 H 0.56728 0.49756 0.70532 0.0
H464 H 0.54319 0.45684 0.70193 0.0
H465 H 0.5803 0.47809 0.6894 0.0
H466 H 0.62266 0.45481 0.72171 0.0
H467 H 0.60478 0.44852 0.69905 0.0
H468 H 0.58327 0.42382 0.71845 0.0
H469 H 0.5723 0.51933 0.8217 0.0
H470 H 0.48786 0.42903 0.83064 0.0
H471 H 0.49101 0.4132 0.79932 0.0
H472 H 0.61101 0.48946 0.8013 0.0
H473 H 0.62658 0.53105 0.80167 0.0
H474 H 0.63162 0.51153 0.7818 0.0
H475 H 0.55716 0.53077 0.77917 0.0
H476 H 0.59381 0.54604 0.7672 0.0
H477 H 0.59422 0.55295 0.79177 0.0
H478 H 0.68482 0.58015 0.74308 0.0
C479 C 0.63891 0.53975 0.74887 0.0
C480 C 0.64488 0.13425 0.71878 0.0
C481 C 0.66907 0.12914 0.72609 0.0
C482 C 0.66485 0.11561 0.7438 0.0
C483 C 0.61279 0.11232 0.74654 0.0
C484 C 0.61698 0.12543 0.7291 0.0
C485 C 0.58823 0.12759 0.72281 0.0
H486 H 0.44296 0.11233 0.74154 0.0
C487 C 0.58109 0.10601 0.75355 0.0
C488 C 0.56666 0.11498 0.73966 0.0
H489 H 0.49439 0.13878 0.68973 0.0
H490 H 0.53711 0.1326 0.70334 0.0
H491 H 0.45675 0.05383 0.74926 0.0
H492 H 0.50258 0.14959 0.76859 0.0
H493 H 0.50255 0.12666 0.78723 0.0
H494 H 0.4648 0.12002 0.7777 0.0
H495 H 0.43749 0.06835 0.76442 0.0
H496 H 0.46296 0.05428 0.77338 0.0
C497 C 0.57332 0.10604 0.70557 0.0
C498 C 0.59918 0.16252 0.71935 0.0
C499 C 0.54261 0.05811 0.81761 0.0
C500 C 0.51578 0.05234 0.82834 0.0
C501 C 0.49423 0.06145 0.82135 0.0
C502 C 0.49844 0.07476 0.80366 0.0
C503 C 0.52482 0.07961 0.79287 0.0
C504 C 0.5469 0.07219 0.8001 0.0
C505 C 0.57481 0.0814 0.78721 0.0
C506 C 0.56506 0.09415 0.77073 0.0
C507 C 0.53547 0.09261 0.77403 0.0
C508 C 0.57614 0.05154 0.78201 0.0
C509 C 0.60554 0.1072 0.79696 0.0
C510 C 0.46352 0.11678 0.73321 0.0
C511 C 0.46575 0.12658 0.71467 0.0
C512 C 0.49247 0.13157 0.70408 0.0
C513 C 0.51716 0.12793 0.71203 0.0
C514 C 0.5149 0.11859 0.73068 0.0
C515 C 0.48812 0.11266 0.74085 0.0
C516 C 0.48906 0.10135 0.76014 0.0
C517 C 0.52083 0.10157 0.75991 0.0
C518 C 0.53607 0.11213 0.7427 0.0
C519 C 0.46002 0.06776 0.7621 0.0
C520 C 0.48954 0.12538 0.77427 0.0
H521 H 0.63502 0.09684 0.76743 0.0
H522 H 0.64736 0.14422 0.70508 0.0
H523 H 0.61508 0.17741 0.73084 0.0
H524 H 0.57905 0.16725 0.71882 0.0
H525 H 0.61285 0.17074 0.7062 0.0
H526 H 0.57887 0.08663 0.70541 0.0
H527 H 0.58263 0.11937 0.69247 0.0
H528 H 0.54676 0.09405 0.70542 0.0
H529 H 0.55981 0.05178 0.82276 0.0
H530 H 0.47365 0.05753 0.82948 0.0
H531 H 0.48085 0.08062 0.79904 0.0
H532 H 0.55153 0.03146 0.77948 0.0
H533 H 0.5872 0.04483 0.79337 0.0
H534 H 0.58938 0.05408 0.76906 0.0
H535 H 0.60009 0.12278 0.80555 0.0
H536 H 0.62399 0.12312 0.7871 0.0
H537 H 0.61613 0.09676 0.80628 0.0
H538 H 0.68309 0.11123 0.74958 0.0
C539 C 0.63692 0.10726 0.75409 0.0
C540 C 0.84223 0.5248 0.96221 0.0
C541 C 0.87276 0.5328 0.9554 0.0
C542 C 0.88304 0.54933 0.93856 0.0
C543 C 0.8326 0.54935 0.93558 0.0
C544 C 0.82296 0.53379 0.95234 0.0
C545 C 0.79118 0.52951 0.95857 0.0
H546 H 0.66404 0.55078 0.94348 0.0
C547 C 0.80661 0.55486 0.92882 0.0
C548 C 0.78242 0.54347 0.94235 0.0
H549 H 0.68505 0.51334 0.99223 0.0
H550 H 0.73282 0.51858 0.97762 0.0
H551 H 0.73892 0.60689 0.93472 0.0
H552 H 0.67886 0.51242 0.91495 0.0
H553 H 0.70539 0.53257 0.89678 0.0
H554 H 0.67744 0.54469 0.90446 0.0
H555 H 0.70221 0.59341 0.92182 0.0
H556 H 0.73958 0.60609 0.91019 0.0
C557 C 0.79688 0.54874 0.97671 0.0
C558 C 0.7673 0.49395 0.96052 0.0
C559 C 0.81527 0.60601 0.86591 0.0
C560 C 0.79329 0.61072 0.85536 0.0
C561 C 0.76209 0.59969 0.86229 0.0
C562 C 0.75341 0.58579 0.87982 0.0
C563 C 0.77586 0.5821 0.89046 0.0
C564 C 0.8058 0.59106 0.88321 0.0
C565 C 0.82525 0.58241 0.89584 0.0
C566 C 0.80243 0.56777 0.91207 0.0
C567 C 0.77383 0.56838 0.90898 0.0
C568 C 0.85621 0.61283 0.90161 0.0
C569 C 0.83127 0.55823 0.8855 0.0
C570 C 0.67916 0.5439 0.95092 0.0
C571 C 0.67125 0.53192 0.96901 0.0
C572 C 0.69101 0.52275 0.97832 0.0
C573 C 0.71869 0.52592 0.96982 0.0
C574 C 0.72672 0.53842 0.95181 0.0
C575 C 0.70692 0.54693 0.9426 0.0
C576 C 0.71891 0.55914 0.92341 0.0
C577 C 0.74997 0.55799 0.92299 0.0
C578 C 0.75431 0.54569 0.93961 0.0
C579 C 0.72518 0.59316 0.92231 0.0
C580 C 0.69392 0.53629 0.90907 0.0
H581 H 0.87225 0.57002 0.91583 0.0
H582 H 0.8339 0.51247 0.97525 0.0
H583 H 0.76992 0.48073 0.94875 0.0
H584 H 0.74195 0.48812 0.96013 0.0
H585 H 0.77172 0.48473 0.97359 0.0
H586 H 0.82171 0.56919 0.97738 0.0
H587 H 0.79345 0.53418 0.98917 0.0
H588 H 0.78123 0.5592 0.97772 0.0
H589 H 0.83924 0.6138 0.86079 0.0
H590 H 0.74471 0.60273 0.85428 0.0
H591 H 0.72962 0.57871 0.88449 0.0
H592 H 0.85113 0.63229 0.90393 0.0
H593 H 0.87479 0.62036 0.89066 0.0
H594 H 0.86642 0.61051 0.91487 0.0
H595 H 0.8095 0.5413 0.87755 0.0
H596 H 0.83643 0.54366 0.89492 0.0
H597 H 0.85131 0.57003 0.87549 0.0
H598 H 0.90658 0.55592 0.93316 0.0
C599 C 0.86307 0.55745 0.92855 0.0
C600 C 0.44632 0.1477 0.96412 0.0
C601 C 0.44342 0.12029 0.95629 0.0
C602 C 0.4318 0.11179 0.93799 0.0
C603 C 0.42692 0.15834 0.93539 0.0
C604 C 0.43813 0.16641 0.95343 0.0
C605 C 0.4409 0.19694 0.9594 0.0
H606 H 0.43063 0.32554 0.93825 0.0
C607 C 0.42179 0.18345 0.92791 0.0
C608 C 0.43025 0.20626 0.94187 0.0
H609 H 0.45886 0.30308 0.99035 0.0
H610 H 0.44968 0.25365 0.97767 0.0
H611 H 0.4685 0.30529 0.91301 0.0
H612 H 0.36967 0.25341 0.9299 0.0
H613 H 0.37128 0.24833 0.90581 0.0
H614 H 0.38555 0.28708 0.91505 0.0
H615 H 0.43815 0.31068 0.9019 0.0
H616 H 0.44724 0.28103 0.89416 0.0
C617 C 0.47659 0.22017 0.96423 0.0
C618 C 0.41721 0.19018 0.97559 0.0
C619 C 0.37717 0.17476 0.86263 0.0
C620 C 0.37242 0.19569 0.85166 0.0
C621 C 0.38175 0.22583 0.85859 0.0
C622 C 0.39436 0.2346 0.87655 0.0
C623 C 0.39816 0.21318 0.8876 0.0
C624 C 0.39053 0.18417 0.88043 0.0
C625 C 0.39883 0.16563 0.89368 0.0
C626 C 0.41114 0.18771 0.9103 0.0
C627 C 0.41022 0.21527 0.9067 0.0
C628 C 0.42552 0.16099 0.88479 0.0
C629 C 0.3677 0.13471 0.89823 0.0
C630 C 0.43456 0.30972 0.94685 0.0
C631 C 0.44545 0.31784 0.96522 0.0
C632 C 0.45048 0.29701 0.97614 0.0
C633 C 0.44522 0.26848 0.96872 0.0
C634 C 0.43497 0.26083 0.95017 0.0
C635 C 0.42953 0.28118 0.93962 0.0
C636 C 0.41879 0.26921 0.92018 0.0
C637 C 0.41868 0.23831 0.92081 0.0
C638 C 0.4283 0.23363 0.93836 0.0
C639 C 0.44421 0.29272 0.90649 0.0
C640 C 0.38461 0.26434 0.91739 0.0
H641 H 0.41472 0.123 0.91364 0.0
H642 H 0.45513 0.15455 0.97821 0.0
H643 H 0.39516 0.16688 0.97381 0.0
H644 H 0.40837 0.20702 0.97627 0.0
H645 H 0.42829 0.1901 0.98913 0.0
H646 H 0.49285 0.2167 0.9548 0.0
H647 H 0.48236 0.21675 0.97868 0.0
H648 H 0.4833 0.24496 0.9624 0.0
H649 H 0.37065 0.15164 0.85743 0.0
H650 H 0.37853 0.24231 0.8502 0.0
H651 H 0.40046 0.25765 0.88115 0.0
H652 H 0.44028 0.18019 0.87492 0.0
H653 H 0.41514 0.13852 0.87696 0.0
H654 H 0.44301 0.16181 0.89512 0.0
H655 H 0.34764 0.1393 0.90098 0.0
H656 H 0.36991 0.12319 0.91082 0.0
H657 H 0.36039 0.11788 0.88645 0.0
H658 H 0.4293 0.09056 0.93185 0.0
C659 C 0.42345 0.13065 0.9275 0.0
C660 C 0.69117 0.14455 0.96862 0.0
C661 C 0.66719 0.11565 0.96153 0.0
C662 C 0.67019 0.10653 0.94345 0.0
C663 C 0.72055 0.15517 0.93959 0.0
C664 C 0.71753 0.16389 0.95743 0.0
C665 C 0.74509 0.19552 0.96274 0.0
H666 H 0.88495 0.32564 0.94062 0.0
C667 C 0.75044 0.18095 0.93156 0.0
C668 C 0.76481 0.20469 0.94509 0.0
H669 H 0.83386 0.30379 0.99252 0.0
H670 H 0.79259 0.25418 0.97997 0.0
H671 H 0.87304 0.25381 0.93278 0.0
H672 H 0.82455 0.30289 0.91484 0.0
H673 H 0.82212 0.27857 0.89633 0.0
H674 H 0.861 0.30944 0.90413 0.0
H675 H 0.89089 0.28742 0.91786 0.0
H676 H 0.86623 0.2485 0.90865 0.0
C677 C 0.76323 0.19106 0.97923 0.0
C678 C 0.73147 0.21757 0.96684 0.0
C679 C 0.78451 0.17155 0.86597 0.0
C680 C 0.80984 0.19262 0.85459 0.0
C681 C 0.83107 0.22307 0.86129 0.0
C682 C 0.82795 0.23209 0.87928 0.0
C683 C 0.80297 0.21064 0.89067 0.0
C684 C 0.78128 0.18119 0.88382 0.0
C685 C 0.75495 0.1624 0.89749 0.0
C686 C 0.76509 0.18501 0.91387 0.0
C687 C 0.7935 0.21309 0.90985 0.0
C688 C 0.75614 0.13237 0.90229 0.0
C689 C 0.72267 0.15615 0.88884 0.0
C690 C 0.86485 0.30995 0.9492 0.0
C691 C 0.86245 0.31828 0.96756 0.0
C692 C 0.83601 0.2976 0.97837 0.0
C693 C 0.81215 0.26887 0.97103 0.0
C694 C 0.8147 0.2607 0.95265 0.0
C695 C 0.84074 0.28106 0.94204 0.0
C696 C 0.8392 0.26842 0.92276 0.0
C697 C 0.8082 0.23698 0.92364 0.0
C698 C 0.79397 0.23268 0.94117 0.0
C699 C 0.86891 0.2644 0.92019 0.0
C700 C 0.83682 0.29095 0.90867 0.0
H701 H 0.6977 0.11783 0.91879 0.0
H702 H 0.6893 0.15194 0.98251 0.0
H703 H 0.71127 0.2126 0.95722 0.0
H704 H 0.74917 0.24257 0.96466 0.0
H705 H 0.7222 0.2144 0.98123 0.0
H706 H 0.76231 0.16804 0.97828 0.0
H707 H 0.75249 0.19179 0.99271 0.0
H708 H 0.78913 0.20856 0.97945 0.0
H709 H 0.76763 0.14813 0.86106 0.0
H710 H 0.85057 0.23968 0.85267 0.0
H711 H 0.84522 0.2554 0.88365 0.0
H712 H 0.78142 0.13785 0.90416 0.0
H713 H 0.7452 0.11461 0.89101 0.0
H714 H 0.74408 0.12162 0.91546 0.0
H715 H 0.72615 0.17608 0.87997 0.0
H716 H 0.70504 0.15401 0.89935 0.0
H717 H 0.71187 0.13472 0.88001 0.0
H718 H 0.65184 0.08421 0.93785 0.0
C719 C 0.69675 0.12609 0.93244 0.0
C720 C 0.55197 0.85137 0.05285 0.0
C721 C 0.55717 0.87997 0.06015 0.0
C722 C 0.5714 0.88981 0.07783 0.0
C723 C 0.57453 0.84232 0.08083 0.0
C724 C 0.56093 0.83307 0.06335 0.0
C725 C 0.55693 0.80196 0.05761 0.0
H726 H 0.56797 0.67375 0.07851 0.0
C727 C 0.5805 0.81757 0.08811 0.0
C728 C 0.57029 0.79393 0.0745 0.0
H729 H 0.53188 0.69252 0.02807 0.0
H730 H 0.54412 0.74335 0.04002 0.0
H731 H 0.62918 0.73912 0.08145 0.0
H732 H 0.53719 0.70351 0.10744 0.0
H733 H 0.56736 0.7227 0.12444 0.0
H734 H 0.56462 0.68958 0.11221 0.0
H735 H 0.61949 0.71651 0.10233 0.0
H736 H 0.63703 0.75867 0.10289 0.0
C737 C 0.57782 0.8071 0.0402 0.0
C738 C 0.52057 0.77867 0.05476 0.0
C739 C 0.62661 0.82666 0.1531 0.0
C740 C 0.63653 0.80816 0.16279 0.0
C741 C 0.63349 0.78103 0.15428 0.0
C742 C 0.62027 0.77206 0.13647 0.0
C743 C 0.61033 0.79062 0.12693 0.0
C744 C 0.61413 0.81775 0.13507 0.0
C745 C 0.60441 0.83566 0.12219 0.0
C746 C 0.59336 0.81431 0.10521 0.0
C747 C 0.59647 0.78776 0.10825 0.0
C748 C 0.63454 0.86781 0.11815 0.0
C749 C 0.57648 0.83788 0.13126 0.0
C750 C 0.56266 0.68892 0.07017 0.0
C751 C 0.54872 0.67933 0.05247 0.0
C752 C 0.54243 0.69959 0.0418 0.0
C753 C 0.54958 0.729 0.04877 0.0
C754 C 0.56323 0.73825 0.0666 0.0
C755 C 0.56983 0.71845 0.0769 0.0
C756 C 0.58514 0.73254 0.09532 0.0
C757 C 0.58588 0.76375 0.09458 0.0
C758 C 0.57294 0.76689 0.07777 0.0
C759 C 0.6194 0.73682 0.0957 0.0
C760 C 0.56267 0.71103 0.11078 0.0
H761 H 0.59056 0.87965 0.10169 0.0
H762 H 0.54101 0.84341 0.03928 0.0
H763 H 0.50598 0.78352 0.06476 0.0
H764 H 0.51387 0.75406 0.05738 0.0
H765 H 0.51267 0.78052 0.04054 0.0
H766 H 0.60043 0.83016 0.04092 0.0
H767 H 0.56485 0.80678 0.02733 0.0
H768 H 0.58579 0.78967 0.0389 0.0
H769 H 0.62905 0.84781 0.15933 0.0
H770 H 0.64118 0.76663 0.16154 0.0
H771 H 0.61834 0.75101 0.13084 0.0
H772 H 0.65662 0.86584 0.11798 0.0
H773 H 0.63798 0.88544 0.12891 0.0
H774 H 0.63375 0.87705 0.10432 0.0
H775 H 0.55907 0.81513 0.13769 0.0
H776 H 0.56232 0.84296 0.12121 0.0
H777 H 0.58553 0.8561 0.14234 0.0
H778 H 0.57549 0.91187 0.0836 0.0
C779 C 0.58007 0.87109 0.08824 0.0
C780 C 0.30185 0.86375 0.04661 0.0
C781 C 0.32714 0.89141 0.05409 0.0
C782 C 0.32493 0.90029 0.07239 0.0
C783 C 0.27311 0.85314 0.07583 0.0
C784 C 0.2752 0.845 0.05769 0.0
C785 C 0.24651 0.81448 0.05194 0.0
H786 H 0.11739 0.67807 0.07632 0.0
C787 C 0.24314 0.82753 0.08384 0.0
C788 C 0.22768 0.80475 0.06989 0.0
H789 H 0.15378 0.70963 0.02111 0.0
H790 H 0.19313 0.76037 0.03344 0.0
H791 H 0.18282 0.71015 0.09937 0.0
H792 H 0.1171 0.74258 0.08559 0.0
H793 H 0.13044 0.75519 0.10834 0.0
H794 H 0.10838 0.71374 0.10319 0.0
H795 H 0.1437 0.69399 0.10953 0.0
H796 H 0.17803 0.72806 0.11932 0.0
C797 C 0.25837 0.79162 0.04625 0.0
C798 C 0.22833 0.82112 0.03635 0.0
C799 C 0.21072 0.83355 0.15041 0.0
C800 C 0.18582 0.81164 0.16174 0.0
C801 C 0.16599 0.78086 0.15509 0.0
C802 C 0.16961 0.7724 0.13707 0.0
C803 C 0.19368 0.7948 0.12562 0.0
C804 C 0.2145 0.82447 0.13251 0.0
C805 C 0.24036 0.84411 0.11875 0.0
C806 C 0.22985 0.82225 0.10199 0.0
C807 C 0.20237 0.79347 0.10613 0.0
C808 C 0.27296 0.85022 0.12681 0.0
C809 C 0.23891 0.87425 0.11478 0.0
C810 C 0.13381 0.69603 0.06691 0.0
C811 C 0.13318 0.68974 0.04779 0.0
C812 C 0.15428 0.7139 0.0359 0.0
C813 C 0.17707 0.74323 0.04309 0.0
C814 C 0.17832 0.74871 0.06232 0.0
C815 C 0.15602 0.7258 0.07377 0.0
C816 C 0.15859 0.73719 0.09346 0.0
C817 C 0.18714 0.77024 0.09208 0.0
C818 C 0.19907 0.77641 0.07392 0.0
C819 C 0.16595 0.71626 0.10623 0.0
C820 C 0.12704 0.73707 0.09809 0.0
H821 H 0.29762 0.88921 0.09715 0.0
H822 H 0.30303 0.85678 0.03249 0.0
H823 H 0.23437 0.84609 0.0363 0.0
H824 H 0.20194 0.80764 0.03823 0.0
H825 H 0.2343 0.81581 0.02242 0.0
H826 H 0.27547 0.79187 0.05681 0.0
H827 H 0.27098 0.79845 0.03272 0.0
H828 H 0.23889 0.76704 0.04514 0.0
H829 H 0.22666 0.85719 0.15536 0.0
H830 H 0.147 0.76359 0.16371 0.0
H831 H 0.15331 0.74879 0.13271 0.0
H832 H 0.26984 0.83034 0.13561 0.0
H833 H 0.28432 0.87173 0.13557 0.0
H834 H 0.28998 0.85212 0.11595 0.0
H835 H 0.21362 0.86853 0.11261 0.0
H836 H 0.25184 0.88631 0.10206 0.0
H837 H 0.24899 0.89101 0.12661 0.0
H838 H 0.34427 0.9218 0.07825 0.0
C839 C 0.298 0.88131 0.08331 0.0
C840 C 0.30843 0.46261 0.04884 0.0
C841 C 0.33333 0.45828 0.05564 0.0
C842 C 0.33107 0.44655 0.07375 0.0
C843 C 0.27915 0.443 0.07785 0.0
C844 C 0.28167 0.45471 0.06008 0.0
C845 C 0.25265 0.45683 0.0546 0.0
H846 H 0.10895 0.44213 0.07581 0.0
C847 C 0.248 0.43698 0.08572 0.0
C848 C 0.23245 0.44499 0.072 0.0
H849 H 0.16015 0.47153 0.02402 0.0
H850 H 0.20204 0.46305 0.03645 0.0
H851 H 0.12412 0.38267 0.0835 0.0
H852 H 0.16684 0.47889 0.10139 0.0
H853 H 0.171 0.45823 0.11999 0.0
H854 H 0.1313 0.44845 0.1121 0.0
H855 H 0.10424 0.3972 0.09816 0.0
H856 H 0.1305 0.38451 0.10768 0.0
C857 C 0.23635 0.43469 0.03774 0.0
C858 C 0.26366 0.49177 0.05095 0.0
C859 C 0.21342 0.39265 0.15118 0.0
C860 C 0.18691 0.38711 0.16221 0.0
C861 C 0.16473 0.39536 0.15518 0.0
C862 C 0.16789 0.40746 0.13723 0.0
C863 C 0.19389 0.41205 0.12616 0.0
C864 C 0.21668 0.40558 0.13334 0.0
C865 C 0.24398 0.41438 0.11995 0.0
C866 C 0.23305 0.42586 0.10331 0.0
C867 C 0.20339 0.42396 0.10701 0.0
C868 C 0.24569 0.38458 0.11527 0.0
C869 C 0.27499 0.44102 0.12893 0.0
C870 C 0.12891 0.44599 0.06711 0.0
C871 C 0.13133 0.45712 0.04889 0.0
C872 C 0.15782 0.46257 0.038 0.0
C873 C 0.18216 0.45786 0.04533 0.0
C874 C 0.18004 0.44761 0.06377 0.0
C875 C 0.15347 0.44136 0.07425 0.0
C876 C 0.15552 0.43089 0.09361 0.0
C877 C 0.18764 0.43181 0.093 0.0
C878 C 0.20193 0.44185 0.07554 0.0
C879 C 0.12708 0.39711 0.09606 0.0
C880 C 0.15597 0.4551 0.10761 0.0
H881 H 0.30367 0.42968 0.09844 0.0
H882 H 0.30956 0.47143 0.03494 0.0
H883 H 0.28166 0.50708 0.06154 0.0
H884 H 0.24398 0.49711 0.05195 0.0
H885 H 0.275 0.49913 0.03709 0.0
H886 H 0.24138 0.41493 0.03759 0.0
H887 H 0.24507 0.44743 0.02441 0.0
H888 H 0.20984 0.42313 0.0381 0.0
H889 H 0.23109 0.38695 0.15633 0.0
H890 H 0.14439 0.39163 0.16349 0.0
H891 H 0.14978 0.41261 0.13264 0.0
H892 H 0.22116 0.36422 0.11299 0.0
H893 H 0.25707 0.37857 0.12679 0.0
H894 H 0.25888 0.38679 0.10236 0.0
H895 H 0.26986 0.45773 0.13654 0.0
H896 H 0.2934 0.45546 0.11865 0.0
H897 H 0.28545 0.4315 0.13901 0.0
H898 H 0.35008 0.44303 0.07919 0.0
C899 C 0.30414 0.43885 0.08488 0.0
C900 C 0.51722 0.86998 0.3008 0.0
C901 C 0.54861 0.87891 0.2953 0.0
C902 C 0.56012 0.89472 0.27834 0.0
C903 C 0.50904 0.8923 0.27253 0.0
C904 C 0.49798 0.87699 0.28929 0.0
C905 C 0.46398 0.869 0.29307 0.0
H906 H 0.3402 0.89299 0.27457 0.0
C907 C 0.48302 0.89615 0.26399 0.0
C908 C 0.45672 0.88284 0.27613 0.0
H909 H 0.34447 0.83074 0.31527 0.0
H910 H 0.39659 0.84288 0.30419 0.0
H911 H 0.41802 0.94874 0.26981 0.0
H912 H 0.35639 0.85911 0.24425 0.0
H913 H 0.38656 0.88044 0.22798 0.0
H914 H 0.35972 0.89433 0.23497 0.0
H915 H 0.38272 0.93884 0.25619 0.0
H916 H 0.42074 0.95156 0.24525 0.0
C917 C 0.46398 0.8859 0.31121 0.0
C918 C 0.44254 0.83276 0.29372 0.0
C919 C 0.49787 0.94716 0.20039 0.0
C920 C 0.4776 0.9533 0.18915 0.0
C921 C 0.44721 0.94604 0.19595 0.0
C922 C 0.43723 0.93317 0.21369 0.0
C923 C 0.45756 0.92688 0.22471 0.0
C924 C 0.48726 0.93369 0.21799 0.0
C925 C 0.50529 0.92475 0.23157 0.0
C926 C 0.48104 0.91041 0.24719 0.0
C927 C 0.45332 0.91222 0.2432 0.0
C928 C 0.53593 0.9551 0.23786 0.0
C929 C 0.51189 0.90027 0.22214 0.0
C930 C 0.35269 0.88245 0.28129 0.0
C931 C 0.3388 0.86217 0.29655 0.0
C932 C 0.3551 0.8475 0.30411 0.0
C933 C 0.38528 0.85433 0.29755 0.0
C934 C 0.39898 0.87494 0.28259 0.0
C935 C 0.38201 0.88734 0.27407 0.0
C936 C 0.39714 0.90287 0.25592 0.0
C937 C 0.42749 0.90032 0.25604 0.0
C938 C 0.42876 0.88472 0.27202 0.0
C939 C 0.40505 0.93738 0.2567 0.0
C940 C 0.37385 0.88347 0.2399 0.0
H941 H 0.55059 0.91332 0.25411 0.0
H942 H 0.50785 0.85764 0.31374 0.0
H943 H 0.45396 0.82075 0.28662 0.0
H944 H 0.4194 0.82437 0.28629 0.0
H945 H 0.43768 0.82416 0.30825 0.0
H946 H 0.48282 0.9111 0.31072 0.0
H947 H 0.46906 0.87524 0.32341 0.0
H948 H 0.44111 0.88534 0.3137 0.0
H949 H 0.52137 0.95257 0.19551 0.0
H950 H 0.43132 0.95068 0.18753 0.0
H951 H 0.41409 0.92869 0.21819 0.0
H952 H 0.53141 0.97515 0.23868 0.0
H953 H 0.5559 0.96156 0.22795 0.0
H954 H 0.544 0.95331 0.25195 0.0
H955 H 0.49032 0.88273 0.21429 0.0
H956 H 0.51728 0.88656 0.23215 0.0
H957 H 0.53209 0.91168 0.2122 0.0
H958 H 0.58427 0.90167 0.2739 0.0
C959 C 0.54053 0.90142 0.26692 0.0
C960 C 0.1058 0.47185 0.30213 0.0
C961 C 0.10254 0.44365 0.2954 0.0
C962 C 0.09064 0.43347 0.27731 0.0
C963 C 0.0866 0.48018 0.27263 0.0
C964 C 0.09784 0.48973 0.29053 0.0
C965 C 0.10121 0.52096 0.29528 0.0
H966 H 0.09375 0.64916 0.26925 0.0
C967 C 0.08148 0.50469 0.26413 0.0
C968 C 0.08995 0.52859 0.27736 0.0
H969 H 0.12509 0.63116 0.3217 0.0
H970 H 0.11273 0.57978 0.31103 0.0
H971 H 0.12668 0.61695 0.24249 0.0
H972 H 0.03213 0.583 0.26501 0.0
H973 H 0.0269 0.56322 0.24384 0.0
H974 H 0.04433 0.60537 0.244 0.0
H975 H 0.10112 0.63278 0.23692 0.0
H976 H 0.09733 0.59924 0.22479 0.0
C977 C 0.13721 0.54435 0.29938 0.0
C978 C 0.07825 0.51616 0.31156 0.0
C979 C 0.04513 0.49429 0.19686 0.0
C980 C 0.03983 0.51382 0.18464 0.0
C981 C 0.03849 0.53936 0.19298 0.0
C982 C 0.04781 0.54824 0.21148 0.0
C983 C 0.05707 0.53064 0.22244 0.0
C984 C 0.05441 0.50345 0.21531 0.0
C985 C 0.06227 0.48589 0.22952 0.0
C986 C 0.07086 0.50757 0.24621 0.0
C987 C 0.06805 0.53395 0.24191 0.0
C988 C 0.09147 0.48367 0.22243 0.0
C989 C 0.0317 0.45377 0.2329 0.0
C990 C 0.09786 0.63395 0.2783 0.0
C991 C 0.11056 0.64394 0.29624 0.0
C992 C 0.11543 0.62372 0.30782 0.0
C993 C 0.10829 0.594 0.30157 0.0
C994 C 0.09625 0.58438 0.28347 0.0
C995 C 0.09094 0.60407 0.27219 0.0
C996 C 0.0777 0.58951 0.25346 0.0
C997 C 0.07684 0.55827 0.25526 0.0
C998 C 0.0877 0.5555 0.27288 0.0
C999 C 0.10177 0.61065 0.2385 0.0
C1000 C 0.04359 0.58515 0.25129 0.0
H1001 H 0.07384 0.44274 0.25218 0.0
H1002 H 0.11503 0.48008 0.316 0.0
H1003 H 0.05557 0.49327 0.31022 0.0
H1004 H 0.07052 0.53386 0.3119 0.0
H1005 H 0.08942 0.51631 0.32512 0.0
H1006 H 0.15303 0.53847 0.29112 0.0
H1007 H 0.14306 0.54391 0.31427 0.0
H1008 H 0.1446 0.56868 0.29539 0.0
H1009 H 0.04178 0.47183 0.19253 0.0
H1010 H 0.02948 0.5525 0.18572 0.0
H1011 H 0.04718 0.5684 0.2166 0.0
H1012 H 0.10926 0.50599 0.21573 0.0
H1013 H 0.08391 0.4646 0.21197 0.0
H1014 H 0.10491 0.47996 0.23363 0.0
H1015 H 0.00966 0.45568 0.23162 0.0
H1016 H 0.03071 0.44478 0.24706 0.0
H1017 H 0.02968 0.43597 0.22264 0.0
H1018 H 0.08805 0.4117 0.27199 0.0
C1019 C 0.08254 0.45155 0.26589 0.0
C1020 C 0.36267 0.4771 0.30535 0.0
C1021 C 0.3378 0.44896 0.29797 0.0
C1022 C 0.33961 0.44068 0.27948 0.0
C1023 C 0.39096 0.48826 0.27593 0.0
C1024 C 0.38893 0.4964 0.29407 0.0
C1025 C 0.41735 0.52739 0.29957 0.0
H1026 H 0.56198 0.65236 0.27832 0.0
C1027 C 0.42164 0.51308 0.26815 0.0
C1028 C 0.43723 0.53603 0.28199 0.0
H1029 H 0.50645 0.63716 0.32809 0.0
H1030 H 0.46503 0.58703 0.31617 0.0
H1031 H 0.54926 0.58279 0.27342 0.0
H1032 H 0.50076 0.62861 0.25031 0.0
H1033 H 0.50659 0.60765 0.23239 0.0
H1034 H 0.54093 0.63863 0.24418 0.0
H1035 H 0.56553 0.60928 0.25425 0.0
H1036 H 0.53758 0.56797 0.25081 0.0
C1037 C 0.43465 0.52173 0.31602 0.0
C1038 C 0.40523 0.55063 0.30383 0.0
C1039 C 0.45281 0.50419 0.20183 0.0
C1040 C 0.4813 0.52178 0.19175 0.0
C1041 C 0.50723 0.54825 0.20016 0.0
C1042 C 0.50485 0.55729 0.21825 0.0
C1043 C 0.47638 0.53944 0.22823 0.0
C1044 C 0.45114 0.51307 0.22014 0.0
C1045 C 0.42385 0.49557 0.23345 0.0
C1046 C 0.43646 0.51641 0.25061 0.0
C1047 C 0.46709 0.54226 0.24736 0.0
C1048 C 0.42008 0.46277 0.23673 0.0
C1049 C 0.39359 0.49478 0.22532 0.0
C1050 C 0.54093 0.638 0.28662 0.0
C1051 C 0.53738 0.64844 0.30418 0.0
C1052 C 0.50961 0.62939 0.31458 0.0
C1053 C 0.48559 0.60043 0.30759 0.0
C1054 C 0.48914 0.59048 0.28988 0.0
C1055 C 0.5164 0.60923 0.27968 0.0
C1056 C 0.51531 0.59551 0.26081 0.0
C1057 C 0.48286 0.56554 0.26135 0.0
C1058 C 0.46783 0.56259 0.27848 0.0
C1059 C 0.54342 0.58865 0.25956 0.0
C1060 C 0.51613 0.61872 0.24603 0.0
H1061 H 0.36601 0.4526 0.25443 0.0
H1062 H 0.36158 0.4839 0.31952 0.0
H1063 H 0.38295 0.54453 0.29586 0.0
H1064 H 0.4225 0.57491 0.29959 0.0
H1065 H 0.39971 0.55047 0.31879 0.0
H1066 H 0.43599 0.50005 0.31367 0.0
H1067 H 0.42156 0.51882 0.32921 0.0
H1068 H 0.45975 0.54068 0.31786 0.0
H1069 H 0.43266 0.48356 0.19574 0.0
H1070 H 0.52941 0.56198 0.19263 0.0
H1071 H 0.5254 0.57774 0.22379 0.0
H1072 H 0.44369 0.46375 0.23596 0.0
H1073 H 0.40404 0.44561 0.22611 0.0
H1074 H 0.411 0.45346 0.2507 0.0
H1075 H 0.39991 0.51783 0.21911 0.0
H1076 H 0.37533 0.49046 0.2359 0.0
H1077 H 0.38244 0.47667 0.21424 0.0
H1078 H 0.32049 0.41901 0.27365 0.0
C1079 C 0.36604 0.46017 0.26841 0.0
Eu1080 Eu 0.48606 0.97533 0.98574 0.0
C1081 C 0.5549 0.09759 0.03278 0.0
C1082 C 0.611 0.11313 0.03032 0.0
C1083 C 0.59523 0.15292 0.03188 0.0
C1084 C 0.57836 0.08963 0.03079 0.0
C1085 C 0.56301 0.12931 0.0339 0.0
C1086 C 0.61924 0.14483 0.03013 0.0
C1087 C 0.50753 0.11182 0.04106 0.0
N1088 N 0.52428 0.07413 0.03503 0.0
C1089 C 0.50082 0.08073 0.04001 0.0
C1090 C 0.53868 0.13624 0.03768 0.0
Eu1091 Eu 0.51357 0.022 0.03001 0.0
N1092 N 0.56941 0.05884 0.03132 0.0
C1093 C 0.59198 0.0501 0.03394 0.0
C1094 C 0.63431 0.10408 0.03119 0.0
C1095 C 0.62474 0.07248 0.03365 0.0
H1096 H 0.47657 0.06186 0.04229 0.0
H1097 H 0.64253 0.06528 0.03518 0.0
H1098 H 0.64416 0.16324 0.02944 0.0
H1099 H 0.48866 0.11691 0.0444 0.0
H1100 H 0.58496 0.02585 0.03607 0.0
H1101 H 0.35502 0.91201 0.98857 0.0
H1102 H 0.65967 0.12136 0.03092 0.0
H1103 H 0.53262 0.94858 0.96754 0.0
H1104 H 0.40943 0.95821 0.98671 0.0
H1105 H 0.5302 0.89823 0.96155 0.0
H1106 H 0.60195 0.17746 0.03242 0.0
H1107 H 0.34806 0.85868 0.98722 0.0
H1108 H 0.37304 0.82486 0.98229 0.0
H1109 H 0.54388 0.16031 0.03859 0.0
H1110 H 0.42099 0.82112 0.97487 0.0
N1111 N 0.43299 0.93181 0.98568 0.0
C1112 C 0.40661 0.93524 0.98641 0.0
C1113 C 0.37195 0.879 0.9866 0.0
C1114 C 0.39894 0.87563 0.98417 0.0
C1115 C 0.37577 0.90902 0.98732 0.0
C1116 C 0.42949 0.90289 0.98354 0.0
H1117 H 0.47968 0.84839 0.96684 0.0
N1118 N 0.48475 0.92777 0.97768 0.0
C1119 C 0.5093 0.89856 0.9668 0.0
C1120 C 0.45629 0.90078 0.97941 0.0
C1121 C 0.51067 0.92713 0.97044 0.0
C1122 C 0.48077 0.87049 0.96981 0.0
C1123 C 0.45354 0.87136 0.97575 0.0
O1124 O 0.5114 0.9949 0.95976 0.0
O1125 O 0.5246 0.01796 1.00038 0.0
O1126 O 0.49805 0.04759 0.01001 0.0
O1127 O 0.46763 0.01005 0.98745 0.0
O1128 O 0.53947 0.99556 0.98211 0.0
O1129 O 0.46044 0.97702 0.96082 0.0
O1130 O 0.49349 0.01939 0.05768 0.0
O1131 O 0.47357 0.98066 0.01524 0.0
O1132 O 0.50073 0.94835 1.00506 0.0
O1133 O 0.53068 0.98635 0.0278 0.0
O1134 O 0.46114 0.00268 0.03525 0.0
O1135 O 0.52716 0.00312 0.05353 0.0
C1136 C 0.5493 0.0191 0.99326 0.0
C1137 C 0.48322 0.97641 0.93166 0.0
C1138 C 0.49029 0.98433 0.89809 0.0
C1139 C 0.48985 0.99579 0.91599 0.0
C1140 C 0.48389 0.95329 0.89613 0.0
C1141 C 0.47625 0.94536 0.92929 0.0
C1142 C 0.47666 0.93393 0.91161 0.0
C1143 C 0.47869 0.03807 0.99534 0.0
C1144 C 0.48596 0.98949 0.95043 0.0
C1145 C 0.42353 0.84396 0.97742 0.0
C1146 C 0.39624 0.84609 0.98164 0.0
C1147 C 0.44972 0.97992 0.02347 0.0
C1148 C 0.52391 0.01985 0.08377 0.0
C1149 C 0.5093 0.00253 0.09994 0.0
C1150 C 0.52393 0.0135 0.11747 0.0
C1151 C 0.55309 0.04203 0.11856 0.0
C1152 C 0.55285 0.04839 0.08523 0.0
C1153 C 0.56731 0.05938 0.10256 0.0
C1154 C 0.51975 0.95846 0.01986 0.0
C1155 C 0.50939 0.0074 0.06546 0.0
H1156 H 0.49508 0.01979 0.91772 0.0
H1157 H 0.48412 0.94396 0.88254 0.0
H1158 H 0.47083 0.93005 0.9411 0.0
H1159 H 0.4715 0.90999 0.9099 0.0
H1160 H 0.48683 0.98051 0.09891 0.0
H1161 H 0.56474 0.05097 0.13187 0.0
H1162 H 0.56433 0.062 0.07295 0.0
H1163 H 0.5897 0.08138 0.10361 0.0
Eu1164 Eu 0.01846 0.50741 0.98789 0.0
C1165 C 0.92343 0.49284 0.05492 0.0
C1166 C 0.93517 0.54637 0.05824 0.0
C1167 C 0.89008 0.50484 0.07471 0.0
C1168 C 0.94319 0.52427 0.05136 0.0
C1169 C 0.89585 0.48261 0.06598 0.0
C1170 C 0.90973 0.53676 0.0708 0.0
C1171 C 0.87908 0.42956 0.05648 0.0
N1172 N 0.92869 0.47222 0.04524 0.0
C1173 C 0.90666 0.44087 0.04559 0.0
C1174 C 0.87396 0.45046 0.06702 0.0
Eu1175 Eu 0.98109 0.49233 0.033 0.0
N1176 N 0.96616 0.53203 0.03827 0.0
C1177 C 0.9783 0.56049 0.0295 0.0
C1178 C 0.9508 0.57665 0.05093 0.0
C1179 C 0.97151 0.58334 0.036 0.0
H1180 H 0.91085 0.4241 0.0383 0.0
H1181 H 0.9823 0.60611 0.02945 0.0
H1182 H 0.90371 0.55351 0.07657 0.0
H1183 H 0.8621 0.40465 0.05699 0.0
H1184 H 0.99403 0.56637 0.01775 0.0
H1185 H 0.08162 0.44141 0.99095 0.0
H1186 H 0.94526 0.59427 0.05577 0.0
H1187 H 0.04416 0.57974 0.97172 0.0
H1188 H 0.03494 0.44956 0.99191 0.0
H1189 H 0.09449 0.62533 0.9607 0.0
H1190 H 0.86938 0.49748 0.08356 0.0
H1191 H 0.13578 0.48629 0.98481 0.0
H1192 H 0.16973 0.54286 0.97569 0.0
H1193 H 0.8525 0.44164 0.07538 0.0
H1194 H 0.17294 0.59253 0.9666 0.0
N1195 N 0.06251 0.49855 0.98768 0.0
C1196 C 0.05848 0.46927 0.98957 0.0
C1197 C 0.11539 0.48999 0.98547 0.0
C1198 C 0.11891 0.51949 0.98196 0.0
C1199 C 0.08488 0.46459 0.9889 0.0
C1200 C 0.09158 0.52301 0.98309 0.0
H1201 H 0.1449 0.62328 0.96062 0.0
N1202 N 0.06627 0.55289 0.97858 0.0
C1203 C 0.09456 0.6046 0.96561 0.0
C1204 C 0.09339 0.55086 0.97794 0.0
C1205 C 0.06616 0.57883 0.97189 0.0
C1206 C 0.12295 0.60333 0.96556 0.0
C1207 C 0.12256 0.57611 0.97157 0.0
O1208 O 0.006 0.51683 0.96026 0.0
O1209 O 0.97264 0.49657 1.00271 0.0
O1210 O 0.95147 0.44876 0.015 0.0
O1211 O 0.98462 0.45441 0.99006 0.0
O1212 O 0.99138 0.53402 0.98529 0.0
O1213 O 0.01201 0.47681 0.96422 0.0
O1214 O 0.97031 0.45004 0.04899 0.0
O1215 O 0.01671 0.4861 0.01569 0.0
O1216 O 0.04872 0.552 1.00571 0.0
O1217 O 0.02122 0.5428 0.0335 0.0
O1218 O 0.03142 0.50696 0.04162 0.0
O1219 O 0.99394 0.49597 0.06206 0.0
C1220 C 0.96669 0.51648 0.9953 0.0
C1221 C 0.02454 0.50056 0.93468 0.0
C1222 C 0.0251 0.50153 0.90087 0.0
C1223 C 0.00802 0.4946 0.91764 0.0
C1224 C 0.05861 0.51477 0.9013 0.0
C1225 C 0.05792 0.51301 0.93474 0.0
C1226 C 0.07488 0.5204 0.91816 0.0
C1227 C 0.95825 0.43764 0.99994 0.0
C1228 C 0.0069 0.4936 0.95226 0.0
C1229 C 0.15022 0.57327 0.97124 0.0
C1230 C 0.14842 0.54503 0.97649 0.0
C1231 C 0.03965 0.49656 0.02759 0.0
C1232 C 0.96838 0.45335 0.08244 0.0
C1233 C 0.98612 0.4691 0.09837 0.0
C1234 C 0.97437 0.45783 0.11613 0.0
C1235 C 0.94439 0.43058 0.118 0.0
C1236 C 0.93881 0.42561 0.08444 0.0
C1237 C 0.92674 0.41454 0.10218 0.0
C1238 C 0.04529 0.56113 0.02256 0.0
C1239 C 0.98278 0.46606 0.06424 0.0
H1240 H 0.98214 0.4844 0.91739 0.0
H1241 H 0.07208 0.52019 0.88849 0.0
H1242 H 0.07086 0.5167 0.94755 0.0
H1243 H 0.10067 0.53015 0.91838 0.0
H1244 H 0.00947 0.49006 0.09699 0.0
H1245 H 0.935 0.42151 0.13164 0.0
H1246 H 0.92521 0.41234 0.07242 0.0
H1247 H 0.90384 0.39324 0.10367 0.0
Eu1248 Eu 0.50888 0.4862 0.03222 0.0
C1249 C 0.46151 0.55279 0.97719 0.0
C1250 C 0.40483 0.51745 0.97149 0.0
C1251 C 0.42662 0.57369 0.96912 0.0
C1252 C 0.43553 0.52263 0.97657 0.0
C1253 C 0.45744 0.57864 0.97311 0.0
C1254 C 0.40038 0.54315 0.96825 0.0
C1255 C 0.51508 0.61201 0.97479 0.0
N1256 N 0.49115 0.5567 0.98037 0.0
C1257 C 0.51799 0.58563 0.97833 0.0
C1258 C 0.48464 0.60856 0.97238 0.0
Eu1259 Eu 0.49395 0.51073 0.98677 0.0
N1260 N 0.44078 0.49826 0.9792 0.0
C1261 C 0.4171 0.46838 0.9752 0.0
C1262 C 0.37988 0.48662 0.96883 0.0
C1263 C 0.38624 0.46202 0.97034 0.0
H1264 H 0.54161 0.58841 0.98009 0.0
H1265 H 0.36754 0.43818 0.96744 0.0
H1266 H 0.37695 0.5396 0.96443 0.0
H1267 H 0.53631 0.63495 0.97379 0.0
H1268 H 0.42196 0.44928 0.97523 0.0
H1269 H 0.63979 0.55069 0.03718 0.0
H1270 H 0.35606 0.48168 0.96478 0.0
H1271 H 0.45877 0.4125 0.04656 0.0
H1272 H 0.58535 0.5438 0.03512 0.0
H1273 H 0.45995 0.36396 0.05305 0.0
H1274 H 0.42302 0.59326 0.96602 0.0
H1275 H 0.64643 0.5041 0.03986 0.0
H1276 H 0.62062 0.44562 0.04381 0.0
H1277 H 0.48248 0.62899 0.96936 0.0
H1278 H 0.57146 0.39463 0.04821 0.0
N1279 N 0.56168 0.49433 0.03555 0.0
C1280 C 0.58806 0.52354 0.03614 0.0
C1281 C 0.62255 0.50109 0.03885 0.0
C1282 C 0.59525 0.47128 0.03982 0.0
C1283 C 0.6189 0.52742 0.03738 0.0
C1284 C 0.56477 0.46874 0.03836 0.0
H1285 H 0.51141 0.36398 0.05189 0.0
N1286 N 0.50874 0.43944 0.04069 0.0
C1287 C 0.48189 0.38521 0.04955 0.0
C1288 C 0.53732 0.44027 0.04093 0.0
C1289 C 0.48132 0.41278 0.0458 0.0
C1290 C 0.51096 0.3853 0.04884 0.0
C1291 C 0.53928 0.41323 0.04489 0.0
O1292 O 0.48323 0.47358 0.05869 0.0
O1293 O 0.47463 0.49509 0.01562 0.0
O1294 O 0.50086 0.54809 1.00724 0.0
O1295 O 0.52842 0.53962 0.03106 0.0
O1296 O 0.45501 0.45656 0.03256 0.0
O1297 O 0.52803 0.51723 0.05627 0.0
O1298 O 0.52719 0.52688 0.96354 0.0
O1299 O 0.52779 0.50084 1.00331 0.0
O1300 O 0.49301 0.44455 0.01311 0.0
O1301 O 0.4716 0.45757 0.98764 0.0
O1302 O 0.54774 0.54095 0.98777 0.0
O1303 O 0.47993 0.48674 0.95971 0.0
C1304 C 0.44802 0.47242 0.02124 0.0
C1305 C 0.51558 0.49308 0.08557 0.0
C1306 C 0.5136 0.49503 0.11934 0.0
C1307 C 0.50196 0.49727 0.10178 0.0
C1308 C 0.53827 0.48762 0.12045 0.0
C1309 C 0.53992 0.48534 0.08696 0.0
C1310 C 0.55108 0.48251 0.10435 0.0
C1311 C 0.51844 0.55723 0.02251 0.0
C1312 C 0.50527 0.49824 0.06736 0.0
C1313 C 0.56945 0.4152 0.04537 0.0
C1314 C 0.59743 0.44421 0.04285 0.0
C1315 C 0.55454 0.52385 0.99824 0.0
C1316 C 0.50552 0.51853 0.93349 0.0
C1317 C 0.51069 0.50548 0.91739 0.0
C1318 C 0.51225 0.51897 0.89994 0.0
C1319 C 0.50855 0.54547 0.89877 0.0
C1320 C 0.5013 0.54467 0.93196 0.0
C1321 C 0.50291 0.55809 0.9147 0.0
C1322 C 0.47738 0.4379 0.99712 0.0
C1323 C 0.50699 0.50626 0.95183 0.0
H1324 H 0.48301 0.50308 0.10076 0.0
H1325 H 0.54758 0.48579 0.13383 0.0
H1326 H 0.55058 0.48193 0.07464 0.0
H1327 H 0.56999 0.47671 0.10534 0.0
H1328 H 0.51381 0.48518 0.91842 0.0
H1329 H 0.50962 0.55612 0.88545 0.0
H1330 H 0.49722 0.55501 0.9441 0.0
H1331 H 0.49987 0.57839 0.91366 0.0
Eu1332 Eu 0.15635 0.30919 0.32069 0.0
C1333 C 0.2299 0.42567 0.36684 0.0
C1334 C 0.28488 0.43727 0.36329 0.0
C1335 C 0.27311 0.4798 0.36407 0.0
C1336 C 0.25176 0.4153 0.36478 0.0
C1337 C 0.24066 0.45813 0.36741 0.0
C1338 C 0.29519 0.46938 0.36199 0.0
C1339 C 0.18782 0.44569 0.37756 0.0
N1340 N 0.1987 0.40423 0.37015 0.0
C1341 C 0.17833 0.41384 0.37692 0.0
C1342 C 0.21888 0.46792 0.37228 0.0
Eu1343 Eu 0.18437 0.35072 0.36591 0.0
N1344 N 0.24117 0.38411 0.36632 0.0
C1345 C 0.26275 0.37407 0.36922 0.0
C1346 C 0.30684 0.42656 0.36437 0.0
C1347 C 0.29577 0.39502 0.36805 0.0
H1348 H 0.15404 0.39676 0.38078 0.0
H1349 H 0.31264 0.3867 0.36982 0.0
H1350 H 0.32043 0.48646 0.3604 0.0
H1351 H 0.17113 0.45305 0.38206 0.0
H1352 H 0.25505 0.35 0.37239 0.0
H1353 H 0.02632 0.25047 0.32803 0.0
H1354 H 0.33243 0.44268 0.36335 0.0
H1355 H 0.20151 0.28127 0.30223 0.0
H1356 H 0.08178 0.29516 0.32704 0.0
H1357 H 0.19509 0.23124 0.29096 0.0
H1358 H 0.28164 0.50477 0.36403 0.0
H1359 H 0.01606 0.19683 0.32145 0.0
H1360 H 0.03775 0.16208 0.31129 0.0
H1361 H 0.22623 0.49261 0.37287 0.0
H1362 H 0.08361 0.15701 0.30075 0.0
N1363 N 0.10273 0.26723 0.3213 0.0
C1364 C 0.07753 0.27194 0.32446 0.0
C1365 C 0.04043 0.21642 0.32121 0.0
C1366 C 0.06619 0.21208 0.31654 0.0
C1367 C 0.0461 0.24663 0.3249 0.0
C1368 C 0.09747 0.23837 0.31661 0.0
H1369 H 0.14212 0.18281 0.2926 0.0
N1370 N 0.15279 0.26153 0.31075 0.0
C1371 C 0.17473 0.23204 0.29669 0.0
C1372 C 0.12324 0.23547 0.31094 0.0
C1373 C 0.17831 0.2604 0.30325 0.0
C1374 C 0.14479 0.20476 0.29762 0.0
C1375 C 0.11851 0.20626 0.30469 0.0
O1376 O 0.18137 0.33305 0.29518 0.0
O1377 O 0.19529 0.35084 0.33584 0.0
O1378 O 0.16029 0.3736 0.35 0.0
O1379 O 0.13696 0.34282 0.32353 0.0
O1380 O 0.20937 0.32835 0.31693 0.0
O1381 O 0.13002 0.3092 0.29567 0.0
O1382 O 0.15693 0.34826 0.39087 0.0
O1383 O 0.14105 0.31545 0.34916 0.0
O1384 O 0.17101 0.28009 0.33902 0.0
O1385 O 0.20363 0.31753 0.36092 0.0
O1386 O 0.14746 0.30249 0.37532 0.0
O1387 O 0.20165 0.34763 0.39326 0.0
C1388 C 0.21952 0.35164 0.3283 0.0
C1389 C 0.1549 0.31316 0.26657 0.0
C1390 C 0.16321 0.32222 0.23306 0.0
C1391 C 0.16205 0.3331 0.25108 0.0
C1392 C 0.15739 0.29143 0.23088 0.0
C1393 C 0.14817 0.28225 0.26382 0.0
C1394 C 0.14968 0.27157 0.24612 0.0
C1395 C 0.14379 0.36725 0.33427 0.0
C1396 C 0.1555 0.32491 0.28557 0.0
C1397 C 0.08765 0.17972 0.30527 0.0
C1398 C 0.06154 0.1826 0.31128 0.0
C1399 C 0.12881 0.29377 0.36116 0.0
C1400 C 0.18354 0.36072 0.42047 0.0
C1401 C 0.16939 0.34202 0.43629 0.0
C1402 C 0.17855 0.35493 0.45429 0.0
C1403 C 0.20148 0.38695 0.45614 0.0
C1404 C 0.20606 0.39262 0.42269 0.0
C1405 C 0.21481 0.40565 0.44047 0.0
C1406 C 0.1907 0.28891 0.35367 0.0
C1407 C 0.17705 0.34577 0.40204 0.0
H1408 H 0.16667 0.35686 0.25299 0.0
H1409 H 0.15817 0.28253 0.21724 0.0
H1410 H 0.14171 0.26628 0.27532 0.0
H1411 H 0.14469 0.24773 0.24419 0.0
H1412 H 0.15203 0.31729 0.43462 0.0
H1413 H 0.209 0.39749 0.46979 0.0
H1414 H 0.21736 0.40723 0.41071 0.0
H1415 H 0.23238 0.43026 0.44212 0.0
Eu1416 Eu 0.69139 0.8417 0.32215 0.0
C1417 C 0.57767 0.82256 0.36306 0.0
C1418 C 0.58536 0.8739 0.3701 0.0
C1419 C 0.53381 0.83319 0.35832 0.0
C1420 C 0.59755 0.85317 0.36854 0.0
C1421 C 0.54508 0.81181 0.35877 0.0
C1422 C 0.55396 0.86426 0.36402 0.0
C1423 C 0.53592 0.75902 0.35899 0.0
N1424 N 0.58933 0.80257 0.36385 0.0
C1425 C 0.56832 0.77085 0.36342 0.0
C1426 C 0.52444 0.77968 0.35604 0.0
Eu1427 Eu 0.64655 0.82593 0.36656 0.0
N1428 N 0.62771 0.86159 0.37428 0.0
C1429 C 0.64439 0.88814 0.38496 0.0
C1430 C 0.60446 0.90304 0.37864 0.0
C1431 C 0.63366 0.90971 0.38669 0.0
H1432 H 0.57632 0.75427 0.36618 0.0
H1433 H 0.64785 0.93139 0.3943 0.0
H1434 H 0.54451 0.88015 0.3646 0.0
H1435 H 0.51981 0.73396 0.35796 0.0
H1436 H 0.66675 0.89342 0.39165 0.0
H1437 H 0.73899 0.76151 0.32713 0.0
H1438 H 0.59606 0.91967 0.38006 0.0
H1439 H 0.72925 0.91427 0.30486 0.0
H1440 H 0.69726 0.77621 0.32521 0.0
H1441 H 0.78479 0.95805 0.30053 0.0
H1442 H 0.50912 0.82555 0.35457 0.0
H1443 H 0.79636 0.80246 0.32676 0.0
H1444 H 0.83792 0.85946 0.32362 0.0
H1445 H 0.49929 0.77047 0.35273 0.0
H1446 H 0.85052 0.91343 0.31675 0.0
N1447 N 0.73028 0.82535 0.32368 0.0
C1448 C 0.72203 0.79449 0.32476 0.0
C1449 C 0.77807 0.80912 0.32575 0.0
C1450 C 0.78638 0.84053 0.32373 0.0
C1451 C 0.74573 0.78595 0.32588 0.0
C1452 C 0.76158 0.84791 0.32246 0.0
H1453 H 0.83083 0.95042 0.30781 0.0
N1454 N 0.74394 0.88346 0.31598 0.0
C1455 C 0.78065 0.9358 0.30586 0.0
C1456 C 0.76867 0.87808 0.31864 0.0
C1457 C 0.74929 0.91112 0.30845 0.0
C1458 C 0.80655 0.93141 0.31001 0.0
C1459 C 0.80072 0.90197 0.31596 0.0
O1460 O 0.68271 0.85501 0.29463 0.0
O1461 O 0.64661 0.83483 0.33628 0.0
O1462 O 0.62377 0.7811 0.3491 0.0
O1463 O 0.65621 0.7894 0.32335 0.0
O1464 O 0.66777 0.87113 0.31755 0.0
O1465 O 0.68153 0.811 0.29824 0.0
O1466 O 0.63112 0.78531 0.38471 0.0
O1467 O 0.68487 0.82185 0.35059 0.0
O1468 O 0.71864 0.88537 0.34035 0.0
O1469 O 0.6816 0.87834 0.36344 0.0
O1470 O 0.69505 0.83638 0.37772 0.0
O1471 O 0.65441 0.83225 0.39643 0.0
C1472 C 0.64384 0.85651 0.32859 0.0
C1473 C 0.69743 0.83502 0.26911 0.0
C1474 C 0.69647 0.83302 0.23536 0.0
C1475 C 0.68137 0.8317 0.25225 0.0
C1476 C 0.7282 0.83873 0.23554 0.0
C1477 C 0.72923 0.84112 0.26912 0.0
C1478 C 0.74456 0.84309 0.25234 0.0
C1479 C 0.6309 0.77148 0.33361 0.0
C1480 C 0.67997 0.83022 0.2865 0.0
C1481 C 0.8257 0.89529 0.31847 0.0
C1482 C 0.81852 0.86457 0.32234 0.0
C1483 C 0.7063 0.83052 0.36316 0.0
C1484 C 0.62296 0.79089 0.41703 0.0
C1485 C 0.63853 0.80439 0.43395 0.0
C1486 C 0.62331 0.79193 0.45094 0.0
C1487 C 0.5919 0.76618 0.45083 0.0
C1488 C 0.59146 0.76541 0.41716 0.0
C1489 C 0.57601 0.75326 0.43403 0.0
C1490 C 0.70893 0.8956 0.35461 0.0
C1491 C 0.64136 0.80241 0.39976 0.0
H1492 H 0.6568 0.82707 0.25224 0.0
H1493 H 0.74023 0.83976 0.22266 0.0
H1494 H 0.74195 0.84381 0.28204 0.0
H1495 H 0.76901 0.84755 0.25237 0.0
H1496 H 0.66292 0.82406 0.43394 0.0
H1497 H 0.57971 0.75615 0.46377 0.0
H1498 H 0.57899 0.75463 0.40431 0.0
H1499 H 0.55178 0.73349 0.43409 0.0
Eu1500 Eu 0.17775 0.81264 0.36431 0.0
C1501 C 0.1263 0.88017 0.31728 0.0
C1502 C 0.06866 0.84532 0.31773 0.0
C1503 C 0.09043 0.90161 0.31548 0.0
C1504 C 0.10016 0.85016 0.31863 0.0
C1505 C 0.12168 0.90613 0.31513 0.0
C1506 C 0.06396 0.87125 0.31681 0.0
C1507 C 0.1789 0.93872 0.31063 0.0
N1508 N 0.15622 0.88379 0.31694 0.0
C1509 C 0.18225 0.91225 0.31262 0.0
C1510 C 0.14855 0.93574 0.31219 0.0
Eu1511 Eu 0.15955 0.83762 0.3211 0.0
N1512 N 0.10545 0.82554 0.31909 0.0
C1513 C 0.08068 0.79577 0.31632 0.0
C1514 C 0.04289 0.81455 0.31674 0.0
C1515 C 0.049 0.78971 0.31546 0.0
H1516 H 0.20578 0.91458 0.31149 0.0
H1517 H 0.02936 0.76591 0.3138 0.0
H1518 H 0.03994 0.86799 0.31637 0.0
H1519 H 0.1997 0.96137 0.30786 0.0
H1520 H 0.08533 0.77661 0.31479 0.0
H1521 H 0.29815 0.91778 0.36673 0.0
H1522 H 0.01834 0.80982 0.31601 0.0
H1523 H 0.16035 0.73772 0.3693 0.0
H1524 H 0.24275 0.88595 0.35557 0.0
H1525 H 0.18354 0.70897 0.38489 0.0
H1526 H 0.08643 0.92131 0.31414 0.0
H1527 H 0.32169 0.89478 0.38766 0.0
H1528 H 0.31663 0.84697 0.40318 0.0
H1529 H 0.14599 0.95627 0.31055 0.0
H1530 H 0.28588 0.78981 0.40751 0.0
N1531 N 0.23387 0.84486 0.37036 0.0
C1532 C 0.25234 0.87524 0.36467 0.0
C1533 C 0.29707 0.88057 0.38292 0.0
C1534 C 0.27891 0.8489 0.38767 0.0
C1535 C 0.28396 0.89357 0.37101 0.0
C1536 C 0.24701 0.8314 0.38106 0.0
H1537 H 0.23688 0.7381 0.40007 0.0
N1538 N 0.201 0.78275 0.3746 0.0
C1539 C 0.197 0.73432 0.38436 0.0
C1540 C 0.23001 0.79915 0.38314 0.0
C1541 C 0.1842 0.75071 0.37526 0.0
C1542 C 0.22697 0.75086 0.39306 0.0
C1543 C 0.24401 0.78366 0.39239 0.0
O1544 O 0.14742 0.77916 0.38474 0.0
O1545 O 0.14175 0.82226 0.34995 0.0
O1546 O 0.17259 0.87731 0.34203 0.0
O1547 O 0.18903 0.86287 0.36875 0.0
O1548 O 0.12423 0.77971 0.36293 0.0
O1549 O 0.17777 0.8284 0.39326 0.0
O1550 O 0.18333 0.85711 0.29488 0.0
O1551 O 0.19332 0.82376 0.33429 0.0
O1552 O 0.16978 0.77499 0.34337 0.0
O1553 O 0.13982 0.78369 0.32095 0.0
O1554 O 0.2139 0.86418 0.31917 0.0
O1555 O 0.13843 0.81297 0.29476 0.0
C1556 C 0.11599 0.7976 0.35453 0.0
C1557 C 0.14254 0.79012 0.41672 0.0
C1558 C 0.13709 0.80143 0.44899 0.0
C1559 C 0.15129 0.81174 0.43147 0.0
C1560 C 0.11427 0.76977 0.45168 0.0
C1561 C 0.11952 0.75844 0.41974 0.0
C1562 C 0.10554 0.74841 0.4371 0.0
C1563 C 0.18419 0.88301 0.3592 0.0
C1564 C 0.15631 0.79983 0.39802 0.0
C1565 C 0.27486 0.80127 0.40019 0.0
C1566 C 0.29231 0.83384 0.3978 0.0
C1567 C 0.22 0.84467 0.32767 0.0
C1568 C 0.15303 0.84396 0.26721 0.0
C1569 C 0.1601 0.83406 0.25045 0.0
C1570 C 0.15697 0.84624 0.23342 0.0
C1571 C 0.14605 0.86795 0.23338 0.0
C1572 C 0.14169 0.86522 0.26689 0.0
C1573 C 0.13812 0.87705 0.25 0.0
C1574 C 0.14947 0.76544 0.32915 0.0
C1575 C 0.16128 0.83462 0.28478 0.0
H1576 H 0.16887 0.83625 0.42941 0.0
H1577 H 0.10321 0.76162 0.46512 0.0
H1578 H 0.11215 0.74125 0.40866 0.0
H1579 H 0.08786 0.724 0.43926 0.0
H1580 H 0.16896 0.81766 0.25067 0.0
H1581 H 0.14348 0.87767 0.22044 0.0
H1582 H 0.13629 0.87319 0.27963 0.0
H1583 H 0.12961 0.89369 0.24982 0.0
Eu1584 Eu 0.82699 0.65253 0.6535 0.0
C1585 C 0.90627 0.74835 0.71995 0.0
C1586 C 0.95028 0.73847 0.72502 0.0
C1587 C 0.95322 0.78535 0.73792 0.0
C1588 C 0.91921 0.72892 0.71792 0.0
C1589 C 0.92387 0.77743 0.72932 0.0
C1590 C 0.96637 0.76584 0.73582 0.0
C1591 C 0.88372 0.79023 0.71972 0.0
N1592 N 0.87838 0.74056 0.71086 0.0
C1593 C 0.86688 0.76111 0.71083 0.0
C1594 C 0.91213 0.7983 0.7292 0.0
Eu1595 Eu 0.84812 0.68713 0.70071 0.0
N1596 N 0.90404 0.70394 0.70621 0.0
C1597 C 0.92085 0.69033 0.69933 0.0
C1598 C 0.96556 0.72192 0.71966 0.0
C1599 C 0.9512 0.69844 0.70627 0.0
H1600 H 0.84378 0.75495 0.70503 0.0
H1601 H 0.96371 0.68686 0.70105 0.0
H1602 H 0.98994 0.77316 0.74161 0.0
H1603 H 0.87422 0.80606 0.71973 0.0
H1604 H 0.91145 0.67332 0.6883 0.0
H1605 H 0.6994 0.6161 0.65175 0.0
H1606 H 0.98942 0.72862 0.72472 0.0
H1607 H 0.86201 0.61216 0.6386 0.0
H1608 H 0.75743 0.65344 0.65342 0.0
H1609 H 0.84708 0.55731 0.63133 0.0
H1610 H 0.96667 0.80726 0.74547 0.0
H1611 H 0.67964 0.55932 0.64825 0.0
H1612 H 0.69223 0.51604 0.64348 0.0
H1613 H 0.92498 0.82081 0.7362 0.0
H1614 H 0.73248 0.49995 0.63807 0.0
N1615 N 0.77077 0.61828 0.65142 0.0
C1616 C 0.74932 0.62881 0.65188 0.0
C1617 C 0.70524 0.57566 0.64895 0.0
C1618 C 0.72739 0.56522 0.64732 0.0
C1619 C 0.71629 0.60768 0.65088 0.0
C1620 C 0.76046 0.58746 0.64842 0.0
H1621 H 0.79025 0.51519 0.63331 0.0
N1622 N 0.81461 0.6006 0.64606 0.0
C1623 C 0.82888 0.5628 0.63561 0.0
C1624 C 0.78307 0.57834 0.64561 0.0
C1625 C 0.83729 0.59372 0.63985 0.0
C1626 C 0.79678 0.53912 0.63672 0.0
C1627 C 0.7733 0.54684 0.64132 0.0
O1628 O 0.85333 0.66175 0.62747 0.0
O1629 O 0.8623 0.69521 0.67029 0.0
O1630 O 0.8281 0.7138 0.68497 0.0
O1631 O 0.8141 0.69118 0.65533 0.0
O1632 O 0.88101 0.67518 0.65311 0.0
O1633 O 0.80861 0.66182 0.62765 0.0
O1634 O 0.82194 0.6979 0.72184 0.0
O1635 O 0.80767 0.65518 0.68104 0.0
O1636 O 0.83963 0.62168 0.67146 0.0
O1637 O 0.85925 0.64779 0.69993 0.0
O1638 O 0.80617 0.64014 0.70772 0.0
O1639 O 0.84174 0.66804 0.72853 0.0
C1640 C 0.88847 0.69941 0.66341 0.0
C1641 C 0.82505 0.65013 0.59897 0.0
C1642 C 0.8288 0.65602 0.56516 0.0
C1643 C 0.83249 0.66916 0.58307 0.0
C1644 C 0.81732 0.62366 0.56346 0.0
C1645 C 0.81286 0.61782 0.59685 0.0
C1646 C 0.8091 0.60471 0.57918 0.0
C1647 C 0.81649 0.71179 0.66802 0.0
C1648 C 0.83229 0.66466 0.61757 0.0
C1649 C 0.74044 0.52434 0.6411 0.0
C1650 C 0.71752 0.53351 0.64415 0.0
C1651 C 0.79172 0.63253 0.69206 0.0
C1652 C 0.83428 0.69375 0.75388 0.0
C1653 C 0.8232 0.67263 0.76891 0.0
C1654 C 0.83335 0.68345 0.78721 0.0
C1655 C 0.85497 0.71552 0.79022 0.0
C1656 C 0.85449 0.72577 0.75747 0.0
C1657 C 0.86509 0.73652 0.77546 0.0
C1658 C 0.85282 0.62478 0.68814 0.0
C1659 C 0.82607 0.68143 0.73469 0.0
H1660 H 0.84162 0.69413 0.5846 0.0
H1661 H 0.81432 0.61299 0.54989 0.0
H1662 H 0.80663 0.60276 0.6088 0.0
H1663 H 0.79994 0.57977 0.57767 0.0
H1664 H 0.8069 0.64787 0.76639 0.0
H1665 H 0.86328 0.7244 0.80412 0.0
H1666 H 0.86217 0.74252 0.74645 0.0
H1667 H 0.88111 0.76128 0.77799 0.0
Eu1668 Eu 0.36205 0.17707 0.65102 0.0
C1669 C 0.23626 0.1145 0.69867 0.0
C1670 C 0.21093 0.14601 0.69421 0.0
C1671 C 0.17835 0.09077 0.70179 0.0
C1672 C 0.23862 0.14299 0.69447 0.0
C1673 C 0.20613 0.08819 0.70272 0.0
C1674 C 0.18073 0.1196 0.69749 0.0
C1675 C 0.23321 0.05897 0.70898 0.0
N1676 N 0.26355 0.11269 0.69923 0.0
C1677 C 0.26255 0.08571 0.705 0.0
C1678 C 0.20484 0.06012 0.70768 0.0
Eu1679 Eu 0.31244 0.15985 0.69331 0.0
N1680 N 0.26817 0.16817 0.6917 0.0
C1681 C 0.27203 0.19751 0.69047 0.0
C1682 C 0.21456 0.17573 0.69141 0.0
C1683 C 0.24533 0.20171 0.68995 0.0
H1684 H 0.28427 0.08451 0.70621 0.0
H1685 H 0.24854 0.22499 0.68851 0.0
H1686 H 0.15918 0.12142 0.69721 0.0
H1687 H 0.23252 0.03752 0.71313 0.0
H1688 H 0.29578 0.21777 0.68987 0.0
H1689 H 0.36992 0.06847 0.6518 0.0
H1690 H 0.19391 0.17904 0.69109 0.0
H1691 H 0.42366 0.25219 0.64685 0.0
H1692 H 0.34289 0.09843 0.6531 0.0
H1693 H 0.48234 0.28125 0.64842 0.0
H1694 H 0.15496 0.07074 0.70466 0.0
H1695 H 0.42901 0.09517 0.65259 0.0
H1696 H 0.48121 0.14476 0.65451 0.0
H1697 H 0.18215 0.03937 0.71082 0.0
H1698 H 0.51158 0.20223 0.65479 0.0
N1699 N 0.38533 0.14362 0.65165 0.0
C1700 C 0.36835 0.11145 0.65173 0.0
C1701 C 0.41712 0.10896 0.65221 0.0
C1702 C 0.43468 0.14164 0.65275 0.0
C1703 C 0.38383 0.09384 0.65162 0.0
C1704 C 0.41808 0.15868 0.65222 0.0
H1705 H 0.51229 0.253 0.65262 0.0
N1706 N 0.41929 0.20737 0.65173 0.0
C1707 C 0.4695 0.256 0.64986 0.0
C1708 C 0.43537 0.19124 0.65255 0.0
C1709 C 0.43602 0.23925 0.64918 0.0
C1710 C 0.48627 0.23998 0.65219 0.0
C1711 C 0.46936 0.20725 0.65313 0.0
O1712 O 0.3724 0.21429 0.63108 0.0
O1713 O 0.32341 0.18317 0.66533 0.0
O1714 O 0.2851 0.11864 0.67326 0.0
O1715 O 0.31953 0.12759 0.64832 0.0
O1716 O 0.31716 0.17148 0.63745 0.0
O1717 O 0.36745 0.16926 0.62167 0.0
O1718 O 0.33183 0.15728 0.72034 0.0
O1719 O 0.35751 0.16508 0.68088 0.0
O1720 O 0.38446 0.21995 0.67001 0.0
O1721 O 0.3449 0.2129 0.69118 0.0
O1722 O 0.33566 0.13086 0.70058 0.0
O1723 O 0.30759 0.18379 0.71776 0.0
C1724 C 0.30465 0.17756 0.65141 0.0
C1725 C 0.37786 0.20841 0.59797 0.0
C1726 C 0.36417 0.20016 0.56501 0.0
C1727 C 0.36067 0.18821 0.58311 0.0
C1728 C 0.38559 0.2321 0.56184 0.0
C1729 C 0.39892 0.24032 0.59455 0.0
C1730 C 0.40293 0.252 0.57654 0.0
C1731 C 0.29209 0.11024 0.65716 0.0
C1732 C 0.37209 0.197 0.61719 0.0
C1733 C 0.48558 0.19027 0.65414 0.0
C1734 C 0.4683 0.15756 0.65391 0.0
C1735 C 0.35993 0.14399 0.68963 0.0
C1736 C 0.30507 0.15995 0.74667 0.0
C1737 C 0.3225 0.17077 0.76333 0.0
C1738 C 0.30839 0.15636 0.78022 0.0
C1739 C 0.27667 0.13117 0.7803 0.0
C1740 C 0.27322 0.13518 0.74702 0.0
C1741 C 0.25914 0.12084 0.76377 0.0
C1742 C 0.37368 0.22995 0.68374 0.0
C1743 C 0.32118 0.17329 0.72904 0.0
H1744 H 0.34393 0.16361 0.58565 0.0
H1745 H 0.38867 0.24164 0.54798 0.0
H1746 H 0.41217 0.25624 0.60584 0.0
H1747 H 0.41925 0.27664 0.574 0.0
H1748 H 0.34709 0.19004 0.76316 0.0
H1749 H 0.26542 0.11979 0.79319 0.0
H1750 H 0.25932 0.12675 0.7344 0.0
H1751 H 0.23461 0.10159 0.76393 0.0
Eu1752 Eu 0.83774 0.15293 0.69507 0.0
C1753 C 0.76537 0.17848 0.6283 0.0
C1754 C 0.72557 0.12706 0.61726 0.0
C1755 C 0.72255 0.17262 0.60754 0.0
C1756 C 0.75431 0.14674 0.62711 0.0
C1757 C 0.74875 0.19155 0.61915 0.0
C1758 C 0.71097 0.14034 0.60657 0.0
C1759 C 0.78284 0.24026 0.63507 0.0
N1760 N 0.79013 0.19577 0.64013 0.0
C1761 C 0.79899 0.22652 0.64354 0.0
C1762 C 0.758 0.2229 0.62255 0.0
Eu1763 Eu 0.8219 0.17257 0.64857 0.0
N1764 N 0.7677 0.13479 0.63881 0.0
C1765 C 0.74996 0.1037 0.64357 0.0
C1766 C 0.71055 0.0947 0.61996 0.0
C1767 C 0.72209 0.08311 0.63377 0.0
H1768 H 0.81966 0.2417 0.65182 0.0
H1769 H 0.70909 0.05844 0.63724 0.0
H1770 H 0.68936 0.12564 0.5986 0.0
H1771 H 0.79034 0.26463 0.63775 0.0
H1772 H 0.75645 0.09446 0.65519 0.0
H1773 H 0.96869 0.21869 0.69875 0.0
H1774 H 0.68845 0.07883 0.61273 0.0
H1775 H 0.78848 0.07961 0.70963 0.0
H1776 H 0.91409 0.21121 0.69656 0.0
H1777 H 0.79032 0.03138 0.71677 0.0
H1778 H 0.70999 0.18242 0.60009 0.0
H1779 H 0.97598 0.17264 0.70251 0.0
H1780 H 0.95085 0.11441 0.70716 0.0
H1781 H 0.74579 0.23374 0.61585 0.0
H1782 H 0.90213 0.06318 0.7118 0.0
N1783 N 0.89076 0.16169 0.69801 0.0
C1784 C 0.91698 0.19108 0.69799 0.0
C1785 C 0.95197 0.16932 0.70145 0.0
C1786 C 0.92489 0.1394 0.70279 0.0
C1787 C 0.94796 0.19535 0.69935 0.0
C1788 C 0.89421 0.13639 0.70116 0.0
H1789 H 0.84209 0.03197 0.71554 0.0
N1790 N 0.838 0.10614 0.7028 0.0
C1791 C 0.812 0.05254 0.71282 0.0
C1792 C 0.86693 0.10762 0.70356 0.0
C1793 C 0.81095 0.07974 0.7086 0.0
C1794 C 0.84126 0.05298 0.71211 0.0
C1795 C 0.86936 0.08097 0.70792 0.0
O1796 O 0.80946 0.14181 0.7205 0.0
O1797 O 0.80514 0.16522 0.6784 0.0
O1798 O 0.84203 0.2165 0.66674 0.0
O1799 O 0.86016 0.20605 0.69444 0.0
O1800 O 0.78337 0.12564 0.6941 0.0
O1801 O 0.8588 0.17839 0.72115 0.0
O1802 O 0.84937 0.21448 0.63125 0.0
O1803 O 0.86067 0.17665 0.66837 0.0
O1804 O 0.82471 0.11061 0.67629 0.0
O1805 O 0.81062 0.12203 0.64733 0.0
O1806 O 0.86119 0.16255 0.64151 0.0
O1807 O 0.83508 0.16849 0.62033 0.0
C1808 C 0.77778 0.14422 0.68423 0.0
C1809 C 0.83641 0.15119 0.74922 0.0
C1810 C 0.8313 0.15146 0.78297 0.0
C1811 C 0.83034 0.16351 0.76538 0.0
C1812 C 0.83845 0.12709 0.78413 0.0
C1813 C 0.84435 0.12748 0.75081 0.0
C1814 C 0.8452 0.11543 0.76816 0.0
C1815 C 0.85603 0.22504 0.68326 0.0
C1816 C 0.83291 0.16215 0.73081 0.0
C1817 C 0.89976 0.08346 0.70868 0.0
C1818 C 0.9275 0.11264 0.70609 0.0
C1819 C 0.87577 0.16858 0.65716 0.0
C1820 C 0.84058 0.20566 0.5983 0.0
C1821 C 0.84698 0.19328 0.58226 0.0
C1822 C 0.83661 0.19719 0.56466 0.0
C1823 C 0.81984 0.21373 0.56332 0.0
C1824 C 0.82527 0.22342 0.59643 0.0
C1825 C 0.81464 0.22709 0.57907 0.0
C1826 C 0.81392 0.10307 0.659 0.0
C1827 C 0.84867 0.19823 0.61672 0.0
H1828 H 0.82459 0.18214 0.7643 0.0
H1829 H 0.83927 0.11744 0.79749 0.0
H1830 H 0.84968 0.11811 0.73868 0.0
H1831 H 0.85108 0.09693 0.76923 0.0
H1832 H 0.8596 0.18024 0.58347 0.0
H1833 H 0.81143 0.21689 0.54996 0.0
H1834 H 0.82134 0.23433 0.60832 0.0
H1835 H 0.80233 0.24037 0.57782 0.0
C1836 C 0.36043 0.93894 0.03488 0.0
C1837 C 0.35626 0.91107 0.04291 0.0
C1838 C 0.40918 0.92308 0.03148 0.0
C1839 C 0.41588 0.95377 0.02631 0.0
N1840 N 0.39802 0.99219 0.02664 0.0
N1841 N 0.37723 0.87703 0.05031 0.0
C1842 C 0.39138 0.96191 0.02877 0.0
C1843 C 0.38063 0.90305 0.04142 0.0
N1844 N 0.33481 0.94365 0.03323 0.0
N1845 N 0.42992 0.91287 0.02709 0.0
H1846 H 0.35644 0.86142 0.05739 0.0
H1847 H 0.39584 0.87215 0.05189 0.0
H1848 H 0.45098 0.92666 0.02007 0.0
H1849 H 0.42467 0.88975 0.02859 0.0
H1850 H 0.33568 0.96208 0.02566 0.0
H1851 H 0.31186 0.92741 0.03783 0.0
H1852 H 0.3822 -0.00019 0.03056 0.0
H1853 H 0.42014 0.01049 0.02241 0.0
C1854 C 0.11687 0.49892 0.04398 0.0
C1855 C 0.10849 0.46709 0.04211 0.0
C1856 C 0.05445 0.45369 0.03156 0.0
C1857 C 0.06378 0.48611 0.03113 0.0
N1858 N 0.10365 0.53953 0.0389 0.0
N1859 N 0.07129 0.41471 0.03169 0.0
C1860 C 0.09504 0.50865 0.0378 0.0
C1861 C 0.0779 0.44468 0.03512 0.0
N1862 N 0.14501 0.51956 0.05276 0.0
N1863 N 0.02283 0.43129 0.03004 0.0
H1864 H 0.08769 0.40718 0.03447 0.0
H1865 H 0.05075 0.39824 0.02461 0.0
H1866 H 0.00459 0.43651 0.02809 0.0
H1867 H 0.01435 0.40757 0.03245 0.0
H1868 H 0.15102 0.54213 0.05683 0.0
H1869 H 0.1619 0.51357 0.05726 0.0
H1870 H 0.12723 0.55777 0.0403 0.0
H1871 H 0.08716 0.5472 0.038 0.0
C1872 C 0.56606 0.64235 0.04028 0.0
C1873 C 0.54098 0.64814 0.045 0.0
C1874 C 0.50132 0.59595 0.03343 0.0
C1875 C 0.52624 0.58846 0.03064 0.0
N1876 N 0.58259 0.60446 0.03436 0.0
N1877 N 0.48457 0.62841 0.04977 0.0
C1878 C 0.55862 0.61155 0.03508 0.0
C1879 C 0.50858 0.62439 0.04259 0.0
N1880 N 0.59709 0.66663 0.03995 0.0
N1881 N 0.47064 0.5764 0.02729 0.0
H1882 H 0.48886 0.64877 0.05672 0.0
H1883 H 0.46073 0.61043 0.05046 0.0
H1884 H 0.46247 0.55421 0.02174 0.0
H1885 H 0.45331 0.58319 0.02663 0.0
H1886 H 0.61602 0.66466 0.03446 0.0
H1887 H 0.60356 0.68962 0.04349 0.0
H1888 H 0.60549 0.61887 0.03985 0.0
H1889 H 0.57916 0.5833 0.02946 0.0
C1890 C 0.88072 0.37382 0.97712 0.0
C1891 C 0.88728 0.34887 0.97558 0.0
C1892 C 0.9407 0.38209 0.98942 0.0
C1893 C 0.93331 0.40644 0.99233 0.0
N1894 N 0.89396 0.42358 0.99106 0.0
N1895 N 0.92126 0.32715 0.98243 0.0
C1896 C 0.90257 0.40167 0.9869 0.0
C1897 C 0.91671 0.35246 0.98228 0.0
N1898 N 0.85411 0.37139 0.96852 0.0
N1899 N 0.97071 0.38723 0.99347 0.0
H1900 H 0.90451 0.30527 0.97703 0.0
H1901 H 0.94044 0.32701 0.9891 0.0
H1902 H 0.98798 0.40742 1.0001 0.0
H1903 H 0.97909 0.37228 0.98942 0.0
H1904 H 0.84991 0.39008 0.96707 0.0
H1905 H 0.83747 0.35134 0.96132 0.0
H1906 H 0.87058 0.41947 0.98975 0.0
H1907 H 0.90942 0.44532 0.99695 0.0
C1908 C 0.64357 0.55589 0.98644 0.0
C1909 C 0.64234 0.52916 0.97831 0.0
C1910 C 0.58704 0.49696 0.98916 0.0
C1911 C 0.58594 0.52444 0.99447 0.0
N1912 N 0.61445 0.58141 0.99626 0.0
N1913 N 0.6116 0.47472 0.96962 0.0
C1914 C 0.61469 0.55426 0.99267 0.0
C1915 C 0.61374 0.49985 0.97905 0.0
N1916 N 0.67249 0.5829 0.9884 0.0
N1917 N 0.56346 0.46796 0.99422 0.0
H1918 H 0.63078 0.47568 0.96232 0.0
H1919 H 0.59004 0.45379 0.96767 0.0
H1920 H 0.54472 0.46465 1.00251 0.0
H1921 H 0.56484 0.44766 0.99239 0.0
H1922 H 0.67558 0.60206 0.99622 0.0
H1923 H 0.69401 0.58515 0.98363 0.0
H1924 H 0.63325 0.60353 0.99278 0.0
H1925 H 0.59471 0.58207 1.00148 0.0
C1926 C 0.485 0.11057 0.9712 0.0
C1927 C 0.45234 0.10025 0.96728 0.0
C1928 C 0.43664 0.04969 0.9817 0.0
C1929 C 0.46934 0.06034 0.98679 0.0
N1930 N 0.52393 0.10484 0.98926 0.0
N1931 N 0.39657 0.06331 0.97251 0.0
C1932 C 0.49323 0.09201 0.9826 0.0
C1933 C 0.42805 0.07077 0.97359 0.0
N1934 N 0.50846 0.13743 0.96319 0.0
N1935 N 0.41343 0.01934 0.98449 0.0
H1936 H 0.3893 0.07821 0.96675 0.0
H1937 H 0.37791 0.04377 0.97891 0.0
H1938 H 0.41715 0.00391 0.99232 0.0
H1939 H 0.3907 0.00911 0.97837 0.0
H1940 H 0.53272 0.14408 0.9635 0.0
H1941 H 0.50355 0.15172 0.95473 0.0
H1942 H 0.5402 0.12886 0.98905 0.0
H1943 H 0.53323 0.09248 0.99593 0.0
C1944 C 0.63877 0.07106 0.98387 0.0
C1945 C 0.63854 0.09463 0.97277 0.0
C1946 C 0.5807 0.07169 0.97753 0.0
C1947 C 0.58044 0.04785 0.98888 0.0
N1948 N 0.60843 0.02189 1.00019 0.0
N1949 N 0.61174 0.12241 0.96297 0.0
C1950 C 0.60942 0.04696 0.99144 0.0
C1951 C 0.61032 0.09661 0.97099 0.0
N1952 N 0.66733 0.07229 0.98754 0.0
N1953 N 0.55262 0.06852 0.9708 0.0
H1954 H 0.63288 0.14081 0.95758 0.0
H1955 H 0.59272 0.12689 0.96326 0.0
H1956 H 0.53012 0.05014 0.97427 0.0
H1957 H 0.5516 0.08264 0.96038 0.0
H1958 H 0.67009 0.05811 0.99719 0.0
H1959 H 0.68908 0.08937 0.98197 0.0
H1960 H 0.62718 0.01706 1.00026 0.0
H1961 H 0.5881 0.00509 1.00706 0.0
C1962 C 0.90341 0.50328 0.95873 0.0
C1963 C 0.89406 0.52437 0.96619 0.0
C1964 C 0.91758 0.52232 0.99577 0.0
C1965 C 0.93444 0.50917 0.98736 0.0
N1966 N 0.93732 0.47975 0.96163 0.0
N1967 N 0.89618 0.55682 0.99216 0.0
C1968 C 0.92549 0.49741 0.96897 0.0
C1969 C 0.90249 0.53493 0.98477 0.0
N1970 N 0.89021 0.48798 0.94239 0.0
N1971 N 0.91045 0.517 0.01397 0.0
H1972 H 0.88633 0.5679 0.98443 0.0
H1973 H 0.90376 0.56587 1.00552 0.0
H1974 H 0.91341 0.49969 0.0203 0.0
H1975 H 0.89611 0.52411 0.0209 0.0
H1976 H 0.89392 0.47048 0.93691 0.0
H1977 H 0.87329 0.49097 0.93494 0.0
H1978 H 0.93526 0.47333 0.9477 0.0
H1979 H 0.94943 0.47162 0.9699 0.0
C1980 C 0.43215 0.35029 0.98636 0.0
C1981 C 0.45273 0.34868 0.97291 0.0
C1982 C 0.48632 0.4059 0.97344 0.0
C1983 C 0.46792 0.40721 0.98844 0.0
N1984 N 0.4254 0.38055 0.01065 0.0
N1985 N 0.50226 0.3741 0.95573 0.0
C1986 C 0.44145 0.37935 0.99536 0.0
C1987 C 0.48056 0.37627 0.96695 0.0
N1988 N 0.40326 0.32425 0.99008 0.0
N1989 N 0.50915 0.43291 0.96527 0.0
H1990 H 0.49902 0.35282 0.95069 0.0
H1991 H 0.52481 0.39307 0.95274 0.0
H1992 H 0.51494 0.45521 0.9699 0.0
H1993 H 0.52072 0.43326 0.95301 0.0
H1994 H 0.38566 0.32469 0.99825 0.0
H1995 H 0.39564 0.3026 0.98369 0.0
H1996 H 0.40832 0.36073 0.01763 0.0
H1997 H 0.43081 0.4015 0.0172 0.0
C1998 C 0.07826 0.64243 0.04443 0.0
C1999 C 0.11136 0.65749 0.04047 0.0
C2000 C 0.1025 0.60969 0.02443 0.0
C2001 C 0.06956 0.59347 0.03011 0.0
N2002 N 0.03591 0.59382 0.05551 0.0
N2003 N 0.15642 0.65168 0.03142 0.0
C2004 C 0.05985 0.60943 0.04294 0.0
C2005 C 0.12396 0.64021 0.03164 0.0
N2006 N 0.06435 0.65929 0.05018 0.0
N2007 N 0.11433 0.59566 0.01322 0.0
H2008 H 0.17301 0.67299 0.03748 0.0
H2009 H 0.1668 0.63855 0.02711 0.0
H2010 H 0.10267 0.5717 0.01102 0.0
H2011 H 0.13633 0.60805 1.0065 0.0
H2012 H 0.03959 0.64896 0.05206 0.0
H2013 H 0.077 0.68373 0.05111 0.0
H2014 H 0.02963 0.60553 0.06524 0.0
H2015 H 0.02686 0.57043 0.05898 0.0
C2016 C 0.35941 0.44291 0.03047 0.0
C2017 C 0.36157 0.46521 0.04378 0.0
C2018 C 0.42 0.49495 0.04023 0.0
C2019 C 0.41839 0.47373 0.02613 0.0
N2020 N 0.38636 0.42616 0.00864 0.0
N2021 N 0.39235 0.51621 0.05782 0.0
C2022 C 0.38784 0.44761 0.02126 0.0
C2023 C 0.39134 0.49253 0.04735 0.0
N2024 N 0.33037 0.41641 0.02743 0.0
N2025 N 0.44861 0.51513 0.04857 0.0
H2026 H 0.37184 0.51502 0.06351 0.0
H2027 H 0.413 0.5381 0.05927 0.0
H2028 H 0.47034 0.51746 0.04451 0.0
H2029 H 0.4505 0.52781 0.06058 0.0
H2030 H 0.32681 0.39765 0.01912 0.0
H2031 H 0.30924 0.41244 0.03381 0.0
H2032 H 0.36529 0.40819 1.00289 0.0
H2033 H 0.40677 0.427 1.00318 0.0
C2034 C 0.52012 0.90151 0.0554 0.0
C2035 C 0.54696 0.89926 0.04941 0.0
C2036 C 0.55226 0.93128 0.02216 0.0
C2037 C 0.52793 0.9366 0.02932 0.0
N2038 N 0.49096 0.92972 0.05394 0.0
N2039 N 0.59159 0.91533 0.02858 0.0
C2040 C 0.51251 0.92256 0.04629 0.0
C2041 C 0.56378 0.91492 0.03312 0.0
N2042 N 0.50117 0.88266 0.06937 0.0
N2043 N 0.56431 0.94174 1.00489 0.0
H2044 H 0.60097 0.90388 0.03636 0.0
H2045 H 0.60684 0.92919 0.01807 0.0
H2046 H 0.55731 0.95481 0.99683 0.0
H2047 H 0.57933 0.93551 0.998 0.0
H2048 H 0.47926 0.88066 0.07296 0.0
H2049 H 0.50582 0.86675 0.07631 0.0
H2050 H 0.48207 0.9234 0.06735 0.0
H2051 H 0.48363 0.94399 0.04744 0.0
C2052 C 0.04196 0.26431 0.37521 0.0
C2053 C 0.03227 0.23285 0.37962 0.0
C2054 C 0.08249 0.23973 0.36671 0.0
C2055 C 0.094 0.27237 0.36464 0.0
N2056 N 0.08669 0.31653 0.37163 0.0
N2057 N 0.04457 0.19104 0.38157 0.0
C2058 C 0.0742 0.28491 0.36998 0.0
C2059 C 0.05267 0.22047 0.37568 0.0
N2060 N 0.02032 0.27459 0.37603 0.0
N2061 N 0.10032 0.22717 0.36033 0.0
H2062 H 0.02312 0.17622 0.38833 0.0
H2063 H 0.06014 0.1821 0.38111 0.0
H2064 H 0.12275 0.24083 0.35447 0.0
H2065 H 0.09176 0.20316 0.35931 0.0
H2066 H 0.02536 0.29653 0.3712 0.0
H2067 H 0.99638 0.26002 0.37977 0.0
H2068 H 0.07434 0.32657 0.37777 0.0
H2069 H 0.11012 0.33281 0.36805 0.0
C2070 C 0.74835 0.78295 0.37247 0.0
C2071 C 0.78025 0.8073 0.37598 0.0
C2072 C 0.76477 0.84664 0.36812 0.0
C2073 C 0.7324 0.82232 0.36516 0.0
N2074 N 0.69247 0.76762 0.36798 0.0
N2075 N 0.82036 0.86205 0.37495 0.0
C2076 C 0.72403 0.79053 0.3682 0.0
C2077 C 0.78888 0.83907 0.37313 0.0
N2078 N 0.74159 0.75245 0.37247 0.0
N2079 N 0.77217 0.87722 0.36709 0.0
H2080 H 0.83824 0.85788 0.37998 0.0
H2081 H 0.82941 0.88505 0.37057 0.0
H2082 H 0.75576 0.88364 0.36271 0.0
H2083 H 0.79387 0.89629 0.37136 0.0
H2084 H 0.71991 0.73375 0.36781 0.0
H2085 H 0.75873 0.746 0.37553 0.0
H2086 H 0.68421 0.74472 0.37238 0.0
H2087 H 0.67412 0.77208 0.36463 0.0
C2088 C 0.17414 0.95274 0.37448 0.0
C2089 C 0.20611 0.97442 0.38007 0.0
C2090 C 0.21946 0.93273 0.37804 0.0
C2091 C 0.18999 0.91286 0.3686 0.0
N2092 N 0.13747 0.90365 0.35932 0.0
N2093 N 0.26106 0.98631 0.38336 0.0
C2094 C 0.16687 0.92293 0.36709 0.0
C2095 C 0.22936 0.96484 0.38056 0.0
N2096 N 0.15038 0.95994 0.37715 0.0
N2097 N 0.23687 0.921 0.38618 0.0
H2098 H 0.2695 0.01027 0.3849 0.0
H2099 H 0.27915 0.98058 0.38215 0.0
H2100 H 0.22757 0.89724 0.3885 0.0
H2101 H 0.25775 0.93485 0.39385 0.0
H2102 H 0.12605 0.94395 0.37529 0.0
H2103 H 0.15462 0.98111 0.38294 0.0
H2104 H 0.1213 0.91103 0.35571 0.0
H2105 H 0.12938 0.88031 0.35598 0.0
C2106 C 0.5671 0.70743 0.30232 0.0
C2107 C 0.562 0.67985 0.31145 0.0
C2108 C 0.599 0.71207 0.33633 0.0
C2109 C 0.6072 0.73976 0.32609 0.0
N2110 N 0.60155 0.76293 0.29758 0.0
N2111 N 0.57805 0.65591 0.33516 0.0
C2112 C 0.59224 0.73715 0.30849 0.0
C2113 C 0.57938 0.68217 0.3279 0.0
N2114 N 0.54675 0.7055 0.28838 0.0
N2115 N 0.60933 0.71402 0.35422 0.0
H2116 H 0.56447 0.63372 0.32917 0.0
H2117 H 0.59285 0.6566 0.34598 0.0
H2118 H 0.62353 0.73517 0.36105 0.0
H2119 H 0.60119 0.69463 0.36289 0.0
H2120 H 0.54693 0.72505 0.28272 0.0
H2121 H 0.52749 0.68434 0.28372 0.0
H2122 H 0.59467 0.76146 0.28371 0.0
H2123 H 0.61745 0.78575 0.30186 0.0
C2124 C 0.27922 0.84382 0.29209 0.0
C2125 C 0.3065 0.85453 0.30404 0.0
C2126 C 0.26984 0.83929 0.33024 0.0
C2127 C 0.2456 0.83887 0.31923 0.0
N2128 N 0.22367 0.83039 0.28849 0.0
N2129 N 0.32652 0.86592 0.33581 0.0
C2130 C 0.24949 0.83868 0.29966 0.0
C2131 C 0.30153 0.85364 0.32352 0.0
N2132 N 0.28076 0.83588 0.27408 0.0
N2133 N 0.2615 0.81932 0.34464 0.0
H2134 H 0.35042 0.87911 0.33168 0.0
H2135 H 0.32271 0.86529 0.3501 0.0
H2136 H 0.23734 0.80291 0.3466 0.0
H2137 H 0.27835 0.81605 0.35202 0.0
H2138 H 0.2611 0.82583 0.26509 0.0
H2139 H 0.30088 0.8361 0.26857 0.0
H2140 H 0.225 0.83412 0.27422 0.0
H2141 H 0.20075 0.81804 0.29403 0.0
C2142 C 0.08943 0.39708 0.3154 0.0
C2143 C 0.11278 0.42537 0.30708 0.0
C2144 C 0.15573 0.41982 0.32178 0.0
C2145 C 0.13275 0.38912 0.32769 0.0
N2146 N 0.07742 0.34904 0.33111 0.0
N2147 N 0.16825 0.46231 0.30046 0.0
C2148 C 0.09946 0.37796 0.32478 0.0
C2149 C 0.14595 0.43656 0.30992 0.0
N2150 N 0.05777 0.38903 0.31478 0.0
N2151 N 0.18694 0.43327 0.32751 0.0
H2152 H 0.16221 0.47526 0.29155 0.0
H2153 H 0.19258 0.46927 0.30015 0.0
H2154 H 0.19564 0.42163 0.3355 0.0
H2155 H 0.2037 0.45689 0.3256 0.0
H2156 H 0.03973 0.37037 0.32208 0.0
H2157 H 0.04969 0.40254 0.30801 0.0
H2158 H 0.05324 0.33734 0.32736 0.0
H2159 H 0.08384 0.33647 0.33996 0.0
C2160 C 0.30877 0.40149 0.31812 0.0
C2161 C 0.30958 0.42758 0.30935 0.0
C2162 C 0.25244 0.40644 0.31551 0.0
C2163 C 0.2511 0.37995 0.32439 0.0
N2164 N 0.27694 0.34993 0.33174 0.0
N2165 N 0.28521 0.45932 0.30406 0.0
C2166 C 0.27915 0.37702 0.32517 0.0
C2167 C 0.28243 0.43153 0.30961 0.0
N2168 N 0.33668 0.40071 0.32012 0.0
N2169 N 0.22484 0.40601 0.31036 0.0
H2170 H 0.30659 0.47793 0.29909 0.0
H2171 H 0.26717 0.46491 0.30606 0.0
H2172 H 0.20195 0.38765 0.31317 0.0
H2173 H 0.22449 0.42254 0.30149 0.0
H2174 H 0.33889 0.38424 0.32805 0.0
H2175 H 0.35862 0.41826 0.31501 0.0
H2176 H 0.29503 0.34429 0.33056 0.0
H2177 H 0.25627 0.33213 0.33789 0.0
C2178 C 0.59315 0.89444 0.31878 0.0
C2179 C 0.56938 0.87119 0.30706 0.0
C2180 C 0.58662 0.83407 0.31682 0.0
C2181 C 0.61412 0.85886 0.32572 0.0
N2182 N 0.64239 0.91234 0.33646 0.0
N2183 N 0.54372 0.81893 0.29423 0.0
C2184 C 0.61681 0.88892 0.32716 0.0
C2185 C 0.5659 0.84088 0.30609 0.0
N2186 N 0.59272 0.9216 0.32208 0.0
N2187 N 0.57977 0.80387 0.3189 0.0
H2188 H 0.52762 0.8227 0.28645 0.0
H2189 H 0.54279 0.79783 0.29106 0.0
H2190 H 0.59368 0.79798 0.32708 0.0
H2191 H 0.55839 0.7845 0.31446 0.0
H2192 H 0.60727 0.93828 0.3319 0.0
H2193 H 0.57586 0.92634 0.31602 0.0
H2194 H 0.64858 0.93583 0.33605 0.0
H2195 H 0.6578 0.908 0.34449 0.0
C2196 C 0.09961 0.67879 0.31649 0.0
C2197 C 0.11948 0.67573 0.3032 0.0
C2198 C 0.15959 0.73152 0.30706 0.0
C2199 C 0.13998 0.7342 0.32082 0.0
N2200 N 0.09762 0.70768 0.34304 0.0
N2201 N 0.16982 0.69768 0.28698 0.0
C2202 C 0.11162 0.70713 0.32674 0.0
C2203 C 0.14982 0.7018 0.29865 0.0
N2204 N 0.06908 0.65459 0.31925 0.0
N2205 N 0.18811 0.75728 0.30258 0.0
H2206 H 0.1632 0.67642 0.28035 0.0
H2207 H 0.1935 0.71466 0.2844 0.0
H2208 H 0.19799 0.77765 0.31056 0.0
H2209 H 0.2019 0.75866 0.29115 0.0
H2210 H 0.05238 0.65666 0.32741 0.0
H2211 H 0.05951 0.63339 0.312 0.0
H2212 H 0.07857 0.68787 0.34897 0.0
H2213 H 0.10769 0.72714 0.35178 0.0
C2214 C 0.77086 0.96382 0.38423 0.0
C2215 C 0.77399 0.9901 0.37447 0.0
C2216 C 0.73595 0.95472 0.35084 0.0
C2217 C 0.73043 0.92834 0.36166 0.0
N2218 N 0.7365 0.90954 0.39166 0.0
N2219 N 0.75529 0.01072 0.35019 0.0
C2220 C 0.74595 0.93339 0.37926 0.0
C2221 C 0.75539 0.98562 0.35819 0.0
N2222 N 0.79244 0.96766 0.39787 0.0
N2223 N 0.72245 0.95039 0.33361 0.0
H2224 H 0.7688 0.03352 0.35538 0.0
H2225 H 0.73973 0.00866 0.33948 0.0
H2226 H 0.70631 0.92832 0.32832 0.0
H2227 H 0.72867 0.9685 0.32417 0.0
H2228 H 0.79332 0.94889 0.40395 0.0
H2229 H 0.81163 0.98947 0.40172 0.0
H2230 H 0.74503 0.91289 0.40528 0.0
H2231 H 0.71742 0.88728 0.38922 0.0
C2232 C 0.05588 0.81567 0.37915 0.0
C2233 C 0.02671 0.78744 0.37609 0.0
C2234 C 0.05518 0.76777 0.35685 0.0
C2235 C 0.085 0.79577 0.36055 0.0
N2236 N 0.11305 0.83932 0.38187 0.0
N2237 N 0.99687 0.73845 0.35983 0.0
C2238 C 0.08523 0.8182 0.37323 0.0
C2239 C 0.02589 0.76398 0.36429 0.0
N2240 N 0.05566 0.84018 0.38796 0.0
N2241 N 0.05515 0.74396 0.34703 0.0
H2242 H 0.97524 0.73484 0.36532 0.0
H2243 H 0.99364 0.72194 0.34976 0.0
H2244 H 0.0755 0.74642 0.34048 0.0
H2245 H 0.03553 0.72142 0.34585 0.0
H2246 H 0.07582 0.86255 0.38874 0.0
H2247 H 0.03466 0.83897 0.39283 0.0
H2248 H 0.11411 0.85391 0.39269 0.0
H2249 H 0.13441 0.83943 0.38001 0.0
C2250 C 0.22188 0.23066 0.35726 0.0
C2251 C 0.23832 0.23968 0.37456 0.0
C2252 C 0.22127 0.27815 0.37829 0.0
C2253 C 0.20255 0.26803 0.36175 0.0
N2254 N 0.17591 0.22427 0.34036 0.0
N2255 N 0.27115 0.28761 0.39152 0.0
C2256 C 0.20046 0.24159 0.35232 0.0
C2257 C 0.24355 0.26832 0.38209 0.0
N2258 N 0.23033 0.21595 0.3443 0.0
N2259 N 0.21504 0.29386 0.3917 0.0
H2260 H 0.28969 0.28243 0.39266 0.0
H2261 H 0.27646 0.30981 0.39619 0.0
H2262 H 0.19388 0.29482 0.39139 0.0
H2263 H 0.22763 0.30052 0.40428 0.0
H2264 H 0.22071 0.21112 0.33089 0.0
H2265 H 0.25048 0.21343 0.34619 0.0
H2266 H 0.17257 0.20351 0.33438 0.0
H2267 H 0.15613 0.22732 0.33925 0.0
C2268 C 0.70261 0.59767 0.70149 0.0
C2269 C 0.696 0.56795 0.70796 0.0
C2270 C 0.7472 0.5772 0.69532 0.0
C2271 C 0.75659 0.60911 0.69213 0.0
N2272 N 0.74319 0.65017 0.69337 0.0
N2273 N 0.71284 0.52966 0.71222 0.0
C2274 C 0.73405 0.61934 0.69529 0.0
C2275 C 0.71823 0.55748 0.70489 0.0
N2276 N 0.67879 0.60514 0.70124 0.0
N2277 N 0.76623 0.56577 0.68933 0.0
H2278 H 0.6921 0.51453 0.71949 0.0
H2279 H 0.73004 0.52269 0.71243 0.0
H2280 H 0.78801 0.57994 0.68287 0.0
H2281 H 0.75916 0.54202 0.68925 0.0
H2282 H 0.68125 0.62527 0.69496 0.0
H2283 H 0.6555 0.58968 0.70573 0.0
H2284 H 0.72951 0.65986 0.69798 0.0
H2285 H 0.76521 0.66616 0.68779 0.0
C2286 C 0.44567 0.16207 0.703 0.0
C2287 C 0.4399 0.13133 0.70636 0.0
C2288 C 0.38391 0.10945 0.69577 0.0
C2289 C 0.38901 0.1404 0.69307 0.0
N2290 N 0.42419 0.19626 0.69746 0.0
N2291 N 0.40637 0.07571 0.70207 0.0
C2292 C 0.41991 0.16673 0.69726 0.0
C2293 C 0.40973 0.10501 0.70174 0.0
N2294 N 0.47604 0.18708 0.70518 0.0
N2295 N 0.35391 0.08406 0.69306 0.0
H2296 H 0.42473 0.07159 0.70628 0.0
H2297 H 0.38657 0.05573 0.69671 0.0
H2298 H 0.33512 0.08545 0.68674 0.0
H2299 H 0.34712 0.06152 0.69755 0.0
H2300 H 0.48323 0.20936 0.70002 0.0
H2301 H 0.49494 0.18529 0.71101 0.0
H2302 H 0.44436 0.21584 0.70289 0.0
H2303 H 0.40653 0.20113 0.69355 0.0
C2304 C 0.847 0.29063 0.70534 0.0
C2305 C 0.87952 0.31441 0.70748 0.0
C2306 C 0.89709 0.27969 0.69395 0.0
C2307 C 0.86448 0.25661 0.69058 0.0
N2308 N 0.80836 0.2422 0.69038 0.0
N2309 N 0.93566 0.33382 0.70178 0.0
C2310 C 0.83943 0.26276 0.69541 0.0
C2311 C 0.90465 0.30953 0.70128 0.0
N2312 N 0.82333 0.29421 0.71345 0.0
N2313 N 0.92088 0.27311 0.69012 0.0
H2314 H 0.94215 0.3558 0.70734 0.0
H2315 H 0.95477 0.33306 0.69556 0.0
H2316 H 0.91644 0.25275 0.68328 0.0
H2317 H 0.94463 0.28701 0.69443 0.0
H2318 H 0.79953 0.27628 0.71435 0.0
H2319 H 0.82793 0.31432 0.72083 0.0
H2320 H 0.78984 0.24729 0.69142 0.0
H2321 H 0.80117 0.2208 0.68386 0.0
C2322 C 0.25614 0.02832 0.6365 0.0
C2323 C 0.22277 0.01604 0.63859 0.0
C2324 C 0.23358 0.0668 0.6513 0.0
C2325 C 0.26729 0.07946 0.64833 0.0
N2326 N 0.30352 0.07449 0.62675 0.0
N2327 N 0.17942 0.02687 0.64263 0.0
C2328 C 0.27689 0.06108 0.63768 0.0
C2329 C 0.21128 0.03613 0.64458 0.0
N2330 N 0.26827 0.00896 0.63307 0.0
N2331 N 0.22236 0.08443 0.65946 0.0
H2332 H 0.16254 0.00526 0.63703 0.0
H2333 H 0.17011 0.04173 0.64469 0.0
H2334 H 0.23627 0.10849 0.66144 0.0
H2335 H 0.19893 0.07506 0.66422 0.0
H2336 H 0.29293 0.01723 0.63271 0.0
H2337 H 0.2539 0.98459 0.63256 0.0
H2338 H 0.30983 0.06124 0.61826 0.0
H2339 H 0.31587 0.09821 0.6235 0.0
C2340 C 0.96621 0.22034 0.64933 0.0
C2341 C 0.97442 0.19707 0.64514 0.0
C2342 C 0.92044 0.15629 0.6546 0.0
C2343 C 0.91091 0.17927 0.65665 0.0
N2344 N 0.92366 0.23277 0.65144 0.0
N2345 N 0.95795 0.1424 0.64128 0.0
C2346 C 0.9336 0.21128 0.65297 0.0
C2347 C 0.95125 0.1649 0.64729 0.0
N2348 N 0.98961 0.2512 0.64989 0.0
N2349 N 0.89983 0.12599 0.6595 0.0
H2350 H 0.98 0.14759 0.63566 0.0
H2351 H 0.94084 0.11868 0.64033 0.0
H2352 H 0.87691 0.11873 0.6644 0.0
H2353 H 0.90639 0.10882 0.66043 0.0
H2354 H 0.98557 0.2689 0.65473 0.0
H2355 H 0.01369 0.25869 0.64718 0.0
H2356 H 0.93832 0.25545 0.64654 0.0
H2357 H 0.90009 0.22733 0.65374 0.0
C2358 C 0.76474 0.74652 0.65545 0.0
C2359 C 0.78245 0.76532 0.64018 0.0
C2360 C 0.82748 0.75745 0.64824 0.0
C2361 C 0.80815 0.73559 0.66182 0.0
N2362 N 0.76629 0.72143 0.68407 0.0
N2363 N 0.83084 0.78948 0.62188 0.0
C2364 C 0.77893 0.73352 0.66715 0.0
C2365 C 0.81406 0.77129 0.63662 0.0
N2366 N 0.73401 0.74027 0.65836 0.0
N2367 N 0.85937 0.76664 0.64762 0.0
H2368 H 0.82229 0.80098 0.61347 0.0
H2369 H 0.85241 0.79178 0.61728 0.0
H2370 H 0.86981 0.7585 0.65723 0.0
H2371 H 0.87591 0.7844 0.63913 0.0
H2372 H 0.71867 0.72401 0.668 0.0
H2373 H 0.72294 0.74965 0.65016 0.0
H2374 H 0.7461 0.72112 0.68951 0.0
H2375 H 0.7788 0.71576 0.69371 0.0
C2376 C 0.97272 0.75714 0.65465 0.0
C2377 C 0.97234 0.76435 0.63567 0.0
C2378 C 0.91346 0.73824 0.63692 0.0
C2379 C 0.91449 0.73023 0.65575 0.0
N2380 N 0.94566 0.7577 0.68198 0.0
N2381 N 0.94252 0.77072 0.61056 0.0
C2382 C 0.94425 0.74591 0.66487 0.0
C2383 C 0.94268 0.75759 0.62724 0.0
N2384 N 1.00006 0.76176 0.66327 0.0
N2385 N 0.88453 0.72816 0.62859 0.0
H2386 H 0.96346 0.78607 0.60354 0.0
H2387 H 0.92197 0.76883 0.60444 0.0
H2388 H 0.86353 0.71765 0.63629 0.0
H2389 H 0.88138 0.72994 0.61443 0.0
H2390 H 1.00005 0.75573 0.67717 0.0
H2391 H 0.0215 0.76885 0.65621 0.0
H2392 H 0.96732 0.77204 0.68891 0.0
H2393 H 0.92551 0.75817 0.68671 0.0
C2394 C 0.22688 0.17354 0.63386 0.0
C2395 C 0.23425 0.20498 0.63605 0.0
C2396 C 0.28618 0.21815 0.65028 0.0
C2397 C 0.2791 0.18643 0.64807 0.0
N2398 N 0.24699 0.13779 0.63106 0.0
N2399 N 0.26758 0.25596 0.64944 0.0
C2400 C 0.25045 0.16506 0.6382 0.0
C2401 C 0.26297 0.22691 0.64516 0.0
N2402 N 0.19711 0.15147 0.6276 0.0
N2403 N 0.31613 0.24058 0.65585 0.0
H2404 H 0.25113 0.26303 0.64578 0.0
H2405 H 0.286 0.27198 0.65802 0.0
H2406 H 0.33361 0.23525 0.65966 0.0
H2407 H 0.32447 0.26457 0.65545 0.0
H2408 H 0.18881 0.12746 0.62807 0.0
H2409 H 0.17957 0.15682 0.62351 0.0
H2410 H 0.22901 0.12364 0.62163 0.0
H2411 H 0.26344 0.13029 0.63316 0.0
C2412 C 0.76242 0.01449 0.65129 0.0
C2413 C 0.78088 0.00936 0.63795 0.0
C2414 C 0.82003 0.06554 0.63756 0.0
C2415 C 0.80327 0.07059 0.65221 0.0
N2416 N 0.75973 0.04897 0.67429 0.0
N2417 N 0.83006 0.02861 0.6208 0.0
C2418 C 0.77493 0.04473 0.65953 0.0
C2419 C 0.81043 0.0345 0.63174 0.0
N2420 N 0.73233 0.99068 0.65555 0.0
N2421 N 0.84485 0.09031 0.62886 0.0
H2422 H 0.82382 0.00626 0.61598 0.0
H2423 H 0.85369 0.0454 0.6178 0.0
H2424 H 0.85401 0.11328 0.63317 0.0
H2425 H 0.85498 0.08826 0.61656 0.0
H2426 H 0.71606 0.99366 0.66355 0.0
H2427 H 0.72247 0.96827 0.64976 0.0
H2428 H 0.74173 0.03059 0.6818 0.0
H2429 H 0.76631 0.07092 0.67979 0.0
C2430 C 0.42576 0.31847 0.69131 0.0
C2431 C 0.44206 0.31945 0.70798 0.0
C2432 C 0.40951 0.26224 0.71014 0.0
C2433 C 0.3963 0.26098 0.69222 0.0
N2434 N 0.39818 0.28835 0.66398 0.0
N2435 N 0.45451 0.29137 0.73096 0.0
C2436 C 0.40629 0.28921 0.68224 0.0
C2437 C 0.43522 0.2911 0.71686 0.0
N2438 N 0.42814 0.34536 0.68436 0.0
N2439 N 0.39803 0.23587 0.72073 0.0
H2440 H 0.47452 0.31177 0.73582 0.0
H2441 H 0.45271 0.27102 0.73652 0.0
H2442 H 0.38083 0.21381 0.71599 0.0
H2443 H 0.4041 0.23631 0.73468 0.0
H2444 H 0.4143 0.34548 0.67322 0.0
H2445 H 0.44137 0.3671 0.69092 0.0
H2446 H 0.40748 0.30829 0.6557 0.0
H2447 H 0.3851 0.26756 0.65656 0.0
C2448 C 0.69401 0.12078 0.69765 0.0
C2449 C 0.69797 0.13657 0.71472 0.0
C2450 C 0.75644 0.16579 0.70955 0.0
C2451 C 0.75209 0.15038 0.69207 0.0
N2452 N 0.71492 0.12885 0.66694 0.0
N2453 N 0.7324 0.17991 0.73476 0.0
C2454 C 0.7203 0.13182 0.68543 0.0
C2455 C 0.72907 0.16093 0.72004 0.0
N2456 N 0.66522 0.09533 0.69287 0.0
N2457 N 0.78662 0.18478 0.71629 0.0
H2458 H 0.71296 0.17708 0.74261 0.0
H2459 H 0.7539 0.20004 0.7382 0.0
H2460 H 0.80685 0.19073 0.7084 0.0
H2461 H 0.79157 0.19354 0.72981 0.0
H2462 H 0.66237 0.08202 0.68097 0.0
H2463 H 0.64532 0.08582 0.70159 0.0
H2464 H 0.6921 0.11685 0.6609 0.0
H2465 H 0.73294 0.14508 0.65862 0.0
C2466 C 0.90245 0.58486 0.69596 0.0
C2467 C 0.88512 0.56412 0.71057 0.0
C2468 C 0.84543 0.58122 0.7096 0.0
C2469 C 0.86183 0.60132 0.69442 0.0
N2470 N 0.90336 0.61868 0.67124 0.0
N2471 N 0.83597 0.53621 0.72782 0.0
C2472 C 0.88937 0.60175 0.68687 0.0
C2473 C 0.85528 0.56029 0.71625 0.0
N2474 N 0.93206 0.58945 0.69135 0.0
N2475 N 0.82115 0.58282 0.71829 0.0
H2476 H 0.8424 0.52038 0.73312 0.0
H2477 H 0.81231 0.53002 0.7307 0.0
H2478 H 0.81212 0.59669 0.71358 0.0
H2479 H 0.81145 0.57201 0.73091 0.0
H2480 H 0.94769 0.60688 0.68236 0.0
H2481 H 0.942 0.57706 0.69754 0.0
H2482 H 0.92113 0.61718 0.66388 0.0
H2483 H 0.89576 0.63281 0.66486 0.0
C2484 C 0.49369 0.95138 0.15593 0.0
C2485 C 0.4882 0.96782 0.17039 0.0
C2486 C 0.49891 0.01021 0.14858 0.0
C2487 C 0.50888 0.99601 0.13498 0.0
N2488 N 0.51971 0.95468 0.12657 0.0
N2489 N 0.49136 0.01574 0.18127 0.0
C2490 C 0.5072 0.96691 0.13883 0.0
C2491 C 0.49228 0.998 0.16691 0.0
N2492 N 0.48513 0.92063 0.15829 0.0
N2493 N 0.49507 0.03502 0.14387 0.0
H2494 H 0.48765 0.00819 0.19502 0.0
H2495 H 0.49749 0.03914 0.17982 0.0
H2496 H 0.49901 0.04415 0.13047 0.0
H2497 H 0.48482 0.04436 0.1527 0.0
H2498 H 0.48548 0.90651 0.1476 0.0
H2499 H 0.47479 0.90835 0.17046 0.0
H2500 H 0.52243 0.93544 0.12957 0.0
H2501 H 0.52986 0.96527 0.11396 0.0
C2502 C 0.03436 0.48015 0.15601 0.0
C2503 C 0.03215 0.5053 0.16415 0.0
C2504 C 0.99885 0.5039 0.13802 0.0
C2505 C 0.99457 0.47431 0.1326 0.0
N2506 N 0.01065 0.43513 0.13542 0.0
N2507 N 0.03626 0.55295 0.1525 0.0
C2508 C 0.01317 0.46271 0.14123 0.0
C2509 C 0.02112 0.52101 0.15236 0.0
N2510 N 0.05982 0.47627 0.16036 0.0
N2511 N 0.98158 0.51568 0.12969 0.0
H2512 H 0.05741 0.5663 0.1601 0.0
H2513 H 0.03095 0.56577 0.14306 0.0
H2514 H 0.96502 0.50396 0.11904 0.0
H2515 H 0.98206 0.53594 0.13446 0.0
H2516 H 0.06455 0.46023 0.15367 0.0
H2517 H 0.07851 0.49221 0.16892 0.0
H2518 H 0.02096 0.42401 0.14265 0.0
H2519 H 0.99672 0.42245 0.12402 0.0
C2520 C 0.48298 0.48372 0.16871 0.0
C2521 C 0.48466 0.51286 0.17244 0.0
C2522 C 0.50391 0.53027 0.14083 0.0
C2523 C 0.50041 0.50044 0.13679 0.0
N2524 N 0.47724 0.44601 0.1452 0.0
N2525 N 0.48743 0.55981 0.16033 0.0
C2526 C 0.4868 0.47623 0.1502 0.0
C2527 C 0.49206 0.53481 0.1579 0.0
N2528 N 0.47977 0.46396 0.18289 0.0
N2529 N 0.52019 0.55485 0.12899 0.0
H2530 H 0.47797 0.56337 0.17251 0.0
H2531 H 0.4897 0.57497 0.14961 0.0
H2532 H 0.53032 0.55304 0.11663 0.0
H2533 H 0.52627 0.57779 0.13232 0.0
H2534 H 0.4818 0.44402 0.18099 0.0
H2535 H 0.47828 0.46896 0.19679 0.0
H2536 H 0.46455 0.42704 0.15403 0.0
H2537 H 0.47896 0.43961 0.13161 0.0
C2538 C 0.99785 0.51356 0.85387 0.0
C2539 C 0.98994 0.48497 0.84464 0.0
C2540 C 0.00684 0.46815 0.87243 0.0
C2541 C 0.00874 0.49374 0.88251 0.0
N2542 N 0.00381 0.54013 0.88317 0.0
N2543 N 0.0119 0.45053 0.84212 0.0
C2544 C 0.00314 0.51603 0.87338 0.0
C2545 C 1.00136 0.46624 0.85302 0.0
N2546 N 0.00771 0.54025 0.84384 0.0
N2547 N 0.0102 0.44552 0.8814 0.0
H2548 H 0.01336 0.4531 0.82772 0.0
H2549 H 0.02326 0.43884 0.84742 0.0
H2550 H 0.01411 0.44608 0.89569 0.0
H2551 H 0.00603 0.42488 0.87486 0.0
H2552 H 0.01585 0.56222 0.84991 0.0
H2553 H 0.01379 0.54127 0.82987 0.0
H2554 H 0.99705 0.55536 0.87731 0.0
H2555 H 0.0084 0.54312 0.89741 0.0
C2556 C 0.49688 0.48685 0.85095 0.0
C2557 C 0.52522 0.48569 0.84714 0.0
C2558 C 0.5458 0.50647 0.87832 0.0
C2559 C 0.51618 0.50491 0.88255 0.0
N2560 N 0.46063 0.48562 0.87452 0.0
N2561 N 0.57379 0.48817 0.8585 0.0
C2562 C 0.49079 0.49252 0.86936 0.0
C2563 C 0.5489 0.49366 0.86123 0.0
N2564 N 0.47649 0.48414 0.83686 0.0
N2565 N 0.57132 0.52125 0.89024 0.0
H2566 H 0.57654 0.47831 0.8463 0.0
H2567 H 0.58997 0.49065 0.86894 0.0
H2568 H 0.57003 0.53095 0.90286 0.0
H2569 H 0.59444 0.5261 0.88693 0.0
H2570 H 0.45721 0.48796 0.8387 0.0
H2571 H 0.48071 0.48142 0.82298 0.0
H2572 H 0.44058 0.47371 0.86591 0.0
H2573 H 0.45508 0.48879 0.88806 0.0
C2574 C 0.53168 0.049 0.86155 0.0
C2575 C 0.50938 0.03582 0.84659 0.0
C2576 C 0.47234 0.9935 0.86708 0.0
C2577 C 0.49641 0.00393 0.88108 0.0
N2578 N 0.55135 0.03929 0.89039 0.0
N2579 N 0.46132 0.99136 0.8342 0.0
C2580 C 0.52675 0.03116 0.87802 0.0
C2581 C 0.48044 0.00692 0.84911 0.0
N2582 N 0.55701 0.07889 0.86029 0.0
N2583 N 0.44145 0.97121 0.87105 0.0
H2584 H 0.46706 -0.00051 0.82062 0.0
H2585 H 0.44164 0.96876 0.83508 0.0
H2586 H 0.43435 0.96153 0.88424 0.0
H2587 H 0.42239 0.96491 0.86183 0.0
H2588 H 0.57219 0.09075 0.87144 0.0
H2589 H 0.56101 0.09296 0.84867 0.0
H2590 H 0.57485 0.05691 0.88783 0.0
H2591 H 0.54897 0.02666 0.90244 0.0
C2592 C 0.14251 0.33199 0.50263 0.0
C2593 C 0.14397 0.30432 0.50616 0.0
C2594 C 0.16892 0.30975 0.4756 0.0
C2595 C 0.16442 0.33556 0.47142 0.0
N2596 N 0.13843 0.36513 0.47931 0.0
N2597 N 0.15144 0.26272 0.49388 0.0
C2598 C 0.14851 0.34472 0.48443 0.0
C2599 C 0.15503 0.29192 0.49199 0.0
N2600 N 0.13708 0.34721 0.51681 0.0
N2601 N 0.1877 0.30306 0.46448 0.0
H2602 H 0.14047 0.24853 0.50536 0.0
H2603 H 0.15629 0.25135 0.48323 0.0
H2604 H 0.19911 0.31596 0.45267 0.0
H2605 H 0.19444 0.28661 0.46797 0.0
H2606 H 0.13891 0.36909 0.51523 0.0
H2607 H 0.13429 0.33979 0.53057 0.0
H2608 H 0.12411 0.37032 0.48773 0.0
H2609 H 0.14136 0.37411 0.4659 0.0
C2610 C 0.64 0.82624 0.49986 0.0
C2611 C 0.67033 0.82911 0.5038 0.0
C2612 C 0.66883 0.8053 0.47359 0.0
C2613 C 0.64024 0.80564 0.4689 0.0
N2614 N 0.60337 0.82403 0.476 0.0
N2615 N 0.71701 0.82792 0.4926 0.0
C2616 C 0.62724 0.81841 0.48157 0.0
C2617 C 0.6858 0.82058 0.49012 0.0
N2618 N 0.62262 0.82963 0.51372 0.0
N2619 N 0.67914 0.78928 0.46274 0.0
H2620 H 0.73055 0.83987 0.50428 0.0
H2621 H 0.73039 0.82501 0.48226 0.0
H2622 H 0.66693 0.77692 0.45083 0.0
H2623 H 0.69798 0.78568 0.46655 0.0
H2624 H 0.59902 0.82469 0.5119 0.0
H2625 H 0.63045 0.83416 0.52749 0.0
H2626 H 0.59526 0.83615 0.48417 0.0
H2627 H 0.59408 0.81959 0.46252 0.0
C2628 C 0.13026 0.85227 0.48624 0.0
C2629 C 0.14854 0.84848 0.50045 0.0
C2630 C 0.16777 0.82382 0.47833 0.0
C2631 C 0.14563 0.82308 0.46503 0.0
N2632 N 0.1058 0.83643 0.45565 0.0
N2633 N 0.18393 0.82992 0.5107 0.0
C2634 C 0.12721 0.83774 0.46868 0.0
C2635 C 0.1675 0.83446 0.49663 0.0
N2636 N 0.11597 0.86983 0.48958 0.0
N2637 N 0.18891 0.81418 0.47337 0.0
H2638 H 0.18475 0.83789 0.52423 0.0
H2639 H 0.19511 0.81656 0.50932 0.0
H2640 H 0.18946 0.8062 0.46002 0.0
H2641 H 0.20766 0.81668 0.48184 0.0
H2642 H 0.1048 0.87601 0.47937 0.0
H2643 H 0.11743 0.88039 0.50241 0.0
H2644 H 0.08877 0.84313 0.45818 0.0
H2645 H 0.10412 0.82723 0.44236 0.0
C2646 C 0.6343 0.79503 0.19653 0.0
C2647 C 0.64995 0.81656 0.18192 0.0
C2648 C 0.69153 0.85191 0.20381 0.0
C2649 C 0.67906 0.82795 0.21741 0.0
N2650 N 0.64105 0.77419 0.22545 0.0
N2651 N 0.69664 0.86365 0.17103 0.0
C2652 C 0.65095 0.79883 0.21351 0.0
C2653 C 0.67936 0.84467 0.18538 0.0
N2654 N 0.60336 0.7712 0.19428 0.0
N2655 N 0.71452 0.88172 0.20857 0.0
H2656 H 0.68925 0.8588 0.15721 0.0
H2657 H 0.71981 0.88263 0.17269 0.0
H2658 H 0.72336 0.88809 0.22209 0.0
H2659 H 0.72227 0.90068 0.19958 0.0
H2660 H 0.58985 0.75656 0.20509 0.0
H2661 H 0.59011 0.7682 0.18217 0.0
H2662 H 0.62261 0.75162 0.22225 0.0
H2663 H 0.65321 0.77539 0.23771 0.0
C2664 C 0.20234 0.83123 0.19475 0.0
C2665 C 0.17915 0.8209 0.18021 0.0
C2666 C 0.14027 0.82177 0.20174 0.0
C2667 C 0.16462 0.8362 0.21549 0.0
N2668 N 0.22083 0.85992 0.22376 0.0
N2669 N 0.12846 0.81373 0.16892 0.0
C2670 C 0.19627 0.84237 0.21167 0.0
C2671 C 0.14877 0.81828 0.18343 0.0
N2672 N 0.22964 0.82945 0.19269 0.0
N2673 N 0.1088 0.81042 0.20626 0.0
H2674 H 0.13431 0.8125 0.15514 0.0
H2675 H 0.10738 0.81465 0.1704 0.0
H2676 H 0.10139 0.8114 0.21972 0.0
H2677 H 0.0899 0.79705 0.19713 0.0
H2678 H 0.24576 0.83368 0.20353 0.0
H2679 H 0.23463 0.82081 0.18069 0.0
H2680 H 0.24484 0.86772 0.22074 0.0
H2681 H 0.21767 0.86925 0.23604 0.0
C2682 C 0.15229 0.34278 0.18386 0.0
C2683 C 0.18118 0.37151 0.18079 0.0
C2684 C 0.19892 0.36888 0.21255 0.0
C2685 C 0.16873 0.3417 0.21602 0.0
N2686 N 0.11367 0.30839 0.20641 0.0
N2687 N 0.22888 0.41546 0.19378 0.0
C2688 C 0.14446 0.33049 0.20211 0.0
C2689 C 0.20363 0.38566 0.19561 0.0
N2690 N 0.13296 0.32626 0.16922 0.0
N2691 N 0.22355 0.378 0.225 0.0
H2692 H 0.23276 0.42871 0.1818 0.0
H2693 H 0.24415 0.42808 0.20474 0.0
H2694 H 0.22119 0.36635 0.23747 0.0
H2695 H 0.24701 0.39553 0.22226 0.0
H2696 H 0.11329 0.30374 0.17055 0.0
H2697 H 0.13853 0.33348 0.15548 0.0
H2698 H 0.09444 0.30152 0.19724 0.0
H2699 H 0.10682 0.29952 0.21979 0.0
C2700 C 0.81394 0.61769 0.82231 0.0
C2701 C 0.80297 0.62835 0.83746 0.0
C2702 C 0.80456 0.66948 0.81767 0.0
C2703 C 0.82044 0.66222 0.80362 0.0
N2704 N 0.84484 0.63189 0.79392 0.0
N2705 N 0.79548 0.66954 0.85056 0.0
C2706 C 0.82633 0.63689 0.80624 0.0
C2707 C 0.80036 0.65568 0.83542 0.0
N2708 N 0.81162 0.58889 0.82296 0.0
N2709 N 0.79283 0.68912 0.81396 0.0
H2710 H 0.79419 0.66139 0.86405 0.0
H2711 H 0.7964 0.69113 0.84992 0.0
H2712 H 0.79428 0.69873 0.80086 0.0
H2713 H 0.77858 0.69293 0.82328 0.0
H2714 H 0.81643 0.57877 0.8116 0.0
H2715 H 0.80182 0.57378 0.83421 0.0
H2716 H 0.85258 0.61582 0.79623 0.0
H2717 H 0.8549 0.64572 0.78221 0.0
C2718 C 0.37113 0.1779 0.81865 0.0
C2719 C 0.35661 0.18592 0.83316 0.0
C2720 C 0.31439 0.18025 0.81174 0.0
C2721 C 0.32626 0.168 0.79804 0.0
N2722 N 0.3631 0.15016 0.78954 0.0
N2723 N 0.31031 0.18776 0.84452 0.0
C2724 C 0.35393 0.16547 0.80175 0.0
C2725 C 0.32707 0.18517 0.83 0.0
N2726 N 0.40168 0.18306 0.82074 0.0
N2727 N 0.29163 0.18806 0.80721 0.0
H2728 H 0.31799 0.19002 0.85829 0.0
H2729 H 0.28716 0.18428 0.8431 0.0
H2730 H 0.28241 0.18571 0.79379 0.0
H2731 H 0.28448 0.19992 0.81628 0.0
H2732 H 0.41455 0.18052 0.80993 0.0
H2733 H 0.41534 0.19278 0.83275 0.0
H2734 H 0.38107 0.14482 0.7925 0.0
H2735 H 0.35085 0.14024 0.77716 0.0
C2736 C 0.84426 0.18305 0.83226 0.0
C2737 C 0.8151 0.18277 0.83589 0.0
C2738 C 0.79567 0.16138 0.80461 0.0
C2739 C 0.82609 0.16464 0.80048 0.0
N2740 N 0.88192 0.18664 0.80892 0.0
N2741 N 0.76575 0.17798 0.82405 0.0
C2742 C 0.85119 0.17802 0.81387 0.0
C2743 C 0.79155 0.17379 0.82162 0.0
N2744 N 0.86473 0.1866 0.84649 0.0
N2745 N 0.77032 0.1453 0.79273 0.0
H2746 H 0.76223 0.18757 0.83613 0.0
H2747 H 0.74956 0.17477 0.81345 0.0
H2748 H 0.77214 0.13549 0.78028 0.0
H2749 H 0.74685 0.13934 0.79601 0.0
H2750 H 0.88471 0.18385 0.84478 0.0
H2751 H 0.85996 0.18891 0.86034 0.0
H2752 H 0.9016 0.1992 0.8177 0.0
H2753 H 0.88815 0.18425 0.7954 0.0
C2754 C 0.29649 0.15453 0.52999 0.0
C2755 C 0.31423 0.15115 0.51536 0.0
C2756 C 0.36187 0.17218 0.53549 0.0
C2757 C 0.34555 0.17977 0.54907 0.0
N2758 N 0.29795 0.18032 0.55901 0.0
N2759 N 0.36471 0.15968 0.50327 0.0
C2760 C 0.31286 0.17121 0.54637 0.0
C2761 C 0.34712 0.16049 0.51791 0.0
N2762 N 0.26394 0.14145 0.52825 0.0
N2763 N 0.39138 0.17587 0.53954 0.0
H2764 H 0.35485 0.15121 0.49015 0.0
H2765 H 0.38958 0.16963 0.50368 0.0
H2766 H 0.40271 0.18423 0.55237 0.0
H2767 H 0.4032 0.16791 0.53094 0.0
H2768 H 0.24912 0.1403 0.53908 0.0
H2769 H 0.25131 0.12928 0.51637 0.0
H2770 H 0.27547 0.17809 0.55679 0.0
H2771 H 0.30892 0.19209 0.57131 0.0
C2772 C 0.84044 0.14236 0.52804 0.0
C2773 C 0.852 0.16284 0.51255 0.0
C2774 C 0.86094 0.20649 0.53288 0.0
C2775 C 0.84399 0.18516 0.54736 0.0
N2776 N 0.81266 0.13127 0.55739 0.0
N2777 N 0.86642 0.21362 0.49973 0.0
C2778 C 0.83247 0.15261 0.54465 0.0
C2779 C 0.86051 0.19477 0.51482 0.0
N2780 N 0.83788 0.11347 0.52712 0.0
N2781 N 0.87802 0.23798 0.53641 0.0
H2782 H 0.86428 0.20562 0.4861 0.0
H2783 H 0.86983 0.23622 0.50072 0.0
H2784 H 0.88001 0.24741 0.54966 0.0
H2785 H 0.89304 0.25423 0.52663 0.0
H2786 H 0.83234 0.09881 0.53859 0.0
H2787 H 0.84466 0.1056 0.51546 0.0
H2788 H 0.80112 0.10713 0.5551 0.0
H2789 H 0.80521 0.13755 0.56942 0.0
C2790 C 0.81864 0.67902 0.51636 0.0
C2791 C 0.84918 0.70563 0.51286 0.0
C2792 C 0.86737 0.69985 0.54384 0.0
C2793 C 0.83577 0.67531 0.54792 0.0
N2794 N 0.77953 0.64802 0.53961 0.0
N2795 N 0.9004 0.74557 0.52503 0.0
C2796 C 0.81085 0.66695 0.53465 0.0
C2797 C 0.87295 0.71733 0.52713 0.0
N2798 N 0.7975 0.66421 0.50209 0.0
N2799 N 0.89235 0.70566 0.55542 0.0
H2800 H 0.90502 0.75941 0.51324 0.0
H2801 H 0.91705 0.75665 0.5357 0.0
H2802 H 0.88952 0.69308 0.56756 0.0
H2803 H 0.91628 0.72103 0.5521 0.0
H2804 H 0.7762 0.64298 0.50371 0.0
H2805 H 0.80279 0.67118 0.48829 0.0
H2806 H 0.76029 0.64358 0.53093 0.0
H2807 H 0.77275 0.63964 0.55309 0.0
loop_
_geom_bond_atom_site_label_1
_geom_bond_atom_site_label_2
_geom_bond_distance
_geom_bond_site_symmetry_2
_ccdc_geom_bond_type
C0 C1 1.391 . S
C0 C4 1.391 . S
C0 H42 0.948 . S
C1 C0 1.391 . S
C1 C2 1.391 . S
C2 C1 1.391 . S
C2 H58 0.947 . S
C2 C59 1.392 . S
C3 C4 1.391 . S
C3 C7 1.397 . S
C3 C59 1.419 . S
C4 C0 1.391 . S
C4 C3 1.391 . S
C4 C5 1.399 . S
C5 C4 1.399 . S
C5 C8 1.396 . S
C5 C17 1.453 . S
C5 C18 1.684 . S
H6 C30 0.948 . S
C7 C3 1.397 . S
C7 C8 1.394 . S
C7 C26 1.723 . S
C8 C5 1.396 . S
C8 C7 1.394 . S
C8 C38 1.723 . S
H9 C32 0.947 . S
H10 C33 0.948 . S
H11 C39 0.982 . S
H12 C40 0.979 . S
H13 C40 0.980 . S
H14 C40 0.983 . S
H15 C39 0.979 . S
H16 C39 0.977 . S
C17 C5 1.453 . S
C17 H46 0.982 . S
C17 H47 0.979 . S
C17 H48 0.977 . S
C18 C5 1.684 . S
C18 H43 0.979 . S
C18 H44 0.980 . S
C18 H45 0.983 . S
C19 C20 1.391 . S
C19 C24 1.391 . S
C19 H49 0.948 . S
C20 C19 1.391 . S
C20 C21 1.391 . S
C21 C20 1.391 . S
C21 C22 1.392 . S
C21 H50 0.947 . S
C22 C21 1.392 . S
C22 C23 1.419 . S
C22 H51 0.948 . S
C23 C22 1.419 . S
C23 C24 1.391 . S
C23 C27 1.397 . S
C24 C19 1.391 . S
C24 C23 1.391 . S
C24 C25 1.399 . S
C25 C24 1.399 . S
C25 C26 1.396 . S
C25 C28 1.453 . S
C25 C29 1.684 . S
C26 C7 1.723 . S
C26 C25 1.396 . S
C26 C27 1.394 . S
C27 C23 1.397 . S
C27 C26 1.394 . S
C27 C37 1.723 . S
C28 C25 1.453 . S
C28 H52 0.982 . S
C28 H53 0.979 . S
C28 H54 0.977 . S
C29 C25 1.684 . S
C29 H55 0.979 . S
C29 H56 0.980 . S
C29 H57 0.983 . S
C30 H6 0.948 . S
C30 C31 1.391 . S
C30 C35 1.391 . S
C31 C30 1.391 . S
C31 C32 1.391 . S
C32 H9 0.947 . S
C32 C31 1.391 . S
C32 C33 1.392 . S
C33 H10 0.948 . S
C33 C32 1.392 . S
C33 C34 1.419 . S
C34 C33 1.419 . S
C34 C35 1.391 . S
C34 C38 1.397 . S
C35 C30 1.391 . S
C35 C34 1.391 . S
C35 C36 1.399 . S
C36 C35 1.399 . S
C36 C37 1.396 . S
C36 C39 1.453 . S
C36 C40 1.684 . S
C37 C27 1.723 . S
C37 C36 1.396 . S
C37 C38 1.394 . S
C38 C8 1.723 . S
C38 C34 1.397 . S
C38 C37 1.394 . S
C39 H11 0.982 . S
C39 H15 0.979 . S
C39 H16 0.977 . S
C39 C36 1.453 . S
C40 H12 0.979 . S
C40 H13 0.980 . S
C40 H14 0.983 . S
C40 C36 1.684 . S
H41 C59 0.948 . S
H42 C0 0.948 . S
H43 C18 0.979 . S
H44 C18 0.980 . S
H45 C18 0.983 . S
H46 C17 0.982 . S
H47 C17 0.979 . S
H48 C17 0.977 . S
H49 C19 0.948 . S
H50 C21 0.947 . S
H51 C22 0.948 . S
H52 C28 0.982 . S
H53 C28 0.979 . S
H54 C28 0.977 . S
H55 C29 0.979 . S
H56 C29 0.980 . S
H57 C29 0.983 . S
H58 C2 0.947 . S
C59 C2 1.392 . S
C59 C3 1.419 . S
C59 H41 0.948 . S
C60 C61 1.391 . S
C60 C64 1.391 . S
C60 H102 0.948 . S
C61 C60 1.391 . S
C61 C62 1.391 . S
C62 C61 1.391 . S
C62 H118 0.947 1_655 S
C62 C119 1.392 . S
C63 C64 1.391 . S
C63 C67 1.397 . S
C63 C119 1.419 . S
C64 C60 1.391 . S
C64 C63 1.391 . S
C64 C65 1.399 . S
C65 C64 1.399 . S
C65 C68 1.396 . S
C65 C77 1.453 . S
C65 C78 1.684 . S
H66 C90 0.948 . S
C67 C63 1.397 . S
C67 C68 1.394 . S
C67 C86 1.723 . S
C68 C65 1.396 . S
C68 C67 1.394 . S
C68 C98 1.723 . S
H69 C92 0.947 . S
H70 C93 0.948 . S
H71 C99 0.982 . S
H72 C100 0.979 . S
H73 C100 0.980 . S
H74 C100 0.983 . S
H75 C99 0.979 . S
H76 C99 0.977 . S
C77 C65 1.453 . S
C77 H106 0.982 . S
C77 H107 0.979 . S
C77 H108 0.977 . S
C78 C65 1.684 . S
C78 H103 0.979 . S
C78 H104 0.980 . S
C78 H105 0.983 . S
C79 C80 1.391 . S
C79 C84 1.391 . S
C79 H109 0.948 . S
C80 C79 1.391 . S
C80 C81 1.391 . S
C81 C80 1.391 . S
C81 C82 1.392 . S
C81 H110 0.947 . S
C82 C81 1.392 . S
C82 C83 1.419 . S
C82 H111 0.948 . S
C83 C82 1.419 . S
C83 C84 1.391 . S
C83 C87 1.397 . S
C84 C79 1.391 . S
C84 C83 1.391 . S
C84 C85 1.399 . S
C85 C84 1.399 . S
C85 C86 1.396 . S
C85 C88 1.453 . S
C85 C89 1.684 . S
C86 C67 1.723 . S
C86 C85 1.396 . S
C86 C87 1.394 . S
C87 C83 1.397 . S
C87 C86 1.394 . S
C87 C97 1.723 . S
C88 C85 1.453 . S
C88 H112 0.982 . S
C88 H113 0.979 . S
C88 H114 0.977 . S
C89 C85 1.684 . S
C89 H115 0.979 . S
C89 H116 0.980 . S
C89 H117 0.983 . S
C90 H66 0.948 . S
C90 C91 1.391 . S
C90 C95 1.391 . S
C91 C90 1.391 . S
C91 C92 1.391 . S
C92 H69 0.947 . S
C92 C91 1.391 . S
C92 C93 1.392 . S
C93 H70 0.948 . S
C93 C92 1.392 . S
C93 C94 1.419 . S
C94 C93 1.419 . S
C94 C95 1.391 . S
C94 C98 1.397 . S
C95 C90 1.391 . S
C95 C94 1.391 . S
C95 C96 1.399 . S
C96 C95 1.399 . S
C96 C97 1.396 . S
C96 C99 1.453 . S
C96 C100 1.684 . S
C97 C87 1.723 . S
C97 C96 1.396 . S
C97 C98 1.394 . S
C98 C68 1.723 . S
C98 C94 1.397 . S
C98 C97 1.394 . S
C99 H71 0.982 . S
C99 H75 0.979 . S
C99 H76 0.977 . S
C99 C96 1.453 . S
C100 H72 0.979 . S
C100 H73 0.980 . S
C100 H74 0.983 . S
C100 C96 1.684 . S
H101 C119 0.948 . S
H102 C60 0.948 . S
H103 C78 0.979 . S
H104 C78 0.980 . S
H105 C78 0.983 . S
H106 C77 0.982 . S
H107 C77 0.979 . S
H108 C77 0.977 . S
H109 C79 0.948 . S
H110 C81 0.947 . S
H111 C82 0.948 . S
H112 C88 0.982 . S
H113 C88 0.979 . S
H114 C88 0.977 . S
H115 C89 0.979 . S
H116 C89 0.980 . S
H117 C89 0.983 . S
H118 C62 0.947 1_455 S
C119 C62 1.392 . S
C119 C63 1.419 . S
C119 H101 0.948 . S
C120 C121 1.428 . S
C120 C124 1.391 . S
C120 H162 0.948 . S
C121 C120 1.428 . S
C121 C122 1.388 . S
C122 C121 1.388 . S
C122 H178 0.947 1_655 S
C122 C179 1.392 . S
C123 C124 1.391 . S
C123 C127 1.397 . S
C123 C179 1.419 . S
C124 C120 1.391 . S
C124 C123 1.391 . S
C124 C125 1.399 . S
C125 C124 1.399 . S
C125 C128 1.396 . S
C125 C137 1.453 . S
C125 C138 1.684 . S
H126 C150 0.948 . S
C127 C123 1.397 . S
C127 C128 1.394 . S
C127 C146 1.723 . S
C128 C125 1.396 . S
C128 C127 1.394 . S
C128 C158 1.723 . S
H129 C152 0.947 . S
H130 C153 0.948 . S
H131 C159 0.982 . S
H132 C160 0.979 . S
H133 C160 0.980 . S
H134 C160 0.983 . S
H135 C159 0.979 . S
H136 C159 0.977 . S
C137 C125 1.453 . S
C137 H166 0.982 . S
C137 H167 0.979 . S
C137 H168 0.977 . S
C138 C125 1.684 . S
C138 H163 0.979 . S
C138 H164 0.980 . S
C138 H165 0.983 . S
C139 C140 1.391 . S
C139 C144 1.391 . S
C139 H169 0.948 . S
C140 C139 1.391 . S
C140 C141 1.391 . S
C141 C140 1.391 . S
C141 C142 1.392 . S
C141 H170 0.947 . S
C142 C141 1.392 . S
C142 C143 1.419 . S
C142 H171 0.948 . S
C143 C142 1.419 . S
C143 C144 1.391 . S
C143 C147 1.397 . S
C144 C139 1.391 . S
C144 C143 1.391 . S
C144 C145 1.399 . S
C145 C144 1.399 . S
C145 C146 1.396 . S
C145 C148 1.453 . S
C145 C149 1.684 . S
C146 C127 1.723 . S
C146 C145 1.396 . S
C146 C147 1.394 . S
C147 C143 1.397 . S
C147 C146 1.394 . S
C147 C157 1.723 . S
C148 C145 1.453 . S
C148 H172 0.982 . S
C148 H173 0.979 . S
C148 H174 0.977 . S
C149 C145 1.684 . S
C149 H175 0.979 . S
C149 H176 0.980 . S
C149 H177 0.983 . S
C150 H126 0.948 . S
C150 C151 1.391 . S
C150 C155 1.391 . S
C151 C150 1.391 . S
C151 C152 1.391 . S
C152 H129 0.947 . S
C152 C151 1.391 . S
C152 C153 1.392 . S
C153 H130 0.948 . S
C153 C152 1.392 . S
C153 C154 1.419 . S
C154 C153 1.419 . S
C154 C155 1.391 . S
C154 C158 1.397 . S
C155 C150 1.391 . S
C155 C154 1.391 . S
C155 C156 1.399 . S
C156 C155 1.399 . S
C156 C157 1.396 . S
C156 C159 1.453 . S
C156 C160 1.684 . S
C157 C147 1.723 . S
C157 C156 1.396 . S
C157 C158 1.394 . S
C158 C128 1.723 . S
C158 C154 1.397 . S
C158 C157 1.394 . S
C159 H131 0.982 . S
C159 H135 0.979 . S
C159 H136 0.977 . S
C159 C156 1.453 . S
C160 H132 0.979 . S
C160 H133 0.980 . S
C160 H134 0.983 . S
C160 C156 1.684 . S
H161 C179 0.948 . S
H162 C120 0.948 . S
H163 C138 0.979 . S
H164 C138 0.980 . S
H165 C138 0.983 . S
H166 C137 0.982 . S
H167 C137 0.979 . S
H168 C137 0.977 . S
H169 C139 0.948 . S
H170 C141 0.947 . S
H171 C142 0.948 . S
H172 C148 0.982 . S
H173 C148 0.979 . S
H174 C148 0.977 . S
H175 C149 0.979 . S
H176 C149 0.980 . S
H177 C149 0.983 . S
H178 C122 0.947 1_455 S
C179 C122 1.392 . S
C179 C123 1.419 . S
C179 H161 0.948 . S
C180 C181 1.391 . S
C180 C184 1.391 . S
C180 H222 0.948 . S
C181 C180 1.391 . S
C181 C182 1.391 . S
C182 C181 1.391 . S
C182 H238 0.947 . S
C182 C239 1.392 . S
C183 C184 1.391 . S
C183 C187 1.397 . S
C183 C239 1.419 . S
C184 C180 1.391 . S
C184 C183 1.391 . S
C184 C185 1.399 . S
C185 C184 1.399 . S
C185 C188 1.396 . S
C185 C197 1.453 . S
C185 C198 1.684 . S
H186 C210 0.948 1_655 S
C187 C183 1.397 . S
C187 C188 1.394 . S
C187 C206 1.723 . S
C188 C185 1.396 . S
C188 C187 1.394 . S
C188 C218 1.723 . S
H189 C212 0.947 . S
H190 C213 0.948 . S
H191 C219 0.982 . S
H192 C220 0.979 . S
H193 C220 0.980 . S
H194 C220 0.983 . S
H195 C219 0.979 . S
H196 C219 0.977 . S
C197 C185 1.453 . S
C197 H226 0.982 . S
C197 H227 0.979 . S
C197 H228 0.977 . S
C198 C185 1.684 . S
C198 H223 0.979 . S
C198 H224 0.980 . S
C198 H225 0.983 . S
C199 C200 1.391 . S
C199 C204 1.391 . S
C199 H229 0.948 . S
C200 C199 1.391 . S
C200 C201 1.391 . S
C201 C200 1.391 . S
C201 C202 1.392 . S
C201 H230 0.947 . S
C202 C201 1.392 . S
C202 C203 1.419 . S
C202 H231 0.948 . S
C203 C202 1.419 . S
C203 C204 1.391 . S
C203 C207 1.397 . S
C204 C199 1.391 . S
C204 C203 1.391 . S
C204 C205 1.399 . S
C205 C204 1.399 . S
C205 C206 1.396 . S
C205 C208 1.453 . S
C205 C209 1.684 . S
C206 C187 1.723 . S
C206 C205 1.396 . S
C206 C207 1.394 . S
C207 C203 1.397 . S
C207 C206 1.394 . S
C207 C217 1.723 . S
C208 C205 1.453 . S
C208 H232 0.982 . S
C208 H233 0.979 . S
C208 H234 0.977 . S
C209 C205 1.684 . S
C209 H235 0.979 . S
C209 H236 0.980 . S
C209 H237 0.983 . S
C210 H186 0.948 1_455 S
C210 C211 1.391 . S
C210 C215 1.391 . S
C211 C210 1.391 . S
C211 C212 1.391 . S
C212 H189 0.947 . S
C212 C211 1.391 . S
C212 C213 1.392 . S
C213 H190 0.948 . S
C213 C212 1.392 . S
C213 C214 1.419 . S
C214 C213 1.419 . S
C214 C215 1.391 . S
C214 C218 1.397 . S
C215 C210 1.391 . S
C215 C214 1.391 . S
C215 C216 1.399 . S
C216 C215 1.399 . S
C216 C217 1.396 . S
C216 C219 1.453 . S
C216 C220 1.684 . S
C217 C207 1.723 . S
C217 C216 1.396 . S
C217 C218 1.394 . S
C218 C188 1.723 . S
C218 C214 1.397 . S
C218 C217 1.394 . S
C219 H191 0.982 . S
C219 H195 0.979 . S
C219 H196 0.977 . S
C219 C216 1.453 . S
C220 H192 0.979 . S
C220 H193 0.980 . S
C220 H194 0.983 . S
C220 C216 1.684 . S
H221 C239 0.948 . S
H222 C180 0.948 . S
H223 C198 0.979 . S
H224 C198 0.980 . S
H225 C198 0.983 . S
H226 C197 0.982 . S
H227 C197 0.979 . S
H228 C197 0.977 . S
H229 C199 0.948 . S
H230 C201 0.947 . S
H231 C202 0.948 . S
H232 C208 0.982 . S
H233 C208 0.979 . S
H234 C208 0.977 . S
H235 C209 0.979 . S
H236 C209 0.980 . S
H237 C209 0.983 . S
H238 C182 0.947 . S
C239 C182 1.392 . S
C239 C183 1.419 . S
C239 H221 0.948 . S
C240 C241 1.391 . S
C240 C244 1.391 . S
C240 H282 0.948 . S
C241 C240 1.391 . S
C241 C242 1.391 . S
C242 C241 1.391 . S
C242 H298 0.947 . S
C242 C299 1.392 . S
C243 C244 1.391 . S
C243 C247 1.397 . S
C243 C299 1.419 . S
C244 C240 1.391 . S
C244 C243 1.391 . S
C244 C245 1.399 . S
C245 C244 1.399 . S
C245 C248 1.396 . S
C245 C257 1.453 . S
C245 C258 1.684 . S
H246 C270 0.948 . S
C247 C243 1.397 . S
C247 C248 1.394 . S
C247 C266 1.723 . S
C248 C245 1.396 . S
C248 C247 1.394 . S
C248 C278 1.723 . S
H249 C272 0.947 . S
H250 C273 0.948 . S
H251 C279 0.982 . S
H252 C280 0.979 . S
H253 C280 0.980 . S
H254 C280 0.983 . S
H255 C279 0.979 . S
H256 C279 0.977 . S
C257 C245 1.453 . S
C257 H286 0.982 . S
C257 H287 0.979 . S
C257 H288 0.977 . S
C258 C245 1.684 . S
C258 H283 0.979 . S
C258 H284 0.980 . S
C258 H285 0.983 . S
C259 C260 1.391 . S
C259 C264 1.391 . S
C259 H289 0.948 . S
C260 C259 1.391 . S
C260 C261 1.391 . S
C261 C260 1.391 . S
C261 C262 1.392 . S
C261 H290 0.947 . S
C262 C261 1.392 . S
C262 C263 1.419 . S
C262 H291 0.948 . S
C263 C262 1.419 . S
C263 C264 1.391 . S
C263 C267 1.397 . S
C264 C259 1.391 . S
C264 C263 1.391 . S
C264 C265 1.399 . S
C265 C264 1.399 . S
C265 C266 1.396 . S
C265 C268 1.453 . S
C265 C269 1.684 . S
C266 C247 1.723 . S
C266 C265 1.396 . S
C266 C267 1.394 . S
C267 C263 1.397 . S
C267 C266 1.394 . S
C267 C277 1.723 . S
C268 C265 1.453 . S
C268 H292 0.982 . S
C268 H293 0.979 . S
C268 H294 0.977 . S
C269 C265 1.684 . S
C269 H295 0.979 . S
C269 H296 0.980 . S
C269 H297 0.983 . S
C270 H246 0.948 . S
C270 C271 1.391 . S
C270 C275 1.391 . S
C271 C270 1.391 . S
C271 C272 1.391 . S
C272 H249 0.947 . S
C272 C271 1.391 . S
C272 C273 1.392 . S
C273 H250 0.948 . S
C273 C272 1.392 . S
C273 C274 1.419 . S
C274 C273 1.419 . S
C274 C275 1.391 . S
C274 C278 1.397 . S
C275 C270 1.391 . S
C275 C274 1.391 . S
C275 C276 1.399 . S
C276 C275 1.399 . S
C276 C277 1.396 . S
C276 C279 1.453 . S
C276 C280 1.684 . S
C277 C267 1.723 . S
C277 C276 1.396 . S
C277 C278 1.394 . S
C278 C248 1.723 . S
C278 C274 1.397 . S
C278 C277 1.394 . S
C279 H251 0.982 . S
C279 H255 0.979 . S
C279 H256 0.977 . S
C279 C276 1.453 . S
C280 H252 0.979 . S
C280 H253 0.980 . S
C280 H254 0.983 . S
C280 C276 1.684 . S
H281 C299 0.948 . S
H282 C240 0.948 . S
H283 C258 0.979 . S
H284 C258 0.980 . S
H285 C258 0.983 . S
H286 C257 0.982 . S
H287 C257 0.979 . S
H288 C257 0.977 . S
H289 C259 0.948 . S
H290 C261 0.947 . S
H291 C262 0.948 . S
H292 C268 0.982 . S
H293 C268 0.979 . S
H294 C268 0.977 . S
H295 C269 0.979 . S
H296 C269 0.980 . S
H297 C269 0.983 . S
H298 C242 0.947 . S
C299 C242 1.392 . S
C299 C243 1.419 . S
C299 H281 0.948 . S
C300 C301 1.391 . S
C300 C304 1.391 . S
C300 H342 0.948 . S
C301 C300 1.391 . S
C301 C302 1.391 . S
C302 C301 1.391 . S
C302 H358 0.947 1_455 S
C302 C359 1.392 . S
C303 C304 1.391 . S
C303 C307 1.397 . S
C303 C359 1.419 . S
C304 C300 1.391 . S
C304 C303 1.391 . S
C304 C305 1.399 . S
C305 C304 1.399 . S
C305 C308 1.396 . S
C305 C317 1.453 . S
C305 C318 1.684 . S
H306 C330 0.948 . S
C307 C303 1.397 . S
C307 C308 1.394 . S
C307 C326 1.723 . S
C308 C305 1.396 . S
C308 C307 1.394 . S
C308 C338 1.723 . S
H309 C332 0.947 . S
H310 C333 0.948 . S
H311 C339 0.982 . S
H312 C340 0.979 . S
H313 C340 0.980 . S
H314 C340 0.983 . S
H315 C339 0.979 . S
H316 C339 0.977 . S
C317 C305 1.453 . S
C317 H346 0.982 . S
C317 H347 0.979 . S
C317 H348 0.977 . S
C318 C305 1.684 . S
C318 H343 0.979 . S
C318 H344 0.980 . S
C318 H345 0.983 . S
C319 C320 1.391 . S
C319 C324 1.391 . S
C319 H349 0.948 . S
C320 C319 1.391 . S
C320 C321 1.391 . S
C321 C320 1.391 . S
C321 C322 1.392 . S
C321 H350 0.947 . S
C322 C321 1.392 . S
C322 C323 1.419 . S
C322 H351 0.948 . S
C323 C322 1.419 . S
C323 C324 1.391 . S
C323 C327 1.397 . S
C324 C319 1.391 . S
C324 C323 1.391 . S
C324 C325 1.399 . S
C325 C324 1.399 . S
C325 C326 1.396 . S
C325 C328 1.453 . S
C325 C329 1.684 . S
C326 C307 1.723 . S
C326 C325 1.396 . S
C326 C327 1.394 . S
C327 C323 1.397 . S
C327 C326 1.394 . S
C327 C337 1.723 . S
C328 C325 1.453 . S
C328 H352 0.982 . S
C328 H353 0.979 . S
C328 H354 0.977 . S
C329 C325 1.684 . S
C329 H355 0.979 . S
C329 H356 0.980 . S
C329 H357 0.983 . S
C330 H306 0.948 . S
C330 C331 1.391 . S
C330 C335 1.391 . S
C331 C330 1.391 . S
C331 C332 1.391 . S
C332 H309 0.947 . S
C332 C331 1.391 . S
C332 C333 1.392 . S
C333 H310 0.948 . S
C333 C332 1.392 . S
C333 C334 1.419 . S
C334 C333 1.419 . S
C334 C335 1.391 . S
C334 C338 1.397 . S
C335 C330 1.391 . S
C335 C334 1.391 . S
C335 C336 1.399 . S
C336 C335 1.399 . S
C336 C337 1.396 . S
C336 C339 1.453 . S
C336 C340 1.684 . S
C337 C327 1.723 . S
C337 C336 1.396 . S
C337 C338 1.394 . S
C338 C308 1.723 . S
C338 C334 1.397 . S
C338 C337 1.394 . S
C339 H311 0.982 . S
C339 H315 0.979 . S
C339 H316 0.977 . S
C339 C336 1.453 . S
C340 H312 0.979 . S
C340 H313 0.980 . S
C340 H314 0.983 . S
C340 C336 1.684 . S
H341 C359 0.948 . S
H342 C300 0.948 . S
H343 C318 0.979 . S
H344 C318 0.980 . S
H345 C318 0.983 . S
H346 C317 0.982 . S
H347 C317 0.979 . S
H348 C317 0.977 . S
H349 C319 0.948 . S
H350 C321 0.947 . S
H351 C322 0.948 . S
H352 C328 0.982 . S
H353 C328 0.979 . S
H354 C328 0.977 . S
H355 C329 0.979 . S
H356 C329 0.980 . S
H357 C329 0.983 . S
H358 C302 0.947 1_655 S
C359 C302 1.392 . S
C359 C303 1.419 . S
C359 H341 0.948 . S
C360 C361 1.391 . S
C360 C364 1.391 . S
C360 H402 0.948 . S
C361 C360 1.391 . S
C361 C362 1.391 . S
C362 C361 1.391 . S
C362 H418 0.947 . S
C362 C419 1.392 . S
C363 C364 1.391 . S
C363 C367 1.397 . S
C363 C419 1.419 . S
C364 C360 1.391 . S
C364 C363 1.391 . S
C364 C365 1.399 . S
C365 C364 1.399 . S
C365 C368 1.396 . S
C365 C377 1.453 . S
C365 C378 1.684 . S
H366 C390 0.948 . S
C367 C363 1.397 . S
C367 C368 1.394 . S
C367 C386 1.723 . S
C368 C365 1.396 . S
C368 C367 1.394 . S
C368 C398 1.723 . S
H369 C392 0.947 . S
H370 C393 0.948 . S
H371 C399 0.982 . S
H372 C400 0.979 . S
H373 C400 0.980 . S
H374 C400 0.983 . S
H375 C399 0.979 . S
H376 C399 0.977 . S
C377 C365 1.453 . S
C377 H406 0.982 . S
C377 H407 0.979 . S
C377 H408 0.977 . S
C378 C365 1.684 . S
C378 H403 0.979 . S
C378 H404 0.980 . S
C378 H405 0.983 . S
C379 C380 1.391 . S
C379 C384 1.391 . S
C379 H409 0.948 . S
C380 C379 1.391 . S
C380 C381 1.391 . S
C381 C380 1.391 . S
C381 C382 1.392 . S
C381 H410 0.947 . S
C382 C381 1.392 . S
C382 C383 1.419 . S
C382 H411 0.948 . S
C383 C382 1.419 . S
C383 C384 1.391 . S
C383 C387 1.397 . S
C384 C379 1.391 . S
C384 C383 1.391 . S
C384 C385 1.399 . S
C385 C384 1.399 . S
C385 C386 1.396 . S
C385 C388 1.453 . S
C385 C389 1.684 . S
C386 C367 1.723 . S
C386 C385 1.396 . S
C386 C387 1.394 . S
C387 C383 1.397 . S
C387 C386 1.394 . S
C387 C397 1.723 . S
C388 C385 1.453 . S
C388 H412 0.982 . S
C388 H413 0.979 . S
C388 H414 0.977 . S
C389 C385 1.684 . S
C389 H415 0.979 . S
C389 H416 0.980 . S
C389 H417 0.983 . S
C390 H366 0.948 . S
C390 C391 1.391 . S
C390 C395 1.391 . S
C391 C390 1.391 . S
C391 C392 1.391 . S
C392 H369 0.947 . S
C392 C391 1.391 . S
C392 C393 1.392 . S
C393 H370 0.948 . S
C393 C392 1.392 . S
C393 C394 1.419 . S
C394 C393 1.419 . S
C394 C395 1.391 . S
C394 C398 1.397 . S
C395 C390 1.391 . S
C395 C394 1.391 . S
C395 C396 1.399 . S
C396 C395 1.399 . S
C396 C397 1.396 . S
C396 C399 1.453 . S
C396 C400 1.684 . S
C397 C387 1.723 . S
C397 C396 1.396 . S
C397 C398 1.394 . S
C398 C368 1.723 . S
C398 C394 1.397 . S
C398 C397 1.394 . S
C399 H371 0.982 . S
C399 H375 0.979 . S
C399 H376 0.977 . S
C399 C396 1.453 . S
C400 H372 0.979 . S
C400 H373 0.980 . S
C400 H374 0.983 . S
C400 C396 1.684 . S
H401 C419 0.948 . S
H402 C360 0.948 . S
H403 C378 0.979 . S
H404 C378 0.980 . S
H405 C378 0.983 . S
H406 C377 0.982 . S
H407 C377 0.979 . S
H408 C377 0.977 . S
H409 C379 0.948 . S
H410 C381 0.947 . S
H411 C382 0.948 . S
H412 C388 0.982 . S
H413 C388 0.979 . S
H414 C388 0.977 . S
H415 C389 0.979 . S
H416 C389 0.980 . S
H417 C389 0.983 . S
H418 C362 0.947 . S
C419 C362 1.392 . S
C419 C363 1.419 . S
C419 H401 0.948 . S
C420 C421 1.391 . S
C420 C424 1.391 . S
C420 H462 0.948 . S
C421 C420 1.391 . S
C421 C422 1.391 . S
C422 C421 1.391 . S
C422 H478 0.947 . S
C422 C479 1.392 . S
C423 C424 1.391 . S
C423 C427 1.397 . S
C423 C479 1.419 . S
C424 C420 1.391 . S
C424 C423 1.391 . S
C424 C425 1.399 . S
C425 C424 1.399 . S
C425 C428 1.396 . S
C425 C437 1.453 . S
C425 C438 1.684 . S
H426 C450 0.948 . S
C427 C423 1.397 . S
C427 C428 1.394 . S
C427 C446 1.723 . S
C428 C425 1.396 . S
C428 C427 1.394 . S
C428 C458 1.723 . S
H429 C452 0.947 . S
H430 C453 0.948 . S
H431 C459 0.982 . S
H432 C460 0.979 . S
H433 C460 0.980 . S
H434 C460 0.983 . S
H435 C459 0.979 . S
H436 C459 0.977 . S
C437 C425 1.453 . S
C437 H466 0.982 . S
C437 H467 0.979 . S
C437 H468 0.977 . S
C438 C425 1.684 . S
C438 H463 0.979 . S
C438 H464 0.980 . S
C438 H465 0.983 . S
C439 C440 1.391 . S
C439 C444 1.391 . S
C439 H469 0.948 . S
C440 C439 1.391 . S
C440 C441 1.391 . S
C441 C440 1.391 . S
C441 C442 1.392 . S
C441 H470 0.947 . S
C442 C441 1.392 . S
C442 C443 1.419 . S
C442 H471 0.948 . S
C443 C442 1.419 . S
C443 C444 1.391 . S
C443 C447 1.397 . S
C444 C439 1.391 . S
C444 C443 1.391 . S
C444 C445 1.399 . S
C445 C444 1.399 . S
C445 C446 1.396 . S
C445 C448 1.453 . S
C445 C449 1.684 . S
C446 C427 1.723 . S
C446 C445 1.396 . S
C446 C447 1.394 . S
C447 C443 1.397 . S
C447 C446 1.394 . S
C447 C457 1.723 . S
C448 C445 1.453 . S
C448 H472 0.982 . S
C448 H473 0.979 . S
C448 H474 0.977 . S
C449 C445 1.684 . S
C449 H475 0.979 . S
C449 H476 0.980 . S
C449 H477 0.983 . S
C450 H426 0.948 . S
C450 C451 1.391 . S
C450 C455 1.391 . S
C451 C450 1.391 . S
C451 C452 1.391 . S
C452 H429 0.947 . S
C452 C451 1.391 . S
C452 C453 1.392 . S
C453 H430 0.948 . S
C453 C452 1.392 . S
C453 C454 1.419 . S
C454 C453 1.419 . S
C454 C455 1.391 . S
C454 C458 1.397 . S
C455 C450 1.391 . S
C455 C454 1.391 . S
C455 C456 1.399 . S
C456 C455 1.399 . S
C456 C457 1.396 . S
C456 C459 1.453 . S
C456 C460 1.684 . S
C457 C447 1.723 . S
C457 C456 1.396 . S
C457 C458 1.394 . S
C458 C428 1.723 . S
C458 C454 1.397 . S
C458 C457 1.394 . S
C459 H431 0.982 . S
C459 H435 0.979 . S
C459 H436 0.977 . S
C459 C456 1.453 . S
C460 H432 0.979 . S
C460 H433 0.980 . S
C460 H434 0.983 . S
C460 C456 1.684 . S
H461 C479 0.948 . S
H462 C420 0.948 . S
H463 C438 0.979 . S
H464 C438 0.980 . S
H465 C438 0.983 . S
H466 C437 0.982 . S
H467 C437 0.979 . S
H468 C437 0.977 . S
H469 C439 0.948 . S
H470 C441 0.947 . S
H471 C442 0.948 . S
H472 C448 0.982 . S
H473 C448 0.979 . S
H474 C448 0.977 . S
H475 C449 0.979 . S
H476 C449 0.980 . S
H477 C449 0.983 . S
H478 C422 0.947 . S
C479 C422 1.392 . S
C479 C423 1.419 . S
C479 H461 0.948 . S
C480 C481 1.391 . S
C480 C484 1.391 . S
C480 H522 0.948 . S
C481 C480 1.391 . S
C481 C482 1.391 . S
C482 C481 1.391 . S
C482 H538 0.947 . S
C482 C539 1.392 . S
C483 C484 1.391 . S
C483 C487 1.397 . S
C483 C539 1.419 . S
C484 C480 1.391 . S
C484 C483 1.391 . S
C484 C485 1.399 . S
C485 C484 1.399 . S
C485 C488 1.396 . S
C485 C497 1.453 . S
C485 C498 1.684 . S
H486 C510 0.948 . S
C487 C483 1.397 . S
C487 C488 1.394 . S
C487 C506 1.723 . S
C488 C485 1.396 . S
C488 C487 1.394 . S
C488 C518 1.723 . S
H489 C512 0.947 . S
H490 C513 0.948 . S
H491 C519 0.982 . S
H492 C520 0.979 . S
H493 C520 0.980 . S
H494 C520 0.983 . S
H495 C519 0.979 . S
H496 C519 0.977 . S
C497 C485 1.453 . S
C497 H526 0.982 . S
C497 H527 0.979 . S
C497 H528 0.977 . S
C498 C485 1.684 . S
C498 H523 0.979 . S
C498 H524 0.980 . S
C498 H525 0.983 . S
C499 C500 1.391 . S
C499 C504 1.391 . S
C499 H529 0.948 . S
C500 C499 1.391 . S
C500 C501 1.391 . S
C501 C500 1.391 . S
C501 C502 1.392 . S
C501 H530 0.947 . S
C502 C501 1.392 . S
C502 C503 1.419 . S
C502 H531 0.948 . S
C503 C502 1.419 . S
C503 C504 1.391 . S
C503 C507 1.397 . S
C504 C499 1.391 . S
C504 C503 1.391 . S
C504 C505 1.399 . S
C505 C504 1.399 . S
C505 C506 1.396 . S
C505 C508 1.453 . S
C505 C509 1.684 . S
C506 C487 1.723 . S
C506 C505 1.396 . S
C506 C507 1.394 . S
C507 C503 1.397 . S
C507 C506 1.394 . S
C507 C517 1.723 . S
C508 C505 1.453 . S
C508 H532 0.982 . S
C508 H533 0.979 . S
C508 H534 0.977 . S
C509 C505 1.684 . S
C509 H535 0.979 . S
C509 H536 0.980 . S
C509 H537 0.983 . S
C510 H486 0.948 . S
C510 C511 1.391 . S
C510 C515 1.391 . S
C511 C510 1.391 . S
C511 C512 1.391 . S
C512 H489 0.947 . S
C512 C511 1.391 . S
C512 C513 1.392 . S
C513 H490 0.948 . S
C513 C512 1.392 . S
C513 C514 1.419 . S
C514 C513 1.419 . S
C514 C515 1.391 . S
C514 C518 1.397 . S
C515 C510 1.391 . S
C515 C514 1.391 . S
C515 C516 1.399 . S
C516 C515 1.399 . S
C516 C517 1.396 . S
C516 C519 1.453 . S
C516 C520 1.684 . S
C517 C507 1.723 . S
C517 C516 1.396 . S
C517 C518 1.394 . S
C518 C488 1.723 . S
C518 C514 1.397 . S
C518 C517 1.394 . S
C519 H491 0.982 . S
C519 H495 0.979 . S
C519 H496 0.977 . S
C519 C516 1.453 . S
C520 H492 0.979 . S
C520 H493 0.980 . S
C520 H494 0.983 . S
C520 C516 1.684 . S
H521 C539 0.948 . S
H522 C480 0.948 . S
H523 C498 0.979 . S
H524 C498 0.980 . S
H525 C498 0.983 . S
H526 C497 0.982 . S
H527 C497 0.979 . S
H528 C497 0.977 . S
H529 C499 0.948 . S
H530 C501 0.947 . S
H531 C502 0.948 . S
H532 C508 0.982 . S
H533 C508 0.979 . S
H534 C508 0.977 . S
H535 C509 0.979 . S
H536 C509 0.980 . S
H537 C509 0.983 . S
H538 C482 0.947 . S
C539 C482 1.392 . S
C539 C483 1.419 . S
C539 H521 0.948 . S
C540 C541 1.391 . S
C540 C544 1.391 . S
C540 H582 0.948 . S
C541 C540 1.391 . S
C541 C542 1.391 . S
C542 C541 1.391 . S
C542 H598 0.947 . S
C542 C599 1.392 . S
C543 C544 1.391 . S
C543 C547 1.397 . S
C543 C599 1.419 . S
C544 C540 1.391 . S
C544 C543 1.391 . S
C544 C545 1.399 . S
C545 C544 1.399 . S
C545 C548 1.396 . S
C545 C557 1.453 . S
C545 C558 1.684 . S
H546 C570 0.948 . S
C547 C543 1.397 . S
C547 C548 1.394 . S
C547 C566 1.723 . S
C548 C545 1.396 . S
C548 C547 1.394 . S
C548 C578 1.723 . S
H549 C572 0.947 . S
H550 C573 0.948 . S
H551 C579 0.982 . S
H552 C580 0.979 . S
H553 C580 0.980 . S
H554 C580 0.983 . S
H555 C579 0.979 . S
H556 C579 0.977 . S
C557 C545 1.453 . S
C557 H586 0.982 . S
C557 H587 0.979 . S
C557 H588 0.977 . S
C558 C545 1.684 . S
C558 H583 0.979 . S
C558 H584 0.980 . S
C558 H585 0.983 . S
C559 C560 1.391 . S
C559 C564 1.391 . S
C559 H589 0.948 . S
C560 C559 1.391 . S
C560 C561 1.391 . S
C561 C560 1.391 . S
C561 C562 1.392 . S
C561 H590 0.947 . S
C562 C561 1.392 . S
C562 C563 1.419 . S
C562 H591 0.948 . S
C563 C562 1.419 . S
C563 C564 1.391 . S
C563 C567 1.397 . S
C564 C559 1.391 . S
C564 C563 1.391 . S
C564 C565 1.399 . S
C565 C564 1.399 . S
C565 C566 1.396 . S
C565 C568 1.453 . S
C565 C569 1.684 . S
C566 C547 1.723 . S
C566 C565 1.396 . S
C566 C567 1.394 . S
C567 C563 1.397 . S
C567 C566 1.394 . S
C567 C577 1.723 . S
C568 C565 1.453 . S
C568 H592 0.982 . S
C568 H593 0.979 . S
C568 H594 0.977 . S
C569 C565 1.684 . S
C569 H595 0.979 . S
C569 H596 0.980 . S
C569 H597 0.983 . S
C570 H546 0.948 . S
C570 C571 1.391 . S
C570 C575 1.391 . S
C571 C570 1.391 . S
C571 C572 1.391 . S
C572 H549 0.947 . S
C572 C571 1.391 . S
C572 C573 1.392 . S
C573 H550 0.948 . S
C573 C572 1.392 . S
C573 C574 1.419 . S
C574 C573 1.419 . S
C574 C575 1.391 . S
C574 C578 1.397 . S
C575 C570 1.391 . S
C575 C574 1.391 . S
C575 C576 1.399 . S
C576 C575 1.399 . S
C576 C577 1.396 . S
C576 C579 1.453 . S
C576 C580 1.684 . S
C577 C567 1.723 . S
C577 C576 1.396 . S
C577 C578 1.394 . S
C578 C548 1.723 . S
C578 C574 1.397 . S
C578 C577 1.394 . S
C579 H551 0.982 . S
C579 H555 0.979 . S
C579 H556 0.977 . S
C579 C576 1.453 . S
C580 H552 0.979 . S
C580 H553 0.980 . S
C580 H554 0.983 . S
C580 C576 1.684 . S
H581 C599 0.948 . S
H582 C540 0.948 . S
H583 C558 0.979 . S
H584 C558 0.980 . S
H585 C558 0.983 . S
H586 C557 0.982 . S
H587 C557 0.979 . S
H588 C557 0.977 . S
H589 C559 0.948 . S
H590 C561 0.947 . S
H591 C562 0.948 . S
H592 C568 0.982 . S
H593 C568 0.979 . S
H594 C568 0.977 . S
H595 C569 0.979 . S
H596 C569 0.980 . S
H597 C569 0.983 . S
H598 C542 0.947 . S
C599 C542 1.392 . S
C599 C543 1.419 . S
C599 H581 0.948 . S
C600 C601 1.391 . S
C600 C604 1.391 . S
C600 H642 0.948 . S
C601 C600 1.391 . S
C601 C602 1.391 . S
C602 C601 1.391 . S
C602 H658 0.947 . S
C602 C659 1.392 . S
C603 C604 1.391 . S
C603 C607 1.397 . S
C603 C659 1.419 . S
C604 C600 1.391 . S
C604 C603 1.391 . S
C604 C605 1.399 . S
C605 C604 1.399 . S
C605 C608 1.396 . S
C605 C617 1.453 . S
C605 C618 1.684 . S
H606 C630 0.948 . S
C607 C603 1.397 . S
C607 C608 1.394 . S
C607 C626 1.723 . S
C608 C605 1.396 . S
C608 C607 1.394 . S
C608 C638 1.723 . S
H609 C632 0.947 . S
H610 C633 0.948 . S
H611 C639 0.982 . S
H612 C640 0.979 . S
H613 C640 0.980 . S
H614 C640 0.983 . S
H615 C639 0.979 . S
H616 C639 0.977 . S
C617 C605 1.453 . S
C617 H646 0.982 . S
C617 H647 0.979 . S
C617 H648 0.977 . S
C618 C605 1.684 . S
C618 H643 0.979 . S
C618 H644 0.980 . S
C618 H645 0.983 . S
C619 C620 1.391 . S
C619 C624 1.391 . S
C619 H649 0.948 . S
C620 C619 1.391 . S
C620 C621 1.391 . S
C621 C620 1.391 . S
C621 C622 1.392 . S
C621 H650 0.947 . S
C622 C621 1.392 . S
C622 C623 1.419 . S
C622 H651 0.948 . S
C623 C622 1.419 . S
C623 C624 1.391 . S
C623 C627 1.397 . S
C624 C619 1.391 . S
C624 C623 1.391 . S
C624 C625 1.399 . S
C625 C624 1.399 . S
C625 C626 1.396 . S
C625 C628 1.453 . S
C625 C629 1.684 . S
C626 C607 1.723 . S
C626 C625 1.396 . S
C626 C627 1.394 . S
C627 C623 1.397 . S
C627 C626 1.394 . S
C627 C637 1.723 . S
C628 C625 1.453 . S
C628 H652 0.982 . S
C628 H653 0.979 . S
C628 H654 0.977 . S
C629 C625 1.684 . S
C629 H655 0.979 . S
C629 H656 0.980 . S
C629 H657 0.983 . S
C630 H606 0.948 . S
C630 C631 1.391 . S
C630 C635 1.391 . S
C631 C630 1.391 . S
C631 C632 1.391 . S
C632 H609 0.947 . S
C632 C631 1.391 . S
C632 C633 1.392 . S
C633 H610 0.948 . S
C633 C632 1.392 . S
C633 C634 1.419 . S
C634 C633 1.419 . S
C634 C635 1.391 . S
C634 C638 1.397 . S
C635 C630 1.391 . S
C635 C634 1.391 . S
C635 C636 1.399 . S
C636 C635 1.399 . S
C636 C637 1.396 . S
C636 C639 1.453 . S
C636 C640 1.684 . S
C637 C627 1.723 . S
C637 C636 1.396 . S
C637 C638 1.394 . S
C638 C608 1.723 . S
C638 C634 1.397 . S
C638 C637 1.394 . S
C639 H611 0.982 . S
C639 H615 0.979 . S
C639 H616 0.977 . S
C639 C636 1.453 . S
C640 H612 0.979 . S
C640 H613 0.980 . S
C640 H614 0.983 . S
C640 C636 1.684 . S
H641 C659 0.948 . S
H642 C600 0.948 . S
H643 C618 0.979 . S
H644 C618 0.980 . S
H645 C618 0.983 . S
H646 C617 0.982 . S
H647 C617 0.979 . S
H648 C617 0.977 . S
H649 C619 0.948 . S
H650 C621 0.947 . S
H651 C622 0.948 . S
H652 C628 0.982 . S
H653 C628 0.979 . S
H654 C628 0.977 . S
H655 C629 0.979 . S
H656 C629 0.980 . S
H657 C629 0.983 . S
H658 C602 0.947 . S
C659 C602 1.392 . S
C659 C603 1.419 . S
C659 H641 0.948 . S
C660 C661 1.391 . S
C660 C664 1.391 . S
C660 H702 0.948 . S
C661 C660 1.391 . S
C661 C662 1.391 . S
C662 C661 1.391 . S
C662 H718 0.947 . S
C662 C719 1.392 . S
C663 C664 1.391 . S
C663 C667 1.397 . S
C663 C719 1.419 . S
C664 C660 1.391 . S
C664 C663 1.391 . S
C664 C665 1.399 . S
C665 C664 1.399 . S
C665 C668 1.396 . S
C665 C677 1.453 . S
C665 C678 1.684 . S
H666 C690 0.948 . S
C667 C663 1.397 . S
C667 C668 1.394 . S
C667 C686 1.723 . S
C668 C665 1.396 . S
C668 C667 1.394 . S
C668 C698 1.723 . S
H669 C692 0.947 . S
H670 C693 0.948 . S
H671 C699 0.982 . S
H672 C700 0.979 . S
H673 C700 0.980 . S
H674 C700 0.983 . S
H675 C699 0.979 . S
H676 C699 0.977 . S
C677 C665 1.453 . S
C677 H706 0.982 . S
C677 H707 0.979 . S
C677 H708 0.977 . S
C678 C665 1.684 . S
C678 H703 0.979 . S
C678 H704 0.980 . S
C678 H705 0.983 . S
C679 C680 1.391 . S
C679 C684 1.391 . S
C679 H709 0.948 . S
C680 C679 1.391 . S
C680 C681 1.391 . S
C681 C680 1.391 . S
C681 C682 1.392 . S
C681 H710 0.947 . S
C682 C681 1.392 . S
C682 C683 1.419 . S
C682 H711 0.948 . S
C683 C682 1.419 . S
C683 C684 1.391 . S
C683 C687 1.397 . S
C684 C679 1.391 . S
C684 C683 1.391 . S
C684 C685 1.399 . S
C685 C684 1.399 . S
C685 C686 1.396 . S
C685 C688 1.453 . S
C685 C689 1.684 . S
C686 C667 1.723 . S
C686 C685 1.396 . S
C686 C687 1.394 . S
C687 C683 1.397 . S
C687 C686 1.394 . S
C687 C697 1.723 . S
C688 C685 1.453 . S
C688 H712 0.982 . S
C688 H713 0.979 . S
C688 H714 0.977 . S
C689 C685 1.684 . S
C689 H715 0.979 . S
C689 H716 0.980 . S
C689 H717 0.983 . S
C690 H666 0.948 . S
C690 C691 1.391 . S
C690 C695 1.391 . S
C691 C690 1.391 . S
C691 C692 1.391 . S
C692 H669 0.947 . S
C692 C691 1.391 . S
C692 C693 1.392 . S
C693 H670 0.948 . S
C693 C692 1.392 . S
C693 C694 1.419 . S
C694 C693 1.419 . S
C694 C695 1.391 . S
C694 C698 1.397 . S
C695 C690 1.391 . S
C695 C694 1.391 . S
C695 C696 1.399 . S
C696 C695 1.399 . S
C696 C697 1.396 . S
C696 C699 1.453 . S
C696 C700 1.684 . S
C697 C687 1.723 . S
C697 C696 1.396 . S
C697 C698 1.394 . S
C698 C668 1.723 . S
C698 C694 1.397 . S
C698 C697 1.394 . S
C699 H671 0.982 . S
C699 H675 0.979 . S
C699 H676 0.977 . S
C699 C696 1.453 . S
C700 H672 0.979 . S
C700 H673 0.980 . S
C700 H674 0.983 . S
C700 C696 1.684 . S
H701 C719 0.948 . S
H702 C660 0.948 . S
H703 C678 0.979 . S
H704 C678 0.980 . S
H705 C678 0.983 . S
H706 C677 0.982 . S
H707 C677 0.979 . S
H708 C677 0.977 . S
H709 C679 0.948 . S
H710 C681 0.947 . S
H711 C682 0.948 . S
H712 C688 0.982 . S
H713 C688 0.979 . S
H714 C688 0.977 . S
H715 C689 0.979 . S
H716 C689 0.980 . S
H717 C689 0.983 . S
H718 C662 0.947 . S
C719 C662 1.392 . S
C719 C663 1.419 . S
C719 H701 0.948 . S
C720 C721 1.391 . S
C720 C724 1.391 . S
C720 H762 0.948 . S
C721 C720 1.391 . S
C721 C722 1.391 . S
C722 C721 1.391 . S
C722 H778 0.947 . S
C722 C779 1.392 . S
C723 C724 1.391 . S
C723 C727 1.397 . S
C723 C779 1.419 . S
C724 C720 1.391 . S
C724 C723 1.391 . S
C724 C725 1.399 . S
C725 C724 1.399 . S
C725 C728 1.396 . S
C725 C737 1.453 . S
C725 C738 1.684 . S
H726 C750 0.948 . S
C727 C723 1.397 . S
C727 C728 1.394 . S
C727 C746 1.723 . S
C728 C725 1.396 . S
C728 C727 1.394 . S
C728 C758 1.723 . S
H729 C752 0.947 . S
H730 C753 0.948 . S
H731 C759 0.982 . S
H732 C760 0.979 . S
H733 C760 0.980 . S
H734 C760 0.983 . S
H735 C759 0.979 . S
H736 C759 0.977 . S
C737 C725 1.453 . S
C737 H766 0.982 . S
C737 H767 0.979 . S
C737 H768 0.977 . S
C738 C725 1.684 . S
C738 H763 0.979 . S
C738 H764 0.980 . S
C738 H765 0.983 . S
C739 C740 1.391 . S
C739 C744 1.391 . S
C739 H769 0.948 . S
C740 C739 1.391 . S
C740 C741 1.391 . S
C741 C740 1.391 . S
C741 C742 1.392 . S
C741 H770 0.947 . S
C742 C741 1.392 . S
C742 C743 1.419 . S
C742 H771 0.948 . S
C743 C742 1.419 . S
C743 C744 1.391 . S
C743 C747 1.397 . S
C744 C739 1.391 . S
C744 C743 1.391 . S
C744 C745 1.399 . S
C745 C744 1.399 . S
C745 C746 1.396 . S
C745 C748 1.453 . S
C745 C749 1.684 . S
C746 C727 1.723 . S
C746 C745 1.396 . S
C746 C747 1.394 . S
C747 C743 1.397 . S
C747 C746 1.394 . S
C747 C757 1.723 . S
C748 C745 1.453 . S
C748 H772 0.982 . S
C748 H773 0.979 . S
C748 H774 0.977 . S
C749 C745 1.684 . S
C749 H775 0.979 . S
C749 H776 0.980 . S
C749 H777 0.983 . S
C750 H726 0.948 . S
C750 C751 1.391 . S
C750 C755 1.391 . S
C751 C750 1.391 . S
C751 C752 1.391 . S
C752 H729 0.947 . S
C752 C751 1.391 . S
C752 C753 1.392 . S
C753 H730 0.948 . S
C753 C752 1.392 . S
C753 C754 1.419 . S
C754 C753 1.419 . S
C754 C755 1.391 . S
C754 C758 1.397 . S
C755 C750 1.391 . S
C755 C754 1.391 . S
C755 C756 1.399 . S
C756 C755 1.399 . S
C756 C757 1.396 . S
C756 C759 1.453 . S
C756 C760 1.684 . S
C757 C747 1.723 . S
C757 C756 1.396 . S
C757 C758 1.394 . S
C758 C728 1.723 . S
C758 C754 1.397 . S
C758 C757 1.394 . S
C759 H731 0.982 . S
C759 H735 0.979 . S
C759 H736 0.977 . S
C759 C756 1.453 . S
C760 H732 0.979 . S
C760 H733 0.980 . S
C760 H734 0.983 . S
C760 C756 1.684 . S
H761 C779 0.948 . S
H762 C720 0.948 . S
H763 C738 0.979 . S
H764 C738 0.980 . S
H765 C738 0.983 . S
H766 C737 0.982 . S
H767 C737 0.979 . S
H768 C737 0.977 . S
H769 C739 0.948 . S
H770 C741 0.947 . S
H771 C742 0.948 . S
H772 C748 0.982 . S
H773 C748 0.979 . S
H774 C748 0.977 . S
H775 C749 0.979 . S
H776 C749 0.980 . S
H777 C749 0.983 . S
H778 C722 0.947 . S
C779 C722 1.392 . S
C779 C723 1.419 . S
C779 H761 0.948 . S
C780 C781 1.391 . S
C780 C784 1.391 . S
C780 H822 0.948 . S
C781 C780 1.391 . S
C781 C782 1.391 . S
C782 C781 1.391 . S
C782 H838 0.947 . S
C782 C839 1.392 . S
C783 C784 1.391 . S
C783 C787 1.397 . S
C783 C839 1.419 . S
C784 C780 1.391 . S
C784 C783 1.391 . S
C784 C785 1.399 . S
C785 C784 1.399 . S
C785 C788 1.396 . S
C785 C797 1.453 . S
C785 C798 1.684 . S
H786 C810 0.948 . S
C787 C783 1.397 . S
C787 C788 1.394 . S
C787 C806 1.723 . S
C788 C785 1.396 . S
C788 C787 1.394 . S
C788 C818 1.723 . S
H789 C812 0.947 . S
H790 C813 0.948 . S
H791 C819 0.982 . S
H792 C820 0.979 . S
H793 C820 0.980 . S
H794 C820 0.983 . S
H795 C819 0.979 . S
H796 C819 0.977 . S
C797 C785 1.453 . S
C797 H826 0.982 . S
C797 H827 0.979 . S
C797 H828 0.977 . S
C798 C785 1.684 . S
C798 H823 0.979 . S
C798 H824 0.980 . S
C798 H825 0.983 . S
C799 C800 1.391 . S
C799 C804 1.391 . S
C799 H829 0.948 . S
C800 C799 1.391 . S
C800 C801 1.391 . S
C801 C800 1.391 . S
C801 C802 1.392 . S
C801 H830 0.947 . S
C802 C801 1.392 . S
C802 C803 1.419 . S
C802 H831 0.948 . S
C803 C802 1.419 . S
C803 C804 1.391 . S
C803 C807 1.397 . S
C804 C799 1.391 . S
C804 C803 1.391 . S
C804 C805 1.399 . S
C805 C804 1.399 . S
C805 C806 1.396 . S
C805 C808 1.453 . S
C805 C809 1.684 . S
C806 C787 1.723 . S
C806 C805 1.396 . S
C806 C807 1.394 . S
C807 C803 1.397 . S
C807 C806 1.394 . S
C807 C817 1.723 . S
C808 C805 1.453 . S
C808 H832 0.982 . S
C808 H833 0.979 . S
C808 H834 0.977 . S
C809 C805 1.684 . S
C809 H835 0.979 . S
C809 H836 0.980 . S
C809 H837 0.983 . S
C810 H786 0.948 . S
C810 C811 1.391 . S
C810 C815 1.391 . S
C811 C810 1.391 . S
C811 C812 1.391 . S
C812 H789 0.947 . S
C812 C811 1.391 . S
C812 C813 1.392 . S
C813 H790 0.948 . S
C813 C812 1.392 . S
C813 C814 1.419 . S
C814 C813 1.419 . S
C814 C815 1.391 . S
C814 C818 1.397 . S
C815 C810 1.391 . S
C815 C814 1.391 . S
C815 C816 1.399 . S
C816 C815 1.399 . S
C816 C817 1.396 . S
C816 C819 1.453 . S
C816 C820 1.684 . S
C817 C807 1.723 . S
C817 C816 1.396 . S
C817 C818 1.394 . S
C818 C788 1.723 . S
C818 C814 1.397 . S
C818 C817 1.394 . S
C819 H791 0.982 . S
C819 H795 0.979 . S
C819 H796 0.977 . S
C819 C816 1.453 . S
C820 H792 0.979 . S
C820 H793 0.980 . S
C820 H794 0.983 . S
C820 C816 1.684 . S
H821 C839 0.948 . S
H822 C780 0.948 . S
H823 C798 0.979 . S
H824 C798 0.980 . S
H825 C798 0.983 . S
H826 C797 0.982 . S
H827 C797 0.979 . S
H828 C797 0.977 . S
H829 C799 0.948 . S
H830 C801 0.947 . S
H831 C802 0.948 . S
H832 C808 0.982 . S
H833 C808 0.979 . S
H834 C808 0.977 . S
H835 C809 0.979 . S
H836 C809 0.980 . S
H837 C809 0.983 . S
H838 C782 0.947 . S
C839 C782 1.392 . S
C839 C783 1.419 . S
C839 H821 0.948 . S
C840 C841 1.391 . S
C840 C844 1.391 . S
C840 H882 0.948 . S
C841 C840 1.391 . S
C841 C842 1.391 . S
C842 C841 1.391 . S
C842 H898 0.947 . S
C842 C899 1.392 . S
C843 C844 1.391 . S
C843 C847 1.397 . S
C843 C899 1.419 . S
C844 C840 1.391 . S
C844 C843 1.391 . S
C844 C845 1.399 . S
C845 C844 1.399 . S
C845 C848 1.396 . S
C845 C857 1.453 . S
C845 C858 1.684 . S
H846 C870 0.948 . S
C847 C843 1.397 . S
C847 C848 1.394 . S
C847 C866 1.723 . S
C848 C845 1.396 . S
C848 C847 1.394 . S
C848 C878 1.723 . S
H849 C872 0.947 . S
H850 C873 0.948 . S
H851 C879 0.982 . S
H852 C880 0.979 . S
H853 C880 0.980 . S
H854 C880 0.983 . S
H855 C879 0.979 . S
H856 C879 0.977 . S
C857 C845 1.453 . S
C857 H886 0.982 . S
C857 H887 0.979 . S
C857 H888 0.977 . S
C858 C845 1.684 . S
C858 H883 0.979 . S
C858 H884 0.980 . S
C858 H885 0.983 . S
C859 C860 1.391 . S
C859 C864 1.391 . S
C859 H889 0.948 . S
C860 C859 1.391 . S
C860 C861 1.391 . S
C861 C860 1.391 . S
C861 C862 1.392 . S
C861 H890 0.947 . S
C862 C861 1.392 . S
C862 C863 1.419 . S
C862 H891 0.948 . S
C863 C862 1.419 . S
C863 C864 1.391 . S
C863 C867 1.397 . S
C864 C859 1.391 . S
C864 C863 1.391 . S
C864 C865 1.399 . S
C865 C864 1.399 . S
C865 C866 1.396 . S
C865 C868 1.453 . S
C865 C869 1.684 . S
C866 C847 1.723 . S
C866 C865 1.396 . S
C866 C867 1.394 . S
C867 C863 1.397 . S
C867 C866 1.394 . S
C867 C877 1.723 . S
C868 C865 1.453 . S
C868 H892 0.982 . S
C868 H893 0.979 . S
C868 H894 0.977 . S
C869 C865 1.684 . S
C869 H895 0.979 . S
C869 H896 0.980 . S
C869 H897 0.983 . S
C870 H846 0.948 . S
C870 C871 1.391 . S
C870 C875 1.391 . S
C871 C870 1.391 . S
C871 C872 1.391 . S
C872 H849 0.947 . S
C872 C871 1.391 . S
C872 C873 1.392 . S
C873 H850 0.948 . S
C873 C872 1.392 . S
C873 C874 1.419 . S
C874 C873 1.419 . S
C874 C875 1.391 . S
C874 C878 1.397 . S
C875 C870 1.391 . S
C875 C874 1.391 . S
C875 C876 1.399 . S
C876 C875 1.399 . S
C876 C877 1.396 . S
C876 C879 1.453 . S
C876 C880 1.684 . S
C877 C867 1.723 . S
C877 C876 1.396 . S
C877 C878 1.394 . S
C878 C848 1.723 . S
C878 C874 1.397 . S
C878 C877 1.394 . S
C879 H851 0.982 . S
C879 H855 0.979 . S
C879 H856 0.977 . S
C879 C876 1.453 . S
C880 H852 0.979 . S
C880 H853 0.980 . S
C880 H854 0.983 . S
C880 C876 1.684 . S
H881 C899 0.948 . S
H882 C840 0.948 . S
H883 C858 0.979 . S
H884 C858 0.980 . S
H885 C858 0.983 . S
H886 C857 0.982 . S
H887 C857 0.979 . S
H888 C857 0.977 . S
H889 C859 0.948 . S
H890 C861 0.947 . S
H891 C862 0.948 . S
H892 C868 0.982 . S
H893 C868 0.979 . S
H894 C868 0.977 . S
H895 C869 0.979 . S
H896 C869 0.980 . S
H897 C869 0.983 . S
H898 C842 0.947 . S
C899 C842 1.392 . S
C899 C843 1.419 . S
C899 H881 0.948 . S
C900 C901 1.391 . S
C900 C904 1.391 . S
C900 H942 0.948 . S
C901 C900 1.391 . S
C901 C902 1.391 . S
C902 C901 1.391 . S
C902 H958 0.947 . S
C902 C959 1.392 . S
C903 C904 1.391 . S
C903 C907 1.397 . S
C903 C959 1.419 . S
C904 C900 1.391 . S
C904 C903 1.391 . S
C904 C905 1.399 . S
C905 C904 1.399 . S
C905 C908 1.396 . S
C905 C917 1.453 . S
C905 C918 1.684 . S
H906 C930 0.948 . S
C907 C903 1.397 . S
C907 C908 1.394 . S
C907 C926 1.723 . S
C908 C905 1.396 . S
C908 C907 1.394 . S
C908 C938 1.723 . S
H909 C932 0.947 . S
H910 C933 0.948 . S
H911 C939 0.982 . S
H912 C940 0.979 . S
H913 C940 0.980 . S
H914 C940 0.983 . S
H915 C939 0.979 . S
H916 C939 0.977 . S
C917 C905 1.453 . S
C917 H946 0.982 . S
C917 H947 0.979 . S
C917 H948 0.977 . S
C918 C905 1.684 . S
C918 H943 0.979 . S
C918 H944 0.980 . S
C918 H945 0.983 . S
C919 C920 1.391 . S
C919 C924 1.391 . S
C919 H949 0.948 . S
C920 C919 1.391 . S
C920 C921 1.391 . S
C921 C920 1.391 . S
C921 C922 1.392 . S
C921 H950 0.947 . S
C922 C921 1.392 . S
C922 C923 1.419 . S
C922 H951 0.948 . S
C923 C922 1.419 . S
C923 C924 1.391 . S
C923 C927 1.397 . S
C924 C919 1.391 . S
C924 C923 1.391 . S
C924 C925 1.399 . S
C925 C924 1.399 . S
C925 C926 1.396 . S
C925 C928 1.453 . S
C925 C929 1.684 . S
C926 C907 1.723 . S
C926 C925 1.396 . S
C926 C927 1.394 . S
C927 C923 1.397 . S
C927 C926 1.394 . S
C927 C937 1.723 . S
C928 C925 1.453 . S
C928 H952 0.982 . S
C928 H953 0.979 . S
C928 H954 0.977 . S
C929 C925 1.684 . S
C929 H955 0.979 . S
C929 H956 0.980 . S
C929 H957 0.983 . S
C930 H906 0.948 . S
C930 C931 1.391 . S
C930 C935 1.391 . S
C931 C930 1.391 . S
C931 C932 1.391 . S
C932 H909 0.947 . S
C932 C931 1.391 . S
C932 C933 1.392 . S
C933 H910 0.948 . S
C933 C932 1.392 . S
C933 C934 1.419 . S
C934 C933 1.419 . S
C934 C935 1.391 . S
C934 C938 1.397 . S
C935 C930 1.391 . S
C935 C934 1.391 . S
C935 C936 1.399 . S
C936 C935 1.399 . S
C936 C937 1.396 . S
C936 C939 1.453 . S
C936 C940 1.684 . S
C937 C927 1.723 . S
C937 C936 1.396 . S
C937 C938 1.394 . S
C938 C908 1.723 . S
C938 C934 1.397 . S
C938 C937 1.394 . S
C939 H911 0.982 . S
C939 H915 0.979 . S
C939 H916 0.977 . S
C939 C936 1.453 . S
C940 H912 0.979 . S
C940 H913 0.980 . S
C940 H914 0.983 . S
C940 C936 1.684 . S
H941 C959 0.948 . S
H942 C900 0.948 . S
H943 C918 0.979 . S
H944 C918 0.980 . S
H945 C918 0.983 . S
H946 C917 0.982 . S
H947 C917 0.979 . S
H948 C917 0.977 . S
H949 C919 0.948 . S
H950 C921 0.947 . S
H951 C922 0.948 . S
H952 C928 0.982 . S
H953 C928 0.979 . S
H954 C928 0.977 . S
H955 C929 0.979 . S
H956 C929 0.980 . S
H957 C929 0.983 . S
H958 C902 0.947 . S
C959 C902 1.392 . S
C959 C903 1.419 . S
C959 H941 0.948 . S
C960 C961 1.391 . S
C960 C964 1.391 . S
C960 H1002 0.948 . S
C961 C960 1.391 . S
C961 C962 1.391 . S
C962 C961 1.391 . S
C962 H1018 0.947 . S
C962 C1019 1.392 . S
C963 C964 1.391 . S
C963 C967 1.397 . S
C963 C1019 1.419 . S
C964 C960 1.391 . S
C964 C963 1.391 . S
C964 C965 1.399 . S
C965 C964 1.399 . S
C965 C968 1.396 . S
C965 C977 1.453 . S
C965 C978 1.684 . S
H966 C990 0.948 . S
C967 C963 1.397 . S
C967 C968 1.394 . S
C967 C986 1.723 . S
C968 C965 1.396 . S
C968 C967 1.394 . S
C968 C998 1.723 . S
H969 C992 0.947 . S
H970 C993 0.948 . S
H971 C999 0.982 . S
H972 C1000 0.979 . S
H973 C1000 0.980 . S
H974 C1000 0.983 . S
H975 C999 0.979 . S
H976 C999 0.977 . S
C977 C965 1.453 . S
C977 H1006 0.982 . S
C977 H1007 0.979 . S
C977 H1008 0.977 . S
C978 C965 1.684 . S
C978 H1003 0.979 . S
C978 H1004 0.980 . S
C978 H1005 0.983 . S
C979 C980 1.391 . S
C979 C984 1.391 . S
C979 H1009 0.948 . S
C980 C979 1.391 . S
C980 C981 1.391 . S
C981 C980 1.391 . S
C981 C982 1.392 . S
C981 H1010 0.947 . S
C982 C981 1.392 . S
C982 C983 1.419 . S
C982 H1011 0.948 . S
C983 C982 1.419 . S
C983 C984 1.391 . S
C983 C987 1.397 . S
C984 C979 1.391 . S
C984 C983 1.391 . S
C984 C985 1.399 . S
C985 C984 1.399 . S
C985 C986 1.396 . S
C985 C988 1.453 . S
C985 C989 1.684 . S
C986 C967 1.723 . S
C986 C985 1.396 . S
C986 C987 1.394 . S
C987 C983 1.397 . S
C987 C986 1.394 . S
C987 C997 1.723 . S
C988 C985 1.453 . S
C988 H1012 0.982 . S
C988 H1013 0.979 . S
C988 H1014 0.977 . S
C989 C985 1.684 . S
C989 H1015 0.979 . S
C989 H1016 0.980 . S
C989 H1017 0.983 . S
C990 H966 0.948 . S
C990 C991 1.391 . S
C990 C995 1.391 . S
C991 C990 1.391 . S
C991 C992 1.391 . S
C992 H969 0.947 . S
C992 C991 1.391 . S
C992 C993 1.392 . S
C993 H970 0.948 . S
C993 C992 1.392 . S
C993 C994 1.419 . S
C994 C993 1.419 . S
C994 C995 1.391 . S
C994 C998 1.397 . S
C995 C990 1.391 . S
C995 C994 1.391 . S
C995 C996 1.399 . S
C996 C995 1.399 . S
C996 C997 1.396 . S
C996 C999 1.453 . S
C996 C1000 1.684 . S
C997 C987 1.723 . S
C997 C996 1.396 . S
C997 C998 1.394 . S
C998 C968 1.723 . S
C998 C994 1.397 . S
C998 C997 1.394 . S
C999 H971 0.982 . S
C999 H975 0.979 . S
C999 H976 0.977 . S
C999 C996 1.453 . S
C1000 H972 0.979 . S
C1000 H973 0.980 . S
C1000 H974 0.983 . S
C1000 C996 1.684 . S
H1001 C1019 0.948 . S
H1002 C960 0.948 . S
H1003 C978 0.979 . S
H1004 C978 0.980 . S
H1005 C978 0.983 . S
H1006 C977 0.982 . S
H1007 C977 0.979 . S
H1008 C977 0.977 . S
H1009 C979 0.948 . S
H1010 C981 0.947 . S
H1011 C982 0.948 . S
H1012 C988 0.982 . S
H1013 C988 0.979 . S
H1014 C988 0.977 . S
H1015 C989 0.979 . S
H1016 C989 0.980 . S
H1017 C989 0.983 . S
H1018 C962 0.947 . S
C1019 C962 1.392 . S
C1019 C963 1.419 . S
C1019 H1001 0.948 . S
C1020 C1021 1.391 . S
C1020 C1024 1.391 . S
C1020 H1062 0.948 . S
C1021 C1020 1.391 . S
C1021 C1022 1.391 . S
C1022 C1021 1.391 . S
C1022 H1078 0.947 . S
C1022 C1079 1.392 . S
C1023 C1024 1.391 . S
C1023 C1027 1.397 . S
C1023 C1079 1.419 . S
C1024 C1020 1.391 . S
C1024 C1023 1.391 . S
C1024 C1025 1.399 . S
C1025 C1024 1.399 . S
C1025 C1028 1.396 . S
C1025 C1037 1.453 . S
C1025 C1038 1.684 . S
H1026 C1050 0.948 . S
C1027 C1023 1.397 . S
C1027 C1028 1.394 . S
C1027 C1046 1.723 . S
C1028 C1025 1.396 . S
C1028 C1027 1.394 . S
C1028 C1058 1.723 . S
H1029 C1052 0.947 . S
H1030 C1053 0.948 . S
H1031 C1059 0.982 . S
H1032 C1060 0.979 . S
H1033 C1060 0.980 . S
H1034 C1060 0.983 . S
H1035 C1059 0.979 . S
H1036 C1059 0.977 . S
C1037 C1025 1.453 . S
C1037 H1066 0.982 . S
C1037 H1067 0.979 . S
C1037 H1068 0.977 . S
C1038 C1025 1.684 . S
C1038 H1063 0.979 . S
C1038 H1064 0.980 . S
C1038 H1065 0.983 . S
C1039 C1040 1.391 . S
C1039 C1044 1.391 . S
C1039 H1069 0.948 . S
C1040 C1039 1.391 . S
C1040 C1041 1.391 . S
C1041 C1040 1.391 . S
C1041 C1042 1.392 . S
C1041 H1070 0.947 . S
C1042 C1041 1.392 . S
C1042 C1043 1.419 . S
C1042 H1071 0.948 . S
C1043 C1042 1.419 . S
C1043 C1044 1.391 . S
C1043 C1047 1.397 . S
C1044 C1039 1.391 . S
C1044 C1043 1.391 . S
C1044 C1045 1.399 . S
C1045 C1044 1.399 . S
C1045 C1046 1.396 . S
C1045 C1048 1.453 . S
C1045 C1049 1.684 . S
C1046 C1027 1.723 . S
C1046 C1045 1.396 . S
C1046 C1047 1.394 . S
C1047 C1043 1.397 . S
C1047 C1046 1.394 . S
C1047 C1057 1.723 . S
C1048 C1045 1.453 . S
C1048 H1072 0.982 . S
C1048 H1073 0.979 . S
C1048 H1074 0.977 . S
C1049 C1045 1.684 . S
C1049 H1075 0.979 . S
C1049 H1076 0.980 . S
C1049 H1077 0.983 . S
C1050 H1026 0.948 . S
C1050 C1051 1.391 . S
C1050 C1055 1.391 . S
C1051 C1050 1.391 . S
C1051 C1052 1.391 . S
C1052 H1029 0.947 . S
C1052 C1051 1.391 . S
C1052 C1053 1.392 . S
C1053 H1030 0.948 . S
C1053 C1052 1.392 . S
C1053 C1054 1.419 . S
C1054 C1053 1.419 . S
C1054 C1055 1.391 . S
C1054 C1058 1.397 . S
C1055 C1050 1.391 . S
C1055 C1054 1.391 . S
C1055 C1056 1.399 . S
C1056 C1055 1.399 . S
C1056 C1057 1.396 . S
C1056 C1059 1.453 . S
C1056 C1060 1.684 . S
C1057 C1047 1.723 . S
C1057 C1056 1.396 . S
C1057 C1058 1.394 . S
C1058 C1028 1.723 . S
C1058 C1054 1.397 . S
C1058 C1057 1.394 . S
C1059 H1031 0.982 . S
C1059 H1035 0.979 . S
C1059 H1036 0.977 . S
C1059 C1056 1.453 . S
C1060 H1032 0.979 . S
C1060 H1033 0.980 . S
C1060 H1034 0.983 . S
C1060 C1056 1.684 . S
H1061 C1079 0.948 . S
H1062 C1020 0.948 . S
H1063 C1038 0.979 . S
H1064 C1038 0.980 . S
H1065 C1038 0.983 . S
H1066 C1037 0.982 . S
H1067 C1037 0.979 . S
H1068 C1037 0.977 . S
H1069 C1039 0.948 . S
H1070 C1041 0.947 . S
H1071 C1042 0.948 . S
H1072 C1048 0.982 . S
H1073 C1048 0.979 . S
H1074 C1048 0.977 . S
H1075 C1049 0.979 . S
H1076 C1049 0.980 . S
H1077 C1049 0.983 . S
H1078 C1022 0.947 . S
C1079 C1022 1.392 . S
C1079 C1023 1.419 . S
C1079 H1061 0.948 . S
Eu1080 N1111 2.657 . S
Eu1080 N1118 2.609 . S
Eu1080 O1124 2.558 . S
Eu1080 O1125 2.612 1_565 S
Eu1080 O1127 2.339 1_565 S
Eu1080 O1128 2.563 1_565 S
Eu1080 O1129 2.419 . S
Eu1080 O1131 2.380 1_556 S
Eu1080 O1132 2.432 . S
Eu1080 C1144 2.848 . S
C1081 C1084 1.429 . S
C1081 C1085 1.411 . S
C1081 N1088 1.377 . S
C1082 C1084 1.420 . S
C1082 C1086 1.423 . S
C1082 C1094 1.392 . S
C1083 C1085 1.420 . S
C1083 C1086 1.351 . S
C1083 H1106 0.931 . S
C1084 C1081 1.429 . S
C1084 C1082 1.420 . S
C1084 N1092 1.362 . S
C1085 C1081 1.411 . S
C1085 C1083 1.420 . S
C1085 C1090 1.395 . S
C1086 C1082 1.423 . S
C1086 C1083 1.351 . S
C1086 H1098 0.930 . S
C1087 C1089 1.400 . S
C1087 C1090 1.386 . S
C1087 H1099 0.930 . S
N1088 C1081 1.377 . S
N1088 C1089 1.321 . S
N1088 Eu1091 2.609 . S
C1089 C1087 1.400 . S
C1089 N1088 1.321 . S
C1089 H1096 0.930 . S
C1090 C1085 1.395 . S
C1090 C1087 1.386 . S
C1090 H1109 0.930 . S
Eu1091 N1088 2.609 . S
Eu1091 N1092 2.657 . S
Eu1091 O1125 2.380 1_554 S
Eu1091 O1126 2.432 . S
Eu1091 O1130 2.558 . S
Eu1091 O1131 2.612 1_545 S
Eu1091 O1133 2.339 1_545 S
Eu1091 O1134 2.563 1_545 S
Eu1091 O1135 2.419 . S
Eu1091 C1155 2.848 . S
N1092 C1084 1.362 . S
N1092 Eu1091 2.657 . S
N1092 C1093 1.334 . S
C1093 N1092 1.334 . S
C1093 C1095 1.413 . S
C1093 H1100 0.929 . S
C1094 C1082 1.392 . S
C1094 C1095 1.367 . S
C1094 H1102 0.930 . S
C1095 C1093 1.413 . S
C1095 C1094 1.367 . S
C1095 H1097 0.930 . S
H1096 C1089 0.930 . S
H1097 C1095 0.930 . S
H1098 C1086 0.930 . S
H1099 C1087 0.930 . S
H1100 C1093 0.929 . S
H1101 C1115 0.930 . S
H1102 C1094 0.930 . S
H1103 C1121 0.930 . S
H1104 C1112 0.929 . S
H1105 C1119 0.930 . S
H1106 C1083 0.931 . S
H1107 C1113 0.930 . S
H1108 C1146 0.930 . S
H1109 C1090 0.930 . S
H1110 C1145 0.931 . S
N1111 Eu1080 2.657 . S
N1111 C1112 1.334 . S
N1111 C1116 1.362 . S
C1112 H1104 0.929 . S
C1112 N1111 1.334 . S
C1112 C1115 1.413 . S
C1113 H1107 0.930 . S
C1113 C1114 1.392 . S
C1113 C1115 1.367 . S
C1114 C1113 1.392 . S
C1114 C1116 1.420 . S
C1114 C1146 1.423 . S
C1115 H1101 0.930 . S
C1115 C1112 1.413 . S
C1115 C1113 1.367 . S
C1116 N1111 1.362 . S
C1116 C1114 1.420 . S
C1116 C1120 1.429 . S
H1117 C1122 0.930 . S
N1118 Eu1080 2.609 . S
N1118 C1120 1.377 . S
N1118 C1121 1.321 . S
C1119 H1105 0.930 . S
C1119 C1121 1.400 . S
C1119 C1122 1.386 . S
C1120 C1116 1.429 . S
C1120 N1118 1.377 . S
C1120 C1123 1.411 . S
C1121 H1103 0.930 . S
C1121 N1118 1.321 . S
C1121 C1119 1.400 . S
C1122 H1117 0.930 . S
C1122 C1119 1.386 . S
C1122 C1123 1.395 . S
C1123 C1120 1.411 . S
C1123 C1122 1.395 . S
C1123 C1145 1.420 . S
O1124 Eu1080 2.558 . S
O1124 C1144 1.257 . S
O1125 Eu1080 2.612 1_545 S
O1125 Eu1091 2.380 1_556 S
O1125 C1136 1.276 . S
O1126 Eu1091 2.432 . S
O1126 C1143 1.264 1_554 S
O1127 Eu1080 2.339 1_545 S
O1127 C1143 1.254 . S
O1128 Eu1080 2.563 1_545 S
O1128 C1136 1.235 . S
O1129 Eu1080 2.419 . S
O1129 C1144 1.249 . S
O1130 Eu1091 2.558 . S
O1130 C1155 1.257 . S
O1131 Eu1080 2.380 1_554 S
O1131 Eu1091 2.612 1_565 S
O1131 C1147 1.276 . S
O1132 Eu1080 2.432 . S
O1132 C1154 1.264 1_556 S
O1133 Eu1091 2.339 1_565 S
O1133 C1154 1.254 . S
O1134 Eu1091 2.563 1_565 S
O1134 C1147 1.235 . S
O1135 Eu1091 2.419 . S
O1135 C1155 1.249 . S
C1136 O1125 1.276 . S
C1136 O1128 1.235 . S
C1137 C1139 1.393 1_565 S
C1137 C1141 1.395 . S
C1137 C1144 1.492 . S
C1138 C1139 1.392 . S
C1138 C1140 1.386 1_545 S
C1139 C1137 1.393 1_545 S
C1139 C1138 1.392 . S
C1139 H1156 0.930 . S
C1140 C1138 1.386 1_565 S
C1140 C1142 1.395 . S
C1140 H1157 0.930 . S
C1141 C1137 1.395 . S
C1141 C1142 1.379 . S
C1141 H1158 0.930 . S
C1142 C1140 1.395 . S
C1142 C1141 1.379 . S
C1142 H1159 0.930 . S
C1143 O1126 1.264 1_556 S
C1143 O1127 1.254 . S
C1144 Eu1080 2.848 . S
C1144 O1124 1.257 . S
C1144 O1129 1.249 . S
C1144 C1137 1.492 . S
C1145 H1110 0.931 . S
C1145 C1123 1.420 . S
C1145 C1146 1.351 . S
C1146 H1108 0.930 . S
C1146 C1114 1.423 . S
C1146 C1145 1.351 . S
C1147 O1131 1.276 . S
C1147 O1134 1.235 . S
C1148 C1149 1.393 1_545 S
C1148 C1152 1.395 . S
C1148 C1155 1.492 . S
C1149 C1148 1.393 1_565 S
C1149 C1150 1.392 . S
C1149 H1160 0.930 . S
C1150 C1149 1.392 . S
C1150 C1151 1.386 1_565 S
C1151 C1150 1.386 1_545 S
C1151 C1153 1.395 . S
C1151 H1161 0.930 . S
C1152 C1148 1.395 . S
C1152 C1153 1.379 . S
C1152 H1162 0.930 . S
C1153 C1151 1.395 . S
C1153 C1152 1.379 . S
C1153 H1163 0.930 . S
C1154 O1132 1.264 1_554 S
C1154 O1133 1.254 . S
C1155 Eu1091 2.848 . S
C1155 O1130 1.257 . S
C1155 O1135 1.249 . S
C1155 C1148 1.492 . S
H1156 C1139 0.930 . S
H1157 C1140 0.930 . S
H1158 C1141 0.930 . S
H1159 C1142 0.930 . S
H1160 C1149 0.930 . S
H1161 C1151 0.930 . S
H1162 C1152 0.930 . S
H1163 C1153 0.930 . S
Eu1164 N1195 2.657 . S
Eu1164 N1202 2.609 . S
Eu1164 O1208 2.558 . S
Eu1164 O1209 2.612 1_455 S
Eu1164 O1211 2.339 1_455 S
Eu1164 O1212 2.563 1_455 S
Eu1164 O1213 2.419 . S
Eu1164 O1215 2.380 1_556 S
Eu1164 O1216 2.432 . S
Eu1164 C1228 2.848 . S
C1165 C1168 1.429 . S
C1165 C1169 1.411 . S
C1165 N1172 1.377 . S
C1166 C1168 1.420 . S
C1166 C1170 1.423 . S
C1166 C1178 1.392 . S
C1167 C1169 1.420 . S
C1167 C1170 1.351 . S
C1167 H1190 0.931 . S
C1168 C1165 1.429 . S
C1168 C1166 1.420 . S
C1168 N1176 1.362 . S
C1169 C1165 1.411 . S
C1169 C1167 1.420 . S
C1169 C1174 1.395 . S
C1170 C1166 1.423 . S
C1170 C1167 1.351 . S
C1170 H1182 0.930 . S
C1171 C1173 1.400 . S
C1171 C1174 1.386 . S
C1171 H1183 0.930 . S
N1172 C1165 1.377 . S
N1172 C1173 1.321 . S
N1172 Eu1175 2.609 . S
C1173 C1171 1.400 . S
C1173 N1172 1.321 . S
C1173 H1180 0.930 . S
C1174 C1169 1.395 . S
C1174 C1171 1.386 . S
C1174 H1193 0.930 . S
Eu1175 N1172 2.609 . S
Eu1175 N1176 2.657 . S
Eu1175 O1209 2.380 1_554 S
Eu1175 O1210 2.432 . S
Eu1175 O1214 2.558 . S
Eu1175 O1215 2.612 1_655 S
Eu1175 O1217 2.339 1_655 S
Eu1175 O1218 2.563 1_655 S
Eu1175 O1219 2.419 . S
Eu1175 C1239 2.848 . S
N1176 C1168 1.362 . S
N1176 Eu1175 2.657 . S
N1176 C1177 1.334 . S
C1177 N1176 1.334 . S
C1177 C1179 1.413 . S
C1177 H1184 0.929 . S
C1178 C1166 1.392 . S
C1178 C1179 1.367 . S
C1178 H1186 0.930 . S
C1179 C1177 1.413 . S
C1179 C1178 1.367 . S
C1179 H1181 0.930 . S
H1180 C1173 0.930 . S
H1181 C1179 0.930 . S
H1182 C1170 0.930 . S
H1183 C1171 0.930 . S
H1184 C1177 0.929 . S
H1185 C1199 0.930 . S
H1186 C1178 0.930 . S
H1187 C1205 0.930 . S
H1188 C1196 0.929 . S
H1189 C1203 0.930 . S
H1190 C1167 0.931 . S
H1191 C1197 0.930 . S
H1192 C1230 0.930 . S
H1193 C1174 0.930 . S
H1194 C1229 0.931 . S
N1195 Eu1164 2.657 . S
N1195 C1196 1.334 . S
N1195 C1200 1.362 . S
C1196 H1188 0.929 . S
C1196 N1195 1.334 . S
C1196 C1199 1.413 . S
C1197 H1191 0.930 . S
C1197 C1198 1.392 . S
C1197 C1199 1.367 . S
C1198 C1197 1.392 . S
C1198 C1200 1.420 . S
C1198 C1230 1.423 . S
C1199 H1185 0.930 . S
C1199 C1196 1.413 . S
C1199 C1197 1.367 . S
C1200 N1195 1.362 . S
C1200 C1198 1.420 . S
C1200 C1204 1.429 . S
H1201 C1206 0.930 . S
N1202 Eu1164 2.609 . S
N1202 C1204 1.377 . S
N1202 C1205 1.321 . S
C1203 H1189 0.930 . S
C1203 C1205 1.400 . S
C1203 C1206 1.386 . S
C1204 C1200 1.429 . S
C1204 N1202 1.377 . S
C1204 C1207 1.411 . S
C1205 H1187 0.930 . S
C1205 N1202 1.321 . S
C1205 C1203 1.400 . S
C1206 H1201 0.930 . S
C1206 C1203 1.386 . S
C1206 C1207 1.395 . S
C1207 C1204 1.411 . S
C1207 C1206 1.395 . S
C1207 C1229 1.420 . S
O1208 Eu1164 2.558 . S
O1208 C1228 1.257 . S
O1209 Eu1164 2.612 1_655 S
O1209 Eu1175 2.380 1_556 S
O1209 C1220 1.276 . S
O1210 Eu1175 2.432 . S
O1210 C1227 1.264 1_554 S
O1211 Eu1164 2.339 1_655 S
O1211 C1227 1.254 . S
O1212 Eu1164 2.563 1_655 S
O1212 C1220 1.235 . S
O1213 Eu1164 2.419 . S
O1213 C1228 1.249 . S
O1214 Eu1175 2.558 . S
O1214 C1239 1.257 . S
O1215 Eu1164 2.380 1_554 S
O1215 Eu1175 2.612 1_455 S
O1215 C1231 1.276 . S
O1216 Eu1164 2.432 . S
O1216 C1238 1.264 1_556 S
O1217 Eu1175 2.339 1_455 S
O1217 C1238 1.254 . S
O1218 Eu1175 2.563 1_455 S
O1218 C1231 1.235 . S
O1219 Eu1175 2.419 . S
O1219 C1239 1.249 . S
C1220 O1209 1.276 . S
C1220 O1212 1.235 . S
C1221 C1223 1.393 1_455 S
C1221 C1225 1.395 . S
C1221 C1228 1.492 . S
C1222 C1223 1.392 . S
C1222 C1224 1.386 1_655 S
C1223 C1221 1.393 1_655 S
C1223 C1222 1.392 . S
C1223 H1240 0.930 . S
C1224 C1222 1.386 1_455 S
C1224 C1226 1.395 . S
C1224 H1241 0.930 . S
C1225 C1221 1.395 . S
C1225 C1226 1.379 . S
C1225 H1242 0.930 . S
C1226 C1224 1.395 . S
C1226 C1225 1.379 . S
C1226 H1243 0.930 . S
C1227 O1210 1.264 1_556 S
C1227 O1211 1.254 . S
C1228 Eu1164 2.848 . S
C1228 O1208 1.257 . S
C1228 O1213 1.249 . S
C1228 C1221 1.492 . S
C1229 H1194 0.931 . S
C1229 C1207 1.420 . S
C1229 C1230 1.351 . S
C1230 H1192 0.930 . S
C1230 C1198 1.423 . S
C1230 C1229 1.351 . S
C1231 O1215 1.276 . S
C1231 O1218 1.235 . S
C1232 C1233 1.393 1_655 S
C1232 C1236 1.395 . S
C1232 C1239 1.492 . S
C1233 C1232 1.393 1_455 S
C1233 C1234 1.392 . S
C1233 H1244 0.930 . S
C1234 C1233 1.392 . S
C1234 C1235 1.386 1_455 S
C1235 C1234 1.386 1_655 S
C1235 C1237 1.395 . S
C1235 H1245 0.930 . S
C1236 C1232 1.395 . S
C1236 C1237 1.379 . S
C1236 H1246 0.930 . S
C1237 C1235 1.395 . S
C1237 C1236 1.379 . S
C1237 H1247 0.930 . S
C1238 O1216 1.264 1_554 S
C1238 O1217 1.254 . S
C1239 Eu1175 2.848 . S
C1239 O1214 1.257 . S
C1239 O1219 1.249 . S
C1239 C1232 1.492 . S
H1240 C1223 0.930 . S
H1241 C1224 0.930 . S
H1242 C1225 0.930 . S
H1243 C1226 0.930 . S
H1244 C1233 0.930 . S
H1245 C1235 0.930 . S
H1246 C1236 0.930 . S
H1247 C1237 0.930 . S
Eu1248 N1279 2.657 . S
Eu1248 N1286 2.609 . S
Eu1248 O1292 2.558 . S
Eu1248 O1293 2.612 . S
Eu1248 O1295 2.339 . S
Eu1248 O1296 2.563 . S
Eu1248 O1297 2.419 . S
Eu1248 O1299 2.380 1_554 S
Eu1248 O1300 2.432 . S
Eu1248 C1312 2.848 . S
C1249 C1252 1.429 . S
C1249 C1253 1.411 . S
C1249 N1256 1.377 . S
C1250 C1252 1.420 . S
C1250 C1254 1.423 . S
C1250 C1262 1.392 . S
C1251 C1253 1.420 . S
C1251 C1254 1.351 . S
C1251 H1274 0.931 . S
C1252 C1249 1.429 . S
C1252 C1250 1.420 . S
C1252 N1260 1.362 . S
C1253 C1249 1.411 . S
C1253 C1251 1.420 . S
C1253 C1258 1.395 . S
C1254 C1250 1.423 . S
C1254 C1251 1.351 . S
C1254 H1266 0.930 . S
C1255 C1257 1.400 . S
C1255 C1258 1.386 . S
C1255 H1267 0.930 . S
N1256 C1249 1.377 . S
N1256 C1257 1.321 . S
N1256 Eu1259 2.609 . S
C1257 C1255 1.400 . S
C1257 N1256 1.321 . S
C1257 H1264 0.930 . S
C1258 C1253 1.395 . S
C1258 C1255 1.386 . S
C1258 H1277 0.930 . S
Eu1259 N1256 2.609 . S
Eu1259 N1260 2.657 . S
Eu1259 O1293 2.380 1_556 S
Eu1259 O1294 2.432 . S
Eu1259 O1298 2.558 . S
Eu1259 O1299 2.612 . S
Eu1259 O1301 2.339 . S
Eu1259 O1302 2.563 . S
Eu1259 O1303 2.419 . S
Eu1259 C1323 2.848 . S
N1260 C1252 1.362 . S
N1260 Eu1259 2.657 . S
N1260 C1261 1.334 . S
C1261 N1260 1.334 . S
C1261 C1263 1.413 . S
C1261 H1268 0.929 . S
C1262 C1250 1.392 . S
C1262 C1263 1.367 . S
C1262 H1270 0.930 . S
C1263 C1261 1.413 . S
C1263 C1262 1.367 . S
C1263 H1265 0.930 . S
H1264 C1257 0.930 . S
H1265 C1263 0.930 . S
H1266 C1254 0.930 . S
H1267 C1255 0.930 . S
H1268 C1261 0.929 . S
H1269 C1283 0.930 . S
H1270 C1262 0.930 . S
H1271 C1289 0.930 . S
H1272 C1280 0.929 . S
H1273 C1287 0.930 . S
H1274 C1251 0.931 . S
H1275 C1281 0.930 . S
H1276 C1314 0.930 . S
H1277 C1258 0.930 . S
H1278 C1313 0.931 . S
N1279 Eu1248 2.657 . S
N1279 C1280 1.334 . S
N1279 C1284 1.362 . S
C1280 H1272 0.929 . S
C1280 N1279 1.334 . S
C1280 C1283 1.413 . S
C1281 H1275 0.930 . S
C1281 C1282 1.392 . S
C1281 C1283 1.367 . S
C1282 C1281 1.392 . S
C1282 C1284 1.420 . S
C1282 C1314 1.423 . S
C1283 H1269 0.930 . S
C1283 C1280 1.413 . S
C1283 C1281 1.367 . S
C1284 N1279 1.362 . S
C1284 C1282 1.420 . S
C1284 C1288 1.429 . S
H1285 C1290 0.930 . S
N1286 Eu1248 2.609 . S
N1286 C1288 1.377 . S
N1286 C1289 1.321 . S
C1287 H1273 0.930 . S
C1287 C1289 1.400 . S
C1287 C1290 1.386 . S
C1288 C1284 1.429 . S
C1288 N1286 1.377 . S
C1288 C1291 1.411 . S
C1289 H1271 0.930 . S
C1289 N1286 1.321 . S
C1289 C1287 1.400 . S
C1290 H1285 0.930 . S
C1290 C1287 1.386 . S
C1290 C1291 1.395 . S
C1291 C1288 1.411 . S
C1291 C1290 1.395 . S
C1291 C1313 1.420 . S
O1292 Eu1248 2.558 . S
O1292 C1312 1.257 . S
O1293 Eu1248 2.612 . S
O1293 Eu1259 2.380 1_554 S
O1293 C1304 1.276 . S
O1294 Eu1259 2.432 . S
O1294 C1311 1.264 1_556 S
O1295 Eu1248 2.339 . S
O1295 C1311 1.254 . S
O1296 Eu1248 2.563 . S
O1296 C1304 1.235 . S
O1297 Eu1248 2.419 . S
O1297 C1312 1.249 . S
O1298 Eu1259 2.558 . S
O1298 C1323 1.257 . S
O1299 Eu1248 2.380 1_556 S
O1299 Eu1259 2.612 . S
O1299 C1315 1.276 . S
O1300 Eu1248 2.432 . S
O1300 C1322 1.264 1_554 S
O1301 Eu1259 2.339 . S
O1301 C1322 1.254 . S
O1302 Eu1259 2.563 . S
O1302 C1315 1.235 . S
O1303 Eu1259 2.419 . S
O1303 C1323 1.249 . S
C1304 O1293 1.276 . S
C1304 O1296 1.235 . S
C1305 C1307 1.393 . S
C1305 C1309 1.395 . S
C1305 C1312 1.492 . S
C1306 C1307 1.392 . S
C1306 C1308 1.386 . S
C1307 C1305 1.393 . S
C1307 C1306 1.392 . S
C1307 H1324 0.930 . S
C1308 C1306 1.386 . S
C1308 C1310 1.395 . S
C1308 H1325 0.930 . S
C1309 C1305 1.395 . S
C1309 C1310 1.379 . S
C1309 H1326 0.930 . S
C1310 C1308 1.395 . S
C1310 C1309 1.379 . S
C1310 H1327 0.930 . S
C1311 O1294 1.264 1_554 S
C1311 O1295 1.254 . S
C1312 Eu1248 2.848 . S
C1312 O1292 1.257 . S
C1312 O1297 1.249 . S
C1312 C1305 1.492 . S
C1313 H1278 0.931 . S
C1313 C1291 1.420 . S
C1313 C1314 1.351 . S
C1314 H1276 0.930 . S
C1314 C1282 1.423 . S
C1314 C1313 1.351 . S
C1315 O1299 1.276 . S
C1315 O1302 1.235 . S
C1316 C1317 1.393 . S
C1316 C1320 1.395 . S
C1316 C1323 1.492 . S
C1317 C1316 1.393 . S
C1317 C1318 1.392 . S
C1317 H1328 0.930 . S
C1318 C1317 1.392 . S
C1318 C1319 1.386 . S
C1319 C1318 1.386 . S
C1319 C1321 1.395 . S
C1319 H1329 0.930 . S
C1320 C1316 1.395 . S
C1320 C1321 1.379 . S
C1320 H1330 0.930 . S
C1321 C1319 1.395 . S
C1321 C1320 1.379 . S
C1321 H1331 0.930 . S
C1322 O1300 1.264 1_556 S
C1322 O1301 1.254 . S
C1323 Eu1259 2.848 . S
C1323 O1298 1.257 . S
C1323 O1303 1.249 . S
C1323 C1316 1.492 . S
H1324 C1307 0.930 . S
H1325 C1308 0.930 . S
H1326 C1309 0.930 . S
H1327 C1310 0.930 . S
H1328 C1317 0.930 . S
H1329 C1319 0.930 . S
H1330 C1320 0.930 . S
H1331 C1321 0.930 . S
Eu1332 N1363 2.657 . S
Eu1332 N1370 2.609 . S
Eu1332 O1376 2.558 . S
Eu1332 O1377 2.612 . S
Eu1332 O1379 2.339 . S
Eu1332 O1380 2.563 . S
Eu1332 O1381 2.419 . S
Eu1332 O1383 2.380 . S
Eu1332 O1384 2.432 . S
Eu1332 C1396 2.848 . S
C1333 C1336 1.429 . S
C1333 C1337 1.411 . S
C1333 N1340 1.377 . S
C1334 C1336 1.420 . S
C1334 C1338 1.423 . S
C1334 C1346 1.392 . S
C1335 C1337 1.420 . S
C1335 C1338 1.351 . S
C1335 H1358 0.931 . S
C1336 C1333 1.429 . S
C1336 C1334 1.420 . S
C1336 N1344 1.362 . S
C1337 C1333 1.411 . S
C1337 C1335 1.420 . S
C1337 C1342 1.395 . S
C1338 C1334 1.423 . S
C1338 C1335 1.351 . S
C1338 H1350 0.930 . S
C1339 C1341 1.400 . S
C1339 C1342 1.386 . S
C1339 H1351 0.930 . S
N1340 C1333 1.377 . S
N1340 C1341 1.321 . S
N1340 Eu1343 2.609 . S
C1341 C1339 1.400 . S
C1341 N1340 1.321 . S
C1341 H1348 0.930 . S
C1342 C1337 1.395 . S
C1342 C1339 1.386 . S
C1342 H1361 0.930 . S
Eu1343 N1340 2.609 . S
Eu1343 N1344 2.657 . S
Eu1343 O1377 2.380 . S
Eu1343 O1378 2.432 . S
Eu1343 O1382 2.558 . S
Eu1343 O1383 2.612 . S
Eu1343 O1385 2.339 . S
Eu1343 O1386 2.563 . S
Eu1343 O1387 2.419 . S
Eu1343 C1407 2.848 . S
N1344 C1336 1.362 . S
N1344 Eu1343 2.657 . S
N1344 C1345 1.334 . S
C1345 N1344 1.334 . S
C1345 C1347 1.413 . S
C1345 H1352 0.929 . S
C1346 C1334 1.392 . S
C1346 C1347 1.367 . S
C1346 H1354 0.930 . S
C1347 C1345 1.413 . S
C1347 C1346 1.367 . S
C1347 H1349 0.930 . S
H1348 C1341 0.930 . S
H1349 C1347 0.930 . S
H1350 C1338 0.930 . S
H1351 C1339 0.930 . S
H1352 C1345 0.929 . S
H1353 C1367 0.930 . S
H1354 C1346 0.930 . S
H1355 C1373 0.930 . S
H1356 C1364 0.929 . S
H1357 C1371 0.930 . S
H1358 C1335 0.931 . S
H1359 C1365 0.930 . S
H1360 C1398 0.930 . S
H1361 C1342 0.930 . S
H1362 C1397 0.931 . S
N1363 Eu1332 2.657 . S
N1363 C1364 1.334 . S
N1363 C1368 1.362 . S
C1364 H1356 0.929 . S
C1364 N1363 1.334 . S
C1364 C1367 1.413 . S
C1365 H1359 0.930 . S
C1365 C1366 1.392 . S
C1365 C1367 1.367 . S
C1366 C1365 1.392 . S
C1366 C1368 1.420 . S
C1366 C1398 1.423 . S
C1367 H1353 0.930 . S
C1367 C1364 1.413 . S
C1367 C1365 1.367 . S
C1368 N1363 1.362 . S
C1368 C1366 1.420 . S
C1368 C1372 1.429 . S
H1369 C1374 0.930 . S
N1370 Eu1332 2.609 . S
N1370 C1372 1.377 . S
N1370 C1373 1.321 . S
C1371 H1357 0.930 . S
C1371 C1373 1.400 . S
C1371 C1374 1.386 . S
C1372 C1368 1.429 . S
C1372 N1370 1.377 . S
C1372 C1375 1.411 . S
C1373 H1355 0.930 . S
C1373 N1370 1.321 . S
C1373 C1371 1.400 . S
C1374 H1369 0.930 . S
C1374 C1371 1.386 . S
C1374 C1375 1.395 . S
C1375 C1372 1.411 . S
C1375 C1374 1.395 . S
C1375 C1397 1.420 . S
O1376 Eu1332 2.558 . S
O1376 C1396 1.257 . S
O1377 Eu1332 2.612 . S
O1377 Eu1343 2.380 . S
O1377 C1388 1.276 . S
O1378 Eu1343 2.432 . S
O1378 C1395 1.264 . S
O1379 Eu1332 2.339 . S
O1379 C1395 1.254 . S
O1380 Eu1332 2.563 . S
O1380 C1388 1.235 . S
O1381 Eu1332 2.419 . S
O1381 C1396 1.249 . S
O1382 Eu1343 2.558 . S
O1382 C1407 1.257 . S
O1383 Eu1332 2.380 . S
O1383 Eu1343 2.612 . S
O1383 C1399 1.276 . S
O1384 Eu1332 2.432 . S
O1384 C1406 1.264 . S
O1385 Eu1343 2.339 . S
O1385 C1406 1.254 . S
O1386 Eu1343 2.563 . S
O1386 C1399 1.235 . S
O1387 Eu1343 2.419 . S
O1387 C1407 1.249 . S
C1388 O1377 1.276 . S
C1388 O1380 1.235 . S
C1389 C1391 1.393 . S
C1389 C1393 1.395 . S
C1389 C1396 1.492 . S
C1390 C1391 1.392 . S
C1390 C1392 1.386 . S
C1391 C1389 1.393 . S
C1391 C1390 1.392 . S
C1391 H1408 0.930 . S
C1392 C1390 1.386 . S
C1392 C1394 1.395 . S
C1392 H1409 0.930 . S
C1393 C1389 1.395 . S
C1393 C1394 1.379 . S
C1393 H1410 0.930 . S
C1394 C1392 1.395 . S
C1394 C1393 1.379 . S
C1394 H1411 0.930 . S
C1395 O1378 1.264 . S
C1395 O1379 1.254 . S
C1396 Eu1332 2.848 . S
C1396 O1376 1.257 . S
C1396 O1381 1.249 . S
C1396 C1389 1.492 . S
C1397 H1362 0.931 . S
C1397 C1375 1.420 . S
C1397 C1398 1.351 . S
C1398 H1360 0.930 . S
C1398 C1366 1.423 . S
C1398 C1397 1.351 . S
C1399 O1383 1.276 . S
C1399 O1386 1.235 . S
C1400 C1401 1.393 . S
C1400 C1404 1.395 . S
C1400 C1407 1.492 . S
C1401 C1400 1.393 . S
C1401 C1402 1.392 . S
C1401 H1412 0.930 . S
C1402 C1401 1.392 . S
C1402 C1403 1.386 . S
C1403 C1402 1.386 . S
C1403 C1405 1.395 . S
C1403 H1413 0.930 . S
C1404 C1400 1.395 . S
C1404 C1405 1.379 . S
C1404 H1414 0.930 . S
C1405 C1403 1.395 . S
C1405 C1404 1.379 . S
C1405 H1415 0.930 . S
C1406 O1384 1.264 . S
C1406 O1385 1.254 . S
C1407 Eu1343 2.848 . S
C1407 O1382 1.257 . S
C1407 O1387 1.249 . S
C1407 C1400 1.492 . S
H1408 C1391 0.930 . S
H1409 C1392 0.930 . S
H1410 C1393 0.930 . S
H1411 C1394 0.930 . S
H1412 C1401 0.930 . S
H1413 C1403 0.930 . S
H1414 C1404 0.930 . S
H1415 C1405 0.930 . S
Eu1416 N1447 2.657 . S
Eu1416 N1454 2.609 . S
Eu1416 O1460 2.558 . S
Eu1416 O1461 2.612 . S
Eu1416 O1463 2.339 . S
Eu1416 O1464 2.563 . S
Eu1416 O1465 2.419 . S
Eu1416 O1467 2.380 . S
Eu1416 O1468 2.432 . S
Eu1416 C1480 2.848 . S
C1417 C1420 1.429 . S
C1417 C1421 1.411 . S
C1417 N1424 1.377 . S
C1418 C1420 1.420 . S
C1418 C1422 1.423 . S
C1418 C1430 1.392 . S
C1419 C1421 1.420 . S
C1419 C1422 1.351 . S
C1419 H1442 0.931 . S
C1420 C1417 1.429 . S
C1420 C1418 1.420 . S
C1420 N1428 1.362 . S
C1421 C1417 1.411 . S
C1421 C1419 1.420 . S
C1421 C1426 1.395 . S
C1422 C1418 1.423 . S
C1422 C1419 1.351 . S
C1422 H1434 0.930 . S
C1423 C1425 1.400 . S
C1423 C1426 1.386 . S
C1423 H1435 0.930 . S
N1424 C1417 1.377 . S
N1424 C1425 1.321 . S
N1424 Eu1427 2.609 . S
C1425 C1423 1.400 . S
C1425 N1424 1.321 . S
C1425 H1432 0.930 . S
C1426 C1421 1.395 . S
C1426 C1423 1.386 . S
C1426 H1445 0.930 . S
Eu1427 N1424 2.609 . S
Eu1427 N1428 2.657 . S
Eu1427 O1461 2.380 . S
Eu1427 O1462 2.432 . S
Eu1427 O1466 2.558 . S
Eu1427 O1467 2.612 . S
Eu1427 O1469 2.339 . S
Eu1427 O1470 2.563 . S
Eu1427 O1471 2.419 . S
Eu1427 C1491 2.848 . S
N1428 C1420 1.362 . S
N1428 Eu1427 2.657 . S
N1428 C1429 1.334 . S
C1429 N1428 1.334 . S
C1429 C1431 1.413 . S
C1429 H1436 0.929 . S
C1430 C1418 1.392 . S
C1430 C1431 1.367 . S
C1430 H1438 0.930 . S
C1431 C1429 1.413 . S
C1431 C1430 1.367 . S
C1431 H1433 0.930 . S
H1432 C1425 0.930 . S
H1433 C1431 0.930 . S
H1434 C1422 0.930 . S
H1435 C1423 0.930 . S
H1436 C1429 0.929 . S
H1437 C1451 0.930 . S
H1438 C1430 0.930 . S
H1439 C1457 0.930 . S
H1440 C1448 0.929 . S
H1441 C1455 0.930 . S
H1442 C1419 0.931 . S
H1443 C1449 0.930 . S
H1444 C1482 0.930 . S
H1445 C1426 0.930 . S
H1446 C1481 0.931 . S
N1447 Eu1416 2.657 . S
N1447 C1448 1.334 . S
N1447 C1452 1.362 . S
C1448 H1440 0.929 . S
C1448 N1447 1.334 . S
C1448 C1451 1.413 . S
C1449 H1443 0.930 . S
C1449 C1450 1.392 . S
C1449 C1451 1.367 . S
C1450 C1449 1.392 . S
C1450 C1452 1.420 . S
C1450 C1482 1.423 . S
C1451 H1437 0.930 . S
C1451 C1448 1.413 . S
C1451 C1449 1.367 . S
C1452 N1447 1.362 . S
C1452 C1450 1.420 . S
C1452 C1456 1.429 . S
H1453 C1458 0.930 . S
N1454 Eu1416 2.609 . S
N1454 C1456 1.377 . S
N1454 C1457 1.321 . S
C1455 H1441 0.930 . S
C1455 C1457 1.400 . S
C1455 C1458 1.386 . S
C1456 C1452 1.429 . S
C1456 N1454 1.377 . S
C1456 C1459 1.411 . S
C1457 H1439 0.930 . S
C1457 N1454 1.321 . S
C1457 C1455 1.400 . S
C1458 H1453 0.930 . S
C1458 C1455 1.386 . S
C1458 C1459 1.395 . S
C1459 C1456 1.411 . S
C1459 C1458 1.395 . S
C1459 C1481 1.420 . S
O1460 Eu1416 2.558 . S
O1460 C1480 1.257 . S
O1461 Eu1416 2.612 . S
O1461 Eu1427 2.380 . S
O1461 C1472 1.276 . S
O1462 Eu1427 2.432 . S
O1462 C1479 1.264 . S
O1463 Eu1416 2.339 . S
O1463 C1479 1.254 . S
O1464 Eu1416 2.563 . S
O1464 C1472 1.235 . S
O1465 Eu1416 2.419 . S
O1465 C1480 1.249 . S
O1466 Eu1427 2.558 . S
O1466 C1491 1.257 . S
O1467 Eu1416 2.380 . S
O1467 Eu1427 2.612 . S
O1467 C1483 1.276 . S
O1468 Eu1416 2.432 . S
O1468 C1490 1.264 . S
O1469 Eu1427 2.339 . S
O1469 C1490 1.254 . S
O1470 Eu1427 2.563 . S
O1470 C1483 1.235 . S
O1471 Eu1427 2.419 . S
O1471 C1491 1.249 . S
C1472 O1461 1.276 . S
C1472 O1464 1.235 . S
C1473 C1475 1.393 . S
C1473 C1477 1.395 . S
C1473 C1480 1.492 . S
C1474 C1475 1.392 . S
C1474 C1476 1.386 . S
C1475 C1473 1.393 . S
C1475 C1474 1.392 . S
C1475 H1492 0.930 . S
C1476 C1474 1.386 . S
C1476 C1478 1.395 . S
C1476 H1493 0.930 . S
C1477 C1473 1.395 . S
C1477 C1478 1.379 . S
C1477 H1494 0.930 . S
C1478 C1476 1.395 . S
C1478 C1477 1.379 . S
C1478 H1495 0.930 . S
C1479 O1462 1.264 . S
C1479 O1463 1.254 . S
C1480 Eu1416 2.848 . S
C1480 O1460 1.257 . S
C1480 O1465 1.249 . S
C1480 C1473 1.492 . S
C1481 H1446 0.931 . S
C1481 C1459 1.420 . S
C1481 C1482 1.351 . S
C1482 H1444 0.930 . S
C1482 C1450 1.423 . S
C1482 C1481 1.351 . S
C1483 O1467 1.276 . S
C1483 O1470 1.235 . S
C1484 C1485 1.393 . S
C1484 C1488 1.395 . S
C1484 C1491 1.492 . S
C1485 C1484 1.393 . S
C1485 C1486 1.392 . S
C1485 H1496 0.930 . S
C1486 C1485 1.392 . S
C1486 C1487 1.386 . S
C1487 C1486 1.386 . S
C1487 C1489 1.395 . S
C1487 H1497 0.930 . S
C1488 C1484 1.395 . S
C1488 C1489 1.379 . S
C1488 H1498 0.930 . S
C1489 C1487 1.395 . S
C1489 C1488 1.379 . S
C1489 H1499 0.930 . S
C1490 O1468 1.264 . S
C1490 O1469 1.254 . S
C1491 Eu1427 2.848 . S
C1491 O1466 1.257 . S
C1491 O1471 1.249 . S
C1491 C1484 1.492 . S
H1492 C1475 0.930 . S
H1493 C1476 0.930 . S
H1494 C1477 0.930 . S
H1495 C1478 0.930 . S
H1496 C1485 0.930 . S
H1497 C1487 0.930 . S
H1498 C1488 0.930 . S
H1499 C1489 0.930 . S
Eu1500 N1531 2.657 . S
Eu1500 N1538 2.609 . S
Eu1500 O1544 2.558 . S
Eu1500 O1545 2.612 . S
Eu1500 O1547 2.339 . S
Eu1500 O1548 2.563 . S
Eu1500 O1549 2.419 . S
Eu1500 O1551 2.380 . S
Eu1500 O1552 2.432 . S
Eu1500 C1564 2.848 . S
C1501 C1504 1.429 . S
C1501 C1505 1.411 . S
C1501 N1508 1.377 . S
C1502 C1504 1.420 . S
C1502 C1506 1.423 . S
C1502 C1514 1.392 . S
C1503 C1505 1.420 . S
C1503 C1506 1.351 . S
C1503 H1526 0.931 . S
C1504 C1501 1.429 . S
C1504 C1502 1.420 . S
C1504 N1512 1.362 . S
C1505 C1501 1.411 . S
C1505 C1503 1.420 . S
C1505 C1510 1.395 . S
C1506 C1502 1.423 . S
C1506 C1503 1.351 . S
C1506 H1518 0.930 . S
C1507 C1509 1.400 . S
C1507 C1510 1.386 . S
C1507 H1519 0.930 . S
N1508 C1501 1.377 . S
N1508 C1509 1.321 . S
N1508 Eu1511 2.609 . S
C1509 C1507 1.400 . S
C1509 N1508 1.321 . S
C1509 H1516 0.930 . S
C1510 C1505 1.395 . S
C1510 C1507 1.386 . S
C1510 H1529 0.930 . S
Eu1511 N1508 2.609 . S
Eu1511 N1512 2.657 . S
Eu1511 O1545 2.380 . S
Eu1511 O1546 2.432 . S
Eu1511 O1550 2.558 . S
Eu1511 O1551 2.612 . S
Eu1511 O1553 2.339 . S
Eu1511 O1554 2.563 . S
Eu1511 O1555 2.419 . S
Eu1511 C1575 2.848 . S
N1512 C1504 1.362 . S
N1512 Eu1511 2.657 . S
N1512 C1513 1.334 . S
C1513 N1512 1.334 . S
C1513 C1515 1.413 . S
C1513 H1520 0.929 . S
C1514 C1502 1.392 . S
C1514 C1515 1.367 . S
C1514 H1522 0.930 . S
C1515 C1513 1.413 . S
C1515 C1514 1.367 . S
C1515 H1517 0.930 . S
H1516 C1509 0.930 . S
H1517 C1515 0.930 . S
H1518 C1506 0.930 . S
H1519 C1507 0.930 . S
H1520 C1513 0.929 . S
H1521 C1535 0.930 . S
H1522 C1514 0.930 . S
H1523 C1541 0.930 . S
H1524 C1532 0.929 . S
H1525 C1539 0.930 . S
H1526 C1503 0.931 . S
H1527 C1533 0.930 . S
H1528 C1566 0.930 . S
H1529 C1510 0.930 . S
H1530 C1565 0.931 . S
N1531 Eu1500 2.657 . S
N1531 C1532 1.334 . S
N1531 C1536 1.362 . S
C1532 H1524 0.929 . S
C1532 N1531 1.334 . S
C1532 C1535 1.413 . S
C1533 H1527 0.930 . S
C1533 C1534 1.392 . S
C1533 C1535 1.367 . S
C1534 C1533 1.392 . S
C1534 C1536 1.420 . S
C1534 C1566 1.423 . S
C1535 H1521 0.930 . S
C1535 C1532 1.413 . S
C1535 C1533 1.367 . S
C1536 N1531 1.362 . S
C1536 C1534 1.420 . S
C1536 C1540 1.429 . S
H1537 C1542 0.930 . S
N1538 Eu1500 2.609 . S
N1538 C1540 1.377 . S
N1538 C1541 1.321 . S
C1539 H1525 0.930 . S
C1539 C1541 1.400 . S
C1539 C1542 1.386 . S
C1540 C1536 1.429 . S
C1540 N1538 1.377 . S
C1540 C1543 1.411 . S
C1541 H1523 0.930 . S
C1541 N1538 1.321 . S
C1541 C1539 1.400 . S
C1542 H1537 0.930 . S
C1542 C1539 1.386 . S
C1542 C1543 1.395 . S
C1543 C1540 1.411 . S
C1543 C1542 1.395 . S
C1543 C1565 1.420 . S
O1544 Eu1500 2.558 . S
O1544 C1564 1.257 . S
O1545 Eu1500 2.612 . S
O1545 Eu1511 2.380 . S
O1545 C1556 1.276 . S
O1546 Eu1511 2.432 . S
O1546 C1563 1.264 . S
O1547 Eu1500 2.339 . S
O1547 C1563 1.254 . S
O1548 Eu1500 2.563 . S
O1548 C1556 1.235 . S
O1549 Eu1500 2.419 . S
O1549 C1564 1.249 . S
O1550 Eu1511 2.558 . S
O1550 C1575 1.257 . S
O1551 Eu1500 2.380 . S
O1551 Eu1511 2.612 . S
O1551 C1567 1.276 . S
O1552 Eu1500 2.432 . S
O1552 C1574 1.264 . S
O1553 Eu1511 2.339 . S
O1553 C1574 1.254 . S
O1554 Eu1511 2.563 . S
O1554 C1567 1.235 . S
O1555 Eu1511 2.419 . S
O1555 C1575 1.249 . S
C1556 O1545 1.276 . S
C1556 O1548 1.235 . S
C1557 C1559 1.393 . S
C1557 C1561 1.395 . S
C1557 C1564 1.492 . S
C1558 C1559 1.392 . S
C1558 C1560 1.386 . S
C1559 C1557 1.393 . S
C1559 C1558 1.392 . S
C1559 H1576 0.930 . S
C1560 C1558 1.386 . S
C1560 C1562 1.395 . S
C1560 H1577 0.930 . S
C1561 C1557 1.395 . S
C1561 C1562 1.379 . S
C1561 H1578 0.930 . S
C1562 C1560 1.395 . S
C1562 C1561 1.379 . S
C1562 H1579 0.930 . S
C1563 O1546 1.264 . S
C1563 O1547 1.254 . S
C1564 Eu1500 2.848 . S
C1564 O1544 1.257 . S
C1564 O1549 1.249 . S
C1564 C1557 1.492 . S
C1565 H1530 0.931 . S
C1565 C1543 1.420 . S
C1565 C1566 1.351 . S
C1566 H1528 0.930 . S
C1566 C1534 1.423 . S
C1566 C1565 1.351 . S
C1567 O1551 1.276 . S
C1567 O1554 1.235 . S
C1568 C1569 1.393 . S
C1568 C1572 1.395 . S
C1568 C1575 1.492 . S
C1569 C1568 1.393 . S
C1569 C1570 1.392 . S
C1569 H1580 0.930 . S
C1570 C1569 1.392 . S
C1570 C1571 1.386 . S
C1571 C1570 1.386 . S
C1571 C1573 1.395 . S
C1571 H1581 0.930 . S
C1572 C1568 1.395 . S
C1572 C1573 1.379 . S
C1572 H1582 0.930 . S
C1573 C1571 1.395 . S
C1573 C1572 1.379 . S
C1573 H1583 0.930 . S
C1574 O1552 1.264 . S
C1574 O1553 1.254 . S
C1575 Eu1511 2.848 . S
C1575 O1550 1.257 . S
C1575 O1555 1.249 . S
C1575 C1568 1.492 . S
H1576 C1559 0.930 . S
H1577 C1560 0.930 . S
H1578 C1561 0.930 . S
H1579 C1562 0.930 . S
H1580 C1569 0.930 . S
H1581 C1571 0.930 . S
H1582 C1572 0.930 . S
H1583 C1573 0.930 . S
Eu1584 N1615 2.657 . S
Eu1584 N1622 2.609 . S
Eu1584 O1628 2.558 . S
Eu1584 O1629 2.612 . S
Eu1584 O1631 2.339 . S
Eu1584 O1632 2.563 . S
Eu1584 O1633 2.419 . S
Eu1584 O1635 2.380 . S
Eu1584 O1636 2.432 . S
Eu1584 C1648 2.848 . S
C1585 C1588 1.429 . S
C1585 C1589 1.411 . S
C1585 N1592 1.377 . S
C1586 C1588 1.420 . S
C1586 C1590 1.423 . S
C1586 C1598 1.392 . S
C1587 C1589 1.420 . S
C1587 C1590 1.351 . S
C1587 H1610 0.931 . S
C1588 C1585 1.429 . S
C1588 C1586 1.420 . S
C1588 N1596 1.362 . S
C1589 C1585 1.411 . S
C1589 C1587 1.420 . S
C1589 C1594 1.395 . S
C1590 C1586 1.423 . S
C1590 C1587 1.351 . S
C1590 H1602 0.930 . S
C1591 C1593 1.400 . S
C1591 C1594 1.386 . S
C1591 H1603 0.930 . S
N1592 C1585 1.377 . S
N1592 C1593 1.321 . S
N1592 Eu1595 2.609 . S
C1593 C1591 1.400 . S
C1593 N1592 1.321 . S
C1593 H1600 0.930 . S
C1594 C1589 1.395 . S
C1594 C1591 1.386 . S
C1594 H1613 0.930 . S
Eu1595 N1592 2.609 . S
Eu1595 N1596 2.657 . S
Eu1595 O1629 2.380 . S
Eu1595 O1630 2.432 . S
Eu1595 O1634 2.558 . S
Eu1595 O1635 2.612 . S
Eu1595 O1637 2.339 . S
Eu1595 O1638 2.563 . S
Eu1595 O1639 2.419 . S
Eu1595 C1659 2.848 . S
N1596 C1588 1.362 . S
N1596 Eu1595 2.657 . S
N1596 C1597 1.334 . S
C1597 N1596 1.334 . S
C1597 C1599 1.413 . S
C1597 H1604 0.929 . S
C1598 C1586 1.392 . S
C1598 C1599 1.367 . S
C1598 H1606 0.930 . S
C1599 C1597 1.413 . S
C1599 C1598 1.367 . S
C1599 H1601 0.930 . S
H1600 C1593 0.930 . S
H1601 C1599 0.930 . S
H1602 C1590 0.930 . S
H1603 C1591 0.930 . S
H1604 C1597 0.929 . S
H1605 C1619 0.930 . S
H1606 C1598 0.930 . S
H1607 C1625 0.930 . S
H1608 C1616 0.929 . S
H1609 C1623 0.930 . S
H1610 C1587 0.931 . S
H1611 C1617 0.930 . S
H1612 C1650 0.930 . S
H1613 C1594 0.930 . S
H1614 C1649 0.931 . S
N1615 Eu1584 2.657 . S
N1615 C1616 1.334 . S
N1615 C1620 1.362 . S
C1616 H1608 0.929 . S
C1616 N1615 1.334 . S
C1616 C1619 1.413 . S
C1617 H1611 0.930 . S
C1617 C1618 1.392 . S
C1617 C1619 1.367 . S
C1618 C1617 1.392 . S
C1618 C1620 1.420 . S
C1618 C1650 1.423 . S
C1619 H1605 0.930 . S
C1619 C1616 1.413 . S
C1619 C1617 1.367 . S
C1620 N1615 1.362 . S
C1620 C1618 1.420 . S
C1620 C1624 1.429 . S
H1621 C1626 0.930 . S
N1622 Eu1584 2.609 . S
N1622 C1624 1.377 . S
N1622 C1625 1.321 . S
C1623 H1609 0.930 . S
C1623 C1625 1.400 . S
C1623 C1626 1.386 . S
C1624 C1620 1.429 . S
C1624 N1622 1.377 . S
C1624 C1627 1.411 . S
C1625 H1607 0.930 . S
C1625 N1622 1.321 . S
C1625 C1623 1.400 . S
C1626 H1621 0.930 . S
C1626 C1623 1.386 . S
C1626 C1627 1.395 . S
C1627 C1624 1.411 . S
C1627 C1626 1.395 . S
C1627 C1649 1.420 . S
O1628 Eu1584 2.558 . S
O1628 C1648 1.257 . S
O1629 Eu1584 2.612 . S
O1629 Eu1595 2.380 . S
O1629 C1640 1.276 . S
O1630 Eu1595 2.432 . S
O1630 C1647 1.264 . S
O1631 Eu1584 2.339 . S
O1631 C1647 1.254 . S
O1632 Eu1584 2.563 . S
O1632 C1640 1.235 . S
O1633 Eu1584 2.419 . S
O1633 C1648 1.249 . S
O1634 Eu1595 2.558 . S
O1634 C1659 1.257 . S
O1635 Eu1584 2.380 . S
O1635 Eu1595 2.612 . S
O1635 C1651 1.276 . S
O1636 Eu1584 2.432 . S
O1636 C1658 1.264 . S
O1637 Eu1595 2.339 . S
O1637 C1658 1.254 . S
O1638 Eu1595 2.563 . S
O1638 C1651 1.235 . S
O1639 Eu1595 2.419 . S
O1639 C1659 1.249 . S
C1640 O1629 1.276 . S
C1640 O1632 1.235 . S
C1641 C1643 1.393 . S
C1641 C1645 1.395 . S
C1641 C1648 1.492 . S
C1642 C1643 1.392 . S
C1642 C1644 1.386 . S
C1643 C1641 1.393 . S
C1643 C1642 1.392 . S
C1643 H1660 0.930 . S
C1644 C1642 1.386 . S
C1644 C1646 1.395 . S
C1644 H1661 0.930 . S
C1645 C1641 1.395 . S
C1645 C1646 1.379 . S
C1645 H1662 0.930 . S
C1646 C1644 1.395 . S
C1646 C1645 1.379 . S
C1646 H1663 0.930 . S
C1647 O1630 1.264 . S
C1647 O1631 1.254 . S
C1648 Eu1584 2.848 . S
C1648 O1628 1.257 . S
C1648 O1633 1.249 . S
C1648 C1641 1.492 . S
C1649 H1614 0.931 . S
C1649 C1627 1.420 . S
C1649 C1650 1.351 . S
C1650 H1612 0.930 . S
C1650 C1618 1.423 . S
C1650 C1649 1.351 . S
C1651 O1635 1.276 . S
C1651 O1638 1.235 . S
C1652 C1653 1.393 . S
C1652 C1656 1.395 . S
C1652 C1659 1.492 . S
C1653 C1652 1.393 . S
C1653 C1654 1.392 . S
C1653 H1664 0.930 . S
C1654 C1653 1.392 . S
C1654 C1655 1.386 . S
C1655 C1654 1.386 . S
C1655 C1657 1.395 . S
C1655 H1665 0.930 . S
C1656 C1652 1.395 . S
C1656 C1657 1.379 . S
C1656 H1666 0.930 . S
C1657 C1655 1.395 . S
C1657 C1656 1.379 . S
C1657 H1667 0.930 . S
C1658 O1636 1.264 . S
C1658 O1637 1.254 . S
C1659 Eu1595 2.848 . S
C1659 O1634 1.257 . S
C1659 O1639 1.249 . S
C1659 C1652 1.492 . S
H1660 C1643 0.930 . S
H1661 C1644 0.930 . S
H1662 C1645 0.930 . S
H1663 C1646 0.930 . S
H1664 C1653 0.930 . S
H1665 C1655 0.930 . S
H1666 C1656 0.930 . S
H1667 C1657 0.930 . S
Eu1668 N1699 2.657 . S
Eu1668 N1706 2.609 . S
Eu1668 O1712 2.558 . S
Eu1668 O1713 2.612 . S
Eu1668 O1715 2.339 . S
Eu1668 O1716 2.563 . S
Eu1668 O1717 2.419 . S
Eu1668 O1719 2.380 . S
Eu1668 O1720 2.432 . S
Eu1668 C1732 2.848 . S
C1669 C1672 1.429 . S
C1669 C1673 1.411 . S
C1669 N1676 1.377 . S
C1670 C1672 1.420 . S
C1670 C1674 1.423 . S
C1670 C1682 1.392 . S
C1671 C1673 1.420 . S
C1671 C1674 1.351 . S
C1671 H1694 0.931 . S
C1672 C1669 1.429 . S
C1672 C1670 1.420 . S
C1672 N1680 1.362 . S
C1673 C1669 1.411 . S
C1673 C1671 1.420 . S
C1673 C1678 1.395 . S
C1674 C1670 1.423 . S
C1674 C1671 1.351 . S
C1674 H1686 0.930 . S
C1675 C1677 1.400 . S
C1675 C1678 1.386 . S
C1675 H1687 0.930 . S
N1676 C1669 1.377 . S
N1676 C1677 1.321 . S
N1676 Eu1679 2.609 . S
C1677 C1675 1.400 . S
C1677 N1676 1.321 . S
C1677 H1684 0.930 . S
C1678 C1673 1.395 . S
C1678 C1675 1.386 . S
C1678 H1697 0.930 . S
Eu1679 N1676 2.609 . S
Eu1679 N1680 2.657 . S
Eu1679 O1713 2.380 . S
Eu1679 O1714 2.432 . S
Eu1679 O1718 2.558 . S
Eu1679 O1719 2.612 . S
Eu1679 O1721 2.339 . S
Eu1679 O1722 2.563 . S
Eu1679 O1723 2.419 . S
Eu1679 C1743 2.848 . S
N1680 C1672 1.362 . S
N1680 Eu1679 2.657 . S
N1680 C1681 1.334 . S
C1681 N1680 1.334 . S
C1681 C1683 1.413 . S
C1681 H1688 0.929 . S
C1682 C1670 1.392 . S
C1682 C1683 1.367 . S
C1682 H1690 0.930 . S
C1683 C1681 1.413 . S
C1683 C1682 1.367 . S
C1683 H1685 0.930 . S
H1684 C1677 0.930 . S
H1685 C1683 0.930 . S
H1686 C1674 0.930 . S
H1687 C1675 0.930 . S
H1688 C1681 0.929 . S
H1689 C1703 0.930 . S
H1690 C1682 0.930 . S
H1691 C1709 0.930 . S
H1692 C1700 0.929 . S
H1693 C1707 0.930 . S
H1694 C1671 0.931 . S
H1695 C1701 0.930 . S
H1696 C1734 0.930 . S
H1697 C1678 0.930 . S
H1698 C1733 0.931 . S
N1699 Eu1668 2.657 . S
N1699 C1700 1.334 . S
N1699 C1704 1.362 . S
C1700 H1692 0.929 . S
C1700 N1699 1.334 . S
C1700 C1703 1.413 . S
C1701 H1695 0.930 . S
C1701 C1702 1.392 . S
C1701 C1703 1.367 . S
C1702 C1701 1.392 . S
C1702 C1704 1.420 . S
C1702 C1734 1.423 . S
C1703 H1689 0.930 . S
C1703 C1700 1.413 . S
C1703 C1701 1.367 . S
C1704 N1699 1.362 . S
C1704 C1702 1.420 . S
C1704 C1708 1.429 . S
H1705 C1710 0.930 . S
N1706 Eu1668 2.609 . S
N1706 C1708 1.377 . S
N1706 C1709 1.321 . S
C1707 H1693 0.930 . S
C1707 C1709 1.400 . S
C1707 C1710 1.386 . S
C1708 C1704 1.429 . S
C1708 N1706 1.377 . S
C1708 C1711 1.411 . S
C1709 H1691 0.930 . S
C1709 N1706 1.321 . S
C1709 C1707 1.400 . S
C1710 H1705 0.930 . S
C1710 C1707 1.386 . S
C1710 C1711 1.395 . S
C1711 C1708 1.411 . S
C1711 C1710 1.395 . S
C1711 C1733 1.420 . S
O1712 Eu1668 2.558 . S
O1712 C1732 1.257 . S
O1713 Eu1668 2.612 . S
O1713 Eu1679 2.380 . S
O1713 C1724 1.276 . S
O1714 Eu1679 2.432 . S
O1714 C1731 1.264 . S
O1715 Eu1668 2.339 . S
O1715 C1731 1.254 . S
O1716 Eu1668 2.563 . S
O1716 C1724 1.235 . S
O1717 Eu1668 2.419 . S
O1717 C1732 1.249 . S
O1718 Eu1679 2.558 . S
O1718 C1743 1.257 . S
O1719 Eu1668 2.380 . S
O1719 Eu1679 2.612 . S
O1719 C1735 1.276 . S
O1720 Eu1668 2.432 . S
O1720 C1742 1.264 . S
O1721 Eu1679 2.339 . S
O1721 C1742 1.254 . S
O1722 Eu1679 2.563 . S
O1722 C1735 1.235 . S
O1723 Eu1679 2.419 . S
O1723 C1743 1.249 . S
C1724 O1713 1.276 . S
C1724 O1716 1.235 . S
C1725 C1727 1.393 . S
C1725 C1729 1.395 . S
C1725 C1732 1.492 . S
C1726 C1727 1.392 . S
C1726 C1728 1.386 . S
C1727 C1725 1.393 . S
C1727 C1726 1.392 . S
C1727 H1744 0.930 . S
C1728 C1726 1.386 . S
C1728 C1730 1.395 . S
C1728 H1745 0.930 . S
C1729 C1725 1.395 . S
C1729 C1730 1.379 . S
C1729 H1746 0.930 . S
C1730 C1728 1.395 . S
C1730 C1729 1.379 . S
C1730 H1747 0.930 . S
C1731 O1714 1.264 . S
C1731 O1715 1.254 . S
C1732 Eu1668 2.848 . S
C1732 O1712 1.257 . S
C1732 O1717 1.249 . S
C1732 C1725 1.492 . S
C1733 H1698 0.931 . S
C1733 C1711 1.420 . S
C1733 C1734 1.351 . S
C1734 H1696 0.930 . S
C1734 C1702 1.423 . S
C1734 C1733 1.351 . S
C1735 O1719 1.276 . S
C1735 O1722 1.235 . S
C1736 C1737 1.393 . S
C1736 C1740 1.395 . S
C1736 C1743 1.492 . S
C1737 C1736 1.393 . S
C1737 C1738 1.392 . S
C1737 H1748 0.930 . S
C1738 C1737 1.392 . S
C1738 C1739 1.386 . S
C1739 C1738 1.386 . S
C1739 C1741 1.395 . S
C1739 H1749 0.930 . S
C1740 C1736 1.395 . S
C1740 C1741 1.379 . S
C1740 H1750 0.930 . S
C1741 C1739 1.395 . S
C1741 C1740 1.379 . S
C1741 H1751 0.930 . S
C1742 O1720 1.264 . S
C1742 O1721 1.254 . S
C1743 Eu1679 2.848 . S
C1743 O1718 1.257 . S
C1743 O1723 1.249 . S
C1743 C1736 1.492 . S
H1744 C1727 0.930 . S
H1745 C1728 0.930 . S
H1746 C1729 0.930 . S
H1747 C1730 0.930 . S
H1748 C1737 0.930 . S
H1749 C1739 0.930 . S
H1750 C1740 0.930 . S
H1751 C1741 0.930 . S
Eu1752 N1783 2.657 . S
Eu1752 N1790 2.609 . S
Eu1752 O1796 2.558 . S
Eu1752 O1797 2.612 . S
Eu1752 O1799 2.339 . S
Eu1752 O1800 2.563 . S
Eu1752 O1801 2.419 . S
Eu1752 O1803 2.380 . S
Eu1752 O1804 2.432 . S
Eu1752 C1816 2.848 . S
C1753 C1756 1.429 . S
C1753 C1757 1.411 . S
C1753 N1760 1.377 . S
C1754 C1756 1.420 . S
C1754 C1758 1.423 . S
C1754 C1766 1.392 . S
C1755 C1757 1.420 . S
C1755 C1758 1.351 . S
C1755 H1778 0.931 . S
C1756 C1753 1.429 . S
C1756 C1754 1.420 . S
C1756 N1764 1.362 . S
C1757 C1753 1.411 . S
C1757 C1755 1.420 . S
C1757 C1762 1.395 . S
C1758 C1754 1.423 . S
C1758 C1755 1.351 . S
C1758 H1770 0.930 . S
C1759 C1761 1.400 . S
C1759 C1762 1.386 . S
C1759 H1771 0.930 . S
N1760 C1753 1.377 . S
N1760 C1761 1.321 . S
N1760 Eu1763 2.609 . S
C1761 C1759 1.400 . S
C1761 N1760 1.321 . S
C1761 H1768 0.930 . S
C1762 C1757 1.395 . S
C1762 C1759 1.386 . S
C1762 H1781 0.930 . S
Eu1763 N1760 2.609 . S
Eu1763 N1764 2.657 . S
Eu1763 O1797 2.380 . S
Eu1763 O1798 2.432 . S
Eu1763 O1802 2.558 . S
Eu1763 O1803 2.612 . S
Eu1763 O1805 2.339 . S
Eu1763 O1806 2.563 . S
Eu1763 O1807 2.419 . S
Eu1763 C1827 2.848 . S
N1764 C1756 1.362 . S
N1764 Eu1763 2.657 . S
N1764 C1765 1.334 . S
C1765 N1764 1.334 . S
C1765 C1767 1.413 . S
C1765 H1772 0.929 . S
C1766 C1754 1.392 . S
C1766 C1767 1.367 . S
C1766 H1774 0.930 . S
C1767 C1765 1.413 . S
C1767 C1766 1.367 . S
C1767 H1769 0.930 . S
H1768 C1761 0.930 . S
H1769 C1767 0.930 . S
H1770 C1758 0.930 . S
H1771 C1759 0.930 . S
H1772 C1765 0.929 . S
H1773 C1787 0.930 . S
H1774 C1766 0.930 . S
H1775 C1793 0.930 . S
H1776 C1784 0.929 . S
H1777 C1791 0.930 . S
H1778 C1755 0.931 . S
H1779 C1785 0.930 . S
H1780 C1818 0.930 . S
H1781 C1762 0.930 . S
H1782 C1817 0.931 . S
N1783 Eu1752 2.657 . S
N1783 C1784 1.334 . S
N1783 C1788 1.362 . S
C1784 H1776 0.929 . S
C1784 N1783 1.334 . S
C1784 C1787 1.413 . S
C1785 H1779 0.930 . S
C1785 C1786 1.392 . S
C1785 C1787 1.367 . S
C1786 C1785 1.392 . S
C1786 C1788 1.420 . S
C1786 C1818 1.423 . S
C1787 H1773 0.930 . S
C1787 C1784 1.413 . S
C1787 C1785 1.367 . S
C1788 N1783 1.362 . S
C1788 C1786 1.420 . S
C1788 C1792 1.429 . S
H1789 C1794 0.930 . S
N1790 Eu1752 2.609 . S
N1790 C1792 1.377 . S
N1790 C1793 1.321 . S
C1791 H1777 0.930 . S
C1791 C1793 1.400 . S
C1791 C1794 1.386 . S
C1792 C1788 1.429 . S
C1792 N1790 1.377 . S
C1792 C1795 1.411 . S
C1793 H1775 0.930 . S
C1793 N1790 1.321 . S
C1793 C1791 1.400 . S
C1794 H1789 0.930 . S
C1794 C1791 1.386 . S
C1794 C1795 1.395 . S
C1795 C1792 1.411 . S
C1795 C1794 1.395 . S
C1795 C1817 1.420 . S
O1796 Eu1752 2.558 . S
O1796 C1816 1.257 . S
O1797 Eu1752 2.612 . S
O1797 Eu1763 2.380 . S
O1797 C1808 1.276 . S
O1798 Eu1763 2.432 . S
O1798 C1815 1.264 . S
O1799 Eu1752 2.339 . S
O1799 C1815 1.254 . S
O1800 Eu1752 2.563 . S
O1800 C1808 1.235 . S
O1801 Eu1752 2.419 . S
O1801 C1816 1.249 . S
O1802 Eu1763 2.558 . S
O1802 C1827 1.257 . S
O1803 Eu1752 2.380 . S
O1803 Eu1763 2.612 . S
O1803 C1819 1.276 . S
O1804 Eu1752 2.432 . S
O1804 C1826 1.264 . S
O1805 Eu1763 2.339 . S
O1805 C1826 1.254 . S
O1806 Eu1763 2.563 . S
O1806 C1819 1.235 . S
O1807 Eu1763 2.419 . S
O1807 C1827 1.249 . S
C1808 O1797 1.276 . S
C1808 O1800 1.235 . S
C1809 C1811 1.393 . S
C1809 C1813 1.395 . S
C1809 C1816 1.492 . S
C1810 C1811 1.392 . S
C1810 C1812 1.386 . S
C1811 C1809 1.393 . S
C1811 C1810 1.392 . S
C1811 H1828 0.930 . S
C1812 C1810 1.386 . S
C1812 C1814 1.395 . S
C1812 H1829 0.930 . S
C1813 C1809 1.395 . S
C1813 C1814 1.379 . S
C1813 H1830 0.930 . S
C1814 C1812 1.395 . S
C1814 C1813 1.379 . S
C1814 H1831 0.930 . S
C1815 O1798 1.264 . S
C1815 O1799 1.254 . S
C1816 Eu1752 2.848 . S
C1816 O1796 1.257 . S
C1816 O1801 1.249 . S
C1816 C1809 1.492 . S
C1817 H1782 0.931 . S
C1817 C1795 1.420 . S
C1817 C1818 1.351 . S
C1818 H1780 0.930 . S
C1818 C1786 1.423 . S
C1818 C1817 1.351 . S
C1819 O1803 1.276 . S
C1819 O1806 1.235 . S
C1820 C1821 1.393 . S
C1820 C1824 1.395 . S
C1820 C1827 1.492 . S
C1821 C1820 1.393 . S
C1821 C1822 1.392 . S
C1821 H1832 0.930 . S
C1822 C1821 1.392 . S
C1822 C1823 1.386 . S
C1823 C1822 1.386 . S
C1823 C1825 1.395 . S
C1823 H1833 0.930 . S
C1824 C1820 1.395 . S
C1824 C1825 1.379 . S
C1824 H1834 0.930 . S
C1825 C1823 1.395 . S
C1825 C1824 1.379 . S
C1825 H1835 0.930 . S
C1826 O1804 1.264 . S
C1826 O1805 1.254 . S
C1827 Eu1763 2.848 . S
C1827 O1802 1.257 . S
C1827 O1807 1.249 . S
C1827 C1820 1.492 . S
H1828 C1811 0.930 . S
H1829 C1812 0.930 . S
H1830 C1813 0.930 . S
H1831 C1814 0.930 . S
H1832 C1821 0.930 . S
H1833 C1823 0.930 . S
H1834 C1824 0.930 . S
H1835 C1825 0.930 . S
C1836 C1837 1.363 . S
C1836 C1842 1.379 . S
C1836 N1844 1.356 . S
C1837 C1836 1.363 . S
C1837 C1843 1.363 . S
C1838 C1839 1.363 . S
C1838 C1843 1.379 . S
C1838 N1845 1.356 . S
C1839 C1838 1.363 . S
C1839 C1842 1.363 . S
N1840 C1842 1.356 . S
N1840 H1852 0.984 . S
N1840 H1853 0.985 . S
N1841 C1843 1.356 . S
N1841 H1846 0.984 . S
N1841 H1847 0.985 . S
C1842 C1836 1.379 . S
C1842 C1839 1.363 . S
C1842 N1840 1.356 . S
C1843 C1837 1.363 . S
C1843 C1838 1.379 . S
C1843 N1841 1.356 . S
N1844 C1836 1.356 . S
N1844 H1850 0.984 . S
N1844 H1851 0.984 . S
N1845 C1838 1.356 . S
N1845 H1848 0.984 1_554 S
N1845 H1849 0.985 1_554 S
H1846 N1841 0.984 . S
H1847 N1841 0.985 . S
H1848 N1845 0.984 1_556 S
H1849 N1845 0.985 1_556 S
H1850 N1844 0.984 . S
H1851 N1844 0.984 . S
H1852 N1840 0.984 . S
H1853 N1840 0.985 . S
C1854 C1855 1.363 . S
C1854 C1860 1.379 . S
C1854 N1862 1.356 . S
C1855 C1854 1.363 . S
C1855 C1861 1.363 . S
C1856 C1857 1.363 . S
C1856 C1861 1.379 . S
C1856 N1863 1.356 . S
C1857 C1856 1.363 . S
C1857 C1860 1.363 . S
N1858 C1860 1.356 . S
N1858 H1870 0.984 . S
N1858 H1871 0.985 . S
N1859 C1861 1.356 . S
N1859 H1864 0.984 . S
N1859 H1865 0.985 . S
C1860 C1854 1.379 . S
C1860 C1857 1.363 . S
C1860 N1858 1.356 . S
C1861 C1855 1.363 . S
C1861 C1856 1.379 . S
C1861 N1859 1.356 . S
N1862 C1854 1.356 . S
N1862 H1868 0.984 . S
N1862 H1869 0.984 . S
N1863 C1856 1.356 . S
N1863 H1866 0.984 . S
N1863 H1867 0.985 . S
H1864 N1859 0.984 . S
H1865 N1859 0.985 . S
H1866 N1863 0.984 . S
H1867 N1863 0.985 . S
H1868 N1862 0.984 . S
H1869 N1862 0.984 . S
H1870 N1858 0.984 . S
H1871 N1858 0.985 . S
C1872 C1873 1.363 . S
C1872 C1878 1.379 . S
C1872 N1880 1.356 . S
C1873 C1872 1.363 . S
C1873 C1879 1.363 . S
C1874 C1875 1.363 . S
C1874 C1879 1.379 . S
C1874 N1881 1.356 . S
C1875 C1874 1.363 . S
C1875 C1878 1.363 . S
N1876 C1878 1.356 . S
N1876 H1888 0.984 . S
N1876 H1889 0.985 . S
N1877 C1879 1.356 . S
N1877 H1882 0.984 . S
N1877 H1883 0.985 . S
C1878 C1872 1.379 . S
C1878 C1875 1.363 . S
C1878 N1876 1.356 . S
C1879 C1873 1.363 . S
C1879 C1874 1.379 . S
C1879 N1877 1.356 . S
N1880 C1872 1.356 . S
N1880 H1886 0.984 . S
N1880 H1887 0.984 . S
N1881 C1874 1.356 . S
N1881 H1884 0.984 . S
N1881 H1885 0.985 1_554 S
H1882 N1877 0.984 . S
H1883 N1877 0.985 . S
H1884 N1881 0.984 . S
H1885 N1881 0.985 1_556 S
H1886 N1880 0.984 . S
H1887 N1880 0.984 . S
H1888 N1876 0.984 . S
H1889 N1876 0.985 . S
C1890 C1891 1.363 . S
C1890 C1896 1.379 . S
C1890 N1898 1.356 . S
C1891 C1890 1.363 . S
C1891 C1897 1.363 . S
C1892 C1893 1.363 . S
C1892 C1897 1.379 . S
C1892 N1899 1.356 . S
C1893 C1892 1.363 . S
C1893 C1896 1.363 . S
N1894 C1896 1.378 . S
N1894 H1906 0.966 1_556 S
N1894 H1907 0.980 1_556 S
N1895 C1897 1.356 . S
N1895 H1900 0.984 . S
N1895 H1901 0.985 . S
C1896 C1890 1.379 . S
C1896 C1893 1.363 . S
C1896 N1894 1.378 . S
C1897 C1891 1.363 . S
C1897 C1892 1.379 . S
C1897 N1895 1.356 . S
N1898 C1890 1.356 . S
N1898 H1904 0.984 . S
N1898 H1905 0.984 . S
N1899 C1892 1.356 . S
N1899 H1902 0.984 . S
N1899 H1903 0.985 . S
H1900 N1895 0.984 . S
H1901 N1895 0.985 . S
H1902 N1899 0.984 . S
H1903 N1899 0.985 . S
H1904 N1898 0.984 . S
H1905 N1898 0.984 . S
H1906 N1894 0.966 1_554 S
H1907 N1894 0.980 1_554 S
C1908 C1909 1.363 . S
C1908 C1914 1.379 . S
C1908 N1916 1.356 . S
C1909 C1908 1.363 . S
C1909 C1915 1.363 . S
C1910 C1911 1.363 . S
C1910 C1915 1.379 . S
C1910 N1917 1.356 . S
C1911 C1910 1.363 . S
C1911 C1914 1.363 . S
N1912 C1914 1.353 1_554 S
N1912 H1924 0.987 . S
N1912 H1925 0.985 . S
N1913 C1915 1.356 . S
N1913 H1918 0.984 . S
N1913 H1919 0.985 . S
C1914 C1908 1.379 . S
C1914 C1911 1.363 . S
C1914 N1912 1.353 1_556 S
C1915 C1909 1.363 . S
C1915 C1910 1.379 . S
C1915 N1913 1.356 . S
N1916 C1908 1.356 . S
N1916 H1922 0.984 . S
N1916 H1923 0.984 . S
N1917 C1910 1.356 . S
N1917 H1920 0.984 . S
N1917 H1921 0.985 . S
H1918 N1913 0.984 . S
H1919 N1913 0.985 . S
H1920 N1917 0.984 . S
H1921 N1917 0.985 . S
H1922 N1916 0.984 . S
H1923 N1916 0.984 . S
H1924 N1912 0.987 . S
H1925 N1912 0.985 . S
C1926 C1927 1.363 . S
C1926 C1932 1.379 . S
C1926 N1934 1.356 . S
C1927 C1926 1.363 . S
C1927 C1933 1.363 . S
C1928 C1929 1.363 . S
C1928 C1933 1.379 . S
C1928 N1935 1.356 . S
C1929 C1928 1.363 . S
C1929 C1932 1.363 . S
N1930 C1932 1.356 . S
N1930 H1942 0.984 1_556 S
N1930 H1943 0.987 . S
N1931 C1933 1.356 . S
N1931 H1936 0.984 . S
N1931 H1937 0.985 . S
C1932 C1926 1.379 . S
C1932 C1929 1.363 . S
C1932 N1930 1.356 . S
C1933 C1927 1.363 . S
C1933 C1928 1.379 . S
C1933 N1931 1.356 . S
N1934 C1926 1.356 . S
N1934 H1940 0.984 . S
N1934 H1941 0.984 . S
N1935 C1928 1.356 . S
N1935 H1938 0.984 . S
N1935 H1939 0.985 . S
H1936 N1931 0.984 . S
H1937 N1931 0.985 . S
H1938 N1935 0.984 . S
H1939 N1935 0.985 . S
H1940 N1934 0.984 . S
H1941 N1934 0.984 . S
H1942 N1930 0.984 1_554 S
H1943 N1930 0.987 . S
C1944 C1945 1.363 . S
C1944 C1950 1.379 . S
C1944 N1952 1.356 . S
C1945 C1944 1.363 . S
C1945 C1951 1.363 . S
C1946 C1947 1.363 . S
C1946 C1951 1.379 . S
C1946 N1953 1.356 . S
C1947 C1946 1.363 . S
C1947 C1950 1.363 . S
N1948 C1950 1.356 1_554 S
N1948 H1960 0.984 . S
N1948 H1961 0.985 . S
N1949 C1951 1.356 . S
N1949 H1954 0.984 . S
N1949 H1955 0.985 . S
C1950 C1944 1.379 . S
C1950 C1947 1.363 . S
C1950 N1948 1.356 1_556 S
C1951 C1945 1.363 . S
C1951 C1946 1.379 . S
C1951 N1949 1.356 . S
N1952 C1944 1.356 . S
N1952 H1958 0.984 . S
N1952 H1959 0.984 . S
N1953 C1946 1.356 . S
N1953 H1956 0.984 . S
N1953 H1957 0.985 . S
H1954 N1949 0.984 . S
H1955 N1949 0.985 . S
H1956 N1953 0.984 . S
H1957 N1953 0.985 . S
H1958 N1952 0.984 . S
H1959 N1952 0.984 . S
H1960 N1948 0.984 . S
H1961 N1948 0.985 . S
C1962 C1963 1.363 . S
C1962 C1968 1.379 . S
C1962 N1970 1.356 . S
C1963 C1962 1.363 . S
C1963 C1969 1.363 . S
C1964 C1965 1.363 . S
C1964 C1969 1.379 . S
C1964 N1971 1.356 1_556 S
C1965 C1964 1.363 . S
C1965 C1968 1.363 . S
N1966 C1968 1.356 . S
N1966 H1978 0.984 . S
N1966 H1979 0.985 . S
N1967 C1969 1.356 . S
N1967 H1972 0.984 . S
N1967 H1973 0.985 1_556 S
C1968 C1962 1.379 . S
C1968 C1965 1.363 . S
C1968 N1966 1.356 . S
C1969 C1963 1.363 . S
C1969 C1964 1.379 . S
C1969 N1967 1.356 . S
N1970 C1962 1.356 . S
N1970 H1976 0.984 . S
N1970 H1977 0.984 . S
N1971 C1964 1.356 1_554 S
N1971 H1974 0.984 . S
N1971 H1975 0.985 . S
H1972 N1967 0.984 . S
H1973 N1967 0.985 1_554 S
H1974 N1971 0.984 . S
H1975 N1971 0.985 . S
H1976 N1970 0.984 . S
H1977 N1970 0.984 . S
H1978 N1966 0.984 . S
H1979 N1966 0.985 . S
C1980 C1981 1.363 . S
C1980 C1986 1.379 . S
C1980 N1988 1.356 . S
C1981 C1980 1.363 . S
C1981 C1987 1.363 . S
C1982 C1983 1.363 . S
C1982 C1987 1.379 . S
C1982 N1989 1.356 . S
C1983 C1982 1.363 . S
C1983 C1986 1.363 . S
N1984 C1986 1.356 1_554 S
N1984 H1996 0.984 . S
N1984 H1997 0.985 . S
N1985 C1987 1.356 . S
N1985 H1990 0.984 . S
N1985 H1991 0.985 . S
C1986 C1980 1.379 . S
C1986 C1983 1.363 . S
C1986 N1984 1.356 1_556 S
C1987 C1981 1.363 . S
C1987 C1982 1.379 . S
C1987 N1985 1.356 . S
N1988 C1980 1.356 . S
N1988 H1994 0.984 1_556 S
N1988 H1995 0.984 . S
N1989 C1982 1.356 . S
N1989 H1992 0.984 . S
N1989 H1993 0.985 . S
H1990 N1985 0.984 . S
H1991 N1985 0.985 . S
H1992 N1989 0.984 . S
H1993 N1989 0.985 . S
H1994 N1988 0.984 1_554 S
H1995 N1988 0.984 . S
H1996 N1984 0.984 . S
H1997 N1984 0.985 . S
C1998 C1999 1.363 . S
C1998 C2004 1.379 . S
C1998 N2006 1.356 . S
C1999 C1998 1.363 . S
C1999 C2005 1.363 . S
C2000 C2001 1.363 . S
C2000 C2005 1.379 . S
C2000 N2007 1.356 . S
C2001 C2000 1.363 . S
C2001 C2004 1.363 . S
N2002 C2004 1.356 . S
N2002 H2014 0.984 . S
N2002 H2015 0.985 . S
N2003 C2005 1.356 . S
N2003 H2008 0.984 . S
N2003 H2009 0.985 . S
C2004 C1998 1.379 . S
C2004 C2001 1.363 . S
C2004 N2002 1.356 . S
C2005 C1999 1.363 . S
C2005 C2000 1.379 . S
C2005 N2003 1.356 . S
N2006 C1998 1.356 . S
N2006 H2012 0.984 . S
N2006 H2013 0.984 . S
N2007 C2000 1.356 . S
N2007 H2010 0.984 . S
N2007 H2011 0.967 1_554 S
H2008 N2003 0.984 . S
H2009 N2003 0.985 . S
H2010 N2007 0.984 . S
H2011 N2007 0.967 1_556 S
H2012 N2006 0.984 . S
H2013 N2006 0.984 . S
H2014 N2002 0.984 . S
H2015 N2002 0.985 . S
C2016 C2017 1.363 . S
C2016 C2022 1.379 . S
C2016 N2024 1.356 . S
C2017 C2016 1.363 . S
C2017 C2023 1.363 . S
C2018 C2019 1.363 . S
C2018 C2023 1.379 . S
C2018 N2025 1.356 . S
C2019 C2018 1.363 . S
C2019 C2022 1.363 . S
N2020 C2022 1.356 1_556 S
N2020 H2032 0.984 . S
N2020 H2033 0.985 . S
N2021 C2023 1.356 . S
N2021 H2026 0.984 . S
N2021 H2027 0.985 . S
C2022 C2016 1.379 . S
C2022 C2019 1.363 . S
C2022 N2020 1.356 1_554 S
C2023 C2017 1.363 . S
C2023 C2018 1.379 . S
C2023 N2021 1.356 . S
N2024 C2016 1.356 . S
N2024 H2030 0.984 1_554 S
N2024 H2031 0.984 . S
N2025 C2018 1.356 . S
N2025 H2028 0.984 . S
N2025 H2029 0.985 . S
H2026 N2021 0.984 . S
H2027 N2021 0.985 . S
H2028 N2025 0.984 . S
H2029 N2025 0.985 . S
H2030 N2024 0.984 1_556 S
H2031 N2024 0.984 . S
H2032 N2020 0.984 . S
H2033 N2020 0.985 . S
C2034 C2035 1.363 . S
C2034 C2040 1.379 . S
C2034 N2042 1.356 . S
C2035 C2034 1.363 . S
C2035 C2041 1.363 . S
C2036 C2037 1.363 . S
C2036 C2041 1.379 . S
C2036 N2043 1.356 1_554 S
C2037 C2036 1.363 . S
C2037 C2040 1.363 . S
N2038 C2040 1.356 . S
N2038 H2050 0.984 . S
N2038 H2051 0.985 . S
N2039 C2041 1.356 . S
N2039 H2044 0.984 . S
N2039 H2045 0.985 1_554 S
C2040 C2034 1.379 . S
C2040 C2037 1.363 . S
C2040 N2038 1.356 . S
C2041 C2035 1.363 . S
C2041 C2036 1.379 . S
C2041 N2039 1.356 . S
N2042 C2034 1.356 . S
N2042 H2048 0.984 . S
N2042 H2049 0.984 . S
N2043 C2036 1.356 1_556 S
N2043 H2046 0.984 . S
N2043 H2047 0.985 . S
H2044 N2039 0.984 . S
H2045 N2039 0.985 1_556 S
H2046 N2043 0.984 . S
H2047 N2043 0.985 . S
H2048 N2042 0.984 . S
H2049 N2042 0.984 . S
H2050 N2038 0.984 . S
H2051 N2038 0.985 . S
C2052 C2053 1.363 . S
C2052 C2058 1.379 . S
C2052 N2060 1.356 . S
C2053 C2052 1.363 . S
C2053 C2059 1.363 . S
C2054 C2055 1.363 . S
C2054 C2059 1.379 . S
C2054 N2061 1.356 . S
C2055 C2054 1.363 . S
C2055 C2058 1.363 . S
N2056 C2058 1.356 . S
N2056 H2068 0.984 . S
N2056 H2069 0.985 . S
N2057 C2059 1.356 . S
N2057 H2062 0.984 1_455 S
N2057 H2063 0.985 . S
C2058 C2052 1.379 . S
C2058 C2055 1.363 . S
C2058 N2056 1.356 . S
C2059 C2053 1.363 . S
C2059 C2054 1.379 . S
C2059 N2057 1.356 . S
N2060 C2052 1.356 . S
N2060 H2066 0.984 . S
N2060 H2067 0.977 1_455 S
N2061 C2054 1.356 . S
N2061 H2064 0.984 . S
N2061 H2065 0.985 . S
H2062 N2057 0.984 1_655 S
H2063 N2057 0.985 . S
H2064 N2061 0.984 . S
H2065 N2061 0.985 . S
H2066 N2060 0.984 . S
H2067 N2060 0.977 1_655 S
H2068 N2056 0.984 . S
H2069 N2056 0.985 . S
C2070 C2071 1.363 . S
C2070 C2076 1.379 . S
C2070 N2078 1.356 . S
C2071 C2070 1.363 . S
C2071 C2077 1.363 . S
C2072 C2073 1.363 . S
C2072 C2077 1.379 . S
C2072 N2079 1.356 . S
C2073 C2072 1.363 . S
C2073 C2076 1.363 . S
N2074 C2076 1.356 . S
N2074 H2086 0.984 . S
N2074 H2087 0.985 . S
N2075 C2077 1.356 . S
N2075 H2080 0.984 . S
N2075 H2081 0.985 . S
C2076 C2070 1.379 . S
C2076 C2073 1.363 . S
C2076 N2074 1.356 . S
C2077 C2071 1.363 . S
C2077 C2072 1.379 . S
C2077 N2075 1.356 . S
N2078 C2070 1.356 . S
N2078 H2084 0.984 . S
N2078 H2085 0.984 . S
N2079 C2072 1.356 . S
N2079 H2082 0.984 . S
N2079 H2083 0.985 . S
H2080 N2075 0.984 . S
H2081 N2075 0.985 . S
H2082 N2079 0.984 . S
H2083 N2079 0.985 . S
H2084 N2078 0.984 . S
H2085 N2078 0.984 . S
H2086 N2074 0.984 . S
H2087 N2074 0.985 . S
C2088 C2089 1.363 . S
C2088 C2094 1.379 . S
C2088 N2096 1.339 1_565 S
C2089 C2088 1.363 . S
C2089 C2095 1.363 . S
C2090 C2091 1.363 . S
C2090 C2095 1.379 . S
C2090 N2097 1.356 . S
C2091 C2090 1.363 . S
C2091 C2094 1.363 . S
N2092 C2094 1.356 . S
N2092 H2104 0.984 . S
N2092 H2105 0.985 . S
N2093 C2095 1.356 . S
N2093 H2098 0.984 1_565 S
N2093 H2099 0.985 . S
C2094 C2088 1.379 . S
C2094 C2091 1.363 . S
C2094 N2092 1.356 . S
C2095 C2089 1.363 . S
C2095 C2090 1.379 . S
C2095 N2093 1.356 . S
N2096 C2088 1.339 1_545 S
N2096 H2102 0.997 1_545 S
N2096 H2103 0.996 . S
N2097 C2090 1.356 . S
N2097 H2100 0.984 . S
N2097 H2101 0.985 . S
H2098 N2093 0.984 1_545 S
H2099 N2093 0.985 . S
H2100 N2097 0.984 . S
H2101 N2097 0.985 . S
H2102 N2096 0.997 1_565 S
H2103 N2096 0.996 . S
H2104 N2092 0.984 . S
H2105 N2092 0.985 . S
C2106 C2107 1.363 . S
C2106 C2112 1.379 . S
C2106 N2114 1.356 . S
C2107 C2106 1.363 . S
C2107 C2113 1.363 . S
C2108 C2109 1.363 . S
C2108 C2113 1.379 . S
C2108 N2115 1.356 . S
C2109 C2108 1.363 . S
C2109 C2112 1.363 . S
N2110 C2112 1.356 . S
N2110 H2122 0.984 . S
N2110 H2123 0.985 . S
N2111 C2113 1.356 . S
N2111 H2116 0.984 . S
N2111 H2117 0.985 . S
C2112 C2106 1.379 . S
C2112 C2109 1.363 . S
C2112 N2110 1.356 . S
C2113 C2107 1.363 . S
C2113 C2108 1.379 . S
C2113 N2111 1.356 . S
N2114 C2106 1.356 . S
N2114 H2120 0.984 . S
N2114 H2121 0.984 . S
N2115 C2108 1.356 . S
N2115 H2118 0.984 . S
N2115 H2119 0.985 . S
H2116 N2111 0.984 . S
H2117 N2111 0.985 . S
H2118 N2115 0.984 . S
H2119 N2115 0.985 . S
H2120 N2114 0.984 . S
H2121 N2114 0.984 . S
H2122 N2110 0.984 . S
H2123 N2110 0.985 . S
C2124 C2125 1.363 . S
C2124 C2130 1.379 . S
C2124 N2132 1.356 . S
C2125 C2124 1.363 . S
C2125 C2131 1.363 . S
C2126 C2127 1.363 . S
C2126 C2131 1.379 . S
C2126 N2133 1.356 . S
C2127 C2126 1.363 . S
C2127 C2130 1.363 . S
N2128 C2130 1.356 . S
N2128 H2140 0.984 . S
N2128 H2141 0.985 . S
N2129 C2131 1.356 . S
N2129 H2134 0.984 . S
N2129 H2135 0.985 . S
C2130 C2124 1.379 . S
C2130 C2127 1.363 . S
C2130 N2128 1.356 . S
C2131 C2125 1.363 . S
C2131 C2126 1.379 . S
C2131 N2129 1.356 . S
N2132 C2124 1.356 . S
N2132 H2138 0.984 . S
N2132 H2139 0.984 . S
N2133 C2126 1.356 . S
N2133 H2136 0.984 . S
N2133 H2137 0.985 . S
H2134 N2129 0.984 . S
H2135 N2129 0.985 . S
H2136 N2133 0.984 . S
H2137 N2133 0.985 . S
H2138 N2132 0.984 . S
H2139 N2132 0.984 . S
H2140 N2128 0.984 . S
H2141 N2128 0.985 . S
C2142 C2143 1.363 . S
C2142 C2148 1.379 . S
C2142 N2150 1.356 . S
C2143 C2142 1.363 . S
C2143 C2149 1.363 . S
C2144 C2145 1.363 . S
C2144 C2149 1.379 . S
C2144 N2151 1.356 . S
C2145 C2144 1.363 . S
C2145 C2148 1.363 . S
N2146 C2148 1.356 . S
N2146 H2158 0.984 . S
N2146 H2159 0.985 . S
N2147 C2149 1.356 . S
N2147 H2152 0.984 . S
N2147 H2153 0.985 . S
C2148 C2142 1.379 . S
C2148 C2145 1.363 . S
C2148 N2146 1.356 . S
C2149 C2143 1.363 . S
C2149 C2144 1.379 . S
C2149 N2147 1.356 . S
N2150 C2142 1.356 . S
N2150 H2156 0.984 . S
N2150 H2157 0.984 . S
N2151 C2144 1.356 . S
N2151 H2154 0.984 . S
N2151 H2155 0.985 . S
H2152 N2147 0.984 . S
H2153 N2147 0.985 . S
H2154 N2151 0.984 . S
H2155 N2151 0.985 . S
H2156 N2150 0.984 . S
H2157 N2150 0.984 . S
H2158 N2146 0.984 . S
H2159 N2146 0.985 . S
C2160 C2161 1.363 . S
C2160 C2166 1.379 . S
C2160 N2168 1.356 . S
C2161 C2160 1.363 . S
C2161 C2167 1.363 . S
C2162 C2163 1.363 . S
C2162 C2167 1.379 . S
C2162 N2169 1.356 . S
C2163 C2162 1.363 . S
C2163 C2166 1.363 . S
N2164 C2166 1.356 . S
N2164 H2176 0.984 . S
N2164 H2177 0.985 . S
N2165 C2167 1.356 . S
N2165 H2170 0.984 . S
N2165 H2171 0.985 . S
C2166 C2160 1.379 . S
C2166 C2163 1.363 . S
C2166 N2164 1.356 . S
C2167 C2161 1.363 . S
C2167 C2162 1.379 . S
C2167 N2165 1.356 . S
N2168 C2160 1.356 . S
N2168 H2174 0.984 . S
N2168 H2175 0.984 . S
N2169 C2162 1.356 . S
N2169 H2172 0.984 . S
N2169 H2173 0.985 . S
H2170 N2165 0.984 . S
H2171 N2165 0.985 . S
H2172 N2169 0.984 . S
H2173 N2169 0.985 . S
H2174 N2168 0.984 . S
H2175 N2168 0.984 . S
H2176 N2164 0.984 . S
H2177 N2164 0.985 . S
C2178 C2179 1.363 . S
C2178 C2184 1.379 . S
C2178 N2186 1.356 . S
C2179 C2178 1.363 . S
C2179 C2185 1.363 . S
C2180 C2181 1.363 . S
C2180 C2185 1.379 . S
C2180 N2187 1.356 . S
C2181 C2180 1.363 . S
C2181 C2184 1.363 . S
N2182 C2184 1.356 . S
N2182 H2194 0.984 . S
N2182 H2195 0.985 . S
N2183 C2185 1.356 . S
N2183 H2188 0.984 . S
N2183 H2189 0.985 . S
C2184 C2178 1.379 . S
C2184 C2181 1.363 . S
C2184 N2182 1.356 . S
C2185 C2179 1.363 . S
C2185 C2180 1.379 . S
C2185 N2183 1.356 . S
N2186 C2178 1.356 . S
N2186 H2192 0.984 . S
N2186 H2193 0.984 . S
N2187 C2180 1.356 . S
N2187 H2190 0.984 . S
N2187 H2191 0.985 . S
H2188 N2183 0.984 . S
H2189 N2183 0.985 . S
H2190 N2187 0.984 . S
H2191 N2187 0.985 . S
H2192 N2186 0.984 . S
H2193 N2186 0.984 . S
H2194 N2182 0.984 . S
H2195 N2182 0.985 . S
C2196 C2197 1.363 . S
C2196 C2202 1.379 . S
C2196 N2204 1.356 . S
C2197 C2196 1.363 . S
C2197 C2203 1.363 . S
C2198 C2199 1.363 . S
C2198 C2203 1.379 . S
C2198 N2205 1.356 . S
C2199 C2198 1.363 . S
C2199 C2202 1.363 . S
N2200 C2202 1.356 . S
N2200 H2212 0.984 . S
N2200 H2213 0.985 . S
N2201 C2203 1.356 . S
N2201 H2206 0.984 . S
N2201 H2207 0.985 . S
C2202 C2196 1.379 . S
C2202 C2199 1.363 . S
C2202 N2200 1.356 . S
C2203 C2197 1.363 . S
C2203 C2198 1.379 . S
C2203 N2201 1.356 . S
N2204 C2196 1.356 . S
N2204 H2210 0.984 . S
N2204 H2211 0.984 . S
N2205 C2198 1.356 . S
N2205 H2208 0.984 . S
N2205 H2209 0.985 . S
H2206 N2201 0.984 . S
H2207 N2201 0.985 . S
H2208 N2205 0.984 . S
H2209 N2205 0.985 . S
H2210 N2204 0.984 . S
H2211 N2204 0.984 . S
H2212 N2200 0.984 . S
H2213 N2200 0.985 . S
C2214 C2215 1.363 . S
C2214 C2220 1.379 . S
C2214 N2222 1.356 . S
C2215 C2214 1.363 . S
C2215 C2221 1.363 . S
C2216 C2217 1.363 . S
C2216 C2221 1.379 . S
C2216 N2223 1.356 . S
C2217 C2216 1.363 . S
C2217 C2220 1.363 . S
N2218 C2220 1.356 . S
N2218 H2230 0.984 . S
N2218 H2231 0.985 . S
N2219 C2221 1.356 1_545 S
N2219 H2224 0.984 . S
N2219 H2225 0.985 . S
C2220 C2214 1.379 . S
C2220 C2217 1.363 . S
C2220 N2218 1.356 . S
C2221 C2215 1.363 . S
C2221 C2216 1.379 . S
C2221 N2219 1.356 1_565 S
N2222 C2214 1.356 . S
N2222 H2228 0.984 . S
N2222 H2229 0.984 . S
N2223 C2216 1.356 . S
N2223 H2226 0.984 . S
N2223 H2227 0.985 . S
H2224 N2219 0.984 . S
H2225 N2219 0.985 . S
H2226 N2223 0.984 . S
H2227 N2223 0.985 . S
H2228 N2222 0.984 . S
H2229 N2222 0.984 . S
H2230 N2218 0.984 . S
H2231 N2218 0.985 . S
C2232 C2233 1.363 . S
C2232 C2238 1.379 . S
C2232 N2240 1.356 . S
C2233 C2232 1.363 . S
C2233 C2239 1.363 . S
C2234 C2235 1.363 . S
C2234 C2239 1.379 . S
C2234 N2241 1.356 . S
C2235 C2234 1.363 . S
C2235 C2238 1.363 . S
N2236 C2238 1.356 . S
N2236 H2248 0.984 . S
N2236 H2249 0.985 . S
N2237 C2239 1.356 . S
N2237 H2242 0.984 1_455 S
N2237 H2243 0.980 . S
C2238 C2232 1.379 . S
C2238 C2235 1.363 . S
C2238 N2236 1.356 . S
C2239 C2233 1.363 . S
C2239 C2234 1.379 . S
C2239 N2237 1.356 . S
N2240 C2232 1.356 . S
N2240 H2246 0.984 . S
N2240 H2247 0.984 . S
N2241 C2234 1.356 . S
N2241 H2244 0.984 . S
N2241 H2245 0.985 . S
H2242 N2237 0.984 1_655 S
H2243 N2237 0.980 . S
H2244 N2241 0.984 . S
H2245 N2241 0.985 . S
H2246 N2240 0.984 . S
H2247 N2240 0.984 . S
H2248 N2236 0.984 . S
H2249 N2236 0.985 . S
C2250 C2251 1.363 . S
C2250 C2256 1.379 . S
C2250 N2258 1.356 . S
C2251 C2250 1.363 . S
C2251 C2257 1.363 . S
C2252 C2253 1.363 . S
C2252 C2257 1.379 . S
C2252 N2259 1.356 . S
C2253 C2252 1.363 . S
C2253 C2256 1.363 . S
N2254 C2256 1.356 . S
N2254 H2266 0.984 . S
N2254 H2267 0.985 . S
N2255 C2257 1.356 . S
N2255 H2260 0.984 . S
N2255 H2261 0.985 . S
C2256 C2250 1.379 . S
C2256 C2253 1.363 . S
C2256 N2254 1.356 . S
C2257 C2251 1.363 . S
C2257 C2252 1.379 . S
C2257 N2255 1.356 . S
N2258 C2250 1.356 . S
N2258 H2264 0.984 . S
N2258 H2265 0.984 . S
N2259 C2252 1.356 . S
N2259 H2262 0.984 . S
N2259 H2263 0.985 . S
H2260 N2255 0.984 . S
H2261 N2255 0.985 . S
H2262 N2259 0.984 . S
H2263 N2259 0.985 . S
H2264 N2258 0.984 . S
H2265 N2258 0.984 . S
H2266 N2254 0.984 . S
H2267 N2254 0.985 . S
C2268 C2269 1.363 . S
C2268 C2274 1.379 . S
C2268 N2276 1.356 . S
C2269 C2268 1.363 . S
C2269 C2275 1.363 . S
C2270 C2271 1.363 . S
C2270 C2275 1.379 . S
C2270 N2277 1.356 . S
C2271 C2270 1.363 . S
C2271 C2274 1.363 . S
N2272 C2274 1.356 . S
N2272 H2284 0.984 . S
N2272 H2285 0.985 . S
N2273 C2275 1.356 . S
N2273 H2278 0.984 . S
N2273 H2279 0.985 . S
C2274 C2268 1.379 . S
C2274 C2271 1.363 . S
C2274 N2272 1.356 . S
C2275 C2269 1.363 . S
C2275 C2270 1.379 . S
C2275 N2273 1.356 . S
N2276 C2268 1.356 . S
N2276 H2282 0.984 . S
N2276 H2283 0.984 . S
N2277 C2270 1.356 . S
N2277 H2280 0.984 . S
N2277 H2281 0.985 . S
H2278 N2273 0.984 . S
H2279 N2273 0.985 . S
H2280 N2277 0.984 . S
H2281 N2277 0.985 . S
H2282 N2276 0.984 . S
H2283 N2276 0.984 . S
H2284 N2272 0.984 . S
H2285 N2272 0.985 . S
C2286 C2287 1.363 . S
C2286 C2292 1.379 . S
C2286 N2294 1.356 . S
C2287 C2286 1.363 . S
C2287 C2293 1.363 . S
C2288 C2289 1.363 . S
C2288 C2293 1.379 . S
C2288 N2295 1.356 . S
C2289 C2288 1.363 . S
C2289 C2292 1.363 . S
N2290 C2292 1.356 . S
N2290 H2302 0.984 . S
N2290 H2303 0.985 . S
N2291 C2293 1.356 . S
N2291 H2296 0.984 . S
N2291 H2297 0.985 . S
C2292 C2286 1.379 . S
C2292 C2289 1.363 . S
C2292 N2290 1.356 . S
C2293 C2287 1.363 . S
C2293 C2288 1.379 . S
C2293 N2291 1.356 . S
N2294 C2286 1.356 . S
N2294 H2300 0.984 . S
N2294 H2301 0.984 . S
N2295 C2288 1.356 . S
N2295 H2298 0.984 . S
N2295 H2299 0.985 . S
H2296 N2291 0.984 . S
H2297 N2291 0.985 . S
H2298 N2295 0.984 . S
H2299 N2295 0.985 . S
H2300 N2294 0.984 . S
H2301 N2294 0.984 . S
H2302 N2290 0.984 . S
H2303 N2290 0.985 . S
C2304 C2305 1.363 . S
C2304 C2310 1.379 . S
C2304 N2312 1.356 . S
C2305 C2304 1.363 . S
C2305 C2311 1.363 . S
C2306 C2307 1.363 . S
C2306 C2311 1.379 . S
C2306 N2313 1.356 . S
C2307 C2306 1.363 . S
C2307 C2310 1.363 . S
N2308 C2310 1.356 . S
N2308 H2320 0.984 . S
N2308 H2321 0.985 . S
N2309 C2311 1.356 . S
N2309 H2314 0.984 . S
N2309 H2315 0.985 . S
C2310 C2304 1.379 . S
C2310 C2307 1.363 . S
C2310 N2308 1.356 . S
C2311 C2305 1.363 . S
C2311 C2306 1.379 . S
C2311 N2309 1.356 . S
N2312 C2304 1.356 . S
N2312 H2318 0.984 . S
N2312 H2319 0.984 . S
N2313 C2306 1.356 . S
N2313 H2316 0.984 . S
N2313 H2317 0.985 . S
H2314 N2309 0.984 . S
H2315 N2309 0.985 . S
H2316 N2313 0.984 . S
H2317 N2313 0.985 . S
H2318 N2312 0.984 . S
H2319 N2312 0.984 . S
H2320 N2308 0.984 . S
H2321 N2308 0.985 . S
C2322 C2323 1.363 . S
C2322 C2328 1.379 . S
C2322 N2330 1.356 . S
C2323 C2322 1.363 . S
C2323 C2329 1.363 . S
C2324 C2325 1.363 . S
C2324 C2329 1.379 . S
C2324 N2331 1.356 . S
C2325 C2324 1.363 . S
C2325 C2328 1.363 . S
N2326 C2328 1.356 . S
N2326 H2338 0.984 . S
N2326 H2339 0.985 . S
N2327 C2329 1.356 . S
N2327 H2332 0.984 1_545 S
N2327 H2333 0.985 . S
C2328 C2322 1.379 . S
C2328 C2325 1.363 . S
C2328 N2326 1.356 . S
C2329 C2323 1.363 . S
C2329 C2324 1.379 . S
C2329 N2327 1.356 . S
N2330 C2322 1.356 . S
N2330 H2336 0.984 . S
N2330 H2337 0.984 1_545 S
N2331 C2324 1.356 . S
N2331 H2334 0.984 . S
N2331 H2335 0.985 . S
H2332 N2327 0.984 1_565 S
H2333 N2327 0.985 . S
H2334 N2331 0.984 . S
H2335 N2331 0.985 . S
H2336 N2330 0.984 . S
H2337 N2330 0.984 1_565 S
H2338 N2326 0.984 . S
H2339 N2326 0.985 . S
C2340 C2341 1.363 . S
C2340 C2346 1.379 . S
C2340 N2348 1.356 . S
C2341 C2340 1.363 . S
C2341 C2347 1.363 . S
C2342 C2343 1.363 . S
C2342 C2347 1.379 . S
C2342 N2349 1.356 . S
C2343 C2342 1.363 . S
C2343 C2346 1.363 . S
N2344 C2346 1.356 . S
N2344 H2356 0.984 . S
N2344 H2357 0.985 . S
N2345 C2347 1.356 . S
N2345 H2350 0.984 1_655 S
N2345 H2351 0.985 . S
C2346 C2340 1.379 . S
C2346 C2343 1.363 . S
C2346 N2344 1.356 . S
C2347 C2341 1.363 . S
C2347 C2342 1.379 . S
C2347 N2345 1.356 . S
N2348 C2340 1.356 . S
N2348 H2354 0.984 . S
N2348 H2355 0.984 . S
N2349 C2342 1.356 . S
N2349 H2352 0.984 . S
N2349 H2353 0.985 . S
H2350 N2345 0.984 1_455 S
H2351 N2345 0.985 . S
H2352 N2349 0.984 . S
H2353 N2349 0.985 . S
H2354 N2348 0.984 . S
H2355 N2348 0.984 . S
H2356 N2344 0.984 . S
H2357 N2344 0.985 . S
C2358 C2359 1.363 . S
C2358 C2364 1.379 . S
C2358 N2366 1.356 . S
C2359 C2358 1.363 . S
C2359 C2365 1.363 . S
C2360 C2361 1.363 . S
C2360 C2365 1.379 . S
C2360 N2367 1.356 . S
C2361 C2360 1.363 . S
C2361 C2364 1.363 . S
N2362 C2364 1.356 . S
N2362 H2374 0.984 . S
N2362 H2375 0.985 . S
N2363 C2365 1.356 . S
N2363 H2368 0.984 . S
N2363 H2369 0.985 . S
C2364 C2358 1.379 . S
C2364 C2361 1.363 . S
C2364 N2362 1.356 . S
C2365 C2359 1.363 . S
C2365 C2360 1.379 . S
C2365 N2363 1.356 . S
N2366 C2358 1.356 . S
N2366 H2372 0.984 . S
N2366 H2373 0.984 . S
N2367 C2360 1.356 . S
N2367 H2370 0.984 . S
N2367 H2371 0.985 . S
H2368 N2363 0.984 . S
H2369 N2363 0.985 . S
H2370 N2367 0.984 . S
H2371 N2367 0.985 . S
H2372 N2366 0.984 . S
H2373 N2366 0.984 . S
H2374 N2362 0.984 . S
H2375 N2362 0.985 . S
C2376 C2377 1.363 . S
C2376 C2382 1.379 . S
C2376 N2384 1.356 1_655 S
C2377 C2376 1.363 . S
C2377 C2383 1.363 . S
C2378 C2379 1.363 . S
C2378 C2383 1.379 . S
C2378 N2385 1.356 . S
C2379 C2378 1.363 . S
C2379 C2382 1.363 . S
N2380 C2382 1.356 . S
N2380 H2392 0.984 . S
N2380 H2393 0.985 . S
N2381 C2383 1.356 . S
N2381 H2386 0.984 . S
N2381 H2387 0.985 . S
C2382 C2376 1.379 . S
C2382 C2379 1.363 . S
C2382 N2380 1.356 . S
C2383 C2377 1.363 . S
C2383 C2378 1.379 . S
C2383 N2381 1.356 . S
N2384 C2376 1.356 1_455 S
N2384 H2390 0.984 . S
N2384 H2391 0.984 . S
N2385 C2378 1.356 . S
N2385 H2388 0.984 . S
N2385 H2389 0.985 . S
H2386 N2381 0.984 . S
H2387 N2381 0.985 . S
H2388 N2385 0.984 . S
H2389 N2385 0.985 . S
H2390 N2384 0.984 . S
H2391 N2384 0.984 . S
H2392 N2380 0.984 . S
H2393 N2380 0.985 . S
C2394 C2395 1.363 . S
C2394 C2400 1.379 . S
C2394 N2402 1.356 . S
C2395 C2394 1.363 . S
C2395 C2401 1.363 . S
C2396 C2397 1.363 . S
C2396 C2401 1.379 . S
C2396 N2403 1.356 . S
C2397 C2396 1.363 . S
C2397 C2400 1.363 . S
N2398 C2400 1.356 . S
N2398 H2410 0.984 . S
N2398 H2411 0.985 . S
N2399 C2401 1.356 . S
N2399 H2404 0.984 . S
N2399 H2405 0.985 . S
C2400 C2394 1.379 . S
C2400 C2397 1.363 . S
C2400 N2398 1.356 . S
C2401 C2395 1.363 . S
C2401 C2396 1.379 . S
C2401 N2399 1.356 . S
N2402 C2394 1.356 . S
N2402 H2408 0.984 . S
N2402 H2409 0.984 . S
N2403 C2396 1.356 . S
N2403 H2406 0.984 . S
N2403 H2407 0.985 . S
H2404 N2399 0.984 . S
H2405 N2399 0.985 . S
H2406 N2403 0.984 . S
H2407 N2403 0.985 . S
H2408 N2402 0.984 . S
H2409 N2402 0.984 . S
H2410 N2398 0.984 . S
H2411 N2398 0.985 . S
C2412 C2413 1.363 . S
C2412 C2418 1.379 . S
C2412 N2420 1.356 1_545 S
C2413 C2412 1.363 . S
C2413 C2419 1.363 . S
C2414 C2415 1.363 . S
C2414 C2419 1.379 . S
C2414 N2421 1.356 . S
C2415 C2414 1.363 . S
C2415 C2418 1.363 . S
N2416 C2418 1.356 . S
N2416 H2428 0.984 . S
N2416 H2429 0.985 . S
N2417 C2419 1.356 . S
N2417 H2422 0.984 1_545 S
N2417 H2423 0.985 . S
C2418 C2412 1.379 . S
C2418 C2415 1.363 . S
C2418 N2416 1.356 . S
C2419 C2413 1.363 . S
C2419 C2414 1.379 . S
C2419 N2417 1.356 . S
N2420 C2412 1.356 1_565 S
N2420 H2426 0.984 . S
N2420 H2427 0.984 . S
N2421 C2414 1.356 . S
N2421 H2424 0.984 . S
N2421 H2425 0.985 . S
H2422 N2417 0.984 1_565 S
H2423 N2417 0.985 . S
H2424 N2421 0.984 . S
H2425 N2421 0.985 . S
H2426 N2420 0.984 . S
H2427 N2420 0.984 . S
H2428 N2416 0.984 . S
H2429 N2416 0.985 . S
C2430 C2431 1.363 . S
C2430 C2436 1.379 . S
C2430 N2438 1.356 . S
C2431 C2430 1.363 . S
C2431 C2437 1.363 . S
C2432 C2433 1.363 . S
C2432 C2437 1.379 . S
C2432 N2439 1.356 . S
C2433 C2432 1.363 . S
C2433 C2436 1.363 . S
N2434 C2436 1.356 . S
N2434 H2446 0.984 . S
N2434 H2447 0.985 . S
N2435 C2437 1.356 . S
N2435 H2440 0.984 . S
N2435 H2441 0.985 . S
C2436 C2430 1.379 . S
C2436 C2433 1.363 . S
C2436 N2434 1.356 . S
C2437 C2431 1.363 . S
C2437 C2432 1.379 . S
C2437 N2435 1.356 . S
N2438 C2430 1.356 . S
N2438 H2444 0.984 . S
N2438 H2445 0.984 . S
N2439 C2432 1.356 . S
N2439 H2442 0.984 . S
N2439 H2443 0.985 . S
H2440 N2435 0.984 . S
H2441 N2435 0.985 . S
H2442 N2439 0.984 . S
H2443 N2439 0.985 . S
H2444 N2438 0.984 . S
H2445 N2438 0.984 . S
H2446 N2434 0.984 . S
H2447 N2434 0.985 . S
C2448 C2449 1.363 . S
C2448 C2454 1.379 . S
C2448 N2456 1.356 . S
C2449 C2448 1.363 . S
C2449 C2455 1.363 . S
C2450 C2451 1.363 . S
C2450 C2455 1.379 . S
C2450 N2457 1.356 . S
C2451 C2450 1.363 . S
C2451 C2454 1.363 . S
N2452 C2454 1.356 . S
N2452 H2464 0.984 . S
N2452 H2465 0.985 . S
N2453 C2455 1.356 . S
N2453 H2458 0.984 . S
N2453 H2459 0.985 . S
C2454 C2448 1.379 . S
C2454 C2451 1.363 . S
C2454 N2452 1.356 . S
C2455 C2449 1.363 . S
C2455 C2450 1.379 . S
C2455 N2453 1.356 . S
N2456 C2448 1.356 . S
N2456 H2462 0.984 . S
N2456 H2463 0.984 . S
N2457 C2450 1.356 . S
N2457 H2460 0.984 . S
N2457 H2461 0.985 . S
H2458 N2453 0.984 . S
H2459 N2453 0.985 . S
H2460 N2457 0.984 . S
H2461 N2457 0.985 . S
H2462 N2456 0.984 . S
H2463 N2456 0.984 . S
H2464 N2452 0.984 . S
H2465 N2452 0.985 . S
C2466 C2467 1.363 . S
C2466 C2472 1.379 . S
C2466 N2474 1.356 . S
C2467 C2466 1.363 . S
C2467 C2473 1.363 . S
C2468 C2469 1.363 . S
C2468 C2473 1.379 . S
C2468 N2475 1.356 . S
C2469 C2468 1.363 . S
C2469 C2472 1.363 . S
N2470 C2472 1.356 . S
N2470 H2482 0.984 . S
N2470 H2483 0.985 . S
N2471 C2473 1.356 . S
N2471 H2476 0.984 . S
N2471 H2477 0.985 . S
C2472 C2466 1.379 . S
C2472 C2469 1.363 . S
C2472 N2470 1.356 . S
C2473 C2467 1.363 . S
C2473 C2468 1.379 . S
C2473 N2471 1.356 . S
N2474 C2466 1.356 . S
N2474 H2480 0.984 . S
N2474 H2481 0.984 . S
N2475 C2468 1.356 . S
N2475 H2478 0.984 . S
N2475 H2479 0.985 . S
H2476 N2471 0.984 . S
H2477 N2471 0.985 . S
H2478 N2475 0.984 . S
H2479 N2475 0.985 . S
H2480 N2474 0.984 . S
H2481 N2474 0.984 . S
H2482 N2470 0.984 . S
H2483 N2470 0.985 . S
C2484 C2485 1.363 . S
C2484 C2490 1.379 . S
C2484 N2492 1.356 . S
C2485 C2484 1.363 . S
C2485 C2491 1.363 . S
C2486 C2487 1.363 . S
C2486 C2491 1.379 . S
C2486 N2493 1.356 . S
C2487 C2486 1.363 . S
C2487 C2490 1.363 . S
N2488 C2490 1.356 . S
N2488 H2500 0.984 . S
N2488 H2501 0.985 . S
N2489 C2491 1.356 . S
N2489 H2494 0.984 . S
N2489 H2495 0.985 . S
C2490 C2484 1.379 . S
C2490 C2487 1.363 . S
C2490 N2488 1.356 . S
C2491 C2485 1.363 . S
C2491 C2486 1.379 . S
C2491 N2489 1.356 . S
N2492 C2484 1.356 . S
N2492 H2498 0.984 . S
N2492 H2499 0.984 . S
N2493 C2486 1.356 . S
N2493 H2496 0.984 1_565 S
N2493 H2497 0.985 1_565 S
H2494 N2489 0.984 . S
H2495 N2489 0.985 . S
H2496 N2493 0.984 1_545 S
H2497 N2493 0.985 1_545 S
H2498 N2492 0.984 . S
H2499 N2492 0.984 . S
H2500 N2488 0.984 . S
H2501 N2488 0.985 . S
C2502 C2503 1.363 . S
C2502 C2508 1.379 . S
C2502 N2510 1.356 . S
C2503 C2502 1.363 . S
C2503 C2509 1.363 . S
C2504 C2505 1.363 . S
C2504 C2509 1.379 . S
C2504 N2511 1.356 . S
C2505 C2504 1.363 . S
C2505 C2508 1.363 . S
N2506 C2508 1.356 . S
N2506 H2518 0.984 . S
N2506 H2519 0.985 . S
N2507 C2509 1.356 . S
N2507 H2512 0.984 . S
N2507 H2513 0.985 . S
C2508 C2502 1.379 . S
C2508 C2505 1.363 . S
C2508 N2506 1.356 . S
C2509 C2503 1.363 . S
C2509 C2504 1.379 . S
C2509 N2507 1.356 . S
N2510 C2502 1.356 . S
N2510 H2516 0.984 . S
N2510 H2517 0.984 . S
N2511 C2504 1.356 . S
N2511 H2514 0.984 . S
N2511 H2515 0.985 . S
H2512 N2507 0.984 . S
H2513 N2507 0.985 . S
H2514 N2511 0.984 . S
H2515 N2511 0.985 . S
H2516 N2510 0.984 . S
H2517 N2510 0.984 . S
H2518 N2506 0.984 . S
H2519 N2506 0.985 . S
C2520 C2521 1.363 . S
C2520 C2526 1.379 . S
C2520 N2528 1.356 . S
C2521 C2520 1.363 . S
C2521 C2527 1.363 . S
C2522 C2523 1.363 . S
C2522 C2527 1.379 . S
C2522 N2529 1.356 . S
C2523 C2522 1.363 . S
C2523 C2526 1.363 . S
N2524 C2526 1.356 . S
N2524 H2536 0.984 . S
N2524 H2537 0.985 . S
N2525 C2527 1.356 . S
N2525 H2530 0.984 . S
N2525 H2531 0.985 . S
C2526 C2520 1.379 . S
C2526 C2523 1.363 . S
C2526 N2524 1.356 . S
C2527 C2521 1.363 . S
C2527 C2522 1.379 . S
C2527 N2525 1.356 . S
N2528 C2520 1.356 . S
N2528 H2534 0.984 . S
N2528 H2535 0.984 . S
N2529 C2522 1.356 . S
N2529 H2532 0.984 . S
N2529 H2533 0.985 . S
H2530 N2525 0.984 . S
H2531 N2525 0.985 . S
H2532 N2529 0.984 . S
H2533 N2529 0.985 . S
H2534 N2528 0.984 . S
H2535 N2528 0.984 . S
H2536 N2524 0.984 . S
H2537 N2524 0.985 . S
C2538 C2539 1.363 . S
C2538 C2544 1.379 . S
C2538 N2546 1.356 . S
C2539 C2538 1.363 . S
C2539 C2545 1.363 . S
C2540 C2541 1.363 . S
C2540 C2545 1.379 . S
C2540 N2547 1.356 . S
C2541 C2540 1.363 . S
C2541 C2544 1.363 . S
N2542 C2544 1.356 . S
N2542 H2554 0.984 . S
N2542 H2555 0.985 . S
N2543 C2545 1.356 . S
N2543 H2548 0.984 . S
N2543 H2549 0.985 . S
C2544 C2538 1.379 . S
C2544 C2541 1.363 . S
C2544 N2542 1.356 . S
C2545 C2539 1.363 . S
C2545 C2540 1.379 . S
C2545 N2543 1.356 . S
N2546 C2538 1.356 . S
N2546 H2552 0.984 . S
N2546 H2553 0.984 . S
N2547 C2540 1.356 . S
N2547 H2550 0.984 . S
N2547 H2551 0.985 . S
H2548 N2543 0.984 . S
H2549 N2543 0.985 . S
H2550 N2547 0.984 . S
H2551 N2547 0.985 . S
H2552 N2546 0.984 . S
H2553 N2546 0.984 . S
H2554 N2542 0.984 . S
H2555 N2542 0.985 . S
C2556 C2557 1.363 . S
C2556 C2562 1.379 . S
C2556 N2564 1.356 . S
C2557 C2556 1.363 . S
C2557 C2563 1.363 . S
C2558 C2559 1.363 . S
C2558 C2563 1.379 . S
C2558 N2565 1.356 . S
C2559 C2558 1.363 . S
C2559 C2562 1.363 . S
N2560 C2562 1.356 . S
N2560 H2572 0.984 . S
N2560 H2573 0.985 . S
N2561 C2563 1.356 . S
N2561 H2566 0.984 . S
N2561 H2567 0.985 . S
C2562 C2556 1.379 . S
C2562 C2559 1.363 . S
C2562 N2560 1.356 . S
C2563 C2557 1.363 . S
C2563 C2558 1.379 . S
C2563 N2561 1.356 . S
N2564 C2556 1.356 . S
N2564 H2570 0.984 . S
N2564 H2571 0.984 . S
N2565 C2558 1.356 . S
N2565 H2568 0.984 . S
N2565 H2569 0.985 . S
H2566 N2561 0.984 . S
H2567 N2561 0.985 . S
H2568 N2565 0.984 . S
H2569 N2565 0.985 . S
H2570 N2564 0.984 . S
H2571 N2564 0.984 . S
H2572 N2560 0.984 . S
H2573 N2560 0.985 . S
C2574 C2575 1.363 . S
C2574 C2580 1.379 . S
C2574 N2582 1.356 . S
C2575 C2574 1.363 . S
C2575 C2581 1.363 . S
C2576 C2577 1.363 . S
C2576 C2581 1.379 . S
C2576 N2583 1.356 1_545 S
C2577 C2576 1.363 . S
C2577 C2580 1.363 . S
N2578 C2580 1.356 . S
N2578 H2590 0.984 . S
N2578 H2591 0.985 . S
N2579 C2581 1.356 . S
N2579 H2584 0.984 . S
N2579 H2585 0.985 . S
C2580 C2574 1.379 . S
C2580 C2577 1.363 . S
C2580 N2578 1.356 . S
C2581 C2575 1.363 . S
C2581 C2576 1.379 . S
C2581 N2579 1.356 . S
N2582 C2574 1.356 . S
N2582 H2588 0.984 . S
N2582 H2589 0.984 . S
N2583 C2576 1.356 1_565 S
N2583 H2586 0.984 . S
N2583 H2587 0.985 . S
H2584 N2579 0.984 . S
H2585 N2579 0.985 . S
H2586 N2583 0.984 . S
H2587 N2583 0.985 . S
H2588 N2582 0.984 . S
H2589 N2582 0.984 . S
H2590 N2578 0.984 . S
H2591 N2578 0.985 . S
C2592 C2593 1.363 . S
C2592 C2598 1.379 . S
C2592 N2600 1.356 . S
C2593 C2592 1.363 . S
C2593 C2599 1.363 . S
C2594 C2595 1.363 . S
C2594 C2599 1.379 . S
C2594 N2601 1.356 . S
C2595 C2594 1.363 . S
C2595 C2598 1.363 . S
N2596 C2598 1.356 . S
N2596 H2608 0.984 . S
N2596 H2609 0.985 . S
N2597 C2599 1.356 . S
N2597 H2602 0.984 . S
N2597 H2603 0.985 . S
C2598 C2592 1.379 . S
C2598 C2595 1.363 . S
C2598 N2596 1.356 . S
C2599 C2593 1.363 . S
C2599 C2594 1.379 . S
C2599 N2597 1.356 . S
N2600 C2592 1.356 . S
N2600 H2606 0.984 . S
N2600 H2607 0.984 . S
N2601 C2594 1.356 . S
N2601 H2604 0.984 . S
N2601 H2605 0.985 . S
H2602 N2597 0.984 . S
H2603 N2597 0.985 . S
H2604 N2601 0.984 . S
H2605 N2601 0.985 . S
H2606 N2600 0.984 . S
H2607 N2600 0.984 . S
H2608 N2596 0.984 . S
H2609 N2596 0.985 . S
C2610 C2611 1.363 . S
C2610 C2616 1.379 . S
C2610 N2618 1.356 . S
C2611 C2610 1.363 . S
C2611 C2617 1.363 . S
C2612 C2613 1.363 . S
C2612 C2617 1.379 . S
C2612 N2619 1.356 . S
C2613 C2612 1.363 . S
C2613 C2616 1.363 . S
N2614 C2616 1.356 . S
N2614 H2626 0.984 . S
N2614 H2627 0.985 . S
N2615 C2617 1.356 . S
N2615 H2620 0.984 . S
N2615 H2621 0.985 . S
C2616 C2610 1.379 . S
C2616 C2613 1.363 . S
C2616 N2614 1.356 . S
C2617 C2611 1.363 . S
C2617 C2612 1.379 . S
C2617 N2615 1.356 . S
N2618 C2610 1.356 . S
N2618 H2624 0.984 . S
N2618 H2625 0.984 . S
N2619 C2612 1.356 . S
N2619 H2622 0.984 . S
N2619 H2623 0.985 . S
H2620 N2615 0.984 . S
H2621 N2615 0.985 . S
H2622 N2619 0.984 . S
H2623 N2619 0.985 . S
H2624 N2618 0.984 . S
H2625 N2618 0.984 . S
H2626 N2614 0.984 . S
H2627 N2614 0.985 . S
C2628 C2629 1.363 . S
C2628 C2634 1.379 . S
C2628 N2636 1.356 . S
C2629 C2628 1.363 . S
C2629 C2635 1.363 . S
C2630 C2631 1.363 . S
C2630 C2635 1.379 . S
C2630 N2637 1.356 . S
C2631 C2630 1.363 . S
C2631 C2634 1.363 . S
N2632 C2634 1.356 . S
N2632 H2644 0.984 . S
N2632 H2645 0.985 . S
N2633 C2635 1.356 . S
N2633 H2638 0.984 . S
N2633 H2639 0.985 . S
C2634 C2628 1.379 . S
C2634 C2631 1.363 . S
C2634 N2632 1.356 . S
C2635 C2629 1.363 . S
C2635 C2630 1.379 . S
C2635 N2633 1.356 . S
N2636 C2628 1.356 . S
N2636 H2642 0.984 . S
N2636 H2643 0.984 . S
N2637 C2630 1.356 . S
N2637 H2640 0.984 . S
N2637 H2641 0.985 . S
H2638 N2633 0.984 . S
H2639 N2633 0.985 . S
H2640 N2637 0.984 . S
H2641 N2637 0.985 . S
H2642 N2636 0.984 . S
H2643 N2636 0.984 . S
H2644 N2632 0.984 . S
H2645 N2632 0.985 . S
C2646 C2647 1.363 . S
C2646 C2652 1.379 . S
C2646 N2654 1.356 . S
C2647 C2646 1.363 . S
C2647 C2653 1.363 . S
C2648 C2649 1.363 . S
C2648 C2653 1.379 . S
C2648 N2655 1.356 . S
C2649 C2648 1.363 . S
C2649 C2652 1.363 . S
N2650 C2652 1.356 . S
N2650 H2662 0.984 . S
N2650 H2663 0.985 . S
N2651 C2653 1.356 . S
N2651 H2656 0.984 . S
N2651 H2657 0.985 . S
C2652 C2646 1.379 . S
C2652 C2649 1.363 . S
C2652 N2650 1.356 . S
C2653 C2647 1.363 . S
C2653 C2648 1.379 . S
C2653 N2651 1.356 . S
N2654 C2646 1.356 . S
N2654 H2660 0.984 . S
N2654 H2661 0.984 . S
N2655 C2648 1.356 . S
N2655 H2658 0.984 . S
N2655 H2659 0.985 . S
H2656 N2651 0.984 . S
H2657 N2651 0.985 . S
H2658 N2655 0.984 . S
H2659 N2655 0.985 . S
H2660 N2654 0.984 . S
H2661 N2654 0.984 . S
H2662 N2650 0.984 . S
H2663 N2650 0.985 . S
C2664 C2665 1.363 . S
C2664 C2670 1.379 . S
C2664 N2672 1.356 . S
C2665 C2664 1.363 . S
C2665 C2671 1.363 . S
C2666 C2667 1.363 . S
C2666 C2671 1.379 . S
C2666 N2673 1.356 . S
C2667 C2666 1.363 . S
C2667 C2670 1.363 . S
N2668 C2670 1.356 . S
N2668 H2680 0.984 . S
N2668 H2681 0.985 . S
N2669 C2671 1.356 . S
N2669 H2674 0.984 . S
N2669 H2675 0.985 . S
C2670 C2664 1.379 . S
C2670 C2667 1.363 . S
C2670 N2668 1.356 . S
C2671 C2665 1.363 . S
C2671 C2666 1.379 . S
C2671 N2669 1.356 . S
N2672 C2664 1.356 . S
N2672 H2678 0.984 . S
N2672 H2679 0.984 . S
N2673 C2666 1.356 . S
N2673 H2676 0.984 . S
N2673 H2677 0.985 . S
H2674 N2669 0.984 . S
H2675 N2669 0.985 . S
H2676 N2673 0.984 . S
H2677 N2673 0.985 . S
H2678 N2672 0.984 . S
H2679 N2672 0.984 . S
H2680 N2668 0.984 . S
H2681 N2668 0.985 . S
C2682 C2683 1.363 . S
C2682 C2688 1.379 . S
C2682 N2690 1.356 . S
C2683 C2682 1.363 . S
C2683 C2689 1.363 . S
C2684 C2685 1.363 . S
C2684 C2689 1.379 . S
C2684 N2691 1.356 . S
C2685 C2684 1.363 . S
C2685 C2688 1.363 . S
N2686 C2688 1.356 . S
N2686 H2698 0.984 . S
N2686 H2699 0.985 . S
N2687 C2689 1.356 . S
N2687 H2692 0.984 . S
N2687 H2693 0.985 . S
C2688 C2682 1.379 . S
C2688 C2685 1.363 . S
C2688 N2686 1.356 . S
C2689 C2683 1.363 . S
C2689 C2684 1.379 . S
C2689 N2687 1.356 . S
N2690 C2682 1.356 . S
N2690 H2696 0.984 . S
N2690 H2697 0.984 . S
N2691 C2684 1.356 . S
N2691 H2694 0.984 . S
N2691 H2695 0.985 . S
H2692 N2687 0.984 . S
H2693 N2687 0.985 . S
H2694 N2691 0.984 . S
H2695 N2691 0.985 . S
H2696 N2690 0.984 . S
H2697 N2690 0.984 . S
H2698 N2686 0.984 . S
H2699 N2686 0.985 . S
C2700 C2701 1.363 . S
C2700 C2706 1.379 . S
C2700 N2708 1.356 . S
C2701 C2700 1.363 . S
C2701 C2707 1.363 . S
C2702 C2703 1.363 . S
C2702 C2707 1.379 . S
C2702 N2709 1.356 . S
C2703 C2702 1.363 . S
C2703 C2706 1.363 . S
N2704 C2706 1.356 . S
N2704 H2716 0.984 . S
N2704 H2717 0.985 . S
N2705 C2707 1.356 . S
N2705 H2710 0.984 . S
N2705 H2711 0.985 . S
C2706 C2700 1.379 . S
C2706 C2703 1.363 . S
C2706 N2704 1.356 . S
C2707 C2701 1.363 . S
C2707 C2702 1.379 . S
C2707 N2705 1.356 . S
N2708 C2700 1.356 . S
N2708 H2714 0.984 . S
N2708 H2715 0.984 . S
N2709 C2702 1.356 . S
N2709 H2712 0.984 . S
N2709 H2713 0.985 . S
H2710 N2705 0.984 . S
H2711 N2705 0.985 . S
H2712 N2709 0.984 . S
H2713 N2709 0.985 . S
H2714 N2708 0.984 . S
H2715 N2708 0.984 . S
H2716 N2704 0.984 . S
H2717 N2704 0.985 . S
C2718 C2719 1.363 . S
C2718 C2724 1.379 . S
C2718 N2726 1.356 . S
C2719 C2718 1.363 . S
C2719 C2725 1.363 . S
C2720 C2721 1.363 . S
C2720 C2725 1.379 . S
C2720 N2727 1.356 . S
C2721 C2720 1.363 . S
C2721 C2724 1.363 . S
N2722 C2724 1.356 . S
N2722 H2734 0.984 . S
N2722 H2735 0.985 . S
N2723 C2725 1.356 . S
N2723 H2728 0.984 . S
N2723 H2729 0.985 . S
C2724 C2718 1.379 . S
C2724 C2721 1.363 . S
C2724 N2722 1.356 . S
C2725 C2719 1.363 . S
C2725 C2720 1.379 . S
C2725 N2723 1.356 . S
N2726 C2718 1.356 . S
N2726 H2732 0.984 . S
N2726 H2733 0.984 . S
N2727 C2720 1.356 . S
N2727 H2730 0.984 . S
N2727 H2731 0.985 . S
H2728 N2723 0.984 . S
H2729 N2723 0.985 . S
H2730 N2727 0.984 . S
H2731 N2727 0.985 . S
H2732 N2726 0.984 . S
H2733 N2726 0.984 . S
H2734 N2722 0.984 . S
H2735 N2722 0.985 . S
C2736 C2737 1.363 . S
C2736 C2742 1.379 . S
C2736 N2744 1.356 . S
C2737 C2736 1.363 . S
C2737 C2743 1.363 . S
C2738 C2739 1.363 . S
C2738 C2743 1.379 . S
C2738 N2745 1.356 . S
C2739 C2738 1.363 . S
C2739 C2742 1.363 . S
N2740 C2742 1.356 . S
N2740 H2752 0.984 . S
N2740 H2753 0.985 . S
N2741 C2743 1.356 . S
N2741 H2746 0.984 . S
N2741 H2747 0.985 . S
C2742 C2736 1.379 . S
C2742 C2739 1.363 . S
C2742 N2740 1.356 . S
C2743 C2737 1.363 . S
C2743 C2738 1.379 . S
C2743 N2741 1.356 . S
N2744 C2736 1.356 . S
N2744 H2750 0.984 . S
N2744 H2751 0.984 . S
N2745 C2738 1.356 . S
N2745 H2748 0.984 . S
N2745 H2749 0.985 . S
H2746 N2741 0.984 . S
H2747 N2741 0.985 . S
H2748 N2745 0.984 . S
H2749 N2745 0.985 . S
H2750 N2744 0.984 . S
H2751 N2744 0.984 . S
H2752 N2740 0.984 . S
H2753 N2740 0.985 . S
C2754 C2755 1.363 . S
C2754 C2760 1.379 . S
C2754 N2762 1.356 . S
C2755 C2754 1.363 . S
C2755 C2761 1.363 . S
C2756 C2757 1.363 . S
C2756 C2761 1.379 . S
C2756 N2763 1.356 . S
C2757 C2756 1.363 . S
C2757 C2760 1.363 . S
N2758 C2760 1.356 . S
N2758 H2770 0.984 . S
N2758 H2771 0.985 . S
N2759 C2761 1.356 . S
N2759 H2764 0.984 . S
N2759 H2765 0.985 . S
C2760 C2754 1.379 . S
C2760 C2757 1.363 . S
C2760 N2758 1.356 . S
C2761 C2755 1.363 . S
C2761 C2756 1.379 . S
C2761 N2759 1.356 . S
N2762 C2754 1.356 . S
N2762 H2768 0.984 . S
N2762 H2769 0.984 . S
N2763 C2756 1.356 . S
N2763 H2766 0.984 . S
N2763 H2767 0.985 . S
H2764 N2759 0.984 . S
H2765 N2759 0.985 . S
H2766 N2763 0.984 . S
H2767 N2763 0.985 . S
H2768 N2762 0.984 . S
H2769 N2762 0.984 . S
H2770 N2758 0.984 . S
H2771 N2758 0.985 . S
C2772 C2773 1.363 . S
C2772 C2778 1.379 . S
C2772 N2780 1.356 . S
C2773 C2772 1.363 . S
C2773 C2779 1.363 . S
C2774 C2775 1.363 . S
C2774 C2779 1.379 . S
C2774 N2781 1.356 . S
C2775 C2774 1.363 . S
C2775 C2778 1.363 . S
N2776 C2778 1.356 . S
N2776 H2788 0.984 . S
N2776 H2789 0.985 . S
N2777 C2779 1.356 . S
N2777 H2782 0.984 . S
N2777 H2783 0.985 . S
C2778 C2772 1.379 . S
C2778 C2775 1.363 . S
C2778 N2776 1.356 . S
C2779 C2773 1.363 . S
C2779 C2774 1.379 . S
C2779 N2777 1.356 . S
N2780 C2772 1.356 . S
N2780 H2786 0.984 . S
N2780 H2787 0.984 . S
N2781 C2774 1.356 . S
N2781 H2784 0.984 . S
N2781 H2785 0.985 . S
H2782 N2777 0.984 . S
H2783 N2777 0.985 . S
H2784 N2781 0.984 . S
H2785 N2781 0.985 . S
H2786 N2780 0.984 . S
H2787 N2780 0.984 . S
H2788 N2776 0.984 . S
H2789 N2776 0.985 . S
C2790 C2791 1.363 . S
C2790 C2796 1.379 . S
C2790 N2798 1.356 . S
C2791 C2790 1.363 . S
C2791 C2797 1.363 . S
C2792 C2793 1.363 . S
C2792 C2797 1.379 . S
C2792 N2799 1.356 . S
C2793 C2792 1.363 . S
C2793 C2796 1.363 . S
N2794 C2796 1.356 . S
N2794 H2806 0.984 . S
N2794 H2807 0.985 . S
N2795 C2797 1.356 . S
N2795 H2800 0.984 . S
N2795 H2801 0.985 . S
C2796 C2790 1.379 . S
C2796 C2793 1.363 . S
C2796 N2794 1.356 . S
C2797 C2791 1.363 . S
C2797 C2792 1.379 . S
C2797 N2795 1.356 . S
N2798 C2790 1.356 . S
N2798 H2804 0.984 . S
N2798 H2805 0.984 . S
N2799 C2792 1.356 . S
N2799 H2802 0.984 . S
N2799 H2803 0.985 . S
H2800 N2795 0.984 . S
H2801 N2795 0.985 . S
H2802 N2799 0.984 . S
H2803 N2799 0.985 . S
H2804 N2798 0.984 . S
H2805 N2798 0.984 . S
H2806 N2794 0.984 . S
H2807 N2794 0.985 . S
C1837 C781 1.470 . S
C1839 C1147 1.405 . S
C1855 C871 1.459 . S
C1857 C1231 1.420 . S
C1873 C751 1.477 . S
C1875 C1311 1.458 . S
C1891 C691 1.435 . S
C1893 C1227 1.419 . S
C1911 C1315 1.363 . S
C1909 C571 1.403 . S
C1927 C601 1.457 . S
C1929 C1143 1.407 . S
C1947 C1136 1.405 . S
C1945 C661 1.429 . S
C1965 C1220 1.423 . S
C1963 C541 1.447 . S
C1981 C631 1.526 . S
C1983 C1322 1.458 . S
C1999 C811 1.473 . S
C2001 C1238 1.417 . S
C2017 C841 1.396 . S
C2019 C1304 1.363 . S
C2037 C1154 1.407 . S
C2035 C721 1.407 . S
C2055 C1399 1.405 . S
C2053 C61 1.470 1_455 S
C2071 C151 1.459 . S
C2073 C1483 1.423 . S
C2089 C31 1.476 1_565 S
C2091 C1563 1.458 . S
C2107 C1051 1.436 . S
C2109 C1479 1.418 . S
C2125 C931 1.403 . S
C2127 C1567 1.363 . S
C2143 C961 1.457 . S
C2145 C1395 1.407 . S
C2161 C1021 1.429 . S
C2163 C1388 1.406 . S
C2179 C901 1.445 . S
C2181 C1472 1.423 . S
C2199 C1574 1.458 . S
C2197 C991 1.526 . S
C2215 C91 1.473 1_565 S
C2217 C1490 1.418 . S
C2235 C1556 1.362 . S
C2233 C121 1.364 1_455 S
C2251 C1 1.407 . S
C2253 C1406 1.407 . S
C2271 C1651 1.406 . S
C2269 C421 1.471 . S
C2287 C511 1.460 . S
C2289 C1735 1.423 . S
C2307 C1815 1.458 . S
C2305 C391 1.477 . S
C2325 C1731 1.418 . S
C2323 C331 1.435 1_545 S
C2343 C1819 1.362 . S
C2341 C211 1.403 1_655 S
C2359 C241 1.457 . S
C2361 C1647 1.407 . S
C2377 C301 1.429 1_655 S
C2379 C1640 1.405 . S
C2395 C181 1.445 . S
C2397 C1724 1.423 . S
C2415 C1826 1.458 . S
C2413 C271 1.526 1_545 S
C2431 C451 1.474 . S
C2433 C1742 1.418 . S
C2449 C481 1.396 . S
C2451 C1808 1.363 . S
C2467 C361 1.408 . S
C2469 C1658 1.407 . S
C2485 C920 1.461 . S
C2487 C1150 1.380 . S
C2505 C1234 1.371 . S
C2503 C980 1.503 . S
C2521 C1040 1.470 . S
C2523 C1306 1.366 . S
C2539 C380 1.491 . S
C2541 C1222 1.372 . S
C2557 C440 1.471 . S
C2559 C1318 1.366 . S
C2577 C1138 1.380 . S
C2575 C500 1.466 . S
C2593 C200 1.461 . S
C2595 C1402 1.380 . S
C2611 C260 1.503 . S
C2613 C1486 1.371 . S
C2629 C320 1.470 . S
C2631 C1558 1.366 . S
C2647 C740 1.491 . S
C2649 C1474 1.371 . S
C2667 C1570 1.366 . S
C2665 C800 1.471 . S
C2683 C860 1.466 . S
C2685 C1390 1.380 . S
C2701 C560 1.462 . S
C2703 C1654 1.380 . S
C2719 C620 1.503 . S
C2721 C1738 1.371 . S
C2739 C1810 1.366 . S
C2737 C680 1.470 . S
C2755 C20 1.491 . S
C2757 C1726 1.371 . S
C2773 C80 1.471 . S
C2775 C1822 1.366 . S
C2791 C140 1.466 . S
C2793 C1642 1.380 . S
