# Generated by pormake.
# Topology cml, (3,6)-cn, num edge types: 1
# Building blocks:
#     Node 0, Type 0, BuildingBlock: QEWDON_clean_linker_0, # of connection points: 3
#     Node 1, Type 0, BuildingBlock: QEWDON_clean_linker_0, # of connection points: 3
#     Node 2, Type 0, BuildingBlock: QEWDON_clean_linker_0, # of connection points: 3
#     Node 3, Type 0, BuildingBlock: QEWDON_clean_linker_0, # of connection points: 3
#     Node 4, Type 0, BuildingBlock: QEWDON_clean_linker_0, # of connection points: 3
#     Node 5, Type 0, BuildingBlock: QEWDON_clean_linker_0, # of connection points: 3
#     Node 6, Type 0, BuildingBlock: QEWDON_clean_linker_0, # of connection points: 3
#     Node 7, Type 0, BuildingBlock: QEWDON_clean_linker_0, # of connection points: 3
#     Node 8, Type 1, BuildingBlock: OJICUG_clean_sbu_0, # of connection points: 6
#     Node 9, Type 1, BuildingBlock: OJICUG_clean_sbu_0, # of connection points: 6
#     Node 10, Type 1, BuildingBlock: OJICUG_clean_sbu_0, # of connection points: 6
#     Node 11, Type 1, BuildingBlock: OJICUG_clean_sbu_0, # of connection points: 6
#     Edge 12, Type (0, 1), BuildingBlock: EZIPEK_clean_linker_0, # of connection points: 2
#     Edge 13, Type (0, 1), BuildingBlock: EZIPEK_clean_linker_0, # of connection points: 2
#     Edge 14, Type (0, 1), BuildingBlock: EZIPEK_clean_linker_0, # of connection points: 2
#     Edge 15, Type (0, 1), BuildingBlock: EZIPEK_clean_linker_0, # of connection points: 2
#     Edge 16, Type (0, 1), BuildingBlock: EZIPEK_clean_linker_0, # of connection points: 2
#     Edge 17, Type (0, 1), BuildingBlock: EZIPEK_clean_linker_0, # of connection points: 2
#     Edge 18, Type (0, 1), BuildingBlock: EZIPEK_clean_linker_0, # of connection points: 2
#     Edge 19, Type (0, 1), BuildingBlock: EZIPEK_clean_linker_0, # of connection points: 2
#     Edge 20, Type (0, 1), BuildingBlock: EZIPEK_clean_linker_0, # of connection points: 2
#     Edge 21, Type (0, 1), BuildingBlock: EZIPEK_clean_linker_0, # of connection points: 2
#     Edge 22, Type (0, 1), BuildingBlock: EZIPEK_clean_linker_0, # of connection points: 2
#     Edge 23, Type (0, 1), BuildingBlock: EZIPEK_clean_linker_0, # of connection points: 2
#     Edge 24, Type (0, 1), BuildingBlock: EZIPEK_clean_linker_0, # of connection points: 2
#     Edge 25, Type (0, 1), BuildingBlock: EZIPEK_clean_linker_0, # of connection points: 2
#     Edge 26, Type (0, 1), BuildingBlock: EZIPEK_clean_linker_0, # of connection points: 2
#     Edge 27, Type (0, 1), BuildingBlock: EZIPEK_clean_linker_0, # of connection points: 2
#     Edge 28, Type (0, 1), BuildingBlock: EZIPEK_clean_linker_0, # of connection points: 2
#     Edge 29, Type (0, 1), BuildingBlock: EZIPEK_clean_linker_0, # of connection points: 2
#     Edge 30, Type (0, 1), BuildingBlock: EZIPEK_clean_linker_0, # of connection points: 2
#     Edge 31, Type (0, 1), BuildingBlock: EZIPEK_clean_linker_0, # of connection points: 2
#     Edge 32, Type (0, 1), BuildingBlock: EZIPEK_clean_linker_0, # of connection points: 2
#     Edge 33, Type (0, 1), BuildingBlock: EZIPEK_clean_linker_0, # of connection points: 2
#     Edge 34, Type (0, 1), BuildingBlock: EZIPEK_clean_linker_0, # of connection points: 2
#     Edge 35, Type (0, 1), BuildingBlock: EZIPEK_clean_linker_0, # of connection points: 2
# Relax obj value: 0.006
# Max RMSD: 0.103
# Mean RMSD: 0.078
data_MOF--net-cml--node1-OJICUG_clean_sbu_0--node2-QEWDON_clean_linker_0--edge1-EZIPEK_clean_linker_0
_symmetry_space_group_name_H-M    P1
_symmetry_Int_Tables_number       1
_symmetry_cell_setting            triclinic
loop_
_symmetry_equiv_pos_as_xyz
'x, y, z'
_cell_length_a     32.09145
_cell_length_b     30.023108
_cell_length_c     27.091308
_cell_angle_alpha  89.900523
_cell_angle_beta   90.025824
_cell_angle_gamma 90.185965
loop_
_atom_site_label
_atom_site_type_symbol
_atom_site_fract_x
_atom_site_fract_y
_atom_site_fract_z
_atom_type_partial_charge
H0 H 0.26578 0.42825 0.94108 0.0
C1 C 0.28313 0.41883 0.97378 0.0
C2 C 0.3258 0.42916 0.9773 0.0
C3 C 0.26248 0.39914 0.0142 0.0
H4 H 0.3809 0.42511 0.0221 0.0
C5 C 0.34797 0.41706 0.01962 0.0
C6 C 0.32741 0.39931 0.06084 0.0
C7 C 0.28457 0.39061 0.05801 0.0
C8 C 0.21711 0.39106 0.01317 0.0
H9 H 0.26828 0.3779 0.09018 0.0
C10 C 0.19973 0.35836 0.98217 0.0
C11 C 0.15702 0.34793 0.98555 0.0
C12 C 0.19138 0.41403 0.04635 0.0
H13 H 0.20432 0.43918 0.07062 0.0
C14 C 0.14889 0.40445 0.04882 0.0
H15 H 0.21945 0.34014 0.95682 0.0
C16 C 0.13178 0.37141 0.01883 0.0
H17 H 0.09881 0.36394 0.02169 0.0
H18 H 0.12925 0.42229 0.07448 0.0
H19 H 0.73706 0.5828 0.43938 0.0
C20 C 0.71982 0.59148 0.47237 0.0
C21 C 0.67727 0.58077 0.47591 0.0
C22 C 0.74053 0.61057 0.51301 0.0
H23 H 0.62223 0.58393 0.52082 0.0
C24 C 0.65514 0.59212 0.51844 0.0
C25 C 0.67568 0.60948 0.55981 0.0
C26 C 0.71851 0.61834 0.55703 0.0
C27 C 0.78571 0.61984 0.51134 0.0
H28 H 0.73473 0.63095 0.58925 0.0
C29 C 0.8023 0.65021 0.47693 0.0
C30 C 0.84466 0.66225 0.47924 0.0
C31 C 0.81207 0.60037 0.54668 0.0
H32 H 0.79984 0.57686 0.57343 0.0
C33 C 0.85432 0.61131 0.548 0.0
H34 H 0.78213 0.66574 0.44985 0.0
C35 C 0.87053 0.64231 0.51473 0.0
H36 H 0.90327 0.65106 0.51685 0.0
H37 H 0.87443 0.59618 0.57534 0.0
H38 H 0.70903 0.38158 0.93008 0.0
C39 C 0.70066 0.38521 0.96861 0.0
C40 C 0.67507 0.42082 0.98325 0.0
C41 C 0.71027 0.35113 0.00256 0.0
H42 H 0.63917 0.44906 0.04243 0.0
C43 C 0.66115 0.4233 0.03206 0.0
C44 C 0.66991 0.38922 0.06545 0.0
C45 C 0.69558 0.354 0.05129 0.0
C46 C 0.7268 0.30802 0.98535 0.0
H47 H 0.70037 0.32648 0.07665 0.0
C48 C 0.76686 0.30431 0.96484 0.0
C49 C 0.78225 0.2621 0.95174 0.0
C50 C 0.70203 0.26961 -0.00891 0.0
H51 H 0.67092 0.27187 0.00642 0.0
C52 C 0.71708 0.22801 0.97723 0.0
H53 H 0.78624 0.33365 0.96029 0.0
C54 C 0.75707 0.22417 0.95784 0.0
H55 H 0.76853 0.19153 0.94768 0.0
H56 H 0.69781 0.19865 0.98184 0.0
H57 H 0.29226 0.62352 0.43088 0.0
C58 C 0.30077 0.62069 0.46948 0.0
C59 C 0.32738 0.58613 0.4848 0.0
C60 C 0.29006 0.65478 0.50281 0.0
H61 H 0.3642 0.55986 0.54444 0.0
C62 C 0.34146 0.58474 0.53361 0.0
C63 C 0.33159 0.61879 0.56644 0.0
C64 C 0.30473 0.65284 0.55169 0.0
C65 C 0.27176 0.69698 0.48489 0.0
H66 H 0.29885 0.68025 0.57676 0.0
C67 C 0.23302 0.69819 0.46061 0.0
C68 C 0.21577 0.73944 0.44673 0.0
C69 C 0.2936 0.73701 0.49321 0.0
H70 H 0.3238 0.73681 0.51112 0.0
C71 C 0.27685 0.77764 0.47852 0.0
H72 H 0.21591 0.66761 0.45386 0.0
C73 C 0.23804 0.77895 0.45565 0.0
H74 H 0.22521 0.81089 0.44496 0.0
H75 H 0.29387 0.80823 0.48518 0.0
H76 H 0.76883 0.92804 0.9286 0.0
C77 C 0.78601 0.91903 0.96157 0.0
C78 C 0.82867 0.92947 0.96529 0.0
C79 C 0.7651 0.89998 0.00219 0.0
H80 H 0.88357 0.92557 0.01043 0.0
C81 C 0.85059 0.91775 0.00796 0.0
C82 C 0.82974 0.90093 0.04947 0.0
C83 C 0.78685 0.89243 0.04644 0.0
C84 C 0.71969 0.89205 0.00113 0.0
H85 H 0.77025 0.88053 0.07876 0.0
C86 C 0.70238 0.85741 0.9727 0.0
C87 C 0.65961 0.84728 0.97664 0.0
C88 C 0.69388 0.91709 0.03229 0.0
H89 H 0.70678 0.94368 0.05464 0.0
C90 C 0.65138 0.90769 0.03535 0.0
H91 H 0.72216 0.83762 0.94892 0.0
C92 C 0.63433 0.87284 0.00795 0.0
H93 H 0.60133 0.86567 0.0112 0.0
H94 H 0.63169 0.92713 0.05949 0.0
H95 H 0.23451 0.07201 0.44391 0.0
C96 C 0.21814 0.08753 0.47431 0.0
C97 C 0.17526 0.07955 0.4809 0.0
C98 C 0.24031 0.11344 0.50887 0.0
H99 H 0.12231 0.09153 0.5279 0.0
C100 C 0.15511 0.09854 0.52176 0.0
C101 C 0.17759 0.12126 0.5583 0.0
C102 C 0.22009 0.12943 0.55125 0.0
C103 C 0.28582 0.11856 0.50524 0.0
H104 H 0.2379 0.1459 0.57999 0.0
C105 C 0.30356 0.15405 0.47856 0.0
C106 C 0.34691 0.1612 0.47993 0.0
C107 C 0.31153 0.08985 0.5324 0.0
H108 H 0.29818 0.06265 0.55352 0.0
C109 C 0.35455 0.09656 0.53325 0.0
H110 H 0.28377 0.1765 0.4578 0.0
C111 C 0.37219 0.13216 0.50742 0.0
H112 H 0.40563 0.1371 0.50878 0.0
H113 H 0.37424 0.07438 0.55439 0.0
H114 H 0.21278 0.88738 0.92811 0.0
C115 C 0.20452 0.89136 0.96664 0.0
C116 C 0.17897 0.92713 0.98095 0.0
C117 C 0.21402 0.85747 0.00084 0.0
H118 H 0.14324 0.95596 0.0399 0.0
C119 C 0.1652 0.93009 0.02979 0.0
C120 C 0.17383 0.8962 0.06351 0.0
C121 C 0.19935 0.86076 0.04958 0.0
C122 C 0.22979 0.81393 0.98382 0.0
H123 H 0.20387 0.83327 0.07506 0.0
C124 C 0.26989 0.80911 0.96363 0.0
C125 C 0.28436 0.76644 0.95068 0.0
C126 C 0.20408 0.7762 -0.01067 0.0
H127 H 0.17294 0.77931 0.00436 0.0
C128 C 0.21822 0.7342 0.97563 0.0
H129 H 0.28998 0.83792 0.95922 0.0
C130 C 0.25822 0.72924 0.95662 0.0
H131 H 0.26893 0.69628 0.94659 0.0
H132 H 0.19821 0.70538 0.98008 0.0
H133 H 0.79651 0.12211 0.42669 0.0
C134 C 0.80488 0.12046 0.46541 0.0
C135 C 0.83052 0.08567 0.48242 0.0
C136 C 0.7952 0.15619 0.49699 0.0
H137 H 0.86669 0.0607 0.54328 0.0
C138 C 0.84466 0.08585 0.53123 0.0
C139 C 0.83581 0.12156 0.5623 0.0
C140 C 0.80997 0.15591 0.54582 0.0
C141 C 0.77936 0.19857 0.47671 0.0
H142 H 0.80524 0.18475 0.5692 0.0
C143 C 0.73828 0.20294 0.4593 0.0
C144 C 0.72381 0.24492 0.44364 0.0
C145 C 0.80596 0.23588 0.4768 0.0
H146 H 0.83778 0.23306 0.48983 0.0
C147 C 0.7918 0.27713 0.46041 0.0
H148 H 0.7175 0.17442 0.45915 0.0
C149 C 0.75089 0.28175 0.44415 0.0
H150 H 0.74021 0.31418 0.432 0.0
H151 H 0.81249 0.30567 0.46071 0.0
Sc152 Sc 0.99659 0.82523 0.28476 0.0
Sc153 Sc 0.99527 0.94296 0.29361 0.0
Sc154 Sc 0.9981 0.87758 0.40098 0.0
O155 O 0.99632 0.88187 0.3264 0.0
C156 C 0.93746 0.7963 0.37353 0.0
C157 C 0.93534 0.88716 0.2226 0.0
C158 C 0.93425 0.95821 0.38398 0.0
C159 C 0.05831 0.8887 0.2256 0.0
C160 C 0.061 0.80074 0.37014 0.0
C161 C 0.05828 0.9615 0.38206 0.0
O162 O 0.94852 0.79386 0.32849 0.0
O163 O 0.94713 0.92288 0.2434 0.0
O164 O 0.94897 0.92676 0.41038 0.0
O165 O 0.04469 0.85045 0.23761 0.0
O166 O 0.04772 0.82978 0.4002 0.0
O167 O 0.0422 0.97211 0.34088 0.0
O168 O 0.04469 0.79396 0.32812 0.0
O169 O 0.0436 0.92502 0.2421 0.0
O170 O 0.0462 0.92748 0.40615 0.0
O171 O 0.95024 0.84925 0.23365 0.0
O172 O 0.95211 0.82494 0.40357 0.0
O173 O 0.94746 0.96745 0.34106 0.0
Sc174 Sc 0.00578 0.18749 0.79407 0.0
Sc175 Sc 0.01241 0.07174 0.79051 0.0
Sc176 Sc 0.00512 0.12515 0.90403 0.0
O177 O 0.00757 0.12822 0.82977 0.0
C178 C 0.06292 0.2114 0.88416 0.0
C179 C 0.07193 0.13268 0.7301 0.0
C180 C 0.07029 0.04967 0.88332 0.0
C181 C 0.94988 0.1301 0.72541 0.0
C182 C 0.9401 0.20071 0.88148 0.0
C183 C 0.94699 0.04265 0.86985 0.0
O184 O 0.05617 0.21334 0.8379 0.0
O185 O 0.06719 0.09732 0.75522 0.0
O186 O 0.05964 0.08324 0.90889 0.0
O187 O 0.95523 0.16625 0.74862 0.0
O188 O 0.95057 0.16618 0.90554 0.0
O189 O 0.95826 0.0432 0.8249 0.0
O190 O 0.9599 0.21503 0.84397 0.0
O191 O 0.97182 0.09547 0.73242 0.0
O192 O 0.9636 0.06742 0.90282 0.0
O193 O 0.04942 0.16697 0.73699 0.0
O194 O 0.04497 0.18341 0.91269 0.0
O195 O 0.05307 0.03961 0.84263 0.0
Sc196 Sc 0.49791 0.32772 0.2959 0.0
Sc197 Sc 0.49535 0.44405 0.29548 0.0
Sc198 Sc 0.50083 0.38688 0.40748 0.0
O199 O 0.49803 0.38615 0.33303 0.0
C200 C 0.44158 0.30226 0.38597 0.0
C201 C 0.43389 0.3867 0.23286 0.0
C202 C 0.43676 0.46381 0.38838 0.0
C203 C 0.55592 0.38529 0.22871 0.0
C204 C 0.56463 0.311 0.38187 0.0
C205 C 0.56008 0.4694 0.37685 0.0
O206 O 0.44741 0.30204 0.33955 0.0
O207 O 0.44093 0.42225 0.25676 0.0
O208 O 0.44688 0.42948 0.41321 0.0
O209 O 0.5482 0.34845 0.24971 0.0
O210 O 0.55499 0.34509 0.40709 0.0
O211 O 0.5495 0.47002 0.33175 0.0
O212 O 0.54394 0.29798 0.34441 0.0
O213 O 0.53636 0.42108 0.23779 0.0
O214 O 0.54278 0.4441 0.40879 0.0
O215 O 0.45388 0.35078 0.2406 0.0
O216 O 0.46055 0.32883 0.41508 0.0
O217 O 0.4544 0.47482 0.34816 0.0
Sc218 Sc 0.50582 0.68174 0.79491 0.0
Sc219 Sc 0.50719 0.56531 0.79502 0.0
Sc220 Sc 0.50441 0.62255 0.90695 0.0
O221 O 0.50583 0.6233 0.83238 0.0
C222 C 0.56395 0.70677 0.88381 0.0
C223 C 0.56866 0.62207 0.73126 0.0
C224 C 0.5671 0.54463 0.88669 0.0
C225 C 0.44634 0.6247 0.72894 0.0
C226 C 0.44082 0.69915 0.88236 0.0
C227 C 0.44348 0.54082 0.87799 0.0
O228 O 0.55688 0.70745 0.83763 0.0
O229 O 0.56114 0.58643 0.75493 0.0
O230 O 0.55782 0.57908 0.91163 0.0
O231 O 0.45484 0.66149 0.74949 0.0
O232 O 0.45094 0.66531 0.90785 0.0
O233 O 0.45337 0.54007 0.83268 0.0
O234 O 0.46048 0.71164 0.84391 0.0
O235 O 0.46547 0.58864 0.7381 0.0
O236 O 0.46158 0.56594 0.90945 0.0
O237 O 0.54927 0.6583 0.73931 0.0
O238 O 0.54571 0.67997 0.9134 0.0
O239 O 0.5487 0.53396 0.84686 0.0
C240 C 0.14534 0.26679 0.965 0.0
C241 C 0.1378 0.31246 0.95466 0.0
C242 C 0.08084 0.29183 0.89908 0.0
C243 C 0.09013 0.24603 0.90659 0.0
N244 N 0.13697 0.19021 0.93828 0.0
N245 N 0.10594 0.36788 0.90263 0.0
C246 C 0.1242 0.23356 0.93701 0.0
C247 C 0.10805 0.32472 0.91854 0.0
N248 N 0.17113 0.25506 0.00298 0.0
N249 N 0.04459 0.3042 0.87639 0.0
H250 H 0.12573 0.39279 0.9159 0.0
H251 H 0.08762 0.37788 0.87287 0.0
H252 H 0.02238 0.28152 0.8638 0.0
H253 H 0.03439 0.33708 0.87478 0.0
H254 H 0.17405 0.22249 0.01578 0.0
H255 H 0.18723 0.27829 0.02434 0.0
H256 H 0.16414 0.17986 0.95589 0.0
H257 H 0.12253 0.16519 0.91775 0.0
C258 C 0.85275 0.74198 0.45081 0.0
C259 C 0.86273 0.6962 0.44533 0.0
C260 C 0.92048 0.71571 0.39038 0.0
C261 C 0.90925 0.76142 0.39369 0.0
N262 N 0.85845 0.81645 0.41671 0.0
N263 N 0.89808 0.63903 0.39944 0.0
C264 C 0.87329 0.77402 0.42063 0.0
C265 C 0.89389 0.68298 0.41144 0.0
N266 N 0.82541 0.75521 0.48652 0.0
N267 N 0.95794 0.70351 0.3706 0.0
H268 H 0.87878 0.61425 0.41403 0.0
H269 H 0.91768 0.62794 0.3714 0.0
H270 H 0.97969 0.72615 0.35682 0.0
H271 H 0.96937 0.67111 0.37245 0.0
H272 H 0.82065 0.78847 0.49575 0.0
H273 H 0.80991 0.73297 0.50975 0.0
H274 H 0.83024 0.82663 0.43189 0.0
H275 H 0.87237 0.84015 0.39383 0.0
C276 C 0.85982 0.25594 0.96328 0.0
C277 C 0.82474 0.25627 0.93135 0.0
C278 C 0.86622 0.22344 0.86514 0.0
C279 C 0.90161 0.22391 0.89663 0.0
N280 N 0.935 0.25026 0.97073 0.0
N281 N 0.79694 0.25188 0.84898 0.0
C282 C 0.89932 0.24336 0.94419 0.0
C283 C 0.82889 0.24399 0.88117 0.0
N284 N 0.85501 0.26537 0.01228 0.0
N285 N 0.86727 0.20078 0.82144 0.0
H286 H 0.7692 0.26706 0.85984 0.0
H287 H 0.79951 0.24749 0.81098 0.0
H288 H 0.89364 0.18425 0.80876 0.0
H289 H 0.84099 0.19498 0.79978 0.0
H290 H 0.87835 0.26047 0.03844 0.0
H291 H 0.82674 0.27542 0.0275 0.0
H292 H 0.93588 0.26812 0.00363 0.0
H293 H 0.96442 0.24169 0.95744 0.0
C294 C 0.17253 0.75804 0.37329 0.0
C295 C 0.17432 0.74286 0.42274 0.0
C296 C 0.09873 0.75169 0.42976 0.0
C297 C 0.09863 0.77536 0.38441 0.0
N298 N 0.1368 0.80485 0.31442 0.0
N299 N 0.13948 0.72658 0.49966 0.0
C300 C 0.1357 0.77887 0.35592 0.0
C301 C 0.13739 0.73927 0.45127 0.0
N302 N 0.2064 0.75303 0.3433 0.0
N303 N 0.06181 0.74089 0.45195 0.0
H304 H 0.1671 0.71667 0.51665 0.0
H305 H 0.11433 0.7286 0.52383 0.0
H306 H 0.03299 0.74899 0.43651 0.0
H307 H 0.05967 0.72021 0.48276 0.0
H308 H 0.20583 0.75981 0.30558 0.0
H309 H 0.23377 0.73775 0.35534 0.0
H310 H 0.16423 0.81263 0.29571 0.0
H311 H 0.11106 0.82198 0.30083 0.0
C312 C 0.61033 0.82105 0.91138 0.0
C313 C 0.64015 0.81036 0.94801 0.0
C314 C 0.6255 0.73079 0.93558 0.0
C315 C 0.5914 0.74208 0.90462 0.0
N316 N 0.54615 0.79932 0.87166 0.0
N317 N 0.67311 0.75515 -0.00031 0.0
C318 C 0.58255 0.78758 0.89445 0.0
C319 C 0.64721 0.76518 0.96123 0.0
N320 N 0.60867 0.86327 0.89257 0.0
N321 N 0.6378 0.6874 0.93955 0.0
H322 H 0.68964 0.77927 0.01931 0.0
H323 H 0.67575 0.72326 0.01456 0.0
H324 H 0.62296 0.66153 0.92077 0.0
H325 H 0.66493 0.67764 0.95763 0.0
H326 H 0.59024 0.87186 0.86236 0.0
H327 H 0.62892 0.88855 0.90388 0.0
H328 H 0.53637 0.83223 0.86813 0.0
H329 H 0.52341 0.77638 0.86113 0.0
C330 C 0.3948 0.18816 0.41345 0.0
C331 C 0.36678 0.19843 0.45211 0.0
C332 C 0.38205 0.27799 0.44074 0.0
C333 C 0.41461 0.26689 0.40754 0.0
N334 N 0.45781 0.20966 0.37109 0.0
N335 N 0.33754 0.25293 0.50756 0.0
C336 C 0.42246 0.2215 0.39594 0.0
C337 C 0.36118 0.24337 0.46703 0.0
N338 N 0.39478 0.14654 0.39309 0.0
N339 N 0.3703 0.3214 0.44623 0.0
H340 H 0.32201 0.2286 0.52807 0.0
H341 H 0.33614 0.28455 0.52325 0.0
H342 H 0.38438 0.34748 0.42691 0.0
H343 H 0.3441 0.33102 0.46618 0.0
H344 H 0.41182 0.13855 0.3616 0.0
H345 H 0.37443 0.12139 0.40453 0.0
H346 H 0.46686 0.17665 0.3663 0.0
H347 H 0.48058 0.23241 0.36012 0.0
C348 C 0.33084 0.74611 0.88069 0.0
C349 C 0.32683 0.75928 0.93061 0.0
C350 C 0.40097 0.74409 0.94407 0.0
C351 C 0.40288 0.72374 0.89693 0.0
N352 N 0.36793 0.70027 0.82223 0.0
N353 N 0.35707 0.76843 0.01154 0.0
C354 C 0.36755 0.72391 0.86532 0.0
C355 C 0.36177 0.75822 0.96272 0.0
N356 N 0.29932 0.75468 0.84813 0.0
N357 N 0.43674 0.7504 0.97061 0.0
H358 H 0.32905 0.77959 0.02646 0.0
H359 H 0.38017 0.76309 0.03789 0.0
H360 H 0.46597 0.74078 0.95761 0.0
H361 H 0.43798 0.7688 0.00313 0.0
H362 H 0.30195 0.74959 0.81023 0.0
H363 H 0.27207 0.77107 0.8585 0.0
H364 H 0.34151 0.69509 0.8006 0.0
H365 H 0.39366 0.68228 0.81019 0.0
C366 C 0.64715 0.25488 0.46045 0.0
C367 C 0.68043 0.25174 0.42615 0.0
C368 C 0.63697 0.28483 0.36173 0.0
C369 C 0.60314 0.28678 0.39547 0.0
N370 N 0.57271 0.26357 0.47268 0.0
N371 N 0.70365 0.25186 0.3417 0.0
C372 C 0.60718 0.26848 0.44354 0.0
C373 C 0.67403 0.26259 0.37586 0.0
N374 N 0.65416 0.24719 0.50948 0.0
N375 N 0.63505 0.30698 0.31767 0.0
H376 H 0.73111 0.23534 0.35112 0.0
H377 H 0.69909 0.25524 0.3038 0.0
H378 H 0.60925 0.32538 0.3066 0.0
H379 H 0.66052 0.31076 0.2942 0.0
H380 H 0.63238 0.25415 0.53688 0.0
H381 H 0.68281 0.23665 0.52327 0.0
H382 H 0.573 0.24662 0.50626 0.0
H383 H 0.54293 0.27269 0.46103 0.0
C384 C 0.3772 0.43831 0.9089 0.0
C385 C 0.34758 0.4579 0.94073 0.0
C386 C 0.37392 0.53213 0.91888 0.0
C387 C 0.40839 0.51214 0.8949 0.0
N388 N 0.44361 0.44554 0.8672 0.0
N389 N 0.31807 0.52351 0.9782 0.0
C390 C 0.4099 0.46503 0.88904 0.0
C391 C 0.34557 0.50492 0.94574 0.0
N392 N 0.37403 0.39398 0.89814 0.0
N393 N 0.36777 0.57705 0.91492 0.0
H394 H 0.29585 0.50496 -0.00257 0.0
H395 H 0.31892 0.55697 0.98826 0.0
H396 H 0.38731 0.59776 0.89429 0.0
H397 H 0.34109 0.59301 0.92766 0.0
H398 H 0.39221 0.37812 0.8717 0.0
H399 H 0.35027 0.37397 0.91251 0.0
H400 H 0.4489 0.41135 0.86744 0.0
H401 H 0.46805 0.46352 0.85151 0.0
C402 C 0.65847 0.50543 0.44288 0.0
C403 C 0.65565 0.55249 0.43896 0.0
C404 C 0.59293 0.54541 0.38797 0.0
C405 C 0.59517 0.49827 0.39295 0.0
N406 N 0.63692 0.43362 0.41082 0.0
N407 N 0.62787 0.61683 0.39808 0.0
C408 C 0.63022 0.47834 0.41585 0.0
C409 C 0.62545 0.57225 0.40792 0.0
N410 N 0.68654 0.48662 0.47457 0.0
N411 N 0.55872 0.56471 0.36692 0.0
H412 H 0.65152 0.63691 0.41254 0.0
H413 H 0.60917 0.63295 0.37227 0.0
H414 H 0.53443 0.54658 0.35117 0.0
H415 H 0.55295 0.5988 0.36782 0.0
H416 H 0.68631 0.45293 0.48383 0.0
H417 H 0.70863 0.5051 0.49404 0.0
H418 H 0.66397 0.41781 0.42276 0.0
H419 H 0.61737 0.41305 0.39007 0.0
C420 C 0.61268 0.43587 0.93229 0.0
C421 C 0.65315 0.4494 0.94696 0.0
C422 C 0.63972 0.52431 0.91442 0.0
C423 C 0.59728 0.51237 0.90731 0.0
N424 N 0.54164 0.45904 0.91898 0.0
N425 N 0.70547 0.50649 0.95437 0.0
C426 C 0.58333 0.46859 0.9183 0.0
C427 C 0.66694 0.49363 0.93831 0.0
N428 N 0.60201 0.39177 0.93292 0.0
N429 N 0.65409 0.56439 0.89745 0.0
H430 H 0.7266 0.48402 0.96974 0.0
H431 H 0.71565 0.53946 0.95452 0.0
H432 H 0.63495 0.58727 0.87944 0.0
H433 H 0.68544 0.57341 0.8976 0.0
H434 H 0.57414 0.37967 0.91835 0.0
H435 H 0.62275 0.3668 0.94326 0.0
H436 H 0.52948 0.42887 0.93155 0.0
H437 H 0.51884 0.48296 0.9124 0.0
C438 C 0.39015 0.57174 0.43435 0.0
C439 C 0.34985 0.55764 0.44905 0.0
C440 C 0.36411 0.48293 0.41678 0.0
C441 C 0.40636 0.49552 0.4094 0.0
N442 N 0.4614 0.54963 0.42041 0.0
N443 N 0.29827 0.49981 0.45687 0.0
C444 C 0.41983 0.53947 0.4202 0.0
C445 C 0.33659 0.51322 0.44064 0.0
N446 N 0.4003 0.61599 0.435 0.0
N447 N 0.3502 0.44264 0.40004 0.0
H448 H 0.2769 0.52194 0.47225 0.0
H449 H 0.28851 0.46669 0.45719 0.0
H450 H 0.36956 0.42 0.38212 0.0
H451 H 0.31896 0.43317 0.40034 0.0
H452 H 0.42797 0.62855 0.42037 0.0
H453 H 0.3793 0.64063 0.44549 0.0
H454 H 0.47329 0.57993 0.43284 0.0
H455 H 0.48446 0.52609 0.41349 0.0
C456 C 0.84756 0.00529 0.933 0.0
C457 C 0.85061 0.95825 0.92881 0.0
C458 C 0.91412 0.96627 0.87919 0.0
C459 C 0.91164 0.01334 0.88457 0.0
N460 N 0.86928 0.07754 0.90203 0.0
N461 N 0.87943 0.8945 0.88811 0.0
C462 C 0.87611 0.03281 0.90683 0.0
C463 C 0.88144 0.93901 0.89828 0.0
N464 N 0.81898 0.02368 0.96426 0.0
N465 N 0.94867 0.94742 0.85854 0.0
H466 H 0.85567 0.87416 0.9019 0.0
H467 H 0.89865 0.87871 0.86266 0.0
H468 H 0.97296 0.96593 0.8433 0.0
H469 H 0.95462 0.91336 0.85917 0.0
H470 H 0.81897 0.05727 0.9738 0.0
H471 H 0.7967 1.00493 0.98315 0.0
H472 H 0.84196 0.09308 0.91344 0.0
H473 H 0.88907 0.09842 0.88193 0.0
C474 C 0.13136 0.01107 0.47748 0.0
C475 C 0.15182 0.04556 0.45142 0.0
C476 C 0.11881 0.01756 0.37589 0.0
C477 C 0.09092 0.99092 0.40485 0.0
N478 N 0.06426 0.97765 0.48783 0.0
N479 N 0.16065 0.08504 0.37439 0.0
C480 C 0.09533 0.99178 0.45707 0.0
C481 C 0.14445 0.0499 0.40002 0.0
N482 N 0.14627 0.99673 0.52179 0.0
N483 N 0.12268 0.01095 0.32627 0.0
H484 H 0.17912 0.10946 0.3909 0.0
H485 H 0.15274 0.09165 0.33777 0.0
H486 H 0.10795 0.98502 0.30763 0.0
H487 H 0.14484 0.02763 0.30496 0.0
H488 H 0.13282 0.97021 0.54106 0.0
H489 H 0.17515 0.00739 0.5349 0.0
H490 H 0.06662 0.98032 0.52614 0.0
H491 H 0.03427 0.97014 0.47558 0.0
C492 C 0.17021 0.99996 0.93622 0.0
C493 C 0.157 0.95545 0.94438 0.0
C494 C 0.08731 0.97354 0.91422 0.0
C495 C 0.1007 0.01766 0.904 0.0
N496 N 0.15684 0.07065 0.89545 0.0
N497 N 0.10696 0.897 0.92888 0.0
C498 C 0.14285 0.03028 0.91198 0.0
C499 C 0.11695 0.94128 0.92877 0.0
N500 N 0.20833 0.01342 0.95303 0.0
N501 N 0.04578 0.96314 0.91349 0.0
H502 H 0.1279 0.87232 0.93951 0.0
H503 H 0.07955 0.88445 0.9136 0.0
H504 H 0.0227 0.98655 0.90603 0.0
H505 H 0.03386 0.93271 0.92558 0.0
H506 H 0.21799 0.04656 0.95356 0.0
H507 H 0.22964 0.99125 0.9686 0.0
H508 H 0.18804 0.08023 0.89627 0.0
H509 H 0.13761 0.09319 0.87705 0.0
C510 C 0.89254 0.06776 0.4317 0.0
C511 C 0.85218 0.05522 0.44792 0.0
C512 C 0.86328 0.97972 0.41608 0.0
C513 C 0.90554 0.99079 0.4066 0.0
N514 N 0.9624 0.04347 0.41269 0.0
N515 N 0.79919 0.99919 0.4586 0.0
C516 C 0.92067 0.03442 0.41607 0.0
C517 C 0.83741 0.01115 0.44072 0.0
N518 N 0.90408 0.11164 0.43162 0.0
N519 N 0.84772 0.93983 0.40032 0.0
H520 H 0.77895 0.02212 0.47467 0.0
H521 H 0.78846 0.96643 0.45964 0.0
H522 H 0.86594 0.91675 0.38149 0.0
H523 H 0.8163 0.93124 0.40218 0.0
H524 H 0.93157 0.12325 0.41564 0.0
H525 H 0.88435 0.13712 0.44306 0.0
H526 H 0.97579 0.07321 0.42459 0.0
H527 H 0.98443 0.01975 0.40254 0.0
C528 C 0.35408 0.35472 0.13417 0.0
C529 C 0.35042 0.39577 0.10838 0.0
C530 C 0.4044 0.428 0.16035 0.0
C531 C 0.40444 0.38926 0.19058 0.0
N532 N 0.37061 0.31978 0.21235 0.0
N533 N 0.36175 0.47544 0.10969 0.0
C534 C 0.37665 0.35367 0.17942 0.0
C535 C 0.37204 0.43377 0.12584 0.0
N536 N 0.33776 0.3165 0.11481 0.0
N537 N 0.43663 0.45786 0.16151 0.0
H538 H 0.33664 0.48131 0.0861 0.0
H539 H 0.37517 0.5042 0.12439 0.0
H540 H 0.46392 0.45262 0.18152 0.0
H541 H 0.43864 0.48468 0.13709 0.0
H542 H 0.34319 0.28518 0.13013 0.0
H543 H 0.32223 0.31555 0.08103 0.0
H544 H 0.34804 0.29514 0.20737 0.0
H545 H 0.38468 0.31907 0.24703 0.0
C546 C 0.64909 0.65384 0.63316 0.0
C547 C 0.65255 0.61291 0.60726 0.0
C548 C 0.59807 0.5809 0.65875 0.0
C549 C 0.59823 0.61946 0.68912 0.0
N550 N 0.63278 0.68835 0.71146 0.0
N551 N 0.64053 0.53335 0.60822 0.0
C552 C 0.62643 0.6548 0.67831 0.0
C553 C 0.63053 0.57502 0.62445 0.0
N554 N 0.66564 0.69208 0.61399 0.0
N555 N 0.56558 0.55135 0.65959 0.0
H556 H 0.66569 0.52738 0.58476 0.0
H557 H 0.62681 0.50462 0.62271 0.0
H558 H 0.53824 0.55676 0.67943 0.0
H559 H 0.56345 0.52469 0.63508 0.0
H560 H 0.66037 0.72333 0.62944 0.0
H561 H 0.68115 0.69317 0.58021 0.0
H562 H 0.65562 0.71274 0.70668 0.0
H563 H 0.61872 0.68891 0.74614 0.0
C564 C 0.65541 0.40258 0.15534 0.0
C565 C 0.64288 0.38468 0.1093 0.0
C566 C 0.57297 0.36964 0.14123 0.0
C567 C 0.58606 0.38528 0.18801 0.0
N568 N 0.64026 0.41091 0.24273 0.0
N569 N 0.59297 0.34345 0.06036 0.0
C570 C 0.62752 0.40008 0.19607 0.0
C571 C 0.60263 0.36574 0.1029 0.0
N572 N 0.69341 0.4229 0.15958 0.0
N573 N 0.53181 0.36016 0.13293 0.0
H574 H 0.61357 0.34024 0.03087 0.0
H575 H 0.56587 0.32474 0.05582 0.0
H576 H 0.50903 0.36223 0.16026 0.0
H577 H 0.5195 0.35384 0.09806 0.0
H578 H 0.70273 0.4409 0.1905 0.0
H579 H 0.71495 0.42385 0.13075 0.0
H580 H 0.67111 0.41759 0.25208 0.0
H581 H 0.62025 0.41033 0.27308 0.0
C582 C 0.34674 0.60553 0.65627 0.0
C583 C 0.35833 0.62457 0.61038 0.0
C584 C 0.42782 0.64212 0.64212 0.0
C585 C 0.41569 0.62499 0.68868 0.0
N586 N 0.3627 0.59658 0.74342 0.0
N587 N 0.40636 0.66867 0.56178 0.0
C588 C 0.37478 0.60851 0.69683 0.0
C589 C 0.39778 0.64539 0.60407 0.0
N590 N 0.30949 0.58366 0.6605 0.0
N591 N 0.46856 0.65338 0.6336 0.0
H592 H 0.38554 0.67129 0.5324 0.0
H593 H 0.43267 0.68865 0.55736 0.0
H594 H 0.49164 0.65168 0.66065 0.0
H595 H 0.48036 0.66086 0.59876 0.0
H596 H 0.30101 0.56481 0.69119 0.0
H597 H 0.28775 0.58241 0.63186 0.0
H598 H 0.33216 0.58853 0.75288 0.0
H599 H 0.38281 0.59771 0.77369 0.0
C600 C 0.87607 0.9349 0.11346 0.0
C601 C 0.85256 0.89769 0.09727 0.0
C602 C 0.87554 0.8571 0.17087 0.0
C603 C 0.90574 0.89083 0.18041 0.0
N604 N 0.94222 0.95564 0.1475 0.0
N605 N 0.83623 0.8194 0.10715 0.0
C606 C 0.90813 0.92823 0.14818 0.0
C607 C 0.85385 0.85753 0.12505 0.0
N608 N 0.86791 0.97665 0.09594 0.0
N609 N 0.86633 0.8257 0.20574 0.0
H610 H 0.82181 0.81765 0.07273 0.0
H611 H 0.83981 0.78858 0.12442 0.0
H612 H 0.87911 0.82614 0.24112 0.0
H613 H 0.84223 0.80267 0.20141 0.0
H614 H 0.88297 1.00493 0.10957 0.0
H615 H 0.84294 0.98338 0.07241 0.0
H616 H 0.94557 0.98129 0.12176 0.0
H617 H 0.96944 0.94912 0.16714 0.0
C618 C 0.14735 0.16888 0.62729 0.0
C619 C 0.15789 0.12674 0.60759 0.0
C620 C 0.11004 0.09062 0.66398 0.0
C621 C 0.10228 0.13171 0.68835 0.0
N622 N 0.1246 0.2083 0.70036 0.0
N623 N 0.16346 0.04815 0.6238 0.0
C624 C 0.12416 0.17063 0.67223 0.0
C625 C 0.14415 0.08782 0.63179 0.0
N626 N 0.15858 0.20689 0.60302 0.0
N627 N 0.08333 0.05524 0.66768 0.0
H628 H 0.19099 0.04625 0.60343 0.0
H629 H 0.15516 0.01914 0.64271 0.0
H630 H 0.05401 0.05738 0.684 0.0
H631 H 0.08774 0.02594 0.6477 0.0
H632 H 0.14803 0.23831 0.61342 0.0
H633 H 0.17607 0.20649 0.57057 0.0
H634 H 0.14263 0.23612 0.69149 0.0
H635 H 0.11126 0.20984 0.73536 0.0
C636 C 0.10548 0.87433 0.09926 0.0
C637 C 0.14621 0.89157 0.10688 0.0
C638 C 0.13066 0.90362 0.19432 0.0
C639 C 0.08879 0.89076 0.18515 0.0
N640 N 0.03412 0.87187 0.1275 0.0
N641 N 0.19723 0.92633 0.15949 0.0
C642 C 0.07558 0.87824 0.13724 0.0
C643 C 0.15882 0.90724 0.15389 0.0
N644 N 0.09556 0.85343 0.05595 0.0
N645 N 0.14364 0.91103 0.24167 0.0
H646 H 0.21888 0.92811 0.13081 0.0
H647 H 0.20671 0.94269 0.19145 0.0
H648 H 0.12363 0.90871 0.27192 0.0
H649 H 0.17465 0.91624 0.25142 0.0
H650 H 0.06783 0.83599 0.05053 0.0
H651 H 0.1165 0.84976 0.02687 0.0
H652 H 0.02222 0.86793 0.09199 0.0
H653 H 0.01094 0.87466 0.15426 0.0
C654 C 0.90224 0.14823 0.59948 0.0
C655 C 0.86253 0.12806 0.60617 0.0
C656 C 0.87845 0.11378 0.69316 0.0
C657 C 0.91949 0.12979 0.68487 0.0
N658 N 0.97275 0.15725 0.62978 0.0
N659 N 0.81297 0.08907 0.65715 0.0
C660 C 0.93199 0.14587 0.63798 0.0
C661 C 0.85051 0.1103 0.65253 0.0
N662 N 0.91134 0.17005 0.55639 0.0
N663 N 0.8662 0.10253 0.73991 0.0
H664 H 0.79131 0.08751 0.62845 0.0
H665 H 0.80408 0.07105 0.68828 0.0
H666 H 0.88633 0.1036 0.77015 0.0
H667 H 0.83559 0.09494 0.74949 0.0
H668 H 0.93781 0.18968 0.55143 0.0
H669 H 0.89085 0.17177 0.52662 0.0
H670 H 0.98496 0.16392 0.59494 0.0
H671 H 0.99544 0.15673 0.65733 0.0
loop_
_geom_bond_atom_site_label_1
_geom_bond_atom_site_label_2
_geom_bond_distance
_geom_bond_site_symmetry_2
_ccdc_geom_bond_type
H0 C1 0.949 . S
C1 H0 0.949 . S
C1 C2 1.395 . S
C1 C3 1.391 1_556 S
C2 C1 1.395 . S
C2 C5 1.390 1_556 S
C3 C1 1.391 1_554 S
C3 C7 1.387 . S
C3 C8 1.491 . S
H4 C5 0.950 . S
C5 C2 1.390 1_554 S
C5 H4 0.950 . S
C5 C6 1.378 . S
C6 C5 1.378 . S
C6 C7 1.409 . S
C7 C3 1.387 . S
C7 C6 1.409 . S
C7 H9 0.951 . S
C8 C3 1.491 . S
C8 C10 1.382 1_554 S
C8 C12 1.404 . S
H9 C7 0.951 . S
C10 C8 1.382 1_556 S
C10 C11 1.390 . S
C10 H15 0.949 . S
C11 C10 1.390 . S
C11 C16 1.399 1_556 S
C12 C8 1.404 . S
C12 H13 0.950 . S
C12 C14 1.375 . S
H13 C12 0.950 . S
C14 C12 1.375 . S
C14 C16 1.382 . S
C14 H18 0.950 . S
H15 C10 0.949 . S
C16 C11 1.399 1_554 S
C16 C14 1.382 . S
C16 H17 0.952 . S
H17 C16 0.952 . S
H18 C14 0.950 . S
H19 C20 0.949 . S
C20 H19 0.949 . S
C20 C21 1.395 . S
C20 C22 1.391 . S
C21 C20 1.395 . S
C21 C24 1.390 . S
C22 C20 1.391 . S
C22 C26 1.387 . S
C22 C27 1.491 . S
H23 C24 0.950 . S
C24 C21 1.390 . S
C24 H23 0.950 . S
C24 C25 1.378 . S
C25 C24 1.378 . S
C25 C26 1.409 . S
C26 C22 1.387 . S
C26 C25 1.409 . S
C26 H28 0.951 . S
C27 C22 1.491 . S
C27 C29 1.382 . S
C27 C31 1.404 . S
H28 C26 0.951 . S
C29 C27 1.382 . S
C29 C30 1.390 . S
C29 H34 0.949 . S
C30 C29 1.390 . S
C30 C35 1.399 . S
C31 C27 1.404 . S
C31 H32 0.950 . S
C31 C33 1.375 . S
H32 C31 0.950 . S
C33 C31 1.375 . S
C33 C35 1.382 . S
C33 H37 0.950 . S
H34 C29 0.949 . S
C35 C30 1.399 . S
C35 C33 1.382 . S
C35 H36 0.952 . S
H36 C35 0.952 . S
H37 C33 0.950 . S
H38 C39 0.949 . S
C39 H38 0.949 . S
C39 C40 1.395 . S
C39 C41 1.391 1_556 S
C40 C39 1.395 . S
C40 C43 1.390 1_556 S
C41 C39 1.391 1_554 S
C41 C45 1.387 . S
C41 C46 1.491 . S
H42 C43 0.950 . S
C43 C40 1.390 1_554 S
C43 H42 0.950 . S
C43 C44 1.378 . S
C44 C43 1.378 . S
C44 C45 1.409 . S
C45 C41 1.387 . S
C45 C44 1.409 . S
C45 H47 0.951 . S
C46 C41 1.491 . S
C46 C48 1.382 1_554 S
C46 C50 1.404 . S
H47 C45 0.951 . S
C48 C46 1.382 1_556 S
C48 C49 1.390 . S
C48 H53 0.949 . S
C49 C48 1.390 . S
C49 C54 1.399 . S
C50 C46 1.404 . S
C50 H51 0.950 . S
C50 C52 1.375 . S
H51 C50 0.950 . S
C52 C50 1.375 . S
C52 C54 1.382 1_554 S
C52 H56 0.950 . S
H53 C48 0.949 . S
C54 C49 1.399 . S
C54 C52 1.382 1_556 S
C54 H55 0.952 . S
H55 C54 0.952 . S
H56 C52 0.950 . S
H57 C58 0.949 . S
C58 H57 0.949 . S
C58 C59 1.395 . S
C58 C60 1.391 . S
C59 C58 1.395 . S
C59 C62 1.390 . S
C60 C58 1.391 . S
C60 C64 1.387 . S
C60 C65 1.491 . S
H61 C62 0.950 . S
C62 C59 1.390 . S
C62 H61 0.950 . S
C62 C63 1.378 . S
C63 C62 1.378 . S
C63 C64 1.409 . S
C64 C60 1.387 . S
C64 C63 1.409 . S
C64 H66 0.951 . S
C65 C60 1.491 . S
C65 C67 1.382 . S
C65 C69 1.404 . S
H66 C64 0.951 . S
C67 C65 1.382 . S
C67 C68 1.390 . S
C67 H72 0.949 . S
C68 C67 1.390 . S
C68 C73 1.399 . S
C69 C65 1.404 . S
C69 H70 0.950 . S
C69 C71 1.375 . S
H70 C69 0.950 . S
C71 C69 1.375 . S
C71 C73 1.382 . S
C71 H75 0.950 . S
H72 C67 0.949 . S
C73 C68 1.399 . S
C73 C71 1.382 . S
C73 H74 0.952 . S
H74 C73 0.952 . S
H75 C71 0.950 . S
H76 C77 0.949 . S
C77 H76 0.949 . S
C77 C78 1.395 . S
C77 C79 1.391 1_556 S
C78 C77 1.395 . S
C78 C81 1.390 1_556 S
C79 C77 1.391 1_554 S
C79 C83 1.387 . S
C79 C84 1.491 . S
H80 C81 0.950 . S
C81 C78 1.390 1_554 S
C81 H80 0.950 . S
C81 C82 1.378 . S
C82 C81 1.378 . S
C82 C83 1.409 . S
C83 C79 1.387 . S
C83 C82 1.409 . S
C83 H85 0.951 . S
C84 C79 1.491 . S
C84 C86 1.382 1_554 S
C84 C88 1.404 . S
H85 C83 0.951 . S
C86 C84 1.382 1_556 S
C86 C87 1.390 . S
C86 H91 0.949 . S
C87 C86 1.390 . S
C87 C92 1.399 1_556 S
C88 C84 1.404 . S
C88 H89 0.950 . S
C88 C90 1.375 . S
H89 C88 0.950 . S
C90 C88 1.375 . S
C90 C92 1.382 . S
C90 H94 0.950 . S
H91 C86 0.949 . S
C92 C87 1.399 1_554 S
C92 C90 1.382 . S
C92 H93 0.952 . S
H93 C92 0.952 . S
H94 C90 0.950 . S
H95 C96 0.949 . S
C96 H95 0.949 . S
C96 C97 1.395 . S
C96 C98 1.391 . S
C97 C96 1.395 . S
C97 C100 1.390 . S
C98 C96 1.391 . S
C98 C102 1.387 . S
C98 C103 1.491 . S
H99 C100 0.950 . S
C100 C97 1.390 . S
C100 H99 0.950 . S
C100 C101 1.378 . S
C101 C100 1.378 . S
C101 C102 1.409 . S
C102 C98 1.387 . S
C102 C101 1.409 . S
C102 H104 0.951 . S
C103 C98 1.491 . S
C103 C105 1.382 . S
C103 C107 1.404 . S
H104 C102 0.951 . S
C105 C103 1.382 . S
C105 C106 1.390 . S
C105 H110 0.949 . S
C106 C105 1.390 . S
C106 C111 1.399 . S
C107 C103 1.404 . S
C107 H108 0.950 . S
C107 C109 1.375 . S
H108 C107 0.950 . S
C109 C107 1.375 . S
C109 C111 1.382 . S
C109 H113 0.950 . S
H110 C105 0.949 . S
C111 C106 1.399 . S
C111 C109 1.382 . S
C111 H112 0.952 . S
H112 C111 0.952 . S
H113 C109 0.950 . S
H114 C115 0.949 . S
C115 H114 0.949 . S
C115 C116 1.395 . S
C115 C117 1.391 1_556 S
C116 C115 1.395 . S
C116 C119 1.390 1_556 S
C117 C115 1.391 1_554 S
C117 C121 1.387 . S
C117 C122 1.491 . S
H118 C119 0.950 . S
C119 C116 1.390 1_554 S
C119 H118 0.950 . S
C119 C120 1.378 . S
C120 C119 1.378 . S
C120 C121 1.409 . S
C121 C117 1.387 . S
C121 C120 1.409 . S
C121 H123 0.951 . S
C122 C117 1.491 . S
C122 C124 1.382 1_554 S
C122 C126 1.404 . S
H123 C121 0.951 . S
C124 C122 1.382 1_556 S
C124 C125 1.390 . S
C124 H129 0.949 . S
C125 C124 1.390 . S
C125 C130 1.399 . S
C126 C122 1.404 . S
C126 H127 0.950 . S
C126 C128 1.375 . S
H127 C126 0.950 . S
C128 C126 1.375 . S
C128 C130 1.382 1_554 S
C128 H132 0.950 . S
H129 C124 0.949 . S
C130 C125 1.399 . S
C130 C128 1.382 1_556 S
C130 H131 0.952 . S
H131 C130 0.952 . S
H132 C128 0.950 . S
H133 C134 0.949 . S
C134 H133 0.949 . S
C134 C135 1.395 . S
C134 C136 1.391 . S
C135 C134 1.395 . S
C135 C138 1.390 . S
C136 C134 1.391 . S
C136 C140 1.387 . S
C136 C141 1.491 . S
H137 C138 0.950 . S
C138 C135 1.390 . S
C138 H137 0.950 . S
C138 C139 1.378 . S
C139 C138 1.378 . S
C139 C140 1.409 . S
C140 C136 1.387 . S
C140 C139 1.409 . S
C140 H142 0.951 . S
C141 C136 1.491 . S
C141 C143 1.382 . S
C141 C145 1.404 . S
H142 C140 0.951 . S
C143 C141 1.382 . S
C143 C144 1.390 . S
C143 H148 0.949 . S
C144 C143 1.390 . S
C144 C149 1.399 . S
C145 C141 1.404 . S
C145 H146 0.950 . S
C145 C147 1.375 . S
H146 C145 0.950 . S
C147 C145 1.375 . S
C147 C149 1.382 . S
C147 H151 0.950 . S
H148 C143 0.949 . S
C149 C144 1.399 . S
C149 C147 1.382 . S
C149 H150 0.952 . S
H150 C149 0.952 . S
H151 C147 0.950 . S
Sc152 O155 2.025 . S
Sc152 O162 2.105 1_455 S
Sc152 O165 2.105 . S
Sc152 O168 2.105 . S
Sc152 O171 2.105 1_455 S
Sc153 O155 2.025 . S
Sc153 O163 2.105 1_455 S
Sc153 O167 2.105 . S
Sc153 O169 2.105 . S
Sc153 O173 2.105 1_455 S
Sc154 O155 2.025 . S
Sc154 O164 2.105 1_455 S
Sc154 O166 2.105 . S
Sc154 O170 2.105 . S
Sc154 O172 2.105 1_455 S
O155 Sc152 2.025 . S
O155 Sc153 2.025 . S
O155 Sc154 2.025 . S
C156 O162 1.268 . S
C156 O172 1.268 . S
C157 O163 1.268 . S
C157 O171 1.268 . S
C158 O164 1.268 . S
C158 O173 1.268 . S
C159 O165 1.268 . S
C159 O169 1.268 . S
C160 O166 1.268 . S
C160 O168 1.268 . S
C161 O167 1.268 . S
C161 O170 1.268 . S
O162 Sc152 2.105 1_655 S
O162 C156 1.268 . S
O163 Sc153 2.105 1_655 S
O163 C157 1.268 . S
O164 Sc154 2.105 1_655 S
O164 C158 1.268 . S
O165 Sc152 2.105 . S
O165 C159 1.268 . S
O166 Sc154 2.105 . S
O166 C160 1.268 . S
O167 Sc153 2.105 . S
O167 C161 1.268 . S
O168 Sc152 2.105 . S
O168 C160 1.268 . S
O169 Sc153 2.105 . S
O169 C159 1.268 . S
O170 Sc154 2.105 . S
O170 C161 1.268 . S
O171 Sc152 2.105 1_655 S
O171 C157 1.268 . S
O172 Sc154 2.105 1_655 S
O172 C156 1.268 . S
O173 Sc153 2.105 1_655 S
O173 C158 1.268 . S
Sc174 O177 2.025 . S
Sc174 O184 2.105 . S
Sc174 O187 2.105 1_455 S
Sc174 O190 2.105 1_455 S
Sc174 O193 2.105 . S
Sc175 O177 2.025 . S
Sc175 O185 2.105 . S
Sc175 O189 2.105 1_455 S
Sc175 O191 2.105 1_455 S
Sc175 O195 2.105 . S
Sc176 O177 2.025 . S
Sc176 O186 2.105 . S
Sc176 O188 2.105 1_455 S
Sc176 O192 2.105 1_455 S
Sc176 O194 2.105 . S
O177 Sc174 2.025 . S
O177 Sc175 2.025 . S
O177 Sc176 2.025 . S
C178 O184 1.268 . S
C178 O194 1.268 . S
C179 O185 1.268 . S
C179 O193 1.268 . S
C180 O186 1.268 . S
C180 O195 1.268 . S
C181 O187 1.268 . S
C181 O191 1.268 . S
C182 O188 1.268 . S
C182 O190 1.268 . S
C183 O189 1.268 . S
C183 O192 1.268 . S
O184 Sc174 2.105 . S
O184 C178 1.268 . S
O185 Sc175 2.105 . S
O185 C179 1.268 . S
O186 Sc176 2.105 . S
O186 C180 1.268 . S
O187 Sc174 2.105 1_655 S
O187 C181 1.268 . S
O188 Sc176 2.105 1_655 S
O188 C182 1.268 . S
O189 Sc175 2.105 1_655 S
O189 C183 1.268 . S
O190 Sc174 2.105 1_655 S
O190 C182 1.268 . S
O191 Sc175 2.105 1_655 S
O191 C181 1.268 . S
O192 Sc176 2.105 1_655 S
O192 C183 1.268 . S
O193 Sc174 2.105 . S
O193 C179 1.268 . S
O194 Sc176 2.105 . S
O194 C178 1.268 . S
O195 Sc175 2.105 . S
O195 C180 1.268 . S
Sc196 O199 2.025 . S
Sc196 O206 2.105 . S
Sc196 O209 2.105 . S
Sc196 O212 2.105 . S
Sc196 O215 2.105 . S
Sc197 O199 2.025 . S
Sc197 O207 2.105 . S
Sc197 O211 2.105 . S
Sc197 O213 2.105 . S
Sc197 O217 2.105 . S
Sc198 O199 2.025 . S
Sc198 O208 2.105 . S
Sc198 O210 2.105 . S
Sc198 O214 2.105 . S
Sc198 O216 2.105 . S
O199 Sc196 2.025 . S
O199 Sc197 2.025 . S
O199 Sc198 2.025 . S
C200 O206 1.268 . S
C200 O216 1.268 . S
C201 O207 1.268 . S
C201 O215 1.268 . S
C202 O208 1.268 . S
C202 O217 1.268 . S
C203 O209 1.268 . S
C203 O213 1.268 . S
C204 O210 1.268 . S
C204 O212 1.268 . S
C205 O211 1.268 . S
C205 O214 1.268 . S
O206 Sc196 2.105 . S
O206 C200 1.268 . S
O207 Sc197 2.105 . S
O207 C201 1.268 . S
O208 Sc198 2.105 . S
O208 C202 1.268 . S
O209 Sc196 2.105 . S
O209 C203 1.268 . S
O210 Sc198 2.105 . S
O210 C204 1.268 . S
O211 Sc197 2.105 . S
O211 C205 1.268 . S
O212 Sc196 2.105 . S
O212 C204 1.268 . S
O213 Sc197 2.105 . S
O213 C203 1.268 . S
O214 Sc198 2.105 . S
O214 C205 1.268 . S
O215 Sc196 2.105 . S
O215 C201 1.268 . S
O216 Sc198 2.105 . S
O216 C200 1.268 . S
O217 Sc197 2.105 . S
O217 C202 1.268 . S
Sc218 O221 2.025 . S
Sc218 O228 2.105 . S
Sc218 O231 2.105 . S
Sc218 O234 2.105 . S
Sc218 O237 2.105 . S
Sc219 O221 2.025 . S
Sc219 O229 2.105 . S
Sc219 O233 2.105 . S
Sc219 O235 2.105 . S
Sc219 O239 2.105 . S
Sc220 O221 2.025 . S
Sc220 O230 2.105 . S
Sc220 O232 2.105 . S
Sc220 O236 2.105 . S
Sc220 O238 2.105 . S
O221 Sc218 2.025 . S
O221 Sc219 2.025 . S
O221 Sc220 2.025 . S
C222 O228 1.268 . S
C222 O238 1.268 . S
C223 O229 1.268 . S
C223 O237 1.268 . S
C224 O230 1.268 . S
C224 O239 1.268 . S
C225 O231 1.268 . S
C225 O235 1.268 . S
C226 O232 1.268 . S
C226 O234 1.268 . S
C227 O233 1.268 . S
C227 O236 1.268 . S
O228 Sc218 2.105 . S
O228 C222 1.268 . S
O229 Sc219 2.105 . S
O229 C223 1.268 . S
O230 Sc220 2.105 . S
O230 C224 1.268 . S
O231 Sc218 2.105 . S
O231 C225 1.268 . S
O232 Sc220 2.105 . S
O232 C226 1.268 . S
O233 Sc219 2.105 . S
O233 C227 1.268 . S
O234 Sc218 2.105 . S
O234 C226 1.268 . S
O235 Sc219 2.105 . S
O235 C225 1.268 . S
O236 Sc220 2.105 . S
O236 C227 1.268 . S
O237 Sc218 2.105 . S
O237 C223 1.268 . S
O238 Sc220 2.105 . S
O238 C222 1.268 . S
O239 Sc219 2.105 . S
O239 C224 1.268 . S
C240 C241 1.363 . S
C240 C246 1.379 . S
C240 N248 1.356 . S
C241 C240 1.363 . S
C241 C247 1.363 . S
C242 C243 1.363 . S
C242 C247 1.379 . S
C242 N249 1.356 . S
C243 C242 1.363 . S
C243 C246 1.363 . S
N244 C246 1.356 . S
N244 H256 0.984 . S
N244 H257 0.985 . S
N245 C247 1.356 . S
N245 H250 0.984 . S
N245 H251 0.985 . S
C246 C240 1.379 . S
C246 C243 1.363 . S
C246 N244 1.356 . S
C247 C241 1.363 . S
C247 C242 1.379 . S
C247 N245 1.356 . S
N248 C240 1.356 . S
N248 H254 0.984 . S
N248 H255 0.984 . S
N249 C242 1.356 . S
N249 H252 0.984 . S
N249 H253 0.985 . S
H250 N245 0.984 . S
H251 N245 0.985 . S
H252 N249 0.984 . S
H253 N249 0.985 . S
H254 N248 0.984 . S
H255 N248 0.984 . S
H256 N244 0.984 . S
H257 N244 0.985 . S
C258 C259 1.363 . S
C258 C264 1.379 . S
C258 N266 1.356 . S
C259 C258 1.363 . S
C259 C265 1.363 . S
C260 C261 1.363 . S
C260 C265 1.379 . S
C260 N267 1.356 . S
C261 C260 1.363 . S
C261 C264 1.363 . S
N262 C264 1.356 . S
N262 H274 0.984 . S
N262 H275 0.985 . S
N263 C265 1.356 . S
N263 H268 0.984 . S
N263 H269 0.985 . S
C264 C258 1.379 . S
C264 C261 1.363 . S
C264 N262 1.356 . S
C265 C259 1.363 . S
C265 C260 1.379 . S
C265 N263 1.356 . S
N266 C258 1.356 . S
N266 H272 0.984 . S
N266 H273 0.984 . S
N267 C260 1.356 . S
N267 H270 0.984 . S
N267 H271 0.985 . S
H268 N263 0.984 . S
H269 N263 0.985 . S
H270 N267 0.984 . S
H271 N267 0.985 . S
H272 N266 0.984 . S
H273 N266 0.984 . S
H274 N262 0.984 . S
H275 N262 0.985 . S
C276 C277 1.363 . S
C276 C282 1.379 . S
C276 N284 1.356 . S
C277 C276 1.363 . S
C277 C283 1.363 . S
C278 C279 1.363 . S
C278 C283 1.379 . S
C278 N285 1.356 . S
C279 C278 1.363 . S
C279 C282 1.363 . S
N280 C282 1.356 . S
N280 H292 0.984 . S
N280 H293 0.985 . S
N281 C283 1.356 . S
N281 H286 0.984 . S
N281 H287 0.985 . S
C282 C276 1.379 . S
C282 C279 1.363 . S
C282 N280 1.356 . S
C283 C277 1.363 . S
C283 C278 1.379 . S
C283 N281 1.356 . S
N284 C276 1.356 . S
N284 H290 0.984 1_556 S
N284 H291 0.984 . S
N285 C278 1.356 . S
N285 H288 0.984 . S
N285 H289 0.985 . S
H286 N281 0.984 . S
H287 N281 0.985 . S
H288 N285 0.984 . S
H289 N285 0.985 . S
H290 N284 0.984 1_554 S
H291 N284 0.984 . S
H292 N280 0.984 . S
H293 N280 0.985 . S
C294 C295 1.363 . S
C294 C300 1.379 . S
C294 N302 1.356 . S
C295 C294 1.363 . S
C295 C301 1.363 . S
C296 C297 1.363 . S
C296 C301 1.379 . S
C296 N303 1.356 . S
C297 C296 1.363 . S
C297 C300 1.363 . S
N298 C300 1.356 . S
N298 H310 0.984 . S
N298 H311 0.985 . S
N299 C301 1.356 . S
N299 H304 0.984 . S
N299 H305 0.985 . S
C300 C294 1.379 . S
C300 C297 1.363 . S
C300 N298 1.356 . S
C301 C295 1.363 . S
C301 C296 1.379 . S
C301 N299 1.356 . S
N302 C294 1.356 . S
N302 H308 0.984 . S
N302 H309 0.984 . S
N303 C296 1.356 . S
N303 H306 0.984 . S
N303 H307 0.985 . S
H304 N299 0.984 . S
H305 N299 0.985 . S
H306 N303 0.984 . S
H307 N303 0.985 . S
H308 N302 0.984 . S
H309 N302 0.984 . S
H310 N298 0.984 . S
H311 N298 0.985 . S
C312 C313 1.363 . S
C312 C318 1.379 . S
C312 N320 1.356 . S
C313 C312 1.363 . S
C313 C319 1.363 . S
C314 C315 1.363 . S
C314 C319 1.379 . S
C314 N321 1.356 . S
C315 C314 1.363 . S
C315 C318 1.363 . S
N316 C318 1.356 . S
N316 H328 0.984 . S
N316 H329 0.985 . S
N317 C319 1.356 1_554 S
N317 H322 0.984 . S
N317 H323 0.985 . S
C318 C312 1.379 . S
C318 C315 1.363 . S
C318 N316 1.356 . S
C319 C313 1.363 . S
C319 C314 1.379 . S
C319 N317 1.356 1_556 S
N320 C312 1.356 . S
N320 H326 0.984 . S
N320 H327 0.984 . S
N321 C314 1.356 . S
N321 H324 0.984 . S
N321 H325 0.985 . S
H322 N317 0.984 . S
H323 N317 0.985 . S
H324 N321 0.984 . S
H325 N321 0.985 . S
H326 N320 0.984 . S
H327 N320 0.984 . S
H328 N316 0.984 . S
H329 N316 0.985 . S
C330 C331 1.363 . S
C330 C336 1.379 . S
C330 N338 1.356 . S
C331 C330 1.363 . S
C331 C337 1.363 . S
C332 C333 1.363 . S
C332 C337 1.379 . S
C332 N339 1.356 . S
C333 C332 1.363 . S
C333 C336 1.363 . S
N334 C336 1.356 . S
N334 H346 0.984 . S
N334 H347 0.985 . S
N335 C337 1.356 . S
N335 H340 0.984 . S
N335 H341 0.985 . S
C336 C330 1.379 . S
C336 C333 1.363 . S
C336 N334 1.356 . S
C337 C331 1.363 . S
C337 C332 1.379 . S
C337 N335 1.356 . S
N338 C330 1.356 . S
N338 H344 0.984 . S
N338 H345 0.984 . S
N339 C332 1.356 . S
N339 H342 0.984 . S
N339 H343 0.985 . S
H340 N335 0.984 . S
H341 N335 0.985 . S
H342 N339 0.984 . S
H343 N339 0.985 . S
H344 N338 0.984 . S
H345 N338 0.984 . S
H346 N334 0.984 . S
H347 N334 0.985 . S
C348 C349 1.363 . S
C348 C354 1.379 . S
C348 N356 1.356 . S
C349 C348 1.363 . S
C349 C355 1.363 . S
C350 C351 1.363 . S
C350 C355 1.379 . S
C350 N357 1.356 . S
C351 C350 1.363 . S
C351 C354 1.363 . S
N352 C354 1.356 . S
N352 H364 0.984 . S
N352 H365 0.985 . S
N353 C355 1.356 1_554 S
N353 H358 0.984 . S
N353 H359 0.985 . S
C354 C348 1.379 . S
C354 C351 1.363 . S
C354 N352 1.356 . S
C355 C349 1.363 . S
C355 C350 1.379 . S
C355 N353 1.356 1_556 S
N356 C348 1.356 . S
N356 H362 0.984 . S
N356 H363 0.984 . S
N357 C350 1.356 . S
N357 H360 0.984 . S
N357 H361 0.980 1_556 S
H358 N353 0.984 . S
H359 N353 0.985 . S
H360 N357 0.984 . S
H361 N357 0.980 1_554 S
H362 N356 0.984 . S
H363 N356 0.984 . S
H364 N352 0.984 . S
H365 N352 0.985 . S
C366 C367 1.363 . S
C366 C372 1.379 . S
C366 N374 1.356 . S
C367 C366 1.363 . S
C367 C373 1.363 . S
C368 C369 1.363 . S
C368 C373 1.379 . S
C368 N375 1.356 . S
C369 C368 1.363 . S
C369 C372 1.363 . S
N370 C372 1.356 . S
N370 H382 0.984 . S
N370 H383 0.985 . S
N371 C373 1.356 . S
N371 H376 0.984 . S
N371 H377 0.985 . S
C372 C366 1.379 . S
C372 C369 1.363 . S
C372 N370 1.356 . S
C373 C367 1.363 . S
C373 C368 1.379 . S
C373 N371 1.356 . S
N374 C366 1.356 . S
N374 H380 0.984 . S
N374 H381 0.984 . S
N375 C368 1.356 . S
N375 H378 0.984 . S
N375 H379 0.985 . S
H376 N371 0.984 . S
H377 N371 0.985 . S
H378 N375 0.984 . S
H379 N375 0.985 . S
H380 N374 0.984 . S
H381 N374 0.984 . S
H382 N370 0.984 . S
H383 N370 0.985 . S
C384 C385 1.363 . S
C384 C390 1.379 . S
C384 N392 1.356 . S
C385 C384 1.363 . S
C385 C391 1.363 . S
C386 C387 1.363 . S
C386 C391 1.379 . S
C386 N393 1.356 . S
C387 C386 1.363 . S
C387 C390 1.363 . S
N388 C390 1.356 . S
N388 H400 0.984 . S
N388 H401 0.985 . S
N389 C391 1.356 . S
N389 H394 0.984 1_556 S
N389 H395 0.985 1_556 S
C390 C384 1.379 . S
C390 C387 1.363 . S
C390 N388 1.356 . S
C391 C385 1.363 . S
C391 C386 1.379 . S
C391 N389 1.356 . S
N392 C384 1.356 . S
N392 H398 0.984 . S
N392 H399 0.984 . S
N393 C386 1.356 . S
N393 H396 0.984 . S
N393 H397 0.985 . S
H394 N389 0.984 1_554 S
H395 N389 0.985 1_554 S
H396 N393 0.984 . S
H397 N393 0.985 . S
H398 N392 0.984 . S
H399 N392 0.984 . S
H400 N388 0.984 . S
H401 N388 0.985 . S
C402 C403 1.363 . S
C402 C408 1.379 . S
C402 N410 1.356 . S
C403 C402 1.363 . S
C403 C409 1.363 . S
C404 C405 1.363 . S
C404 C409 1.379 . S
C404 N411 1.356 . S
C405 C404 1.363 . S
C405 C408 1.363 . S
N406 C408 1.356 . S
N406 H418 0.984 . S
N406 H419 0.985 . S
N407 C409 1.356 . S
N407 H412 0.984 . S
N407 H413 0.985 . S
C408 C402 1.379 . S
C408 C405 1.363 . S
C408 N406 1.356 . S
C409 C403 1.363 . S
C409 C404 1.379 . S
C409 N407 1.356 . S
N410 C402 1.356 . S
N410 H416 0.984 . S
N410 H417 0.984 . S
N411 C404 1.356 . S
N411 H414 0.984 . S
N411 H415 0.985 . S
H412 N407 0.984 . S
H413 N407 0.985 . S
H414 N411 0.984 . S
H415 N411 0.985 . S
H416 N410 0.984 . S
H417 N410 0.984 . S
H418 N406 0.984 . S
H419 N406 0.985 . S
C420 C421 1.363 . S
C420 C426 1.379 . S
C420 N428 1.356 . S
C421 C420 1.363 . S
C421 C427 1.363 . S
C422 C423 1.363 . S
C422 C427 1.379 . S
C422 N429 1.356 . S
C423 C422 1.363 . S
C423 C426 1.363 . S
N424 C426 1.356 . S
N424 H436 0.984 . S
N424 H437 0.985 . S
N425 C427 1.356 . S
N425 H430 0.984 . S
N425 H431 0.985 . S
C426 C420 1.379 . S
C426 C423 1.363 . S
C426 N424 1.356 . S
C427 C421 1.363 . S
C427 C422 1.379 . S
C427 N425 1.356 . S
N428 C420 1.356 . S
N428 H434 0.983 1_556 S
N428 H435 0.984 1_556 S
N429 C422 1.356 . S
N429 H432 0.984 . S
N429 H433 0.985 . S
H430 N425 0.984 . S
H431 N425 0.985 . S
H432 N429 0.984 . S
H433 N429 0.985 . S
H434 N428 0.983 1_554 S
H435 N428 0.984 1_554 S
H436 N424 0.984 . S
H437 N424 0.985 . S
C438 C439 1.363 . S
C438 C444 1.379 . S
C438 N446 1.356 . S
C439 C438 1.363 . S
C439 C445 1.363 . S
C440 C441 1.363 . S
C440 C445 1.379 . S
C440 N447 1.356 . S
C441 C440 1.363 . S
C441 C444 1.363 . S
N442 C444 1.356 . S
N442 H454 0.984 . S
N442 H455 0.985 . S
N443 C445 1.356 . S
N443 H448 0.984 . S
N443 H449 0.985 . S
C444 C438 1.379 . S
C444 C441 1.363 . S
C444 N442 1.356 . S
C445 C439 1.363 . S
C445 C440 1.379 . S
C445 N443 1.356 . S
N446 C438 1.356 . S
N446 H452 0.984 . S
N446 H453 0.984 . S
N447 C440 1.356 . S
N447 H450 0.984 . S
N447 H451 0.985 . S
H448 N443 0.984 . S
H449 N443 0.985 . S
H450 N447 0.984 . S
H451 N447 0.985 . S
H452 N446 0.984 . S
H453 N446 0.984 . S
H454 N442 0.984 . S
H455 N442 0.985 . S
C456 C457 1.363 1_545 S
C456 C462 1.379 . S
C456 N464 1.356 . S
C457 C456 1.363 1_565 S
C457 C463 1.363 . S
C458 C459 1.363 1_565 S
C458 C463 1.379 . S
C458 N465 1.356 . S
C459 C458 1.363 1_545 S
C459 C462 1.363 . S
N460 C462 1.356 . S
N460 H472 0.984 . S
N460 H473 0.985 . S
N461 C463 1.356 . S
N461 H466 0.984 . S
N461 H467 0.985 . S
C462 C456 1.379 . S
C462 C459 1.363 . S
C462 N460 1.356 . S
C463 C457 1.363 . S
C463 C458 1.379 . S
C463 N461 1.356 . S
N464 C456 1.356 . S
N464 H470 0.984 . S
N464 H471 0.984 1_545 S
N465 C458 1.356 . S
N465 H468 0.984 . S
N465 H469 0.985 . S
H466 N461 0.984 . S
H467 N461 0.985 . S
H468 N465 0.984 . S
H469 N465 0.985 . S
H470 N464 0.984 . S
H471 N464 0.984 1_565 S
H472 N460 0.984 . S
H473 N460 0.985 . S
C474 C475 1.363 . S
C474 C480 1.384 . S
C474 N482 1.356 . S
C475 C474 1.363 . S
C475 C481 1.363 . S
C476 C477 1.363 1_545 S
C476 C481 1.379 . S
C476 N483 1.356 1_545 S
C477 C476 1.363 1_565 S
C477 C480 1.362 1_565 S
N478 C480 1.352 1_565 S
N478 H490 0.984 . S
N478 H491 0.985 . S
N479 C481 1.356 . S
N479 H484 0.984 . S
N479 H485 0.985 . S
C480 C474 1.384 . S
C480 C477 1.362 1_545 S
C480 N478 1.352 1_545 S
C481 C475 1.363 . S
C481 C476 1.379 . S
C481 N479 1.356 . S
N482 C474 1.356 . S
N482 H488 0.984 . S
N482 H489 0.984 . S
N483 C476 1.356 1_565 S
N483 H486 0.984 . S
N483 H487 0.985 1_565 S
H484 N479 0.984 . S
H485 N479 0.985 . S
H486 N483 0.984 . S
H487 N483 0.985 1_545 S
H488 N482 0.984 . S
H489 N482 0.984 . S
H490 N478 0.984 . S
H491 N478 0.985 . S
C492 C493 1.363 . S
C492 C498 1.379 1_565 S
C492 N500 1.356 . S
C493 C492 1.363 . S
C493 C499 1.363 . S
C494 C495 1.363 1_565 S
C494 C499 1.379 . S
C494 N501 1.356 . S
C495 C494 1.363 1_545 S
C495 C498 1.363 . S
N496 C498 1.356 . S
N496 H508 0.984 . S
N496 H509 0.985 . S
N497 C499 1.356 1_554 S
N497 H502 0.984 . S
N497 H503 0.985 . S
C498 C492 1.379 1_545 S
C498 C495 1.363 . S
C498 N496 1.356 . S
C499 C493 1.363 . S
C499 C494 1.379 . S
C499 N497 1.356 1_556 S
N500 C492 1.356 . S
N500 H506 0.984 . S
N500 H507 0.984 . S
N501 C494 1.356 . S
N501 H504 0.984 1_565 S
N501 H505 0.985 . S
H502 N497 0.984 . S
H503 N497 0.985 . S
H504 N501 0.984 1_545 S
H505 N501 0.985 . S
H506 N500 0.984 . S
H507 N500 0.984 . S
H508 N496 0.984 . S
H509 N496 0.985 . S
C510 C511 1.363 . S
C510 C516 1.379 . S
C510 N518 1.356 . S
C511 C510 1.363 . S
C511 C517 1.363 . S
C512 C513 1.363 1_545 S
C512 C517 1.379 . S
C512 N519 1.356 1_545 S
C513 C512 1.363 1_565 S
C513 C516 1.363 1_565 S
N514 C516 1.356 1_565 S
N514 H526 0.984 . S
N514 H527 0.985 . S
N515 C517 1.356 . S
N515 H520 0.984 . S
N515 H521 0.985 . S
C516 C510 1.379 . S
C516 C513 1.363 1_545 S
C516 N514 1.356 1_545 S
C517 C511 1.363 . S
C517 C512 1.379 . S
C517 N515 1.356 . S
N518 C510 1.356 . S
N518 H524 0.984 . S
N518 H525 0.984 . S
N519 C512 1.356 1_565 S
N519 H522 0.984 . S
N519 H523 0.985 . S
H520 N515 0.984 . S
H521 N515 0.985 . S
H522 N519 0.984 . S
H523 N519 0.985 . S
H524 N518 0.984 . S
H525 N518 0.984 . S
H526 N514 0.984 . S
H527 N514 0.985 . S
C528 C529 1.363 . S
C528 C534 1.379 . S
C528 N536 1.356 . S
C529 C528 1.363 . S
C529 C535 1.363 . S
C530 C531 1.363 . S
C530 C535 1.379 . S
C530 N537 1.356 . S
C531 C530 1.363 . S
C531 C534 1.363 . S
N532 C534 1.356 . S
N532 H544 0.984 . S
N532 H545 0.985 . S
N533 C535 1.356 . S
N533 H538 0.984 . S
N533 H539 0.985 . S
C534 C528 1.379 . S
C534 C531 1.363 . S
C534 N532 1.356 . S
C535 C529 1.363 . S
C535 C530 1.379 . S
C535 N533 1.356 . S
N536 C528 1.356 . S
N536 H542 0.984 . S
N536 H543 0.984 . S
N537 C530 1.356 . S
N537 H540 0.984 . S
N537 H541 0.985 . S
H538 N533 0.984 . S
H539 N533 0.985 . S
H540 N537 0.984 . S
H541 N537 0.985 . S
H542 N536 0.984 . S
H543 N536 0.984 . S
H544 N532 0.984 . S
H545 N532 0.985 . S
C546 C547 1.363 . S
C546 C552 1.379 . S
C546 N554 1.356 . S
C547 C546 1.363 . S
C547 C553 1.363 . S
C548 C549 1.363 . S
C548 C553 1.379 . S
C548 N555 1.356 . S
C549 C548 1.363 . S
C549 C552 1.363 . S
N550 C552 1.356 . S
N550 H562 0.984 . S
N550 H563 0.985 . S
N551 C553 1.356 . S
N551 H556 0.984 . S
N551 H557 0.985 . S
C552 C546 1.379 . S
C552 C549 1.363 . S
C552 N550 1.356 . S
C553 C547 1.363 . S
C553 C548 1.379 . S
C553 N551 1.356 . S
N554 C546 1.356 . S
N554 H560 0.984 . S
N554 H561 0.984 . S
N555 C548 1.356 . S
N555 H558 0.984 . S
N555 H559 0.985 . S
H556 N551 0.984 . S
H557 N551 0.985 . S
H558 N555 0.984 . S
H559 N555 0.985 . S
H560 N554 0.984 . S
H561 N554 0.984 . S
H562 N550 0.984 . S
H563 N550 0.985 . S
C564 C565 1.363 . S
C564 C570 1.379 . S
C564 N572 1.356 . S
C565 C564 1.363 . S
C565 C571 1.363 . S
C566 C567 1.363 . S
C566 C571 1.379 . S
C566 N573 1.356 . S
C567 C566 1.363 . S
C567 C570 1.363 . S
N568 C570 1.356 . S
N568 H580 0.984 . S
N568 H581 0.985 . S
N569 C571 1.356 . S
N569 H574 0.984 . S
N569 H575 0.985 . S
C570 C564 1.379 . S
C570 C567 1.363 . S
C570 N568 1.356 . S
C571 C565 1.363 . S
C571 C566 1.379 . S
C571 N569 1.356 . S
N572 C564 1.356 . S
N572 H578 0.984 . S
N572 H579 0.984 . S
N573 C566 1.356 . S
N573 H576 0.984 . S
N573 H577 0.985 . S
H574 N569 0.984 . S
H575 N569 0.985 . S
H576 N573 0.984 . S
H577 N573 0.985 . S
H578 N572 0.984 . S
H579 N572 0.984 . S
H580 N568 0.984 . S
H581 N568 0.985 . S
C582 C583 1.363 . S
C582 C588 1.379 . S
C582 N590 1.356 . S
C583 C582 1.363 . S
C583 C589 1.363 . S
C584 C585 1.363 . S
C584 C589 1.379 . S
C584 N591 1.356 . S
C585 C584 1.363 . S
C585 C588 1.363 . S
N586 C588 1.356 . S
N586 H598 0.984 . S
N586 H599 0.985 . S
N587 C589 1.356 . S
N587 H592 0.984 . S
N587 H593 0.985 . S
C588 C582 1.379 . S
C588 C585 1.363 . S
C588 N586 1.356 . S
C589 C583 1.363 . S
C589 C584 1.379 . S
C589 N587 1.356 . S
N590 C582 1.356 . S
N590 H596 0.984 . S
N590 H597 0.984 . S
N591 C584 1.356 . S
N591 H594 0.984 . S
N591 H595 0.985 . S
H592 N587 0.984 . S
H593 N587 0.985 . S
H594 N591 0.984 . S
H595 N591 0.985 . S
H596 N590 0.984 . S
H597 N590 0.984 . S
H598 N586 0.984 . S
H599 N586 0.985 . S
C600 C601 1.363 . S
C600 C606 1.379 . S
C600 N608 1.356 . S
C601 C600 1.363 . S
C601 C607 1.363 . S
C602 C603 1.363 . S
C602 C607 1.379 . S
C602 N609 1.356 . S
C603 C602 1.363 . S
C603 C606 1.363 . S
N604 C606 1.356 . S
N604 H616 0.984 . S
N604 H617 0.985 . S
N605 C607 1.356 . S
N605 H610 0.984 . S
N605 H611 0.985 . S
C606 C600 1.379 . S
C606 C603 1.363 . S
C606 N604 1.356 . S
C607 C601 1.363 . S
C607 C602 1.379 . S
C607 N605 1.356 . S
N608 C600 1.356 . S
N608 H614 0.984 . S
N608 H615 0.984 . S
N609 C602 1.356 . S
N609 H612 0.984 . S
N609 H613 0.985 . S
H610 N605 0.984 . S
H611 N605 0.985 . S
H612 N609 0.984 . S
H613 N609 0.985 . S
H614 N608 0.984 . S
H615 N608 0.984 . S
H616 N604 0.984 . S
H617 N604 0.985 . S
C618 C619 1.363 . S
C618 C624 1.379 . S
C618 N626 1.356 . S
C619 C618 1.363 . S
C619 C625 1.363 . S
C620 C621 1.363 . S
C620 C625 1.379 . S
C620 N627 1.356 . S
C621 C620 1.363 . S
C621 C624 1.363 . S
N622 C624 1.356 . S
N622 H634 0.984 . S
N622 H635 0.985 . S
N623 C625 1.356 . S
N623 H628 0.984 . S
N623 H629 0.985 . S
C624 C618 1.379 . S
C624 C621 1.363 . S
C624 N622 1.356 . S
C625 C619 1.363 . S
C625 C620 1.379 . S
C625 N623 1.356 . S
N626 C618 1.356 . S
N626 H632 0.984 . S
N626 H633 0.984 . S
N627 C620 1.356 . S
N627 H630 0.984 . S
N627 H631 0.985 . S
H628 N623 0.984 . S
H629 N623 0.985 . S
H630 N627 0.984 . S
H631 N627 0.985 . S
H632 N626 0.984 . S
H633 N626 0.984 . S
H634 N622 0.984 . S
H635 N622 0.985 . S
C636 C637 1.363 . S
C636 C642 1.379 . S
C636 N644 1.356 . S
C637 C636 1.363 . S
C637 C643 1.363 . S
C638 C639 1.363 . S
C638 C643 1.379 . S
C638 N645 1.356 . S
C639 C638 1.363 . S
C639 C642 1.363 . S
N640 C642 1.356 . S
N640 H652 0.984 . S
N640 H653 0.985 . S
N641 C643 1.356 . S
N641 H646 0.984 . S
N641 H647 0.985 . S
C642 C636 1.379 . S
C642 C639 1.363 . S
C642 N640 1.356 . S
C643 C637 1.363 . S
C643 C638 1.379 . S
C643 N641 1.356 . S
N644 C636 1.356 . S
N644 H650 0.984 . S
N644 H651 0.984 . S
N645 C638 1.356 . S
N645 H648 0.984 . S
N645 H649 0.985 . S
H646 N641 0.984 . S
H647 N641 0.985 . S
H648 N645 0.984 . S
H649 N645 0.985 . S
H650 N644 0.984 . S
H651 N644 0.984 . S
H652 N640 0.984 . S
H653 N640 0.985 . S
C654 C655 1.363 . S
C654 C660 1.379 . S
C654 N662 1.356 . S
C655 C654 1.363 . S
C655 C661 1.363 . S
C656 C657 1.363 . S
C656 C661 1.379 . S
C656 N663 1.356 . S
C657 C656 1.363 . S
C657 C660 1.363 . S
N658 C660 1.356 . S
N658 H670 0.984 . S
N658 H671 0.985 . S
N659 C661 1.356 . S
N659 H664 0.984 . S
N659 H665 0.985 . S
C660 C654 1.379 . S
C660 C657 1.363 . S
C660 N658 1.356 . S
C661 C655 1.363 . S
C661 C656 1.379 . S
C661 N659 1.356 . S
N662 C654 1.356 . S
N662 H668 0.984 . S
N662 H669 0.984 . S
N663 C656 1.356 . S
N663 H666 0.984 . S
N663 H667 0.985 . S
H664 N659 0.984 . S
H665 N659 0.985 . S
H666 N663 0.984 . S
H667 N663 0.985 . S
H668 N662 0.984 . S
H669 N662 0.984 . S
H670 N658 0.984 . S
H671 N658 0.985 . S
C241 C11 1.474 . S
C243 C178 1.532 . S
C261 C156 1.533 . S
C259 C30 1.475 . S
C279 C182 1.533 . S
C277 C49 1.369 . S
C297 C160 1.533 . S
C295 C68 1.367 . S
C315 C222 1.533 . S
C313 C87 1.474 . S
C333 C200 1.533 . S
C331 C106 1.474 . S
C349 C125 1.368 . S
C351 C226 1.533 . S
C369 C204 1.533 . S
C367 C144 1.368 . S
C385 C2 1.540 . S
C387 C227 1.588 . S
C405 C205 1.588 . S
C403 C21 1.540 . S
C421 C40 1.538 . S
C423 C224 1.588 . S
C439 C59 1.538 . S
C441 C202 1.588 . S
C459 C183 1.588 . S
C457 C78 1.540 . S
C475 C97 1.540 . S
C477 C161 1.587 . S
C495 C180 1.588 . S
C493 C116 1.537 . S
C513 C158 1.588 . S
C511 C135 1.538 . S
C531 C201 1.515 . S
C529 C6 1.522 . S
C549 C223 1.515 . S
C547 C25 1.522 . S
C565 C44 1.517 . S
C567 C203 1.515 . S
C585 C225 1.515 . S
C583 C63 1.517 . S
C603 C157 1.515 . S
C601 C82 1.523 . S
C619 C101 1.522 . S
C621 C179 1.514 . S
C637 C120 1.517 . S
C639 C159 1.514 . S
C655 C139 1.517 . S
C657 C181 1.516 . S
