# Generated by pormake.
# Topology anh, (6,3)-cn, num edge types: 1
# Building blocks:
#     Node 0, Type 0, BuildingBlock: PAMTUU_clean_sbu_0, # of connection points: 6
#     Node 1, Type 0, BuildingBlock: PAMTUU_clean_sbu_0, # of connection points: 6
#     Node 2, Type 0, BuildingBlock: PAMTUU_clean_sbu_0, # of connection points: 6
#     Node 3, Type 1, BuildingBlock: BETDIP_clean_linker_0, # of connection points: 3
#     Node 4, Type 1, BuildingBlock: BETDIP_clean_linker_0, # of connection points: 3
#     Node 5, Type 1, BuildingBlock: BETDIP_clean_linker_0, # of connection points: 3
#     Node 6, Type 1, BuildingBlock: BETDIP_clean_linker_0, # of connection points: 3
#     Node 7, Type 1, BuildingBlock: BETDIP_clean_linker_0, # of connection points: 3
#     Node 8, Type 1, BuildingBlock: BETDIP_clean_linker_0, # of connection points: 3
#     Edge 9, Type (0, 1), BuildingBlock: AJUNOK_clean_linker_0, # of connection points: 2
#     Edge 10, Type (0, 1), BuildingBlock: AJUNOK_clean_linker_0, # of connection points: 2
#     Edge 11, Type (0, 1), BuildingBlock: AJUNOK_clean_linker_0, # of connection points: 2
#     Edge 12, Type (0, 1), BuildingBlock: AJUNOK_clean_linker_0, # of connection points: 2
#     Edge 13, Type (0, 1), BuildingBlock: AJUNOK_clean_linker_0, # of connection points: 2
#     Edge 14, Type (0, 1), BuildingBlock: AJUNOK_clean_linker_0, # of connection points: 2
#     Edge 15, Type (0, 1), BuildingBlock: AJUNOK_clean_linker_0, # of connection points: 2
#     Edge 16, Type (0, 1), BuildingBlock: AJUNOK_clean_linker_0, # of connection points: 2
#     Edge 17, Type (0, 1), BuildingBlock: AJUNOK_clean_linker_0, # of connection points: 2
#     Edge 18, Type (0, 1), BuildingBlock: AJUNOK_clean_linker_0, # of connection points: 2
#     Edge 19, Type (0, 1), BuildingBlock: AJUNOK_clean_linker_0, # of connection points: 2
#     Edge 20, Type (0, 1), BuildingBlock: AJUNOK_clean_linker_0, # of connection points: 2
#     Edge 21, Type (0, 1), BuildingBlock: AJUNOK_clean_linker_0, # of connection points: 2
#     Edge 22, Type (0, 1), BuildingBlock: AJUNOK_clean_linker_0, # of connection points: 2
#     Edge 23, Type (0, 1), BuildingBlock: AJUNOK_clean_linker_0, # of connection points: 2
#     Edge 24, Type (0, 1), BuildingBlock: AJUNOK_clean_linker_0, # of connection points: 2
#     Edge 25, Type (0, 1), BuildingBlock: AJUNOK_clean_linker_0, # of connection points: 2
#     Edge 26, Type (0, 1), BuildingBlock: AJUNOK_clean_linker_0, # of connection points: 2
# Relax obj value: 0.382
# Max RMSD: 0.177
# Mean RMSD: 0.128
data_MOF--net-anh--node1-PAMTUU_clean_sbu_0--node2-BETDIP_clean_linker_0--edge1-AJUNOK_clean_linker_0
_symmetry_space_group_name_H-M    P1
_symmetry_Int_Tables_number       1
_symmetry_cell_setting            triclinic
loop_
_symmetry_equiv_pos_as_xyz
'x, y, z'
_cell_length_a     21.822132
_cell_length_b     21.61106
_cell_length_c     36.62773
_cell_angle_alpha  94.346008
_cell_angle_beta   93.653571
_cell_angle_gamma 119.63131
loop_
_atom_site_label
_atom_site_type_symbol
_atom_site_fract_x
_atom_site_fract_y
_atom_site_fract_z
_atom_type_partial_charge
Tb0 Tb 1.19754 0.79729 0.16386 0.0
Tb1 Tb 0.29594 0.72626 0.1703 0.0
C2 C 0.23936 0.74185 0.09444 0.0
C3 C 1.03351 0.79135 0.16647 0.0
C4 C 0.90657 0.65889 0.15452 0.0
C5 C 0.91808 0.71274 0.13202 0.0
C6 C 0.98097 0.77885 0.13814 0.0
C7 C 1.01725 0.74166 0.19219 0.0
C8 C 0.95409 0.67576 0.18622 0.0
C9 C 1.1083 0.838 0.16095 0.0
O10 O 1.12109 0.68052 0.15633 0.0
O11 O 1.193 0.64493 0.18404 0.0
O12 O 0.31533 0.79369 0.22112 0.0
O13 O 1.20241 0.77061 0.21955 0.0
O14 O 0.36104 0.69129 0.14819 0.0
O15 O 0.33106 0.67211 0.20338 0.0
O16 O 0.37137 0.83609 0.16074 0.0
O17 O 0.30637 0.89091 0.17416 0.0
O18 O 0.23602 0.79616 0.11061 0.0
O19 O 0.24338 0.69572 0.11421 0.0
C20 C 1.12916 0.63184 0.17222 0.0
O21 O 1.15548 0.85643 0.18952 0.0
O22 O 1.12604 0.81504 0.13177 0.0
C23 C 0.26227 0.78669 0.2384 0.0
C24 C 0.44134 0.68352 0.19187 0.0
C25 C 0.56187 0.66938 0.19632 0.0
C26 C 0.50958 0.63518 0.21977 0.0
C27 C 0.44891 0.64146 0.21712 0.0
C28 C 0.49962 0.72852 0.17406 0.0
C29 C 0.55987 0.72159 0.17637 0.0
C30 C 0.36948 0.66743 0.17873 0.0
C31 C 0.36729 0.89471 0.16785 0.0
H32 H 0.88185 0.70108 0.10749 0.0
H33 H 0.99235 0.81605 0.11789 0.0
H34 H 1.05684 0.74951 0.21425 0.0
H35 H 0.94681 0.63523 0.20391 0.0
H36 H 0.5106 0.59558 0.23587 0.0
H37 H 0.40488 0.60727 0.23165 0.0
H38 H 0.49571 0.76285 0.1551 0.0
H39 H 0.59949 0.74923 0.15815 0.0
Tb40 Tb 0.61552 0.15824 0.48749 0.0
Tb41 Tb 0.78803 0.23556 0.50389 0.0
C42 C 0.71357 0.21511 0.42412 0.0
C43 C 0.42443 1.04805 0.49848 0.0
C44 C 0.3146 0.95372 0.53634 0.0
C45 C 0.29605 0.9634 0.49931 0.0
C46 C 0.35496 1.01034 0.4808 0.0
C47 C 0.43888 1.03874 0.53481 0.0
C48 C 0.38448 0.9912 0.55354 0.0
C49 C 0.48174 1.09653 0.47816 0.0
O50 O 0.63739 1.07306 0.50189 0.0
O51 O 0.74839 1.12305 0.48397 0.0
O52 O 0.74442 0.18334 0.55227 0.0
O53 O 0.64248 0.18817 0.54632 0.0
O54 O 0.88228 0.24364 0.48858 0.0
O55 O 0.88265 0.30281 0.53897 0.0
O56 O 0.76324 0.32096 0.51693 0.0
O57 O 0.65448 0.27201 0.48264 0.0
O58 O 0.65365 0.16499 0.43384 0.0
O59 O 0.76903 0.25707 0.44835 0.0
C60 C 0.69252 1.0675 0.49364 0.0
O61 O 0.5226 0.16138 0.49473 0.0
O62 O 0.51811 1.0706 0.46307 0.0
C63 C 0.68842 0.17862 0.5661 0.0
C64 C 0.98935 0.34965 0.51106 0.0
C65 C 1.12469 0.45838 0.49841 0.0
C66 C 1.11687 0.41725 0.52753 0.0
C67 C 1.04985 0.36376 0.53388 0.0
C68 C 0.99639 0.39009 0.48174 0.0
C69 C 1.06377 0.44415 0.47543 0.0
C70 C 0.9208 0.28923 0.51731 0.0
C71 C 0.71037 0.32742 0.50193 0.0
H72 H 1.16714 0.88107 0.47677 0.0
H73 H 0.3471 1.01696 0.45215 0.0
H74 H 0.49284 1.06675 0.54827 0.0
H75 H 0.397 0.98182 0.58093 0.0
H76 H 1.16281 0.4253 0.54499 0.0
H77 H 1.0454 0.33225 0.55627 0.0
H78 H 0.95012 0.37928 0.46358 0.0
H79 H 1.06829 0.47479 0.45266 0.0
Tb80 Tb 0.75471 0.62329 0.82934 0.0
Tb81 Tb 0.82737 0.79401 0.84344 0.0
C82 C 0.77459 0.71084 0.76401 0.0
C83 C 0.70473 0.43374 0.83616 0.0
C84 C 0.72238 0.32063 0.85681 0.0
C85 C 0.65421 0.31008 0.84614 0.0
C86 C 0.6457 0.366 0.83594 0.0
C87 C 0.77247 0.44697 0.8494 0.0
C88 C 0.78129 0.39049 0.85974 0.0
C89 C 0.69288 0.48903 0.8227 0.0
O90 O 0.86609 0.65927 0.82198 0.0
O91 O 0.91884 0.77682 0.84835 0.0
O92 O 0.78989 0.74725 0.89416 0.0
O93 O 0.81492 0.65908 0.88288 0.0
O94 O 0.85413 0.89256 0.82462 0.0
O95 O 0.8811 0.88782 0.88156 0.0
O96 O 0.71291 0.75726 0.83372 0.0
O97 O 0.67235 0.6438 0.84829 0.0
O98 O 0.72899 0.65597 0.77916 0.0
O99 O 0.82785 0.76619 0.78464 0.0
C100 C 0.92348 0.72067 0.83527 0.0
O101 O 0.68257 0.52757 0.84792 0.0
O102 O 0.73431 0.52726 0.79922 0.0
C103 C 0.80255 0.69868 0.90627 0.0
C104 C 0.82381 0.95328 0.86799 0.0
C105 C 0.69505 0.95115 0.85485 0.0
C106 C 0.7555 1.00154 0.84009 0.0
C107 C 0.81982 1.00269 0.84671 0.0
C108 C 0.7669 0.91234 0.88793 0.0
C109 C 0.70264 0.91112 0.88127 0.0
C110 C 0.87057 0.92523 0.85817 0.0
C111 C 0.6614 0.69722 0.84299 0.0
H112 H 0.6072 0.25737 0.8429 0.0
H113 H 0.59297 0.35556 0.82645 0.0
H114 H 0.81842 0.50012 0.85062 0.0
H115 H 0.83419 0.40087 0.86845 0.0
H116 H 0.75076 1.03364 0.81995 0.0
H117 H 0.86288 1.03472 0.83109 0.0
H118 H 0.76836 0.87369 0.90463 0.0
H119 H 0.65683 0.87201 0.89304 0.0
H120 H 0.68453 0.21329 0.15777 0.0
H121 H 0.80552 0.32459 0.26311 0.0
H122 H 0.60735 1.12761 0.25817 0.0
H123 H 0.89577 0.33542 0.22644 0.0
C124 C 0.88325 0.36144 0.20532 0.0
C125 C 0.69111 0.217 0.18756 0.0
C126 C 0.63746 0.16378 0.20583 0.0
C127 C 0.75391 0.27455 0.20809 0.0
C128 C 0.76026 0.27895 0.24697 0.0
C129 C 0.70783 0.22636 0.2653 0.0
C130 C 0.6475 0.16912 0.24434 0.0
N131 N 0.81003 0.32803 0.19013 0.0
H132 H 0.69123 0.63271 0.49585 0.0
H133 H 0.72405 0.76907 0.5961 0.0
H134 H 0.74371 0.5818 0.60071 0.0
H135 H 0.78605 0.85409 0.54934 0.0
C136 C 0.73511 0.83159 0.53256 0.0
C137 C 0.70356 0.64488 0.52553 0.0
C138 C 0.71821 0.59948 0.54605 0.0
C139 C 0.70784 0.70788 0.54337 0.0
C140 C 0.72382 0.72302 0.58201 0.0
C141 C 0.73604 0.67742 0.60279 0.0
C142 C 0.73389 0.61671 0.58456 0.0
N143 N 0.69512 0.75532 0.52283 0.0
H144 H 0.2412 0.71558 0.82763 0.0
H145 H 0.34192 0.71853 0.93378 0.0
H146 H 1.14872 0.72589 0.92677 0.0
H147 H 0.36223 0.63795 0.89657 0.0
C148 C 0.38796 0.67315 0.87601 0.0
C149 C 0.2423 0.71705 0.85729 0.0
C150 C 1.18791 0.72134 0.87488 0.0
C151 C 0.29784 0.71397 0.87833 0.0
C152 C 0.2985 0.71726 0.91704 0.0
C153 C 0.24505 0.7216 0.9346 0.0
C154 C 1.19038 0.72326 0.91327 0.0
N155 N 0.35327 0.70913 0.86101 0.0
H156 H 0.36101 0.75969 0.49399 0.0
H157 H 0.37825 0.73026 0.37968 0.0
H158 H 0.22327 0.7833 0.41304 0.0
H159 H 0.45567 0.66619 0.48515 0.0
C160 C 0.41003 0.66532 0.47094 0.0
C161 C 0.34073 0.75715 0.46593 0.0
C162 C 0.28757 0.77497 0.45794 0.0
C163 C 0.37084 0.73798 0.43763 0.0
C164 C 0.35252 0.74219 0.40127 0.0
C165 C 0.30033 0.76017 0.39252 0.0
C166 C 0.2656 0.77284 0.4206 0.0
N167 N 0.42064 0.71532 0.44558 0.0
H168 H 0.53588 1.01332 0.79862 0.0
H169 H 0.50072 0.97446 0.68124 0.0
H170 H 0.69478 0.15283 0.73446 0.0
H171 H 0.37736 0.84511 0.77729 0.0
C172 C 0.43158 0.87706 0.77114 0.0
C173 C 0.5569 1.02622 0.77288 0.0
C174 C 0.62597 1.08381 0.77199 0.0
C175 C 0.51286 0.98437 0.74052 0.0
C176 C 0.53514 1.0051 0.70633 0.0
C177 C 0.60192 1.06518 0.70451 0.0
C178 C 0.64643 1.10394 0.73707 0.0
N179 N 0.44597 0.92154 0.74218 0.0
H180 H 0.6247 0.43516 0.11303 0.0
H181 H 0.69517 0.45452 0.0058 0.0
H182 H 0.6961 0.63338 0.06705 0.0
H183 H 0.69272 0.31808 0.09913 0.0
C184 C 0.70498 0.36955 0.09056 0.0
C185 C 0.64365 0.46664 0.09036 0.0
C186 C 0.65892 0.53786 0.09391 0.0
C187 C 0.65842 0.43709 0.05916 0.0
C188 C 0.68309 0.47736 0.02974 0.0
C189 C 0.69639 0.54849 0.03229 0.0
C190 C 0.68483 0.57839 0.06465 0.0
N191 N 0.66181 0.37335 0.06088 0.0
C192 C 0.55681 0.5596 0.16791 0.0
C193 C 0.59878 0.63282 0.18166 0.0
C194 C 0.57899 0.52813 0.1412 0.0
C195 C 0.64424 0.56842 0.12749 0.0
H196 H 0.50313 0.528 0.17476 0.0
H197 H 0.54204 0.4735 0.12912 0.0
S198 S 0.78192 0.75602 0.16209 0.0
N199 N 0.71403 0.74074 0.18507 0.0
N200 N 0.75694 0.68071 0.13518 0.0
C201 C 0.69049 0.63898 0.14433 0.0
C202 C 0.66756 0.67131 0.17146 0.0
C203 C 0.21736 0.51681 0.45575 0.0
C204 C 1.19675 0.514 0.49153 0.0
C205 C 0.28671 0.5658 0.44923 0.0
C206 C 0.33785 0.61257 0.47835 0.0
H207 H 1.18009 0.48005 0.43277 0.0
H208 H 0.30074 0.56654 0.42135 0.0
S209 S 0.30935 0.6333 0.57585 0.0
N210 N 0.23177 0.56787 0.55562 0.0
N211 N 0.36289 0.65734 0.54331 0.0
C212 C 0.31797 0.61141 0.51393 0.0
C213 C 0.24714 0.56284 0.52052 0.0
C214 C 0.61198 0.90302 0.79741 0.0
C215 C 0.62403 0.92649 0.83541 0.0
C216 C 0.54597 0.87843 0.7774 0.0
C217 C 0.49022 0.87847 0.79447 0.0
H218 H 0.65423 0.90418 0.78292 0.0
H219 H 0.54003 0.86422 0.74786 0.0
S220 S 0.49143 0.92547 0.89398 0.0
N221 N 0.57252 0.94016 0.8902 0.0
N222 N 0.44819 0.89639 0.85199 0.0
C223 C 0.4996 0.89665 0.83287 0.0
C224 C 0.56693 0.92081 0.85347 0.0
C225 C 0.85924 0.55732 0.10449 0.0
C226 C 0.85589 0.58286 0.14037 0.0
C227 C 0.81443 0.48578 0.08992 0.0
C228 C 0.76423 0.437 0.11054 0.0
H229 H 0.89684 0.59304 0.08739 0.0
H230 H 0.81658 0.46923 0.06157 0.0
S231 S 0.73562 0.47523 0.20622 0.0
N232 N 0.80029 0.55287 0.19682 0.0
N233 N 0.71496 0.41746 0.16895 0.0
C234 C 0.76196 0.46057 0.14695 0.0
C235 C 0.80791 0.53387 0.16194 0.0
C236 C 0.26887 0.83474 0.55602 0.0
C237 C 0.25687 0.89205 0.55134 0.0
C238 C 0.27088 0.79106 0.52568 0.0
C239 C 0.25919 0.80023 0.48835 0.0
H240 H 0.28467 0.82879 0.58355 0.0
H241 H 0.28643 0.75247 0.53223 0.0
S242 S 0.21258 0.97732 0.46065 0.0
N243 N 1.19402 0.9499 0.51635 0.0
N244 N 0.23561 0.89072 0.44737 0.0
C245 C 0.22734 0.8418 0.48292 0.0
C246 C 1.20373 0.87823 0.52479 0.0
C247 C 0.67255 0.19302 0.86517 0.0
C248 C 0.73037 0.25617 0.85638 0.0
C249 C 0.64142 1.13093 0.83978 0.0
C250 C 0.67181 1.12926 0.80693 0.0
H251 H 0.64219 0.19594 0.88687 0.0
H252 H 0.58989 1.08901 0.84468 0.0
S253 S 0.85754 0.25945 0.79315 0.0
N254 N 0.83851 0.30039 0.82669 0.0
N255 N 0.78657 0.17904 0.78264 0.0
C256 C 0.74343 0.18278 0.80681 0.0
C257 C 0.77232 0.24768 0.83123 0.0
C258 C 0.76391 1.00537 0.49935 0.0
C259 C 0.69738 1.00151 0.49931 0.0
C260 C 0.77386 0.94868 0.50847 0.0
C261 C 0.71765 0.88408 0.51709 0.0
H262 H 0.81005 1.05394 0.4937 0.0
H263 H 0.82692 0.95626 0.50963 0.0
S264 S 0.53204 0.84367 0.52026 0.0
N265 N 0.57341 0.92573 0.5084 0.0
N266 N 0.59219 0.81853 0.52447 0.0
C267 C 0.65008 0.87768 0.5159 0.0
C268 C 0.64 0.9364 0.50731 0.0
C269 C 0.99869 0.66052 0.83391 0.0
C270 C 0.99468 0.724 0.83895 0.0
C271 C 1.06309 0.66069 0.84213 0.0
C272 C 1.12693 0.72442 0.85525 0.0
H273 H 0.95094 0.60938 0.82534 0.0
H274 H 1.06198 0.60988 0.84031 0.0
S275 S 1.14845 0.90607 0.87045 0.0
N276 N 1.06328 0.85345 0.85571 0.0
N277 N 1.18281 0.85306 0.87109 0.0
C278 C 1.12458 0.78852 0.8586 0.0
C279 C 1.05918 0.78854 0.85043 0.0
C280 C 0.50116 0.97038 0.16777 0.0
C281 C 0.43528 0.96673 0.1716 0.0
C282 C 0.56653 1.03569 0.1754 0.0
C283 C 0.56947 1.10089 0.18681 0.0
H284 H 0.50283 0.92181 0.16034 0.0
H285 H 0.6154 1.03439 0.17442 0.0
S286 S 0.41408 1.12374 0.19902 0.0
N287 N 0.37861 1.03699 0.18579 0.0
N288 N 0.50079 0.15832 0.20017 0.0
C289 C 0.50432 1.09882 0.18916 0.0
C290 C 0.43768 1.03245 0.18148 0.0
C291 C 0.77356 0.45805 0.52898 0.0
C292 C 0.71334 0.39884 0.50852 0.0
C293 C 0.77586 0.52349 0.53893 0.0
C294 C 0.71828 0.53376 0.52893 0.0
H295 H 0.81906 0.4535 0.53841 0.0
H296 H 0.82274 0.56608 0.5557 0.0
S297 S 0.54924 0.39848 0.4735 0.0
N298 N 0.59545 0.35703 0.47694 0.0
N299 N 0.60019 0.47977 0.4959 0.0
C300 C 0.65891 0.47645 0.50712 0.0
C301 C 0.65631 0.40931 0.49696 0.0
C302 C 0.56726 0.73516 0.83611 0.0
C303 C 0.59054 0.69002 0.85003 0.0
C304 C 0.50117 0.72883 0.84322 0.0
C305 C 0.45603 0.67817 0.86524 0.0
H306 H 0.60017 0.77529 0.81929 0.0
H307 H 0.48549 0.76395 0.83162 0.0
S308 S 0.48945 0.54471 0.90722 0.0
N309 N 0.55985 0.59034 0.88581 0.0
N310 N 0.4388 0.58028 0.89975 0.0
C311 C 0.47831 0.63222 0.87881 0.0
C312 C 0.54446 0.63768 0.87113 0.0
C313 C 0.99632 0.53676 0.16209 0.0
C314 C 1.06578 0.56194 0.1794 0.0
C315 C 0.9372 0.47161 0.16952 0.0
C316 C 0.94465 0.42918 0.19491 0.0
H317 H 0.98763 0.56743 0.14247 0.0
H318 H 0.88551 0.4544 0.15537 0.0
S319 S 1.11412 0.46926 0.24761 0.0
N320 N 1.13709 0.53675 0.22309 0.0
N321 N 1.02773 0.41698 0.23681 0.0
C322 C 1.01372 0.45349 0.21204 0.0
C323 C 1.07354 0.5189 0.20442 0.0
C324 C 0.23346 0.78298 0.0328 0.0
C325 C 0.24107 0.73463 0.05375 0.0
C326 C 0.23582 0.7788 0.99458 0.0
C327 C 0.24612 0.72625 0.9755 0.0
H328 H 0.22546 0.82464 0.04593 0.0
H329 H 0.22972 0.81737 0.97981 0.0
S330 S 0.26817 0.58595 0.01681 0.0
N331 N 0.25931 0.63198 0.05212 0.0
N332 N 0.26302 0.62406 0.98022 0.0
C333 C 0.25408 0.67763 0.99593 0.0
C334 C 0.25154 0.6817 0.03498 0.0
C335 C 0.65455 0.2101 0.36257 0.0
C336 C 0.71658 0.22465 0.38446 0.0
C337 C 0.65341 0.21369 0.32456 0.0
C338 C 0.71388 0.23058 0.30645 0.0
H339 H 0.60611 0.1955 0.37492 0.0
H340 H 0.60416 0.20217 0.30912 0.0
S341 S 0.89013 0.27335 0.35143 0.0
N342 N 0.84079 0.25861 0.38569 0.0
N343 N 0.83815 0.26251 0.31381 0.0
C344 C 0.77689 0.2467 0.32818 0.0
C345 C 0.77832 0.24431 0.36722 0.0
C346 C 0.71414 0.64139 0.70229 0.0
C347 C 0.76586 0.70659 0.72299 0.0
C348 C 0.70494 0.63317 0.66373 0.0
C349 C 0.74664 0.68977 0.64387 0.0
H350 H 0.68052 0.59542 0.71586 0.0
H351 H 0.66449 0.58178 0.64929 0.0
S352 S 0.88861 0.87214 0.68407 0.0
N353 N 0.85888 0.82957 0.72027 0.0
N354 N 0.84129 0.8138 0.64751 0.0
C355 C 0.79786 0.75575 0.66392 0.0
C356 C 0.80764 0.76416 0.70347 0.0
C357 C 0.60653 0.14272 0.61498 0.0
C358 C 0.67018 0.15242 0.60242 0.0
C359 C 0.58378 1.1123 0.64737 0.0
C360 C 0.6243 1.09147 0.66887 0.0
H361 H 0.57333 0.15827 0.59961 0.0
H362 H 0.53479 1.10636 0.65605 0.0
S363 S 0.79486 1.10525 0.64927 0.0
N364 N 0.77325 1.13804 0.61459 0.0
N365 N 0.73085 1.08246 0.6761 0.0
C366 C 0.6883 1.10142 0.65719 0.0
C367 C 0.71121 1.13159 0.62387 0.0
C368 C 0.81177 0.63312 0.95711 0.0
C369 C 0.78319 0.67286 0.94226 0.0
C370 C 0.78422 0.59429 0.98662 0.0
C371 C 0.72657 0.59316 0.00223 0.0
H372 H 0.85436 0.63002 0.94501 0.0
H373 H 0.80765 0.56406 -0.00307 0.0
S374 S 0.63464 0.69115 0.97461 0.0
N375 N 0.69651 0.71195 0.94658 0.0
N376 N 0.64329 0.63736 0.00155 0.0
C377 C 0.69919 0.63497 0.98861 0.0
C378 C 0.72793 0.67532 0.95877 0.0
C379 C 0.33562 0.82271 0.29883 0.0
C380 C 0.26797 0.78625 0.2786 0.0
C381 C 0.34481 0.81541 0.33596 0.0
C382 C 0.28679 0.77096 0.35418 0.0
H383 H 0.3822 0.85592 0.28566 0.0
H384 H 0.3981 0.84376 0.35038 0.0
S385 S 1.09827 0.66537 0.31394 0.0
N386 N 1.14135 0.70596 0.2797 0.0
N387 N 1.15908 0.69161 0.34982 0.0
C388 C 0.21841 0.7362 0.33477 0.0
C389 C 0.20888 0.74399 0.29683 0.0
loop_
_geom_bond_atom_site_label_1
_geom_bond_atom_site_label_2
_geom_bond_distance
_geom_bond_site_symmetry_2
_ccdc_geom_bond_type
Tb0 C9 2.764 1_455 S
Tb0 O10 2.325 1_455 S
Tb0 O13 2.303 . S
Tb0 O17 2.322 . S
Tb0 O18 2.349 . S
Tb0 O21 2.415 1_455 S
Tb0 O22 2.399 1_455 S
Tb1 O11 2.322 . S
Tb1 O12 2.349 . S
Tb1 O14 2.415 . S
Tb1 O15 2.399 . S
Tb1 O16 2.325 . S
Tb1 O19 2.303 . S
Tb1 C30 2.764 . S
C2 O18 1.261 . S
C2 O19 1.257 . S
C3 C6 1.358 . S
C3 C7 1.332 . S
C3 C9 1.504 . S
C4 C5 1.373 . S
C4 C8 1.308 . S
C5 C4 1.373 . S
C5 C6 1.429 . S
C5 H32 0.932 . S
C6 C3 1.358 . S
C6 C5 1.429 . S
C6 H33 0.930 . S
C7 C3 1.332 . S
C7 C8 1.394 . S
C7 H34 0.932 . S
C8 C4 1.308 . S
C8 C7 1.394 . S
C8 H35 0.929 . S
C9 Tb0 2.764 1_655 S
C9 C3 1.504 . S
C9 O21 1.239 . S
C9 O22 1.263 . S
O10 Tb0 2.325 1_655 S
O10 C20 1.236 . S
O11 Tb1 2.322 . S
O11 C20 1.257 1_455 S
O12 Tb1 2.349 . S
O12 C23 1.261 . S
O13 Tb0 2.303 . S
O13 C23 1.257 . S
O14 Tb1 2.415 . S
O14 C30 1.239 . S
O15 Tb1 2.399 . S
O15 C30 1.263 . S
O16 Tb1 2.325 . S
O16 C31 1.236 . S
O17 Tb0 2.322 . S
O17 C31 1.257 . S
O18 Tb0 2.349 . S
O18 C2 1.261 . S
O19 Tb1 2.303 . S
O19 C2 1.257 . S
C20 O10 1.236 . S
C20 O11 1.257 1_655 S
O21 Tb0 2.415 1_655 S
O21 C9 1.239 . S
O22 Tb0 2.399 1_655 S
O22 C9 1.263 . S
C23 O12 1.261 . S
C23 O13 1.257 . S
C24 C27 1.358 . S
C24 C28 1.332 . S
C24 C30 1.504 . S
C25 C26 1.373 . S
C25 C29 1.308 . S
C26 C25 1.373 . S
C26 C27 1.429 . S
C26 H36 0.932 . S
C27 C24 1.358 . S
C27 C26 1.429 . S
C27 H37 0.930 . S
C28 C24 1.332 . S
C28 C29 1.394 . S
C28 H38 0.932 . S
C29 C25 1.308 . S
C29 C28 1.394 . S
C29 H39 0.929 . S
C30 Tb1 2.764 . S
C30 O14 1.239 . S
C30 O15 1.263 . S
C30 C24 1.504 . S
C31 O16 1.236 . S
C31 O17 1.257 . S
H32 C5 0.932 . S
H33 C6 0.930 . S
H34 C7 0.932 . S
H35 C8 0.929 . S
H36 C26 0.932 . S
H37 C27 0.930 . S
H38 C28 0.932 . S
H39 C29 0.929 . S
Tb40 C49 2.764 1_545 S
Tb40 O50 2.325 1_545 S
Tb40 O53 2.303 . S
Tb40 O57 2.322 . S
Tb40 O58 2.349 . S
Tb40 O61 2.415 1_545 S
Tb40 O62 2.399 1_545 S
Tb41 O51 2.322 1_545 S
Tb41 O52 2.349 . S
Tb41 O54 2.415 . S
Tb41 O55 2.399 . S
Tb41 O56 2.325 . S
Tb41 O59 2.303 . S
Tb41 C70 2.764 . S
C42 O58 1.261 . S
C42 O59 1.257 . S
C43 C46 1.358 . S
C43 C47 1.332 . S
C43 C49 1.504 . S
C44 C45 1.373 . S
C44 C48 1.308 . S
C45 C44 1.373 . S
C45 C46 1.429 . S
C45 H72 0.932 . S
C46 C43 1.358 . S
C46 C45 1.429 . S
C46 H73 0.930 . S
C47 C43 1.332 . S
C47 C48 1.394 . S
C47 H74 0.932 . S
C48 C44 1.308 . S
C48 C47 1.394 . S
C48 H75 0.929 . S
C49 Tb40 2.764 1_565 S
C49 C43 1.504 . S
C49 O61 1.239 . S
C49 O62 1.263 . S
O50 Tb40 2.325 1_565 S
O50 C60 1.236 . S
O51 Tb41 2.322 1_565 S
O51 C60 1.257 . S
O52 Tb41 2.349 . S
O52 C63 1.261 . S
O53 Tb40 2.303 . S
O53 C63 1.257 . S
O54 Tb41 2.415 . S
O54 C70 1.239 . S
O55 Tb41 2.399 . S
O55 C70 1.263 . S
O56 Tb41 2.325 . S
O56 C71 1.236 . S
O57 Tb40 2.322 . S
O57 C71 1.257 . S
O58 Tb40 2.349 . S
O58 C42 1.261 . S
O59 Tb41 2.303 . S
O59 C42 1.257 . S
C60 O50 1.236 . S
C60 O51 1.257 . S
O61 Tb40 2.415 1_565 S
O61 C49 1.239 . S
O62 Tb40 2.399 1_565 S
O62 C49 1.263 . S
C63 O52 1.261 . S
C63 O53 1.257 . S
C64 C67 1.358 . S
C64 C68 1.332 . S
C64 C70 1.504 . S
C65 C66 1.373 . S
C65 C69 1.308 . S
C66 C65 1.373 . S
C66 C67 1.429 . S
C66 H76 0.932 . S
C67 C64 1.358 . S
C67 C66 1.429 . S
C67 H77 0.930 . S
C68 C64 1.332 . S
C68 C69 1.394 . S
C68 H78 0.932 . S
C69 C65 1.308 . S
C69 C68 1.394 . S
C69 H79 0.929 . S
C70 Tb41 2.764 . S
C70 O54 1.239 . S
C70 O55 1.263 . S
C70 C64 1.504 . S
C71 O56 1.236 . S
C71 O57 1.257 . S
H72 C45 0.932 . S
H73 C46 0.930 . S
H74 C47 0.932 . S
H75 C48 0.929 . S
H76 C66 0.932 . S
H77 C67 0.930 . S
H78 C68 0.932 . S
H79 C69 0.929 . S
Tb80 C89 2.764 . S
Tb80 O90 2.325 . S
Tb80 O93 2.303 . S
Tb80 O97 2.322 . S
Tb80 O98 2.349 . S
Tb80 O101 2.415 . S
Tb80 O102 2.399 . S
Tb81 O91 2.322 . S
Tb81 O92 2.349 . S
Tb81 O94 2.415 . S
Tb81 O95 2.399 . S
Tb81 O96 2.325 . S
Tb81 O99 2.303 . S
Tb81 C110 2.764 . S
C82 O98 1.261 . S
C82 O99 1.257 . S
C83 C86 1.358 . S
C83 C87 1.332 . S
C83 C89 1.504 . S
C84 C85 1.373 . S
C84 C88 1.308 . S
C85 C84 1.373 . S
C85 C86 1.429 . S
C85 H112 0.932 . S
C86 C83 1.358 . S
C86 C85 1.429 . S
C86 H113 0.930 . S
C87 C83 1.332 . S
C87 C88 1.394 . S
C87 H114 0.932 . S
C88 C84 1.308 . S
C88 C87 1.394 . S
C88 H115 0.929 . S
C89 Tb80 2.764 . S
C89 C83 1.504 . S
C89 O101 1.239 . S
C89 O102 1.263 . S
O90 Tb80 2.325 . S
O90 C100 1.236 . S
O91 Tb81 2.322 . S
O91 C100 1.257 . S
O92 Tb81 2.349 . S
O92 C103 1.261 . S
O93 Tb80 2.303 . S
O93 C103 1.257 . S
O94 Tb81 2.415 . S
O94 C110 1.239 . S
O95 Tb81 2.399 . S
O95 C110 1.263 . S
O96 Tb81 2.325 . S
O96 C111 1.236 . S
O97 Tb80 2.322 . S
O97 C111 1.257 . S
O98 Tb80 2.349 . S
O98 C82 1.261 . S
O99 Tb81 2.303 . S
O99 C82 1.257 . S
C100 O90 1.236 . S
C100 O91 1.257 . S
O101 Tb80 2.415 . S
O101 C89 1.239 . S
O102 Tb80 2.399 . S
O102 C89 1.263 . S
C103 O92 1.261 . S
C103 O93 1.257 . S
C104 C107 1.358 . S
C104 C108 1.332 . S
C104 C110 1.504 . S
C105 C106 1.373 . S
C105 C109 1.308 . S
C106 C105 1.373 . S
C106 C107 1.429 . S
C106 H116 0.932 . S
C107 C104 1.358 . S
C107 C106 1.429 . S
C107 H117 0.930 . S
C108 C104 1.332 . S
C108 C109 1.394 . S
C108 H118 0.932 . S
C109 C105 1.308 . S
C109 C108 1.394 . S
C109 H119 0.929 . S
C110 Tb81 2.764 . S
C110 O94 1.239 . S
C110 O95 1.263 . S
C110 C104 1.504 . S
C111 O96 1.236 . S
C111 O97 1.257 . S
H112 C85 0.932 . S
H113 C86 0.930 . S
H114 C87 0.932 . S
H115 C88 0.929 . S
H116 C106 0.932 . S
H117 C107 0.930 . S
H118 C108 0.932 . S
H119 C109 0.929 . S
H120 C125 0.930 . S
H121 C128 0.930 . S
H122 C130 0.925 1_565 S
H123 C124 1.016 . S
C124 H123 1.016 . S
C124 N131 1.286 . S
C125 H120 0.930 . S
C125 C126 1.397 1_545 S
C125 C127 1.361 . S
C126 C125 1.397 1_565 S
C126 C130 1.386 1_565 S
C127 C125 1.361 . S
C127 C128 1.393 . S
C127 N131 1.413 . S
C128 H121 0.930 . S
C128 C127 1.393 . S
C128 C129 1.399 . S
C129 C128 1.399 . S
C129 C130 1.390 . S
C130 H122 0.925 1_545 S
C130 C126 1.386 1_545 S
C130 C129 1.390 . S
N131 C124 1.286 . S
N131 C127 1.413 . S
H132 C137 0.930 . S
H133 C140 0.930 . S
H134 C142 0.930 . S
H135 C136 1.016 . S
C136 H135 1.016 . S
C136 N143 1.286 . S
C137 H132 0.930 . S
C137 C138 1.397 . S
C137 C139 1.361 . S
C138 C137 1.397 . S
C138 C142 1.390 . S
C139 C137 1.361 . S
C139 C140 1.393 . S
C139 N143 1.413 . S
C140 H133 0.930 . S
C140 C139 1.393 . S
C140 C141 1.399 . S
C141 C140 1.399 . S
C141 C142 1.381 . S
C142 H134 0.930 . S
C142 C138 1.390 . S
C142 C141 1.381 . S
N143 C136 1.286 . S
N143 C139 1.413 . S
H144 C149 0.930 1_655 S
H145 C152 0.930 . S
H146 C154 0.930 . S
H147 C148 1.016 . S
C148 H147 1.016 . S
C148 N155 1.286 . S
C149 H144 0.930 1_455 S
C149 C150 1.397 1_455 S
C149 C151 1.361 . S
C150 C149 1.397 1_655 S
C150 C154 1.390 . S
C151 C149 1.361 . S
C151 C152 1.393 . S
C151 N155 1.413 . S
C152 H145 0.930 . S
C152 C151 1.393 . S
C152 C153 1.399 . S
C153 C152 1.399 . S
C153 C154 1.381 1_455 S
C154 H146 0.930 . S
C154 C150 1.390 . S
C154 C153 1.381 1_655 S
N155 C148 1.286 . S
N155 C151 1.413 . S
H156 C161 0.930 . S
H157 C164 0.930 . S
H158 C166 0.930 . S
H159 C160 1.016 . S
C160 H159 1.016 . S
C160 N167 1.286 . S
C161 H156 0.930 . S
C161 C162 1.397 . S
C161 C163 1.361 1_455 S
C162 C161 1.397 . S
C162 C166 1.390 . S
C163 C161 1.361 1_655 S
C163 C164 1.393 . S
C163 N167 1.413 . S
C164 H157 0.930 . S
C164 C163 1.393 . S
C164 C165 1.399 1_655 S
C165 C164 1.399 1_455 S
C165 C166 1.381 . S
C166 H158 0.930 . S
C166 C162 1.390 . S
C166 C165 1.381 . S
N167 C160 1.286 . S
N167 C163 1.413 . S
H168 C173 0.930 . S
H169 C176 0.930 . S
H170 C178 0.930 . S
H171 C172 1.016 . S
C172 H171 1.016 . S
C172 N179 1.286 . S
C173 H168 0.930 . S
C173 C174 1.397 . S
C173 C175 1.361 . S
C174 C173 1.397 . S
C174 C178 1.390 . S
C175 C173 1.361 . S
C175 C176 1.393 1_545 S
C175 N179 1.413 1_545 S
C176 H169 0.930 . S
C176 C175 1.393 1_565 S
C176 C177 1.399 1_565 S
C177 C176 1.399 1_545 S
C177 C178 1.381 . S
C178 H170 0.930 . S
C178 C174 1.390 . S
C178 C177 1.381 . S
N179 C172 1.286 . S
N179 C175 1.413 1_565 S
H180 C185 0.930 . S
H181 C188 0.930 . S
H182 C190 0.930 . S
H183 C184 1.016 . S
C184 H183 1.016 . S
C184 N191 1.286 . S
C185 H180 0.930 . S
C185 C186 1.397 . S
C185 C187 1.361 . S
C186 C185 1.397 . S
C186 C190 1.390 . S
C187 C185 1.361 . S
C187 C188 1.393 . S
C187 N191 1.413 . S
C188 H181 0.930 . S
C188 C187 1.393 . S
C188 C189 1.399 . S
C189 C188 1.399 . S
C189 C190 1.381 . S
C190 H182 0.930 . S
C190 C186 1.390 . S
C190 C189 1.381 . S
N191 C184 1.286 . S
N191 C187 1.413 . S
C192 C193 1.369 . S
C192 C194 1.419 . S
C192 H196 0.930 . S
C193 C192 1.369 . S
C193 C202 1.429 . S
C194 C192 1.419 . S
C194 C195 1.363 . S
C194 H197 0.929 . S
C195 C194 1.363 . S
C195 C201 1.428 . S
H196 C192 0.930 . S
H197 C194 0.929 . S
S198 N199 1.613 . S
S198 N200 1.610 . S
N199 S198 1.613 . S
N199 C202 1.350 . S
N200 S198 1.610 . S
N200 C201 1.351 . S
C201 C195 1.428 . S
C201 N200 1.351 . S
C201 C202 1.434 . S
C202 C193 1.429 . S
C202 N199 1.350 . S
C202 C201 1.434 . S
C203 C204 1.369 . S
C203 C205 1.419 . S
C203 H207 0.930 . S
C204 C203 1.369 . S
C204 C213 1.429 . S
C205 C203 1.419 . S
C205 C206 1.363 . S
C205 H208 0.929 . S
C206 C205 1.363 . S
C206 C212 1.428 . S
H207 C203 0.930 . S
H208 C205 0.929 . S
S209 N210 1.613 . S
S209 N211 1.610 . S
N210 S209 1.613 . S
N210 C213 1.350 . S
N211 S209 1.610 . S
N211 C212 1.351 . S
C212 C206 1.428 . S
C212 N211 1.351 . S
C212 C213 1.434 . S
C213 C204 1.429 . S
C213 N210 1.350 . S
C213 C212 1.434 . S
C214 C215 1.369 . S
C214 C216 1.419 . S
C214 H218 0.930 . S
C215 C214 1.369 . S
C215 C224 1.429 . S
C216 C214 1.419 . S
C216 C217 1.363 . S
C216 H219 0.929 . S
C217 C216 1.363 . S
C217 C223 1.428 . S
H218 C214 0.930 . S
H219 C216 0.929 . S
S220 N221 1.613 . S
S220 N222 1.610 . S
N221 S220 1.613 . S
N221 C224 1.350 . S
N222 S220 1.610 . S
N222 C223 1.351 . S
C223 C217 1.428 . S
C223 N222 1.351 . S
C223 C224 1.434 . S
C224 C215 1.429 . S
C224 N221 1.350 . S
C224 C223 1.434 . S
C225 C226 1.369 . S
C225 C227 1.419 . S
C225 H229 0.930 . S
C226 C225 1.369 . S
C226 C235 1.429 . S
C227 C225 1.419 . S
C227 C228 1.363 . S
C227 H230 0.929 . S
C228 C227 1.363 . S
C228 C234 1.428 . S
H229 C225 0.930 . S
H230 C227 0.929 . S
S231 N232 1.613 . S
S231 N233 1.610 . S
N232 S231 1.613 . S
N232 C235 1.350 . S
N233 S231 1.610 . S
N233 C234 1.351 . S
C234 C228 1.428 . S
C234 N233 1.351 . S
C234 C235 1.434 . S
C235 C226 1.429 . S
C235 N232 1.350 . S
C235 C234 1.434 . S
C236 C237 1.369 . S
C236 C238 1.419 . S
C236 H240 0.930 . S
C237 C236 1.369 . S
C237 C246 1.429 . S
C238 C236 1.419 . S
C238 C239 1.363 . S
C238 H241 0.929 . S
C239 C238 1.363 . S
C239 C245 1.428 . S
H240 C236 0.930 . S
H241 C238 0.929 . S
S242 N243 1.613 . S
S242 N244 1.610 . S
N243 S242 1.613 . S
N243 C246 1.350 . S
N244 S242 1.610 . S
N244 C245 1.351 . S
C245 C239 1.428 . S
C245 N244 1.351 . S
C245 C246 1.434 . S
C246 C237 1.429 . S
C246 N243 1.350 . S
C246 C245 1.434 . S
C247 C248 1.369 . S
C247 C249 1.419 . S
C247 H251 0.930 . S
C248 C247 1.369 . S
C248 C257 1.429 . S
C249 C247 1.419 . S
C249 C250 1.363 . S
C249 H252 0.929 . S
C250 C249 1.363 . S
C250 C256 1.428 . S
H251 C247 0.930 . S
H252 C249 0.929 . S
S253 N254 1.613 . S
S253 N255 1.610 . S
N254 S253 1.613 . S
N254 C257 1.350 . S
N255 S253 1.610 . S
N255 C256 1.351 . S
C256 C250 1.428 . S
C256 N255 1.351 . S
C256 C257 1.434 . S
C257 C248 1.429 . S
C257 N254 1.350 . S
C257 C256 1.434 . S
C258 C259 1.369 . S
C258 C260 1.419 . S
C258 H262 0.930 . S
C259 C258 1.369 . S
C259 C268 1.429 . S
C260 C258 1.419 . S
C260 C261 1.363 . S
C260 H263 0.929 . S
C261 C260 1.363 . S
C261 C267 1.428 . S
H262 C258 0.930 . S
H263 C260 0.929 . S
S264 N265 1.613 . S
S264 N266 1.610 . S
N265 S264 1.613 . S
N265 C268 1.350 . S
N266 S264 1.610 . S
N266 C267 1.351 . S
C267 C261 1.428 . S
C267 N266 1.351 . S
C267 C268 1.434 . S
C268 C259 1.429 . S
C268 N265 1.350 . S
C268 C267 1.434 . S
C269 C270 1.369 . S
C269 C271 1.419 . S
C269 H273 0.930 . S
C270 C269 1.369 . S
C270 C279 1.429 . S
C271 C269 1.419 . S
C271 C272 1.363 . S
C271 H274 0.929 . S
C272 C271 1.363 . S
C272 C278 1.428 . S
H273 C269 0.930 . S
H274 C271 0.929 . S
S275 N276 1.613 . S
S275 N277 1.610 . S
N276 S275 1.613 . S
N276 C279 1.350 . S
N277 S275 1.610 . S
N277 C278 1.351 . S
C278 C272 1.428 . S
C278 N277 1.351 . S
C278 C279 1.434 . S
C279 C270 1.429 . S
C279 N276 1.350 . S
C279 C278 1.434 . S
C280 C281 1.369 . S
C280 C282 1.419 . S
C280 H284 0.930 . S
C281 C280 1.369 . S
C281 C290 1.429 . S
C282 C280 1.419 . S
C282 C283 1.363 . S
C282 H285 0.929 . S
C283 C282 1.363 . S
C283 C289 1.428 . S
H284 C280 0.930 . S
H285 C282 0.929 . S
S286 N287 1.613 . S
S286 N288 1.610 . S
N287 S286 1.613 . S
N287 C290 1.350 . S
N288 S286 1.610 . S
N288 C289 1.351 . S
C289 C283 1.428 . S
C289 N288 1.351 . S
C289 C290 1.434 . S
C290 C281 1.429 . S
C290 N287 1.350 . S
C290 C289 1.434 . S
C291 C292 1.369 . S
C291 C293 1.419 . S
C291 H295 0.930 . S
C292 C291 1.369 . S
C292 C301 1.429 . S
C293 C291 1.419 . S
C293 C294 1.363 . S
C293 H296 0.929 . S
C294 C293 1.363 . S
C294 C300 1.428 . S
H295 C291 0.930 . S
H296 C293 0.929 . S
S297 N298 1.613 . S
S297 N299 1.610 . S
N298 S297 1.613 . S
N298 C301 1.350 . S
N299 S297 1.610 . S
N299 C300 1.351 . S
C300 C294 1.428 . S
C300 N299 1.351 . S
C300 C301 1.434 . S
C301 C292 1.429 . S
C301 N298 1.350 . S
C301 C300 1.434 . S
C302 C303 1.369 . S
C302 C304 1.419 . S
C302 H306 0.930 . S
C303 C302 1.369 . S
C303 C312 1.429 . S
C304 C302 1.419 . S
C304 C305 1.363 . S
C304 H307 0.929 . S
C305 C304 1.363 . S
C305 C311 1.428 . S
H306 C302 0.930 . S
H307 C304 0.929 . S
S308 N309 1.613 . S
S308 N310 1.610 . S
N309 S308 1.613 . S
N309 C312 1.350 . S
N310 S308 1.610 . S
N310 C311 1.351 . S
C311 C305 1.428 . S
C311 N310 1.351 . S
C311 C312 1.434 . S
C312 C303 1.429 . S
C312 N309 1.350 . S
C312 C311 1.434 . S
C313 C314 1.369 . S
C313 C315 1.419 . S
C313 H317 0.930 . S
C314 C313 1.369 . S
C314 C323 1.429 . S
C315 C313 1.419 . S
C315 C316 1.363 . S
C315 H318 0.929 . S
C316 C315 1.363 . S
C316 C322 1.428 . S
H317 C313 0.930 . S
H318 C315 0.929 . S
S319 N320 1.613 . S
S319 N321 1.610 . S
N320 S319 1.613 . S
N320 C323 1.350 . S
N321 S319 1.610 . S
N321 C322 1.351 . S
C322 C316 1.428 . S
C322 N321 1.351 . S
C322 C323 1.434 . S
C323 C314 1.429 . S
C323 N320 1.350 . S
C323 C322 1.434 . S
C324 C325 1.369 . S
C324 C326 1.419 . S
C324 H328 0.930 . S
C325 C324 1.369 . S
C325 C334 1.429 . S
C326 C324 1.419 . S
C326 C327 1.363 1_554 S
C326 H329 0.929 1_554 S
C327 C326 1.363 1_556 S
C327 C333 1.428 1_556 S
H328 C324 0.930 . S
H329 C326 0.929 1_556 S
S330 N331 1.613 . S
S330 N332 1.610 1_554 S
N331 S330 1.613 . S
N331 C334 1.350 1_655 S
N332 S330 1.610 1_556 S
N332 C333 1.351 1_656 S
C333 C327 1.428 1_554 S
C333 N332 1.351 1_454 S
C333 C334 1.434 . S
C334 C325 1.429 . S
C334 N331 1.350 1_455 S
C334 C333 1.434 . S
C335 C336 1.369 . S
C335 C337 1.419 . S
C335 H339 0.930 1_545 S
C336 C335 1.369 . S
C336 C345 1.429 . S
C337 C335 1.419 . S
C337 C338 1.363 . S
C337 H340 0.929 1_545 S
C338 C337 1.363 . S
C338 C344 1.428 . S
H339 C335 0.930 1_565 S
H340 C337 0.929 1_565 S
S341 N342 1.613 . S
S341 N343 1.610 . S
N342 S341 1.613 . S
N342 C345 1.350 . S
N343 S341 1.610 . S
N343 C344 1.351 . S
C344 C338 1.428 . S
C344 N343 1.351 . S
C344 C345 1.434 . S
C345 C336 1.429 . S
C345 N342 1.350 . S
C345 C344 1.434 . S
C346 C347 1.369 . S
C346 C348 1.419 . S
C346 H350 0.930 . S
C347 C346 1.369 . S
C347 C356 1.429 . S
C348 C346 1.419 . S
C348 C349 1.363 . S
C348 H351 0.929 . S
C349 C348 1.363 . S
C349 C355 1.428 . S
H350 C346 0.930 . S
H351 C348 0.929 . S
S352 N353 1.613 . S
S352 N354 1.610 . S
N353 S352 1.613 . S
N353 C356 1.350 . S
N354 S352 1.610 . S
N354 C355 1.351 . S
C355 C349 1.428 . S
C355 N354 1.351 . S
C355 C356 1.434 . S
C356 C347 1.429 . S
C356 N353 1.350 . S
C356 C355 1.434 . S
C357 C358 1.369 . S
C357 C359 1.419 . S
C357 H361 0.930 . S
C358 C357 1.369 . S
C358 C367 1.429 . S
C359 C357 1.419 . S
C359 C360 1.363 . S
C359 H362 0.929 . S
C360 C359 1.363 . S
C360 C366 1.428 . S
H361 C357 0.930 . S
H362 C359 0.929 . S
S363 N364 1.613 1_565 S
S363 N365 1.610 . S
N364 S363 1.613 1_545 S
N364 C367 1.350 . S
N365 S363 1.610 . S
N365 C366 1.351 1_565 S
C366 C360 1.428 . S
C366 N365 1.351 1_545 S
C366 C367 1.434 . S
C367 C358 1.429 . S
C367 N364 1.350 . S
C367 C366 1.434 . S
C368 C369 1.369 . S
C368 C370 1.419 1_556 S
C368 H372 0.930 . S
C369 C368 1.369 . S
C369 C378 1.429 . S
C370 C368 1.419 1_554 S
C370 C371 1.363 . S
C370 H373 0.929 . S
C371 C370 1.363 . S
C371 C377 1.428 1_554 S
H372 C368 0.930 . S
H373 C370 0.929 . S
S374 N375 1.613 . S
S374 N376 1.610 . S
N375 S374 1.613 . S
N375 C378 1.350 . S
N376 S374 1.610 . S
N376 C377 1.351 . S
C377 C371 1.428 1_556 S
C377 N376 1.351 . S
C377 C378 1.434 . S
C378 C369 1.429 . S
C378 N375 1.350 . S
C378 C377 1.434 . S
C379 C380 1.369 . S
C379 C381 1.419 . S
C379 H383 0.930 . S
C380 C379 1.369 . S
C380 C389 1.429 . S
C381 C379 1.419 . S
C381 C382 1.363 . S
C381 H384 0.929 . S
C382 C381 1.363 . S
C382 C388 1.428 . S
H383 C379 0.930 . S
H384 C381 0.929 . S
S385 N386 1.613 1_655 S
S385 N387 1.610 . S
N386 S385 1.613 1_455 S
N386 C389 1.350 . S
N387 S385 1.610 . S
N387 C388 1.351 1_655 S
C388 C382 1.428 . S
C388 N387 1.351 1_455 S
C388 C389 1.434 . S
C389 C380 1.429 . S
C389 N386 1.350 . S
C389 C388 1.434 . S
C193 C25 0.851 . S
C195 C186 0.851 . S
C204 C65 0.694 . S
C206 C160 0.609 . S
C215 C105 0.725 . S
C217 C172 0.681 . S
C226 C4 0.732 . S
C228 C184 0.681 . S
C239 C162 0.524 . S
C237 C44 0.603 . S
C250 C174 0.489 . S
C248 C84 0.557 . S
C259 C60 3.077 . S
C261 C136 2.989 . S
C270 C100 3.322 . S
C272 C150 3.289 . S
C281 C31 3.060 . S
C283 C126 3.006 . S
C294 C138 3.018 . S
C292 C71 3.062 . S
C305 C148 2.747 . S
C303 C111 2.865 . S
C314 C20 3.083 . S
C316 C124 2.998 . S
C327 C153 1.855 . S
C325 C2 1.748 . S
C336 C42 1.787 . S
C338 C129 1.805 . S
C347 C82 1.754 . S
C349 C141 1.781 . S
C360 C177 1.072 . S
C358 C63 1.052 . S
C371 C189 1.142 . S
C369 C103 1.134 . S
C380 C23 1.049 . S
C382 C165 1.048 . S
