# Generated by pormake.
# Topology pts, (4,4)-cn, num edge types: 1
# Building blocks:
#     Node 0, Type 0, BuildingBlock: KUFVIS_clean_linker_0, # of connection points: 4
#     Node 1, Type 0, BuildingBlock: KUFVIS_clean_linker_0, # of connection points: 4
#     Node 2, Type 1, BuildingBlock: UXUYUI_clean_sbu_0, # of connection points: 4
#     Node 3, Type 1, BuildingBlock: UXUYUI_clean_sbu_0, # of connection points: 4
#     Edge 4, Type (0, 1), BuildingBlock: CIFDUS_clean_linker_0, # of connection points: 2
#     Edge 5, Type (0, 1), BuildingBlock: CIFDUS_clean_linker_0, # of connection points: 2
#     Edge 6, Type (0, 1), BuildingBlock: CIFDUS_clean_linker_0, # of connection points: 2
#     Edge 7, Type (0, 1), BuildingBlock: CIFDUS_clean_linker_0, # of connection points: 2
#     Edge 8, Type (0, 1), BuildingBlock: CIFDUS_clean_linker_0, # of connection points: 2
#     Edge 9, Type (0, 1), BuildingBlock: CIFDUS_clean_linker_0, # of connection points: 2
#     Edge 10, Type (0, 1), BuildingBlock: CIFDUS_clean_linker_0, # of connection points: 2
#     Edge 11, Type (0, 1), BuildingBlock: CIFDUS_clean_linker_0, # of connection points: 2
# Relax obj value: 0.008
# Max RMSD: 0.067
# Mean RMSD: 0.060
data_MOF--net-pts--node1-UXUYUI_clean_sbu_0--node2-KUFVIS_clean_linker_0--edge1-CIFDUS_clean_linker_0
_symmetry_space_group_name_H-M    P1
_symmetry_Int_Tables_number       1
_symmetry_cell_setting            triclinic
loop_
_symmetry_equiv_pos_as_xyz
'x, y, z'
_cell_length_a     28.082715
_cell_length_b     28.194647
_cell_length_c     38.583218
_cell_angle_alpha  89.632769
_cell_angle_beta   89.720491
_cell_angle_gamma 89.921546
loop_
_atom_site_label
_atom_site_type_symbol
_atom_site_fract_x
_atom_site_fract_y
_atom_site_fract_z
_atom_type_partial_charge
H0 H 0.37113 1.00101 -0.00975 0.0
H1 H 0.50123 1.02053 0.93475 0.0
H2 H 0.50157 0.99876 0.04653 0.0
H3 H 0.57075 0.03051 0.04529 0.0
H4 H 0.7017 0.02962 -0.01143 0.0
H5 H 0.57351 0.99642 0.93548 0.0
C6 C 0.40976 1.00261 -0.00971 0.0
C7 C 0.43394 1.00125 0.02177 0.0
C8 C 0.43417 1.00828 0.95903 0.0
C9 C 0.48383 1.01312 0.95921 0.0
C10 C 0.50999 1.00882 -0.0095 0.0
C11 C 0.48392 1.00212 0.02183 0.0
C12 C 0.56365 1.01314 -0.00962 0.0
C13 C 0.58896 0.02461 0.02099 0.0
C14 C 0.63868 0.03005 0.02048 0.0
C15 C 0.66326 0.02573 -0.01086 0.0
C16 C 0.63955 1.01501 0.95854 0.0
C17 C 0.59031 1.00694 0.95935 0.0
H18 H 1.01752 0.69265 0.49101 0.0
H19 H 0.02871 0.56135 0.54552 0.0
H20 H 0.99353 0.56388 0.43589 0.0
H21 H 1.02071 0.49255 0.43467 0.0
H22 H 1.01058 0.362 0.49081 0.0
H23 H 0.99819 0.49177 0.54637 0.0
C24 C 1.01543 0.65423 0.49076 0.0
C25 C 1.00548 0.63078 0.45984 0.0
C26 C 1.02245 0.62915 0.52154 0.0
C27 C 1.02103 0.5795 0.52145 0.0
C28 C 1.01123 0.55426 0.49061 0.0
C29 C 1.00294 0.58098 0.45986 0.0
C30 C 1.01012 0.50068 0.49056 0.0
C31 C 1.01542 0.47487 0.4593 0.0
C32 C 1.01463 0.42515 0.45949 0.0
C33 C 1.01058 0.40052 0.49075 0.0
C34 C 1.00563 0.42473 0.52188 0.0
C35 C 1.00421 0.47443 0.52185 0.0
Li36 Li 0.03506 0.07091 0.26488 0.0
Li37 Li 0.02762 0.98367 0.26134 0.0
Li38 Li 0.07886 0.0277 0.22105 0.0
Li39 Li 0.9913 0.03239 0.21764 0.0
C40 C 0.13165 1.01168 0.27489 0.0
N41 N 0.22748 0.98969 0.27611 0.0
C42 C 0.1464 0.96434 0.2743 0.0
C43 C 0.16556 0.04786 0.27619 0.0
C44 C 0.19505 0.95396 0.27494 0.0
C45 C 0.21386 0.036 0.27675 0.0
C46 C 0.95066 1.01387 0.29431 0.0
C47 C 0.89601 0.95554 0.31727 0.0
N48 N 0.9016 0.97402 0.34947 0.0
C49 C 0.95567 0.03245 0.32759 0.0
C50 C 0.92036 0.9753 0.28903 0.0
C51 C 0.93059 1.01177 0.35515 0.0
C52 C 1.00323 0.15983 0.28922 0.0
N53 N 0.03575 0.1248 0.29445 0.0
C54 C 0.07347 0.16992 0.33867 0.0
C55 C 0.0699 0.12865 0.31904 0.0
C56 C 0.0422 0.20818 0.33247 0.0
C57 C 1.00646 0.20232 0.30739 0.0
H58 H 0.9759 0.15549 0.26987 0.0
H59 H 0.09462 0.09977 0.32324 0.0
C60 C 1.01034 0.8849 0.27378 0.0
N61 N 1.02114 0.92725 0.2885 0.0
C62 C 1.00169 0.84499 0.2946 0.0
C63 C 1.0167 0.89291 0.34512 0.0
C64 C 1.02569 0.93157 0.32337 0.0
C65 C 1.00383 0.84911 0.33079 0.0
H66 H 1.00767 0.88226 0.24594 0.0
H67 H 0.03509 0.9655 0.33431 0.0
C68 C 0.03621 0.13264 0.21087 0.0
N69 N 0.03025 0.23038 0.20559 0.0
C70 C 0.99659 0.15398 0.19541 0.0
C71 C 0.07275 0.16119 0.22373 0.0
C72 C 0.99428 0.20339 0.19295 0.0
C73 C 0.06906 0.21047 0.22081 0.0
C74 C 1.0132 0.95689 0.18199 0.0
C75 C 0.03467 0.96368 0.14958 0.0
C76 C 0.97012 0.93226 0.18442 0.0
C77 C 1.01259 0.94571 0.12007 0.0
C78 C 0.94913 0.91495 0.15429 0.0
N79 N 0.97062 0.92196 0.12302 0.0
C80 C 0.15677 0.98532 0.18359 0.0
C81 C 0.15989 0.06866 0.19015 0.0
C82 C 0.19887 0.986 0.16392 0.0
N83 N 0.13775 0.0265 0.19564 0.0
C84 C 0.2021 0.07095 0.17119 0.0
C85 C 0.22159 0.02949 0.15692 0.0
H86 H 0.13868 0.9521 0.1886 0.0
H87 H 0.14459 0.10072 0.20021 0.0
C88 C 0.89291 0.03788 0.2029 0.0
N89 N 0.9371 0.03946 0.18835 0.0
C90 C 0.85246 0.04443 0.18248 0.0
C91 C 0.90378 0.0544 0.1325 0.0
C92 C 0.94319 0.04764 0.15388 0.0
C93 C 0.85761 0.05308 0.14679 0.0
H94 H 0.88903 0.03221 0.23046 0.0
H95 H 0.97875 0.04949 0.14307 0.0
O96 O 0.08428 1.02258 0.27316 0.0
O97 O 0.97574 0.03294 0.26713 0.0
O98 O 0.03909 0.08419 0.21338 0.0
O99 O 0.0339 0.97477 0.21113 0.0
H100 H 0.12058 0.93596 0.27299 0.0
H101 H 0.15471 0.08471 0.2762 0.0
H102 H 0.20702 0.91749 0.27435 0.0
H103 H 0.24053 0.06362 0.27753 0.0
H104 H 0.87282 0.92541 0.31362 0.0
H105 H 0.97901 0.06222 0.33218 0.0
H106 H 0.9163 0.9603 0.26348 0.0
H107 H 0.93431 0.02562 0.38108 0.0
H108 H 0.10052 0.17155 0.35849 0.0
H109 H 0.98173 0.23049 0.30106 0.0
H110 H 0.99206 0.81172 0.28265 0.0
H111 H 1.01955 0.89727 0.3729 0.0
H112 H 0.96777 0.13278 0.18553 0.0
H113 H 0.10284 0.14567 0.237 0.0
H114 H 0.96379 0.22029 0.18105 0.0
H115 H 0.09685 0.2329 0.23098 0.0
H116 H 0.0677 0.98311 0.14715 0.0
H117 H 0.95272 0.92719 0.20923 0.0
H118 H 0.02871 0.95084 0.09481 0.0
H119 H 0.91565 0.89609 0.15577 0.0
H120 H 0.21238 0.95317 0.15328 0.0
H121 H 0.21883 0.10515 0.1672 0.0
H122 H 0.81763 0.04368 0.19463 0.0
H123 H 0.90942 0.06037 0.10503 0.0
Li124 Li 0.9912 1.02414 0.75724 0.0
Li125 Li 0.08417 1.02389 0.7582 0.0
Li126 Li 0.03701 0.06662 0.71381 0.0
Li127 Li 0.04078 0.98355 0.71397 0.0
C128 C 0.04572 0.12364 0.76997 0.0
N129 N 0.06288 0.21937 0.7779 0.0
C130 C 0.09044 0.14238 0.76178 0.0
C131 C 1.00979 0.15346 0.78242 0.0
C132 C 0.09838 0.19092 0.76589 0.0
C133 C 1.01917 0.2018 0.78621 0.0
C134 C 0.03349 0.92352 0.76755 0.0
C135 C 0.06773 0.84627 0.77778 0.0
N136 N 1.02497 0.82602 0.77064 0.0
C137 C 0.98981 0.90203 0.76054 0.0
C138 C 0.07275 0.89554 0.77641 0.0
C139 C 0.98626 0.85265 0.76214 0.0
C140 C 0.8942 1.00483 0.77339 0.0
N141 N 0.93548 1.02404 0.7851 0.0
C142 C 0.89708 0.0499 0.83692 0.0
C143 C 0.9378 0.0457 0.81635 0.0
C144 C 0.8535 0.03161 0.82521 0.0
C145 C 0.85249 1.00816 0.7932 0.0
H146 H 0.89345 0.98794 0.74831 0.0
H147 H 0.97123 0.06035 0.82503 0.0
C148 C 0.18115 0.03856 0.77582 0.0
N149 N 0.13831 1.02204 0.78715 0.0
C150 C 0.22188 0.03217 0.79603 0.0
C151 C 0.17302 0.99375 0.83966 0.0
C152 C 0.13341 1.00069 0.81858 0.0
C153 C 0.21824 1.0087 0.82818 0.0
H154 H 0.18391 0.05555 0.75068 0.0
H155 H 0.0988 0.98807 0.8269 0.0
C156 C 0.95346 0.04601 0.68462 0.0
N157 N 0.89436 0.09543 0.64009 0.0
C158 C 0.95849 0.04096 0.64878 0.0
C159 C 0.91788 0.07564 0.69781 0.0
C160 C 0.92841 0.0664 0.62669 0.0
C161 C 0.88849 0.10048 0.67488 0.0
C162 C 0.12012 1.00861 0.68108 0.0
C163 C 0.10108 1.00939 0.64769 0.0
C164 C 0.16438 0.98723 0.68678 0.0
C165 C 0.12624 0.98809 0.62061 0.0
C166 C 0.18849 0.96635 0.65901 0.0
N167 N 0.16905 0.96715 0.62679 0.0
C168 C 0.07144 0.13387 0.66462 0.0
C169 C 1.00202 0.15827 0.69466 0.0
C170 C 0.07317 0.17699 0.64668 0.0
N171 N 0.03605 0.12513 0.68792 0.0
C172 C 1.00262 0.20207 0.67757 0.0
C173 C 0.03856 0.21201 0.65314 0.0
H174 H 0.09876 0.10761 0.6602 0.0
H175 H 0.97488 0.15116 0.7139 0.0
C176 C 1.00737 0.91213 0.66803 0.0
N177 N 0.0446 0.92601 0.68792 0.0
C178 C 1.01021 0.87012 0.64907 0.0
C179 C 0.08939 0.85743 0.67167 0.0
C180 C 0.08464 0.89906 0.69066 0.0
C181 C 0.05196 0.84273 0.65044 0.0
H182 H 0.97556 0.93371 0.66685 0.0
H183 H 0.11303 0.90994 0.70761 0.0
O184 O 0.03701 0.07641 0.76543 0.0
O185 O 0.03789 0.97172 0.76538 0.0
O186 O 0.98265 1.02148 0.70667 0.0
O187 O 0.09559 0.02872 0.70801 0.0
H188 H 0.11846 0.11979 0.75187 0.0
H189 H 0.97488 0.13952 0.78867 0.0
H190 H 0.13272 0.20599 0.75942 0.0
H191 H 0.99165 0.22537 0.79563 0.0
H192 H 0.09786 0.82411 0.78439 0.0
H193 H 0.95918 0.92324 0.75348 0.0
H194 H 0.10687 0.91166 0.78175 0.0
H195 H 0.95277 0.83548 0.75654 0.0
H196 H 0.89969 0.06741 0.86174 0.0
H197 H 0.81963 0.99376 0.78317 0.0
H198 H 0.25597 0.04413 0.78611 0.0
H199 H 0.16829 0.9765 0.86459 0.0
H200 H 0.98509 1.0174 0.63809 0.0
H201 H 0.91358 0.08021 0.72546 0.0
H202 H 0.93204 0.06295 0.5989 0.0
H203 H 0.86114 0.1239 0.68475 0.0
H204 H 0.06717 0.02618 0.64278 0.0
H205 H 0.17957 0.9859 0.71245 0.0
H206 H 0.11174 0.98821 0.59469 0.0
H207 H 0.22255 0.94932 0.66311 0.0
H208 H 0.10122 0.18261 0.62776 0.0
H209 H 0.97566 0.22813 0.68392 0.0
H210 H 0.9807 0.8598 0.63281 0.0
H211 H 0.12191 0.83689 0.67356 0.0
H212 H 0.37101 0.0685 0.03805 0.0
H213 H 0.43162 0.9383 0.07669 0.0
H214 H 0.37224 0.93647 0.12388 0.0
H215 H 0.29834 0.96905 0.15062 0.0
H216 H 0.23694 0.0971 0.1077 0.0
H217 H 0.30135 0.10267 0.06584 0.0
C218 C 0.37156 0.04005 0.05715 0.0
C219 C 0.40517 1.00345 0.05397 0.0
C220 C 0.33684 0.03867 0.0832 0.0
C221 C 0.40605 0.96694 0.07885 0.0
C222 C 0.37185 0.96572 0.10553 0.0
C223 C 0.29915 0.99814 0.13211 0.0
C224 C 0.26278 0.03273 0.13258 0.0
C225 C 0.3362 1.0008 0.10738 0.0
C226 C 0.26472 0.07045 0.10855 0.0
C227 C 0.30144 0.07356 0.08434 0.0
H228 H 0.0789 0.39188 0.55944 0.0
H229 H 0.92594 0.39119 0.55341 0.0
H230 H 0.92216 0.32663 0.59626 0.0
H231 H 0.96323 0.26381 0.62894 0.0
H232 H 0.11679 0.26451 0.63464 0.0
H233 H 0.11961 0.33527 0.59808 0.0
C234 C 0.0448 0.37853 0.56855 0.0
C235 C 1.00271 0.39636 0.55398 0.0
C236 C 0.04314 0.34066 0.59231 0.0
C237 C 0.95862 0.37834 0.56499 0.0
C238 C 0.95657 0.34113 0.58909 0.0
C239 C 0.99731 0.27997 0.62291 0.0
C240 C 0.03977 0.25814 0.63409 0.0
C241 C 0.99871 0.32095 0.602 0.0
C242 C 0.08357 0.27961 0.62564 0.0
C243 C 0.08525 0.32038 0.60495 0.0
H244 H 0.70706 0.09595 0.03042 0.0
H245 H 0.63424 0.98041 0.08147 0.0
H246 H 0.69401 0.98013 0.12756 0.0
H247 H 0.7731 1.00513 0.14826 0.0
H248 H 0.84689 0.11875 0.09521 0.0
H249 H 0.78116 0.12669 0.05452 0.0
C250 C 0.70386 0.07131 0.05202 0.0
C251 C 0.66672 0.0379 0.05242 0.0
C252 C 0.73919 0.07021 0.07753 0.0
C253 C 0.66244 1.00658 0.08071 0.0
C254 C 0.69695 1.00603 0.10679 0.0
C255 C 0.77439 0.03222 0.12821 0.0
C256 C 0.81529 0.06073 0.12442 0.0
C257 C 0.73646 0.03647 0.10471 0.0
C258 C 0.81642 0.09554 0.09818 0.0
C259 C 0.77869 0.10037 0.07505 0.0
H260 H 0.09281 0.69103 0.53546 0.0
H261 H 0.96476 0.62997 0.57824 0.0
H262 H 0.96364 0.68995 0.624 0.0
H263 H 0.99402 0.76574 0.64711 0.0
H264 H 0.12272 0.82577 0.60426 0.0
H265 H 0.12891 0.76033 0.56319 0.0
C266 C 0.06549 0.69024 0.55545 0.0
C267 C 0.02892 0.65646 0.5537 0.0
C268 C 0.06477 0.72514 0.58116 0.0
C269 C 0.99348 0.65552 0.57945 0.0
C270 C 0.99255 0.69011 0.60528 0.0
C271 C 1.02358 0.76402 0.62895 0.0
C272 C 0.05757 0.80055 0.62826 0.0
C273 C 0.02709 0.72607 0.60563 0.0
C274 C 0.09617 0.79793 0.60509 0.0
C275 C 0.09966 0.76064 0.58162 0.0
H276 H 0.37329 0.94279 0.9355 0.0
H277 H 0.4305 0.08092 0.9118 0.0
H278 H 0.37008 0.09231 0.86669 0.0
H279 H 0.29491 0.06651 0.83955 0.0
H280 H 0.23845 0.92791 0.86436 0.0
H281 H 0.30426 0.91341 0.90387 0.0
C282 C 0.37305 0.97493 0.91986 0.0
C283 C 0.40592 1.01104 0.92683 0.0
C284 C 0.33772 0.98154 0.89481 0.0
C285 C 0.40563 0.05255 0.90656 0.0
C286 C 0.37079 0.05921 0.88112 0.0
C287 C 0.29746 0.03282 0.85312 0.0
C288 C 0.26112 0.99879 0.84953 0.0
C289 C 0.33569 0.02453 0.87582 0.0
C290 C 0.26506 0.95532 0.86739 0.0
C291 C 0.30292 0.94678 0.88978 0.0
H292 H 0.08996 0.38022 0.43085 0.0
H293 H 0.93961 0.40486 0.41897 0.0
H294 H 0.9348 0.3404 0.37691 0.0
H295 H 0.97132 0.27078 0.35044 0.0
H296 H 0.1233 0.24892 0.35903 0.0
H297 H 0.12922 0.31789 0.39624 0.0
C298 C 0.05664 0.3724 0.41798 0.0
C299 C 1.01528 0.39723 0.42742 0.0
C300 C 0.05412 0.33492 0.39426 0.0
C301 C 0.97193 0.38652 0.41142 0.0
C302 C 0.96912 0.34932 0.3878 0.0
C303 C 1.00612 0.28148 0.35946 0.0
C304 C 0.04655 0.25338 0.35231 0.0
C305 C 1.0097 0.32225 0.37998 0.0
C306 C 0.09104 0.26831 0.365 0.0
C307 C 0.0947 0.3083 0.38599 0.0
H308 H 0.69259 0.08525 0.93184 0.0
H309 H 0.65093 0.94061 0.91384 0.0
H310 H 0.71169 0.93386 0.86805 0.0
H311 H 0.78329 0.96662 0.83873 0.0
H312 H 0.82473 0.11127 0.8587 0.0
H313 H 0.75771 0.12045 0.8984 0.0
C314 C 0.69628 0.05258 0.91733 0.0
C315 C 0.6678 1.0134 0.92611 0.0
C316 C 0.73184 0.04875 0.89196 0.0
C317 C 0.67245 0.97125 0.90725 0.0
C318 C 0.70747 0.96732 0.8814 0.0
C319 C 0.77712 1.00036 0.85132 0.0
C320 C 0.80956 0.03791 0.8463 0.0
C321 C 0.73842 1.0054 0.87434 0.0
C322 C 0.80106 0.08143 0.86281 0.0
C323 C 0.76256 0.08685 0.88534 0.0
H324 H 0.95065 0.70886 0.45191 0.0
H325 H 0.04797 0.61823 0.39646 0.0
H326 H 0.05219 0.67636 0.34896 0.0
H327 H 0.03683 0.75804 0.32745 0.0
H328 H 0.94367 0.84971 0.3859 0.0
H329 H 0.92968 0.78651 0.42822 0.0
C330 C 0.97226 0.70156 0.42916 0.0
C331 C 0.99946 0.6597 0.42784 0.0
C332 C 0.97598 0.73583 0.40285 0.0
C333 C 0.02663 0.65019 0.39801 0.0
C334 C 0.02946 0.68367 0.37107 0.0
C335 C 1.01289 0.76375 0.34917 0.0
C336 C 0.99184 0.80861 0.3539 0.0
C337 C 1.00567 0.7274 0.37383 0.0
C338 C 0.96094 0.81572 0.38213 0.0
C339 C 0.95276 0.77958 0.40623 0.0
loop_
_geom_bond_atom_site_label_1
_geom_bond_atom_site_label_2
_geom_bond_distance
_geom_bond_site_symmetry_2
_ccdc_geom_bond_type
H0 C6 0.930 1_565 S
H1 C9 0.931 . S
H2 C11 0.931 . S
H3 C13 0.930 . S
H4 C15 0.930 . S
H5 C17 0.931 1_565 S
C6 H0 0.930 1_545 S
C6 C7 1.380 1_545 S
C6 C8 1.394 1_554 S
C7 C6 1.380 1_565 S
C7 C11 1.382 . S
C8 C6 1.394 1_556 S
C8 C9 1.400 . S
C9 H1 0.931 . S
C9 C8 1.400 . S
C9 C10 1.375 1_556 S
C10 C9 1.375 1_554 S
C10 C11 1.414 1_545 S
C10 C12 1.501 . S
C11 H2 0.931 . S
C11 C7 1.382 . S
C11 C10 1.414 1_565 S
C12 C10 1.501 . S
C12 C13 1.384 . S
C12 C17 1.408 1_554 S
C13 H3 0.930 . S
C13 C12 1.384 . S
C13 C14 1.389 . S
C14 C13 1.389 . S
C14 C15 1.405 . S
C15 H4 0.930 . S
C15 C14 1.405 . S
C15 C16 1.364 1_544 S
C16 C15 1.364 1_566 S
C16 C17 1.400 1_565 S
C17 H5 0.931 1_545 S
C17 C12 1.408 1_556 S
C17 C16 1.400 1_545 S
H18 C24 0.930 . S
H19 C27 0.931 . S
H20 C29 0.931 . S
H21 C31 0.930 . S
H22 C33 0.930 . S
H23 C35 0.931 . S
C24 H18 0.930 . S
C24 C25 1.380 . S
C24 C26 1.395 . S
C25 C24 1.380 . S
C25 C29 1.382 . S
C26 C24 1.395 . S
C26 C27 1.399 1_455 S
C27 H19 0.931 . S
C27 C26 1.399 1_655 S
C27 C28 1.375 1_655 S
C28 C27 1.375 1_455 S
C28 C29 1.415 . S
C28 C30 1.501 . S
C29 H20 0.931 . S
C29 C25 1.382 . S
C29 C28 1.415 . S
C30 C28 1.501 . S
C30 C31 1.384 1_455 S
C30 C35 1.408 . S
C31 H21 0.930 . S
C31 C30 1.384 1_655 S
C31 C32 1.389 . S
C32 C31 1.389 . S
C32 C33 1.404 1_655 S
C33 H22 0.930 . S
C33 C32 1.404 1_455 S
C33 C34 1.364 . S
C34 C33 1.364 . S
C34 C35 1.400 . S
C35 H23 0.931 . S
C35 C30 1.408 . S
C35 C34 1.400 . S
Li36 N53 1.990 . S
Li36 O96 1.957 . S
Li36 O97 1.970 1_455 S
Li36 O98 1.961 . S
Li37 N61 1.991 . S
Li37 O96 1.970 1_565 S
Li37 O97 1.956 1_465 S
Li37 O99 1.961 . S
Li38 N83 1.990 . S
Li38 O96 1.961 . S
Li38 O98 1.956 . S
Li38 O99 1.970 1_545 S
Li39 N89 1.990 . S
Li39 O97 1.961 1_565 S
Li39 O98 1.972 1_665 S
Li39 O99 1.955 1_655 S
C40 C42 1.348 1_545 S
C40 C43 1.356 . S
C40 O96 1.325 . S
N41 C44 1.314 1_545 S
N41 C45 1.279 . S
C42 C40 1.348 1_565 S
C42 C44 1.353 . S
C42 H100 0.929 . S
C43 C40 1.356 . S
C43 C45 1.358 . S
C43 H101 0.930 . S
C44 N41 1.314 1_565 S
C44 C42 1.353 . S
C44 H102 0.930 . S
C45 N41 1.279 . S
C45 C43 1.358 . S
C45 H103 0.930 . S
C46 C49 1.348 . S
C46 C50 1.356 1_545 S
C46 O97 1.325 . S
C47 N48 1.279 . S
C47 C50 1.358 . S
C47 H104 0.930 . S
N48 C47 1.279 . S
N48 C51 1.314 1_565 S
C49 C46 1.348 . S
C49 C51 1.353 . S
C49 H105 0.929 . S
C50 C46 1.356 1_565 S
C50 C47 1.358 . S
C50 H106 0.930 . S
C51 N48 1.314 1_545 S
C51 C49 1.353 . S
C51 H107 0.930 . S
C52 N53 1.314 1_655 S
C52 C57 1.353 . S
C52 H58 0.930 . S
N53 Li36 1.990 . S
N53 C52 1.314 1_455 S
N53 C55 1.279 . S
C54 C55 1.358 . S
C54 C56 1.356 . S
C54 H108 0.930 . S
C55 N53 1.279 . S
C55 C54 1.358 . S
C55 H59 0.930 . S
C56 C54 1.356 . S
C56 C57 1.348 1_455 S
C57 C52 1.353 . S
C57 C56 1.348 1_655 S
C57 H109 0.929 . S
H58 C52 0.930 . S
H59 C55 0.930 . S
C60 N61 1.321 . S
C60 C62 1.353 . S
C60 H66 0.930 . S
N61 Li37 1.991 . S
N61 C60 1.321 . S
N61 C64 1.273 1_455 S
C62 C60 1.353 . S
C62 C65 1.348 . S
C62 H110 0.929 . S
C63 C64 1.358 . S
C63 C65 1.356 1_655 S
C63 H111 0.930 . S
C64 N61 1.273 1_655 S
C64 C63 1.358 . S
C64 H67 0.930 . S
C65 C62 1.348 . S
C65 C63 1.356 1_455 S
H66 C60 0.930 . S
H67 C64 0.930 . S
C68 C70 1.348 1_455 S
C68 C71 1.356 . S
C68 O98 1.325 . S
N69 C72 1.314 1_455 S
N69 C73 1.279 . S
C70 C68 1.348 1_655 S
C70 C72 1.353 . S
C70 H112 0.929 . S
C71 C68 1.356 . S
C71 C73 1.358 . S
C71 H113 0.930 . S
C72 N69 1.314 1_655 S
C72 C70 1.353 . S
C72 H114 0.930 . S
C73 N69 1.279 . S
C73 C71 1.358 . S
C73 H115 0.930 . S
C74 C75 1.348 . S
C74 C76 1.356 1_455 S
C74 O99 1.325 . S
C75 C74 1.348 . S
C75 C77 1.353 . S
C75 H116 0.929 . S
C76 C74 1.356 1_655 S
C76 C78 1.358 . S
C76 H117 0.930 . S
C77 C75 1.353 . S
C77 N79 1.322 . S
C77 H118 0.930 . S
C78 C76 1.358 . S
C78 N79 1.272 1_655 S
C78 H119 0.930 . S
N79 C77 1.322 . S
N79 C78 1.272 1_455 S
C80 C82 1.353 . S
C80 N83 1.314 1_565 S
C80 H86 0.930 . S
C81 N83 1.279 . S
C81 C84 1.358 . S
C81 H87 0.930 . S
C82 C80 1.353 . S
C82 C85 1.348 1_565 S
C82 H120 0.929 . S
N83 Li38 1.990 . S
N83 C80 1.314 1_545 S
N83 C81 1.279 . S
C84 C81 1.358 . S
C84 C85 1.356 . S
C84 H121 0.930 . S
C85 C82 1.348 1_545 S
C85 C84 1.356 . S
H86 C80 0.930 . S
H87 C81 0.930 . S
C88 N89 1.314 1_545 S
C88 C90 1.353 . S
C88 H94 0.930 . S
N89 Li39 1.990 . S
N89 C88 1.314 1_565 S
N89 C92 1.279 . S
C90 C88 1.353 . S
C90 C93 1.348 . S
C90 H122 0.929 . S
C91 C92 1.358 . S
C91 C93 1.356 1_565 S
C91 H123 0.930 . S
C92 N89 1.279 . S
C92 C91 1.358 . S
C92 H95 0.930 . S
C93 C90 1.348 . S
C93 C91 1.356 1_545 S
H94 C88 0.930 . S
H95 C92 0.930 . S
O96 Li36 1.957 . S
O96 Li37 1.970 1_545 S
O96 Li38 1.961 . S
O96 C40 1.325 . S
O97 Li36 1.970 1_655 S
O97 Li37 1.956 1_645 S
O97 Li39 1.961 1_545 S
O97 C46 1.325 . S
O98 Li36 1.961 . S
O98 Li38 1.956 . S
O98 Li39 1.972 1_445 S
O98 C68 1.325 . S
O99 Li37 1.961 . S
O99 Li38 1.970 1_565 S
O99 Li39 1.955 1_455 S
O99 C74 1.325 . S
H100 C42 0.929 . S
H101 C43 0.930 . S
H102 C44 0.930 . S
H103 C45 0.930 . S
H104 C47 0.930 . S
H105 C49 0.929 . S
H106 C50 0.930 . S
H107 C51 0.930 . S
H108 C54 0.930 . S
H109 C57 0.929 . S
H110 C62 0.929 . S
H111 C63 0.930 . S
H112 C70 0.929 . S
H113 C71 0.930 . S
H114 C72 0.930 . S
H115 C73 0.930 . S
H116 C75 0.929 . S
H117 C76 0.930 . S
H118 C77 0.930 . S
H119 C78 0.930 . S
H120 C82 0.929 . S
H121 C84 0.930 . S
H122 C90 0.929 . S
H123 C91 0.930 . S
Li124 N141 1.990 . S
Li124 O184 1.956 1_655 S
Li124 O185 1.970 1_645 S
Li124 O186 1.961 . S
Li125 N149 1.990 1_545 S
Li125 O184 1.973 . S
Li125 O185 1.954 1_545 S
Li125 O187 1.961 . S
Li126 N171 1.991 . S
Li126 O184 1.961 . S
Li126 O186 1.962 1_455 S
Li126 O187 1.970 . S
Li127 N177 1.990 . S
Li127 O185 1.961 . S
Li127 O186 1.965 1_465 S
Li127 O187 1.956 1_565 S
C128 C130 1.348 . S
C128 C131 1.356 1_455 S
C128 O184 1.325 . S
N129 C132 1.318 . S
N129 C133 1.276 1_455 S
C130 C128 1.348 . S
C130 C132 1.353 . S
C130 H188 0.929 . S
C131 C128 1.356 1_655 S
C131 C133 1.358 . S
C131 H189 0.930 . S
C132 N129 1.318 . S
C132 C130 1.353 . S
C132 H190 0.930 . S
C133 N129 1.276 1_655 S
C133 C131 1.358 . S
C133 H191 0.930 . S
C134 C137 1.348 1_455 S
C134 C138 1.356 . S
C134 O185 1.325 . S
C135 N136 1.279 . S
C135 C138 1.358 . S
C135 H192 0.930 . S
N136 C135 1.279 . S
N136 C139 1.314 1_455 S
C137 C134 1.348 1_655 S
C137 C139 1.353 . S
C137 H193 0.929 . S
C138 C134 1.356 . S
C138 C135 1.358 . S
C138 H194 0.930 . S
C139 N136 1.314 1_655 S
C139 C137 1.353 . S
C139 H195 0.930 . S
C140 N141 1.314 1_565 S
C140 C145 1.353 . S
C140 H146 0.930 . S
N141 Li124 1.990 . S
N141 C140 1.314 1_545 S
N141 C143 1.279 . S
C142 C143 1.358 . S
C142 C144 1.356 . S
C142 H196 0.930 . S
C143 N141 1.279 . S
C143 C142 1.358 . S
C143 H147 0.930 . S
C144 C142 1.356 . S
C144 C145 1.348 1_545 S
C145 C140 1.353 . S
C145 C144 1.348 1_565 S
C145 H197 0.929 . S
H146 C140 0.930 . S
H147 C143 0.930 . S
C148 N149 1.314 1_545 S
C148 C150 1.353 . S
C148 H154 0.930 . S
N149 Li125 1.990 1_565 S
N149 C148 1.314 1_565 S
N149 C152 1.279 . S
C150 C148 1.353 . S
C150 C153 1.348 . S
C150 H198 0.929 . S
C151 C152 1.358 . S
C151 C153 1.356 1_565 S
C151 H199 0.930 . S
C152 N149 1.279 . S
C152 C151 1.358 . S
C152 H155 0.930 . S
C153 C150 1.348 . S
C153 C151 1.356 1_545 S
H154 C148 0.930 . S
H155 C152 0.930 . S
C156 C158 1.348 1_545 S
C156 C159 1.356 . S
C156 O186 1.325 . S
N157 C160 1.314 1_545 S
N157 C161 1.279 . S
C158 C156 1.348 1_565 S
C158 C160 1.353 . S
C158 H200 0.929 . S
C159 C156 1.356 . S
C159 C161 1.358 . S
C159 H201 0.930 . S
C160 N157 1.314 1_565 S
C160 C158 1.353 . S
C160 H202 0.930 . S
C161 N157 1.279 . S
C161 C159 1.358 . S
C161 H203 0.930 . S
C162 C163 1.348 . S
C162 C164 1.356 1_545 S
C162 O187 1.325 . S
C163 C162 1.348 . S
C163 C165 1.353 . S
C163 H204 0.929 . S
C164 C162 1.356 1_565 S
C164 C166 1.358 . S
C164 H205 0.930 . S
C165 C163 1.353 . S
C165 N167 1.314 1_545 S
C165 H206 0.930 . S
C166 C164 1.358 . S
C166 N167 1.279 . S
C166 H207 0.930 . S
N167 C165 1.314 1_565 S
N167 C166 1.279 . S
C168 C170 1.353 . S
C168 N171 1.319 . S
C168 H174 0.930 . S
C169 N171 1.275 1_655 S
C169 C172 1.358 . S
C169 H175 0.930 . S
C170 C168 1.353 . S
C170 C173 1.348 . S
C170 H208 0.929 . S
N171 Li126 1.991 . S
N171 C168 1.319 . S
N171 C169 1.275 1_455 S
C172 C169 1.358 . S
C172 C173 1.356 1_655 S
C172 H209 0.930 . S
C173 C170 1.348 . S
C173 C172 1.356 1_455 S
H174 C168 0.930 . S
H175 C169 0.930 . S
C176 N177 1.314 1_655 S
C176 C178 1.353 . S
C176 H182 0.930 . S
N177 Li127 1.990 . S
N177 C176 1.314 1_455 S
N177 C180 1.279 . S
C178 C176 1.353 . S
C178 C181 1.348 1_655 S
C178 H210 0.929 . S
C179 C180 1.358 . S
C179 C181 1.356 . S
C179 H211 0.930 . S
C180 N177 1.279 . S
C180 C179 1.358 . S
C180 H183 0.930 . S
C181 C178 1.348 1_455 S
C181 C179 1.356 . S
H182 C176 0.930 . S
H183 C180 0.930 . S
O184 Li124 1.956 1_455 S
O184 Li125 1.973 . S
O184 Li126 1.961 . S
O184 C128 1.325 . S
O185 Li124 1.970 1_465 S
O185 Li125 1.954 1_565 S
O185 Li127 1.961 . S
O185 C134 1.325 . S
O186 Li124 1.961 . S
O186 Li126 1.962 1_655 S
O186 Li127 1.965 1_645 S
O186 C156 1.325 . S
O187 Li125 1.961 . S
O187 Li126 1.970 . S
O187 Li127 1.956 1_545 S
O187 C162 1.325 . S
H188 C130 0.929 . S
H189 C131 0.930 . S
H190 C132 0.930 . S
H191 C133 0.930 . S
H192 C135 0.930 . S
H193 C137 0.929 . S
H194 C138 0.930 . S
H195 C139 0.930 . S
H196 C142 0.930 . S
H197 C145 0.929 . S
H198 C150 0.929 . S
H199 C151 0.930 . S
H200 C158 0.929 . S
H201 C159 0.930 . S
H202 C160 0.930 . S
H203 C161 0.930 . S
H204 C163 0.929 . S
H205 C164 0.930 . S
H206 C165 0.930 . S
H207 C166 0.930 . S
H208 C170 0.929 . S
H209 C172 0.930 . S
H210 C178 0.929 . S
H211 C179 0.930 . S
H212 C218 0.930 . S
H213 C221 0.930 . S
H214 C222 0.930 . S
H215 C223 0.930 . S
H216 C226 0.930 . S
H217 C227 0.930 . S
C218 H212 0.930 . S
C218 C219 1.355 1_545 S
C218 C220 1.415 . S
C219 C218 1.355 1_565 S
C219 C221 1.419 . S
C220 C218 1.415 . S
C220 C225 1.425 1_545 S
C220 C227 1.409 . S
C221 H213 0.930 . S
C221 C219 1.419 . S
C221 C222 1.362 . S
C222 H214 0.930 . S
C222 C221 1.362 . S
C222 C225 1.409 . S
C223 H215 0.930 . S
C223 C224 1.356 . S
C223 C225 1.415 . S
C224 C223 1.356 . S
C224 C226 1.417 1_565 S
C225 C220 1.425 1_565 S
C225 C222 1.409 . S
C225 C223 1.415 . S
C226 H216 0.930 . S
C226 C224 1.417 1_545 S
C226 C227 1.362 . S
C227 H217 0.930 . S
C227 C220 1.409 . S
C227 C226 1.362 . S
H228 C234 0.930 . S
H229 C237 0.930 . S
H230 C238 0.930 . S
H231 C239 0.930 . S
H232 C242 0.930 . S
H233 C243 0.930 . S
C234 H228 0.930 . S
C234 C235 1.355 . S
C234 C236 1.415 . S
C235 C234 1.355 . S
C235 C237 1.419 1_455 S
C236 C234 1.415 . S
C236 C241 1.425 1_455 S
C236 C243 1.409 . S
C237 H229 0.930 . S
C237 C235 1.419 1_655 S
C237 C238 1.362 . S
C238 H230 0.930 . S
C238 C237 1.362 . S
C238 C241 1.409 . S
C239 H231 0.930 . S
C239 C240 1.355 1_655 S
C239 C241 1.415 . S
C240 C239 1.355 1_455 S
C240 C242 1.419 . S
C241 C236 1.425 1_655 S
C241 C238 1.409 . S
C241 C239 1.415 . S
C242 H232 0.930 . S
C242 C240 1.419 . S
C242 C243 1.362 . S
C243 H233 0.930 . S
C243 C236 1.409 . S
C243 C242 1.362 . S
H244 C250 0.930 . S
H245 C253 0.930 . S
H246 C254 0.930 . S
H247 C255 0.930 . S
H248 C258 0.930 . S
H249 C259 0.930 . S
C250 H244 0.930 . S
C250 C251 1.355 . S
C250 C252 1.415 . S
C251 C250 1.355 . S
C251 C253 1.419 1_545 S
C252 C250 1.415 . S
C252 C257 1.425 1_545 S
C252 C259 1.409 . S
C253 H245 0.930 . S
C253 C251 1.419 1_565 S
C253 C254 1.362 . S
C254 H246 0.930 . S
C254 C253 1.362 . S
C254 C257 1.409 . S
C255 H247 0.930 . S
C255 C256 1.355 1_565 S
C255 C257 1.415 . S
C256 C255 1.355 1_545 S
C256 C258 1.419 . S
C257 C252 1.425 1_565 S
C257 C254 1.409 . S
C257 C255 1.415 . S
C258 H248 0.930 . S
C258 C256 1.419 . S
C258 C259 1.362 . S
C259 H249 0.930 . S
C259 C252 1.409 . S
C259 C258 1.362 . S
H260 C266 0.930 . S
H261 C269 0.930 . S
H262 C270 0.930 . S
H263 C271 0.930 . S
H264 C274 0.930 . S
H265 C275 0.930 . S
C266 H260 0.930 . S
C266 C267 1.357 . S
C266 C268 1.415 . S
C267 C266 1.357 . S
C267 C269 1.417 1_455 S
C268 C266 1.415 . S
C268 C273 1.425 1_455 S
C268 C275 1.409 . S
C269 H261 0.930 . S
C269 C267 1.417 1_655 S
C269 C270 1.362 . S
C270 H262 0.930 . S
C270 C269 1.362 . S
C270 C273 1.409 . S
C271 H263 0.930 . S
C271 C272 1.355 1_655 S
C271 C273 1.415 . S
C272 C271 1.355 1_455 S
C272 C274 1.419 . S
C273 C268 1.425 1_655 S
C273 C270 1.409 . S
C273 C271 1.415 . S
C274 H264 0.930 . S
C274 C272 1.419 . S
C274 C275 1.362 . S
C275 H265 0.930 . S
C275 C268 1.409 . S
C275 C274 1.362 . S
H276 C282 0.930 . S
H277 C285 0.930 . S
H278 C286 0.930 . S
H279 C287 0.930 . S
H280 C290 0.930 . S
H281 C291 0.930 . S
C282 H276 0.930 . S
C282 C283 1.355 1_565 S
C282 C284 1.415 . S
C283 C282 1.355 1_545 S
C283 C285 1.419 . S
C284 C282 1.415 . S
C284 C289 1.425 1_565 S
C284 C291 1.409 . S
C285 H277 0.930 . S
C285 C283 1.419 . S
C285 C286 1.362 . S
C286 H278 0.930 . S
C286 C285 1.362 . S
C286 C289 1.409 . S
C287 H279 0.930 . S
C287 C288 1.341 1_545 S
C287 C289 1.415 . S
C288 C287 1.341 1_565 S
C288 C290 1.435 . S
C289 C284 1.425 1_545 S
C289 C286 1.409 . S
C289 C287 1.415 . S
C290 H280 0.930 . S
C290 C288 1.435 . S
C290 C291 1.362 . S
C291 H281 0.930 . S
C291 C284 1.409 . S
C291 C290 1.362 . S
H292 C298 0.930 . S
H293 C301 0.930 . S
H294 C302 0.930 . S
H295 C303 0.930 . S
H296 C306 0.930 . S
H297 C307 0.930 . S
C298 H292 0.930 . S
C298 C299 1.356 . S
C298 C300 1.415 . S
C299 C298 1.356 . S
C299 C301 1.417 1_655 S
C300 C298 1.415 . S
C300 C305 1.424 1_655 S
C300 C307 1.409 . S
C301 H293 0.930 . S
C301 C299 1.417 1_455 S
C301 C302 1.362 . S
C302 H294 0.930 . S
C302 C301 1.362 . S
C302 C305 1.409 . S
C303 H295 0.930 . S
C303 C304 1.355 . S
C303 C305 1.415 . S
C304 C303 1.355 . S
C304 C306 1.419 1_455 S
C305 C300 1.424 1_455 S
C305 C302 1.409 . S
C305 C303 1.415 . S
C306 H296 0.930 . S
C306 C304 1.419 1_655 S
C306 C307 1.362 . S
C307 H297 0.930 . S
C307 C300 1.409 . S
C307 C306 1.362 . S
H308 C314 0.930 . S
H309 C317 0.930 . S
H310 C318 0.930 . S
H311 C319 0.930 . S
H312 C322 0.930 . S
H313 C323 0.930 . S
C314 H308 0.930 . S
C314 C315 1.355 1_545 S
C314 C316 1.415 . S
C315 C314 1.355 1_565 S
C315 C317 1.419 . S
C316 C314 1.415 . S
C316 C321 1.425 1_545 S
C316 C323 1.409 . S
C317 H309 0.930 . S
C317 C315 1.419 . S
C317 C318 1.362 . S
C318 H310 0.930 . S
C318 C317 1.362 . S
C318 C321 1.409 . S
C319 H311 0.930 . S
C319 C320 1.355 1_565 S
C319 C321 1.415 . S
C320 C319 1.355 1_545 S
C320 C322 1.419 . S
C321 C316 1.425 1_565 S
C321 C318 1.409 . S
C321 C319 1.415 . S
C322 H312 0.930 . S
C322 C320 1.419 . S
C322 C323 1.362 . S
C323 H313 0.930 . S
C323 C316 1.409 . S
C323 C322 1.362 . S
H324 C330 0.930 . S
H325 C333 0.930 . S
H326 C334 0.930 . S
H327 C335 0.930 . S
H328 C338 0.930 . S
H329 C339 0.930 . S
C330 H324 0.930 . S
C330 C331 1.355 . S
C330 C332 1.415 . S
C331 C330 1.355 . S
C331 C333 1.419 . S
C332 C330 1.415 . S
C332 C337 1.425 . S
C332 C339 1.409 . S
C333 H325 0.930 . S
C333 C331 1.419 . S
C333 C334 1.362 . S
C334 H326 0.930 . S
C334 C333 1.362 . S
C334 C337 1.409 . S
C335 H327 0.930 . S
C335 C336 1.355 . S
C335 C337 1.415 . S
C336 C335 1.355 . S
C336 C338 1.419 . S
C337 C332 1.425 . S
C337 C334 1.409 . S
C337 C335 1.415 . S
C338 H328 0.930 . S
C338 C336 1.419 . S
C338 C339 1.362 . S
C339 H329 0.930 . S
C339 C332 1.409 . S
C339 C338 1.362 . S
C224 C85 1.548 1_565 S
C219 C7 1.519 . S
C240 C173 1.533 . S
C235 C34 1.447 . S
C256 C93 1.550 . S
C251 C14 1.513 . S
C272 C181 1.541 . S
C267 C26 1.519 . S
C288 C153 1.533 1_565 S
C283 C8 1.487 . S
C304 C56 1.539 . S
C299 C32 1.460 . S
C320 C144 1.534 . S
C315 C16 1.473 . S
C331 C25 1.457 . S
C336 C65 1.537 . S
