# Generated by pormake.
# Topology zzz, (3,6)-cn, num edge types: 1
# Building blocks:
#     Node 0, Type 0, BuildingBlock: MIDCAF_clean_linker_0, # of connection points: 3
#     Node 1, Type 0, BuildingBlock: MIDCAF_clean_linker_0, # of connection points: 3
#     Node 2, Type 0, BuildingBlock: MIDCAF_clean_linker_0, # of connection points: 3
#     Node 3, Type 0, BuildingBlock: MIDCAF_clean_linker_0, # of connection points: 3
#     Node 4, Type 0, BuildingBlock: MIDCAF_clean_linker_0, # of connection points: 3
#     Node 5, Type 0, BuildingBlock: MIDCAF_clean_linker_0, # of connection points: 3
#     Node 6, Type 0, BuildingBlock: MIDCAF_clean_linker_0, # of connection points: 3
#     Node 7, Type 0, BuildingBlock: MIDCAF_clean_linker_0, # of connection points: 3
#     Node 8, Type 1, BuildingBlock: KUMBOL_clean_sbu_1, # of connection points: 6
#     Node 9, Type 1, BuildingBlock: KUMBOL_clean_sbu_1, # of connection points: 6
#     Node 10, Type 1, BuildingBlock: KUMBOL_clean_sbu_1, # of connection points: 6
#     Node 11, Type 1, BuildingBlock: KUMBOL_clean_sbu_1, # of connection points: 6
#     Edge 12, Type (0, 1), BuildingBlock: MIFKUJ_clean_linker_0, # of connection points: 2
#     Edge 13, Type (0, 1), BuildingBlock: MIFKUJ_clean_linker_0, # of connection points: 2
#     Edge 14, Type (0, 1), BuildingBlock: MIFKUJ_clean_linker_0, # of connection points: 2
#     Edge 15, Type (0, 1), BuildingBlock: MIFKUJ_clean_linker_0, # of connection points: 2
#     Edge 16, Type (0, 1), BuildingBlock: MIFKUJ_clean_linker_0, # of connection points: 2
#     Edge 17, Type (0, 1), BuildingBlock: MIFKUJ_clean_linker_0, # of connection points: 2
#     Edge 18, Type (0, 1), BuildingBlock: MIFKUJ_clean_linker_0, # of connection points: 2
#     Edge 19, Type (0, 1), BuildingBlock: MIFKUJ_clean_linker_0, # of connection points: 2
#     Edge 20, Type (0, 1), BuildingBlock: MIFKUJ_clean_linker_0, # of connection points: 2
#     Edge 21, Type (0, 1), BuildingBlock: MIFKUJ_clean_linker_0, # of connection points: 2
#     Edge 22, Type (0, 1), BuildingBlock: MIFKUJ_clean_linker_0, # of connection points: 2
#     Edge 23, Type (0, 1), BuildingBlock: MIFKUJ_clean_linker_0, # of connection points: 2
#     Edge 24, Type (0, 1), BuildingBlock: MIFKUJ_clean_linker_0, # of connection points: 2
#     Edge 25, Type (0, 1), BuildingBlock: MIFKUJ_clean_linker_0, # of connection points: 2
#     Edge 26, Type (0, 1), BuildingBlock: MIFKUJ_clean_linker_0, # of connection points: 2
#     Edge 27, Type (0, 1), BuildingBlock: MIFKUJ_clean_linker_0, # of connection points: 2
#     Edge 28, Type (0, 1), BuildingBlock: MIFKUJ_clean_linker_0, # of connection points: 2
#     Edge 29, Type (0, 1), BuildingBlock: MIFKUJ_clean_linker_0, # of connection points: 2
#     Edge 30, Type (0, 1), BuildingBlock: MIFKUJ_clean_linker_0, # of connection points: 2
#     Edge 31, Type (0, 1), BuildingBlock: MIFKUJ_clean_linker_0, # of connection points: 2
#     Edge 32, Type (0, 1), BuildingBlock: MIFKUJ_clean_linker_0, # of connection points: 2
#     Edge 33, Type (0, 1), BuildingBlock: MIFKUJ_clean_linker_0, # of connection points: 2
#     Edge 34, Type (0, 1), BuildingBlock: MIFKUJ_clean_linker_0, # of connection points: 2
#     Edge 35, Type (0, 1), BuildingBlock: MIFKUJ_clean_linker_0, # of connection points: 2
# Relax obj value: 0.290
# Max RMSD: 0.212
# Mean RMSD: 0.181
data_MOF--net-zzz--node1-KUMBOL_clean_sbu_1--node2-MIDCAF_clean_linker_0--edge1-MIFKUJ_clean_linker_0
_symmetry_space_group_name_H-M    P1
_symmetry_Int_Tables_number       1
_symmetry_cell_setting            triclinic
loop_
_symmetry_equiv_pos_as_xyz
'x, y, z'
_cell_length_a     70.889175
_cell_length_b     70.970145
_cell_length_c     26.247846
_cell_angle_alpha  90.007164
_cell_angle_beta   89.979684
_cell_angle_gamma 90.421122
loop_
_atom_site_label
_atom_site_type_symbol
_atom_site_fract_x
_atom_site_fract_y
_atom_site_fract_z
_atom_type_partial_charge
C0 C 0.79123 0.54456 0.2902 0.0
C1 C 0.805 0.53073 0.28096 0.0
C2 C 0.80404 0.52058 0.23491 0.0
C3 C 0.79077 0.52517 0.19752 0.0
H4 H 0.71976 0.52326 0.11645 0.0
H5 H 0.68931 0.51787 0.0738 0.0
H6 H 0.69092 0.57483 0.01607 0.0
H7 H 0.72094 0.58013 0.05845 0.0
H8 H 0.76396 0.58939 1.00549 0.0
H9 H 0.78434 0.59879 0.93499 0.0
H10 H 0.83124 0.57095 0.00788 0.0
H11 H 0.81124 0.56253 0.07883 0.0
H12 H 0.76844 0.56081 0.2591 0.0
H13 H 0.79157 0.55276 0.32498 0.0
H14 H 0.81412 0.50959 0.22674 0.0
H15 H 0.79135 0.51805 0.16102 0.0
N16 N 0.75002 0.54641 0.14982 0.0
N17 N 0.75439 0.56452 0.07546 0.0
N18 N 0.78013 0.55815 0.12796 0.0
C19 C 0.74275 0.55465 0.10697 0.0
C20 C 0.77306 0.56629 0.08548 0.0
C21 C 0.76882 0.54848 0.16058 0.0
C22 C 0.72276 0.55212 0.0909 0.0
C23 C 0.7133 0.53473 0.0958 0.0
C24 C 0.69598 0.5316 0.07081 0.0
C25 C 0.68765 0.54588 0.04114 0.0
C26 C 0.69671 0.56354 0.03884 0.0
C27 C 0.71402 0.56657 0.0631 0.0
C28 C 0.78588 0.57491 0.04736 0.0
C29 C 0.77874 0.58568 0.00687 0.0
C30 C 0.79043 0.591 0.96631 0.0
C31 C 0.80943 0.58539 0.96495 0.0
C32 C 0.81681 0.57581 0.00742 0.0
C33 C 0.80522 0.57078 0.04823 0.0
C34 C 0.77789 0.5398 0.20542 0.0
C35 C 0.77786 0.5491 0.25266 0.0
C36 C 0.97684 0.78623 0.30129 0.0
C37 C 0.9902 0.80042 0.28954 0.0
C38 C 1.00011 0.79899 0.24318 0.0
C39 C 0.9958 0.78474 0.20806 0.0
H40 H 0.94255 0.70494 0.11759 0.0
H41 H 0.94636 0.67502 0.07332 0.0
H42 H 0.00598 0.68672 0.05646 0.0
H43 H 1.00208 0.7162 0.10342 0.0
H44 H 0.93933 0.74881 0.01127 0.0
H45 H 0.93251 0.76726 0.93538 0.0
H46 H 0.94692 0.81827 0.0169 0.0
H47 H 0.95326 0.80001 0.09284 0.0
H48 H 0.9613 0.76199 0.2745 0.0
H49 H 0.96879 0.78687 0.33631 0.0
H50 H 0.01076 0.80935 0.23305 0.0
H51 H 1.00277 0.78485 0.1713 0.0
N52 N 0.97635 0.74159 0.1688 0.0
N53 N 0.95847 0.74286 0.09323 0.0
N54 N 0.96348 0.77028 0.14058 0.0
C55 C 0.96858 0.73274 0.12736 0.0
C56 C 0.95588 0.76161 0.09934 0.0
C57 C 0.97343 0.76048 0.17572 0.0
C58 C 0.97207 0.71271 0.11484 0.0
C59 C 0.95658 0.70069 0.10619 0.0
C60 C 0.95876 0.68369 0.07978 0.0
C61 C 0.97643 0.67844 0.05989 0.0
C62 C 0.99216 0.69004 0.0713 0.0
C63 C 0.98999 0.70694 0.0986 0.0
C64 C 0.94739 0.77287 0.0578 0.0
C65 C 0.94057 0.76401 0.01346 0.0
C66 C 0.93666 0.77457 0.96987 0.0
C67 C 0.93955 0.79419 0.9697 0.0
C68 C 0.94446 0.8032 0.01559 0.0
C69 C 0.94829 0.79265 0.05921 0.0
C70 C 0.98172 0.77128 0.21858 0.0
C71 C 0.9726 0.77185 0.26606 0.0
C72 C 0.73651 0.97549 0.31554 0.0
C73 C 0.72307 0.98958 0.30578 0.0
C74 C 0.72563 1.0011 0.26267 0.0
C75 C 0.74021 0.99762 0.22802 0.0
H76 H 0.8145 0.99911 0.15928 0.0
H77 H 0.8454 1.00407 0.11874 0.0
H78 H 0.84139 0.94865 0.0511 0.0
H79 H 0.8113 0.94366 0.09251 0.0
H80 H 0.77084 0.94787 0.01592 0.0
H81 H 0.75152 0.94574 0.93937 0.0
H82 H 0.70236 0.96066 0.02777 0.0
H83 H 0.72137 0.96216 0.10393 0.0
H84 H 0.76026 0.96 0.28667 0.0
H85 H 0.73492 0.96629 0.34821 0.0
H86 H 0.71578 0.01227 0.25431 0.0
H87 H 0.74085 0.0058 0.1932 0.0
N88 N 0.782 0.97624 0.18472 0.0
N89 N 0.77877 0.96194 0.10412 0.0
N90 N 0.75201 0.96777 0.15295 0.0
C91 C 0.79001 0.96937 0.14099 0.0
C92 C 0.75983 0.96112 0.10957 0.0
C93 C 0.76282 0.97508 0.19082 0.0
C94 C 0.81047 0.97098 0.1292 0.0
C95 C 0.82065 0.98778 0.13732 0.0
C96 C 0.83821 0.99071 0.1133 0.0
C97 C 0.84596 0.97686 0.08091 0.0
C98 C 0.83622 0.95962 0.07598 0.0
C99 C 0.81881 0.95675 0.09973 0.0
C100 C 0.74774 0.95567 0.06592 0.0
C101 C 0.75581 0.95023 0.01923 0.0
C102 C 0.74475 0.94906 0.97524 0.0
C103 C 0.72544 0.95337 0.97708 0.0
C104 C 0.71714 0.95709 0.02469 0.0
C105 C 0.72813 0.95814 0.0686 0.0
C106 C 0.75275 0.98266 0.23568 0.0
C107 C 0.75115 0.97198 0.2806 0.0
C108 C 0.58611 0.71394 0.05805 0.0
C109 C 0.58507 0.71534 1.00466 0.0
C110 C 0.57877 0.73238 0.98323 0.0
C111 C 0.57129 0.74652 0.01425 0.0
H112 H 0.53535 0.8171 0.14208 0.0
H113 H 0.52845 0.84523 0.09117 0.0
H114 H 0.51041 0.80956 0.96661 0.0
H115 H 0.51817 0.78181 0.01662 0.0
H116 H 0.50397 0.7504 0.21064 0.0
H117 H 0.49631 0.72665 0.27562 0.0
H118 H 0.55578 0.72039 0.30742 0.0
H119 H 0.56307 0.74432 0.2448 0.0
H120 H 0.57876 0.72585 0.12973 0.0
H121 H 0.59082 0.70116 0.07643 0.0
H122 H 0.57833 0.73423 0.9423 0.0
H123 H 0.56512 0.75876 0.99633 0.0
N124 N 0.54911 0.77116 0.07972 0.0
N125 N 0.53092 0.77416 0.1547 0.0
N126 N 0.55296 0.74977 0.14619 0.0
C127 C 0.53598 0.78061 0.10732 0.0
C128 C 0.53964 0.75859 0.17422 0.0
C129 C 0.5578 0.75582 0.09913 0.0
C130 C 0.52721 0.7973 0.08334 0.0
C131 C 0.5294 0.81539 0.10434 0.0
C132 C 0.5255 0.8315 0.07495 0.0
C133 C 0.51923 0.8298 0.02407 0.0
C134 C 0.51576 0.81157 1.00487 0.0
C135 C 0.51992 0.7956 0.03383 0.0
C136 C 0.53412 0.74935 0.22284 0.0
C137 C 0.51525 0.74451 0.2333 0.0
C138 C 0.51094 0.73058 0.26988 0.0
C139 C 0.52541 0.72122 0.2967 0.0
C140 C 0.54413 0.72723 0.28851 0.0
C141 C 0.54837 0.74106 0.25233 0.0
C142 C 0.57022 0.74395 0.06727 0.0
C143 C 0.57888 0.72811 0.08891 0.0
C144 C 0.21947 0.498 0.9646 0.0
C145 C 0.21617 0.48495 0.92494 0.0
C146 C 0.22774 0.46886 0.92276 0.0
C147 C 0.24108 0.46526 0.96102 0.0
H148 H 0.31215 0.47618 0.06498 0.0
H149 H 0.34249 0.48138 0.10934 0.0
H150 H 0.31256 0.48907 0.25094 0.0
H151 H 0.28281 0.48394 0.20743 0.0
H152 H 0.25835 0.44277 0.22228 0.0
H153 H 0.23685 0.43538 0.29127 0.0
H154 H 0.18978 0.43807 0.1871 0.0
H155 H 0.2113 0.44609 0.11786 0.0
H156 H 0.2342 0.50412 0.03428 0.0
H157 H 0.2108 0.5104 0.96853 0.0
H158 H 0.22605 0.45863 0.89249 0.0
H159 H 0.24873 0.45211 0.96024 0.0
N160 N 0.27019 0.47765 0.0644 0.0
N161 N 0.26616 0.46133 0.14164 0.0
N162 N 0.24224 0.46037 0.08083 0.0
C163 C 0.27697 0.4724 0.11111 0.0
C164 C 0.2489 0.45519 0.12708 0.0
C165 C 0.25274 0.47137 0.04915 0.0
C166 C 0.2951 0.47945 0.13277 0.0
C167 C 0.31214 0.47946 0.10528 0.0
C168 C 0.32948 0.48233 0.13075 0.0
C169 C 0.32996 0.48515 0.18398 0.0
C170 C 0.31278 0.48641 0.21029 0.0
C171 C 0.29568 0.48359 0.18516 0.0
C172 C 0.2365 0.44567 0.16478 0.0
C173 C 0.24346 0.44138 0.2136 0.0
C174 C 0.23112 0.43692 0.25328 0.0
C175 C 0.21155 0.43655 0.24495 0.0
C176 C 0.20478 0.43868 0.1949 0.0
C177 C 0.21713 0.44322 0.15517 0.0
C178 C 0.24359 0.47786 1.00169 0.0
C179 C 0.233 0.49448 1.0024 0.0
C180 C 0.01718 0.21131 0.98468 0.0
C181 C 0.02569 0.21302 0.93645 0.0
C182 C 0.03694 0.22914 0.92677 0.0
C183 C 0.04022 0.24268 0.96512 0.0
H184 H 0.01234 0.29992 0.10233 0.0
H185 H 0.00748 0.33065 0.14336 0.0
H186 H 0.06693 0.33392 0.1782 0.0
H187 H 0.07162 0.30342 0.13767 0.0
H188 H 0.06164 0.26143 0.23712 0.0
H189 H 0.06618 0.24163 0.31195 0.0
H190 H 0.06598 0.19216 0.21622 0.0
H191 H 0.06118 0.21178 0.14146 0.0
H192 H 0.01477 0.22222 0.06047 0.0
H193 H 0.00866 0.19906 0.99403 0.0
H194 H 0.04362 0.23101 0.89 0.0
H195 H 0.04972 0.25437 0.95751 0.0
N196 N 0.03803 0.27019 0.06316 0.0
N197 N 0.05258 0.26851 0.14379 0.0
N198 N 0.04746 0.24101 0.09704 0.0
C199 C 0.0447 0.27895 0.10619 0.0
C200 C 0.05402 0.24958 0.13964 0.0
C201 C 0.03968 0.25104 0.05851 0.0
C202 C 0.04239 0.29939 0.11623 0.0
C203 C 0.02443 0.3076 0.11702 0.0
C204 C 0.02163 0.32505 0.14126 0.0
C205 C 0.03679 0.33474 0.1646 0.0
C206 C 0.05495 0.32704 0.16041 0.0
C207 C 0.05766 0.30955 0.13698 0.0
C208 C 0.06057 0.23816 0.18335 0.0
C209 C 0.06297 0.24637 0.23178 0.0
C210 C 0.0657 0.23505 0.27472 0.0
C211 C 0.06611 0.21536 0.26991 0.0
C212 C 0.06536 0.2073 0.22105 0.0
C213 C 0.0626 0.21857 0.17823 0.0
C214 C 0.03248 0.24026 0.014 0.0
C215 C 0.02065 0.22463 0.02289 0.0
C216 C 0.2909 0.01286 0.95587 0.0
C217 C 0.29668 0.02337 0.91294 0.0
C218 C 0.28633 0.03952 0.89999 0.0
C219 C 0.27169 0.04584 0.93136 0.0
H220 H 0.20118 0.02967 0.04891 0.0
H221 H 0.17241 0.02367 0.09964 0.0
H222 H 0.20029 0.04632 0.23264 0.0
H223 H 0.22843 0.05233 0.18289 0.0
H224 H 0.24716 0.09494 0.15301 0.0
H225 H 0.26845 0.11147 0.21075 0.0
H226 H 0.31536 0.09773 0.1124 0.0
H227 H 0.29414 0.0822 0.05412 0.0
H228 H 0.27283 0.01148 0.02171 0.0
H229 H 0.29847 1.00028 0.96676 0.0
H230 H 0.29044 0.0481 0.86766 0.0
H231 H 0.26511 0.05919 0.92268 0.0
N232 N 0.24089 0.03915 0.04082 0.0
N233 N 0.24218 0.06469 0.09802 0.0
N234 N 0.26486 0.06225 0.03424 0.0
C235 C 0.23349 0.04871 0.08151 0.0
C236 C 0.25779 0.07159 0.07482 0.0
C237 C 0.25659 0.04621 0.01671 0.0
C238 C 0.21702 0.04175 0.11158 0.0
C239 C 0.20118 0.03302 0.08916 0.0
C240 C 0.18471 0.02966 0.11818 0.0
C241 C 0.18387 0.03499 0.16996 0.0
C242 C 0.20017 0.04258 0.19261 0.0
C243 C 0.2164 0.04593 0.16396 0.0
C244 C 0.26906 0.08658 0.1 0.0
C245 C 0.26194 0.09606 0.14287 0.0
C246 C 0.27417 0.10549 0.17613 0.0
C247 C 0.29377 0.10532 0.16755 0.0
C248 C 0.30042 0.09816 0.12088 0.0
C249 C 0.28818 0.089 0.08732 0.0
C250 C 0.26672 0.03601 0.97592 0.0
C251 C 0.276 0.01907 0.98689 0.0
C252 C 0.43315 0.30413 0.19708 0.0
C253 C 0.44003 0.30204 0.24713 0.0
C254 C 0.45162 0.28649 0.25791 0.0
C255 C 0.45735 0.27435 0.21919 0.0
H256 H 0.45842 0.20979 0.10491 0.0
H257 H 0.46639 0.18092 0.14997 0.0
H258 H 0.52325 0.20174 0.17172 0.0
H259 H 0.51494 0.23088 0.12681 0.0
H260 H 0.4495 0.28664 0.99008 0.0
H261 H 0.45488 0.30976 0.9233 0.0
H262 H 0.51462 0.29823 0.92822 0.0
H263 H 0.50892 0.27431 0.99424 0.0
H264 H 0.4347 0.29491 0.1194 0.0
H265 H 0.42371 0.31549 0.18738 0.0
H266 H 0.45751 0.28436 0.29547 0.0
H267 H 0.46715 0.26322 0.2285 0.0
N268 N 0.46878 0.25015 0.13525 0.0
N269 N 0.48306 0.25046 0.05413 0.0
N270 N 0.46464 0.27603 0.08164 0.0
C271 C 0.47937 0.24149 0.09931 0.0
C272 C 0.47541 0.26782 0.04514 0.0
C273 C 0.46142 0.2674 0.12684 0.0
C274 C 0.48618 0.22235 0.11127 0.0
C275 C 0.47283 0.20783 0.11749 0.0
C276 C 0.47742 0.19129 0.14366 0.0
C277 C 0.49547 0.18893 0.16503 0.0
C278 C 0.50916 0.20311 0.15636 0.0
C279 C 0.50454 0.21967 0.12981 0.0
C280 C 0.47878 0.27863 0.99743 0.0
C281 C 0.46375 0.28872 0.97606 0.0
C282 C 0.4669 0.3022 0.93814 0.0
C283 C 0.48527 0.30637 0.92098 0.0
C284 C 0.50026 0.29546 0.94026 0.0
C285 C 0.49703 0.28167 0.978 0.0
C286 C 0.45201 0.27767 0.16854 0.0
C287 C 0.43932 0.29225 0.15806 0.0
C288 C 0.05052 0.02261 0.73811 0.0
C289 C 0.0353 0.01831 0.81984 0.0
C290 C 0.03695 0.01383 0.76769 0.0
C291 C 0.04693 0.03243 0.84089 0.0
C292 C 0.06291 0.03606 0.75953 0.0
C293 C 0.06071 0.0413 0.81077 0.0
N294 N 0.05218 0.0173 0.68872 0.0
C295 C 0.06694 0.02357 0.65965 0.0
C296 C 0.07747 0.04339 0.72915 0.0
C297 C 0.07966 0.03688 0.67921 0.0
Gd298 Gd 0.98983 0.01742 0.56812 0.0
Gd299 Gd 0.03008 0.99533 0.65792 0.0
N300 N 0.02638 0.99988 0.74638 0.0
C301 C 0.02258 0.00794 0.84967 0.0
C302 C 0.0153 0.98863 0.77633 0.0
C303 C 0.0128 0.99278 0.82798 0.0
H304 H 0.00848 0.97629 0.76063 0.0
H305 H 1.00356 0.98412 0.85119 0.0
H306 H 0.00734 0.01864 0.45123 0.0
H307 H 0.06854 0.01859 0.62099 0.0
H308 H 1.00341 1.00177 0.36929 0.0
H309 H 0.02083 0.01098 0.88983 0.0
H310 H 0.04578 0.03618 0.88078 0.0
H311 H 0.95088 0.00581 0.63882 0.0
H312 H 0.08731 0.05372 0.74421 0.0
H313 H 0.09109 0.04217 0.65576 0.0
H314 H 0.9538 0.95689 0.40263 0.0
H315 H 0.06992 0.05179 0.82782 0.0
H316 H 0.92308 0.95978 0.56509 0.0
H317 H 0.92644 0.98116 0.63888 0.0
N318 N 0.9635 0.99671 0.56934 0.0
C319 C 0.96102 0.98597 0.52688 0.0
C320 C 0.95054 0.99586 0.60786 0.0
C321 C 0.93435 0.97017 0.56561 0.0
C322 C 0.9362 0.98222 0.60734 0.0
C323 C 0.9465 0.97231 0.52401 0.0
H324 H 0.93325 0.95099 0.47653 0.0
N325 N 0.98619 1.00264 0.48902 0.0
C326 C 0.97247 0.9893 0.48508 0.0
C327 C 0.98131 0.98355 0.39758 0.0
C328 C 0.96987 0.97912 0.43948 0.0
C329 C 0.99695 0.00753 0.44796 0.0
C330 C 0.99475 0.998 0.40168 0.0
O331 O 0.02882 0.02738 0.64825 0.0
O332 O 0.99716 0.03178 0.64192 0.0
O333 O 0.99215 0.0442 0.52898 0.0
O334 O 0.96469 0.0336 0.55085 0.0
O335 O 0.99959 0.98759 0.67691 0.0
O336 O 0.98311 0.01388 0.65244 0.0
O337 O 0.00464 0.99056 0.54477 0.0
O338 O 0.00769 0.97669 0.62214 0.0
O339 O 0.04366 0.97232 0.69847 0.0
O340 O 0.0531 0.98013 0.62333 0.0
O341 O 0.01993 0.02526 0.54515 0.0
O342 O 0.03834 1.00093 0.57628 0.0
C343 C 0.01393 0.0381 0.65411 0.0
C344 C 0.98562 0.99947 0.68339 0.0
C345 C 0.97101 0.06607 0.5651 0.0
C346 C 0.98274 0.09644 0.59651 0.0
C347 C 0.95201 0.08479 0.62312 0.0
C348 C 0.9544 0.06858 0.59356 0.0
C349 C 0.96608 0.09868 0.62465 0.0
C350 C 0.98499 0.08019 0.56653 0.0
C351 C 0.97451 0.04831 0.53693 0.0
C352 C 0.9559 0.96502 0.43712 0.0
C353 C 0.94425 0.96162 0.47931 0.0
H354 H 0.97973 0.9761 0.36179 0.0
C355 C 0.00569 0.9753 0.57264 0.0
C356 C 0.03543 0.01499 0.54456 0.0
C357 C 0.05188 0.9478 0.64057 0.0
C358 C 0.03605 0.91702 0.64242 0.0
C359 C 0.05787 0.92488 0.57388 0.0
C360 C 0.06121 0.9425 0.59563 0.0
C361 C 0.04525 0.91229 0.59665 0.0
C362 C 0.03965 0.93482 0.66436 0.0
C363 C 0.05361 0.96744 0.65893 0.0
H364 H 0.93922 0.08656 0.64509 0.0
H365 H 0.94336 0.05795 0.59352 0.0
H366 H 0.96398 0.1111 0.64787 0.0
H367 H 0.99769 0.0786 0.54395 0.0
H368 H 0.06482 0.92109 0.53864 0.0
H369 H 0.0707 0.95224 0.57651 0.0
H370 H 0.04244 0.89902 0.57767 0.0
H371 H 0.03275 0.93871 0.69958 0.0
C372 C 0.50755 0.95329 0.51361 0.0
C373 C 0.49204 0.93145 0.57135 0.0
C374 C 0.4962 0.95003 0.55577 0.0
C375 C 0.49998 0.91624 0.54483 0.0
C376 C 0.51512 0.93809 0.48598 0.0
C377 C 0.5115 0.91955 0.50227 0.0
N378 N 0.51056 0.97133 0.49841 0.0
C379 C 0.52041 0.97525 0.45504 0.0
C380 C 0.52582 0.94199 0.44231 0.0
C381 C 0.52835 0.96066 0.42656 0.0
Gd382 Gd 0.52024 0.031 0.64848 0.0
Gd383 Gd 0.49815 0.99485 0.55046 0.0
N384 N 0.48878 0.96504 0.58059 0.0
C385 C 0.47977 0.92871 0.61255 0.0
C386 C 0.47614 0.96245 0.61935 0.0
C387 C 0.47162 0.94428 0.63625 0.0
H388 H 0.4698 0.97434 0.63812 0.0
H389 H 0.46189 0.9423 0.66757 0.0
H390 H 0.5659 0.0329 0.61289 0.0
H391 H 0.52207 0.98967 0.44247 0.0
H392 H 0.58723 0.05439 0.56698 0.0
H393 H 0.47625 0.91466 0.62576 0.0
H394 H 0.49706 0.90186 0.55644 0.0
H395 H 0.48153 0.05599 0.6772 0.0
H396 H 0.5319 0.9307 0.42004 0.0
H397 H 0.53633 0.9638 0.39241 0.0
H398 H 0.55018 0.10965 0.54029 0.0
H399 H 0.51728 0.90767 0.48172 0.0
H400 H 0.48864 0.11132 0.61517 0.0
H401 H 0.46941 0.08803 0.66274 0.0
N402 N 0.50716 0.06092 0.63698 0.0
C403 C 0.51816 0.07361 0.61161 0.0
C404 C 0.48997 0.06594 0.65592 0.0
C405 C 0.49402 0.09725 0.62124 0.0
C406 C 0.48311 0.08413 0.64803 0.0
C407 C 0.51181 0.09213 0.60291 0.0
H408 H 0.5186 0.11912 0.56867 0.0
N409 N 0.5418 0.05019 0.60408 0.0
C410 C 0.53584 0.06804 0.59427 0.0
C411 C 0.56622 0.07588 0.55793 0.0
C412 C 0.54777 0.08119 0.56969 0.0
C413 C 0.56031 0.0457 0.59733 0.0
C414 C 0.57264 0.0582 0.57289 0.0
O415 O 0.51141 0.98158 0.62037 0.0
O416 O 0.5109 1.00371 0.68518 0.0
O417 O 0.54232 0.02717 0.70386 0.0
O418 O 0.52214 0.04939 0.715 0.0
O419 O 0.47769 0.00625 0.6094 0.0
O420 O 0.49139 0.02272 0.67688 0.0
O421 O 0.50261 0.03926 0.57945 0.0
O422 O 0.51277 0.02018 0.51686 0.0
O423 O 0.47485 0.01227 0.52711 0.0
O424 O 0.4809 0.98623 0.48618 0.0
O425 O 0.54064 0.0101 0.61125 0.0
O426 O 0.52803 1.00374 0.53215 0.0
C427 C 0.5118 0.9862 0.66896 0.0
C428 C 0.47671 0.01514 0.65346 0.0
C429 C 0.55429 0.05533 0.73677 0.0
C430 C 0.58793 0.05842 0.75462 0.0
C431 C 0.57027 0.08537 0.7241 0.0
C432 C 0.55379 0.07439 0.72236 0.0
C433 C 0.58734 0.0774 0.7396 0.0
C434 C 0.57128 0.04765 0.75367 0.0
C435 C 0.53821 0.04238 0.72901 0.0
C436 C 0.54126 0.09946 0.5597 0.0
C437 C 0.52332 0.1049 0.57615 0.0
H438 H 0.57588 0.08569 0.53977 0.0
C439 C 0.50855 0.0371 0.53252 0.0
C440 C 0.54256 0.00489 0.56322 0.0
C441 C 0.44917 0.99648 0.49046 0.0
C442 C 0.41791 0.00686 0.46463 0.0
C443 C 0.42161 0.97797 0.51352 0.0
C444 C 0.44116 0.98068 0.51443 0.0
C445 C 0.41 0.99094 0.48876 0.0
C446 C 0.43754 0.00953 0.4663 0.0
C447 C 0.46946 1.00043 0.49184 0.0
H448 H 0.56988 0.09999 0.71246 0.0
H449 H 0.54088 0.08068 0.70862 0.0
H450 H 0.60002 0.08601 0.73985 0.0
H451 H 0.57172 0.03281 0.76346 0.0
H452 H 0.41544 0.96573 0.53183 0.0
H453 H 0.44996 0.97056 0.53387 0.0
H454 H 0.39493 0.98838 0.4879 0.0
H455 H 0.4439 0.02199 0.44939 0.0
C456 C 0.4629 0.48698 0.68999 0.0
C457 C 0.47408 0.47563 0.77185 0.0
C458 C 0.47556 0.48809 0.73021 0.0
C459 C 0.46027 0.46136 0.77125 0.0
C460 C 0.44839 0.47327 0.6906 0.0
C461 C 0.44748 0.46015 0.73065 0.0
N462 N 0.46404 0.50003 0.65209 0.0
C463 C 0.4498 0.50145 0.61724 0.0
C464 C 0.43481 0.4736 0.65196 0.0
C465 C 0.4353 0.488 0.61577 0.0
Gd466 Gd 0.53016 0.50344 0.55986 0.0
Gd467 Gd 0.49031 0.52062 0.65627 0.0
N468 N 0.48912 0.50169 0.72912 0.0
C469 C 0.48637 0.47811 0.81316 0.0
C470 C 0.50047 0.50487 0.77026 0.0
C471 C 0.49941 0.49299 0.81271 0.0
H472 H 0.51051 0.5164 0.76988 0.0
H473 H 0.50868 0.49527 0.84491 0.0
H474 H 0.50999 0.4851 0.45478 0.0
H475 H 0.44931 0.51309 0.5909 0.0
H476 H 0.50409 0.49453 0.36602 0.0
H477 H 0.48566 0.46885 0.84593 0.0
H478 H 0.45909 0.45145 0.80251 0.0
H479 H 0.56701 0.529 0.59974 0.0
H480 H 0.42344 0.46332 0.65104 0.0
H481 H 0.42434 0.48894 0.5872 0.0
H482 H 0.53932 0.55221 0.34679 0.0
H483 H 0.43657 0.44937 0.73137 0.0
H484 H 0.58032 0.56981 0.48446 0.0
H485 H 0.58648 0.55588 0.56932 0.0
N486 N 0.54989 0.52824 0.5333 0.0
C487 C 0.54709 0.53486 0.48544 0.0
C488 C 0.56435 0.53502 0.56263 0.0
C489 C 0.57181 0.55803 0.49759 0.0
C490 C 0.57535 0.5502 0.54552 0.0
C491 C 0.55775 0.55017 0.46653 0.0
H492 H 0.56217 0.56872 0.40193 0.0
N493 N 0.5253 0.51005 0.47315 0.0
C494 C 0.53417 0.52562 0.45463 0.0
C495 C 0.52006 0.52043 0.37205 0.0
C496 C 0.53161 0.5314 0.40374 0.0
C497 C 0.51535 0.49848 0.44134 0.0
C498 C 0.51224 0.50366 0.3907 0.0
O499 O 0.50738 0.49416 0.6695 0.0
O500 O 0.50914 0.4821 0.58994 0.0
O501 O 0.54744 0.48597 0.51083 0.0
O502 O 0.55184 0.48562 0.59213 0.0
O503 O 0.52013 0.52915 0.67977 0.0
O504 O 0.54009 0.50762 0.64097 0.0
O505 O 0.52636 0.53448 0.57936 0.0
O506 O 0.4946 0.53818 0.58541 0.0
O507 O 0.49233 0.54805 0.69152 0.0
O508 O 0.46578 0.533 0.69307 0.0
O509 O 0.49992 0.49485 0.53967 0.0
O510 O 0.48171 0.51877 0.57281 0.0
C511 C 0.50713 0.47955 0.63901 0.0
C512 C 0.53628 0.52001 0.67691 0.0
C513 C 0.55474 0.45703 0.54909 0.0
C514 C 0.53625 0.42809 0.53952 0.0
C515 C 0.56974 0.42678 0.56001 0.0
C516 C 0.57085 0.44643 0.55948 0.0
C517 C 0.55261 0.41763 0.54996 0.0
C518 C 0.53748 0.44786 0.54008 0.0
C519 C 0.55572 0.47766 0.54884 0.0
C520 C 0.54131 0.54739 0.38557 0.0
C521 C 0.55436 0.55676 0.41692 0.0
H522 H 0.51783 0.52431 0.33262 0.0
C523 C 0.51109 0.5441 0.56909 0.0
C524 C 0.48487 0.50568 0.53809 0.0
C525 C 0.47447 0.5503 0.76712 0.0
C526 C 0.48894 0.56259 0.84492 0.0
C527 C 0.45835 0.54702 0.84848 0.0
C528 C 0.4589 0.54402 0.79582 0.0
C529 C 0.47325 0.55631 0.87301 0.0
C530 C 0.48935 0.55964 0.7921 0.0
C531 C 0.47555 0.54701 0.71153 0.0
H532 H 0.58225 0.4186 0.56773 0.0
H533 H 0.58423 0.45334 0.56709 0.0
H534 H 0.55238 0.40238 0.54889 0.0
H535 H 0.52505 0.45624 0.53299 0.0
H536 H 0.44632 0.54214 0.87033 0.0
H537 H 0.4472 0.53678 0.77767 0.0
H538 H 0.47258 0.55852 0.91381 0.0
H539 H 0.50126 0.56492 0.77031 0.0
C540 C 0.02707 0.46768 0.73537 0.0
C541 C 0.02556 0.48428 0.81584 0.0
C542 C 0.01944 0.48185 0.76511 0.0
C543 C 0.0401 0.47295 0.83504 0.0
C544 C 0.0409 0.45558 0.75533 0.0
C545 C 0.04774 0.45862 0.80486 0.0
N546 N 0.02038 0.46526 0.68737 0.0
C547 C 0.02559 0.45007 0.6588 0.0
C548 C 0.04709 0.44052 0.72528 0.0
C549 C 0.03919 0.4376 0.67708 0.0
Gd550 Gd 0.01869 0.52714 0.56915 0.0
Gd551 Gd 0.99756 0.48655 0.65946 0.0
N552 N 0.00505 0.49221 0.7458 0.0
C553 C 0.01634 0.49747 0.84645 0.0
C554 C 0.99486 0.50369 0.77713 0.0
C555 C 1.00069 0.50695 0.82727 0.0
H556 H 0.98206 0.51023 0.76402 0.0
H557 H 0.99291 0.51651 0.85137 0.0
H558 H 0.01541 0.51107 0.45093 0.0
H559 H 0.01946 0.44788 0.62153 0.0
H560 H 0.99632 0.51673 0.37331 0.0
H561 H 0.02063 0.49981 0.88557 0.0
H562 H 0.04511 0.47475 0.87375 0.0
H563 H 0.01407 0.56669 0.64087 0.0
H564 H 0.05768 0.43088 0.73929 0.0
H565 H 0.04362 0.4258 0.65397 0.0
H566 H 0.95621 0.56834 0.41995 0.0
H567 H 0.05858 0.44965 0.82065 0.0
H568 H 0.96828 0.59852 0.58024 0.0
H569 H 0.99244 0.59359 0.64687 0.0
N570 N 1.00083 0.55505 0.57502 0.0
C571 C 0.98867 0.55835 0.5361 0.0
C572 C 1.00301 0.56809 0.6129 0.0
C573 C 0.97741 0.58637 0.57817 0.0
C574 C 0.99101 0.58362 0.61587 0.0
C575 C 0.9765 0.57398 0.53676 0.0
H576 H 0.95487 0.58899 0.4952 0.0
N577 N 1.0019 0.53246 0.49374 0.0
C578 C 0.98946 0.54686 0.49369 0.0
C579 C 0.98048 0.53933 0.40725 0.0
C580 C 0.97814 0.55052 0.45075 0.0
C581 C 0.00494 0.52206 0.45082 0.0
C582 C 0.99417 0.52524 0.40702 0.0
O583 O 0.02935 0.48825 0.64401 0.0
O584 O 0.03317 0.51992 0.64251 0.0
O585 O 0.04482 0.52283 0.52833 0.0
O586 O 0.03654 0.55106 0.5488 0.0
O587 O 0.98861 0.51672 0.67649 0.0
O588 O 0.01533 0.53311 0.65384 0.0
O589 O 0.99145 0.51223 0.54745 0.0
O590 O 0.97739 0.50757 0.62463 0.0
O591 O 0.97852 0.47113 0.70931 0.0
O592 O 0.97976 0.46414 0.62942 0.0
O593 O 0.0251 0.49723 0.54285 0.0
O594 O 1.002 0.47766 0.57772 0.0
C595 C 0.04005 0.50321 0.65112 0.0
C596 C 0.99995 0.53137 0.68156 0.0
C597 C 0.0689 0.54305 0.55785 0.0
C598 C 0.10058 0.53138 0.57435 0.0
C599 C 0.09015 0.56027 0.61423 0.0
C600 C 0.07261 0.55846 0.5902 0.0
C601 C 0.10416 0.54684 0.60616 0.0
C602 C 0.08303 0.52958 0.55026 0.0
C603 C 0.05023 0.54028 0.53364 0.0
C604 C 0.96524 0.56544 0.45226 0.0
C605 C 0.96443 0.57715 0.49521 0.0
H606 H 0.97208 0.5417 0.3734 0.0
C607 C 0.97618 0.51078 0.57549 0.0
C608 C 0.01503 0.48145 0.54326 0.0
C609 C 0.95029 0.46203 0.66901 0.0
C610 C 0.92086 0.47956 0.67327 0.0
C611 C 0.92058 0.44613 0.65235 0.0
C612 C 0.94021 0.44563 0.65653 0.0
C613 C 0.91093 0.46293 0.66079 0.0
C614 C 0.94063 0.47896 0.67682 0.0
C615 C 0.97092 0.46157 0.67225 0.0
H616 H 0.0929 0.57215 0.63909 0.0
H617 H 0.06198 0.56903 0.59723 0.0
H618 H 0.11775 0.5485 0.62457 0.0
H619 H 0.0805 0.51769 0.52511 0.0
H620 H 0.91282 0.43341 0.64292 0.0
H621 H 0.94751 0.4325 0.64995 0.0
H622 H 0.89567 0.4628 0.65861 0.0
H623 H 0.94857 0.49166 0.68548 0.0
H624 H 0.16924 0.06139 0.23399 0.0
H625 H 0.14262 0.05822 0.29225 0.0
H626 H 0.13137 1.00237 0.23464 0.0
H627 H 0.15826 0.00547 0.17578 0.0
H628 H 0.0982 0.02188 0.25482 0.0
H629 H 0.15545 0.00711 0.34262 0.0
H630 H 0.18817 0.01246 0.37133 0.0
H631 H 0.1712 0.0627 0.4496 0.0
H632 H 0.13841 0.0578 0.42069 0.0
H633 H 0.06921 0.99707 0.53323 0.0
H634 H 0.09243 1.00079 0.46583 0.0
H635 H 0.05827 0.04357 0.39564 0.0
H636 H 0.0347 0.03983 0.46363 0.0
H637 H 0.11395 0.02938 0.43795 0.0
H638 H 0.06513 0.04091 0.26483 0.0
H639 H 0.03291 0.03252 0.23679 0.0
H640 H 0.03378 0.98319 0.33145 0.0
H641 H 0.06604 0.99117 0.3596 0.0
C642 C 0.16111 0.04841 0.2335 0.0
C643 C 0.16616 0.03353 0.20079 0.0
C644 C 0.14581 0.04665 0.2668 0.0
C645 C 0.13514 0.02993 0.26864 0.0
C646 C 0.13942 0.0154 0.23411 0.0
C647 C 0.1548 0.01718 0.20045 0.0
C648 C 0.1204 0.02738 0.30888 0.0
C649 C 0.10163 0.02356 0.29483 0.0
C650 C 0.12484 0.02926 0.36131 0.0
C651 C 0.14451 0.03218 0.37909 0.0
C652 C 0.15872 0.01938 0.36564 0.0
C653 C 0.17728 0.02232 0.38199 0.0
C654 C 0.18177 0.03794 0.41217 0.0
C655 C 0.1677 0.05062 0.42617 0.0
C656 C 0.14913 0.04776 0.40984 0.0
C657 C 0.06651 0.00734 0.50368 0.0
C658 C 0.04989 0.01813 0.50398 0.0
C659 C 0.07993 0.00947 0.46502 0.0
C660 C 0.07714 0.02234 0.42522 0.0
C661 C 0.06069 0.03335 0.42552 0.0
C662 C 0.04724 0.03128 0.46456 0.0
C663 C 0.09163 0.02417 0.38403 0.0
C664 C 0.11043 0.02783 0.39794 0.0
C665 C 0.08724 0.02178 0.33172 0.0
C666 C 0.06792 0.01675 0.31465 0.0
C667 C 0.05845 0.02824 0.27951 0.0
C668 C 0.04018 0.02356 0.26363 0.0
C669 C 0.03129 0.00736 0.28241 0.0
C670 C 0.04066 0.99577 0.31703 0.0
C671 C 0.05892 1.00038 0.33304 0.0
H672 H 0.01714 1.00377 0.27011 0.0
H673 H 0.19614 0.04019 0.42479 0.0
H674 H 0.5156 0.18864 0.25464 0.0
H675 H 0.51923 0.16271 0.31502 0.0
H676 H 0.48715 0.12624 0.21569 0.0
H677 H 0.48357 0.15207 0.1549 0.0
H678 H 0.47473 0.12264 0.3101 0.0
H679 H 0.53552 0.12184 0.23043 0.0
H680 H 0.56589 0.13499 0.2008 0.0
H681 H 0.58081 0.1492 0.35468 0.0
H682 H 0.5504 0.13638 0.38518 0.0
H683 H 0.52885 0.04061 0.44465 0.0
H684 H 0.52769 0.06607 0.38181 0.0
H685 H 0.48681 0.09509 0.47436 0.0
H686 H 0.48704 0.06905 0.53539 0.0
H687 H 0.53596 0.10166 0.38082 0.0
H688 H 0.45741 0.12091 0.40112 0.0
H689 H 0.42758 0.10598 0.42878 0.0
H690 H 0.44863 0.05173 0.3853 0.0
H691 H 0.47838 0.06635 0.35641 0.0
C692 C 0.50964 0.17502 0.24498 0.0
C693 C 0.49929 0.17255 0.19959 0.0
C694 C 0.51167 0.16016 0.27981 0.0
C695 C 0.50353 0.14239 0.27009 0.0
C696 C 0.49349 0.13979 0.2244 0.0
C697 C 0.49144 0.15463 0.18959 0.0
C698 C 0.50486 0.12674 0.30818 0.0
C699 C 0.48815 0.11808 0.32547 0.0
C700 C 0.52232 0.12056 0.32825 0.0
C701 C 0.54059 0.12833 0.31001 0.0
C702 C 0.5452 0.12792 0.2579 0.0
C703 C 0.56244 0.13529 0.24096 0.0
C704 C 0.57525 0.14298 0.27581 0.0
C705 C 0.57087 0.14327 0.32771 0.0
C706 C 0.55364 0.13595 0.34485 0.0
C707 C 0.5195 0.05236 0.45135 0.0
C708 C 0.5081 0.05285 0.49519 0.0
C709 C 0.51897 0.06702 0.41559 0.0
C710 C 0.507 0.08252 0.4227 0.0
C711 C 0.49591 0.0832 0.46717 0.0
C712 C 0.49624 0.0684 0.50252 0.0
C713 C 0.50582 0.09766 0.38302 0.0
C714 C 0.52255 0.10625 0.36549 0.0
C715 C 0.48839 0.1036 0.36214 0.0
C716 C 0.4702 0.09472 0.37712 0.0
C717 C 0.4556 0.10581 0.39706 0.0
C718 C 0.4387 0.0974 0.41299 0.0
C719 C 0.43622 0.07791 0.40901 0.0
C720 C 0.45055 0.06681 0.38849 0.0
C721 C 0.46743 0.07516 0.37229 0.0
H722 H 0.42321 0.07144 0.42194 0.0
H723 H 0.58859 0.14866 0.26262 0.0
H724 H 0.33813 0.46628 0.27147 0.0
H725 H 0.36599 0.46929 0.32542 0.0
H726 H 0.39066 0.50843 0.21838 0.0
H727 H 0.36264 0.50527 0.16352 0.0
H728 H 0.41749 0.48541 0.25738 0.0
H729 H 0.36859 0.52425 0.32582 0.0
H730 H 0.33664 0.53131 0.35736 0.0
H731 H 0.34315 0.49061 0.47699 0.0
H732 H 0.37505 0.48311 0.44571 0.0
H733 H 0.45943 0.53153 0.50482 0.0
H734 H 0.43538 0.52794 0.43902 0.0
H735 H 0.45414 0.47129 0.40991 0.0
H736 H 0.47818 0.47471 0.47668 0.0
H737 H 0.40612 0.50457 0.43653 0.0
H738 H 0.44626 0.46011 0.29113 0.0
H739 H 0.47808 0.45705 0.25372 0.0
H740 H 0.48899 0.51572 0.28225 0.0
H741 H 0.45748 0.51894 0.32108 0.0
C742 C 0.34949 0.47552 0.25922 0.0
C743 C 0.34799 0.4858 0.21352 0.0
C744 C 0.36546 0.47722 0.29019 0.0
C745 C 0.38033 0.4894 0.27673 0.0
C746 C 0.37935 0.499 0.22984 0.0
C747 C 0.36333 0.49719 0.19847 0.0
C748 C 0.39635 0.49266 0.31288 0.0
C749 C 0.41496 0.48955 0.29656 0.0
C750 C 0.39326 0.4984 0.36396 0.0
C751 C 0.37415 0.503 0.38315 0.0
C752 C 0.36316 0.51672 0.35865 0.0
C753 C 0.34507 0.52081 0.3765 0.0
C754 C 0.33785 0.51138 0.41908 0.0
C755 C 0.34875 0.49788 0.44398 0.0
C756 C 0.36684 0.49372 0.42623 0.0
C757 C 0.45852 0.51828 0.48442 0.0
C758 C 0.47082 0.50342 0.49614 0.0
C759 C 0.44474 0.51627 0.44661 0.0
C760 C 0.44292 0.4994 0.41904 0.0
C761 C 0.45539 0.48458 0.42997 0.0
C762 C 0.46916 0.48655 0.46821 0.0
C763 C 0.42724 0.49707 0.38131 0.0
C764 C 0.40865 0.50032 0.39743 0.0
C765 C 0.43038 0.49183 0.32996 0.0
C766 C 0.44964 0.48971 0.30923 0.0
C767 C 0.45554 0.47229 0.28972 0.0
C768 C 0.47353 0.47052 0.26844 0.0
C769 C 0.48558 0.48617 0.26577 0.0
C770 C 0.47971 0.50358 0.28466 0.0
C771 C 0.46187 0.50535 0.30674 0.0
H772 H 0.49946 0.48481 0.24901 0.0
H773 H 0.32384 0.51457 0.43284 0.0
H774 H 0.00873 0.34061 0.23455 0.0
H775 H 0.00531 0.3669 0.29373 0.0
H776 H 0.0545 0.39379 0.22875 0.0
H777 H 0.05818 0.36725 0.16998 0.0
H778 H 0.05668 0.39673 0.32724 0.0
H779 H 0.00778 0.40981 0.20733 0.0
H780 H 0.97982 0.40333 0.15412 0.0
H781 H 0.94698 0.39177 0.28816 0.0
H782 H 0.97483 0.39792 0.34217 0.0
H783 H 0.03973 0.48307 0.46203 0.0
H784 H 0.04319 0.46022 0.39281 0.0
H785 H 1.00012 0.4251 0.46052 0.0
H786 H 0.9963 0.44791 0.52918 0.0
H787 H 0.99551 0.42858 0.35614 0.0
H788 H 0.04721 0.40705 0.46962 0.0
H789 H 0.07372 0.4161 0.52581 0.0
H790 H 0.09901 0.4476 0.40368 0.0
H791 H 0.07311 0.43795 0.34615 0.0
C792 C 0.01862 0.35227 0.2321 0.0
C793 C 0.03365 0.3518 0.19708 0.0
C794 C 0.01668 0.36736 0.26617 0.0
C795 C 0.0295 0.38261 0.26563 0.0
C796 C 0.0444 0.38227 0.23025 0.0
C797 C 0.04647 0.36708 0.19648 0.0
C798 C 0.02763 0.39854 0.30287 0.0
C799 C 0.04333 0.40384 0.33267 0.0
C800 C 0.01024 0.40788 0.31112 0.0
C801 C 0.99345 0.40417 0.27877 0.0
C802 C 0.99464 0.40575 0.22544 0.0
C803 C 0.9788 0.40216 0.19514 0.0
C804 C 0.96165 0.3971 0.21774 0.0
C805 C 0.96028 0.39567 0.27071 0.0
C806 C 0.97608 0.39923 0.30118 0.0
C807 C 0.031 0.47048 0.46236 0.0
C808 C 0.01776 0.46741 0.50154 0.0
C809 C 0.03306 0.45735 0.42275 0.0
C810 C 0.02205 0.44078 0.42156 0.0
C811 C 0.00878 0.43775 0.46042 0.0
C812 C 0.00668 0.45084 0.49992 0.0
C813 C 0.0244 0.42646 0.38026 0.0
C814 C 0.00882 0.42149 0.34999 0.0
C815 C 0.04185 0.41755 0.3712 0.0
C816 C 0.05838 0.42169 0.40369 0.0
C817 C 0.05865 0.41559 0.45459 0.0
C818 C 0.07358 0.42077 0.48657 0.0
C819 C 0.08815 0.43225 0.46815 0.0
C820 C 0.08791 0.43841 0.41758 0.0
C821 C 0.07324 0.43292 0.38512 0.0
H822 H 0.09956 0.43644 0.49315 0.0
H823 H 0.9494 0.39433 0.19421 0.0
H824 H 0.87397 0.95215 0.05276 0.0
H825 H 0.89868 0.9569 0.98964 0.0
H826 H 0.88254 0.01509 0.9739 0.0
H827 H 0.85684 0.01007 0.0345 0.0
H828 H 0.88717 1.00201 0.885 0.0
H829 H 0.92551 0.99966 0.03349 0.0
H830 H 0.93789 0.98719 0.11443 0.0
H831 H 0.95624 0.93707 0.03795 0.0
H832 H 0.94374 0.94912 0.95664 0.0
H833 H 0.96588 0.02708 0.73121 0.0
H834 H 0.94385 0.02405 0.80229 0.0
H835 H 0.9533 0.9641 0.80631 0.0
H836 H 0.97555 0.96711 0.73491 0.0
H837 H 0.95278 0.97908 0.90205 0.0
H838 H 0.91195 0.98255 0.75329 0.0
H839 H 0.89963 0.99689 0.67437 0.0
H840 H 0.88766 0.04798 0.75519 0.0
H841 H 0.89966 0.03392 0.8347 0.0
C842 C 0.87559 0.966 0.03598 0.0
C843 C 0.86312 0.98065 0.04876 0.0
C844 C 0.89001 0.96878 1.00017 0.0
C845 C 0.89275 0.98643 0.97688 0.0
C846 C 0.88081 1.0013 0.99105 0.0
C847 C 0.8662 0.99847 0.02641 0.0
C848 C 0.90719 0.98902 0.93558 0.0
C849 C 0.90159 0.99726 0.88932 0.0
C850 C 0.92602 0.98256 0.9402 0.0
C851 C 0.93352 0.97522 0.98905 0.0
C852 C 0.93205 0.98591 0.034 0.0
C853 C 0.93911 0.97893 0.07994 0.0
C854 C 0.9478 0.96133 0.08136 0.0
C855 C 0.94948 0.95069 0.03681 0.0
C856 C 0.94243 0.9576 0.99077 0.0
C857 C 0.96325 0.01321 0.74707 0.0
C858 C 0.9725 0.99732 0.72735 0.0
C859 C 0.95058 0.0115 0.78774 0.0
C860 C 0.94663 0.9938 0.80941 0.0
C861 C 0.95606 0.97791 0.79029 0.0
C862 C 0.9688 0.97964 0.74952 0.0
C863 C 0.93265 0.99194 0.85184 0.0
C864 C 0.93835 0.98384 0.89814 0.0
C865 C 0.914 0.99881 0.84764 0.0
C866 C 0.90683 0.00724 0.7998 0.0
C867 C 0.90678 0.99688 0.75414 0.0
C868 C 0.89985 0.00494 0.70934 0.0
C869 C 0.89303 0.02336 0.70969 0.0
C870 C 0.89298 0.03372 0.75494 0.0
C871 C 0.89976 0.02569 0.79992 0.0
H872 H 0.88771 0.02957 0.67494 0.0
H873 H 0.95327 0.95595 0.11696 0.0
H874 H 0.52785 0.83218 0.92226 0.0
H875 H 0.52574 0.85924 0.86598 0.0
H876 H 0.50617 0.89341 0.9908 0.0
H877 H 0.5073 0.86592 0.04738 0.0
H878 H 0.48704 0.90202 0.90671 0.0
H879 H 0.5523 0.8962 0.94689 0.0
H880 H 0.58292 0.88035 0.9567 0.0
H881 H 0.58397 0.86821 0.79647 0.0
H882 H 0.55321 0.88376 0.78579 0.0
H883 H 0.505 0.98825 0.77187 0.0
H884 H 0.50588 0.96269 0.83442 0.0
H885 H 0.52103 0.92353 0.71592 0.0
H886 H 0.52046 0.94901 0.65332 0.0
H887 H 0.54268 0.91895 0.80105 0.0
H888 H 0.47645 0.9249 0.76286 0.0
H889 H 0.44665 0.94235 0.75482 0.0
H890 H 0.44839 0.95598 0.91406 0.0
H891 H 0.47835 0.93881 0.92303 0.0
C892 C 0.52274 0.8453 0.93793 0.0
C893 C 0.51764 0.84666 0.98973 0.0
C894 C 0.52181 0.86093 0.90559 0.0
C895 C 0.5161 0.87857 0.92405 0.0
C896 C 0.51072 0.88002 0.97551 0.0
C897 C 0.51154 0.86428 0.00801 0.0
C898 C 0.51596 0.89536 0.88946 0.0
C899 C 0.49932 0.90587 0.88423 0.0
C900 C 0.53186 0.90039 0.85938 0.0
C901 C 0.55036 0.891 0.86564 0.0
C902 C 0.55898 0.89002 0.91381 0.0
C903 C 0.57638 0.88111 0.91951 0.0
C904 C 0.58536 0.87324 0.87726 0.0
C905 C 0.57698 0.8743 0.82918 0.0
C906 C 0.55957 0.88317 0.82327 0.0
C907 C 0.50861 0.97422 0.75907 0.0
C908 C 0.51262 0.97074 0.70737 0.0
C909 C 0.50898 0.95957 0.79491 0.0
C910 C 0.51337 0.94109 0.77995 0.0
C911 C 0.5176 0.93763 0.7285 0.0
C912 C 0.51718 0.95225 0.69264 0.0
C913 C 0.51373 0.92537 0.81782 0.0
C914 C 0.53044 0.9151 0.82368 0.0
C915 C 0.49797 0.92071 0.84871 0.0
C916 C 0.47975 0.93071 0.84353 0.0
C917 C 0.47055 0.93171 0.79612 0.0
C918 C 0.45362 0.94154 0.79138 0.0
C919 C 0.44567 0.95032 0.83382 0.0
C920 C 0.45458 0.9492 0.88118 0.0
C921 C 0.47153 0.9394 0.88615 0.0
H922 H 0.43257 0.95794 0.83004 0.0
H923 H 0.59883 0.86636 0.88175 0.0
H924 H 0.65735 0.56918 0.02635 0.0
H925 H 0.63098 0.56491 0.96741 0.0
H926 H 0.65219 0.51028 0.9254 0.0
H927 H 0.67892 0.51468 0.98349 0.0
H928 H 0.64292 0.53093 0.84166 0.0
H929 H 0.61052 0.51259 0.99712 0.0
H930 H 0.6023 0.5174 0.08756 0.0
H931 H 0.57872 0.57128 0.05153 0.0
H932 H 0.58632 0.56658 0.96048 0.0
H933 H 0.56535 0.49678 0.70205 0.0
H934 H 0.58953 0.50144 0.76686 0.0
H935 H 0.56495 0.55469 0.8075 0.0
H936 H 0.54007 0.54981 0.74358 0.0
H937 H 0.57569 0.53622 0.89222 0.0
H938 H 0.60462 0.55264 0.73433 0.0
H939 H 0.61361 0.54825 0.64439 0.0
H940 H 0.64583 0.49947 0.6847 0.0
H941 H 0.63675 0.50337 0.77482 0.0
C942 C 0.65638 0.5562 1.0048 0.0
C943 C 0.67034 0.54229 0.00979 0.0
C944 C 0.64118 0.55371 0.97129 0.0
C945 C 0.63945 0.53721 0.94198 0.0
C946 C 0.65315 0.52314 0.94754 0.0
C947 C 0.66835 0.52559 0.98123 0.0
C948 C 0.62376 0.53497 0.90427 0.0
C949 C 0.62822 0.53178 0.85287 0.0
C950 C 0.60456 0.53674 0.91829 0.0
C951 C 0.59899 0.53924 0.9722 0.0
C952 C 0.60343 0.5254 0.00848 0.0
C953 C 0.59881 0.52808 0.05974 0.0
C954 C 0.58985 0.54459 0.07515 0.0
C955 C 0.58538 0.5584 0.03929 0.0
C956 C 0.58974 0.55569 0.98783 0.0
C957 C 0.56499 0.50953 0.72473 0.0
C958 C 0.55078 0.52301 0.71721 0.0
C959 C 0.57891 0.51218 0.76188 0.0
C960 C 0.57926 0.52856 0.79195 0.0
C961 C 0.56492 0.54191 0.78516 0.0
C962 C 0.55077 0.53914 0.74836 0.0
C963 C 0.59483 0.53178 0.82955 0.0
C964 C 0.59037 0.53529 0.88089 0.0
C965 C 0.61409 0.53041 0.81534 0.0
C966 C 0.61988 0.52821 0.7613 0.0
C967 C 0.61353 0.5409 0.72399 0.0
C968 C 0.61864 0.53851 0.67296 0.0
C969 C 0.63025 0.52357 0.65883 0.0
C970 C 0.63682 0.51103 0.69571 0.0
C971 C 0.63171 0.51333 0.74678 0.0
H972 H 0.63419 0.52173 0.6193 0.0
H973 H 0.58642 0.54672 0.11492 0.0
H974 H 0.00627 0.65382 0.04795 0.0
H975 H 0.00941 0.62828 0.98593 0.0
H976 H 0.95353 0.63946 0.92955 0.0
H977 H 0.95046 0.66537 0.98982 0.0
H978 H 0.96012 0.60097 0.93988 0.0
H979 H 0.99034 0.65508 0.86432 0.0
H980 H 0.01272 0.68182 0.86107 0.0
H981 H 0.05917 0.64382 0.87762 0.0
H982 H 0.03703 0.61686 0.88172 0.0
H983 H 0.96646 0.5472 0.71011 0.0
H984 H 0.96149 0.57166 0.77468 0.0
H985 H 0.02082 0.57049 0.8119 0.0
H986 H 0.02588 0.54713 0.74494 0.0
H987 H 0.01161 0.6042 0.81218 0.0
H988 H 0.98186 0.54971 0.88762 0.0
H989 H 0.95968 0.52276 0.88961 0.0
H990 H 0.91291 0.56045 0.87529 0.0
H991 H 0.93482 0.58764 0.8724 0.0
C992 C 0.99465 0.65098 0.02228 0.0
C993 C 0.97809 0.66186 0.02441 0.0
C994 C 0.99644 0.63625 0.9869 0.0
C995 C 0.98173 0.63194 0.95277 0.0
C996 C 0.96504 0.64239 0.9556 0.0
C997 C 0.96329 0.65721 0.99056 0.0
C998 C 0.98398 0.61704 0.91292 0.0
C999 C 0.97129 0.60172 0.91169 0.0
C1000 C 0.99869 0.6178 0.87648 0.0
C1001 C 0.01202 0.63398 0.87389 0.0
C1002 C 0.00532 0.65244 0.86771 0.0
C1003 C 0.01796 0.66763 0.86564 0.0
C1004 C 0.03735 0.66453 0.86929 0.0
C1005 C 0.04414 0.64621 0.87489 0.0
C1006 C 0.03156 0.63097 0.87706 0.0
C1007 C 0.97837 0.55217 0.73236 0.0
C1008 C 0.99654 0.5453 0.72264 0.0
C1009 C 0.97553 0.56609 0.76959 0.0
C1010 C 0.9907 0.57287 0.79934 0.0
C1011 C 0.00882 0.5657 0.78974 0.0
C1012 C 0.01173 0.55226 0.75153 0.0
C1013 C 0.98799 0.58773 0.83944 0.0
C1014 C 1.00052 0.60321 0.84056 0.0
C1015 C 0.97322 0.58697 0.87603 0.0
C1016 C 0.96 0.57069 0.87923 0.0
C1017 C 0.96685 0.55225 0.88464 0.0
C1018 C 0.95433 0.53693 0.88587 0.0
C1019 C 0.93492 0.5399 0.88228 0.0
C1020 C 0.92796 0.55819 0.87783 0.0
C1021 C 0.94042 0.57356 0.87643 0.0
H1022 H 0.92525 0.52802 0.8831 0.0
H1023 H 0.04712 0.67631 0.86765 0.0
H1024 H 0.04184 0.1863 0.28334 0.0
H1025 H 0.03668 0.16757 0.35932 0.0
H1026 H 0.08115 0.19807 0.43669 0.0
H1027 H 0.08608 0.21744 0.35995 0.0
H1028 H 0.05671 0.14402 0.40879 0.0
H1029 H 0.07068 0.19779 0.56319 0.0
H1030 H 0.07197 0.23223 0.57647 0.0
H1031 H 0.02967 0.23983 0.46132 0.0
H1032 H 0.02803 0.20542 0.44787 0.0
H1033 H 0.02088 0.09231 0.60475 0.0
H1034 H 0.04485 0.11505 0.5775 0.0
H1035 H 1.00163 0.15668 0.55482 0.0
H1036 H 0.97772 0.13418 0.58356 0.0
H1037 H 0.03544 0.17384 0.56966 0.0
H1038 H 0.00866 0.12482 0.46328 0.0
H1039 H 1.00062 0.0922 0.43874 0.0
H1040 H 0.05929 0.07756 0.44179 0.0
H1041 H 0.06764 0.11012 0.46706 0.0
C1042 C 0.05078 0.18884 0.31613 0.0
C1043 C 0.0645 0.20319 0.31554 0.0
C1044 C 0.04779 0.17813 0.35972 0.0
C1045 C 0.05853 0.18135 0.40383 0.0
C1046 C 0.07257 0.19544 0.40326 0.0
C1047 C 0.07542 0.20642 0.35948 0.0
C1048 C 0.05412 0.17011 0.45004 0.0
C1049 C 0.05254 0.15051 0.44447 0.0
C1050 C 0.04856 0.17852 0.49654 0.0
C1051 C 0.04935 0.19914 0.50437 0.0
C1052 C 0.06165 0.20685 0.54085 0.0
C1053 C 0.06244 0.22634 0.54838 0.0
C1054 C 0.05094 0.23822 0.51966 0.0
C1055 C 0.03859 0.23062 0.48346 0.0
C1056 C 0.03772 0.21114 0.47588 0.0
C1057 C 0.01662 0.10656 0.59599 0.0
C1058 C 0.99742 0.11138 0.59502 0.0
C1059 C 0.03033 0.11956 0.58061 0.0
C1060 C 0.02494 0.13735 0.56271 0.0
C1061 C 0.0061 0.14299 0.56824 0.0
C1062 C 0.9924 0.13007 0.5844 0.0
C1063 C 0.03734 0.14794 0.52725 0.0
C1064 C 0.04052 0.16727 0.535 0.0
C1065 C 0.04364 0.13946 0.48149 0.0
C1066 C 0.03874 0.11978 0.46767 0.0
C1067 C 0.01982 0.11459 0.4592 0.0
C1068 C 0.01521 0.09614 0.44507 0.0
C1069 C 0.02943 0.08283 0.43869 0.0
C1070 C 0.04829 0.0879 0.44681 0.0
C1071 C 0.05297 0.10634 0.46108 0.0
H1072 H 0.02581 0.06866 0.42701 0.0
H1073 H 0.05158 0.25331 0.52552 0.0
H1074 H 0.28847 0.09646 0.26811 0.0
H1075 H 0.31311 0.08958 0.32884 0.0
H1076 H 0.35485 0.11191 0.22539 0.0
H1077 H 0.33003 0.11984 0.16465 0.0
H1078 H 0.3556 0.07247 0.2409 0.0
H1079 H 0.35494 0.12855 0.34096 0.0
H1080 H 0.3406 0.1541 0.39104 0.0
H1081 H 0.3195 0.11376 0.49924 0.0
H1082 H 0.33347 0.08792 0.44944 0.0
H1083 H 0.42583 0.02497 0.37534 0.0
H1084 H 0.40777 0.04946 0.33372 0.0
H1085 H 0.36406 0.04364 0.44732 0.0
H1086 H 0.38306 0.02026 0.49221 0.0
H1087 H 0.36771 0.07883 0.42618 0.0
H1088 H 0.3614 0.02331 0.32323 0.0
H1089 H 0.37219 0.99601 0.2732 0.0
H1090 H 0.40161 0.03304 0.17052 0.0
H1091 H 0.39119 0.06056 0.22035 0.0
C1092 C 0.30268 0.10101 0.25901 0.0
C1093 C 0.30727 0.10817 0.21044 0.0
C1094 C 0.31685 0.09696 0.2941 0.0
C1095 C 0.3358 0.09993 0.28119 0.0
C1096 C 0.34026 0.10939 0.23579 0.0
C1097 C 0.32605 0.11374 0.20094 0.0
C1098 C 0.35041 0.08902 0.30816 0.0
C1099 C 0.3587 0.07419 0.28115 0.0
C1100 C 0.3536 0.09075 0.36107 0.0
C1101 C 0.34518 0.10627 0.39123 0.0
C1102 C 0.34711 0.1251 0.3752 0.0
C1103 C 0.33907 0.13964 0.4036 0.0
C1104 C 0.32912 0.13556 0.44825 0.0
C1105 C 0.32722 0.11691 0.46465 0.0
C1106 C 0.33522 0.10231 0.43638 0.0
C1107 C 0.41255 0.02912 0.39215 0.0
C1108 C 0.406 0.02075 0.43746 0.0
C1109 C 0.40206 0.04294 0.36774 0.0
C1110 C 0.38438 0.04823 0.38682 0.0
C1111 C 0.37768 0.03983 0.43187 0.0
C1112 C 0.38842 0.02625 0.45708 0.0
C1113 C 0.37273 0.06214 0.35893 0.0
C1114 C 0.36492 0.07736 0.38574 0.0
C1115 C 0.36942 0.0605 0.3059 0.0
C1116 C 0.37569 0.04397 0.27584 0.0
C1117 C 0.37029 0.02561 0.29019 0.0
C1118 C 0.37632 0.0101 0.26184 0.0
C1119 C 0.38763 0.01278 0.2188 0.0
C1120 C 0.39288 0.03098 0.20393 0.0
C1121 C 0.38691 0.04654 0.23218 0.0
H1122 H 0.39228 1.00076 0.1969 0.0
H1123 H 0.32291 0.14684 0.47019 0.0
H1124 H 0.43847 0.29926 0.35229 0.0
H1125 H 0.44555 0.32447 0.41228 0.0
H1126 H 0.44219 0.36519 0.29069 0.0
H1127 H 0.43704 0.34012 0.22986 0.0
H1128 H 0.47477 0.36685 0.32985 0.0
H1129 H 0.41297 0.36572 0.4011 0.0
H1130 H 0.38421 0.35192 0.439 0.0
H1131 H 0.41629 0.33234 0.56696 0.0
H1132 H 0.44532 0.34575 0.52947 0.0
H1133 H 0.51035 0.4401 0.46924 0.0
H1134 H 0.48408 0.42244 0.43383 0.0
H1135 H 0.49566 0.37623 0.53538 0.0
H1136 H 0.52149 0.39435 0.57387 0.0
H1137 H 0.45619 0.37981 0.50862 0.0
H1138 H 0.5179 0.37608 0.4284 0.0
H1139 H 0.54676 0.39013 0.39154 0.0
H1140 H 0.51353 0.4189 0.27948 0.0
H1141 H 0.48444 0.4052 0.31622 0.0
C1142 C 0.43907 0.31359 0.33819 0.0
C1143 C 0.43788 0.31741 0.28559 0.0
C1144 C 0.44275 0.32809 0.37294 0.0
C1145 C 0.44468 0.34676 0.35597 0.0
C1146 C 0.441 0.35086 0.30463 0.0
C1147 C 0.43784 0.33637 0.26974 0.0
C1148 C 0.4541 0.36116 0.38845 0.0
C1149 C 0.47027 0.36998 0.36844 0.0
C1150 C 0.4488 0.3648 0.43959 0.0
C1151 C 0.43138 0.35662 0.4622 0.0
C1152 C 0.41394 0.35832 0.43709 0.0
C1153 C 0.39758 0.35059 0.45856 0.0
C1154 C 0.39843 0.34122 0.5053 0.0
C1155 C 0.41565 0.33959 0.53073 0.0
C1156 C 0.43207 0.34727 0.5094 0.0
C1157 C 0.50699 0.42652 0.48581 0.0
C1158 C 0.51842 0.41851 0.52384 0.0
C1159 C 0.4919 0.41641 0.46524 0.0
C1160 C 0.48819 0.39792 0.48133 0.0
C1161 C 0.49841 0.39046 0.52228 0.0
C1162 C 0.5134 0.4007 0.54348 0.0
C1163 C 0.47639 0.38541 0.44927 0.0
C1164 C 0.46015 0.37684 0.46954 0.0
C1165 C 0.48152 0.38187 0.39814 0.0
C1166 C 0.49902 0.38976 0.3753 0.0
C1167 C 0.51676 0.38547 0.39605 0.0
C1168 C 0.53314 0.39337 0.37519 0.0
C1169 C 0.53197 0.40543 0.33325 0.0
C1170 C 0.51441 0.40957 0.31199 0.0
C1171 C 0.49797 0.40173 0.33279 0.0
H1172 H 0.54468 0.41154 0.31716 0.0
H1173 H 0.38574 0.33526 0.52186 0.0
H1174 H 0.21292 0.41703 0.3359 0.0
H1175 H 0.19525 0.42444 0.41401 0.0
H1176 H 0.16407 0.46665 0.33231 0.0
H1177 H 0.18136 0.4595 0.255 0.0
H1178 H 0.19466 0.46947 0.44281 0.0
H1179 H 0.13608 0.44661 0.34367 0.0
H1180 H 0.11853 0.4198 0.30671 0.0
H1181 H 0.12334 0.38959 0.44779 0.0
H1182 H 0.1414 0.41609 0.48508 0.0
H1183 H 0.13119 0.53724 0.5157 0.0
H1184 H 0.15229 0.51344 0.48143 0.0
H1185 H 0.12438 0.47078 0.57232 0.0
H1186 H 0.10229 0.49466 0.60359 0.0
H1187 H 0.12729 0.45796 0.48396 0.0
H1188 H 0.17216 0.48623 0.59152 0.0
H1189 H 0.1899 0.5118 0.63401 0.0
H1190 H 0.21355 0.52884 0.49065 0.0
H1191 H 0.19552 0.50389 0.44688 0.0
C1192 C 0.20192 0.42752 0.33437 0.0
C1193 C 0.19848 0.43759 0.28907 0.0
C1194 C 0.19184 0.43166 0.37889 0.0
C1195 C 0.17816 0.44581 0.37842 0.0
C1196 C 0.1742 0.45529 0.33293 0.0
C1197 C 0.18409 0.45111 0.28863 0.0
C1198 C 0.16985 0.45308 0.42591 0.0
C1199 C 0.18 0.46691 0.45263 0.0
C1200 C 0.15106 0.449 0.43977 0.0
C1201 C 0.14047 0.43312 0.41672 0.0
C1202 C 0.13382 0.43408 0.36638 0.0
C1203 C 0.12369 0.41897 0.34545 0.0
C1204 C 0.11994 0.40294 0.37475 0.0
C1205 C 0.12634 0.40197 0.42503 0.0
C1206 C 0.13655 0.41701 0.44602 0.0
C1207 C 0.12994 0.52286 0.52925 0.0
C1208 C 0.11541 0.51769 0.56259 0.0
C1209 C 0.14207 0.50924 0.50999 0.0
C1210 C 0.14026 0.49026 0.52498 0.0
C1211 C 0.12616 0.48528 0.5603 0.0
C1212 C 0.11367 0.49889 0.57851 0.0
C1213 C 0.15165 0.47562 0.49892 0.0
C1214 C 0.14214 0.4603 0.47622 0.0
C1215 C 0.17121 0.47819 0.48947 0.0
C1216 C 0.18248 0.49304 0.51586 0.0
C1217 C 0.1811 0.49544 0.56896 0.0
C1218 C 0.19119 0.50985 0.59329 0.0
C1219 C 0.20291 0.52184 0.56512 0.0
C1220 C 0.20452 0.51949 0.51248 0.0
C1221 C 0.19436 0.5052 0.48787 0.0
H1222 H 0.21071 0.53298 0.58406 0.0
H1223 H 0.11198 0.39132 0.35861 0.0
H1224 H 0.92757 0.83015 0.94823 0.0
H1225 H 0.93838 0.84981 0.87712 0.0
H1226 H 0.96598 0.80182 0.81046 0.0
H1227 H 0.95571 0.78227 0.8814 0.0
H1228 H 0.99009 0.83105 0.83804 0.0
H1229 H 0.93226 0.82234 0.7462 0.0
H1230 H 0.89784 0.82265 0.73316 0.0
H1231 H 0.89708 0.88232 0.76003 0.0
H1232 H 0.93147 0.88233 0.77408 0.0
H1233 H 0.03746 0.87835 0.6439 0.0
H1234 H 0.0157 0.85653 0.68509 0.0
H1235 H 0.98252 0.90312 0.73921 0.0
H1236 H 1.00352 0.92509 0.69577 0.0
H1237 H 0.95998 0.87427 0.71444 0.0
H1238 H 0.01529 0.88332 0.81533 0.0
H1239 H 0.04939 0.88464 0.83358 0.0
H1240 H 0.05427 0.82594 0.79655 0.0
H1241 H 0.02021 0.82434 0.77736 0.0
C1242 C 0.9355 0.82369 0.91768 0.0
C1243 C 0.941 0.80471 0.92092 0.0
C1244 C 0.94153 0.8349 0.87689 0.0
C1245 C 0.95307 0.82725 0.83883 0.0
C1246 C 0.95705 0.80794 0.83952 0.0
C1247 C 0.95104 0.79675 0.88007 0.0
C1248 C 0.96386 0.83978 0.80435 0.0
C1249 C 0.98352 0.84018 0.81011 0.0
C1250 C 0.95516 0.85228 0.76979 0.0
C1251 C 0.93445 0.85229 0.76178 0.0
C1252 C 0.92474 0.8355 0.74993 0.0
C1253 C 0.90523 0.83562 0.74221 0.0
C1254 C 0.89527 0.85248 0.74592 0.0
C1255 C 0.90481 0.86926 0.75725 0.0
C1256 C 0.92432 0.86921 0.76506 0.0
C1257 C 0.02533 0.88405 0.66347 0.0
C1258 C 0.02245 0.90361 0.66657 0.0
C1259 C 0.01296 0.8715 0.68741 0.0
C1260 C 0.99769 0.87823 0.71593 0.0
C1261 C 0.99428 0.89763 0.71757 0.0
C1262 C 0.00653 0.91021 0.69319 0.0
C1263 C 0.98621 0.86512 0.74726 0.0
C1264 C 0.9665 0.86483 0.74159 0.0
C1265 C 0.99477 0.85288 0.78277 0.0
C1266 C 0.01525 0.85376 0.79436 0.0
C1267 C 0.02367 0.87073 0.81069 0.0
C1268 C 0.04298 0.87152 0.82126 0.0
C1269 C 0.054 0.85539 0.81608 0.0
C1270 C 0.04572 0.83843 0.80045 0.0
C1271 C 0.02641 0.83757 0.78974 0.0
H1272 H 0.06895 0.85603 0.82431 0.0
H1273 H 0.88017 0.85255 0.73989 0.0
H1274 H 0.68819 0.94542 0.95778 0.0
H1275 H 0.66878 0.96044 0.89362 0.0
H1276 H 0.71862 0.98404 0.82292 0.0
H1277 H 0.738 0.97025 0.88947 0.0
H1278 H 0.69697 0.01074 0.84368 0.0
H1279 H 0.6861 0.95393 0.7562 0.0
H1280 H 0.67932 0.92018 0.74277 0.0
H1281 H 0.62447 0.9268 0.80956 0.0
H1282 H 0.63099 0.96052 0.8241 0.0
H1283 H 0.622 0.06059 0.70524 0.0
H1284 H 0.6497 0.04066 0.72031 0.0
H1285 H 0.62127 0.01451 0.8475 0.0
H1286 H 0.594 0.03465 0.83394 0.0
H1287 H 0.63641 0.98889 0.76912 0.0
H1288 H 0.65306 0.04391 0.87455 0.0
H1289 H 0.66044 0.07767 0.88601 0.0
H1290 H 0.70565 0.07345 0.77775 0.0
H1291 H 0.69835 0.03969 0.76521 0.0
C1292 C 0.69508 0.9535 0.92802 0.0
C1293 C 0.7146 0.95702 0.92969 0.0
C1294 C 0.68396 0.96188 0.89066 0.0
C1295 C 0.6922 0.9735 0.8533 0.0
C1296 C 0.71192 0.97525 0.8515 0.0
C1297 C 0.72303 0.96716 0.88946 0.0
C1298 C 0.68012 0.98638 0.82317 0.0
C1299 C 0.68404 0.00582 0.82584 0.0
C1300 C 0.66316 0.98014 0.79995 0.0
C1301 C 0.65908 0.95981 0.79133 0.0
C1302 C 0.67263 0.94818 0.76833 0.0
C1303 C 0.66882 0.92904 0.76047 0.0
C1304 C 0.65148 0.92135 0.77532 0.0
C1305 C 0.63789 0.93278 0.79801 0.0
C1306 C 0.64163 0.95193 0.80595 0.0
C1307 C 0.6219 0.05092 0.73718 0.0
C1308 C 0.60581 0.04903 0.76822 0.0
C1309 C 0.6376 0.03944 0.74531 0.0
C1310 C 0.63726 0.02593 0.78434 0.0
C1311 C 0.62158 0.02465 0.81662 0.0
C1312 C 0.60608 0.0362 0.80895 0.0
C1313 C 0.65306 0.01286 0.79225 0.0
C1314 C 0.64975 0.99353 0.78525 0.0
C1315 C 0.67067 0.01913 0.81083 0.0
C1316 C 0.67499 0.03939 0.81839 0.0
C1317 C 0.66444 0.05024 0.85281 0.0
C1318 C 0.66864 0.06935 0.8596 0.0
C1319 C 0.68345 0.07772 0.83247 0.0
C1320 C 0.69414 0.06697 0.79862 0.0
C1321 C 0.68998 0.04785 0.79167 0.0
H1322 H 0.68669 0.09252 0.8378 0.0
H1323 H 0.64856 0.90653 0.76922 0.0
H1324 H 0.60891 0.68506 0.01787 0.0
H1325 H 0.60301 0.65312 0.98634 0.0
H1326 H 0.55922 0.67414 0.88814 0.0
H1327 H 0.56417 0.70563 0.92092 0.0
H1328 H 0.56763 0.63808 0.0069 0.0
H1329 H 0.55343 0.64503 0.78844 0.0
H1330 H 0.56825 0.66006 0.71368 0.0
H1331 H 0.62195 0.65987 0.78922 0.0
H1332 H 0.60755 0.64457 0.86419 0.0
H1333 H 0.48663 0.59229 0.91049 0.0
H1334 H 0.5125 0.61284 0.93847 0.0
H1335 H 0.55247 0.57731 0.86158 0.0
H1336 H 0.52662 0.55661 0.83337 0.0
H1337 H 0.55609 0.61361 0.83265 0.0
H1338 H 0.55195 0.57928 0.98592 0.0
H1339 H 0.53718 0.56447 0.06093 0.0
H1340 H 0.52078 0.61883 0.11658 0.0
H1341 H 0.53517 0.63398 0.04146 0.0
C1342 C 0.59829 0.68297 0.98876 0.0
C1343 C 0.58666 0.69794 0.97321 0.0
C1344 C 0.59505 0.66471 0.97055 0.0
C1345 C 0.58057 0.66128 0.93535 0.0
C1346 C 0.57058 0.67651 0.91507 0.0
C1347 C 0.57354 0.69465 0.93385 0.0
C1348 C 0.57322 0.64198 0.92691 0.0
C1349 C 0.56534 0.63251 0.9689 0.0
C1350 C 0.57056 0.63465 0.87739 0.0
C1351 C 0.57936 0.64368 0.8321 0.0
C1352 C 0.56843 0.64806 0.78903 0.0
C1353 C 0.57675 0.65666 0.74661 0.0
C1354 C 0.59602 0.66094 0.74672 0.0
C1355 C 0.60702 0.65659 0.78923 0.0
C1356 C 0.59877 0.64798 0.83174 0.0
C1357 C 0.50098 0.58859 0.90069 0.0
C1358 C 0.50465 0.57301 0.86935 0.0
C1359 C 0.51573 0.60034 0.91656 0.0
C1360 C 0.53437 0.59657 0.90171 0.0
C1361 C 0.53816 0.58045 0.87282 0.0
C1362 C 0.52343 0.56872 0.85686 0.0
C1363 C 0.54956 0.61041 0.91239 0.0
C1364 C 0.55881 0.61884 0.8708 0.0
C1365 C 0.55342 0.61682 0.96233 0.0
C1366 C 0.5447 0.60778 0.00782 0.0
C1367 C 0.54509 0.58809 0.01391 0.0
C1368 C 0.53678 0.57963 0.05652 0.0
C1369 C 0.52804 0.5907 0.09351 0.0
C1370 C 0.52759 0.61027 0.08794 0.0
C1371 C 0.53587 0.6188 0.04536 0.0
H1372 H 0.52162 0.58412 0.1265 0.0
H1373 H 0.60244 0.6676 0.71386 0.0
H1374 H 0.84778 0.59099 0.95432 0.0
H1375 H 0.86652 0.58269 0.88016 0.0
H1376 H 0.8157 0.57576 0.79152 0.0
H1377 H 0.79683 0.58243 0.86636 0.0
H1378 H 0.83313 0.54492 0.79277 0.0
H1379 H 0.85275 0.60728 0.75865 0.0
H1380 H 0.86495 0.63929 0.77516 0.0
H1381 H 0.91813 0.61648 0.82196 0.0
H1382 H 0.9062 0.58433 0.80638 0.0
H1383 H 0.88961 0.49362 0.62525 0.0
H1384 H 0.87109 0.52105 0.64995 0.0
H1385 H 0.91035 0.53289 0.77156 0.0
H1386 H 0.92897 0.50566 0.74707 0.0
H1387 H 0.89618 0.56545 0.73156 0.0
H1388 H 0.87203 0.50475 0.79224 0.0
H1389 H 0.86023 0.4723 0.77928 0.0
H1390 H 0.81563 0.49309 0.68445 0.0
H1391 H 0.82734 0.52566 0.6964 0.0
C1392 C 0.84055 0.58799 0.91888 0.0
C1393 C 0.82073 0.58675 0.91711 0.0
C1394 C 0.85136 0.58358 0.87603 0.0
C1395 C 0.84254 0.57838 0.83017 0.0
C1396 C 0.82283 0.57957 0.82659 0.0
C1397 C 0.81201 0.58355 0.86965 0.0
C1398 C 0.85329 0.56788 0.79085 0.0
C1399 C 0.84663 0.54979 0.77811 0.0
C1400 C 0.87116 0.5739 0.77255 0.0
C1401 C 0.87847 0.59329 0.78185 0.0
C1402 C 0.86698 0.60904 0.77294 0.0
C1403 C 0.87388 0.62724 0.78201 0.0
C1404 C 0.89228 0.62992 0.79975 0.0
C1405 C 0.90386 0.6144 0.8083 0.0
C1406 C 0.89704 0.59617 0.7993 0.0
C1407 C 0.89435 0.50211 0.65711 0.0
C1408 C 0.91062 0.49725 0.68464 0.0
C1409 C 0.88389 0.51792 0.67072 0.0
C1410 C 0.88923 0.52886 0.71294 0.0
C1411 C 0.90603 0.52471 0.73864 0.0
C1412 C 0.91662 0.50905 0.72468 0.0
C1413 C 0.87607 0.54266 0.73537 0.0
C1414 C 0.88235 0.56112 0.74506 0.0
C1415 C 0.85783 0.53708 0.75136 0.0
C1416 C 0.85066 0.51756 0.74473 0.0
C1417 C 0.85976 0.50237 0.76843 0.0
C1418 C 0.85309 0.48397 0.76128 0.0
C1419 C 0.83722 0.48063 0.73094 0.0
C1420 C 0.82794 0.4957 0.70784 0.0
C1421 C 0.83458 0.51412 0.71479 0.0
H1422 H 0.83208 0.46638 0.72544 0.0
H1423 H 0.89759 0.64402 0.80675 0.0
H1424 H 0.05316 0.19783 0.87502 0.0
H1425 H 0.05095 0.1697 0.82135 0.0
H1426 H 0.99193 0.16407 0.85879 0.0
H1427 H 0.9941 0.1921 0.91263 0.0
H1428 H 0.00721 0.13164 0.86912 0.0
H1429 H 0.00809 0.17733 0.73805 0.0
H1430 H 0.01912 0.20484 0.68882 0.0
H1431 H 0.07085 0.17646 0.65441 0.0
H1432 H 0.06028 0.14886 0.70425 0.0
H1433 H 0.98534 0.05989 0.69061 0.0
H1434 H 0.98745 0.09052 0.73224 0.0
H1435 H 0.04793 0.09018 0.71537 0.0
H1436 H 0.04583 0.05961 0.67183 0.0
H1437 H 0.03188 0.12545 0.69315 0.0
H1438 H 0.02791 0.07879 0.82838 0.0
H1439 H 0.0129 0.0517 0.87174 0.0
H1440 H 0.96188 0.08311 0.89009 0.0
H1441 H 0.97643 0.11033 0.84632 0.0
C1442 C 0.0396 0.19086 0.871 0.0
C1443 C 0.02383 0.19729 0.89848 0.0
C1444 C 0.03835 0.17468 0.84024 0.0
C1445 C 0.02125 0.16461 0.83566 0.0
C1446 C 0.00535 0.17139 0.86177 0.0
C1447 C 0.00661 0.18748 0.89266 0.0
C1448 C 0.02013 0.14646 0.8063 0.0
C1449 C 0.01242 0.13045 0.83041 0.0
C1450 C 0.02704 0.1446 0.75575 0.0
C1451 C 0.03353 0.16115 0.72575 0.0
C1452 C 0.02192 0.17703 0.72053 0.0
C1453 C 0.02807 0.19262 0.69242 0.0
C1454 C 0.04574 0.19246 0.66894 0.0
C1455 C 0.05722 0.17662 0.673 0.0
C1456 C 0.05115 0.16098 0.70116 0.0
C1457 C 0.99914 0.06625 0.69562 0.0
C1458 C 0.01551 0.05698 0.67878 0.0
C1459 C 1.00031 0.08382 0.71967 0.0
C1460 C 0.01787 0.09259 0.72787 0.0
C1461 C 0.03422 0.08365 0.70995 0.0
C1462 C 0.03304 0.06603 0.68563 0.0
C1463 C 0.01907 0.11084 0.75618 0.0
C1464 C 0.02677 0.12677 0.7319 0.0
C1465 C 0.01172 0.11278 0.80608 0.0
C1466 C 1.00323 0.09658 0.83381 0.0
C1467 C 0.01347 0.07991 0.84151 0.0
C1468 C 0.00505 0.06453 0.86611 0.0
C1469 C 0.98647 0.06567 0.8835 0.0
C1470 C 0.97628 0.08224 0.87657 0.0
C1471 C 0.9846 0.09767 0.85195 0.0
H1472 H 0.97998 0.05372 0.90243 0.0
H1473 H 0.0505 0.20461 0.64751 0.0
H1474 H 0.33089 0.01353 0.95313 0.0
H1475 H 0.36101 0.01007 0.90862 0.0
H1476 H 0.33339 0.02023 0.76509 0.0
H1477 H 0.30312 0.02365 0.80943 0.0
H1478 H 0.3611 0.99112 0.7604 0.0
H1479 H 0.35545 0.05538 0.81915 0.0
H1480 H 0.35017 0.07996 0.8839 0.0
H1481 H 0.39761 0.06006 0.9696 0.0
H1482 H 0.403 0.03516 0.90568 0.0
H1483 H 0.44157 0.013 0.61072 0.0
H1484 H 0.41104 0.01315 0.65386 0.0
H1485 H 0.43921 0.01654 0.7994 0.0
H1486 H 0.46977 0.01748 0.75605 0.0
H1487 H 0.41088 0.03792 0.80392 0.0
H1488 H 0.41758 0.97413 0.74772 0.0
H1489 H 0.42365 0.94911 0.68467 0.0
H1490 H 0.3755 0.9665 0.59797 0.0
H1491 H 0.36925 0.99179 0.66013 0.0
C1492 C 0.3311 0.01463 0.91199 0.0
C1493 C 0.31451 0.01889 0.88494 0.0
C1494 C 0.3484 0.01279 0.88658 0.0
C1495 C 0.34956 0.01506 0.83347 0.0
C1496 C 0.3329 0.01844 0.80605 0.0
C1497 C 0.31561 0.02048 0.83151 0.0
C1498 C 0.36826 0.01505 0.80708 0.0
C1499 C 0.37194 1.00145 0.76953 0.0
C1500 C 0.38262 0.02822 0.81974 0.0
C1501 C 0.37951 0.0433 0.8579 0.0
C1502 C 0.36467 0.05615 0.852 0.0
C1503 C 0.36167 0.07016 0.88852 0.0
C1504 C 0.37352 0.07154 0.93091 0.0
C1505 C 0.38843 0.05895 0.93678 0.0
C1506 C 0.39147 0.0449 0.90041 0.0
C1507 C 0.44126 0.0138 0.65194 0.0
C1508 C 0.45814 0.01523 0.67992 0.0
C1509 C 0.42374 0.01373 0.67672 0.0
C1510 C 0.42263 0.01445 0.73026 0.0
C1511 C 0.43953 0.01597 0.75817 0.0
C1512 C 0.45705 0.01648 0.73331 0.0
C1513 C 0.40393 0.01389 0.75712 0.0
C1514 C 0.40018 0.02745 0.79481 0.0
C1515 C 0.38963 1.00049 0.74506 0.0
C1516 C 0.393 0.98492 0.70848 0.0
C1517 C 0.4083 0.97264 0.71518 0.0
C1518 C 0.41178 0.95842 0.67961 0.0
C1519 C 0.39995 0.95621 0.63743 0.0
C1520 C 0.38461 0.96821 0.63074 0.0
C1521 C 0.38108 0.98247 0.66617 0.0
H1522 H 0.40269 0.9452 0.60992 0.0
H1523 H 0.37117 0.08239 0.95915 0.0
H1524 H 0.46722 0.34046 0.92007 0.0
H1525 H 0.472 0.36704 0.86292 0.0
H1526 H 0.51622 0.33702 0.78565 0.0
H1527 H 0.51125 0.30994 0.84242 0.0
H1528 H 0.52658 0.37316 0.80249 0.0
H1529 H 0.47368 0.34243 0.72822 0.0
H1530 H 0.44235 0.32716 0.72496 0.0
H1531 H 0.41652 0.37843 0.77534 0.0
H1532 H 0.44773 0.39394 0.77957 0.0
H1533 H 0.49462 0.44684 0.59378 0.0
H1534 H 0.49238 0.41533 0.63236 0.0
H1535 H 0.5152 0.43746 0.77262 0.0
H1536 H 0.51799 0.46859 0.73389 0.0
H1537 H 0.47291 0.40185 0.71008 0.0
H1538 H 0.54056 0.4052 0.83474 0.0
H1539 H 0.57232 0.41956 0.83141 0.0
H1540 H 0.56992 0.42053 0.66809 0.0
H1541 H 0.53825 0.40594 0.67023 0.0
C1542 C 0.47776 0.33923 0.89042 0.0
C1543 C 0.48863 0.32275 0.88567 0.0
C1544 C 0.48053 0.35458 0.85774 0.0
C1545 C 0.49427 0.35403 0.81925 0.0
C1546 C 0.50546 0.33781 0.81486 0.0
C1547 C 0.50264 0.32232 0.84755 0.0
C1548 C 0.49704 0.37061 0.78465 0.0
C1549 C 0.51485 0.37936 0.78212 0.0
C1550 C 0.48189 0.37857 0.75688 0.0
C1551 C 0.46308 0.3693 0.7546 0.0
C1552 C 0.46134 0.3504 0.73901 0.0
C1553 C 0.4436 0.34171 0.73691 0.0
C1554 C 0.42746 0.3518 0.75004 0.0
C1555 C 0.42903 0.37062 0.76521 0.0
C1556 C 0.44675 0.37938 0.76741 0.0
C1557 C 0.49937 0.44488 0.63262 0.0
C1558 C 0.50641 0.46023 0.66086 0.0
C1559 C 0.498 0.42689 0.65475 0.0
C1560 C 0.50386 0.42384 0.7053 0.0
C1561 C 0.5109 0.43923 0.73333 0.0
C1562 C 0.5123 0.45713 0.71127 0.0
C1563 C 0.50228 0.40479 0.7295 0.0
C1564 C 0.48468 0.39557 0.73008 0.0
C1565 C 0.51771 0.39622 0.75466 0.0
C1566 C 0.53696 0.40456 0.75275 0.0
C1567 C 0.54685 0.40835 0.79808 0.0
C1568 C 0.56482 0.41657 0.79638 0.0
C1569 C 0.5731 0.421 0.74953 0.0
C1570 C 0.56345 0.41714 0.70428 0.0
C1571 C 0.54548 0.40891 0.70572 0.0
H1572 H 0.587 0.42739 0.74829 0.0
H1573 H 0.41373 0.34505 0.74836 0.0
H1574 H 0.19361 0.45746 0.88127 0.0
H1575 H 0.16594 0.46142 0.82732 0.0
H1576 H 0.17288 0.52171 0.83434 0.0
H1577 H 0.20112 0.51796 0.88665 0.0
H1578 H 0.13661 0.5106 0.85627 0.0
H1579 H 0.18267 0.49828 0.72968 0.0
H1580 H 0.20788 0.48144 0.68449 0.0
H1581 H 0.17025 0.4349 0.65681 0.0
H1582 H 0.14496 0.45115 0.70346 0.0
H1583 H 0.06315 0.53172 0.68419 0.0
H1584 H 0.09436 0.52939 0.72254 0.0
H1585 H 0.09228 0.46893 0.7062 0.0
H1586 H 0.06155 0.4714 0.66413 0.0
H1587 H 0.12681 0.48136 0.6866 0.0
H1588 H 0.08214 0.49229 0.82256 0.0
H1589 H 0.05678 0.50966 0.8662 0.0
H1590 H 0.09191 0.55907 0.87298 0.0
H1591 H 0.11745 0.54211 0.82902 0.0
C1592 C 0.18967 0.4716 0.87047 0.0
C1593 C 0.19987 0.48737 0.88875 0.0
C1594 C 0.17365 0.47383 0.8397 0.0
C1595 C 0.16726 0.49186 0.82653 0.0
C1596 C 0.17745 0.50763 0.84408 0.0
C1597 C 0.19361 0.50543 0.87436 0.0
C1598 C 0.14945 0.49426 0.79666 0.0
C1599 C 0.1346 0.50439 0.81888 0.0
C1600 C 0.14659 0.48587 0.74815 0.0
C1601 C 0.16195 0.47586 0.72092 0.0
C1602 C 0.17983 0.4843 0.71489 0.0
C1603 C 0.19416 0.47485 0.68893 0.0
C1604 C 0.1907 0.45707 0.66798 0.0
C1605 C 0.17293 0.44866 0.67317 0.0
C1606 C 0.15861 0.45796 0.69953 0.0
C1607 C 0.06932 0.51789 0.68845 0.0
C1608 C 0.05946 0.50162 0.67256 0.0
C1609 C 0.08719 0.51657 0.71083 0.0
C1610 C 0.09555 0.49893 0.71894 0.0
C1611 C 0.08608 0.48272 0.70125 0.0
C1612 C 0.06833 0.48409 0.67786 0.0
C1613 C 0.11394 0.49739 0.74668 0.0
C1614 C 0.12887 0.48749 0.72406 0.0
C1615 C 0.11692 0.5059 0.79493 0.0
C1616 C 0.10166 0.51598 0.82215 0.0
C1617 C 0.08443 0.50689 0.83315 0.0
C1618 C 0.07002 0.51665 0.85791 0.0
C1619 C 0.0727 0.53544 0.87213 0.0
C1620 C 0.08984 0.54451 0.86187 0.0
C1621 C 0.1043 0.53483 0.83712 0.0
H1622 H 0.06151 0.54297 0.89122 0.0
H1623 H 0.20176 0.44985 0.64753 0.0
H1624 H 0.99521 0.83722 0.26043 0.0
H1625 H 0.99895 0.86505 0.31381 0.0
H1626 H 0.99413 0.83058 0.44848 0.0
H1627 H 0.99043 0.80243 0.39493 0.0
H1628 H 0.97406 0.86207 0.45999 0.0
H1629 H 0.03714 0.8488 0.41019 0.0
H1630 H 0.06325 0.84166 0.35133 0.0
H1631 H 0.05477 0.89431 0.27443 0.0
H1632 H 0.02843 0.90167 0.33239 0.0
H1633 H 0.99941 0.94089 0.61689 0.0
H1634 H 0.99826 0.90994 0.57561 0.0
H1635 H 0.00759 0.93646 0.42975 0.0
H1636 H 0.01014 0.96706 0.47153 0.0
H1637 H 0.02715 0.90675 0.43173 0.0
H1638 H 0.96193 0.91857 0.4807 0.0
H1639 H 0.93673 0.92519 0.54299 0.0
H1640 H 0.95016 0.87463 0.62455 0.0
H1641 H 0.97571 0.8679 0.56356 0.0
C1642 C 0.99526 0.8354 0.30138 0.0
C1643 C 0.99278 0.81739 0.32312 0.0
C1644 C 0.99734 0.85144 0.33201 0.0
C1645 C 0.99715 0.85002 0.38541 0.0
C1646 C 0.9944 0.83212 0.40743 0.0
C1647 C 0.99226 0.81601 0.37669 0.0
C1648 C 0.99961 0.86729 0.41771 0.0
C1649 C 0.98581 0.87171 0.45424 0.0
C1650 C 0.01484 0.88006 0.41031 0.0
C1651 C 0.0307 0.87571 0.37539 0.0
C1652 C 0.04075 0.8588 0.38049 0.0
C1653 C 0.0556 0.85472 0.34732 0.0
C1654 C 0.06063 0.8675 0.3091 0.0
C1655 C 0.05084 0.88441 0.30403 0.0
C1656 C 0.03596 0.88855 0.33706 0.0
C1657 C 1.00142 0.94004 0.57614 0.0
C1658 C 0.00479 0.95647 0.54763 0.0
C1659 C 1.0005 0.92234 0.55233 0.0
C1660 C 1.0025 0.92068 0.49915 0.0
C1661 C 0.00596 0.93716 0.47074 0.0
C1662 C 0.00721 0.95477 0.49467 0.0
C1663 C 1.00123 0.90194 0.47275 0.0
C1664 C 0.01536 0.89716 0.4375 0.0
C1665 C 0.98635 0.88883 0.48157 0.0
C1666 C 0.9708 0.89279 0.51773 0.0
C1667 C 0.95957 0.90892 0.51208 0.0
C1668 C 0.94526 0.91271 0.54722 0.0
C1669 C 0.94192 0.9004 0.58782 0.0
C1670 C 0.95284 0.88422 0.5933 0.0
C1671 C 0.96722 0.8804 0.55844 0.0
H1672 H 0.93082 0.90336 0.61495 0.0
H1673 H 0.07214 0.86432 0.28346 0.0
H1674 H 0.71897 0.98868 0.4106 0.0
H1675 H 0.68968 0.99136 0.46003 0.0
H1676 H 0.65795 0.99584 0.32036 0.0
H1677 H 0.68702 0.99365 0.27135 0.0
H1678 H 0.64518 0.02027 0.3822 0.0
H1679 H 0.65993 0.95437 0.39911 0.0
H1680 H 0.67948 0.92709 0.42237 0.0
H1681 H 0.68066 0.94563 0.57809 0.0
H1682 H 0.66131 0.97317 0.55559 0.0
H1683 H 0.5524 1.00389 0.46256 0.0
H1684 H 0.58353 1.00077 0.42513 0.0
H1685 H 0.60816 0.99793 0.57512 0.0
H1686 H 0.57656 0.99975 0.61314 0.0
H1687 H 0.62587 0.97447 0.51534 0.0
H1688 H 0.61004 0.0403 0.49648 0.0
H1689 H 0.59032 0.06719 0.4707 0.0
H1690 H 0.5904 0.04763 0.3161 0.0
H1691 H 0.6103 0.02074 0.34068 0.0
C1692 C 0.70572 0.99021 0.39054 0.0
C1693 C 0.70543 0.99114 0.33695 0.0
C1694 C 0.68893 0.99166 0.41884 0.0
C1695 C 0.67139 0.99367 0.39416 0.0
C1696 C 0.67117 0.99446 0.34065 0.0
C1697 C 0.68789 0.99325 0.31254 0.0
C1698 C 0.65323 0.99532 0.42327 0.0
C1699 C 0.64095 0.0101 0.41095 0.0
C1700 C 0.64772 0.98246 0.46201 0.0
C1701 C 0.65937 0.96594 0.47554 0.0
C1702 C 0.66449 0.95271 0.43822 0.0
C1703 C 0.67551 0.93719 0.45128 0.0
C1704 C 0.68136 0.93466 0.50164 0.0
C1705 C 0.67616 0.94763 0.53908 0.0
C1706 C 0.66516 0.96319 0.5262 0.0
C1707 C 0.56432 1.00231 0.48788 0.0
C1708 C 0.56183 1.00223 0.54112 0.0
C1709 C 0.58228 1.00084 0.46624 0.0
C1710 C 0.59844 0.99971 0.49706 0.0
C1711 C 0.59602 0.99901 0.55028 0.0
C1712 C 0.57791 1.00015 0.57205 0.0
C1713 C 0.61772 0.99918 0.47339 0.0
C1714 C 0.63021 0.9847 0.48685 0.0
C1715 C 0.62342 0.01223 0.43533 0.0
C1716 C 0.61153 0.02845 0.42052 0.0
C1717 C 0.60577 0.0417 0.45705 0.0
C1718 C 0.59457 0.05693 0.44266 0.0
C1719 C 0.58897 0.05903 0.39197 0.0
C1720 C 0.59471 0.04597 0.35539 0.0
C1721 C 0.60603 0.03079 0.36946 0.0
H1722 H 0.58025 0.07081 0.38102 0.0
H1723 H 0.68989 0.92263 0.51168 0.0
H1724 H 0.54385 0.70992 0.38412 0.0
H1725 H 0.54064 0.68001 0.42931 0.0
H1726 H 0.4946 0.66399 0.33107 0.0
H1727 H 0.49825 0.69349 0.28372 0.0
H1728 H 0.48889 0.65578 0.43912 0.0
H1729 H 0.53414 0.64583 0.30519 0.0
H1730 H 0.56281 0.65294 0.2554 0.0
H1731 H 0.59681 0.64596 0.38936 0.0
H1732 H 0.56827 0.63909 0.44015 0.0
H1733 H 0.48528 0.55877 0.50359 0.0
H1734 H 0.48692 0.58869 0.45744 0.0
H1735 H 0.54112 0.60052 0.52562 0.0
H1736 H 0.53961 0.57034 0.57092 0.0
H1737 H 0.54234 0.6111 0.43146 0.0
H1738 H 0.49837 0.62168 0.56662 0.0
H1739 H 0.47027 0.61537 0.6195 0.0
H1740 H 0.4346 0.62227 0.48876 0.0
H1741 H 0.46252 0.62838 0.43492 0.0
C1742 C 0.53306 0.70008 0.37168 0.0
C1743 C 0.5215 0.70423 0.32945 0.0
C1744 C 0.53119 0.68297 0.39792 0.0
C1745 C 0.51753 0.66962 0.38328 0.0
C1746 C 0.50527 0.67405 0.34307 0.0
C1747 C 0.5073 0.69107 0.31622 0.0
C1748 C 0.51658 0.65081 0.40874 0.0
C1749 C 0.50046 0.6459 0.43694 0.0
C1750 C 0.53187 0.63809 0.40706 0.0
C1751 C 0.54905 0.64216 0.37658 0.0
C1752 C 0.54771 0.64599 0.32414 0.0
C1753 C 0.56394 0.64994 0.29571 0.0
C1754 C 0.58162 0.64996 0.31924 0.0
C1755 C 0.5831 0.64597 0.37121 0.0
C1756 C 0.5669 0.64204 0.39983 0.0
C1757 C 0.49752 0.56779 0.50879 0.0
C1758 C 0.51233 0.56221 0.54088 0.0
C1759 C 0.49844 0.58496 0.48248 0.0
C1760 C 0.51398 0.59721 0.48858 0.0
C1761 C 0.52893 0.59146 0.52015 0.0
C1762 C 0.52809 0.57417 0.54603 0.0
C1763 C 0.51463 0.61597 0.46233 0.0
C1764 C 0.53072 0.62092 0.43385 0.0
C1765 C 0.49939 0.62884 0.46434 0.0
C1766 C 0.48255 0.62531 0.49665 0.0
C1767 C 0.48454 0.62173 0.54908 0.0
C1768 C 0.46865 0.61821 0.57923 0.0
C1769 C 0.45066 0.61837 0.55748 0.0
C1770 C 0.44854 0.62212 0.50554 0.0
C1771 C 0.46439 0.62563 0.47519 0.0
H1772 H 0.43837 0.61564 0.58088 0.0
H1773 H 0.59417 0.65301 0.29716 0.0
H1774 H 0.84209 0.52558 0.25632 0.0
H1775 H 0.86892 0.52148 0.31294 0.0
H1776 H 0.83228 0.52617 0.4434 0.0
H1777 H 0.80513 0.53038 0.38646 0.0
H1778 H 0.86436 0.54532 0.46023 0.0
H1779 H 0.84952 0.48312 0.40619 0.0
H1780 H 0.84206 0.45753 0.34577 0.0
H1781 H 0.89593 0.46513 0.27355 0.0
H1782 H 0.90362 0.49096 0.33309 0.0
H1783 H 0.94172 0.5176 0.61988 0.0
H1784 H 0.91108 0.52004 0.57753 0.0
H1785 H 0.93771 0.51048 0.4322 0.0
H1786 H 0.96794 0.50667 0.47464 0.0
H1787 H 0.90766 0.49173 0.43246 0.0
H1788 H 0.92077 0.55664 0.48785 0.0
H1789 H 0.92746 0.58024 0.55472 0.0
H1790 H 0.87572 0.56563 0.63052 0.0
H1791 H 0.86885 0.54178 0.56465 0.0
C1792 C 0.83959 0.52547 0.29701 0.0
C1793 C 0.82128 0.528 0.31661 0.0
C1794 C 0.85504 0.52318 0.3295 0.0
C1795 C 0.8527 0.52316 0.38266 0.0
C1796 C 0.83451 0.52605 0.40258 0.0
C1797 C 0.81897 0.52844 0.36994 0.0
C1798 C 0.86933 0.5201 0.41676 0.0
C1799 C 0.87373 0.53349 0.45453 0.0
C1800 C 0.88162 0.50465 0.40975 0.0
C1801 C 0.87708 0.48909 0.37388 0.0
C1802 C 0.85972 0.47943 0.37719 0.0
C1803 C 0.85546 0.46487 0.34313 0.0
C1804 C 0.8685 0.45974 0.30578 0.0
C1805 C 0.88584 0.46913 0.30248 0.0
C1806 C 0.89017 0.48372 0.33641 0.0
C1807 C 0.94098 0.51579 0.57897 0.0
C1808 C 0.95738 0.51217 0.55059 0.0
C1809 C 0.92342 0.51738 0.55466 0.0
C1810 C 0.92187 0.5157 0.50136 0.0
C1811 C 0.9383 0.51191 0.47326 0.0
C1812 C 0.95573 0.50999 0.49756 0.0
C1813 C 0.9033 0.51744 0.47436 0.0
C1814 C 0.8984 0.50365 0.43814 0.0
C1815 C 0.89051 0.53241 0.48327 0.0
C1816 C 0.89435 0.54734 0.5215 0.0
C1817 C 0.91083 0.55846 0.51879 0.0
C1818 C 0.91468 0.57185 0.55657 0.0
C1819 C 0.90206 0.57439 0.59689 0.0
C1820 C 0.88551 0.56363 0.59936 0.0
C1821 C 0.88161 0.5502 0.56179 0.0
H1822 H 0.9051 0.58471 0.62618 0.0
H1823 H 0.86517 0.44845 0.27946 0.0
loop_
_geom_bond_atom_site_label_1
_geom_bond_atom_site_label_2
_geom_bond_distance
_geom_bond_site_symmetry_2
_ccdc_geom_bond_type
C0 C1 1.384 . S
C0 H13 0.947 . S
C0 C35 1.382 . S
C1 C0 1.384 . S
C1 C2 1.378 . S
C2 C1 1.378 . S
C2 C3 1.378 . S
C2 H14 0.952 . S
C3 C2 1.378 . S
C3 H15 0.950 . S
C3 C34 1.383 . S
H4 C23 0.947 . S
H5 C24 0.946 . S
H6 C26 0.953 . S
H7 C27 0.945 . S
H8 C29 0.952 . S
H9 C30 0.949 1_556 S
H10 C32 0.950 . S
H11 C33 0.948 . S
H12 C35 0.951 . S
H13 C0 0.947 . S
H14 C2 0.952 . S
H15 C3 0.950 . S
N16 C19 1.382 . S
N16 C21 1.363 . S
N17 C19 1.371 . S
N17 C20 1.372 . S
N18 C20 1.361 . S
N18 C21 1.377 . S
C19 N16 1.382 . S
C19 N17 1.371 . S
C19 C22 1.480 . S
C20 N17 1.372 . S
C20 N18 1.361 . S
C20 C28 1.457 . S
C21 N16 1.363 . S
C21 N18 1.377 . S
C21 C34 1.479 . S
C22 C19 1.480 . S
C22 C23 1.383 . S
C22 C27 1.385 . S
C23 H4 0.947 . S
C23 C22 1.383 . S
C23 C24 1.388 . S
C24 H5 0.946 . S
C24 C23 1.388 . S
C24 C25 1.384 . S
C25 C24 1.384 . S
C25 C26 1.377 . S
C26 H6 0.953 . S
C26 C25 1.377 . S
C26 C27 1.369 . S
C27 H7 0.945 . S
C27 C22 1.385 . S
C27 C26 1.369 . S
C28 C20 1.457 . S
C28 C29 1.372 . S
C28 C33 1.364 . S
C29 H8 0.952 . S
C29 C28 1.372 . S
C29 C30 1.389 . S
C30 H9 0.949 1_554 S
C30 C29 1.389 . S
C30 C31 1.387 . S
C31 C30 1.387 . S
C31 C32 1.372 . S
C32 H10 0.950 . S
C32 C31 1.372 . S
C32 C33 1.379 . S
C33 H11 0.948 . S
C33 C28 1.364 . S
C33 C32 1.379 . S
C34 C3 1.383 . S
C34 C21 1.479 . S
C34 C35 1.398 . S
C35 C0 1.382 . S
C35 H12 0.951 . S
C35 C34 1.398 . S
C36 C37 1.384 . S
C36 H49 0.947 . S
C36 C71 1.382 . S
C37 C36 1.384 . S
C37 C38 1.378 . S
C38 C37 1.378 . S
C38 C39 1.378 . S
C38 H50 0.952 . S
C39 C38 1.378 . S
C39 H51 0.950 . S
C39 C70 1.383 . S
H40 C59 0.947 . S
H41 C60 0.946 . S
H42 C62 0.953 . S
H43 C63 0.945 . S
H44 C65 0.952 . S
H45 C66 0.949 1_556 S
H46 C68 0.950 . S
H47 C69 0.948 . S
H48 C71 0.951 . S
H49 C36 0.947 . S
H50 C38 0.952 . S
H51 C39 0.950 . S
N52 C55 1.382 . S
N52 C57 1.363 . S
N53 C55 1.371 . S
N53 C56 1.372 . S
N54 C56 1.361 . S
N54 C57 1.377 . S
C55 N52 1.382 . S
C55 N53 1.371 . S
C55 C58 1.480 . S
C56 N53 1.372 . S
C56 N54 1.361 . S
C56 C64 1.457 . S
C57 N52 1.363 . S
C57 N54 1.377 . S
C57 C70 1.479 . S
C58 C55 1.480 . S
C58 C59 1.383 . S
C58 C63 1.385 . S
C59 H40 0.947 . S
C59 C58 1.383 . S
C59 C60 1.388 . S
C60 H41 0.946 . S
C60 C59 1.388 . S
C60 C61 1.384 . S
C61 C60 1.384 . S
C61 C62 1.377 . S
C62 H42 0.953 . S
C62 C61 1.377 . S
C62 C63 1.369 . S
C63 H43 0.945 . S
C63 C58 1.385 . S
C63 C62 1.369 . S
C64 C56 1.457 . S
C64 C65 1.372 . S
C64 C69 1.364 . S
C65 H44 0.952 . S
C65 C64 1.372 . S
C65 C66 1.389 . S
C66 H45 0.949 1_554 S
C66 C65 1.389 . S
C66 C67 1.387 . S
C67 C66 1.387 . S
C67 C68 1.372 . S
C68 H46 0.950 . S
C68 C67 1.372 . S
C68 C69 1.379 . S
C69 H47 0.948 . S
C69 C64 1.364 . S
C69 C68 1.379 . S
C70 C39 1.383 . S
C70 C57 1.479 . S
C70 C71 1.398 . S
C71 C36 1.382 . S
C71 H48 0.951 . S
C71 C70 1.398 . S
C72 C73 1.384 . S
C72 H85 0.947 . S
C72 C107 1.382 . S
C73 C72 1.384 . S
C73 C74 1.378 . S
C74 C73 1.378 . S
C74 C75 1.378 . S
C74 H86 0.952 . S
C75 C74 1.378 . S
C75 H87 0.950 . S
C75 C106 1.383 . S
H76 C95 0.947 . S
H77 C96 0.946 . S
H78 C98 0.953 . S
H79 C99 0.945 . S
H80 C101 0.952 . S
H81 C102 0.949 1_556 S
H82 C104 0.950 . S
H83 C105 0.948 . S
H84 C107 0.951 . S
H85 C72 0.947 . S
H86 C74 0.952 . S
H87 C75 0.950 . S
N88 C91 1.382 . S
N88 C93 1.363 . S
N89 C91 1.371 . S
N89 C92 1.372 . S
N90 C92 1.361 . S
N90 C93 1.377 . S
C91 N88 1.382 . S
C91 N89 1.371 . S
C91 C94 1.480 . S
C92 N89 1.372 . S
C92 N90 1.361 . S
C92 C100 1.457 . S
C93 N88 1.363 . S
C93 N90 1.377 . S
C93 C106 1.479 . S
C94 C91 1.480 . S
C94 C95 1.383 . S
C94 C99 1.385 . S
C95 H76 0.947 . S
C95 C94 1.383 . S
C95 C96 1.388 . S
C96 H77 0.946 . S
C96 C95 1.388 . S
C96 C97 1.384 . S
C97 C96 1.384 . S
C97 C98 1.377 . S
C98 H78 0.953 . S
C98 C97 1.377 . S
C98 C99 1.369 . S
C99 H79 0.945 . S
C99 C94 1.385 . S
C99 C98 1.369 . S
C100 C92 1.457 . S
C100 C101 1.372 . S
C100 C105 1.364 . S
C101 H80 0.952 . S
C101 C100 1.372 . S
C101 C102 1.389 . S
C102 H81 0.949 1_554 S
C102 C101 1.389 . S
C102 C103 1.387 . S
C103 C102 1.387 . S
C103 C104 1.372 . S
C104 H82 0.950 . S
C104 C103 1.372 . S
C104 C105 1.379 . S
C105 H83 0.948 . S
C105 C100 1.364 . S
C105 C104 1.379 . S
C106 C75 1.383 . S
C106 C93 1.479 . S
C106 C107 1.398 . S
C107 C72 1.382 . S
C107 H84 0.951 . S
C107 C106 1.398 . S
C108 C109 1.384 . S
C108 H121 0.947 . S
C108 C143 1.382 . S
C109 C108 1.384 . S
C109 C110 1.378 . S
C110 C109 1.378 . S
C110 C111 1.378 . S
C110 H122 0.952 1_554 S
C111 C110 1.378 . S
C111 H123 0.950 . S
C111 C142 1.383 . S
H112 C131 0.947 . S
H113 C132 0.946 . S
H114 C134 0.953 . S
H115 C135 0.945 . S
H116 C137 0.952 . S
H117 C138 0.949 . S
H118 C140 0.950 . S
H119 C141 0.948 . S
H120 C143 0.951 . S
H121 C108 0.947 . S
H122 C110 0.952 1_556 S
H123 C111 0.950 . S
N124 C127 1.382 . S
N124 C129 1.363 . S
N125 C127 1.371 . S
N125 C128 1.372 . S
N126 C128 1.361 . S
N126 C129 1.377 . S
C127 N124 1.382 . S
C127 N125 1.371 . S
C127 C130 1.480 . S
C128 N125 1.372 . S
C128 N126 1.361 . S
C128 C136 1.457 . S
C129 N124 1.363 . S
C129 N126 1.377 . S
C129 C142 1.479 . S
C130 C127 1.480 . S
C130 C131 1.383 . S
C130 C135 1.385 . S
C131 H112 0.947 . S
C131 C130 1.383 . S
C131 C132 1.388 . S
C132 H113 0.946 . S
C132 C131 1.388 . S
C132 C133 1.384 . S
C133 C132 1.384 . S
C133 C134 1.377 . S
C134 H114 0.953 . S
C134 C133 1.377 . S
C134 C135 1.369 . S
C135 H115 0.945 . S
C135 C130 1.385 . S
C135 C134 1.369 . S
C136 C128 1.457 . S
C136 C137 1.372 . S
C136 C141 1.364 . S
C137 H116 0.952 . S
C137 C136 1.372 . S
C137 C138 1.389 . S
C138 H117 0.949 . S
C138 C137 1.389 . S
C138 C139 1.387 . S
C139 C138 1.387 . S
C139 C140 1.372 . S
C140 H118 0.950 . S
C140 C139 1.372 . S
C140 C141 1.379 . S
C141 H119 0.948 . S
C141 C136 1.364 . S
C141 C140 1.379 . S
C142 C111 1.383 . S
C142 C129 1.479 . S
C142 C143 1.398 . S
C143 C108 1.382 . S
C143 H120 0.951 . S
C143 C142 1.398 . S
C144 C145 1.384 . S
C144 H157 0.947 . S
C144 C179 1.382 . S
C145 C144 1.384 . S
C145 C146 1.378 . S
C146 C145 1.378 . S
C146 C147 1.378 . S
C146 H158 0.952 . S
C147 C146 1.378 . S
C147 H159 0.950 . S
C147 C178 1.383 . S
H148 C167 0.947 1_556 S
H149 C168 0.946 . S
H150 C170 0.953 . S
H151 C171 0.945 . S
H152 C173 0.952 . S
H153 C174 0.949 . S
H154 C176 0.950 . S
H155 C177 0.948 . S
H156 C179 0.951 . S
H157 C144 0.947 . S
H158 C146 0.952 . S
H159 C147 0.950 . S
N160 C163 1.382 1_556 S
N160 C165 1.363 . S
N161 C163 1.371 . S
N161 C164 1.372 . S
N162 C164 1.361 . S
N162 C165 1.377 1_554 S
C163 N160 1.382 1_554 S
C163 N161 1.371 . S
C163 C166 1.480 . S
C164 N161 1.372 . S
C164 N162 1.361 . S
C164 C172 1.457 . S
C165 N160 1.363 . S
C165 N162 1.377 1_556 S
C165 C178 1.479 . S
C166 C163 1.480 . S
C166 C167 1.383 . S
C166 C171 1.385 . S
C167 H148 0.947 1_554 S
C167 C166 1.383 . S
C167 C168 1.388 . S
C168 H149 0.946 . S
C168 C167 1.388 . S
C168 C169 1.384 . S
C169 C168 1.384 . S
C169 C170 1.377 . S
C170 H150 0.953 . S
C170 C169 1.377 . S
C170 C171 1.369 . S
C171 H151 0.945 . S
C171 C166 1.385 . S
C171 C170 1.369 . S
C172 C164 1.457 . S
C172 C173 1.372 . S
C172 C177 1.364 . S
C173 H152 0.952 . S
C173 C172 1.372 . S
C173 C174 1.389 . S
C174 H153 0.949 . S
C174 C173 1.389 . S
C174 C175 1.387 . S
C175 C174 1.387 . S
C175 C176 1.372 . S
C176 H154 0.950 . S
C176 C175 1.372 . S
C176 C177 1.379 . S
C177 H155 0.948 . S
C177 C172 1.364 . S
C177 C176 1.379 . S
C178 C147 1.383 . S
C178 C165 1.479 . S
C178 C179 1.398 . S
C179 C144 1.382 . S
C179 H156 0.951 . S
C179 C178 1.398 . S
C180 C181 1.384 . S
C180 H193 0.947 . S
C180 C215 1.382 . S
C181 C180 1.384 . S
C181 C182 1.378 . S
C182 C181 1.378 . S
C182 C183 1.378 . S
C182 H194 0.952 . S
C183 C182 1.378 . S
C183 H195 0.950 . S
C183 C214 1.383 . S
H184 C203 0.947 1_556 S
H185 C204 0.946 . S
H186 C206 0.953 . S
H187 C207 0.945 . S
H188 C209 0.952 . S
H189 C210 0.949 . S
H190 C212 0.950 . S
H191 C213 0.948 . S
H192 C215 0.951 . S
H193 C180 0.947 . S
H194 C182 0.952 . S
H195 C183 0.950 . S
N196 C199 1.382 1_556 S
N196 C201 1.363 . S
N197 C199 1.371 . S
N197 C200 1.372 . S
N198 C200 1.361 . S
N198 C201 1.377 1_554 S
C199 N196 1.382 1_554 S
C199 N197 1.371 . S
C199 C202 1.480 . S
C200 N197 1.372 . S
C200 N198 1.361 . S
C200 C208 1.457 . S
C201 N196 1.363 . S
C201 N198 1.377 1_556 S
C201 C214 1.479 . S
C202 C199 1.480 . S
C202 C203 1.383 . S
C202 C207 1.385 . S
C203 H184 0.947 1_554 S
C203 C202 1.383 . S
C203 C204 1.388 . S
C204 H185 0.946 . S
C204 C203 1.388 . S
C204 C205 1.384 . S
C205 C204 1.384 . S
C205 C206 1.377 . S
C206 H186 0.953 . S
C206 C205 1.377 . S
C206 C207 1.369 . S
C207 H187 0.945 . S
C207 C202 1.385 . S
C207 C206 1.369 . S
C208 C200 1.457 . S
C208 C209 1.372 . S
C208 C213 1.364 . S
C209 H188 0.952 . S
C209 C208 1.372 . S
C209 C210 1.389 . S
C210 H189 0.949 . S
C210 C209 1.389 . S
C210 C211 1.387 . S
C211 C210 1.387 . S
C211 C212 1.372 . S
C212 H190 0.950 . S
C212 C211 1.372 . S
C212 C213 1.379 . S
C213 H191 0.948 . S
C213 C208 1.364 . S
C213 C212 1.379 . S
C214 C183 1.383 . S
C214 C201 1.479 . S
C214 C215 1.398 . S
C215 C180 1.382 . S
C215 H192 0.951 . S
C215 C214 1.398 . S
C216 C217 1.384 . S
C216 H229 0.947 . S
C216 C251 1.382 . S
C217 C216 1.384 . S
C217 C218 1.378 . S
C218 C217 1.378 . S
C218 C219 1.378 . S
C218 H230 0.952 . S
C219 C218 1.378 . S
C219 H231 0.950 . S
C219 C250 1.383 . S
H220 C239 0.947 1_556 S
H221 C240 0.946 . S
H222 C242 0.953 . S
H223 C243 0.945 . S
H224 C245 0.952 . S
H225 C246 0.949 . S
H226 C248 0.950 . S
H227 C249 0.948 . S
H228 C251 0.951 . S
H229 C216 0.947 . S
H230 C218 0.952 . S
H231 C219 0.950 . S
N232 C235 1.360 1_556 S
N232 C237 1.368 . S
N233 C235 1.371 . S
N233 C236 1.372 . S
N234 C236 1.361 . S
N234 C237 1.377 1_554 S
C235 N232 1.360 1_554 S
C235 N233 1.371 . S
C235 C238 1.480 . S
C236 N233 1.372 . S
C236 N234 1.361 . S
C236 C244 1.457 . S
C237 N232 1.368 . S
C237 N234 1.377 1_556 S
C237 C250 1.479 . S
C238 C235 1.480 . S
C238 C239 1.383 . S
C238 C243 1.385 . S
C239 H220 0.947 1_554 S
C239 C238 1.383 . S
C239 C240 1.388 . S
C240 H221 0.946 . S
C240 C239 1.388 . S
C240 C241 1.384 . S
C241 C240 1.384 . S
C241 C242 1.377 . S
C242 H222 0.953 . S
C242 C241 1.377 . S
C242 C243 1.369 . S
C243 H223 0.945 . S
C243 C238 1.385 . S
C243 C242 1.369 . S
C244 C236 1.457 . S
C244 C245 1.372 . S
C244 C249 1.364 . S
C245 H224 0.952 . S
C245 C244 1.372 . S
C245 C246 1.389 . S
C246 H225 0.949 . S
C246 C245 1.389 . S
C246 C247 1.387 . S
C247 C246 1.387 . S
C247 C248 1.372 . S
C248 H226 0.950 . S
C248 C247 1.372 . S
C248 C249 1.379 . S
C249 H227 0.948 . S
C249 C244 1.364 . S
C249 C248 1.379 . S
C250 C219 1.383 . S
C250 C237 1.479 . S
C250 C251 1.398 . S
C251 C216 1.382 . S
C251 H228 0.951 . S
C251 C250 1.398 . S
C252 C253 1.384 . S
C252 H265 0.947 . S
C252 C287 1.382 . S
C253 C252 1.384 . S
C253 C254 1.378 . S
C254 C253 1.378 . S
C254 C255 1.378 . S
C254 H266 0.952 . S
C255 C254 1.378 . S
C255 H267 0.950 . S
C255 C286 1.383 . S
H256 C275 0.947 . S
H257 C276 0.946 . S
H258 C278 0.953 . S
H259 C279 0.945 1_556 S
H260 C281 0.952 . S
H261 C282 0.949 . S
H262 C284 0.950 . S
H263 C285 0.948 . S
H264 C287 0.951 . S
H265 C252 0.947 . S
H266 C254 0.952 . S
H267 C255 0.950 . S
N268 C271 1.382 . S
N268 C273 1.363 . S
N269 C271 1.371 1_556 S
N269 C272 1.372 . S
N270 C272 1.361 1_554 S
N270 C273 1.377 . S
C271 N268 1.382 . S
C271 N269 1.371 1_554 S
C271 C274 1.480 . S
C272 N269 1.372 . S
C272 N270 1.361 1_556 S
C272 C280 1.457 . S
C273 N268 1.363 . S
C273 N270 1.377 . S
C273 C286 1.479 . S
C274 C271 1.480 . S
C274 C275 1.383 . S
C274 C279 1.385 . S
C275 H256 0.947 . S
C275 C274 1.383 . S
C275 C276 1.388 . S
C276 H257 0.946 . S
C276 C275 1.388 . S
C276 C277 1.384 . S
C277 C276 1.384 . S
C277 C278 1.377 . S
C278 H258 0.953 . S
C278 C277 1.377 . S
C278 C279 1.369 . S
C279 H259 0.945 1_554 S
C279 C274 1.385 . S
C279 C278 1.369 . S
C280 C272 1.457 . S
C280 C281 1.372 . S
C280 C285 1.364 . S
C281 H260 0.952 . S
C281 C280 1.372 . S
C281 C282 1.389 . S
C282 H261 0.949 . S
C282 C281 1.389 . S
C282 C283 1.387 . S
C283 C282 1.387 . S
C283 C284 1.372 . S
C284 H262 0.950 . S
C284 C283 1.372 . S
C284 C285 1.379 . S
C285 H263 0.948 . S
C285 C280 1.364 . S
C285 C284 1.379 . S
C286 C255 1.383 . S
C286 C273 1.479 . S
C286 C287 1.398 . S
C287 C252 1.382 . S
C287 H264 0.951 . S
C287 C286 1.398 . S
C288 C290 1.422 . S
C288 C292 1.415 . S
C288 N294 1.369 1_545 S
C289 C290 1.421 . S
C289 C291 1.417 . S
C289 C301 1.422 . S
C290 C288 1.422 . S
C290 C289 1.421 . S
C290 N300 1.359 . S
C291 C289 1.417 . S
C291 C293 1.329 . S
C291 H310 0.930 . S
C292 C288 1.415 . S
C292 C293 1.437 . S
C292 C296 1.413 . S
C293 C291 1.329 . S
C293 C292 1.437 . S
C293 H315 0.929 . S
N294 C288 1.369 1_565 S
N294 C295 1.338 . S
N294 Gd299 2.622 . S
C295 N294 1.338 . S
C295 C297 1.378 1_565 S
C295 H307 0.929 . S
C296 C292 1.413 . S
C296 C297 1.348 . S
C296 H312 0.931 . S
C297 C295 1.378 1_545 S
C297 C296 1.348 . S
C297 H313 0.930 . S
Gd298 N318 2.622 . S
Gd298 N325 2.570 . S
Gd298 O332 2.353 1_655 S
Gd298 O333 2.453 1_655 S
Gd298 O334 2.427 . S
Gd298 O336 2.388 . S
Gd298 O337 2.386 1_545 S
Gd298 O341 2.307 1_655 S
Gd298 C351 2.805 . S
Gd299 N294 2.622 . S
Gd299 N300 2.570 1_565 S
Gd299 O331 2.386 1_565 S
Gd299 O335 2.303 1_465 S
Gd299 O338 2.353 . S
Gd299 O339 2.468 . S
Gd299 O340 2.427 . S
Gd299 O342 2.388 . S
Gd299 C363 2.805 . S
N300 C290 1.359 . S
N300 Gd299 2.570 1_545 S
N300 C302 1.343 . S
C301 C289 1.422 . S
C301 C303 1.321 . S
C301 H309 0.931 . S
C302 N300 1.343 . S
C302 C303 1.390 . S
C302 H304 0.885 1_445 S
C303 C301 1.321 . S
C303 C302 1.390 . S
C303 H305 0.930 . S
H304 C302 0.885 1_665 S
H305 C303 0.930 . S
H306 C329 0.948 . S
H307 C295 0.929 . S
H308 C330 0.903 1_455 S
H309 C301 0.931 . S
H310 C291 0.930 . S
H311 C320 0.929 . S
H312 C296 0.931 . S
H313 C297 0.930 . S
H314 C352 0.930 . S
H315 C293 0.929 . S
H316 C321 0.941 . S
H317 C322 0.930 . S
N318 Gd298 2.622 . S
N318 C319 1.369 . S
N318 C320 1.338 . S
C319 N318 1.369 . S
C319 C323 1.415 1_545 S
C319 C326 1.422 . S
C320 H311 0.929 . S
C320 N318 1.338 . S
C320 C322 1.378 . S
C321 H316 0.941 . S
C321 C322 1.336 1_565 S
C321 C323 1.415 . S
C322 H317 0.930 . S
C322 C320 1.378 . S
C322 C321 1.336 1_545 S
C323 C319 1.415 1_565 S
C323 C321 1.415 . S
C323 C353 1.437 . S
H324 C353 0.929 . S
N325 Gd298 2.570 . S
N325 C326 1.359 . S
N325 C329 1.328 1_655 S
C326 C319 1.422 . S
C326 N325 1.359 . S
C326 C328 1.421 1_545 S
C327 C328 1.422 . S
C327 C330 1.379 . S
C327 H354 0.931 . S
C328 C326 1.421 1_565 S
C328 C327 1.422 . S
C328 C352 1.417 . S
C329 H306 0.948 . S
C329 N325 1.328 1_455 S
C329 C330 1.363 1_445 S
C330 H308 0.903 1_655 S
C330 C327 1.379 . S
C330 C329 1.363 1_665 S
O331 Gd299 2.386 1_545 S
O331 C343 1.265 . S
O332 Gd298 2.353 1_455 S
O332 C343 1.242 . S
O333 Gd298 2.453 1_455 S
O333 C351 1.227 1_455 S
O334 Gd298 2.427 . S
O334 C351 1.252 . S
O335 Gd299 2.303 1_645 S
O335 C344 1.264 . S
O336 Gd298 2.388 . S
O336 C344 1.252 . S
O337 Gd298 2.386 1_565 S
O337 C355 1.265 . S
O338 Gd299 2.353 . S
O338 C355 1.242 1_455 S
O339 Gd299 2.468 . S
O339 C363 1.263 . S
O340 Gd299 2.427 . S
O340 C363 1.252 . S
O341 Gd298 2.307 1_455 S
O341 C356 1.261 . S
O342 Gd299 2.388 . S
O342 C356 1.252 1_565 S
C343 O331 1.265 . S
C343 O332 1.242 . S
C344 O335 1.264 . S
C344 O336 1.252 . S
C345 C348 1.394 . S
C345 C350 1.411 . S
C345 C351 1.500 . S
C346 C349 1.383 . S
C346 C350 1.402 . S
C347 C348 1.396 . S
C347 C349 1.365 . S
C347 H364 0.929 . S
C348 C345 1.394 . S
C348 C347 1.396 . S
C348 H365 0.930 . S
C349 C346 1.383 . S
C349 C347 1.365 . S
C349 H366 0.931 . S
C350 C345 1.411 . S
C350 C346 1.402 . S
C350 H367 0.884 1_655 S
C351 Gd298 2.805 . S
C351 O333 1.227 1_655 S
C351 O334 1.252 . S
C351 C345 1.500 . S
C352 H314 0.930 . S
C352 C328 1.417 . S
C352 C353 1.329 . S
C353 C323 1.437 . S
C353 H324 0.929 . S
C353 C352 1.329 . S
H354 C327 0.931 . S
C355 O337 1.265 . S
C355 O338 1.242 1_655 S
C356 O341 1.261 . S
C356 O342 1.252 1_545 S
C357 C360 1.394 . S
C357 C362 1.370 . S
C357 C363 1.500 . S
C358 C361 1.383 . S
C358 C362 1.395 . S
C359 C360 1.396 . S
C359 C361 1.365 . S
C359 H368 0.929 . S
C360 C357 1.394 . S
C360 C359 1.396 . S
C360 H369 0.930 . S
C361 C358 1.383 . S
C361 C359 1.365 . S
C361 H370 0.931 . S
C362 C357 1.370 . S
C362 C358 1.395 . S
C362 H371 0.930 . S
C363 Gd299 2.805 . S
C363 O339 1.263 . S
C363 O340 1.252 . S
C363 C357 1.500 . S
H364 C347 0.929 . S
H365 C348 0.930 . S
H366 C349 0.931 . S
H367 C350 0.884 1_455 S
H368 C359 0.929 . S
H369 C360 0.930 . S
H370 C361 0.931 . S
H371 C362 0.930 . S
C372 C374 1.422 . S
C372 C376 1.415 . S
C372 N378 1.369 . S
C373 C374 1.421 . S
C373 C375 1.417 . S
C373 C385 1.422 . S
C374 C372 1.422 . S
C374 C373 1.421 . S
C374 N384 1.359 . S
C375 C373 1.417 . S
C375 C377 1.329 . S
C375 H394 0.930 . S
C376 C372 1.415 . S
C376 C377 1.437 . S
C376 C380 1.413 . S
C377 C375 1.329 . S
C377 C376 1.437 . S
C377 H399 0.929 . S
N378 C372 1.369 . S
N378 C379 1.338 . S
N378 Gd383 2.622 . S
C379 N378 1.338 . S
C379 C381 1.378 . S
C379 H391 0.929 . S
C380 C376 1.413 . S
C380 C381 1.348 . S
C380 H396 0.931 . S
C381 C379 1.378 . S
C381 C380 1.348 . S
C381 H397 0.930 . S
Gd382 N402 2.622 . S
Gd382 N409 2.570 . S
Gd382 O416 2.353 1_545 S
Gd382 O417 2.468 . S
Gd382 O418 2.427 . S
Gd382 O420 2.388 . S
Gd382 O421 2.386 . S
Gd382 O425 2.307 . S
Gd382 C435 2.805 . S
Gd383 N378 2.622 . S
Gd383 N384 2.570 . S
Gd383 O415 2.386 . S
Gd383 O419 2.307 1_565 S
Gd383 O422 2.353 1_565 S
Gd383 O423 2.468 . S
Gd383 O424 2.427 . S
Gd383 O426 2.388 . S
Gd383 C447 2.805 . S
N384 C374 1.359 . S
N384 Gd383 2.570 . S
N384 C386 1.343 . S
C385 C373 1.422 . S
C385 C387 1.321 . S
C385 H393 0.931 . S
C386 N384 1.343 . S
C386 C387 1.390 . S
C386 H388 0.931 . S
C387 C385 1.321 . S
C387 C386 1.390 . S
C387 H389 0.930 . S
H388 C386 0.931 . S
H389 C387 0.930 . S
H390 C413 0.931 . S
H391 C379 0.929 . S
H392 C414 0.930 . S
H393 C385 0.931 . S
H394 C375 0.930 . S
H395 C404 0.929 . S
H396 C380 0.931 . S
H397 C381 0.930 . S
H398 C436 0.930 . S
H399 C377 0.929 . S
H400 C405 0.931 . S
H401 C406 0.930 . S
N402 Gd382 2.622 . S
N402 C403 1.369 . S
N402 C404 1.338 . S
C403 N402 1.369 . S
C403 C407 1.415 . S
C403 C410 1.422 . S
C404 H395 0.929 . S
C404 N402 1.338 . S
C404 C406 1.378 . S
C405 H400 0.931 . S
C405 C406 1.348 . S
C405 C407 1.413 . S
C406 H401 0.930 . S
C406 C404 1.378 . S
C406 C405 1.348 . S
C407 C403 1.415 . S
C407 C405 1.413 . S
C407 C437 1.437 . S
H408 C437 0.929 . S
N409 Gd382 2.570 . S
N409 C410 1.359 . S
N409 C413 1.343 . S
C410 C403 1.422 . S
C410 N409 1.359 . S
C410 C412 1.421 . S
C411 C412 1.422 . S
C411 C414 1.321 . S
C411 H438 0.931 . S
C412 C410 1.421 . S
C412 C411 1.422 . S
C412 C436 1.417 . S
C413 H390 0.931 . S
C413 N409 1.343 . S
C413 C414 1.390 . S
C414 H392 0.930 . S
C414 C411 1.321 . S
C414 C413 1.390 . S
O415 Gd383 2.386 . S
O415 C427 1.265 . S
O416 Gd382 2.353 1_565 S
O416 C427 1.242 . S
O417 Gd382 2.468 . S
O417 C435 1.263 . S
O418 Gd382 2.427 . S
O418 C435 1.252 . S
O419 Gd383 2.307 1_545 S
O419 C428 1.261 . S
O420 Gd382 2.388 . S
O420 C428 1.252 . S
O421 Gd382 2.386 . S
O421 C439 1.265 . S
O422 Gd383 2.353 1_545 S
O422 C439 1.242 . S
O423 Gd383 2.468 . S
O423 C447 1.263 . S
O424 Gd383 2.427 . S
O424 C447 1.252 . S
O425 Gd382 2.307 . S
O425 C440 1.261 1_545 S
O426 Gd383 2.388 . S
O426 C440 1.252 . S
C427 O415 1.265 . S
C427 O416 1.242 . S
C428 O419 1.261 . S
C428 O420 1.252 . S
C429 C432 1.394 . S
C429 C434 1.370 . S
C429 C435 1.500 . S
C430 C433 1.383 . S
C430 C434 1.395 . S
C431 C432 1.396 . S
C431 C433 1.365 . S
C431 H448 0.929 . S
C432 C429 1.394 . S
C432 C431 1.396 . S
C432 H449 0.930 . S
C433 C430 1.383 . S
C433 C431 1.365 . S
C433 H450 0.931 . S
C434 C429 1.370 . S
C434 C430 1.395 . S
C434 H451 0.930 . S
C435 Gd382 2.805 . S
C435 O417 1.263 . S
C435 O418 1.252 . S
C435 C429 1.500 . S
C436 H398 0.930 . S
C436 C412 1.417 . S
C436 C437 1.329 . S
C437 C407 1.437 . S
C437 H408 0.929 . S
C437 C436 1.329 . S
H438 C411 0.931 . S
C439 O421 1.265 . S
C439 O422 1.242 . S
C440 O425 1.261 1_565 S
C440 O426 1.252 . S
C441 C444 1.394 . S
C441 C446 1.370 1_565 S
C441 C447 1.500 . S
C442 C445 1.383 1_545 S
C442 C446 1.395 . S
C443 C444 1.396 . S
C443 C445 1.365 . S
C443 H452 0.929 . S
C444 C441 1.394 . S
C444 C443 1.396 . S
C444 H453 0.930 . S
C445 C442 1.383 1_565 S
C445 C443 1.365 . S
C445 H454 0.931 . S
C446 C441 1.370 1_545 S
C446 C442 1.395 . S
C446 H455 0.930 . S
C447 Gd383 2.805 . S
C447 O423 1.263 . S
C447 O424 1.252 . S
C447 C441 1.500 . S
H448 C431 0.929 . S
H449 C432 0.930 . S
H450 C433 0.931 . S
H451 C434 0.930 . S
H452 C443 0.929 . S
H453 C444 0.930 . S
H454 C445 0.931 . S
H455 C446 0.930 . S
C456 C458 1.422 . S
C456 C460 1.415 . S
C456 N462 1.369 . S
C457 C458 1.421 . S
C457 C459 1.417 . S
C457 C469 1.422 . S
C458 C456 1.422 . S
C458 C457 1.421 . S
C458 N468 1.359 . S
C459 C457 1.417 . S
C459 C461 1.329 . S
C459 H478 0.930 . S
C460 C456 1.415 . S
C460 C461 1.437 . S
C460 C464 1.413 . S
C461 C459 1.329 . S
C461 C460 1.437 . S
C461 H483 0.929 . S
N462 C456 1.369 . S
N462 C463 1.338 . S
N462 Gd467 2.622 . S
C463 N462 1.338 . S
C463 C465 1.378 . S
C463 H475 0.929 . S
C464 C460 1.413 . S
C464 C465 1.348 . S
C464 H480 0.931 . S
C465 C463 1.378 . S
C465 C464 1.348 . S
C465 H481 0.930 . S
Gd466 N486 2.622 . S
Gd466 N493 2.570 . S
Gd466 O500 2.353 . S
Gd466 O501 2.468 . S
Gd466 O502 2.427 . S
Gd466 O504 2.388 . S
Gd466 O505 2.386 . S
Gd466 O509 2.307 . S
Gd466 C519 2.805 . S
Gd467 N462 2.622 . S
Gd467 N468 2.570 . S
Gd467 O499 2.386 . S
Gd467 O503 2.307 . S
Gd467 O506 2.353 . S
Gd467 O507 2.468 . S
Gd467 O508 2.427 . S
Gd467 O510 2.388 . S
Gd467 C531 2.805 . S
N468 C458 1.359 . S
N468 Gd467 2.570 . S
N468 C470 1.343 . S
C469 C457 1.422 . S
C469 C471 1.321 . S
C469 H477 0.931 . S
C470 N468 1.343 . S
C470 C471 1.390 . S
C470 H472 0.931 . S
C471 C469 1.321 . S
C471 C470 1.390 . S
C471 H473 0.930 . S
H472 C470 0.931 . S
H473 C471 0.930 . S
H474 C497 0.931 . S
H475 C463 0.929 . S
H476 C498 0.930 . S
H477 C469 0.931 . S
H478 C459 0.930 . S
H479 C488 0.929 . S
H480 C464 0.931 . S
H481 C465 0.930 . S
H482 C520 0.930 . S
H483 C461 0.929 . S
H484 C489 0.931 . S
H485 C490 0.930 . S
N486 Gd466 2.622 . S
N486 C487 1.369 . S
N486 C488 1.338 . S
C487 N486 1.369 . S
C487 C491 1.415 . S
C487 C494 1.422 . S
C488 H479 0.929 . S
C488 N486 1.338 . S
C488 C490 1.378 . S
C489 H484 0.931 . S
C489 C490 1.348 . S
C489 C491 1.413 . S
C490 H485 0.930 . S
C490 C488 1.378 . S
C490 C489 1.348 . S
C491 C487 1.415 . S
C491 C489 1.413 . S
C491 C521 1.437 . S
H492 C521 0.929 . S
N493 Gd466 2.570 . S
N493 C494 1.359 . S
N493 C497 1.343 . S
C494 C487 1.422 . S
C494 N493 1.359 . S
C494 C496 1.421 . S
C495 C496 1.422 . S
C495 C498 1.321 . S
C495 H522 0.931 . S
C496 C494 1.421 . S
C496 C495 1.422 . S
C496 C520 1.417 . S
C497 H474 0.931 . S
C497 N493 1.343 . S
C497 C498 1.390 . S
C498 H476 0.930 . S
C498 C495 1.321 . S
C498 C497 1.390 . S
O499 Gd467 2.386 . S
O499 C511 1.265 . S
O500 Gd466 2.353 . S
O500 C511 1.242 . S
O501 Gd466 2.468 . S
O501 C519 1.263 . S
O502 Gd466 2.427 . S
O502 C519 1.252 . S
O503 Gd467 2.307 . S
O503 C512 1.261 . S
O504 Gd466 2.388 . S
O504 C512 1.252 . S
O505 Gd466 2.386 . S
O505 C523 1.265 . S
O506 Gd467 2.353 . S
O506 C523 1.242 . S
O507 Gd467 2.468 . S
O507 C531 1.263 . S
O508 Gd467 2.427 . S
O508 C531 1.252 . S
O509 Gd466 2.307 . S
O509 C524 1.261 . S
O510 Gd467 2.388 . S
O510 C524 1.252 . S
C511 O499 1.265 . S
C511 O500 1.242 . S
C512 O503 1.261 . S
C512 O504 1.252 . S
C513 C516 1.394 . S
C513 C518 1.370 . S
C513 C519 1.500 . S
C514 C517 1.383 . S
C514 C518 1.395 . S
C515 C516 1.396 . S
C515 C517 1.365 . S
C515 H532 0.929 . S
C516 C513 1.394 . S
C516 C515 1.396 . S
C516 H533 0.930 . S
C517 C514 1.383 . S
C517 C515 1.365 . S
C517 H534 0.931 . S
C518 C513 1.370 . S
C518 C514 1.395 . S
C518 H535 0.930 . S
C519 Gd466 2.805 . S
C519 O501 1.263 . S
C519 O502 1.252 . S
C519 C513 1.500 . S
C520 H482 0.930 . S
C520 C496 1.417 . S
C520 C521 1.329 . S
C521 C491 1.437 . S
C521 H492 0.929 . S
C521 C520 1.329 . S
H522 C495 0.931 . S
C523 O505 1.265 . S
C523 O506 1.242 . S
C524 O509 1.261 . S
C524 O510 1.252 . S
C525 C528 1.394 . S
C525 C530 1.370 . S
C525 C531 1.500 . S
C526 C529 1.383 . S
C526 C530 1.395 . S
C527 C528 1.396 . S
C527 C529 1.365 . S
C527 H536 0.929 . S
C528 C525 1.394 . S
C528 C527 1.396 . S
C528 H537 0.930 . S
C529 C526 1.383 . S
C529 C527 1.365 . S
C529 H538 0.931 . S
C530 C525 1.370 . S
C530 C526 1.395 . S
C530 H539 0.930 . S
C531 Gd467 2.805 . S
C531 O507 1.263 . S
C531 O508 1.252 . S
C531 C525 1.500 . S
H532 C515 0.929 . S
H533 C516 0.930 . S
H534 C517 0.931 . S
H535 C518 0.930 . S
H536 C527 0.929 . S
H537 C528 0.930 . S
H538 C529 0.931 . S
H539 C530 0.930 . S
C540 C542 1.422 . S
C540 C544 1.415 . S
C540 N546 1.369 1_455 S
C541 C542 1.421 . S
C541 C543 1.417 . S
C541 C553 1.422 . S
C542 C540 1.422 . S
C542 C541 1.421 . S
C542 N552 1.359 . S
C543 C541 1.417 . S
C543 C545 1.329 . S
C543 H562 0.930 . S
C544 C540 1.415 . S
C544 C545 1.437 . S
C544 C548 1.413 . S
C545 C543 1.329 . S
C545 C544 1.437 . S
C545 H567 0.929 . S
N546 C540 1.369 1_655 S
N546 C547 1.338 . S
N546 Gd551 2.622 . S
C547 N546 1.338 . S
C547 C549 1.378 1_655 S
C547 H559 0.929 . S
C548 C544 1.413 . S
C548 C549 1.348 . S
C548 H564 0.931 . S
C549 C547 1.378 1_455 S
C549 C548 1.348 . S
C549 H565 0.930 1_455 S
Gd550 N570 2.622 . S
Gd550 N577 2.570 . S
Gd550 O584 2.353 . S
Gd550 O585 2.468 . S
Gd550 O586 2.427 . S
Gd550 O588 2.388 . S
Gd550 O589 2.386 1_455 S
Gd550 O593 2.307 . S
Gd550 C603 2.805 . S
Gd551 N546 2.622 . S
Gd551 N552 2.570 1_655 S
Gd551 O583 2.386 1_655 S
Gd551 O587 2.296 1_655 S
Gd551 O590 2.353 . S
Gd551 O591 2.468 . S
Gd551 O592 2.427 . S
Gd551 O594 2.388 . S
Gd551 C615 2.805 . S
N552 C542 1.359 . S
N552 Gd551 2.570 1_455 S
N552 C554 1.343 . S
C553 C541 1.422 . S
C553 C555 1.321 . S
C553 H561 0.931 . S
C554 N552 1.343 . S
C554 C555 1.390 . S
C554 H556 0.915 1_455 S
C555 C553 1.321 . S
C555 C554 1.390 . S
C555 H557 0.930 . S
H556 C554 0.915 1_655 S
H557 C555 0.930 . S
H558 C581 0.931 . S
H559 C547 0.929 . S
H560 C582 0.932 . S
H561 C553 0.931 . S
H562 C543 0.930 . S
H563 C572 0.929 . S
H564 C548 0.931 . S
H565 C549 0.930 1_655 S
H566 C604 0.930 . S
H567 C545 0.929 . S
H568 C573 0.931 1_655 S
H569 C574 0.930 . S
N570 Gd550 2.622 . S
N570 C571 1.369 . S
N570 C572 1.338 . S
C571 N570 1.369 . S
C571 C575 1.410 1_455 S
C571 C578 1.422 . S
C572 H563 0.929 . S
C572 N570 1.338 . S
C572 C574 1.378 . S
C573 H568 0.931 1_455 S
C573 C574 1.348 . S
C573 C575 1.412 1_455 S
C574 H569 0.930 . S
C574 C572 1.378 . S
C574 C573 1.348 . S
C575 C571 1.410 1_655 S
C575 C573 1.412 1_655 S
C575 C605 1.444 . S
H576 C605 0.929 . S
N577 Gd550 2.570 . S
N577 C578 1.359 . S
N577 C581 1.343 . S
C578 C571 1.422 . S
C578 N577 1.359 . S
C578 C580 1.421 1_455 S
C579 C580 1.422 . S
C579 C582 1.328 . S
C579 H606 0.931 . S
C580 C578 1.421 1_655 S
C580 C579 1.422 . S
C580 C604 1.417 . S
C581 H558 0.931 . S
C581 N577 1.343 . S
C581 C582 1.381 1_455 S
C582 H560 0.932 . S
C582 C579 1.328 . S
C582 C581 1.381 1_655 S
O583 Gd551 2.386 1_455 S
O583 C595 1.265 . S
O584 Gd550 2.353 . S
O584 C595 1.242 . S
O585 Gd550 2.468 . S
O585 C603 1.263 . S
O586 Gd550 2.427 . S
O586 C603 1.252 . S
O587 Gd551 2.296 1_455 S
O587 C596 1.270 . S
O588 Gd550 2.388 . S
O588 C596 1.252 . S
O589 Gd550 2.386 1_655 S
O589 C607 1.265 . S
O590 Gd551 2.353 . S
O590 C607 1.242 . S
O591 Gd551 2.468 . S
O591 C615 1.263 . S
O592 Gd551 2.427 . S
O592 C615 1.252 . S
O593 Gd550 2.307 . S
O593 C608 1.261 . S
O594 Gd551 2.388 . S
O594 C608 1.252 1_655 S
C595 O583 1.265 . S
C595 O584 1.242 . S
C596 O587 1.270 . S
C596 O588 1.252 . S
C597 C600 1.394 . S
C597 C602 1.370 . S
C597 C603 1.500 . S
C598 C601 1.383 . S
C598 C602 1.395 . S
C599 C600 1.396 . S
C599 C601 1.365 . S
C599 H616 0.929 . S
C600 C597 1.394 . S
C600 C599 1.396 . S
C600 H617 0.930 . S
C601 C598 1.383 . S
C601 C599 1.365 . S
C601 H618 0.931 . S
C602 C597 1.370 . S
C602 C598 1.395 . S
C602 H619 0.930 . S
C603 Gd550 2.805 . S
C603 O585 1.263 . S
C603 O586 1.252 . S
C603 C597 1.500 . S
C604 H566 0.930 . S
C604 C580 1.417 . S
C604 C605 1.329 . S
C605 C575 1.444 . S
C605 H576 0.929 . S
C605 C604 1.329 . S
H606 C579 0.931 . S
C607 O589 1.265 . S
C607 O590 1.242 . S
C608 O593 1.261 . S
C608 O594 1.252 1_455 S
C609 C612 1.394 . S
C609 C614 1.370 . S
C609 C615 1.500 . S
C610 C613 1.383 . S
C610 C614 1.395 . S
C611 C612 1.396 . S
C611 C613 1.365 . S
C611 H620 0.929 . S
C612 C609 1.394 . S
C612 C611 1.396 . S
C612 H621 0.930 . S
C613 C610 1.383 . S
C613 C611 1.365 . S
C613 H622 0.931 . S
C614 C609 1.370 . S
C614 C610 1.395 . S
C614 H623 0.930 . S
C615 Gd551 2.805 . S
C615 O591 1.263 . S
C615 O592 1.252 . S
C615 C609 1.500 . S
H616 C599 0.929 . S
H617 C600 0.930 . S
H618 C601 0.931 . S
H619 C602 0.930 . S
H620 C611 0.929 . S
H621 C612 0.930 . S
H622 C613 0.931 . S
H623 C614 0.930 . S
H624 C642 0.951 . S
H625 C644 0.951 . S
H626 C646 0.950 . S
H627 C647 0.950 . S
H628 C649 0.950 . S
H629 C652 0.950 . S
H630 C653 0.950 . S
H631 C655 0.950 . S
H632 C656 0.950 . S
H633 C657 0.951 1_565 S
H634 C659 0.951 . S
H635 C661 0.950 . S
H636 C662 0.950 . S
H637 C664 0.950 . S
H638 C667 0.950 . S
H639 C668 0.950 . S
H640 C670 0.950 . S
H641 C671 0.950 . S
C642 H624 0.951 . S
C642 C643 1.366 . S
C642 C644 1.388 . S
C643 C642 1.366 . S
C643 C647 1.385 . S
C644 H625 0.951 . S
C644 C642 1.388 . S
C644 C645 1.366 . S
C645 C644 1.366 . S
C645 C646 1.414 . S
C645 C648 1.499 . S
C646 H626 0.950 . S
C646 C645 1.414 . S
C646 C647 1.374 . S
C647 H627 0.950 . S
C647 C643 1.385 . S
C647 C646 1.374 . S
C648 C645 1.499 . S
C648 C649 1.373 . S
C648 C650 1.389 . S
C649 H628 0.950 . S
C649 C648 1.373 . S
C649 C665 1.377 . S
C650 C648 1.389 . S
C650 C651 1.524 . S
C650 C664 1.377 . S
C651 C650 1.524 . S
C651 C652 1.397 . S
C651 C656 1.363 . S
C652 H629 0.950 . S
C652 C651 1.397 . S
C652 C653 1.334 . S
C653 H630 0.950 . S
C653 C652 1.334 . S
C653 C654 1.287 . S
C654 C653 1.287 . S
C654 C655 1.524 . S
C654 H673 0.913 . S
C655 H631 0.950 . S
C655 C654 1.524 . S
C655 C656 1.415 . S
C656 H632 0.950 . S
C656 C651 1.363 . S
C656 C655 1.415 . S
C657 H633 0.951 1_545 S
C657 C658 1.366 . S
C657 C659 1.388 . S
C658 C657 1.366 . S
C658 C662 1.385 . S
C659 H634 0.951 . S
C659 C657 1.388 . S
C659 C660 1.366 . S
C660 C659 1.366 . S
C660 C661 1.414 . S
C660 C663 1.499 . S
C661 H635 0.950 . S
C661 C660 1.414 . S
C661 C662 1.374 . S
C662 H636 0.950 . S
C662 C658 1.385 . S
C662 C661 1.374 . S
C663 C660 1.499 . S
C663 C664 1.373 . S
C663 C665 1.389 . S
C664 H637 0.950 . S
C664 C650 1.377 . S
C664 C663 1.373 . S
C665 C649 1.377 . S
C665 C663 1.389 . S
C665 C666 1.524 . S
C666 C665 1.524 . S
C666 C667 1.397 . S
C666 C671 1.363 . S
C667 H638 0.950 . S
C667 C666 1.397 . S
C667 C668 1.334 . S
C668 H639 0.950 . S
C668 C667 1.334 . S
C668 C669 1.287 . S
C669 C668 1.287 . S
C669 C670 1.524 . S
C669 H672 0.999 . S
C670 H640 0.950 . S
C670 C669 1.524 . S
C670 C671 1.415 . S
C671 H641 0.950 . S
C671 C666 1.363 . S
C671 C670 1.415 . S
H672 C669 0.999 . S
H673 C654 0.913 . S
H674 C692 0.951 . S
H675 C694 0.951 . S
H676 C696 0.950 . S
H677 C697 0.950 . S
H678 C699 0.950 . S
H679 C702 0.950 . S
H680 C703 0.950 . S
H681 C705 0.950 . S
H682 C706 0.950 . S
H683 C707 0.951 . S
H684 C709 0.951 . S
H685 C711 0.950 . S
H686 C712 0.950 . S
H687 C714 0.950 . S
H688 C717 0.950 . S
H689 C718 0.950 . S
H690 C720 0.950 . S
H691 C721 0.950 . S
C692 H674 0.951 . S
C692 C693 1.366 . S
C692 C694 1.388 . S
C693 C692 1.366 . S
C693 C697 1.385 . S
C694 H675 0.951 . S
C694 C692 1.388 . S
C694 C695 1.366 . S
C695 C694 1.366 . S
C695 C696 1.414 . S
C695 C698 1.499 . S
C696 H676 0.950 . S
C696 C695 1.414 . S
C696 C697 1.374 . S
C697 H677 0.950 . S
C697 C693 1.385 . S
C697 C696 1.374 . S
C698 C695 1.499 . S
C698 C699 1.373 . S
C698 C700 1.389 . S
C699 H678 0.950 . S
C699 C698 1.373 . S
C699 C715 1.377 . S
C700 C698 1.389 . S
C700 C701 1.524 . S
C700 C714 1.377 . S
C701 C700 1.524 . S
C701 C702 1.397 . S
C701 C706 1.363 . S
C702 H679 0.950 . S
C702 C701 1.397 . S
C702 C703 1.334 . S
C703 H680 0.950 . S
C703 C702 1.334 . S
C703 C704 1.287 . S
C704 C703 1.287 . S
C704 C705 1.524 . S
C704 H723 0.913 . S
C705 H681 0.950 . S
C705 C704 1.524 . S
C705 C706 1.415 . S
C706 H682 0.950 . S
C706 C701 1.363 . S
C706 C705 1.415 . S
C707 H683 0.951 . S
C707 C708 1.366 . S
C707 C709 1.388 . S
C708 C707 1.366 . S
C708 C712 1.385 . S
C709 H684 0.951 . S
C709 C707 1.388 . S
C709 C710 1.366 . S
C710 C709 1.366 . S
C710 C711 1.414 . S
C710 C713 1.499 . S
C711 H685 0.950 . S
C711 C710 1.414 . S
C711 C712 1.374 . S
C712 H686 0.950 . S
C712 C708 1.385 . S
C712 C711 1.374 . S
C713 C710 1.499 . S
C713 C714 1.373 . S
C713 C715 1.389 . S
C714 H687 0.950 . S
C714 C700 1.377 . S
C714 C713 1.373 . S
C715 C699 1.377 . S
C715 C713 1.389 . S
C715 C716 1.524 . S
C716 C715 1.524 . S
C716 C717 1.397 . S
C716 C721 1.363 . S
C717 H688 0.950 . S
C717 C716 1.397 . S
C717 C718 1.334 . S
C718 H689 0.950 . S
C718 C717 1.334 . S
C718 C719 1.287 . S
C719 C718 1.287 . S
C719 C720 1.524 . S
C719 H722 0.999 . S
C720 H690 0.950 . S
C720 C719 1.524 . S
C720 C721 1.415 . S
C721 H691 0.950 . S
C721 C716 1.363 . S
C721 C720 1.415 . S
H722 C719 0.999 . S
H723 C704 0.913 . S
H724 C742 0.951 . S
H725 C744 0.951 . S
H726 C746 0.950 . S
H727 C747 0.950 . S
H728 C749 0.950 . S
H729 C752 0.950 . S
H730 C753 0.950 . S
H731 C755 0.950 . S
H732 C756 0.950 . S
H733 C757 0.951 . S
H734 C759 0.951 . S
H735 C761 0.950 . S
H736 C762 0.950 . S
H737 C764 0.950 . S
H738 C767 0.950 . S
H739 C768 0.950 . S
H740 C770 0.950 . S
H741 C771 0.950 . S
C742 H724 0.951 . S
C742 C743 1.366 . S
C742 C744 1.388 . S
C743 C742 1.366 . S
C743 C747 1.385 . S
C744 H725 0.951 . S
C744 C742 1.388 . S
C744 C745 1.366 . S
C745 C744 1.366 . S
C745 C746 1.414 . S
C745 C748 1.499 . S
C746 H726 0.950 . S
C746 C745 1.414 . S
C746 C747 1.374 . S
C747 H727 0.950 . S
C747 C743 1.385 . S
C747 C746 1.374 . S
C748 C745 1.499 . S
C748 C749 1.373 . S
C748 C750 1.389 . S
C749 H728 0.950 . S
C749 C748 1.373 . S
C749 C765 1.377 . S
C750 C748 1.389 . S
C750 C751 1.524 . S
C750 C764 1.377 . S
C751 C750 1.524 . S
C751 C752 1.397 . S
C751 C756 1.363 . S
C752 H729 0.950 . S
C752 C751 1.397 . S
C752 C753 1.334 . S
C753 H730 0.950 . S
C753 C752 1.334 . S
C753 C754 1.287 . S
C754 C753 1.287 . S
C754 C755 1.524 . S
C754 H773 0.913 . S
C755 H731 0.950 . S
C755 C754 1.524 . S
C755 C756 1.415 . S
C756 H732 0.950 . S
C756 C751 1.363 . S
C756 C755 1.415 . S
C757 H733 0.951 . S
C757 C758 1.366 . S
C757 C759 1.388 . S
C758 C757 1.366 . S
C758 C762 1.385 . S
C759 H734 0.951 . S
C759 C757 1.388 . S
C759 C760 1.366 . S
C760 C759 1.366 . S
C760 C761 1.414 . S
C760 C763 1.499 . S
C761 H735 0.950 . S
C761 C760 1.414 . S
C761 C762 1.374 . S
C762 H736 0.950 . S
C762 C758 1.385 . S
C762 C761 1.374 . S
C763 C760 1.499 . S
C763 C764 1.373 . S
C763 C765 1.389 . S
C764 H737 0.950 . S
C764 C750 1.377 . S
C764 C763 1.373 . S
C765 C749 1.377 . S
C765 C763 1.389 . S
C765 C766 1.524 . S
C766 C765 1.524 . S
C766 C767 1.397 . S
C766 C771 1.363 . S
C767 H738 0.950 . S
C767 C766 1.397 . S
C767 C768 1.334 . S
C768 H739 0.950 . S
C768 C767 1.334 . S
C768 C769 1.287 . S
C769 C768 1.287 . S
C769 C770 1.524 . S
C769 H772 0.999 . S
C770 H740 0.950 . S
C770 C769 1.524 . S
C770 C771 1.415 . S
C771 H741 0.950 . S
C771 C766 1.363 . S
C771 C770 1.415 . S
H772 C769 0.999 . S
H773 C754 0.913 . S
H774 C792 0.951 . S
H775 C794 0.951 . S
H776 C796 0.950 . S
H777 C797 0.950 . S
H778 C799 0.950 . S
H779 C802 0.950 . S
H780 C803 0.950 . S
H781 C805 0.950 . S
H782 C806 0.950 1_455 S
H783 C807 0.951 . S
H784 C809 0.951 . S
H785 C811 0.950 . S
H786 C812 0.950 . S
H787 C814 0.950 . S
H788 C817 0.950 . S
H789 C818 0.950 . S
H790 C820 0.950 . S
H791 C821 0.950 . S
C792 H774 0.951 . S
C792 C793 1.366 . S
C792 C794 1.388 . S
C793 C792 1.366 . S
C793 C797 1.385 . S
C794 H775 0.951 . S
C794 C792 1.388 . S
C794 C795 1.366 . S
C795 C794 1.366 . S
C795 C796 1.414 . S
C795 C798 1.499 . S
C796 H776 0.950 . S
C796 C795 1.414 . S
C796 C797 1.374 . S
C797 H777 0.950 . S
C797 C793 1.385 . S
C797 C796 1.374 . S
C798 C795 1.499 . S
C798 C799 1.373 . S
C798 C800 1.389 . S
C799 H778 0.950 . S
C799 C798 1.373 . S
C799 C815 1.377 . S
C800 C798 1.389 . S
C800 C801 1.524 . S
C800 C814 1.377 . S
C801 C800 1.524 . S
C801 C802 1.397 1_455 S
C801 C806 1.363 1_455 S
C802 H779 0.950 . S
C802 C801 1.397 1_655 S
C802 C803 1.334 . S
C803 H780 0.950 . S
C803 C802 1.334 . S
C803 C804 1.287 . S
C804 C803 1.287 . S
C804 C805 1.524 . S
C804 H823 0.913 . S
C805 H781 0.950 . S
C805 C804 1.524 . S
C805 C806 1.415 . S
C806 H782 0.950 1_655 S
C806 C801 1.363 1_655 S
C806 C805 1.415 . S
C807 H783 0.951 . S
C807 C808 1.366 . S
C807 C809 1.388 . S
C808 C807 1.366 . S
C808 C812 1.385 . S
C809 H784 0.951 . S
C809 C807 1.388 . S
C809 C810 1.366 . S
C810 C809 1.366 . S
C810 C811 1.414 . S
C810 C813 1.499 . S
C811 H785 0.950 . S
C811 C810 1.414 . S
C811 C812 1.374 . S
C812 H786 0.950 . S
C812 C808 1.385 . S
C812 C811 1.374 . S
C813 C810 1.499 . S
C813 C814 1.373 . S
C813 C815 1.389 . S
C814 H787 0.950 . S
C814 C800 1.377 . S
C814 C813 1.373 . S
C815 C799 1.377 . S
C815 C813 1.389 . S
C815 C816 1.524 . S
C816 C815 1.524 . S
C816 C817 1.397 . S
C816 C821 1.363 . S
C817 H788 0.950 . S
C817 C816 1.397 . S
C817 C818 1.334 . S
C818 H789 0.950 . S
C818 C817 1.334 . S
C818 C819 1.287 . S
C819 C818 1.287 . S
C819 C820 1.524 . S
C819 H822 0.999 . S
C820 H790 0.950 . S
C820 C819 1.524 . S
C820 C821 1.415 . S
C821 H791 0.950 . S
C821 C816 1.363 . S
C821 C820 1.415 . S
H822 C819 0.999 . S
H823 C804 0.913 . S
H824 C842 0.951 . S
H825 C844 0.951 . S
H826 C846 0.950 1_556 S
H827 C847 0.950 . S
H828 C849 0.950 . S
H829 C852 0.950 . S
H830 C853 0.950 . S
H831 C855 0.950 . S
H832 C856 0.950 . S
H833 C857 0.951 . S
H834 C859 0.951 . S
H835 C861 0.950 . S
H836 C862 0.950 . S
H837 C864 0.950 . S
H838 C867 0.950 . S
H839 C868 0.950 . S
H840 C870 0.950 . S
H841 C871 0.950 . S
C842 H824 0.951 . S
C842 C843 1.366 . S
C842 C844 1.388 . S
C843 C842 1.366 . S
C843 C847 1.385 . S
C844 H825 0.951 . S
C844 C842 1.388 . S
C844 C845 1.366 1_554 S
C845 C844 1.366 1_556 S
C845 C846 1.414 1_556 S
C845 C848 1.499 . S
C846 H826 0.950 1_554 S
C846 C845 1.414 1_554 S
C846 C847 1.374 . S
C847 H827 0.950 . S
C847 C843 1.385 . S
C847 C846 1.374 . S
C848 C845 1.499 . S
C848 C849 1.373 . S
C848 C850 1.389 . S
C849 H828 0.950 . S
C849 C848 1.373 . S
C849 C865 1.377 . S
C850 C848 1.389 . S
C850 C851 1.524 . S
C850 C864 1.377 . S
C851 C850 1.524 . S
C851 C852 1.397 1_556 S
C851 C856 1.363 . S
C852 H829 0.950 . S
C852 C851 1.397 1_554 S
C852 C853 1.334 . S
C853 H830 0.950 . S
C853 C852 1.334 . S
C853 C854 1.287 . S
C854 C853 1.287 . S
C854 C855 1.524 . S
C854 H873 0.913 . S
C855 H831 0.950 . S
C855 C854 1.524 . S
C855 C856 1.415 1_554 S
C856 H832 0.950 . S
C856 C851 1.363 . S
C856 C855 1.415 1_556 S
C857 H833 0.951 . S
C857 C858 1.366 1_545 S
C857 C859 1.388 . S
C858 C857 1.366 1_565 S
C858 C862 1.385 . S
C859 H834 0.951 . S
C859 C857 1.388 . S
C859 C860 1.366 1_545 S
C860 C859 1.366 1_565 S
C860 C861 1.414 . S
C860 C863 1.499 . S
C861 H835 0.950 . S
C861 C860 1.414 . S
C861 C862 1.374 . S
C862 H836 0.950 . S
C862 C858 1.385 . S
C862 C861 1.374 . S
C863 C860 1.499 . S
C863 C864 1.373 . S
C863 C865 1.389 . S
C864 H837 0.950 . S
C864 C850 1.377 . S
C864 C863 1.373 . S
C865 C849 1.377 . S
C865 C863 1.389 . S
C865 C866 1.524 . S
C866 C865 1.524 . S
C866 C867 1.397 . S
C866 C871 1.363 1_565 S
C867 H838 0.950 . S
C867 C866 1.397 . S
C867 C868 1.334 . S
C868 H839 0.950 . S
C868 C867 1.334 . S
C868 C869 1.288 . S
C869 C868 1.288 . S
C869 C870 1.523 1_565 S
C869 H872 0.999 1_565 S
C870 H840 0.950 . S
C870 C869 1.523 1_545 S
C870 C871 1.415 . S
C871 H841 0.950 . S
C871 C866 1.363 1_545 S
C871 C870 1.415 . S
H872 C869 0.999 1_545 S
H873 C854 0.913 . S
H874 C892 0.951 . S
H875 C894 0.951 1_556 S
H876 C896 0.950 . S
H877 C897 0.950 . S
H878 C899 0.950 . S
H879 C902 0.950 . S
H880 C903 0.950 . S
H881 C905 0.950 . S
H882 C906 0.950 . S
H883 C907 0.951 . S
H884 C909 0.951 . S
H885 C911 0.950 . S
H886 C912 0.950 . S
H887 C914 0.950 . S
H888 C917 0.950 . S
H889 C918 0.950 . S
H890 C920 0.950 . S
H891 C921 0.950 . S
C892 H874 0.951 . S
C892 C893 1.366 . S
C892 C894 1.388 . S
C893 C892 1.366 . S
C893 C897 1.385 . S
C894 H875 0.951 1_554 S
C894 C892 1.388 . S
C894 C895 1.366 1_554 S
C895 C894 1.366 1_556 S
C895 C896 1.414 1_556 S
C895 C898 1.499 . S
C896 H876 0.950 . S
C896 C895 1.414 1_554 S
C896 C897 1.374 . S
C897 H877 0.950 . S
C897 C893 1.385 . S
C897 C896 1.374 . S
C898 C895 1.499 . S
C898 C899 1.373 . S
C898 C900 1.389 . S
C899 H878 0.950 . S
C899 C898 1.373 . S
C899 C915 1.377 . S
C900 C898 1.389 . S
C900 C901 1.524 . S
C900 C914 1.377 . S
C901 C900 1.524 . S
C901 C902 1.397 . S
C901 C906 1.363 . S
C902 H879 0.950 . S
C902 C901 1.397 . S
C902 C903 1.334 . S
C903 H880 0.950 . S
C903 C902 1.334 . S
C903 C904 1.287 . S
C904 C903 1.287 . S
C904 C905 1.524 . S
C904 H923 0.913 . S
C905 H881 0.950 . S
C905 C904 1.524 . S
C905 C906 1.415 . S
C906 H882 0.950 . S
C906 C901 1.363 . S
C906 C905 1.415 . S
C907 H883 0.951 . S
C907 C908 1.366 . S
C907 C909 1.388 . S
C908 C907 1.366 . S
C908 C912 1.385 . S
C909 H884 0.951 . S
C909 C907 1.388 . S
C909 C910 1.366 . S
C910 C909 1.366 . S
C910 C911 1.414 . S
C910 C913 1.499 . S
C911 H885 0.950 . S
C911 C910 1.414 . S
C911 C912 1.374 . S
C912 H886 0.950 . S
C912 C908 1.385 . S
C912 C911 1.374 . S
C913 C910 1.499 . S
C913 C914 1.373 . S
C913 C915 1.389 . S
C914 H887 0.950 . S
C914 C900 1.377 . S
C914 C913 1.373 . S
C915 C899 1.377 . S
C915 C913 1.389 . S
C915 C916 1.524 . S
C916 C915 1.524 . S
C916 C917 1.397 . S
C916 C921 1.363 . S
C917 H888 0.950 . S
C917 C916 1.397 . S
C917 C918 1.334 . S
C918 H889 0.950 . S
C918 C917 1.334 . S
C918 C919 1.287 . S
C919 C918 1.287 . S
C919 C920 1.524 . S
C919 H922 0.999 1_565 S
C920 H890 0.950 . S
C920 C919 1.524 . S
C920 C921 1.415 . S
C921 H891 0.950 . S
C921 C916 1.363 . S
C921 C920 1.415 . S
H922 C919 0.999 1_545 S
H923 C904 0.913 . S
H924 C942 0.951 . S
H925 C944 0.951 1_556 S
H926 C946 0.950 . S
H927 C947 0.950 . S
H928 C949 0.950 . S
H929 C952 0.950 . S
H930 C953 0.950 . S
H931 C955 0.950 . S
H932 C956 0.950 . S
H933 C957 0.951 . S
H934 C959 0.951 . S
H935 C961 0.950 . S
H936 C962 0.950 . S
H937 C964 0.950 . S
H938 C967 0.950 . S
H939 C968 0.950 . S
H940 C970 0.950 . S
H941 C971 0.950 . S
C942 H924 0.951 . S
C942 C943 1.366 . S
C942 C944 1.388 . S
C943 C942 1.366 . S
C943 C947 1.385 . S
C944 H925 0.951 1_554 S
C944 C942 1.388 . S
C944 C945 1.366 1_554 S
C945 C944 1.366 1_556 S
C945 C946 1.414 1_556 S
C945 C948 1.499 . S
C946 H926 0.950 . S
C946 C945 1.414 1_554 S
C946 C947 1.374 . S
C947 H927 0.950 . S
C947 C943 1.385 . S
C947 C946 1.374 . S
C948 C945 1.499 . S
C948 C949 1.373 . S
C948 C950 1.389 . S
C949 H928 0.950 . S
C949 C948 1.373 . S
C949 C965 1.377 . S
C950 C948 1.389 . S
C950 C951 1.524 . S
C950 C964 1.377 . S
C951 C950 1.524 . S
C951 C952 1.397 1_556 S
C951 C956 1.363 . S
C952 H929 0.950 . S
C952 C951 1.397 1_554 S
C952 C953 1.334 . S
C953 H930 0.950 . S
C953 C952 1.334 . S
C953 C954 1.287 . S
C954 C953 1.287 . S
C954 C955 1.524 1_554 S
C954 H973 0.913 . S
C955 H931 0.950 . S
C955 C954 1.524 1_556 S
C955 C956 1.415 . S
C956 H932 0.950 . S
C956 C951 1.363 . S
C956 C955 1.415 . S
C957 H933 0.951 . S
C957 C958 1.366 . S
C957 C959 1.388 . S
C958 C957 1.366 . S
C958 C962 1.385 . S
C959 H934 0.951 . S
C959 C957 1.388 . S
C959 C960 1.366 . S
C960 C959 1.366 . S
C960 C961 1.414 . S
C960 C963 1.499 . S
C961 H935 0.950 . S
C961 C960 1.414 . S
C961 C962 1.374 . S
C962 H936 0.950 . S
C962 C958 1.385 . S
C962 C961 1.374 . S
C963 C960 1.499 . S
C963 C964 1.373 . S
C963 C965 1.389 . S
C964 H937 0.950 . S
C964 C950 1.377 . S
C964 C963 1.373 . S
C965 C949 1.377 . S
C965 C963 1.389 . S
C965 C966 1.524 . S
C966 C965 1.524 . S
C966 C967 1.397 . S
C966 C971 1.363 . S
C967 H938 0.950 . S
C967 C966 1.397 . S
C967 C968 1.334 . S
C968 H939 0.950 . S
C968 C967 1.334 . S
C968 C969 1.287 . S
C969 C968 1.287 . S
C969 C970 1.524 . S
C969 H972 0.999 . S
C970 H940 0.950 . S
C970 C969 1.524 . S
C970 C971 1.415 . S
C971 H941 0.950 . S
C971 C966 1.363 . S
C971 C970 1.415 . S
H972 C969 0.999 . S
H973 C954 0.913 . S
H974 C992 0.951 . S
H975 C994 0.947 1_455 S
H976 C996 0.950 . S
H977 C997 0.950 . S
H978 C999 0.950 . S
H979 C1002 0.950 1_655 S
H980 C1003 0.950 . S
H981 C1005 0.950 . S
H982 C1006 0.950 . S
H983 C1007 0.951 . S
H984 C1009 0.951 . S
H985 C1011 0.950 . S
H986 C1012 0.950 . S
H987 C1014 0.907 1_455 S
H988 C1017 0.950 . S
H989 C1018 0.950 . S
H990 C1020 0.950 . S
H991 C1021 0.950 . S
C992 H974 0.951 . S
C992 C993 1.366 . S
C992 C994 1.388 . S
C993 C992 1.366 . S
C993 C997 1.385 . S
C994 H975 0.947 1_655 S
C994 C992 1.388 . S
C994 C995 1.366 1_554 S
C995 C994 1.366 1_556 S
C995 C996 1.414 . S
C995 C998 1.499 . S
C996 H976 0.950 . S
C996 C995 1.414 . S
C996 C997 1.374 1_556 S
C997 H977 0.950 . S
C997 C993 1.385 . S
C997 C996 1.374 1_554 S
C998 C995 1.499 . S
C998 C999 1.373 . S
C998 C1000 1.389 . S
C999 H978 0.950 . S
C999 C998 1.373 . S
C999 C1015 1.377 . S
C1000 C998 1.389 . S
C1000 C1001 1.524 1_655 S
C1000 C1014 1.387 . S
C1001 C1000 1.524 1_455 S
C1001 C1002 1.397 . S
C1001 C1006 1.363 . S
C1002 H979 0.950 1_455 S
C1002 C1001 1.397 . S
C1002 C1003 1.334 . S
C1003 H980 0.950 . S
C1003 C1002 1.334 . S
C1003 C1004 1.287 . S
C1004 C1003 1.287 . S
C1004 C1005 1.524 . S
C1004 H1023 0.913 . S
C1005 H981 0.950 . S
C1005 C1004 1.524 . S
C1005 C1006 1.415 . S
C1006 H982 0.950 . S
C1006 C1001 1.363 . S
C1006 C1005 1.415 . S
C1007 H983 0.951 . S
C1007 C1008 1.366 . S
C1007 C1009 1.388 . S
C1008 C1007 1.366 . S
C1008 C1012 1.385 1_655 S
C1009 H984 0.951 . S
C1009 C1007 1.388 . S
C1009 C1010 1.366 . S
C1010 C1009 1.366 . S
C1010 C1011 1.414 1_655 S
C1010 C1013 1.499 . S
C1011 H985 0.950 . S
C1011 C1010 1.414 1_455 S
C1011 C1012 1.374 . S
C1012 H986 0.950 . S
C1012 C1008 1.385 1_455 S
C1012 C1011 1.374 . S
C1013 C1010 1.499 . S
C1013 C1014 1.408 . S
C1013 C1015 1.389 . S
C1014 H987 0.907 1_655 S
C1014 C1000 1.387 . S
C1014 C1013 1.408 . S
C1015 C999 1.377 . S
C1015 C1013 1.389 . S
C1015 C1016 1.524 . S
C1016 C1015 1.524 . S
C1016 C1017 1.397 . S
C1016 C1021 1.363 . S
C1017 H988 0.950 . S
C1017 C1016 1.397 . S
C1017 C1018 1.334 . S
C1018 H989 0.950 . S
C1018 C1017 1.334 . S
C1018 C1019 1.287 . S
C1019 C1018 1.287 . S
C1019 C1020 1.524 . S
C1019 H1022 0.999 . S
C1020 H990 0.950 . S
C1020 C1019 1.524 . S
C1020 C1021 1.415 . S
C1021 H991 0.950 . S
C1021 C1016 1.363 . S
C1021 C1020 1.415 . S
H1022 C1019 0.999 . S
H1023 C1004 0.913 . S
H1024 C1042 0.951 . S
H1025 C1044 0.951 . S
H1026 C1046 0.950 . S
H1027 C1047 0.950 . S
H1028 C1049 0.950 . S
H1029 C1052 0.950 . S
H1030 C1053 0.950 . S
H1031 C1055 0.950 . S
H1032 C1056 0.950 . S
H1033 C1057 0.951 . S
H1034 C1059 0.951 . S
H1035 C1061 0.950 . S
H1036 C1062 0.950 . S
H1037 C1064 0.950 1_655 S
H1038 C1067 0.950 . S
H1039 C1068 0.950 . S
H1040 C1070 0.950 . S
H1041 C1071 0.950 . S
C1042 H1024 0.951 . S
C1042 C1043 1.366 . S
C1042 C1044 1.388 . S
C1043 C1042 1.366 . S
C1043 C1047 1.385 . S
C1044 H1025 0.951 . S
C1044 C1042 1.388 . S
C1044 C1045 1.366 . S
C1045 C1044 1.366 . S
C1045 C1046 1.414 . S
C1045 C1048 1.499 . S
C1046 H1026 0.950 . S
C1046 C1045 1.414 . S
C1046 C1047 1.374 . S
C1047 H1027 0.950 . S
C1047 C1043 1.385 . S
C1047 C1046 1.374 . S
C1048 C1045 1.499 . S
C1048 C1049 1.373 . S
C1048 C1050 1.389 . S
C1049 H1028 0.950 . S
C1049 C1048 1.373 . S
C1049 C1065 1.377 . S
C1050 C1048 1.389 . S
C1050 C1051 1.524 . S
C1050 C1064 1.377 . S
C1051 C1050 1.524 . S
C1051 C1052 1.397 . S
C1051 C1056 1.363 1_455 S
C1052 H1029 0.950 . S
C1052 C1051 1.397 . S
C1052 C1053 1.334 . S
C1053 H1030 0.950 . S
C1053 C1052 1.334 . S
C1053 C1054 1.287 1_455 S
C1054 C1053 1.287 1_655 S
C1054 C1055 1.524 . S
C1054 H1073 0.913 . S
C1055 H1031 0.950 . S
C1055 C1054 1.524 . S
C1055 C1056 1.415 . S
C1056 H1032 0.950 . S
C1056 C1051 1.363 1_655 S
C1056 C1055 1.415 . S
C1057 H1033 0.951 . S
C1057 C1058 1.366 . S
C1057 C1059 1.388 . S
C1058 C1057 1.366 . S
C1058 C1062 1.385 1_455 S
C1059 H1034 0.951 . S
C1059 C1057 1.388 . S
C1059 C1060 1.366 . S
C1060 C1059 1.366 . S
C1060 C1061 1.414 1_455 S
C1060 C1063 1.499 . S
C1061 H1035 0.950 . S
C1061 C1060 1.414 1_655 S
C1061 C1062 1.374 . S
C1062 H1036 0.950 . S
C1062 C1058 1.385 1_655 S
C1062 C1061 1.374 . S
C1063 C1060 1.499 . S
C1063 C1064 1.373 . S
C1063 C1065 1.389 . S
C1064 H1037 0.950 1_455 S
C1064 C1050 1.377 . S
C1064 C1063 1.373 . S
C1065 C1049 1.377 . S
C1065 C1063 1.389 . S
C1065 C1066 1.524 . S
C1066 C1065 1.524 . S
C1066 C1067 1.397 . S
C1066 C1071 1.363 . S
C1067 H1038 0.950 . S
C1067 C1066 1.397 . S
C1067 C1068 1.334 . S
C1068 H1039 0.950 . S
C1068 C1067 1.334 . S
C1068 C1069 1.287 . S
C1069 C1068 1.287 . S
C1069 C1070 1.524 . S
C1069 H1072 0.999 . S
C1070 H1040 0.950 . S
C1070 C1069 1.524 . S
C1070 C1071 1.415 . S
C1071 H1041 0.950 . S
C1071 C1066 1.363 . S
C1071 C1070 1.415 . S
H1072 C1069 0.999 . S
H1073 C1054 0.913 . S
H1074 C1092 0.951 . S
H1075 C1094 0.951 . S
H1076 C1096 0.950 . S
H1077 C1097 0.950 . S
H1078 C1099 0.950 . S
H1079 C1102 0.950 . S
H1080 C1103 0.950 . S
H1081 C1105 0.950 . S
H1082 C1106 0.950 . S
H1083 C1107 0.951 . S
H1084 C1109 0.951 . S
H1085 C1111 0.950 . S
H1086 C1112 0.946 1_565 S
H1087 C1114 0.950 . S
H1088 C1117 0.950 . S
H1089 C1118 0.950 . S
H1090 C1120 0.945 1_545 S
H1091 C1121 0.950 . S
C1092 H1074 0.951 . S
C1092 C1093 1.366 . S
C1092 C1094 1.388 . S
C1093 C1092 1.366 . S
C1093 C1097 1.385 . S
C1094 H1075 0.951 . S
C1094 C1092 1.388 . S
C1094 C1095 1.366 . S
C1095 C1094 1.366 . S
C1095 C1096 1.414 . S
C1095 C1098 1.499 . S
C1096 H1076 0.950 . S
C1096 C1095 1.414 . S
C1096 C1097 1.374 . S
C1097 H1077 0.950 . S
C1097 C1093 1.385 . S
C1097 C1096 1.374 . S
C1098 C1095 1.499 . S
C1098 C1099 1.373 . S
C1098 C1100 1.389 . S
C1099 H1078 0.950 . S
C1099 C1098 1.373 . S
C1099 C1115 1.377 . S
C1100 C1098 1.389 . S
C1100 C1101 1.524 . S
C1100 C1114 1.377 . S
C1101 C1100 1.524 . S
C1101 C1102 1.397 . S
C1101 C1106 1.363 . S
C1102 H1079 0.950 . S
C1102 C1101 1.397 . S
C1102 C1103 1.334 . S
C1103 H1080 0.950 . S
C1103 C1102 1.334 . S
C1103 C1104 1.287 . S
C1104 C1103 1.287 . S
C1104 C1105 1.524 . S
C1104 H1123 0.913 . S
C1105 H1081 0.950 . S
C1105 C1104 1.524 . S
C1105 C1106 1.415 . S
C1106 H1082 0.950 . S
C1106 C1101 1.363 . S
C1106 C1105 1.415 . S
C1107 H1083 0.951 . S
C1107 C1108 1.366 . S
C1107 C1109 1.388 . S
C1108 C1107 1.366 . S
C1108 C1112 1.386 . S
C1109 H1084 0.951 . S
C1109 C1107 1.388 . S
C1109 C1110 1.366 . S
C1110 C1109 1.366 . S
C1110 C1111 1.414 . S
C1110 C1113 1.499 . S
C1111 H1085 0.950 . S
C1111 C1110 1.414 . S
C1111 C1112 1.376 . S
C1112 H1086 0.946 1_545 S
C1112 C1108 1.386 . S
C1112 C1111 1.376 . S
C1113 C1110 1.499 . S
C1113 C1114 1.373 . S
C1113 C1115 1.389 . S
C1114 H1087 0.950 . S
C1114 C1100 1.377 . S
C1114 C1113 1.373 . S
C1115 C1099 1.377 . S
C1115 C1113 1.389 . S
C1115 C1116 1.524 . S
C1116 C1115 1.524 . S
C1116 C1117 1.397 1_545 S
C1116 C1121 1.363 . S
C1117 H1088 0.950 . S
C1117 C1116 1.397 1_565 S
C1117 C1118 1.334 . S
C1118 H1089 0.950 . S
C1118 C1117 1.334 . S
C1118 C1119 1.287 . S
C1119 C1118 1.287 . S
C1119 C1120 1.524 . S
C1119 H1122 0.999 . S
C1120 H1090 0.945 1_565 S
C1120 C1119 1.524 . S
C1120 C1121 1.415 1_565 S
C1121 H1091 0.950 . S
C1121 C1116 1.363 . S
C1121 C1120 1.415 1_545 S
H1122 C1119 0.999 . S
H1123 C1104 0.913 . S
H1124 C1142 0.951 . S
H1125 C1144 0.951 . S
H1126 C1146 0.950 . S
H1127 C1147 0.950 . S
H1128 C1149 0.950 . S
H1129 C1152 0.950 . S
H1130 C1153 0.950 . S
H1131 C1155 0.950 . S
H1132 C1156 0.950 . S
H1133 C1157 0.951 . S
H1134 C1159 0.951 . S
H1135 C1161 0.950 . S
H1136 C1162 0.950 . S
H1137 C1164 0.950 . S
H1138 C1167 0.950 . S
H1139 C1168 0.950 . S
H1140 C1170 0.950 . S
H1141 C1171 0.950 . S
C1142 H1124 0.951 . S
C1142 C1143 1.366 . S
C1142 C1144 1.388 . S
C1143 C1142 1.366 . S
C1143 C1147 1.385 . S
C1144 H1125 0.951 . S
C1144 C1142 1.388 . S
C1144 C1145 1.366 . S
C1145 C1144 1.366 . S
C1145 C1146 1.414 . S
C1145 C1148 1.499 . S
C1146 H1126 0.950 . S
C1146 C1145 1.414 . S
C1146 C1147 1.374 . S
C1147 H1127 0.950 . S
C1147 C1143 1.385 . S
C1147 C1146 1.374 . S
C1148 C1145 1.499 . S
C1148 C1149 1.373 . S
C1148 C1150 1.389 . S
C1149 H1128 0.950 . S
C1149 C1148 1.373 . S
C1149 C1165 1.377 . S
C1150 C1148 1.389 . S
C1150 C1151 1.524 . S
C1150 C1164 1.377 . S
C1151 C1150 1.524 . S
C1151 C1152 1.397 . S
C1151 C1156 1.363 . S
C1152 H1129 0.950 . S
C1152 C1151 1.397 . S
C1152 C1153 1.334 . S
C1153 H1130 0.950 . S
C1153 C1152 1.334 . S
C1153 C1154 1.287 . S
C1154 C1153 1.287 . S
C1154 C1155 1.524 . S
C1154 H1173 0.913 . S
C1155 H1131 0.950 . S
C1155 C1154 1.524 . S
C1155 C1156 1.415 . S
C1156 H1132 0.950 . S
C1156 C1151 1.363 . S
C1156 C1155 1.415 . S
C1157 H1133 0.951 . S
C1157 C1158 1.366 . S
C1157 C1159 1.388 . S
C1158 C1157 1.366 . S
C1158 C1162 1.385 . S
C1159 H1134 0.951 . S
C1159 C1157 1.388 . S
C1159 C1160 1.366 . S
C1160 C1159 1.366 . S
C1160 C1161 1.414 . S
C1160 C1163 1.499 . S
C1161 H1135 0.950 . S
C1161 C1160 1.414 . S
C1161 C1162 1.374 . S
C1162 H1136 0.950 . S
C1162 C1158 1.385 . S
C1162 C1161 1.374 . S
C1163 C1160 1.499 . S
C1163 C1164 1.373 . S
C1163 C1165 1.389 . S
C1164 H1137 0.950 . S
C1164 C1150 1.377 . S
C1164 C1163 1.373 . S
C1165 C1149 1.377 . S
C1165 C1163 1.389 . S
C1165 C1166 1.524 . S
C1166 C1165 1.524 . S
C1166 C1167 1.397 . S
C1166 C1171 1.363 . S
C1167 H1138 0.950 . S
C1167 C1166 1.397 . S
C1167 C1168 1.334 . S
C1168 H1139 0.950 . S
C1168 C1167 1.334 . S
C1168 C1169 1.287 . S
C1169 C1168 1.287 . S
C1169 C1170 1.524 . S
C1169 H1172 0.999 . S
C1170 H1140 0.950 . S
C1170 C1169 1.524 . S
C1170 C1171 1.415 . S
C1171 H1141 0.950 . S
C1171 C1166 1.363 . S
C1171 C1170 1.415 . S
H1172 C1169 0.999 . S
H1173 C1154 0.913 . S
H1174 C1192 0.951 . S
H1175 C1194 0.951 . S
H1176 C1196 0.950 . S
H1177 C1197 0.950 . S
H1178 C1199 0.950 . S
H1179 C1202 0.950 . S
H1180 C1203 0.950 . S
H1181 C1205 0.950 . S
H1182 C1206 0.950 . S
H1183 C1207 0.951 . S
H1184 C1209 0.951 . S
H1185 C1211 0.950 . S
H1186 C1212 0.950 . S
H1187 C1214 0.950 . S
H1188 C1217 0.950 . S
H1189 C1218 0.950 . S
H1190 C1220 0.950 . S
H1191 C1221 0.950 . S
C1192 H1174 0.951 . S
C1192 C1193 1.366 . S
C1192 C1194 1.388 . S
C1193 C1192 1.366 . S
C1193 C1197 1.385 . S
C1194 H1175 0.951 . S
C1194 C1192 1.388 . S
C1194 C1195 1.366 . S
C1195 C1194 1.366 . S
C1195 C1196 1.414 . S
C1195 C1198 1.499 . S
C1196 H1176 0.950 . S
C1196 C1195 1.414 . S
C1196 C1197 1.374 . S
C1197 H1177 0.950 . S
C1197 C1193 1.385 . S
C1197 C1196 1.374 . S
C1198 C1195 1.499 . S
C1198 C1199 1.373 . S
C1198 C1200 1.389 . S
C1199 H1178 0.950 . S
C1199 C1198 1.373 . S
C1199 C1215 1.377 . S
C1200 C1198 1.389 . S
C1200 C1201 1.524 . S
C1200 C1214 1.377 . S
C1201 C1200 1.524 . S
C1201 C1202 1.397 . S
C1201 C1206 1.363 . S
C1202 H1179 0.950 . S
C1202 C1201 1.397 . S
C1202 C1203 1.334 . S
C1203 H1180 0.950 . S
C1203 C1202 1.334 . S
C1203 C1204 1.287 . S
C1204 C1203 1.287 . S
C1204 C1205 1.524 . S
C1204 H1223 0.913 . S
C1205 H1181 0.950 . S
C1205 C1204 1.524 . S
C1205 C1206 1.415 . S
C1206 H1182 0.950 . S
C1206 C1201 1.363 . S
C1206 C1205 1.415 . S
C1207 H1183 0.951 . S
C1207 C1208 1.366 . S
C1207 C1209 1.388 . S
C1208 C1207 1.366 . S
C1208 C1212 1.385 . S
C1209 H1184 0.951 . S
C1209 C1207 1.388 . S
C1209 C1210 1.366 . S
C1210 C1209 1.366 . S
C1210 C1211 1.414 . S
C1210 C1213 1.499 . S
C1211 H1185 0.950 . S
C1211 C1210 1.414 . S
C1211 C1212 1.374 . S
C1212 H1186 0.950 . S
C1212 C1208 1.385 . S
C1212 C1211 1.374 . S
C1213 C1210 1.499 . S
C1213 C1214 1.373 . S
C1213 C1215 1.389 . S
C1214 H1187 0.950 . S
C1214 C1200 1.377 . S
C1214 C1213 1.373 . S
C1215 C1199 1.377 . S
C1215 C1213 1.389 . S
C1215 C1216 1.524 . S
C1216 C1215 1.524 . S
C1216 C1217 1.397 . S
C1216 C1221 1.363 . S
C1217 H1188 0.950 . S
C1217 C1216 1.397 . S
C1217 C1218 1.334 . S
C1218 H1189 0.950 . S
C1218 C1217 1.334 . S
C1218 C1219 1.287 . S
C1219 C1218 1.287 . S
C1219 C1220 1.524 . S
C1219 H1222 0.999 . S
C1220 H1190 0.950 . S
C1220 C1219 1.524 . S
C1220 C1221 1.415 . S
C1221 H1191 0.950 . S
C1221 C1216 1.363 . S
C1221 C1220 1.415 . S
H1222 C1219 0.999 . S
H1223 C1204 0.913 . S
H1224 C1242 0.951 . S
H1225 C1244 0.951 . S
H1226 C1246 0.998 . S
H1227 C1247 0.950 . S
H1228 C1249 0.950 1_455 S
H1229 C1252 0.950 . S
H1230 C1253 0.950 . S
H1231 C1255 0.950 . S
H1232 C1256 0.950 . S
H1233 C1257 0.951 . S
H1234 C1259 0.951 . S
H1235 C1261 0.950 . S
H1236 C1262 0.950 . S
H1237 C1264 0.950 . S
H1238 C1267 0.950 . S
H1239 C1268 0.950 . S
H1240 C1270 0.950 . S
H1241 C1271 0.950 . S
C1242 H1224 0.951 . S
C1242 C1243 1.366 . S
C1242 C1244 1.388 1_554 S
C1243 C1242 1.366 . S
C1243 C1247 1.385 . S
C1244 H1225 0.951 . S
C1244 C1242 1.388 1_556 S
C1244 C1245 1.366 . S
C1245 C1244 1.366 . S
C1245 C1246 1.414 . S
C1245 C1248 1.499 . S
C1246 H1226 0.998 . S
C1246 C1245 1.414 . S
C1246 C1247 1.374 1_556 S
C1247 H1227 0.950 . S
C1247 C1243 1.385 . S
C1247 C1246 1.374 1_554 S
C1248 C1245 1.499 . S
C1248 C1249 1.373 . S
C1248 C1250 1.389 . S
C1249 H1228 0.950 1_655 S
C1249 C1248 1.373 . S
C1249 C1265 1.362 1_655 S
C1250 C1248 1.389 . S
C1250 C1251 1.524 . S
C1250 C1264 1.377 . S
C1251 C1250 1.524 . S
C1251 C1252 1.397 . S
C1251 C1256 1.363 . S
C1252 H1229 0.950 . S
C1252 C1251 1.397 . S
C1252 C1253 1.334 . S
C1253 H1230 0.950 . S
C1253 C1252 1.334 . S
C1253 C1254 1.287 . S
C1254 C1253 1.287 . S
C1254 C1255 1.524 . S
C1254 H1273 0.913 . S
C1255 H1231 0.950 . S
C1255 C1254 1.524 . S
C1255 C1256 1.415 . S
C1256 H1232 0.950 . S
C1256 C1251 1.363 . S
C1256 C1255 1.415 . S
C1257 H1233 0.951 . S
C1257 C1258 1.366 . S
C1257 C1259 1.388 . S
C1258 C1257 1.366 . S
C1258 C1262 1.385 1_455 S
C1259 H1234 0.951 . S
C1259 C1257 1.388 . S
C1259 C1260 1.366 1_455 S
C1260 C1259 1.366 1_655 S
C1260 C1261 1.414 . S
C1260 C1263 1.499 . S
C1261 H1235 0.950 . S
C1261 C1260 1.414 . S
C1261 C1262 1.374 . S
C1262 H1236 0.950 . S
C1262 C1258 1.385 1_655 S
C1262 C1261 1.374 . S
C1263 C1260 1.499 . S
C1263 C1264 1.373 . S
C1263 C1265 1.359 1_655 S
C1264 H1237 0.950 . S
C1264 C1250 1.377 . S
C1264 C1263 1.373 . S
C1265 C1249 1.362 1_455 S
C1265 C1263 1.359 1_455 S
C1265 C1266 1.570 . S
C1266 C1265 1.570 . S
C1266 C1267 1.397 . S
C1266 C1271 1.363 . S
C1267 H1238 0.950 . S
C1267 C1266 1.397 . S
C1267 C1268 1.334 . S
C1268 H1239 0.950 . S
C1268 C1267 1.334 . S
C1268 C1269 1.287 . S
C1269 C1268 1.287 . S
C1269 C1270 1.524 . S
C1269 H1272 0.999 . S
C1270 H1240 0.950 . S
C1270 C1269 1.524 . S
C1270 C1271 1.415 . S
C1271 H1241 0.950 . S
C1271 C1266 1.363 . S
C1271 C1270 1.415 . S
H1272 C1269 0.999 . S
H1273 C1254 0.913 . S
H1274 C1292 0.951 . S
H1275 C1294 0.951 . S
H1276 C1296 0.950 . S
H1277 C1297 0.950 . S
H1278 C1299 0.950 . S
H1279 C1302 0.950 . S
H1280 C1303 0.950 . S
H1281 C1305 0.950 . S
H1282 C1306 0.950 . S
H1283 C1307 0.951 . S
H1284 C1309 0.958 . S
H1285 C1311 0.962 . S
H1286 C1312 0.950 . S
H1287 C1314 0.950 . S
H1288 C1317 0.950 . S
H1289 C1318 0.950 . S
H1290 C1320 0.950 . S
H1291 C1321 0.950 . S
C1292 H1274 0.951 . S
C1292 C1293 1.366 . S
C1292 C1294 1.388 . S
C1293 C1292 1.366 . S
C1293 C1297 1.385 1_554 S
C1294 H1275 0.951 . S
C1294 C1292 1.388 . S
C1294 C1295 1.366 1_554 S
C1295 C1294 1.366 1_556 S
C1295 C1296 1.414 . S
C1295 C1298 1.499 . S
C1296 H1276 0.950 . S
C1296 C1295 1.414 . S
C1296 C1297 1.374 . S
C1297 H1277 0.950 . S
C1297 C1293 1.385 1_556 S
C1297 C1296 1.374 . S
C1298 C1295 1.499 . S
C1298 C1299 1.373 . S
C1298 C1300 1.389 . S
C1299 H1278 0.950 . S
C1299 C1298 1.373 . S
C1299 C1315 1.377 . S
C1300 C1298 1.389 . S
C1300 C1301 1.524 . S
C1300 C1314 1.377 . S
C1301 C1300 1.524 . S
C1301 C1302 1.397 . S
C1301 C1306 1.363 . S
C1302 H1279 0.950 . S
C1302 C1301 1.397 . S
C1302 C1303 1.334 . S
C1303 H1280 0.950 . S
C1303 C1302 1.334 . S
C1303 C1304 1.287 1_556 S
C1304 C1303 1.287 1_554 S
C1304 C1305 1.524 . S
C1304 H1323 0.913 . S
C1305 H1281 0.950 . S
C1305 C1304 1.524 . S
C1305 C1306 1.415 1_554 S
C1306 H1282 0.950 . S
C1306 C1301 1.363 . S
C1306 C1305 1.415 1_556 S
C1307 H1283 0.951 . S
C1307 C1308 1.366 . S
C1307 C1309 1.376 1_545 S
C1308 C1307 1.366 . S
C1308 C1312 1.385 . S
C1309 H1284 0.958 . S
C1309 C1307 1.376 1_565 S
C1309 C1310 1.372 . S
C1310 C1309 1.372 . S
C1310 C1311 1.423 . S
C1310 C1313 1.499 . S
C1311 H1285 0.962 . S
C1311 C1310 1.423 . S
C1311 C1312 1.357 1_565 S
C1312 H1286 0.950 . S
C1312 C1308 1.385 . S
C1312 C1311 1.357 1_545 S
C1313 C1310 1.499 . S
C1313 C1314 1.373 . S
C1313 C1315 1.389 . S
C1314 H1287 0.950 . S
C1314 C1300 1.377 . S
C1314 C1313 1.373 . S
C1315 C1299 1.377 . S
C1315 C1313 1.389 . S
C1315 C1316 1.524 1_565 S
C1316 C1315 1.524 1_545 S
C1316 C1317 1.397 . S
C1316 C1321 1.363 . S
C1317 H1288 0.950 . S
C1317 C1316 1.397 . S
C1317 C1318 1.334 . S
C1318 H1289 0.950 . S
C1318 C1317 1.334 . S
C1318 C1319 1.287 . S
C1319 C1318 1.287 . S
C1319 C1320 1.524 . S
C1319 H1322 0.999 . S
C1320 H1290 0.950 . S
C1320 C1319 1.524 . S
C1320 C1321 1.415 . S
C1321 H1291 0.950 . S
C1321 C1316 1.363 . S
C1321 C1320 1.415 . S
H1322 C1319 0.999 . S
H1323 C1304 0.913 . S
H1324 C1342 0.951 . S
H1325 C1344 0.951 . S
H1326 C1346 0.950 . S
H1327 C1347 0.948 1_554 S
H1328 C1349 0.950 . S
H1329 C1352 0.950 . S
H1330 C1353 0.950 . S
H1331 C1355 0.950 . S
H1332 C1356 0.950 . S
H1333 C1357 0.951 . S
H1334 C1359 0.951 . S
H1335 C1361 0.950 . S
H1336 C1362 0.950 . S
H1337 C1364 0.950 . S
H1338 C1367 0.950 . S
H1339 C1368 0.950 . S
H1340 C1370 0.950 . S
H1341 C1371 0.950 . S
C1342 H1324 0.951 . S
C1342 C1343 1.366 . S
C1342 C1344 1.388 1_554 S
C1343 C1342 1.366 . S
C1343 C1347 1.385 1_554 S
C1344 H1325 0.951 . S
C1344 C1342 1.388 1_556 S
C1344 C1345 1.366 . S
C1345 C1344 1.366 . S
C1345 C1346 1.414 . S
C1345 C1348 1.499 . S
C1346 H1326 0.950 . S
C1346 C1345 1.414 . S
C1346 C1347 1.374 . S
C1347 H1327 0.948 1_556 S
C1347 C1343 1.385 1_556 S
C1347 C1346 1.374 . S
C1348 C1345 1.499 . S
C1348 C1349 1.373 . S
C1348 C1350 1.389 . S
C1349 H1328 0.950 . S
C1349 C1348 1.373 . S
C1349 C1365 1.377 . S
C1350 C1348 1.389 . S
C1350 C1351 1.524 . S
C1350 C1364 1.377 . S
C1351 C1350 1.524 . S
C1351 C1352 1.397 . S
C1351 C1356 1.363 . S
C1352 H1329 0.950 . S
C1352 C1351 1.397 . S
C1352 C1353 1.334 . S
C1353 H1330 0.950 . S
C1353 C1352 1.334 . S
C1353 C1354 1.287 . S
C1354 C1353 1.287 . S
C1354 C1355 1.524 . S
C1354 H1373 0.913 . S
C1355 H1331 0.950 . S
C1355 C1354 1.524 . S
C1355 C1356 1.415 . S
C1356 H1332 0.950 . S
C1356 C1351 1.363 . S
C1356 C1355 1.415 . S
C1357 H1333 0.951 . S
C1357 C1358 1.366 . S
C1357 C1359 1.388 . S
C1358 C1357 1.366 . S
C1358 C1362 1.385 . S
C1359 H1334 0.951 . S
C1359 C1357 1.388 . S
C1359 C1360 1.366 . S
C1360 C1359 1.366 . S
C1360 C1361 1.414 . S
C1360 C1363 1.499 . S
C1361 H1335 0.950 . S
C1361 C1360 1.414 . S
C1361 C1362 1.374 . S
C1362 H1336 0.950 . S
C1362 C1358 1.385 . S
C1362 C1361 1.374 . S
C1363 C1360 1.499 . S
C1363 C1364 1.373 . S
C1363 C1365 1.389 . S
C1364 H1337 0.950 . S
C1364 C1350 1.377 . S
C1364 C1363 1.373 . S
C1365 C1349 1.377 . S
C1365 C1363 1.389 . S
C1365 C1366 1.524 . S
C1366 C1365 1.524 . S
C1366 C1367 1.397 . S
C1366 C1371 1.363 . S
C1367 H1338 0.950 . S
C1367 C1366 1.397 . S
C1367 C1368 1.334 . S
C1368 H1339 0.950 . S
C1368 C1367 1.334 . S
C1368 C1369 1.287 . S
C1369 C1368 1.287 . S
C1369 C1370 1.524 . S
C1369 H1372 0.999 . S
C1370 H1340 0.950 . S
C1370 C1369 1.524 . S
C1370 C1371 1.415 . S
C1371 H1341 0.950 . S
C1371 C1366 1.363 . S
C1371 C1370 1.415 . S
H1372 C1369 0.999 . S
H1373 C1354 0.913 . S
H1374 C1392 0.951 . S
H1375 C1394 0.951 . S
H1376 C1396 0.950 . S
H1377 C1397 0.950 . S
H1378 C1399 0.950 . S
H1379 C1402 0.950 . S
H1380 C1403 0.950 . S
H1381 C1405 0.950 . S
H1382 C1406 0.950 . S
H1383 C1407 0.951 . S
H1384 C1409 0.951 . S
H1385 C1411 0.950 . S
H1386 C1412 0.950 . S
H1387 C1414 0.950 . S
H1388 C1417 0.950 . S
H1389 C1418 0.950 . S
H1390 C1420 0.950 . S
H1391 C1421 0.950 . S
C1392 H1374 0.951 . S
C1392 C1393 1.366 . S
C1392 C1394 1.388 . S
C1393 C1392 1.366 . S
C1393 C1397 1.385 1_554 S
C1394 H1375 0.951 . S
C1394 C1392 1.388 . S
C1394 C1395 1.366 1_554 S
C1395 C1394 1.366 1_556 S
C1395 C1396 1.414 . S
C1395 C1398 1.499 . S
C1396 H1376 0.950 . S
C1396 C1395 1.414 . S
C1396 C1397 1.374 . S
C1397 H1377 0.950 . S
C1397 C1393 1.385 1_556 S
C1397 C1396 1.374 . S
C1398 C1395 1.499 . S
C1398 C1399 1.373 . S
C1398 C1400 1.389 . S
C1399 H1378 0.950 . S
C1399 C1398 1.373 . S
C1399 C1415 1.377 . S
C1400 C1398 1.389 . S
C1400 C1401 1.524 . S
C1400 C1414 1.377 . S
C1401 C1400 1.524 . S
C1401 C1402 1.397 . S
C1401 C1406 1.363 . S
C1402 H1379 0.950 . S
C1402 C1401 1.397 . S
C1402 C1403 1.334 . S
C1403 H1380 0.950 . S
C1403 C1402 1.334 . S
C1403 C1404 1.287 . S
C1404 C1403 1.287 . S
C1404 C1405 1.524 1_556 S
C1404 H1423 0.913 . S
C1405 H1381 0.950 . S
C1405 C1404 1.524 1_554 S
C1405 C1406 1.415 1_554 S
C1406 H1382 0.950 . S
C1406 C1401 1.363 . S
C1406 C1405 1.415 1_556 S
C1407 H1383 0.951 . S
C1407 C1408 1.366 . S
C1407 C1409 1.388 . S
C1408 C1407 1.366 . S
C1408 C1412 1.385 . S
C1409 H1384 0.951 . S
C1409 C1407 1.388 . S
C1409 C1410 1.366 . S
C1410 C1409 1.366 . S
C1410 C1411 1.414 . S
C1410 C1413 1.499 . S
C1411 H1385 0.950 . S
C1411 C1410 1.414 . S
C1411 C1412 1.374 . S
C1412 H1386 0.950 . S
C1412 C1408 1.385 . S
C1412 C1411 1.374 . S
C1413 C1410 1.499 . S
C1413 C1414 1.373 . S
C1413 C1415 1.389 . S
C1414 H1387 0.950 . S
C1414 C1400 1.377 . S
C1414 C1413 1.373 . S
C1415 C1399 1.377 . S
C1415 C1413 1.389 . S
C1415 C1416 1.524 . S
C1416 C1415 1.524 . S
C1416 C1417 1.397 . S
C1416 C1421 1.363 . S
C1417 H1388 0.950 . S
C1417 C1416 1.397 . S
C1417 C1418 1.334 . S
C1418 H1389 0.950 . S
C1418 C1417 1.334 . S
C1418 C1419 1.287 . S
C1419 C1418 1.287 . S
C1419 C1420 1.524 . S
C1419 H1422 0.999 . S
C1420 H1390 0.950 . S
C1420 C1419 1.524 . S
C1420 C1421 1.415 . S
C1421 H1391 0.950 . S
C1421 C1416 1.363 . S
C1421 C1420 1.415 . S
H1422 C1419 0.999 . S
H1423 C1404 0.913 . S
H1424 C1442 0.951 . S
H1425 C1444 0.951 . S
H1426 C1446 0.950 . S
H1427 C1447 0.950 . S
H1428 C1449 0.950 . S
H1429 C1452 0.950 . S
H1430 C1453 0.950 . S
H1431 C1455 0.950 . S
H1432 C1456 0.950 . S
H1433 C1457 0.951 1_655 S
H1434 C1459 0.951 1_655 S
H1435 C1461 0.950 . S
H1436 C1462 0.950 . S
H1437 C1464 0.950 . S
H1438 C1467 0.950 . S
H1439 C1468 0.950 . S
H1440 C1470 0.950 . S
H1441 C1471 0.950 . S
C1442 H1424 0.951 . S
C1442 C1443 1.366 . S
C1442 C1444 1.388 . S
C1443 C1442 1.366 . S
C1443 C1447 1.385 . S
C1444 H1425 0.951 . S
C1444 C1442 1.388 . S
C1444 C1445 1.366 . S
C1445 C1444 1.366 . S
C1445 C1446 1.414 . S
C1445 C1448 1.499 . S
C1446 H1426 0.950 . S
C1446 C1445 1.414 . S
C1446 C1447 1.374 . S
C1447 H1427 0.950 . S
C1447 C1443 1.385 . S
C1447 C1446 1.374 . S
C1448 C1445 1.499 . S
C1448 C1449 1.373 . S
C1448 C1450 1.389 . S
C1449 H1428 0.950 . S
C1449 C1448 1.373 . S
C1449 C1465 1.377 . S
C1450 C1448 1.389 . S
C1450 C1451 1.524 . S
C1450 C1464 1.377 . S
C1451 C1450 1.524 . S
C1451 C1452 1.397 . S
C1451 C1456 1.363 . S
C1452 H1429 0.950 . S
C1452 C1451 1.397 . S
C1452 C1453 1.334 . S
C1453 H1430 0.950 . S
C1453 C1452 1.334 . S
C1453 C1454 1.287 . S
C1454 C1453 1.287 . S
C1454 C1455 1.524 . S
C1454 H1473 0.913 . S
C1455 H1431 0.950 . S
C1455 C1454 1.524 . S
C1455 C1456 1.415 . S
C1456 H1432 0.950 . S
C1456 C1451 1.363 . S
C1456 C1455 1.415 . S
C1457 H1433 0.951 1_455 S
C1457 C1458 1.366 . S
C1457 C1459 1.388 . S
C1458 C1457 1.366 . S
C1458 C1462 1.385 . S
C1459 H1434 0.951 1_455 S
C1459 C1457 1.388 . S
C1459 C1460 1.366 . S
C1460 C1459 1.366 . S
C1460 C1461 1.414 . S
C1460 C1463 1.499 . S
C1461 H1435 0.950 . S
C1461 C1460 1.414 . S
C1461 C1462 1.374 . S
C1462 H1436 0.950 . S
C1462 C1458 1.385 . S
C1462 C1461 1.374 . S
C1463 C1460 1.499 . S
C1463 C1464 1.373 . S
C1463 C1465 1.389 . S
C1464 H1437 0.950 . S
C1464 C1450 1.377 . S
C1464 C1463 1.373 . S
C1465 C1449 1.377 . S
C1465 C1463 1.389 . S
C1465 C1466 1.524 . S
C1466 C1465 1.524 . S
C1466 C1467 1.397 . S
C1466 C1471 1.363 1_455 S
C1467 H1438 0.950 . S
C1467 C1466 1.397 . S
C1467 C1468 1.334 . S
C1468 H1439 0.950 . S
C1468 C1467 1.334 . S
C1468 C1469 1.287 1_455 S
C1469 C1468 1.287 1_655 S
C1469 C1470 1.524 . S
C1469 H1472 0.999 . S
C1470 H1440 0.950 . S
C1470 C1469 1.524 . S
C1470 C1471 1.415 . S
C1471 H1441 0.950 . S
C1471 C1466 1.363 1_655 S
C1471 C1470 1.415 . S
H1472 C1469 0.999 . S
H1473 C1454 0.913 . S
H1474 C1492 0.951 . S
H1475 C1494 0.951 . S
H1476 C1496 0.950 . S
H1477 C1497 0.950 . S
H1478 C1499 0.950 . S
H1479 C1502 0.950 . S
H1480 C1503 0.950 . S
H1481 C1505 0.950 . S
H1482 C1506 0.950 . S
H1483 C1507 0.951 . S
H1484 C1509 0.951 . S
H1485 C1511 0.950 . S
H1486 C1512 0.950 . S
H1487 C1514 0.950 . S
H1488 C1517 0.950 . S
H1489 C1518 0.950 . S
H1490 C1520 0.950 . S
H1491 C1521 0.950 . S
C1492 H1474 0.951 . S
C1492 C1493 1.366 . S
C1492 C1494 1.388 . S
C1493 C1492 1.366 . S
C1493 C1497 1.385 . S
C1494 H1475 0.951 . S
C1494 C1492 1.388 . S
C1494 C1495 1.366 . S
C1495 C1494 1.366 . S
C1495 C1496 1.414 . S
C1495 C1498 1.499 . S
C1496 H1476 0.950 . S
C1496 C1495 1.414 . S
C1496 C1497 1.374 . S
C1497 H1477 0.950 . S
C1497 C1493 1.385 . S
C1497 C1496 1.374 . S
C1498 C1495 1.499 . S
C1498 C1499 1.373 . S
C1498 C1500 1.389 . S
C1499 H1478 0.950 . S
C1499 C1498 1.373 . S
C1499 C1515 1.377 . S
C1500 C1498 1.389 . S
C1500 C1501 1.524 . S
C1500 C1514 1.377 . S
C1501 C1500 1.524 . S
C1501 C1502 1.397 . S
C1501 C1506 1.363 . S
C1502 H1479 0.950 . S
C1502 C1501 1.397 . S
C1502 C1503 1.334 . S
C1503 H1480 0.950 . S
C1503 C1502 1.334 . S
C1503 C1504 1.287 . S
C1504 C1503 1.287 . S
C1504 C1505 1.524 . S
C1504 H1523 0.913 . S
C1505 H1481 0.950 . S
C1505 C1504 1.524 . S
C1505 C1506 1.415 . S
C1506 H1482 0.950 . S
C1506 C1501 1.363 . S
C1506 C1505 1.415 . S
C1507 H1483 0.951 . S
C1507 C1508 1.366 . S
C1507 C1509 1.388 . S
C1508 C1507 1.366 . S
C1508 C1512 1.385 . S
C1509 H1484 0.951 . S
C1509 C1507 1.388 . S
C1509 C1510 1.366 . S
C1510 C1509 1.366 . S
C1510 C1511 1.414 . S
C1510 C1513 1.499 . S
C1511 H1485 0.950 . S
C1511 C1510 1.414 . S
C1511 C1512 1.374 . S
C1512 H1486 0.950 . S
C1512 C1508 1.385 . S
C1512 C1511 1.374 . S
C1513 C1510 1.499 . S
C1513 C1514 1.373 . S
C1513 C1515 1.389 . S
C1514 H1487 0.950 . S
C1514 C1500 1.377 . S
C1514 C1513 1.373 . S
C1515 C1499 1.377 . S
C1515 C1513 1.389 . S
C1515 C1516 1.524 1_545 S
C1516 C1515 1.524 1_565 S
C1516 C1517 1.397 . S
C1516 C1521 1.363 . S
C1517 H1488 0.950 . S
C1517 C1516 1.397 . S
C1517 C1518 1.334 . S
C1518 H1489 0.950 . S
C1518 C1517 1.334 . S
C1518 C1519 1.287 . S
C1519 C1518 1.287 . S
C1519 C1520 1.524 . S
C1519 H1522 0.999 . S
C1520 H1490 0.950 . S
C1520 C1519 1.524 . S
C1520 C1521 1.415 . S
C1521 H1491 0.950 . S
C1521 C1516 1.363 . S
C1521 C1520 1.415 . S
H1522 C1519 0.999 . S
H1523 C1504 0.913 . S
H1524 C1542 0.951 . S
H1525 C1544 0.951 . S
H1526 C1546 0.950 . S
H1527 C1547 0.950 . S
H1528 C1549 0.950 . S
H1529 C1552 0.950 . S
H1530 C1553 0.950 . S
H1531 C1555 0.950 . S
H1532 C1556 0.950 . S
H1533 C1557 0.951 . S
H1534 C1559 0.951 . S
H1535 C1561 0.950 . S
H1536 C1562 0.950 . S
H1537 C1564 0.950 . S
H1538 C1567 0.950 . S
H1539 C1568 0.950 . S
H1540 C1570 0.950 . S
H1541 C1571 0.950 . S
C1542 H1524 0.951 . S
C1542 C1543 1.366 . S
C1542 C1544 1.388 . S
C1543 C1542 1.366 . S
C1543 C1547 1.385 . S
C1544 H1525 0.951 . S
C1544 C1542 1.388 . S
C1544 C1545 1.366 . S
C1545 C1544 1.366 . S
C1545 C1546 1.414 . S
C1545 C1548 1.499 . S
C1546 H1526 0.950 . S
C1546 C1545 1.414 . S
C1546 C1547 1.374 . S
C1547 H1527 0.950 . S
C1547 C1543 1.385 . S
C1547 C1546 1.374 . S
C1548 C1545 1.499 . S
C1548 C1549 1.373 . S
C1548 C1550 1.389 . S
C1549 H1528 0.950 . S
C1549 C1548 1.373 . S
C1549 C1565 1.377 . S
C1550 C1548 1.389 . S
C1550 C1551 1.524 . S
C1550 C1564 1.377 . S
C1551 C1550 1.524 . S
C1551 C1552 1.397 . S
C1551 C1556 1.363 . S
C1552 H1529 0.950 . S
C1552 C1551 1.397 . S
C1552 C1553 1.334 . S
C1553 H1530 0.950 . S
C1553 C1552 1.334 . S
C1553 C1554 1.287 . S
C1554 C1553 1.287 . S
C1554 C1555 1.524 . S
C1554 H1573 0.913 . S
C1555 H1531 0.950 . S
C1555 C1554 1.524 . S
C1555 C1556 1.415 . S
C1556 H1532 0.950 . S
C1556 C1551 1.363 . S
C1556 C1555 1.415 . S
C1557 H1533 0.951 . S
C1557 C1558 1.366 . S
C1557 C1559 1.388 . S
C1558 C1557 1.366 . S
C1558 C1562 1.385 . S
C1559 H1534 0.951 . S
C1559 C1557 1.388 . S
C1559 C1560 1.366 . S
C1560 C1559 1.366 . S
C1560 C1561 1.414 . S
C1560 C1563 1.499 . S
C1561 H1535 0.950 . S
C1561 C1560 1.414 . S
C1561 C1562 1.374 . S
C1562 H1536 0.950 . S
C1562 C1558 1.385 . S
C1562 C1561 1.374 . S
C1563 C1560 1.499 . S
C1563 C1564 1.373 . S
C1563 C1565 1.389 . S
C1564 H1537 0.950 . S
C1564 C1550 1.377 . S
C1564 C1563 1.373 . S
C1565 C1549 1.377 . S
C1565 C1563 1.389 . S
C1565 C1566 1.524 . S
C1566 C1565 1.524 . S
C1566 C1567 1.397 . S
C1566 C1571 1.363 . S
C1567 H1538 0.950 . S
C1567 C1566 1.397 . S
C1567 C1568 1.334 . S
C1568 H1539 0.950 . S
C1568 C1567 1.334 . S
C1568 C1569 1.287 . S
C1569 C1568 1.287 . S
C1569 C1570 1.524 . S
C1569 H1572 0.999 . S
C1570 H1540 0.950 . S
C1570 C1569 1.524 . S
C1570 C1571 1.415 . S
C1571 H1541 0.950 . S
C1571 C1566 1.363 . S
C1571 C1570 1.415 . S
H1572 C1569 0.999 . S
H1573 C1554 0.913 . S
H1574 C1592 0.951 . S
H1575 C1594 0.951 . S
H1576 C1596 0.950 . S
H1577 C1597 0.950 . S
H1578 C1599 0.950 . S
H1579 C1602 0.950 . S
H1580 C1603 0.950 . S
H1581 C1605 0.950 . S
H1582 C1606 0.950 . S
H1583 C1607 0.951 . S
H1584 C1609 0.951 . S
H1585 C1611 0.950 . S
H1586 C1612 0.950 . S
H1587 C1614 0.950 . S
H1588 C1617 0.950 . S
H1589 C1618 0.950 . S
H1590 C1620 0.950 . S
H1591 C1621 0.950 . S
C1592 H1574 0.951 . S
C1592 C1593 1.366 . S
C1592 C1594 1.388 . S
C1593 C1592 1.366 . S
C1593 C1597 1.385 . S
C1594 H1575 0.951 . S
C1594 C1592 1.388 . S
C1594 C1595 1.366 . S
C1595 C1594 1.366 . S
C1595 C1596 1.414 . S
C1595 C1598 1.499 . S
C1596 H1576 0.950 . S
C1596 C1595 1.414 . S
C1596 C1597 1.374 . S
C1597 H1577 0.950 . S
C1597 C1593 1.385 . S
C1597 C1596 1.374 . S
C1598 C1595 1.499 . S
C1598 C1599 1.373 . S
C1598 C1600 1.389 . S
C1599 H1578 0.950 . S
C1599 C1598 1.373 . S
C1599 C1615 1.377 . S
C1600 C1598 1.389 . S
C1600 C1601 1.524 . S
C1600 C1614 1.377 . S
C1601 C1600 1.524 . S
C1601 C1602 1.397 . S
C1601 C1606 1.363 . S
C1602 H1579 0.950 . S
C1602 C1601 1.397 . S
C1602 C1603 1.334 . S
C1603 H1580 0.950 . S
C1603 C1602 1.334 . S
C1603 C1604 1.287 . S
C1604 C1603 1.287 . S
C1604 C1605 1.524 . S
C1604 H1623 0.913 . S
C1605 H1581 0.950 . S
C1605 C1604 1.524 . S
C1605 C1606 1.415 . S
C1606 H1582 0.950 . S
C1606 C1601 1.363 . S
C1606 C1605 1.415 . S
C1607 H1583 0.951 . S
C1607 C1608 1.366 . S
C1607 C1609 1.388 . S
C1608 C1607 1.366 . S
C1608 C1612 1.385 . S
C1609 H1584 0.951 . S
C1609 C1607 1.388 . S
C1609 C1610 1.366 . S
C1610 C1609 1.366 . S
C1610 C1611 1.414 . S
C1610 C1613 1.499 . S
C1611 H1585 0.950 . S
C1611 C1610 1.414 . S
C1611 C1612 1.374 . S
C1612 H1586 0.950 . S
C1612 C1608 1.385 . S
C1612 C1611 1.374 . S
C1613 C1610 1.499 . S
C1613 C1614 1.373 . S
C1613 C1615 1.389 . S
C1614 H1587 0.950 . S
C1614 C1600 1.377 . S
C1614 C1613 1.373 . S
C1615 C1599 1.377 . S
C1615 C1613 1.389 . S
C1615 C1616 1.524 . S
C1616 C1615 1.524 . S
C1616 C1617 1.397 . S
C1616 C1621 1.363 . S
C1617 H1588 0.950 . S
C1617 C1616 1.397 . S
C1617 C1618 1.334 . S
C1618 H1589 0.950 . S
C1618 C1617 1.334 . S
C1618 C1619 1.287 . S
C1619 C1618 1.287 . S
C1619 C1620 1.524 . S
C1619 H1622 0.999 . S
C1620 H1590 0.950 . S
C1620 C1619 1.524 . S
C1620 C1621 1.415 . S
C1621 H1591 0.950 . S
C1621 C1616 1.363 . S
C1621 C1620 1.415 . S
H1622 C1619 0.999 . S
H1623 C1604 0.913 . S
H1624 C1642 0.951 . S
H1625 C1644 0.951 . S
H1626 C1646 0.950 . S
H1627 C1647 0.950 . S
H1628 C1649 0.950 . S
H1629 C1652 0.950 . S
H1630 C1653 0.950 . S
H1631 C1655 0.950 . S
H1632 C1656 0.950 . S
H1633 C1657 0.951 . S
H1634 C1659 0.951 . S
H1635 C1661 0.950 . S
H1636 C1662 0.950 . S
H1637 C1664 0.950 1_455 S
H1638 C1667 0.950 . S
H1639 C1668 0.950 . S
H1640 C1670 0.950 . S
H1641 C1671 0.950 . S
C1642 H1624 0.951 . S
C1642 C1643 1.366 . S
C1642 C1644 1.388 . S
C1643 C1642 1.366 . S
C1643 C1647 1.385 . S
C1644 H1625 0.951 . S
C1644 C1642 1.388 . S
C1644 C1645 1.366 . S
C1645 C1644 1.366 . S
C1645 C1646 1.414 . S
C1645 C1648 1.499 . S
C1646 H1626 0.950 . S
C1646 C1645 1.414 . S
C1646 C1647 1.374 . S
C1647 H1627 0.950 . S
C1647 C1643 1.385 . S
C1647 C1646 1.374 . S
C1648 C1645 1.499 . S
C1648 C1649 1.373 . S
C1648 C1650 1.389 . S
C1649 H1628 0.950 . S
C1649 C1648 1.373 . S
C1649 C1665 1.377 . S
C1650 C1648 1.389 . S
C1650 C1651 1.524 1_655 S
C1650 C1664 1.377 . S
C1651 C1650 1.524 1_455 S
C1651 C1652 1.397 . S
C1651 C1656 1.363 . S
C1652 H1629 0.950 . S
C1652 C1651 1.397 . S
C1652 C1653 1.334 . S
C1653 H1630 0.950 . S
C1653 C1652 1.334 . S
C1653 C1654 1.287 . S
C1654 C1653 1.287 . S
C1654 C1655 1.524 . S
C1654 H1673 0.913 . S
C1655 H1631 0.950 . S
C1655 C1654 1.524 . S
C1655 C1656 1.415 . S
C1656 H1632 0.950 . S
C1656 C1651 1.363 . S
C1656 C1655 1.415 . S
C1657 H1633 0.951 . S
C1657 C1658 1.366 . S
C1657 C1659 1.388 . S
C1658 C1657 1.366 . S
C1658 C1662 1.385 . S
C1659 H1634 0.951 . S
C1659 C1657 1.388 . S
C1659 C1660 1.366 . S
C1660 C1659 1.366 . S
C1660 C1661 1.414 . S
C1660 C1663 1.499 . S
C1661 H1635 0.950 . S
C1661 C1660 1.414 . S
C1661 C1662 1.374 . S
C1662 H1636 0.950 . S
C1662 C1658 1.385 . S
C1662 C1661 1.374 . S
C1663 C1660 1.499 . S
C1663 C1664 1.373 . S
C1663 C1665 1.389 . S
C1664 H1637 0.950 1_655 S
C1664 C1650 1.377 . S
C1664 C1663 1.373 . S
C1665 C1649 1.377 . S
C1665 C1663 1.389 . S
C1665 C1666 1.524 . S
C1666 C1665 1.524 . S
C1666 C1667 1.397 . S
C1666 C1671 1.363 . S
C1667 H1638 0.950 . S
C1667 C1666 1.397 . S
C1667 C1668 1.334 . S
C1668 H1639 0.950 . S
C1668 C1667 1.334 . S
C1668 C1669 1.287 . S
C1669 C1668 1.287 . S
C1669 C1670 1.524 . S
C1669 H1672 0.999 . S
C1670 H1640 0.950 . S
C1670 C1669 1.524 . S
C1670 C1671 1.415 . S
C1671 H1641 0.950 . S
C1671 C1666 1.363 . S
C1671 C1670 1.415 . S
H1672 C1669 0.999 . S
H1673 C1654 0.913 . S
H1674 C1692 0.951 . S
H1675 C1694 0.951 . S
H1676 C1696 0.950 . S
H1677 C1697 0.950 . S
H1678 C1699 0.950 . S
H1679 C1702 0.950 . S
H1680 C1703 0.950 . S
H1681 C1705 0.950 . S
H1682 C1706 0.950 . S
H1683 C1707 0.951 . S
H1684 C1709 0.951 . S
H1685 C1711 0.950 . S
H1686 C1712 0.950 . S
H1687 C1714 0.950 . S
H1688 C1717 0.950 . S
H1689 C1718 0.950 . S
H1690 C1720 0.950 . S
H1691 C1721 0.950 . S
C1692 H1674 0.951 . S
C1692 C1693 1.366 . S
C1692 C1694 1.388 . S
C1693 C1692 1.366 . S
C1693 C1697 1.385 . S
C1694 H1675 0.951 . S
C1694 C1692 1.388 . S
C1694 C1695 1.366 . S
C1695 C1694 1.366 . S
C1695 C1696 1.414 . S
C1695 C1698 1.499 . S
C1696 H1676 0.950 . S
C1696 C1695 1.414 . S
C1696 C1697 1.374 . S
C1697 H1677 0.950 . S
C1697 C1693 1.385 . S
C1697 C1696 1.374 . S
C1698 C1695 1.499 . S
C1698 C1699 1.373 . S
C1698 C1700 1.389 . S
C1699 H1678 0.950 . S
C1699 C1698 1.373 . S
C1699 C1715 1.377 . S
C1700 C1698 1.389 . S
C1700 C1701 1.524 . S
C1700 C1714 1.377 . S
C1701 C1700 1.524 . S
C1701 C1702 1.397 . S
C1701 C1706 1.363 . S
C1702 H1679 0.950 . S
C1702 C1701 1.397 . S
C1702 C1703 1.334 . S
C1703 H1680 0.950 . S
C1703 C1702 1.334 . S
C1703 C1704 1.287 . S
C1704 C1703 1.287 . S
C1704 C1705 1.524 . S
C1704 H1723 0.913 . S
C1705 H1681 0.950 . S
C1705 C1704 1.524 . S
C1705 C1706 1.415 . S
C1706 H1682 0.950 . S
C1706 C1701 1.363 . S
C1706 C1705 1.415 . S
C1707 H1683 0.951 . S
C1707 C1708 1.366 . S
C1707 C1709 1.388 . S
C1708 C1707 1.366 . S
C1708 C1712 1.385 . S
C1709 H1684 0.951 . S
C1709 C1707 1.388 . S
C1709 C1710 1.366 . S
C1710 C1709 1.366 . S
C1710 C1711 1.414 . S
C1710 C1713 1.499 . S
C1711 H1685 0.950 . S
C1711 C1710 1.414 . S
C1711 C1712 1.374 . S
C1712 H1686 0.950 . S
C1712 C1708 1.385 . S
C1712 C1711 1.374 . S
C1713 C1710 1.499 . S
C1713 C1714 1.373 . S
C1713 C1715 1.389 . S
C1714 H1687 0.950 . S
C1714 C1700 1.377 . S
C1714 C1713 1.373 . S
C1715 C1699 1.377 . S
C1715 C1713 1.389 . S
C1715 C1716 1.524 1_565 S
C1716 C1715 1.524 1_545 S
C1716 C1717 1.397 . S
C1716 C1721 1.363 . S
C1717 H1688 0.950 . S
C1717 C1716 1.397 . S
C1717 C1718 1.334 . S
C1718 H1689 0.950 . S
C1718 C1717 1.334 . S
C1718 C1719 1.287 . S
C1719 C1718 1.287 . S
C1719 C1720 1.524 . S
C1719 H1722 0.999 . S
C1720 H1690 0.950 . S
C1720 C1719 1.524 . S
C1720 C1721 1.415 . S
C1721 H1691 0.950 . S
C1721 C1716 1.363 . S
C1721 C1720 1.415 . S
H1722 C1719 0.999 . S
H1723 C1704 0.913 . S
H1724 C1742 0.951 . S
H1725 C1744 0.951 . S
H1726 C1746 0.950 . S
H1727 C1747 0.950 . S
H1728 C1749 0.950 . S
H1729 C1752 0.950 . S
H1730 C1753 0.950 . S
H1731 C1755 0.950 . S
H1732 C1756 0.950 . S
H1733 C1757 0.951 . S
H1734 C1759 0.951 . S
H1735 C1761 0.950 . S
H1736 C1762 0.950 . S
H1737 C1764 0.950 . S
H1738 C1767 0.950 . S
H1739 C1768 0.950 . S
H1740 C1770 0.950 . S
H1741 C1771 0.950 . S
C1742 H1724 0.951 . S
C1742 C1743 1.366 . S
C1742 C1744 1.388 . S
C1743 C1742 1.366 . S
C1743 C1747 1.385 . S
C1744 H1725 0.951 . S
C1744 C1742 1.388 . S
C1744 C1745 1.366 . S
C1745 C1744 1.366 . S
C1745 C1746 1.414 . S
C1745 C1748 1.499 . S
C1746 H1726 0.950 . S
C1746 C1745 1.414 . S
C1746 C1747 1.374 . S
C1747 H1727 0.950 . S
C1747 C1743 1.385 . S
C1747 C1746 1.374 . S
C1748 C1745 1.499 . S
C1748 C1749 1.373 . S
C1748 C1750 1.389 . S
C1749 H1728 0.950 . S
C1749 C1748 1.373 . S
C1749 C1765 1.377 . S
C1750 C1748 1.389 . S
C1750 C1751 1.524 . S
C1750 C1764 1.377 . S
C1751 C1750 1.524 . S
C1751 C1752 1.397 . S
C1751 C1756 1.363 . S
C1752 H1729 0.950 . S
C1752 C1751 1.397 . S
C1752 C1753 1.334 . S
C1753 H1730 0.950 . S
C1753 C1752 1.334 . S
C1753 C1754 1.287 . S
C1754 C1753 1.287 . S
C1754 C1755 1.524 . S
C1754 H1773 0.913 . S
C1755 H1731 0.950 . S
C1755 C1754 1.524 . S
C1755 C1756 1.415 . S
C1756 H1732 0.950 . S
C1756 C1751 1.363 . S
C1756 C1755 1.415 . S
C1757 H1733 0.951 . S
C1757 C1758 1.366 . S
C1757 C1759 1.388 . S
C1758 C1757 1.366 . S
C1758 C1762 1.385 . S
C1759 H1734 0.951 . S
C1759 C1757 1.388 . S
C1759 C1760 1.366 . S
C1760 C1759 1.366 . S
C1760 C1761 1.414 . S
C1760 C1763 1.499 . S
C1761 H1735 0.950 . S
C1761 C1760 1.414 . S
C1761 C1762 1.374 . S
C1762 H1736 0.950 . S
C1762 C1758 1.385 . S
C1762 C1761 1.374 . S
C1763 C1760 1.499 . S
C1763 C1764 1.373 . S
C1763 C1765 1.389 . S
C1764 H1737 0.950 . S
C1764 C1750 1.377 . S
C1764 C1763 1.373 . S
C1765 C1749 1.377 . S
C1765 C1763 1.389 . S
C1765 C1766 1.524 . S
C1766 C1765 1.524 . S
C1766 C1767 1.397 . S
C1766 C1771 1.363 . S
C1767 H1738 0.950 . S
C1767 C1766 1.397 . S
C1767 C1768 1.334 . S
C1768 H1739 0.950 . S
C1768 C1767 1.334 . S
C1768 C1769 1.287 . S
C1769 C1768 1.287 . S
C1769 C1770 1.524 . S
C1769 H1772 0.999 . S
C1770 H1740 0.950 . S
C1770 C1769 1.524 . S
C1770 C1771 1.415 . S
C1771 H1741 0.950 . S
C1771 C1766 1.363 . S
C1771 C1770 1.415 . S
H1772 C1769 0.999 . S
H1773 C1754 0.913 . S
H1774 C1792 0.951 . S
H1775 C1794 0.951 . S
H1776 C1796 0.950 . S
H1777 C1797 0.950 . S
H1778 C1799 0.950 . S
H1779 C1802 0.950 . S
H1780 C1803 0.950 . S
H1781 C1805 0.950 . S
H1782 C1806 0.950 . S
H1783 C1807 0.951 . S
H1784 C1809 0.951 . S
H1785 C1811 0.950 . S
H1786 C1812 0.950 . S
H1787 C1814 0.950 . S
H1788 C1817 0.950 . S
H1789 C1818 0.950 . S
H1790 C1820 0.950 . S
H1791 C1821 0.950 . S
C1792 H1774 0.951 . S
C1792 C1793 1.366 . S
C1792 C1794 1.388 . S
C1793 C1792 1.366 . S
C1793 C1797 1.385 . S
C1794 H1775 0.951 . S
C1794 C1792 1.388 . S
C1794 C1795 1.366 . S
C1795 C1794 1.366 . S
C1795 C1796 1.414 . S
C1795 C1798 1.499 . S
C1796 H1776 0.950 . S
C1796 C1795 1.414 . S
C1796 C1797 1.374 . S
C1797 H1777 0.950 . S
C1797 C1793 1.385 . S
C1797 C1796 1.374 . S
C1798 C1795 1.499 . S
C1798 C1799 1.373 . S
C1798 C1800 1.389 . S
C1799 H1778 0.950 . S
C1799 C1798 1.373 . S
C1799 C1815 1.377 . S
C1800 C1798 1.389 . S
C1800 C1801 1.524 . S
C1800 C1814 1.377 . S
C1801 C1800 1.524 . S
C1801 C1802 1.397 . S
C1801 C1806 1.363 . S
C1802 H1779 0.950 . S
C1802 C1801 1.397 . S
C1802 C1803 1.334 . S
C1803 H1780 0.950 . S
C1803 C1802 1.334 . S
C1803 C1804 1.287 . S
C1804 C1803 1.287 . S
C1804 C1805 1.524 . S
C1804 H1823 0.913 . S
C1805 H1781 0.950 . S
C1805 C1804 1.524 . S
C1805 C1806 1.415 . S
C1806 H1782 0.950 . S
C1806 C1801 1.363 . S
C1806 C1805 1.415 . S
C1807 H1783 0.951 . S
C1807 C1808 1.366 . S
C1807 C1809 1.388 . S
C1808 C1807 1.366 . S
C1808 C1812 1.385 . S
C1809 H1784 0.951 . S
C1809 C1807 1.388 . S
C1809 C1810 1.366 . S
C1810 C1809 1.366 . S
C1810 C1811 1.414 . S
C1810 C1813 1.499 . S
C1811 H1785 0.950 . S
C1811 C1810 1.414 . S
C1811 C1812 1.374 . S
C1812 H1786 0.950 . S
C1812 C1808 1.385 . S
C1812 C1811 1.374 . S
C1813 C1810 1.499 . S
C1813 C1814 1.373 . S
C1813 C1815 1.389 . S
C1814 H1787 0.950 . S
C1814 C1800 1.377 . S
C1814 C1813 1.373 . S
C1815 C1799 1.377 . S
C1815 C1813 1.389 . S
C1815 C1816 1.524 . S
C1816 C1815 1.524 . S
C1816 C1817 1.397 . S
C1816 C1821 1.363 . S
C1817 H1788 0.950 . S
C1817 C1816 1.397 . S
C1817 C1818 1.334 . S
C1818 H1789 0.950 . S
C1818 C1817 1.334 . S
C1818 C1819 1.287 . S
C1819 C1818 1.287 . S
C1819 C1820 1.524 . S
C1819 H1822 0.999 . S
C1820 H1790 0.950 . S
C1820 C1819 1.524 . S
C1820 C1821 1.415 . S
C1821 H1791 0.950 . S
C1821 C1816 1.363 . S
C1821 C1820 1.415 . S
H1822 C1819 0.999 . S
H1823 C1804 0.913 . S
C643 C241 2.049 . S
C658 C356 2.177 . S
C708 C439 2.207 . S
C693 C277 2.095 . S
C758 C524 2.166 . S
C743 C169 2.036 . S
C808 C608 2.155 . S
C793 C205 2.026 . S
C858 C344 2.177 1_565 S
C843 C97 2.018 . S
C893 C133 2.124 . S
C908 C427 2.208 . S
C943 C25 2.008 . S
C958 C512 2.167 . S
C993 C61 1.999 . S
C1008 C596 2.155 1_655 S
C1058 C346 0.430 1_455 S
C1043 C211 0.282 . S
C1108 C442 0.528 . S
C1093 C247 0.261 . S
C1158 C514 0.429 . S
C1143 C253 0.349 . S
C1193 C175 0.275 . S
C1208 C598 0.428 . S
C1243 C67 0.376 . S
C1258 C358 0.432 . S
C1308 C430 0.526 . S
C1293 C103 0.373 . S
C1358 C526 0.428 . S
C1343 C109 0.267 . S
C1393 C31 0.373 . S
C1408 C610 0.428 . S
C1443 C181 2.438 . S
C1458 C343 2.643 . S
C1493 C217 2.416 . S
C1508 C428 2.641 . S
C1558 C511 2.671 . S
C1543 C283 2.380 . S
C1608 C595 2.664 . S
C1593 C145 2.458 . S
C1643 C37 2.420 . S
C1658 C355 2.643 . S
C1708 C440 2.640 . S
C1693 C73 2.396 . S
C1758 C523 2.672 . S
C1743 C139 2.407 . S
C1793 C1 2.440 . S
C1808 C607 2.664 . S
