# Generated by pormake.
# Topology rtl, (3,6)-cn, num edge types: 1
# Building blocks:
#     Node 0, Type 0, BuildingBlock: QEWDON_clean_linker_0, # of connection points: 3
#     Node 1, Type 0, BuildingBlock: QEWDON_clean_linker_0, # of connection points: 3
#     Node 2, Type 0, BuildingBlock: QEWDON_clean_linker_0, # of connection points: 3
#     Node 3, Type 0, BuildingBlock: QEWDON_clean_linker_0, # of connection points: 3
#     Node 4, Type 1, BuildingBlock: KUMBUR_clean_sbu_1, # of connection points: 6
#     Node 5, Type 1, BuildingBlock: KUMBUR_clean_sbu_1, # of connection points: 6
#     Edge 6, Type (0, 1), BuildingBlock: TEMPAE_clean_linker_10, # of connection points: 2
#     Edge 7, Type (0, 1), BuildingBlock: TEMPAE_clean_linker_10, # of connection points: 2
#     Edge 8, Type (0, 1), BuildingBlock: TEMPAE_clean_linker_10, # of connection points: 2
#     Edge 9, Type (0, 1), BuildingBlock: TEMPAE_clean_linker_10, # of connection points: 2
#     Edge 10, Type (0, 1), BuildingBlock: TEMPAE_clean_linker_10, # of connection points: 2
#     Edge 11, Type (0, 1), BuildingBlock: TEMPAE_clean_linker_10, # of connection points: 2
#     Edge 12, Type (0, 1), BuildingBlock: TEMPAE_clean_linker_10, # of connection points: 2
#     Edge 13, Type (0, 1), BuildingBlock: TEMPAE_clean_linker_10, # of connection points: 2
#     Edge 14, Type (0, 1), BuildingBlock: TEMPAE_clean_linker_10, # of connection points: 2
#     Edge 15, Type (0, 1), BuildingBlock: TEMPAE_clean_linker_10, # of connection points: 2
#     Edge 16, Type (0, 1), BuildingBlock: TEMPAE_clean_linker_10, # of connection points: 2
#     Edge 17, Type (0, 1), BuildingBlock: TEMPAE_clean_linker_10, # of connection points: 2
# Relax obj value: 0.085
# Max RMSD: 0.273
# Mean RMSD: 0.209
data_MOF--net-rtl--node1-KUMBUR_clean_sbu_1--node2-QEWDON_clean_linker_0--edge1-TEMPAE_clean_linker_10
_symmetry_space_group_name_H-M    P1
_symmetry_Int_Tables_number       1
_symmetry_cell_setting            triclinic
loop_
_symmetry_equiv_pos_as_xyz
'x, y, z'
_cell_length_a     38.165673
_cell_length_b     38.094979
_cell_length_c     26.840732
_cell_angle_alpha  78.873457
_cell_angle_beta   100.45172
_cell_angle_gamma 91.174586
loop_
_atom_site_label
_atom_site_type_symbol
_atom_site_fract_x
_atom_site_fract_y
_atom_site_fract_z
_atom_type_partial_charge
H0 H 0.24893 0.83862 0.10046 0.0
C1 C 0.2323 0.84591 0.06264 0.0
C2 C 0.19798 0.8604 0.05775 0.0
C3 C 0.24569 0.842 0.01851 0.0
H4 H 0.15284 0.88601 1.00516 0.0
C5 C 0.17787 0.87225 0.00815 0.0
C6 C 0.19058 0.8686 0.96321 0.0
C7 C 0.22445 0.85241 0.96938 0.0
C8 C 0.28415 0.83483 0.02218 0.0
H9 H 0.23537 0.84904 0.93607 0.0
C10 C 0.29845 0.79997 0.0286 0.0
C11 C 0.33524 0.79494 0.02909 0.0
C12 C 0.30656 0.86437 0.01634 0.0
H13 H 0.29596 0.89129 0.01105 0.0
C14 C 0.34257 0.85965 0.01625 0.0
H15 H 0.28111 0.77716 0.0333 0.0
C16 C 0.35677 0.82541 0.02216 0.0
H17 H 0.38472 0.82294 0.02049 0.0
H18 H 0.35953 0.8827 0.01103 0.0
H19 H 0.73694 0.71004 0.5962 0.0
C20 C 0.71928 0.70282 0.62381 0.0
C21 C 0.68736 0.68501 0.60965 0.0
C22 C 0.72938 0.70953 0.67419 0.0
H23 H 0.64093 0.66033 0.63542 0.0
C24 C 0.66523 0.67438 0.64631 0.0
C25 C 0.67497 0.6798 0.69737 0.0
C26 C 0.70673 0.69821 0.71039 0.0
C27 C 0.76542 0.7242 0.69121 0.0
H28 H 0.71471 0.7024 0.74958 0.0
C29 C 0.78098 0.75223 0.65956 0.0
C30 C 0.81566 0.76436 0.67676 0.0
C31 C 0.78521 0.70875 0.7398 0.0
H32 H 0.77488 0.6866 0.7645 0.0
C33 C 0.81895 0.72102 0.75707 0.0
H34 H 0.76638 0.76433 0.62185 0.0
C35 C 0.83401 0.74855 0.7261 0.0
H36 H 0.86017 0.75766 0.74108 0.0
H37 H 0.83365 0.70895 0.7947 0.0
H38 H 0.79961 0.19606 0.13236 0.0
C39 C 0.81329 0.19497 0.10064 0.0
C40 C 0.84752 0.17911 0.11066 0.0
C41 C 0.79531 0.20616 0.04942 0.0
H42 H 0.8905 0.16405 0.07663 0.0
C43 C 0.86428 0.1765 0.06902 0.0
C44 C 0.84678 0.18728 0.01781 0.0
C45 C 0.81224 0.20207 0.00832 0.0
C46 C 0.75683 0.21593 0.03844 0.0
H47 H 0.79803 0.2095 0.96891 0.0
C48 C 0.74368 0.24618 0.05299 0.0
C49 C 0.7067 0.25434 0.0414 0.0
C50 C 0.73283 0.19411 0.01259 0.0
H51 H 0.7423 0.17071 1.00126 0.0
C52 C 0.69647 0.20195 1.00143 0.0
H53 H 0.76201 0.26323 0.07281 0.0
C54 C 0.68348 0.23177 0.01558 0.0
H55 H 0.65512 0.23756 1.00539 0.0
H56 H 0.67827 0.18493 0.98143 0.0
H57 H 0.32929 0.29014 0.51302 0.0
C58 C 0.33806 0.30729 0.4806 0.0
C59 C 0.35931 0.33706 0.48905 0.0
C60 C 0.33047 0.29825 0.43124 0.0
H61 H 0.38836 0.38126 0.45411 0.0
C62 C 0.37233 0.35819 0.4476 0.0
C63 C 0.36507 0.35002 0.39805 0.0
C64 C 0.34341 0.32055 0.39002 0.0
C65 C 0.31313 0.26347 0.42343 0.0
H66 H 0.33788 0.31408 0.35183 0.0
C67 C 0.28475 0.24884 0.44834 0.0
C68 C 0.27024 0.21525 0.4407 0.0
C69 C 0.32647 0.24379 0.39138 0.0
H70 H 0.34888 0.25317 0.3731 0.0
C71 C 0.31175 0.2113 0.38299 0.0
H72 H 0.27425 0.26322 0.47364 0.0
C73 C 0.2839 0.19723 0.40711 0.0
H74 H 0.27291 0.17198 0.39931 0.0
H75 H 0.32221 0.19677 0.35785 0.0
Tb76 Tb 0.03729 0.98708 0.49713 0.0
C77 C 0.9583 0.12107 0.4986 0.0
N78 N 0.98988 0.10848 0.5285 0.0
C79 C 0.01549 0.1664 0.50724 0.0
C80 C 0.95461 0.15634 0.46984 0.0
C81 C 0.0175 0.13147 0.53592 0.0
C82 C 0.98412 0.17869 0.47322 0.0
C83 C 0.8952 0.11164 0.47146 0.0
C84 C 0.92898 0.09914 0.49923 0.0
C85 C 0.89162 0.14631 0.44139 0.0
C86 C 0.92131 0.16855 0.44035 0.0
Tb87 Tb 0.98982 0.05004 0.57127 0.0
N88 N 0.93365 0.06542 0.52751 0.0
C89 C 0.86607 0.08893 0.47508 0.0
C90 C 0.90512 0.04375 0.53334 0.0
C91 C 0.871 0.05497 0.50661 0.0
H92 H 0.04085 0.12355 0.56493 0.0
H93 H 0.84854 0.03749 0.51044 0.0
H94 H 1.00497 0.90729 0.53229 0.0
H95 H 0.17407 0.02991 0.50136 0.0
H96 H 0.90876 0.01771 0.55825 0.0
H97 H 0.83966 0.09751 0.45426 0.0
H98 H 0.10962 0.03252 0.46766 0.0
H99 H 0.03786 0.1841 0.51234 0.0
H100 H 0.86592 0.15633 0.41945 0.0
H101 H 0.91801 0.19549 0.41775 0.0
H102 H 0.02698 0.84883 0.58552 0.0
H103 H 0.98244 0.20594 0.45167 0.0
H104 H 0.20034 0.97853 0.56805 0.0
N105 N 0.05523 0.93227 0.54514 0.0
C106 C 0.0905 0.92785 0.56505 0.0
C107 C 0.04508 0.87094 0.58044 0.0
C108 C 0.10432 0.89514 0.59577 0.0
C109 C 0.03262 0.90412 0.55065 0.0
C110 C 0.08103 0.86654 0.60362 0.0
N111 N 0.09832 0.98599 0.52009 0.0
C112 C 0.12021 0.01126 0.49919 0.0
C113 C 0.14969 0.95246 0.57186 0.0
C114 C 0.1127 0.95608 0.55318 0.0
C115 C 0.17177 0.9802 0.55469 0.0
C116 C 0.15703 0.00934 0.51723 0.0
H117 H 0.09059 0.84089 0.62686 0.0
H118 H 0.15195 0.86732 0.64142 0.0
H119 H 0.19177 0.9176 0.62046 0.0
O120 O 0.06249 0.97096 0.44049 0.0
O121 O 0.03855 0.97198 0.58084 0.0
O122 O 0.04109 0.02474 0.61084 0.0
O123 O 1.0053 0.96595 0.43792 0.0
O124 O 0.05356 0.04364 0.4902 0.0
O125 O 0.04626 0.06155 0.56565 0.0
O126 O 0.96813 0.03178 0.63813 0.0
O127 O 0.96714 0.03968 0.49421 0.0
O128 O 0.01447 0.03857 0.45392 0.0
O129 O 0.98304 0.08651 0.61884 0.0
O130 O 0.97392 0.99365 0.58273 0.0
O131 O 0.98275 0.97208 0.51011 0.0
C132 C 0.04999 0.99078 0.61665 0.0
C133 C 0.02831 0.94597 0.36895 0.0
C134 C 0.05315 0.92598 0.30105 0.0
C135 C 0.01851 0.91987 0.27642 0.0
C136 C 0.99394 0.9393 0.34362 0.0
C137 C 0.98916 0.92631 0.29776 0.0
C138 C 0.05809 0.9389 0.34763 0.0
C139 C 0.0624 0.06373 0.5255 0.0
C140 C 0.03232 0.96118 0.41645 0.0
C141 C 0.14085 0.89201 0.6169 0.0
C142 C 0.16349 0.9207 0.60511 0.0
C143 C 0.982 0.04928 0.45347 0.0
C144 C 0.98447 0.0626 0.70694 0.0
C145 C 0.97743 0.08024 0.78751 0.0
C146 C 1.00935 0.06168 0.81208 0.0
C147 C 0.01609 0.04422 0.73216 0.0
C148 C 0.96529 0.08065 0.7346 0.0
C149 C 0.0285 0.04385 0.78449 0.0
C150 C 0.96696 0.97105 0.55054 0.0
C151 C 0.97049 0.06264 0.65218 0.0
H152 H 0.01421 0.90995 0.24059 0.0
H153 H 0.97059 0.94443 0.35898 0.0
H154 H 0.96256 0.92142 0.2785 0.0
H155 H 0.08479 0.94393 0.36652 0.0
H156 H 0.01966 0.06115 0.85257 0.0
H157 H 0.0309 0.03002 0.7114 0.0
H158 H 0.94051 0.09435 0.71511 0.0
H159 H 0.05297 0.0296 0.80378 0.0
Tb160 Tb 0.48128 0.50032 0.99813 0.0
C161 C 0.60907 0.59319 0.05865 0.0
N162 N 0.60567 0.55764 0.07577 0.0
C163 C 0.6648 0.54685 0.0631 0.0
C164 C 0.63982 0.60692 0.0402 0.0
C165 C 0.63347 0.53451 0.0804 0.0
C166 C 0.66776 0.58315 0.04208 0.0
C167 C 0.58514 0.65307 0.04687 0.0
C168 C 0.58215 0.61575 0.06199 0.0
C169 C 0.6146 0.66694 0.02514 0.0
C170 C 0.64197 0.64389 0.02194 0.0
Tb171 Tb 0.55379 0.53975 0.10277 0.0
N172 N 0.55462 0.60122 0.0843 0.0
C173 C 0.5594 0.67529 0.05644 0.0
C174 C 0.5317 0.62297 0.09855 0.0
C175 C 0.53309 0.66017 0.08355 0.0
H176 H 0.6311 0.50649 0.09657 0.0
H177 H 0.51428 0.67714 0.09381 0.0
H178 H 0.41353 0.55937 0.9793 0.0
H179 H 0.48327 0.357 0.05579 0.0
H180 H 0.51239 0.61185 0.12187 0.0
H181 H 0.5607 0.70412 0.0455 0.0
H182 H 0.50596 0.41591 0.01942 0.0
H183 H 0.68652 0.52838 0.06569 0.0
H184 H 0.61713 0.69552 0.01257 0.0
H185 H 0.6651 0.65499 1.00673 0.0
H186 H 0.35666 0.56213 0.00886 0.0
H187 H 0.69193 0.59262 0.02842 0.0
H188 H 0.42647 0.35347 0.08867 0.0
N189 N 0.42646 0.5061 0.02027 0.0
C190 C 0.41292 0.47545 0.04431 0.0
C191 C 0.37253 0.5377 0.02003 0.0
C192 C 0.37918 0.47504 0.05879 0.0
C193 C 0.40554 0.53635 1.00475 0.0
C194 C 0.35955 0.50705 0.04804 0.0
N195 N 0.46347 0.44524 0.03421 0.0
C196 C 0.48154 0.41457 0.0346 0.0
C197 C 0.41739 0.41082 0.07061 0.0
C198 C 0.43166 0.44376 0.05034 0.0
C199 C 0.43651 0.37934 0.07324 0.0
C200 C 0.46861 0.38122 0.0548 0.0
H201 H 0.33359 0.50794 0.05874 0.0
H202 H 0.33944 0.44164 0.09224 0.0
H203 H 0.3729 0.38534 0.10227 0.0
O204 O 0.48814 0.47458 0.93709 0.0
O205 O 0.49491 0.47435 0.08058 0.0
O206 O 0.50354 0.51995 0.12517 0.0
O207 O 0.44177 0.50645 0.93131 0.0
O208 O 0.53588 0.47898 0.00919 0.0
O209 O 0.56373 0.48486 0.09234 0.0
O210 O 0.57595 0.56089 0.16937 0.0
O211 O 0.56465 0.54094 0.02455 0.0
O212 O 0.51049 0.54821 0.96925 0.0
O213 O 0.57864 0.50398 0.16879 0.0
O214 O 0.49806 0.55881 0.0869 0.0
O215 O 0.47709 0.55756 1.00102 0.0
C216 C 0.49037 0.48852 0.1199 0.0
C217 C 0.43348 0.4554 0.89313 0.0
C218 C 0.41406 0.41573 0.83192 0.0
C219 C 0.38913 0.40071 0.86224 0.0
C220 C 0.407 0.44101 0.92097 0.0
C221 C 0.38554 0.41345 0.90626 0.0
C222 C 0.43654 0.44303 0.84778 0.0
C223 C 0.56025 0.46935 0.0515 0.0
C224 C 0.45669 0.48409 0.91049 0.0
C225 C 0.36535 0.44247 0.08095 0.0
C226 C 0.38433 0.4104 0.08658 0.0
C227 C 0.54494 0.55419 0.97956 0.0
C228 C 0.60644 0.522 0.24879 0.0
C229 C 0.6291 0.54056 0.33118 0.0
C230 C 0.64453 0.50625 0.35045 0.0
C231 C 0.62191 0.48796 0.26949 0.0
C232 C 0.61028 0.54841 0.27977 0.0
C233 C 0.64088 0.48026 0.31986 0.0
C234 C 0.47823 0.57215 0.04199 0.0
C235 C 0.58679 0.52933 0.19488 0.0
H236 H 0.37139 0.37998 0.85071 0.0
H237 H 0.40218 0.45155 0.95349 0.0
H238 H 0.36548 0.40249 0.92847 0.0
H239 H 0.45598 0.45471 0.82482 0.0
H240 H 0.65983 0.49953 0.38924 0.0
H241 H 0.61959 0.46722 0.2466 0.0
H242 H 0.59819 0.57466 0.2643 0.0
H243 H 0.65291 0.45402 0.33526 0.0
C244 C 0.20917 0.21626 0.46507 0.0
C245 C 0.24093 0.19783 0.4665 0.0
C246 C 0.17911 0.19776 0.48011 0.0
C247 C 0.18075 0.15998 0.49647 0.0
C248 C 0.21352 0.14178 0.50122 0.0
C249 C 0.24309 0.16089 0.48671 0.0
C250 C 0.14504 0.21841 0.47577 0.0
C251 C 0.21678 0.1016 0.51774 0.0
C252 C 0.1107 0.10373 0.56001 0.0
C253 C 0.09079 0.09083 0.5181 0.0
C254 C 0.13884 0.1278 0.55327 0.0
C255 C 0.14781 0.13877 0.50361 0.0
C256 C 0.12703 0.12664 0.46102 0.0
C257 C 0.09864 0.10331 0.46868 0.0
C258 C 0.15976 0.14052 0.5996 0.0
C259 C 0.13568 0.13713 0.40746 0.0
H260 H 0.20717 0.24475 0.44956 0.0
H261 H 0.26769 0.14647 0.48884 0.0
H262 H 0.12558 0.21313 0.44207 0.0
H263 H 0.1329 0.20958 0.51061 0.0
H264 H 0.14948 0.2477 0.47069 0.0
H265 H 0.24496 0.09213 0.52654 0.0
H266 H 0.20447 0.09216 0.55224 0.0
H267 H 0.20235 0.08903 0.48608 0.0
H268 H 0.10478 0.09444 0.59833 0.0
H269 H 0.08298 0.09414 0.43583 0.0
H270 H 0.16278 0.16999 0.5909 0.0
H271 H 0.18691 0.12837 0.60913 0.0
H272 H 0.14688 0.13326 0.63406 0.0
H273 H 0.13637 0.16667 0.39608 0.0
H274 H 0.11606 0.12672 0.37807 0.0
H275 H 0.16251 0.12657 0.40714 0.0
C276 C 0.33454 0.73179 0.01166 0.0
C277 C 0.35192 0.75866 0.03567 0.0
C278 C 0.35216 0.69928 0.01312 0.0
C279 C 0.38818 0.69372 0.03836 0.0
C280 C 0.40532 0.72016 0.06422 0.0
C281 C 0.38689 0.75186 0.06321 0.0
C282 C 0.33257 0.6713 0.98641 0.0
C283 C 0.4438 0.71584 0.09096 0.0
C284 C 0.43447 0.60235 0.07914 0.0
C285 C 0.45354 0.60222 0.0392 0.0
C286 C 0.41157 0.63105 0.07796 0.0
C287 C 0.40862 0.66096 0.03673 0.0
C288 C 0.42762 0.66067 0.99599 0.0
C289 C 0.44941 0.631 0.99732 0.0
C290 C 0.3912 0.62973 0.12149 0.0
C291 C 0.42604 0.69228 0.95198 0.0
H292 H 0.30762 0.7366 0.99018 0.0
H293 H 0.40037 0.77183 0.08324 0.0
H294 H 0.34429 0.66892 0.95227 0.0
H295 H 0.33551 0.64476 0.01264 0.0
H296 H 0.30374 0.67791 0.97337 0.0
H297 H 0.45229 0.73731 0.1131 0.0
H298 H 0.44842 0.6896 0.11771 0.0
H299 H 0.461 0.71659 0.0616 0.0
H300 H 0.43732 0.5798 0.11123 0.0
H301 H 0.46429 0.63089 0.96656 0.0
H302 H 0.36262 0.63619 0.10585 0.0
H303 H 0.40159 0.65012 0.14463 0.0
H304 H 0.39337 0.60308 0.14754 0.0
H305 H 0.39798 0.69881 0.93318 0.0
H306 H 0.44124 0.68732 0.92236 0.0
H307 H 0.43714 0.7161 0.96711 0.0
C308 C 0.87002 0.79012 0.64374 0.0
C309 C 0.8336 0.79355 0.64505 0.0
C310 C 0.88953 0.81916 0.62274 0.0
C311 C 0.87227 0.85266 0.60157 0.0
C312 C 0.83498 0.85571 0.5994 0.0
C313 C 0.81609 0.82616 0.62128 0.0
C314 C 0.92915 0.81445 0.62605 0.0
C315 C 0.81537 0.89071 0.57638 0.0
C316 C 0.93157 0.93378 0.61109 0.0
C317 C 0.94108 0.94199 0.56204 0.0
C318 C 0.90854 0.90549 0.62381 0.0
C319 C 0.89406 0.88492 0.58646 0.0
C320 C 0.90266 0.89371 0.53634 0.0
C321 C 0.92623 0.92191 0.52485 0.0
C322 C 0.90064 0.8969 0.67794 0.0
C323 C 0.88749 0.87289 0.49511 0.0
H324 H 0.88368 0.76484 0.66109 0.0
H325 H 0.78803 0.82916 0.62211 0.0
H326 H 0.93665 0.82393 0.58773 0.0
H327 H 0.94382 0.83087 0.65276 0.0
H328 H 0.93809 0.78613 0.64017 0.0
H329 H 0.786 0.88759 0.5712 0.0
H330 H 0.82323 0.91019 0.6021 0.0
H331 H 0.82262 0.90224 0.53844 0.0
H332 H 0.94286 0.94894 0.64028 0.0
H333 H 0.93311 0.92813 0.4867 0.0
H334 H 0.91095 0.86968 0.69707 0.0
H335 H 0.87144 0.89693 0.67679 0.0
H336 H 0.91285 0.91625 0.70191 0.0
H337 H 0.89817 0.84506 0.50617 0.0
H338 H 0.89407 0.88502 0.4569 0.0
H339 H 0.85809 0.87138 0.49141 0.0
C340 C 0.70549 0.32073 0.03943 0.0
C341 C 0.69147 0.28671 0.0538 0.0
C342 C 0.68731 0.3519 0.04249 0.0
C343 C 0.65441 0.34894 0.0604 0.0
C344 C 0.64133 0.31456 0.07783 0.0
C345 C 0.66001 0.28398 0.07441 0.0
C346 C 0.70237 0.388 0.02396 0.0
C347 C 0.60658 0.31002 0.0976 0.0
C348 C 0.61141 0.42755 0.09735 0.0
C349 C 0.58549 0.43955 0.05316 0.0
C350 C 0.63475 0.39887 0.09977 0.0
C351 C 0.63207 0.38145 0.05717 0.0
C352 C 0.60641 0.39378 0.01219 0.0
C353 C 0.58359 0.42264 0.01067 0.0
C354 C 0.66179 0.38674 0.14836 0.0
C355 C 0.60248 0.37595 0.96591 0.0
H356 H 0.72965 0.32308 0.02321 0.0
H357 H 0.64927 0.25775 0.08626 0.0
H358 H 0.68533 0.4013 0.98744 0.0
H359 H 0.70235 0.40548 0.05258 0.0
H360 H 0.72997 0.38586 0.01692 0.0
H361 H 0.60144 0.28159 0.1133 0.0
H362 H 0.60656 0.32577 0.1283 0.0
H363 H 0.58425 0.32034 0.06575 0.0
H364 H 0.61332 0.44032 0.13048 0.0
H365 H 0.5639 0.43162 0.97619 0.0
H366 H 0.68882 0.38565 0.13889 0.0
H367 H 0.65555 0.3593 0.16698 0.0
H368 H 0.66229 0.40467 0.17658 0.0
H369 H 0.62836 0.37565 0.95271 0.0
H370 H 0.58223 0.3896 0.93315 0.0
H371 H 0.59455 0.34771 0.97679 0.0
C372 C 0.2023 0.88364 0.14041 0.0
C373 C 0.18313 0.86559 0.10351 0.0
C374 C 0.18617 0.89319 0.17928 0.0
C375 C 0.15015 0.88424 0.1814 0.0
C376 C 0.13143 0.86428 0.14589 0.0
C377 C 0.14808 0.85534 0.1074 0.0
C378 C 0.20706 0.91445 0.21629 0.0
C379 C 0.09316 0.85375 0.14695 0.0
C380 C 0.10464 0.88819 0.29551 0.0
C381 C 0.0834 0.9191 0.27644 0.0
C382 C 0.12825 0.87743 0.26638 0.0
C383 C 0.13067 0.89824 0.21726 0.0
C384 C 0.11087 0.93073 0.19963 0.0
C385 C 0.08725 0.94057 0.22922 0.0
C386 C 0.1487 0.84259 0.28657 0.0
C387 C 0.11285 0.954 0.1479 0.0
H388 H 0.22932 0.89184 0.13736 0.0
H389 H 0.13329 0.84108 0.07924 0.0
H390 H 0.19629 0.94224 0.20738 0.0
H391 H 0.20428 0.90285 0.25657 0.0
H392 H 0.23582 0.91545 0.21382 0.0
H393 H 0.08335 0.8358 0.1195 0.0
H394 H 0.09025 0.84003 0.18635 0.0
H395 H 0.07589 0.8781 0.13674 0.0
H396 H 0.10126 0.87138 0.33177 0.0
H397 H 0.07058 0.96435 0.21443 0.0
H398 H 0.17689 0.84583 0.28162 0.0
H399 H 0.13694 0.82225 0.26415 0.0
H400 H 0.14797 0.83228 0.32801 0.0
H401 H 0.14102 0.95882 0.14369 0.0
H402 H 0.09905 0.98023 0.14249 0.0
H403 H 0.10026 0.94011 0.11659 0.0
C404 C 0.6377 0.62992 0.73635 0.0
C405 C 0.65365 0.66345 0.73783 0.0
C406 C 0.61856 0.61346 0.77445 0.0
C407 C 0.61578 0.63027 0.81626 0.0
C408 C 0.63173 0.66401 0.81831 0.0
C409 C 0.65015 0.6803 0.77898 0.0
C410 C 0.60194 0.57753 0.77051 0.0
C411 C 0.62992 0.6826 0.86264 0.0
C412 C 0.54361 0.59809 0.89596 0.0
C413 C 0.56273 0.57383 0.93761 0.0
C414 C 0.56052 0.61695 0.85649 0.0
C415 C 0.59751 0.61163 0.85881 0.0
C416 C 0.61686 0.58716 0.90083 0.0
C417 C 0.59917 0.56835 0.93917 0.0
C418 C 0.53873 0.64228 0.81201 0.0
C419 C 0.65633 0.5808 0.90539 0.0
H420 H 0.64085 0.61588 0.70597 0.0
H421 H 0.66187 0.70629 0.78061 0.0
H422 H 0.61495 0.55689 0.80333 0.0
H423 H 0.57327 0.57845 0.77293 0.0
H424 H 0.60445 0.56906 0.73394 0.0
H425 H 0.64276 0.70918 0.85799 0.0
H426 H 0.60176 0.68621 0.86614 0.0
H427 H 0.64332 0.66577 0.89937 0.0
H428 H 0.51541 0.60248 0.89429 0.0
H429 H 0.61391 0.54885 0.97016 0.0
H430 H 0.53978 0.63342 0.77527 0.0
H431 H 0.55008 0.66949 0.80901 0.0
H432 H 0.5104 0.64387 0.81617 0.0
H433 H 0.66197 0.57294 0.8699 0.0
H434 H 0.66716 0.55962 0.93903 0.0
H435 H 0.67078 0.60594 0.90956 0.0
C436 C 0.86747 0.17886 0.20567 0.0
C437 C 0.86471 0.16145 0.16367 0.0
C438 C 0.88583 0.16263 0.25492 0.0
C439 C 0.90128 0.12802 0.26231 0.0
C440 C 0.89773 0.11008 0.2202 0.0
C441 C 0.87946 0.12692 0.17165 0.0
C442 C 0.88859 0.18247 0.29892 0.0
C443 C 0.9136 0.07314 0.22625 0.0
C444 C 0.9784 0.09414 0.37139 0.0
C445 C 0.96127 0.07027 0.40544 0.0
C446 C 0.95897 0.11425 0.32562 0.0
C447 C 0.92155 0.11026 0.31359 0.0
C448 C 0.90412 0.08662 0.34843 0.0
C449 C 0.92425 0.06666 0.39366 0.0
C450 C 0.97857 0.13921 0.28958 0.0
C451 C 0.86427 0.08193 0.33752 0.0
H452 H 0.85601 0.20548 0.19974 0.0
H453 H 0.87674 0.11296 0.1396 0.0
H454 H 0.87103 0.16971 0.32568 0.0
H455 H 0.91622 0.18109 0.32109 0.0
H456 H 0.88036 0.21102 0.28534 0.0
H457 H 0.90835 0.06281 0.18965 0.0
H458 H 0.94285 0.07365 0.23955 0.0
H459 H 0.90248 0.05413 0.25604 0.0
H460 H 1.00703 0.09715 0.38064 0.0
H461 H 0.91102 0.04786 0.41963 0.0
H462 H 0.96653 0.16646 0.28097 0.0
H463 H 0.97605 0.12986 0.25242 0.0
H464 H 1.00733 0.14084 0.30592 0.0
H465 H 0.85062 0.1081 0.3328 0.0
H466 H 0.85476 0.0628 0.36887 0.0
H467 H 0.8563 0.07212 0.30082 0.0
C468 C 0.40564 0.35236 0.56007 0.0
C469 C 0.36982 0.34565 0.54143 0.0
C470 C 0.41602 0.36319 0.60765 0.0
C471 C 0.38991 0.36773 0.63726 0.0
C472 C 0.35376 0.36036 0.61908 0.0
C473 C 0.34418 0.34915 0.57151 0.0
C474 C 0.45488 0.37015 0.62594 0.0
C475 C 0.32508 0.36507 0.64938 0.0
C476 C 0.41513 0.36739 0.78108 0.0
C477 C 0.41408 0.404 0.7823 0.0
C478 C 0.40861 0.35528 0.73408 0.0
C479 C 0.40033 0.38037 0.68713 0.0
C480 C 0.40072 0.41747 0.68806 0.0
C481 C 0.40782 0.42886 0.7357 0.0
C482 C 0.40922 0.31557 0.73482 0.0
C483 C 0.39191 0.44508 0.6389 0.0
H484 H 0.42563 0.34927 0.53715 0.0
H485 H 0.31647 0.34421 0.55705 0.0
H486 H 0.45836 0.39854 0.62977 0.0
H487 H 0.46429 0.35351 0.66467 0.0
H488 H 0.472 0.36428 0.59912 0.0
H489 H 0.29829 0.35806 0.63013 0.0
H490 H 0.33123 0.34806 0.68847 0.0
H491 H 0.32427 0.39326 0.65445 0.0
H492 H 0.42001 0.34814 0.81715 0.0
H493 H 0.40653 0.45713 0.7366 0.0
H494 H 0.42653 0.30944 0.70846 0.0
H495 H 0.38198 0.30667 0.72076 0.0
H496 H 0.41894 0.29979 0.77413 0.0
H497 H 0.40916 0.44106 0.61131 0.0
H498 H 0.39522 0.47285 0.64596 0.0
H499 H 0.36392 0.44192 0.62016 0.0
C500 C 0.64389 0.67622 0.53071 0.0
C501 C 0.67882 0.67325 0.55898 0.0
C502 C 0.6341 0.65964 0.48781 0.0
C503 C 0.65975 0.63925 0.4731 0.0
C504 C 0.69553 0.63801 0.49959 0.0
C505 C 0.70464 0.6551 0.54205 0.0
C506 C 0.59582 0.66219 0.46022 0.0
C507 C 0.72373 0.6165 0.48543 0.0
C508 C 0.63008 0.55677 0.41756 0.0
C509 C 0.63314 0.56748 0.36549 0.0
C510 C 0.63779 0.58017 0.45241 0.0
C511 C 0.64847 0.61553 0.43488 0.0
C512 C 0.64993 0.62719 0.38184 0.0
C513 C 0.64232 0.60299 0.34775 0.0
C514 C 0.63565 0.56656 0.5085 0.0
C515 C 0.66072 0.66479 0.36148 0.0
H516 H 0.62389 0.69053 0.54327 0.0
H517 H 0.73158 0.65235 0.56395 0.0
H518 H 0.59439 0.66807 0.41777 0.0
H519 H 0.58274 0.63615 0.47017 0.0
H520 H 0.58056 0.68319 0.47107 0.0
H521 H 0.75088 0.62129 0.50596 0.0
H522 H 0.71801 0.58757 0.49549 0.0
H523 H 0.7234 0.62308 0.44326 0.0
H524 H 0.62222 0.52965 0.43141 0.0
H525 H 0.64486 0.61151 0.30765 0.0
H526 H 0.6176 0.58402 0.52139 0.0
H527 H 0.66239 0.56738 0.53275 0.0
H528 H 0.62587 0.53869 0.51561 0.0
H529 H 0.64507 0.68448 0.37434 0.0
H530 H 0.65691 0.67087 0.31865 0.0
H531 H 0.68921 0.66843 0.37727 0.0
C532 C 0.89975 0.18528 0.97507 0.0
C533 C 0.86345 0.17883 0.97539 0.0
C534 C 0.9174 0.1721 0.94075 0.0
C535 C 0.89836 0.15185 0.90593 0.0
C536 C 0.86129 0.14688 0.90418 0.0
C537 C 0.84426 0.16048 0.93889 0.0
C538 C 0.95686 0.17831 0.9436 0.0
C539 C 0.83999 0.12547 0.86767 0.0
C540 C 0.94172 0.13281 0.79641 0.0
C541 C 0.95663 0.09856 0.81725 0.0
C542 C 0.92244 0.15044 0.82454 0.0
C543 C 0.91784 0.13338 0.87465 0.0
C544 C 0.93251 0.09867 0.89563 0.0
C545 C 0.95171 0.08175 0.86675 0.0
C546 C 0.90738 0.18747 0.80093 0.0
C547 C 0.92804 0.07941 0.94878 0.0
H548 H 0.91462 0.19972 1.00291 0.0
H549 H 0.81631 0.15503 0.9393 0.0
H550 H 0.97162 0.15254 0.95855 0.0
H551 H 0.96279 0.18886 0.90456 0.0
H552 H 0.96704 0.19735 0.96923 0.0
H553 H 0.81092 0.12711 0.86734 0.0
H554 H 0.8449 0.13497 0.82782 0.0
H555 H 0.84861 0.09696 0.87938 0.0
H556 H 0.94567 0.14613 0.75838 0.0
H557 H 0.96263 0.05508 0.88281 0.0
H558 H 0.91934 0.20678 0.82503 0.0
H559 H 0.87821 0.18794 0.79997 0.0
H560 H 0.91247 0.19668 0.76105 0.0
H561 H 0.94017 0.09516 0.97807 0.0
H562 H 0.94055 0.05228 0.95915 0.0
H563 H 0.89931 0.0768 0.95085 0.0
C564 C 0.36306 0.38082 0.30527 0.0
C565 C 0.38211 0.37105 0.35587 0.0
C566 C 0.37914 0.40059 0.2656 0.0
C567 C 0.41535 0.41052 0.27645 0.0
C568 C 0.43465 0.40081 0.32749 0.0
C569 C 0.4179 0.38121 0.36636 0.0
C570 C 0.3574 0.41001 0.21195 0.0
C571 C 0.47319 0.41093 0.34105 0.0
C572 C 0.47134 0.43108 0.17035 0.0
C573 C 0.47115 0.46858 0.15976 0.0
C574 C 0.45241 0.4119 0.20695 0.0
C575 C 0.43346 0.43062 0.23471 0.0
C576 C 0.43337 0.46855 0.22433 0.0
C577 C 0.45219 0.48705 0.18703 0.0
C578 C 0.45261 0.37156 0.2158 0.0
C579 C 0.41342 0.48961 0.25275 0.0
H580 H 0.33539 0.37332 0.29672 0.0
H581 H 0.43315 0.3733 0.40505 0.0
H582 H 0.36327 0.43735 0.19256 0.0
H583 H 0.3643 0.39086 0.18885 0.0
H584 H 0.32834 0.40824 0.21219 0.0
H585 H 0.48421 0.40223 0.3828 0.0
H586 H 0.48954 0.39859 0.3186 0.0
H587 H 0.47589 0.44036 0.33048 0.0
H588 H 0.4864 0.41667 0.14997 0.0
H589 H 0.4518 0.51605 0.17886 0.0
H590 H 0.42495 0.36203 0.20665 0.0
H591 H 0.46304 0.36021 0.25699 0.0
H592 H 0.46906 0.36099 0.19166 0.0
H593 H 0.38487 0.48232 0.24707 0.0
H594 H 0.41539 0.51896 0.23957 0.0
H595 H 0.42411 0.48281 0.29479 0.0
C596 C 0.18666 0.89576 0.86799 0.0
C597 C 0.16958 0.88405 0.91052 0.0
C598 C 0.16738 0.91159 0.81929 0.0
C599 C 0.13035 0.91807 0.81323 0.0
C600 C 0.11283 0.90669 0.85557 0.0
C601 C 0.13232 0.88879 0.90286 0.0
C602 C 0.18672 0.92158 0.7743 0.0
C603 C 0.07347 0.91379 0.8511 0.0
C604 C 0.08983 0.99198 0.70175 0.0
C605 C 0.07061 0.97236 0.66697 0.0
C606 C 0.10866 0.97471 0.74996 0.0
C607 C 0.10985 0.93681 0.76266 0.0
C608 C 0.09097 0.91687 0.72733 0.0
C609 C 0.07089 0.93492 0.68067 0.0
C610 C 0.12679 0.99705 0.78761 0.0
C611 C 0.09261 0.87647 0.73797 0.0
H612 H 0.21528 0.8933 0.87244 0.0
H613 H 0.11801 0.87882 0.93388 0.0
H614 H 0.17275 0.91049 0.74083 0.0
H615 H 0.18677 0.95109 0.76197 0.0
H616 H 0.21475 0.91162 0.784 0.0
H617 H 0.06433 0.90561 0.88861 0.0
H618 H 0.06735 0.94272 0.83654 0.0
H619 H 0.05788 0.89905 0.82288 0.0
H620 H 0.08988 0.02093 0.69155 0.0
H621 H 0.05525 0.91956 0.65495 0.0
H622 H 0.15603 0.99251 0.79479 0.0
H623 H 0.1178 0.98894 0.8252 0.0
H624 H 0.12117 0.02611 0.77336 0.0
H625 H 0.11919 0.86767 0.73339 0.0
H626 H 0.07195 0.86502 0.71109 0.0
H627 H 0.0893 0.86512 0.77805 0.0
loop_
_geom_bond_atom_site_label_1
_geom_bond_atom_site_label_2
_geom_bond_distance
_geom_bond_site_symmetry_2
_ccdc_geom_bond_type
H0 C1 0.949 . S
C1 H0 0.949 . S
C1 C2 1.395 . S
C1 C3 1.391 . S
C2 C1 1.395 . S
C2 C5 1.390 . S
C3 C1 1.391 . S
C3 C7 1.387 1_554 S
C3 C8 1.491 . S
H4 C5 0.950 . S
C5 C2 1.390 . S
C5 H4 0.950 . S
C5 C6 1.378 1_554 S
C6 C5 1.378 1_556 S
C6 C7 1.409 . S
C7 C3 1.387 1_556 S
C7 C6 1.409 . S
C7 H9 0.951 . S
C8 C3 1.491 . S
C8 C10 1.382 . S
C8 C12 1.404 1_554 S
H9 C7 0.951 . S
C10 C8 1.382 . S
C10 C11 1.390 . S
C10 H15 0.949 . S
C11 C10 1.390 . S
C11 C16 1.399 . S
C12 C8 1.404 1_556 S
C12 H13 0.950 . S
C12 C14 1.375 . S
H13 C12 0.950 . S
C14 C12 1.375 . S
C14 C16 1.382 1_556 S
C14 H18 0.950 . S
H15 C10 0.949 . S
C16 C11 1.399 . S
C16 C14 1.382 1_554 S
C16 H17 0.952 . S
H17 C16 0.952 . S
H18 C14 0.950 . S
H19 C20 0.949 . S
C20 H19 0.949 . S
C20 C21 1.395 . S
C20 C22 1.391 . S
C21 C20 1.395 . S
C21 C24 1.390 . S
C22 C20 1.391 . S
C22 C26 1.387 . S
C22 C27 1.491 . S
H23 C24 0.950 . S
C24 C21 1.390 . S
C24 H23 0.950 . S
C24 C25 1.378 . S
C25 C24 1.378 . S
C25 C26 1.409 . S
C26 C22 1.387 . S
C26 C25 1.409 . S
C26 H28 0.951 . S
C27 C22 1.491 . S
C27 C29 1.382 . S
C27 C31 1.404 . S
H28 C26 0.951 . S
C29 C27 1.382 . S
C29 C30 1.390 . S
C29 H34 0.949 . S
C30 C29 1.390 . S
C30 C35 1.399 . S
C31 C27 1.404 . S
C31 H32 0.950 . S
C31 C33 1.375 . S
H32 C31 0.950 . S
C33 C31 1.375 . S
C33 C35 1.382 . S
C33 H37 0.950 . S
H34 C29 0.949 . S
C35 C30 1.399 . S
C35 C33 1.382 . S
C35 H36 0.952 . S
H36 C35 0.952 . S
H37 C33 0.950 . S
H38 C39 0.949 . S
C39 H38 0.949 . S
C39 C40 1.395 . S
C39 C41 1.391 . S
C40 C39 1.395 . S
C40 C43 1.390 . S
C41 C39 1.391 . S
C41 C45 1.387 1_554 S
C41 C46 1.491 . S
H42 C43 0.950 . S
C43 C40 1.390 . S
C43 H42 0.950 . S
C43 C44 1.378 . S
C44 C43 1.378 . S
C44 C45 1.409 1_554 S
C45 C41 1.387 1_556 S
C45 C44 1.409 1_556 S
C45 H47 0.951 . S
C46 C41 1.491 . S
C46 C48 1.382 . S
C46 C50 1.404 1_554 S
H47 C45 0.951 . S
C48 C46 1.382 . S
C48 C49 1.390 . S
C48 H53 0.949 . S
C49 C48 1.390 . S
C49 C54 1.399 1_554 S
C50 C46 1.404 1_556 S
C50 H51 0.950 . S
C50 C52 1.375 . S
H51 C50 0.950 . S
C52 C50 1.375 . S
C52 C54 1.382 . S
C52 H56 0.950 . S
H53 C48 0.949 . S
C54 C49 1.399 1_556 S
C54 C52 1.382 . S
C54 H55 0.952 . S
H55 C54 0.952 . S
H56 C52 0.950 . S
H57 C58 0.949 . S
C58 H57 0.949 . S
C58 C59 1.395 . S
C58 C60 1.391 . S
C59 C58 1.395 . S
C59 C62 1.390 . S
C60 C58 1.391 . S
C60 C64 1.387 . S
C60 C65 1.491 . S
H61 C62 0.950 . S
C62 C59 1.390 . S
C62 H61 0.950 . S
C62 C63 1.378 . S
C63 C62 1.378 . S
C63 C64 1.409 . S
C64 C60 1.387 . S
C64 C63 1.409 . S
C64 H66 0.951 . S
C65 C60 1.491 . S
C65 C67 1.382 . S
C65 C69 1.404 . S
H66 C64 0.951 . S
C67 C65 1.382 . S
C67 C68 1.390 . S
C67 H72 0.949 . S
C68 C67 1.390 . S
C68 C73 1.399 . S
C69 C65 1.404 . S
C69 H70 0.950 . S
C69 C71 1.375 . S
H70 C69 0.950 . S
C71 C69 1.375 . S
C71 C73 1.382 . S
C71 H75 0.950 . S
H72 C67 0.949 . S
C73 C68 1.399 . S
C73 C71 1.382 . S
C73 H74 0.952 . S
H74 C73 0.952 . S
H75 C71 0.950 . S
Tb76 N105 2.617 . S
Tb76 N111 2.572 . S
Tb76 O120 2.465 . S
Tb76 O121 2.387 . S
Tb76 O123 2.428 . S
Tb76 O124 2.308 1_565 S
Tb76 O128 2.349 1_465 S
Tb76 O131 2.393 1_455 S
Tb76 C140 2.802 . S
C77 N78 1.379 . S
C77 C80 1.416 . S
C77 C84 1.424 . S
N78 C77 1.379 . S
N78 C81 1.334 1_655 S
N78 Tb87 2.617 . S
C79 C81 1.390 . S
C79 C82 1.339 1_455 S
C79 H99 0.930 . S
C80 C77 1.416 . S
C80 C82 1.416 . S
C80 C86 1.448 . S
C81 N78 1.334 1_455 S
C81 C79 1.390 . S
C81 H92 0.930 . S
C82 C79 1.339 1_655 S
C82 C80 1.416 . S
C82 H103 0.930 . S
C83 C84 1.413 . S
C83 C85 1.427 . S
C83 C89 1.416 . S
C84 C77 1.424 . S
C84 C83 1.413 . S
C84 N88 1.361 . S
C85 C83 1.427 . S
C85 C86 1.328 . S
C85 H100 0.929 . S
C86 C80 1.448 . S
C86 C85 1.328 . S
C86 H101 0.930 . S
Tb87 N78 2.617 . S
Tb87 N88 2.572 . S
Tb87 O122 2.349 1_655 S
Tb87 O125 2.393 1_655 S
Tb87 O126 2.465 . S
Tb87 O127 2.387 . S
Tb87 O129 2.428 . S
Tb87 O130 2.308 1_545 S
Tb87 C151 2.802 . S
N88 C84 1.361 . S
N88 Tb87 2.572 . S
N88 C90 1.340 . S
C89 C83 1.416 . S
C89 C91 1.332 . S
C89 H97 0.931 . S
C90 N88 1.340 . S
C90 C91 1.407 . S
C90 H96 0.930 . S
C91 C89 1.332 . S
C91 C90 1.407 . S
C91 H93 0.929 . S
H92 C81 0.930 . S
H93 C91 0.929 . S
H94 C109 0.930 1_655 S
H95 C116 0.929 . S
H96 C90 0.930 . S
H97 C89 0.931 . S
H98 C112 0.930 . S
H99 C79 0.930 . S
H100 C85 0.929 . S
H101 C86 0.930 . S
H102 C107 0.930 1_655 S
H103 C82 0.930 . S
H104 C115 0.931 . S
N105 Tb76 2.617 . S
N105 C106 1.379 . S
N105 C109 1.334 . S
C106 N105 1.379 . S
C106 C108 1.416 . S
C106 C114 1.424 . S
C107 H102 0.930 1_455 S
C107 C109 1.390 . S
C107 C110 1.339 . S
C108 C106 1.416 . S
C108 C110 1.416 . S
C108 C141 1.448 . S
C109 H94 0.930 1_455 S
C109 N105 1.334 . S
C109 C107 1.390 . S
C110 C107 1.339 . S
C110 C108 1.416 . S
C110 H117 0.930 . S
N111 Tb76 2.572 . S
N111 C112 1.340 . S
N111 C114 1.361 . S
C112 H98 0.930 . S
C112 N111 1.340 . S
C112 C116 1.407 . S
C113 C114 1.413 . S
C113 C115 1.416 . S
C113 C142 1.427 . S
C114 C106 1.424 . S
C114 N111 1.361 . S
C114 C113 1.413 . S
C115 H104 0.931 . S
C115 C113 1.416 . S
C115 C116 1.332 . S
C116 H95 0.929 . S
C116 C112 1.407 . S
C116 C115 1.332 . S
H117 C110 0.930 . S
H118 C141 0.930 . S
H119 C142 0.929 . S
O120 Tb76 2.465 . S
O120 C140 1.264 . S
O121 Tb76 2.387 . S
O121 C132 1.264 . S
O122 Tb87 2.349 1_455 S
O122 C132 1.243 1_545 S
O123 Tb76 2.428 . S
O123 C140 1.256 . S
O124 Tb76 2.308 1_545 S
O124 C139 1.266 . S
O125 Tb87 2.393 1_455 S
O125 C139 1.248 . S
O126 Tb87 2.465 . S
O126 C151 1.264 . S
O127 Tb87 2.387 . S
O127 C143 1.264 . S
O128 Tb76 2.349 1_645 S
O128 C143 1.243 . S
O129 Tb87 2.428 . S
O129 C151 1.256 . S
O130 Tb87 2.308 1_565 S
O130 C150 1.266 . S
O131 Tb76 2.393 1_655 S
O131 C150 1.248 . S
C132 O121 1.264 . S
C132 O122 1.243 1_565 S
C133 C136 1.399 . S
C133 C138 1.383 . S
C133 C140 1.496 . S
C134 C135 1.399 . S
C134 C138 1.389 . S
C135 C134 1.399 . S
C135 C137 1.380 . S
C135 H152 0.929 . S
C136 C133 1.399 . S
C136 C137 1.392 . S
C136 H153 0.929 . S
C137 C135 1.380 . S
C137 C136 1.392 . S
C137 H154 0.929 . S
C138 C133 1.383 . S
C138 C134 1.389 . S
C138 H155 0.931 . S
C139 O124 1.266 . S
C139 O125 1.248 . S
C140 Tb76 2.802 . S
C140 O120 1.264 . S
C140 O123 1.256 . S
C140 C133 1.496 . S
C141 C108 1.448 . S
C141 H118 0.930 . S
C141 C142 1.328 . S
C142 C113 1.427 . S
C142 H119 0.929 . S
C142 C141 1.328 . S
C143 O127 1.264 . S
C143 O128 1.243 . S
C144 C147 1.399 . S
C144 C148 1.383 . S
C144 C151 1.496 . S
C145 C146 1.399 . S
C145 C148 1.389 . S
C146 C145 1.399 . S
C146 C149 1.380 . S
C146 H156 0.929 . S
C147 C144 1.399 . S
C147 C149 1.392 . S
C147 H157 0.929 . S
C148 C144 1.383 . S
C148 C145 1.389 . S
C148 H158 0.931 . S
C149 C146 1.380 . S
C149 C147 1.392 . S
C149 H159 0.929 . S
C150 O130 1.266 . S
C150 O131 1.248 . S
C151 Tb87 2.802 . S
C151 O126 1.264 . S
C151 O129 1.256 . S
C151 C144 1.496 . S
H152 C135 0.929 . S
H153 C136 0.929 . S
H154 C137 0.929 . S
H155 C138 0.931 . S
H156 C146 0.929 . S
H157 C147 0.929 . S
H158 C148 0.931 . S
H159 C149 0.929 . S
Tb160 N189 2.613 1_556 S
Tb160 N195 2.572 1_556 S
Tb160 O204 2.465 . S
Tb160 O205 2.387 1_556 S
Tb160 O207 2.428 . S
Tb160 O208 2.308 1_556 S
Tb160 O212 2.349 . S
Tb160 O215 2.393 1_556 S
Tb160 C224 2.802 . S
C161 N162 1.379 . S
C161 C164 1.416 . S
C161 C168 1.424 . S
N162 C161 1.379 . S
N162 C165 1.334 . S
N162 Tb171 2.617 . S
C163 C165 1.390 . S
C163 C166 1.339 . S
C163 H183 0.930 . S
C164 C161 1.416 . S
C164 C166 1.416 . S
C164 C170 1.448 . S
C165 N162 1.334 . S
C165 C163 1.390 . S
C165 H176 0.930 . S
C166 C163 1.339 . S
C166 C164 1.416 . S
C166 H187 0.930 . S
C167 C168 1.413 . S
C167 C169 1.427 . S
C167 C173 1.416 . S
C168 C161 1.424 . S
C168 C167 1.413 . S
C168 N172 1.361 . S
C169 C167 1.427 . S
C169 C170 1.328 . S
C169 H184 0.929 . S
C170 C164 1.448 . S
C170 C169 1.328 . S
C170 H185 0.930 . S
Tb171 N162 2.617 . S
Tb171 N172 2.572 . S
Tb171 O206 2.349 . S
Tb171 O209 2.393 . S
Tb171 O210 2.465 . S
Tb171 O211 2.387 . S
Tb171 O213 2.428 . S
Tb171 O214 2.308 . S
Tb171 C235 2.802 . S
N172 C168 1.361 . S
N172 Tb171 2.572 . S
N172 C174 1.340 . S
C173 C167 1.416 . S
C173 C175 1.332 . S
C173 H181 0.931 . S
C174 N172 1.340 . S
C174 C175 1.407 . S
C174 H180 0.930 . S
C175 C173 1.332 . S
C175 C174 1.407 . S
C175 H177 0.929 . S
H176 C165 0.930 . S
H177 C175 0.929 . S
H178 C193 0.930 . S
H179 C200 0.929 . S
H180 C174 0.930 . S
H181 C173 0.931 . S
H182 C196 0.930 . S
H183 C163 0.930 . S
H184 C169 0.929 . S
H185 C170 0.930 . S
H186 C191 0.930 . S
H187 C166 0.930 . S
H188 C199 0.931 . S
N189 Tb160 2.613 1_554 S
N189 C190 1.384 . S
N189 C193 1.336 1_554 S
C190 N189 1.384 . S
C190 C192 1.416 . S
C190 C198 1.424 . S
C191 H186 0.930 . S
C191 C193 1.390 . S
C191 C194 1.339 1_556 S
C192 C190 1.416 . S
C192 C194 1.416 . S
C192 C225 1.448 . S
C193 H178 0.930 . S
C193 N189 1.336 1_556 S
C193 C191 1.390 . S
C194 C191 1.339 1_554 S
C194 C192 1.416 . S
C194 H201 0.930 . S
N195 Tb160 2.572 1_554 S
N195 C196 1.340 . S
N195 C198 1.361 . S
C196 H182 0.930 . S
C196 N195 1.340 . S
C196 C200 1.407 . S
C197 C198 1.413 . S
C197 C199 1.416 . S
C197 C226 1.427 . S
C198 C190 1.424 . S
C198 N195 1.361 . S
C198 C197 1.413 . S
C199 H188 0.931 . S
C199 C197 1.416 . S
C199 C200 1.332 . S
C200 H179 0.929 . S
C200 C196 1.407 . S
C200 C199 1.332 . S
H201 C194 0.930 . S
H202 C225 0.930 . S
H203 C226 0.929 . S
O204 Tb160 2.465 . S
O204 C224 1.264 . S
O205 Tb160 2.387 1_554 S
O205 C216 1.264 . S
O206 Tb171 2.349 . S
O206 C216 1.243 . S
O207 Tb160 2.428 . S
O207 C224 1.256 . S
O208 Tb160 2.308 1_554 S
O208 C223 1.266 . S
O209 Tb171 2.393 . S
O209 C223 1.248 . S
O210 Tb171 2.465 . S
O210 C235 1.264 . S
O211 Tb171 2.387 . S
O211 C227 1.264 1_554 S
O212 Tb160 2.349 . S
O212 C227 1.243 . S
O213 Tb171 2.428 . S
O213 C235 1.256 . S
O214 Tb171 2.308 . S
O214 C234 1.266 . S
O215 Tb160 2.393 1_554 S
O215 C234 1.248 . S
C216 O205 1.264 . S
C216 O206 1.243 . S
C217 C220 1.399 . S
C217 C222 1.383 . S
C217 C224 1.496 . S
C218 C219 1.399 . S
C218 C222 1.389 . S
C219 C218 1.399 . S
C219 C221 1.380 . S
C219 H236 0.929 . S
C220 C217 1.399 . S
C220 C221 1.392 . S
C220 H237 0.929 . S
C221 C219 1.380 . S
C221 C220 1.392 . S
C221 H238 0.929 . S
C222 C217 1.383 . S
C222 C218 1.389 . S
C222 H239 0.931 . S
C223 O208 1.266 . S
C223 O209 1.248 . S
C224 Tb160 2.802 . S
C224 O204 1.264 . S
C224 O207 1.256 . S
C224 C217 1.496 . S
C225 C192 1.448 . S
C225 H202 0.930 . S
C225 C226 1.328 . S
C226 C197 1.427 . S
C226 H203 0.929 . S
C226 C225 1.328 . S
C227 O211 1.264 1_556 S
C227 O212 1.243 . S
C228 C231 1.399 . S
C228 C232 1.383 . S
C228 C235 1.496 . S
C229 C230 1.399 . S
C229 C232 1.389 . S
C230 C229 1.399 . S
C230 C233 1.380 . S
C230 H240 0.929 . S
C231 C228 1.399 . S
C231 C233 1.392 . S
C231 H241 0.929 . S
C232 C228 1.383 . S
C232 C229 1.389 . S
C232 H242 0.931 . S
C233 C230 1.380 . S
C233 C231 1.392 . S
C233 H243 0.929 . S
C234 O214 1.266 . S
C234 O215 1.248 . S
C235 Tb171 2.802 . S
C235 O210 1.264 . S
C235 O213 1.256 . S
C235 C228 1.496 . S
H236 C219 0.929 . S
H237 C220 0.929 . S
H238 C221 0.929 . S
H239 C222 0.931 . S
H240 C230 0.929 . S
H241 C231 0.929 . S
H242 C232 0.931 . S
H243 C233 0.929 . S
C244 C245 1.391 . S
C244 C246 1.394 . S
C244 H260 0.931 . S
C245 C244 1.391 . S
C245 C249 1.376 . S
C246 C244 1.394 . S
C246 C247 1.369 . S
C246 C250 1.531 . S
C247 C246 1.369 . S
C247 C248 1.410 . S
C247 C255 1.503 . S
C248 C247 1.410 . S
C248 C249 1.392 . S
C248 C251 1.511 . S
C249 C245 1.376 . S
C249 C248 1.392 . S
C249 H261 0.929 . S
C250 C246 1.531 . S
C250 H262 0.960 . S
C250 H263 0.962 . S
C250 H264 0.960 . S
C251 C248 1.511 . S
C251 H265 0.961 . S
C251 H266 0.961 . S
C251 H267 0.961 . S
C252 C253 1.370 . S
C252 C254 1.363 . S
C252 H268 0.931 . S
C253 C252 1.370 . S
C253 C257 1.408 . S
C254 C252 1.363 . S
C254 C255 1.370 . S
C254 C258 1.524 . S
C255 C247 1.503 . S
C255 C254 1.370 . S
C255 C256 1.403 . S
C256 C255 1.403 . S
C256 C257 1.404 . S
C256 C259 1.539 . S
C257 C253 1.408 . S
C257 C256 1.404 . S
C257 H269 0.930 . S
C258 C254 1.524 . S
C258 H270 0.956 . S
C258 H271 0.961 . S
C258 H272 0.961 . S
C259 C256 1.539 . S
C259 H273 0.958 . S
C259 H274 0.961 . S
C259 H275 0.960 . S
H260 C244 0.931 . S
H261 C249 0.929 . S
H262 C250 0.960 . S
H263 C250 0.962 . S
H264 C250 0.960 . S
H265 C251 0.961 . S
H266 C251 0.961 . S
H267 C251 0.961 . S
H268 C252 0.931 . S
H269 C257 0.930 . S
H270 C258 0.956 . S
H271 C258 0.961 . S
H272 C258 0.961 . S
H273 C259 0.958 . S
H274 C259 0.961 . S
H275 C259 0.960 . S
C276 C277 1.391 . S
C276 C278 1.394 . S
C276 H292 0.931 . S
C277 C276 1.391 . S
C277 C281 1.376 . S
C278 C276 1.394 . S
C278 C279 1.369 . S
C278 C282 1.531 . S
C279 C278 1.369 . S
C279 C280 1.410 . S
C279 C287 1.503 . S
C280 C279 1.410 . S
C280 C281 1.392 . S
C280 C283 1.511 . S
C281 C277 1.376 . S
C281 C280 1.392 . S
C281 H293 0.929 . S
C282 C278 1.531 . S
C282 H294 0.960 1_554 S
C282 H295 0.962 . S
C282 H296 0.960 1_554 S
C283 C280 1.511 . S
C283 H297 0.961 . S
C283 H298 0.961 . S
C283 H299 0.961 . S
C284 C285 1.370 . S
C284 C286 1.363 . S
C284 H300 0.931 . S
C285 C284 1.370 . S
C285 C289 1.408 . S
C286 C284 1.363 . S
C286 C287 1.370 . S
C286 C290 1.524 . S
C287 C279 1.503 . S
C287 C286 1.370 . S
C287 C288 1.403 . S
C288 C287 1.403 . S
C288 C289 1.404 . S
C288 C291 1.539 1_554 S
C289 C285 1.408 . S
C289 C288 1.404 . S
C289 H301 0.930 1_554 S
C290 C286 1.524 . S
C290 H302 0.956 . S
C290 H303 0.961 . S
C290 H304 0.961 . S
C291 C288 1.539 1_556 S
C291 H305 0.958 . S
C291 H306 0.961 . S
C291 H307 0.960 . S
H292 C276 0.931 . S
H293 C281 0.929 . S
H294 C282 0.960 1_556 S
H295 C282 0.962 . S
H296 C282 0.960 1_556 S
H297 C283 0.961 . S
H298 C283 0.961 . S
H299 C283 0.961 . S
H300 C284 0.931 . S
H301 C289 0.930 1_556 S
H302 C290 0.956 . S
H303 C290 0.961 . S
H304 C290 0.961 . S
H305 C291 0.958 . S
H306 C291 0.961 . S
H307 C291 0.960 . S
C308 C309 1.391 . S
C308 C310 1.394 . S
C308 H324 0.931 . S
C309 C308 1.391 . S
C309 C313 1.376 . S
C310 C308 1.394 . S
C310 C311 1.369 . S
C310 C314 1.531 . S
C311 C310 1.369 . S
C311 C312 1.410 . S
C311 C319 1.503 . S
C312 C311 1.410 . S
C312 C313 1.392 . S
C312 C315 1.511 . S
C313 C309 1.376 . S
C313 C312 1.392 . S
C313 H325 0.929 . S
C314 C310 1.531 . S
C314 H326 0.960 . S
C314 H327 0.962 . S
C314 H328 0.960 . S
C315 C312 1.511 . S
C315 H329 0.961 . S
C315 H330 0.961 . S
C315 H331 0.961 . S
C316 C317 1.370 . S
C316 C318 1.363 . S
C316 H332 0.931 . S
C317 C316 1.370 . S
C317 C321 1.408 . S
C318 C316 1.363 . S
C318 C319 1.370 . S
C318 C322 1.524 . S
C319 C311 1.503 . S
C319 C318 1.370 . S
C319 C320 1.403 . S
C320 C319 1.403 . S
C320 C321 1.404 . S
C320 C323 1.539 . S
C321 C317 1.408 . S
C321 C320 1.404 . S
C321 H333 0.930 . S
C322 C318 1.524 . S
C322 H334 0.956 . S
C322 H335 0.961 . S
C322 H336 0.961 . S
C323 C320 1.539 . S
C323 H337 0.958 . S
C323 H338 0.961 . S
C323 H339 0.960 . S
H324 C308 0.931 . S
H325 C313 0.929 . S
H326 C314 0.960 . S
H327 C314 0.962 . S
H328 C314 0.960 . S
H329 C315 0.961 . S
H330 C315 0.961 . S
H331 C315 0.961 . S
H332 C316 0.931 . S
H333 C321 0.930 . S
H334 C322 0.956 . S
H335 C322 0.961 . S
H336 C322 0.961 . S
H337 C323 0.958 . S
H338 C323 0.961 . S
H339 C323 0.960 . S
C340 C341 1.391 . S
C340 C342 1.394 . S
C340 H356 0.931 . S
C341 C340 1.391 . S
C341 C345 1.376 . S
C342 C340 1.394 . S
C342 C343 1.369 . S
C342 C346 1.531 . S
C343 C342 1.369 . S
C343 C344 1.410 . S
C343 C351 1.503 . S
C344 C343 1.410 . S
C344 C345 1.392 . S
C344 C347 1.511 . S
C345 C341 1.376 . S
C345 C344 1.392 . S
C345 H357 0.929 . S
C346 C342 1.531 . S
C346 H358 0.955 1_554 S
C346 H359 0.962 . S
C346 H360 0.960 1_554 S
C347 C344 1.511 . S
C347 H361 0.961 . S
C347 H362 0.961 . S
C347 H363 0.961 . S
C348 C349 1.370 . S
C348 C350 1.363 . S
C348 H364 0.931 . S
C349 C348 1.370 . S
C349 C353 1.408 1_554 S
C350 C348 1.363 . S
C350 C351 1.370 . S
C350 C354 1.524 . S
C351 C343 1.503 . S
C351 C350 1.370 . S
C351 C352 1.403 1_554 S
C352 C351 1.403 1_556 S
C352 C353 1.404 . S
C352 C355 1.539 . S
C353 C349 1.408 1_556 S
C353 C352 1.404 . S
C353 H365 0.930 . S
C354 C350 1.524 . S
C354 H366 0.956 . S
C354 H367 0.961 . S
C354 H368 0.961 . S
C355 C352 1.539 . S
C355 H369 0.958 . S
C355 H370 0.961 . S
C355 H371 0.960 . S
H356 C340 0.931 . S
H357 C345 0.929 . S
H358 C346 0.955 1_556 S
H359 C346 0.962 . S
H360 C346 0.960 1_556 S
H361 C347 0.961 . S
H362 C347 0.961 . S
H363 C347 0.961 . S
H364 C348 0.931 . S
H365 C353 0.930 . S
H366 C354 0.956 . S
H367 C354 0.961 . S
H368 C354 0.961 . S
H369 C355 0.958 . S
H370 C355 0.961 . S
H371 C355 0.960 . S
C372 C373 1.391 . S
C372 C374 1.394 . S
C372 H388 0.931 . S
C373 C372 1.391 . S
C373 C377 1.376 . S
C374 C372 1.394 . S
C374 C375 1.369 . S
C374 C378 1.531 . S
C375 C374 1.369 . S
C375 C376 1.410 . S
C375 C383 1.503 . S
C376 C375 1.410 . S
C376 C377 1.392 . S
C376 C379 1.511 . S
C377 C373 1.376 . S
C377 C376 1.392 . S
C377 H389 0.929 . S
C378 C374 1.531 . S
C378 H390 0.960 . S
C378 H391 0.962 . S
C378 H392 0.960 . S
C379 C376 1.511 . S
C379 H393 0.961 . S
C379 H394 0.961 . S
C379 H395 0.961 . S
C380 C381 1.370 . S
C380 C382 1.363 . S
C380 H396 0.931 . S
C381 C380 1.370 . S
C381 C385 1.408 . S
C382 C380 1.363 . S
C382 C383 1.370 . S
C382 C386 1.524 . S
C383 C375 1.503 . S
C383 C382 1.370 . S
C383 C384 1.403 . S
C384 C383 1.403 . S
C384 C385 1.404 . S
C384 C387 1.539 . S
C385 C381 1.408 . S
C385 C384 1.404 . S
C385 H397 0.930 . S
C386 C382 1.524 . S
C386 H398 0.956 . S
C386 H399 0.961 . S
C386 H400 0.961 . S
C387 C384 1.539 . S
C387 H401 0.958 1_565 S
C387 H402 0.961 . S
C387 H403 0.960 . S
H388 C372 0.931 . S
H389 C377 0.929 . S
H390 C378 0.960 . S
H391 C378 0.962 . S
H392 C378 0.960 . S
H393 C379 0.961 . S
H394 C379 0.961 . S
H395 C379 0.961 . S
H396 C380 0.931 . S
H397 C385 0.930 . S
H398 C386 0.956 . S
H399 C386 0.961 . S
H400 C386 0.961 . S
H401 C387 0.958 1_545 S
H402 C387 0.961 . S
H403 C387 0.960 . S
C404 C405 1.391 . S
C404 C406 1.394 . S
C404 H420 0.931 . S
C405 C404 1.391 . S
C405 C409 1.376 . S
C406 C404 1.394 . S
C406 C407 1.369 . S
C406 C410 1.531 . S
C407 C406 1.369 . S
C407 C408 1.410 . S
C407 C415 1.503 . S
C408 C407 1.410 . S
C408 C409 1.392 . S
C408 C411 1.511 . S
C409 C405 1.376 . S
C409 C408 1.392 . S
C409 H421 0.929 . S
C410 C406 1.531 . S
C410 H422 0.960 . S
C410 H423 0.962 . S
C410 H424 0.960 . S
C411 C408 1.511 . S
C411 H425 0.961 . S
C411 H426 0.961 . S
C411 H427 0.961 . S
C412 C413 1.370 . S
C412 C414 1.363 . S
C412 H428 0.931 . S
C413 C412 1.370 . S
C413 C417 1.408 . S
C414 C412 1.363 . S
C414 C415 1.370 . S
C414 C418 1.524 . S
C415 C407 1.503 . S
C415 C414 1.370 . S
C415 C416 1.403 . S
C416 C415 1.403 . S
C416 C417 1.404 . S
C416 C419 1.539 . S
C417 C413 1.408 . S
C417 C416 1.404 . S
C417 H429 0.930 . S
C418 C414 1.524 . S
C418 H430 0.956 . S
C418 H431 0.961 . S
C418 H432 0.961 . S
C419 C416 1.539 . S
C419 H433 0.958 . S
C419 H434 0.961 . S
C419 H435 0.960 . S
H420 C404 0.931 . S
H421 C409 0.929 . S
H422 C410 0.960 . S
H423 C410 0.962 . S
H424 C410 0.960 . S
H425 C411 0.961 . S
H426 C411 0.961 . S
H427 C411 0.961 . S
H428 C412 0.931 . S
H429 C417 0.930 . S
H430 C418 0.956 . S
H431 C418 0.961 . S
H432 C418 0.961 . S
H433 C419 0.958 . S
H434 C419 0.961 . S
H435 C419 0.960 . S
C436 C437 1.391 . S
C436 C438 1.394 . S
C436 H452 0.931 . S
C437 C436 1.391 . S
C437 C441 1.376 . S
C438 C436 1.394 . S
C438 C439 1.369 . S
C438 C442 1.531 . S
C439 C438 1.369 . S
C439 C440 1.410 . S
C439 C447 1.503 . S
C440 C439 1.410 . S
C440 C441 1.392 . S
C440 C443 1.511 . S
C441 C437 1.376 . S
C441 C440 1.392 . S
C441 H453 0.929 . S
C442 C438 1.531 . S
C442 H454 0.960 . S
C442 H455 0.962 . S
C442 H456 0.960 . S
C443 C440 1.511 . S
C443 H457 0.961 . S
C443 H458 0.961 . S
C443 H459 0.961 . S
C444 C445 1.370 . S
C444 C446 1.363 . S
C444 H460 0.931 . S
C445 C444 1.370 . S
C445 C449 1.408 . S
C446 C444 1.363 . S
C446 C447 1.370 . S
C446 C450 1.524 . S
C447 C439 1.503 . S
C447 C446 1.370 . S
C447 C448 1.403 . S
C448 C447 1.403 . S
C448 C449 1.404 . S
C448 C451 1.539 . S
C449 C445 1.408 . S
C449 C448 1.404 . S
C449 H461 0.930 . S
C450 C446 1.524 . S
C450 H462 0.956 . S
C450 H463 0.961 . S
C450 H464 0.961 . S
C451 C448 1.539 . S
C451 H465 0.958 . S
C451 H466 0.961 . S
C451 H467 0.960 . S
H452 C436 0.931 . S
H453 C441 0.929 . S
H454 C442 0.960 . S
H455 C442 0.962 . S
H456 C442 0.960 . S
H457 C443 0.961 . S
H458 C443 0.961 . S
H459 C443 0.961 . S
H460 C444 0.931 . S
H461 C449 0.930 . S
H462 C450 0.956 . S
H463 C450 0.961 . S
H464 C450 0.961 . S
H465 C451 0.958 . S
H466 C451 0.961 . S
H467 C451 0.960 . S
C468 C469 1.391 . S
C468 C470 1.394 . S
C468 H484 0.931 . S
C469 C468 1.391 . S
C469 C473 1.376 . S
C470 C468 1.394 . S
C470 C471 1.369 . S
C470 C474 1.531 . S
C471 C470 1.369 . S
C471 C472 1.410 . S
C471 C479 1.503 . S
C472 C471 1.410 . S
C472 C473 1.392 . S
C472 C475 1.511 . S
C473 C469 1.376 . S
C473 C472 1.392 . S
C473 H485 0.929 . S
C474 C470 1.531 . S
C474 H486 0.960 . S
C474 H487 0.962 . S
C474 H488 0.960 . S
C475 C472 1.511 . S
C475 H489 0.961 . S
C475 H490 0.961 . S
C475 H491 0.961 . S
C476 C477 1.370 . S
C476 C478 1.363 . S
C476 H492 0.931 . S
C477 C476 1.370 . S
C477 C481 1.408 . S
C478 C476 1.363 . S
C478 C479 1.370 . S
C478 C482 1.524 . S
C479 C471 1.503 . S
C479 C478 1.370 . S
C479 C480 1.403 . S
C480 C479 1.403 . S
C480 C481 1.404 . S
C480 C483 1.539 . S
C481 C477 1.408 . S
C481 C480 1.404 . S
C481 H493 0.930 . S
C482 C478 1.524 . S
C482 H494 0.956 . S
C482 H495 0.961 . S
C482 H496 0.961 . S
C483 C480 1.539 . S
C483 H497 0.958 . S
C483 H498 0.961 . S
C483 H499 0.960 . S
H484 C468 0.931 . S
H485 C473 0.929 . S
H486 C474 0.960 . S
H487 C474 0.962 . S
H488 C474 0.960 . S
H489 C475 0.961 . S
H490 C475 0.961 . S
H491 C475 0.961 . S
H492 C476 0.931 . S
H493 C481 0.930 . S
H494 C482 0.956 . S
H495 C482 0.961 . S
H496 C482 0.961 . S
H497 C483 0.958 . S
H498 C483 0.961 . S
H499 C483 0.960 . S
C500 C501 1.391 . S
C500 C502 1.394 . S
C500 H516 0.931 . S
C501 C500 1.391 . S
C501 C505 1.376 . S
C502 C500 1.394 . S
C502 C503 1.369 . S
C502 C506 1.531 . S
C503 C502 1.369 . S
C503 C504 1.410 . S
C503 C511 1.503 . S
C504 C503 1.410 . S
C504 C505 1.392 . S
C504 C507 1.511 . S
C505 C501 1.376 . S
C505 C504 1.392 . S
C505 H517 0.929 . S
C506 C502 1.531 . S
C506 H518 0.960 . S
C506 H519 0.962 . S
C506 H520 0.960 . S
C507 C504 1.511 . S
C507 H521 0.961 . S
C507 H522 0.961 . S
C507 H523 0.961 . S
C508 C509 1.370 . S
C508 C510 1.363 . S
C508 H524 0.931 . S
C509 C508 1.370 . S
C509 C513 1.408 . S
C510 C508 1.363 . S
C510 C511 1.370 . S
C510 C514 1.524 . S
C511 C503 1.503 . S
C511 C510 1.370 . S
C511 C512 1.403 . S
C512 C511 1.403 . S
C512 C513 1.404 . S
C512 C515 1.539 . S
C513 C509 1.408 . S
C513 C512 1.404 . S
C513 H525 0.930 . S
C514 C510 1.524 . S
C514 H526 0.956 . S
C514 H527 0.961 . S
C514 H528 0.961 . S
C515 C512 1.539 . S
C515 H529 0.958 . S
C515 H530 0.961 . S
C515 H531 0.960 . S
H516 C500 0.931 . S
H517 C505 0.929 . S
H518 C506 0.960 . S
H519 C506 0.962 . S
H520 C506 0.960 . S
H521 C507 0.961 . S
H522 C507 0.961 . S
H523 C507 0.961 . S
H524 C508 0.931 . S
H525 C513 0.930 . S
H526 C514 0.956 . S
H527 C514 0.961 . S
H528 C514 0.961 . S
H529 C515 0.958 . S
H530 C515 0.961 . S
H531 C515 0.960 . S
C532 C533 1.391 . S
C532 C534 1.394 . S
C532 H548 0.931 1_556 S
C533 C532 1.391 . S
C533 C537 1.376 . S
C534 C532 1.394 . S
C534 C535 1.369 . S
C534 C538 1.531 . S
C535 C534 1.369 . S
C535 C536 1.410 . S
C535 C543 1.503 . S
C536 C535 1.410 . S
C536 C537 1.392 . S
C536 C539 1.511 . S
C537 C533 1.376 . S
C537 C536 1.392 . S
C537 H549 0.929 . S
C538 C534 1.531 . S
C538 H550 0.960 . S
C538 H551 0.962 . S
C538 H552 0.960 1_556 S
C539 C536 1.511 . S
C539 H553 0.961 . S
C539 H554 0.961 . S
C539 H555 0.961 . S
C540 C541 1.370 . S
C540 C542 1.363 . S
C540 H556 0.931 . S
C541 C540 1.370 . S
C541 C545 1.408 . S
C542 C540 1.363 . S
C542 C543 1.370 . S
C542 C546 1.524 . S
C543 C535 1.503 . S
C543 C542 1.370 . S
C543 C544 1.403 . S
C544 C543 1.403 . S
C544 C545 1.404 . S
C544 C547 1.539 . S
C545 C541 1.408 . S
C545 C544 1.404 . S
C545 H557 0.930 . S
C546 C542 1.524 . S
C546 H558 0.956 . S
C546 H559 0.961 . S
C546 H560 0.961 . S
C547 C544 1.539 . S
C547 H561 0.958 . S
C547 H562 0.961 1_545 S
C547 H563 0.960 . S
H548 C532 0.931 1_554 S
H549 C537 0.929 . S
H550 C538 0.960 . S
H551 C538 0.962 . S
H552 C538 0.960 1_554 S
H553 C539 0.961 . S
H554 C539 0.961 . S
H555 C539 0.961 . S
H556 C540 0.931 . S
H557 C545 0.930 . S
H558 C546 0.956 . S
H559 C546 0.961 . S
H560 C546 0.961 . S
H561 C547 0.958 . S
H562 C547 0.961 1_565 S
H563 C547 0.960 . S
C564 C565 1.391 . S
C564 C566 1.394 . S
C564 H580 0.931 . S
C565 C564 1.391 . S
C565 C569 1.376 . S
C566 C564 1.394 . S
C566 C567 1.369 . S
C566 C570 1.531 . S
C567 C566 1.369 . S
C567 C568 1.410 . S
C567 C575 1.503 . S
C568 C567 1.410 . S
C568 C569 1.392 . S
C568 C571 1.511 . S
C569 C565 1.376 . S
C569 C568 1.392 . S
C569 H581 0.929 . S
C570 C566 1.531 . S
C570 H582 0.960 . S
C570 H583 0.962 . S
C570 H584 0.960 . S
C571 C568 1.511 . S
C571 H585 0.961 . S
C571 H586 0.961 . S
C571 H587 0.961 . S
C572 C573 1.370 . S
C572 C574 1.363 . S
C572 H588 0.931 . S
C573 C572 1.370 . S
C573 C577 1.408 . S
C574 C572 1.363 . S
C574 C575 1.370 . S
C574 C578 1.524 . S
C575 C567 1.503 . S
C575 C574 1.370 . S
C575 C576 1.403 . S
C576 C575 1.403 . S
C576 C577 1.404 . S
C576 C579 1.539 . S
C577 C573 1.408 . S
C577 C576 1.404 . S
C577 H589 0.930 . S
C578 C574 1.524 . S
C578 H590 0.956 . S
C578 H591 0.961 . S
C578 H592 0.961 . S
C579 C576 1.539 . S
C579 H593 0.958 . S
C579 H594 0.961 . S
C579 H595 0.960 . S
H580 C564 0.931 . S
H581 C569 0.929 . S
H582 C570 0.960 . S
H583 C570 0.962 . S
H584 C570 0.960 . S
H585 C571 0.961 . S
H586 C571 0.961 . S
H587 C571 0.961 . S
H588 C572 0.931 . S
H589 C577 0.930 . S
H590 C578 0.956 . S
H591 C578 0.961 . S
H592 C578 0.961 . S
H593 C579 0.958 . S
H594 C579 0.961 . S
H595 C579 0.960 . S
C596 C597 1.391 . S
C596 C598 1.394 . S
C596 H612 0.931 . S
C597 C596 1.391 . S
C597 C601 1.376 . S
C598 C596 1.394 . S
C598 C599 1.369 . S
C598 C602 1.531 . S
C599 C598 1.369 . S
C599 C600 1.410 . S
C599 C607 1.503 . S
C600 C599 1.410 . S
C600 C601 1.392 . S
C600 C603 1.511 . S
C601 C597 1.376 . S
C601 C600 1.392 . S
C601 H613 0.929 . S
C602 C598 1.531 . S
C602 H614 0.960 . S
C602 H615 0.961 1_565 S
C602 H616 0.960 . S
C603 C600 1.511 . S
C603 H617 0.961 . S
C603 H618 0.961 . S
C603 H619 0.961 . S
C604 C605 1.370 . S
C604 C606 1.363 . S
C604 H620 0.931 . S
C605 C604 1.370 . S
C605 C609 1.408 . S
C606 C604 1.363 . S
C606 C607 1.370 . S
C606 C610 1.524 . S
C607 C599 1.503 . S
C607 C606 1.370 . S
C607 C608 1.403 . S
C608 C607 1.403 . S
C608 C609 1.404 . S
C608 C611 1.539 . S
C609 C605 1.408 . S
C609 C608 1.404 . S
C609 H621 0.930 . S
C610 C606 1.524 . S
C610 H622 0.956 . S
C610 H623 0.961 . S
C610 H624 0.961 . S
C611 C608 1.539 . S
C611 H625 0.958 . S
C611 H626 0.961 . S
C611 H627 0.960 . S
H612 C596 0.931 . S
H613 C601 0.929 . S
H614 C602 0.960 . S
H615 C602 0.961 1_545 S
H616 C602 0.960 . S
H617 C603 0.961 . S
H618 C603 0.961 . S
H619 C603 0.961 . S
H620 C604 0.931 . S
H621 C609 0.930 . S
H622 C610 0.956 . S
H623 C610 0.961 . S
H624 C610 0.961 . S
H625 C611 0.958 . S
H626 C611 0.961 . S
H627 C611 0.960 . S
C253 C139 1.694 . S
C245 C68 1.625 . S
C277 C11 1.524 . S
C285 C234 1.706 . S
C309 C30 1.624 . S
C317 C150 1.711 . S
C341 C49 1.585 . S
C349 C223 1.678 . S
C381 C134 1.514 . S
C373 C2 1.647 . S
C413 C227 1.786 . S
C405 C25 1.774 . S
C437 C40 1.703 . S
C445 C143 1.712 . S
C469 C59 1.659 . S
C477 C218 1.482 . S
C509 C229 1.434 . S
C501 C21 1.615 . S
C541 C145 1.443 . S
C533 C44 1.606 1_556 S
C573 C216 1.681 . S
C565 C63 1.667 . S
C597 C6 1.629 . S
C605 C132 1.641 . S
