# Generated by pormake.
# Topology nom, (4,4)-cn, num edge types: 1
# Building blocks:
#     Node 0, Type 0, BuildingBlock: NAHDIM_clean_linker_0, # of connection points: 4
#     Node 1, Type 0, BuildingBlock: NAHDIM_clean_linker_0, # of connection points: 4
#     Node 2, Type 0, BuildingBlock: NAHDIM_clean_linker_0, # of connection points: 4
#     Node 3, Type 0, BuildingBlock: NAHDIM_clean_linker_0, # of connection points: 4
#     Node 4, Type 0, BuildingBlock: NAHDIM_clean_linker_0, # of connection points: 4
#     Node 5, Type 0, BuildingBlock: NAHDIM_clean_linker_0, # of connection points: 4
#     Node 6, Type 1, BuildingBlock: NAHDIM_clean_sbu_0, # of connection points: 4
#     Node 7, Type 1, BuildingBlock: NAHDIM_clean_sbu_0, # of connection points: 4
#     Node 8, Type 1, BuildingBlock: NAHDIM_clean_sbu_0, # of connection points: 4
#     Node 9, Type 1, BuildingBlock: NAHDIM_clean_sbu_0, # of connection points: 4
#     Node 10, Type 1, BuildingBlock: NAHDIM_clean_sbu_0, # of connection points: 4
#     Node 11, Type 1, BuildingBlock: NAHDIM_clean_sbu_0, # of connection points: 4
#     Edge 12, Type (0, 1), BuildingBlock: EZIPEK_clean_linker_0, # of connection points: 2
#     Edge 13, Type (0, 1), BuildingBlock: EZIPEK_clean_linker_0, # of connection points: 2
#     Edge 14, Type (0, 1), BuildingBlock: EZIPEK_clean_linker_0, # of connection points: 2
#     Edge 15, Type (0, 1), BuildingBlock: EZIPEK_clean_linker_0, # of connection points: 2
#     Edge 16, Type (0, 1), BuildingBlock: EZIPEK_clean_linker_0, # of connection points: 2
#     Edge 17, Type (0, 1), BuildingBlock: EZIPEK_clean_linker_0, # of connection points: 2
#     Edge 18, Type (0, 1), BuildingBlock: EZIPEK_clean_linker_0, # of connection points: 2
#     Edge 19, Type (0, 1), BuildingBlock: EZIPEK_clean_linker_0, # of connection points: 2
#     Edge 20, Type (0, 1), BuildingBlock: EZIPEK_clean_linker_0, # of connection points: 2
#     Edge 21, Type (0, 1), BuildingBlock: EZIPEK_clean_linker_0, # of connection points: 2
#     Edge 22, Type (0, 1), BuildingBlock: EZIPEK_clean_linker_0, # of connection points: 2
#     Edge 23, Type (0, 1), BuildingBlock: EZIPEK_clean_linker_0, # of connection points: 2
#     Edge 24, Type (0, 1), BuildingBlock: EZIPEK_clean_linker_0, # of connection points: 2
#     Edge 25, Type (0, 1), BuildingBlock: EZIPEK_clean_linker_0, # of connection points: 2
#     Edge 26, Type (0, 1), BuildingBlock: EZIPEK_clean_linker_0, # of connection points: 2
#     Edge 27, Type (0, 1), BuildingBlock: EZIPEK_clean_linker_0, # of connection points: 2
#     Edge 28, Type (0, 1), BuildingBlock: EZIPEK_clean_linker_0, # of connection points: 2
#     Edge 29, Type (0, 1), BuildingBlock: EZIPEK_clean_linker_0, # of connection points: 2
#     Edge 30, Type (0, 1), BuildingBlock: EZIPEK_clean_linker_0, # of connection points: 2
#     Edge 31, Type (0, 1), BuildingBlock: EZIPEK_clean_linker_0, # of connection points: 2
#     Edge 32, Type (0, 1), BuildingBlock: EZIPEK_clean_linker_0, # of connection points: 2
#     Edge 33, Type (0, 1), BuildingBlock: EZIPEK_clean_linker_0, # of connection points: 2
#     Edge 34, Type (0, 1), BuildingBlock: EZIPEK_clean_linker_0, # of connection points: 2
#     Edge 35, Type (0, 1), BuildingBlock: EZIPEK_clean_linker_0, # of connection points: 2
# Relax obj value: 0.065
# Max RMSD: 0.131
# Mean RMSD: 0.124
data_MOF--net-nom--node1-NAHDIM_clean_sbu_0--node2-NAHDIM_clean_linker_0--edge1-EZIPEK_clean_linker_0
_symmetry_space_group_name_H-M    P1
_symmetry_Int_Tables_number       1
_symmetry_cell_setting            triclinic
loop_
_symmetry_equiv_pos_as_xyz
'x, y, z'
_cell_length_a     45.909647
_cell_length_b     47.425607
_cell_length_c     56.38296
_cell_angle_alpha  90.116446
_cell_angle_beta   90.708306
_cell_angle_gamma 121.10414
loop_
_atom_site_label
_atom_site_type_symbol
_atom_site_fract_x
_atom_site_fract_y
_atom_site_fract_z
_atom_type_partial_charge
C0 C 0.21418 0.61762 0.20992 0.0
C1 C 0.22362 0.63119 0.23556 0.0
C2 C 0.16704 0.61236 0.25208 0.0
C3 C 0.15736 0.57912 0.25474 0.0
C4 C 0.12507 0.5559 0.26314 0.0
C5 C 0.10183 0.56594 0.26874 0.0
C6 C 0.11155 0.59936 0.26636 0.0
C7 C 0.14417 0.62216 0.2582 0.0
C8 C 0.11553 0.52045 0.26562 0.0
C9 C 0.08724 0.61083 0.27197 0.0
C10 C 0.88007 0.43912 0.15172 0.0
C11 C 0.89868 0.45666 0.17382 0.0
C12 C 0.94197 0.46075 0.20157 0.0
C13 C 0.94177 0.48474 0.21618 0.0
C14 C 0.9635 0.49766 0.23605 0.0
C15 C 0.98512 0.48559 0.24195 0.0
C16 C 0.98472 0.46079 0.22771 0.0
C17 C 0.96329 0.44888 0.20757 0.0
C18 C 0.96372 0.52465 0.25048 0.0
C19 C 0.00719 0.44714 0.2336 0.0
C20 C 0.86295 0.40424 0.3741 0.0
C21 C 0.87278 0.43673 0.36856 0.0
C22 C 0.90677 0.46 0.36346 0.0
C23 C 0.93137 0.45051 0.36415 0.0
C24 C 0.92171 0.41806 0.37062 0.0
C25 C 0.88756 0.39538 0.37572 0.0
C26 C 0.91639 0.49467 0.35724 0.0
C27 C 0.94736 0.40725 0.37177 0.0
C28 C 0.16736 0.63819 0.45832 0.0
C29 C 0.14501 0.6022 0.45035 0.0
C30 C 0.09143 0.57624 0.42767 0.0
C31 C 0.06859 0.58396 0.41747 0.0
C32 C 0.04632 0.5646 0.39906 0.0
C33 C 0.04652 0.53639 0.39109 0.0
C34 C 0.06861 0.52765 0.40204 0.0
C35 C 0.09094 0.54775 0.42023 0.0
C36 C 0.02285 0.57447 0.38796 0.0
C37 C 0.06867 0.49716 0.39443 0.0
C38 C 0.06665 0.54105 0.27562 0.0
C39 C 0.04297 0.52408 0.2574 0.0
C40 C 0.00932 0.50024 0.26231 0.0
C41 C 0.99891 0.49261 0.2861 0.0
C42 C 0.96548 0.46809 0.29169 0.0
C43 C 0.95509 0.46178 0.31514 0.0
C44 C 0.97774 0.47976 0.3339 0.0
C45 C 0.96708 0.47442 0.35774 0.0
C46 C 0.99022 0.49269 0.37595 0.0
C47 C 0.02394 0.51645 0.37103 0.0
C48 C 0.03514 0.52213 0.34731 0.0
C49 C 0.06891 0.54586 0.34173 0.0
C50 C 0.07948 0.55173 0.31829 0.0
C51 C 0.05654 0.53449 0.29953 0.0
C52 C 0.02249 0.5102 0.30477 0.0
C53 C 0.01184 0.50387 0.32869 0.0
C54 C 0.77509 0.34028 0.36453 0.0
C55 C 0.80154 0.37715 0.36702 0.0
O56 O 0.1977 0.63562 0.24334 0.0
O57 O 0.1129 0.59644 0.445 0.0
O58 O 0.8302 0.38104 0.37859 0.0
O59 O 0.92233 0.44873 0.18157 0.0
H60 H 0.22587 0.61359 0.24725 0.0
H61 H 0.18798 0.59582 0.20907 0.0
H62 H 0.21511 0.63666 0.19796 0.0
H63 H 0.23112 0.60953 0.20291 0.0
H64 H 0.17445 0.57081 0.24998 0.0
H65 H 0.15181 0.64779 0.25615 0.0
H66 H 0.09514 0.50498 0.25251 0.0
H67 H 0.13746 0.51712 0.26271 0.0
H68 H 0.10533 0.5114 0.28357 0.0
H69 H 0.09846 0.63755 0.26869 0.0
H70 H 0.06368 0.59681 0.261 0.0
H71 H 0.07982 0.60587 0.29085 0.0
H72 H 0.90931 0.48379 0.17336 0.0
H73 H 0.8879 0.45891 0.13804 0.0
H74 H 0.89464 0.42841 0.14368 0.0
H75 H 0.83059 0.41044 0.16265 0.0
H76 H 0.92511 0.49393 0.21206 0.0
H77 H 0.96315 0.43024 0.19633 0.0
H78 H 0.95292 0.51507 0.2682 0.0
H79 H 0.9902 0.54552 0.25325 0.0
H80 H 0.94857 0.53409 0.24188 0.0
H81 H 0.0007 0.42508 0.22266 0.0
H82 H 0.03413 0.4663 0.23044 0.0
H83 H 0.00497 0.44048 0.25264 0.0
H84 H 0.80818 0.38476 0.34843 0.0
H85 H 0.85418 0.44415 0.36867 0.0
H86 H 0.87974 0.37034 0.3805 0.0
H87 H 0.92592 0.5001 0.33882 0.0
H88 H 0.89459 0.49856 0.35864 0.0
H89 H 0.93729 0.51251 0.36919 0.0
H90 H 0.93563 0.38094 0.37667 0.0
H91 H 0.95972 0.41106 0.3543 0.0
H92 H 0.96759 0.42258 0.38503 0.0
H93 H 0.1566 0.60053 0.43369 0.0
H94 H 0.19375 0.64414 0.46219 0.0
H95 H 0.1683 0.65473 0.44403 0.0
H96 H 0.15699 0.64312 0.47447 0.0
H97 H 0.06879 0.60571 0.42367 0.0
H98 H 0.10748 0.54086 0.42882 0.0
H99 H 0.02668 0.57713 0.3685 0.0
H100 H 0.99601 0.55487 0.39092 0.0
H101 H 0.02699 0.59799 0.39543 0.0
H102 H 0.08588 0.49265 0.40568 0.0
H103 H 0.04249 0.47535 0.39524 0.0
H104 H 0.07695 0.49973 0.37575 0.0
H105 H 0.05075 0.5299 0.23908 0.0
H106 H 0.94693 0.45366 0.27796 0.0
H107 H 0.92897 0.44281 0.31837 0.0
H108 H 0.98172 0.48874 0.39417 0.0
H109 H 0.08757 0.56023 0.35542 0.0
H110 H 0.10576 0.57027 0.31504 0.0
H111 H 0.7678 0.32804 0.38202 0.0
H112 H 0.75185 0.3366 0.35526 0.0
H113 H 0.78566 0.32797 0.35389 0.0
C114 C 0.3715 0.82133 0.60115 0.0
C115 C 0.38665 0.82007 0.57729 0.0
C116 C 0.40479 0.87024 0.55461 0.0
C117 C 0.43802 0.8785 0.54905 0.0
C118 C 0.46223 0.91047 0.54195 0.0
C119 C 0.45291 0.93453 0.54017 0.0
C120 C 0.41912 0.92596 0.54491 0.0
C121 C 0.39537 0.89372 0.55185 0.0
C122 C 0.49783 0.9186 0.53643 0.0
C123 C 0.40829 0.95096 0.54289 0.0
C124 C 0.64007 0.08635 0.6547 0.0
C125 C 0.61037 0.09007 0.64612 0.0
C126 C 0.59194 0.07966 0.60501 0.0
C127 C 0.56133 0.07893 0.60168 0.0
C128 C 0.53879 0.06024 0.58313 0.0
C129 C 0.54752 0.0424 0.56756 0.0
C130 C 0.57872 0.04348 0.57085 0.0
C131 C 0.60071 0.06237 0.58952 0.0
C132 C 0.50591 0.05982 0.57996 0.0
C133 C 0.58888 0.02478 0.5546 0.0
C134 C 0.61847 0.17083 0.4399 0.0
C135 C 0.58472 0.16114 0.44472 0.0
C136 C 0.56032 0.12791 0.44864 0.0
C137 C 0.57002 0.10404 0.44759 0.0
C138 C 0.6038 0.11369 0.44178 0.0
C139 C 0.62754 0.14704 0.43775 0.0
C140 C 0.52428 0.11831 0.45411 0.0
C141 C 0.61496 0.08888 0.44032 0.0
C142 C 0.41263 0.86685 0.37724 0.0
C143 C 0.44446 0.8902 0.36301 0.0
C144 C 0.46411 0.94417 0.38114 0.0
C145 C 0.45057 0.96395 0.38614 0.0
C146 C 0.46354 0.98686 0.40497 0.0
C147 C 0.49126 0.99048 0.41871 0.0
C148 C 0.50609 0.97157 0.41304 0.0
C149 C 0.49228 0.94852 0.39437 0.0
C150 C 0.44734 0.00682 0.41041 0.0
C151 C 0.53658 0.97568 0.42671 0.0
C152 C 0.47874 0.96886 0.53393 0.0
C153 C 0.49896 0.9901 0.55228 0.0
C154 C 0.52426 0.0226 0.54773 0.0
C155 C 0.52883 0.03479 0.52437 0.0
C156 C 0.55298 0.0678 0.51935 0.0
C157 C 0.55797 0.07931 0.49619 0.0
C158 C 0.53947 0.05808 0.47713 0.0
C159 C 0.5452 0.06922 0.45343 0.0
C160 C 0.52817 0.04692 0.4348 0.0
C161 C 0.50481 0.01372 0.4392 0.0
C162 C 0.49704 0.00261 0.46283 0.0
C163 C 0.4722 0.96981 0.46793 0.0
C164 C 0.46566 0.95882 0.49122 0.0
C165 C 0.48417 0.98005 0.51026 0.0
C166 C 0.50912 0.01326 0.50552 0.0
C167 C 0.51501 0.02473 0.48183 0.0
C168 C 0.68582 0.25197 0.45568 0.0
C169 C 0.64766 0.22928 0.45038 0.0
O170 O 0.38096 0.83959 0.56189 0.0
O171 O 0.44996 0.92183 0.36311 0.0
O172 O 0.64272 0.20282 0.4367 0.0
O173 O 0.61411 0.09844 0.62239 0.0
H174 H 0.41429 0.83045 0.58015 0.0
H175 H 0.38251 0.84738 0.60687 0.0
H176 H 0.34346 0.80977 0.59937 0.0
H177 H 0.37711 0.80872 0.61542 0.0
H178 H 0.44502 0.85995 0.54986 0.0
H179 H 0.36946 0.88689 0.55568 0.0
H180 H 0.5161 0.93738 0.54928 0.0
H181 H 0.50051 0.89664 0.53731 0.0
H182 H 0.5049 0.92931 0.51843 0.0
H183 H 0.38108 0.94043 0.54728 0.0
H184 H 0.42415 0.9721 0.55501 0.0
H185 H 0.41247 0.96064 0.52455 0.0
H186 H 0.58815 0.06484 0.64836 0.0
H187 H 0.63711 0.0797 0.67378 0.0
H188 H 0.64008 0.06628 0.64451 0.0
H189 H 0.66515 0.10907 0.65237 0.0
H190 H 0.5554 0.09334 0.61341 0.0
H191 H 0.62479 0.06367 0.59218 0.0
H192 H 0.50459 0.06845 0.5619 0.0
H193 H 0.48409 0.0342 0.58156 0.0
H194 H 0.5032 0.0756 0.59326 0.0
H195 H 0.61316 0.02685 0.56031 0.0
H196 H 0.56861 0.99834 0.55401 0.0
H197 H 0.59181 0.0344 0.53631 0.0
H198 H 0.63729 0.22022 0.46816 0.0
H199 H 0.57733 0.17937 0.44503 0.0
H200 H 0.6536 0.15484 0.43353 0.0
H201 H 0.51819 0.10874 0.47246 0.0
H202 H 0.52021 0.13938 0.45252 0.0
H203 H 0.50625 0.09825 0.4419 0.0
H204 H 0.64248 0.10057 0.43646 0.0
H205 H 0.60972 0.0754 0.4573 0.0
H206 H 0.60012 0.0705 0.42615 0.0
H207 H 0.46508 0.88933 0.37272 0.0
H208 H 0.40709 0.84116 0.37571 0.0
H209 H 0.41723 0.87411 0.39629 0.0
H210 H 0.38986 0.86745 0.37138 0.0
H211 H 0.42921 0.96082 0.37555 0.0
H212 H 0.50409 0.93456 0.38998 0.0
H213 H 0.43944 0.00344 0.42923 0.0
H214 H 0.46623 0.03338 0.40795 0.0
H215 H 0.42479 0.99985 0.39886 0.0
H216 H 0.54754 0.96206 0.41834 0.0
H217 H 0.55664 0.00215 0.42807 0.0
H218 H 0.52895 0.96641 0.445 0.0
H219 H 0.4955 0.98096 0.57029 0.0
H220 H 0.56823 0.08513 0.53328 0.0
H221 H 0.57694 0.10495 0.49341 0.0
H222 H 0.53382 0.05535 0.41663 0.0
H223 H 0.4575 0.9523 0.45394 0.0
H224 H 0.44631 0.93332 0.49409 0.0
H225 H 0.69028 0.27335 0.4667 0.0
H226 H 0.69553 0.23827 0.4657 0.0
H227 H 0.70075 0.26126 0.43922 0.0
C228 C 0.62338 0.41534 0.73773 0.0
C229 C 0.61995 0.40712 0.71095 0.0
C230 C 0.57903 0.42297 0.69773 0.0
C231 C 0.60174 0.45726 0.69896 0.0
C232 C 0.59087 0.47916 0.69317 0.0
C233 C 0.55663 0.4666 0.68616 0.0
C234 C 0.53377 0.43217 0.68478 0.0
C235 C 0.54538 0.41083 0.6905 0.0
C236 C 0.61586 0.51578 0.69481 0.0
C237 C 0.49701 0.41795 0.67751 0.0
C238 C 0.44042 0.56093 0.8072 0.0
C239 C 0.44344 0.5457 0.785 0.0
C240 C 0.48644 0.5469 0.75929 0.0
C241 C 0.46305 0.52309 0.7431 0.0
C242 C 0.47422 0.51465 0.72274 0.0
C243 C 0.50944 0.53117 0.71799 0.0
C244 C 0.53302 0.55558 0.734 0.0
C245 C 0.52117 0.56283 0.7546 0.0
C246 C 0.44833 0.48775 0.70649 0.0
C247 C 0.57073 0.57383 0.72945 0.0
C248 C 0.46615 0.61905 0.58942 0.0
C249 C 0.4456 0.58471 0.58821 0.0
C250 C 0.45924 0.56478 0.59301 0.0
C251 C 0.49438 0.57968 0.59842 0.0
C252 C 0.51544 0.6144 0.59862 0.0
C253 C 0.50098 0.63368 0.59403 0.0
C254 C 0.43618 0.52782 0.59217 0.0
C255 C 0.55313 0.63107 0.60373 0.0
C256 C 0.52009 0.45575 0.47634 0.0
C257 C 0.54433 0.45089 0.49263 0.0
C258 C 0.55553 0.48899 0.52612 0.0
C259 C 0.5231 0.47107 0.53626 0.0
C260 C 0.51514 0.48308 0.55639 0.0
C261 C 0.54005 0.51353 0.56662 0.0
C262 C 0.57267 0.53158 0.55654 0.0
C263 C 0.57996 0.51899 0.53642 0.0
C264 C 0.48008 0.46325 0.56676 0.0
C265 C 0.59978 0.56412 0.56705 0.0
C266 C 0.54444 0.48948 0.68108 0.0
C267 C 0.53409 0.50076 0.70022 0.0
C268 C 0.52161 0.52181 0.69684 0.0
C269 C 0.51937 0.53206 0.67369 0.0
C270 C 0.50708 0.55336 0.66962 0.0
C271 C 0.50371 0.56223 0.64669 0.0
C272 C 0.513 0.55054 0.62697 0.0
C273 C 0.50915 0.55891 0.60357 0.0
C274 C 0.51863 0.54687 0.58438 0.0
C275 C 0.53186 0.52645 0.58788 0.0
C276 C 0.53598 0.5178 0.61112 0.0
C277 C 0.54928 0.49734 0.61524 0.0
C278 C 0.55243 0.48831 0.63815 0.0
C279 C 0.54229 0.49929 0.6578 0.0
C280 C 0.52946 0.52048 0.6541 0.0
C281 C 0.52631 0.52975 0.63072 0.0
C282 C 0.43251 0.67137 0.6007 0.0
C283 C 0.42536 0.63651 0.59584 0.0
O284 O 0.58814 0.40072 0.70365 0.0
O285 O 0.56448 0.47863 0.5065 0.0
O286 O 0.4534 0.63869 0.58507 0.0
O287 O 0.47658 0.55509 0.77953 0.0
H288 H 0.64008 0.42814 0.70089 0.0
H289 H 0.61697 0.4345 0.74136 0.0
H290 H 0.60561 0.39304 0.7479 0.0
H291 H 0.64954 0.42508 0.74471 0.0
H292 H 0.62785 0.46727 0.70469 0.0
H293 H 0.52806 0.3844 0.68959 0.0
H294 H 0.60798 0.52662 0.70899 0.0
H295 H 0.64219 0.52168 0.69881 0.0
H296 H 0.61581 0.52767 0.67787 0.0
H297 H 0.48219 0.39062 0.67815 0.0
H298 H 0.48498 0.42767 0.68935 0.0
H299 H 0.49556 0.42568 0.65917 0.0
H300 H 0.42568 0.5185 0.7839 0.0
H301 H 0.42587 0.53983 0.81967 0.0
H302 H 0.46541 0.57131 0.81708 0.0
H303 H 0.42191 0.58977 0.79543 0.0
H304 H 0.43603 0.51057 0.74634 0.0
H305 H 0.53902 0.58123 0.76711 0.0
H306 H 0.44672 0.49863 0.68949 0.0
H307 H 0.45619 0.46972 0.70242 0.0
H308 H 0.42257 0.47437 0.71431 0.0
H309 H 0.58522 0.59497 0.74187 0.0
H310 H 0.58028 0.55671 0.73157 0.0
H311 H 0.57582 0.58303 0.71097 0.0
H312 H 0.42314 0.62653 0.6139 0.0
H313 H 0.41913 0.57351 0.58301 0.0
H314 H 0.51673 0.66032 0.5943 0.0
H315 H 0.43858 0.517 0.60899 0.0
H316 H 0.40906 0.52012 0.5893 0.0
H317 H 0.44402 0.51755 0.57756 0.0
H318 H 0.56625 0.65827 0.60214 0.0
H319 H 0.5574 0.62504 0.62198 0.0
H320 H 0.56485 0.62171 0.59128 0.0
H321 H 0.52711 0.4298 0.50386 0.0
H322 H 0.50018 0.45623 0.48699 0.0
H323 H 0.50706 0.43495 0.46346 0.0
H324 H 0.53333 0.47915 0.46646 0.0
H325 H 0.50376 0.44778 0.52868 0.0
H326 H 0.60488 0.53266 0.52852 0.0
H327 H 0.48213 0.45677 0.58537 0.0
H328 H 0.46788 0.47825 0.56708 0.0
H329 H 0.46337 0.44019 0.55658 0.0
H330 H 0.62404 0.57499 0.55726 0.0
H331 H 0.59073 0.58178 0.56682 0.0
H332 H 0.60472 0.56076 0.58585 0.0
H333 H 0.53536 0.49268 0.718 0.0
H334 H 0.49961 0.56315 0.68413 0.0
H335 H 0.49366 0.57832 0.64461 0.0
H336 H 0.51533 0.55319 0.56647 0.0
H337 H 0.55726 0.48795 0.60078 0.0
H338 H 0.5627 0.4724 0.64025 0.0
H339 H 0.41033 0.67024 0.60939 0.0
H340 H 0.45496 0.68473 0.6128 0.0
H341 H 0.438 0.68577 0.58416 0.0
C342 C 0.19258 0.51873 0.92815 0.0
C343 C 0.20112 0.54314 0.90777 0.0
C344 C 0.14995 0.51903 0.88259 0.0
C345 C 0.13915 0.5416 0.88542 0.0
C346 C 0.10593 0.533 0.87893 0.0
C347 C 0.0831 0.5011 0.86971 0.0
C348 C 0.09392 0.47822 0.8671 0.0
C349 C 0.12752 0.48781 0.87311 0.0
C350 C 0.09533 0.55811 0.88164 0.0
C351 C 0.07009 0.44368 0.85791 0.0
C352 C 0.85376 0.38437 0.9775 0.0
C353 C 0.87421 0.38879 0.95609 0.0
C354 C 0.91716 0.43257 0.93151 0.0
C355 C 0.92399 0.41159 0.91817 0.0
C356 C 0.94788 0.42402 0.89998 0.0
C357 C 0.96527 0.45808 0.89498 0.0
C358 C 0.95877 0.47933 0.9085 0.0
C359 C 0.93474 0.46623 0.92664 0.0
C360 C 0.95445 0.40072 0.886 0.0
C361 C 0.97703 0.51576 0.90363 0.0
C362 C 0.84199 0.42623 0.76613 0.0
C363 C 0.85325 0.40425 0.77017 0.0
C364 C 0.88797 0.41583 0.7735 0.0
C365 C 0.91172 0.45014 0.77294 0.0
C366 C 0.90052 0.47219 0.76764 0.0
C367 C 0.86568 0.45981 0.764 0.0
C368 C 0.89919 0.39151 0.77819 0.0
C369 C 0.92521 0.50884 0.76662 0.0
C370 C 0.15033 0.51273 0.70722 0.0
C371 C 0.13186 0.52755 0.69408 0.0
C372 C 0.07494 0.50035 0.71036 0.0
C373 C 0.0524 0.46821 0.71765 0.0
C374 C 0.02955 0.4619 0.73603 0.0
C375 C 0.02869 0.48844 0.74681 0.0
C376 C 0.05041 0.52092 0.7387 0.0
C377 C 0.07351 0.52656 0.72062 0.0
C378 C 0.00664 0.42693 0.74412 0.0
C379 C 0.0493 0.54962 0.74922 0.0
C380 C 0.04793 0.49163 0.86278 0.0
C381 C 0.02393 0.4819 0.8807 0.0
C382 C 0.98996 0.47118 0.87538 0.0
C383 C 0.97955 0.47052 0.8516 0.0
C384 C 0.94565 0.46035 0.84572 0.0
C385 C 0.93534 0.45851 0.8222 0.0
C386 C 0.95843 0.46637 0.80362 0.0
C387 C 0.94781 0.46303 0.77961 0.0
C388 C 0.97133 0.47098 0.76156 0.0
C389 C 0.00547 0.48217 0.76683 0.0
C390 C 0.01663 0.48574 0.79075 0.0
C391 C 0.05077 0.49694 0.79672 0.0
C392 C 0.06129 0.4997 0.8203 0.0
C393 C 0.03792 0.49062 0.83882 0.0
C394 C 0.00353 0.47981 0.83322 0.0
C395 C 0.99291 0.47753 0.80918 0.0
C396 C 0.75622 0.40287 0.78168 0.0
C397 C 0.78305 0.39319 0.77845 0.0
O398 O 0.18227 0.52703 0.8876 0.0
O399 O 0.09714 0.50524 0.69296 0.0
O400 O 0.8085 0.4158 0.76393 0.0
O401 O 0.89403 0.42134 0.94918 0.0
H402 H 0.19361 0.56025 0.91479 0.0
H403 H 0.16548 0.50785 0.93301 0.0
H404 H 0.19645 0.49822 0.92347 0.0
H405 H 0.20857 0.53176 0.94403 0.0
H406 H 0.15675 0.56619 0.89201 0.0
H407 H 0.13634 0.47075 0.87079 0.0
H408 H 0.07509 0.54955 0.89509 0.0
H409 H 0.11687 0.58266 0.88724 0.0
H410 H 0.08458 0.56071 0.8646 0.0
H411 H 0.08094 0.42763 0.86019 0.0
H412 H 0.04543 0.43239 0.86721 0.0
H413 H 0.06485 0.44449 0.83874 0.0
H414 H 0.85953 0.37201 0.94094 0.0
H415 H 0.87342 0.36648 0.00221 0.0
H416 H 0.85399 0.40802 0.98025 0.0
H417 H 0.82649 0.36986 0.97117 0.0
H418 H 0.9108 0.3855 0.92181 0.0
H419 H 0.92945 0.48224 0.93708 0.0
H420 H 0.9476 0.40077 0.86705 0.0
H421 H 0.98194 0.40915 0.88692 0.0
H422 H 0.93966 0.37507 0.89259 0.0
H423 H 0.96894 0.52899 0.91563 0.0
H424 H 0.0049 0.52656 0.90581 0.0
H425 H 0.97209 0.5198 0.88498 0.0
H426 H 0.79389 0.3961 0.79655 0.0
H427 H 0.83504 0.37808 0.77055 0.0
H428 H 0.85663 0.47645 0.76035 0.0
H429 H 0.90768 0.39376 0.79697 0.0
H430 H 0.87837 0.36568 0.77481 0.0
H431 H 0.92111 0.39697 0.76688 0.0
H432 H 0.91233 0.52272 0.76257 0.0
H433 H 0.93903 0.51777 0.78387 0.0
H434 H 0.9444 0.51428 0.75281 0.0
H435 H 0.13731 0.54879 0.70549 0.0
H436 H 0.17821 0.53055 0.70751 0.0
H437 H 0.14167 0.50755 0.72587 0.0
H438 H 0.14546 0.48937 0.69913 0.0
H439 H 0.05341 0.44814 0.70928 0.0
H440 H 0.09004 0.55133 0.7143 0.0
H441 H 0.00972 0.42536 0.76356 0.0
H442 H 0.97969 0.41925 0.74054 0.0
H443 H 0.01204 0.40937 0.73499 0.0
H444 H 0.06549 0.57283 0.73946 0.0
H445 H 0.02272 0.54428 0.7491 0.0
H446 H 0.05824 0.55337 0.76798 0.0
H447 H 0.03162 0.48189 0.89898 0.0
H448 H 0.92667 0.45357 0.85924 0.0
H449 H 0.9089 0.45046 0.81879 0.0
H450 H 0.96287 0.46796 0.74318 0.0
H451 H 0.06978 0.50365 0.78323 0.0
H452 H 0.08791 0.50858 0.82381 0.0
H453 H 0.74461 0.40372 0.76455 0.0
H454 H 0.73573 0.38504 0.79344 0.0
H455 H 0.76816 0.42769 0.79007 0.0
C456 C 0.45945 0.83857 0.86645 0.0
C457 C 0.44795 0.83475 0.89233 0.0
C458 C 0.47929 0.88714 0.91417 0.0
C459 C 0.45182 0.88864 0.92341 0.0
C460 C 0.45641 0.91834 0.9323 0.0
C461 C 0.48925 0.94695 0.93237 0.0
C462 C 0.51716 0.94528 0.92382 0.0
C463 C 0.5118 0.91525 0.91496 0.0
C464 C 0.42624 0.91915 0.94177 0.0
C465 C 0.55259 0.97523 0.92403 0.0
C466 C 0.47365 0.15587 0.85844 0.0
C467 C 0.49623 0.14146 0.86363 0.0
C468 C 0.48172 0.08897 0.88159 0.0
C469 C 0.51451 0.09534 0.88694 0.0
C470 C 0.51947 0.07588 0.90332 0.0
C471 C 0.491 0.04965 0.9146 0.0
C472 C 0.45785 0.04266 0.90871 0.0
C473 C 0.45366 0.06223 0.89202 0.0
C474 C 0.55506 0.0833 0.90861 0.0
C475 C 0.42688 0.01471 0.9202 0.0
C476 C 0.54877 0.16382 0.0521 0.0
C477 C 0.57448 0.15838 0.04464 0.0
C478 C 0.56683 0.12696 0.03738 0.0
C479 C 0.53278 0.10035 0.03799 0.0
C480 C 0.50699 0.10547 0.04648 0.0
C481 C 0.51542 0.13723 0.0536 0.0
C482 C 0.59511 0.12221 0.02897 0.0
C483 C 0.47052 0.07751 0.04762 0.0
C484 C 0.52041 0.88019 0.11717 0.0
C485 C 0.50224 0.89891 0.11159 0.0
C486 C 0.52406 0.95112 0.09063 0.0
C487 C 0.55396 0.97676 0.08108 0.0
C488 C 0.55302 0.99789 0.06413 0.0
C489 C 0.5213 0.99351 0.05694 0.0
C490 C 0.49098 0.96833 0.06719 0.0
C491 C 0.49269 0.94736 0.08396 0.0
C492 C 0.58587 0.02471 0.05376 0.0
C493 C 0.45683 0.96361 0.06042 0.0
C494 C 0.49437 0.9786 0.94144 0.0
C495 C 0.49186 0.99955 0.92525 0.0
C496 C 0.49574 0.02948 0.93259 0.0
C497 C 0.50279 0.03914 0.95674 0.0
C498 C 0.50728 0.06927 0.96472 0.0
C499 C 0.51449 0.07866 0.98848 0.0
C500 C 0.51686 0.05799 0.00526 0.0
C501 C 0.52429 0.06733 0.02943 0.0
C502 C 0.52527 0.04575 0.04579 0.0
C503 C 0.51982 0.01516 0.0386 0.0
C504 C 0.51359 0.00585 0.01436 0.0
C505 C 0.50926 0.97578 0.00638 0.0
C506 C 0.50317 0.96687 0.9825 0.0
C507 C 0.50091 0.98758 0.9657 0.0
C508 C 0.50523 0.01801 0.97335 0.0
C509 C 0.51183 0.02726 0.99768 0.0
C510 C 0.5622 0.24594 0.04764 0.0
C511 C 0.57669 0.22317 0.04647 0.0
O512 O 0.47565 0.85877 0.9053 0.0
O513 O 0.52669 0.93116 0.10664 0.0
O514 O 0.5554 0.19423 0.05836 0.0
O515 O 0.47611 0.10763 0.86615 0.0
H516 H 0.42644 0.83903 0.89296 0.0
H517 H 0.46935 0.86431 0.86068 0.0
H518 H 0.48011 0.83306 0.86476 0.0
H519 H 0.43833 0.82223 0.85414 0.0
H520 H 0.42688 0.8666 0.92421 0.0
H521 H 0.53296 0.91368 0.90829 0.0
H522 H 0.42313 0.93781 0.93209 0.0
H523 H 0.40222 0.89491 0.94006 0.0
H524 H 0.43074 0.92657 0.96078 0.0
H525 H 0.57171 0.96973 0.91715 0.0
H526 H 0.55299 0.99483 0.91304 0.0
H527 H 0.56004 0.98507 0.94241 0.0
H528 H 0.50739 0.15213 0.88122 0.0
H529 H 0.4594 0.14672 0.84141 0.0
H530 H 0.45491 0.14916 0.87282 0.0
H531 H 0.4895 0.18317 0.85774 0.0
H532 H 0.53615 0.11502 0.87803 0.0
H533 H 0.42841 0.05722 0.88743 0.0
H534 H 0.56172 0.09091 0.92748 0.0
H535 H 0.55635 0.06077 0.90589 0.0
H536 H 0.57428 0.10321 0.89727 0.0
H537 H 0.40305 0.01377 0.91476 0.0
H538 H 0.4246 0.99097 0.91525 0.0
H539 H 0.42967 0.01725 0.93981 0.0
H540 H 0.57467 0.21739 0.02735 0.0
H541 H 0.60058 0.17842 0.04483 0.0
H542 H 0.49585 0.1416 0.05984 0.0
H543 H 0.58989 0.11302 0.01036 0.0
H544 H 0.62035 0.14537 0.02986 0.0
H545 H 0.59617 0.10336 0.03996 0.0
H546 H 0.45348 0.08548 0.05485 0.0
H547 H 0.46127 0.06696 0.02958 0.0
H548 H 0.4689 0.05761 0.05892 0.0
H549 H 0.48747 0.88718 0.09508 0.0
H550 H 0.50158 0.85382 0.12055 0.0
H551 H 0.53609 0.88154 0.10187 0.0
H552 H 0.5374 0.89099 0.13299 0.0
H553 H 0.57809 0.9798 0.08669 0.0
H554 H 0.46961 0.92851 0.09207 0.0
H555 H 0.58451 0.02275 0.0341 0.0
H556 H 0.58972 0.04912 0.05862 0.0
H557 H 0.60823 0.02361 0.06018 0.0
H558 H 0.43586 0.94423 0.07107 0.0
H559 H 0.45734 0.98711 0.06286 0.0
H560 H 0.45133 0.95662 0.04138 0.0
H561 H 0.4864 0.99227 0.9067 0.0
H562 H 0.50551 0.08607 0.95266 0.0
H563 H 0.51794 0.10224 0.99356 0.0
H564 H 0.53076 0.05303 0.06434 0.0
H565 H 0.51066 0.95882 0.0185 0.0
H566 H 0.50012 0.94347 0.97738 0.0
H567 H 0.57909 0.26926 0.03818 0.0
H568 H 0.53669 0.23376 0.03887 0.0
H569 H 0.55927 0.25195 0.06613 0.0
C570 C 0.67144 0.49335 0.02937 0.0
C571 C 0.65754 0.47499 0.05278 0.0
C572 C 0.63047 0.49908 0.07648 0.0
C573 C 0.59629 0.47333 0.07484 0.0
C574 C 0.57007 0.47761 0.08305 0.0
C575 C 0.57803 0.50852 0.09246 0.0
C576 C 0.61238 0.53461 0.09386 0.0
C577 C 0.63813 0.52923 0.08632 0.0
C578 C 0.53383 0.44898 0.08161 0.0
C579 C 0.62197 0.56829 0.10307 0.0
C580 C 0.36913 0.51771 7e-05 0.0
C581 C 0.40591 0.53657 0.00939 0.0
C582 C 0.43712 0.51723 0.03286 0.0
C583 C 0.466 0.54772 0.03885 0.0
C584 C 0.48849 0.55013 0.05694 0.0
C585 C 0.48177 0.52146 0.06922 0.0
C586 C 0.45291 0.49064 0.06293 0.0
C587 C 0.43118 0.48893 0.04459 0.0
C588 C 0.51946 0.58318 0.06289 0.0
C589 C 0.44498 0.45952 0.07563 0.0
C590 C 0.42074 0.57931 0.20258 0.0
C591 C 0.45513 0.60091 0.19777 0.0
C592 C 0.47648 0.58883 0.1924 0.0
C593 C 0.46305 0.5544 0.1921 0.0
C594 C 0.42862 0.53263 0.19797 0.0
C595 C 0.40792 0.54547 0.20336 0.0
C596 C 0.51329 0.61279 0.18681 0.0
C597 C 0.4136 0.49585 0.19805 0.0
C598 C 0.57419 0.42716 0.25533 0.0
C599 C 0.56869 0.44709 0.27453 0.0
C600 C 0.56417 0.48852 0.25091 0.0
C601 C 0.5814 0.52175 0.24467 0.0
C602 C 0.56804 0.53349 0.22743 0.0
C603 C 0.53664 0.51129 0.21617 0.0
C604 C 0.51857 0.47779 0.2228 0.0
C605 C 0.53244 0.46674 0.24014 0.0
C606 C 0.58774 0.5694 0.22088 0.0
C607 C 0.48479 0.45354 0.21126 0.0
C608 C 0.55045 0.51393 0.10015 0.0
C609 C 0.53073 0.51726 0.08258 0.0
C610 C 0.50494 0.52324 0.08847 0.0
C611 C 0.49988 0.5281 0.11244 0.0
C612 C 0.47593 0.53668 0.11885 0.0
C613 C 0.47132 0.54156 0.14252 0.0
C614 C 0.48958 0.53683 0.16072 0.0
C615 C 0.48481 0.5413 0.18486 0.0
C616 C 0.50117 0.53367 0.20255 0.0
C617 C 0.5231 0.52255 0.19674 0.0
C618 C 0.53025 0.52042 0.1727 0.0
C619 C 0.55383 0.51134 0.16627 0.0
C620 C 0.56073 0.50944 0.14254 0.0
C621 C 0.54372 0.51579 0.12434 0.0
C622 C 0.51902 0.52385 0.13046 0.0
C623 C 0.51304 0.52716 0.15464 0.0
C624 C 0.35712 0.59925 0.18987 0.0
C625 C 0.39523 0.61171 0.19245 0.0
O626 O 0.65698 0.4959 0.06975 0.0
O627 O 0.57932 0.47879 0.26714 0.0
O628 O 0.39953 0.59054 0.20695 0.0
O629 O 0.41504 0.51391 0.01535 0.0
H630 H 0.63157 0.45531 0.04758 0.0
H631 H 0.65414 0.50134 0.02236 0.0
H632 H 0.6971 0.51558 0.03137 0.0
H633 H 0.67258 0.47671 0.01599 0.0
H634 H 0.58957 0.4496 0.0677 0.0
H635 H 0.66454 0.5489 0.08767 0.0
H636 H 0.52034 0.453 0.06675 0.0
H637 H 0.5325 0.42521 0.07843 0.0
H638 H 0.52015 0.44709 0.09819 0.0
H639 H 0.64897 0.58704 0.09956 0.0
H640 H 0.60548 0.57642 0.0948 0.0
H641 H 0.61814 0.5672 0.12251 0.0
H642 H 0.40504 0.54879 0.02594 0.0
H643 H 0.36677 0.50313 0.98394 0.0
H644 H 0.35213 0.50052 0.01382 0.0
H645 H 0.36042 0.53506 0.9957 0.0
H646 H 0.47148 0.56946 0.0291 0.0
H647 H 0.40905 0.46546 0.03955 0.0
H648 H 0.51861 0.58959 0.08171 0.0
H649 H 0.54278 0.58193 0.06077 0.0
H650 H 0.52133 0.60311 0.05147 0.0
H651 H 0.42097 0.43767 0.06906 0.0
H652 H 0.4661 0.45486 0.0732 0.0
H653 H 0.44282 0.46247 0.09495 0.0
H654 H 0.40209 0.60933 0.17413 0.0
H655 H 0.46535 0.62718 0.19851 0.0
H656 H 0.38139 0.52908 0.20759 0.0
H657 H 0.5181 0.60932 0.16809 0.0
H658 H 0.52036 0.63882 0.18941 0.0
H659 H 0.53004 0.60788 0.19822 0.0
H660 H 0.3861 0.4822 0.20232 0.0
H661 H 0.41688 0.48746 0.18042 0.0
H662 H 0.42735 0.48955 0.21132 0.0
H663 H 0.54083 0.43325 0.27712 0.0
H664 H 0.56826 0.40299 0.26254 0.0
H665 H 0.5569 0.42219 0.23992 0.0
H666 H 0.60043 0.44003 0.24855 0.0
H667 H 0.60571 0.53845 0.25316 0.0
H668 H 0.51835 0.44104 0.2449 0.0
H669 H 0.59476 0.5718 0.20191 0.0
H670 H 0.57155 0.58027 0.22316 0.0
H671 H 0.61131 0.58373 0.23181 0.0
H672 H 0.47334 0.42851 0.21891 0.0
H673 H 0.46671 0.46228 0.21336 0.0
H674 H 0.48823 0.45187 0.19196 0.0
H675 H 0.53506 0.51452 0.06406 0.0
H676 H 0.46087 0.54022 0.1056 0.0
H677 H 0.45286 0.54857 0.14639 0.0
H678 H 0.49646 0.53603 0.22106 0.0
H679 H 0.56753 0.50598 0.17951 0.0
H680 H 0.57928 0.50256 0.13861 0.0
H681 H 0.3532 0.61621 0.17855 0.0
H682 H 0.34378 0.5745 0.18127 0.0
H683 H 0.34514 0.59702 0.20726 0.0
C684 C 0.62365 0.33123 0.41933 0.0
O685 O 0.63899 0.35499 0.43515 0.0
O686 O 0.68429 0.40105 0.38664 0.0
Zn687 Zn 0.6353 0.3855 0.39251 0.0
O688 O 0.62871 0.40887 0.41983 0.0
C689 C 0.62722 0.42337 0.35819 0.0
O690 O 0.65167 0.44641 0.37149 0.0
O691 O 0.61532 0.33736 0.39927 0.0
C692 C 0.59856 0.39669 0.42725 0.0
O693 O 0.57387 0.36921 0.41778 0.0
C694 C 0.70764 0.4121 0.40244 0.0
O695 O 0.70203 0.41963 0.42365 0.0
O696 O 0.61507 0.39329 0.36336 0.0
C697 C 0.29621 0.68182 0.55633 0.0
O698 O 0.29923 0.66516 0.53889 0.0
O699 O 0.28389 0.60634 0.57248 0.0
Zn700 Zn 0.24737 0.61746 0.5691 0.0
O701 O 0.2227 0.60456 0.53759 0.0
C702 C 0.2127 0.5764 0.60928 0.0
O703 O 0.23266 0.5647 0.60545 0.0
O704 O 0.27345 0.66667 0.57177 0.0
C705 C 0.19443 0.57792 0.5344 0.0
O706 O 0.18139 0.55641 0.55158 0.0
C707 C 0.29396 0.59353 0.55734 0.0
O708 O 0.2776 0.58237 0.53701 0.0
O709 O 0.21415 0.59855 0.59584 0.0
C710 C 0.61809 0.28445 0.71403 0.0
O711 O 0.64177 0.2799 0.70533 0.0
O712 O 0.65878 0.26262 0.75231 0.0
Zn713 Zn 0.61065 0.23232 0.74125 0.0
O714 O 0.60822 0.20314 0.71441 0.0
C715 C 0.59186 0.19833 0.78619 0.0
O716 O 0.6237 0.20589 0.78683 0.0
O717 O 0.598 0.26457 0.7294 0.0
C718 C 0.60846 0.17684 0.718 0.0
O719 O 0.61019 0.16794 0.73975 0.0
C720 C 0.68516 0.26047 0.75354 0.0
O721 O 0.6838 0.23303 0.74764 0.0
O722 O 0.58061 0.20645 0.7684 0.0
C723 C 0.42778 0.70557 0.90847 0.0
O724 O 0.41698 0.68856 0.92806 0.0
O725 O 0.36715 0.61886 0.88917 0.0
Zn726 Zn 0.41862 0.6449 0.88992 0.0
O727 O 0.43759 0.63337 0.91863 0.0
C728 C 0.42112 0.60423 0.85384 0.0
O729 O 0.40319 0.5816 0.86947 0.0
O730 O 0.43246 0.69269 0.89024 0.0
C731 C 0.42032 0.60468 0.92729 0.0
O732 O 0.39172 0.5828 0.91691 0.0
C733 C 0.34833 0.61314 0.90702 0.0
O734 O 0.362 0.62377 0.92817 0.0
O735 O 0.43279 0.63428 0.85906 0.0
C736 C 0.73547 0.41204 0.07206 0.0
O737 O 0.72855 0.39271 0.09043 0.0
O738 O 0.72988 0.33756 0.05933 0.0
Zn739 Zn 0.77212 0.38205 0.06316 0.0
O740 O 0.79059 0.39133 0.09661 0.0
C741 C 0.81179 0.3638 0.03581 0.0
O742 O 0.79407 0.3363 0.04754 0.0
O743 O 0.75594 0.41324 0.05657 0.0
C744 C 0.81584 0.39019 0.10468 0.0
O745 O 0.83175 0.38018 0.09104 0.0
C746 C 0.71607 0.31584 0.07524 0.0
O747 O 0.7314 0.32012 0.0959 0.0
O748 O 0.80727 0.38761 0.03973 0.0
C749 C 0.43574 0.74573 0.21147 0.0
O750 O 0.42262 0.753 0.19338 0.0
O751 O 0.37528 0.76011 0.23228 0.0
Zn752 Zn 0.4251 0.79325 0.23006 0.0
O753 O 0.43704 0.81893 0.19972 0.0
C754 C 0.42393 0.8146 0.27751 0.0
O755 O 0.39832 0.78419 0.27934 0.0
O756 O 0.44435 0.76356 0.23012 0.0
C757 C 0.43641 0.84526 0.19763 0.0
O758 O 0.42646 0.85604 0.2154 0.0
C759 C 0.34841 0.75726 0.22333 0.0
O760 O 0.34996 0.78008 0.20935 0.0
O761 O 0.44021 0.82404 0.25826 0.0
C762 C 0.28679 0.66544 0.22537 0.0
C763 C 0.25835 0.6637 0.2365 0.0
C764 C 0.29065 0.72396 0.24131 0.0
C765 C 0.31625 0.72561 0.22656 0.0
N766 N 0.33705 0.69808 0.20217 0.0
N767 N 0.24432 0.68978 0.26744 0.0
C768 C 0.31401 0.69637 0.21811 0.0
C769 C 0.26306 0.69258 0.248 0.0
N770 N 0.289 0.63788 0.22342 0.0
N771 N 0.29273 0.75228 0.24904 0.0
H772 H 0.22897 0.66728 0.27574 0.0
H773 H 0.24813 0.70979 0.27762 0.0
H774 H 0.31328 0.77565 0.24531 0.0
H775 H 0.27293 0.75262 0.25759 0.0
H776 H 0.31071 0.63836 0.21762 0.0
H777 H 0.27081 0.61529 0.23044 0.0
H778 H 0.33477 0.67745 0.19371 0.0
H779 H 0.35644 0.72032 0.1955 0.0
C780 C 0.60945 0.25467 0.4504 0.0
C781 C 0.63304 0.24863 0.4383 0.0
C782 C 0.64529 0.29347 0.41073 0.0
C783 C 0.62292 0.30006 0.42331 0.0
N784 N 0.577 0.28215 0.45047 0.0
N785 N 0.66271 0.25489 0.40135 0.0
C786 C 0.60289 0.27909 0.44169 0.0
C787 C 0.64721 0.26538 0.41656 0.0
N788 N 0.59378 0.23795 0.47054 0.0
N789 N 0.66665 0.31525 0.39424 0.0
H790 H 0.66599 0.23514 0.40447 0.0
H791 H 0.66962 0.26401 0.38424 0.0
H792 H 0.66617 0.33606 0.38906 0.0
H793 H 0.68699 0.31427 0.38717 0.0
H794 H 0.58199 0.24577 0.48229 0.0
H795 H 0.59218 0.21624 0.47586 0.0
H796 H 0.55886 0.26546 0.4621 0.0
H797 H 0.57168 0.29979 0.44433 0.0
C798 C 0.36316 0.58917 0.59103 0.0
C799 C 0.39241 0.61664 0.5809 0.0
C800 C 0.35618 0.61954 0.54965 0.0
C801 C 0.32698 0.59588 0.56195 0.0
N802 N 0.30136 0.55561 0.59257 0.0
N803 N 0.41704 0.6476 0.54494 0.0
C804 C 0.33018 0.57948 0.58186 0.0
C805 C 0.38904 0.62833 0.55832 0.0
N806 N 0.36689 0.57156 0.60876 0.0
N807 N 0.35274 0.63594 0.53091 0.0
H808 H 0.44183 0.65558 0.55032 0.0
H809 H 0.41559 0.6532 0.52728 0.0
H810 H 0.32935 0.62968 0.5233 0.0
H811 H 0.37294 0.65717 0.52372 0.0
H812 H 0.34698 0.54993 0.61565 0.0
H813 H 0.39031 0.57613 0.61511 0.0
H814 H 0.30098 0.54568 0.60907 0.0
H815 H 0.27715 0.54633 0.58507 0.0
C816 C 0.76106 0.33192 0.78469 0.0
C817 C 0.76643 0.35765 0.76886 0.0
C818 C 0.72997 0.31514 0.73942 0.0
C819 C 0.71803 0.29131 0.75746 0.0
N820 N 0.7218 0.27615 0.7975 0.0
N821 N 0.75559 0.37245 0.72968 0.0
C822 C 0.73374 0.29931 0.7801 0.0
C823 C 0.75138 0.34894 0.74558 0.0
N824 N 0.78246 0.33814 0.80365 0.0
N825 N 0.72037 0.30532 0.7164 0.0
H826 H 0.77168 0.39761 0.73227 0.0
H827 H 0.74108 0.36702 0.71414 0.0
H828 H 0.70469 0.28058 0.71158 0.0
H829 H 0.73069 0.32108 0.70203 0.0
H830 H 0.78076 0.31963 0.81453 0.0
H831 H 0.80477 0.36066 0.80664 0.0
H832 H 0.72939 0.28172 0.81524 0.0
H833 H 0.70276 0.25168 0.79435 0.0
C834 C 0.45155 0.7938 0.92084 0.0
C835 C 0.43582 0.79961 0.90113 0.0
C836 C 0.40727 0.74076 0.89054 0.0
C837 C 0.42941 0.73748 0.90665 0.0
N838 N 0.47393 0.76137 0.93663 0.0
N839 N 0.38622 0.77496 0.87538 0.0
C840 C 0.4517 0.76403 0.92182 0.0
C841 C 0.40978 0.77188 0.88835 0.0
N842 N 0.4626 0.81466 0.93995 0.0
N843 N 0.38425 0.71427 0.87711 0.0
H844 H 0.38609 0.79683 0.87453 0.0
H845 H 0.36482 0.75541 0.86725 0.0
H846 H 0.3793 0.69045 0.87974 0.0
H847 H 0.37068 0.71579 0.86277 0.0
H848 H 0.47218 0.8103 0.95546 0.0
H849 H 0.45649 0.83284 0.94193 0.0
H850 H 0.4932 0.78138 0.9461 0.0
H851 H 0.47506 0.74002 0.93789 0.0
C852 C 0.66141 0.42548 0.0659 0.0
C853 C 0.67821 0.45998 0.06203 0.0
C854 C 0.73349 0.46381 0.06814 0.0
C855 C 0.71632 0.42892 0.06831 0.0
N856 N 0.66442 0.37625 0.06328 0.0
N857 N 0.72962 0.51291 0.06886 0.0
C858 C 0.68043 0.40968 0.06618 0.0
C859 C 0.71422 0.47957 0.06578 0.0
N860 N 0.62766 0.40807 0.07127 0.0
N861 N 0.76824 0.48178 0.06985 0.0
H862 H 0.71651 0.52538 0.06884 0.0
H863 H 0.755 0.52826 0.07382 0.0
H864 H 0.78292 0.4712 0.0732 0.0
H865 H 0.78293 0.50694 0.06674 0.0
H866 H 0.61488 0.38339 0.07615 0.0
H867 H 0.61377 0.41932 0.0746 0.0
H868 H 0.63865 0.36155 0.05889 0.0
H869 H 0.67734 0.36351 0.06279 0.0
C870 C 0.3707 0.76008 0.58314 0.0
C871 C 0.37028 0.78417 0.56834 0.0
C872 C 0.32586 0.74051 0.54327 0.0
C873 C 0.32259 0.71684 0.55997 0.0
N874 N 0.34367 0.70264 0.59455 0.0
N875 N 0.36386 0.79409 0.52714 0.0
C876 C 0.34581 0.72616 0.57944 0.0
C877 C 0.35257 0.77369 0.54621 0.0
N878 N 0.39622 0.76957 0.59967 0.0
N879 N 0.30293 0.73161 0.52494 0.0
H880 H 0.38742 0.81592 0.52735 0.0
H881 H 0.3532 0.78685 0.51017 0.0
H882 H 0.28304 0.70745 0.52202 0.0
H883 H 0.30207 0.74874 0.51385 0.0
H884 H 0.40001 0.75333 0.6097 0.0
H885 H 0.41598 0.79391 0.60186 0.0
H886 H 0.35654 0.70782 0.61078 0.0
H887 H 0.32786 0.67744 0.59132 0.0
C888 C 0.65158 0.37617 0.71653 0.0
C889 C 0.62389 0.37725 0.70617 0.0
C890 C 0.59626 0.31851 0.69595 0.0
C891 C 0.62048 0.31642 0.71045 0.0
N892 N 0.67035 0.34298 0.73607 0.0
N893 N 0.58377 0.35448 0.67342 0.0
C894 C 0.64827 0.34525 0.72084 0.0
C895 C 0.5999 0.34982 0.69215 0.0
N896 N 0.68179 0.40472 0.72082 0.0
N897 N 0.56954 0.29061 0.68611 0.0
H898 H 0.59065 0.37797 0.6676 0.0
H899 H 0.5678 0.33588 0.6615 0.0
H900 H 0.56685 0.26747 0.68779 0.0
H901 H 0.54898 0.29014 0.67766 0.0
H902 H 0.70386 0.40532 0.7263 0.0
H903 H 0.68577 0.42768 0.71604 0.0
H904 H 0.6884 0.36274 0.74635 0.0
H905 H 0.66864 0.32078 0.74014 0.0
C906 C 0.25629 0.54467 0.89646 0.0
C907 C 0.23919 0.56175 0.90214 0.0
C908 C 0.29409 0.61348 0.90634 0.0
C909 C 0.311 0.59576 0.90372 0.0
N910 N 0.30926 0.54496 0.89578 0.0
N911 N 0.24242 0.61412 0.89936 0.0
C912 C 0.29243 0.5616 0.89817 0.0
C913 C 0.25823 0.59675 0.90328 0.0
N914 N 0.23831 0.51298 0.88803 0.0
N915 N 0.31221 0.64628 0.91209 0.0
H916 H 0.2171 0.60296 0.89381 0.0
H917 H 0.25536 0.63967 0.89807 0.0
H918 H 0.33871 0.66 0.91316 0.0
H919 H 0.30087 0.65943 0.9173 0.0
H920 H 0.24949 0.50056 0.88104 0.0
H921 H 0.21206 0.4997 0.88559 0.0
H922 H 0.29735 0.51941 0.89545 0.0
H923 H 0.33564 0.55666 0.89537 0.0
C924 C 0.64139 0.24724 0.04131 0.0
C925 C 0.61357 0.24068 0.05626 0.0
C926 C 0.65411 0.28093 0.08536 0.0
C927 C 0.68148 0.28721 0.07057 0.0
N928 N 0.70208 0.26913 0.0385 0.0
N929 N 0.5966 0.24229 0.09674 0.0
C930 C 0.67535 0.2681 0.04978 0.0
C931 C 0.62094 0.25436 0.07971 0.0
N932 N 0.63603 0.23421 0.0189 0.0
N933 N 0.65899 0.30164 0.1039 0.0
H934 H 0.57183 0.22285 0.09398 0.0
H935 H 0.60211 0.24949 0.11451 0.0
H936 H 0.68251 0.32218 0.1084 0.0
H937 H 0.63895 0.30028 0.11337 0.0
H938 H 0.65501 0.24325 0.00621 0.0
H939 H 0.6131 0.21457 0.01258 0.0
H940 H 0.69914 0.25322 0.02467 0.0
H941 H 0.72714 0.28351 0.04466 0.0
C942 C 0.43982 0.67364 0.1875 0.0
C943 C 0.41504 0.64752 0.20183 0.0
C944 C 0.41041 0.68789 0.22627 0.0
C945 C 0.43358 0.71349 0.21131 0.0
N946 N 0.47781 0.73265 0.1826 0.0
N947 N 0.38947 0.63305 0.24076 0.0
C948 C 0.45071 0.70689 0.1935 0.0
C949 C 0.4048 0.65575 0.22325 0.0
N950 N 0.4525 0.66702 0.16784 0.0
N951 N 0.39158 0.69335 0.24219 0.0
H952 H 0.38463 0.60912 0.23974 0.0
H953 H 0.38479 0.63912 0.25749 0.0
H954 H 0.39449 0.71633 0.24525 0.0
H955 H 0.37094 0.67439 0.251 0.0
H956 H 0.46546 0.68424 0.15467 0.0
H957 H 0.4503 0.64445 0.16438 0.0
H958 H 0.4938 0.72993 0.17112 0.0
H959 H 0.48631 0.75716 0.1869 0.0
C960 C 0.77237 0.38482 0.40301 0.0
C961 C 0.78613 0.39511 0.37987 0.0
C962 C 0.75817 0.42768 0.3776 0.0
C963 C 0.73859 0.41087 0.39753 0.0
N964 N 0.7249 0.3707 0.42836 0.0
N965 N 0.79388 0.42989 0.34583 0.0
C966 C 0.74552 0.38924 0.41032 0.0
C967 C 0.77997 0.41796 0.36751 0.0
N968 N 0.78433 0.37042 0.41808 0.0
N969 N 0.75627 0.45343 0.36858 0.0
H970 H 0.81409 0.42873 0.33887 0.0
H971 H 0.78508 0.44121 0.33441 0.0
H972 H 0.7407 0.46117 0.37584 0.0
H973 H 0.77244 0.46913 0.35562 0.0
H974 H 0.7776 0.36612 0.43587 0.0
H975 H 0.80335 0.36564 0.41396 0.0
H976 H 0.72584 0.3511 0.43583 0.0
H977 H 0.70477 0.37266 0.43454 0.0
C978 C 0.12918 0.577 0.49186 0.0
C979 C 0.14536 0.57972 0.46993 0.0
C980 C 0.18612 0.56888 0.49046 0.0
C981 C 0.17449 0.57354 0.51245 0.0
N982 N 0.13547 0.5829 0.53454 0.0
N983 N 0.17835 0.56286 0.44765 0.0
C984 C 0.14572 0.57714 0.51333 0.0
C985 C 0.17051 0.57077 0.469 0.0
N986 N 0.09733 0.57251 0.49222 0.0
N987 N 0.21295 0.56395 0.49018 0.0
H988 H 0.1652 0.56112 0.43201 0.0
H989 H 0.19496 0.55431 0.4456 0.0
H990 H 0.22333 0.56037 0.50562 0.0
H991 H 0.22575 0.56447 0.47495 0.0
H992 H 0.08345 0.56806 0.50766 0.0
H993 H 0.0824 0.56772 0.47703 0.0
H994 H 0.11772 0.59024 0.53589 0.0
H995 H 0.1465 0.58288 0.55081 0.0
C996 C 0.63535 0.14855 0.66371 0.0
C997 C 0.60733 0.11552 0.66114 0.0
C998 C 0.57785 0.12535 0.69335 0.0
C999 C 0.60736 0.15659 0.69765 0.0
N1000 N 0.66502 0.19783 0.68824 0.0
N1001 N 0.5467 0.07924 0.66639 0.0
C1002 C 0.63609 0.16841 0.68292 0.0
C1003 C 0.57699 0.10577 0.67391 0.0
N1004 N 0.66049 0.16165 0.64721 0.0
N1005 N 0.5508 0.11404 0.70822 0.0
H1006 H 0.54385 0.06609 0.65087 0.0
H1007 H 0.52333 0.07277 0.67362 0.0
H1008 H 0.54944 0.12845 0.72166 0.0
H1009 H 0.5306 0.08974 0.70825 0.0
H1010 H 0.67906 0.18654 0.64655 0.0
H1011 H 0.66129 0.14877 0.63256 0.0
H1012 H 0.68845 0.20568 0.68053 0.0
H1013 H 0.66644 0.21356 0.70174 0.0
C1014 C 0.46731 0.60734 0.78348 0.0
C1015 C 0.43272 0.56547 0.77378 0.0
C1016 C 0.38721 0.55813 0.81638 0.0
C1017 C 0.4241 0.5944 0.82971 0.0
N1018 N 0.48943 0.64701 0.82326 0.0
N1019 N 0.36326 0.51792 0.77609 0.0
C1020 C 0.46319 0.61956 0.81324 0.0
C1021 C 0.38965 0.54445 0.78681 0.0
N1022 N 0.4953 0.62517 0.77033 0.0
N1023 N 0.35734 0.54228 0.82792 0.0
H1024 H 0.36659 0.51004 0.7596 0.0
H1025 H 0.33941 0.50507 0.78385 0.0
H1026 H 0.35411 0.55068 0.84417 0.0
H1027 H 0.33618 0.52169 0.82041 0.0
H1028 H 0.51527 0.64794 0.77624 0.0
H1029 H 0.49703 0.61632 0.75377 0.0
H1030 H 0.5119 0.66144 0.81409 0.0
H1031 H 0.48828 0.65402 0.84057 0.0
C1032 C 0.90801 0.41109 0.99449 0.0
C1033 C 0.89178 0.37848 0.97106 0.0
C1034 C 0.82582 0.33222 0.99847 0.0
C1035 C 0.83646 0.367 0.01815 0.0
N1036 N 0.88573 0.4294 0.03328 0.0
N1037 N 0.8484 0.31139 0.9604 0.0
C1038 C 0.87747 0.40546 0.01693 0.0
C1039 C 0.85514 0.33609 0.97562 0.0
N1040 N 0.93898 0.43864 0.99306 0.0
N1041 N 0.79561 0.30375 0.0003 0.0
H1042 H 0.86509 0.31555 0.94662 0.0
H1043 H 0.82693 0.28799 0.96219 0.0
H1044 H 0.77752 0.30114 0.01246 0.0
H1045 H 0.7892 0.28385 0.98906 0.0
H1046 H 0.94749 0.45747 0.00566 0.0
H1047 H 0.95501 0.44121 0.9792 0.0
H1048 H 0.90908 0.45145 0.03285 0.0
H1049 H 0.86931 0.42622 0.04698 0.0
C1050 C 0.44538 0.86825 0.13244 0.0
C1051 C 0.47943 0.89545 0.13259 0.0
C1052 C 0.48076 0.89481 0.17609 0.0
C1053 C 0.44908 0.86467 0.17567 0.0
N1054 N 0.39969 0.82318 0.15418 0.0
N1055 N 0.52005 0.94394 0.15491 0.0
C1056 C 0.43066 0.85182 0.15405 0.0
C1057 C 0.49433 0.91173 0.15453 0.0
N1058 N 0.42678 0.85913 0.11176 0.0
N1059 N 0.49901 0.90627 0.19686 0.0
H1060 H 0.52741 0.95866 0.13996 0.0
H1061 H 0.53022 0.95764 0.17047 0.0
H1062 H 0.48996 0.89494 0.21316 0.0
H1063 H 0.52423 0.92558 0.19768 0.0
H1064 H 0.40115 0.84101 0.11051 0.0
H1065 H 0.43576 0.8724 0.09616 0.0
H1066 H 0.38672 0.80994 0.13898 0.0
H1067 H 0.3874 0.81168 0.1698 0.0
C1068 C 0.56749 0.43713 0.31915 0.0
C1069 C 0.58667 0.44843 0.29802 0.0
C1070 C 0.6348 0.44953 0.31849 0.0
C1071 C 0.61348 0.43269 0.33782 0.0
N1072 N 0.55942 0.41049 0.35717 0.0
N1073 N 0.644 0.47781 0.28207 0.0
C1074 C 0.57978 0.42654 0.33836 0.0
C1075 C 0.62177 0.4585 0.299 0.0
N1076 N 0.53905 0.43918 0.32158 0.0
N1077 N 0.66767 0.45654 0.31825 0.0
H1078 H 0.63791 0.48824 0.26806 0.0
H1079 H 0.63791 0.48824 0.26806 0.0
H1080 H 0.67841 0.44958 0.33171 0.0
H1081 H 0.68392 0.46863 0.30417 0.0
H1082 H 0.52541 0.43382 0.33721 0.0
H1083 H 0.53182 0.45075 0.30912 0.0
H1084 H 0.53339 0.40156 0.35717 0.0
H1085 H 0.56806 0.4043 0.37233 0.0
C1086 C 0.41347 0.86844 0.32263 0.0
C1087 C 0.44249 0.87804 0.33745 0.0
C1088 C 0.46295 0.85256 0.30956 0.0
C1089 C 0.43156 0.83857 0.29693 0.0
N1090 N 0.37743 0.83425 0.28998 0.0
N1091 N 0.5017 0.89435 0.33755 0.0
C1092 C 0.40709 0.84711 0.30291 0.0
C1093 C 0.46944 0.87472 0.32865 0.0
N1094 N 0.3935 0.88156 0.32642 0.0
N1095 N 0.48582 0.84329 0.30421 0.0
H1096 H 0.50795 0.9133 0.34973 0.0
H1097 H 0.52294 0.89502 0.33056 0.0
H1098 H 0.48216 0.82724 0.29027 0.0
H1099 H 0.50716 0.84949 0.31471 0.0
H1100 H 0.37376 0.87796 0.31511 0.0
H1101 H 0.39896 0.89924 0.33947 0.0
H1102 H 0.35653 0.83559 0.29525 0.0
H1103 H 0.37301 0.82082 0.2743 0.0
C1104 C 0.56935 0.41422 0.48508 0.0
C1105 C 0.56701 0.442 0.47865 0.0
C1106 C 0.59301 0.44421 0.44044 0.0
C1107 C 0.59081 0.41393 0.44567 0.0
N1108 N 0.58117 0.3721 0.47416 0.0
N1109 N 0.5939 0.49221 0.45601 0.0
C1110 C 0.58041 0.39967 0.46834 0.0
C1111 C 0.58425 0.45985 0.45809 0.0
N1112 N 0.56283 0.40192 0.50746 0.0
N1113 N 0.60156 0.45716 0.41821 0.0
H1114 H 0.5904 0.50521 0.46946 0.0
H1115 H 0.60913 0.50717 0.44239 0.0
H1116 H 0.60817 0.44654 0.40473 0.0
H1117 H 0.59943 0.47694 0.41259 0.0
H1118 H 0.55796 0.41285 0.52174 0.0
H1119 H 0.55796 0.41285 0.52174 0.0
H1120 H 0.57317 0.36066 0.49057 0.0
H1121 H 0.59 0.36094 0.4627 0.0
C1122 C 0.14515 0.51666 0.65162 0.0
C1123 C 0.14595 0.53898 0.66908 0.0
C1124 C 0.18864 0.58562 0.64621 0.0
C1125 C 0.18843 0.56363 0.6291 0.0
N1126 N 0.15923 0.50926 0.6116 0.0
N1127 N 0.15544 0.59367 0.67519 0.0
C1128 C 0.1645 0.52939 0.63062 0.0
C1129 C 0.16364 0.57319 0.664 0.0
N1130 N 0.12627 0.4834 0.65497 0.0
N1131 N 0.21346 0.61821 0.64624 0.0
H1132 H 0.13435 0.585 0.68606 0.0
H1133 H 0.1662 0.6184 0.67079 0.0
H1134 H 0.23308 0.62841 0.63402 0.0
H1135 H 0.21644 0.63437 0.65992 0.0
H1136 H 0.129 0.46656 0.64482 0.0
H1137 H 0.10857 0.47235 0.66835 0.0
H1138 H 0.1396 0.48473 0.61055 0.0
H1139 H 0.17235 0.51788 0.59576 0.0
C1140 C 0.55725 0.17726 0.84873 0.0
C1141 C 0.52301 0.15125 0.84417 0.0
C1142 C 0.53822 0.15109 0.80237 0.0
C1143 C 0.56921 0.18113 0.80634 0.0
N1144 N 0.60594 0.22586 0.83295 0.0
N1145 N 0.48068 0.11457 0.81475 0.0
C1146 C 0.57819 0.19501 0.82942 0.0
C1147 C 0.51345 0.13824 0.82049 0.0
N1148 N 0.57062 0.18458 0.87127 0.0
N1149 N 0.53271 0.13433 0.78144 0.0
H1150 H 0.46118 0.10281 0.82684 0.0
H1151 H 0.472 0.10808 0.79728 0.0
H1152 H 0.55046 0.14281 0.76788 0.0
H1153 H 0.51227 0.11048 0.77852 0.0
H1154 H 0.59624 0.20154 0.87482 0.0
H1155 H 0.55823 0.17084 0.88612 0.0
H1156 H 0.61121 0.23851 0.84907 0.0
H1157 H 0.62172 0.24019 0.8193 0.0
C1158 C 0.43476 0.55057 0.96868 0.0
C1159 C 0.42882 0.56151 0.99063 0.0
C1160 C 0.43294 0.6095 0.97109 0.0
C1161 C 0.43163 0.59494 0.94881 0.0
N1162 N 0.43733 0.55548 0.92566 0.0
N1163 N 0.44127 0.60943 0.01361 0.0
C1164 C 0.43503 0.5669 0.94744 0.0
C1165 C 0.43431 0.59378 0.9921 0.0
N1166 N 0.44151 0.5257 0.96831 0.0
N1167 N 0.42991 0.63666 0.97231 0.0
H1168 H 0.44434 0.59921 0.02909 0.0
H1169 H 0.44823 0.63397 0.01567 0.0
H1170 H 0.4295 0.64939 0.95742 0.0
H1171 H 0.42585 0.64555 0.98805 0.0
H1172 H 0.44689 0.51695 0.95309 0.0
H1173 H 0.4463 0.51648 0.98359 0.0
H1174 H 0.4356 0.53301 0.92271 0.0
H1175 H 0.44037 0.56859 0.91012 0.0
C1176 C 0.85786 0.39509 0.17771 0.0
C1177 C 0.86676 0.43734 0.18455 0.0
C1178 C 0.82943 0.43962 0.139 0.0
C1179 C 0.82867 0.40266 0.1287 0.0
N1180 N 0.83747 0.35105 0.14044 0.0
N1181 N 0.84714 0.48362 0.17684 0.0
C1182 C 0.84137 0.37987 0.14798 0.0
C1183 C 0.84557 0.45619 0.16846 0.0
N1184 N 0.86705 0.379 0.19289 0.0
N1185 N 0.81898 0.45546 0.1245 0.0
H1186 H 0.85868 0.49335 0.19331 0.0
H1187 H 0.83681 0.49529 0.16732 0.0
H1188 H 0.81123 0.44781 0.10705 0.0
H1189 H 0.81948 0.47662 0.13019 0.0
H1190 H 0.86339 0.356 0.1886 0.0
H1191 H 0.87786 0.38957 0.20936 0.0
H1192 H 0.84446 0.33765 0.15124 0.0
H1193 H 0.82696 0.34133 0.12377 0.0
loop_
_geom_bond_atom_site_label_1
_geom_bond_atom_site_label_2
_geom_bond_distance
_geom_bond_site_symmetry_2
_ccdc_geom_bond_type
C0 C1 1.560 . S
C0 H61 0.959 . S
C0 H62 0.959 . S
C0 H63 0.960 . S
C1 C0 1.560 . S
C1 O56 1.426 . S
C1 H60 0.980 . S
C2 C3 1.407 . S
C2 C7 1.418 . S
C2 O56 1.334 . S
C3 C2 1.407 . S
C3 C4 1.360 . S
C3 H64 0.929 . S
C4 C3 1.360 . S
C4 C5 1.401 . S
C4 C8 1.527 . S
C5 C4 1.401 . S
C5 C6 1.405 . S
C5 C38 1.587 . S
C6 C5 1.405 . S
C6 C7 1.332 . S
C6 C9 1.496 . S
C7 C2 1.418 . S
C7 C6 1.332 . S
C7 H65 0.929 . S
C8 C4 1.527 . S
C8 H66 0.959 . S
C8 H67 0.961 . S
C8 H68 0.961 . S
C9 C6 1.496 . S
C9 H69 0.960 . S
C9 H70 0.960 . S
C9 H71 0.961 . S
C10 C11 1.517 . S
C10 H73 0.961 . S
C10 H74 0.960 . S
C10 H75 0.959 . S
C11 C10 1.517 . S
C11 O59 1.468 . S
C11 H72 0.980 . S
C12 C13 1.349 . S
C12 C17 1.367 . S
C12 O59 1.408 . S
C13 C12 1.349 . S
C13 C14 1.407 . S
C13 H76 0.930 . S
C14 C13 1.407 . S
C14 C15 1.449 . S
C14 C18 1.535 . S
C15 C14 1.449 . S
C15 C16 1.384 . S
C15 C40 1.553 1_655 S
C16 C15 1.384 . S
C16 C17 1.364 . S
C16 C19 1.450 . S
C17 C12 1.367 . S
C17 C16 1.364 . S
C17 H77 0.931 . S
C18 C14 1.535 . S
C18 H78 0.959 1_655 S
C18 H79 0.961 1_655 S
C18 H80 0.959 . S
C19 C16 1.450 . S
C19 H81 0.960 . S
C19 H82 0.960 1_655 S
C19 H83 0.960 . S
C20 C21 1.309 . S
C20 C25 1.304 . S
C20 O58 1.435 . S
C21 C20 1.309 . S
C21 C22 1.476 . S
C21 H85 0.930 . S
C22 C21 1.476 . S
C22 C23 1.400 . S
C22 C26 1.567 . S
C23 C22 1.400 . S
C23 C24 1.373 . S
C23 C45 1.432 . S
C24 C23 1.373 . S
C24 C25 1.339 . S
C24 C27 1.530 . S
C25 C20 1.304 . S
C25 C24 1.339 . S
C25 H86 0.930 . S
C26 C22 1.567 . S
C26 H87 0.961 . S
C26 H88 0.960 . S
C26 H89 0.958 . S
C27 C24 1.530 . S
C27 H90 0.961 . S
C27 H91 0.960 . S
C27 H92 0.960 . S
C28 C29 1.530 . S
C28 H94 0.961 . S
C28 H95 0.961 . S
C28 H96 0.959 . S
C29 C28 1.530 . S
C29 O57 1.412 . S
C29 H93 0.980 . S
C30 C31 1.288 . S
C30 C35 1.377 . S
C30 O57 1.393 . S
C31 C30 1.288 . S
C31 C32 1.369 . S
C31 H97 0.932 . S
C32 C31 1.369 . S
C32 C33 1.398 . S
C32 C36 1.527 . S
C33 C32 1.398 . S
C33 C34 1.380 . S
C33 C47 1.497 . S
C34 C33 1.380 . S
C34 C35 1.383 . S
C34 C37 1.603 . S
C35 C30 1.377 . S
C35 C34 1.383 . S
C35 H98 0.929 . S
C36 C32 1.527 . S
C36 H99 0.961 . S
C36 H100 0.959 1_455 S
C36 H101 0.959 . S
C37 C34 1.603 . S
C37 H102 0.960 . S
C37 H103 0.962 . S
C37 H104 0.961 . S
C38 C5 1.587 . S
C38 C39 1.360 . S
C38 C51 1.412 . S
C39 C38 1.360 . S
C39 C40 1.365 . S
C39 H105 0.929 . S
C40 C15 1.553 1_455 S
C40 C39 1.365 . S
C40 C41 1.404 . S
C41 C40 1.404 . S
C41 C42 1.396 1_455 S
C41 C52 1.450 . S
C42 C41 1.396 1_655 S
C42 C43 1.322 . S
C42 H106 0.930 . S
C43 C42 1.322 . S
C43 C44 1.459 . S
C43 H107 0.929 . S
C44 C43 1.459 . S
C44 C45 1.445 . S
C44 C53 1.395 1_655 S
C45 C23 1.432 . S
C45 C44 1.445 . S
C45 C46 1.370 . S
C46 C45 1.370 . S
C46 C47 1.438 1_655 S
C46 H108 0.930 . S
C47 C33 1.497 . S
C47 C46 1.438 1_455 S
C47 C48 1.360 . S
C48 C47 1.360 . S
C48 C49 1.401 . S
C48 C53 1.446 . S
C49 C48 1.401 . S
C49 C50 1.347 . S
C49 H109 0.929 . S
C50 C49 1.347 . S
C50 C51 1.455 . S
C50 H110 0.930 . S
C51 C38 1.412 . S
C51 C50 1.455 . S
C51 C52 1.331 . S
C52 C41 1.450 . S
C52 C51 1.331 . S
C52 C53 1.497 . S
C53 C44 1.395 1_455 S
C53 C48 1.446 . S
C53 C52 1.497 . S
C54 C55 1.582 . S
C54 H111 0.962 . S
C54 H112 0.959 . S
C54 H113 0.958 . S
C55 C54 1.582 . S
C55 O58 1.458 . S
C55 H84 0.980 . S
O56 C1 1.426 . S
O56 C2 1.334 . S
O57 C29 1.412 . S
O57 C30 1.393 . S
O58 C20 1.435 . S
O58 C55 1.458 . S
O59 C11 1.468 . S
O59 C12 1.408 . S
H60 C1 0.980 . S
H61 C0 0.959 . S
H62 C0 0.959 . S
H63 C0 0.960 . S
H64 C3 0.929 . S
H65 C7 0.929 . S
H66 C8 0.959 . S
H67 C8 0.961 . S
H68 C8 0.961 . S
H69 C9 0.960 . S
H70 C9 0.960 . S
H71 C9 0.961 . S
H72 C11 0.980 . S
H73 C10 0.961 . S
H74 C10 0.960 . S
H75 C10 0.959 . S
H76 C13 0.930 . S
H77 C17 0.931 . S
H78 C18 0.959 1_455 S
H79 C18 0.961 1_455 S
H80 C18 0.959 . S
H81 C19 0.960 . S
H82 C19 0.960 1_455 S
H83 C19 0.960 . S
H84 C55 0.980 . S
H85 C21 0.930 . S
H86 C25 0.930 . S
H87 C26 0.961 . S
H88 C26 0.960 . S
H89 C26 0.958 . S
H90 C27 0.961 . S
H91 C27 0.960 . S
H92 C27 0.960 . S
H93 C29 0.980 . S
H94 C28 0.961 . S
H95 C28 0.961 . S
H96 C28 0.959 . S
H97 C31 0.932 . S
H98 C35 0.929 . S
H99 C36 0.961 . S
H100 C36 0.959 1_655 S
H101 C36 0.959 . S
H102 C37 0.960 . S
H103 C37 0.962 . S
H104 C37 0.961 . S
H105 C39 0.929 . S
H106 C42 0.930 . S
H107 C43 0.929 . S
H108 C46 0.930 . S
H109 C49 0.929 . S
H110 C50 0.930 . S
H111 C54 0.962 . S
H112 C54 0.959 . S
H113 C54 0.958 . S
C114 C115 1.560 . S
C114 H175 0.959 . S
C114 H176 0.959 . S
C114 H177 0.960 . S
C115 C114 1.560 . S
C115 O170 1.426 . S
C115 H174 0.980 . S
C116 C117 1.407 . S
C116 C121 1.418 . S
C116 O170 1.334 . S
C117 C116 1.407 . S
C117 C118 1.360 . S
C117 H178 0.929 . S
C118 C117 1.360 . S
C118 C119 1.401 . S
C118 C122 1.527 . S
C119 C118 1.401 . S
C119 C120 1.405 . S
C119 C152 1.587 . S
C120 C119 1.405 . S
C120 C121 1.332 . S
C120 C123 1.496 . S
C121 C116 1.418 . S
C121 C120 1.332 . S
C121 H179 0.929 . S
C122 C118 1.527 . S
C122 H180 0.959 . S
C122 H181 0.961 . S
C122 H182 0.961 . S
C123 C120 1.496 . S
C123 H183 0.960 . S
C123 H184 0.960 . S
C123 H185 0.961 . S
C124 C125 1.517 . S
C124 H187 0.961 . S
C124 H188 0.960 . S
C124 H189 0.959 . S
C125 C124 1.517 . S
C125 O173 1.468 . S
C125 H186 0.980 . S
C126 C127 1.349 . S
C126 C131 1.367 . S
C126 O173 1.408 . S
C127 C126 1.349 . S
C127 C128 1.407 . S
C127 H190 0.930 . S
C128 C127 1.407 . S
C128 C129 1.449 . S
C128 C132 1.535 . S
C129 C128 1.449 . S
C129 C130 1.384 . S
C129 C154 1.553 . S
C130 C129 1.384 . S
C130 C131 1.364 . S
C130 C133 1.450 . S
C131 C126 1.367 . S
C131 C130 1.364 . S
C131 H191 0.931 . S
C132 C128 1.535 . S
C132 H192 0.959 . S
C132 H193 0.961 . S
C132 H194 0.959 . S
C133 C130 1.450 . S
C133 H195 0.960 . S
C133 H196 0.960 . S
C133 H197 0.960 . S
C134 C135 1.309 . S
C134 C139 1.304 . S
C134 O172 1.435 . S
C135 C134 1.309 . S
C135 C136 1.476 . S
C135 H199 0.930 . S
C136 C135 1.476 . S
C136 C137 1.400 . S
C136 C140 1.567 . S
C137 C136 1.400 . S
C137 C138 1.373 . S
C137 C159 1.432 . S
C138 C137 1.373 . S
C138 C139 1.339 . S
C138 C141 1.530 . S
C139 C134 1.304 . S
C139 C138 1.339 . S
C139 H200 0.930 . S
C140 C136 1.567 . S
C140 H201 0.961 . S
C140 H202 0.960 . S
C140 H203 0.958 . S
C141 C138 1.530 . S
C141 H204 0.961 . S
C141 H205 0.960 . S
C141 H206 0.960 . S
C142 C143 1.530 . S
C142 H208 0.961 . S
C142 H209 0.961 . S
C142 H210 0.959 . S
C143 C142 1.530 . S
C143 O171 1.412 . S
C143 H207 0.980 . S
C144 C145 1.288 . S
C144 C149 1.377 . S
C144 O171 1.393 . S
C145 C144 1.288 . S
C145 C146 1.369 . S
C145 H211 0.932 . S
C146 C145 1.369 . S
C146 C147 1.398 . S
C146 C150 1.527 1_565 S
C147 C146 1.398 . S
C147 C148 1.380 . S
C147 C161 1.497 1_565 S
C148 C147 1.380 . S
C148 C149 1.383 . S
C148 C151 1.603 . S
C149 C144 1.377 . S
C149 C148 1.383 . S
C149 H212 0.929 . S
C150 C146 1.527 1_545 S
C150 H213 0.956 1_545 S
C150 H214 0.959 . S
C150 H215 0.959 1_545 S
C151 C148 1.603 . S
C151 H216 0.960 . S
C151 H217 0.962 . S
C151 H218 0.961 . S
C152 C119 1.587 . S
C152 C153 1.360 . S
C152 C165 1.412 . S
C153 C152 1.360 . S
C153 C154 1.365 1_565 S
C153 H219 0.929 . S
C154 C129 1.553 . S
C154 C153 1.365 1_545 S
C154 C155 1.404 . S
C155 C154 1.404 . S
C155 C156 1.395 . S
C155 C166 1.451 . S
C156 C155 1.395 . S
C156 C157 1.322 . S
C156 H220 0.930 . S
C157 C156 1.322 . S
C157 C158 1.459 . S
C157 H221 0.929 . S
C158 C157 1.459 . S
C158 C159 1.445 . S
C158 C167 1.395 . S
C159 C137 1.432 . S
C159 C158 1.445 . S
C159 C160 1.370 . S
C160 C159 1.370 . S
C160 C161 1.438 . S
C160 H222 0.930 . S
C161 C147 1.497 1_545 S
C161 C160 1.438 . S
C161 C162 1.360 1_545 S
C162 C161 1.360 1_565 S
C162 C163 1.401 . S
C162 C167 1.446 1_565 S
C163 C162 1.401 . S
C163 C164 1.347 . S
C163 H223 0.929 . S
C164 C163 1.347 . S
C164 C165 1.455 . S
C164 H224 0.930 . S
C165 C152 1.412 . S
C165 C164 1.455 . S
C165 C166 1.331 1_565 S
C166 C155 1.451 . S
C166 C165 1.331 1_545 S
C166 C167 1.497 . S
C167 C158 1.395 . S
C167 C162 1.446 1_545 S
C167 C166 1.497 . S
C168 C169 1.582 . S
C168 H225 0.962 . S
C168 H226 0.959 . S
C168 H227 0.958 . S
C169 C168 1.582 . S
C169 O172 1.458 . S
C169 H198 0.980 . S
O170 C115 1.426 . S
O170 C116 1.334 . S
O171 C143 1.412 . S
O171 C144 1.393 . S
O172 C134 1.435 . S
O172 C169 1.458 . S
O173 C125 1.468 . S
O173 C126 1.408 . S
H174 C115 0.980 . S
H175 C114 0.959 . S
H176 C114 0.959 . S
H177 C114 0.960 . S
H178 C117 0.929 . S
H179 C121 0.929 . S
H180 C122 0.959 . S
H181 C122 0.961 . S
H182 C122 0.961 . S
H183 C123 0.960 . S
H184 C123 0.960 . S
H185 C123 0.961 . S
H186 C125 0.980 . S
H187 C124 0.961 . S
H188 C124 0.960 . S
H189 C124 0.959 . S
H190 C127 0.930 . S
H191 C131 0.931 . S
H192 C132 0.959 . S
H193 C132 0.961 . S
H194 C132 0.959 . S
H195 C133 0.960 . S
H196 C133 0.960 . S
H197 C133 0.960 . S
H198 C169 0.980 . S
H199 C135 0.930 . S
H200 C139 0.930 . S
H201 C140 0.961 . S
H202 C140 0.960 . S
H203 C140 0.958 . S
H204 C141 0.961 . S
H205 C141 0.960 . S
H206 C141 0.960 . S
H207 C143 0.980 . S
H208 C142 0.961 . S
H209 C142 0.961 . S
H210 C142 0.959 . S
H211 C145 0.932 . S
H212 C149 0.929 . S
H213 C150 0.956 1_565 S
H214 C150 0.959 . S
H215 C150 0.959 1_565 S
H216 C151 0.960 . S
H217 C151 0.962 . S
H218 C151 0.961 . S
H219 C153 0.929 . S
H220 C156 0.930 . S
H221 C157 0.929 . S
H222 C160 0.930 . S
H223 C163 0.929 . S
H224 C164 0.930 . S
H225 C168 0.962 . S
H226 C168 0.959 . S
H227 C168 0.958 . S
C228 C229 1.560 . S
C228 H289 0.959 . S
C228 H290 0.959 . S
C228 H291 0.960 . S
C229 C228 1.560 . S
C229 O284 1.426 . S
C229 H288 0.980 . S
C230 C231 1.407 . S
C230 C235 1.418 . S
C230 O284 1.334 . S
C231 C230 1.407 . S
C231 C232 1.360 . S
C231 H292 0.929 . S
C232 C231 1.360 . S
C232 C233 1.401 . S
C232 C236 1.527 . S
C233 C232 1.401 . S
C233 C234 1.405 . S
C233 C266 1.587 . S
C234 C233 1.405 . S
C234 C235 1.332 . S
C234 C237 1.496 . S
C235 C230 1.418 . S
C235 C234 1.332 . S
C235 H293 0.929 . S
C236 C232 1.527 . S
C236 H294 0.959 . S
C236 H295 0.961 . S
C236 H296 0.961 . S
C237 C234 1.496 . S
C237 H297 0.960 . S
C237 H298 0.960 . S
C237 H299 0.961 . S
C238 C239 1.517 . S
C238 H301 0.961 . S
C238 H302 0.960 . S
C238 H303 0.959 . S
C239 C238 1.517 . S
C239 O287 1.468 . S
C239 H300 0.980 . S
C240 C241 1.349 . S
C240 C245 1.367 . S
C240 O287 1.408 . S
C241 C240 1.349 . S
C241 C242 1.407 . S
C241 H304 0.930 . S
C242 C241 1.407 . S
C242 C243 1.449 . S
C242 C246 1.535 . S
C243 C242 1.449 . S
C243 C244 1.384 . S
C243 C268 1.553 . S
C244 C243 1.384 . S
C244 C245 1.364 . S
C244 C247 1.450 . S
C245 C240 1.367 . S
C245 C244 1.364 . S
C245 H305 0.931 . S
C246 C242 1.535 . S
C246 H306 0.959 . S
C246 H307 0.961 . S
C246 H308 0.959 . S
C247 C244 1.450 . S
C247 H309 0.960 . S
C247 H310 0.960 . S
C247 H311 0.960 . S
C248 C249 1.309 . S
C248 C253 1.304 . S
C248 O286 1.435 . S
C249 C248 1.309 . S
C249 C250 1.476 . S
C249 H313 0.930 . S
C250 C249 1.476 . S
C250 C251 1.400 . S
C250 C254 1.567 . S
C251 C250 1.400 . S
C251 C252 1.373 . S
C251 C273 1.432 . S
C252 C251 1.373 . S
C252 C253 1.339 . S
C252 C255 1.530 . S
C253 C248 1.304 . S
C253 C252 1.339 . S
C253 H314 0.930 . S
C254 C250 1.567 . S
C254 H315 0.961 . S
C254 H316 0.960 . S
C254 H317 0.958 . S
C255 C252 1.530 . S
C255 H318 0.961 . S
C255 H319 0.960 . S
C255 H320 0.960 . S
C256 C257 1.530 . S
C256 H322 0.961 . S
C256 H323 0.961 . S
C256 H324 0.959 . S
C257 C256 1.530 . S
C257 O285 1.412 . S
C257 H321 0.980 . S
C258 C259 1.288 . S
C258 C263 1.377 . S
C258 O285 1.393 . S
C259 C258 1.288 . S
C259 C260 1.369 . S
C259 H325 0.932 . S
C260 C259 1.369 . S
C260 C261 1.398 . S
C260 C264 1.527 . S
C261 C260 1.398 . S
C261 C262 1.380 . S
C261 C275 1.497 . S
C262 C261 1.380 . S
C262 C263 1.383 . S
C262 C265 1.603 . S
C263 C258 1.377 . S
C263 C262 1.383 . S
C263 H326 0.929 . S
C264 C260 1.527 . S
C264 H327 0.961 . S
C264 H328 0.959 . S
C264 H329 0.959 . S
C265 C262 1.603 . S
C265 H330 0.960 . S
C265 H331 0.962 . S
C265 H332 0.961 . S
C266 C233 1.587 . S
C266 C267 1.360 . S
C266 C279 1.412 . S
C267 C266 1.360 . S
C267 C268 1.365 . S
C267 H333 0.929 . S
C268 C243 1.553 . S
C268 C267 1.365 . S
C268 C269 1.404 . S
C269 C268 1.404 . S
C269 C270 1.395 . S
C269 C280 1.451 . S
C270 C269 1.395 . S
C270 C271 1.322 . S
C270 H334 0.930 . S
C271 C270 1.322 . S
C271 C272 1.459 . S
C271 H335 0.929 . S
C272 C271 1.459 . S
C272 C273 1.445 . S
C272 C281 1.395 . S
C273 C251 1.432 . S
C273 C272 1.445 . S
C273 C274 1.370 . S
C274 C273 1.370 . S
C274 C275 1.438 . S
C274 H336 0.930 . S
C275 C261 1.497 . S
C275 C274 1.438 . S
C275 C276 1.360 . S
C276 C275 1.360 . S
C276 C277 1.401 . S
C276 C281 1.446 . S
C277 C276 1.401 . S
C277 C278 1.347 . S
C277 H337 0.929 . S
C278 C277 1.347 . S
C278 C279 1.455 . S
C278 H338 0.930 . S
C279 C266 1.412 . S
C279 C278 1.455 . S
C279 C280 1.331 . S
C280 C269 1.451 . S
C280 C279 1.331 . S
C280 C281 1.497 . S
C281 C272 1.395 . S
C281 C276 1.446 . S
C281 C280 1.497 . S
C282 C283 1.582 . S
C282 H339 0.962 . S
C282 H340 0.959 . S
C282 H341 0.958 . S
C283 C282 1.582 . S
C283 O286 1.458 . S
C283 H312 0.980 . S
O284 C229 1.426 . S
O284 C230 1.334 . S
O285 C257 1.412 . S
O285 C258 1.393 . S
O286 C248 1.435 . S
O286 C283 1.458 . S
O287 C239 1.468 . S
O287 C240 1.408 . S
H288 C229 0.980 . S
H289 C228 0.959 . S
H290 C228 0.959 . S
H291 C228 0.960 . S
H292 C231 0.929 . S
H293 C235 0.929 . S
H294 C236 0.959 . S
H295 C236 0.961 . S
H296 C236 0.961 . S
H297 C237 0.960 . S
H298 C237 0.960 . S
H299 C237 0.961 . S
H300 C239 0.980 . S
H301 C238 0.961 . S
H302 C238 0.960 . S
H303 C238 0.959 . S
H304 C241 0.930 . S
H305 C245 0.931 . S
H306 C246 0.959 . S
H307 C246 0.961 . S
H308 C246 0.959 . S
H309 C247 0.960 . S
H310 C247 0.960 . S
H311 C247 0.960 . S
H312 C283 0.980 . S
H313 C249 0.930 . S
H314 C253 0.930 . S
H315 C254 0.961 . S
H316 C254 0.960 . S
H317 C254 0.958 . S
H318 C255 0.961 . S
H319 C255 0.960 . S
H320 C255 0.960 . S
H321 C257 0.980 . S
H322 C256 0.961 . S
H323 C256 0.961 . S
H324 C256 0.959 . S
H325 C259 0.932 . S
H326 C263 0.929 . S
H327 C264 0.961 . S
H328 C264 0.959 . S
H329 C264 0.959 . S
H330 C265 0.960 . S
H331 C265 0.962 . S
H332 C265 0.961 . S
H333 C267 0.929 . S
H334 C270 0.930 . S
H335 C271 0.929 . S
H336 C274 0.930 . S
H337 C277 0.929 . S
H338 C278 0.930 . S
H339 C282 0.962 . S
H340 C282 0.959 . S
H341 C282 0.958 . S
C342 C343 1.560 . S
C342 H403 0.959 . S
C342 H404 0.959 . S
C342 H405 0.960 . S
C343 C342 1.560 . S
C343 O398 1.426 . S
C343 H402 0.980 . S
C344 C345 1.407 . S
C344 C349 1.418 . S
C344 O398 1.334 . S
C345 C344 1.407 . S
C345 C346 1.360 . S
C345 H406 0.929 . S
C346 C345 1.360 . S
C346 C347 1.401 . S
C346 C350 1.527 . S
C347 C346 1.401 . S
C347 C348 1.405 . S
C347 C380 1.587 . S
C348 C347 1.405 . S
C348 C349 1.332 . S
C348 C351 1.496 . S
C349 C344 1.418 . S
C349 C348 1.332 . S
C349 H407 0.929 . S
C350 C346 1.527 . S
C350 H408 0.959 . S
C350 H409 0.961 . S
C350 H410 0.961 . S
C351 C348 1.496 . S
C351 H411 0.960 . S
C351 H412 0.960 . S
C351 H413 0.961 . S
C352 C353 1.517 . S
C352 H415 0.961 . S
C352 H416 0.960 . S
C352 H417 0.959 . S
C353 C352 1.517 . S
C353 O401 1.468 . S
C353 H414 0.980 . S
C354 C355 1.349 . S
C354 C359 1.367 . S
C354 O401 1.408 . S
C355 C354 1.349 . S
C355 C356 1.407 . S
C355 H418 0.930 . S
C356 C355 1.407 . S
C356 C357 1.449 . S
C356 C360 1.535 . S
C357 C356 1.449 . S
C357 C358 1.384 . S
C357 C382 1.553 1_655 S
C358 C357 1.384 . S
C358 C359 1.364 . S
C358 C361 1.450 . S
C359 C354 1.367 . S
C359 C358 1.364 . S
C359 H419 0.931 . S
C360 C356 1.535 . S
C360 H420 0.959 1_655 S
C360 H421 0.961 1_655 S
C360 H422 0.959 . S
C361 C358 1.450 . S
C361 H423 0.960 . S
C361 H424 0.960 1_655 S
C361 H425 0.960 . S
C362 C363 1.309 . S
C362 C367 1.304 . S
C362 O400 1.435 . S
C363 C362 1.309 . S
C363 C364 1.476 . S
C363 H427 0.930 . S
C364 C363 1.476 . S
C364 C365 1.400 . S
C364 C368 1.567 . S
C365 C364 1.400 . S
C365 C366 1.373 . S
C365 C387 1.432 . S
C366 C365 1.373 . S
C366 C367 1.339 . S
C366 C369 1.530 . S
C367 C362 1.304 . S
C367 C366 1.339 . S
C367 H428 0.930 . S
C368 C364 1.567 . S
C368 H429 0.961 . S
C368 H430 0.960 . S
C368 H431 0.958 . S
C369 C366 1.530 . S
C369 H432 0.961 . S
C369 H433 0.960 . S
C369 H434 0.960 . S
C370 C371 1.530 . S
C370 H436 0.961 . S
C370 H437 0.961 . S
C370 H438 0.959 . S
C371 C370 1.530 . S
C371 O399 1.412 . S
C371 H435 0.980 . S
C372 C373 1.288 . S
C372 C377 1.377 . S
C372 O399 1.393 . S
C373 C372 1.288 . S
C373 C374 1.369 . S
C373 H439 0.932 . S
C374 C373 1.369 . S
C374 C375 1.398 . S
C374 C378 1.527 . S
C375 C374 1.398 . S
C375 C376 1.380 . S
C375 C389 1.497 . S
C376 C375 1.380 . S
C376 C377 1.383 . S
C376 C379 1.603 . S
C377 C372 1.377 . S
C377 C376 1.383 . S
C377 H440 0.929 . S
C378 C374 1.527 . S
C378 H441 0.961 . S
C378 H442 0.959 1_455 S
C378 H443 0.959 . S
C379 C376 1.603 . S
C379 H444 0.960 . S
C379 H445 0.962 . S
C379 H446 0.961 . S
C380 C347 1.587 . S
C380 C381 1.360 . S
C380 C393 1.412 . S
C381 C380 1.360 . S
C381 C382 1.365 . S
C381 H447 0.929 . S
C382 C357 1.553 1_455 S
C382 C381 1.365 . S
C382 C383 1.418 . S
C383 C382 1.418 . S
C383 C384 1.363 1_455 S
C383 C394 1.475 . S
C384 C383 1.363 1_655 S
C384 C385 1.322 . S
C384 H448 0.930 . S
C385 C384 1.322 . S
C385 C386 1.459 . S
C385 H449 0.929 . S
C386 C385 1.459 . S
C386 C387 1.445 . S
C386 C395 1.395 1_655 S
C387 C365 1.432 . S
C387 C386 1.445 . S
C387 C388 1.370 . S
C388 C387 1.370 . S
C388 C389 1.438 1_655 S
C388 H450 0.930 . S
C389 C375 1.497 . S
C389 C388 1.438 1_455 S
C389 C390 1.360 . S
C390 C389 1.360 . S
C390 C391 1.401 . S
C390 C395 1.446 . S
C391 C390 1.401 . S
C391 C392 1.347 . S
C391 H451 0.929 . S
C392 C391 1.347 . S
C392 C393 1.455 . S
C392 H452 0.930 . S
C393 C380 1.412 . S
C393 C392 1.455 . S
C393 C394 1.331 . S
C394 C383 1.475 . S
C394 C393 1.331 . S
C394 C395 1.497 . S
C395 C386 1.395 1_455 S
C395 C390 1.446 . S
C395 C394 1.497 . S
C396 C397 1.582 . S
C396 H453 0.962 . S
C396 H454 0.959 . S
C396 H455 0.958 . S
C397 C396 1.582 . S
C397 O400 1.458 . S
C397 H426 0.980 . S
O398 C343 1.426 . S
O398 C344 1.334 . S
O399 C371 1.412 . S
O399 C372 1.393 . S
O400 C362 1.435 . S
O400 C397 1.458 . S
O401 C353 1.468 . S
O401 C354 1.408 . S
H402 C343 0.980 . S
H403 C342 0.959 . S
H404 C342 0.959 . S
H405 C342 0.960 . S
H406 C345 0.929 . S
H407 C349 0.929 . S
H408 C350 0.959 . S
H409 C350 0.961 . S
H410 C350 0.961 . S
H411 C351 0.960 . S
H412 C351 0.960 . S
H413 C351 0.961 . S
H414 C353 0.980 . S
H415 C352 0.961 . S
H416 C352 0.960 . S
H417 C352 0.959 . S
H418 C355 0.930 . S
H419 C359 0.931 . S
H420 C360 0.959 1_455 S
H421 C360 0.961 1_455 S
H422 C360 0.959 . S
H423 C361 0.960 . S
H424 C361 0.960 1_455 S
H425 C361 0.960 . S
H426 C397 0.980 . S
H427 C363 0.930 . S
H428 C367 0.930 . S
H429 C368 0.961 . S
H430 C368 0.960 . S
H431 C368 0.958 . S
H432 C369 0.961 . S
H433 C369 0.960 . S
H434 C369 0.960 . S
H435 C371 0.980 . S
H436 C370 0.961 . S
H437 C370 0.961 . S
H438 C370 0.959 . S
H439 C373 0.932 . S
H440 C377 0.929 . S
H441 C378 0.961 . S
H442 C378 0.959 1_655 S
H443 C378 0.959 . S
H444 C379 0.960 . S
H445 C379 0.962 . S
H446 C379 0.961 . S
H447 C381 0.929 . S
H448 C384 0.930 . S
H449 C385 0.929 . S
H450 C388 0.930 . S
H451 C391 0.929 . S
H452 C392 0.930 . S
H453 C396 0.962 . S
H454 C396 0.959 . S
H455 C396 0.958 . S
C456 C457 1.560 . S
C456 H517 0.959 . S
C456 H518 0.959 . S
C456 H519 0.960 . S
C457 C456 1.560 . S
C457 O512 1.426 . S
C457 H516 0.980 . S
C458 C459 1.407 . S
C458 C463 1.418 . S
C458 O512 1.334 . S
C459 C458 1.407 . S
C459 C460 1.360 . S
C459 H520 0.929 . S
C460 C459 1.360 . S
C460 C461 1.401 . S
C460 C464 1.527 . S
C461 C460 1.401 . S
C461 C462 1.405 . S
C461 C494 1.587 . S
C462 C461 1.405 . S
C462 C463 1.332 . S
C462 C465 1.496 . S
C463 C458 1.418 . S
C463 C462 1.332 . S
C463 H521 0.929 . S
C464 C460 1.527 . S
C464 H522 0.959 . S
C464 H523 0.961 . S
C464 H524 0.961 . S
C465 C462 1.496 . S
C465 H525 0.960 . S
C465 H526 0.960 . S
C465 H527 0.961 . S
C466 C467 1.517 . S
C466 H529 0.961 . S
C466 H530 0.960 . S
C466 H531 0.959 . S
C467 C466 1.517 . S
C467 O515 1.468 . S
C467 H528 0.980 . S
C468 C469 1.349 . S
C468 C473 1.367 . S
C468 O515 1.408 . S
C469 C468 1.349 . S
C469 C470 1.407 . S
C469 H532 0.930 . S
C470 C469 1.407 . S
C470 C471 1.449 . S
C470 C474 1.535 . S
C471 C470 1.449 . S
C471 C472 1.384 . S
C471 C496 1.553 . S
C472 C471 1.384 . S
C472 C473 1.364 . S
C472 C475 1.450 . S
C473 C468 1.367 . S
C473 C472 1.364 . S
C473 H533 0.931 . S
C474 C470 1.535 . S
C474 H534 0.959 . S
C474 H535 0.961 . S
C474 H536 0.959 . S
C475 C472 1.450 . S
C475 H537 0.960 . S
C475 H538 0.960 . S
C475 H539 0.960 . S
C476 C477 1.309 . S
C476 C481 1.304 . S
C476 O514 1.435 . S
C477 C476 1.309 . S
C477 C478 1.476 . S
C477 H541 0.930 . S
C478 C477 1.476 . S
C478 C479 1.400 . S
C478 C482 1.567 . S
C479 C478 1.400 . S
C479 C480 1.373 . S
C479 C501 1.432 . S
C480 C479 1.373 . S
C480 C481 1.339 . S
C480 C483 1.530 . S
C481 C476 1.304 . S
C481 C480 1.339 . S
C481 H542 0.930 . S
C482 C478 1.567 . S
C482 H543 0.961 . S
C482 H544 0.960 . S
C482 H545 0.958 . S
C483 C480 1.530 . S
C483 H546 0.961 . S
C483 H547 0.960 . S
C483 H548 0.960 . S
C484 C485 1.530 . S
C484 H550 0.961 . S
C484 H551 0.961 . S
C484 H552 0.959 . S
C485 C484 1.530 . S
C485 O513 1.412 . S
C485 H549 0.980 . S
C486 C487 1.288 . S
C486 C491 1.377 . S
C486 O513 1.393 . S
C487 C486 1.288 . S
C487 C488 1.369 . S
C487 H553 0.932 . S
C488 C487 1.369 . S
C488 C489 1.398 . S
C488 C492 1.527 1_565 S
C489 C488 1.398 . S
C489 C490 1.380 . S
C489 C503 1.497 1_565 S
C490 C489 1.380 . S
C490 C491 1.383 . S
C490 C493 1.603 . S
C491 C486 1.377 . S
C491 C490 1.383 . S
C491 H554 0.929 . S
C492 C488 1.527 1_545 S
C492 H555 0.961 . S
C492 H556 0.959 . S
C492 H557 0.959 1_545 S
C493 C490 1.603 . S
C493 H558 0.960 . S
C493 H559 0.962 . S
C493 H560 0.961 . S
C494 C461 1.587 . S
C494 C495 1.360 . S
C494 C507 1.412 . S
C495 C494 1.360 . S
C495 C496 1.365 1_565 S
C495 H561 0.929 . S
C496 C471 1.553 . S
C496 C495 1.365 1_545 S
C496 C497 1.404 . S
C497 C496 1.404 . S
C497 C498 1.395 . S
C497 C508 1.434 1_545 S
C498 C497 1.395 . S
C498 C499 1.322 . S
C498 H562 0.930 . S
C499 C498 1.322 . S
C499 C500 1.483 . S
C499 H563 0.929 . S
C500 C499 1.483 . S
C500 C501 1.418 1_556 S
C500 C509 1.399 . S
C501 C479 1.432 . S
C501 C500 1.418 1_554 S
C501 C502 1.370 . S
C502 C501 1.370 . S
C502 C503 1.438 . S
C502 H564 0.930 . S
C503 C489 1.497 1_545 S
C503 C502 1.438 . S
C503 C504 1.360 1_545 S
C504 C503 1.360 1_565 S
C504 C505 1.401 . S
C504 C509 1.446 1_564 S
C505 C504 1.401 . S
C505 C506 1.347 1_554 S
C505 H565 0.929 . S
C506 C505 1.347 1_556 S
C506 C507 1.455 . S
C506 H566 0.930 . S
C507 C494 1.412 . S
C507 C506 1.455 . S
C507 C508 1.355 . S
C508 C497 1.434 1_565 S
C508 C507 1.355 . S
C508 C509 1.488 1_565 S
C509 C500 1.399 . S
C509 C504 1.446 1_546 S
C509 C508 1.488 1_545 S
C510 C511 1.582 . S
C510 H567 0.962 . S
C510 H568 0.959 . S
C510 H569 0.958 . S
C511 C510 1.582 . S
C511 O514 1.458 . S
C511 H540 0.980 . S
O512 C457 1.426 . S
O512 C458 1.334 . S
O513 C485 1.412 . S
O513 C486 1.393 . S
O514 C476 1.435 . S
O514 C511 1.458 . S
O515 C467 1.468 . S
O515 C468 1.408 . S
H516 C457 0.980 . S
H517 C456 0.959 . S
H518 C456 0.959 . S
H519 C456 0.960 . S
H520 C459 0.929 . S
H521 C463 0.929 . S
H522 C464 0.959 . S
H523 C464 0.961 . S
H524 C464 0.961 . S
H525 C465 0.960 . S
H526 C465 0.960 . S
H527 C465 0.961 . S
H528 C467 0.980 . S
H529 C466 0.961 . S
H530 C466 0.960 . S
H531 C466 0.959 . S
H532 C469 0.930 . S
H533 C473 0.931 . S
H534 C474 0.959 . S
H535 C474 0.961 . S
H536 C474 0.959 . S
H537 C475 0.960 . S
H538 C475 0.960 . S
H539 C475 0.960 . S
H540 C511 0.980 . S
H541 C477 0.930 . S
H542 C481 0.930 . S
H543 C482 0.961 . S
H544 C482 0.960 . S
H545 C482 0.958 . S
H546 C483 0.961 . S
H547 C483 0.960 . S
H548 C483 0.960 . S
H549 C485 0.980 . S
H550 C484 0.961 . S
H551 C484 0.961 . S
H552 C484 0.959 . S
H553 C487 0.932 . S
H554 C491 0.929 . S
H555 C492 0.961 . S
H556 C492 0.959 . S
H557 C492 0.959 1_565 S
H558 C493 0.960 . S
H559 C493 0.962 . S
H560 C493 0.961 . S
H561 C495 0.929 . S
H562 C498 0.930 . S
H563 C499 0.929 . S
H564 C502 0.930 . S
H565 C505 0.929 . S
H566 C506 0.930 . S
H567 C510 0.962 . S
H568 C510 0.959 . S
H569 C510 0.958 . S
C570 C571 1.560 . S
C570 H631 0.959 . S
C570 H632 0.959 . S
C570 H633 0.960 . S
C571 C570 1.560 . S
C571 O626 1.426 . S
C571 H630 0.980 . S
C572 C573 1.407 . S
C572 C577 1.418 . S
C572 O626 1.334 . S
C573 C572 1.407 . S
C573 C574 1.360 . S
C573 H634 0.929 . S
C574 C573 1.360 . S
C574 C575 1.401 . S
C574 C578 1.527 . S
C575 C574 1.401 . S
C575 C576 1.405 . S
C575 C608 1.587 . S
C576 C575 1.405 . S
C576 C577 1.332 . S
C576 C579 1.496 . S
C577 C572 1.418 . S
C577 C576 1.332 . S
C577 H635 0.929 . S
C578 C574 1.527 . S
C578 H636 0.959 . S
C578 H637 0.961 . S
C578 H638 0.961 . S
C579 C576 1.496 . S
C579 H639 0.960 . S
C579 H640 0.960 . S
C579 H641 0.961 . S
C580 C581 1.487 1_556 S
C580 H643 0.961 . S
C580 H644 0.960 . S
C580 H645 0.959 . S
C581 C580 1.487 1_554 S
C581 O629 1.485 . S
C581 H642 0.966 1_554 S
C582 C583 1.349 . S
C582 C587 1.367 . S
C582 O629 1.408 . S
C583 C582 1.349 . S
C583 C584 1.407 . S
C583 H646 0.930 . S
C584 C583 1.407 . S
C584 C585 1.449 . S
C584 C588 1.535 . S
C585 C584 1.449 . S
C585 C586 1.384 . S
C585 C610 1.553 . S
C586 C585 1.384 . S
C586 C587 1.364 . S
C586 C589 1.450 . S
C587 C582 1.367 . S
C587 C586 1.364 . S
C587 H647 0.931 . S
C588 C584 1.535 . S
C588 H648 0.959 . S
C588 H649 0.961 . S
C588 H650 0.959 . S
C589 C586 1.450 . S
C589 H651 0.960 . S
C589 H652 0.960 . S
C589 H653 0.960 . S
C590 C591 1.309 . S
C590 C595 1.304 . S
C590 O628 1.435 . S
C591 C590 1.309 . S
C591 C592 1.476 . S
C591 H655 0.930 . S
C592 C591 1.476 . S
C592 C593 1.400 . S
C592 C596 1.567 . S
C593 C592 1.400 . S
C593 C594 1.373 . S
C593 C615 1.432 . S
C594 C593 1.373 . S
C594 C595 1.339 . S
C594 C597 1.530 . S
C595 C590 1.304 . S
C595 C594 1.339 . S
C595 H656 0.930 . S
C596 C592 1.567 . S
C596 H657 0.961 . S
C596 H658 0.960 . S
C596 H659 0.958 . S
C597 C594 1.530 . S
C597 H660 0.961 . S
C597 H661 0.960 . S
C597 H662 0.960 . S
C598 C599 1.530 . S
C598 H664 0.961 . S
C598 H665 0.961 . S
C598 H666 0.959 . S
C599 C598 1.530 . S
C599 O627 1.412 . S
C599 H663 0.980 . S
C600 C601 1.288 . S
C600 C605 1.377 . S
C600 O627 1.393 . S
C601 C600 1.288 . S
C601 C602 1.369 . S
C601 H667 0.932 . S
C602 C601 1.369 . S
C602 C603 1.398 . S
C602 C606 1.527 . S
C603 C602 1.398 . S
C603 C604 1.380 . S
C603 C617 1.497 . S
C604 C603 1.380 . S
C604 C605 1.383 . S
C604 C607 1.603 . S
C605 C600 1.377 . S
C605 C604 1.383 . S
C605 H668 0.929 . S
C606 C602 1.527 . S
C606 H669 0.961 . S
C606 H670 0.959 . S
C606 H671 0.959 . S
C607 C604 1.603 . S
C607 H672 0.960 . S
C607 H673 0.962 . S
C607 H674 0.961 . S
C608 C575 1.587 . S
C608 C609 1.360 . S
C608 C621 1.412 . S
C609 C608 1.360 . S
C609 C610 1.365 . S
C609 H675 0.929 . S
C610 C585 1.553 . S
C610 C609 1.365 . S
C610 C611 1.404 . S
C611 C610 1.404 . S
C611 C612 1.395 . S
C611 C622 1.451 . S
C612 C611 1.395 . S
C612 C613 1.322 . S
C612 H676 0.930 . S
C613 C612 1.322 . S
C613 C614 1.459 . S
C613 H677 0.929 . S
C614 C613 1.459 . S
C614 C615 1.445 . S
C614 C623 1.395 . S
C615 C593 1.432 . S
C615 C614 1.445 . S
C615 C616 1.370 . S
C616 C615 1.370 . S
C616 C617 1.438 . S
C616 H678 0.930 . S
C617 C603 1.497 . S
C617 C616 1.438 . S
C617 C618 1.360 . S
C618 C617 1.360 . S
C618 C619 1.401 . S
C618 C623 1.446 . S
C619 C618 1.401 . S
C619 C620 1.347 . S
C619 H679 0.929 . S
C620 C619 1.347 . S
C620 C621 1.455 . S
C620 H680 0.930 . S
C621 C608 1.412 . S
C621 C620 1.455 . S
C621 C622 1.331 . S
C622 C611 1.451 . S
C622 C621 1.331 . S
C622 C623 1.497 . S
C623 C614 1.395 . S
C623 C618 1.446 . S
C623 C622 1.497 . S
C624 C625 1.582 . S
C624 H681 0.962 . S
C624 H682 0.959 . S
C624 H683 0.958 . S
C625 C624 1.582 . S
C625 O628 1.458 . S
C625 H654 0.980 . S
O626 C571 1.426 . S
O626 C572 1.334 . S
O627 C599 1.412 . S
O627 C600 1.393 . S
O628 C590 1.435 . S
O628 C625 1.458 . S
O629 C581 1.485 . S
O629 C582 1.408 . S
H630 C571 0.980 . S
H631 C570 0.959 . S
H632 C570 0.959 . S
H633 C570 0.960 . S
H634 C573 0.929 . S
H635 C577 0.929 . S
H636 C578 0.959 . S
H637 C578 0.961 . S
H638 C578 0.961 . S
H639 C579 0.960 . S
H640 C579 0.960 . S
H641 C579 0.961 . S
H642 C581 0.966 1_556 S
H643 C580 0.961 . S
H644 C580 0.960 . S
H645 C580 0.959 . S
H646 C583 0.930 . S
H647 C587 0.931 . S
H648 C588 0.959 . S
H649 C588 0.961 . S
H650 C588 0.959 . S
H651 C589 0.960 . S
H652 C589 0.960 . S
H653 C589 0.960 . S
H654 C625 0.980 . S
H655 C591 0.930 . S
H656 C595 0.930 . S
H657 C596 0.961 . S
H658 C596 0.960 . S
H659 C596 0.958 . S
H660 C597 0.961 . S
H661 C597 0.960 . S
H662 C597 0.960 . S
H663 C599 0.980 . S
H664 C598 0.961 . S
H665 C598 0.961 . S
H666 C598 0.959 . S
H667 C601 0.932 . S
H668 C605 0.929 . S
H669 C606 0.961 . S
H670 C606 0.959 . S
H671 C606 0.959 . S
H672 C607 0.960 . S
H673 C607 0.962 . S
H674 C607 0.961 . S
H675 C609 0.929 . S
H676 C612 0.930 . S
H677 C613 0.929 . S
H678 C616 0.930 . S
H679 C619 0.929 . S
H680 C620 0.930 . S
H681 C624 0.962 . S
H682 C624 0.959 . S
H683 C624 0.958 . S
C684 O685 1.160 . S
C684 O691 1.185 . S
O685 C684 1.160 . S
O686 Zn687 1.899 . S
O686 C694 1.284 . S
Zn687 O686 1.899 . S
Zn687 O688 2.032 . S
Zn687 O691 2.086 . S
Zn687 O696 1.977 . S
O688 Zn687 2.032 . S
O688 C692 1.278 . S
C689 O690 1.203 . S
C689 O696 1.267 . S
O690 C689 1.203 . S
O691 C684 1.185 . S
O691 Zn687 2.086 . S
C692 O688 1.278 . S
C692 O693 1.211 . S
O693 C692 1.211 . S
C694 O686 1.284 . S
C694 O695 1.273 . S
O695 C694 1.273 . S
O696 Zn687 1.977 . S
O696 C689 1.267 . S
C697 O698 1.160 . S
C697 O704 1.185 . S
O698 C697 1.160 . S
O699 Zn700 1.899 . S
O699 C707 1.284 . S
Zn700 O699 1.899 . S
Zn700 O701 2.032 . S
Zn700 O704 2.086 . S
Zn700 O709 1.977 . S
O701 Zn700 2.032 . S
O701 C705 1.278 . S
C702 O703 1.203 . S
C702 O709 1.267 . S
O703 C702 1.203 . S
O704 C697 1.185 . S
O704 Zn700 2.086 . S
C705 O701 1.278 . S
C705 O706 1.211 . S
O706 C705 1.211 . S
C707 O699 1.284 . S
C707 O708 1.273 . S
O708 C707 1.273 . S
O709 Zn700 1.977 . S
O709 C702 1.267 . S
C710 O711 1.160 . S
C710 O717 1.185 . S
O711 C710 1.160 . S
O712 Zn713 1.899 . S
O712 C720 1.284 . S
Zn713 O712 1.899 . S
Zn713 O714 2.032 . S
Zn713 O717 2.086 . S
Zn713 O722 1.977 . S
O714 Zn713 2.032 . S
O714 C718 1.278 . S
C715 O716 1.203 . S
C715 O722 1.267 . S
O716 C715 1.203 . S
O717 C710 1.185 . S
O717 Zn713 2.086 . S
C718 O714 1.278 . S
C718 O719 1.211 . S
O719 C718 1.211 . S
C720 O712 1.284 . S
C720 O721 1.273 . S
O721 C720 1.273 . S
O722 Zn713 1.977 . S
O722 C715 1.267 . S
C723 O724 1.160 . S
C723 O730 1.185 . S
O724 C723 1.160 . S
O725 Zn726 1.899 . S
O725 C733 1.284 . S
Zn726 O725 1.899 . S
Zn726 O727 2.032 . S
Zn726 O730 2.086 . S
Zn726 O735 1.977 . S
O727 Zn726 2.032 . S
O727 C731 1.278 . S
C728 O729 1.203 . S
C728 O735 1.267 . S
O729 C728 1.203 . S
O730 C723 1.185 . S
O730 Zn726 2.086 . S
C731 O727 1.278 . S
C731 O732 1.211 . S
O732 C731 1.211 . S
C733 O725 1.284 . S
C733 O734 1.273 . S
O734 C733 1.273 . S
O735 Zn726 1.977 . S
O735 C728 1.267 . S
C736 O737 1.160 . S
C736 O743 1.185 . S
O737 C736 1.160 . S
O738 Zn739 1.899 . S
O738 C746 1.284 . S
Zn739 O738 1.899 . S
Zn739 O740 2.032 . S
Zn739 O743 2.086 . S
Zn739 O748 1.977 . S
O740 Zn739 2.032 . S
O740 C744 1.278 . S
C741 O742 1.203 . S
C741 O748 1.267 . S
O742 C741 1.203 . S
O743 C736 1.185 . S
O743 Zn739 2.086 . S
C744 O740 1.278 . S
C744 O745 1.211 . S
O745 C744 1.211 . S
C746 O738 1.284 . S
C746 O747 1.273 . S
O747 C746 1.273 . S
O748 Zn739 1.977 . S
O748 C741 1.267 . S
C749 O750 1.160 . S
C749 O756 1.185 . S
O750 C749 1.160 . S
O751 Zn752 1.899 . S
O751 C759 1.284 . S
Zn752 O751 1.899 . S
Zn752 O753 2.032 . S
Zn752 O756 2.086 . S
Zn752 O761 1.977 . S
O753 Zn752 2.032 . S
O753 C757 1.278 . S
C754 O755 1.203 . S
C754 O761 1.267 . S
O755 C754 1.203 . S
O756 C749 1.185 . S
O756 Zn752 2.086 . S
C757 O753 1.278 . S
C757 O758 1.211 . S
O758 C757 1.211 . S
C759 O751 1.284 . S
C759 O760 1.273 . S
O760 C759 1.273 . S
O761 Zn752 1.977 . S
O761 C754 1.267 . S
C762 C763 1.363 . S
C762 C768 1.379 . S
C762 N770 1.356 . S
C763 C762 1.363 . S
C763 C769 1.363 . S
C764 C765 1.363 . S
C764 C769 1.379 . S
C764 N771 1.356 . S
C765 C764 1.363 . S
C765 C768 1.363 . S
N766 C768 1.356 . S
N766 H778 0.984 . S
N766 H779 0.985 . S
N767 C769 1.356 . S
N767 H772 0.984 . S
N767 H773 0.985 . S
C768 C762 1.379 . S
C768 C765 1.363 . S
C768 N766 1.356 . S
C769 C763 1.363 . S
C769 C764 1.379 . S
C769 N767 1.356 . S
N770 C762 1.356 . S
N770 H776 0.984 . S
N770 H777 0.984 . S
N771 C764 1.356 . S
N771 H774 0.984 . S
N771 H775 0.985 . S
H772 N767 0.984 . S
H773 N767 0.985 . S
H774 N771 0.984 . S
H775 N771 0.985 . S
H776 N770 0.984 . S
H777 N770 0.984 . S
H778 N766 0.984 . S
H779 N766 0.985 . S
C780 C781 1.363 . S
C780 C786 1.379 . S
C780 N788 1.356 . S
C781 C780 1.363 . S
C781 C787 1.363 . S
C782 C783 1.363 . S
C782 C787 1.379 . S
C782 N789 1.356 . S
C783 C782 1.363 . S
C783 C786 1.363 . S
N784 C786 1.356 . S
N784 H796 0.984 . S
N784 H797 0.985 . S
N785 C787 1.356 . S
N785 H790 0.984 . S
N785 H791 0.985 . S
C786 C780 1.379 . S
C786 C783 1.363 . S
C786 N784 1.356 . S
C787 C781 1.363 . S
C787 C782 1.379 . S
C787 N785 1.356 . S
N788 C780 1.356 . S
N788 H794 0.984 . S
N788 H795 0.984 . S
N789 C782 1.356 . S
N789 H792 0.984 . S
N789 H793 0.985 . S
H790 N785 0.984 . S
H791 N785 0.985 . S
H792 N789 0.984 . S
H793 N789 0.985 . S
H794 N788 0.984 . S
H795 N788 0.984 . S
H796 N784 0.984 . S
H797 N784 0.985 . S
C798 C799 1.363 . S
C798 C804 1.379 . S
C798 N806 1.356 . S
C799 C798 1.363 . S
C799 C805 1.363 . S
C800 C801 1.363 . S
C800 C805 1.379 . S
C800 N807 1.356 . S
C801 C800 1.363 . S
C801 C804 1.363 . S
N802 C804 1.356 . S
N802 H814 0.984 . S
N802 H815 0.985 . S
N803 C805 1.356 . S
N803 H808 0.984 . S
N803 H809 0.985 . S
C804 C798 1.379 . S
C804 C801 1.363 . S
C804 N802 1.356 . S
C805 C799 1.363 . S
C805 C800 1.379 . S
C805 N803 1.356 . S
N806 C798 1.356 . S
N806 H812 0.984 . S
N806 H813 0.984 . S
N807 C800 1.356 . S
N807 H810 0.984 . S
N807 H811 0.985 . S
H808 N803 0.984 . S
H809 N803 0.985 . S
H810 N807 0.984 . S
H811 N807 0.985 . S
H812 N806 0.984 . S
H813 N806 0.984 . S
H814 N802 0.984 . S
H815 N802 0.985 . S
C816 C817 1.363 . S
C816 C822 1.379 . S
C816 N824 1.356 . S
C817 C816 1.363 . S
C817 C823 1.363 . S
C818 C819 1.363 . S
C818 C823 1.379 . S
C818 N825 1.356 . S
C819 C818 1.363 . S
C819 C822 1.363 . S
N820 C822 1.356 . S
N820 H832 0.984 . S
N820 H833 0.985 . S
N821 C823 1.356 . S
N821 H826 0.984 . S
N821 H827 0.985 . S
C822 C816 1.379 . S
C822 C819 1.363 . S
C822 N820 1.356 . S
C823 C817 1.363 . S
C823 C818 1.379 . S
C823 N821 1.356 . S
N824 C816 1.356 . S
N824 H830 0.984 . S
N824 H831 0.984 . S
N825 C818 1.356 . S
N825 H828 0.984 . S
N825 H829 0.985 . S
H826 N821 0.984 . S
H827 N821 0.985 . S
H828 N825 0.984 . S
H829 N825 0.985 . S
H830 N824 0.984 . S
H831 N824 0.984 . S
H832 N820 0.984 . S
H833 N820 0.985 . S
C834 C835 1.363 . S
C834 C840 1.379 . S
C834 N842 1.356 . S
C835 C834 1.363 . S
C835 C841 1.363 . S
C836 C837 1.363 . S
C836 C841 1.379 . S
C836 N843 1.356 . S
C837 C836 1.363 . S
C837 C840 1.363 . S
N838 C840 1.356 . S
N838 H850 0.984 . S
N838 H851 0.985 . S
N839 C841 1.356 . S
N839 H844 0.984 . S
N839 H845 0.985 . S
C840 C834 1.379 . S
C840 C837 1.363 . S
C840 N838 1.356 . S
C841 C835 1.363 . S
C841 C836 1.379 . S
C841 N839 1.356 . S
N842 C834 1.356 . S
N842 H848 0.984 . S
N842 H849 0.984 . S
N843 C836 1.356 . S
N843 H846 0.984 . S
N843 H847 0.985 . S
H844 N839 0.984 . S
H845 N839 0.985 . S
H846 N843 0.984 . S
H847 N843 0.985 . S
H848 N842 0.984 . S
H849 N842 0.984 . S
H850 N838 0.984 . S
H851 N838 0.985 . S
C852 C853 1.363 . S
C852 C858 1.379 . S
C852 N860 1.356 . S
C853 C852 1.363 . S
C853 C859 1.363 . S
C854 C855 1.363 . S
C854 C859 1.379 . S
C854 N861 1.356 . S
C855 C854 1.363 . S
C855 C858 1.363 . S
N856 C858 1.356 . S
N856 H868 0.984 . S
N856 H869 0.985 . S
N857 C859 1.356 . S
N857 H862 0.984 . S
N857 H863 0.985 . S
C858 C852 1.379 . S
C858 C855 1.363 . S
C858 N856 1.356 . S
C859 C853 1.363 . S
C859 C854 1.379 . S
C859 N857 1.356 . S
N860 C852 1.356 . S
N860 H866 0.984 . S
N860 H867 0.984 . S
N861 C854 1.356 . S
N861 H864 0.984 . S
N861 H865 0.985 . S
H862 N857 0.984 . S
H863 N857 0.985 . S
H864 N861 0.984 . S
H865 N861 0.985 . S
H866 N860 0.984 . S
H867 N860 0.984 . S
H868 N856 0.984 . S
H869 N856 0.985 . S
C870 C871 1.363 . S
C870 C876 1.379 . S
C870 N878 1.356 . S
C871 C870 1.363 . S
C871 C877 1.363 . S
C872 C873 1.363 . S
C872 C877 1.379 . S
C872 N879 1.356 . S
C873 C872 1.363 . S
C873 C876 1.363 . S
N874 C876 1.356 . S
N874 H886 0.984 . S
N874 H887 0.985 . S
N875 C877 1.356 . S
N875 H880 0.984 . S
N875 H881 0.985 . S
C876 C870 1.379 . S
C876 C873 1.363 . S
C876 N874 1.356 . S
C877 C871 1.363 . S
C877 C872 1.379 . S
C877 N875 1.356 . S
N878 C870 1.356 . S
N878 H884 0.984 . S
N878 H885 0.984 . S
N879 C872 1.356 . S
N879 H882 0.984 . S
N879 H883 0.985 . S
H880 N875 0.984 . S
H881 N875 0.985 . S
H882 N879 0.984 . S
H883 N879 0.985 . S
H884 N878 0.984 . S
H885 N878 0.984 . S
H886 N874 0.984 . S
H887 N874 0.985 . S
C888 C889 1.363 . S
C888 C894 1.379 . S
C888 N896 1.356 . S
C889 C888 1.363 . S
C889 C895 1.363 . S
C890 C891 1.363 . S
C890 C895 1.379 . S
C890 N897 1.356 . S
C891 C890 1.363 . S
C891 C894 1.363 . S
N892 C894 1.356 . S
N892 H904 0.984 . S
N892 H905 0.985 . S
N893 C895 1.356 . S
N893 H898 0.984 . S
N893 H899 0.985 . S
C894 C888 1.379 . S
C894 C891 1.363 . S
C894 N892 1.356 . S
C895 C889 1.363 . S
C895 C890 1.379 . S
C895 N893 1.356 . S
N896 C888 1.356 . S
N896 H902 0.984 . S
N896 H903 0.984 . S
N897 C890 1.356 . S
N897 H900 0.984 . S
N897 H901 0.985 . S
H898 N893 0.984 . S
H899 N893 0.985 . S
H900 N897 0.984 . S
H901 N897 0.985 . S
H902 N896 0.984 . S
H903 N896 0.984 . S
H904 N892 0.984 . S
H905 N892 0.985 . S
C906 C907 1.363 . S
C906 C912 1.379 . S
C906 N914 1.356 . S
C907 C906 1.363 . S
C907 C913 1.363 . S
C908 C909 1.363 . S
C908 C913 1.379 . S
C908 N915 1.356 . S
C909 C908 1.363 . S
C909 C912 1.363 . S
N910 C912 1.356 . S
N910 H922 0.984 . S
N910 H923 0.985 . S
N911 C913 1.356 . S
N911 H916 0.984 . S
N911 H917 0.985 . S
C912 C906 1.379 . S
C912 C909 1.363 . S
C912 N910 1.356 . S
C913 C907 1.363 . S
C913 C908 1.379 . S
C913 N911 1.356 . S
N914 C906 1.356 . S
N914 H920 0.984 . S
N914 H921 0.984 . S
N915 C908 1.356 . S
N915 H918 0.984 . S
N915 H919 0.985 . S
H916 N911 0.984 . S
H917 N911 0.985 . S
H918 N915 0.984 . S
H919 N915 0.985 . S
H920 N914 0.984 . S
H921 N914 0.984 . S
H922 N910 0.984 . S
H923 N910 0.985 . S
C924 C925 1.363 . S
C924 C930 1.379 . S
C924 N932 1.356 . S
C925 C924 1.363 . S
C925 C931 1.363 . S
C926 C927 1.363 . S
C926 C931 1.379 . S
C926 N933 1.356 . S
C927 C926 1.363 . S
C927 C930 1.363 . S
N928 C930 1.356 . S
N928 H940 0.984 . S
N928 H941 0.985 . S
N929 C931 1.356 . S
N929 H934 0.984 . S
N929 H935 0.985 . S
C930 C924 1.379 . S
C930 C927 1.363 . S
C930 N928 1.356 . S
C931 C925 1.363 . S
C931 C926 1.379 . S
C931 N929 1.356 . S
N932 C924 1.356 . S
N932 H938 0.984 . S
N932 H939 0.984 . S
N933 C926 1.356 . S
N933 H936 0.984 . S
N933 H937 0.985 . S
H934 N929 0.984 . S
H935 N929 0.985 . S
H936 N933 0.984 . S
H937 N933 0.985 . S
H938 N932 0.984 . S
H939 N932 0.984 . S
H940 N928 0.984 . S
H941 N928 0.985 . S
C942 C943 1.363 . S
C942 C948 1.379 . S
C942 N950 1.356 . S
C943 C942 1.363 . S
C943 C949 1.363 . S
C944 C945 1.363 . S
C944 C949 1.379 . S
C944 N951 1.356 . S
C945 C944 1.363 . S
C945 C948 1.363 . S
N946 C948 1.356 . S
N946 H958 0.984 . S
N946 H959 0.985 . S
N947 C949 1.356 . S
N947 H952 0.984 . S
N947 H953 0.985 . S
C948 C942 1.379 . S
C948 C945 1.363 . S
C948 N946 1.356 . S
C949 C943 1.363 . S
C949 C944 1.379 . S
C949 N947 1.356 . S
N950 C942 1.356 . S
N950 H956 0.984 . S
N950 H957 0.984 . S
N951 C944 1.356 . S
N951 H954 0.984 . S
N951 H955 0.985 . S
H952 N947 0.984 . S
H953 N947 0.985 . S
H954 N951 0.984 . S
H955 N951 0.985 . S
H956 N950 0.984 . S
H957 N950 0.984 . S
H958 N946 0.984 . S
H959 N946 0.985 . S
C960 C961 1.363 . S
C960 C966 1.379 . S
C960 N968 1.356 . S
C961 C960 1.363 . S
C961 C967 1.363 . S
C962 C963 1.363 . S
C962 C967 1.379 . S
C962 N969 1.356 . S
C963 C962 1.363 . S
C963 C966 1.363 . S
N964 C966 1.356 . S
N964 H976 0.984 . S
N964 H977 0.985 . S
N965 C967 1.356 . S
N965 H970 0.984 . S
N965 H971 0.985 . S
C966 C960 1.379 . S
C966 C963 1.363 . S
C966 N964 1.356 . S
C967 C961 1.363 . S
C967 C962 1.379 . S
C967 N965 1.356 . S
N968 C960 1.356 . S
N968 H974 0.984 . S
N968 H975 0.984 . S
N969 C962 1.356 . S
N969 H972 0.984 . S
N969 H973 0.985 . S
H970 N965 0.984 . S
H971 N965 0.985 . S
H972 N969 0.984 . S
H973 N969 0.985 . S
H974 N968 0.984 . S
H975 N968 0.984 . S
H976 N964 0.984 . S
H977 N964 0.985 . S
C978 C979 1.363 . S
C978 C984 1.379 . S
C978 N986 1.356 . S
C979 C978 1.363 . S
C979 C985 1.363 . S
C980 C981 1.363 . S
C980 C985 1.379 . S
C980 N987 1.356 . S
C981 C980 1.363 . S
C981 C984 1.363 . S
N982 C984 1.356 . S
N982 H994 0.984 . S
N982 H995 0.985 . S
N983 C985 1.356 . S
N983 H988 0.984 . S
N983 H989 0.985 . S
C984 C978 1.379 . S
C984 C981 1.363 . S
C984 N982 1.356 . S
C985 C979 1.363 . S
C985 C980 1.379 . S
C985 N983 1.356 . S
N986 C978 1.356 . S
N986 H992 0.984 . S
N986 H993 0.984 . S
N987 C980 1.356 . S
N987 H990 0.984 . S
N987 H991 0.985 . S
H988 N983 0.984 . S
H989 N983 0.985 . S
H990 N987 0.984 . S
H991 N987 0.985 . S
H992 N986 0.984 . S
H993 N986 0.984 . S
H994 N982 0.984 . S
H995 N982 0.985 . S
C996 C997 1.363 . S
C996 C1002 1.379 . S
C996 N1004 1.356 . S
C997 C996 1.363 . S
C997 C1003 1.363 . S
C998 C999 1.363 . S
C998 C1003 1.379 . S
C998 N1005 1.356 . S
C999 C998 1.363 . S
C999 C1002 1.363 . S
N1000 C1002 1.356 . S
N1000 H1012 0.984 . S
N1000 H1013 0.985 . S
N1001 C1003 1.356 . S
N1001 H1006 0.984 . S
N1001 H1007 0.985 . S
C1002 C996 1.379 . S
C1002 C999 1.363 . S
C1002 N1000 1.356 . S
C1003 C997 1.363 . S
C1003 C998 1.379 . S
C1003 N1001 1.356 . S
N1004 C996 1.356 . S
N1004 H1010 0.984 . S
N1004 H1011 0.984 . S
N1005 C998 1.356 . S
N1005 H1008 0.984 . S
N1005 H1009 0.985 . S
H1006 N1001 0.984 . S
H1007 N1001 0.985 . S
H1008 N1005 0.984 . S
H1009 N1005 0.985 . S
H1010 N1004 0.984 . S
H1011 N1004 0.984 . S
H1012 N1000 0.984 . S
H1013 N1000 0.985 . S
C1014 C1015 1.363 . S
C1014 C1020 1.379 . S
C1014 N1022 1.356 . S
C1015 C1014 1.363 . S
C1015 C1021 1.363 . S
C1016 C1017 1.363 . S
C1016 C1021 1.379 . S
C1016 N1023 1.356 . S
C1017 C1016 1.363 . S
C1017 C1020 1.363 . S
N1018 C1020 1.356 . S
N1018 H1030 0.984 . S
N1018 H1031 0.985 . S
N1019 C1021 1.356 . S
N1019 H1024 0.984 . S
N1019 H1025 0.985 . S
C1020 C1014 1.379 . S
C1020 C1017 1.363 . S
C1020 N1018 1.356 . S
C1021 C1015 1.363 . S
C1021 C1016 1.379 . S
C1021 N1019 1.356 . S
N1022 C1014 1.356 . S
N1022 H1028 0.984 . S
N1022 H1029 0.984 . S
N1023 C1016 1.356 . S
N1023 H1026 0.984 . S
N1023 H1027 0.985 . S
H1024 N1019 0.984 . S
H1025 N1019 0.985 . S
H1026 N1023 0.984 . S
H1027 N1023 0.985 . S
H1028 N1022 0.984 . S
H1029 N1022 0.984 . S
H1030 N1018 0.984 . S
H1031 N1018 0.985 . S
C1032 C1033 1.363 . S
C1032 C1038 1.379 1_556 S
C1032 N1040 1.356 . S
C1033 C1032 1.363 . S
C1033 C1039 1.363 . S
C1034 C1035 1.363 1_556 S
C1034 C1039 1.379 . S
C1034 N1041 1.356 . S
C1035 C1034 1.363 1_554 S
C1035 C1038 1.363 . S
N1036 C1038 1.356 . S
N1036 H1048 0.984 . S
N1036 H1049 0.985 . S
N1037 C1039 1.356 . S
N1037 H1042 0.984 . S
N1037 H1043 0.985 . S
C1038 C1032 1.379 1_554 S
C1038 C1035 1.363 . S
C1038 N1036 1.356 . S
C1039 C1033 1.363 . S
C1039 C1034 1.379 . S
C1039 N1037 1.356 . S
N1040 C1032 1.356 . S
N1040 H1046 0.984 . S
N1040 H1047 0.984 . S
N1041 C1034 1.356 . S
N1041 H1044 0.984 1_556 S
N1041 H1045 0.985 . S
H1042 N1037 0.984 . S
H1043 N1037 0.985 . S
H1044 N1041 0.984 1_554 S
H1045 N1041 0.985 . S
H1046 N1040 0.984 . S
H1047 N1040 0.984 . S
H1048 N1036 0.984 . S
H1049 N1036 0.985 . S
C1050 C1051 1.363 . S
C1050 C1056 1.379 . S
C1050 N1058 1.356 . S
C1051 C1050 1.363 . S
C1051 C1057 1.363 . S
C1052 C1053 1.363 . S
C1052 C1057 1.379 . S
C1052 N1059 1.356 . S
C1053 C1052 1.363 . S
C1053 C1056 1.363 . S
N1054 C1056 1.356 . S
N1054 H1066 0.984 . S
N1054 H1067 0.985 . S
N1055 C1057 1.356 . S
N1055 H1060 0.984 . S
N1055 H1061 0.985 . S
C1056 C1050 1.379 . S
C1056 C1053 1.363 . S
C1056 N1054 1.356 . S
C1057 C1051 1.363 . S
C1057 C1052 1.379 . S
C1057 N1055 1.356 . S
N1058 C1050 1.356 . S
N1058 H1064 0.984 . S
N1058 H1065 0.984 . S
N1059 C1052 1.356 . S
N1059 H1062 0.984 . S
N1059 H1063 0.985 . S
H1060 N1055 0.984 . S
H1061 N1055 0.985 . S
H1062 N1059 0.984 . S
H1063 N1059 0.985 . S
H1064 N1058 0.984 . S
H1065 N1058 0.984 . S
H1066 N1054 0.984 . S
H1067 N1054 0.985 . S
C1068 C1069 1.363 . S
C1068 C1074 1.379 . S
C1068 N1076 1.356 . S
C1069 C1068 1.363 . S
C1069 C1075 1.363 . S
C1070 C1071 1.363 . S
C1070 C1075 1.379 . S
C1070 N1077 1.356 . S
C1071 C1070 1.363 . S
C1071 C1074 1.363 . S
N1072 C1074 1.356 . S
N1072 H1084 0.984 . S
N1072 H1085 0.985 . S
N1073 C1075 1.356 . S
N1073 H1078 0.984 . S
N1073 H1079 0.985 . S
C1074 C1068 1.379 . S
C1074 C1071 1.363 . S
C1074 N1072 1.356 . S
C1075 C1069 1.363 . S
C1075 C1070 1.379 . S
C1075 N1073 1.356 . S
N1076 C1068 1.356 . S
N1076 H1082 0.984 . S
N1076 H1083 0.984 . S
N1077 C1070 1.356 . S
N1077 H1080 0.984 . S
N1077 H1081 0.985 . S
H1078 N1073 0.984 . S
H1079 N1073 0.985 . S
H1080 N1077 0.984 . S
H1081 N1077 0.985 . S
H1082 N1076 0.984 . S
H1083 N1076 0.984 . S
H1084 N1072 0.984 . S
H1085 N1072 0.985 . S
C1086 C1087 1.363 . S
C1086 C1092 1.379 . S
C1086 N1094 1.356 . S
C1087 C1086 1.363 . S
C1087 C1093 1.363 . S
C1088 C1089 1.363 . S
C1088 C1093 1.379 . S
C1088 N1095 1.356 . S
C1089 C1088 1.363 . S
C1089 C1092 1.363 . S
N1090 C1092 1.356 . S
N1090 H1102 0.984 . S
N1090 H1103 0.985 . S
N1091 C1093 1.356 . S
N1091 H1096 0.984 . S
N1091 H1097 0.985 . S
C1092 C1086 1.379 . S
C1092 C1089 1.363 . S
C1092 N1090 1.356 . S
C1093 C1087 1.363 . S
C1093 C1088 1.379 . S
C1093 N1091 1.356 . S
N1094 C1086 1.356 . S
N1094 H1100 0.984 . S
N1094 H1101 0.984 . S
N1095 C1088 1.356 . S
N1095 H1098 0.984 . S
N1095 H1099 0.985 . S
H1096 N1091 0.984 . S
H1097 N1091 0.985 . S
H1098 N1095 0.984 . S
H1099 N1095 0.985 . S
H1100 N1094 0.984 . S
H1101 N1094 0.984 . S
H1102 N1090 0.984 . S
H1103 N1090 0.985 . S
C1104 C1105 1.363 . S
C1104 C1110 1.379 . S
C1104 N1112 1.356 . S
C1105 C1104 1.363 . S
C1105 C1111 1.363 . S
C1106 C1107 1.363 . S
C1106 C1111 1.379 . S
C1106 N1113 1.356 . S
C1107 C1106 1.363 . S
C1107 C1110 1.363 . S
N1108 C1110 1.356 . S
N1108 H1120 0.984 . S
N1108 H1121 0.985 . S
N1109 C1111 1.356 . S
N1109 H1114 0.984 . S
N1109 H1115 0.985 . S
C1110 C1104 1.379 . S
C1110 C1107 1.363 . S
C1110 N1108 1.356 . S
C1111 C1105 1.363 . S
C1111 C1106 1.379 . S
C1111 N1109 1.356 . S
N1112 C1104 1.356 . S
N1112 H1118 0.984 . S
N1112 H1119 0.984 . S
N1113 C1106 1.356 . S
N1113 H1116 0.984 . S
N1113 H1117 0.985 . S
H1114 N1109 0.984 . S
H1115 N1109 0.985 . S
H1116 N1113 0.984 . S
H1117 N1113 0.985 . S
H1118 N1112 0.984 . S
H1119 N1112 0.984 . S
H1120 N1108 0.984 . S
H1121 N1108 0.985 . S
C1122 C1123 1.363 . S
C1122 C1128 1.379 . S
C1122 N1130 1.356 . S
C1123 C1122 1.363 . S
C1123 C1129 1.363 . S
C1124 C1125 1.363 . S
C1124 C1129 1.379 . S
C1124 N1131 1.356 . S
C1125 C1124 1.363 . S
C1125 C1128 1.363 . S
N1126 C1128 1.356 . S
N1126 H1138 0.984 . S
N1126 H1139 0.985 . S
N1127 C1129 1.356 . S
N1127 H1132 0.984 . S
N1127 H1133 0.985 . S
C1128 C1122 1.379 . S
C1128 C1125 1.363 . S
C1128 N1126 1.356 . S
C1129 C1123 1.363 . S
C1129 C1124 1.379 . S
C1129 N1127 1.356 . S
N1130 C1122 1.356 . S
N1130 H1136 0.984 . S
N1130 H1137 0.984 . S
N1131 C1124 1.356 . S
N1131 H1134 0.984 . S
N1131 H1135 0.985 . S
H1132 N1127 0.984 . S
H1133 N1127 0.985 . S
H1134 N1131 0.984 . S
H1135 N1131 0.985 . S
H1136 N1130 0.984 . S
H1137 N1130 0.984 . S
H1138 N1126 0.984 . S
H1139 N1126 0.985 . S
C1140 C1141 1.363 . S
C1140 C1146 1.379 . S
C1140 N1148 1.356 . S
C1141 C1140 1.363 . S
C1141 C1147 1.363 . S
C1142 C1143 1.363 . S
C1142 C1147 1.379 . S
C1142 N1149 1.356 . S
C1143 C1142 1.363 . S
C1143 C1146 1.363 . S
N1144 C1146 1.356 . S
N1144 H1156 0.984 . S
N1144 H1157 0.985 . S
N1145 C1147 1.356 . S
N1145 H1150 0.984 . S
N1145 H1151 0.985 . S
C1146 C1140 1.379 . S
C1146 C1143 1.363 . S
C1146 N1144 1.356 . S
C1147 C1141 1.363 . S
C1147 C1142 1.379 . S
C1147 N1145 1.356 . S
N1148 C1140 1.356 . S
N1148 H1154 0.984 . S
N1148 H1155 0.984 . S
N1149 C1142 1.356 . S
N1149 H1152 0.984 . S
N1149 H1153 0.985 . S
H1150 N1145 0.984 . S
H1151 N1145 0.985 . S
H1152 N1149 0.984 . S
H1153 N1149 0.985 . S
H1154 N1148 0.984 . S
H1155 N1148 0.984 . S
H1156 N1144 0.984 . S
H1157 N1144 0.985 . S
C1158 C1159 1.363 . S
C1158 C1164 1.379 . S
C1158 N1166 1.356 . S
C1159 C1158 1.363 . S
C1159 C1165 1.363 . S
C1160 C1161 1.363 . S
C1160 C1165 1.379 . S
C1160 N1167 1.356 . S
C1161 C1160 1.363 . S
C1161 C1164 1.363 . S
N1162 C1164 1.356 . S
N1162 H1174 0.984 . S
N1162 H1175 0.985 . S
N1163 C1165 1.356 1_554 S
N1163 H1168 0.984 . S
N1163 H1169 0.985 . S
C1164 C1158 1.379 . S
C1164 C1161 1.363 . S
C1164 N1162 1.356 . S
C1165 C1159 1.363 . S
C1165 C1160 1.379 . S
C1165 N1163 1.356 1_556 S
N1166 C1158 1.356 . S
N1166 H1172 0.984 . S
N1166 H1173 0.984 1_556 S
N1167 C1160 1.356 . S
N1167 H1170 0.984 . S
N1167 H1171 0.985 . S
H1168 N1163 0.984 . S
H1169 N1163 0.985 . S
H1170 N1167 0.984 . S
H1171 N1167 0.985 . S
H1172 N1166 0.984 . S
H1173 N1166 0.984 1_554 S
H1174 N1162 0.984 . S
H1175 N1162 0.985 . S
C1176 C1177 1.363 . S
C1176 C1182 1.379 . S
C1176 N1184 1.356 . S
C1177 C1176 1.363 . S
C1177 C1183 1.363 . S
C1178 C1179 1.363 . S
C1178 C1183 1.379 . S
C1178 N1185 1.356 . S
C1179 C1178 1.363 . S
C1179 C1182 1.363 . S
N1180 C1182 1.356 . S
N1180 H1192 0.984 . S
N1180 H1193 0.985 . S
N1181 C1183 1.356 . S
N1181 H1186 0.984 . S
N1181 H1187 0.985 . S
C1182 C1176 1.379 . S
C1182 C1179 1.363 . S
C1182 N1180 1.356 . S
C1183 C1177 1.363 . S
C1183 C1178 1.379 . S
C1183 N1181 1.356 . S
N1184 C1176 1.356 . S
N1184 H1190 0.984 . S
N1184 H1191 0.984 . S
N1185 C1178 1.356 . S
N1185 H1188 0.984 . S
N1185 H1189 0.985 . S
H1186 N1181 0.984 . S
H1187 N1181 0.985 . S
H1188 N1185 0.984 . S
H1189 N1185 0.985 . S
H1190 N1184 0.984 . S
H1191 N1184 0.984 . S
H1192 N1180 0.984 . S
H1193 N1180 0.985 . S
C765 C759 1.858 . S
C763 C1 1.335 . S
C781 C169 1.693 . S
C783 C684 1.695 . S
C799 C283 1.824 . S
C801 C707 2.001 . S
C817 C397 1.263 . S
C819 C720 1.502 . S
C837 C723 1.596 . S
C835 C457 1.239 . S
C853 C571 1.135 . S
C855 C736 1.431 . S
C871 C115 1.224 . S
C873 C697 1.534 . S
C889 C229 1.240 . S
C891 C710 1.616 . S
C907 C343 1.074 . S
C909 C733 1.403 . S
C927 C746 1.893 . S
C925 C511 1.724 . S
C945 C749 1.662 . S
C943 C625 1.659 . S
C963 C694 1.972 . S
C961 C55 1.800 . S
C979 C29 1.154 . S
C981 C705 1.416 . S
C997 C125 0.897 . S
C999 C718 1.467 . S
C1017 C728 1.424 . S
C1015 C239 0.910 . S
C1033 C353 0.844 . S
C1035 C741 1.387 . S
C1053 C757 1.404 . S
C1051 C485 1.086 . S
C1071 C689 1.402 . S
C1069 C599 1.131 . S
C1089 C754 1.395 . S
C1087 C143 1.145 . S
C1105 C257 1.137 . S
C1107 C692 1.456 . S
C1125 C702 1.356 . S
C1123 C371 1.176 . S
C1141 C467 0.932 . S
C1143 C715 1.424 . S
C1159 C581 0.859 1_556 S
C1161 C731 1.413 . S
C1177 C11 0.908 . S
C1179 C744 1.482 . S
