# Generated by pormake.
# Topology ptr, (4,4)-cn, num edge types: 1
# Building blocks:
#     Node 0, Type 0, BuildingBlock: CEKHIL_clean_sbu_0, # of connection points: 4
#     Node 1, Type 0, BuildingBlock: CEKHIL_clean_sbu_0, # of connection points: 4
#     Node 2, Type 0, BuildingBlock: CEKHIL_clean_sbu_0, # of connection points: 4
#     Node 3, Type 0, BuildingBlock: CEKHIL_clean_sbu_0, # of connection points: 4
#     Node 4, Type 0, BuildingBlock: CEKHIL_clean_sbu_0, # of connection points: 4
#     Node 5, Type 0, BuildingBlock: CEKHIL_clean_sbu_0, # of connection points: 4
#     Node 6, Type 0, BuildingBlock: CEKHIL_clean_sbu_0, # of connection points: 4
#     Node 7, Type 0, BuildingBlock: CEKHIL_clean_sbu_0, # of connection points: 4
#     Node 8, Type 0, BuildingBlock: CEKHIL_clean_sbu_0, # of connection points: 4
#     Node 9, Type 0, BuildingBlock: CEKHIL_clean_sbu_0, # of connection points: 4
#     Node 10, Type 0, BuildingBlock: CEKHIL_clean_sbu_0, # of connection points: 4
#     Node 11, Type 0, BuildingBlock: CEKHIL_clean_sbu_0, # of connection points: 4
#     Node 12, Type 0, BuildingBlock: CEKHIL_clean_sbu_0, # of connection points: 4
#     Node 13, Type 0, BuildingBlock: CEKHIL_clean_sbu_0, # of connection points: 4
#     Node 14, Type 0, BuildingBlock: CEKHIL_clean_sbu_0, # of connection points: 4
#     Node 15, Type 0, BuildingBlock: CEKHIL_clean_sbu_0, # of connection points: 4
#     Node 16, Type 0, BuildingBlock: CEKHIL_clean_sbu_0, # of connection points: 4
#     Node 17, Type 0, BuildingBlock: CEKHIL_clean_sbu_0, # of connection points: 4
#     Node 18, Type 1, BuildingBlock: GIZVER_clean_linker_0, # of connection points: 4
#     Node 19, Type 1, BuildingBlock: GIZVER_clean_linker_0, # of connection points: 4
#     Node 20, Type 1, BuildingBlock: GIZVER_clean_linker_0, # of connection points: 4
#     Node 21, Type 1, BuildingBlock: GIZVER_clean_linker_0, # of connection points: 4
#     Node 22, Type 1, BuildingBlock: GIZVER_clean_linker_0, # of connection points: 4
#     Node 23, Type 1, BuildingBlock: GIZVER_clean_linker_0, # of connection points: 4
#     Node 24, Type 1, BuildingBlock: GIZVER_clean_linker_0, # of connection points: 4
#     Node 25, Type 1, BuildingBlock: GIZVER_clean_linker_0, # of connection points: 4
#     Node 26, Type 1, BuildingBlock: GIZVER_clean_linker_0, # of connection points: 4
#     Node 27, Type 1, BuildingBlock: GIZVER_clean_linker_0, # of connection points: 4
#     Node 28, Type 1, BuildingBlock: GIZVER_clean_linker_0, # of connection points: 4
#     Node 29, Type 1, BuildingBlock: GIZVER_clean_linker_0, # of connection points: 4
#     Node 30, Type 1, BuildingBlock: GIZVER_clean_linker_0, # of connection points: 4
#     Node 31, Type 1, BuildingBlock: GIZVER_clean_linker_0, # of connection points: 4
#     Node 32, Type 1, BuildingBlock: GIZVER_clean_linker_0, # of connection points: 4
#     Node 33, Type 1, BuildingBlock: GIZVER_clean_linker_0, # of connection points: 4
#     Node 34, Type 1, BuildingBlock: GIZVER_clean_linker_0, # of connection points: 4
#     Node 35, Type 1, BuildingBlock: GIZVER_clean_linker_0, # of connection points: 4
#     Edge 36, Type (0, 1), BuildingBlock: ZUJKAS_clean_linker_0, # of connection points: 2
#     Edge 37, Type (0, 1), BuildingBlock: ZUJKAS_clean_linker_0, # of connection points: 2
#     Edge 38, Type (0, 1), BuildingBlock: ZUJKAS_clean_linker_0, # of connection points: 2
#     Edge 39, Type (0, 1), BuildingBlock: ZUJKAS_clean_linker_0, # of connection points: 2
#     Edge 40, Type (0, 1), BuildingBlock: ZUJKAS_clean_linker_0, # of connection points: 2
#     Edge 41, Type (0, 1), BuildingBlock: ZUJKAS_clean_linker_0, # of connection points: 2
#     Edge 42, Type (0, 1), BuildingBlock: ZUJKAS_clean_linker_0, # of connection points: 2
#     Edge 43, Type (0, 1), BuildingBlock: ZUJKAS_clean_linker_0, # of connection points: 2
#     Edge 44, Type (0, 1), BuildingBlock: ZUJKAS_clean_linker_0, # of connection points: 2
#     Edge 45, Type (0, 1), BuildingBlock: ZUJKAS_clean_linker_0, # of connection points: 2
#     Edge 46, Type (0, 1), BuildingBlock: ZUJKAS_clean_linker_0, # of connection points: 2
#     Edge 47, Type (0, 1), BuildingBlock: ZUJKAS_clean_linker_0, # of connection points: 2
#     Edge 48, Type (0, 1), BuildingBlock: ZUJKAS_clean_linker_0, # of connection points: 2
#     Edge 49, Type (0, 1), BuildingBlock: ZUJKAS_clean_linker_0, # of connection points: 2
#     Edge 50, Type (0, 1), BuildingBlock: ZUJKAS_clean_linker_0, # of connection points: 2
#     Edge 51, Type (0, 1), BuildingBlock: ZUJKAS_clean_linker_0, # of connection points: 2
#     Edge 52, Type (0, 1), BuildingBlock: ZUJKAS_clean_linker_0, # of connection points: 2
#     Edge 53, Type (0, 1), BuildingBlock: ZUJKAS_clean_linker_0, # of connection points: 2
#     Edge 54, Type (0, 1), BuildingBlock: ZUJKAS_clean_linker_0, # of connection points: 2
#     Edge 55, Type (0, 1), BuildingBlock: ZUJKAS_clean_linker_0, # of connection points: 2
#     Edge 56, Type (0, 1), BuildingBlock: ZUJKAS_clean_linker_0, # of connection points: 2
#     Edge 57, Type (0, 1), BuildingBlock: ZUJKAS_clean_linker_0, # of connection points: 2
#     Edge 58, Type (0, 1), BuildingBlock: ZUJKAS_clean_linker_0, # of connection points: 2
#     Edge 59, Type (0, 1), BuildingBlock: ZUJKAS_clean_linker_0, # of connection points: 2
#     Edge 60, Type (0, 1), BuildingBlock: ZUJKAS_clean_linker_0, # of connection points: 2
#     Edge 61, Type (0, 1), BuildingBlock: ZUJKAS_clean_linker_0, # of connection points: 2
#     Edge 62, Type (0, 1), BuildingBlock: ZUJKAS_clean_linker_0, # of connection points: 2
#     Edge 63, Type (0, 1), BuildingBlock: ZUJKAS_clean_linker_0, # of connection points: 2
#     Edge 64, Type (0, 1), BuildingBlock: ZUJKAS_clean_linker_0, # of connection points: 2
#     Edge 65, Type (0, 1), BuildingBlock: ZUJKAS_clean_linker_0, # of connection points: 2
#     Edge 66, Type (0, 1), BuildingBlock: ZUJKAS_clean_linker_0, # of connection points: 2
#     Edge 67, Type (0, 1), BuildingBlock: ZUJKAS_clean_linker_0, # of connection points: 2
#     Edge 68, Type (0, 1), BuildingBlock: ZUJKAS_clean_linker_0, # of connection points: 2
#     Edge 69, Type (0, 1), BuildingBlock: ZUJKAS_clean_linker_0, # of connection points: 2
#     Edge 70, Type (0, 1), BuildingBlock: ZUJKAS_clean_linker_0, # of connection points: 2
#     Edge 71, Type (0, 1), BuildingBlock: ZUJKAS_clean_linker_0, # of connection points: 2
#     Edge 72, Type (0, 1), BuildingBlock: ZUJKAS_clean_linker_0, # of connection points: 2
#     Edge 73, Type (0, 1), BuildingBlock: ZUJKAS_clean_linker_0, # of connection points: 2
#     Edge 74, Type (0, 1), BuildingBlock: ZUJKAS_clean_linker_0, # of connection points: 2
#     Edge 75, Type (0, 1), BuildingBlock: ZUJKAS_clean_linker_0, # of connection points: 2
#     Edge 76, Type (0, 1), BuildingBlock: ZUJKAS_clean_linker_0, # of connection points: 2
#     Edge 77, Type (0, 1), BuildingBlock: ZUJKAS_clean_linker_0, # of connection points: 2
#     Edge 78, Type (0, 1), BuildingBlock: ZUJKAS_clean_linker_0, # of connection points: 2
#     Edge 79, Type (0, 1), BuildingBlock: ZUJKAS_clean_linker_0, # of connection points: 2
#     Edge 80, Type (0, 1), BuildingBlock: ZUJKAS_clean_linker_0, # of connection points: 2
#     Edge 81, Type (0, 1), BuildingBlock: ZUJKAS_clean_linker_0, # of connection points: 2
#     Edge 82, Type (0, 1), BuildingBlock: ZUJKAS_clean_linker_0, # of connection points: 2
#     Edge 83, Type (0, 1), BuildingBlock: ZUJKAS_clean_linker_0, # of connection points: 2
#     Edge 84, Type (0, 1), BuildingBlock: ZUJKAS_clean_linker_0, # of connection points: 2
#     Edge 85, Type (0, 1), BuildingBlock: ZUJKAS_clean_linker_0, # of connection points: 2
#     Edge 86, Type (0, 1), BuildingBlock: ZUJKAS_clean_linker_0, # of connection points: 2
#     Edge 87, Type (0, 1), BuildingBlock: ZUJKAS_clean_linker_0, # of connection points: 2
#     Edge 88, Type (0, 1), BuildingBlock: ZUJKAS_clean_linker_0, # of connection points: 2
#     Edge 89, Type (0, 1), BuildingBlock: ZUJKAS_clean_linker_0, # of connection points: 2
#     Edge 90, Type (0, 1), BuildingBlock: ZUJKAS_clean_linker_0, # of connection points: 2
#     Edge 91, Type (0, 1), BuildingBlock: ZUJKAS_clean_linker_0, # of connection points: 2
#     Edge 92, Type (0, 1), BuildingBlock: ZUJKAS_clean_linker_0, # of connection points: 2
#     Edge 93, Type (0, 1), BuildingBlock: ZUJKAS_clean_linker_0, # of connection points: 2
#     Edge 94, Type (0, 1), BuildingBlock: ZUJKAS_clean_linker_0, # of connection points: 2
#     Edge 95, Type (0, 1), BuildingBlock: ZUJKAS_clean_linker_0, # of connection points: 2
#     Edge 96, Type (0, 1), BuildingBlock: ZUJKAS_clean_linker_0, # of connection points: 2
#     Edge 97, Type (0, 1), BuildingBlock: ZUJKAS_clean_linker_0, # of connection points: 2
#     Edge 98, Type (0, 1), BuildingBlock: ZUJKAS_clean_linker_0, # of connection points: 2
#     Edge 99, Type (0, 1), BuildingBlock: ZUJKAS_clean_linker_0, # of connection points: 2
#     Edge 100, Type (0, 1), BuildingBlock: ZUJKAS_clean_linker_0, # of connection points: 2
#     Edge 101, Type (0, 1), BuildingBlock: ZUJKAS_clean_linker_0, # of connection points: 2
#     Edge 102, Type (0, 1), BuildingBlock: ZUJKAS_clean_linker_0, # of connection points: 2
#     Edge 103, Type (0, 1), BuildingBlock: ZUJKAS_clean_linker_0, # of connection points: 2
#     Edge 104, Type (0, 1), BuildingBlock: ZUJKAS_clean_linker_0, # of connection points: 2
#     Edge 105, Type (0, 1), BuildingBlock: ZUJKAS_clean_linker_0, # of connection points: 2
#     Edge 106, Type (0, 1), BuildingBlock: ZUJKAS_clean_linker_0, # of connection points: 2
#     Edge 107, Type (0, 1), BuildingBlock: ZUJKAS_clean_linker_0, # of connection points: 2
# Relax obj value: 0.048
# Max RMSD: 0.104
# Mean RMSD: 0.077
data_MOF--net-ptr--node1-CEKHIL_clean_sbu_0--node2-GIZVER_clean_linker_0--edge1-ZUJKAS_clean_linker_0
_symmetry_space_group_name_H-M    P1
_symmetry_Int_Tables_number       1
_symmetry_cell_setting            triclinic
loop_
_symmetry_equiv_pos_as_xyz
'x, y, z'
_cell_length_a     103.08076
_cell_length_b     102.0546
_cell_length_c     63.512084
_cell_angle_alpha  91.01433
_cell_angle_beta   89.803139
_cell_angle_gamma 120.84525
loop_
_atom_site_label
_atom_site_type_symbol
_atom_site_fract_x
_atom_site_fract_y
_atom_site_fract_z
_atom_type_partial_charge
Co0 Co 0.0067 0.35429 0.00825 0.0
O1 O 0.01343 0.3449 0.02813 0.0
O2 O 0.02855 0.36475 0.00871 0.0
C3 C 0.9887 0.33196 0.99337 0.0
O4 O 0.00433 0.36696 0.98577 0.0
Co5 Co 0.97389 0.34808 0.007 0.0
O6 O 0.97991 0.3592 0.9801 0.0
C7 C 0.99597 0.37006 0.03855 0.0
C8 C 0.0271 0.35479 0.02245 0.0
C9 C 0.99385 0.36757 0.97566 0.0
O10 O 0.00666 0.36849 0.03074 0.0
O11 O 0.98222 0.36223 0.03216 0.0
O12 O 1.00268 0.3382 0.98746 0.0
O13 O 0.9862 0.3389 0.00859 0.0
Co14 Co 0.65708 0.65408 0.01334 0.0
O15 O 0.67388 0.66252 0.99425 0.0
O16 O 0.66834 0.64378 0.01622 0.0
C17 C 0.66098 0.67681 0.02537 0.0
O18 O 0.64109 0.64258 0.03554 0.0
Co19 Co 0.63052 0.66005 0.00835 0.0
O20 O 0.62326 0.64902 0.03525 0.0
C21 C 0.63233 0.63751 0.98049 0.0
C22 C 0.67731 0.65297 0.00193 0.0
C23 C 0.62897 0.64161 0.04287 0.0
O24 O 0.64345 0.63872 0.99131 0.0
O25 O 0.62671 0.64604 0.98352 0.0
O26 O 0.6686 0.67108 0.0332 0.0
O27 O 0.65218 0.66925 0.00976 0.0
Co28 Co 0.35178 0.0028 0.0073 0.0
O29 O 0.34404 0.01171 0.98828 0.0
O30 O 0.36311 0.02486 0.01042 0.0
C31 C 0.32883 0.9845 0.01894 0.0
O32 O 0.36268 0.99779 0.02971 0.0
Co33 Co 0.34376 0.96912 0.00181 0.0
O34 O 0.35442 0.97268 0.02911 0.0
C35 C 0.36716 0.99302 0.97485 0.0
C36 C 0.3541 0.02489 0.99615 0.0
C37 C 0.36261 0.98605 0.03703 0.0
O38 O 0.36633 0.00352 0.98527 0.0
O39 O 0.3583 0.97874 0.978 0.0
O40 O 0.33535 0.99824 0.02697 0.0
O41 O 0.3358 0.98259 0.00338 0.0
Co42 Co 0.99764 0.65079 0.01124 0.0
O43 O 0.98926 0.65891 0.99206 0.0
O44 O 0.97573 0.63943 0.01292 0.0
C45 C 0.0156 0.67374 0.02447 0.0
O46 O 1.00236 0.63949 0.03338 0.0
Co47 Co 0.03096 0.65886 0.00662 0.0
O48 O 0.02725 0.64792 0.03348 0.0
C49 C 0.00744 0.63576 0.97808 0.0
C50 C 0.97605 0.64869 -0.00119 0.0
C51 C 0.01402 0.63958 0.04088 0.0
O52 O 0.99708 0.63634 0.98869 0.0
O53 O 0.02159 0.64472 0.98163 0.0
O54 O 1.0019 0.66709 0.03168 0.0
O55 O 0.01767 0.66692 0.00867 0.0
Co56 Co 0.35208 0.354 0.00701 0.0
O57 O 0.33573 0.34574 0.02686 0.0
O58 O 0.34145 0.36508 0.00599 0.0
C59 C 0.34686 0.33106 0.99373 0.0
O60 O 0.36769 0.36546 0.98422 0.0
Co61 Co 0.37782 0.34667 0.00919 0.0
O62 O 0.38471 0.35797 0.98251 0.0
C63 C 0.37768 0.36922 0.03903 0.0
C64 C 0.33261 0.35578 0.02028 0.0
C65 C 0.37935 0.36596 0.97589 0.0
O66 O 0.3665 0.36862 0.02913 0.0
O67 O 0.38282 0.36043 0.03462 0.0
O68 O 0.33957 0.33746 0.98698 0.0
O69 O 0.35622 0.33816 0.00901 0.0
Co70 Co 0.65572 0.00371 0.01096 0.0
O71 O 0.66443 0.99616 0.03062 0.0
O72 O 0.64498 0.98157 0.0097 0.0
C73 C 0.67811 0.02181 0.99758 0.0
O74 O 0.64394 0.00725 0.98819 0.0
Co75 Co 0.66279 0.03715 0.01377 0.0
O76 O 0.65214 0.03228 0.98625 0.0
C77 C 0.6405 0.01416 0.04277 0.0
C78 C 0.6546 0.98255 0.02378 0.0
C79 C 0.6439 0.01856 0.97955 0.0
O80 O 0.64146 0.00348 0.03311 0.0
O81 O 0.64892 0.02832 0.03849 0.0
O82 O 0.67169 0.00776 0.99082 0.0
O83 O 0.67142 0.02424 0.01306 0.0
Co84 Co 0.67405 0.68796 0.33845 0.0
O85 O 0.68125 0.67941 0.35896 0.0
O86 O 0.69592 0.69902 0.33888 0.0
C87 C 0.6565 0.66514 0.3242 0.0
O88 O 0.67114 0.69985 0.31527 0.0
Co89 Co 0.64087 0.68063 0.33729 0.0
O90 O 0.64664 0.69215 0.31074 0.0
C91 C 0.66248 0.703 0.36875 0.0
C92 C 0.69481 0.68953 0.35316 0.0
C93 C 0.66047 0.7004 0.3056 0.0
O94 O 0.67352 0.70224 0.36043 0.0
O95 O 0.64871 0.69447 0.36277 0.0
O96 O 0.6705 0.67169 0.31826 0.0
O97 O 0.65375 0.6721 0.33911 0.0
Co98 Co 0.32308 0.98727 0.34529 0.0
O99 O 0.34009 0.9959 0.32657 0.0
O100 O 0.33414 0.97671 0.34787 0.0
C101 C 0.32704 0.00991 0.35779 0.0
O102 O 0.30682 0.97553 0.36707 0.0
Co103 Co 0.29677 0.99355 0.34015 0.0
O104 O 0.28913 0.98215 0.36673 0.0
C105 C 0.29873 0.97138 0.31176 0.0
C106 C 0.34325 0.98603 0.33381 0.0
C107 C 0.29468 0.97457 0.37427 0.0
O108 O 0.30965 0.9723 0.32277 0.0
O109 O 0.29318 0.97995 0.31491 0.0
O110 O 0.33441 0.00395 0.36573 0.0
O111 O 0.31842 0.00262 0.34192 0.0
Co112 Co 0.02101 0.33736 0.33774 0.0
O113 O 0.01309 0.34656 0.31953 0.0
O114 O 0.03255 0.35939 0.34118 0.0
C115 C 0.99828 0.31903 0.3499 0.0
O116 O 0.0322 0.33216 0.35931 0.0
Co117 Co 0.01285 0.30373 0.33157 0.0
O118 O 0.02376 0.30703 0.35864 0.0
C119 C 0.03574 0.32766 0.30417 0.0
C120 C 0.02342 0.35965 0.32734 0.0
C121 C 0.03212 0.32039 0.36647 0.0
O122 O 0.03516 0.33815 0.315 0.0
O123 O 0.02689 0.31337 0.30725 0.0
O124 O 0.00501 0.33269 0.35823 0.0
O125 O 0.00489 0.3172 0.33381 0.0
Co126 Co 0.6644 0.98175 0.33801 0.0
O127 O 0.65486 0.98965 0.32056 0.0
O128 O 0.64273 0.97051 0.34247 0.0
C129 C 0.68336 0.00474 0.34967 0.0
O130 O 0.67042 0.9707 0.35878 0.0
Co131 Co 0.69718 0.98944 0.32835 0.0
O132 O 0.69478 0.97771 0.3541 0.0
C133 C 0.67179 0.96643 0.30227 0.0
C134 C 0.64213 0.97947 0.32867 0.0
C135 C 0.68222 0.97006 0.36362 0.0
O136 O 0.66225 0.96691 0.31492 0.0
O137 O 0.68609 0.97556 0.30377 0.0
O138 O 0.67019 0.99839 0.3586 0.0
O139 O 0.68421 0.99768 0.33318 0.0
Co140 Co 0.01875 0.68866 0.34322 0.0
O141 O 1.00176 0.68009 0.36198 0.0
O142 O 0.00786 0.69942 0.34092 0.0
C143 C 0.0144 0.66596 0.3302 0.0
O144 O 0.03499 0.70029 0.32125 0.0
Co145 Co 0.04471 0.68181 0.34803 0.0
O146 O 0.05209 0.69286 0.32122 0.0
C147 C 0.04325 0.70415 0.37679 0.0
C148 C 0.99862 0.68997 0.35475 0.0
C149 C 0.04685 0.70075 0.31376 0.0
O150 O 0.03234 0.70338 0.36594 0.0
O151 O 0.04868 0.69549 0.37327 0.0
O152 O 0.0071 0.67214 0.32272 0.0
O153 O 0.02312 0.67305 0.34609 0.0
Co154 Co 0.32166 0.33641 0.34423 0.0
O155 O 0.33038 0.32913 0.3643 0.0
O156 O 0.31079 0.31428 0.34376 0.0
C157 C 0.34402 0.3542 0.33036 0.0
O158 O 0.3098 0.33956 0.32119 0.0
Co159 Co 0.3289 0.36995 0.34559 0.0
O160 O 0.31784 0.3645 0.31835 0.0
C161 C 0.30686 0.34767 0.3755 0.0
C162 C 0.32043 0.31543 0.35793 0.0
C163 C 0.30959 0.35066 0.31215 0.0
O164 O 0.30758 0.33672 0.36624 0.0
O165 O 0.31536 0.36172 0.37071 0.0
O166 O 0.33754 0.34004 0.32409 0.0
O167 O 0.3374 0.35693 0.34565 0.0
Co168 Co 0.3412 0.0216 0.67561 0.0
O169 O 0.34859 0.01267 0.69521 0.0
O170 O 0.36308 0.03255 0.67546 0.0
C171 C 0.32327 0.99909 0.66103 0.0
O172 O 0.33806 0.03387 0.65331 0.0
Co173 Co 0.30808 0.01457 0.67636 0.0
O174 O 0.3136 0.0268 0.65042 0.0
C175 C 0.33025 0.03596 0.70796 0.0
C176 C 0.3621 0.02286 0.68932 0.0
C177 C 0.32732 0.03486 0.64465 0.0
O178 O 0.34113 0.03565 0.69837 0.0
O179 O 0.31633 0.02736 0.70272 0.0
O180 O 0.33719 0.00553 0.65473 0.0
O181 O 0.32088 0.0059 0.67653 0.0
Co182 Co 0.98927 0.32187 0.67559 0.0
O183 O 0.00603 0.33088 0.65637 0.0
O184 O 1.00067 0.31165 0.67728 0.0
C185 C 0.99307 0.34432 0.68878 0.0
O186 O 0.97353 0.30974 0.69783 0.0
Co187 Co 0.96243 0.32764 0.67308 0.0
O188 O 0.95566 0.31608 0.69961 0.0
C189 C 0.96426 0.30609 0.64299 0.0
C190 C 0.00959 0.32124 0.66334 0.0
C191 C 0.96155 0.30853 0.70609 0.0
O192 O 0.97553 0.30702 0.6531 0.0
O193 O 0.9586 0.31443 0.64737 0.0
O194 O 1.00084 0.33857 0.69597 0.0
O195 O 0.98411 0.33692 0.67326 0.0
Co196 Co 0.68592 0.67057 0.6714 0.0
O197 O 0.67784 0.679 0.6521 0.0
O198 O 0.69698 0.69265 0.67394 0.0
C199 C 0.66321 0.65216 0.68359 0.0
O200 O 0.69715 0.66616 0.69398 0.0
Co201 Co 0.67853 0.63705 0.66685 0.0
O202 O 0.68912 0.64111 0.69434 0.0
C203 C 0.70135 0.66073 0.63912 0.0
C204 C 0.68783 0.69234 0.65962 0.0
C205 C 0.69721 0.65463 0.70183 0.0
O206 O 0.70047 0.67124 0.64941 0.0
O207 O 0.69269 0.64646 0.64257 0.0
O208 O 0.66955 0.66601 0.69118 0.0
O209 O 0.67017 0.65018 0.66806 0.0
Co210 Co 0.33453 0.31951 0.67554 0.0
O211 O 0.32658 0.32764 0.65564 0.0
O212 O 0.31262 0.30804 0.67613 0.0
C213 C 0.35201 0.3425 0.6893 0.0
O214 O 0.33859 0.30812 0.69829 0.0
Co215 Co 0.36803 0.32778 0.67388 0.0
O216 O 0.36346 0.31683 0.70083 0.0
C217 C 0.3455 0.30427 0.64448 0.0
C218 C 0.31324 0.31739 0.66195 0.0
C219 C 0.34993 0.30826 0.70702 0.0
O220 O 0.33474 0.3052 0.6534 0.0
O221 O 0.35945 0.31302 0.6494 0.0
O222 O 0.33813 0.33572 0.69579 0.0
O223 O 0.35462 0.33574 0.67396 0.0
Co224 Co 0.68525 0.02149 0.67791 0.0
O225 O 0.66765 0.01317 0.6955 0.0
O226 O 0.67482 0.03262 0.67421 0.0
C227 C 0.68083 0.99863 0.66571 0.0
O228 O 0.70228 0.03299 0.65699 0.0
Co229 Co 0.71058 0.01419 0.68507 0.0
O230 O 0.71927 0.02549 0.65869 0.0
C231 C 0.7088 0.03684 0.71269 0.0
C232 C 0.66507 0.0233 0.68772 0.0
C233 C 0.71437 0.03347 0.65054 0.0
O234 O 0.69819 0.03611 0.70114 0.0
O235 O 0.71418 0.02807 0.70994 0.0
O236 O 0.67424 0.00513 0.65698 0.0
O237 O 0.68904 0.00556 0.68208 0.0
Co238 Co 0.98661 0.6694 0.67547 0.0
O239 O 0.99495 0.66196 0.69592 0.0
O240 O 0.97549 0.64727 0.67505 0.0
C241 C 0.00918 0.68699 0.66192 0.0
O242 O 0.97503 0.67269 0.65214 0.0
Co243 Co 0.99428 0.70309 0.67633 0.0
O244 O 0.98323 0.69765 0.64908 0.0
C245 C 0.97204 0.68111 0.70636 0.0
C246 C 0.98488 0.64829 0.68954 0.0
C247 C 0.97492 0.68379 0.64297 0.0
O248 O 0.9725 0.66999 0.69718 0.0
O249 O 0.98075 0.69511 0.7015 0.0
O250 O 1.00262 0.67281 0.65566 0.0
O251 O 1.00248 0.68983 0.67696 0.0
H252 H 0.15642 0.32928 0.17041 0.0
H253 H 0.15009 0.32583 0.10297 0.0
H254 H 0.1315 0.34729 0.14089 0.0
H255 H 0.15749 0.3089 0.14723 0.0
H256 H 0.15971 0.31156 0.11952 0.0
H257 H 0.17861 0.3238 0.17153 0.0
H258 H 0.22295 0.34884 0.14476 0.0
H259 H 0.18391 0.33163 0.10467 0.0
C260 C 0.15245 0.33197 0.15629 0.0
C261 C 0.14418 0.33942 0.15801 0.0
C262 C 0.15499 0.32734 0.13641 0.0
C263 C 0.14892 0.33003 0.11822 0.0
C264 C 0.14058 0.33736 0.11993 0.0
C265 C 0.13856 0.34226 0.13968 0.0
C266 C 0.16234 0.31778 0.13493 0.0
C267 C 0.1793 0.32726 0.1379 0.0
C268 C 0.1858 0.32899 0.15803 0.0
C269 C 0.20157 0.33696 0.16061 0.0
C270 C 0.21078 0.34333 0.14299 0.0
C271 C 0.20456 0.3414 0.1228 0.0
C272 C 0.18878 0.33344 0.1203 0.0
H273 H 0.69274 0.8371 0.17232 0.0
H274 H 0.68715 0.83078 0.10484 0.0
H275 H 0.67124 0.79202 0.14475 0.0
H276 H 0.70627 0.85896 0.14875 0.0
H277 H 0.7046 0.85618 0.12078 0.0
H278 H 0.68271 0.85531 0.16904 0.0
H279 H 0.65991 0.87445 0.13663 0.0
H280 H 0.68945 0.86386 0.10247 0.0
C281 C 0.68848 0.82964 0.15854 0.0
C282 C 0.6814 0.81378 0.1609 0.0
C283 C 0.69022 0.83587 0.13833 0.0
C284 C 0.68532 0.82608 0.12049 0.0
C285 C 0.67834 0.81025 0.12283 0.0
C286 C 0.67617 0.80423 0.14303 0.0
C287 C 0.69805 0.85294 0.13568 0.0
C288 C 0.6868 0.85827 0.13559 0.0
C289 C 0.67997 0.85884 0.15455 0.0
C290 C 0.67013 0.86453 0.15502 0.0
C291 C 0.66692 0.86936 0.13625 0.0
C292 C 0.67387 0.86926 0.11734 0.0
C293 C 0.68381 0.86366 0.117 0.0
H294 H 0.16309 0.81905 0.16968 0.0
H295 H 0.15509 0.81548 0.10274 0.0
H296 H 0.11774 0.79665 0.14552 0.0
H297 H 0.18183 0.81982 0.14318 0.0
H298 H 0.17934 0.82162 0.1159 0.0
H299 H 0.19112 0.84167 0.16762 0.0
H300 H 0.21492 0.88589 0.13976 0.0
H301 H 0.18646 0.84637 0.10119 0.0
C302 C 0.15536 0.81597 0.15648 0.0
C303 C 0.13971 0.80819 0.16008 0.0
C304 C 0.16102 0.81892 0.1358 0.0
C305 C 0.15084 0.81393 0.11869 0.0
C306 C 0.13517 0.80598 0.12209 0.0
C307 C 0.12979 0.80359 0.14281 0.0
C308 C 0.17761 0.82505 0.13192 0.0
C309 C 0.18698 0.84221 0.1344 0.0
C310 C 0.19338 0.84887 0.15413 0.0
C311 C 0.20372 0.86462 0.15602 0.0
C312 C 0.20683 0.87375 0.13832 0.0
C313 C 0.2009 0.86735 0.11844 0.0
C314 C 0.1908 0.85152 0.11658 0.0
H315 H 0.35521 0.19531 0.8488 0.0
H316 H 0.34741 0.19132 0.91577 0.0
H317 H 0.32974 0.21313 0.87786 0.0
H318 H 0.37087 0.19022 0.87205 0.0
H319 H 0.3684 0.18972 0.89985 0.0
H320 H 0.35203 0.16728 0.84949 0.0
H321 H 0.3379 0.12461 0.87915 0.0
H322 H 0.3558 0.16567 0.91688 0.0
C323 C 0.34966 0.19653 0.86257 0.0
C324 C 0.34187 0.20442 0.86105 0.0
C325 C 0.3515 0.19151 0.88231 0.0
C326 C 0.34529 0.19434 0.90041 0.0
C327 C 0.33725 0.202 0.89888 0.0
C328 C 0.33526 0.20654 0.87906 0.0
C329 C 0.36217 0.18556 0.88462 0.0
C330 C 0.35409 0.16833 0.88343 0.0
C331 C 0.34996 0.16077 0.86369 0.0
C332 C 0.34389 0.14495 0.86217 0.0
C333 C 0.34178 0.13669 0.88053 0.0
C334 C 0.34613 0.144 0.90032 0.0
C335 C 0.35213 0.15986 0.90172 0.0
H336 H 0.8605 0.17088 0.84135 0.0
H337 H 0.86362 0.17693 0.90896 0.0
H338 H 0.88343 0.21592 0.86894 0.0
H339 H 0.85492 0.14945 0.86465 0.0
H340 H 0.85591 0.15197 0.89264 0.0
H341 H 0.83355 0.15117 0.84493 0.0
H342 H 0.79131 0.12762 0.87774 0.0
H343 H 0.83264 0.14158 0.91101 0.0
C344 C 0.86384 0.17826 0.85521 0.0
C345 C 0.87191 0.19415 0.85286 0.0
C346 C 0.86036 0.17192 0.87545 0.0
C347 C 0.86563 0.18169 0.89334 0.0
C348 C 0.87385 0.1976 0.89102 0.0
C349 C 0.87659 0.20365 0.87079 0.0
C350 C 0.85211 0.1548 0.87792 0.0
C351 C 0.83517 0.14796 0.8782 0.0
C352 C 0.82736 0.14689 0.85945 0.0
C353 C 0.81154 0.13976 0.85923 0.0
C354 C 0.80358 0.1338 0.87794 0.0
C355 C 0.81107 0.13432 0.8965 0.0
C356 C 0.82688 0.14149 0.89671 0.0
H357 H 0.83824 0.65175 0.84133 0.0
H358 H 0.83748 0.64465 0.90809 0.0
H359 H 0.87965 0.66643 0.87503 0.0
H360 H 0.81517 0.6321 0.85902 0.0
H361 H 0.81463 0.63018 0.88684 0.0
H362 H 0.80883 0.64936 0.84273 0.0
H363 H 0.78831 0.66829 0.88207 0.0
H364 H 0.81142 0.64795 0.91031 0.0
C365 C 0.84421 0.65347 0.85608 0.0
C366 C 0.86001 0.66026 0.8561 0.0
C367 C 0.836 0.64805 0.87487 0.0
C368 C 0.84378 0.64946 0.89377 0.0
C369 C 0.85959 0.6563 0.89397 0.0
C370 C 0.86757 0.66196 0.87517 0.0
C371 C 0.81895 0.63874 0.87411 0.0
C372 C 0.81186 0.6485 0.87628 0.0
C373 C 0.80689 0.65261 0.85824 0.0
C374 C 0.79815 0.65953 0.86029 0.0
C375 C 0.79533 0.66325 0.88047 0.0
C376 C 0.79992 0.65903 0.89858 0.0
C377 C 0.80833 0.65178 0.89641 0.0
H378 H 0.82033 0.66144 0.5043 0.0
H379 H 0.81754 0.66346 0.4368 0.0
H380 H 0.80063 0.6855 0.47702 0.0
H381 H 0.82154 0.64247 0.48012 0.0
H382 H 0.82272 0.64503 0.45236 0.0
H383 H 0.84391 0.65824 0.50335 0.0
H384 H 0.88705 0.67749 0.47294 0.0
H385 H 0.84693 0.66148 0.43561 0.0
C386 C 0.81762 0.66574 0.49055 0.0
C387 C 0.81061 0.6744 0.49309 0.0
C388 C 0.82048 0.66201 0.47027 0.0
C389 C 0.81604 0.66687 0.45246 0.0
C390 C 0.80911 0.6756 0.45487 0.0
C391 C 0.80674 0.67951 0.47518 0.0
C392 C 0.82644 0.65128 0.46775 0.0
C393 C 0.84349 0.65954 0.46936 0.0
C394 C 0.85063 0.66194 0.48916 0.0
C395 C 0.8664 0.66863 0.49055 0.0
C396 C 0.87495 0.67294 0.47208 0.0
C397 C 0.86803 0.67032 0.45234 0.0
C398 C 0.85232 0.66381 0.45095 0.0
H399 H 0.3583 0.17035 0.50817 0.0
H400 H 0.34948 0.16071 0.44161 0.0
H401 H 0.33722 0.12424 0.48485 0.0
H402 H 0.37106 0.19085 0.48199 0.0
H403 H 0.36735 0.18669 0.45448 0.0
H404 H 0.34927 0.18879 0.50523 0.0
H405 H 0.32576 0.20812 0.47529 0.0
H406 H 0.35162 0.19434 0.43791 0.0
C407 C 0.35358 0.16224 0.49512 0.0
C408 C 0.34707 0.1466 0.49884 0.0
C409 C 0.35419 0.16741 0.47447 0.0
C410 C 0.34863 0.15676 0.45756 0.0
C411 C 0.34239 0.14111 0.46117 0.0
C412 C 0.34148 0.13621 0.48189 0.0
C413 C 0.3619 0.1843 0.47021 0.0
C414 C 0.35094 0.18999 0.47132 0.0
C415 C 0.34569 0.19179 0.49102 0.0
C416 C 0.33648 0.1982 0.49255 0.0
C417 C 0.33225 0.20247 0.47414 0.0
C418 C 0.33773 0.20123 0.45448 0.0
C419 C 0.34704 0.19493 0.45305 0.0
H420 H 0.83163 0.1513 0.50549 0.0
H421 H 0.82327 0.14113 0.43906 0.0
H422 H 0.78627 0.12422 0.48223 0.0
H423 H 0.85087 0.15108 0.47952 0.0
H424 H 0.84823 0.15197 0.45207 0.0
H425 H 0.85421 0.17321 0.50378 0.0
H426 H 0.88327 0.21657 0.47583 0.0
H427 H 0.86044 0.17641 0.43647 0.0
C428 C 0.82387 0.14683 0.49227 0.0
C429 C 0.80827 0.13834 0.49618 0.0
C430 C 0.82943 0.14854 0.47154 0.0
C431 C 0.81911 0.14102 0.45479 0.0
C432 C 0.80356 0.13194 0.45874 0.0
C433 C 0.79826 0.13145 0.47921 0.0
C434 C 0.84624 0.1556 0.46777 0.0
C435 C 0.85511 0.17287 0.46972 0.0
C436 C 0.85853 0.18 0.4898 0.0
C437 C 0.86842 0.19581 0.49206 0.0
C438 C 0.87491 0.20451 0.4741 0.0
C439 C 0.87223 0.1976 0.45414 0.0
C440 C 0.86207 0.18183 0.45185 0.0
H441 H 0.0259 0.52854 0.18001 0.0
H442 H 0.0233 0.532 0.24743 0.0
H443 H 1.00042 0.5471 0.20699 0.0
H444 H 0.04557 0.52951 0.20477 0.0
H445 H 0.04233 0.52792 0.23241 0.0
H446 H 0.0298 0.50678 0.18052 0.0
H447 H 0.01691 0.46384 0.20819 0.0
H448 H 0.02958 0.50309 0.24818 0.0
C449 C 0.0212 0.531 0.19374 0.0
C450 C 0.01199 0.53732 0.19115 0.0
C451 C 0.02502 0.52865 0.21406 0.0
C452 C 0.01976 0.533 0.23179 0.0
C453 C 0.01079 0.5396 0.22935 0.0
C454 C 0.00663 0.54125 0.20902 0.0
C455 C 0.03659 0.52387 0.21683 0.0
C456 C 0.02981 0.5068 0.21464 0.0
C457 C 0.02736 0.49994 0.19446 0.0
C458 C 0.02264 0.48446 0.19227 0.0
C459 C 0.02005 0.4757 0.21016 0.0
C460 C 0.02248 0.48223 0.23041 0.0
C461 C 0.02732 0.49784 0.2326 0.0
H462 H 0.52605 0.50368 0.17612 0.0
H463 H 0.53092 0.50803 0.24379 0.0
H464 H 0.54996 0.54801 0.20582 0.0
H465 H 0.52154 0.48175 0.19829 0.0
H466 H 0.52197 0.48338 0.22636 0.0
H467 H 0.50025 0.48243 0.17806 0.0
H468 H 0.45764 0.45932 0.20999 0.0
H469 H 0.4986 0.47396 0.24462 0.0
C470 C 0.52972 0.51071 0.19033 0.0
C471 C 0.53786 0.52666 0.18874 0.0
C472 C 0.52668 0.50385 0.21023 0.0
C473 C 0.5325 0.51316 0.22849 0.0
C474 C 0.54077 0.52912 0.2269 0.0
C475 C 0.54303 0.5357 0.20709 0.0
C476 C 0.51844 0.48666 0.21181 0.0
C477 C 0.50148 0.47975 0.21157 0.0
C478 C 0.49389 0.47837 0.1925 0.0
C479 C 0.47806 0.47118 0.19184 0.0
C480 C 0.46989 0.46556 0.21049 0.0
C481 C 0.47718 0.46641 0.22943 0.0
C482 C 0.49299 0.47358 0.23002 0.0
H483 H 0.50263 0.97791 0.17346 0.0
H484 H 0.50074 0.97055 0.2403 0.0
H485 H 0.54346 0.99256 0.20865 0.0
H486 H 0.47908 0.95801 0.19101 0.0
H487 H 0.47807 0.95684 0.21895 0.0
H488 H 0.47652 0.97761 0.17254 0.0
H489 H 0.45388 0.99661 0.20689 0.0
H490 H 0.47255 0.97364 0.24001 0.0
C491 C 0.50833 0.97953 0.18842 0.0
C492 C 0.52413 0.9864 0.189 0.0
C493 C 0.4998 0.97408 0.20697 0.0
C494 C 0.50726 0.97538 0.22614 0.0
C495 C 0.52306 0.98223 0.22686 0.0
C496 C 0.53136 0.988 0.20833 0.0
C497 C 0.48274 0.96503 0.20579 0.0
C498 C 0.47597 0.97514 0.20633 0.0
C499 C 0.47319 0.98034 0.18742 0.0
C500 C 0.46538 0.98828 0.18758 0.0
C501 C 0.46068 0.99129 0.20687 0.0
C502 C 0.46308 0.98599 0.22584 0.0
C503 C 0.47094 0.97808 0.22551 0.0
H504 H 0.49019 0.99917 0.84139 0.0
H505 H 0.48812 0.0022 0.77399 0.0
H506 H 0.46985 0.02275 0.81456 0.0
H507 H 0.49227 0.98098 0.81702 0.0
H508 H 0.49328 0.98362 0.78928 0.0
H509 H 0.51468 0.99658 0.83998 0.0
H510 H 0.55771 0.01702 0.80901 0.0
H511 H 0.51726 1.00081 0.77238 0.0
C512 C 0.48754 0.00363 0.82774 0.0
C513 C 0.48014 0.01188 0.83042 0.0
C514 C 0.49078 1.00035 0.80742 0.0
C515 C 0.48637 0.00531 0.78969 0.0
C516 C 0.47904 0.01365 0.79224 0.0
C517 C 0.47632 0.01714 0.81261 0.0
C518 C 0.49699 0.98984 0.80469 0.0
C519 C 0.51405 0.99836 0.80612 0.0
C520 C 0.52133 1.00059 0.82576 0.0
C521 C 0.53713 0.00749 0.82694 0.0
C522 C 0.54559 0.0123 0.80838 0.0
C523 C 0.53852 0.00987 0.78877 0.0
C524 C 0.52276 0.00302 0.78763 0.0
H525 H 0.02159 0.50019 0.83872 0.0
H526 H 0.0114 0.49519 0.77217 0.0
H527 H 1.00066 0.45592 0.80853 0.0
H528 H 0.03231 0.52251 0.81647 0.0
H529 H 0.02985 0.5203 0.78858 0.0
H530 H 0.01063 0.51986 0.8391 0.0
H531 H 0.98642 0.53889 0.81036 0.0
H532 H 0.01252 0.52599 0.77195 0.0
C533 C 0.01655 0.49295 0.82489 0.0
C534 C 0.01119 0.47723 0.82595 0.0
C535 C 0.01637 0.4995 0.80555 0.0
C536 C 0.01081 0.49016 0.7873 0.0
C537 C 0.00503 0.47442 0.78848 0.0
C538 C 0.00485 0.46807 0.80786 0.0
C539 C 0.02371 0.5166 0.80378 0.0
C540 C 0.01227 0.52164 0.80526 0.0
C541 C 0.00689 0.52295 0.82511 0.0
C542 C 0.99745 0.52907 0.82706 0.0
C543 C 0.99301 0.53338 0.80886 0.0
C544 C 0.99838 0.53237 0.78896 0.0
C545 C 0.00799 0.52641 0.7872 0.0
H546 H 0.49787 0.4859 0.83728 0.0
H547 H 0.49065 0.48306 0.77019 0.0
H548 H 0.45285 0.46489 0.81218 0.0
H549 H 0.51659 0.48622 0.811 0.0
H550 H 0.51454 0.48849 0.78374 0.0
H551 H 0.52621 0.50782 0.83592 0.0
H552 H 0.5516 0.55232 0.80915 0.0
H553 H 0.52253 0.51365 0.76958 0.0
C554 C 0.49033 0.48315 0.82393 0.0
C555 C 0.47465 0.47576 0.82718 0.0
C556 C 0.49623 0.48613 0.80337 0.0
C557 C 0.48625 0.48151 0.78605 0.0
C558 C 0.47055 0.47391 0.78912 0.0
C559 C 0.46496 0.47154 0.80972 0.0
C560 C 0.51278 0.49184 0.79978 0.0
C561 C 0.52257 0.50895 0.80267 0.0
C562 C 0.52887 0.51525 0.82259 0.0
C563 C 0.53959 0.53086 0.82489 0.0
C564 C 0.54322 0.54028 0.8074 0.0
C565 C 0.53732 0.53425 0.78736 0.0
C566 C 0.52685 0.51853 0.78509 0.0
H567 H 0.68869 0.86297 0.51335 0.0
H568 H 0.68735 0.86184 0.58103 0.0
H569 H 0.66379 0.8796 0.5477 0.0
H570 H 0.70704 0.85982 0.53398 0.0
H571 H 0.70578 0.85846 0.56189 0.0
H572 H 0.69027 0.83735 0.51097 0.0
H573 H 0.67506 0.79382 0.53851 0.0
H574 H 0.69154 0.83379 0.57843 0.0
C575 C 0.68407 0.86438 0.52799 0.0
C576 C 0.6757 0.87179 0.52809 0.0
C577 C 0.68785 0.86018 0.54705 0.0
C578 C 0.68334 0.86369 0.56626 0.0
C579 C 0.67471 0.87074 0.56643 0.0
C580 C 0.67019 0.87385 0.54735 0.0
C581 C 0.69891 0.85461 0.54715 0.0
C582 C 0.69113 0.83744 0.54502 0.0
C583 C 0.68773 0.83046 0.52488 0.0
C584 C 0.68172 0.8147 0.52265 0.0
C585 C 0.67897 0.80587 0.54055 0.0
C586 C 0.68258 0.81259 0.56076 0.0
C587 C 0.6885 0.82842 0.56294 0.0
H588 H 0.19221 0.83838 0.51077 0.0
H589 H 0.19644 0.84397 0.57841 0.0
H590 H 0.21597 0.88323 0.53893 0.0
H591 H 0.18724 0.81683 0.53382 0.0
H592 H 0.18788 0.81904 0.56183 0.0
H593 H 0.16602 0.81832 0.51359 0.0
H594 H 0.12344 0.79467 0.54548 0.0
H595 H 0.16441 0.80863 0.57973 0.0
C596 C 0.19578 0.84567 0.52474 0.0
C597 C 0.20396 0.86158 0.52259 0.0
C598 C 0.19255 0.83918 0.5449 0.0
C599 C 0.19821 0.84883 0.56288 0.0
C600 C 0.20655 0.86476 0.56075 0.0
C601 C 0.20901 0.87096 0.54064 0.0
C602 C 0.18426 0.82203 0.54709 0.0
C603 C 0.16729 0.81514 0.54696 0.0
C604 C 0.15969 0.81405 0.52801 0.0
C605 C 0.14386 0.80687 0.52743 0.0
C606 C 0.1357 0.8009 0.54599 0.0
C607 C 0.14298 0.80136 0.56475 0.0
C608 C 0.1588 0.80857 0.56529 0.0
H609 H 0.17183 0.31805 0.50907 0.0
H610 H 0.17358 0.31359 0.5762 0.0
H611 H 0.2145 0.33482 0.54023 0.0
H612 H 0.14964 0.29842 0.52921 0.0
H613 H 0.15004 0.29843 0.5572 0.0
H614 H 0.1436 0.31522 0.51032 0.0
H615 H 0.12224 0.33487 0.54624 0.0
H616 H 0.14568 0.31628 0.5782 0.0
C617 C 0.17833 0.32046 0.52349 0.0
C618 C 0.19414 0.32761 0.52253 0.0
C619 C 0.17082 0.31565 0.5429 0.0
C620 C 0.17932 0.31793 0.56138 0.0
C621 C 0.19514 0.32501 0.56055 0.0
C622 C 0.2024 0.33012 0.54116 0.0
C623 C 0.15378 0.30606 0.54339 0.0
C624 C 0.1464 0.31561 0.54414 0.0
C625 C 0.14148 0.31894 0.52536 0.0
C626 C 0.13253 0.32567 0.52613 0.0
C627 C 0.12944 0.33 0.54567 0.0
C628 C 0.13402 0.32661 0.56452 0.0
C629 C 0.14261 0.31949 0.5637 0.0
H630 H 0.97685 0.37832 0.05584 0.0
H631 H 0.98306 0.39968 0.07957 0.0
H632 H 0.02949 0.41097 0.08181 0.0
H633 H 0.02347 0.38969 0.05741 0.0
H634 H 0.99403 0.40533 0.11923 0.0
H635 H 0.03403 0.45169 0.06695 0.0
H636 H 0.02197 0.43228 0.0576 0.0
H637 H 0.03891 0.4375 0.0722 0.0
C638 C 0.98841 0.38525 0.06135 0.0
C639 C 0.99969 0.38227 0.05457 0.0
C640 C 0.99194 0.39753 0.07493 0.0
C641 C 0.00679 0.40711 0.08213 0.0
C642 C 0.01803 0.40395 0.07599 0.0
H643 H 0.0442 0.48051 0.17448 0.0
H644 H 0.04071 0.46285 0.14538 0.0
C645 C 0.01453 0.39168 0.06222 0.0
C646 C 0.01021 0.42014 0.09645 0.0
H647 H 0.03114 0.45903 0.10151 0.0
C648 C 1.00211 0.41707 0.11531 0.0
C649 C 0.02074 0.43546 0.09127 0.0
C650 C 0.02933 0.4395 0.07083 0.0
C651 C 0.00432 0.42885 0.12924 0.0
C652 C 0.01478 0.44416 0.12404 0.0
C653 C 0.02302 0.44728 0.1053 0.0
C654 C 0.01777 0.45692 0.13854 0.0
C655 C 0.99565 0.4248 0.14964 0.0
C656 C 0.00626 0.45995 0.1436 0.0
C657 C 0.00827 0.47006 0.16016 0.0
C658 C 0.02186 0.47734 0.17161 0.0
C659 C 0.03373 0.47515 0.16555 0.0
C660 C 0.03172 0.46505 0.14905 0.0
H661 H 0.99051 0.41251 0.15323 0.0
H662 H 1.00311 0.43168 0.16299 0.0
H663 H 0.98641 0.42732 0.14844 0.0
H664 H 0.99546 0.45387 0.13549 0.0
H665 H 0.99893 0.47146 0.16484 0.0
H666 H 0.6335 0.61897 0.05672 0.0
H667 H 0.61679 0.59754 0.07893 0.0
H668 H 0.58805 0.6164 0.08782 0.0
H669 H 0.60448 0.6377 0.06526 0.0
H670 H 0.6075 0.5955 0.11946 0.0
H671 H 0.5583 0.57385 0.06548 0.0
H672 H 0.57713 0.58834 0.05797 0.0
H673 H 0.56568 0.59333 0.07369 0.0
C674 C 0.62373 0.61869 0.06357 0.0
C675 C 0.62026 0.63001 0.05899 0.0
C676 C 0.61414 0.60637 0.0762 0.0
C677 C 0.60094 0.60514 0.08451 0.0
C678 C 0.59792 0.61686 0.081 0.0
H679 H 0.53425 0.5494 0.17381 0.0
H680 H 0.54876 0.56687 0.14554 0.0
C681 C 0.60742 0.62912 0.06826 0.0
C682 C 0.59032 0.59159 0.09683 0.0
H683 H 0.55341 0.56277 0.09956 0.0
C684 C 0.59572 0.58824 0.11498 0.0
C685 C 0.57496 0.58205 0.09086 0.0
C686 C 0.56869 0.58446 0.07082 0.0
C687 C 0.58605 0.57598 0.12777 0.0
C688 C 0.57063 0.56674 0.12212 0.0
C689 C 0.56526 0.56988 0.10378 0.0
C690 C 0.55978 0.55453 0.13603 0.0
C691 C 0.59227 0.57329 0.14764 0.0
C692 C 0.56061 0.5414 0.13923 0.0
C693 C 0.5522 0.53132 0.15523 0.0
C694 C 0.54296 0.53434 0.16827 0.0
C695 C 0.54126 0.54683 0.1639 0.0
C696 C 0.54957 0.55682 0.14784 0.0
H697 H 0.6039 0.58279 0.15134 0.0
H698 H 0.58487 0.57186 0.16122 0.0
H699 H 0.59259 0.56262 0.14575 0.0
H700 H 0.56836 0.53941 0.13012 0.0
H701 H 0.55383 0.52187 0.15846 0.0
H702 H 0.3666 0.96425 0.05523 0.0
H703 H 0.38664 0.96809 0.07938 0.0
H704 H 0.40392 0.01652 0.08095 0.0
H705 H 0.38388 0.01287 0.0566 0.0
H706 H 0.41948 0.98875 0.07012 0.0
H707 H 0.40012 0.00297 0.14449 0.0
H708 H 0.38726 0.99251 0.12302 0.0
H709 H 0.40033 0.0126 0.12088 0.0
C710 C 0.3745 0.97573 0.06085 0.0
C711 C 0.37359 0.98826 0.05386 0.0
C712 C 0.386 0.97789 0.07462 0.0
C713 C 0.39675 0.99257 0.08189 0.0
C714 C 0.39566 0.00508 0.07558 0.0
H715 H 0.46671 0.01473 0.17657 0.0
H716 H 0.45236 0.01782 0.14842 0.0
C717 C 0.38417 0.00295 0.06168 0.0
C718 C 0.40938 0.99467 0.09544 0.0
H719 H 0.42232 0.00191 0.14615 0.0
C720 C 0.4202 0.99175 0.08672 0.0
C721 C 0.41035 0.99873 0.11699 0.0
C722 C 0.3989 1.00184 0.12707 0.0
C723 C 0.43185 0.99251 0.0991 0.0
C724 C 0.43244 0.9959 0.12091 0.0
C725 C 0.42188 0.99931 0.12945 0.0
C726 C 0.44319 0.99497 0.1355 0.0
C727 C 0.4434 0.98973 0.08865 0.0
C728 C 0.44321 0.98126 0.13722 0.0
C729 C 0.45154 0.97955 0.15314 0.0
C730 C 0.45982 0.99142 0.16785 0.0
C731 C 0.46044 0.0054 0.16543 0.0
C732 C 0.4522 0.00715 0.14941 0.0
H733 H 0.44462 0.99266 0.07172 0.0
H734 H 0.45463 0.99647 0.09644 0.0
H735 H 0.43964 0.97743 0.08962 0.0
H736 H 0.43609 0.97156 0.12705 0.0
H737 H 0.45061 0.96855 0.15486 0.0
H738 H 0.37127 0.97422 0.94811 0.0
H739 H 0.39304 0.98066 0.92617 0.0
H740 H 0.41325 0.02805 0.94467 0.0
H741 H 0.39148 0.02168 0.96719 0.0
H742 H 0.40491 1.00009 0.89278 0.0
H743 H 0.44655 0.01873 0.95857 0.0
H744 H 0.42641 0.00845 0.96288 0.0
H745 H 0.43613 0.02841 0.95696 0.0
C746 C 0.38027 0.98606 0.94752 0.0
C747 C 0.37963 0.99741 0.95961 0.0
C748 C 0.39274 0.98971 0.93493 0.0
C749 C 0.4049 0.00477 0.9341 0.0
C750 C 0.40412 0.01628 0.94546 0.0
H751 H 0.48121 0.03686 0.84883 0.0
H752 H 0.46451 0.0365 0.8767 0.0
C753 C 0.3916 0.01264 0.95815 0.0
C754 C 0.41826 0.00817 0.92121 0.0
H755 H 0.45578 0.01966 0.92415 0.0
C756 C 0.41604 0.00447 0.89963 0.0
C757 C 0.43277 0.01381 0.93022 0.0
C758 C 0.43567 0.01748 0.95345 0.0
C759 C 0.42787 0.00606 0.88687 0.0
C760 C 0.44227 0.01144 0.89593 0.0
C761 C 0.44467 0.0155 0.91737 0.0
C762 C 0.45474 0.01253 0.88306 0.0
C763 C 0.42489 1.00177 0.86378 0.0
C764 C 0.45521 0.99931 0.87822 0.0
C765 C 0.46474 0.99948 0.86236 0.0
C766 C 0.47383 0.01286 0.85105 0.0
C767 C 0.47427 0.02639 0.85726 0.0
C768 C 0.46477 0.02621 0.87316 0.0
H769 H 0.41348 0.99917 0.85877 0.0
H770 H 0.4335 0.01119 0.85408 0.0
H771 H 0.42581 0.99156 0.86055 0.0
H772 H 0.44747 0.98864 0.8857 0.0
H773 H 0.464 0.98885 0.85777 0.0
H774 H 0.01923 0.39581 0.97632 0.0
H775 H 0.02447 0.41761 0.95484 0.0
H776 H 0.98384 0.389 0.91868 0.0
H777 H 0.97809 0.36741 0.94103 0.0
H778 H 0.03025 0.42508 0.91674 0.0
H779 H 0.97635 0.42222 0.93343 0.0
H780 H 0.98199 0.41055 0.94699 0.0
H781 H 0.97273 0.40459 0.92162 0.0
C782 C 0.01148 0.39414 0.96366 0.0
C783 C 0.99819 0.37993 0.96043 0.0
C784 C 0.01445 0.40665 0.95144 0.0
C785 C 0.00431 0.40514 0.93553 0.0
C786 C 0.99152 0.39067 0.93142 0.0
H787 H 0.02203 0.45802 0.82697 0.0
H788 H 0.0219 0.44298 0.85613 0.0
C789 C 0.98834 0.37826 0.94399 0.0
C790 C 0.00718 0.41863 0.92311 0.0
H791 H 0.98989 0.4367 0.90305 0.0
C792 C 0.02146 0.42772 0.91402 0.0
C793 C 0.99598 0.42258 0.9201 0.0
C794 C 0.98099 0.41457 0.93129 0.0
C795 C 0.02453 0.43999 0.90107 0.0
C796 C 0.01282 0.44287 0.89626 0.0
C797 C 0.99884 0.43439 0.90636 0.0
C798 C 0.01424 0.45337 0.87921 0.0
C799 C 0.04035 0.4497 0.89272 0.0
C800 C 0.00971 0.46415 0.88217 0.0
C801 C 0.00932 0.47255 0.86513 0.0
C802 C 0.01338 0.47019 0.84489 0.0
C803 C 0.01857 0.45993 0.84229 0.0
C804 C 0.01877 0.45147 0.85911 0.0
H805 H 0.04882 0.45048 0.90423 0.0
H806 H 0.04156 0.44431 0.8781 0.0
H807 H 0.043 0.46143 0.88919 0.0
H808 H 0.00607 0.46577 0.89752 0.0
H809 H 0.00526 0.48037 0.8676 0.0
H810 H 0.61776 0.63684 0.94451 0.0
H811 H 0.60134 0.61456 0.92243 0.0
H812 H 0.61164 0.58661 0.96099 0.0
H813 H 0.6287 0.60911 0.98259 0.0
H814 H 0.60974 0.57803 0.92171 0.0
H815 H 0.55972 0.58255 0.93861 0.0
H816 H 0.5742 0.59997 0.92745 0.0
H817 H 0.57738 0.59401 0.95252 0.0
C818 C 0.61669 0.62598 0.94809 0.0
C819 C 0.62442 0.62467 0.96531 0.0
C820 C 0.60714 0.61321 0.93565 0.0
C821 C 0.60477 0.59878 0.94056 0.0
C822 C 0.61311 0.59758 0.95709 0.0
H823 H 0.5294 0.52649 0.86584 0.0
H824 H 0.54438 0.53933 0.89772 0.0
C825 C 0.62293 0.61046 0.96932 0.0
C826 C 0.59365 0.58507 0.92827 0.0
H827 H 0.55824 0.5682 0.9069 0.0
C828 C 0.59839 0.57572 0.91878 0.0
C829 C 0.5786 0.58158 0.92508 0.0
C830 C 0.57214 0.58996 0.9367 0.0
C831 C 0.5889 0.56379 0.90483 0.0
C832 C 0.57454 0.56155 0.89964 0.0
C833 C 0.56935 0.57007 0.91049 0.0
C834 C 0.56564 0.55203 0.88124 0.0
C835 C 0.59453 0.55391 0.89557 0.0
C836 C 0.57258 0.55478 0.86148 0.0
C837 C 0.56415 0.54737 0.84351 0.0
C838 C 0.54844 0.53733 0.84466 0.0
C839 C 0.54148 0.53418 0.86448 0.0
C840 C 0.55002 0.54153 0.88265 0.0
H841 H 0.60177 0.55246 0.9071 0.0
H842 H 0.58508 0.54245 0.89072 0.0
H843 H 0.60159 0.55956 0.88162 0.0
H844 H 0.58448 0.56312 0.85977 0.0
H845 H 0.56993 0.54981 0.82854 0.0
H846 H 0.97986 0.60948 0.97305 0.0
H847 H 0.97367 0.5877 0.9495 0.0
H848 H 0.01863 0.61208 0.92393 0.0
H849 H 0.02498 0.63383 0.9473 0.0
H850 H 0.9923 0.59599 0.89365 0.0
H851 H 0.99393 0.56039 0.95803 0.0
H852 H 0.98318 0.56967 0.96188 0.0
H853 H 1.00337 0.58094 0.96042 0.0
C854 C 0.98837 0.6103 0.96221 0.0
C855 C 1.00295 0.62337 0.96214 0.0
C856 C 0.98483 0.59781 0.9489 0.0
C857 C 0.99577 0.59827 0.93525 0.0
C858 C 0.01009 0.61152 0.93449 0.0
H859 H 0.0172 0.54362 0.8596 0.0
H860 H 0.01404 0.55771 0.88868 0.0
C861 C 0.01368 0.62392 0.94786 0.0
C862 C 0.99261 0.58491 0.92197 0.0
H863 H 0.99072 0.55052 0.92339 0.0
C864 C 0.99169 0.58592 0.90012 0.0
C865 C 0.99199 0.57192 0.93058 0.0
C866 C 0.99322 0.57056 0.954 0.0
C867 C 0.99053 0.57439 0.88653 0.0
C868 C 0.99022 0.56152 0.89509 0.0
C869 C 0.99081 0.56035 0.91698 0.0
C870 C 0.99073 0.55002 0.88121 0.0
C871 C 0.99032 0.57634 0.86304 0.0
C872 C 0.97838 0.54035 0.86823 0.0
C873 C 0.98011 0.53217 0.85171 0.0
C874 C 0.99424 0.53363 0.84787 0.0
C875 C 0.00615 0.54215 0.86221 0.0
C876 C 0.00439 0.55029 0.87878 0.0
H877 H 0.99262 0.58788 0.85897 0.0
H878 H 0.99885 0.5744 0.8552 0.0
H879 H 0.97905 0.56777 0.85658 0.0
H880 H 0.96771 0.53993 0.87004 0.0
H881 H 0.97069 0.52554 0.84104 0.0
H882 H 0.37394 0.3877 0.9603 0.0
H883 H 0.39022 0.40874 0.93712 0.0
H884 H 0.42069 0.39169 0.93177 0.0
H885 H 0.40461 0.3707 0.95491 0.0
H886 H 0.43469 0.42348 0.94345 0.0
H887 H 0.39743 0.40814 0.87291 0.0
H888 H 0.3892 0.40848 0.89777 0.0
H889 H 0.39445 0.39445 0.89281 0.0
C890 C 0.38396 0.38825 0.95392 0.0
C891 C 0.38794 0.37747 0.95955 0.0
C892 C 0.39326 0.4003 0.94067 0.0
C893 C 0.40665 0.40176 0.93273 0.0
C894 C 0.41042 0.39079 0.93779 0.0
H895 H 0.48117 0.45924 0.8538 0.0
H896 H 0.46532 0.44332 0.88239 0.0
C897 C 0.40115 0.37875 0.95097 0.0
C898 C 0.41713 0.415 0.91985 0.0
H899 H 0.42081 0.43119 0.87199 0.0
C900 C 0.43166 0.42522 0.92784 0.0
C901 C 0.41309 0.41731 0.89961 0.0
C902 C 0.39774 0.40649 0.89011 0.0
C903 C 0.44232 0.43763 0.91604 0.0
C904 C 0.43845 0.43967 0.89552 0.0
C905 C 0.42378 0.42965 0.88775 0.0
C906 C 0.44961 0.45143 0.88118 0.0
C907 C 0.45759 0.44846 0.92571 0.0
C908 C 0.4463 0.46157 0.87128 0.0
C909 C 0.45534 0.47067 0.85489 0.0
C910 C 0.46785 0.46974 0.84804 0.0
C911 C 0.47179 0.46042 0.85898 0.0
C912 C 0.46269 0.45127 0.87532 0.0
H913 H 0.45705 0.44845 0.94319 0.0
H914 H 0.46562 0.44476 0.92102 0.0
H915 H 0.4621 0.4603 0.9203 0.0
H916 H 0.43628 0.4619 0.87553 0.0
H917 H 0.45204 0.47774 0.84669 0.0
H918 H 0.61888 0.99123 0.96772 0.0
H919 H 0.59923 0.98714 0.94227 0.0
H920 H 0.62401 0.03502 0.92786 0.0
H921 H 0.64365 0.03923 0.95305 0.0
H922 H 0.58182 0.00213 0.9437 0.0
H923 H 0.6141 0.01327 0.86958 0.0
H924 H 0.61992 0.00872 0.89381 0.0
H925 H 0.62374 0.02775 0.88961 0.0
C926 C 0.62029 1.00084 0.95886 0.0
C927 C 0.63288 0.01556 0.96242 0.0
C928 C 0.609 0.99849 0.94443 0.0
C929 C 0.61022 0.01076 0.9331 0.0
C930 C 0.62294 0.02535 0.93624 0.0
H931 H 0.56222 0.03208 0.84386 0.0
H932 H 0.57856 0.03194 0.87159 0.0
C933 C 0.63414 0.02774 0.95071 0.0
C934 C 0.59798 0.00862 0.91864 0.0
H935 H 0.59128 0.0138 0.86778 0.0
C936 C 0.58378 0.00449 0.92704 0.0
C937 C 0.60059 0.01168 0.89693 0.0
C938 C 0.61536 0.01547 0.88686 0.0
C939 C 0.57234 0.00403 0.91444 0.0
C940 C 0.57515 0.00761 0.89287 0.0
C941 C 0.58919 0.01124 0.88439 0.0
C942 C 0.56395 0.00806 0.87871 0.0
C943 C 0.55758 1.00032 0.92447 0.0
C944 C 0.55004 0.99481 0.874 0.0
C945 C 0.5406 0.99491 0.85824 0.0
C946 C 0.54503 0.00823 0.84681 0.0
C947 C 0.55854 0.02167 0.85242 0.0
C948 C 0.5679 0.02158 0.86819 0.0
H949 H 0.55846 1.00129 0.94192 0.0
H950 H 0.55374 0.00799 0.9187 0.0
H951 H 0.54881 0.98841 0.92017 0.0
H952 H 0.54686 0.98418 0.88165 0.0
H953 H 0.53038 0.98434 0.85401 0.0
H954 H 0.6152 0.98605 0.04916 0.0
H955 H 0.59345 0.98034 0.0713 0.0
H956 H 0.61631 0.0271 0.09361 0.0
H957 H 0.63789 0.03298 0.07138 0.0
H958 H 0.59018 0.98289 0.11399 0.0
H959 H 0.57687 0.02142 0.07122 0.0
H960 H 0.58991 0.01602 0.06118 0.0
H961 H 0.59597 0.031 0.08081 0.0
C962 C 0.61567 0.99508 0.05895 0.0
C963 C 0.62824 0.01002 0.05829 0.0
C964 C 0.60319 0.99181 0.07151 0.0
C965 C 0.60308 0.00341 0.08361 0.0
C966 C 0.61595 0.01809 0.08387 0.0
H967 H 0.55045 0.01261 0.18001 0.0
H968 H 0.56822 0.01613 0.15185 0.0
C969 C 0.62834 0.0214 0.07127 0.0
C970 C 0.58958 1.00026 0.09603 0.0
H971 H 0.56474 0.01258 0.10452 0.0
C972 C 0.58448 0.98922 0.11173 0.0
C973 C 0.58208 0.00847 0.09297 0.0
C974 C 0.58638 0.01977 0.07548 0.0
C975 C 0.57254 0.98667 0.12508 0.0
C976 C 0.56544 0.99529 0.12249 0.0
C977 C 0.57024 0.00603 0.10645 0.0
C978 C 0.55371 0.99396 0.13728 0.0
C979 C 0.56795 0.9752 0.14239 0.0
C980 C 0.53942 0.98062 0.13778 0.0
C981 C 0.52919 0.97864 0.15373 0.0
C982 C 0.53318 0.98996 0.16947 0.0
C983 C 0.54712 0.00371 0.16808 0.0
C984 C 0.55726 0.00572 0.15206 0.0
H985 H 0.57595 0.97103 0.14412 0.0
H986 H 0.56728 0.98029 0.15766 0.0
H987 H 0.55657 0.96525 0.1388 0.0
H988 H 0.53644 0.97148 0.12637 0.0
H989 H 0.51861 0.96787 0.15455 0.0
H990 H 0.98743 0.61638 0.05707 0.0
H991 H 0.98435 0.59614 0.08049 0.0
H992 H 0.03273 0.61699 0.08465 0.0
H993 H 0.03597 0.63717 0.06138 0.0
H994 H 0.01634 0.58482 0.07346 0.0
H995 H 0.9935 0.59841 0.14473 0.0
H996 H 0.98437 0.59705 0.12001 0.0
H997 H 1.00348 0.61222 0.12451 0.0
C998 C 0.99743 0.61682 0.06325 0.0
C999 C 0.01195 0.62844 0.05726 0.0
C1000 C 0.99564 0.60522 0.07662 0.0
C1001 C 0.00832 0.60507 0.08428 0.0
C1002 C 0.0228 0.61686 0.07884 0.0
H1003 H 0.03371 0.55466 0.16273 0.0
H1004 H 0.03133 0.5689 0.13397 0.0
C1005 C 0.02461 0.62844 0.06557 0.0
C1006 C 0.00668 0.59242 0.09737 0.0
H1007 H 0.9964 0.57706 0.14619 0.0
C1008 C 0.01189 0.58304 0.08933 0.0
C1009 C 1.00076 0.59005 0.11796 0.0
C1010 C 0.99528 0.59999 0.12748 0.0
C1011 C 0.01154 0.57148 0.10146 0.0
C1012 C 0.00615 0.56947 0.12236 0.0
C1013 C 1.00052 0.57857 0.13016 0.0
C1014 C 0.00712 0.55879 0.13699 0.0
C1015 C 0.01692 0.56152 0.09172 0.0
C1016 C 0.99429 0.54811 0.14802 0.0
C1017 C 0.99566 0.54 0.16453 0.0
C1018 C 0.00989 0.54244 0.17035 0.0
C1019 C 0.02257 0.55232 0.15835 0.0
C1020 C 0.02121 0.5605 0.14191 0.0
H1021 H 0.01572 0.56092 0.0743 0.0
H1022 H 0.02907 0.56647 0.09551 0.0
H1023 H 0.01056 0.54975 0.09789 0.0
H1024 H 0.98331 0.54658 0.14453 0.0
H1025 H 0.98571 0.53248 0.17357 0.0
H1026 H 0.37699 0.39554 0.0457 0.0
H1027 H 0.39302 0.41676 0.07 0.0
H1028 H 0.41304 0.39158 0.09294 0.0
H1029 H 0.39719 0.37042 0.06892 0.0
H1030 H 0.40368 0.40642 0.12478 0.0
H1031 H 0.44047 0.44479 0.06153 0.0
H1032 H 0.42028 0.43582 0.05854 0.0
H1033 H 0.42888 0.42437 0.05755 0.0
C1034 C 0.38466 0.39444 0.05613 0.0
C1035 C 0.38587 0.38131 0.05529 0.0
C1036 C 0.39388 0.40662 0.06985 0.0
C1037 C 0.40433 0.40577 0.08299 0.0
C1038 C 0.4051 0.39246 0.08279 0.0
H1039 H 0.48275 0.45877 0.15633 0.0
H1040 H 0.46466 0.44567 0.12755 0.0
C1041 C 0.39602 0.38038 0.06904 0.0
C1042 C 0.41474 0.41873 0.09685 0.0
H1043 H 0.44759 0.45334 0.09659 0.0
C1044 C 0.41314 0.41681 0.11868 0.0
C1045 C 0.42714 0.43214 0.08871 0.0
C1046 C 0.42945 0.4345 0.06531 0.0
C1047 C 0.42385 0.42778 0.13265 0.0
C1048 C 0.43642 0.44108 0.12453 0.0
C1049 C 0.43785 0.44319 0.1027 0.0
C1050 C 0.44877 0.45207 0.13861 0.0
C1051 C 0.42204 0.42474 0.15597 0.0
C1052 C 0.44618 0.46072 0.15359 0.0
C1053 C 0.45652 0.46827 0.16998 0.0
C1054 C 0.4696 0.46727 0.17162 0.0
C1055 C 0.47285 0.45984 0.15541 0.0
C1056 C 0.46248 0.45229 0.13902 0.0
H1057 H 0.41295 0.41287 0.15938 0.0
H1058 H 0.43278 0.42673 0.16298 0.0
H1059 H 0.41916 0.4327 0.16386 0.0
H1060 H 0.43571 0.4608 0.15337 0.0
H1061 H 0.45382 0.47405 0.18214 0.0
H1062 H 0.69013 0.72579 0.38396 0.0
H1063 H 0.69492 0.74642 0.40902 0.0
H1064 H 0.64698 0.72805 0.41474 0.0
H1065 H 0.64204 0.70745 0.39022 0.0
H1066 H 0.68554 0.76836 0.40505 0.0
H1067 H 0.66137 0.73312 0.47597 0.0
H1068 H 0.66639 0.72628 0.45273 0.0
H1069 H 0.64889 0.72616 0.45359 0.0
C1070 C 0.6806 0.72603 0.39077 0.0
C1071 C 0.66569 0.71488 0.3851 0.0
C1072 C 0.68337 0.73786 0.40499 0.0
C1073 C 0.67129 0.73865 0.41387 0.0
C1074 C 0.65645 0.7275 0.40836 0.0
H1075 H 0.65583 0.79305 0.50353 0.0
H1076 H 0.65381 0.77611 0.47427 0.0
C1077 C 0.65367 0.71573 0.39424 0.0
C1078 C 0.67398 0.75126 0.42852 0.0
H1079 H 0.66552 0.75828 0.47781 0.0
C1080 C 0.68131 0.76624 0.42104 0.0
C1081 C 0.6684 0.7484 0.44931 0.0
C1082 C 0.66095 0.73264 0.45848 0.0
C1083 C 0.6827 0.77839 0.43361 0.0
C1084 C 0.67683 0.77546 0.45429 0.0
C1085 C 0.66983 0.76051 0.46186 0.0
C1086 C 0.6779 0.7876 0.46871 0.0
C1087 C 0.69001 0.79411 0.42439 0.0
C1088 C 0.69205 0.80006 0.47471 0.0
C1089 C 0.69314 0.80994 0.49108 0.0
C1090 C 0.68014 0.80733 0.50187 0.0
C1091 C 0.66595 0.79538 0.49516 0.0
C1092 C 0.66483 0.78566 0.47861 0.0
H1093 H 0.68972 0.79359 0.40689 0.0
H1094 H 0.68436 0.80032 0.42989 0.0
H1095 H 0.70203 0.80075 0.42944 0.0
H1096 H 0.70232 0.80158 0.46773 0.0
H1097 H 0.70422 0.81887 0.4964 0.0
H1098 H 0.29929 0.95207 0.38851 0.0
H1099 H 0.28264 0.93072 0.41088 0.0
H1100 H 0.25344 0.94914 0.41868 0.0
H1101 H 0.26983 0.97036 0.39598 0.0
H1102 H 0.27335 0.92915 0.45134 0.0
H1103 H 0.22404 0.90617 0.39738 0.0
H1104 H 0.24279 0.9207 0.38964 0.0
H1105 H 0.2312 0.92573 0.40496 0.0
C1106 C 0.28941 0.95169 0.39513 0.0
C1107 C 0.28584 0.96289 0.39024 0.0
C1108 C 0.27986 0.93942 0.40785 0.0
C1109 C 0.26657 0.93811 0.41595 0.0
C1110 C 0.26339 0.94967 0.41204 0.0
H1111 H 0.20023 0.88388 0.50628 0.0
H1112 H 0.21464 0.90073 0.4774 0.0
C1113 C 0.27287 0.96189 0.39922 0.0
C1114 C 0.25608 0.92469 0.42858 0.0
H1115 H 0.21927 0.89573 0.4319 0.0
C1116 C 0.26158 0.92173 0.44697 0.0
C1117 C 0.24072 0.91495 0.42274 0.0
C1118 C 0.23435 0.91693 0.40249 0.0
C1119 C 0.25201 0.90969 0.46012 0.0
C1120 C 0.23658 0.90026 0.45461 0.0
C1121 C 0.23112 0.90298 0.43602 0.0
C1122 C 0.2258 0.88834 0.46894 0.0
C1123 C 0.25833 0.90744 0.48024 0.0
C1124 C 0.22675 0.87536 0.47293 0.0
C1125 C 0.2184 0.86564 0.48929 0.0
C1126 C 0.2091 0.86885 0.50188 0.0
C1127 C 0.2073 0.88117 0.49673 0.0
C1128 C 0.21554 0.8908 0.48032 0.0
H1129 H 0.26994 0.91708 0.48372 0.0
H1130 H 0.25094 0.90621 0.49375 0.0
H1131 H 0.25874 0.89681 0.47884 0.0
H1132 H 0.23454 0.87324 0.46416 0.0
H1133 H 0.22011 0.85632 0.49311 0.0
H1134 H 0.03355 0.29842 0.38871 0.0
H1135 H 0.05292 0.30194 0.414 0.0
H1136 H 0.07542 0.35071 0.40682 0.0
H1137 H 0.05593 0.34735 0.38178 0.0
H1138 H 0.08363 0.31514 0.40751 0.0
H1139 H 0.07224 0.34646 0.47042 0.0
H1140 H 0.05922 0.33659 0.44894 0.0
H1141 H 0.07591 0.35486 0.44487 0.0
C1142 C 0.04251 0.30992 0.39266 0.0
C1143 C 0.04311 0.3226 0.38324 0.0
C1144 C 0.05362 0.3119 0.40706 0.0
C1145 C 0.06558 0.32658 0.41239 0.0
C1146 C 0.06617 0.33929 0.40321 0.0
H1147 H 0.1436 0.33781 0.48709 0.0
H1148 H 0.12914 0.33959 0.4575 0.0
C1149 C 0.055 0.33733 0.38887 0.0
C1150 C 0.07748 0.32842 0.42733 0.0
H1151 H 0.09255 0.34253 0.47606 0.0
C1152 C 0.08568 0.32123 0.42245 0.0
C1153 C 0.08012 0.33638 0.44679 0.0
C1154 C 0.07135 0.34392 0.45323 0.0
C1155 C 0.09611 0.32136 0.43678 0.0
C1156 C 0.09853 0.32907 0.45638 0.0
C1157 C 0.09072 0.33671 0.46095 0.0
C1158 C 0.1076 0.3278 0.47345 0.0
C1159 C 0.10391 0.31266 0.43129 0.0
C1160 C 0.10029 0.32058 0.49205 0.0
C1161 C 0.10845 0.31964 0.50876 0.0
C1162 C 0.12416 0.32596 0.50735 0.0
C1163 C 0.1315 0.33284 0.48852 0.0
C1164 C 0.12326 0.33385 0.47168 0.0
H1165 H 0.09902 0.30535 0.41695 0.0
H1166 H 0.11606 0.32087 0.42839 0.0
H1167 H 0.10314 0.30535 0.44455 0.0
H1168 H 0.08822 0.31572 0.4937 0.0
H1169 H 0.10245 0.31403 0.52295 0.0
H1170 H 0.03739 0.30974 0.27316 0.0
H1171 H 0.05895 0.31558 0.2509 0.0
H1172 H 0.08364 0.36111 0.27769 0.0
H1173 H 0.06204 0.35535 0.30028 0.0
H1174 H 0.07449 0.33942 0.22115 0.0
H1175 H 0.11125 0.34269 0.28756 0.0
H1176 H 0.09103 0.33397 0.2901 0.0
H1177 H 0.10285 0.35436 0.28975 0.0
C1178 C 0.04733 0.32107 0.27424 0.0
C1179 C 0.048 0.33205 0.28863 0.0
C1180 C 0.05965 0.32437 0.2615 0.0
C1181 C 0.07296 0.33867 0.26294 0.0
C1182 C 0.07353 0.34991 0.27662 0.0
H1183 H 0.14507 0.36536 0.1717 0.0
H1184 H 0.12982 0.36715 0.19999 0.0
C1185 C 0.06113 0.34664 0.28935 0.0
C1186 C 0.08618 0.34154 0.25016 0.0
H1187 H 0.12131 0.34589 0.25332 0.0
C1188 C 0.0848 0.34102 0.22817 0.0
C1189 C 0.09952 0.34341 0.25942 0.0
C1190 C 0.10132 0.34355 0.283 0.0
C1191 C 0.09634 0.34216 0.21515 0.0
C1192 C 0.10964 0.34398 0.22438 0.0
C1193 C 0.11113 0.34464 0.24637 0.0
C1194 C 0.12164 0.34434 0.21111 0.0
C1195 C 0.09404 0.34093 0.19157 0.0
C1196 C 0.12273 0.33124 0.20887 0.0
C1197 C 0.13145 0.33018 0.19272 0.0
C1198 C 0.13914 0.34222 0.17862 0.0
C1199 C 0.13917 0.35588 0.18227 0.0
C1200 C 0.13047 0.35692 0.19838 0.0
H1201 H 0.08227 0.33741 0.18707 0.0
H1202 H 0.10178 0.35218 0.1845 0.0
H1203 H 0.09677 0.33256 0.18469 0.0
H1204 H 0.11596 0.32141 0.21857 0.0
H1205 H 0.13109 0.31947 0.19018 0.0
H1206 H 0.64133 0.7041 0.27995 0.0
H1207 H 0.6475 0.72579 0.25775 0.0
H1208 H 0.69468 0.74596 0.27354 0.0
H1209 H 0.68867 0.72418 0.29562 0.0
H1210 H 0.66101 0.75602 0.27241 0.0
H1211 H 0.69547 0.75015 0.20949 0.0
H1212 H 0.68356 0.73472 0.22676 0.0
H1213 H 0.70146 0.75015 0.23603 0.0
C1214 C 0.65307 0.71299 0.27845 0.0
C1215 C 0.66449 0.71236 0.28965 0.0
C1216 C 0.65656 0.72543 0.26579 0.0
C1217 C 0.67154 0.73749 0.26395 0.0
C1218 C 0.68306 0.73669 0.27448 0.0
H1219 H 0.70463 0.81925 0.18711 0.0
H1220 H 0.7036 0.80284 0.21573 0.0
C1221 C 0.67958 0.7242 0.28713 0.0
C1222 C 0.67486 0.75122 0.25197 0.0
H1223 H 0.69281 0.77174 0.2084 0.0
C1224 C 0.66802 0.7595 0.25846 0.0
C1225 C 0.68416 0.75587 0.23394 0.0
C1226 C 0.69152 0.74723 0.22598 0.0
C1227 C 0.66996 0.77207 0.24715 0.0
C1228 C 0.67878 0.77636 0.22868 0.0
C1229 C 0.68609 0.76846 0.22262 0.0
C1230 C 0.67931 0.78789 0.21422 0.0
C1231 C 0.66244 0.78058 0.25499 0.0
C1232 C 0.66598 0.78517 0.20431 0.0
C1233 C 0.66656 0.79451 0.18809 0.0
C1234 C 0.68048 0.80674 0.18146 0.0
C1235 C 0.69374 0.81005 0.19221 0.0
C1236 C 0.69317 0.80061 0.20839 0.0
H1237 H 0.66035 0.77921 0.27221 0.0
H1238 H 0.66941 0.79294 0.25159 0.0
H1239 H 0.65135 0.77592 0.24694 0.0
H1240 H 0.6552 0.77528 0.20824 0.0
H1241 H 0.65622 0.79162 0.17985 0.0
H1242 H 0.29394 0.94256 0.31388 0.0
H1243 H 0.27709 0.9206 0.29139 0.0
H1244 H 0.26922 0.94995 0.25207 0.0
H1245 H 0.2854 0.97172 0.27512 0.0
H1246 H 0.24351 0.92583 0.26229 0.0
H1247 H 0.28231 0.90652 0.23486 0.0
H1248 H 0.28078 0.90711 0.26296 0.0
H1249 H 0.28902 0.92454 0.24845 0.0
C1250 C 0.28887 0.94435 0.30014 0.0
C1251 C 0.291 0.95883 0.29615 0.0
C1252 C 0.27925 0.93179 0.28729 0.0
C1253 C 0.27195 0.93361 0.26992 0.0
C1254 C 0.27465 0.94823 0.26544 0.0
H1255 H 0.23398 0.88428 0.15853 0.0
H1256 H 0.24892 0.89835 0.18916 0.0
C1257 C 0.28397 0.96069 0.27852 0.0
C1258 C 0.26083 0.92032 0.25695 0.0
H1259 H 0.25678 0.89144 0.22448 0.0
C1260 C 0.24639 0.91827 0.25405 0.0
C1261 C 0.26456 0.91038 0.24639 0.0
C1262 C 0.28004 0.91229 0.24814 0.0
C1263 C 0.2359 0.90718 0.23995 0.0
C1264 C 0.23973 0.89742 0.22906 0.0
C1265 C 0.25383 0.89888 0.23293 0.0
C1266 C 0.23045 0.88746 0.2112 0.0
C1267 C 0.22125 0.90674 0.2359 0.0
C1268 C 0.21508 0.87628 0.21337 0.0
C1269 C 0.2063 0.86841 0.19557 0.0
C1270 C 0.21286 0.87156 0.17546 0.0
C1271 C 0.22845 0.88198 0.17368 0.0
C1272 C 0.23709 0.8899 0.19127 0.0
H1273 H 0.22144 0.91702 0.24243 0.0
H1274 H 0.21881 0.90592 0.21876 0.0
H1275 H 0.21185 0.89658 0.24349 0.0
H1276 H 0.2098 0.87388 0.22869 0.0
H1277 H 0.19436 0.8603 0.19744 0.0
H1278 H 0.68598 0.9656 0.26645 0.0
H1279 H 0.679 0.94357 0.24338 0.0
H1280 H 0.63864 0.91655 0.27955 0.0
H1281 H 0.64549 0.93866 0.30279 0.0
H1282 H 0.65887 0.90422 0.27348 0.0
H1283 H 0.64405 0.92117 0.19899 0.0
H1284 H 0.66118 0.93594 0.21119 0.0
H1285 H 0.64346 0.92915 0.22437 0.0
C1286 C 0.67547 0.95507 0.2693 0.0
C1287 C 0.6663 0.95387 0.28646 0.0
C1288 C 0.67148 0.94251 0.25605 0.0
C1289 C 0.65829 0.92849 0.25975 0.0
C1290 C 0.64883 0.92732 0.27643 0.0
H1291 H 0.64189 0.85902 0.16461 0.0
H1292 H 0.63549 0.87093 0.19341 0.0
C1293 C 0.65272 0.93998 0.28959 0.0
C1294 C 0.65522 0.91492 0.24705 0.0
H1295 H 0.651 0.90211 0.19622 0.0
C1296 C 0.65681 0.90353 0.25665 0.0
C1297 C 0.65241 0.91402 0.22519 0.0
C1298 C 0.65003 0.92564 0.21431 0.0
C1299 C 0.65665 0.89176 0.24463 0.0
C1300 C 0.65496 0.89151 0.22253 0.0
C1301 C 0.65236 0.90234 0.21317 0.0
C1302 C 0.65746 0.8813 0.20843 0.0
C1303 C 0.65872 0.87997 0.25561 0.0
C1304 C 0.67173 0.88269 0.20782 0.0
C1305 C 0.67542 0.87592 0.19138 0.0
C1306 C 0.66492 0.86779 0.17518 0.0
C1307 C 0.65023 0.86535 0.1768 0.0
C1308 C 0.64656 0.87211 0.19324 0.0
H1309 H 0.65484 0.87862 0.2722 0.0
H1310 H 0.65247 0.86871 0.24735 0.0
H1311 H 0.6709 0.88372 0.25582 0.0
H1312 H 0.68042 0.88997 0.21912 0.0
H1313 H 0.68688 0.87818 0.19042 0.0
H1314 H 0.0414 0.72179 0.29572 0.0
H1315 H 0.05738 0.74158 0.27069 0.0
H1316 H 0.08844 0.72511 0.26981 0.0
H1317 H 0.07252 0.70522 0.29437 0.0
H1318 H 0.08732 0.76478 0.27602 0.0
H1319 H 0.08164 0.72777 0.20757 0.0
H1320 H 0.0691 0.7208 0.22983 0.0
H1321 H 0.08739 0.72261 0.23111 0.0
C1322 C 0.0515 0.72221 0.28995 0.0
C1323 C 0.0556 0.71183 0.29705 0.0
C1324 C 0.06066 0.73359 0.27573 0.0
C1325 C 0.07402 0.73472 0.26822 0.0
C1326 C 0.07804 0.72428 0.27506 0.0
H1327 H 0.14765 0.79279 0.18669 0.0
H1328 H 0.13256 0.77667 0.21572 0.0
C1329 C 0.06891 0.71291 0.28921 0.0
C1330 C 0.08413 0.74713 0.25385 0.0
H1331 H 0.10178 0.75368 0.20633 0.0
C1332 C 0.0904 0.76238 0.2607 0.0
C1333 C 0.0881 0.74397 0.23385 0.0
C1334 C 0.08109 0.72791 0.22504 0.0
C1335 C 0.10089 0.77454 0.24833 0.0
C1336 C 0.10513 0.77132 0.22861 0.0
C1337 C 0.09868 0.7561 0.22163 0.0
C1338 C 0.11586 0.78347 0.21445 0.0
C1339 C 0.10761 0.79069 0.25657 0.0
C1340 C 0.11178 0.79308 0.2047 0.0
C1341 C 0.12043 0.80235 0.18817 0.0
C1342 C 0.13326 0.80212 0.18108 0.0
C1343 C 0.13796 0.79338 0.19197 0.0
C1344 C 0.12927 0.78406 0.20844 0.0
H1345 H 0.10572 0.7911 0.27375 0.0
H1346 H 0.11994 0.79741 0.25348 0.0
H1347 H 0.10226 0.79624 0.24832 0.0
H1348 H 0.10139 0.79266 0.20891 0.0
H1349 H 0.11654 0.80895 0.18001 0.0
H1350 H 0.2853 0.32281 0.30021 0.0
H1351 H 0.26527 0.31789 0.27497 0.0
H1352 H 0.28807 0.36584 0.26113 0.0
H1353 H 0.30811 0.37086 0.28603 0.0
H1354 H 0.24638 0.33068 0.27669 0.0
H1355 H 0.27905 0.34526 0.20265 0.0
H1356 H 0.28561 0.34126 0.22666 0.0
H1357 H 0.28799 0.35979 0.22277 0.0
C1358 C 0.2862 0.33227 0.29152 0.0
C1359 C 0.29836 0.34724 0.29515 0.0
C1360 C 0.27469 0.32944 0.27719 0.0
C1361 C 0.27524 0.34148 0.26606 0.0
C1362 C 0.28752 0.35634 0.26931 0.0
H1363 H 0.22455 0.36168 0.18081 0.0
H1364 H 0.24087 0.36149 0.20851 0.0
C1365 C 0.29896 0.35919 0.28364 0.0
C1366 C 0.26274 0.3388 0.25173 0.0
H1367 H 0.25558 0.34469 0.20145 0.0
C1368 C 0.24829 0.33353 0.26016 0.0
C1369 C 0.26527 0.34247 0.23017 0.0
C1370 C 0.28028 0.34737 0.21995 0.0
C1371 C 0.23652 0.33257 0.24779 0.0
C1372 C 0.23927 0.33687 0.22647 0.0
C1373 C 0.25355 0.34159 0.2179 0.0
C1374 C 0.22777 0.33706 0.21271 0.0
C1375 C 0.22141 0.32754 0.25777 0.0
C1376 C 0.21465 0.32345 0.20646 0.0
C1377 C 0.20523 0.32356 0.19069 0.0
C1378 C 0.20889 0.33727 0.18084 0.0
C1379 C 0.22147 0.35097 0.18814 0.0
C1380 C 0.23083 0.35086 0.20389 0.0
H1381 H 0.22196 0.32735 0.27523 0.0
H1382 H 0.21724 0.33521 0.25329 0.0
H1383 H 0.21307 0.31585 0.252 0.0
H1384 H 0.21219 0.31265 0.21285 0.0
H1385 H 0.19574 0.31281 0.18512 0.0
H1386 H 0.30531 0.36706 0.40417 0.0
H1387 H 0.28408 0.36208 0.42662 0.0
H1388 H 0.25947 0.31535 0.40411 0.0
H1389 H 0.28086 0.32015 0.38183 0.0
H1390 H 0.25564 0.35355 0.41326 0.0
H1391 H 0.25359 0.31026 0.4672 0.0
H1392 H 0.26962 0.32167 0.4506 0.0
H1393 H 0.25286 0.3055 0.43971 0.0
C1394 C 0.29549 0.35564 0.40421 0.0
C1395 C 0.29481 0.344 0.39119 0.0
C1396 C 0.28333 0.35283 0.41702 0.0
C1397 C 0.27019 0.33834 0.41712 0.0
C1398 C 0.26959 0.32656 0.40458 0.0
H1399 H 0.18756 0.30733 0.49003 0.0
H1400 H 0.2044 0.30968 0.46107 0.0
C1401 C 0.28183 0.32932 0.39184 0.0
C1402 C 0.25696 0.33594 0.42962 0.0
H1403 H 0.23405 0.3158 0.47033 0.0
C1404 C 0.2509 0.34526 0.4257 0.0
C1405 C 0.25071 0.32506 0.44576 0.0
C1406 C 0.25708 0.31513 0.45125 0.0
C1407 C 0.23891 0.34415 0.43769 0.0
C1408 C 0.23289 0.33351 0.45409 0.0
C1409 C 0.23864 0.32389 0.45763 0.0
C1410 C 0.22151 0.33298 0.46895 0.0
C1411 C 0.23282 0.35441 0.43277 0.0
C1412 C 0.22536 0.34546 0.48254 0.0
C1413 C 0.21578 0.34414 0.49903 0.0
C1414 C 0.20217 0.33033 0.5022 0.0
C1415 C 0.19786 0.31818 0.48774 0.0
C1416 C 0.20752 0.31946 0.47133 0.0
H1417 H 0.2356 0.35874 0.41646 0.0
H1418 H 0.22037 0.34833 0.43477 0.0
H1419 H 0.23798 0.3644 0.44378 0.0
H1420 H 0.23619 0.35591 0.48119 0.0
H1421 H 0.2194 0.35363 0.51005 0.0
H1422 H 0.70143 0.95957 0.37005 0.0
H1423 H 0.69905 0.94069 0.39505 0.0
H1424 H 0.65817 0.93701 0.41926 0.0
H1425 H 0.66017 0.95558 0.39355 0.0
H1426 H 0.70013 0.94178 0.4356 0.0
H1427 H 0.64439 0.89273 0.41195 0.0
H1428 H 0.65431 0.90965 0.39632 0.0
H1429 H 0.64341 0.90933 0.41874 0.0
C1430 C 0.6919 0.95478 0.38066 0.0
C1431 C 0.68099 0.95914 0.37978 0.0
C1432 C 0.69052 0.9439 0.39492 0.0
C1433 C 0.67828 0.93716 0.40883 0.0
C1434 C 0.66748 0.94167 0.40829 0.0
H1435 H 0.67943 0.90021 0.52726 0.0
H1436 H 0.67922 0.91436 0.49723 0.0
C1437 C 0.66873 0.95244 0.39375 0.0
C1438 C 0.67746 0.92614 0.42461 0.0
H1439 H 0.65438 0.89079 0.44508 0.0
C1440 C 0.69016 0.93058 0.43746 0.0
C1441 C 0.66457 0.91137 0.42687 0.0
C1442 C 0.65097 0.90541 0.41258 0.0
C1443 C 0.69019 0.92094 0.45287 0.0
C1444 C 0.67699 0.90659 0.45605 0.0
C1445 C 0.66444 0.90186 0.44277 0.0
C1446 C 0.67576 0.89702 0.47416 0.0
C1447 C 0.70441 0.92626 0.46565 0.0
C1448 C 0.67323 0.88219 0.47129 0.0
C1449 C 0.67296 0.87374 0.48871 0.0
C1450 C 0.67506 0.87998 0.50924 0.0
C1451 C 0.67734 0.89477 0.51185 0.0
C1452 C 0.67748 0.90305 0.4946 0.0
H1453 H 0.71459 0.93473 0.45697 0.0
H1454 H 0.70378 0.93189 0.48041 0.0
H1455 H 0.70584 0.91656 0.46986 0.0
H1456 H 0.67179 0.87729 0.45559 0.0
H1457 H 0.67115 0.86241 0.48614 0.0
H1458 H 0.04294 0.73082 0.38113 0.0
H1459 H 0.05867 0.75243 0.40507 0.0
H1460 H 0.07684 0.72682 0.43255 0.0
H1461 H 0.06127 0.70529 0.40891 0.0
H1462 H 0.06805 0.74318 0.46199 0.0
H1463 H 0.10612 0.779 0.39783 0.0
H1464 H 0.08605 0.7707 0.39435 0.0
H1465 H 0.0939 0.75858 0.3948 0.0
C1466 C 0.0501 0.72971 0.39252 0.0
C1467 C 0.05093 0.71637 0.39302 0.0
C1468 C 0.05916 0.7421 0.40603 0.0
C1469 C 0.06906 0.74126 0.42031 0.0
C1470 C 0.06934 0.72771 0.42153 0.0
H1471 H 0.14805 0.79425 0.49179 0.0
H1472 H 0.12961 0.78123 0.46337 0.0
C1473 C 0.06042 0.71542 0.40799 0.0
C1474 C 0.07956 0.7545 0.43371 0.0
H1475 H 0.11313 0.7884 0.43256 0.0
C1476 C 0.07776 0.75322 0.45559 0.0
C1477 C 0.09229 0.76744 0.42522 0.0
C1478 C 0.09486 0.7691 0.40178 0.0
C1479 C 0.08862 0.76432 0.4693 0.0
C1480 C 0.10154 0.77713 0.46085 0.0
C1481 C 0.10314 0.77864 0.43893 0.0
C1482 C 0.11412 0.78809 0.47469 0.0
C1483 C 0.08659 0.76182 0.49274 0.0
C1484 C 0.11191 0.79702 0.48965 0.0
C1485 C 0.12244 0.8045 0.50587 0.0
C1486 C 0.13535 0.8032 0.50728 0.0
C1487 C 0.13827 0.79556 0.49103 0.0
C1488 C 0.12771 0.78804 0.47484 0.0
H1489 H 0.07732 0.75012 0.4965 0.0
H1490 H 0.09718 0.76377 0.50018 0.0
H1491 H 0.08383 0.77008 0.49992 0.0
H1492 H 0.10159 0.79738 0.48959 0.0
H1493 H 0.12 0.81044 0.51811 0.0
H1494 H 0.31116 0.03575 0.73788 0.0
H1495 H 0.31561 0.05634 0.76235 0.0
H1496 H 0.36148 0.08323 0.74058 0.0
H1497 H 0.35713 0.06259 0.71579 0.0
H1498 H 0.33867 0.07138 0.79482 0.0
H1499 H 0.34207 0.11036 0.73188 0.0
H1500 H 0.33392 0.09011 0.72726 0.0
H1501 H 0.35403 0.10234 0.72946 0.0
C1502 C 0.32226 0.04597 0.73838 0.0
C1503 C 0.33376 0.04757 0.72477 0.0
C1504 C 0.32477 0.05773 0.75238 0.0
C1505 C 0.33877 0.07137 0.75297 0.0
C1506 C 0.35052 0.07284 0.74008 0.0
H1507 H 0.36447 0.15263 0.83074 0.0
H1508 H 0.36356 0.13568 0.80214 0.0
C1509 C 0.34805 0.06099 0.7261 0.0
C1510 C 0.34079 0.08402 0.76699 0.0
H1511 H 0.34366 0.11891 0.76703 0.0
C1512 C 0.33987 0.08182 0.78878 0.0
C1513 C 0.34237 0.09761 0.75898 0.0
C1514 C 0.34307 0.10032 0.73562 0.0
C1515 C 0.34032 0.09279 0.80283 0.0
C1516 C 0.34135 0.10615 0.79482 0.0
C1517 C 0.34272 0.10858 0.77305 0.0
C1518 C 0.34084 0.11753 0.80902 0.0
C1519 C 0.3397 0.08998 0.82617 0.0
C1520 C 0.32804 0.11327 0.82144 0.0
C1521 C 0.32853 0.1229 0.8377 0.0
C1522 C 0.34179 0.137 0.84164 0.0
C1523 C 0.35408 0.14187 0.8279 0.0
C1524 C 0.35361 0.13217 0.81168 0.0
H1525 H 0.34292 0.08141 0.82984 0.0
H1526 H 0.34731 0.10071 0.83506 0.0
H1527 H 0.328 0.08555 0.8318 0.0
H1528 H 0.31797 0.10213 0.81933 0.0
H1529 H 0.3189 0.11893 0.84804 0.0
H1530 H 0.93731 0.30386 0.7298 0.0
H1531 H 0.92177 0.28234 0.75255 0.0
H1532 H 0.95086 0.26427 0.74045 0.0
H1533 H 0.96668 0.28589 0.71803 0.0
H1534 H 0.90595 0.25211 0.7405 0.0
H1535 H 0.94701 0.26153 0.80389 0.0
H1536 H 0.95036 0.27606 0.78524 0.0
H1537 H 0.95338 0.26075 0.77782 0.0
C1538 C 0.94059 0.29546 0.73225 0.0
C1539 C 0.95329 0.29666 0.72208 0.0
C1540 C 0.93163 0.28313 0.7452 0.0
C1541 C 0.93518 0.27173 0.7483 0.0
C1542 C 0.94805 0.27306 0.73861 0.0
H1543 H 0.88949 0.18982 0.82489 0.0
H1544 H 0.90388 0.20672 0.7959 0.0
C1545 C 0.95708 0.28545 0.72575 0.0
C1546 C 0.92497 0.25813 0.76084 0.0
H1547 H 0.92338 0.23853 0.80473 0.0
C1548 C 0.90977 0.24913 0.75454 0.0
C1549 C 0.93 0.25418 0.77904 0.0
C1550 C 0.94604 0.26369 0.78705 0.0
C1551 C 0.89942 0.2364 0.76609 0.0
C1552 C 0.90437 0.23265 0.78449 0.0
C1553 C 0.91965 0.24138 0.79049 0.0
C1554 C 0.89372 0.22068 0.79892 0.0
C1555 C 0.88325 0.22708 0.75857 0.0
C1556 C 0.88294 0.22266 0.80973 0.0
C1557 C 0.87477 0.21307 0.82622 0.0
C1558 C 0.87721 0.20131 0.83212 0.0
C1559 C 0.88724 0.19865 0.82037 0.0
C1560 C 0.89553 0.20836 0.80397 0.0
H1561 H 0.88221 0.22867 0.74152 0.0
H1562 H 0.87852 0.21475 0.76141 0.0
H1563 H 0.87632 0.23079 0.76738 0.0
H1564 H 0.88154 0.23223 0.80633 0.0
H1565 H 0.86722 0.21543 0.83523 0.0
H1566 H 0.69837 0.63322 0.72574 0.0
H1567 H 0.71785 0.63718 0.75106 0.0
H1568 H 0.74077 0.68571 0.74137 0.0
H1569 H 0.72114 0.68191 0.7162 0.0
H1570 H 0.74834 0.64979 0.74343 0.0
H1571 H 0.73884 0.68315 0.80534 0.0
H1572 H 0.72531 0.67283 0.78453 0.0
H1573 H 0.74207 0.69081 0.77932 0.0
C1574 C 0.70743 0.64478 0.72916 0.0
C1575 C 0.70813 0.65725 0.71893 0.0
C1576 C 0.71861 0.64701 0.74359 0.0
C1577 C 0.73075 0.66173 0.74817 0.0
C1578 C 0.73138 0.67426 0.73832 0.0
H1579 H 0.80891 0.67155 0.82107 0.0
H1580 H 0.79448 0.67396 0.79204 0.0
C1581 C 0.72014 0.67205 0.72393 0.0
C1582 C 0.74285 0.66375 0.76287 0.0
H1583 H 0.75876 0.67863 0.811 0.0
C1584 C 0.75073 0.6562 0.75814 0.0
C1585 C 0.74594 0.67213 0.78203 0.0
C1586 C 0.73754 0.68011 0.78828 0.0
C1587 C 0.76122 0.65635 0.77237 0.0
C1588 C 0.76408 0.66448 0.7917 0.0
C1589 C 0.75661 0.67249 0.79609 0.0
C1590 C 0.77321 0.66323 0.80873 0.0
C1591 C 0.7686 0.64721 0.76706 0.0
C1592 C 0.76609 0.6565 0.82765 0.0
C1593 C 0.77424 0.65519 0.84407 0.0
C1594 C 0.78978 0.66068 0.84208 0.0
C1595 C 0.79695 0.66722 0.823 0.0
C1596 C 0.78872 0.66859 0.80646 0.0
H1597 H 0.76329 0.63957 0.75311 0.0
H1598 H 0.78072 0.65513 0.76357 0.0
H1599 H 0.76795 0.64018 0.78061 0.0
H1600 H 0.75412 0.65215 0.8297 0.0
H1601 H 0.7683 0.64978 0.8584 0.0
H1602 H 0.72714 0.68875 0.63456 0.0
H1603 H 0.74895 0.69478 0.61225 0.0
H1604 H 0.72561 0.64875 0.5872 0.0
H1605 H 0.70384 0.64255 0.6093 0.0
H1606 H 0.76192 0.66931 0.61108 0.0
H1607 H 0.74545 0.68713 0.53829 0.0
H1608 H 0.74061 0.69087 0.5642 0.0
H1609 H 0.73106 0.67179 0.55358 0.0
C1610 C 0.72654 0.67997 0.62406 0.0
C1611 C 0.71374 0.66514 0.62378 0.0
C1612 C 0.73905 0.68342 0.61145 0.0
C1613 C 0.73885 0.67215 0.59828 0.0
C1614 C 0.72594 0.65755 0.59738 0.0
H1615 H 0.79494 0.65254 0.52227 0.0
H1616 H 0.77994 0.65398 0.55113 0.0
C1617 C 0.71351 0.65406 0.61001 0.0
C1618 C 0.75222 0.67532 0.58578 0.0
H1619 H 0.76654 0.684 0.53619 0.0
C1620 C 0.7631 0.67273 0.59478 0.0
C1621 C 0.75364 0.67977 0.56461 0.0
C1622 C 0.74214 0.68262 0.55444 0.0
C1623 C 0.77523 0.67408 0.58286 0.0
C1624 C 0.77634 0.67797 0.5614 0.0
C1625 C 0.7657 0.68106 0.55266 0.0
C1626 C 0.78778 0.67794 0.5472 0.0
C1627 C 0.78666 0.67123 0.59325 0.0
C1628 C 0.79751 0.69102 0.53582 0.0
C1629 C 0.80613 0.69023 0.51938 0.0
C1630 C 0.80506 0.67629 0.51387 0.0
C1631 C 0.79618 0.66348 0.52632 0.0
C1632 C 0.78756 0.66429 0.5428 0.0
H1633 H 0.7868 0.67277 0.61063 0.0
H1634 H 0.78367 0.65929 0.58982 0.0
H1635 H 0.79819 0.67898 0.58713 0.0
H1636 H 0.79785 0.70166 0.53896 0.0
H1637 H 0.81293 0.7003 0.5101 0.0
H1638 H 0.30791 0.04008 0.62197 0.0
H1639 H 0.31422 0.06189 0.59995 0.0
H1640 H 0.36167 0.07938 0.61045 0.0
H1641 H 0.35551 0.05749 0.63237 0.0
H1642 H 0.33041 0.09264 0.61348 0.0
H1643 H 0.35892 0.08206 0.54641 0.0
H1644 H 0.34728 0.06742 0.56485 0.0
H1645 H 0.3661 0.08208 0.57217 0.0
C1646 C 0.31971 0.04841 0.61938 0.0
C1647 C 0.33119 0.04697 0.629 0.0
C1648 C 0.32329 0.06092 0.60683 0.0
C1649 C 0.3384 0.07225 0.60351 0.0
C1650 C 0.34993 0.07068 0.61256 0.0
H1651 H 0.37136 0.15178 0.52233 0.0
H1652 H 0.37102 0.13608 0.55151 0.0
C1653 C 0.34636 0.05813 0.62512 0.0
C1654 C 0.34194 0.08597 0.59133 0.0
H1655 H 0.35791 0.10458 0.54574 0.0
C1656 C 0.3365 0.0953 0.59872 0.0
C1657 C 0.35004 0.08953 0.57222 0.0
C1658 C 0.35585 0.07972 0.56328 0.0
C1659 C 0.33861 0.10789 0.58726 0.0
C1660 C 0.34619 0.11111 0.56775 0.0
C1661 C 0.35215 0.10213 0.56076 0.0
C1662 C 0.34662 0.12257 0.55324 0.0
C1663 C 0.33261 0.11757 0.59605 0.0
C1664 C 0.33306 0.12048 0.545 0.0
C1665 C 0.33326 0.12941 0.52845 0.0
C1666 C 0.34703 0.14062 0.51989 0.0
C1667 C 0.36063 0.14341 0.529 0.0
C1668 C 0.36043 0.13437 0.54549 0.0
H1669 H 0.33164 0.11683 0.61347 0.0
H1670 H 0.33997 0.12972 0.59178 0.0
H1671 H 0.32115 0.11339 0.58946 0.0
H1672 H 0.32228 0.11127 0.5504 0.0
H1673 H 0.32265 0.12689 0.52139 0.0
H1674 H 0.94537 0.30486 0.61219 0.0
H1675 H 0.92845 0.28293 0.59004 0.0
H1676 H 0.94744 0.25742 0.61533 0.0
H1677 H 0.96461 0.27948 0.63769 0.0
H1678 H 0.9417 0.254 0.57029 0.0
H1679 H 0.89194 0.24483 0.61607 0.0
H1680 H 0.90351 0.26404 0.60717 0.0
H1681 H 0.91109 0.25655 0.62574 0.0
C1682 C 0.94612 0.29467 0.61291 0.0
C1683 C 0.95621 0.29385 0.62691 0.0
C1684 C 0.93637 0.28212 0.60032 0.0
C1685 C 0.93642 0.26846 0.60154 0.0
C1686 C 0.94713 0.26784 0.61442 0.0
H1687 H 0.8798 0.18649 0.52328 0.0
H1688 H 0.89517 0.20194 0.55343 0.0
C1689 C 0.95698 0.28048 0.62706 0.0
C1690 C 0.92496 0.25483 0.58962 0.0
H1691 H 0.88683 0.2323 0.58224 0.0
C1692 C 0.92971 0.24902 0.5731 0.0
C1693 C 0.90934 0.24836 0.59347 0.0
C1694 C 0.90364 0.25366 0.61171 0.0
C1695 C 0.91918 0.2375 0.55947 0.0
C1696 C 0.90355 0.23155 0.56273 0.0
C1697 C 0.89882 0.2369 0.57982 0.0
C1698 C 0.89212 0.22098 0.54725 0.0
C1699 C 0.92485 0.23239 0.54099 0.0
C1700 C 0.88464 0.22624 0.53466 0.0
C1701 C 0.87579 0.21742 0.5176 0.0
C1702 C 0.87422 0.20317 0.51295 0.0
C1703 C 0.88071 0.19738 0.52663 0.0
C1704 C 0.88962 0.20625 0.54368 0.0
H1705 H 0.93726 0.23975 0.53894 0.0
H1706 H 0.9222 0.22053 0.54347 0.0
H1707 H 0.91914 0.23244 0.52622 0.0
H1708 H 0.88638 0.23755 0.53728 0.0
H1709 H 0.87088 0.22211 0.50731 0.0
H1710 H 0.31744 0.28283 0.62882 0.0
H1711 H 0.31127 0.26075 0.60585 0.0
H1712 H 0.35847 0.27504 0.60265 0.0
H1713 H 0.36481 0.29704 0.62527 0.0
H1714 H 0.32493 0.26142 0.56315 0.0
H1715 H 0.33529 0.22934 0.62393 0.0
H1716 H 0.33098 0.24401 0.63042 0.0
H1717 H 0.34964 0.24917 0.62203 0.0
C1718 C 0.32652 0.28134 0.6231 0.0
C1719 C 0.34162 0.29171 0.62901 0.0
C1720 C 0.32296 0.2687 0.61006 0.0
C1721 C 0.33441 0.26617 0.60297 0.0
C1722 C 0.34947 0.27669 0.60831 0.0
H1723 H 0.3565 0.21381 0.52427 0.0
H1724 H 0.3531 0.22767 0.55343 0.0
C1725 C 0.35306 0.28933 0.62115 0.0
C1726 C 0.3309 0.25273 0.58965 0.0
H1727 H 0.33436 0.22121 0.58819 0.0
C1728 C 0.32666 0.25242 0.56864 0.0
C1729 C 0.33326 0.24112 0.59698 0.0
C1730 C 0.33743 0.24079 0.61963 0.0
C1731 C 0.32561 0.24126 0.55435 0.0
C1732 C 0.32851 0.22992 0.5615 0.0
C1733 C 0.33208 0.22987 0.58278 0.0
C1734 C 0.32949 0.21912 0.54663 0.0
C1735 C 0.32236 0.24232 0.53147 0.0
C1736 C 0.31712 0.20903 0.53393 0.0
C1737 C 0.31905 0.20111 0.51721 0.0
C1738 C 0.33334 0.20303 0.51314 0.0
C1739 C 0.34534 0.212 0.52712 0.0
C1740 C 0.34342 0.22 0.54372 0.0
H1741 H 0.32343 0.25346 0.52792 0.0
H1742 H 0.33016 0.24076 0.52107 0.0
H1743 H 0.31063 0.23317 0.52756 0.0
H1744 H 0.30618 0.2079 0.53625 0.0
H1745 H 0.30959 0.19414 0.50676 0.0
H1746 H 0.74064 0.03808 0.63283 0.0
H1747 H 0.75742 0.05837 0.60919 0.0
H1748 H 0.72637 0.07482 0.60783 0.0
H1749 H 0.70954 0.05467 0.63177 0.0
H1750 H 0.75228 0.06495 0.56912 0.0
H1751 H 0.76633 0.11322 0.62456 0.0
H1752 H 0.75717 0.09366 0.63292 0.0
H1753 H 0.74649 0.10056 0.61976 0.0
C1754 C 0.7373 0.04594 0.62747 0.0
C1755 C 0.72374 0.04476 0.63437 0.0
C1756 C 0.74695 0.05757 0.61397 0.0
C1757 C 0.74332 0.06831 0.60713 0.0
C1758 C 0.72958 0.06688 0.61334 0.0
H1759 H 0.78435 0.13877 0.51416 0.0
H1760 H 0.76947 0.12331 0.54389 0.0
C1761 C 0.71989 0.05524 0.62687 0.0
C1762 C 0.75387 0.08081 0.59321 0.0
H1763 H 0.77589 0.11965 0.58981 0.0
C1764 C 0.75749 0.0769 0.57369 0.0
C1765 C 0.76063 0.09641 0.59921 0.0
C1766 C 0.75759 0.10127 0.62032 0.0
C1767 C 0.76756 0.08813 0.55992 0.0
C1768 C 0.77439 0.10371 0.56595 0.0
C1769 C 0.77071 0.10769 0.58536 0.0
C1770 C 0.78503 0.11586 0.55176 0.0
C1771 C 0.77066 0.08329 0.53881 0.0
C1772 C 0.79912 0.11748 0.54725 0.0
C1773 C 0.80766 0.12635 0.53036 0.0
C1774 C 0.80219 0.13366 0.51772 0.0
C1775 C 0.7888 0.13323 0.52364 0.0
C1776 C 0.78029 0.12439 0.54056 0.0
H1777 H 0.76245 0.07109 0.535 0.0
H1778 H 0.77025 0.0904 0.52609 0.0
H1779 H 0.78216 0.08492 0.539 0.0
H1780 H 0.80299 0.11104 0.55585 0.0
H1781 H 0.81783 0.12633 0.52607 0.0
H1782 H 0.97375 0.70385 0.61617 0.0
H1783 H 0.9535 0.69886 0.59159 0.0
H1784 H 0.93003 0.65116 0.60693 0.0
H1785 H 0.95026 0.65602 0.63175 0.0
H1786 H 0.94161 0.67785 0.55613 0.0
H1787 H 0.89876 0.66487 0.61848 0.0
H1788 H 0.91875 0.67454 0.62422 0.0
H1789 H 0.90843 0.65437 0.6188 0.0
C1790 C 0.96437 0.69225 0.61424 0.0
C1791 C 0.96362 0.68036 0.62607 0.0
C1792 C 0.95279 0.68943 0.60018 0.0
C1793 C 0.94015 0.6747 0.59774 0.0
C1794 C 0.93958 0.66266 0.60888 0.0
H1795 H 0.86022 0.64579 0.51789 0.0
H1796 H 0.87718 0.64638 0.54552 0.0
C1797 C 0.95123 0.66545 0.6229 0.0
C1798 C 0.9276 0.67216 0.5836 0.0
H1799 H 0.89112 0.66434 0.58336 0.0
C1800 C 0.93055 0.67481 0.56206 0.0
C1801 C 0.91315 0.6681 0.59139 0.0
C1802 C 0.90951 0.66538 0.6145 0.0
C1803 C 0.91951 0.67373 0.54809 0.0
C1804 C 0.90525 0.67027 0.55598 0.0
C1805 C 0.90211 0.66712 0.57742 0.0
C1806 C 0.89374 0.67036 0.54209 0.0
C1807 C 0.92322 0.67628 0.52496 0.0
C1808 C 0.89704 0.68381 0.53192 0.0
C1809 C 0.88741 0.6835 0.51625 0.0
C1810 C 0.87421 0.66975 0.51064 0.0
C1811 C 0.87025 0.65656 0.52207 0.0
C1812 C 0.87998 0.65686 0.53772 0.0
H1813 H 0.93275 0.67461 0.52074 0.0
H1814 H 0.91327 0.66843 0.51506 0.0
H1815 H 0.92658 0.68818 0.52114 0.0
H1816 H 0.90744 0.69442 0.53539 0.0
H1817 H 0.89069 0.69382 0.5077 0.0
H1818 H 0.94609 0.6537 0.71368 0.0
H1819 H 0.92497 0.64931 0.73636 0.0
H1820 H 0.94991 0.69638 0.75732 0.0
H1821 H 0.97085 0.70095 0.73457 0.0
H1822 H 0.92278 0.65279 0.77913 0.0
H1823 H 0.91082 0.69221 0.7361 0.0
H1824 H 0.92306 0.68586 0.72577 0.0
H1825 H 0.93007 0.70121 0.74497 0.0
C1826 C 0.94714 0.66308 0.72328 0.0
C1827 C 0.9601 0.67772 0.72211 0.0
C1828 C 0.93503 0.66057 0.73615 0.0
C1829 C 0.9357 0.67264 0.74804 0.0
C1830 C 0.94894 0.68703 0.74776 0.0
H1831 H 0.8866 0.6859 0.84601 0.0
H1832 H 0.90358 0.68843 0.8172 0.0
C1833 C 0.96097 0.68958 0.73485 0.0
C1834 C 0.92264 0.67029 0.76088 0.0
H1835 H 0.89924 0.6843 0.76991 0.0
C1836 C 0.91748 0.65952 0.77694 0.0
C1837 C 0.91569 0.67904 0.75791 0.0
C1838 C 0.92008 0.69012 0.74011 0.0
C1839 C 0.90601 0.65774 0.79069 0.0
C1840 C 0.89946 0.66687 0.78816 0.0
C1841 C 0.90433 0.67735 0.77179 0.0
C1842 C 0.8882 0.66626 0.80325 0.0
C1843 C 0.90135 0.64652 0.80835 0.0
C1844 C 0.8737 0.65325 0.8043 0.0
C1845 C 0.86395 0.65183 0.82064 0.0
C1846 C 0.86861 0.66338 0.8362 0.0
C1847 C 0.88275 0.67683 0.83424 0.0
C1848 C 0.89244 0.67827 0.81784 0.0
H1849 H 0.90903 0.64195 0.80998 0.0
H1850 H 0.90117 0.65199 0.82353 0.0
H1851 H 0.88976 0.63679 0.80523 0.0
H1852 H 0.87021 0.64392 0.79305 0.0
H1853 H 0.85319 0.64128 0.82187 0.0
H1854 H 0.37082 0.30683 0.73174 0.0
H1855 H 0.36682 0.28627 0.75483 0.0
H1856 H 0.31896 0.26284 0.74193 0.0
H1857 H 0.32281 0.28352 0.71884 0.0
H1858 H 0.32553 0.26255 0.78399 0.0
H1859 H 0.35793 0.24424 0.73461 0.0
H1860 H 0.36864 0.26423 0.74118 0.0
H1861 H 0.35184 0.25684 0.72521 0.0
C1862 C 0.3594 0.29738 0.73387 0.0
C1863 C 0.34715 0.29681 0.72325 0.0
C1864 C 0.35716 0.28555 0.74694 0.0
C1865 C 0.34266 0.2728 0.74958 0.0
C1866 C 0.33029 0.27248 0.73985 0.0
H1867 H 0.33138 0.19344 0.82087 0.0
H1868 H 0.32989 0.20814 0.79139 0.0
C1869 C 0.33251 0.28436 0.72676 0.0
C1870 C 0.34053 0.26003 0.76288 0.0
H1871 H 0.35366 0.23575 0.77052 0.0
C1872 C 0.33148 0.25652 0.78085 0.0
C1873 C 0.34803 0.2519 0.75856 0.0
C1874 C 0.35702 0.25437 0.73871 0.0
C1875 C 0.33056 0.24585 0.79535 0.0
C1876 C 0.33907 0.23868 0.7919 0.0
C1877 C 0.3473 0.24141 0.77324 0.0
C1878 C 0.3408 0.22971 0.80858 0.0
C1879 C 0.32081 0.24265 0.81457 0.0
C1880 C 0.34797 0.23711 0.8275 0.0
C1881 C 0.3489 0.22886 0.84403 0.0
C1882 C 0.3427 0.21301 0.84204 0.0
C1883 C 0.33623 0.20565 0.82272 0.0
C1884 C 0.33531 0.214 0.80601 0.0
H1885 H 0.31179 0.24535 0.81191 0.0
H1886 H 0.31549 0.23051 0.81912 0.0
H1887 H 0.32794 0.24989 0.82794 0.0
H1888 H 0.3526 0.24928 0.82962 0.0
H1889 H 0.3541 0.23482 0.85871 0.0
H1890 H 0.72494 0.03763 0.74704 0.0
H1891 H 0.74066 0.0595 0.77014 0.0
H1892 H 0.72614 0.08637 0.73715 0.0
H1893 H 0.7102 0.0644 0.71389 0.0
H1894 H 0.75935 0.09927 0.74152 0.0
H1895 H 0.72835 0.0806 0.81698 0.0
H1896 H 0.73064 0.06628 0.8035 0.0
H1897 H 0.71936 0.07301 0.79169 0.0
C1898 C 0.72485 0.04809 0.74491 0.0
C1899 C 0.71631 0.04928 0.72864 0.0
C1900 C 0.73382 0.06057 0.75815 0.0
C1901 C 0.73451 0.0745 0.75535 0.0
C1902 C 0.72569 0.07566 0.73956 0.0
H1903 H 0.78773 0.1436 0.85099 0.0
H1904 H 0.76916 0.13119 0.82255 0.0
C1905 C 0.71652 0.06308 0.72641 0.0
C1906 C 0.74525 0.08798 0.76817 0.0
H1907 H 0.75437 0.10026 0.81914 0.0
C1908 C 0.75816 0.0997 0.75845 0.0
C1909 C 0.74359 0.08853 0.79018 0.0
C1910 C 0.72968 0.0765 0.80124 0.0
C1911 C 0.7699 0.11154 0.77041 0.0
C1912 C 0.76868 0.11152 0.79259 0.0
C1913 C 0.75535 0.10026 0.80213 0.0
C1914 C 0.78147 0.12207 0.80652 0.0
C1915 C 0.78362 0.12375 0.75924 0.0
C1916 C 0.79486 0.12161 0.80645 0.0
C1917 C 0.8055 0.12874 0.82266 0.0
C1918 C 0.80283 0.13629 0.8393 0.0
C1919 C 0.79002 0.13779 0.83839 0.0
C1920 C 0.77941 0.1307 0.82218 0.0
H1921 H 0.78083 0.1251 0.74284 0.0
H1922 H 0.78853 0.13492 0.76772 0.0
H1923 H 0.79232 0.12044 0.75848 0.0
H1924 H 0.79656 0.11477 0.79479 0.0
H1925 H 0.81515 0.1272 0.8231 0.0
H1926 H 0.05719 0.37448 0.01473 0.0
H1927 H 0.07863 0.37216 0.02623 0.0
H1928 H 0.04811 0.33099 0.05896 0.0
H1929 H 0.02669 0.33322 0.04766 0.0
H1930 H 0.08691 0.36988 0.06973 0.0
H1931 H 0.07354 0.31916 0.01997 0.0
H1932 H 0.06604 0.33135 0.01456 0.0
H1933 H 0.05801 0.31755 0.03505 0.0
C1934 C 0.05506 0.36496 0.02444 0.0
C1935 C 0.04023 0.35402 0.03025 0.0
C1936 C 0.06731 0.36364 0.03094 0.0
C1937 C 0.06492 0.35126 0.04313 0.0
C1938 C 0.05017 0.34048 0.04924 0.0
H1939 H 0.11185 0.31645 0.10953 0.0
H1940 H 0.09477 0.32047 0.08758 0.0
C1941 C 0.03795 0.34184 0.04289 0.0
C1942 C 0.07781 0.34972 0.05002 0.0
H1943 H 0.09199 0.32597 0.04696 0.0
C1944 C 0.08819 0.36042 0.06456 0.0
C1945 C 0.07937 0.33733 0.04326 0.0
C1946 C 0.06874 0.32573 0.02721 0.0
C1947 C 0.09969 0.35866 0.07336 0.0
C1948 C 0.10112 0.34608 0.0669 0.0
C1949 C 0.09098 0.33565 0.05182 0.0
C1950 C 0.11209 0.34278 0.07712 0.0
C1951 C 0.10963 0.36983 0.09036 0.0
C1952 C 0.12766 0.35362 0.0777 0.0
C1953 C 0.13742 0.35133 0.09037 0.0
C1954 C 0.13178 0.33802 0.10214 0.0
C1955 C 0.11646 0.32668 0.10024 0.0
C1956 C 0.10671 0.32902 0.08781 0.0
H1957 H 0.10478 0.37655 0.09689 0.0
H1958 H 0.11136 0.36383 0.10348 0.0
H1959 H 0.12083 0.37796 0.08363 0.0
H1960 H 0.13215 0.36415 0.06917 0.0
H1961 H 0.14915 0.36031 0.09189 0.0
H1962 H 0.67941 0.6957 0.05697 0.0
H1963 H 0.68176 0.71964 0.06973 0.0
H1964 H 0.64786 0.71405 0.02492 0.0
H1965 H 0.6456 0.69027 0.01191 0.0
H1966 H 0.67314 0.74374 0.02647 0.0
H1967 H 0.65056 0.72279 0.10621 0.0
H1968 H 0.66625 0.72067 0.09894 0.0
H1969 H 0.64868 0.71011 0.08471 0.0
C1970 C 0.67243 0.69955 0.04991 0.0
C1971 C 0.66226 0.69107 0.03354 0.0
C1972 C 0.67375 0.7132 0.05723 0.0
C1973 C 0.66485 0.71851 0.04841 0.0
C1974 C 0.6548 0.71013 0.03195 0.0
H1975 H 0.65107 0.78578 0.11206 0.0
H1976 H 0.64684 0.76409 0.08982 0.0
C1977 C 0.65349 0.69652 0.0246 0.0
C1978 C 0.66591 0.73275 0.05642 0.0
H1979 H 0.66105 0.74921 0.10056 0.0
C1980 C 0.67043 0.74495 0.04264 0.0
C1981 C 0.66216 0.73418 0.07742 0.0
C1982 C 0.65651 0.72121 0.09266 0.0
C1983 C 0.67159 0.75869 0.04945 0.0
C1984 C 0.6683 0.76028 0.07064 0.0
C1985 C 0.66356 0.74798 0.08429 0.0
C1986 C 0.67005 0.77466 0.07947 0.0
C1987 C 0.67618 0.7713 0.03389 0.0
C1988 C 0.68431 0.78809 0.08016 0.0
C1989 C 0.68666 0.80058 0.09259 0.0
C1990 C 0.67482 0.7997 0.10468 0.0
C1991 C 0.66031 0.78674 0.10268 0.0
C1992 C 0.65793 0.77433 0.09012 0.0
H1993 H 0.67392 0.76681 0.01741 0.0
H1994 H 0.67013 0.77754 0.03684 0.0
H1995 H 0.68849 0.77954 0.0355 0.0
H1996 H 0.6939 0.7885 0.07243 0.0
H1997 H 0.69801 0.81035 0.09424 0.0
H1998 H 0.31024 0.98585 0.04874 0.0
H1999 H 0.2858 0.96482 0.0607 0.0
H2000 H 0.28998 0.93376 0.01829 0.0
H2001 H 0.31433 0.95462 0.00626 0.0
H2002 H 0.2586 0.94361 0.034 0.0
H2003 H 0.28326 0.91501 0.07866 0.0
H2004 H 0.2942 0.93485 0.07156 0.0
H2005 H 0.28968 0.92016 0.05206 0.0
C2006 C 0.30597 0.97453 0.04202 0.0
C2007 C 0.31425 0.97187 0.02665 0.0
C2008 C 0.29199 0.96257 0.04878 0.0
C2009 C 0.28615 0.94775 0.04042 0.0
C2010 C 0.29436 0.94509 0.02503 0.0
H2011 H 0.2126 0.86118 0.08367 0.0
H2012 H 0.23125 0.88008 0.05989 0.0
C2013 C 0.30827 0.95704 0.01819 0.0
C2014 C 0.27163 0.93497 0.04809 0.0
H2015 H 0.25679 0.90251 0.07674 0.0
C2016 C 0.25815 0.93458 0.04331 0.0
C2017 C 0.27111 0.92318 0.06008 0.0
C2018 C 0.28531 0.92328 0.06608 0.0
C2019 C 0.2441 0.92264 0.05021 0.0
C2020 C 0.24359 0.91097 0.06257 0.0
C2021 C 0.25711 0.91133 0.06708 0.0
C2022 C 0.22951 0.89895 0.07257 0.0
C2023 C 0.22995 0.92257 0.04402 0.0
C2024 C 0.22166 0.90305 0.08676 0.0
C2025 C 0.2108 0.8922 0.10009 0.0
C2026 C 0.20778 0.87709 0.09978 0.0
C2027 C 0.21456 0.87268 0.08419 0.0
C2028 C 0.22536 0.88353 0.07073 0.0
H2029 H 0.23153 0.92868 0.02905 0.0
H2030 H 0.22017 0.91076 0.04217 0.0
H2031 H 0.22726 0.92857 0.05645 0.0
H2032 H 0.22478 0.91487 0.08879 0.0
H2033 H 0.20572 0.89592 0.11192 0.0
H2034 H 0.33453 0.02732 0.97011 0.0
H2035 H 0.33469 0.05043 0.96027 0.0
H2036 H 0.37484 0.07771 0.9978 0.0
H2037 H 0.37474 0.05451 0.0079 0.0
H2038 H 0.33501 0.07388 0.99052 0.0
H2039 H 0.38409 0.09602 0.9361 0.0
H2040 H 0.37314 0.0761 0.94279 0.0
H2041 H 0.38585 0.08987 0.9618 0.0
C2042 C 0.34345 0.03822 0.97624 0.0
C2043 C 0.35466 0.03907 0.98973 0.0
C2044 C 0.34348 0.05141 0.97066 0.0
C2045 C 0.35478 0.06575 0.97827 0.0
C2046 C 0.36606 0.06672 0.99168 0.0
H2047 H 0.36915 0.15162 0.92834 0.0
H2048 H 0.37157 0.13437 0.9522 0.0
C2049 C 0.36598 0.05348 0.99742 0.0
C2050 C 0.35466 0.0796 0.97192 0.0
H2051 H 0.37131 0.10949 0.93833 0.0
C2052 C 0.34305 0.0818 0.9793 0.0
C2053 C 0.36522 0.08996 0.95745 0.0
C2054 C 0.37778 0.08795 0.94891 0.0
C2055 C 0.34149 0.09389 0.97216 0.0
C2056 C 0.35159 0.10379 0.95681 0.0
C2057 C 0.36358 0.10194 0.95011 0.0
C2058 C 0.34913 0.11514 0.94587 0.0
C2059 C 0.32899 0.09583 0.98107 0.0
C2060 C 0.33555 0.11027 0.93492 0.0
C2061 C 0.33408 0.12016 0.92153 0.0
C2062 C 0.34625 0.13508 0.91852 0.0
C2063 C 0.35951 0.14027 0.9305 0.0
C2064 C 0.36095 0.13036 0.944 0.0
H2065 H 0.3262 0.09152 0.99739 0.0
H2066 H 0.33206 0.10797 0.98118 0.0
H2067 H 0.31865 0.08909 0.9713 0.0
H2068 H 0.32637 0.09853 0.93567 0.0
H2069 H 0.32373 0.11583 0.91252 0.0
H2070 H 0.99058 0.31395 0.96239 0.0
H2071 H 0.96995 0.28968 0.94801 0.0
H2072 H 0.93837 0.29333 0.9888 0.0
H2073 H 0.95886 0.3174 0.00335 0.0
H2074 H 0.93517 0.26416 0.98838 0.0
H2075 H 0.93665 0.28498 0.90762 0.0
H2076 H 0.95436 0.28792 0.91714 0.0
H2077 H 0.94606 0.29777 0.92971 0.0
C2078 C 0.97923 0.30961 0.96818 0.0
C2079 C 0.97633 0.31763 0.98391 0.0
C2080 C 0.96746 0.29577 0.95995 0.0
C2081 C 0.95262 0.28978 0.96724 0.0
C2082 C 0.94974 0.29774 0.98297 0.0
H2083 H 0.8719 0.22233 0.90233 0.0
H2084 H 0.89002 0.24398 0.92426 0.0
C2085 C 0.96146 0.31154 0.99119 0.0
C2086 C 0.94 0.27526 0.95844 0.0
H2087 H 0.92009 0.25868 0.91321 0.0
C2088 C 0.93185 0.26293 0.97195 0.0
C2089 C 0.9356 0.27378 0.93707 0.0
C2090 C 0.94351 0.28683 0.92203 0.0
C2091 C 0.91945 0.24908 0.96458 0.0
C2092 C 0.91521 0.24754 0.94313 0.0
C2093 C 0.92335 0.2599 0.92968 0.0
C2094 C 0.90244 0.23326 0.934 0.0
C2095 C 0.91084 0.23633 0.97983 0.0
C2096 C 0.90298 0.21978 0.93302 0.0
C2097 C 0.8925 0.20732 0.92067 0.0
C2098 C 0.88147 0.20827 0.90898 0.0
C2099 C 0.88025 0.22131 0.9113 0.0
C2100 C 0.89065 0.2337 0.9237 0.0
H2101 H 0.91307 0.24055 0.99644 0.0
H2102 H 0.8985 0.23046 0.97673 0.0
H2103 H 0.91442 0.22781 0.97789 0.0
H2104 H 0.91211 0.21928 0.94056 0.0
H2105 H 0.89383 0.1975 0.91883 0.0
H2106 H 0.68901 0.63617 0.01735 0.0
H2107 H 0.71209 0.63677 0.00592 0.0
H2108 H 0.7197 0.67044 0.95979 0.0
H2109 H 0.69677 0.66992 0.971 0.0
H2110 H 0.72095 0.64442 0.94441 0.0
H2111 H 0.75719 0.67201 0.01525 0.0
H2112 H 0.7385 0.65596 0.01947 0.0
H2113 H 0.74075 0.67336 0.00962 0.0
C2114 C 0.69562 0.64371 0.00479 0.0
C2115 C 0.69105 0.65298 0.99505 0.0
C2116 C 0.70885 0.64412 -0.00159 0.0
C2117 C 0.71768 0.65379 0.9822 0.0
C2118 C 0.71309 0.66297 0.97242 0.0
H2119 H 0.79975 0.68331 0.91705 0.0
H2120 H 0.7809 0.68158 0.94224 0.0
C2121 C 0.69995 0.66263 0.97882 0.0
C2122 C 0.73133 0.6539 0.97453 0.0
H2123 H 0.76787 0.66519 0.98722 0.0
C2124 C 0.73116 0.64882 0.95382 0.0
C2125 C 0.74464 0.65976 0.98686 0.0
C2126 C 0.74544 0.6657 0.00901 0.0
C2127 C 0.74401 0.6496 0.94499 0.0
C2128 C 0.75735 0.65553 0.95723 0.0
C2129 C 0.75754 0.6605 0.97802 0.0
C2130 C 0.77135 0.65751 0.94774 0.0
C2131 C 0.7434 0.64448 0.92237 0.0
C2132 C 0.77275 0.64475 0.94356 0.0
C2133 C 0.78356 0.64573 0.92927 0.0
C2134 C 0.79299 0.65947 0.91888 0.0
C2135 C 0.79263 0.67261 0.92488 0.0
C2136 C 0.78187 0.67163 0.93923 0.0
H2137 H 0.73262 0.6415 0.91444 0.0
H2138 H 0.7529 0.65361 0.91337 0.0
H2139 H 0.74463 0.63429 0.92183 0.0
H2140 H 0.76467 0.63375 0.94995 0.0
H2141 H 0.78347 0.6354 0.92478 0.0
H2142 H 0.94653 0.62943 0.01053 0.0
H2143 H 0.92393 0.62895 0.99706 0.0
H2144 H 0.95191 0.66624 0.9562 0.0
H2145 H 0.97436 0.66677 0.96934 0.0
H2146 H 0.91756 0.6541 0.99624 0.0
H2147 H 0.91997 0.63218 0.91658 0.0
H2148 H 0.92989 0.63072 0.93897 0.0
H2149 H 0.93745 0.64846 0.9254 0.0
C2150 C 0.94783 0.63748 -0.00137 0.0
C2151 C 0.96222 0.64805 0.99089 0.0
C2152 C 0.93494 0.63723 0.99102 0.0
C2153 C 0.93626 0.64745 0.97548 0.0
C2154 C 0.95062 0.65811 0.96797 0.0
H2155 H 0.88563 0.6792 0.91193 0.0
H2156 H 0.90254 0.67615 0.93575 0.0
C2157 C 0.96345 0.65839 0.97555 0.0
C2158 C 0.92273 0.64707 0.96677 0.0
H2159 H 0.90386 0.64241 0.92058 0.0
C2160 C 0.91441 0.65135 0.97978 0.0
C2161 C 0.91864 0.64343 0.9453 0.0
C2162 C 0.92686 0.6383 0.93075 0.0
C2163 C 0.90248 0.65269 0.97158 0.0
C2164 C 0.8988 0.64958 0.94998 0.0
C2165 C 0.90676 0.6448 0.93717 0.0
C2166 C 0.88729 0.65196 0.93986 0.0
C2167 C 0.89402 0.65769 0.98578 0.0
C2168 C 0.87295 0.63946 0.93492 0.0
C2169 C 0.86322 0.64119 0.92147 0.0
C2170 C 0.86782 0.65542 0.91251 0.0
C2171 C 0.88179 0.66812 0.91865 0.0
C2172 C 0.89145 0.6664 0.93224 0.0
H2173 H 0.89742 0.65851 0.00256 0.0
H2174 H 0.8962 0.66902 0.98083 0.0
H2175 H 0.88167 0.64952 0.98428 0.0
H2176 H 0.86964 0.6282 0.94052 0.0
H2177 H 0.85262 0.63117 0.91678 0.0
H2178 H 0.36392 0.31813 0.00031 0.0
H2179 H 0.3589 0.29313 0.98795 0.0
H2180 H 0.318 0.28496 0.95745 0.0
H2181 H 0.32329 0.31025 0.96912 0.0
H2182 H 0.33593 0.26487 0.99565 0.0
H2183 H 0.33796 0.27573 0.91002 0.0
H2184 H 0.34397 0.29076 0.92961 0.0
H2185 H 0.32419 0.2783 0.9238 0.0
C2186 C 0.35394 0.31108 0.99078 0.0
C2187 C 0.34407 0.3162 0.98548 0.0
C2188 C 0.35104 0.29675 0.98383 0.0
C2189 C 0.33818 0.28722 0.97155 0.0
C2190 C 0.32819 0.29224 0.96646 0.0
H2191 H 0.31083 0.2011 0.9075 0.0
H2192 H 0.30858 0.21969 0.92964 0.0
C2193 C 0.3312 0.30668 0.97317 0.0
C2194 C 0.33531 0.27206 0.96414 0.0
H2195 H 0.33072 0.2507 0.91977 0.0
C2196 C 0.33475 0.26175 0.97906 0.0
C2197 C 0.3338 0.26799 0.94248 0.0
C2198 C 0.33515 0.27882 0.92553 0.0
C2199 C 0.33282 0.24756 0.97287 0.0
C2200 C 0.3314 0.2436 0.95125 0.0
C2201 C 0.33163 0.25373 0.93639 0.0
C2202 C 0.33094 0.22965 0.94324 0.0
C2203 C 0.33237 0.23692 0.98941 0.0
C2204 C 0.34394 0.22853 0.9445 0.0
C2205 C 0.34526 0.21792 0.93183 0.0
C2206 C 0.33363 0.20838 0.91764 0.0
C2207 C 0.31997 0.20835 0.91825 0.0
C2208 C 0.31869 0.219 0.93083 0.0
H2209 H 0.32999 0.23993 0.00528 0.0
H2210 H 0.32365 0.22492 0.98545 0.0
H2211 H 0.34349 0.23768 0.99004 0.0
H2212 H 0.3536 0.23677 0.95377 0.0
H2213 H 0.35597 0.21834 0.93152 0.0
H2214 H 0.69684 0.01896 0.96975 0.0
H2215 H 0.7212 0.03929 0.95658 0.0
H2216 H 0.71625 0.07269 0.99246 0.0
H2217 H 0.69196 0.05244 0.00589 0.0
H2218 H 0.72429 0.07801 0.94559 0.0
H2219 H 0.76144 0.06559 0.99414 0.0
H2220 H 0.74539 0.04971 0.98127 0.0
H2221 H 0.74246 0.06007 0.00199 0.0
C2222 C 0.70092 0.03063 0.97481 0.0
C2223 C 0.69249 0.03411 0.98887 0.0
C2224 C 0.71487 0.0422 0.96737 0.0
C2225 C 0.72056 0.05743 0.97377 0.0
C2226 C 0.71207 0.06097 0.9875 0.0
H2227 H 0.79582 0.14185 0.92451 0.0
H2228 H 0.77481 0.124 0.94677 0.0
C2229 C 0.6982 0.0494 0.99511 0.0
C2230 C 0.73518 0.06971 0.96561 0.0
H2231 H 0.77331 0.08455 0.96839 0.0
C2232 C 0.73504 0.07956 0.95065 0.0
C2233 C 0.7491 0.07153 0.97217 0.0
C2234 C 0.74975 0.06125 0.98837 0.0
C2235 C 0.74847 0.09099 0.94159 0.0
C2236 C 0.7625 0.09298 0.94829 0.0
C2237 C 0.76261 0.08316 0.96344 0.0
C2238 C 0.77703 0.10454 0.9387 0.0
C2239 C 0.7474 0.10035 0.92427 0.0
C2240 C 0.78605 0.09984 0.92826 0.0
C2241 C 0.79833 0.11015 0.91616 0.0
C2242 C 0.80175 0.12527 0.91431 0.0
C2243 C 0.79346 0.13027 0.92598 0.0
C2244 C 0.78133 0.12002 0.93837 0.0
H2245 H 0.73588 0.09469 0.91722 0.0
H2246 H 0.74994 0.11156 0.93088 0.0
H2247 H 0.7556 0.10237 0.91155 0.0
H2248 H 0.78302 0.08799 0.92835 0.0
H2249 H 0.80441 0.10601 0.90694 0.0
H2250 H 0.63515 0.95231 0.01354 0.0
H2251 H 0.63711 0.93033 0.02417 0.0
H2252 H 0.67741 0.96038 0.0599 0.0
H2253 H 0.67551 0.9823 0.0496 0.0
H2254 H 0.67563 0.93486 0.0261 0.0
H2255 H 0.6337 0.91653 0.09113 0.0
H2256 H 0.63004 0.92265 0.0665 0.0
H2257 H 0.64466 0.9363 0.08368 0.0
C2258 C 0.64437 0.95422 0.02374 0.0
C2259 C 0.65514 0.96905 0.03079 0.0
C2260 C 0.6455 0.94167 0.02973 0.0
C2261 C 0.65745 0.9438 0.04272 0.0
C2262 C 0.66815 0.95855 0.04979 0.0
H2263 H 0.6954 0.89535 0.09934 0.0
H2264 H 0.69102 0.91218 0.07739 0.0
C2265 C 0.66699 0.97104 0.04396 0.0
C2266 C 0.65876 0.93068 0.04934 0.0
H2267 H 0.6469 0.9036 0.08702 0.0
C2268 C 0.66925 0.92787 0.03926 0.0
C2269 C 0.65037 0.9216 0.0664 0.0
C2270 C 0.63904 0.92432 0.0777 0.0
C2271 C 0.67172 0.91627 0.04605 0.0
C2272 C 0.66377 0.90755 0.06375 0.0
C2273 C 0.65299 0.91019 0.07342 0.0
C2274 C 0.66698 0.89632 0.07348 0.0
C2275 C 0.68277 0.91347 0.03411 0.0
C2276 C 0.65503 0.88168 0.07845 0.0
C2277 C 0.65752 0.87217 0.09128 0.0
C2278 C 0.67204 0.87704 0.09916 0.0
C2279 C 0.68418 0.8912 0.093 0.0
C2280 C 0.68166 0.90082 0.08043 0.0
H2281 H 0.68354 0.91681 0.01739 0.0
H2282 H 0.69418 0.92055 0.04126 0.0
H2283 H 0.67956 0.9013 0.03459 0.0
H2284 H 0.64361 0.87793 0.07336 0.0
H2285 H 0.64795 0.86139 0.09611 0.0
H2286 H 0.01329 0.6927 0.05317 0.0
H2287 H 0.03344 0.71783 0.06566 0.0
H2288 H 0.06567 0.71317 0.02767 0.0
H2289 H 0.04554 0.68827 0.01469 0.0
H2290 H 0.05853 0.72547 0.08745 0.0
H2291 H 0.07485 0.75497 0.01112 0.0
H2292 H 0.05778 0.7367 0.01428 0.0
H2293 H 0.07567 0.73783 0.01081 0.0
C2294 C 0.02467 0.69706 0.04745 0.0
C2295 C 0.02783 0.68856 0.03288 0.0
C2296 C 0.03616 0.71143 0.05454 0.0
C2297 C 0.051 0.71756 0.04721 0.0
C2298 C 0.05423 0.70891 0.03303 0.0
H2299 H 0.13748 0.78845 0.09107 0.0
H2300 H 0.1167 0.76862 0.06985 0.0
C2301 C 0.04273 0.6946 0.0258 0.0
C2302 C 0.06325 0.73262 0.05524 0.0
H2303 H 0.09207 0.76753 0.03997 0.0
C2304 C 0.06573 0.73472 0.07707 0.0
C2305 C 0.07264 0.74472 0.04168 0.0
C2306 C 0.07002 0.74352 0.01819 0.0
C2307 C 0.07761 0.74836 0.08566 0.0
C2308 C 0.0872 0.76028 0.07208 0.0
C2309 C 0.08466 0.75834 0.05028 0.0
C2310 C 0.10033 0.77447 0.08052 0.0
C2311 C 0.0801 0.74982 0.10921 0.0
C2312 C 0.09815 0.78483 0.09252 0.0
C2313 C 0.11003 0.79627 0.10452 0.0
C2314 C 0.12424 0.79744 0.10476 0.0
C2315 C 0.12673 0.78796 0.0911 0.0
C2316 C 0.11484 0.77654 0.07906 0.0
H2317 H 0.073 0.7388 0.11722 0.0
H2318 H 0.09215 0.75412 0.11299 0.0
H2319 H 0.07725 0.7582 0.11571 0.0
H2320 H 0.08703 0.78345 0.09368 0.0
H2321 H 0.10783 0.80351 0.11475 0.0
H2322 H 0.31205 0.33682 0.04878 0.0
H2323 H 0.28959 0.33663 0.06143 0.0
H2324 H 0.30035 0.37523 0.02282 0.0
H2325 H 0.32285 0.37534 0.00973 0.0
H2326 H 0.28818 0.35924 0.08305 0.0
H2327 H 0.25586 0.3452 0.00794 0.0
H2328 H 0.272 0.34294 0.01116 0.0
H2329 H 0.27467 0.36156 0.0073 0.0
C2330 C 0.30966 0.34527 0.04291 0.0
C2331 C 0.31924 0.3561 0.02823 0.0
C2332 C 0.29679 0.34513 0.05015 0.0
C2333 C 0.29316 0.35577 0.04286 0.0
C2334 C 0.30276 0.3667 0.02833 0.0
H2335 H 0.22883 0.36946 0.11478 0.0
H2336 H 0.25011 0.37474 0.09194 0.0
C2337 C 0.31567 0.36684 0.02101 0.0
C2338 C 0.27965 0.35565 0.05131 0.0
H2339 H 0.24501 0.35 0.03784 0.0
C2340 C 0.27879 0.35732 0.07315 0.0
C2341 C 0.26733 0.35295 0.03837 0.0
C2342 C 0.26737 0.35042 0.0149 0.0
C2343 C 0.26592 0.35621 0.08247 0.0
C2344 C 0.25366 0.35373 0.06954 0.0
C2345 C 0.25451 0.35213 0.04766 0.0
C2346 C 0.23958 0.35179 0.07888 0.0
C2347 C 0.26535 0.35713 0.10619 0.0
C2348 C 0.22617 0.33749 0.07783 0.0
C2349 C 0.2139 0.33454 0.0906 0.0
C2350 C 0.21492 0.34584 0.10462 0.0
C2351 C 0.22778 0.36057 0.10409 0.0
C2352 C 0.23997 0.36355 0.09119 0.0
H2353 H 0.27412 0.35557 0.11389 0.0
H2354 H 0.26734 0.36852 0.11102 0.0
H2355 H 0.25411 0.34834 0.11214 0.0
H2356 H 0.22562 0.32828 0.06837 0.0
H2357 H 0.20418 0.32306 0.09089 0.0
H2358 H 0.69549 0.67164 0.38404 0.0
H2359 H 0.71737 0.67105 0.39743 0.0
H2360 H 0.74637 0.70682 0.35512 0.0
H2361 H 0.72444 0.70746 0.3415 0.0
H2362 H 0.75109 0.6811 0.35616 0.0
H2363 H 0.75095 0.70427 0.43584 0.0
H2364 H 0.73306 0.68831 0.42757 0.0
H2365 H 0.74096 0.70599 0.41377 0.0
C2366 C 0.70652 0.67946 0.37764 0.0
C2367 C 0.70823 0.68967 0.36179 0.0
C2368 C 0.71902 0.67911 0.38534 0.0
C2369 C 0.73351 0.68898 0.3774 0.0
C2370 C 0.73528 0.69913 0.36148 0.0
H2371 H 0.81302 0.70314 0.44438 0.0
H2372 H 0.79639 0.70748 0.42191 0.0
C2373 C 0.72276 0.69953 0.3538 0.0
C2374 C 0.74674 0.68863 0.38582 0.0
H2375 H 0.76655 0.69362 0.43114 0.0
C2376 C 0.75459 0.68397 0.3725 0.0
C2377 C 0.75135 0.6925 0.40708 0.0
C2378 C 0.74375 0.69818 0.42189 0.0
C2379 C 0.76669 0.68265 0.38008 0.0
C2380 C 0.77094 0.686 0.40155 0.0
C2381 C 0.7633 0.69104 0.41467 0.0
C2382 C 0.78291 0.68397 0.41117 0.0
C2383 C 0.77484 0.67775 0.36506 0.0
C2384 C 0.78129 0.66944 0.4119 0.0
C2385 C 0.79092 0.66699 0.42459 0.0
C2386 C 0.80219 0.67899 0.43691 0.0
C2387 C 0.80447 0.69372 0.43496 0.0
C2388 C 0.79492 0.69618 0.42222 0.0
H2389 H 0.77325 0.67991 0.34844 0.0
H2390 H 0.78712 0.6838 0.36867 0.0
H2391 H 0.77022 0.66532 0.36659 0.0
H2392 H 0.77195 0.65978 0.40386 0.0
H2393 H 0.78875 0.65547 0.4261 0.0
H2394 H 0.31938 0.0282 0.33752 0.0
H2395 H 0.3223 0.05232 0.35 0.0
H2396 H 0.34021 0.04786 0.40902 0.0
H2397 H 0.33803 0.02404 0.39609 0.0
H2398 H 0.30988 0.05889 0.38011 0.0
H2399 H 0.37131 0.09054 0.39597 0.0
H2400 H 0.36198 0.07238 0.38216 0.0
H2401 H 0.36205 0.07325 0.41055 0.0
C2402 C 0.32404 0.03241 0.35312 0.0
C2403 C 0.32857 0.02431 0.36581 0.0
C2404 C 0.3257 0.04622 0.36024 0.0
C2405 C 0.33176 0.05213 0.3803 0.0
C2406 C 0.33598 0.04384 0.39321 0.0
H2407 H 0.3178 0.11228 0.45828 0.0
H2408 H 0.31484 0.09168 0.43512 0.0
C2409 C 0.3346 0.03015 0.38591 0.0
C2410 C 0.3331 0.06663 0.38793 0.0
H2411 H 0.35721 0.10083 0.41201 0.0
C2412 C 0.32031 0.06814 0.38683 0.0
C2413 C 0.34677 0.07893 0.39619 0.0
C2414 C 0.36133 0.07877 0.39606 0.0
C2415 C 0.32063 0.08128 0.39456 0.0
C2416 C 0.33395 0.09302 0.4044 0.0
C2417 C 0.34692 0.0918 0.40467 0.0
C2418 C 0.33441 0.10602 0.41607 0.0
C2419 C 0.30669 0.08241 0.39198 0.0
C2420 C 0.34635 0.12106 0.4131 0.0
C2421 C 0.3483 0.13286 0.42677 0.0
C2422 C 0.33833 0.12979 0.44365 0.0
C2423 C 0.32576 0.11497 0.44555 0.0
C2424 C 0.32394 0.10318 0.43211 0.0
H2425 H 0.3003 0.07617 0.37752 0.0
H2426 H 0.29912 0.07702 0.40559 0.0
H2427 H 0.30954 0.09445 0.39109 0.0
H2428 H 0.35459 0.12354 0.40084 0.0
H2429 H 0.35818 0.14411 0.425 0.0
H2430 H 0.98692 0.31593 0.38973 0.0
H2431 H 0.96394 0.29401 0.40364 0.0
H2432 H 0.95424 0.27195 0.34235 0.0
H2433 H 0.97758 0.29336 0.32882 0.0
H2434 H 0.93522 0.28143 0.39554 0.0
H2435 H 0.95123 0.23847 0.37637 0.0
H2436 H 0.96428 0.25865 0.37387 0.0
H2437 H 0.95057 0.24806 0.35341 0.0
C2438 C 0.9799 0.30635 0.3793 0.0
C2439 C 0.98412 0.30623 0.35829 0.0
C2440 C 0.96675 0.29384 0.38722 0.0
C2441 C 0.95748 0.2811 0.3742 0.0
C2442 C 0.96142 0.28133 0.35296 0.0
H2443 H 0.86739 0.21217 0.42184 0.0
H2444 H 0.88695 0.23164 0.39909 0.0
C2445 C 0.97473 0.29364 0.34519 0.0
C2446 C 0.94375 0.26762 0.38285 0.0
H2447 H 0.92614 0.22893 0.38794 0.0
C2448 C 0.93324 0.26995 0.3939 0.0
C2449 C 0.9412 0.25261 0.3809 0.0
C2450 C 0.95249 0.2493 0.37069 0.0
C2451 C 0.92045 0.2578 0.40332 0.0
C2452 C 0.91772 0.24275 0.40091 0.0
C2453 C 0.92808 0.2404 0.38952 0.0
C2454 C 0.90523 0.22957 0.41208 0.0
C2455 C 0.91042 0.26137 0.41656 0.0
C2456 C 0.90876 0.2212 0.42582 0.0
C2457 C 0.89759 0.20986 0.43821 0.0
C2458 C 0.88264 0.20664 0.43716 0.0
C2459 C 0.87884 0.21436 0.42266 0.0
C2460 C 0.89005 0.22565 0.40998 0.0
H2461 H 0.91613 0.27367 0.42106 0.0
H2462 H 0.9001 0.25848 0.40742 0.0
H2463 H 0.90693 0.25461 0.43118 0.0
H2464 H 0.92033 0.22393 0.42775 0.0
H2465 H 0.90079 0.20418 0.44954 0.0
H2466 H 0.00429 0.36282 0.30126 0.0
H2467 H 0.00533 0.38635 0.29132 0.0
H2468 H 0.04539 0.41261 0.32943 0.0
H2469 H 0.04446 0.38902 0.33951 0.0
H2470 H 0.00538 0.40947 0.31942 0.0
H2471 H 0.05685 0.43193 0.2697 0.0
H2472 H 0.04583 0.41209 0.27676 0.0
H2473 H 0.05794 0.42617 0.29595 0.0
C2474 C 0.01337 0.37358 0.30751 0.0
C2475 C 0.02434 0.37404 0.32111 0.0
C2476 C 0.0139 0.38702 0.30186 0.0
C2477 C 0.02547 0.40122 0.30954 0.0
C2478 C 0.03644 0.40177 0.32317 0.0
H2479 H 0.0436 0.48906 0.26126 0.0
H2480 H 0.04448 0.47101 0.2854 0.0
C2481 C 0.03588 0.38829 0.32893 0.0
C2482 C 0.02594 0.41536 0.30303 0.0
H2483 H 0.04485 0.44618 0.27135 0.0
C2484 C 0.0141 0.41761 0.30909 0.0
C2485 C 0.03738 0.42602 0.28973 0.0
C2486 C 0.05021 0.42399 0.28248 0.0
C2487 C 0.01318 0.43002 0.30175 0.0
C2488 C 0.02421 0.44027 0.28757 0.0
C2489 C 0.03641 0.43836 0.28225 0.0
C2490 C 0.02255 0.45198 0.27627 0.0
C2491 C 1.00032 0.43195 0.30914 0.0
C2492 C 0.00974 0.44745 0.26359 0.0
C2493 C 0.00918 0.45776 0.25 0.0
C2494 C 0.02147 0.47279 0.24858 0.0
C2495 C 0.03388 0.47762 0.26221 0.0
C2496 C 0.03445 0.46727 0.27586 0.0
H2497 H 0.99647 0.42712 0.32504 0.0
H2498 H 1.00359 0.44415 0.30964 0.0
H2499 H 0.99061 0.42568 0.29815 0.0
H2500 H 1.00055 0.43569 0.26321 0.0
H2501 H 0.99948 0.45371 0.23963 0.0
H2502 H 0.62717 0.64878 0.33658 0.0
H2503 H 0.60733 0.62391 0.32323 0.0
H2504 H 0.63854 0.62293 0.27876 0.0
H2505 H 0.65858 0.64797 0.29208 0.0
H2506 H 0.61021 0.6154 0.26137 0.0
H2507 H 0.60334 0.58202 0.33284 0.0
H2508 H 0.60265 0.59904 0.33776 0.0
H2509 H 0.61982 0.60055 0.32836 0.0
C2510 C 0.62985 0.6433 0.32396 0.0
C2511 C 0.64446 0.65033 0.3154 0.0
C2512 C 0.61852 0.62901 0.31648 0.0
C2513 C 0.62154 0.62145 0.30031 0.0
C2514 C 0.63604 0.62853 0.29143 0.0
H2515 H 0.56299 0.5294 0.25012 0.0
H2516 H 0.58242 0.55133 0.27057 0.0
C2517 C 0.64745 0.64283 0.299 0.0
C2518 C 0.60933 0.60646 0.29211 0.0
H2519 H 0.58403 0.5699 0.30656 0.0
C2520 C 0.60455 0.60543 0.2712 0.0
C2521 C 0.60208 0.59343 0.30491 0.0
C2522 C 0.6073 0.59371 0.32716 0.0
C2523 C 0.59242 0.59182 0.2629 0.0
C2524 C 0.5847 0.57898 0.27599 0.0
C2525 C 0.58979 0.57984 0.29671 0.0
C2526 C 0.5715 0.56456 0.26805 0.0
C2527 C 0.58804 0.59128 0.2401 0.0
C2528 C 0.5585 0.56438 0.26112 0.0
C2529 C 0.54744 0.5519 0.24951 0.0
C2530 C 0.54912 0.53934 0.24492 0.0
C2531 C 0.56135 0.53886 0.25373 0.0
C2532 C 0.5725 0.55143 0.26524 0.0
H2533 H 0.59726 0.60064 0.23099 0.0
H2534 H 0.58509 0.5802 0.23249 0.0
H2535 H 0.578 0.59256 0.23921 0.0
H2536 H 0.5574 0.5743 0.26348 0.0
H2537 H 0.53815 0.55254 0.24273 0.0
H2538 H 0.36516 0.00602 0.30762 0.0
H2539 H 0.38697 0.00528 0.29422 0.0
H2540 H 0.37366 0.9645 0.3292 0.0
H2541 H 0.35178 0.9653 0.34308 0.0
H2542 H 0.40529 0.98622 0.33098 0.0
H2543 H 0.38353 0.97466 0.24892 0.0
H2544 H 0.38441 0.99124 0.26057 0.0
H2545 H 0.3718 0.97272 0.2712 0.0
C2546 C 0.36683 0.99687 0.31251 0.0
C2547 C 0.35664 0.98562 0.32625 0.0
C2548 C 0.37931 0.99646 0.30478 0.0
C2549 C 0.38179 0.98469 0.31041 0.0
C2550 C 0.37189 0.97363 0.32458 0.0
H2551 H 0.44517 0.96278 0.25225 0.0
H2552 H 0.42654 0.96223 0.27691 0.0
C2553 C 0.35939 0.97408 0.33243 0.0
C2554 C 0.39454 0.98385 0.30097 0.0
H2555 H 0.40941 0.98223 0.25356 0.0
C2556 C 0.40613 0.98517 0.31408 0.0
C2557 C 0.39555 0.98236 0.27892 0.0
C2558 C 0.38309 0.98001 0.26409 0.0
C2559 C 0.419 0.98565 0.30556 0.0
C2560 C 0.42021 0.98479 0.28352 0.0
C2561 C 0.40846 0.98303 0.27049 0.0
C2562 C 0.43368 0.98601 0.27327 0.0
C2563 C 0.43141 0.98745 0.31996 0.0
C2564 C 0.44418 0.99971 0.26379 0.0
C2565 C 0.45487 1.00009 0.24982 0.0
C2566 C 0.45511 0.98672 0.24496 0.0
C2567 C 0.44538 0.9733 0.25585 0.0
C2568 C 0.43468 0.97294 0.26986 0.0
H2569 H 0.42886 0.98812 0.33682 0.0
H2570 H 0.43312 0.97763 0.31757 0.0
H2571 H 0.44218 0.99795 0.31595 0.0
H2572 H 0.4435 0.00988 0.26617 0.0
H2573 H 0.46226 0.0106 0.24172 0.0
H2574 H 0.61373 0.96121 0.34497 0.0
H2575 H 0.5901 0.95952 0.33361 0.0
H2576 H 0.61452 0.99325 0.28649 0.0
H2577 H 0.63805 0.99512 0.29771 0.0
H2578 H 0.58603 0.98896 0.32721 0.0
H2579 H 0.57728 0.95091 0.25808 0.0
H2580 H 0.58755 0.95131 0.28135 0.0
H2581 H 0.59619 0.96659 0.263 0.0
C2582 C 0.61404 0.96828 0.33222 0.0
C2583 C 0.62775 0.97827 0.32221 0.0
C2584 C 0.60057 0.96733 0.32582 0.0
C2585 C 0.60063 0.97626 0.30922 0.0
C2586 C 0.61428 0.98627 0.29932 0.0
H2587 H 0.54835 0.00537 0.24591 0.0
H2588 H 0.56507 0.00271 0.27045 0.0
C2589 C 0.62771 0.9873 0.30576 0.0
C2590 C 0.58648 0.97504 0.30168 0.0
H2591 H 0.56226 0.9623 0.25968 0.0
C2592 C 0.58064 0.98293 0.31263 0.0
C2593 C 0.57951 0.96715 0.28272 0.0
C2594 C 0.58534 0.9584 0.27057 0.0
C2595 C 0.56832 0.98365 0.30457 0.0
C2596 C 0.5618 0.97633 0.28508 0.0
C2597 C 0.56724 0.96787 0.27466 0.0
C2598 C 0.55028 0.97837 0.2741 0.0
C2599 C 0.56256 0.99243 0.31673 0.0
C2600 C 0.53623 0.96564 0.26843 0.0
C2601 C 0.52661 0.96717 0.25449 0.0
C2602 C 0.53102 0.98141 0.24576 0.0
C2603 C 0.54465 0.99429 0.25252 0.0
C2604 C 0.55419 0.99278 0.26658 0.0
H2605 H 0.56578 0.99371 0.33364 0.0
H2606 H 0.56754 0.00402 0.31013 0.0
H2607 H 0.55007 0.98672 0.31542 0.0
H2608 H 0.53307 0.9544 0.27392 0.0
H2609 H 0.51629 0.95702 0.24931 0.0
H2610 H 0.99385 0.64643 0.30091 0.0
H2611 H 0.99046 0.62211 0.28787 0.0
H2612 H 0.02782 0.62897 0.3266 0.0
H2613 H 0.03098 0.65299 0.34011 0.0
H2614 H 0.00939 0.61652 0.26622 0.0
H2615 H 0.99651 0.58604 0.34165 0.0
H2616 H 0.99659 0.60365 0.33893 0.0
H2617 H 0.01404 0.60392 0.34271 0.0
C2618 C 1.0013 0.64271 0.30669 0.0
C2619 C 0.01263 0.65157 0.3216 0.0
C2620 C 0.99933 0.6288 0.29928 0.0
C2621 C 0.00865 0.62352 0.30663 0.0
C2622 C 0.02017 0.63254 0.3212 0.0
H2623 H 0.03105 0.55878 0.25902 0.0
H2624 H 0.02878 0.5775 0.28085 0.0
C2625 C 0.02207 0.64636 0.32874 0.0
C2626 C 0.00688 0.60901 0.29824 0.0
H2627 H 1.003 0.57504 0.31272 0.0
C2628 C 0.0078 0.60739 0.27639 0.0
C2629 C 0.00477 0.59705 0.31151 0.0
C2630 C 1.00276 0.59767 0.33498 0.0
C2631 C 0.00714 0.59438 0.26752 0.0
C2632 C 0.0055 0.58267 0.28083 0.0
C2633 C 0.00432 0.5841 0.30262 0.0
C2634 C 0.00556 0.56919 0.27207 0.0
C2635 C 0.00858 0.59335 0.24396 0.0
C2636 C 0.99297 0.55786 0.26089 0.0
C2637 C 0.99417 0.54705 0.24858 0.0
C2638 C 0.00803 0.54751 0.24713 0.0
C2639 C 0.02019 0.55801 0.25994 0.0
C2640 C 0.01895 0.56879 0.27232 0.0
H2641 H 0.01136 0.6041 0.23606 0.0
H2642 H 0.01748 0.59063 0.24021 0.0
H2643 H 0.99775 0.58397 0.23734 0.0
H2644 H 0.98253 0.55799 0.26061 0.0
H2645 H 0.98459 0.53902 0.239 0.0
H2646 H 0.35812 0.38485 0.33842 0.0
H2647 H 0.38228 0.40493 0.32447 0.0
H2648 H 0.38663 0.37127 0.28833 0.0
H2649 H 0.36237 0.35105 0.30207 0.0
H2650 H 0.41382 0.39723 0.31895 0.0
H2651 H 0.38918 0.41576 0.25638 0.0
H2652 H 0.38051 0.41118 0.28199 0.0
H2653 H 0.37958 0.39633 0.26544 0.0
C2654 C 0.36418 0.38171 0.32745 0.0
C2655 C 0.35833 0.36637 0.3213 0.0
C2656 C 0.37798 0.39319 0.31956 0.0
C2657 C 0.3862 0.38953 0.30548 0.0
C2658 C 0.38042 0.37426 0.29925 0.0
H2659 H 0.473 0.43987 0.24444 0.0
H2660 H 0.45175 0.42167 0.26582 0.0
C2661 C 0.36655 0.36276 0.30703 0.0
C2662 C 0.40075 0.40173 0.29707 0.0
H2663 H 0.41559 0.42925 0.25989 0.0
C2664 C 0.41428 0.40429 0.30606 0.0
C2665 C 0.40121 0.41092 0.28043 0.0
C2666 C 0.38689 0.40848 0.27033 0.0
C2667 C 0.42838 0.41595 0.29883 0.0
C2668 C 0.42889 0.42501 0.28184 0.0
C2669 C 0.41525 0.42241 0.27299 0.0
C2670 C 0.4433 0.43688 0.27228 0.0
C2671 C 0.44252 0.41858 0.30974 0.0
C2672 C 0.44582 0.45159 0.26894 0.0
C2673 C 0.45782 0.46188 0.25645 0.0
C2674 C 0.46766 0.45774 0.24735 0.0
C2675 C 0.46579 0.44345 0.25182 0.0
C2676 C 0.45363 0.43305 0.26403 0.0
H2677 H 0.44019 0.41458 0.32623 0.0
H2678 H 0.44685 0.412 0.3013 0.0
H2679 H 0.45147 0.43084 0.30989 0.0
H2680 H 0.438 0.45481 0.27506 0.0
H2681 H 0.45889 0.47273 0.25283 0.0
H2682 H 0.34127 0.31537 0.38414 0.0
H2683 H 0.34278 0.29344 0.39558 0.0
H2684 H 0.30219 0.26312 0.36059 0.0
H2685 H 0.3006 0.28509 0.34882 0.0
H2686 H 0.30939 0.26018 0.41257 0.0
H2687 H 0.34707 0.26098 0.34886 0.0
H2688 H 0.34987 0.27874 0.35964 0.0
H2689 H 0.33333 0.26662 0.34418 0.0
C2690 C 0.3326 0.30405 0.3789 0.0
C2691 C 0.32078 0.30198 0.36559 0.0
C2692 C 0.33354 0.29155 0.3854 0.0
C2693 C 0.32267 0.27673 0.37879 0.0
C2694 C 0.31073 0.27452 0.36573 0.0
H2695 H 0.31118 0.19378 0.43527 0.0
H2696 H 0.30661 0.21051 0.41318 0.0
C2697 C 0.30982 0.28706 0.35909 0.0
C2698 C 0.32372 0.26361 0.38607 0.0
H2699 H 0.34165 0.24377 0.37648 0.0
C2700 C 0.31626 0.25641 0.40459 0.0
C2701 C 0.33291 0.25898 0.37573 0.0
C2702 C 0.34128 0.26665 0.35594 0.0
C2703 C 0.31803 0.24489 0.41341 0.0
C2704 C 0.32718 0.24012 0.40303 0.0
C2705 C 0.3345 0.24725 0.3843 0.0
C2706 C 0.33011 0.22857 0.41228 0.0
C2707 C 0.31067 0.23851 0.43433 0.0
C2708 C 0.34494 0.23255 0.41754 0.0
C2709 C 0.34759 0.22277 0.42955 0.0
C2710 C 0.33543 0.2089 0.43657 0.0
C2711 C 0.32072 0.20439 0.4299 0.0
C2712 C 0.3181 0.21404 0.41758 0.0
H2713 H 0.30746 0.24609 0.44265 0.0
H2714 H 0.30021 0.22729 0.43165 0.0
H2715 H 0.3183 0.23684 0.44477 0.0
H2716 H 0.3544 0.24364 0.41354 0.0
H2717 H 0.359 0.2266 0.4348 0.0
H2718 H 0.711 0.02128 0.33142 0.0
H2719 H 0.73288 0.04499 0.34451 0.0
H2720 H 0.70752 0.04431 0.39907 0.0
H2721 H 0.68544 0.02073 0.3858 0.0
H2722 H 0.72429 0.07317 0.38176 0.0
H2723 H 0.75962 0.04705 0.39285 0.0
H2724 H 0.75238 0.04528 0.36663 0.0
H2725 H 0.73956 0.03577 0.38789 0.0
C2726 C 0.71008 0.02617 0.34622 0.0
C2727 C 0.69654 0.01908 0.35769 0.0
C2728 C 0.72261 0.0397 0.35369 0.0
C2729 C 0.7219 0.0463 0.37291 0.0
C2730 C 0.70831 0.03939 0.38421 0.0
H2731 H 0.78543 0.10171 0.4645 0.0
H2732 H 0.76681 0.08258 0.44044 0.0
C2733 C 0.69573 0.02589 0.37667 0.0
C2734 C 0.73541 0.06017 0.38157 0.0
H2735 H 0.77094 0.07325 0.40083 0.0
C2736 C 0.73456 0.07327 0.38576 0.0
C2737 C 0.74878 0.06023 0.3868 0.0
C2738 C 0.75017 0.04631 0.3835 0.0
C2739 C 0.74654 0.08626 0.39567 0.0
C2740 C 0.75978 0.0862 0.40122 0.0
C2741 C 0.76083 0.07331 0.39632 0.0
C2742 C 0.77161 0.09824 0.41502 0.0
C2743 C 0.74466 0.09964 0.40113 0.0
C2744 C 0.78071 0.11345 0.40861 0.0
C2745 C 0.79143 0.12456 0.42254 0.0
C2746 C 0.79304 0.12054 0.443 0.0
C2747 C 0.78421 0.10522 0.44898 0.0
C2748 C 0.77362 0.09424 0.4352 0.0
H2749 H 0.73296 0.09706 0.3982 0.0
H2750 H 0.74758 0.10306 0.41794 0.0
H2751 H 0.75247 0.10953 0.39143 0.0
H2752 H 0.77948 0.11671 0.39294 0.0
H2753 H 0.7982 0.13626 0.41752 0.0
H2754 H 0.98939 0.70994 0.34416 0.0
H2755 H 0.9658 0.70878 0.35446 0.0
H2756 H 0.95286 0.66834 0.38998 0.0
H2757 H 0.97629 0.66943 0.38 0.0
H2758 H 0.93001 0.66899 0.3577 0.0
H2759 H 0.95541 0.71533 0.419 0.0
H2760 H 0.96457 0.71795 0.39388 0.0
H2761 H 0.96419 0.70446 0.4119 0.0
C2762 C 0.98154 0.70085 0.35424 0.0
C2763 C 0.98473 0.68981 0.36133 0.0
C2764 C 0.96808 0.7002 0.36006 0.0
C2765 C 0.95763 0.68846 0.37293 0.0
C2766 C 0.96079 0.67745 0.37999 0.0
H2767 H 0.87375 0.64973 0.43456 0.0
H2768 H 0.89452 0.65502 0.41089 0.0
C2769 C 0.97422 0.67815 0.37433 0.0
C2770 C 0.94338 0.68756 0.37938 0.0
H2771 H 0.929 0.70112 0.41643 0.0
C2772 C 0.92974 0.67615 0.37032 0.0
C2773 C 0.94314 0.69701 0.39566 0.0
C2774 C 0.95756 0.7094 0.40582 0.0
C2775 C 0.91577 0.67362 0.37761 0.0
C2776 C 0.91544 0.68245 0.39485 0.0
C2777 C 0.92918 0.69434 0.40322 0.0
C2778 C 0.90121 0.67862 0.40596 0.0
C2779 C 0.90153 0.66143 0.36683 0.0
C2780 C 0.89792 0.69007 0.41116 0.0
C2781 C 0.88613 0.68706 0.42499 0.0
C2782 C 0.87737 0.67253 0.43361 0.0
C2783 C 0.88011 0.66089 0.42756 0.0
C2784 C 0.89197 0.66392 0.41398 0.0
H2785 H 0.90359 0.66022 0.34992 0.0
H2786 H 0.89778 0.6503 0.37427 0.0
H2787 H 0.89227 0.66395 0.36802 0.0
H2788 H 0.90495 0.70153 0.40536 0.0
H2789 H 0.88441 0.69628 0.42991 0.0
H2790 H 0.39186 0.04237 0.67946 0.0
H2791 H 0.414 0.04212 0.69293 0.0
H2792 H 0.38499 0.00331 0.73093 0.0
H2793 H 0.3629 0.0036 0.7178 0.0
H2794 H 0.40931 0.026 0.75302 0.0
H2795 H 0.42807 0.01201 0.67825 0.0
H2796 H 0.42579 0.02831 0.67729 0.0
H2797 H 0.40958 0.00969 0.68129 0.0
C2798 C 0.39021 0.03378 0.69067 0.0
C2799 C 0.37562 0.023 0.69756 0.0
C2800 C 0.40286 0.03357 0.69822 0.0
C2801 C 0.40114 0.02254 0.71269 0.0
C2802 C 0.38659 0.01187 0.71969 0.0
H2803 H 0.45986 0.99342 0.76248 0.0
H2804 H 0.44231 0.99669 0.74034 0.0
C2805 C 0.37397 0.01207 0.71218 0.0
C2806 C 0.41445 0.02241 0.72134 0.0
H2807 H 0.44401 0.01765 0.70808 0.0
C2808 C 0.41692 0.02423 0.74318 0.0
C2809 C 0.42427 0.01992 0.70849 0.0
C2810 C 0.42178 0.01723 0.68504 0.0
C2811 C 0.42891 0.02363 0.75254 0.0
C2812 C 0.43892 0.02145 0.73969 0.0
C2813 C 0.43644 0.01954 0.71784 0.0
C2814 C 0.45155 0.02045 0.74905 0.0
C2815 C 0.43052 0.02494 0.77623 0.0
C2816 C 0.4631 0.03296 0.76026 0.0
C2817 C 0.47313 0.03112 0.77285 0.0
C2818 C 0.47185 0.01676 0.77432 0.0
C2819 C 0.46122 0.00464 0.76148 0.0
C2820 C 0.45112 0.00647 0.74894 0.0
H2821 H 0.42009 0.0232 0.78401 0.0
H2822 H 0.4332 0.01648 0.7824 0.0
H2823 H 0.43992 0.03652 0.78071 0.0
H2824 H 0.46377 0.0439 0.76029 0.0
H2825 H 0.48125 0.04065 0.78255 0.0
H2826 H 0.9761 0.35659 0.67794 0.0
H2827 H 0.97827 0.38021 0.69112 0.0
H2828 H 0.01501 0.38791 0.73187 0.0
H2829 H 0.01269 0.36397 0.719 0.0
H2830 H 0.99442 0.39257 0.75205 0.0
H2831 H 0.01014 0.42359 0.67688 0.0
H2832 H 0.99301 0.40536 0.67481 0.0
H2833 H 0.01056 0.4063 0.68052 0.0
C2834 C 0.98467 0.36329 0.6897 0.0
C2835 C 0.99427 0.35844 0.6974 0.0
C2836 C 0.98598 0.37688 0.69706 0.0
C2837 C 0.99703 0.38602 0.71209 0.0
C2838 C 0.0065 0.3811 0.72009 0.0
H2839 H 0.02452 0.47694 0.75795 0.0
H2840 H 0.02192 0.45566 0.73615 0.0
C2841 C 0.00514 0.36742 0.71278 0.0
C2842 C 0.99819 0.40032 0.7201 0.0
H2843 H 1.00255 0.43429 0.70472 0.0
C2844 C 0.99627 0.40172 0.74171 0.0
C2845 C 1.00081 0.41234 0.70661 0.0
C2846 C 1.0039 0.41193 0.68345 0.0
C2847 C 0.99656 0.41464 0.75018 0.0
C2848 C 0.99843 0.42632 0.73656 0.0
C2849 C 1.00076 0.42515 0.71502 0.0
C2850 C 0.99869 0.44011 0.74485 0.0
C2851 C 0.99511 0.41578 0.77372 0.0
C2852 C 0.98615 0.43873 0.75562 0.0
C2853 C 0.98762 0.45085 0.76804 0.0
C2854 C 1.0016 0.46456 0.76957 0.0
C2855 C 0.01358 0.46654 0.75676 0.0
C2856 C 0.01214 0.45435 0.74447 0.0
H2857 H 0.99751 0.40783 0.78226 0.0
H2858 H 1.00293 0.42757 0.7797 0.0
H2859 H 0.98339 0.41277 0.77749 0.0
H2860 H 0.97558 0.4279 0.75576 0.0
H2861 H 0.97829 0.44906 0.77794 0.0
H2862 H 0.64489 0.65346 0.71388 0.0
H2863 H 0.62095 0.63227 0.72692 0.0
H2864 H 0.6252 0.60108 0.68483 0.0
H2865 H 0.64906 0.62211 0.67175 0.0
H2866 H 0.59357 0.61061 0.70203 0.0
H2867 H 0.61982 0.58286 0.74492 0.0
H2868 H 0.63045 0.60256 0.73714 0.0
H2869 H 0.62542 0.58755 0.71796 0.0
C2870 C 0.64074 0.64208 0.70746 0.0
C2871 C 0.6489 0.63944 0.69188 0.0
C2872 C 0.62704 0.63001 0.71484 0.0
C2873 C 0.62137 0.61511 0.70691 0.0
C2874 C 0.62946 0.61247 0.69129 0.0
H2875 H 0.54887 0.52832 0.75219 0.0
H2876 H 0.56729 0.5473 0.72822 0.0
C2877 C 0.64309 0.62451 0.68384 0.0
C2878 C 0.60712 0.60226 0.71518 0.0
H2879 H 0.59328 0.56999 0.74411 0.0
C2880 C 0.59345 0.60169 0.7112 0.0
C2881 C 0.60703 0.59061 0.72699 0.0
C2882 C 0.62145 0.59089 0.7322 0.0
C2883 C 0.57964 0.58972 0.71872 0.0
C2884 C 0.57958 0.5782 0.7309 0.0
C2885 C 0.59327 0.57872 0.7346 0.0
C2886 C 0.5658 0.56617 0.7415 0.0
C2887 C 0.56527 0.58947 0.71338 0.0
C2888 C 0.55825 0.57028 0.75622 0.0
C2889 C 0.54755 0.5594 0.7697 0.0
C2890 C 0.54437 0.54424 0.76896 0.0
C2891 C 0.55094 0.53985 0.75301 0.0
C2892 C 0.5616 0.55074 0.73944 0.0
H2893 H 0.56643 0.59551 0.69848 0.0
H2894 H 0.55554 0.57761 0.71181 0.0
H2895 H 0.56279 0.59543 0.72611 0.0
H2896 H 0.56143 0.5821 0.75843 0.0
H2897 H 0.54265 0.56309 0.78182 0.0
H2898 H 0.66835 0.69427 0.63271 0.0
H2899 H 0.66842 0.71717 0.62191 0.0
H2900 H 0.70805 0.74505 0.66013 0.0
H2901 H 0.70807 0.72211 0.6711 0.0
H2902 H 0.66751 0.74021 0.64965 0.0
H2903 H 0.7189 0.76356 0.59963 0.0
H2904 H 0.70837 0.74377 0.60701 0.0
H2905 H 0.72026 0.75817 0.62599 0.0
C2906 C 0.67714 0.70526 0.63878 0.0
C2907 C 0.68826 0.70636 0.6527 0.0
C2908 C 0.67712 0.71833 0.63265 0.0
C2909 C 0.68827 0.7328 0.64014 0.0
C2910 C 0.69941 0.734 0.65403 0.0
H2911 H 0.70422 0.81945 0.59087 0.0
H2912 H 0.70555 0.80158 0.61476 0.0
C2913 C 0.6994 0.72088 0.66029 0.0
C2914 C 0.68815 0.74655 0.63319 0.0
H2915 H 0.70622 0.77716 0.60099 0.0
C2916 C 0.67605 0.74839 0.63917 0.0
C2917 C 0.69935 0.75726 0.61968 0.0
C2918 C 0.71245 0.75565 0.61252 0.0
C2919 C 0.67469 0.76051 0.63166 0.0
C2920 C 0.68552 0.77085 0.61734 0.0
C2921 C 0.69792 0.76929 0.61199 0.0
C2922 C 0.68357 0.78243 0.60613 0.0
C2923 C 0.66162 0.76207 0.63912 0.0
C2924 C 0.67057 0.77779 0.59384 0.0
C2925 C 0.6697 0.78803 0.58044 0.0
C2926 C 0.68192 0.80309 0.57873 0.0
C2927 C 0.69455 0.808 0.59199 0.0
C2928 C 0.69538 0.79774 0.6055 0.0
H2929 H 0.65797 0.75733 0.65511 0.0
H2930 H 0.66457 0.77417 0.63948 0.0
H2931 H 0.65187 0.75551 0.62828 0.0
H2932 H 0.66142 0.76601 0.59363 0.0
H2933 H 0.6598 0.78392 0.57048 0.0
H2934 H 0.32487 0.98141 0.62923 0.0
H2935 H 0.30419 0.95707 0.61509 0.0
H2936 H 0.27312 0.95992 0.65787 0.0
H2937 H 0.29364 0.98406 0.67217 0.0
H2938 H 0.27041 0.93093 0.65644 0.0
H2939 H 0.26982 0.95205 0.57656 0.0
H2940 H 0.2878 0.9552 0.58518 0.0
H2941 H 0.27952 0.96477 0.5986 0.0
C2942 C 0.31362 0.97688 0.63553 0.0
C2943 C 0.31087 0.98469 0.65173 0.0
C2944 C 0.30182 0.96299 0.62743 0.0
C2945 C 0.2871 0.95675 0.63534 0.0
C2946 C 0.28438 0.96452 0.65156 0.0
H2947 H 0.20491 0.88942 0.57346 0.0
H2948 H 0.22368 0.91098 0.59492 0.0
C2949 C 0.29613 0.97836 0.65963 0.0
C2950 C 0.27442 0.94219 0.62672 0.0
H2951 H 0.25345 0.92575 0.58221 0.0
C2952 C 0.26668 0.92976 0.64021 0.0
C2953 C 0.2695 0.94078 0.60561 0.0
C2954 C 0.27698 0.95392 0.59064 0.0
C2955 C 0.25417 0.9159 0.63309 0.0
C2956 C 0.24938 0.91445 0.61192 0.0
C2957 C 0.25713 0.92689 0.59847 0.0
C2958 C 0.23635 0.90022 0.6031 0.0
C2959 C 0.24601 0.90306 0.64835 0.0
C2960 C 0.23684 0.88673 0.60143 0.0
C2961 C 0.22599 0.87431 0.58937 0.0
C2962 C 0.21463 0.8753 0.57866 0.0
C2963 C 0.21351 0.88835 0.5817 0.0
C2964 C 0.22428 0.9007 0.59381 0.0
H2965 H 0.24869 0.90718 0.66497 0.0
H2966 H 0.23359 0.89719 0.64594 0.0
H2967 H 0.24953 0.89456 0.64566 0.0
H2968 H 0.24618 0.88618 0.60818 0.0
H2969 H 0.22725 0.86449 0.58693 0.0
H2970 H 0.01996 0.30238 0.67468 0.0
H2971 H 0.04331 0.30361 0.66333 0.0
H2972 H 0.05421 0.34251 0.62532 0.0
H2973 H 0.03085 0.3412 0.63625 0.0
H2974 H 0.05716 0.32078 0.60394 0.0
H2975 H 0.08693 0.33388 0.68106 0.0
H2976 H 0.06835 0.31717 0.68064 0.0
H2977 H 0.07057 0.33562 0.6769 0.0
C2978 C 0.02735 0.3112 0.66392 0.0
C2979 C 0.02354 0.32168 0.65634 0.0
C2980 C 0.04076 0.31198 0.65761 0.0
C2981 C 0.05065 0.32333 0.64377 0.0
C2982 C 0.04681 0.33373 0.63612 0.0
H2983 H 0.13415 0.3517 0.58032 0.0
H2984 H 0.11507 0.35117 0.60397 0.0
C2985 C 0.03341 0.33293 0.64235 0.0
C2986 C 0.06462 0.32396 0.63623 0.0
H2987 H 0.09864 0.32901 0.65207 0.0
C2988 C 0.06621 0.32259 0.61449 0.0
C2989 C 0.07645 0.32634 0.65003 0.0
C2990 C 0.07561 0.32847 0.67345 0.0
C2991 C 0.07924 0.32349 0.60616 0.0
C2992 C 0.09105 0.32588 0.61989 0.0
C2993 C 0.08951 0.32714 0.64165 0.0
C2994 C 0.10508 0.32732 0.61135 0.0
C2995 C 0.0804 0.32197 0.58263 0.0
C2996 C 0.10629 0.31431 0.60876 0.0
C2997 C 0.11723 0.3146 0.59533 0.0
C2998 C 0.12699 0.32789 0.58425 0.0
C2999 C 0.12679 0.34133 0.58873 0.0
C3000 C 0.11589 0.34103 0.60217 0.0
H3001 H 0.0697 0.31882 0.57429 0.0
H3002 H 0.08952 0.33298 0.5764 0.0
H3003 H 0.08342 0.31319 0.57896 0.0
H3004 H 0.09796 0.3036 0.61564 0.0
H3005 H 0.11701 0.30404 0.59197 0.0
H3006 H 0.31209 0.33661 0.63389 0.0
H3007 H 0.28993 0.33695 0.62146 0.0
H3008 H 0.26121 0.29775 0.659 0.0
H3009 H 0.28351 0.29749 0.67192 0.0
H3010 H 0.26564 0.3148 0.59934 0.0
H3011 H 0.24711 0.3274 0.67547 0.0
H3012 H 0.26552 0.3296 0.67206 0.0
H3013 H 0.24917 0.31095 0.67523 0.0
C3014 C 0.30108 0.32804 0.63956 0.0
C3015 C 0.29957 0.31703 0.65393 0.0
C3016 C 0.28841 0.32828 0.63245 0.0
C3017 C 0.27393 0.31753 0.63953 0.0
C3018 C 0.27231 0.30636 0.65368 0.0
H3019 H 0.18902 0.30105 0.58561 0.0
H3020 H 0.20711 0.29899 0.60821 0.0
C3021 C 0.28504 0.30614 0.66089 0.0
C3022 C 0.26062 0.31786 0.63135 0.0
H3023 H 0.23166 0.32335 0.64562 0.0
C3024 C 0.25819 0.3166 0.60949 0.0
C3025 C 0.25092 0.32027 0.64462 0.0
C3026 C 0.25332 0.32227 0.66814 0.0
C3027 C 0.24644 0.3178 0.60053 0.0
C3028 C 0.23686 0.32034 0.61373 0.0
C3029 C 0.23905 0.32136 0.63561 0.0
C3030 C 0.2249 0.32247 0.60459 0.0
C3031 C 0.24441 0.31655 0.5769 0.0
C3032 C 0.22876 0.33655 0.59594 0.0
C3033 C 0.21846 0.33779 0.58313 0.0
C3034 C 0.20415 0.32494 0.57871 0.0
C3035 C 0.19988 0.31119 0.58891 0.0
C3036 C 0.21022 0.30996 0.60173 0.0
H3037 H 0.25186 0.3131 0.569 0.0
H3038 H 0.23248 0.30811 0.5727 0.0
H3039 H 0.24704 0.32775 0.57071 0.0
H3040 H 0.24006 0.34632 0.59798 0.0
H3041 H 0.22202 0.34853 0.57553 0.0
H3042 H 0.67749 0.9754 0.68954 0.0
H3043 H 0.67388 0.95085 0.67754 0.0
H3044 H 0.67678 0.96464 0.61296 0.0
H3045 H 0.67906 0.98869 0.62507 0.0
H3046 H 0.65681 0.93691 0.61457 0.0
H3047 H 0.70526 0.94258 0.6597 0.0
H3048 H 0.69144 0.94256 0.67686 0.0
H3049 H 0.70137 0.95785 0.65852 0.0
C3050 C 0.67733 0.97312 0.67278 0.0
C3051 C 0.67868 0.98391 0.65818 0.0
C3052 C 0.67543 0.95916 0.66592 0.0
C3053 C 0.67557 0.956 0.64433 0.0
C3054 C 0.67672 0.96677 0.62972 0.0
H3055 H 0.69816 0.89461 0.58603 0.0
H3056 H 0.69701 0.91385 0.60782 0.0
C3057 C 0.67807 0.98053 0.6366 0.0
C3058 C 0.67437 0.94146 0.63689 0.0
H3059 H 0.6892 0.91853 0.64323 0.0
C3060 C 0.66397 0.93296 0.62077 0.0
C3061 C 0.68376 0.93627 0.64484 0.0
C3062 C 0.69618 0.94538 0.66075 0.0
C3063 C 0.66298 0.91975 0.61196 0.0
C3064 C 0.67202 0.91427 0.62039 0.0
C3065 C 0.68209 0.92254 0.63695 0.0
C3066 C 0.6726 0.90119 0.61062 0.0
C3067 C 0.65286 0.9124 0.59295 0.0
C3068 C 0.65939 0.88715 0.60595 0.0
C3069 C 0.66004 0.87626 0.59297 0.0
C3070 C 0.67398 0.87896 0.58535 0.0
C3071 C 0.6873 0.89216 0.59203 0.0
C3072 C 0.68661 0.90323 0.60438 0.0
H3073 H 0.65006 0.92033 0.5852 0.0
H3074 H 0.65825 0.90861 0.5811 0.0
H3075 H 0.64208 0.90232 0.59795 0.0
H3076 H 0.64849 0.88498 0.61129 0.0
H3077 H 0.64962 0.86619 0.58785 0.0
H3078 H 0.02329 0.71762 0.66988 0.0
H3079 H 0.04759 0.73764 0.65632 0.0
H3080 H 0.05224 0.70391 0.62082 0.0
H3081 H 0.0278 0.68372 0.63419 0.0
H3082 H 0.07921 0.72977 0.6514 0.0
H3083 H 0.05503 0.74861 0.58861 0.0
H3084 H 0.0462 0.74413 0.61411 0.0
H3085 H 0.04531 0.7292 0.59777 0.0
C3086 C 0.02944 0.71444 0.65913 0.0
C3087 C 0.02361 0.69909 0.65305 0.0
C3088 C 0.04333 0.72589 0.65146 0.0
C3089 C 0.05167 0.72221 0.63767 0.0
C3090 C 0.04594 0.70693 0.63152 0.0
H3091 H 0.13928 0.77475 0.57869 0.0
H3092 H 0.11795 0.75578 0.59924 0.0
C3093 C 0.03196 0.69545 0.63908 0.0
C3094 C 0.06629 0.73443 0.62946 0.0
H3095 H 0.08138 0.76256 0.59316 0.0
C3096 C 0.07976 0.73697 0.63866 0.0
C3097 C 0.06687 0.7438 0.613 0.0
C3098 C 0.05263 0.74137 0.60263 0.0
C3099 C 0.0939 0.74885 0.6319 0.0
C3100 C 0.09452 0.75818 0.61521 0.0
C3101 C 0.08095 0.75553 0.60606 0.0
C3102 C 0.10899 0.77046 0.60633 0.0
C3103 C 0.10796 0.75147 0.64304 0.0
C3104 C 0.11127 0.78515 0.6037 0.0
C3105 C 0.12333 0.7959 0.59171 0.0
C3106 C 0.13346 0.79223 0.5824 0.0
C3107 C 0.13184 0.77796 0.58624 0.0
C3108 C 0.11963 0.76711 0.59797 0.0
H3109 H 0.10544 0.74703 0.6593 0.0
H3110 H 0.11263 0.7453 0.63432 0.0
H3111 H 0.11674 0.76379 0.64382 0.0
H3112 H 0.10321 0.78801 0.60994 0.0
H3113 H 0.12421 0.80672 0.58858 0.0
H3114 H 1.00235 0.64753 0.72104 0.0
H3115 H 1.00323 0.62552 0.73357 0.0
H3116 H 0.96819 0.59628 0.68926 0.0
H3117 H 0.96729 0.61836 0.67647 0.0
H3118 H 0.97979 0.59876 0.75113 0.0
H3119 H 1.00201 0.58642 0.67828 0.0
H3120 H 1.00284 0.60434 0.68293 0.0
H3121 H 0.98536 0.58769 0.67502 0.0
C3122 C 0.9948 0.63643 0.71394 0.0
C3123 C 0.98475 0.63471 0.69773 0.0
C3124 C 0.99534 0.62385 0.72111 0.0
C3125 C 0.98594 0.60929 0.71215 0.0
C3126 C 0.97574 0.60746 0.69614 0.0
H3127 H 0.97129 0.52771 0.77517 0.0
H3128 H 0.96734 0.54494 0.75336 0.0
C3129 C 0.97515 0.62006 0.68898 0.0
C3130 C 0.98665 0.59607 0.72011 0.0
H3131 H 0.99617 0.56949 0.70653 0.0
C3132 C 0.98328 0.59229 0.74135 0.0
C3133 C 0.9914 0.58779 0.70737 0.0
C3134 C 0.99574 0.59178 0.68466 0.0
C3135 C 0.98456 0.58051 0.75024 0.0
C3136 C 0.9891 0.57207 0.73746 0.0
C3137 C 0.9925 0.57584 0.7162 0.0
C3138 C 0.99103 0.55984 0.74643 0.0
C3139 C 0.98147 0.5775 0.77345 0.0
C3140 C 0.00554 0.56191 0.74853 0.0
C3141 C 0.00779 0.55196 0.76079 0.0
C3142 C 0.99557 0.53983 0.77113 0.0
C3143 C 0.98091 0.537 0.76741 0.0
C3144 C 0.97865 0.54689 0.75509 0.0
H3145 H 0.98134 0.58707 0.78189 0.0
H3146 H 0.97025 0.56704 0.77549 0.0
H3147 H 0.9901 0.57564 0.78094 0.0
H3148 H 0.01524 0.57182 0.74192 0.0
H3149 H 0.01923 0.5545 0.76357 0.0
H3150 H 0.34879 0.36149 0.71691 0.0
H3151 H 0.36853 0.38673 0.72979 0.0
H3152 H 0.40189 0.38208 0.69466 0.0
H3153 H 0.3822 0.35711 0.6813 0.0
H3154 H 0.39304 0.39462 0.75318 0.0
H3155 H 0.41145 0.42372 0.6768 0.0
H3156 H 0.3943 0.40545 0.6795 0.0
H3157 H 0.41228 0.4066 0.67723 0.0
C3158 C 0.36033 0.36588 0.71192 0.0
C3159 C 0.36394 0.35737 0.69803 0.0
C3160 C 0.37159 0.38031 0.71922 0.0
C3161 C 0.38664 0.38647 0.71277 0.0
C3162 C 0.39029 0.3778 0.69931 0.0
H3163 H 0.47263 0.45621 0.75816 0.0
H3164 H 0.4518 0.43677 0.73663 0.0
C3165 C 0.37905 0.36345 0.69187 0.0
C3166 C 0.39865 0.40158 0.72102 0.0
H3167 H 0.42822 0.43619 0.70622 0.0
C3168 C 0.40058 0.40378 0.74291 0.0
C3169 C 0.40849 0.41356 0.70759 0.0
C3170 C 0.40644 0.41229 0.68398 0.0
C3171 C 0.4124 0.41737 0.75173 0.0
C3172 C 0.42249 0.42912 0.73829 0.0
C3173 C 0.42044 0.42712 0.71642 0.0
C3174 C 0.43574 0.44313 0.74697 0.0
C3175 C 0.41434 0.41888 0.77537 0.0
C3176 C 0.43378 0.45368 0.75887 0.0
C3177 C 0.4457 0.46491 0.77105 0.0
C3178 C 0.45972 0.46567 0.77157 0.0
C3179 C 0.46203 0.45603 0.75799 0.0
C3180 C 0.4501 0.44483 0.74577 0.0
H3181 H 0.40692 0.40791 0.78334 0.0
H3182 H 0.42626 0.42301 0.77979 0.0
H3183 H 0.41152 0.4274 0.78134 0.0
H3184 H 0.42277 0.4526 0.75981 0.0
H3185 H 0.44364 0.47228 0.78121 0.0
H3186 H 0.65737 0.04444 0.67695 0.0
H3187 H 0.63461 0.04489 0.68753 0.0
H3188 H 0.61929 0.00372 0.72245 0.0
H3189 H 0.64188 0.0032 0.71219 0.0
H3190 H 0.59749 0.0083 0.68913 0.0
H3191 H 0.62584 0.05008 0.75538 0.0
H3192 H 0.63523 0.05251 0.73047 0.0
H3193 H 0.63237 0.03739 0.74734 0.0
C3194 C 0.64913 0.03548 0.68685 0.0
C3195 C 0.65145 0.02382 0.6938 0.0
C3196 C 0.63616 0.03574 0.69283 0.0
C3197 C 0.62531 0.0243 0.70569 0.0
C3198 C 0.62753 0.0126 0.71245 0.0
H3199 H 0.54124 0.98879 0.76628 0.0
H3200 H 0.56153 0.99363 0.74191 0.0
C3201 C 0.64049 0.01238 0.70663 0.0
C3202 C 0.61181 0.02461 0.71286 0.0
H3203 H 0.59942 0.03765 0.75332 0.0
C3204 C 0.59788 0.0149 0.70294 0.0
C3205 C 0.61244 0.03333 0.73072 0.0
C3206 C 0.62723 0.04397 0.74173 0.0
C3207 C 0.5844 0.01329 0.71091 0.0
C3208 C 0.58487 0.02126 0.72968 0.0
C3209 C 0.59897 0.03152 0.73895 0.0
C3210 C 0.57098 0.01811 0.74122 0.0
C3211 C 0.56984 0.00298 0.69919 0.0
C3212 C 0.5694 0.0302 0.74906 0.0
C3213 C 0.55795 0.02743 0.76338 0.0
C3214 C 0.54775 0.01251 0.76978 0.0
C3215 C 0.54874 1.00034 0.76104 0.0
C3216 C 0.56033 0.00312 0.74704 0.0
H3217 H 0.57188 0.00285 0.68202 0.0
H3218 H 0.56499 0.99112 0.70475 0.0
H3219 H 0.56143 0.00655 0.7017 0.0
H3220 H 0.57751 0.04187 0.74497 0.0
H3221 H 0.55756 0.03699 0.77034 0.0
loop_
_geom_bond_atom_site_label_1
_geom_bond_atom_site_label_2
_geom_bond_distance
_geom_bond_site_symmetry_2
_ccdc_geom_bond_type
Co0 O1 2.216 . S
Co0 O2 2.091 . S
Co0 O4 2.004 1_554 S
Co0 O10 2.021 . S
Co0 O12 2.137 1_454 S
Co0 O13 2.244 1_455 S
O1 Co0 2.216 . S
O1 C8 1.247 . S
O2 Co0 2.091 . S
O2 C8 1.261 . S
C3 O12 1.247 . S
C3 O13 1.272 1_556 S
O4 Co0 2.004 1_556 S
O4 C9 1.211 1_455 S
Co5 O6 2.061 1_554 S
Co5 O11 2.052 . S
Co5 O13 2.135 . S
O6 Co5 2.061 1_556 S
O6 C9 1.282 . S
C7 O10 1.238 1_655 S
C7 O11 1.241 . S
C8 O1 1.247 . S
C8 O2 1.261 . S
C9 O4 1.211 1_655 S
C9 O6 1.282 . S
O10 Co0 2.021 . S
O10 C7 1.238 1_455 S
O11 Co5 2.052 . S
O11 C7 1.241 . S
O12 Co0 2.137 1_656 S
O12 C3 1.247 . S
O13 Co0 2.244 1_655 S
O13 C3 1.272 1_554 S
O13 Co5 2.135 . S
Co14 O15 2.216 1_554 S
Co14 O16 2.091 . S
Co14 O18 2.004 . S
Co14 O24 2.021 1_554 S
Co14 O26 2.137 . S
Co14 O27 2.244 . S
O15 Co14 2.216 1_556 S
O15 C22 1.247 . S
O16 Co14 2.091 . S
O16 C22 1.261 1_554 S
C17 O26 1.247 . S
C17 O27 1.272 . S
O18 Co14 2.004 . S
O18 C23 1.259 . S
Co19 O20 2.061 . S
Co19 O25 2.052 1_554 S
Co19 O27 2.135 . S
O20 Co19 2.061 . S
O20 C23 1.235 . S
C21 O24 1.238 . S
C21 O25 1.241 . S
C22 O15 1.247 . S
C22 O16 1.261 1_556 S
C23 O18 1.259 . S
C23 O20 1.235 . S
O24 Co14 2.021 1_556 S
O24 C21 1.238 . S
O25 Co19 2.052 1_556 S
O25 C21 1.241 . S
O26 Co14 2.137 . S
O26 C17 1.247 . S
O27 Co14 2.244 . S
O27 C17 1.272 . S
O27 Co19 2.135 . S
Co28 O29 2.216 1_554 S
Co28 O30 2.091 . S
Co28 O32 2.004 . S
Co28 O38 2.021 1_554 S
Co28 O40 2.137 1_545 S
Co28 O41 2.244 1_545 S
O29 Co28 2.216 1_556 S
O29 C36 1.247 . S
O30 Co28 2.091 . S
O30 C36 1.261 1_554 S
C31 O40 1.247 . S
C31 O41 1.272 . S
O32 Co28 2.004 . S
O32 C37 1.259 . S
Co33 O34 2.061 . S
Co33 O39 2.052 1_554 S
Co33 O41 2.135 . S
O34 Co33 2.061 . S
O34 C37 1.235 1_565 S
C35 O38 1.190 1_565 S
C35 O39 1.288 . S
C36 O29 1.247 . S
C36 O30 1.261 1_556 S
C37 O32 1.259 . S
C37 O34 1.235 1_545 S
O38 Co28 2.021 1_556 S
O38 C35 1.190 1_545 S
O39 Co33 2.052 1_556 S
O39 C35 1.288 . S
O40 Co28 2.137 1_565 S
O40 C31 1.247 . S
O41 Co28 2.244 1_565 S
O41 C31 1.272 . S
O41 Co33 2.135 . S
Co42 O43 2.216 1_554 S
Co42 O44 2.091 . S
Co42 O46 2.004 . S
Co42 O52 2.021 1_554 S
Co42 O54 2.137 1_655 S
Co42 O55 2.244 1_655 S
O43 Co42 2.216 1_556 S
O43 C50 1.247 . S
O44 Co42 2.091 . S
O44 C50 1.261 1_554 S
C45 O54 1.247 . S
C45 O55 1.272 . S
O46 Co42 2.004 . S
O46 C51 1.259 1_655 S
Co47 O48 2.061 . S
Co47 O53 2.052 1_554 S
Co47 O55 2.135 . S
O48 Co47 2.061 . S
O48 C51 1.235 . S
C49 O52 1.238 1_455 S
C49 O53 1.241 . S
C50 O43 1.247 . S
C50 O44 1.261 1_556 S
C51 O46 1.259 1_455 S
C51 O48 1.235 . S
O52 Co42 2.021 1_556 S
O52 C49 1.238 1_655 S
O53 Co47 2.052 1_556 S
O53 C49 1.241 . S
O54 Co42 2.137 1_455 S
O54 C45 1.247 . S
O55 Co42 2.244 1_455 S
O55 C45 1.272 . S
O55 Co47 2.135 . S
Co56 O57 2.216 . S
Co56 O58 2.091 . S
Co56 O60 2.004 1_554 S
Co56 O66 2.021 . S
Co56 O68 2.137 1_554 S
Co56 O69 2.244 . S
O57 Co56 2.216 . S
O57 C64 1.247 . S
O58 Co56 2.091 . S
O58 C64 1.261 . S
C59 O68 1.247 . S
C59 O69 1.272 1_556 S
O60 Co56 2.004 1_556 S
O60 C65 1.259 . S
Co61 O62 2.061 1_554 S
Co61 O67 2.052 . S
Co61 O69 2.135 . S
O62 Co61 2.061 1_556 S
O62 C65 1.235 . S
C63 O66 1.238 . S
C63 O67 1.241 . S
C64 O57 1.247 . S
C64 O58 1.261 . S
C65 O60 1.259 . S
C65 O62 1.235 . S
O66 Co56 2.021 . S
O66 C63 1.238 . S
O67 Co61 2.052 . S
O67 C63 1.241 . S
O68 Co56 2.137 1_556 S
O68 C59 1.247 . S
O69 Co56 2.244 . S
O69 C59 1.272 1_554 S
O69 Co61 2.135 . S
Co70 O71 2.216 . S
Co70 O72 2.091 . S
Co70 O74 2.004 1_554 S
Co70 O80 2.021 . S
Co70 O82 2.137 1_564 S
Co70 O83 2.244 1_565 S
O71 Co70 2.216 . S
O71 C78 1.247 . S
O72 Co70 2.091 . S
O72 C78 1.261 . S
C73 O82 1.247 . S
C73 O83 1.272 1_556 S
O74 Co70 2.004 1_556 S
O74 C79 1.259 1_565 S
Co75 O76 2.061 1_554 S
Co75 O81 2.052 . S
Co75 O83 2.135 . S
O76 Co75 2.061 1_556 S
O76 C79 1.235 . S
C77 O80 1.238 1_545 S
C77 O81 1.241 . S
C78 O71 1.247 . S
C78 O72 1.261 . S
C79 O74 1.259 1_545 S
C79 O76 1.235 . S
O80 Co70 2.021 . S
O80 C77 1.238 1_565 S
O81 Co75 2.052 . S
O81 C77 1.241 . S
O82 Co70 2.137 1_546 S
O82 C73 1.247 . S
O83 Co70 2.244 1_545 S
O83 C73 1.272 1_554 S
O83 Co75 2.135 . S
Co84 O85 2.216 . S
Co84 O86 2.091 . S
Co84 O88 2.004 . S
Co84 O94 2.021 . S
Co84 O96 2.137 . S
Co84 O97 2.244 . S
O85 Co84 2.216 . S
O85 C92 1.247 . S
O86 Co84 2.091 . S
O86 C92 1.261 . S
C87 O96 1.247 . S
C87 O97 1.272 . S
O88 Co84 2.004 . S
O88 C93 1.259 . S
Co89 O90 2.061 . S
Co89 O95 2.052 . S
Co89 O97 2.135 . S
O90 Co89 2.061 . S
O90 C93 1.235 . S
C91 O94 1.238 . S
C91 O95 1.241 . S
C92 O85 1.247 . S
C92 O86 1.261 . S
C93 O88 1.259 . S
C93 O90 1.235 . S
O94 Co84 2.021 . S
O94 C91 1.238 . S
O95 Co89 2.052 . S
O95 C91 1.241 . S
O96 Co84 2.137 . S
O96 C87 1.247 . S
O97 Co84 2.244 . S
O97 C87 1.272 . S
O97 Co89 2.135 . S
Co98 O99 2.216 . S
Co98 O100 2.091 . S
Co98 O102 2.004 . S
Co98 O108 2.021 . S
Co98 O110 2.137 1_565 S
Co98 O111 2.294 . S
O99 Co98 2.216 . S
O99 C106 1.247 . S
O100 Co98 2.091 . S
O100 C106 1.261 . S
C101 O110 1.247 . S
C101 O111 1.261 1_545 S
O102 Co98 2.004 . S
O102 C107 1.259 . S
Co103 O104 2.061 . S
Co103 O109 2.052 . S
Co103 O111 2.141 . S
O104 Co103 2.061 . S
O104 C107 1.235 . S
C105 O108 1.238 . S
C105 O109 1.241 . S
C106 O99 1.247 . S
C106 O100 1.261 . S
C107 O102 1.259 . S
C107 O104 1.235 . S
O108 Co98 2.021 . S
O108 C105 1.238 . S
O109 Co103 2.052 . S
O109 C105 1.241 . S
O110 Co98 2.137 1_545 S
O110 C101 1.247 . S
O111 Co98 2.294 . S
O111 C101 1.261 1_565 S
O111 Co103 2.141 . S
Co112 O113 2.216 . S
Co112 O114 2.091 . S
Co112 O116 2.004 . S
Co112 O122 2.021 . S
Co112 O124 2.126 1_455 S
Co112 O125 2.244 . S
O113 Co112 2.216 . S
O113 C120 1.247 . S
O114 Co112 2.091 . S
O114 C120 1.261 . S
C115 O124 1.243 . S
C115 O125 1.272 1_655 S
O116 Co112 2.004 . S
O116 C121 1.259 . S
Co117 O118 2.061 . S
Co117 O123 2.052 . S
Co117 O125 2.135 . S
O118 Co117 2.061 . S
O118 C121 1.235 . S
C119 O122 1.238 . S
C119 O123 1.241 . S
C120 O113 1.247 . S
C120 O114 1.261 . S
C121 O116 1.259 . S
C121 O118 1.235 . S
O122 Co112 2.021 . S
O122 C119 1.238 . S
O123 Co117 2.052 . S
O123 C119 1.241 . S
O124 Co112 2.126 1_655 S
O124 C115 1.243 . S
O125 Co112 2.244 . S
O125 C115 1.272 1_455 S
O125 Co117 2.135 . S
Co126 O127 2.216 . S
Co126 O128 2.091 . S
Co126 O130 2.004 . S
Co126 O136 2.021 . S
Co126 O138 2.137 1_565 S
Co126 O139 2.247 . S
O127 Co126 2.216 . S
O127 C134 1.247 . S
O128 Co126 2.091 . S
O128 C134 1.261 . S
C129 O138 1.247 . S
C129 O139 1.252 1_545 S
O130 Co126 2.004 . S
O130 C135 1.259 . S
Co131 O132 2.061 . S
Co131 O137 2.052 . S
Co131 O139 2.158 . S
O132 Co131 2.061 . S
O132 C135 1.235 . S
C133 O136 1.238 . S
C133 O137 1.241 . S
C134 O127 1.247 . S
C134 O128 1.261 . S
C135 O130 1.259 . S
C135 O132 1.235 . S
O136 Co126 2.021 . S
O136 C133 1.238 . S
O137 Co131 2.052 . S
O137 C133 1.241 . S
O138 Co126 2.137 1_545 S
O138 C129 1.247 . S
O139 Co126 2.247 . S
O139 C129 1.252 1_565 S
O139 Co131 2.158 . S
Co140 O141 2.216 1_455 S
Co140 O142 2.091 1_455 S
Co140 O144 2.004 . S
Co140 O150 2.021 . S
Co140 O152 2.138 . S
Co140 O153 2.244 . S
O141 Co140 2.216 1_655 S
O141 C148 1.247 . S
O142 Co140 2.091 1_655 S
O142 C148 1.261 . S
C143 O152 1.272 . S
C143 O153 1.272 . S
O144 Co140 2.004 . S
O144 C149 1.259 . S
Co145 O146 2.061 . S
Co145 O151 2.052 . S
Co145 O153 2.135 . S
O146 Co145 2.061 . S
O146 C149 1.235 . S
C147 O150 1.238 . S
C147 O151 1.241 . S
C148 O141 1.247 . S
C148 O142 1.261 . S
C149 O144 1.259 . S
C149 O146 1.235 . S
O150 Co140 2.021 . S
O150 C147 1.238 . S
O151 Co145 2.052 . S
O151 C147 1.241 . S
O152 Co140 2.138 . S
O152 C143 1.272 . S
O153 Co140 2.244 . S
O153 C143 1.272 . S
O153 Co145 2.135 . S
Co154 O155 2.216 . S
Co154 O156 2.091 . S
Co154 O158 2.004 . S
Co154 O164 2.021 . S
Co154 O166 2.137 . S
Co154 O167 2.244 . S
O155 Co154 2.216 . S
O155 C162 1.247 . S
O156 Co154 2.091 . S
O156 C162 1.261 . S
C157 O166 1.247 . S
C157 O167 1.272 . S
O158 Co154 2.004 . S
O158 C163 1.259 . S
Co159 O160 2.061 . S
Co159 O165 2.052 . S
Co159 O167 2.135 . S
O160 Co159 2.061 . S
O160 C163 1.235 . S
C161 O164 1.238 . S
C161 O165 1.241 . S
C162 O155 1.247 . S
C162 O156 1.261 . S
C163 O158 1.259 . S
C163 O160 1.235 . S
O164 Co154 2.021 . S
O164 C161 1.238 . S
O165 Co159 2.052 . S
O165 C161 1.241 . S
O166 Co154 2.137 . S
O166 C157 1.247 . S
O167 Co154 2.244 . S
O167 C157 1.272 . S
O167 Co159 2.135 . S
Co168 O169 2.216 . S
Co168 O170 2.091 . S
Co168 O172 2.004 . S
Co168 O178 2.021 . S
Co168 O180 2.137 1_545 S
Co168 O181 2.244 . S
O169 Co168 2.216 . S
O169 C176 1.247 . S
O170 Co168 2.091 . S
O170 C176 1.261 . S
C171 O180 1.247 . S
C171 O181 1.272 1_565 S
O172 Co168 2.004 . S
O172 C177 1.259 . S
Co173 O174 2.061 . S
Co173 O179 2.052 . S
Co173 O181 2.135 . S
O174 Co173 2.061 . S
O174 C177 1.235 . S
C175 O178 1.238 . S
C175 O179 1.241 . S
C176 O169 1.247 . S
C176 O170 1.261 . S
C177 O172 1.259 . S
C177 O174 1.235 . S
O178 Co168 2.021 . S
O178 C175 1.238 . S
O179 Co173 2.052 . S
O179 C175 1.241 . S
O180 Co168 2.137 1_565 S
O180 C171 1.247 . S
O181 Co168 2.244 . S
O181 C171 1.272 1_545 S
O181 Co173 2.135 . S
Co182 O183 2.216 1_655 S
Co182 O184 2.091 1_655 S
Co182 O186 2.004 . S
Co182 O192 2.021 . S
Co182 O194 2.137 . S
Co182 O195 2.244 . S
O183 Co182 2.216 1_455 S
O183 C190 1.247 . S
O184 Co182 2.091 1_455 S
O184 C190 1.261 . S
C185 O194 1.255 . S
C185 O195 1.272 . S
O186 Co182 2.004 . S
O186 C191 1.259 . S
Co187 O188 2.061 . S
Co187 O193 2.052 . S
Co187 O195 2.135 . S
O188 Co187 2.061 . S
O188 C191 1.235 . S
C189 O192 1.238 . S
C189 O193 1.241 . S
C190 O183 1.247 . S
C190 O184 1.261 . S
C191 O186 1.259 . S
C191 O188 1.235 . S
O192 Co182 2.021 . S
O192 C189 1.238 . S
O193 Co187 2.052 . S
O193 C189 1.241 . S
O194 Co182 2.137 . S
O194 C185 1.255 . S
O195 Co182 2.244 . S
O195 C185 1.272 . S
O195 Co187 2.135 . S
Co196 O197 2.216 . S
Co196 O198 2.091 . S
Co196 O200 2.004 . S
Co196 O206 2.021 . S
Co196 O208 2.137 . S
Co196 O209 2.244 . S
O197 Co196 2.216 . S
O197 C204 1.247 . S
O198 Co196 2.091 . S
O198 C204 1.261 . S
C199 O208 1.247 . S
C199 O209 1.272 . S
O200 Co196 2.004 . S
O200 C205 1.259 . S
Co201 O202 2.061 . S
Co201 O207 2.052 . S
Co201 O209 2.135 . S
O202 Co201 2.061 . S
O202 C205 1.235 . S
C203 O206 1.238 . S
C203 O207 1.241 . S
C204 O197 1.247 . S
C204 O198 1.261 . S
C205 O200 1.259 . S
C205 O202 1.235 . S
O206 Co196 2.021 . S
O206 C203 1.238 . S
O207 Co201 2.052 . S
O207 C203 1.241 . S
O208 Co196 2.137 . S
O208 C199 1.247 . S
O209 Co196 2.244 . S
O209 C199 1.272 . S
O209 Co201 2.135 . S
Co210 O211 2.216 . S
Co210 O212 2.091 . S
Co210 O214 2.004 . S
Co210 O220 2.021 . S
Co210 O222 2.137 . S
Co210 O223 2.244 . S
O211 Co210 2.216 . S
O211 C218 1.247 . S
O212 Co210 2.091 . S
O212 C218 1.261 . S
C213 O222 1.247 . S
C213 O223 1.272 . S
O214 Co210 2.004 . S
O214 C219 1.259 . S
Co215 O216 2.061 . S
Co215 O221 2.052 . S
Co215 O223 2.135 . S
O216 Co215 2.061 . S
O216 C219 1.235 . S
C217 O220 1.238 . S
C217 O221 1.241 . S
C218 O211 1.247 . S
C218 O212 1.261 . S
C219 O214 1.259 . S
C219 O216 1.235 . S
O220 Co210 2.021 . S
O220 C217 1.238 . S
O221 Co215 2.052 . S
O221 C217 1.241 . S
O222 Co210 2.137 . S
O222 C213 1.247 . S
O223 Co210 2.244 . S
O223 C213 1.272 . S
O223 Co215 2.135 . S
Co224 O225 2.216 . S
Co224 O226 2.091 . S
Co224 O228 2.004 . S
Co224 O234 2.021 . S
Co224 O236 2.137 1_545 S
Co224 O237 2.244 . S
O225 Co224 2.216 . S
O225 C232 1.247 . S
O226 Co224 2.091 . S
O226 C232 1.261 . S
C227 O236 1.247 . S
C227 O237 1.272 1_565 S
O228 Co224 2.004 . S
O228 C233 1.259 . S
Co229 O230 2.061 . S
Co229 O235 2.052 . S
Co229 O237 2.135 . S
O230 Co229 2.061 . S
O230 C233 1.235 . S
C231 O234 1.238 . S
C231 O235 1.241 . S
C232 O225 1.247 . S
C232 O226 1.261 . S
C233 O228 1.259 . S
C233 O230 1.235 . S
O234 Co224 2.021 . S
O234 C231 1.238 . S
O235 Co229 2.052 . S
O235 C231 1.241 . S
O236 Co224 2.137 1_565 S
O236 C227 1.247 . S
O237 Co224 2.244 . S
O237 C227 1.272 1_545 S
O237 Co229 2.135 . S
Co238 O239 2.216 . S
Co238 O240 2.091 . S
Co238 O242 2.004 . S
Co238 O248 2.021 . S
Co238 O250 2.113 1_655 S
Co238 O251 2.244 . S
O239 Co238 2.216 . S
O239 C246 1.247 . S
O240 Co238 2.091 . S
O240 C246 1.261 . S
C241 O250 1.239 . S
C241 O251 1.272 1_455 S
O242 Co238 2.004 . S
O242 C247 1.259 . S
Co243 O244 2.061 . S
Co243 O249 2.052 . S
Co243 O251 2.135 . S
O244 Co243 2.061 . S
O244 C247 1.235 . S
C245 O248 1.238 . S
C245 O249 1.241 . S
C246 O239 1.247 . S
C246 O240 1.261 . S
C247 O242 1.259 . S
C247 O244 1.235 . S
O248 Co238 2.021 . S
O248 C245 1.238 . S
O249 Co243 2.052 . S
O249 C245 1.241 . S
O250 Co238 2.113 1_455 S
O250 C241 1.239 . S
O251 Co238 2.244 . S
O251 C241 1.272 1_655 S
O251 Co243 2.135 . S
H252 C260 0.930 . S
H253 C263 0.930 . S
H254 C265 0.930 . S
H255 C266 0.970 . S
H256 C266 0.970 . S
H257 C268 0.930 . S
H258 C270 0.930 . S
H259 C272 0.930 . S
C260 H252 0.930 . S
C260 C261 1.382 . S
C260 C262 1.426 . S
C261 C260 1.382 . S
C261 C265 1.389 . S
C262 C260 1.426 . S
C262 C263 1.375 . S
C262 C266 1.532 . S
C263 H253 0.930 . S
C263 C262 1.375 . S
C263 C264 1.416 . S
C264 C263 1.416 . S
C264 C265 1.371 . S
C265 H254 0.930 . S
C265 C261 1.389 . S
C265 C264 1.371 . S
C266 H255 0.970 . S
C266 H256 0.970 . S
C266 C262 1.532 . S
C266 C267 1.499 . S
C267 C266 1.499 . S
C267 C268 1.370 . S
C267 C272 1.415 . S
C268 H257 0.930 . S
C268 C267 1.370 . S
C268 C269 1.407 . S
C269 C268 1.407 . S
C269 C270 1.365 . S
C270 H258 0.930 . S
C270 C269 1.365 . S
C270 C271 1.393 . S
C271 C270 1.393 . S
C271 C272 1.387 . S
C272 H259 0.930 . S
C272 C267 1.415 . S
C272 C271 1.387 . S
H273 C281 0.930 . S
H274 C284 0.930 . S
H275 C286 0.930 . S
H276 C287 0.970 . S
H277 C287 0.970 . S
H278 C289 0.930 . S
H279 C291 0.930 . S
H280 C293 0.930 . S
C281 H273 0.930 . S
C281 C282 1.382 . S
C281 C283 1.426 . S
C282 C281 1.382 . S
C282 C286 1.389 . S
C283 C281 1.426 . S
C283 C284 1.375 . S
C283 C287 1.532 . S
C284 H274 0.930 . S
C284 C283 1.375 . S
C284 C285 1.416 . S
C285 C284 1.416 . S
C285 C286 1.371 . S
C286 H275 0.930 . S
C286 C282 1.389 . S
C286 C285 1.371 . S
C287 H276 0.970 . S
C287 H277 0.970 . S
C287 C283 1.532 . S
C287 C288 1.499 . S
C288 C287 1.499 . S
C288 C289 1.370 . S
C288 C293 1.415 . S
C289 H278 0.930 . S
C289 C288 1.370 . S
C289 C290 1.407 . S
C290 C289 1.407 . S
C290 C291 1.365 . S
C291 H279 0.930 . S
C291 C290 1.365 . S
C291 C292 1.393 . S
C292 C291 1.393 . S
C292 C293 1.387 . S
C293 H280 0.930 . S
C293 C288 1.415 . S
C293 C292 1.387 . S
H294 C302 0.930 . S
H295 C305 0.930 . S
H296 C307 0.930 . S
H297 C308 0.970 . S
H298 C308 0.970 . S
H299 C310 0.930 . S
H300 C312 0.930 . S
H301 C314 0.930 . S
C302 H294 0.930 . S
C302 C303 1.382 . S
C302 C304 1.426 . S
C303 C302 1.382 . S
C303 C307 1.389 . S
C304 C302 1.426 . S
C304 C305 1.375 . S
C304 C308 1.532 . S
C305 H295 0.930 . S
C305 C304 1.375 . S
C305 C306 1.416 . S
C306 C305 1.416 . S
C306 C307 1.371 . S
C307 H296 0.930 . S
C307 C303 1.389 . S
C307 C306 1.371 . S
C308 H297 0.970 . S
C308 H298 0.970 . S
C308 C304 1.532 . S
C308 C309 1.499 . S
C309 C308 1.499 . S
C309 C310 1.370 . S
C309 C314 1.415 . S
C310 H299 0.930 . S
C310 C309 1.370 . S
C310 C311 1.407 . S
C311 C310 1.407 . S
C311 C312 1.365 . S
C312 H300 0.930 . S
C312 C311 1.365 . S
C312 C313 1.393 . S
C313 C312 1.393 . S
C313 C314 1.387 . S
C314 H301 0.930 . S
C314 C309 1.415 . S
C314 C313 1.387 . S
H315 C323 0.930 . S
H316 C326 0.930 . S
H317 C328 0.930 . S
H318 C329 0.970 . S
H319 C329 0.970 . S
H320 C331 0.930 . S
H321 C333 0.930 . S
H322 C335 0.930 . S
C323 H315 0.930 . S
C323 C324 1.382 . S
C323 C325 1.426 . S
C324 C323 1.382 . S
C324 C328 1.389 . S
C325 C323 1.426 . S
C325 C326 1.375 . S
C325 C329 1.532 . S
C326 H316 0.930 . S
C326 C325 1.375 . S
C326 C327 1.416 . S
C327 C326 1.416 . S
C327 C328 1.371 . S
C328 H317 0.930 . S
C328 C324 1.389 . S
C328 C327 1.371 . S
C329 H318 0.970 . S
C329 H319 0.970 . S
C329 C325 1.532 . S
C329 C330 1.499 . S
C330 C329 1.499 . S
C330 C331 1.370 . S
C330 C335 1.415 . S
C331 H320 0.930 . S
C331 C330 1.370 . S
C331 C332 1.407 . S
C332 C331 1.407 . S
C332 C333 1.365 . S
C333 H321 0.930 . S
C333 C332 1.365 . S
C333 C334 1.393 . S
C334 C333 1.393 . S
C334 C335 1.387 . S
C335 H322 0.930 . S
C335 C330 1.415 . S
C335 C334 1.387 . S
H336 C344 0.930 . S
H337 C347 0.930 . S
H338 C349 0.930 . S
H339 C350 0.970 . S
H340 C350 0.970 . S
H341 C352 0.930 . S
H342 C354 0.930 . S
H343 C356 0.930 . S
C344 H336 0.930 . S
C344 C345 1.382 . S
C344 C346 1.426 . S
C345 C344 1.382 . S
C345 C349 1.389 . S
C346 C344 1.426 . S
C346 C347 1.375 . S
C346 C350 1.532 . S
C347 H337 0.930 . S
C347 C346 1.375 . S
C347 C348 1.416 . S
C348 C347 1.416 . S
C348 C349 1.371 . S
C349 H338 0.930 . S
C349 C345 1.389 . S
C349 C348 1.371 . S
C350 H339 0.970 . S
C350 H340 0.970 . S
C350 C346 1.532 . S
C350 C351 1.499 . S
C351 C350 1.499 . S
C351 C352 1.370 . S
C351 C356 1.415 . S
C352 H341 0.930 . S
C352 C351 1.370 . S
C352 C353 1.407 . S
C353 C352 1.407 . S
C353 C354 1.365 . S
C354 H342 0.930 . S
C354 C353 1.365 . S
C354 C355 1.393 . S
C355 C354 1.393 . S
C355 C356 1.387 . S
C356 H343 0.930 . S
C356 C351 1.415 . S
C356 C355 1.387 . S
H357 C365 0.930 . S
H358 C368 0.930 . S
H359 C370 0.930 . S
H360 C371 0.970 . S
H361 C371 0.970 . S
H362 C373 0.930 . S
H363 C375 0.930 . S
H364 C377 0.930 . S
C365 H357 0.930 . S
C365 C366 1.382 . S
C365 C367 1.426 . S
C366 C365 1.382 . S
C366 C370 1.389 . S
C367 C365 1.426 . S
C367 C368 1.375 . S
C367 C371 1.532 . S
C368 H358 0.930 . S
C368 C367 1.375 . S
C368 C369 1.416 . S
C369 C368 1.416 . S
C369 C370 1.371 . S
C370 H359 0.930 . S
C370 C366 1.389 . S
C370 C369 1.371 . S
C371 H360 0.970 . S
C371 H361 0.970 . S
C371 C367 1.532 . S
C371 C372 1.499 . S
C372 C371 1.499 . S
C372 C373 1.370 . S
C372 C377 1.415 . S
C373 H362 0.930 . S
C373 C372 1.370 . S
C373 C374 1.407 . S
C374 C373 1.407 . S
C374 C375 1.365 . S
C375 H363 0.930 . S
C375 C374 1.365 . S
C375 C376 1.393 . S
C376 C375 1.393 . S
C376 C377 1.387 . S
C377 H364 0.930 . S
C377 C372 1.415 . S
C377 C376 1.387 . S
H378 C386 0.930 . S
H379 C389 0.930 . S
H380 C391 0.930 . S
H381 C392 0.970 . S
H382 C392 0.970 . S
H383 C394 0.930 . S
H384 C396 0.930 . S
H385 C398 0.930 . S
C386 H378 0.930 . S
C386 C387 1.382 . S
C386 C388 1.426 . S
C387 C386 1.382 . S
C387 C391 1.389 . S
C388 C386 1.426 . S
C388 C389 1.375 . S
C388 C392 1.532 . S
C389 H379 0.930 . S
C389 C388 1.375 . S
C389 C390 1.416 . S
C390 C389 1.416 . S
C390 C391 1.371 . S
C391 H380 0.930 . S
C391 C387 1.389 . S
C391 C390 1.371 . S
C392 H381 0.970 . S
C392 H382 0.970 . S
C392 C388 1.532 . S
C392 C393 1.499 . S
C393 C392 1.499 . S
C393 C394 1.370 . S
C393 C398 1.415 . S
C394 H383 0.930 . S
C394 C393 1.370 . S
C394 C395 1.407 . S
C395 C394 1.407 . S
C395 C396 1.365 . S
C396 H384 0.930 . S
C396 C395 1.365 . S
C396 C397 1.393 . S
C397 C396 1.393 . S
C397 C398 1.387 . S
C398 H385 0.930 . S
C398 C393 1.415 . S
C398 C397 1.387 . S
H399 C407 0.930 . S
H400 C410 0.930 . S
H401 C412 0.930 . S
H402 C413 0.970 . S
H403 C413 0.970 . S
H404 C415 0.930 . S
H405 C417 0.930 . S
H406 C419 0.930 . S
C407 H399 0.930 . S
C407 C408 1.382 . S
C407 C409 1.426 . S
C408 C407 1.382 . S
C408 C412 1.389 . S
C409 C407 1.426 . S
C409 C410 1.375 . S
C409 C413 1.532 . S
C410 H400 0.930 . S
C410 C409 1.375 . S
C410 C411 1.416 . S
C411 C410 1.416 . S
C411 C412 1.371 . S
C412 H401 0.930 . S
C412 C408 1.389 . S
C412 C411 1.371 . S
C413 H402 0.970 . S
C413 H403 0.970 . S
C413 C409 1.532 . S
C413 C414 1.499 . S
C414 C413 1.499 . S
C414 C415 1.370 . S
C414 C419 1.415 . S
C415 H404 0.930 . S
C415 C414 1.370 . S
C415 C416 1.407 . S
C416 C415 1.407 . S
C416 C417 1.365 . S
C417 H405 0.930 . S
C417 C416 1.365 . S
C417 C418 1.393 . S
C418 C417 1.393 . S
C418 C419 1.387 . S
C419 H406 0.930 . S
C419 C414 1.415 . S
C419 C418 1.387 . S
H420 C428 0.930 . S
H421 C431 0.930 . S
H422 C433 0.930 . S
H423 C434 0.970 . S
H424 C434 0.970 . S
H425 C436 0.930 . S
H426 C438 0.930 . S
H427 C440 0.930 . S
C428 H420 0.930 . S
C428 C429 1.382 . S
C428 C430 1.426 . S
C429 C428 1.382 . S
C429 C433 1.389 . S
C430 C428 1.426 . S
C430 C431 1.375 . S
C430 C434 1.532 . S
C431 H421 0.930 . S
C431 C430 1.375 . S
C431 C432 1.416 . S
C432 C431 1.416 . S
C432 C433 1.371 . S
C433 H422 0.930 . S
C433 C429 1.389 . S
C433 C432 1.371 . S
C434 H423 0.970 . S
C434 H424 0.970 . S
C434 C430 1.532 . S
C434 C435 1.499 . S
C435 C434 1.499 . S
C435 C436 1.370 . S
C435 C440 1.415 . S
C436 H425 0.930 . S
C436 C435 1.370 . S
C436 C437 1.407 . S
C437 C436 1.407 . S
C437 C438 1.365 . S
C438 H426 0.930 . S
C438 C437 1.365 . S
C438 C439 1.393 . S
C439 C438 1.393 . S
C439 C440 1.387 . S
C440 H427 0.930 . S
C440 C435 1.415 . S
C440 C439 1.387 . S
H441 C449 0.930 . S
H442 C452 0.930 . S
H443 C454 0.930 . S
H444 C455 0.970 . S
H445 C455 0.970 . S
H446 C457 0.930 . S
H447 C459 0.930 . S
H448 C461 0.930 . S
C449 H441 0.930 . S
C449 C450 1.382 . S
C449 C451 1.426 . S
C450 C449 1.382 . S
C450 C454 1.389 1_455 S
C451 C449 1.426 . S
C451 C452 1.375 . S
C451 C455 1.532 . S
C452 H442 0.930 . S
C452 C451 1.375 . S
C452 C453 1.416 . S
C453 C452 1.416 . S
C453 C454 1.371 1_455 S
C454 H443 0.930 . S
C454 C450 1.389 1_655 S
C454 C453 1.371 1_655 S
C455 H444 0.970 . S
C455 H445 0.970 . S
C455 C451 1.532 . S
C455 C456 1.499 . S
C456 C455 1.499 . S
C456 C457 1.370 . S
C456 C461 1.415 . S
C457 H446 0.930 . S
C457 C456 1.370 . S
C457 C458 1.412 . S
C458 C457 1.412 . S
C458 C459 1.373 1_455 S
C459 H447 0.930 . S
C459 C458 1.373 1_655 S
C459 C460 1.393 1_655 S
C460 C459 1.393 1_455 S
C460 C461 1.387 . S
C461 H448 0.930 . S
C461 C456 1.415 . S
C461 C460 1.387 . S
H462 C470 0.930 . S
H463 C473 0.930 . S
H464 C475 0.930 . S
H465 C476 0.970 . S
H466 C476 0.970 . S
H467 C478 0.930 . S
H468 C480 0.930 . S
H469 C482 0.930 . S
C470 H462 0.930 . S
C470 C471 1.382 . S
C470 C472 1.426 . S
C471 C470 1.382 . S
C471 C475 1.389 . S
C472 C470 1.426 . S
C472 C473 1.375 . S
C472 C476 1.532 . S
C473 H463 0.930 . S
C473 C472 1.375 . S
C473 C474 1.416 . S
C474 C473 1.416 . S
C474 C475 1.371 . S
C475 H464 0.930 . S
C475 C471 1.389 . S
C475 C474 1.371 . S
C476 H465 0.970 . S
C476 H466 0.970 . S
C476 C472 1.532 . S
C476 C477 1.499 . S
C477 C476 1.499 . S
C477 C478 1.370 . S
C477 C482 1.415 . S
C478 H467 0.930 . S
C478 C477 1.370 . S
C478 C479 1.407 . S
C479 C478 1.407 . S
C479 C480 1.365 . S
C480 H468 0.930 . S
C480 C479 1.365 . S
C480 C481 1.393 . S
C481 C480 1.393 . S
C481 C482 1.387 . S
C482 H469 0.930 . S
C482 C477 1.415 . S
C482 C481 1.387 . S
H483 C491 0.930 . S
H484 C494 0.930 . S
H485 C496 0.930 . S
H486 C497 0.970 . S
H487 C497 0.970 . S
H488 C499 0.930 . S
H489 C501 0.930 . S
H490 C503 0.930 . S
C491 H483 0.930 . S
C491 C492 1.382 . S
C491 C493 1.426 . S
C492 C491 1.382 . S
C492 C496 1.389 1_565 S
C493 C491 1.426 . S
C493 C494 1.375 . S
C493 C497 1.532 . S
C494 H484 0.930 . S
C494 C493 1.375 . S
C494 C495 1.416 . S
C495 C494 1.416 . S
C495 C496 1.371 1_565 S
C496 H485 0.930 . S
C496 C492 1.389 1_545 S
C496 C495 1.371 1_545 S
C497 H486 0.970 . S
C497 H487 0.970 . S
C497 C493 1.532 . S
C497 C498 1.499 . S
C498 C497 1.499 . S
C498 C499 1.370 . S
C498 C503 1.415 . S
C499 H488 0.930 . S
C499 C498 1.370 . S
C499 C500 1.433 . S
C500 C499 1.433 . S
C500 C501 1.355 1_565 S
C501 H489 0.930 . S
C501 C500 1.355 1_545 S
C501 C502 1.393 1_545 S
C502 C501 1.393 1_565 S
C502 C503 1.387 . S
C503 H490 0.930 . S
C503 C498 1.415 . S
C503 C502 1.387 . S
H504 C512 0.930 . S
H505 C515 0.930 . S
H506 C517 0.930 . S
H507 C518 0.970 . S
H508 C518 0.970 . S
H509 C520 0.930 . S
H510 C522 0.930 . S
H511 C524 0.930 . S
C512 H504 0.930 . S
C512 C513 1.382 . S
C512 C514 1.426 . S
C513 C512 1.382 . S
C513 C517 1.389 1_565 S
C514 C512 1.426 . S
C514 C515 1.375 . S
C514 C518 1.532 . S
C515 H505 0.930 . S
C515 C514 1.375 . S
C515 C516 1.484 . S
C516 C515 1.484 . S
C516 C517 1.347 1_565 S
C517 H506 0.930 . S
C517 C513 1.389 1_545 S
C517 C516 1.347 1_545 S
C518 H507 0.970 . S
C518 H508 0.970 . S
C518 C514 1.532 . S
C518 C519 1.499 . S
C519 C518 1.499 . S
C519 C520 1.370 . S
C519 C524 1.415 . S
C520 H509 0.930 . S
C520 C519 1.370 . S
C520 C521 1.407 . S
C521 C520 1.407 . S
C521 C522 1.365 1_565 S
C522 H510 0.930 . S
C522 C521 1.365 1_545 S
C522 C523 1.393 1_545 S
C523 C522 1.393 1_565 S
C523 C524 1.387 . S
C524 H511 0.930 . S
C524 C519 1.415 . S
C524 C523 1.387 . S
H525 C533 0.930 . S
H526 C536 0.930 . S
H527 C538 0.930 . S
H528 C539 0.970 . S
H529 C539 0.970 . S
H530 C541 0.930 . S
H531 C543 0.930 . S
H532 C545 0.930 . S
C533 H525 0.930 . S
C533 C534 1.382 . S
C533 C535 1.426 . S
C534 C533 1.382 . S
C534 C538 1.389 1_455 S
C535 C533 1.426 . S
C535 C536 1.375 . S
C535 C539 1.532 . S
C536 H526 0.930 . S
C536 C535 1.375 . S
C536 C537 1.416 . S
C537 C536 1.416 . S
C537 C538 1.371 1_455 S
C538 H527 0.930 . S
C538 C534 1.389 1_655 S
C538 C537 1.371 1_655 S
C539 H528 0.970 . S
C539 H529 0.970 . S
C539 C535 1.532 . S
C539 C540 1.499 . S
C540 C539 1.499 . S
C540 C541 1.370 . S
C540 C545 1.415 . S
C541 H530 0.930 . S
C541 C540 1.370 . S
C541 C542 1.407 . S
C542 C541 1.407 . S
C542 C543 1.365 1_455 S
C543 H531 0.930 . S
C543 C542 1.365 1_655 S
C543 C544 1.393 1_655 S
C544 C543 1.393 1_455 S
C544 C545 1.387 . S
C545 H532 0.930 . S
C545 C540 1.415 . S
C545 C544 1.387 . S
H546 C554 0.930 . S
H547 C557 0.930 . S
H548 C559 0.930 . S
H549 C560 0.970 . S
H550 C560 0.970 . S
H551 C562 0.930 . S
H552 C564 0.930 . S
H553 C566 0.930 . S
C554 H546 0.930 . S
C554 C555 1.382 . S
C554 C556 1.426 . S
C555 C554 1.382 . S
C555 C559 1.389 . S
C556 C554 1.426 . S
C556 C557 1.375 . S
C556 C560 1.532 . S
C557 H547 0.930 . S
C557 C556 1.375 . S
C557 C558 1.416 . S
C558 C557 1.416 . S
C558 C559 1.371 . S
C559 H548 0.930 . S
C559 C555 1.389 . S
C559 C558 1.371 . S
C560 H549 0.970 . S
C560 H550 0.970 . S
C560 C556 1.532 . S
C560 C561 1.499 . S
C561 C560 1.499 . S
C561 C562 1.370 . S
C561 C566 1.415 . S
C562 H551 0.930 . S
C562 C561 1.370 . S
C562 C563 1.407 . S
C563 C562 1.407 . S
C563 C564 1.365 . S
C564 H552 0.930 . S
C564 C563 1.365 . S
C564 C565 1.393 . S
C565 C564 1.393 . S
C565 C566 1.387 . S
C566 H553 0.930 . S
C566 C561 1.415 . S
C566 C565 1.387 . S
H567 C575 0.930 . S
H568 C578 0.930 . S
H569 C580 0.930 . S
H570 C581 0.970 . S
H571 C581 0.970 . S
H572 C583 0.930 . S
H573 C585 0.930 . S
H574 C587 0.930 . S
C575 H567 0.930 . S
C575 C576 1.382 . S
C575 C577 1.426 . S
C576 C575 1.382 . S
C576 C580 1.389 . S
C577 C575 1.426 . S
C577 C578 1.375 . S
C577 C581 1.532 . S
C578 H568 0.930 . S
C578 C577 1.375 . S
C578 C579 1.416 . S
C579 C578 1.416 . S
C579 C580 1.371 . S
C580 H569 0.930 . S
C580 C576 1.389 . S
C580 C579 1.371 . S
C581 H570 0.970 . S
C581 H571 0.970 . S
C581 C577 1.532 . S
C581 C582 1.499 . S
C582 C581 1.499 . S
C582 C583 1.370 . S
C582 C587 1.415 . S
C583 H572 0.930 . S
C583 C582 1.370 . S
C583 C584 1.407 . S
C584 C583 1.407 . S
C584 C585 1.365 . S
C585 H573 0.930 . S
C585 C584 1.365 . S
C585 C586 1.393 . S
C586 C585 1.393 . S
C586 C587 1.387 . S
C587 H574 0.930 . S
C587 C582 1.415 . S
C587 C586 1.387 . S
H588 C596 0.930 . S
H589 C599 0.930 . S
H590 C601 0.930 . S
H591 C602 0.970 . S
H592 C602 0.970 . S
H593 C604 0.930 . S
H594 C606 0.930 . S
H595 C608 0.930 . S
C596 H588 0.930 . S
C596 C597 1.382 . S
C596 C598 1.426 . S
C597 C596 1.382 . S
C597 C601 1.389 . S
C598 C596 1.426 . S
C598 C599 1.375 . S
C598 C602 1.532 . S
C599 H589 0.930 . S
C599 C598 1.375 . S
C599 C600 1.416 . S
C600 C599 1.416 . S
C600 C601 1.371 . S
C601 H590 0.930 . S
C601 C597 1.389 . S
C601 C600 1.371 . S
C602 H591 0.970 . S
C602 H592 0.970 . S
C602 C598 1.532 . S
C602 C603 1.499 . S
C603 C602 1.499 . S
C603 C604 1.370 . S
C603 C608 1.415 . S
C604 H593 0.930 . S
C604 C603 1.370 . S
C604 C605 1.407 . S
C605 C604 1.407 . S
C605 C606 1.365 . S
C606 H594 0.930 . S
C606 C605 1.365 . S
C606 C607 1.393 . S
C607 C606 1.393 . S
C607 C608 1.387 . S
C608 H595 0.930 . S
C608 C603 1.415 . S
C608 C607 1.387 . S
H609 C617 0.930 . S
H610 C620 0.930 . S
H611 C622 0.930 . S
H612 C623 0.970 . S
H613 C623 0.970 . S
H614 C625 0.930 . S
H615 C627 0.930 . S
H616 C629 0.930 . S
C617 H609 0.930 . S
C617 C618 1.382 . S
C617 C619 1.426 . S
C618 C617 1.382 . S
C618 C622 1.389 . S
C619 C617 1.426 . S
C619 C620 1.375 . S
C619 C623 1.532 . S
C620 H610 0.930 . S
C620 C619 1.375 . S
C620 C621 1.416 . S
C621 C620 1.416 . S
C621 C622 1.371 . S
C622 H611 0.930 . S
C622 C618 1.389 . S
C622 C621 1.371 . S
C623 H612 0.970 . S
C623 H613 0.970 . S
C623 C619 1.532 . S
C623 C624 1.499 . S
C624 C623 1.499 . S
C624 C625 1.370 . S
C624 C629 1.415 . S
C625 H614 0.930 . S
C625 C624 1.370 . S
C625 C626 1.407 . S
C626 C625 1.407 . S
C626 C627 1.365 . S
C627 H615 0.930 . S
C627 C626 1.365 . S
C627 C628 1.393 . S
C628 C627 1.393 . S
C628 C629 1.387 . S
C629 H616 0.930 . S
C629 C624 1.415 . S
C629 C628 1.387 . S
H630 C638 0.929 . S
H631 C640 0.930 . S
H632 C642 0.930 . S
H633 C645 0.929 . S
H634 C648 0.930 . S
H635 C650 0.960 . S
H636 C650 0.960 . S
H637 C650 0.960 . S
C638 H630 0.929 . S
C638 C639 1.421 . S
C638 C640 1.384 . S
C639 C638 1.421 . S
C639 C645 1.374 1_655 S
C640 H631 0.930 . S
C640 C638 1.384 . S
C640 C641 1.372 . S
C641 C640 1.372 . S
C641 C642 1.400 1_655 S
C641 C646 1.490 . S
C642 H632 0.930 . S
C642 C641 1.400 1_455 S
C642 C645 1.386 . S
H643 C659 0.930 1_455 S
H644 C660 0.944 . S
C645 H633 0.929 . S
C645 C639 1.374 1_455 S
C645 C642 1.386 . S
C646 C641 1.490 . S
C646 C648 1.395 . S
C646 C649 1.403 1_655 S
H647 C653 0.930 . S
C648 H634 0.930 . S
C648 C646 1.395 . S
C648 C651 1.403 . S
C649 C646 1.403 1_455 S
C649 C650 1.524 . S
C649 C653 1.400 . S
C650 H635 0.960 . S
C650 H636 0.960 . S
C650 H637 0.960 . S
C650 C649 1.524 . S
C651 C648 1.403 . S
C651 C652 1.392 . S
C651 C655 1.495 . S
C652 C651 1.392 . S
C652 C653 1.385 1_655 S
C652 C654 1.478 . S
C653 H647 0.930 . S
C653 C649 1.400 . S
C653 C652 1.385 1_455 S
C654 C652 1.478 . S
C654 C656 1.381 . S
C654 C660 1.383 . S
C655 C651 1.495 . S
C655 H661 0.959 . S
C655 H662 0.961 . S
C655 H663 0.960 . S
C656 C654 1.381 . S
C656 C657 1.394 . S
C656 H664 0.930 . S
C657 C656 1.394 . S
C657 C658 1.383 . S
C657 H665 0.929 . S
C658 C657 1.383 . S
C658 C659 1.377 . S
C659 H643 0.930 1_655 S
C659 C658 1.377 . S
C659 C660 1.379 . S
C660 H644 0.944 . S
C660 C654 1.383 . S
C660 C659 1.379 . S
H661 C655 0.959 . S
H662 C655 0.961 . S
H663 C655 0.960 . S
H664 C656 0.930 . S
H665 C657 0.929 . S
H666 C674 0.929 . S
H667 C676 0.930 . S
H668 C678 0.930 . S
H669 C681 0.929 . S
H670 C684 0.930 . S
H671 C686 0.960 . S
H672 C686 0.960 . S
H673 C686 0.960 . S
C674 H666 0.929 . S
C674 C675 1.377 . S
C674 C676 1.384 . S
C675 C674 1.377 . S
C675 C681 1.390 . S
C676 H667 0.930 . S
C676 C674 1.384 . S
C676 C677 1.372 . S
C677 C676 1.372 . S
C677 C678 1.400 . S
C677 C682 1.490 . S
C678 H668 0.930 . S
C678 C677 1.400 . S
C678 C681 1.386 . S
H679 C695 0.930 . S
H680 C696 0.931 . S
C681 H669 0.929 . S
C681 C675 1.390 . S
C681 C678 1.386 . S
C682 C677 1.490 . S
C682 C684 1.395 . S
C682 C685 1.403 . S
H683 C689 0.930 . S
C684 H670 0.930 . S
C684 C682 1.395 . S
C684 C687 1.403 . S
C685 C682 1.403 . S
C685 C686 1.524 . S
C685 C689 1.400 . S
C686 H671 0.960 . S
C686 H672 0.960 . S
C686 H673 0.960 . S
C686 C685 1.524 . S
C687 C684 1.403 . S
C687 C688 1.392 . S
C687 C691 1.495 . S
C688 C687 1.392 . S
C688 C689 1.385 . S
C688 C690 1.478 . S
C689 H683 0.930 . S
C689 C685 1.400 . S
C689 C688 1.385 . S
C690 C688 1.478 . S
C690 C692 1.381 . S
C690 C696 1.383 . S
C691 C687 1.495 . S
C691 H697 0.959 . S
C691 H698 0.961 . S
C691 H699 0.960 . S
C692 C690 1.381 . S
C692 C693 1.394 . S
C692 H700 0.930 . S
C693 C692 1.394 . S
C693 C694 1.383 . S
C693 H701 0.929 . S
C694 C693 1.383 . S
C694 C695 1.377 . S
C695 H679 0.930 . S
C695 C694 1.377 . S
C695 C696 1.379 . S
C696 H680 0.931 . S
C696 C690 1.383 . S
C696 C695 1.379 . S
H697 C691 0.959 . S
H698 C691 0.961 . S
H699 C691 0.960 . S
H700 C692 0.930 . S
H701 C693 0.929 . S
H702 C710 0.929 . S
H703 C712 0.930 . S
H704 C714 0.930 . S
H705 C717 0.929 . S
H706 C720 0.930 . S
H707 C722 0.960 . S
H708 C722 0.960 . S
H709 C722 0.960 . S
C710 H702 0.929 . S
C710 C711 1.377 1_565 S
C710 C712 1.384 . S
C711 C710 1.377 1_545 S
C711 C717 1.390 . S
C712 H703 0.930 . S
C712 C710 1.384 . S
C712 C713 1.372 1_565 S
C713 C712 1.372 1_545 S
C713 C714 1.400 . S
C713 C718 1.490 . S
C714 H704 0.930 . S
C714 C713 1.400 . S
C714 C717 1.386 . S
H715 C731 0.930 . S
H716 C732 0.931 . S
C717 H705 0.929 . S
C717 C711 1.390 . S
C717 C714 1.386 . S
C718 C713 1.490 . S
C718 C720 1.395 1_545 S
C718 C721 1.403 . S
H719 C725 0.930 . S
C720 H706 0.930 . S
C720 C718 1.395 1_565 S
C720 C723 1.403 . S
C721 C718 1.403 . S
C721 C722 1.524 . S
C721 C725 1.400 . S
C722 H707 0.960 . S
C722 H708 0.960 . S
C722 H709 0.960 . S
C722 C721 1.524 . S
C723 C720 1.403 . S
C723 C724 1.392 1_565 S
C723 C727 1.495 . S
C724 C723 1.392 1_545 S
C724 C725 1.385 . S
C724 C726 1.478 . S
C725 H719 0.930 . S
C725 C721 1.400 . S
C725 C724 1.385 . S
C726 C724 1.478 . S
C726 C728 1.381 1_545 S
C726 C732 1.383 . S
C727 C723 1.495 . S
C727 H733 0.959 . S
C727 H734 0.961 . S
C727 H735 0.960 . S
C728 C726 1.381 1_565 S
C728 C729 1.394 . S
C728 H736 0.930 . S
C729 C728 1.394 . S
C729 C730 1.383 1_565 S
C729 H737 0.929 . S
C730 C729 1.383 1_545 S
C730 C731 1.377 . S
C731 H715 0.930 . S
C731 C730 1.377 . S
C731 C732 1.379 . S
C732 H716 0.931 . S
C732 C726 1.383 . S
C732 C731 1.379 . S
H733 C727 0.959 . S
H734 C727 0.961 . S
H735 C727 0.960 . S
H736 C728 0.930 . S
H737 C729 0.929 . S
H738 C746 0.929 . S
H739 C748 0.930 . S
H740 C750 0.930 . S
H741 C753 0.929 . S
H742 C756 0.930 . S
H743 C758 0.960 . S
H744 C758 0.960 . S
H745 C758 0.960 . S
C746 H738 0.929 . S
C746 C747 1.377 1_565 S
C746 C748 1.384 . S
C747 C746 1.377 1_545 S
C747 C753 1.390 . S
C748 H739 0.930 . S
C748 C746 1.384 . S
C748 C749 1.378 . S
C749 C748 1.378 . S
C749 C750 1.388 1_565 S
C749 C754 1.495 . S
C750 H740 0.930 . S
C750 C749 1.388 1_545 S
C750 C753 1.386 . S
H751 C767 0.930 . S
H752 C768 0.931 . S
C753 H741 0.929 . S
C753 C747 1.390 . S
C753 C750 1.386 . S
C754 C749 1.495 . S
C754 C756 1.395 . S
C754 C757 1.403 1_565 S
H755 C761 0.930 . S
C756 H742 0.930 . S
C756 C754 1.395 . S
C756 C759 1.403 . S
C757 C754 1.403 1_545 S
C757 C758 1.524 . S
C757 C761 1.400 . S
C758 H743 0.960 . S
C758 H744 0.960 . S
C758 H745 0.960 . S
C758 C757 1.524 . S
C759 C756 1.403 . S
C759 C760 1.392 . S
C759 C763 1.495 . S
C760 C759 1.392 . S
C760 C761 1.385 1_565 S
C760 C762 1.478 . S
C761 H755 0.930 . S
C761 C757 1.400 . S
C761 C760 1.385 1_545 S
C762 C760 1.478 . S
C762 C764 1.381 . S
C762 C768 1.383 1_565 S
C763 C759 1.495 . S
C763 H769 0.959 . S
C763 H770 0.961 . S
C763 H771 0.960 . S
C764 C762 1.381 . S
C764 C765 1.394 . S
C764 H772 0.930 . S
C765 C764 1.394 . S
C765 C766 1.383 . S
C765 H773 0.929 . S
C766 C765 1.383 . S
C766 C767 1.377 1_565 S
C767 H751 0.930 . S
C767 C766 1.377 1_545 S
C767 C768 1.379 . S
C768 H752 0.931 . S
C768 C762 1.383 1_545 S
C768 C767 1.379 . S
H769 C763 0.959 . S
H770 C763 0.961 . S
H771 C763 0.960 . S
H772 C764 0.930 . S
H773 C765 0.929 . S
H774 C782 0.929 . S
H775 C784 0.930 . S
H776 C786 0.933 1_655 S
H777 C789 0.960 1_655 S
H778 C792 0.930 . S
H779 C794 0.960 . S
H780 C794 0.960 . S
H781 C794 0.960 . S
C782 H774 0.929 . S
C782 C783 1.377 . S
C782 C784 1.384 . S
C783 C782 1.377 . S
C783 C789 1.390 . S
C784 H775 0.930 . S
C784 C782 1.384 . S
C784 C785 1.372 . S
C785 C784 1.372 . S
C785 C786 1.379 . S
C785 C790 1.490 . S
C786 H776 0.933 1_455 S
C786 C785 1.379 . S
C786 C789 1.388 . S
H787 C803 0.930 . S
H788 C804 0.931 . S
C789 H777 0.960 1_455 S
C789 C783 1.390 . S
C789 C786 1.388 . S
C790 C785 1.490 . S
C790 C792 1.395 . S
C790 C793 1.403 1_455 S
H791 C797 0.930 . S
C792 H778 0.930 . S
C792 C790 1.395 . S
C792 C795 1.403 . S
C793 C790 1.403 1_655 S
C793 C794 1.524 . S
C793 C797 1.400 . S
C794 H779 0.960 . S
C794 H780 0.960 . S
C794 H781 0.960 . S
C794 C793 1.524 . S
C795 C792 1.403 . S
C795 C796 1.392 . S
C795 C799 1.495 . S
C796 C795 1.392 . S
C796 C797 1.385 1_455 S
C796 C798 1.478 . S
C797 H791 0.930 . S
C797 C793 1.400 . S
C797 C796 1.385 1_655 S
C798 C796 1.478 . S
C798 C800 1.381 . S
C798 C804 1.383 . S
C799 C795 1.495 . S
C799 H805 0.959 . S
C799 H806 0.961 . S
C799 H807 0.960 . S
C800 C798 1.381 . S
C800 C801 1.394 . S
C800 H808 0.930 . S
C801 C800 1.394 . S
C801 C802 1.383 . S
C801 H809 0.929 . S
C802 C801 1.383 . S
C802 C803 1.377 . S
C803 H787 0.930 . S
C803 C802 1.377 . S
C803 C804 1.379 . S
C804 H788 0.931 . S
C804 C798 1.383 . S
C804 C803 1.379 . S
H805 C799 0.959 . S
H806 C799 0.961 . S
H807 C799 0.960 . S
H808 C800 0.930 . S
H809 C801 0.929 . S
H810 C818 0.929 . S
H811 C820 0.930 . S
H812 C822 0.930 . S
H813 C825 0.929 . S
H814 C828 0.930 . S
H815 C830 0.960 . S
H816 C830 0.960 . S
H817 C830 0.960 . S
C818 H810 0.929 . S
C818 C819 1.377 . S
C818 C820 1.384 . S
C819 C818 1.377 . S
C819 C825 1.390 . S
C820 H811 0.930 . S
C820 C818 1.384 . S
C820 C821 1.372 . S
C821 C820 1.372 . S
C821 C822 1.400 . S
C821 C826 1.490 . S
C822 H812 0.930 . S
C822 C821 1.400 . S
C822 C825 1.386 . S
H823 C839 0.930 . S
H824 C840 0.931 . S
C825 H813 0.929 . S
C825 C819 1.390 . S
C825 C822 1.386 . S
C826 C821 1.490 . S
C826 C828 1.395 . S
C826 C829 1.403 . S
H827 C833 0.930 . S
C828 H814 0.930 . S
C828 C826 1.395 . S
C828 C831 1.403 . S
C829 C826 1.403 . S
C829 C830 1.524 . S
C829 C833 1.400 . S
C830 H815 0.960 . S
C830 H816 0.960 . S
C830 H817 0.960 . S
C830 C829 1.524 . S
C831 C828 1.403 . S
C831 C832 1.392 . S
C831 C835 1.495 . S
C832 C831 1.392 . S
C832 C833 1.385 . S
C832 C834 1.478 . S
C833 H827 0.930 . S
C833 C829 1.400 . S
C833 C832 1.385 . S
C834 C832 1.478 . S
C834 C836 1.381 . S
C834 C840 1.383 . S
C835 C831 1.495 . S
C835 H841 0.959 . S
C835 H842 0.961 . S
C835 H843 0.960 . S
C836 C834 1.381 . S
C836 C837 1.394 . S
C836 H844 0.930 . S
C837 C836 1.394 . S
C837 C838 1.383 . S
C837 H845 0.929 . S
C838 C837 1.383 . S
C838 C839 1.377 . S
C839 H823 0.930 . S
C839 C838 1.377 . S
C839 C840 1.379 . S
C840 H824 0.931 . S
C840 C834 1.383 . S
C840 C839 1.379 . S
H841 C835 0.959 . S
H842 C835 0.961 . S
H843 C835 0.960 . S
H844 C836 0.930 . S
H845 C837 0.929 . S
H846 C854 0.929 . S
H847 C856 0.930 . S
H848 C858 0.930 . S
H849 C861 0.929 . S
H850 C864 0.930 . S
H851 C866 0.960 . S
H852 C866 0.960 . S
H853 C866 0.960 . S
C854 H846 0.929 . S
C854 C855 1.377 1_655 S
C854 C856 1.384 . S
C855 C854 1.377 1_455 S
C855 C861 1.390 . S
C856 H847 0.930 . S
C856 C854 1.384 . S
C856 C857 1.320 1_655 S
C857 C856 1.320 1_455 S
C857 C858 1.430 . S
C857 C862 1.488 . S
C858 H848 0.930 . S
C858 C857 1.430 . S
C858 C861 1.386 . S
H859 C875 0.930 . S
H860 C876 0.931 . S
C861 H849 0.929 . S
C861 C855 1.390 . S
C861 C858 1.386 . S
C862 C857 1.488 . S
C862 C864 1.409 . S
C862 C865 1.416 1_455 S
H863 C869 0.930 . S
C864 H850 0.930 . S
C864 C862 1.409 . S
C864 C867 1.403 . S
C865 C862 1.416 1_655 S
C865 C866 1.524 . S
C865 C869 1.400 . S
C866 H851 0.960 . S
C866 H852 0.960 . S
C866 H853 0.960 . S
C866 C865 1.524 . S
C867 C864 1.403 . S
C867 C868 1.392 . S
C867 C871 1.495 . S
C868 C867 1.392 . S
C868 C869 1.385 1_455 S
C868 C870 1.478 . S
C869 H863 0.930 . S
C869 C865 1.400 . S
C869 C868 1.385 1_655 S
C870 C868 1.478 . S
C870 C872 1.381 1_455 S
C870 C876 1.383 . S
C871 C867 1.495 . S
C871 H877 0.959 . S
C871 H878 0.961 . S
C871 H879 0.960 . S
C872 C870 1.381 1_655 S
C872 C873 1.394 . S
C872 H880 0.930 . S
C873 C872 1.394 . S
C873 C874 1.311 1_655 S
C873 H881 0.929 . S
C874 C873 1.311 1_455 S
C874 C875 1.419 . S
C875 H859 0.930 . S
C875 C874 1.419 . S
C875 C876 1.379 . S
C876 H860 0.931 . S
C876 C870 1.383 . S
C876 C875 1.379 . S
H877 C871 0.959 . S
H878 C871 0.961 . S
H879 C871 0.960 . S
H880 C872 0.930 . S
H881 C873 0.929 . S
H882 C890 0.929 . S
H883 C892 0.930 . S
H884 C894 0.930 . S
H885 C897 0.929 . S
H886 C900 0.930 . S
H887 C902 0.960 . S
H888 C902 0.960 . S
H889 C902 0.960 . S
C890 H882 0.929 . S
C890 C891 1.377 . S
C890 C892 1.384 . S
C891 C890 1.377 . S
C891 C897 1.390 . S
C892 H883 0.930 . S
C892 C890 1.384 . S
C892 C893 1.372 . S
C893 C892 1.372 . S
C893 C894 1.400 . S
C893 C898 1.490 . S
C894 H884 0.930 . S
C894 C893 1.400 . S
C894 C897 1.386 . S
H895 C911 0.930 . S
H896 C912 0.931 . S
C897 H885 0.929 . S
C897 C891 1.390 . S
C897 C894 1.386 . S
C898 C893 1.490 . S
C898 C900 1.395 . S
C898 C901 1.403 . S
H899 C905 0.930 . S
C900 H886 0.930 . S
C900 C898 1.395 . S
C900 C903 1.403 . S
C901 C898 1.403 . S
C901 C902 1.524 . S
C901 C905 1.400 . S
C902 H887 0.960 . S
C902 H888 0.960 . S
C902 H889 0.960 . S
C902 C901 1.524 . S
C903 C900 1.403 . S
C903 C904 1.392 . S
C903 C907 1.495 . S
C904 C903 1.392 . S
C904 C905 1.385 . S
C904 C906 1.478 . S
C905 H899 0.930 . S
C905 C901 1.400 . S
C905 C904 1.385 . S
C906 C904 1.478 . S
C906 C908 1.381 . S
C906 C912 1.383 . S
C907 C903 1.495 . S
C907 H913 0.959 . S
C907 H914 0.961 . S
C907 H915 0.960 . S
C908 C906 1.381 . S
C908 C909 1.394 . S
C908 H916 0.930 . S
C909 C908 1.394 . S
C909 C910 1.383 . S
C909 H917 0.929 . S
C910 C909 1.383 . S
C910 C911 1.377 . S
C911 H895 0.930 . S
C911 C910 1.377 . S
C911 C912 1.379 . S
C912 H896 0.931 . S
C912 C906 1.383 . S
C912 C911 1.379 . S
H913 C907 0.959 . S
H914 C907 0.961 . S
H915 C907 0.960 . S
H916 C908 0.930 . S
H917 C909 0.929 . S
H918 C926 0.929 . S
H919 C928 0.930 . S
H920 C930 0.930 . S
H921 C933 0.929 . S
H922 C936 0.930 . S
H923 C938 0.960 . S
H924 C938 0.960 . S
H925 C938 0.960 . S
C926 H918 0.929 . S
C926 C927 1.377 . S
C926 C928 1.384 . S
C927 C926 1.377 . S
C927 C933 1.390 1_565 S
C928 H919 0.930 . S
C928 C926 1.384 . S
C928 C929 1.372 . S
C929 C928 1.372 . S
C929 C930 1.400 1_565 S
C929 C934 1.490 . S
C930 H920 0.930 . S
C930 C929 1.400 1_545 S
C930 C933 1.386 . S
H931 C947 0.930 . S
H932 C948 0.931 . S
C933 H921 0.929 . S
C933 C927 1.390 1_545 S
C933 C930 1.386 . S
C934 C929 1.490 . S
C934 C936 1.395 . S
C934 C937 1.403 1_565 S
H935 C941 0.930 . S
C936 H922 0.930 . S
C936 C934 1.395 . S
C936 C939 1.403 . S
C937 C934 1.403 1_545 S
C937 C938 1.524 . S
C937 C941 1.400 . S
C938 H923 0.960 . S
C938 H924 0.960 . S
C938 H925 0.960 . S
C938 C937 1.524 . S
C939 C936 1.403 . S
C939 C940 1.392 . S
C939 C943 1.495 . S
C940 C939 1.392 . S
C940 C941 1.385 1_565 S
C940 C942 1.478 . S
C941 H935 0.930 . S
C941 C937 1.400 . S
C941 C940 1.385 1_545 S
C942 C940 1.478 . S
C942 C944 1.381 . S
C942 C948 1.383 1_565 S
C943 C939 1.495 . S
C943 H949 0.959 . S
C943 H950 0.961 . S
C943 H951 0.960 . S
C944 C942 1.381 . S
C944 C945 1.394 . S
C944 H952 0.930 . S
C945 C944 1.394 . S
C945 C946 1.453 . S
C945 H953 0.929 . S
C946 C945 1.453 . S
C946 C947 1.341 1_565 S
C947 H931 0.930 . S
C947 C946 1.341 1_545 S
C947 C948 1.379 . S
C948 H932 0.931 . S
C948 C942 1.383 1_545 S
C948 C947 1.379 . S
H949 C943 0.959 . S
H950 C943 0.961 . S
H951 C943 0.960 . S
H952 C944 0.930 . S
H953 C945 0.929 . S
H954 C962 0.929 . S
H955 C964 0.930 . S
H956 C966 0.930 . S
H957 C969 0.929 . S
H958 C972 0.930 . S
H959 C974 0.960 . S
H960 C974 0.960 . S
H961 C974 0.960 . S
C962 H954 0.929 . S
C962 C963 1.377 1_565 S
C962 C964 1.384 . S
C963 C962 1.377 1_545 S
C963 C969 1.390 . S
C964 H955 0.930 . S
C964 C962 1.384 . S
C964 C965 1.290 1_565 S
C965 C964 1.290 1_545 S
C965 C966 1.451 . S
C965 C970 1.510 . S
C966 H956 0.930 . S
C966 C965 1.451 . S
C966 C969 1.386 . S
H967 C983 0.930 . S
H968 C984 0.931 . S
C969 H957 0.929 . S
C969 C963 1.390 . S
C969 C966 1.386 . S
C970 C965 1.510 . S
C970 C972 1.377 1_545 S
C970 C973 1.433 . S
H971 C977 0.930 . S
C972 H958 0.930 . S
C972 C970 1.377 1_565 S
C972 C975 1.403 . S
C973 C970 1.433 . S
C973 C974 1.524 . S
C973 C977 1.400 . S
C974 H959 0.960 . S
C974 H960 0.960 . S
C974 H961 0.960 . S
C974 C973 1.524 . S
C975 C972 1.403 . S
C975 C976 1.467 . S
C975 C979 1.495 . S
C976 C975 1.467 . S
C976 C977 1.343 1_565 S
C976 C978 1.475 . S
C977 H971 0.930 . S
C977 C973 1.400 . S
C977 C976 1.343 1_545 S
C978 C976 1.475 . S
C978 C980 1.419 . S
C978 C984 1.314 1_565 S
C979 C975 1.495 . S
C979 H985 0.959 . S
C979 H986 0.961 . S
C979 H987 0.960 . S
C980 C978 1.419 . S
C980 C981 1.394 . S
C980 H988 0.930 . S
C981 C980 1.394 . S
C981 C982 1.381 . S
C981 H989 0.929 . S
C982 C981 1.381 . S
C982 C983 1.378 1_565 S
C983 H967 0.930 . S
C983 C982 1.378 1_545 S
C983 C984 1.379 . S
C984 H968 0.931 . S
C984 C978 1.314 1_545 S
C984 C983 1.379 . S
H985 C979 0.959 . S
H986 C979 0.961 . S
H987 C979 0.960 . S
H988 C980 0.930 . S
H989 C981 0.929 . S
H990 C998 0.929 . S
H991 C1000 0.930 . S
H992 C1002 0.930 . S
H993 C1005 0.929 . S
H994 C1008 0.930 . S
H995 C1010 0.960 . S
H996 C1010 0.960 . S
H997 C1010 0.960 . S
C998 H990 0.929 . S
C998 C999 1.377 . S
C998 C1000 1.384 . S
C999 C998 1.377 . S
C999 C1005 1.390 1_655 S
C1000 H991 0.930 . S
C1000 C998 1.384 . S
C1000 C1001 1.372 . S
C1001 C1000 1.372 . S
C1001 C1002 1.400 1_655 S
C1001 C1006 1.490 . S
C1002 H992 0.930 . S
C1002 C1001 1.400 1_455 S
C1002 C1005 1.386 . S
H1003 C1019 0.930 . S
H1004 C1020 0.931 . S
C1005 H993 0.929 . S
C1005 C999 1.390 1_455 S
C1005 C1002 1.386 . S
C1006 C1001 1.490 . S
C1006 C1008 1.395 1_655 S
C1006 C1009 1.403 . S
H1007 C1013 0.930 . S
C1008 H994 0.930 . S
C1008 C1006 1.395 1_455 S
C1008 C1011 1.403 . S
C1009 C1006 1.403 . S
C1009 C1010 1.524 . S
C1009 C1013 1.400 . S
C1010 H995 0.960 . S
C1010 H996 0.960 . S
C1010 H997 0.960 . S
C1010 C1009 1.524 . S
C1011 C1008 1.403 . S
C1011 C1012 1.394 1_455 S
C1011 C1015 1.495 . S
C1012 C1011 1.394 1_655 S
C1012 C1013 1.381 . S
C1012 C1014 1.467 1_655 S
C1013 H1007 0.930 . S
C1013 C1009 1.400 . S
C1013 C1012 1.381 . S
C1014 C1012 1.467 1_455 S
C1014 C1016 1.377 1_455 S
C1014 C1020 1.399 . S
C1015 C1011 1.495 . S
C1015 H1021 0.959 . S
C1015 H1022 0.961 . S
C1015 H1023 0.960 . S
C1016 C1014 1.377 1_655 S
C1016 C1017 1.394 . S
C1016 H1024 0.930 . S
C1017 C1016 1.394 . S
C1017 C1018 1.381 . S
C1017 H1025 0.929 . S
C1018 C1017 1.381 . S
C1018 C1019 1.377 1_655 S
C1019 H1003 0.930 . S
C1019 C1018 1.377 1_455 S
C1019 C1020 1.379 . S
C1020 H1004 0.931 . S
C1020 C1014 1.399 . S
C1020 C1019 1.379 . S
H1021 C1015 0.959 . S
H1022 C1015 0.961 . S
H1023 C1015 0.960 . S
H1024 C1016 0.930 . S
H1025 C1017 0.929 . S
H1026 C1034 0.929 . S
H1027 C1036 0.930 . S
H1028 C1038 0.930 . S
H1029 C1041 0.929 . S
H1030 C1044 0.930 . S
H1031 C1046 0.960 . S
H1032 C1046 0.960 . S
H1033 C1046 0.960 . S
C1034 H1026 0.929 . S
C1034 C1035 1.377 . S
C1034 C1036 1.384 . S
C1035 C1034 1.377 . S
C1035 C1041 1.390 . S
C1036 H1027 0.930 . S
C1036 C1034 1.384 . S
C1036 C1037 1.372 . S
C1037 C1036 1.372 . S
C1037 C1038 1.400 . S
C1037 C1042 1.490 . S
C1038 H1028 0.930 . S
C1038 C1037 1.400 . S
C1038 C1041 1.386 . S
H1039 C1055 0.930 . S
H1040 C1056 0.931 . S
C1041 H1029 0.929 . S
C1041 C1035 1.390 . S
C1041 C1038 1.386 . S
C1042 C1037 1.490 . S
C1042 C1044 1.395 . S
C1042 C1045 1.403 . S
H1043 C1049 0.930 . S
C1044 H1030 0.930 . S
C1044 C1042 1.395 . S
C1044 C1047 1.403 . S
C1045 C1042 1.403 . S
C1045 C1046 1.524 . S
C1045 C1049 1.400 . S
C1046 H1031 0.960 . S
C1046 H1032 0.960 . S
C1046 H1033 0.960 . S
C1046 C1045 1.524 . S
C1047 C1044 1.403 . S
C1047 C1048 1.392 . S
C1047 C1051 1.495 . S
C1048 C1047 1.392 . S
C1048 C1049 1.385 . S
C1048 C1050 1.478 . S
C1049 H1043 0.930 . S
C1049 C1045 1.400 . S
C1049 C1048 1.385 . S
C1050 C1048 1.478 . S
C1050 C1052 1.381 . S
C1050 C1056 1.383 . S
C1051 C1047 1.495 . S
C1051 H1057 0.959 . S
C1051 H1058 0.961 . S
C1051 H1059 0.960 . S
C1052 C1050 1.381 . S
C1052 C1053 1.394 . S
C1052 H1060 0.930 . S
C1053 C1052 1.394 . S
C1053 C1054 1.383 . S
C1053 H1061 0.929 . S
C1054 C1053 1.383 . S
C1054 C1055 1.377 . S
C1055 H1039 0.930 . S
C1055 C1054 1.377 . S
C1055 C1056 1.379 . S
C1056 H1040 0.931 . S
C1056 C1050 1.383 . S
C1056 C1055 1.379 . S
H1057 C1051 0.959 . S
H1058 C1051 0.961 . S
H1059 C1051 0.960 . S
H1060 C1052 0.930 . S
H1061 C1053 0.929 . S
H1062 C1070 0.929 . S
H1063 C1072 0.930 . S
H1064 C1074 0.930 . S
H1065 C1077 0.929 . S
H1066 C1080 0.930 . S
H1067 C1082 0.960 . S
H1068 C1082 0.960 . S
H1069 C1082 0.960 . S
C1070 H1062 0.929 . S
C1070 C1071 1.377 . S
C1070 C1072 1.384 . S
C1071 C1070 1.377 . S
C1071 C1077 1.390 . S
C1072 H1063 0.930 . S
C1072 C1070 1.384 . S
C1072 C1073 1.372 . S
C1073 C1072 1.372 . S
C1073 C1074 1.400 . S
C1073 C1078 1.490 . S
C1074 H1064 0.930 . S
C1074 C1073 1.400 . S
C1074 C1077 1.386 . S
H1075 C1091 0.930 . S
H1076 C1092 0.931 . S
C1077 H1065 0.929 . S
C1077 C1071 1.390 . S
C1077 C1074 1.386 . S
C1078 C1073 1.490 . S
C1078 C1080 1.395 . S
C1078 C1081 1.403 . S
H1079 C1085 0.930 . S
C1080 H1066 0.930 . S
C1080 C1078 1.395 . S
C1080 C1083 1.403 . S
C1081 C1078 1.403 . S
C1081 C1082 1.524 . S
C1081 C1085 1.400 . S
C1082 H1067 0.960 . S
C1082 H1068 0.960 . S
C1082 H1069 0.960 . S
C1082 C1081 1.524 . S
C1083 C1080 1.403 . S
C1083 C1084 1.392 . S
C1083 C1087 1.495 . S
C1084 C1083 1.392 . S
C1084 C1085 1.385 . S
C1084 C1086 1.478 . S
C1085 H1079 0.930 . S
C1085 C1081 1.400 . S
C1085 C1084 1.385 . S
C1086 C1084 1.478 . S
C1086 C1088 1.381 . S
C1086 C1092 1.383 . S
C1087 C1083 1.495 . S
C1087 H1093 0.959 . S
C1087 H1094 0.961 . S
C1087 H1095 0.960 . S
C1088 C1086 1.381 . S
C1088 C1089 1.394 . S
C1088 H1096 0.930 . S
C1089 C1088 1.394 . S
C1089 C1090 1.383 . S
C1089 H1097 0.929 . S
C1090 C1089 1.383 . S
C1090 C1091 1.377 . S
C1091 H1075 0.930 . S
C1091 C1090 1.377 . S
C1091 C1092 1.379 . S
C1092 H1076 0.931 . S
C1092 C1086 1.383 . S
C1092 C1091 1.379 . S
H1093 C1087 0.959 . S
H1094 C1087 0.961 . S
H1095 C1087 0.960 . S
H1096 C1088 0.930 . S
H1097 C1089 0.929 . S
H1098 C1106 0.929 . S
H1099 C1108 0.930 . S
H1100 C1110 0.930 . S
H1101 C1113 0.929 . S
H1102 C1116 0.930 . S
H1103 C1118 0.960 . S
H1104 C1118 0.960 . S
H1105 C1118 0.960 . S
C1106 H1098 0.929 . S
C1106 C1107 1.377 . S
C1106 C1108 1.384 . S
C1107 C1106 1.377 . S
C1107 C1113 1.390 . S
C1108 H1099 0.930 . S
C1108 C1106 1.384 . S
C1108 C1109 1.372 . S
C1109 C1108 1.372 . S
C1109 C1110 1.400 . S
C1109 C1114 1.490 . S
C1110 H1100 0.930 . S
C1110 C1109 1.400 . S
C1110 C1113 1.386 . S
H1111 C1127 0.930 . S
H1112 C1128 0.931 . S
C1113 H1101 0.929 . S
C1113 C1107 1.390 . S
C1113 C1110 1.386 . S
C1114 C1109 1.490 . S
C1114 C1116 1.395 . S
C1114 C1117 1.403 . S
H1115 C1121 0.930 . S
C1116 H1102 0.930 . S
C1116 C1114 1.395 . S
C1116 C1119 1.403 . S
C1117 C1114 1.403 . S
C1117 C1118 1.524 . S
C1117 C1121 1.400 . S
C1118 H1103 0.960 . S
C1118 H1104 0.960 . S
C1118 H1105 0.960 . S
C1118 C1117 1.524 . S
C1119 C1116 1.403 . S
C1119 C1120 1.392 . S
C1119 C1123 1.495 . S
C1120 C1119 1.392 . S
C1120 C1121 1.385 . S
C1120 C1122 1.478 . S
C1121 H1115 0.930 . S
C1121 C1117 1.400 . S
C1121 C1120 1.385 . S
C1122 C1120 1.478 . S
C1122 C1124 1.381 . S
C1122 C1128 1.383 . S
C1123 C1119 1.495 . S
C1123 H1129 0.959 . S
C1123 H1130 0.961 . S
C1123 H1131 0.960 . S
C1124 C1122 1.381 . S
C1124 C1125 1.394 . S
C1124 H1132 0.930 . S
C1125 C1124 1.394 . S
C1125 C1126 1.383 . S
C1125 H1133 0.929 . S
C1126 C1125 1.383 . S
C1126 C1127 1.377 . S
C1127 H1111 0.930 . S
C1127 C1126 1.377 . S
C1127 C1128 1.379 . S
C1128 H1112 0.931 . S
C1128 C1122 1.383 . S
C1128 C1127 1.379 . S
H1129 C1123 0.959 . S
H1130 C1123 0.961 . S
H1131 C1123 0.960 . S
H1132 C1124 0.930 . S
H1133 C1125 0.929 . S
H1134 C1142 0.929 . S
H1135 C1144 0.930 . S
H1136 C1146 0.930 . S
H1137 C1149 0.929 . S
H1138 C1152 0.930 . S
H1139 C1154 0.960 . S
H1140 C1154 0.960 . S
H1141 C1154 0.960 . S
C1142 H1134 0.929 . S
C1142 C1143 1.377 . S
C1142 C1144 1.384 . S
C1143 C1142 1.377 . S
C1143 C1149 1.390 . S
C1144 H1135 0.930 . S
C1144 C1142 1.384 . S
C1144 C1145 1.372 . S
C1145 C1144 1.372 . S
C1145 C1146 1.400 . S
C1145 C1150 1.490 . S
C1146 H1136 0.930 . S
C1146 C1145 1.400 . S
C1146 C1149 1.386 . S
H1147 C1163 0.930 . S
H1148 C1164 0.931 . S
C1149 H1137 0.929 . S
C1149 C1143 1.390 . S
C1149 C1146 1.386 . S
C1150 C1145 1.490 . S
C1150 C1152 1.395 . S
C1150 C1153 1.403 . S
H1151 C1157 0.930 . S
C1152 H1138 0.930 . S
C1152 C1150 1.395 . S
C1152 C1155 1.403 . S
C1153 C1150 1.403 . S
C1153 C1154 1.524 . S
C1153 C1157 1.400 . S
C1154 H1139 0.960 . S
C1154 H1140 0.960 . S
C1154 H1141 0.960 . S
C1154 C1153 1.524 . S
C1155 C1152 1.403 . S
C1155 C1156 1.392 . S
C1155 C1159 1.495 . S
C1156 C1155 1.392 . S
C1156 C1157 1.385 . S
C1156 C1158 1.478 . S
C1157 H1151 0.930 . S
C1157 C1153 1.400 . S
C1157 C1156 1.385 . S
C1158 C1156 1.478 . S
C1158 C1160 1.381 . S
C1158 C1164 1.383 . S
C1159 C1155 1.495 . S
C1159 H1165 0.959 . S
C1159 H1166 0.961 . S
C1159 H1167 0.960 . S
C1160 C1158 1.381 . S
C1160 C1161 1.394 . S
C1160 H1168 0.930 . S
C1161 C1160 1.394 . S
C1161 C1162 1.383 . S
C1161 H1169 0.929 . S
C1162 C1161 1.383 . S
C1162 C1163 1.377 . S
C1163 H1147 0.930 . S
C1163 C1162 1.377 . S
C1163 C1164 1.379 . S
C1164 H1148 0.931 . S
C1164 C1158 1.383 . S
C1164 C1163 1.379 . S
H1165 C1159 0.959 . S
H1166 C1159 0.961 . S
H1167 C1159 0.960 . S
H1168 C1160 0.930 . S
H1169 C1161 0.929 . S
H1170 C1178 0.929 . S
H1171 C1180 0.930 . S
H1172 C1182 0.930 . S
H1173 C1185 0.929 . S
H1174 C1188 0.930 . S
H1175 C1190 0.960 . S
H1176 C1190 0.960 . S
H1177 C1190 0.960 . S
C1178 H1170 0.929 . S
C1178 C1179 1.377 . S
C1178 C1180 1.384 . S
C1179 C1178 1.377 . S
C1179 C1185 1.390 . S
C1180 H1171 0.930 . S
C1180 C1178 1.384 . S
C1180 C1181 1.372 . S
C1181 C1180 1.372 . S
C1181 C1182 1.400 . S
C1181 C1186 1.490 . S
C1182 H1172 0.930 . S
C1182 C1181 1.400 . S
C1182 C1185 1.386 . S
H1183 C1199 0.930 . S
H1184 C1200 0.931 . S
C1185 H1173 0.929 . S
C1185 C1179 1.390 . S
C1185 C1182 1.386 . S
C1186 C1181 1.490 . S
C1186 C1188 1.395 . S
C1186 C1189 1.403 . S
H1187 C1193 0.930 . S
C1188 H1174 0.930 . S
C1188 C1186 1.395 . S
C1188 C1191 1.403 . S
C1189 C1186 1.403 . S
C1189 C1190 1.524 . S
C1189 C1193 1.400 . S
C1190 H1175 0.960 . S
C1190 H1176 0.960 . S
C1190 H1177 0.960 . S
C1190 C1189 1.524 . S
C1191 C1188 1.403 . S
C1191 C1192 1.392 . S
C1191 C1195 1.495 . S
C1192 C1191 1.392 . S
C1192 C1193 1.385 . S
C1192 C1194 1.478 . S
C1193 H1187 0.930 . S
C1193 C1189 1.400 . S
C1193 C1192 1.385 . S
C1194 C1192 1.478 . S
C1194 C1196 1.381 . S
C1194 C1200 1.383 . S
C1195 C1191 1.495 . S
C1195 H1201 0.959 . S
C1195 H1202 0.961 . S
C1195 H1203 0.960 . S
C1196 C1194 1.381 . S
C1196 C1197 1.394 . S
C1196 H1204 0.930 . S
C1197 C1196 1.394 . S
C1197 C1198 1.383 . S
C1197 H1205 0.929 . S
C1198 C1197 1.383 . S
C1198 C1199 1.377 . S
C1199 H1183 0.930 . S
C1199 C1198 1.377 . S
C1199 C1200 1.379 . S
C1200 H1184 0.931 . S
C1200 C1194 1.383 . S
C1200 C1199 1.379 . S
H1201 C1195 0.959 . S
H1202 C1195 0.961 . S
H1203 C1195 0.960 . S
H1204 C1196 0.930 . S
H1205 C1197 0.929 . S
H1206 C1214 0.929 . S
H1207 C1216 0.930 . S
H1208 C1218 0.930 . S
H1209 C1221 0.929 . S
H1210 C1224 0.930 . S
H1211 C1226 0.960 . S
H1212 C1226 0.960 . S
H1213 C1226 0.960 . S
C1214 H1206 0.929 . S
C1214 C1215 1.377 . S
C1214 C1216 1.384 . S
C1215 C1214 1.377 . S
C1215 C1221 1.390 . S
C1216 H1207 0.930 . S
C1216 C1214 1.384 . S
C1216 C1217 1.372 . S
C1217 C1216 1.372 . S
C1217 C1218 1.400 . S
C1217 C1222 1.490 . S
C1218 H1208 0.930 . S
C1218 C1217 1.400 . S
C1218 C1221 1.386 . S
H1219 C1235 0.930 . S
H1220 C1236 0.931 . S
C1221 H1209 0.929 . S
C1221 C1215 1.390 . S
C1221 C1218 1.386 . S
C1222 C1217 1.490 . S
C1222 C1224 1.395 . S
C1222 C1225 1.403 . S
H1223 C1229 0.930 . S
C1224 H1210 0.930 . S
C1224 C1222 1.395 . S
C1224 C1227 1.403 . S
C1225 C1222 1.403 . S
C1225 C1226 1.524 . S
C1225 C1229 1.400 . S
C1226 H1211 0.960 . S
C1226 H1212 0.960 . S
C1226 H1213 0.960 . S
C1226 C1225 1.524 . S
C1227 C1224 1.403 . S
C1227 C1228 1.392 . S
C1227 C1231 1.495 . S
C1228 C1227 1.392 . S
C1228 C1229 1.385 . S
C1228 C1230 1.478 . S
C1229 H1223 0.930 . S
C1229 C1225 1.400 . S
C1229 C1228 1.385 . S
C1230 C1228 1.478 . S
C1230 C1232 1.381 . S
C1230 C1236 1.383 . S
C1231 C1227 1.495 . S
C1231 H1237 0.959 . S
C1231 H1238 0.961 . S
C1231 H1239 0.960 . S
C1232 C1230 1.381 . S
C1232 C1233 1.394 . S
C1232 H1240 0.930 . S
C1233 C1232 1.394 . S
C1233 C1234 1.383 . S
C1233 H1241 0.929 . S
C1234 C1233 1.383 . S
C1234 C1235 1.377 . S
C1235 H1219 0.930 . S
C1235 C1234 1.377 . S
C1235 C1236 1.379 . S
C1236 H1220 0.931 . S
C1236 C1230 1.383 . S
C1236 C1235 1.379 . S
H1237 C1231 0.959 . S
H1238 C1231 0.961 . S
H1239 C1231 0.960 . S
H1240 C1232 0.930 . S
H1241 C1233 0.929 . S
H1242 C1250 0.929 . S
H1243 C1252 0.930 . S
H1244 C1254 0.930 . S
H1245 C1257 0.929 . S
H1246 C1260 0.930 . S
H1247 C1262 0.960 . S
H1248 C1262 0.960 . S
H1249 C1262 0.960 . S
C1250 H1242 0.929 . S
C1250 C1251 1.377 . S
C1250 C1252 1.384 . S
C1251 C1250 1.377 . S
C1251 C1257 1.390 . S
C1252 H1243 0.930 . S
C1252 C1250 1.384 . S
C1252 C1253 1.372 . S
C1253 C1252 1.372 . S
C1253 C1254 1.400 . S
C1253 C1258 1.490 . S
C1254 H1244 0.930 . S
C1254 C1253 1.400 . S
C1254 C1257 1.386 . S
H1255 C1271 0.930 . S
H1256 C1272 0.931 . S
C1257 H1245 0.929 . S
C1257 C1251 1.390 . S
C1257 C1254 1.386 . S
C1258 C1253 1.490 . S
C1258 C1260 1.395 . S
C1258 C1261 1.403 . S
H1259 C1265 0.930 . S
C1260 H1246 0.930 . S
C1260 C1258 1.395 . S
C1260 C1263 1.403 . S
C1261 C1258 1.403 . S
C1261 C1262 1.524 . S
C1261 C1265 1.400 . S
C1262 H1247 0.960 . S
C1262 H1248 0.960 . S
C1262 H1249 0.960 . S
C1262 C1261 1.524 . S
C1263 C1260 1.403 . S
C1263 C1264 1.392 . S
C1263 C1267 1.495 . S
C1264 C1263 1.392 . S
C1264 C1265 1.385 . S
C1264 C1266 1.478 . S
C1265 H1259 0.930 . S
C1265 C1261 1.400 . S
C1265 C1264 1.385 . S
C1266 C1264 1.478 . S
C1266 C1268 1.381 . S
C1266 C1272 1.383 . S
C1267 C1263 1.495 . S
C1267 H1273 0.959 . S
C1267 H1274 0.961 . S
C1267 H1275 0.960 . S
C1268 C1266 1.381 . S
C1268 C1269 1.394 . S
C1268 H1276 0.930 . S
C1269 C1268 1.394 . S
C1269 C1270 1.383 . S
C1269 H1277 0.929 . S
C1270 C1269 1.383 . S
C1270 C1271 1.377 . S
C1271 H1255 0.930 . S
C1271 C1270 1.377 . S
C1271 C1272 1.379 . S
C1272 H1256 0.931 . S
C1272 C1266 1.383 . S
C1272 C1271 1.379 . S
H1273 C1267 0.959 . S
H1274 C1267 0.961 . S
H1275 C1267 0.960 . S
H1276 C1268 0.930 . S
H1277 C1269 0.929 . S
H1278 C1286 0.929 . S
H1279 C1288 0.930 . S
H1280 C1290 0.930 . S
H1281 C1293 0.929 . S
H1282 C1296 0.930 . S
H1283 C1298 0.960 . S
H1284 C1298 0.960 . S
H1285 C1298 0.960 . S
C1286 H1278 0.929 . S
C1286 C1287 1.377 . S
C1286 C1288 1.384 . S
C1287 C1286 1.377 . S
C1287 C1293 1.390 . S
C1288 H1279 0.930 . S
C1288 C1286 1.384 . S
C1288 C1289 1.372 . S
C1289 C1288 1.372 . S
C1289 C1290 1.400 . S
C1289 C1294 1.490 . S
C1290 H1280 0.930 . S
C1290 C1289 1.400 . S
C1290 C1293 1.386 . S
H1291 C1307 0.930 . S
H1292 C1308 0.931 . S
C1293 H1281 0.929 . S
C1293 C1287 1.390 . S
C1293 C1290 1.386 . S
C1294 C1289 1.490 . S
C1294 C1296 1.395 . S
C1294 C1297 1.403 . S
H1295 C1301 0.930 . S
C1296 H1282 0.930 . S
C1296 C1294 1.395 . S
C1296 C1299 1.403 . S
C1297 C1294 1.403 . S
C1297 C1298 1.524 . S
C1297 C1301 1.400 . S
C1298 H1283 0.960 . S
C1298 H1284 0.960 . S
C1298 H1285 0.960 . S
C1298 C1297 1.524 . S
C1299 C1296 1.403 . S
C1299 C1300 1.392 . S
C1299 C1303 1.495 . S
C1300 C1299 1.392 . S
C1300 C1301 1.385 . S
C1300 C1302 1.478 . S
C1301 H1295 0.930 . S
C1301 C1297 1.400 . S
C1301 C1300 1.385 . S
C1302 C1300 1.478 . S
C1302 C1304 1.381 . S
C1302 C1308 1.383 . S
C1303 C1299 1.495 . S
C1303 H1309 0.959 . S
C1303 H1310 0.961 . S
C1303 H1311 0.960 . S
C1304 C1302 1.381 . S
C1304 C1305 1.394 . S
C1304 H1312 0.930 . S
C1305 C1304 1.394 . S
C1305 C1306 1.383 . S
C1305 H1313 0.929 . S
C1306 C1305 1.383 . S
C1306 C1307 1.377 . S
C1307 H1291 0.930 . S
C1307 C1306 1.377 . S
C1307 C1308 1.379 . S
C1308 H1292 0.931 . S
C1308 C1302 1.383 . S
C1308 C1307 1.379 . S
H1309 C1303 0.959 . S
H1310 C1303 0.961 . S
H1311 C1303 0.960 . S
H1312 C1304 0.930 . S
H1313 C1305 0.929 . S
H1314 C1322 0.929 . S
H1315 C1324 0.930 . S
H1316 C1326 0.930 . S
H1317 C1329 0.929 . S
H1318 C1332 0.930 . S
H1319 C1334 0.960 . S
H1320 C1334 0.960 . S
H1321 C1334 0.960 . S
C1322 H1314 0.929 . S
C1322 C1323 1.377 . S
C1322 C1324 1.384 . S
C1323 C1322 1.377 . S
C1323 C1329 1.390 . S
C1324 H1315 0.930 . S
C1324 C1322 1.384 . S
C1324 C1325 1.372 . S
C1325 C1324 1.372 . S
C1325 C1326 1.400 . S
C1325 C1330 1.490 . S
C1326 H1316 0.930 . S
C1326 C1325 1.400 . S
C1326 C1329 1.386 . S
H1327 C1343 0.930 . S
H1328 C1344 0.931 . S
C1329 H1317 0.929 . S
C1329 C1323 1.390 . S
C1329 C1326 1.386 . S
C1330 C1325 1.490 . S
C1330 C1332 1.395 . S
C1330 C1333 1.403 . S
H1331 C1337 0.930 . S
C1332 H1318 0.930 . S
C1332 C1330 1.395 . S
C1332 C1335 1.403 . S
C1333 C1330 1.403 . S
C1333 C1334 1.524 . S
C1333 C1337 1.400 . S
C1334 H1319 0.960 . S
C1334 H1320 0.960 . S
C1334 H1321 0.960 . S
C1334 C1333 1.524 . S
C1335 C1332 1.403 . S
C1335 C1336 1.392 . S
C1335 C1339 1.495 . S
C1336 C1335 1.392 . S
C1336 C1337 1.385 . S
C1336 C1338 1.478 . S
C1337 H1331 0.930 . S
C1337 C1333 1.400 . S
C1337 C1336 1.385 . S
C1338 C1336 1.478 . S
C1338 C1340 1.381 . S
C1338 C1344 1.383 . S
C1339 C1335 1.495 . S
C1339 H1345 0.959 . S
C1339 H1346 0.961 . S
C1339 H1347 0.960 . S
C1340 C1338 1.381 . S
C1340 C1341 1.394 . S
C1340 H1348 0.930 . S
C1341 C1340 1.394 . S
C1341 C1342 1.383 . S
C1341 H1349 0.929 . S
C1342 C1341 1.383 . S
C1342 C1343 1.377 . S
C1343 H1327 0.930 . S
C1343 C1342 1.377 . S
C1343 C1344 1.379 . S
C1344 H1328 0.931 . S
C1344 C1338 1.383 . S
C1344 C1343 1.379 . S
H1345 C1339 0.959 . S
H1346 C1339 0.961 . S
H1347 C1339 0.960 . S
H1348 C1340 0.930 . S
H1349 C1341 0.929 . S
H1350 C1358 0.929 . S
H1351 C1360 0.930 . S
H1352 C1362 0.930 . S
H1353 C1365 0.929 . S
H1354 C1368 0.930 . S
H1355 C1370 0.960 . S
H1356 C1370 0.960 . S
H1357 C1370 0.960 . S
C1358 H1350 0.929 . S
C1358 C1359 1.377 . S
C1358 C1360 1.384 . S
C1359 C1358 1.377 . S
C1359 C1365 1.390 . S
C1360 H1351 0.930 . S
C1360 C1358 1.384 . S
C1360 C1361 1.372 . S
C1361 C1360 1.372 . S
C1361 C1362 1.400 . S
C1361 C1366 1.490 . S
C1362 H1352 0.930 . S
C1362 C1361 1.400 . S
C1362 C1365 1.386 . S
H1363 C1379 0.930 . S
H1364 C1380 0.931 . S
C1365 H1353 0.929 . S
C1365 C1359 1.390 . S
C1365 C1362 1.386 . S
C1366 C1361 1.490 . S
C1366 C1368 1.395 . S
C1366 C1369 1.403 . S
H1367 C1373 0.930 . S
C1368 H1354 0.930 . S
C1368 C1366 1.395 . S
C1368 C1371 1.403 . S
C1369 C1366 1.403 . S
C1369 C1370 1.524 . S
C1369 C1373 1.400 . S
C1370 H1355 0.960 . S
C1370 H1356 0.960 . S
C1370 H1357 0.960 . S
C1370 C1369 1.524 . S
C1371 C1368 1.403 . S
C1371 C1372 1.392 . S
C1371 C1375 1.495 . S
C1372 C1371 1.392 . S
C1372 C1373 1.385 . S
C1372 C1374 1.478 . S
C1373 H1367 0.930 . S
C1373 C1369 1.400 . S
C1373 C1372 1.385 . S
C1374 C1372 1.478 . S
C1374 C1376 1.381 . S
C1374 C1380 1.383 . S
C1375 C1371 1.495 . S
C1375 H1381 0.959 . S
C1375 H1382 0.961 . S
C1375 H1383 0.960 . S
C1376 C1374 1.381 . S
C1376 C1377 1.394 . S
C1376 H1384 0.930 . S
C1377 C1376 1.394 . S
C1377 C1378 1.383 . S
C1377 H1385 0.929 . S
C1378 C1377 1.383 . S
C1378 C1379 1.377 . S
C1379 H1363 0.930 . S
C1379 C1378 1.377 . S
C1379 C1380 1.379 . S
C1380 H1364 0.931 . S
C1380 C1374 1.383 . S
C1380 C1379 1.379 . S
H1381 C1375 0.959 . S
H1382 C1375 0.961 . S
H1383 C1375 0.960 . S
H1384 C1376 0.930 . S
H1385 C1377 0.929 . S
H1386 C1394 0.929 . S
H1387 C1396 0.930 . S
H1388 C1398 0.930 . S
H1389 C1401 0.929 . S
H1390 C1404 0.930 . S
H1391 C1406 0.960 . S
H1392 C1406 0.960 . S
H1393 C1406 0.960 . S
C1394 H1386 0.929 . S
C1394 C1395 1.377 . S
C1394 C1396 1.384 . S
C1395 C1394 1.377 . S
C1395 C1401 1.390 . S
C1396 H1387 0.930 . S
C1396 C1394 1.384 . S
C1396 C1397 1.372 . S
C1397 C1396 1.372 . S
C1397 C1398 1.400 . S
C1397 C1402 1.490 . S
C1398 H1388 0.930 . S
C1398 C1397 1.400 . S
C1398 C1401 1.386 . S
H1399 C1415 0.930 . S
H1400 C1416 0.931 . S
C1401 H1389 0.929 . S
C1401 C1395 1.390 . S
C1401 C1398 1.386 . S
C1402 C1397 1.490 . S
C1402 C1404 1.395 . S
C1402 C1405 1.403 . S
H1403 C1409 0.930 . S
C1404 H1390 0.930 . S
C1404 C1402 1.395 . S
C1404 C1407 1.403 . S
C1405 C1402 1.403 . S
C1405 C1406 1.524 . S
C1405 C1409 1.400 . S
C1406 H1391 0.960 . S
C1406 H1392 0.960 . S
C1406 H1393 0.960 . S
C1406 C1405 1.524 . S
C1407 C1404 1.403 . S
C1407 C1408 1.392 . S
C1407 C1411 1.495 . S
C1408 C1407 1.392 . S
C1408 C1409 1.385 . S
C1408 C1410 1.478 . S
C1409 H1403 0.930 . S
C1409 C1405 1.400 . S
C1409 C1408 1.385 . S
C1410 C1408 1.478 . S
C1410 C1412 1.381 . S
C1410 C1416 1.383 . S
C1411 C1407 1.495 . S
C1411 H1417 0.959 . S
C1411 H1418 0.961 . S
C1411 H1419 0.960 . S
C1412 C1410 1.381 . S
C1412 C1413 1.394 . S
C1412 H1420 0.930 . S
C1413 C1412 1.394 . S
C1413 C1414 1.383 . S
C1413 H1421 0.929 . S
C1414 C1413 1.383 . S
C1414 C1415 1.377 . S
C1415 H1399 0.930 . S
C1415 C1414 1.377 . S
C1415 C1416 1.379 . S
C1416 H1400 0.931 . S
C1416 C1410 1.383 . S
C1416 C1415 1.379 . S
H1417 C1411 0.959 . S
H1418 C1411 0.961 . S
H1419 C1411 0.960 . S
H1420 C1412 0.930 . S
H1421 C1413 0.929 . S
H1422 C1430 0.929 . S
H1423 C1432 0.930 . S
H1424 C1434 0.930 . S
H1425 C1437 0.929 . S
H1426 C1440 0.930 . S
H1427 C1442 0.960 . S
H1428 C1442 0.960 . S
H1429 C1442 0.960 . S
C1430 H1422 0.929 . S
C1430 C1431 1.377 . S
C1430 C1432 1.384 . S
C1431 C1430 1.377 . S
C1431 C1437 1.390 . S
C1432 H1423 0.930 . S
C1432 C1430 1.384 . S
C1432 C1433 1.372 . S
C1433 C1432 1.372 . S
C1433 C1434 1.400 . S
C1433 C1438 1.490 . S
C1434 H1424 0.930 . S
C1434 C1433 1.400 . S
C1434 C1437 1.386 . S
H1435 C1451 0.930 . S
H1436 C1452 0.931 . S
C1437 H1425 0.929 . S
C1437 C1431 1.390 . S
C1437 C1434 1.386 . S
C1438 C1433 1.490 . S
C1438 C1440 1.395 . S
C1438 C1441 1.403 . S
H1439 C1445 0.930 . S
C1440 H1426 0.930 . S
C1440 C1438 1.395 . S
C1440 C1443 1.403 . S
C1441 C1438 1.403 . S
C1441 C1442 1.524 . S
C1441 C1445 1.400 . S
C1442 H1427 0.960 . S
C1442 H1428 0.960 . S
C1442 H1429 0.960 . S
C1442 C1441 1.524 . S
C1443 C1440 1.403 . S
C1443 C1444 1.392 . S
C1443 C1447 1.495 . S
C1444 C1443 1.392 . S
C1444 C1445 1.385 . S
C1444 C1446 1.478 . S
C1445 H1439 0.930 . S
C1445 C1441 1.400 . S
C1445 C1444 1.385 . S
C1446 C1444 1.478 . S
C1446 C1448 1.381 . S
C1446 C1452 1.383 . S
C1447 C1443 1.495 . S
C1447 H1453 0.959 . S
C1447 H1454 0.961 . S
C1447 H1455 0.960 . S
C1448 C1446 1.381 . S
C1448 C1449 1.394 . S
C1448 H1456 0.930 . S
C1449 C1448 1.394 . S
C1449 C1450 1.383 . S
C1449 H1457 0.929 . S
C1450 C1449 1.383 . S
C1450 C1451 1.377 . S
C1451 H1435 0.930 . S
C1451 C1450 1.377 . S
C1451 C1452 1.379 . S
C1452 H1436 0.931 . S
C1452 C1446 1.383 . S
C1452 C1451 1.379 . S
H1453 C1447 0.959 . S
H1454 C1447 0.961 . S
H1455 C1447 0.960 . S
H1456 C1448 0.930 . S
H1457 C1449 0.929 . S
H1458 C1466 0.929 . S
H1459 C1468 0.930 . S
H1460 C1470 0.930 . S
H1461 C1473 0.929 . S
H1462 C1476 0.930 . S
H1463 C1478 0.960 . S
H1464 C1478 0.960 . S
H1465 C1478 0.960 . S
C1466 H1458 0.929 . S
C1466 C1467 1.377 . S
C1466 C1468 1.384 . S
C1467 C1466 1.377 . S
C1467 C1473 1.390 . S
C1468 H1459 0.930 . S
C1468 C1466 1.384 . S
C1468 C1469 1.372 . S
C1469 C1468 1.372 . S
C1469 C1470 1.400 . S
C1469 C1474 1.490 . S
C1470 H1460 0.930 . S
C1470 C1469 1.400 . S
C1470 C1473 1.386 . S
H1471 C1487 0.930 . S
H1472 C1488 0.931 . S
C1473 H1461 0.929 . S
C1473 C1467 1.390 . S
C1473 C1470 1.386 . S
C1474 C1469 1.490 . S
C1474 C1476 1.395 . S
C1474 C1477 1.403 . S
H1475 C1481 0.930 . S
C1476 H1462 0.930 . S
C1476 C1474 1.395 . S
C1476 C1479 1.403 . S
C1477 C1474 1.403 . S
C1477 C1478 1.524 . S
C1477 C1481 1.400 . S
C1478 H1463 0.960 . S
C1478 H1464 0.960 . S
C1478 H1465 0.960 . S
C1478 C1477 1.524 . S
C1479 C1476 1.403 . S
C1479 C1480 1.392 . S
C1479 C1483 1.495 . S
C1480 C1479 1.392 . S
C1480 C1481 1.385 . S
C1480 C1482 1.478 . S
C1481 H1475 0.930 . S
C1481 C1477 1.400 . S
C1481 C1480 1.385 . S
C1482 C1480 1.478 . S
C1482 C1484 1.381 . S
C1482 C1488 1.383 . S
C1483 C1479 1.495 . S
C1483 H1489 0.959 . S
C1483 H1490 0.961 . S
C1483 H1491 0.960 . S
C1484 C1482 1.381 . S
C1484 C1485 1.394 . S
C1484 H1492 0.930 . S
C1485 C1484 1.394 . S
C1485 C1486 1.383 . S
C1485 H1493 0.929 . S
C1486 C1485 1.383 . S
C1486 C1487 1.377 . S
C1487 H1471 0.930 . S
C1487 C1486 1.377 . S
C1487 C1488 1.379 . S
C1488 H1472 0.931 . S
C1488 C1482 1.383 . S
C1488 C1487 1.379 . S
H1489 C1483 0.959 . S
H1490 C1483 0.961 . S
H1491 C1483 0.960 . S
H1492 C1484 0.930 . S
H1493 C1485 0.929 . S
H1494 C1502 0.929 . S
H1495 C1504 0.930 . S
H1496 C1506 0.930 . S
H1497 C1509 0.929 . S
H1498 C1512 0.930 . S
H1499 C1514 0.960 . S
H1500 C1514 0.960 . S
H1501 C1514 0.960 . S
C1502 H1494 0.929 . S
C1502 C1503 1.377 . S
C1502 C1504 1.384 . S
C1503 C1502 1.377 . S
C1503 C1509 1.390 . S
C1504 H1495 0.930 . S
C1504 C1502 1.384 . S
C1504 C1505 1.372 . S
C1505 C1504 1.372 . S
C1505 C1506 1.400 . S
C1505 C1510 1.490 . S
C1506 H1496 0.930 . S
C1506 C1505 1.400 . S
C1506 C1509 1.386 . S
H1507 C1523 0.930 . S
H1508 C1524 0.931 . S
C1509 H1497 0.929 . S
C1509 C1503 1.390 . S
C1509 C1506 1.386 . S
C1510 C1505 1.490 . S
C1510 C1512 1.395 . S
C1510 C1513 1.403 . S
H1511 C1517 0.930 . S
C1512 H1498 0.930 . S
C1512 C1510 1.395 . S
C1512 C1515 1.403 . S
C1513 C1510 1.403 . S
C1513 C1514 1.524 . S
C1513 C1517 1.400 . S
C1514 H1499 0.960 . S
C1514 H1500 0.960 . S
C1514 H1501 0.960 . S
C1514 C1513 1.524 . S
C1515 C1512 1.403 . S
C1515 C1516 1.392 . S
C1515 C1519 1.495 . S
C1516 C1515 1.392 . S
C1516 C1517 1.385 . S
C1516 C1518 1.478 . S
C1517 H1511 0.930 . S
C1517 C1513 1.400 . S
C1517 C1516 1.385 . S
C1518 C1516 1.478 . S
C1518 C1520 1.381 . S
C1518 C1524 1.383 . S
C1519 C1515 1.495 . S
C1519 H1525 0.959 . S
C1519 H1526 0.961 . S
C1519 H1527 0.960 . S
C1520 C1518 1.381 . S
C1520 C1521 1.394 . S
C1520 H1528 0.930 . S
C1521 C1520 1.394 . S
C1521 C1522 1.383 . S
C1521 H1529 0.929 . S
C1522 C1521 1.383 . S
C1522 C1523 1.377 . S
C1523 H1507 0.930 . S
C1523 C1522 1.377 . S
C1523 C1524 1.379 . S
C1524 H1508 0.931 . S
C1524 C1518 1.383 . S
C1524 C1523 1.379 . S
H1525 C1519 0.959 . S
H1526 C1519 0.961 . S
H1527 C1519 0.960 . S
H1528 C1520 0.930 . S
H1529 C1521 0.929 . S
H1530 C1538 0.929 . S
H1531 C1540 0.930 . S
H1532 C1542 0.930 . S
H1533 C1545 0.929 . S
H1534 C1548 0.930 . S
H1535 C1550 0.960 . S
H1536 C1550 0.960 . S
H1537 C1550 0.960 . S
C1538 H1530 0.929 . S
C1538 C1539 1.377 . S
C1538 C1540 1.384 . S
C1539 C1538 1.377 . S
C1539 C1545 1.390 . S
C1540 H1531 0.930 . S
C1540 C1538 1.384 . S
C1540 C1541 1.372 . S
C1541 C1540 1.372 . S
C1541 C1542 1.400 . S
C1541 C1546 1.490 . S
C1542 H1532 0.930 . S
C1542 C1541 1.400 . S
C1542 C1545 1.386 . S
H1543 C1559 0.930 . S
H1544 C1560 0.931 . S
C1545 H1533 0.929 . S
C1545 C1539 1.390 . S
C1545 C1542 1.386 . S
C1546 C1541 1.490 . S
C1546 C1548 1.395 . S
C1546 C1549 1.403 . S
H1547 C1553 0.930 . S
C1548 H1534 0.930 . S
C1548 C1546 1.395 . S
C1548 C1551 1.403 . S
C1549 C1546 1.403 . S
C1549 C1550 1.524 . S
C1549 C1553 1.400 . S
C1550 H1535 0.960 . S
C1550 H1536 0.960 . S
C1550 H1537 0.960 . S
C1550 C1549 1.524 . S
C1551 C1548 1.403 . S
C1551 C1552 1.392 . S
C1551 C1555 1.495 . S
C1552 C1551 1.392 . S
C1552 C1553 1.385 . S
C1552 C1554 1.478 . S
C1553 H1547 0.930 . S
C1553 C1549 1.400 . S
C1553 C1552 1.385 . S
C1554 C1552 1.478 . S
C1554 C1556 1.381 . S
C1554 C1560 1.383 . S
C1555 C1551 1.495 . S
C1555 H1561 0.959 . S
C1555 H1562 0.961 . S
C1555 H1563 0.960 . S
C1556 C1554 1.381 . S
C1556 C1557 1.394 . S
C1556 H1564 0.930 . S
C1557 C1556 1.394 . S
C1557 C1558 1.383 . S
C1557 H1565 0.929 . S
C1558 C1557 1.383 . S
C1558 C1559 1.377 . S
C1559 H1543 0.930 . S
C1559 C1558 1.377 . S
C1559 C1560 1.379 . S
C1560 H1544 0.931 . S
C1560 C1554 1.383 . S
C1560 C1559 1.379 . S
H1561 C1555 0.959 . S
H1562 C1555 0.961 . S
H1563 C1555 0.960 . S
H1564 C1556 0.930 . S
H1565 C1557 0.929 . S
H1566 C1574 0.929 . S
H1567 C1576 0.930 . S
H1568 C1578 0.930 . S
H1569 C1581 0.929 . S
H1570 C1584 0.930 . S
H1571 C1586 0.960 . S
H1572 C1586 0.960 . S
H1573 C1586 0.960 . S
C1574 H1566 0.929 . S
C1574 C1575 1.377 . S
C1574 C1576 1.384 . S
C1575 C1574 1.377 . S
C1575 C1581 1.390 . S
C1576 H1567 0.930 . S
C1576 C1574 1.384 . S
C1576 C1577 1.372 . S
C1577 C1576 1.372 . S
C1577 C1578 1.400 . S
C1577 C1582 1.490 . S
C1578 H1568 0.930 . S
C1578 C1577 1.400 . S
C1578 C1581 1.386 . S
H1579 C1595 0.930 . S
H1580 C1596 0.931 . S
C1581 H1569 0.929 . S
C1581 C1575 1.390 . S
C1581 C1578 1.386 . S
C1582 C1577 1.490 . S
C1582 C1584 1.395 . S
C1582 C1585 1.403 . S
H1583 C1589 0.930 . S
C1584 H1570 0.930 . S
C1584 C1582 1.395 . S
C1584 C1587 1.403 . S
C1585 C1582 1.403 . S
C1585 C1586 1.524 . S
C1585 C1589 1.400 . S
C1586 H1571 0.960 . S
C1586 H1572 0.960 . S
C1586 H1573 0.960 . S
C1586 C1585 1.524 . S
C1587 C1584 1.403 . S
C1587 C1588 1.392 . S
C1587 C1591 1.495 . S
C1588 C1587 1.392 . S
C1588 C1589 1.385 . S
C1588 C1590 1.478 . S
C1589 H1583 0.930 . S
C1589 C1585 1.400 . S
C1589 C1588 1.385 . S
C1590 C1588 1.478 . S
C1590 C1592 1.381 . S
C1590 C1596 1.383 . S
C1591 C1587 1.495 . S
C1591 H1597 0.959 . S
C1591 H1598 0.961 . S
C1591 H1599 0.960 . S
C1592 C1590 1.381 . S
C1592 C1593 1.394 . S
C1592 H1600 0.930 . S
C1593 C1592 1.394 . S
C1593 C1594 1.383 . S
C1593 H1601 0.929 . S
C1594 C1593 1.383 . S
C1594 C1595 1.377 . S
C1595 H1579 0.930 . S
C1595 C1594 1.377 . S
C1595 C1596 1.379 . S
C1596 H1580 0.931 . S
C1596 C1590 1.383 . S
C1596 C1595 1.379 . S
H1597 C1591 0.959 . S
H1598 C1591 0.961 . S
H1599 C1591 0.960 . S
H1600 C1592 0.930 . S
H1601 C1593 0.929 . S
H1602 C1610 0.929 . S
H1603 C1612 0.930 . S
H1604 C1614 0.930 . S
H1605 C1617 0.929 . S
H1606 C1620 0.930 . S
H1607 C1622 0.960 . S
H1608 C1622 0.960 . S
H1609 C1622 0.960 . S
C1610 H1602 0.929 . S
C1610 C1611 1.377 . S
C1610 C1612 1.384 . S
C1611 C1610 1.377 . S
C1611 C1617 1.390 . S
C1612 H1603 0.930 . S
C1612 C1610 1.384 . S
C1612 C1613 1.372 . S
C1613 C1612 1.372 . S
C1613 C1614 1.400 . S
C1613 C1618 1.490 . S
C1614 H1604 0.930 . S
C1614 C1613 1.400 . S
C1614 C1617 1.386 . S
H1615 C1631 0.930 . S
H1616 C1632 0.931 . S
C1617 H1605 0.929 . S
C1617 C1611 1.390 . S
C1617 C1614 1.386 . S
C1618 C1613 1.490 . S
C1618 C1620 1.395 . S
C1618 C1621 1.403 . S
H1619 C1625 0.930 . S
C1620 H1606 0.930 . S
C1620 C1618 1.395 . S
C1620 C1623 1.403 . S
C1621 C1618 1.403 . S
C1621 C1622 1.524 . S
C1621 C1625 1.400 . S
C1622 H1607 0.960 . S
C1622 H1608 0.960 . S
C1622 H1609 0.960 . S
C1622 C1621 1.524 . S
C1623 C1620 1.403 . S
C1623 C1624 1.392 . S
C1623 C1627 1.495 . S
C1624 C1623 1.392 . S
C1624 C1625 1.385 . S
C1624 C1626 1.478 . S
C1625 H1619 0.930 . S
C1625 C1621 1.400 . S
C1625 C1624 1.385 . S
C1626 C1624 1.478 . S
C1626 C1628 1.381 . S
C1626 C1632 1.383 . S
C1627 C1623 1.495 . S
C1627 H1633 0.959 . S
C1627 H1634 0.961 . S
C1627 H1635 0.960 . S
C1628 C1626 1.381 . S
C1628 C1629 1.394 . S
C1628 H1636 0.930 . S
C1629 C1628 1.394 . S
C1629 C1630 1.383 . S
C1629 H1637 0.929 . S
C1630 C1629 1.383 . S
C1630 C1631 1.377 . S
C1631 H1615 0.930 . S
C1631 C1630 1.377 . S
C1631 C1632 1.379 . S
C1632 H1616 0.931 . S
C1632 C1626 1.383 . S
C1632 C1631 1.379 . S
H1633 C1627 0.959 . S
H1634 C1627 0.961 . S
H1635 C1627 0.960 . S
H1636 C1628 0.930 . S
H1637 C1629 0.929 . S
H1638 C1646 0.929 . S
H1639 C1648 0.930 . S
H1640 C1650 0.930 . S
H1641 C1653 0.929 . S
H1642 C1656 0.930 . S
H1643 C1658 0.960 . S
H1644 C1658 0.960 . S
H1645 C1658 0.960 . S
C1646 H1638 0.929 . S
C1646 C1647 1.377 . S
C1646 C1648 1.384 . S
C1647 C1646 1.377 . S
C1647 C1653 1.390 . S
C1648 H1639 0.930 . S
C1648 C1646 1.384 . S
C1648 C1649 1.372 . S
C1649 C1648 1.372 . S
C1649 C1650 1.400 . S
C1649 C1654 1.490 . S
C1650 H1640 0.930 . S
C1650 C1649 1.400 . S
C1650 C1653 1.386 . S
H1651 C1667 0.930 . S
H1652 C1668 0.931 . S
C1653 H1641 0.929 . S
C1653 C1647 1.390 . S
C1653 C1650 1.386 . S
C1654 C1649 1.490 . S
C1654 C1656 1.395 . S
C1654 C1657 1.403 . S
H1655 C1661 0.930 . S
C1656 H1642 0.930 . S
C1656 C1654 1.395 . S
C1656 C1659 1.403 . S
C1657 C1654 1.403 . S
C1657 C1658 1.524 . S
C1657 C1661 1.400 . S
C1658 H1643 0.960 . S
C1658 H1644 0.960 . S
C1658 H1645 0.960 . S
C1658 C1657 1.524 . S
C1659 C1656 1.403 . S
C1659 C1660 1.392 . S
C1659 C1663 1.495 . S
C1660 C1659 1.392 . S
C1660 C1661 1.385 . S
C1660 C1662 1.478 . S
C1661 H1655 0.930 . S
C1661 C1657 1.400 . S
C1661 C1660 1.385 . S
C1662 C1660 1.478 . S
C1662 C1664 1.381 . S
C1662 C1668 1.383 . S
C1663 C1659 1.495 . S
C1663 H1669 0.959 . S
C1663 H1670 0.961 . S
C1663 H1671 0.960 . S
C1664 C1662 1.381 . S
C1664 C1665 1.394 . S
C1664 H1672 0.930 . S
C1665 C1664 1.394 . S
C1665 C1666 1.383 . S
C1665 H1673 0.929 . S
C1666 C1665 1.383 . S
C1666 C1667 1.377 . S
C1667 H1651 0.930 . S
C1667 C1666 1.377 . S
C1667 C1668 1.379 . S
C1668 H1652 0.931 . S
C1668 C1662 1.383 . S
C1668 C1667 1.379 . S
H1669 C1663 0.959 . S
H1670 C1663 0.961 . S
H1671 C1663 0.960 . S
H1672 C1664 0.930 . S
H1673 C1665 0.929 . S
H1674 C1682 0.929 . S
H1675 C1684 0.930 . S
H1676 C1686 0.930 . S
H1677 C1689 0.929 . S
H1678 C1692 0.930 . S
H1679 C1694 0.960 . S
H1680 C1694 0.960 . S
H1681 C1694 0.960 . S
C1682 H1674 0.929 . S
C1682 C1683 1.377 . S
C1682 C1684 1.384 . S
C1683 C1682 1.377 . S
C1683 C1689 1.390 . S
C1684 H1675 0.930 . S
C1684 C1682 1.384 . S
C1684 C1685 1.372 . S
C1685 C1684 1.372 . S
C1685 C1686 1.400 . S
C1685 C1690 1.490 . S
C1686 H1676 0.930 . S
C1686 C1685 1.400 . S
C1686 C1689 1.386 . S
H1687 C1703 0.930 . S
H1688 C1704 0.931 . S
C1689 H1677 0.929 . S
C1689 C1683 1.390 . S
C1689 C1686 1.386 . S
C1690 C1685 1.490 . S
C1690 C1692 1.395 . S
C1690 C1693 1.403 . S
H1691 C1697 0.930 . S
C1692 H1678 0.930 . S
C1692 C1690 1.395 . S
C1692 C1695 1.403 . S
C1693 C1690 1.403 . S
C1693 C1694 1.524 . S
C1693 C1697 1.400 . S
C1694 H1679 0.960 . S
C1694 H1680 0.960 . S
C1694 H1681 0.960 . S
C1694 C1693 1.524 . S
C1695 C1692 1.403 . S
C1695 C1696 1.392 . S
C1695 C1699 1.495 . S
C1696 C1695 1.392 . S
C1696 C1697 1.385 . S
C1696 C1698 1.478 . S
C1697 H1691 0.930 . S
C1697 C1693 1.400 . S
C1697 C1696 1.385 . S
C1698 C1696 1.478 . S
C1698 C1700 1.381 . S
C1698 C1704 1.383 . S
C1699 C1695 1.495 . S
C1699 H1705 0.959 . S
C1699 H1706 0.961 . S
C1699 H1707 0.960 . S
C1700 C1698 1.381 . S
C1700 C1701 1.394 . S
C1700 H1708 0.930 . S
C1701 C1700 1.394 . S
C1701 C1702 1.383 . S
C1701 H1709 0.929 . S
C1702 C1701 1.383 . S
C1702 C1703 1.377 . S
C1703 H1687 0.930 . S
C1703 C1702 1.377 . S
C1703 C1704 1.379 . S
C1704 H1688 0.931 . S
C1704 C1698 1.383 . S
C1704 C1703 1.379 . S
H1705 C1699 0.959 . S
H1706 C1699 0.961 . S
H1707 C1699 0.960 . S
H1708 C1700 0.930 . S
H1709 C1701 0.929 . S
H1710 C1718 0.929 . S
H1711 C1720 0.930 . S
H1712 C1722 0.930 . S
H1713 C1725 0.929 . S
H1714 C1728 0.930 . S
H1715 C1730 0.960 . S
H1716 C1730 0.960 . S
H1717 C1730 0.960 . S
C1718 H1710 0.929 . S
C1718 C1719 1.377 . S
C1718 C1720 1.384 . S
C1719 C1718 1.377 . S
C1719 C1725 1.390 . S
C1720 H1711 0.930 . S
C1720 C1718 1.384 . S
C1720 C1721 1.372 . S
C1721 C1720 1.372 . S
C1721 C1722 1.400 . S
C1721 C1726 1.490 . S
C1722 H1712 0.930 . S
C1722 C1721 1.400 . S
C1722 C1725 1.386 . S
H1723 C1739 0.930 . S
H1724 C1740 0.931 . S
C1725 H1713 0.929 . S
C1725 C1719 1.390 . S
C1725 C1722 1.386 . S
C1726 C1721 1.490 . S
C1726 C1728 1.395 . S
C1726 C1729 1.403 . S
H1727 C1733 0.930 . S
C1728 H1714 0.930 . S
C1728 C1726 1.395 . S
C1728 C1731 1.403 . S
C1729 C1726 1.403 . S
C1729 C1730 1.524 . S
C1729 C1733 1.400 . S
C1730 H1715 0.960 . S
C1730 H1716 0.960 . S
C1730 H1717 0.960 . S
C1730 C1729 1.524 . S
C1731 C1728 1.403 . S
C1731 C1732 1.392 . S
C1731 C1735 1.495 . S
C1732 C1731 1.392 . S
C1732 C1733 1.385 . S
C1732 C1734 1.478 . S
C1733 H1727 0.930 . S
C1733 C1729 1.400 . S
C1733 C1732 1.385 . S
C1734 C1732 1.478 . S
C1734 C1736 1.381 . S
C1734 C1740 1.383 . S
C1735 C1731 1.495 . S
C1735 H1741 0.959 . S
C1735 H1742 0.961 . S
C1735 H1743 0.960 . S
C1736 C1734 1.381 . S
C1736 C1737 1.394 . S
C1736 H1744 0.930 . S
C1737 C1736 1.394 . S
C1737 C1738 1.383 . S
C1737 H1745 0.929 . S
C1738 C1737 1.383 . S
C1738 C1739 1.377 . S
C1739 H1723 0.930 . S
C1739 C1738 1.377 . S
C1739 C1740 1.379 . S
C1740 H1724 0.931 . S
C1740 C1734 1.383 . S
C1740 C1739 1.379 . S
H1741 C1735 0.959 . S
H1742 C1735 0.961 . S
H1743 C1735 0.960 . S
H1744 C1736 0.930 . S
H1745 C1737 0.929 . S
H1746 C1754 0.929 . S
H1747 C1756 0.930 . S
H1748 C1758 0.930 . S
H1749 C1761 0.929 . S
H1750 C1764 0.930 . S
H1751 C1766 0.960 . S
H1752 C1766 0.960 . S
H1753 C1766 0.960 . S
C1754 H1746 0.929 . S
C1754 C1755 1.377 . S
C1754 C1756 1.384 . S
C1755 C1754 1.377 . S
C1755 C1761 1.390 . S
C1756 H1747 0.930 . S
C1756 C1754 1.384 . S
C1756 C1757 1.372 . S
C1757 C1756 1.372 . S
C1757 C1758 1.400 . S
C1757 C1762 1.490 . S
C1758 H1748 0.930 . S
C1758 C1757 1.400 . S
C1758 C1761 1.386 . S
H1759 C1775 0.930 . S
H1760 C1776 0.931 . S
C1761 H1749 0.929 . S
C1761 C1755 1.390 . S
C1761 C1758 1.386 . S
C1762 C1757 1.490 . S
C1762 C1764 1.395 . S
C1762 C1765 1.403 . S
H1763 C1769 0.930 . S
C1764 H1750 0.930 . S
C1764 C1762 1.395 . S
C1764 C1767 1.403 . S
C1765 C1762 1.403 . S
C1765 C1766 1.524 . S
C1765 C1769 1.400 . S
C1766 H1751 0.960 . S
C1766 H1752 0.960 . S
C1766 H1753 0.960 . S
C1766 C1765 1.524 . S
C1767 C1764 1.403 . S
C1767 C1768 1.392 . S
C1767 C1771 1.495 . S
C1768 C1767 1.392 . S
C1768 C1769 1.385 . S
C1768 C1770 1.478 . S
C1769 H1763 0.930 . S
C1769 C1765 1.400 . S
C1769 C1768 1.385 . S
C1770 C1768 1.478 . S
C1770 C1772 1.381 . S
C1770 C1776 1.383 . S
C1771 C1767 1.495 . S
C1771 H1777 0.959 . S
C1771 H1778 0.961 . S
C1771 H1779 0.960 . S
C1772 C1770 1.381 . S
C1772 C1773 1.394 . S
C1772 H1780 0.930 . S
C1773 C1772 1.394 . S
C1773 C1774 1.383 . S
C1773 H1781 0.929 . S
C1774 C1773 1.383 . S
C1774 C1775 1.377 . S
C1775 H1759 0.930 . S
C1775 C1774 1.377 . S
C1775 C1776 1.379 . S
C1776 H1760 0.931 . S
C1776 C1770 1.383 . S
C1776 C1775 1.379 . S
H1777 C1771 0.959 . S
H1778 C1771 0.961 . S
H1779 C1771 0.960 . S
H1780 C1772 0.930 . S
H1781 C1773 0.929 . S
H1782 C1790 0.929 . S
H1783 C1792 0.930 . S
H1784 C1794 0.930 . S
H1785 C1797 0.929 . S
H1786 C1800 0.930 . S
H1787 C1802 0.960 . S
H1788 C1802 0.960 . S
H1789 C1802 0.960 . S
C1790 H1782 0.929 . S
C1790 C1791 1.377 . S
C1790 C1792 1.384 . S
C1791 C1790 1.377 . S
C1791 C1797 1.390 . S
C1792 H1783 0.930 . S
C1792 C1790 1.384 . S
C1792 C1793 1.372 . S
C1793 C1792 1.372 . S
C1793 C1794 1.400 . S
C1793 C1798 1.490 . S
C1794 H1784 0.930 . S
C1794 C1793 1.400 . S
C1794 C1797 1.386 . S
H1795 C1811 0.930 . S
H1796 C1812 0.931 . S
C1797 H1785 0.929 . S
C1797 C1791 1.390 . S
C1797 C1794 1.386 . S
C1798 C1793 1.490 . S
C1798 C1800 1.395 . S
C1798 C1801 1.403 . S
H1799 C1805 0.930 . S
C1800 H1786 0.930 . S
C1800 C1798 1.395 . S
C1800 C1803 1.403 . S
C1801 C1798 1.403 . S
C1801 C1802 1.524 . S
C1801 C1805 1.400 . S
C1802 H1787 0.960 . S
C1802 H1788 0.960 . S
C1802 H1789 0.960 . S
C1802 C1801 1.524 . S
C1803 C1800 1.403 . S
C1803 C1804 1.392 . S
C1803 C1807 1.495 . S
C1804 C1803 1.392 . S
C1804 C1805 1.385 . S
C1804 C1806 1.478 . S
C1805 H1799 0.930 . S
C1805 C1801 1.400 . S
C1805 C1804 1.385 . S
C1806 C1804 1.478 . S
C1806 C1808 1.381 . S
C1806 C1812 1.383 . S
C1807 C1803 1.495 . S
C1807 H1813 0.959 . S
C1807 H1814 0.961 . S
C1807 H1815 0.960 . S
C1808 C1806 1.381 . S
C1808 C1809 1.394 . S
C1808 H1816 0.930 . S
C1809 C1808 1.394 . S
C1809 C1810 1.383 . S
C1809 H1817 0.929 . S
C1810 C1809 1.383 . S
C1810 C1811 1.377 . S
C1811 H1795 0.930 . S
C1811 C1810 1.377 . S
C1811 C1812 1.379 . S
C1812 H1796 0.931 . S
C1812 C1806 1.383 . S
C1812 C1811 1.379 . S
H1813 C1807 0.959 . S
H1814 C1807 0.961 . S
H1815 C1807 0.960 . S
H1816 C1808 0.930 . S
H1817 C1809 0.929 . S
H1818 C1826 0.929 . S
H1819 C1828 0.930 . S
H1820 C1830 0.930 . S
H1821 C1833 0.929 . S
H1822 C1836 0.930 . S
H1823 C1838 0.960 . S
H1824 C1838 0.960 . S
H1825 C1838 0.960 . S
C1826 H1818 0.929 . S
C1826 C1827 1.377 . S
C1826 C1828 1.384 . S
C1827 C1826 1.377 . S
C1827 C1833 1.390 . S
C1828 H1819 0.930 . S
C1828 C1826 1.384 . S
C1828 C1829 1.372 . S
C1829 C1828 1.372 . S
C1829 C1830 1.400 . S
C1829 C1834 1.490 . S
C1830 H1820 0.930 . S
C1830 C1829 1.400 . S
C1830 C1833 1.386 . S
H1831 C1847 0.930 . S
H1832 C1848 0.931 . S
C1833 H1821 0.929 . S
C1833 C1827 1.390 . S
C1833 C1830 1.386 . S
C1834 C1829 1.490 . S
C1834 C1836 1.395 . S
C1834 C1837 1.403 . S
H1835 C1841 0.930 . S
C1836 H1822 0.930 . S
C1836 C1834 1.395 . S
C1836 C1839 1.403 . S
C1837 C1834 1.403 . S
C1837 C1838 1.524 . S
C1837 C1841 1.400 . S
C1838 H1823 0.960 . S
C1838 H1824 0.960 . S
C1838 H1825 0.960 . S
C1838 C1837 1.524 . S
C1839 C1836 1.403 . S
C1839 C1840 1.392 . S
C1839 C1843 1.495 . S
C1840 C1839 1.392 . S
C1840 C1841 1.385 . S
C1840 C1842 1.478 . S
C1841 H1835 0.930 . S
C1841 C1837 1.400 . S
C1841 C1840 1.385 . S
C1842 C1840 1.478 . S
C1842 C1844 1.381 . S
C1842 C1848 1.383 . S
C1843 C1839 1.495 . S
C1843 H1849 0.959 . S
C1843 H1850 0.961 . S
C1843 H1851 0.960 . S
C1844 C1842 1.381 . S
C1844 C1845 1.394 . S
C1844 H1852 0.930 . S
C1845 C1844 1.394 . S
C1845 C1846 1.383 . S
C1845 H1853 0.929 . S
C1846 C1845 1.383 . S
C1846 C1847 1.377 . S
C1847 H1831 0.930 . S
C1847 C1846 1.377 . S
C1847 C1848 1.379 . S
C1848 H1832 0.931 . S
C1848 C1842 1.383 . S
C1848 C1847 1.379 . S
H1849 C1843 0.959 . S
H1850 C1843 0.961 . S
H1851 C1843 0.960 . S
H1852 C1844 0.930 . S
H1853 C1845 0.929 . S
H1854 C1862 0.929 . S
H1855 C1864 0.930 . S
H1856 C1866 0.930 . S
H1857 C1869 0.929 . S
H1858 C1872 0.930 . S
H1859 C1874 0.960 . S
H1860 C1874 0.960 . S
H1861 C1874 0.960 . S
C1862 H1854 0.929 . S
C1862 C1863 1.377 . S
C1862 C1864 1.384 . S
C1863 C1862 1.377 . S
C1863 C1869 1.390 . S
C1864 H1855 0.930 . S
C1864 C1862 1.384 . S
C1864 C1865 1.372 . S
C1865 C1864 1.372 . S
C1865 C1866 1.400 . S
C1865 C1870 1.490 . S
C1866 H1856 0.930 . S
C1866 C1865 1.400 . S
C1866 C1869 1.386 . S
H1867 C1883 0.930 . S
H1868 C1884 0.931 . S
C1869 H1857 0.929 . S
C1869 C1863 1.390 . S
C1869 C1866 1.386 . S
C1870 C1865 1.490 . S
C1870 C1872 1.395 . S
C1870 C1873 1.403 . S
H1871 C1877 0.930 . S
C1872 H1858 0.930 . S
C1872 C1870 1.395 . S
C1872 C1875 1.403 . S
C1873 C1870 1.403 . S
C1873 C1874 1.524 . S
C1873 C1877 1.400 . S
C1874 H1859 0.960 . S
C1874 H1860 0.960 . S
C1874 H1861 0.960 . S
C1874 C1873 1.524 . S
C1875 C1872 1.403 . S
C1875 C1876 1.392 . S
C1875 C1879 1.495 . S
C1876 C1875 1.392 . S
C1876 C1877 1.385 . S
C1876 C1878 1.478 . S
C1877 H1871 0.930 . S
C1877 C1873 1.400 . S
C1877 C1876 1.385 . S
C1878 C1876 1.478 . S
C1878 C1880 1.381 . S
C1878 C1884 1.383 . S
C1879 C1875 1.495 . S
C1879 H1885 0.959 . S
C1879 H1886 0.961 . S
C1879 H1887 0.960 . S
C1880 C1878 1.381 . S
C1880 C1881 1.394 . S
C1880 H1888 0.930 . S
C1881 C1880 1.394 . S
C1881 C1882 1.383 . S
C1881 H1889 0.929 . S
C1882 C1881 1.383 . S
C1882 C1883 1.377 . S
C1883 H1867 0.930 . S
C1883 C1882 1.377 . S
C1883 C1884 1.379 . S
C1884 H1868 0.931 . S
C1884 C1878 1.383 . S
C1884 C1883 1.379 . S
H1885 C1879 0.959 . S
H1886 C1879 0.961 . S
H1887 C1879 0.960 . S
H1888 C1880 0.930 . S
H1889 C1881 0.929 . S
H1890 C1898 0.929 . S
H1891 C1900 0.930 . S
H1892 C1902 0.930 . S
H1893 C1905 0.929 . S
H1894 C1908 0.930 . S
H1895 C1910 0.960 . S
H1896 C1910 0.960 . S
H1897 C1910 0.960 . S
C1898 H1890 0.929 . S
C1898 C1899 1.377 . S
C1898 C1900 1.384 . S
C1899 C1898 1.377 . S
C1899 C1905 1.390 . S
C1900 H1891 0.930 . S
C1900 C1898 1.384 . S
C1900 C1901 1.372 . S
C1901 C1900 1.372 . S
C1901 C1902 1.400 . S
C1901 C1906 1.490 . S
C1902 H1892 0.930 . S
C1902 C1901 1.400 . S
C1902 C1905 1.386 . S
H1903 C1919 0.930 . S
H1904 C1920 0.931 . S
C1905 H1893 0.929 . S
C1905 C1899 1.390 . S
C1905 C1902 1.386 . S
C1906 C1901 1.490 . S
C1906 C1908 1.395 . S
C1906 C1909 1.403 . S
H1907 C1913 0.930 . S
C1908 H1894 0.930 . S
C1908 C1906 1.395 . S
C1908 C1911 1.403 . S
C1909 C1906 1.403 . S
C1909 C1910 1.524 . S
C1909 C1913 1.400 . S
C1910 H1895 0.960 . S
C1910 H1896 0.960 . S
C1910 H1897 0.960 . S
C1910 C1909 1.524 . S
C1911 C1908 1.403 . S
C1911 C1912 1.392 . S
C1911 C1915 1.495 . S
C1912 C1911 1.392 . S
C1912 C1913 1.385 . S
C1912 C1914 1.478 . S
C1913 H1907 0.930 . S
C1913 C1909 1.400 . S
C1913 C1912 1.385 . S
C1914 C1912 1.478 . S
C1914 C1916 1.381 . S
C1914 C1920 1.383 . S
C1915 C1911 1.495 . S
C1915 H1921 0.959 . S
C1915 H1922 0.961 . S
C1915 H1923 0.960 . S
C1916 C1914 1.381 . S
C1916 C1917 1.394 . S
C1916 H1924 0.930 . S
C1917 C1916 1.394 . S
C1917 C1918 1.383 . S
C1917 H1925 0.929 . S
C1918 C1917 1.383 . S
C1918 C1919 1.377 . S
C1919 H1903 0.930 . S
C1919 C1918 1.377 . S
C1919 C1920 1.379 . S
C1920 H1904 0.931 . S
C1920 C1914 1.383 . S
C1920 C1919 1.379 . S
H1921 C1915 0.959 . S
H1922 C1915 0.961 . S
H1923 C1915 0.960 . S
H1924 C1916 0.930 . S
H1925 C1917 0.929 . S
H1926 C1934 0.929 . S
H1927 C1936 0.930 . S
H1928 C1938 0.930 . S
H1929 C1941 0.929 . S
H1930 C1944 0.930 . S
H1931 C1946 0.960 . S
H1932 C1946 0.960 . S
H1933 C1946 0.960 . S
C1934 H1926 0.929 . S
C1934 C1935 1.377 . S
C1934 C1936 1.384 . S
C1935 C1934 1.377 . S
C1935 C1941 1.390 . S
C1936 H1927 0.930 . S
C1936 C1934 1.384 . S
C1936 C1937 1.372 . S
C1937 C1936 1.372 . S
C1937 C1938 1.400 . S
C1937 C1942 1.490 . S
C1938 H1928 0.930 . S
C1938 C1937 1.400 . S
C1938 C1941 1.386 . S
H1939 C1955 0.930 . S
H1940 C1956 0.931 . S
C1941 H1929 0.929 . S
C1941 C1935 1.390 . S
C1941 C1938 1.386 . S
C1942 C1937 1.490 . S
C1942 C1944 1.395 . S
C1942 C1945 1.403 . S
H1943 C1949 0.930 . S
C1944 H1930 0.930 . S
C1944 C1942 1.395 . S
C1944 C1947 1.403 . S
C1945 C1942 1.403 . S
C1945 C1946 1.524 . S
C1945 C1949 1.400 . S
C1946 H1931 0.960 . S
C1946 H1932 0.960 . S
C1946 H1933 0.960 . S
C1946 C1945 1.524 . S
C1947 C1944 1.403 . S
C1947 C1948 1.392 . S
C1947 C1951 1.495 . S
C1948 C1947 1.392 . S
C1948 C1949 1.385 . S
C1948 C1950 1.478 . S
C1949 H1943 0.930 . S
C1949 C1945 1.400 . S
C1949 C1948 1.385 . S
C1950 C1948 1.478 . S
C1950 C1952 1.381 . S
C1950 C1956 1.383 . S
C1951 C1947 1.495 . S
C1951 H1957 0.959 . S
C1951 H1958 0.961 . S
C1951 H1959 0.960 . S
C1952 C1950 1.381 . S
C1952 C1953 1.394 . S
C1952 H1960 0.930 . S
C1953 C1952 1.394 . S
C1953 C1954 1.383 . S
C1953 H1961 0.929 . S
C1954 C1953 1.383 . S
C1954 C1955 1.377 . S
C1955 H1939 0.930 . S
C1955 C1954 1.377 . S
C1955 C1956 1.379 . S
C1956 H1940 0.931 . S
C1956 C1950 1.383 . S
C1956 C1955 1.379 . S
H1957 C1951 0.959 . S
H1958 C1951 0.961 . S
H1959 C1951 0.960 . S
H1960 C1952 0.930 . S
H1961 C1953 0.929 . S
H1962 C1970 0.929 . S
H1963 C1972 0.930 . S
H1964 C1974 0.930 . S
H1965 C1977 0.929 . S
H1966 C1980 0.930 . S
H1967 C1982 0.960 . S
H1968 C1982 0.960 . S
H1969 C1982 0.960 . S
C1970 H1962 0.929 . S
C1970 C1971 1.377 . S
C1970 C1972 1.384 . S
C1971 C1970 1.377 . S
C1971 C1977 1.390 . S
C1972 H1963 0.930 . S
C1972 C1970 1.384 . S
C1972 C1973 1.372 . S
C1973 C1972 1.372 . S
C1973 C1974 1.400 . S
C1973 C1978 1.490 . S
C1974 H1964 0.930 . S
C1974 C1973 1.400 . S
C1974 C1977 1.386 . S
H1975 C1991 0.930 . S
H1976 C1992 0.931 . S
C1977 H1965 0.929 . S
C1977 C1971 1.390 . S
C1977 C1974 1.386 . S
C1978 C1973 1.490 . S
C1978 C1980 1.395 . S
C1978 C1981 1.403 . S
H1979 C1985 0.930 . S
C1980 H1966 0.930 . S
C1980 C1978 1.395 . S
C1980 C1983 1.403 . S
C1981 C1978 1.403 . S
C1981 C1982 1.524 . S
C1981 C1985 1.400 . S
C1982 H1967 0.960 . S
C1982 H1968 0.960 . S
C1982 H1969 0.960 . S
C1982 C1981 1.524 . S
C1983 C1980 1.403 . S
C1983 C1984 1.392 . S
C1983 C1987 1.495 . S
C1984 C1983 1.392 . S
C1984 C1985 1.385 . S
C1984 C1986 1.478 . S
C1985 H1979 0.930 . S
C1985 C1981 1.400 . S
C1985 C1984 1.385 . S
C1986 C1984 1.478 . S
C1986 C1988 1.381 . S
C1986 C1992 1.383 . S
C1987 C1983 1.495 . S
C1987 H1993 0.959 . S
C1987 H1994 0.961 . S
C1987 H1995 0.960 . S
C1988 C1986 1.381 . S
C1988 C1989 1.394 . S
C1988 H1996 0.930 . S
C1989 C1988 1.394 . S
C1989 C1990 1.383 . S
C1989 H1997 0.929 . S
C1990 C1989 1.383 . S
C1990 C1991 1.377 . S
C1991 H1975 0.930 . S
C1991 C1990 1.377 . S
C1991 C1992 1.379 . S
C1992 H1976 0.931 . S
C1992 C1986 1.383 . S
C1992 C1991 1.379 . S
H1993 C1987 0.959 . S
H1994 C1987 0.961 . S
H1995 C1987 0.960 . S
H1996 C1988 0.930 . S
H1997 C1989 0.929 . S
H1998 C2006 0.929 . S
H1999 C2008 0.930 . S
H2000 C2010 0.930 . S
H2001 C2013 0.929 . S
H2002 C2016 0.930 . S
H2003 C2018 0.960 . S
H2004 C2018 0.960 . S
H2005 C2018 0.960 . S
C2006 H1998 0.929 . S
C2006 C2007 1.377 . S
C2006 C2008 1.384 . S
C2007 C2006 1.377 . S
C2007 C2013 1.390 . S
C2008 H1999 0.930 . S
C2008 C2006 1.384 . S
C2008 C2009 1.372 . S
C2009 C2008 1.372 . S
C2009 C2010 1.400 . S
C2009 C2014 1.490 . S
C2010 H2000 0.930 . S
C2010 C2009 1.400 . S
C2010 C2013 1.386 . S
H2011 C2027 0.930 . S
H2012 C2028 0.931 . S
C2013 H2001 0.929 . S
C2013 C2007 1.390 . S
C2013 C2010 1.386 . S
C2014 C2009 1.490 . S
C2014 C2016 1.395 . S
C2014 C2017 1.403 . S
H2015 C2021 0.930 . S
C2016 H2002 0.930 . S
C2016 C2014 1.395 . S
C2016 C2019 1.403 . S
C2017 C2014 1.403 . S
C2017 C2018 1.524 . S
C2017 C2021 1.400 . S
C2018 H2003 0.960 . S
C2018 H2004 0.960 . S
C2018 H2005 0.960 . S
C2018 C2017 1.524 . S
C2019 C2016 1.403 . S
C2019 C2020 1.392 . S
C2019 C2023 1.495 . S
C2020 C2019 1.392 . S
C2020 C2021 1.385 . S
C2020 C2022 1.478 . S
C2021 H2015 0.930 . S
C2021 C2017 1.400 . S
C2021 C2020 1.385 . S
C2022 C2020 1.478 . S
C2022 C2024 1.381 . S
C2022 C2028 1.383 . S
C2023 C2019 1.495 . S
C2023 H2029 0.959 . S
C2023 H2030 0.961 . S
C2023 H2031 0.960 . S
C2024 C2022 1.381 . S
C2024 C2025 1.394 . S
C2024 H2032 0.930 . S
C2025 C2024 1.394 . S
C2025 C2026 1.383 . S
C2025 H2033 0.929 . S
C2026 C2025 1.383 . S
C2026 C2027 1.377 . S
C2027 H2011 0.930 . S
C2027 C2026 1.377 . S
C2027 C2028 1.379 . S
C2028 H2012 0.931 . S
C2028 C2022 1.383 . S
C2028 C2027 1.379 . S
H2029 C2023 0.959 . S
H2030 C2023 0.961 . S
H2031 C2023 0.960 . S
H2032 C2024 0.930 . S
H2033 C2025 0.929 . S
H2034 C2042 0.929 . S
H2035 C2044 0.930 . S
H2036 C2046 0.930 . S
H2037 C2049 0.929 . S
H2038 C2052 0.930 . S
H2039 C2054 0.960 . S
H2040 C2054 0.960 . S
H2041 C2054 0.960 . S
C2042 H2034 0.929 . S
C2042 C2043 1.377 . S
C2042 C2044 1.384 . S
C2043 C2042 1.377 . S
C2043 C2049 1.390 . S
C2044 H2035 0.930 . S
C2044 C2042 1.384 . S
C2044 C2045 1.372 . S
C2045 C2044 1.372 . S
C2045 C2046 1.400 . S
C2045 C2050 1.490 . S
C2046 H2036 0.930 . S
C2046 C2045 1.400 . S
C2046 C2049 1.386 . S
H2047 C2063 0.930 . S
H2048 C2064 0.931 . S
C2049 H2037 0.929 . S
C2049 C2043 1.390 . S
C2049 C2046 1.386 . S
C2050 C2045 1.490 . S
C2050 C2052 1.395 . S
C2050 C2053 1.403 . S
H2051 C2057 0.930 . S
C2052 H2038 0.930 . S
C2052 C2050 1.395 . S
C2052 C2055 1.403 . S
C2053 C2050 1.403 . S
C2053 C2054 1.524 . S
C2053 C2057 1.400 . S
C2054 H2039 0.960 . S
C2054 H2040 0.960 . S
C2054 H2041 0.960 . S
C2054 C2053 1.524 . S
C2055 C2052 1.403 . S
C2055 C2056 1.392 . S
C2055 C2059 1.495 . S
C2056 C2055 1.392 . S
C2056 C2057 1.385 . S
C2056 C2058 1.478 . S
C2057 H2051 0.930 . S
C2057 C2053 1.400 . S
C2057 C2056 1.385 . S
C2058 C2056 1.478 . S
C2058 C2060 1.381 . S
C2058 C2064 1.383 . S
C2059 C2055 1.495 . S
C2059 H2065 0.959 . S
C2059 H2066 0.961 . S
C2059 H2067 0.960 . S
C2060 C2058 1.381 . S
C2060 C2061 1.394 . S
C2060 H2068 0.930 . S
C2061 C2060 1.394 . S
C2061 C2062 1.383 . S
C2061 H2069 0.929 . S
C2062 C2061 1.383 . S
C2062 C2063 1.377 . S
C2063 H2047 0.930 . S
C2063 C2062 1.377 . S
C2063 C2064 1.379 . S
C2064 H2048 0.931 . S
C2064 C2058 1.383 . S
C2064 C2063 1.379 . S
H2065 C2059 0.959 . S
H2066 C2059 0.961 . S
H2067 C2059 0.960 . S
H2068 C2060 0.930 . S
H2069 C2061 0.929 . S
H2070 C2078 0.929 . S
H2071 C2080 0.930 . S
H2072 C2082 0.930 . S
H2073 C2085 0.929 . S
H2074 C2088 0.930 . S
H2075 C2090 0.960 . S
H2076 C2090 0.960 . S
H2077 C2090 0.960 . S
C2078 H2070 0.929 . S
C2078 C2079 1.377 . S
C2078 C2080 1.384 . S
C2079 C2078 1.377 . S
C2079 C2085 1.390 . S
C2080 H2071 0.930 . S
C2080 C2078 1.384 . S
C2080 C2081 1.372 . S
C2081 C2080 1.372 . S
C2081 C2082 1.400 . S
C2081 C2086 1.490 . S
C2082 H2072 0.930 . S
C2082 C2081 1.400 . S
C2082 C2085 1.386 . S
H2083 C2099 0.930 . S
H2084 C2100 0.931 . S
C2085 H2073 0.929 . S
C2085 C2079 1.390 . S
C2085 C2082 1.386 . S
C2086 C2081 1.490 . S
C2086 C2088 1.395 . S
C2086 C2089 1.403 . S
H2087 C2093 0.930 . S
C2088 H2074 0.930 . S
C2088 C2086 1.395 . S
C2088 C2091 1.403 . S
C2089 C2086 1.403 . S
C2089 C2090 1.524 . S
C2089 C2093 1.400 . S
C2090 H2075 0.960 . S
C2090 H2076 0.960 . S
C2090 H2077 0.960 . S
C2090 C2089 1.524 . S
C2091 C2088 1.403 . S
C2091 C2092 1.392 . S
C2091 C2095 1.495 . S
C2092 C2091 1.392 . S
C2092 C2093 1.385 . S
C2092 C2094 1.478 . S
C2093 H2087 0.930 . S
C2093 C2089 1.400 . S
C2093 C2092 1.385 . S
C2094 C2092 1.478 . S
C2094 C2096 1.381 . S
C2094 C2100 1.383 . S
C2095 C2091 1.495 . S
C2095 H2101 0.959 . S
C2095 H2102 0.961 . S
C2095 H2103 0.960 . S
C2096 C2094 1.381 . S
C2096 C2097 1.394 . S
C2096 H2104 0.930 . S
C2097 C2096 1.394 . S
C2097 C2098 1.383 . S
C2097 H2105 0.929 . S
C2098 C2097 1.383 . S
C2098 C2099 1.377 . S
C2099 H2083 0.930 . S
C2099 C2098 1.377 . S
C2099 C2100 1.379 . S
C2100 H2084 0.931 . S
C2100 C2094 1.383 . S
C2100 C2099 1.379 . S
H2101 C2095 0.959 . S
H2102 C2095 0.961 . S
H2103 C2095 0.960 . S
H2104 C2096 0.930 . S
H2105 C2097 0.929 . S
H2106 C2114 0.929 . S
H2107 C2116 0.930 . S
H2108 C2118 0.930 . S
H2109 C2121 0.929 . S
H2110 C2124 0.930 . S
H2111 C2126 0.960 . S
H2112 C2126 0.966 . S
H2113 C2126 0.960 . S
C2114 H2106 0.929 . S
C2114 C2115 1.377 . S
C2114 C2116 1.384 . S
C2115 C2114 1.377 . S
C2115 C2121 1.390 . S
C2116 H2107 0.930 . S
C2116 C2114 1.384 . S
C2116 C2117 1.372 . S
C2117 C2116 1.372 . S
C2117 C2118 1.400 . S
C2117 C2122 1.490 . S
C2118 H2108 0.930 . S
C2118 C2117 1.400 . S
C2118 C2121 1.386 . S
H2119 C2135 0.930 . S
H2120 C2136 0.931 . S
C2121 H2109 0.929 . S
C2121 C2115 1.390 . S
C2121 C2118 1.386 . S
C2122 C2117 1.490 . S
C2122 C2124 1.395 . S
C2122 C2125 1.403 . S
H2123 C2129 0.930 . S
C2124 H2110 0.930 . S
C2124 C2122 1.395 . S
C2124 C2127 1.403 . S
C2125 C2122 1.403 . S
C2125 C2126 1.524 . S
C2125 C2129 1.400 . S
C2126 H2111 0.960 . S
C2126 H2112 0.966 . S
C2126 H2113 0.960 . S
C2126 C2125 1.524 . S
C2127 C2124 1.403 . S
C2127 C2128 1.392 . S
C2127 C2131 1.495 . S
C2128 C2127 1.392 . S
C2128 C2129 1.385 . S
C2128 C2130 1.478 . S
C2129 H2123 0.930 . S
C2129 C2125 1.400 . S
C2129 C2128 1.385 . S
C2130 C2128 1.478 . S
C2130 C2132 1.381 . S
C2130 C2136 1.383 . S
C2131 C2127 1.495 . S
C2131 H2137 0.959 . S
C2131 H2138 0.961 . S
C2131 H2139 0.960 . S
C2132 C2130 1.381 . S
C2132 C2133 1.394 . S
C2132 H2140 0.930 . S
C2133 C2132 1.394 . S
C2133 C2134 1.383 . S
C2133 H2141 0.929 . S
C2134 C2133 1.383 . S
C2134 C2135 1.377 . S
C2135 H2119 0.930 . S
C2135 C2134 1.377 . S
C2135 C2136 1.379 . S
C2136 H2120 0.931 . S
C2136 C2130 1.383 . S
C2136 C2135 1.379 . S
H2137 C2131 0.959 . S
H2138 C2131 0.961 . S
H2139 C2131 0.960 . S
H2140 C2132 0.930 . S
H2141 C2133 0.929 . S
H2142 C2150 0.929 . S
H2143 C2152 0.930 . S
H2144 C2154 0.930 . S
H2145 C2157 0.929 . S
H2146 C2160 0.930 . S
H2147 C2162 0.960 . S
H2148 C2162 0.960 . S
H2149 C2162 0.960 . S
C2150 H2142 0.929 . S
C2150 C2151 1.377 . S
C2150 C2152 1.384 . S
C2151 C2150 1.377 . S
C2151 C2157 1.390 . S
C2152 H2143 0.930 . S
C2152 C2150 1.384 . S
C2152 C2153 1.372 . S
C2153 C2152 1.372 . S
C2153 C2154 1.400 . S
C2153 C2158 1.490 . S
C2154 H2144 0.930 . S
C2154 C2153 1.400 . S
C2154 C2157 1.386 . S
H2155 C2171 0.930 . S
H2156 C2172 0.931 . S
C2157 H2145 0.929 . S
C2157 C2151 1.390 . S
C2157 C2154 1.386 . S
C2158 C2153 1.490 . S
C2158 C2160 1.395 . S
C2158 C2161 1.403 . S
H2159 C2165 0.930 . S
C2160 H2146 0.930 . S
C2160 C2158 1.395 . S
C2160 C2163 1.403 . S
C2161 C2158 1.403 . S
C2161 C2162 1.524 . S
C2161 C2165 1.400 . S
C2162 H2147 0.960 . S
C2162 H2148 0.960 . S
C2162 H2149 0.960 . S
C2162 C2161 1.524 . S
C2163 C2160 1.403 . S
C2163 C2164 1.392 . S
C2163 C2167 1.495 . S
C2164 C2163 1.392 . S
C2164 C2165 1.385 . S
C2164 C2166 1.478 . S
C2165 H2159 0.930 . S
C2165 C2161 1.400 . S
C2165 C2164 1.385 . S
C2166 C2164 1.478 . S
C2166 C2168 1.381 . S
C2166 C2172 1.383 . S
C2167 C2163 1.495 . S
C2167 H2173 0.959 . S
C2167 H2174 0.961 . S
C2167 H2175 0.960 . S
C2168 C2166 1.381 . S
C2168 C2169 1.394 . S
C2168 H2176 0.930 . S
C2169 C2168 1.394 . S
C2169 C2170 1.383 . S
C2169 H2177 0.929 . S
C2170 C2169 1.383 . S
C2170 C2171 1.377 . S
C2171 H2155 0.930 . S
C2171 C2170 1.377 . S
C2171 C2172 1.379 . S
C2172 H2156 0.931 . S
C2172 C2166 1.383 . S
C2172 C2171 1.379 . S
H2173 C2167 0.959 . S
H2174 C2167 0.961 . S
H2175 C2167 0.960 . S
H2176 C2168 0.930 . S
H2177 C2169 0.929 . S
H2178 C2186 0.929 . S
H2179 C2188 0.930 . S
H2180 C2190 0.930 . S
H2181 C2193 0.929 . S
H2182 C2196 0.930 . S
H2183 C2198 0.960 . S
H2184 C2198 0.960 . S
H2185 C2198 0.960 . S
C2186 H2178 0.929 . S
C2186 C2187 1.377 . S
C2186 C2188 1.384 . S
C2187 C2186 1.377 . S
C2187 C2193 1.390 . S
C2188 H2179 0.930 . S
C2188 C2186 1.384 . S
C2188 C2189 1.372 . S
C2189 C2188 1.372 . S
C2189 C2190 1.400 . S
C2189 C2194 1.490 . S
C2190 H2180 0.930 . S
C2190 C2189 1.400 . S
C2190 C2193 1.386 . S
H2191 C2207 0.930 . S
H2192 C2208 0.931 . S
C2193 H2181 0.929 . S
C2193 C2187 1.390 . S
C2193 C2190 1.386 . S
C2194 C2189 1.490 . S
C2194 C2196 1.395 . S
C2194 C2197 1.403 . S
H2195 C2201 0.930 . S
C2196 H2182 0.930 . S
C2196 C2194 1.395 . S
C2196 C2199 1.403 . S
C2197 C2194 1.403 . S
C2197 C2198 1.524 . S
C2197 C2201 1.400 . S
C2198 H2183 0.960 . S
C2198 H2184 0.960 . S
C2198 H2185 0.960 . S
C2198 C2197 1.524 . S
C2199 C2196 1.403 . S
C2199 C2200 1.392 . S
C2199 C2203 1.495 . S
C2200 C2199 1.392 . S
C2200 C2201 1.385 . S
C2200 C2202 1.478 . S
C2201 H2195 0.930 . S
C2201 C2197 1.400 . S
C2201 C2200 1.385 . S
C2202 C2200 1.478 . S
C2202 C2204 1.381 . S
C2202 C2208 1.383 . S
C2203 C2199 1.495 . S
C2203 H2209 0.959 . S
C2203 H2210 0.961 . S
C2203 H2211 0.960 . S
C2204 C2202 1.381 . S
C2204 C2205 1.394 . S
C2204 H2212 0.930 . S
C2205 C2204 1.394 . S
C2205 C2206 1.383 . S
C2205 H2213 0.929 . S
C2206 C2205 1.383 . S
C2206 C2207 1.377 . S
C2207 H2191 0.930 . S
C2207 C2206 1.377 . S
C2207 C2208 1.379 . S
C2208 H2192 0.931 . S
C2208 C2202 1.383 . S
C2208 C2207 1.379 . S
H2209 C2203 0.959 . S
H2210 C2203 0.961 . S
H2211 C2203 0.960 . S
H2212 C2204 0.930 . S
H2213 C2205 0.929 . S
H2214 C2222 0.929 . S
H2215 C2224 0.930 . S
H2216 C2226 0.930 . S
H2217 C2229 0.929 1_554 S
H2218 C2232 0.930 . S
H2219 C2234 0.960 . S
H2220 C2234 0.960 . S
H2221 C2234 0.960 . S
C2222 H2214 0.929 . S
C2222 C2223 1.377 . S
C2222 C2224 1.384 . S
C2223 C2222 1.377 . S
C2223 C2229 1.390 . S
C2224 H2215 0.930 . S
C2224 C2222 1.384 . S
C2224 C2225 1.372 . S
C2225 C2224 1.372 . S
C2225 C2226 1.400 . S
C2225 C2230 1.490 . S
C2226 H2216 0.930 . S
C2226 C2225 1.400 . S
C2226 C2229 1.386 . S
H2227 C2243 0.930 . S
H2228 C2244 0.931 . S
C2229 H2217 0.929 1_556 S
C2229 C2223 1.390 . S
C2229 C2226 1.386 . S
C2230 C2225 1.490 . S
C2230 C2232 1.395 . S
C2230 C2233 1.403 . S
H2231 C2237 0.930 . S
C2232 H2218 0.930 . S
C2232 C2230 1.395 . S
C2232 C2235 1.403 . S
C2233 C2230 1.403 . S
C2233 C2234 1.524 . S
C2233 C2237 1.400 . S
C2234 H2219 0.960 . S
C2234 H2220 0.960 . S
C2234 H2221 0.960 . S
C2234 C2233 1.524 . S
C2235 C2232 1.403 . S
C2235 C2236 1.392 . S
C2235 C2239 1.495 . S
C2236 C2235 1.392 . S
C2236 C2237 1.385 . S
C2236 C2238 1.478 . S
C2237 H2231 0.930 . S
C2237 C2233 1.400 . S
C2237 C2236 1.385 . S
C2238 C2236 1.478 . S
C2238 C2240 1.381 . S
C2238 C2244 1.383 . S
C2239 C2235 1.495 . S
C2239 H2245 0.959 . S
C2239 H2246 0.961 . S
C2239 H2247 0.960 . S
C2240 C2238 1.381 . S
C2240 C2241 1.394 . S
C2240 H2248 0.930 . S
C2241 C2240 1.394 . S
C2241 C2242 1.383 . S
C2241 H2249 0.929 . S
C2242 C2241 1.383 . S
C2242 C2243 1.377 . S
C2243 H2227 0.930 . S
C2243 C2242 1.377 . S
C2243 C2244 1.379 . S
C2244 H2228 0.931 . S
C2244 C2238 1.383 . S
C2244 C2243 1.379 . S
H2245 C2239 0.959 . S
H2246 C2239 0.961 . S
H2247 C2239 0.960 . S
H2248 C2240 0.930 . S
H2249 C2241 0.929 . S
H2250 C2258 0.929 . S
H2251 C2260 0.930 . S
H2252 C2262 0.930 . S
H2253 C2265 0.929 . S
H2254 C2268 0.930 . S
H2255 C2270 0.960 . S
H2256 C2270 0.960 . S
H2257 C2270 0.960 . S
C2258 H2250 0.929 . S
C2258 C2259 1.377 . S
C2258 C2260 1.384 . S
C2259 C2258 1.377 . S
C2259 C2265 1.390 . S
C2260 H2251 0.930 . S
C2260 C2258 1.384 . S
C2260 C2261 1.372 . S
C2261 C2260 1.372 . S
C2261 C2262 1.400 . S
C2261 C2266 1.490 . S
C2262 H2252 0.930 . S
C2262 C2261 1.400 . S
C2262 C2265 1.386 . S
H2263 C2279 0.930 . S
H2264 C2280 0.931 . S
C2265 H2253 0.929 . S
C2265 C2259 1.390 . S
C2265 C2262 1.386 . S
C2266 C2261 1.490 . S
C2266 C2268 1.395 . S
C2266 C2269 1.403 . S
H2267 C2273 0.930 . S
C2268 H2254 0.930 . S
C2268 C2266 1.395 . S
C2268 C2271 1.403 . S
C2269 C2266 1.403 . S
C2269 C2270 1.524 . S
C2269 C2273 1.400 . S
C2270 H2255 0.960 . S
C2270 H2256 0.960 . S
C2270 H2257 0.960 . S
C2270 C2269 1.524 . S
C2271 C2268 1.403 . S
C2271 C2272 1.392 . S
C2271 C2275 1.495 . S
C2272 C2271 1.392 . S
C2272 C2273 1.385 . S
C2272 C2274 1.478 . S
C2273 H2267 0.930 . S
C2273 C2269 1.400 . S
C2273 C2272 1.385 . S
C2274 C2272 1.478 . S
C2274 C2276 1.381 . S
C2274 C2280 1.383 . S
C2275 C2271 1.495 . S
C2275 H2281 0.959 . S
C2275 H2282 0.961 . S
C2275 H2283 0.960 . S
C2276 C2274 1.381 . S
C2276 C2277 1.394 . S
C2276 H2284 0.930 . S
C2277 C2276 1.394 . S
C2277 C2278 1.383 . S
C2277 H2285 0.929 . S
C2278 C2277 1.383 . S
C2278 C2279 1.377 . S
C2279 H2263 0.930 . S
C2279 C2278 1.377 . S
C2279 C2280 1.379 . S
C2280 H2264 0.931 . S
C2280 C2274 1.383 . S
C2280 C2279 1.379 . S
H2281 C2275 0.959 . S
H2282 C2275 0.961 . S
H2283 C2275 0.960 . S
H2284 C2276 0.930 . S
H2285 C2277 0.929 . S
H2286 C2294 0.929 . S
H2287 C2296 0.930 . S
H2288 C2298 0.930 . S
H2289 C2301 0.929 . S
H2290 C2304 0.930 . S
H2291 C2306 0.960 . S
H2292 C2306 0.960 . S
H2293 C2306 0.960 . S
C2294 H2286 0.929 . S
C2294 C2295 1.377 . S
C2294 C2296 1.384 . S
C2295 C2294 1.377 . S
C2295 C2301 1.390 . S
C2296 H2287 0.930 . S
C2296 C2294 1.384 . S
C2296 C2297 1.372 . S
C2297 C2296 1.372 . S
C2297 C2298 1.400 . S
C2297 C2302 1.490 . S
C2298 H2288 0.930 . S
C2298 C2297 1.400 . S
C2298 C2301 1.386 . S
H2299 C2315 0.930 . S
H2300 C2316 0.931 . S
C2301 H2289 0.929 . S
C2301 C2295 1.390 . S
C2301 C2298 1.386 . S
C2302 C2297 1.490 . S
C2302 C2304 1.395 . S
C2302 C2305 1.403 . S
H2303 C2309 0.930 . S
C2304 H2290 0.930 . S
C2304 C2302 1.395 . S
C2304 C2307 1.403 . S
C2305 C2302 1.403 . S
C2305 C2306 1.524 . S
C2305 C2309 1.400 . S
C2306 H2291 0.960 . S
C2306 H2292 0.960 . S
C2306 H2293 0.960 . S
C2306 C2305 1.524 . S
C2307 C2304 1.403 . S
C2307 C2308 1.392 . S
C2307 C2311 1.495 . S
C2308 C2307 1.392 . S
C2308 C2309 1.385 . S
C2308 C2310 1.478 . S
C2309 H2303 0.930 . S
C2309 C2305 1.400 . S
C2309 C2308 1.385 . S
C2310 C2308 1.478 . S
C2310 C2312 1.381 . S
C2310 C2316 1.383 . S
C2311 C2307 1.495 . S
C2311 H2317 0.959 . S
C2311 H2318 0.961 . S
C2311 H2319 0.960 . S
C2312 C2310 1.381 . S
C2312 C2313 1.394 . S
C2312 H2320 0.930 . S
C2313 C2312 1.394 . S
C2313 C2314 1.383 . S
C2313 H2321 0.929 . S
C2314 C2313 1.383 . S
C2314 C2315 1.377 . S
C2315 H2299 0.930 . S
C2315 C2314 1.377 . S
C2315 C2316 1.379 . S
C2316 H2300 0.931 . S
C2316 C2310 1.383 . S
C2316 C2315 1.379 . S
H2317 C2311 0.959 . S
H2318 C2311 0.961 . S
H2319 C2311 0.960 . S
H2320 C2312 0.930 . S
H2321 C2313 0.929 . S
H2322 C2330 0.929 . S
H2323 C2332 0.930 . S
H2324 C2334 0.930 . S
H2325 C2337 0.929 . S
H2326 C2340 0.930 . S
H2327 C2342 0.960 . S
H2328 C2342 0.960 . S
H2329 C2342 0.960 . S
C2330 H2322 0.929 . S
C2330 C2331 1.377 . S
C2330 C2332 1.384 . S
C2331 C2330 1.377 . S
C2331 C2337 1.390 . S
C2332 H2323 0.930 . S
C2332 C2330 1.384 . S
C2332 C2333 1.372 . S
C2333 C2332 1.372 . S
C2333 C2334 1.400 . S
C2333 C2338 1.490 . S
C2334 H2324 0.930 . S
C2334 C2333 1.400 . S
C2334 C2337 1.386 . S
H2335 C2351 0.930 . S
H2336 C2352 0.931 . S
C2337 H2325 0.929 . S
C2337 C2331 1.390 . S
C2337 C2334 1.386 . S
C2338 C2333 1.490 . S
C2338 C2340 1.395 . S
C2338 C2341 1.403 . S
H2339 C2345 0.930 . S
C2340 H2326 0.930 . S
C2340 C2338 1.395 . S
C2340 C2343 1.403 . S
C2341 C2338 1.403 . S
C2341 C2342 1.524 . S
C2341 C2345 1.400 . S
C2342 H2327 0.960 . S
C2342 H2328 0.960 . S
C2342 H2329 0.960 . S
C2342 C2341 1.524 . S
C2343 C2340 1.403 . S
C2343 C2344 1.392 . S
C2343 C2347 1.495 . S
C2344 C2343 1.392 . S
C2344 C2345 1.385 . S
C2344 C2346 1.478 . S
C2345 H2339 0.930 . S
C2345 C2341 1.400 . S
C2345 C2344 1.385 . S
C2346 C2344 1.478 . S
C2346 C2348 1.381 . S
C2346 C2352 1.383 . S
C2347 C2343 1.495 . S
C2347 H2353 0.959 . S
C2347 H2354 0.961 . S
C2347 H2355 0.960 . S
C2348 C2346 1.381 . S
C2348 C2349 1.394 . S
C2348 H2356 0.930 . S
C2349 C2348 1.394 . S
C2349 C2350 1.383 . S
C2349 H2357 0.929 . S
C2350 C2349 1.383 . S
C2350 C2351 1.377 . S
C2351 H2335 0.930 . S
C2351 C2350 1.377 . S
C2351 C2352 1.379 . S
C2352 H2336 0.931 . S
C2352 C2346 1.383 . S
C2352 C2351 1.379 . S
H2353 C2347 0.959 . S
H2354 C2347 0.961 . S
H2355 C2347 0.960 . S
H2356 C2348 0.930 . S
H2357 C2349 0.929 . S
H2358 C2366 0.929 . S
H2359 C2368 0.930 . S
H2360 C2370 0.930 . S
H2361 C2373 0.929 . S
H2362 C2376 0.930 . S
H2363 C2378 0.960 . S
H2364 C2378 0.960 . S
H2365 C2378 0.960 . S
C2366 H2358 0.929 . S
C2366 C2367 1.377 . S
C2366 C2368 1.384 . S
C2367 C2366 1.377 . S
C2367 C2373 1.390 . S
C2368 H2359 0.930 . S
C2368 C2366 1.384 . S
C2368 C2369 1.372 . S
C2369 C2368 1.372 . S
C2369 C2370 1.400 . S
C2369 C2374 1.490 . S
C2370 H2360 0.930 . S
C2370 C2369 1.400 . S
C2370 C2373 1.386 . S
H2371 C2387 0.930 . S
H2372 C2388 0.931 . S
C2373 H2361 0.929 . S
C2373 C2367 1.390 . S
C2373 C2370 1.386 . S
C2374 C2369 1.490 . S
C2374 C2376 1.395 . S
C2374 C2377 1.403 . S
H2375 C2381 0.930 . S
C2376 H2362 0.930 . S
C2376 C2374 1.395 . S
C2376 C2379 1.403 . S
C2377 C2374 1.403 . S
C2377 C2378 1.524 . S
C2377 C2381 1.400 . S
C2378 H2363 0.960 . S
C2378 H2364 0.960 . S
C2378 H2365 0.960 . S
C2378 C2377 1.524 . S
C2379 C2376 1.403 . S
C2379 C2380 1.392 . S
C2379 C2383 1.495 . S
C2380 C2379 1.392 . S
C2380 C2381 1.385 . S
C2380 C2382 1.478 . S
C2381 H2375 0.930 . S
C2381 C2377 1.400 . S
C2381 C2380 1.385 . S
C2382 C2380 1.478 . S
C2382 C2384 1.381 . S
C2382 C2388 1.383 . S
C2383 C2379 1.495 . S
C2383 H2389 0.959 . S
C2383 H2390 0.961 . S
C2383 H2391 0.960 . S
C2384 C2382 1.381 . S
C2384 C2385 1.394 . S
C2384 H2392 0.930 . S
C2385 C2384 1.394 . S
C2385 C2386 1.383 . S
C2385 H2393 0.929 . S
C2386 C2385 1.383 . S
C2386 C2387 1.377 . S
C2387 H2371 0.930 . S
C2387 C2386 1.377 . S
C2387 C2388 1.379 . S
C2388 H2372 0.931 . S
C2388 C2382 1.383 . S
C2388 C2387 1.379 . S
H2389 C2383 0.959 . S
H2390 C2383 0.961 . S
H2391 C2383 0.960 . S
H2392 C2384 0.930 . S
H2393 C2385 0.929 . S
H2394 C2402 0.929 . S
H2395 C2404 0.930 . S
H2396 C2406 0.930 . S
H2397 C2409 0.929 . S
H2398 C2412 0.930 . S
H2399 C2414 0.960 . S
H2400 C2414 0.960 . S
H2401 C2414 0.960 . S
C2402 H2394 0.929 . S
C2402 C2403 1.377 . S
C2402 C2404 1.384 . S
C2403 C2402 1.377 . S
C2403 C2409 1.390 . S
C2404 H2395 0.930 . S
C2404 C2402 1.384 . S
C2404 C2405 1.372 . S
C2405 C2404 1.372 . S
C2405 C2406 1.400 . S
C2405 C2410 1.490 . S
C2406 H2396 0.930 . S
C2406 C2405 1.400 . S
C2406 C2409 1.386 . S
H2407 C2423 0.930 . S
H2408 C2424 0.931 . S
C2409 H2397 0.929 . S
C2409 C2403 1.390 . S
C2409 C2406 1.386 . S
C2410 C2405 1.490 . S
C2410 C2412 1.395 . S
C2410 C2413 1.403 . S
H2411 C2417 0.930 . S
C2412 H2398 0.930 . S
C2412 C2410 1.395 . S
C2412 C2415 1.403 . S
C2413 C2410 1.403 . S
C2413 C2414 1.524 . S
C2413 C2417 1.400 . S
C2414 H2399 0.960 . S
C2414 H2400 0.960 . S
C2414 H2401 0.960 . S
C2414 C2413 1.524 . S
C2415 C2412 1.403 . S
C2415 C2416 1.392 . S
C2415 C2419 1.495 . S
C2416 C2415 1.392 . S
C2416 C2417 1.385 . S
C2416 C2418 1.478 . S
C2417 H2411 0.930 . S
C2417 C2413 1.400 . S
C2417 C2416 1.385 . S
C2418 C2416 1.478 . S
C2418 C2420 1.381 . S
C2418 C2424 1.383 . S
C2419 C2415 1.495 . S
C2419 H2425 0.959 . S
C2419 H2426 0.961 . S
C2419 H2427 0.960 . S
C2420 C2418 1.381 . S
C2420 C2421 1.394 . S
C2420 H2428 0.930 . S
C2421 C2420 1.394 . S
C2421 C2422 1.383 . S
C2421 H2429 0.929 . S
C2422 C2421 1.383 . S
C2422 C2423 1.377 . S
C2423 H2407 0.930 . S
C2423 C2422 1.377 . S
C2423 C2424 1.379 . S
C2424 H2408 0.931 . S
C2424 C2418 1.383 . S
C2424 C2423 1.379 . S
H2425 C2419 0.959 . S
H2426 C2419 0.961 . S
H2427 C2419 0.960 . S
H2428 C2420 0.930 . S
H2429 C2421 0.929 . S
H2430 C2438 0.929 . S
H2431 C2440 0.930 . S
H2432 C2442 0.930 . S
H2433 C2445 0.929 . S
H2434 C2448 0.930 . S
H2435 C2450 0.960 . S
H2436 C2450 0.960 . S
H2437 C2450 0.960 . S
C2438 H2430 0.929 . S
C2438 C2439 1.377 . S
C2438 C2440 1.384 . S
C2439 C2438 1.377 . S
C2439 C2445 1.390 . S
C2440 H2431 0.930 . S
C2440 C2438 1.384 . S
C2440 C2441 1.372 . S
C2441 C2440 1.372 . S
C2441 C2442 1.400 . S
C2441 C2446 1.490 . S
C2442 H2432 0.930 . S
C2442 C2441 1.400 . S
C2442 C2445 1.386 . S
H2443 C2459 0.930 . S
H2444 C2460 0.931 . S
C2445 H2433 0.929 . S
C2445 C2439 1.390 . S
C2445 C2442 1.386 . S
C2446 C2441 1.490 . S
C2446 C2448 1.395 . S
C2446 C2449 1.403 . S
H2447 C2453 0.930 . S
C2448 H2434 0.930 . S
C2448 C2446 1.395 . S
C2448 C2451 1.403 . S
C2449 C2446 1.403 . S
C2449 C2450 1.524 . S
C2449 C2453 1.400 . S
C2450 H2435 0.960 . S
C2450 H2436 0.960 . S
C2450 H2437 0.960 . S
C2450 C2449 1.524 . S
C2451 C2448 1.403 . S
C2451 C2452 1.392 . S
C2451 C2455 1.495 . S
C2452 C2451 1.392 . S
C2452 C2453 1.385 . S
C2452 C2454 1.478 . S
C2453 H2447 0.930 . S
C2453 C2449 1.400 . S
C2453 C2452 1.385 . S
C2454 C2452 1.478 . S
C2454 C2456 1.381 . S
C2454 C2460 1.383 . S
C2455 C2451 1.495 . S
C2455 H2461 0.959 . S
C2455 H2462 0.961 . S
C2455 H2463 0.960 . S
C2456 C2454 1.381 . S
C2456 C2457 1.394 . S
C2456 H2464 0.930 . S
C2457 C2456 1.394 . S
C2457 C2458 1.383 . S
C2457 H2465 0.929 . S
C2458 C2457 1.383 . S
C2458 C2459 1.377 . S
C2459 H2443 0.930 . S
C2459 C2458 1.377 . S
C2459 C2460 1.379 . S
C2460 H2444 0.931 . S
C2460 C2454 1.383 . S
C2460 C2459 1.379 . S
H2461 C2455 0.959 . S
H2462 C2455 0.961 . S
H2463 C2455 0.960 . S
H2464 C2456 0.930 . S
H2465 C2457 0.929 . S
H2466 C2474 0.929 1_655 S
H2467 C2476 0.930 1_655 S
H2468 C2478 0.930 . S
H2469 C2481 0.929 . S
H2470 C2484 0.930 . S
H2471 C2486 0.960 . S
H2472 C2486 0.960 . S
H2473 C2486 0.960 . S
C2474 H2466 0.929 1_455 S
C2474 C2475 1.377 . S
C2474 C2476 1.384 . S
C2475 C2474 1.377 . S
C2475 C2481 1.390 . S
C2476 H2467 0.930 1_455 S
C2476 C2474 1.384 . S
C2476 C2477 1.372 . S
C2477 C2476 1.372 . S
C2477 C2478 1.400 . S
C2477 C2482 1.490 . S
C2478 H2468 0.930 . S
C2478 C2477 1.400 . S
C2478 C2481 1.386 . S
H2479 C2495 0.930 . S
H2480 C2496 0.931 . S
C2481 H2469 0.929 . S
C2481 C2475 1.390 . S
C2481 C2478 1.386 . S
C2482 C2477 1.490 . S
C2482 C2484 1.395 1_455 S
C2482 C2485 1.403 . S
H2483 C2489 0.930 . S
C2484 H2470 0.930 . S
C2484 C2482 1.395 1_655 S
C2484 C2487 1.403 . S
C2485 C2482 1.403 . S
C2485 C2486 1.524 . S
C2485 C2489 1.400 . S
C2486 H2471 0.960 . S
C2486 H2472 0.960 . S
C2486 H2473 0.960 . S
C2486 C2485 1.524 . S
C2487 C2484 1.403 . S
C2487 C2488 1.392 1_655 S
C2487 C2491 1.495 . S
C2488 C2487 1.392 1_455 S
C2488 C2489 1.385 . S
C2488 C2490 1.478 . S
C2489 H2483 0.930 . S
C2489 C2485 1.400 . S
C2489 C2488 1.385 . S
C2490 C2488 1.478 . S
C2490 C2492 1.381 1_455 S
C2490 C2496 1.383 . S
C2491 C2487 1.495 . S
C2491 H2497 0.959 . S
C2491 H2498 0.961 . S
C2491 H2499 0.960 . S
C2492 C2490 1.381 1_655 S
C2492 C2493 1.394 . S
C2492 H2500 0.930 . S
C2493 C2492 1.394 . S
C2493 C2494 1.383 1_655 S
C2493 H2501 0.929 . S
C2494 C2493 1.383 1_455 S
C2494 C2495 1.377 . S
C2495 H2479 0.930 . S
C2495 C2494 1.377 . S
C2495 C2496 1.379 . S
C2496 H2480 0.931 . S
C2496 C2490 1.383 . S
C2496 C2495 1.379 . S
H2497 C2491 0.959 . S
H2498 C2491 0.961 . S
H2499 C2491 0.960 . S
H2500 C2492 0.930 . S
H2501 C2493 0.929 . S
H2502 C2510 0.929 . S
H2503 C2512 0.930 . S
H2504 C2514 0.930 . S
H2505 C2517 0.929 . S
H2506 C2520 0.930 . S
H2507 C2522 0.960 . S
H2508 C2522 0.960 . S
H2509 C2522 0.960 . S
C2510 H2502 0.929 . S
C2510 C2511 1.377 . S
C2510 C2512 1.384 . S
C2511 C2510 1.377 . S
C2511 C2517 1.390 . S
C2512 H2503 0.930 . S
C2512 C2510 1.384 . S
C2512 C2513 1.372 . S
C2513 C2512 1.372 . S
C2513 C2514 1.400 . S
C2513 C2518 1.490 . S
C2514 H2504 0.930 . S
C2514 C2513 1.400 . S
C2514 C2517 1.386 . S
H2515 C2531 0.930 . S
H2516 C2532 0.931 . S
C2517 H2505 0.929 . S
C2517 C2511 1.390 . S
C2517 C2514 1.386 . S
C2518 C2513 1.490 . S
C2518 C2520 1.395 . S
C2518 C2521 1.403 . S
H2519 C2525 0.930 . S
C2520 H2506 0.930 . S
C2520 C2518 1.395 . S
C2520 C2523 1.403 . S
C2521 C2518 1.403 . S
C2521 C2522 1.524 . S
C2521 C2525 1.400 . S
C2522 H2507 0.960 . S
C2522 H2508 0.960 . S
C2522 H2509 0.960 . S
C2522 C2521 1.524 . S
C2523 C2520 1.403 . S
C2523 C2524 1.392 . S
C2523 C2527 1.495 . S
C2524 C2523 1.392 . S
C2524 C2525 1.385 . S
C2524 C2526 1.478 . S
C2525 H2519 0.930 . S
C2525 C2521 1.400 . S
C2525 C2524 1.385 . S
C2526 C2524 1.478 . S
C2526 C2528 1.381 . S
C2526 C2532 1.383 . S
C2527 C2523 1.495 . S
C2527 H2533 0.959 . S
C2527 H2534 0.961 . S
C2527 H2535 0.960 . S
C2528 C2526 1.381 . S
C2528 C2529 1.394 . S
C2528 H2536 0.930 . S
C2529 C2528 1.394 . S
C2529 C2530 1.383 . S
C2529 H2537 0.929 . S
C2530 C2529 1.383 . S
C2530 C2531 1.377 . S
C2531 H2515 0.930 . S
C2531 C2530 1.377 . S
C2531 C2532 1.379 . S
C2532 H2516 0.931 . S
C2532 C2526 1.383 . S
C2532 C2531 1.379 . S
H2533 C2527 0.959 . S
H2534 C2527 0.961 . S
H2535 C2527 0.960 . S
H2536 C2528 0.930 . S
H2537 C2529 0.929 . S
H2538 C2546 0.929 . S
H2539 C2548 0.930 . S
H2540 C2550 0.930 . S
H2541 C2553 0.929 . S
H2542 C2556 0.930 . S
H2543 C2558 0.959 . S
H2544 C2558 0.977 . S
H2545 C2558 0.954 1_565 S
C2546 H2538 0.929 . S
C2546 C2547 1.377 1_545 S
C2546 C2548 1.384 . S
C2547 C2546 1.377 1_565 S
C2547 C2553 1.390 . S
C2548 H2539 0.930 . S
C2548 C2546 1.384 . S
C2548 C2549 1.372 1_545 S
C2549 C2548 1.372 1_565 S
C2549 C2550 1.400 . S
C2549 C2554 1.490 . S
C2550 H2540 0.930 . S
C2550 C2549 1.400 . S
C2550 C2553 1.386 . S
H2551 C2567 0.930 . S
H2552 C2568 0.931 . S
C2553 H2541 0.929 . S
C2553 C2547 1.390 . S
C2553 C2550 1.386 . S
C2554 C2549 1.490 . S
C2554 C2556 1.395 . S
C2554 C2557 1.403 . S
H2555 C2561 0.930 . S
C2556 H2542 0.930 . S
C2556 C2554 1.395 . S
C2556 C2559 1.403 . S
C2557 C2554 1.403 . S
C2557 C2558 1.514 1_565 S
C2557 C2561 1.400 . S
C2558 H2543 0.959 . S
C2558 H2544 0.977 . S
C2558 H2545 0.954 1_545 S
C2558 C2557 1.514 1_545 S
C2559 C2556 1.403 . S
C2559 C2560 1.392 . S
C2559 C2563 1.495 . S
C2560 C2559 1.392 . S
C2560 C2561 1.385 . S
C2560 C2562 1.478 . S
C2561 H2555 0.930 . S
C2561 C2557 1.400 . S
C2561 C2560 1.385 . S
C2562 C2560 1.478 . S
C2562 C2564 1.381 1_565 S
C2562 C2568 1.383 . S
C2563 C2559 1.495 . S
C2563 H2569 0.959 . S
C2563 H2570 0.961 . S
C2563 H2571 0.960 . S
C2564 C2562 1.381 1_545 S
C2564 C2565 1.394 . S
C2564 H2572 0.930 . S
C2565 C2564 1.394 . S
C2565 C2566 1.383 1_545 S
C2565 H2573 0.929 . S
C2566 C2565 1.383 1_565 S
C2566 C2567 1.377 . S
C2567 H2551 0.930 . S
C2567 C2566 1.377 . S
C2567 C2568 1.379 . S
C2568 H2552 0.931 . S
C2568 C2562 1.383 . S
C2568 C2567 1.379 . S
H2569 C2563 0.959 . S
H2570 C2563 0.961 . S
H2571 C2563 0.960 . S
H2572 C2564 0.930 . S
H2573 C2565 0.929 . S
H2574 C2582 0.929 . S
H2575 C2584 0.930 . S
H2576 C2586 0.930 . S
H2577 C2589 0.929 . S
H2578 C2592 0.930 . S
H2579 C2594 0.960 . S
H2580 C2594 0.960 . S
H2581 C2594 0.960 . S
C2582 H2574 0.929 . S
C2582 C2583 1.377 . S
C2582 C2584 1.384 . S
C2583 C2582 1.377 . S
C2583 C2589 1.390 1_565 S
C2584 H2575 0.930 . S
C2584 C2582 1.384 . S
C2584 C2585 1.372 . S
C2585 C2584 1.372 . S
C2585 C2586 1.400 1_565 S
C2585 C2590 1.490 . S
C2586 H2576 0.930 . S
C2586 C2585 1.400 1_545 S
C2586 C2589 1.386 . S
H2587 C2603 0.930 . S
H2588 C2604 0.931 . S
C2589 H2577 0.929 . S
C2589 C2583 1.390 1_545 S
C2589 C2586 1.386 . S
C2590 C2585 1.490 . S
C2590 C2592 1.395 . S
C2590 C2593 1.403 . S
H2591 C2597 0.930 . S
C2592 H2578 0.930 . S
C2592 C2590 1.395 . S
C2592 C2595 1.403 . S
C2593 C2590 1.403 . S
C2593 C2594 1.524 . S
C2593 C2597 1.400 . S
C2594 H2579 0.960 . S
C2594 H2580 0.960 . S
C2594 H2581 0.960 . S
C2594 C2593 1.524 . S
C2595 C2592 1.403 . S
C2595 C2596 1.392 . S
C2595 C2599 1.495 1_565 S
C2596 C2595 1.392 . S
C2596 C2597 1.385 . S
C2596 C2598 1.478 . S
C2597 H2591 0.930 . S
C2597 C2593 1.400 . S
C2597 C2596 1.385 . S
C2598 C2596 1.478 . S
C2598 C2600 1.381 . S
C2598 C2604 1.383 1_565 S
C2599 C2595 1.495 1_545 S
C2599 H2605 0.959 . S
C2599 H2606 0.961 . S
C2599 H2607 0.960 1_545 S
C2600 C2598 1.381 . S
C2600 C2601 1.394 . S
C2600 H2608 0.930 . S
C2601 C2600 1.394 . S
C2601 C2602 1.435 . S
C2601 H2609 0.929 . S
C2602 C2601 1.435 . S
C2602 C2603 1.363 1_565 S
C2603 H2587 0.930 . S
C2603 C2602 1.363 1_545 S
C2603 C2604 1.379 . S
C2604 H2588 0.931 . S
C2604 C2598 1.383 1_545 S
C2604 C2603 1.379 . S
H2605 C2599 0.959 . S
H2606 C2599 0.961 . S
H2607 C2599 0.960 1_565 S
H2608 C2600 0.930 . S
H2609 C2601 0.929 . S
H2610 C2618 0.929 . S
H2611 C2620 0.930 . S
H2612 C2622 0.930 . S
H2613 C2625 0.929 . S
H2614 C2628 0.930 . S
H2615 C2630 0.960 . S
H2616 C2630 0.960 . S
H2617 C2630 0.960 . S
C2618 H2610 0.929 . S
C2618 C2619 1.377 1_655 S
C2618 C2620 1.384 . S
C2619 C2618 1.377 1_455 S
C2619 C2625 1.390 . S
C2620 H2611 0.930 . S
C2620 C2618 1.384 . S
C2620 C2621 1.372 1_655 S
C2621 C2620 1.372 1_455 S
C2621 C2622 1.400 . S
C2621 C2626 1.490 . S
C2622 H2612 0.930 . S
C2622 C2621 1.400 . S
C2622 C2625 1.386 . S
H2623 C2639 0.930 . S
H2624 C2640 0.931 . S
C2625 H2613 0.929 . S
C2625 C2619 1.390 . S
C2625 C2622 1.386 . S
C2626 C2621 1.490 . S
C2626 C2628 1.395 1_455 S
C2626 C2629 1.403 . S
H2627 C2633 0.930 . S
C2628 H2614 0.930 . S
C2628 C2626 1.395 1_655 S
C2628 C2631 1.403 . S
C2629 C2626 1.403 . S
C2629 C2630 1.524 . S
C2629 C2633 1.400 . S
C2630 H2615 0.960 . S
C2630 H2616 0.960 . S
C2630 H2617 0.960 . S
C2630 C2629 1.524 . S
C2631 C2628 1.403 . S
C2631 C2632 1.392 1_655 S
C2631 C2635 1.495 . S
C2632 C2631 1.392 1_455 S
C2632 C2633 1.385 . S
C2632 C2634 1.478 . S
C2633 H2627 0.930 . S
C2633 C2629 1.400 . S
C2633 C2632 1.385 . S
C2634 C2632 1.478 . S
C2634 C2636 1.381 1_455 S
C2634 C2640 1.383 . S
C2635 C2631 1.495 . S
C2635 H2641 0.959 . S
C2635 H2642 0.961 . S
C2635 H2643 0.960 . S
C2636 C2634 1.381 1_655 S
C2636 C2637 1.394 . S
C2636 H2644 0.930 . S
C2637 C2636 1.394 . S
C2637 C2638 1.371 1_655 S
C2637 H2645 0.929 . S
C2638 C2637 1.371 1_455 S
C2638 C2639 1.383 . S
C2639 H2623 0.930 . S
C2639 C2638 1.383 . S
C2639 C2640 1.379 . S
C2640 H2624 0.931 . S
C2640 C2634 1.383 . S
C2640 C2639 1.379 . S
H2641 C2635 0.959 . S
H2642 C2635 0.961 . S
H2643 C2635 0.960 . S
H2644 C2636 0.930 . S
H2645 C2637 0.929 . S
H2646 C2654 0.929 . S
H2647 C2656 0.930 . S
H2648 C2658 0.930 . S
H2649 C2661 0.929 . S
H2650 C2664 0.930 . S
H2651 C2666 0.960 . S
H2652 C2666 0.960 . S
H2653 C2666 0.960 . S
C2654 H2646 0.929 . S
C2654 C2655 1.377 . S
C2654 C2656 1.384 . S
C2655 C2654 1.377 . S
C2655 C2661 1.390 . S
C2656 H2647 0.930 . S
C2656 C2654 1.384 . S
C2656 C2657 1.372 . S
C2657 C2656 1.372 . S
C2657 C2658 1.400 . S
C2657 C2662 1.490 . S
C2658 H2648 0.930 . S
C2658 C2657 1.400 . S
C2658 C2661 1.386 . S
H2659 C2675 0.930 . S
H2660 C2676 0.931 . S
C2661 H2649 0.929 . S
C2661 C2655 1.390 . S
C2661 C2658 1.386 . S
C2662 C2657 1.490 . S
C2662 C2664 1.395 . S
C2662 C2665 1.403 . S
H2663 C2669 0.930 . S
C2664 H2650 0.930 . S
C2664 C2662 1.395 . S
C2664 C2667 1.403 . S
C2665 C2662 1.403 . S
C2665 C2666 1.524 . S
C2665 C2669 1.400 . S
C2666 H2651 0.960 . S
C2666 H2652 0.960 . S
C2666 H2653 0.960 . S
C2666 C2665 1.524 . S
C2667 C2664 1.403 . S
C2667 C2668 1.392 . S
C2667 C2671 1.495 . S
C2668 C2667 1.392 . S
C2668 C2669 1.385 . S
C2668 C2670 1.478 . S
C2669 H2663 0.930 . S
C2669 C2665 1.400 . S
C2669 C2668 1.385 . S
C2670 C2668 1.478 . S
C2670 C2672 1.381 . S
C2670 C2676 1.383 . S
C2671 C2667 1.495 . S
C2671 H2677 0.959 . S
C2671 H2678 0.961 . S
C2671 H2679 0.960 . S
C2672 C2670 1.381 . S
C2672 C2673 1.394 . S
C2672 H2680 0.930 . S
C2673 C2672 1.394 . S
C2673 C2674 1.383 . S
C2673 H2681 0.929 . S
C2674 C2673 1.383 . S
C2674 C2675 1.377 . S
C2675 H2659 0.930 . S
C2675 C2674 1.377 . S
C2675 C2676 1.379 . S
C2676 H2660 0.931 . S
C2676 C2670 1.383 . S
C2676 C2675 1.379 . S
H2677 C2671 0.959 . S
H2678 C2671 0.961 . S
H2679 C2671 0.960 . S
H2680 C2672 0.930 . S
H2681 C2673 0.929 . S
H2682 C2690 0.929 . S
H2683 C2692 0.930 . S
H2684 C2694 0.930 . S
H2685 C2697 0.929 . S
H2686 C2700 0.930 . S
H2687 C2702 0.960 . S
H2688 C2702 0.960 . S
H2689 C2702 0.960 . S
C2690 H2682 0.929 . S
C2690 C2691 1.377 . S
C2690 C2692 1.384 . S
C2691 C2690 1.377 . S
C2691 C2697 1.390 . S
C2692 H2683 0.930 . S
C2692 C2690 1.384 . S
C2692 C2693 1.372 . S
C2693 C2692 1.372 . S
C2693 C2694 1.400 . S
C2693 C2698 1.490 . S
C2694 H2684 0.930 . S
C2694 C2693 1.400 . S
C2694 C2697 1.386 . S
H2695 C2711 0.930 . S
H2696 C2712 0.931 . S
C2697 H2685 0.929 . S
C2697 C2691 1.390 . S
C2697 C2694 1.386 . S
C2698 C2693 1.490 . S
C2698 C2700 1.395 . S
C2698 C2701 1.403 . S
H2699 C2705 0.930 . S
C2700 H2686 0.930 . S
C2700 C2698 1.395 . S
C2700 C2703 1.403 . S
C2701 C2698 1.403 . S
C2701 C2702 1.524 . S
C2701 C2705 1.400 . S
C2702 H2687 0.960 . S
C2702 H2688 0.960 . S
C2702 H2689 0.960 . S
C2702 C2701 1.524 . S
C2703 C2700 1.403 . S
C2703 C2704 1.392 . S
C2703 C2707 1.495 . S
C2704 C2703 1.392 . S
C2704 C2705 1.385 . S
C2704 C2706 1.478 . S
C2705 H2699 0.930 . S
C2705 C2701 1.400 . S
C2705 C2704 1.385 . S
C2706 C2704 1.478 . S
C2706 C2708 1.381 . S
C2706 C2712 1.383 . S
C2707 C2703 1.495 . S
C2707 H2713 0.959 . S
C2707 H2714 0.961 . S
C2707 H2715 0.960 . S
C2708 C2706 1.381 . S
C2708 C2709 1.394 . S
C2708 H2716 0.930 . S
C2709 C2708 1.394 . S
C2709 C2710 1.383 . S
C2709 H2717 0.929 . S
C2710 C2709 1.383 . S
C2710 C2711 1.377 . S
C2711 H2695 0.930 . S
C2711 C2710 1.377 . S
C2711 C2712 1.379 . S
C2712 H2696 0.931 . S
C2712 C2706 1.383 . S
C2712 C2711 1.379 . S
H2713 C2707 0.959 . S
H2714 C2707 0.961 . S
H2715 C2707 0.960 . S
H2716 C2708 0.930 . S
H2717 C2709 0.929 . S
H2718 C2726 0.929 . S
H2719 C2728 0.930 . S
H2720 C2730 0.930 . S
H2721 C2733 0.929 . S
H2722 C2736 0.930 . S
H2723 C2738 0.960 . S
H2724 C2738 0.960 . S
H2725 C2738 0.960 . S
C2726 H2718 0.929 . S
C2726 C2727 1.377 . S
C2726 C2728 1.384 . S
C2727 C2726 1.377 . S
C2727 C2733 1.390 . S
C2728 H2719 0.930 . S
C2728 C2726 1.384 . S
C2728 C2729 1.372 . S
C2729 C2728 1.372 . S
C2729 C2730 1.400 . S
C2729 C2734 1.490 . S
C2730 H2720 0.930 . S
C2730 C2729 1.400 . S
C2730 C2733 1.386 . S
H2731 C2747 0.930 . S
H2732 C2748 0.931 . S
C2733 H2721 0.929 . S
C2733 C2727 1.390 . S
C2733 C2730 1.386 . S
C2734 C2729 1.490 . S
C2734 C2736 1.395 . S
C2734 C2737 1.403 . S
H2735 C2741 0.930 . S
C2736 H2722 0.930 . S
C2736 C2734 1.395 . S
C2736 C2739 1.403 . S
C2737 C2734 1.403 . S
C2737 C2738 1.524 . S
C2737 C2741 1.400 . S
C2738 H2723 0.960 . S
C2738 H2724 0.960 . S
C2738 H2725 0.960 . S
C2738 C2737 1.524 . S
C2739 C2736 1.403 . S
C2739 C2740 1.392 . S
C2739 C2743 1.495 . S
C2740 C2739 1.392 . S
C2740 C2741 1.385 . S
C2740 C2742 1.478 . S
C2741 H2735 0.930 . S
C2741 C2737 1.400 . S
C2741 C2740 1.385 . S
C2742 C2740 1.478 . S
C2742 C2744 1.381 . S
C2742 C2748 1.383 . S
C2743 C2739 1.495 . S
C2743 H2749 0.959 . S
C2743 H2750 0.961 . S
C2743 H2751 0.960 . S
C2744 C2742 1.381 . S
C2744 C2745 1.394 . S
C2744 H2752 0.930 . S
C2745 C2744 1.394 . S
C2745 C2746 1.383 . S
C2745 H2753 0.929 . S
C2746 C2745 1.383 . S
C2746 C2747 1.377 . S
C2747 H2731 0.930 . S
C2747 C2746 1.377 . S
C2747 C2748 1.379 . S
C2748 H2732 0.931 . S
C2748 C2742 1.383 . S
C2748 C2747 1.379 . S
H2749 C2743 0.959 . S
H2750 C2743 0.961 . S
H2751 C2743 0.960 . S
H2752 C2744 0.930 . S
H2753 C2745 0.929 . S
H2754 C2762 0.929 . S
H2755 C2764 0.930 . S
H2756 C2766 0.930 . S
H2757 C2769 0.929 . S
H2758 C2772 0.930 . S
H2759 C2774 0.960 . S
H2760 C2774 0.960 . S
H2761 C2774 0.960 . S
C2762 H2754 0.929 . S
C2762 C2763 1.377 . S
C2762 C2764 1.384 . S
C2763 C2762 1.377 . S
C2763 C2769 1.390 . S
C2764 H2755 0.930 . S
C2764 C2762 1.384 . S
C2764 C2765 1.372 . S
C2765 C2764 1.372 . S
C2765 C2766 1.400 . S
C2765 C2770 1.490 . S
C2766 H2756 0.930 . S
C2766 C2765 1.400 . S
C2766 C2769 1.386 . S
H2767 C2783 0.930 . S
H2768 C2784 0.931 . S
C2769 H2757 0.929 . S
C2769 C2763 1.390 . S
C2769 C2766 1.386 . S
C2770 C2765 1.490 . S
C2770 C2772 1.395 . S
C2770 C2773 1.403 . S
H2771 C2777 0.930 . S
C2772 H2758 0.930 . S
C2772 C2770 1.395 . S
C2772 C2775 1.403 . S
C2773 C2770 1.403 . S
C2773 C2774 1.524 . S
C2773 C2777 1.400 . S
C2774 H2759 0.960 . S
C2774 H2760 0.960 . S
C2774 H2761 0.960 . S
C2774 C2773 1.524 . S
C2775 C2772 1.403 . S
C2775 C2776 1.392 . S
C2775 C2779 1.495 . S
C2776 C2775 1.392 . S
C2776 C2777 1.385 . S
C2776 C2778 1.478 . S
C2777 H2771 0.930 . S
C2777 C2773 1.400 . S
C2777 C2776 1.385 . S
C2778 C2776 1.478 . S
C2778 C2780 1.381 . S
C2778 C2784 1.383 . S
C2779 C2775 1.495 . S
C2779 H2785 0.959 . S
C2779 H2786 0.961 . S
C2779 H2787 0.960 . S
C2780 C2778 1.381 . S
C2780 C2781 1.394 . S
C2780 H2788 0.930 . S
C2781 C2780 1.394 . S
C2781 C2782 1.383 . S
C2781 H2789 0.929 . S
C2782 C2781 1.383 . S
C2782 C2783 1.377 . S
C2783 H2767 0.930 . S
C2783 C2782 1.377 . S
C2783 C2784 1.379 . S
C2784 H2768 0.931 . S
C2784 C2778 1.383 . S
C2784 C2783 1.379 . S
H2785 C2779 0.959 . S
H2786 C2779 0.961 . S
H2787 C2779 0.960 . S
H2788 C2780 0.930 . S
H2789 C2781 0.929 . S
H2790 C2798 0.929 . S
H2791 C2800 0.930 . S
H2792 C2802 0.930 1_565 S
H2793 C2805 0.929 1_565 S
H2794 C2808 0.915 . S
H2795 C2810 0.960 . S
H2796 C2810 0.960 . S
H2797 C2810 0.960 . S
C2798 H2790 0.929 . S
C2798 C2799 1.377 . S
C2798 C2800 1.384 . S
C2799 C2798 1.377 . S
C2799 C2805 1.390 . S
C2800 H2791 0.930 . S
C2800 C2798 1.384 . S
C2800 C2801 1.372 . S
C2801 C2800 1.372 . S
C2801 C2802 1.400 . S
C2801 C2806 1.490 . S
C2802 H2792 0.930 1_545 S
C2802 C2801 1.400 . S
C2802 C2805 1.386 . S
H2803 C2819 0.930 . S
H2804 C2820 0.931 . S
C2805 H2793 0.929 1_545 S
C2805 C2799 1.390 . S
C2805 C2802 1.386 . S
C2806 C2801 1.490 . S
C2806 C2808 1.395 . S
C2806 C2809 1.403 . S
H2807 C2813 0.930 . S
C2808 H2794 0.915 . S
C2808 C2806 1.395 . S
C2808 C2811 1.403 . S
C2809 C2806 1.403 . S
C2809 C2810 1.524 . S
C2809 C2813 1.400 . S
C2810 H2795 0.960 . S
C2810 H2796 0.960 . S
C2810 H2797 0.960 . S
C2810 C2809 1.524 . S
C2811 C2808 1.403 . S
C2811 C2812 1.392 . S
C2811 C2815 1.495 1_545 S
C2812 C2811 1.392 . S
C2812 C2813 1.385 . S
C2812 C2814 1.478 . S
C2813 H2807 0.930 . S
C2813 C2809 1.400 . S
C2813 C2812 1.385 . S
C2814 C2812 1.478 . S
C2814 C2816 1.381 . S
C2814 C2820 1.383 1_545 S
C2815 C2811 1.495 1_565 S
C2815 H2821 0.959 . S
C2815 H2822 0.961 . S
C2815 H2823 0.960 1_565 S
C2816 C2814 1.381 . S
C2816 C2817 1.394 . S
C2816 H2824 0.930 . S
C2817 C2816 1.394 . S
C2817 C2818 1.383 . S
C2817 H2825 0.929 . S
C2818 C2817 1.383 . S
C2818 C2819 1.377 1_545 S
C2819 H2803 0.930 . S
C2819 C2818 1.377 1_565 S
C2819 C2820 1.379 . S
C2820 H2804 0.931 . S
C2820 C2814 1.383 1_565 S
C2820 C2819 1.379 . S
H2821 C2815 0.959 . S
H2822 C2815 0.961 . S
H2823 C2815 0.960 1_545 S
H2824 C2816 0.930 . S
H2825 C2817 0.929 . S
H2826 C2834 0.929 . S
H2827 C2836 0.930 . S
H2828 C2838 0.914 1_455 S
H2829 C2841 0.959 . S
H2830 C2844 0.930 . S
H2831 C2846 0.960 . S
H2832 C2846 0.960 . S
H2833 C2846 0.960 . S
C2834 H2826 0.929 . S
C2834 C2835 1.377 . S
C2834 C2836 1.384 . S
C2835 C2834 1.377 . S
C2835 C2841 1.390 . S
C2836 H2827 0.930 . S
C2836 C2834 1.384 . S
C2836 C2837 1.372 . S
C2837 C2836 1.372 . S
C2837 C2838 1.400 . S
C2837 C2842 1.490 . S
C2838 H2828 0.914 1_655 S
C2838 C2837 1.400 . S
C2838 C2841 1.386 . S
H2839 C2855 0.930 1_455 S
H2840 C2856 0.931 . S
C2841 H2829 0.959 . S
C2841 C2835 1.390 . S
C2841 C2838 1.386 . S
C2842 C2837 1.490 . S
C2842 C2844 1.395 . S
C2842 C2845 1.403 1_655 S
H2843 C2849 0.930 . S
C2844 H2830 0.930 . S
C2844 C2842 1.395 . S
C2844 C2847 1.403 . S
C2845 C2842 1.403 1_455 S
C2845 C2846 1.524 . S
C2845 C2849 1.400 . S
C2846 H2831 0.960 . S
C2846 H2832 0.960 . S
C2846 H2833 0.960 . S
C2846 C2845 1.524 . S
C2847 C2844 1.403 . S
C2847 C2848 1.392 . S
C2847 C2851 1.495 . S
C2848 C2847 1.392 . S
C2848 C2849 1.385 1_655 S
C2848 C2850 1.478 . S
C2849 H2843 0.930 . S
C2849 C2845 1.400 . S
C2849 C2848 1.385 1_455 S
C2850 C2848 1.478 . S
C2850 C2852 1.381 . S
C2850 C2856 1.383 . S
C2851 C2847 1.495 . S
C2851 H2857 0.959 . S
C2851 H2858 0.961 . S
C2851 H2859 0.960 . S
C2852 C2850 1.381 . S
C2852 C2853 1.394 . S
C2852 H2860 0.930 . S
C2853 C2852 1.394 . S
C2853 C2854 1.383 . S
C2853 H2861 0.929 . S
C2854 C2853 1.383 . S
C2854 C2855 1.377 . S
C2855 H2839 0.930 1_655 S
C2855 C2854 1.377 . S
C2855 C2856 1.379 . S
C2856 H2840 0.931 . S
C2856 C2850 1.383 . S
C2856 C2855 1.379 . S
H2857 C2851 0.959 . S
H2858 C2851 0.961 . S
H2859 C2851 0.960 . S
H2860 C2852 0.930 . S
H2861 C2853 0.929 . S
H2862 C2870 0.929 . S
H2863 C2872 0.930 . S
H2864 C2874 0.930 . S
H2865 C2877 0.929 . S
H2866 C2880 0.930 . S
H2867 C2882 0.960 . S
H2868 C2882 0.960 . S
H2869 C2882 0.960 . S
C2870 H2862 0.929 . S
C2870 C2871 1.377 . S
C2870 C2872 1.384 . S
C2871 C2870 1.377 . S
C2871 C2877 1.390 . S
C2872 H2863 0.930 . S
C2872 C2870 1.384 . S
C2872 C2873 1.372 . S
C2873 C2872 1.372 . S
C2873 C2874 1.400 . S
C2873 C2878 1.490 . S
C2874 H2864 0.930 . S
C2874 C2873 1.400 . S
C2874 C2877 1.386 . S
H2875 C2891 0.930 . S
H2876 C2892 0.931 . S
C2877 H2865 0.929 . S
C2877 C2871 1.390 . S
C2877 C2874 1.386 . S
C2878 C2873 1.490 . S
C2878 C2880 1.395 . S
C2878 C2881 1.403 . S
H2879 C2885 0.930 . S
C2880 H2866 0.930 . S
C2880 C2878 1.395 . S
C2880 C2883 1.403 . S
C2881 C2878 1.403 . S
C2881 C2882 1.524 . S
C2881 C2885 1.400 . S
C2882 H2867 0.960 . S
C2882 H2868 0.960 . S
C2882 H2869 0.960 . S
C2882 C2881 1.524 . S
C2883 C2880 1.403 . S
C2883 C2884 1.392 . S
C2883 C2887 1.495 . S
C2884 C2883 1.392 . S
C2884 C2885 1.385 . S
C2884 C2886 1.478 . S
C2885 H2879 0.930 . S
C2885 C2881 1.400 . S
C2885 C2884 1.385 . S
C2886 C2884 1.478 . S
C2886 C2888 1.381 . S
C2886 C2892 1.383 . S
C2887 C2883 1.495 . S
C2887 H2893 0.959 . S
C2887 H2894 0.961 . S
C2887 H2895 0.960 . S
C2888 C2886 1.381 . S
C2888 C2889 1.394 . S
C2888 H2896 0.930 . S
C2889 C2888 1.394 . S
C2889 C2890 1.383 . S
C2889 H2897 0.929 . S
C2890 C2889 1.383 . S
C2890 C2891 1.377 . S
C2891 H2875 0.930 . S
C2891 C2890 1.377 . S
C2891 C2892 1.379 . S
C2892 H2876 0.931 . S
C2892 C2886 1.383 . S
C2892 C2891 1.379 . S
H2893 C2887 0.959 . S
H2894 C2887 0.961 . S
H2895 C2887 0.960 . S
H2896 C2888 0.930 . S
H2897 C2889 0.929 . S
H2898 C2906 0.929 . S
H2899 C2908 0.930 . S
H2900 C2910 0.930 . S
H2901 C2913 0.929 . S
H2902 C2916 0.930 . S
H2903 C2918 0.960 . S
H2904 C2918 0.960 . S
H2905 C2918 0.960 . S
C2906 H2898 0.929 . S
C2906 C2907 1.377 . S
C2906 C2908 1.384 . S
C2907 C2906 1.377 . S
C2907 C2913 1.390 . S
C2908 H2899 0.930 . S
C2908 C2906 1.384 . S
C2908 C2909 1.372 . S
C2909 C2908 1.372 . S
C2909 C2910 1.400 . S
C2909 C2914 1.490 . S
C2910 H2900 0.930 . S
C2910 C2909 1.400 . S
C2910 C2913 1.386 . S
H2911 C2927 0.930 . S
H2912 C2928 0.931 . S
C2913 H2901 0.929 . S
C2913 C2907 1.390 . S
C2913 C2910 1.386 . S
C2914 C2909 1.490 . S
C2914 C2916 1.395 . S
C2914 C2917 1.403 . S
H2915 C2921 0.930 . S
C2916 H2902 0.930 . S
C2916 C2914 1.395 . S
C2916 C2919 1.403 . S
C2917 C2914 1.403 . S
C2917 C2918 1.524 . S
C2917 C2921 1.400 . S
C2918 H2903 0.960 . S
C2918 H2904 0.960 . S
C2918 H2905 0.960 . S
C2918 C2917 1.524 . S
C2919 C2916 1.403 . S
C2919 C2920 1.392 . S
C2919 C2923 1.495 . S
C2920 C2919 1.392 . S
C2920 C2921 1.385 . S
C2920 C2922 1.478 . S
C2921 H2915 0.930 . S
C2921 C2917 1.400 . S
C2921 C2920 1.385 . S
C2922 C2920 1.478 . S
C2922 C2924 1.381 . S
C2922 C2928 1.383 . S
C2923 C2919 1.495 . S
C2923 H2929 0.959 . S
C2923 H2930 0.961 . S
C2923 H2931 0.960 . S
C2924 C2922 1.381 . S
C2924 C2925 1.394 . S
C2924 H2932 0.930 . S
C2925 C2924 1.394 . S
C2925 C2926 1.383 . S
C2925 H2933 0.929 . S
C2926 C2925 1.383 . S
C2926 C2927 1.377 . S
C2927 H2911 0.930 . S
C2927 C2926 1.377 . S
C2927 C2928 1.379 . S
C2928 H2912 0.931 . S
C2928 C2922 1.383 . S
C2928 C2927 1.379 . S
H2929 C2923 0.959 . S
H2930 C2923 0.961 . S
H2931 C2923 0.960 . S
H2932 C2924 0.930 . S
H2933 C2925 0.929 . S
H2934 C2942 0.929 . S
H2935 C2944 0.930 . S
H2936 C2946 0.930 . S
H2937 C2949 0.929 . S
H2938 C2952 0.930 . S
H2939 C2954 0.960 . S
H2940 C2954 0.960 . S
H2941 C2954 0.960 . S
C2942 H2934 0.929 . S
C2942 C2943 1.377 . S
C2942 C2944 1.384 . S
C2943 C2942 1.377 . S
C2943 C2949 1.390 . S
C2944 H2935 0.930 . S
C2944 C2942 1.384 . S
C2944 C2945 1.372 . S
C2945 C2944 1.372 . S
C2945 C2946 1.400 . S
C2945 C2950 1.490 . S
C2946 H2936 0.930 . S
C2946 C2945 1.400 . S
C2946 C2949 1.386 . S
H2947 C2963 0.930 . S
H2948 C2964 0.931 . S
C2949 H2937 0.929 . S
C2949 C2943 1.390 . S
C2949 C2946 1.386 . S
C2950 C2945 1.490 . S
C2950 C2952 1.395 . S
C2950 C2953 1.403 . S
H2951 C2957 0.930 . S
C2952 H2938 0.930 . S
C2952 C2950 1.395 . S
C2952 C2955 1.403 . S
C2953 C2950 1.403 . S
C2953 C2954 1.524 . S
C2953 C2957 1.400 . S
C2954 H2939 0.960 . S
C2954 H2940 0.960 . S
C2954 H2941 0.960 . S
C2954 C2953 1.524 . S
C2955 C2952 1.403 . S
C2955 C2956 1.392 . S
C2955 C2959 1.495 . S
C2956 C2955 1.392 . S
C2956 C2957 1.385 . S
C2956 C2958 1.478 . S
C2957 H2951 0.930 . S
C2957 C2953 1.400 . S
C2957 C2956 1.385 . S
C2958 C2956 1.478 . S
C2958 C2960 1.381 . S
C2958 C2964 1.383 . S
C2959 C2955 1.495 . S
C2959 H2965 0.959 . S
C2959 H2966 0.961 . S
C2959 H2967 0.960 . S
C2960 C2958 1.381 . S
C2960 C2961 1.394 . S
C2960 H2968 0.930 . S
C2961 C2960 1.394 . S
C2961 C2962 1.383 . S
C2961 H2969 0.929 . S
C2962 C2961 1.383 . S
C2962 C2963 1.377 . S
C2963 H2947 0.930 . S
C2963 C2962 1.377 . S
C2963 C2964 1.379 . S
C2964 H2948 0.931 . S
C2964 C2958 1.383 . S
C2964 C2963 1.379 . S
H2965 C2959 0.959 . S
H2966 C2959 0.961 . S
H2967 C2959 0.960 . S
H2968 C2960 0.930 . S
H2969 C2961 0.929 . S
H2970 C2978 0.929 . S
H2971 C2980 0.930 . S
H2972 C2982 0.930 . S
H2973 C2985 0.929 . S
H2974 C2988 0.930 . S
H2975 C2990 0.960 . S
H2976 C2990 0.960 . S
H2977 C2990 0.960 . S
C2978 H2970 0.929 . S
C2978 C2979 1.377 . S
C2978 C2980 1.384 . S
C2979 C2978 1.377 . S
C2979 C2985 1.390 . S
C2980 H2971 0.930 . S
C2980 C2978 1.384 . S
C2980 C2981 1.372 . S
C2981 C2980 1.372 . S
C2981 C2982 1.400 . S
C2981 C2986 1.490 . S
C2982 H2972 0.930 . S
C2982 C2981 1.400 . S
C2982 C2985 1.386 . S
H2983 C2999 0.930 . S
H2984 C3000 0.931 . S
C2985 H2973 0.929 . S
C2985 C2979 1.390 . S
C2985 C2982 1.386 . S
C2986 C2981 1.490 . S
C2986 C2988 1.395 . S
C2986 C2989 1.403 . S
H2987 C2993 0.930 . S
C2988 H2974 0.930 . S
C2988 C2986 1.395 . S
C2988 C2991 1.403 . S
C2989 C2986 1.403 . S
C2989 C2990 1.524 . S
C2989 C2993 1.400 . S
C2990 H2975 0.960 . S
C2990 H2976 0.960 . S
C2990 H2977 0.960 . S
C2990 C2989 1.524 . S
C2991 C2988 1.403 . S
C2991 C2992 1.392 . S
C2991 C2995 1.495 . S
C2992 C2991 1.392 . S
C2992 C2993 1.385 . S
C2992 C2994 1.478 . S
C2993 H2987 0.930 . S
C2993 C2989 1.400 . S
C2993 C2992 1.385 . S
C2994 C2992 1.478 . S
C2994 C2996 1.381 . S
C2994 C3000 1.383 . S
C2995 C2991 1.495 . S
C2995 H3001 0.959 . S
C2995 H3002 0.961 . S
C2995 H3003 0.960 . S
C2996 C2994 1.381 . S
C2996 C2997 1.394 . S
C2996 H3004 0.930 . S
C2997 C2996 1.394 . S
C2997 C2998 1.383 . S
C2997 H3005 0.929 . S
C2998 C2997 1.383 . S
C2998 C2999 1.377 . S
C2999 H2983 0.930 . S
C2999 C2998 1.377 . S
C2999 C3000 1.379 . S
C3000 H2984 0.931 . S
C3000 C2994 1.383 . S
C3000 C2999 1.379 . S
H3001 C2995 0.959 . S
H3002 C2995 0.961 . S
H3003 C2995 0.960 . S
H3004 C2996 0.930 . S
H3005 C2997 0.929 . S
H3006 C3014 0.929 . S
H3007 C3016 0.930 . S
H3008 C3018 0.930 . S
H3009 C3021 0.929 . S
H3010 C3024 0.930 . S
H3011 C3026 0.960 . S
H3012 C3026 0.960 . S
H3013 C3026 0.960 . S
C3014 H3006 0.929 . S
C3014 C3015 1.377 . S
C3014 C3016 1.384 . S
C3015 C3014 1.377 . S
C3015 C3021 1.390 . S
C3016 H3007 0.930 . S
C3016 C3014 1.384 . S
C3016 C3017 1.372 . S
C3017 C3016 1.372 . S
C3017 C3018 1.400 . S
C3017 C3022 1.490 . S
C3018 H3008 0.930 . S
C3018 C3017 1.400 . S
C3018 C3021 1.386 . S
H3019 C3035 0.930 . S
H3020 C3036 0.931 . S
C3021 H3009 0.929 . S
C3021 C3015 1.390 . S
C3021 C3018 1.386 . S
C3022 C3017 1.490 . S
C3022 C3024 1.395 . S
C3022 C3025 1.403 . S
H3023 C3029 0.930 . S
C3024 H3010 0.930 . S
C3024 C3022 1.395 . S
C3024 C3027 1.403 . S
C3025 C3022 1.403 . S
C3025 C3026 1.524 . S
C3025 C3029 1.400 . S
C3026 H3011 0.960 . S
C3026 H3012 0.960 . S
C3026 H3013 0.960 . S
C3026 C3025 1.524 . S
C3027 C3024 1.403 . S
C3027 C3028 1.392 . S
C3027 C3031 1.495 . S
C3028 C3027 1.392 . S
C3028 C3029 1.385 . S
C3028 C3030 1.478 . S
C3029 H3023 0.930 . S
C3029 C3025 1.400 . S
C3029 C3028 1.385 . S
C3030 C3028 1.478 . S
C3030 C3032 1.381 . S
C3030 C3036 1.383 . S
C3031 C3027 1.495 . S
C3031 H3037 0.959 . S
C3031 H3038 0.961 . S
C3031 H3039 0.960 . S
C3032 C3030 1.381 . S
C3032 C3033 1.394 . S
C3032 H3040 0.930 . S
C3033 C3032 1.394 . S
C3033 C3034 1.383 . S
C3033 H3041 0.929 . S
C3034 C3033 1.383 . S
C3034 C3035 1.377 . S
C3035 H3019 0.930 . S
C3035 C3034 1.377 . S
C3035 C3036 1.379 . S
C3036 H3020 0.931 . S
C3036 C3030 1.383 . S
C3036 C3035 1.379 . S
H3037 C3031 0.959 . S
H3038 C3031 0.961 . S
H3039 C3031 0.960 . S
H3040 C3032 0.930 . S
H3041 C3033 0.929 . S
H3042 C3050 0.929 . S
H3043 C3052 0.930 . S
H3044 C3054 0.930 . S
H3045 C3057 0.929 . S
H3046 C3060 0.930 . S
H3047 C3062 0.960 . S
H3048 C3062 0.960 . S
H3049 C3062 0.960 . S
C3050 H3042 0.929 . S
C3050 C3051 1.377 . S
C3050 C3052 1.384 . S
C3051 C3050 1.377 . S
C3051 C3057 1.390 . S
C3052 H3043 0.930 . S
C3052 C3050 1.384 . S
C3052 C3053 1.372 . S
C3053 C3052 1.372 . S
C3053 C3054 1.400 . S
C3053 C3058 1.490 . S
C3054 H3044 0.930 . S
C3054 C3053 1.400 . S
C3054 C3057 1.386 . S
H3055 C3071 0.930 . S
H3056 C3072 0.931 . S
C3057 H3045 0.929 . S
C3057 C3051 1.390 . S
C3057 C3054 1.386 . S
C3058 C3053 1.490 . S
C3058 C3060 1.395 . S
C3058 C3061 1.403 . S
H3059 C3065 0.930 . S
C3060 H3046 0.930 . S
C3060 C3058 1.395 . S
C3060 C3063 1.403 . S
C3061 C3058 1.403 . S
C3061 C3062 1.524 . S
C3061 C3065 1.400 . S
C3062 H3047 0.960 . S
C3062 H3048 0.960 . S
C3062 H3049 0.960 . S
C3062 C3061 1.524 . S
C3063 C3060 1.403 . S
C3063 C3064 1.392 . S
C3063 C3067 1.495 . S
C3064 C3063 1.392 . S
C3064 C3065 1.385 . S
C3064 C3066 1.478 . S
C3065 H3059 0.930 . S
C3065 C3061 1.400 . S
C3065 C3064 1.385 . S
C3066 C3064 1.478 . S
C3066 C3068 1.381 . S
C3066 C3072 1.383 . S
C3067 C3063 1.495 . S
C3067 H3073 0.959 . S
C3067 H3074 0.961 . S
C3067 H3075 0.960 . S
C3068 C3066 1.381 . S
C3068 C3069 1.394 . S
C3068 H3076 0.930 . S
C3069 C3068 1.394 . S
C3069 C3070 1.383 . S
C3069 H3077 0.929 . S
C3070 C3069 1.383 . S
C3070 C3071 1.377 . S
C3071 H3055 0.930 . S
C3071 C3070 1.377 . S
C3071 C3072 1.379 . S
C3072 H3056 0.931 . S
C3072 C3066 1.383 . S
C3072 C3071 1.379 . S
H3073 C3067 0.959 . S
H3074 C3067 0.961 . S
H3075 C3067 0.960 . S
H3076 C3068 0.930 . S
H3077 C3069 0.929 . S
H3078 C3086 0.929 . S
H3079 C3088 0.930 . S
H3080 C3090 0.930 . S
H3081 C3093 0.929 . S
H3082 C3096 0.930 . S
H3083 C3098 0.960 . S
H3084 C3098 0.960 . S
H3085 C3098 0.960 . S
C3086 H3078 0.929 . S
C3086 C3087 1.377 . S
C3086 C3088 1.384 . S
C3087 C3086 1.377 . S
C3087 C3093 1.390 . S
C3088 H3079 0.930 . S
C3088 C3086 1.384 . S
C3088 C3089 1.372 . S
C3089 C3088 1.372 . S
C3089 C3090 1.400 . S
C3089 C3094 1.490 . S
C3090 H3080 0.930 . S
C3090 C3089 1.400 . S
C3090 C3093 1.386 . S
H3091 C3107 0.930 . S
H3092 C3108 0.931 . S
C3093 H3081 0.929 . S
C3093 C3087 1.390 . S
C3093 C3090 1.386 . S
C3094 C3089 1.490 . S
C3094 C3096 1.395 . S
C3094 C3097 1.403 . S
H3095 C3101 0.930 . S
C3096 H3082 0.930 . S
C3096 C3094 1.395 . S
C3096 C3099 1.403 . S
C3097 C3094 1.403 . S
C3097 C3098 1.524 . S
C3097 C3101 1.400 . S
C3098 H3083 0.960 . S
C3098 H3084 0.960 . S
C3098 H3085 0.960 . S
C3098 C3097 1.524 . S
C3099 C3096 1.403 . S
C3099 C3100 1.392 . S
C3099 C3103 1.495 . S
C3100 C3099 1.392 . S
C3100 C3101 1.385 . S
C3100 C3102 1.478 . S
C3101 H3095 0.930 . S
C3101 C3097 1.400 . S
C3101 C3100 1.385 . S
C3102 C3100 1.478 . S
C3102 C3104 1.381 . S
C3102 C3108 1.383 . S
C3103 C3099 1.495 . S
C3103 H3109 0.959 . S
C3103 H3110 0.961 . S
C3103 H3111 0.960 . S
C3104 C3102 1.381 . S
C3104 C3105 1.394 . S
C3104 H3112 0.930 . S
C3105 C3104 1.394 . S
C3105 C3106 1.383 . S
C3105 H3113 0.929 . S
C3106 C3105 1.383 . S
C3106 C3107 1.377 . S
C3107 H3091 0.930 . S
C3107 C3106 1.377 . S
C3107 C3108 1.379 . S
C3108 H3092 0.931 . S
C3108 C3102 1.383 . S
C3108 C3107 1.379 . S
H3109 C3103 0.959 . S
H3110 C3103 0.961 . S
H3111 C3103 0.960 . S
H3112 C3104 0.930 . S
H3113 C3105 0.929 . S
H3114 C3122 0.929 . S
H3115 C3124 0.930 . S
H3116 C3126 0.930 . S
H3117 C3129 0.929 . S
H3118 C3132 0.930 . S
H3119 C3134 0.960 . S
H3120 C3134 0.960 . S
H3121 C3134 0.960 . S
C3122 H3114 0.929 . S
C3122 C3123 1.377 . S
C3122 C3124 1.384 . S
C3123 C3122 1.377 . S
C3123 C3129 1.390 . S
C3124 H3115 0.930 . S
C3124 C3122 1.384 . S
C3124 C3125 1.372 . S
C3125 C3124 1.372 . S
C3125 C3126 1.400 . S
C3125 C3130 1.490 . S
C3126 H3116 0.930 . S
C3126 C3125 1.400 . S
C3126 C3129 1.386 . S
H3127 C3143 0.930 . S
H3128 C3144 0.931 . S
C3129 H3117 0.929 . S
C3129 C3123 1.390 . S
C3129 C3126 1.386 . S
C3130 C3125 1.490 . S
C3130 C3132 1.395 . S
C3130 C3133 1.403 1_655 S
H3131 C3137 0.930 . S
C3132 H3118 0.930 . S
C3132 C3130 1.395 . S
C3132 C3135 1.403 . S
C3133 C3130 1.403 1_455 S
C3133 C3134 1.524 . S
C3133 C3137 1.400 . S
C3134 H3119 0.960 . S
C3134 H3120 0.960 . S
C3134 H3121 0.960 . S
C3134 C3133 1.524 . S
C3135 C3132 1.403 . S
C3135 C3136 1.392 . S
C3135 C3139 1.495 . S
C3136 C3135 1.392 . S
C3136 C3137 1.385 1_655 S
C3136 C3138 1.478 . S
C3137 H3131 0.930 . S
C3137 C3133 1.400 . S
C3137 C3136 1.385 1_455 S
C3138 C3136 1.478 . S
C3138 C3140 1.381 . S
C3138 C3144 1.383 . S
C3139 C3135 1.495 . S
C3139 H3145 0.959 . S
C3139 H3146 0.961 . S
C3139 H3147 0.960 . S
C3140 C3138 1.381 . S
C3140 C3141 1.446 . S
C3140 H3148 0.930 . S
C3141 C3140 1.446 . S
C3141 C3142 1.358 . S
C3141 H3149 0.911 1_655 S
C3142 C3141 1.358 . S
C3142 C3143 1.377 . S
C3143 H3127 0.930 . S
C3143 C3142 1.377 . S
C3143 C3144 1.379 . S
C3144 H3128 0.931 . S
C3144 C3138 1.383 . S
C3144 C3143 1.379 . S
H3145 C3139 0.959 . S
H3146 C3139 0.961 . S
H3147 C3139 0.960 . S
H3148 C3140 0.930 . S
H3149 C3141 0.911 1_455 S
H3150 C3158 0.929 . S
H3151 C3160 0.930 . S
H3152 C3162 0.930 . S
H3153 C3165 0.929 . S
H3154 C3168 0.930 . S
H3155 C3170 0.960 . S
H3156 C3170 0.960 . S
H3157 C3170 0.960 . S
C3158 H3150 0.929 . S
C3158 C3159 1.377 . S
C3158 C3160 1.384 . S
C3159 C3158 1.377 . S
C3159 C3165 1.390 . S
C3160 H3151 0.930 . S
C3160 C3158 1.384 . S
C3160 C3161 1.372 . S
C3161 C3160 1.372 . S
C3161 C3162 1.400 . S
C3161 C3166 1.490 . S
C3162 H3152 0.930 . S
C3162 C3161 1.400 . S
C3162 C3165 1.386 . S
H3163 C3179 0.930 . S
H3164 C3180 0.931 . S
C3165 H3153 0.929 . S
C3165 C3159 1.390 . S
C3165 C3162 1.386 . S
C3166 C3161 1.490 . S
C3166 C3168 1.395 . S
C3166 C3169 1.403 . S
H3167 C3173 0.930 . S
C3168 H3154 0.930 . S
C3168 C3166 1.395 . S
C3168 C3171 1.403 . S
C3169 C3166 1.403 . S
C3169 C3170 1.524 . S
C3169 C3173 1.400 . S
C3170 H3155 0.960 . S
C3170 H3156 0.960 . S
C3170 H3157 0.960 . S
C3170 C3169 1.524 . S
C3171 C3168 1.403 . S
C3171 C3172 1.392 . S
C3171 C3175 1.495 . S
C3172 C3171 1.392 . S
C3172 C3173 1.385 . S
C3172 C3174 1.478 . S
C3173 H3167 0.930 . S
C3173 C3169 1.400 . S
C3173 C3172 1.385 . S
C3174 C3172 1.478 . S
C3174 C3176 1.381 . S
C3174 C3180 1.383 . S
C3175 C3171 1.495 . S
C3175 H3181 0.959 . S
C3175 H3182 0.961 . S
C3175 H3183 0.960 . S
C3176 C3174 1.381 . S
C3176 C3177 1.394 . S
C3176 H3184 0.930 . S
C3177 C3176 1.394 . S
C3177 C3178 1.383 . S
C3177 H3185 0.929 . S
C3178 C3177 1.383 . S
C3178 C3179 1.377 . S
C3179 H3163 0.930 . S
C3179 C3178 1.377 . S
C3179 C3180 1.379 . S
C3180 H3164 0.931 . S
C3180 C3174 1.383 . S
C3180 C3179 1.379 . S
H3181 C3175 0.959 . S
H3182 C3175 0.961 . S
H3183 C3175 0.960 . S
H3184 C3176 0.930 . S
H3185 C3177 0.929 . S
H3186 C3194 0.933 . S
H3187 C3196 0.930 1_565 S
H3188 C3198 0.930 . S
H3189 C3201 0.929 . S
H3190 C3204 0.930 . S
H3191 C3206 0.960 . S
H3192 C3206 0.960 . S
H3193 C3206 0.960 . S
C3194 H3186 0.933 . S
C3194 C3195 1.377 . S
C3194 C3196 1.384 . S
C3195 C3194 1.377 . S
C3195 C3201 1.390 . S
C3196 H3187 0.930 1_545 S
C3196 C3194 1.384 . S
C3196 C3197 1.372 . S
C3197 C3196 1.372 . S
C3197 C3198 1.400 . S
C3197 C3202 1.490 . S
C3198 H3188 0.930 . S
C3198 C3197 1.400 . S
C3198 C3201 1.386 . S
H3199 C3215 0.930 . S
H3200 C3216 0.931 . S
C3201 H3189 0.929 . S
C3201 C3195 1.390 . S
C3201 C3198 1.386 . S
C3202 C3197 1.490 . S
C3202 C3204 1.395 1_545 S
C3202 C3205 1.403 . S
H3203 C3209 0.930 . S
C3204 H3190 0.930 . S
C3204 C3202 1.395 1_565 S
C3204 C3207 1.403 . S
C3205 C3202 1.403 . S
C3205 C3206 1.524 . S
C3205 C3209 1.400 . S
C3206 H3191 0.960 . S
C3206 H3192 0.960 . S
C3206 H3193 0.960 . S
C3206 C3205 1.524 . S
C3207 C3204 1.403 . S
C3207 C3208 1.392 1_565 S
C3207 C3211 1.495 . S
C3208 C3207 1.392 1_545 S
C3208 C3209 1.385 . S
C3208 C3210 1.471 . S
C3209 H3203 0.930 . S
C3209 C3205 1.400 . S
C3209 C3208 1.385 . S
C3210 C3208 1.471 . S
C3210 C3212 1.383 1_545 S
C3210 C3216 1.389 . S
C3211 C3207 1.495 . S
C3211 H3217 0.959 . S
C3211 H3218 0.961 . S
C3211 H3219 0.960 . S
C3212 C3210 1.383 1_565 S
C3212 C3213 1.394 . S
C3212 H3220 0.930 . S
C3213 C3212 1.394 . S
C3213 C3214 1.390 . S
C3213 H3221 0.929 . S
C3214 C3213 1.390 . S
C3214 C3215 1.379 1_565 S
C3215 H3199 0.930 . S
C3215 C3214 1.379 1_545 S
C3215 C3216 1.379 . S
C3216 H3200 0.931 . S
C3216 C3210 1.389 . S
C3216 C3215 1.379 . S
H3217 C3211 0.959 . S
H3218 C3211 0.961 . S
H3219 C3211 0.960 . S
H3220 C3212 0.930 . S
H3221 C3213 0.929 . S
C639 C7 1.500 . S
C658 C458 1.514 1_655 S
C675 C23 1.577 . S
C694 C471 1.531 . S
C730 C500 1.488 1_545 S
C711 C37 1.535 . S
C747 C35 1.518 1_545 S
C766 C513 1.480 . S
C783 C9 1.554 1_455 S
C802 C534 1.520 . S
C819 C21 1.545 . S
C838 C563 1.476 . S
C855 C49 1.510 . S
C874 C542 1.486 . S
C910 C555 1.515 . S
C891 C65 1.563 . S
C946 C521 1.511 . S
C927 C79 1.546 1_565 S
C963 C77 1.491 . S
C982 C492 1.443 . S
C1018 C450 1.519 1_655 S
C999 C51 1.546 1_655 S
C1035 C63 1.536 . S
C1054 C479 1.505 . S
C1071 C91 1.601 . S
C1090 C584 1.536 . S
C1107 C107 1.616 . S
C1126 C597 1.572 . S
C1162 C626 1.516 . S
C1143 C121 1.627 . S
C1179 C119 1.569 . S
C1198 C261 1.563 . S
C1215 C93 1.630 . S
C1234 C282 1.623 . S
C1251 C105 1.574 . S
C1270 C311 1.558 . S
C1287 C133 1.541 . S
C1306 C290 1.536 . S
C1323 C149 1.586 . S
C1342 C303 1.555 . S
C1378 C269 1.593 . S
C1359 C163 1.607 . S
C1414 C618 1.589 . S
C1395 C161 1.600 . S
C1450 C576 1.514 . S
C1431 C135 1.600 . S
C1486 C605 1.559 . S
C1467 C147 1.577 . S
C1503 C175 1.551 . S
C1522 C332 1.511 . S
C1539 C191 1.598 . S
C1558 C345 1.596 . S
C1575 C205 1.623 . S
C1594 C374 1.515 . S
C1611 C203 1.618 . S
C1630 C387 1.642 . S
C1666 C408 1.617 . S
C1647 C177 1.625 . S
C1702 C437 1.525 . S
C1683 C189 1.591 . S
C1738 C416 1.574 . S
C1719 C217 1.589 . S
C1774 C429 1.527 . S
C1755 C233 1.602 . S
C1791 C247 1.598 . S
C1810 C395 1.544 . S
C1846 C366 1.486 . S
C1827 C245 1.549 . S
C1863 C219 1.607 . S
C1882 C324 1.561 . S
C1918 C353 1.564 . S
C1899 C231 1.566 . S
C1954 C264 1.456 . S
C1935 C8 1.536 . S
C1971 C17 1.467 . S
C1990 C285 1.369 . S
C2026 C313 1.444 . S
C2007 C31 1.524 . S
C2062 C334 1.455 . S
C2043 C36 1.532 . S
C2098 C348 1.426 . S
C2079 C3 1.505 . S
C2134 C376 1.321 . S
C2115 C22 1.471 . S
C2151 C50 1.556 . S
C2170 C369 1.436 . S
C2187 C59 1.481 . S
C2206 C327 1.346 . S
C2223 C73 1.518 . S
C2242 C355 1.437 . S
C2259 C78 1.565 . S
C2278 C292 1.477 . S
C2314 C306 1.336 . S
C2295 C45 1.513 . S
C2331 C64 1.490 . S
C2350 C271 1.376 . S
C2386 C390 1.450 . S
C2367 C92 1.529 . S
C2403 C101 1.564 . S
C2422 C411 1.478 . S
C2439 C115 1.582 . S
C2458 C439 1.452 . S
C2494 C460 1.395 . S
C2475 C120 1.460 . S
C2511 C87 1.518 . S
C2530 C474 1.416 . S
C2547 C106 1.438 . S
C2566 C502 1.381 . S
C2583 C134 1.466 . S
C2602 C495 1.369 . S
C2619 C143 1.460 . S
C2638 C453 1.312 . S
C2674 C481 1.442 . S
C2655 C157 1.545 . S
C2691 C162 1.539 . S
C2710 C418 1.459 . S
C2727 C129 1.591 . S
C2746 C432 1.449 . S
C2782 C397 1.481 . S
C2763 C148 1.570 . S
C2818 C516 1.268 1_545 S
C2799 C176 1.464 . S
C2835 C185 1.454 . S
C2854 C537 1.357 1_655 S
C2871 C199 1.527 . S
C2890 C565 1.450 . S
C2926 C586 1.435 . S
C2907 C204 1.513 . S
C2962 C600 1.468 . S
C2943 C171 1.577 . S
C2979 C190 1.556 . S
C2998 C628 1.405 . S
C3015 C218 1.549 . S
C3034 C621 1.357 . S
C3051 C227 1.576 . S
C3070 C579 1.439 . S
C3106 C607 1.479 . S
C3087 C241 1.586 . S
C3142 C544 1.371 1_655 S
C3123 C246 1.457 . S
C3178 C558 1.353 . S
C3159 C213 1.534 . S
C3195 C232 1.446 . S
C3214 C523 1.344 . S
