# Generated by pormake.
# Topology nom, (4,4)-cn, num edge types: 1
# Building blocks:
#     Node 0, Type 0, BuildingBlock: KUFVIS_clean_linker_0, # of connection points: 4
#     Node 1, Type 0, BuildingBlock: KUFVIS_clean_linker_0, # of connection points: 4
#     Node 2, Type 0, BuildingBlock: KUFVIS_clean_linker_0, # of connection points: 4
#     Node 3, Type 0, BuildingBlock: KUFVIS_clean_linker_0, # of connection points: 4
#     Node 4, Type 0, BuildingBlock: KUFVIS_clean_linker_0, # of connection points: 4
#     Node 5, Type 0, BuildingBlock: KUFVIS_clean_linker_0, # of connection points: 4
#     Node 6, Type 1, BuildingBlock: UXUYUI_clean_sbu_0, # of connection points: 4
#     Node 7, Type 1, BuildingBlock: UXUYUI_clean_sbu_0, # of connection points: 4
#     Node 8, Type 1, BuildingBlock: UXUYUI_clean_sbu_0, # of connection points: 4
#     Node 9, Type 1, BuildingBlock: UXUYUI_clean_sbu_0, # of connection points: 4
#     Node 10, Type 1, BuildingBlock: UXUYUI_clean_sbu_0, # of connection points: 4
#     Node 11, Type 1, BuildingBlock: UXUYUI_clean_sbu_0, # of connection points: 4
#     Edge 12, Type (0, 1), BuildingBlock: XUDNAN_clean_linker_2, # of connection points: 2
#     Edge 13, Type (0, 1), BuildingBlock: XUDNAN_clean_linker_2, # of connection points: 2
#     Edge 14, Type (0, 1), BuildingBlock: XUDNAN_clean_linker_2, # of connection points: 2
#     Edge 15, Type (0, 1), BuildingBlock: XUDNAN_clean_linker_2, # of connection points: 2
#     Edge 16, Type (0, 1), BuildingBlock: XUDNAN_clean_linker_2, # of connection points: 2
#     Edge 17, Type (0, 1), BuildingBlock: XUDNAN_clean_linker_2, # of connection points: 2
#     Edge 18, Type (0, 1), BuildingBlock: XUDNAN_clean_linker_2, # of connection points: 2
#     Edge 19, Type (0, 1), BuildingBlock: XUDNAN_clean_linker_2, # of connection points: 2
#     Edge 20, Type (0, 1), BuildingBlock: XUDNAN_clean_linker_2, # of connection points: 2
#     Edge 21, Type (0, 1), BuildingBlock: XUDNAN_clean_linker_2, # of connection points: 2
#     Edge 22, Type (0, 1), BuildingBlock: XUDNAN_clean_linker_2, # of connection points: 2
#     Edge 23, Type (0, 1), BuildingBlock: XUDNAN_clean_linker_2, # of connection points: 2
#     Edge 24, Type (0, 1), BuildingBlock: XUDNAN_clean_linker_2, # of connection points: 2
#     Edge 25, Type (0, 1), BuildingBlock: XUDNAN_clean_linker_2, # of connection points: 2
#     Edge 26, Type (0, 1), BuildingBlock: XUDNAN_clean_linker_2, # of connection points: 2
#     Edge 27, Type (0, 1), BuildingBlock: XUDNAN_clean_linker_2, # of connection points: 2
#     Edge 28, Type (0, 1), BuildingBlock: XUDNAN_clean_linker_2, # of connection points: 2
#     Edge 29, Type (0, 1), BuildingBlock: XUDNAN_clean_linker_2, # of connection points: 2
#     Edge 30, Type (0, 1), BuildingBlock: XUDNAN_clean_linker_2, # of connection points: 2
#     Edge 31, Type (0, 1), BuildingBlock: XUDNAN_clean_linker_2, # of connection points: 2
#     Edge 32, Type (0, 1), BuildingBlock: XUDNAN_clean_linker_2, # of connection points: 2
#     Edge 33, Type (0, 1), BuildingBlock: XUDNAN_clean_linker_2, # of connection points: 2
#     Edge 34, Type (0, 1), BuildingBlock: XUDNAN_clean_linker_2, # of connection points: 2
#     Edge 35, Type (0, 1), BuildingBlock: XUDNAN_clean_linker_2, # of connection points: 2
# Relax obj value: 0.035
# Max RMSD: 0.147
# Mean RMSD: 0.094
data_MOF--net-nom--node1-UXUYUI_clean_sbu_0--node2-KUFVIS_clean_linker_0--edge1-XUDNAN_clean_linker_2
_symmetry_space_group_name_H-M    P1
_symmetry_Int_Tables_number       1
_symmetry_cell_setting            triclinic
loop_
_symmetry_equiv_pos_as_xyz
'x, y, z'
_cell_length_a     56.007472
_cell_length_b     56.021898
_cell_length_c     56.935149
_cell_angle_alpha  89.960897
_cell_angle_beta   90.01756
_cell_angle_gamma 119.95432
loop_
_atom_site_label
_atom_site_type_symbol
_atom_site_fract_x
_atom_site_fract_y
_atom_site_fract_z
_atom_type_partial_charge
H0 H 0.12257 0.59048 0.34608 0.0
H1 H 0.05968 0.56981 0.29449 0.0
H2 H 0.03806 0.53605 0.36471 0.0
H3 H 1.00004 0.54038 0.35578 0.0
H4 H 0.93778 0.49594 0.30399 0.0
H5 H 0.02257 0.52723 0.2863 0.0
C6 C 0.101 0.57882 0.34118 0.0
C7 C 0.08125 0.56298 0.35812 0.0
C8 C 0.09342 0.58087 0.3182 0.0
C9 C 0.0654 0.56741 0.31214 0.0
C10 C 0.04496 0.55093 0.32874 0.0
C11 C 0.05324 0.54892 0.35178 0.0
C12 C 1.01516 0.53568 0.32196 0.0
C13 C 0.99447 0.53175 0.33829 0.0
C14 C 0.9665 0.51745 0.33186 0.0
C15 C 0.95931 0.50697 0.30903 0.0
C16 C 0.97933 0.51073 0.29245 0.0
C17 C 1.00721 0.52499 0.29902 0.0
H18 H 0.55926 0.11655 0.5152 0.0
H19 H 0.51668 0.05406 0.46347 0.0
H20 H 0.52908 0.03189 0.53336 0.0
H21 H 0.48597 0.99492 0.52528 0.0
H22 H 0.46277 0.93192 0.4731 0.0
H23 H 0.52034 0.01562 0.45517 0.0
C24 C 0.5494 0.09504 0.51018 0.0
C25 C 0.54566 0.07518 0.52697 0.0
C26 C 0.53975 0.08769 0.48718 0.0
C27 C 0.52494 0.05968 0.48107 0.0
C28 C 0.5207 0.0391 0.49763 0.0
C29 C 0.53142 0.04721 0.52055 0.0
C30 C 0.50495 1.00927 0.49101 0.0
C31 C 0.48785 0.98906 0.50755 0.0
C32 C 0.47253 0.96114 0.50114 0.0
C33 C 0.47405 0.9535 0.47805 0.0
C34 C 0.49102 0.97302 0.46147 0.0
C35 C 0.50676 1.00079 0.46803 0.0
H36 H 0.55536 0.45625 0.64266 0.0
H37 H 0.50874 0.47469 0.69151 0.0
H38 H 0.52618 0.51078 0.62189 0.0
H39 H 0.48453 0.50811 0.62855 0.0
H40 H 0.46432 0.55187 0.67906 0.0
H41 H 0.51382 0.51697 0.70014 0.0
C42 C 0.54421 0.46696 0.6467 0.0
C43 C 0.54116 0.48301 0.62944 0.0
C44 C 0.53293 0.46424 0.66908 0.0
C45 C 0.51812 0.47768 0.67433 0.0
C46 C 0.5157 0.49501 0.65755 0.0
C47 C 0.52755 0.49759 0.63508 0.0
C48 C 0.50122 0.5106 0.66352 0.0
C49 C 0.48639 0.51598 0.64622 0.0
C50 C 0.4738 0.53159 0.65164 0.0
C51 C 0.47521 0.54101 0.67463 0.0
C52 C 0.48918 0.53545 0.69223 0.0
C53 C 0.50236 0.52047 0.68657 0.0
H54 H 0.12278 0.55771 0.80694 0.0
H55 H 0.06009 0.51604 0.85895 0.0
H56 H 0.03801 0.52499 0.78803 0.0
H57 H 1.00176 0.482 0.79689 0.0
H58 H 0.93774 0.45979 0.84796 0.0
H59 H 0.02083 0.51918 0.86601 0.0
C60 C 0.10124 0.54764 0.81195 0.0
C61 C 0.08132 0.54269 0.79487 0.0
C62 C 0.09386 0.53866 0.83515 0.0
C63 C 0.06579 0.5237 0.84118 0.0
C64 C 0.0452 0.51842 0.82431 0.0
C65 C 0.05334 0.52825 0.80117 0.0
C66 C 1.01534 0.50234 0.83074 0.0
C67 C 0.99553 0.48439 0.81434 0.0
C68 C 0.96752 0.46898 0.82046 0.0
C69 C 0.95939 0.47115 0.84321 0.0
C70 C 0.9785 0.48903 0.85959 0.0
C71 C 1.00636 0.50486 0.85332 0.0
H72 H 0.50527 0.93166 0.01301 0.0
H73 H 0.55118 0.99475 0.96253 0.0
H74 H 0.53437 0.01614 0.03117 0.0
H75 H 0.57658 0.05409 0.02439 0.0
H76 H 0.60002 0.11695 0.97216 0.0
H77 H 0.54747 0.03249 0.95283 0.0
C78 C 0.51563 0.95329 0.00824 0.0
C79 C 0.51861 0.97299 0.02489 0.0
C80 C 0.52677 0.96099 0.9857 0.0
C81 C 0.54188 0.98902 0.97979 0.0
C82 C 0.54483 1.00941 0.99602 0.0
C83 C 0.53294 1.00101 0.01857 0.0
C84 C 0.56012 0.0393 0.98944 0.0
C85 C 0.57529 0.05978 0.00645 0.0
C86 C 0.58966 0.08778 0.00023 0.0
C87 C 0.58882 0.09533 0.97696 0.0
C88 C 0.57384 0.0756 0.95979 0.0
C89 C 0.55954 0.04761 0.96608 0.0
H90 H 0.49947 0.58747 0.1415 0.0
H91 H 0.54343 0.56845 0.19266 0.0
H92 H 0.53636 0.53961 0.12106 0.0
H93 H 0.5775 0.54361 0.13072 0.0
H94 H 0.598 0.50069 0.18205 0.0
H95 H 0.54024 0.5266 0.19985 0.0
C96 C 0.51185 0.57814 0.14582 0.0
C97 C 0.51815 0.5647 0.12827 0.0
C98 C 0.52117 0.57994 0.16887 0.0
C99 C 0.53574 0.56647 0.17489 0.0
C100 C 0.54122 0.55142 0.15787 0.0
C101 C 0.53226 0.55075 0.13449 0.0
C102 C 0.55682 0.5371 0.16441 0.0
C103 C 0.57468 0.53482 0.14813 0.0
C104 C 0.58963 0.52175 0.1544 0.0
C105 C 0.58705 0.51137 0.17719 0.0
C106 C 0.56971 0.51349 0.19364 0.0
C107 C 0.55419 0.52581 0.18713 0.0
Li108 Li 0.65012 0.40961 0.43104 0.0
Li109 Li 0.64136 0.36519 0.41161 0.0
Li110 Li 0.68726 0.41042 0.40683 0.0
Li111 Li 0.64537 0.40384 0.39005 0.0
C112 C 0.6723 0.38004 0.45772 0.0
N113 N 0.67701 0.3626 0.50201 0.0
C114 C 0.64947 0.35801 0.46842 0.0
C115 C 0.6976 0.39305 0.46946 0.0
C116 C 0.65225 0.34954 0.49084 0.0
C117 C 0.69954 0.38398 0.49187 0.0
C118 C 0.59371 0.37769 0.40393 0.0
C119 C 0.55359 0.35108 0.37976 0.0
N120 N 0.5466 0.37096 0.38222 0.0
C121 C 0.58603 0.39778 0.40632 0.0
C122 C 0.57734 0.35411 0.39058 0.0
C123 C 0.56219 0.39404 0.39515 0.0
C124 C 0.63793 0.44726 0.45189 0.0
N125 N 0.64119 0.42536 0.45711 0.0
C126 C 0.62815 0.42599 0.49697 0.0
C127 C 0.63671 0.41477 0.4792 0.0
C128 C 0.62399 0.44824 0.49195 0.0
C129 C 0.62935 0.45908 0.46908 0.0
H130 H 0.64136 0.45516 0.43413 0.0
H131 H 0.63925 0.39735 0.48304 0.0
C132 C 0.63957 0.31369 0.41029 0.0
N133 N 0.62478 0.3263 0.41519 0.0
C134 C 0.6278 0.28524 0.41342 0.0
C135 C 0.58578 0.28335 0.42634 0.0
C136 C 0.59843 0.31181 0.42319 0.0
C137 C 0.6005 0.2697 0.42148 0.0
H138 H 0.66057 0.32579 0.40409 0.0
H139 H 0.58736 0.32245 0.42748 0.0
C140 C 0.69305 0.46046 0.41785 0.0
N141 N 0.73297 0.50766 0.43979 0.0
C142 C 0.70292 0.48619 0.40718 0.0
C143 C 0.70357 0.45881 0.43969 0.0
C144 C 0.7231 0.50979 0.41854 0.0
C145 C 0.72369 0.48288 0.4505 0.0
C146 C 0.66254 0.37993 0.35934 0.0
C147 C 0.67899 0.40292 0.34539 0.0
C148 C 0.64455 0.35471 0.34877 0.0
C149 C 0.67681 0.40039 0.32097 0.0
C150 C 0.64302 0.35302 0.32428 0.0
N151 N 0.65901 0.37571 0.31101 0.0
C152 C 0.73879 0.41253 0.41243 0.0
C153 C 0.74031 0.4497 0.39132 0.0
C154 C 0.76724 0.42375 0.40971 0.0
N155 N 0.72601 0.42565 0.40331 0.0
C156 C 0.76876 0.46184 0.38848 0.0
C157 C 0.7827 0.4488 0.39757 0.0
H158 H 0.72683 0.39321 0.42164 0.0
H159 H 0.72961 0.45949 0.38387 0.0
C160 C 0.63727 0.4409 0.36308 0.0
N161 N 0.63053 0.414 0.3638 0.0
C162 C 0.6264 0.45031 0.34574 0.0
C163 C 0.6013 0.40406 0.33023 0.0
C164 C 0.613 0.3956 0.34772 0.0
C165 C 0.60801 0.43176 0.32914 0.0
H166 H 0.65067 0.455 0.37632 0.0
H167 H 0.60758 0.37423 0.34873 0.0
O168 O 0.67015 0.38838 0.4356 0.0
O169 O 0.61722 0.38121 0.41444 0.0
O170 O 0.67355 0.43714 0.40667 0.0
O171 O 0.66419 0.38202 0.38325 0.0
H172 H 0.62969 0.34792 0.45974 0.0
H173 H 0.71557 0.40998 0.46138 0.0
H174 H 0.63469 0.33264 0.4994 0.0
H175 H 0.71896 0.39391 0.50119 0.0
H176 H 0.54086 0.33303 0.36924 0.0
H177 H 0.59848 0.41619 0.41649 0.0
H178 H 0.58321 0.33858 0.38814 0.0
H179 H 0.55611 0.40951 0.39673 0.0
H180 H 0.62466 0.4172 0.51444 0.0
H181 H 0.6261 0.47595 0.46429 0.0
H182 H 0.63983 0.27548 0.40943 0.0
H183 H 0.5649 0.27225 0.43303 0.0
H184 H 0.69532 0.48794 0.39018 0.0
H185 H 0.69625 0.43925 0.4483 0.0
H186 H 0.73095 0.5298 0.41043 0.0
H187 H 0.73193 0.48184 0.46742 0.0
H188 H 0.69304 0.42256 0.35337 0.0
H189 H 0.63176 0.33673 0.35939 0.0
H190 H 0.68924 0.41805 0.30992 0.0
H191 H 0.62907 0.33369 0.31583 0.0
H192 H 0.77686 0.4126 0.41664 0.0
H193 H 0.77966 0.48132 0.37929 0.0
H194 H 0.63183 0.47178 0.34564 0.0
H195 H 0.58728 0.38915 0.31764 0.0
Li196 Li 0.26721 0.6437 0.59868 0.0
Li197 Li 0.30173 0.63868 0.5789 0.0
Li198 Li 0.3024 0.68183 0.57705 0.0
Li199 Li 0.26621 0.64051 0.55474 0.0
C200 C 0.30377 0.66161 0.6292 0.0
N201 N 0.29393 0.65513 0.67705 0.0
C202 C 0.301 0.63829 0.64071 0.0
C203 C 0.30125 0.68149 0.64207 0.0
C204 C 0.2961 0.63543 0.66488 0.0
C205 C 0.29638 0.6779 0.66624 0.0
C206 C 0.25991 0.58753 0.5744 0.0
C207 C 0.25214 0.55033 0.54836 0.0
N208 N 0.25718 0.53753 0.5664 0.0
C209 C 0.26491 0.5739 0.59269 0.0
C210 C 0.25342 0.5756 0.55205 0.0
C211 C 0.26348 0.54869 0.58828 0.0
C212 C 0.23388 0.64856 0.63482 0.0
N213 N 0.24106 0.63143 0.62395 0.0
C214 C 0.20672 0.59287 0.64544 0.0
C215 C 0.22805 0.60409 0.62906 0.0
C216 C 0.19855 0.60991 0.65668 0.0
C217 C 0.21273 0.63822 0.65152 0.0
H218 H 0.24417 0.67013 0.63023 0.0
H219 H 0.23373 0.5908 0.61998 0.0
C220 C 0.34408 0.6311 0.59816 0.0
N221 N 0.3258 0.62316 0.58011 0.0
C222 C 0.3606 0.61918 0.60122 0.0
C223 C 0.34087 0.5926 0.56597 0.0
C224 C 0.32445 0.60477 0.56381 0.0
C225 C 0.35893 0.59932 0.58516 0.0
H226 H 0.34558 0.64643 0.61049 0.0
H227 H 0.31036 0.5992 0.54922 0.0
C228 C 0.26157 0.6906 0.57018 0.0
N229 N 0.26357 0.73957 0.55891 0.0
C230 C 0.25669 0.69565 0.54713 0.0
C231 C 0.26738 0.71044 0.58751 0.0
C232 C 0.25779 0.72053 0.54179 0.0
C233 C 0.26835 0.73508 0.58146 0.0
C234 C 0.32665 0.66043 0.53791 0.0
C235 C 0.35411 0.6771 0.54468 0.0
C236 C 0.32023 0.64253 0.51886 0.0
C237 C 0.37476 0.67535 0.53237 0.0
C238 C 0.34147 0.64141 0.50699 0.0
N239 N 0.36807 0.65768 0.51395 0.0
C240 C 0.33849 0.73746 0.59238 0.0
C241 C 0.32966 0.73139 0.55154 0.0
C242 C 0.35517 0.76589 0.58938 0.0
N243 N 0.32585 0.7209 0.57363 0.0
C244 C 0.34653 0.75964 0.54766 0.0
C245 C 0.35953 0.77745 0.56675 0.0
H246 H 0.33576 0.72869 0.60969 0.0
H247 H 0.31965 0.71771 0.53687 0.0
C248 C 0.21416 0.61046 0.5368 0.0
N249 N 0.24055 0.62711 0.52962 0.0
C250 C 0.1926 0.60013 0.52065 0.0
C251 C 0.22578 0.62411 0.4898 0.0
C252 C 0.24681 0.63401 0.50664 0.0
C253 C 0.19819 0.60715 0.49681 0.0
H254 H 0.2099 0.60543 0.55523 0.0
H255 H 0.26796 0.64766 0.50149 0.0
O256 O 0.30793 0.66442 0.60538 0.0
O257 O 0.26133 0.61233 0.57834 0.0
O258 O 0.26139 0.66671 0.57562 0.0
O259 O 0.30614 0.66157 0.54993 0.0
H260 H 0.30231 0.62238 0.63109 0.0
H261 H 0.30224 0.69915 0.63351 0.0
H262 H 0.29388 0.61746 0.67395 0.0
H263 H 0.29427 0.69308 0.67635 0.0
H264 H 0.24727 0.54097 0.53113 0.0
H265 H 0.27015 0.5828 0.61006 0.0
H266 H 0.24976 0.58583 0.53758 0.0
H267 H 0.26748 0.53805 0.60225 0.0
H268 H 0.19658 0.57099 0.64913 0.0
H269 H 0.20695 0.65203 0.65972 0.0
H270 H 0.37395 0.62501 0.61641 0.0
H271 H 0.33931 0.57801 0.55276 0.0
H272 H 0.25234 0.68068 0.53345 0.0
H273 H 0.27172 0.70715 0.60534 0.0
H274 H 0.25414 0.72474 0.524 0.0
H275 H 0.27307 0.7507 0.59466 0.0
H276 H 0.35936 0.69106 0.55941 0.0
H277 H 0.29904 0.62935 0.51353 0.0
H278 H 0.39611 0.68801 0.53748 0.0
H279 H 0.33681 0.62751 0.49231 0.0
H280 H 0.36439 0.77862 0.60473 0.0
H281 H 0.34966 0.76726 0.52981 0.0
H282 H 0.17175 0.58682 0.5268 0.0
H283 H 0.23098 0.6303 0.47165 0.0
Li284 Li 0.68967 0.2979 0.74304 0.0
Li285 Li 0.64984 0.26188 0.76434 0.0
Li286 Li 0.65113 0.26256 0.72104 0.0
Li287 Li 0.64524 0.29701 0.74167 0.0
C288 C 0.69727 0.25419 0.74674 0.0
N289 N 0.74254 0.24783 0.75396 0.0
C290 C 0.70794 0.25656 0.76934 0.0
C291 C 0.70937 0.24826 0.72784 0.0
C292 C 0.73093 0.25339 0.77262 0.0
C293 C 0.7323 0.2452 0.73185 0.0
C294 C 0.65982 0.30891 0.78971 0.0
C295 C 0.62325 0.29964 0.81699 0.0
N296 N 0.64133 0.32126 0.83038 0.0
C297 C 0.67805 0.33101 0.80374 0.0
C298 C 0.63223 0.293 0.7964 0.0
C299 C 0.6683 0.33694 0.82424 0.0
C300 C 0.74577 0.33214 0.72724 0.0
N301 N 0.72882 0.32091 0.74606 0.0
C302 C 0.7672 0.34262 0.77232 0.0
C303 C 0.73897 0.32588 0.76831 0.0
C304 C 0.78533 0.35437 0.75321 0.0
C305 C 0.77418 0.34881 0.73041 0.0
H306 H 0.73738 0.3284 0.70974 0.0
H307 H 0.72504 0.3169 0.78301 0.0
C308 C 0.62033 0.20964 0.782 0.0
N309 N 0.63725 0.23594 0.78923 0.0
C310 C 0.61069 0.18789 0.79795 0.0
C311 C 0.63567 0.22076 0.82873 0.0
C312 C 0.64509 0.24194 0.81207 0.0
C313 C 0.61848 0.19329 0.82163 0.0
H314 H 0.61466 0.20556 0.76366 0.0
H315 H 0.65897 0.26301 0.81727 0.0
C316 C 0.67716 0.30544 0.69177 0.0
N317 N 0.68883 0.30907 0.64428 0.0
C318 C 0.66645 0.31725 0.67643 0.0
C319 C 0.69365 0.29532 0.68289 0.0
C320 C 0.67262 0.31893 0.6525 0.0
C321 C 0.69938 0.2974 0.65886 0.0
C322 C 0.59652 0.24878 0.72996 0.0
C323 C 0.5969 0.2622 0.70915 0.0
C324 C 0.57159 0.22733 0.73843 0.0
C325 C 0.57227 0.25385 0.69708 0.0
C326 C 0.54737 0.2196 0.72587 0.0
N327 N 0.54821 0.2329 0.70562 0.0
C328 C 0.63522 0.21124 0.70309 0.0
C329 C 0.63211 0.23998 0.67413 0.0
C330 C 0.62451 0.18905 0.68754 0.0
N331 N 0.63884 0.23608 0.69621 0.0
C332 C 0.62183 0.21846 0.65783 0.0
C333 C 0.6177 0.19255 0.6646 0.0
H334 H 0.64021 0.20854 0.72089 0.0
H335 H 0.63411 0.2595 0.66921 0.0
C336 C 0.63933 0.34196 0.72714 0.0
N337 N 0.62753 0.31871 0.7404 0.0
C338 C 0.62574 0.35685 0.72346 0.0
C339 C 0.58893 0.32469 0.74856 0.0
C340 C 0.60287 0.30998 0.75118 0.0
C341 C 0.59997 0.34824 0.7341 0.0
H342 H 0.65903 0.34856 0.71887 0.0
H343 H 0.59368 0.29126 0.76145 0.0
O344 O 0.67498 0.25751 0.74312 0.0
O345 O 0.66935 0.30232 0.77006 0.0
O346 O 0.67132 0.30353 0.71529 0.0
O347 O 0.62033 0.25669 0.74218 0.0
H348 H 0.69873 0.26108 0.78414 0.0
H349 H 0.70106 0.24591 0.7103 0.0
H350 H 0.73955 0.25536 0.78999 0.0
H351 H 0.74193 0.24067 0.71739 0.0
H352 H 0.60196 0.28748 0.82239 0.0
H353 H 0.69955 0.34336 0.79891 0.0
H354 H 0.61797 0.27547 0.78601 0.0
H355 H 0.6822 0.35394 0.83531 0.0
H356 H 0.77459 0.34668 0.79025 0.0
H357 H 0.78724 0.35709 0.71509 0.0
H358 H 0.59729 0.16706 0.79181 0.0
H359 H 0.64237 0.22572 0.8468 0.0
H360 H 0.65331 0.32485 0.68283 0.0
H361 H 0.70177 0.28577 0.69443 0.0
H362 H 0.66444 0.32799 0.64044 0.0
H363 H 0.71211 0.28964 0.65179 0.0
H364 H 0.61599 0.27894 0.70243 0.0
H365 H 0.57097 0.21682 0.75458 0.0
H366 H 0.57227 0.26406 0.68094 0.0
H367 H 0.5279 0.20304 0.73223 0.0
H368 H 0.62158 0.16936 0.69339 0.0
H369 H 0.61636 0.22177 0.64037 0.0
H370 H 0.63513 0.37443 0.71178 0.0
H371 H 0.56956 0.31739 0.75766 0.0
Li372 Li 0.41051 0.64119 0.93054 0.0
Li373 Li 0.41703 0.68224 0.91122 0.0
Li374 Li 0.37068 0.63767 0.90985 0.0
Li375 Li 0.41173 0.64288 0.88904 0.0
C376 C 0.37975 0.65736 0.95952 0.0
N377 N 0.35756 0.64881 0.00421 0.0
C378 C 0.39331 0.67692 0.97718 0.0
C379 C 0.35473 0.63361 0.96461 0.0
C380 C 0.3818 0.67218 0.99966 0.0
C381 C 0.34391 0.62962 0.9873 0.0
C382 C 0.46508 0.68354 0.92291 0.0
C383 C 0.51457 0.70971 0.92647 0.0
N384 N 0.5119 0.71789 0.94832 0.0
C385 C 0.46283 0.69219 0.94538 0.0
C386 C 0.49115 0.69233 0.91334 0.0
C387 C 0.48672 0.70955 0.95796 0.0
C388 C 0.44296 0.62141 0.94943 0.0
N389 N 0.42298 0.6272 0.95585 0.0
C390 C 0.4234 0.61208 0.99507 0.0
C391 C 0.41304 0.62266 0.9782 0.0
C392 C 0.44363 0.60555 0.98867 0.0
C393 C 0.45337 0.61017 0.96555 0.0
H394 H 0.45059 0.62524 0.93159 0.0
H395 H 0.39707 0.62704 0.98308 0.0
C396 C 0.42456 0.732 0.92964 0.0
N397 N 0.43439 0.72132 0.91343 0.0
C398 C 0.43789 0.76036 0.93353 0.0
C399 C 0.47053 0.76644 0.90311 0.0
C400 C 0.45685 0.73783 0.90016 0.0
C401 C 0.46131 0.77816 0.92021 0.0
H402 H 0.40659 0.71841 0.93988 0.0
H403 H 0.46435 0.72876 0.88748 0.0
C404 C 0.38258 0.58869 0.91804 0.0
N405 N 0.37884 0.54223 0.93859 0.0
C406 C 0.40063 0.57948 0.91134 0.0
C407 C 0.36244 0.57409 0.93501 0.0
C408 C 0.39845 0.55599 0.92197 0.0
C409 C 0.36094 0.5507 0.94524 0.0
C410 C 0.39137 0.66322 0.86005 0.0
C411 C 0.36898 0.64163 0.84853 0.0
C412 C 0.41358 0.68307 0.84702 0.0
C413 C 0.36926 0.64017 0.82404 0.0
C414 C 0.41308 0.68088 0.82256 0.0
N415 N 0.39113 0.65965 0.81167 0.0
C416 C 0.32012 0.63793 0.91054 0.0
C417 C 0.31644 0.59479 0.90206 0.0
C418 C 0.29166 0.62659 0.90789 0.0
N419 N 0.33183 0.62195 0.90754 0.0
C420 C 0.28794 0.58258 0.89937 0.0
C421 C 0.27518 0.59855 0.90216 0.0
H422 H 0.33294 0.65952 0.9148 0.0
H423 H 0.32639 0.58269 0.89943 0.0
C424 C 0.44854 0.64571 0.85313 0.0
N425 N 0.42272 0.63063 0.86215 0.0
C426 C 0.45763 0.63451 0.8357 0.0
C427 C 0.41315 0.59288 0.83691 0.0
C428 C 0.4048 0.605 0.85399 0.0
C429 C 0.44006 0.60745 0.82794 0.0
H430 H 0.46234 0.66604 0.86002 0.0
H431 H 0.38438 0.59352 0.86151 0.0
O432 O 0.39053 0.66178 0.93729 0.0
O433 O 0.44199 0.66672 0.91013 0.0
O434 O 0.38478 0.612 0.90818 0.0
O435 O 0.3919 0.66447 0.88403 0.0
H436 H 0.41253 0.6956 0.97368 0.0
H437 H 0.34379 0.61833 0.95127 0.0
H438 H 0.39214 0.6871 0.01348 0.0
H439 H 0.32464 0.61125 0.99145 0.0
H440 H 0.53488 0.71669 0.91927 0.0
H441 H 0.44288 0.6855 0.95304 0.0
H442 H 0.49326 0.68582 0.89595 0.0
H443 H 0.48525 0.71638 0.97539 0.0
H444 H 0.41549 0.60871 0.01286 0.0
H445 H 0.46915 0.60553 0.96013 0.0
H446 H 0.43017 0.76804 0.94727 0.0
H447 H 0.48815 0.77915 0.89211 0.0
H448 H 0.41654 0.59065 0.89842 0.0
H449 H 0.34816 0.58073 0.94029 0.0
H450 H 0.41245 0.5488 0.91711 0.0
H451 H 0.34554 0.53929 0.95848 0.0
H452 H 0.35173 0.62601 0.85841 0.0
H453 H 0.43113 0.69979 0.85572 0.0
H454 H 0.35214 0.6235 0.81487 0.0
H455 H 0.43019 0.696 0.81224 0.0
H456 H 0.28264 0.6396 0.91032 0.0
H457 H 0.27615 0.56104 0.89453 0.0
H458 H 0.47853 0.64635 0.82917 0.0
H459 H 0.39891 0.5721 0.8311 0.0
Li460 Li 0.75727 0.41051 0.07874 0.0
Li461 Li 0.79308 0.4051 0.09758 0.0
Li462 Li 0.7919 0.4101 0.05339 0.0
Li463 Li 0.75723 0.36765 0.07358 0.0
C464 C 0.79815 0.46086 0.08225 0.0
N465 N 0.79667 0.50877 0.08976 0.0
C466 C 0.79794 0.46973 0.10513 0.0
C467 C 0.79781 0.47638 0.06317 0.0
C468 C 0.79713 0.49402 0.10856 0.0
C469 C 0.79701 0.50055 0.06734 0.0
C470 C 0.74723 0.36669 0.12278 0.0
C471 C 0.75119 0.33083 0.14276 0.0
N472 N 0.73704 0.33287 0.16132 0.0
C473 C 0.7326 0.36833 0.14201 0.0
C474 C 0.75652 0.34774 0.12314 0.0
C475 C 0.72772 0.35111 0.16135 0.0
C476 C 0.72775 0.43676 0.06345 0.0
N477 N 0.73499 0.42717 0.08252 0.0
C478 C 0.71117 0.44209 0.10804 0.0
C479 C 0.72718 0.4297 0.10453 0.0
C480 C 0.70324 0.45219 0.0887 0.0
C481 C 0.71182 0.44943 0.06615 0.0
H482 H 0.73466 0.43488 0.04619 0.0
H483 H 0.73357 0.42223 0.11938 0.0
C484 C 0.84575 0.42637 0.11428 0.0
N485 N 0.81948 0.41613 0.12202 0.0
C486 C 0.86765 0.43707 0.13011 0.0
C487 C 0.83509 0.42657 0.16174 0.0
C488 C 0.81371 0.41592 0.14523 0.0
C489 C 0.86255 0.43762 0.15419 0.0
H490 H 0.84968 0.4265 0.09567 0.0
H491 H 0.79269 0.40818 0.15088 0.0
C492 C 0.74443 0.37799 0.02718 0.0
N493 N 0.73172 0.3546 0.98294 0.0
C494 C 0.75387 0.36032 0.02003 0.0
C495 C 0.72846 0.38374 0.01184 0.0
C496 C 0.74724 0.34868 0.99761 0.0
C497 C 0.72228 0.37174 0.98954 0.0
C498 C 0.81188 0.36972 0.07036 0.0
C499 C 0.81859 0.3638 0.04827 0.0
C500 C 0.8202 0.36163 0.09058 0.0
C501 C 0.83309 0.34956 0.04679 0.0
C502 C 0.83466 0.34741 0.08836 0.0
N503 N 0.84073 0.34169 0.0667 0.0
C504 C 0.84194 0.42945 0.03089 0.0
C505 C 0.80952 0.43424 0.00751 0.0
C506 C 0.86171 0.4409 0.01322 0.0
N507 N 0.81631 0.42586 0.0276 0.0
C508 C 0.82898 0.44647 0.98951 0.0
C509 C 0.85531 0.4496 0.99229 0.0
H510 H 0.84703 0.4234 0.04733 0.0
H511 H 0.78914 0.43163 0.00555 0.0
C512 C 0.70643 0.31765 0.07291 0.0
N513 N 0.73409 0.32837 0.07055 0.0
C514 C 0.68848 0.28928 0.07053 0.0
C515 C 0.72783 0.28352 0.06351 0.0
C516 C 0.74495 0.31188 0.06609 0.0
C517 C 0.69916 0.27184 0.06556 0.0
H518 H 0.69831 0.33121 0.07647 0.0
H519 H 0.76689 0.32061 0.06438 0.0
O520 O 0.79799 0.4367 0.07854 0.0
O521 O 0.75243 0.38369 0.10385 0.0
O522 O 0.75101 0.38998 0.04892 0.0
O523 O 0.7977 0.38374 0.07218 0.0
H524 H 0.79804 0.4578 0.12006 0.0
H525 H 0.79783 0.46964 0.04536 0.0
H526 H 0.79678 0.50107 0.12617 0.0
H527 H 0.79656 0.51271 0.05276 0.0
H528 H 0.75829 0.31608 0.14321 0.0
H529 H 0.72516 0.38281 0.14208 0.0
H530 H 0.76758 0.34597 0.10839 0.0
H531 H 0.71651 0.35225 0.17637 0.0
H532 H 0.70479 0.4434 0.12572 0.0
H533 H 0.70661 0.45727 0.05077 0.0
H534 H 0.88838 0.44499 0.1235 0.0
H535 H 0.83022 0.42694 0.1801 0.0
H536 H 0.76613 0.3556 0.03166 0.0
H537 H 0.72098 0.3974 0.01707 0.0
H538 H 0.75443 0.33495 0.99188 0.0
H539 H 0.70999 0.37607 0.97747 0.0
H540 H 0.81278 0.37017 0.03237 0.0
H541 H 0.81565 0.3663 0.10786 0.0
H542 H 0.83832 0.3448 0.02981 0.0
H543 H 0.84111 0.34097 0.10387 0.0
H544 H 0.88195 0.44334 0.01601 0.0
H545 H 0.82347 0.45307 0.97353 0.0
H546 H 0.66649 0.28121 0.07201 0.0
H547 H 0.737 0.27084 0.06 0.0
Li548 Li 0.41385 0.78943 0.26421 0.0
Li549 Li 0.37169 0.7556 0.24692 0.0
Li550 Li 0.41625 0.75375 0.24299 0.0
Li551 Li 0.41018 0.79085 0.22315 0.0
C552 C 0.39384 0.74815 0.29493 0.0
N553 N 0.39514 0.74695 0.34336 0.0
C554 C 0.37768 0.75577 0.30812 0.0
C555 C 0.41041 0.73961 0.30629 0.0
C556 C 0.37872 0.75513 0.33262 0.0
C557 C 0.41083 0.73921 0.33083 0.0
C558 C 0.36865 0.80115 0.23508 0.0
C559 C 0.33878 0.79363 0.20195 0.0
N560 N 0.33095 0.81079 0.21174 0.0
C561 C 0.36027 0.81871 0.24479 0.0
C562 C 0.35776 0.78848 0.21348 0.0
C563 C 0.34121 0.82331 0.23273 0.0
C564 C 0.4236 0.83534 0.29068 0.0
N565 N 0.42896 0.8142 0.29051 0.0
C566 C 0.45716 0.83216 0.32479 0.0
C567 C 0.44528 0.81219 0.30721 0.0
C568 C 0.4518 0.85409 0.32535 0.0
C569 C 0.43462 0.85544 0.30813 0.0
H570 H 0.41115 0.83691 0.27699 0.0
H571 H 0.44955 0.79543 0.30668 0.0
C572 C 0.31949 0.70722 0.24175 0.0
N573 N 0.33274 0.73347 0.25006 0.0
C574 C 0.29091 0.69081 0.24422 0.0
C575 C 0.29022 0.72889 0.2635 0.0
C576 C 0.31879 0.74436 0.26104 0.0
C577 C 0.27595 0.70175 0.25506 0.0
H578 H 0.33117 0.699 0.23333 0.0
H579 H 0.32987 0.76501 0.26805 0.0
C580 C 0.46594 0.81119 0.25191 0.0
N581 N 0.5139 0.84674 0.27547 0.0
C582 C 0.47706 0.83967 0.24995 0.0
C583 C 0.47929 0.80079 0.26577 0.0
C584 C 0.50127 0.8573 0.26206 0.0
C585 C 0.50353 0.8191 0.27752 0.0
C586 C 0.38813 0.73982 0.19631 0.0
C587 C 0.41226 0.74273 0.18638 0.0
C588 C 0.36342 0.72633 0.18376 0.0
C589 C 0.41128 0.73216 0.16396 0.0
C590 C 0.36329 0.71608 0.16138 0.0
N591 N 0.38702 0.71917 0.15202 0.0
C592 C 0.41551 0.70289 0.24642 0.0
C593 C 0.45697 0.73998 0.23147 0.0
C594 C 0.42592 0.68493 0.2439 0.0
N595 N 0.43106 0.72979 0.24013 0.0
C596 C 0.46823 0.72286 0.22879 0.0
C597 C 0.45261 0.69484 0.23485 0.0
H598 H 0.3949 0.69533 0.25315 0.0
H599 H 0.46883 0.76143 0.22646 0.0
C600 C 0.42782 0.84227 0.20421 0.0
N601 N 0.42072 0.81628 0.19747 0.0
C602 C 0.43816 0.86372 0.18792 0.0
C603 C 0.43277 0.83119 0.15767 0.0
C604 C 0.42252 0.8103 0.17462 0.0
C605 C 0.44122 0.85844 0.16435 0.0
H606 H 0.42591 0.84643 0.22245 0.0
H607 H 0.41658 0.78956 0.16949 0.0
O608 O 0.39328 0.74884 0.27097 0.0
O609 O 0.38713 0.79629 0.24693 0.0
O610 O 0.44206 0.79358 0.24043 0.0
O611 O 0.3885 0.74967 0.21837 0.0
H612 H 0.36473 0.76238 0.29952 0.0
H613 H 0.42298 0.7336 0.29626 0.0
H614 H 0.36649 0.76117 0.34308 0.0
H615 H 0.42369 0.73281 0.3399 0.0
H616 H 0.33026 0.78397 0.18523 0.0
H617 H 0.36819 0.82852 0.26157 0.0
H618 H 0.36385 0.77487 0.20558 0.0
H619 H 0.33452 0.8368 0.2401 0.0
H620 H 0.47023 0.83039 0.33788 0.0
H621 H 0.43026 0.87223 0.30786 0.0
H622 H 0.28059 0.66991 0.23757 0.0
H623 H 0.27946 0.73786 0.27238 0.0
H624 H 0.46703 0.84809 0.23935 0.0
H625 H 0.47073 0.77883 0.2679 0.0
H626 H 0.51 0.87938 0.2608 0.0
H627 H 0.51395 0.81133 0.28843 0.0
H628 H 0.43162 0.75354 0.19567 0.0
H629 H 0.34453 0.72385 0.19123 0.0
H630 H 0.42983 0.7344 0.15601 0.0
H631 H 0.34432 0.70564 0.15144 0.0
H632 H 0.41295 0.66344 0.24848 0.0
H633 H 0.48901 0.73157 0.22206 0.0
H634 H 0.44391 0.88429 0.19379 0.0
H635 H 0.43491 0.82619 0.13971 0.0
H636 H 0.1397 0.57831 0.30909 0.0
H637 H 0.0974 0.62253 0.29009 0.0
H638 H 0.1386 0.65631 0.26784 0.0
H639 H 0.20218 0.63504 0.32095 0.0
H640 H 0.22306 0.62147 0.30966 0.0
H641 H 0.18895 0.59837 0.32042 0.0
H642 H 0.17563 0.57261 0.28057 0.0
H643 H 0.2099 0.59542 0.26972 0.0
H644 H 0.18041 0.5917 0.2538 0.0
H645 H 0.18684 0.68895 0.25328 0.0
H646 H 0.23688 0.71595 0.24502 0.0
H647 H 0.24717 0.64985 0.27344 0.0
C648 C 0.13887 0.59469 0.29967 0.0
C649 C 0.11543 0.59785 0.30115 0.0
C650 C 0.11506 0.6196 0.28884 0.0
C651 C 0.1384 0.6389 0.27629 0.0
C652 C 0.16167 0.63584 0.27603 0.0
C653 C 0.16186 0.61398 0.2871 0.0
C654 C 0.19 0.61642 0.28592 0.0
C655 C 0.20172 0.61793 0.3107 0.0
C656 C 0.18891 0.59262 0.27165 0.0
C657 C 0.20594 0.64355 0.27307 0.0
C658 C 0.18925 0.6544 0.26739 0.0
C659 C 0.19994 0.68037 0.25718 0.0
C660 C 0.22836 0.69561 0.25269 0.0
C661 C 0.24573 0.68479 0.25834 0.0
C662 C 0.23424 0.6583 0.26841 0.0
H663 H 0.58822 0.13521 0.4798 0.0
H664 H 0.50295 0.09088 0.45715 0.0
H665 H 0.51047 0.13175 0.4343 0.0
H666 H 0.59082 0.19694 0.49045 0.0
H667 H 0.62584 0.21861 0.48073 0.0
H668 H 0.61504 0.18468 0.49189 0.0
H669 H 0.63089 0.17213 0.45338 0.0
H670 H 0.64208 0.2062 0.44215 0.0
H671 H 0.61803 0.17638 0.42558 0.0
H672 H 0.5259 0.17957 0.41852 0.0
H673 H 0.54838 0.22932 0.4094 0.0
H674 H 0.62324 0.24216 0.44331 0.0
C675 C 0.57127 0.13389 0.4696 0.0
C676 C 0.545 0.1099 0.47018 0.0
C677 C 0.52331 0.10894 0.45668 0.0
C678 C 0.52739 0.13209 0.44377 0.0
C679 C 0.55332 0.15585 0.44442 0.0
C680 C 0.57497 0.15673 0.45678 0.0
C681 C 0.60015 0.18524 0.45633 0.0
C682 C 0.60843 0.19705 0.48133 0.0
C683 C 0.62421 0.18496 0.44359 0.0
C684 C 0.58915 0.20056 0.44225 0.0
C685 C 0.56216 0.18325 0.43539 0.0
C686 C 0.54714 0.19318 0.42349 0.0
C687 C 0.56001 0.22148 0.41853 0.0
C688 C 0.58761 0.23956 0.4255 0.0
C689 C 0.60234 0.22878 0.4373 0.0
H690 H 0.47839 0.58132 0.64227 0.0
H691 H 0.43276 0.49521 0.62242 0.0
H692 H 0.4006 0.50419 0.59922 0.0
H693 H 0.42248 0.58889 0.65261 0.0
H694 H 0.43721 0.62355 0.64152 0.0
H695 H 0.4593 0.61155 0.65288 0.0
H696 H 0.48631 0.62378 0.61364 0.0
H697 H 0.4646 0.63634 0.60223 0.0
H698 H 0.46792 0.61026 0.58646 0.0
H699 H 0.36943 0.52133 0.58383 0.0
H700 H 0.34367 0.54538 0.57532 0.0
H701 H 0.41098 0.62084 0.60419 0.0
C702 C 0.46208 0.56453 0.63246 0.0
C703 C 0.45804 0.5376 0.63399 0.0
C704 C 0.43638 0.51605 0.62116 0.0
C705 C 0.41798 0.52097 0.60806 0.0
C706 C 0.42184 0.5476 0.60778 0.0
C707 C 0.44367 0.56911 0.61935 0.0
C708 C 0.44211 0.59528 0.61802 0.0
C709 C 0.44015 0.60539 0.64272 0.0
C710 C 0.4667 0.61774 0.60426 0.0
C711 C 0.41548 0.58498 0.60455 0.0
C712 C 0.40415 0.5575 0.59866 0.0
C713 C 0.37848 0.54303 0.58782 0.0
C714 C 0.36403 0.55697 0.58295 0.0
C715 C 0.37526 0.58519 0.58886 0.0
C716 C 0.40158 0.5993 0.5995 0.0
H717 H 0.92504 0.41629 0.82591 0.0
H718 H 0.9605 0.48426 0.77654 0.0
H719 H 0.91902 0.45999 0.75147 0.0
H720 H 0.88744 0.36002 0.7816 0.0
H721 H 0.85877 0.34154 0.80131 0.0
H722 H 0.89311 0.36215 0.81289 0.0
H723 H 0.87611 0.38887 0.83858 0.0
H724 H 0.84191 0.36881 0.82679 0.0
H725 H 0.85965 0.40586 0.82474 0.0
H726 H 0.87072 0.4319 0.73557 0.0
H727 H 0.82125 0.4007 0.72822 0.0
H728 H 0.8179 0.35021 0.78746 0.0
C729 C 0.9244 0.42564 0.80944 0.0
C730 C 0.94597 0.45204 0.80303 0.0
C731 C 0.94437 0.46384 0.78152 0.0
C732 C 0.92082 0.45027 0.76728 0.0
C733 C 0.89932 0.42479 0.77468 0.0
C734 C 0.90115 0.41236 0.79505 0.0
C735 C 0.87448 0.38599 0.8001 0.0
C736 C 0.87871 0.36094 0.79889 0.0
C737 C 0.86233 0.38749 0.82396 0.0
C738 C 0.85695 0.38604 0.7799 0.0
C739 C 0.87166 0.40845 0.76533 0.0
C740 C 0.8592 0.4139 0.7465 0.0
C741 C 0.83103 0.39593 0.74242 0.0
C742 C 0.81551 0.37271 0.75709 0.0
C743 C 0.82894 0.36774 0.77593 0.0
H744 H 0.47794 0.91711 0.97274 0.0
H745 H 0.56602 0.95474 0.96219 0.0
H746 H 0.55871 0.91314 0.94059 0.0
H747 H 0.46558 0.85213 0.98522 0.0
H748 H 0.43278 0.83379 0.9705 0.0
H749 H 0.4445 0.86787 0.9817 0.0
H750 H 0.4395 0.88447 0.94045 0.0
H751 H 0.42721 0.85024 0.92915 0.0
H752 H 0.45636 0.87927 0.91563 0.0
H753 H 0.54187 0.86451 0.92595 0.0
H754 H 0.51718 0.81497 0.9166 0.0
H755 H 0.43966 0.81051 0.93467 0.0
C756 C 0.49559 0.91686 0.96524 0.0
C757 C 0.52252 0.93905 0.96891 0.0
C758 C 0.54523 0.93803 0.9592 0.0
C759 C 0.54124 0.91446 0.94705 0.0
C760 C 0.5144 0.89242 0.94452 0.0
C761 C 0.49193 0.8937 0.95297 0.0
C762 C 0.4654 0.86673 0.94946 0.0
C763 C 0.45125 0.85442 0.97312 0.0
C764 C 0.44598 0.87041 0.93266 0.0
C765 C 0.47646 0.8497 0.93834 0.0
C766 C 0.50472 0.86481 0.93557 0.0
C767 C 0.51965 0.8527 0.92745 0.0
C768 C 0.50534 0.82446 0.92205 0.0
C769 C 0.47627 0.80853 0.92464 0.0
C770 C 0.46182 0.82172 0.93259 0.0
H771 H 0.64109 0.52919 0.16175 0.0
H772 H 0.57692 0.50293 0.10907 0.0
H773 H 0.60195 0.4865 0.08405 0.0
H774 H 0.70029 0.54869 0.12112 0.0
H775 H 0.71578 0.53527 0.14101 0.0
H776 H 0.69545 0.54945 0.15236 0.0
H777 H 0.66472 0.50381 0.17467 0.0
H778 H 0.68458 0.4893 0.16312 0.0
H779 H 0.64784 0.47188 0.15853 0.0
H780 H 0.63045 0.46664 0.06781 0.0
H781 H 0.66077 0.4471 0.06085 0.0
H782 H 0.70597 0.48629 0.12458 0.0
C783 C 0.63265 0.52063 0.14467 0.0
C784 C 0.6071 0.51737 0.1373 0.0
C785 C 0.59667 0.506 0.11489 0.0
C786 C 0.61068 0.49647 0.10065 0.0
C787 C 0.63516 0.49873 0.10902 0.0
C788 C 0.64622 0.5109 0.13041 0.0
C789 C 0.67128 0.50858 0.13654 0.0
C790 C 0.69724 0.5372 0.13782 0.0
C791 C 0.66682 0.49243 0.15957 0.0
C792 C 0.6722 0.49249 0.11559 0.0
C793 C 0.6514 0.48721 0.09978 0.0
C794 C 0.64715 0.47115 0.07983 0.0
C795 C 0.66455 0.4602 0.076 0.0
C796 C 0.68589 0.4652 0.0921 0.0
C797 C 0.68981 0.48188 0.11197 0.0
H798 H 0.41987 0.91851 0.496 0.0
H799 H 0.48876 0.95334 0.54444 0.0
H800 H 0.46515 0.91131 0.56899 0.0
H801 H 0.36444 0.87978 0.5405 0.0
H802 H 0.34582 0.85144 0.52052 0.0
H803 H 0.36612 0.886 0.50931 0.0
H804 H 0.39271 0.86972 0.48265 0.0
H805 H 0.37295 0.8353 0.49406 0.0
H806 H 0.41003 0.85319 0.49573 0.0
H807 H 0.43756 0.86262 0.58425 0.0
H808 H 0.40665 0.81305 0.59115 0.0
H809 H 0.35474 0.81068 0.53341 0.0
C810 C 0.42959 0.9176 0.51217 0.0
C811 C 0.45606 0.93917 0.51844 0.0
C812 C 0.4683 0.93721 0.53956 0.0
C813 C 0.45511 0.91335 0.55349 0.0
C814 C 0.42956 0.89188 0.54618 0.0
C815 C 0.4167 0.89404 0.52623 0.0
C816 C 0.39034 0.86738 0.52114 0.0
C817 C 0.36519 0.8714 0.52299 0.0
C818 C 0.39161 0.85572 0.49697 0.0
C819 C 0.39078 0.84953 0.5409 0.0
C820 C 0.41347 0.86403 0.55522 0.0
C821 C 0.41933 0.85126 0.57354 0.0
C822 C 0.40149 0.82302 0.57738 0.0
C823 C 0.3779 0.80771 0.56303 0.0
C824 C 0.37254 0.82147 0.5447 0.0
H825 H 0.5814 0.4713 0.68568 0.0
H826 H 0.49312 0.41678 0.68943 0.0
H827 H 0.50046 0.38212 0.7104 0.0
H828 H 0.5985 0.42254 0.67243 0.0
H829 H 0.62972 0.43665 0.68952 0.0
H830 H 0.61768 0.45893 0.67868 0.0
H831 H 0.61724 0.47598 0.72087 0.0
H832 H 0.62993 0.45422 0.73188 0.0
H833 H 0.59871 0.45126 0.74371 0.0
H834 H 0.51796 0.35072 0.72398 0.0
H835 H 0.54347 0.32675 0.73312 0.0
H836 H 0.62071 0.40349 0.72353 0.0
C837 C 0.56366 0.45247 0.69178 0.0
C838 C 0.53671 0.44668 0.68632 0.0
C839 C 0.51387 0.42167 0.69393 0.0
C840 C 0.5179 0.40188 0.70568 0.0
C841 C 0.54486 0.40775 0.70995 0.0
C842 C 0.56734 0.43273 0.70369 0.0
C843 C 0.59417 0.43327 0.70865 0.0
C844 C 0.61099 0.43813 0.68597 0.0
C845 C 0.611 0.45497 0.7274 0.0
C846 C 0.58333 0.40436 0.71794 0.0
C847 C 0.55487 0.38994 0.71855 0.0
C848 C 0.54026 0.36208 0.72431 0.0
C849 C 0.55508 0.34865 0.72965 0.0
C850 C 0.58438 0.36308 0.7295 0.0
C851 C 0.59845 0.3915 0.7238 0.0
H852 H 0.14223 0.58686 0.84116 0.0
H853 H 0.0961 0.50302 0.8672 0.0
H854 H 0.13652 0.5108 0.8908 0.0
H855 H 0.20299 0.58679 0.83197 0.0
H856 H 0.22546 0.62221 0.84022 0.0
H857 H 0.19169 0.61163 0.82879 0.0
H858 H 0.18005 0.6305 0.86599 0.0
H859 H 0.21396 0.64142 0.87747 0.0
H860 H 0.1839 0.61901 0.89459 0.0
H861 H 0.184 0.52607 0.90733 0.0
H862 H 0.23368 0.54785 0.91655 0.0
H863 H 0.24867 0.62099 0.87817 0.0
C864 C 0.14042 0.57027 0.8522 0.0
C865 C 0.11601 0.54433 0.85238 0.0
C866 C 0.11445 0.52317 0.86705 0.0
C867 C 0.13737 0.52738 0.8804 0.0
C868 C 0.16152 0.55291 0.87899 0.0
C869 C 0.16305 0.57407 0.86541 0.0
C870 C 0.19191 0.59872 0.86517 0.0
C871 C 0.20369 0.60519 0.84006 0.0
C872 C 0.19248 0.6239 0.87649 0.0
C873 C 0.20667 0.58793 0.88028 0.0
C874 C 0.18879 0.56158 0.88828 0.0
C875 C 0.19809 0.54682 0.90142 0.0
C876 C 0.22636 0.55928 0.90641 0.0
C877 C 0.24505 0.58619 0.89819 0.0
C878 C 0.23487 0.60067 0.88516 0.0
H879 H 0.64183 0.13105 0.99583 0.0
H880 H 0.57181 0.0952 0.04304 0.0
H881 H 0.59412 0.13749 0.06744 0.0
H882 H 0.69606 0.17135 0.04018 0.0
H883 H 0.7142 0.1996 0.02 0.0
H884 H 0.69479 0.16484 0.00907 0.0
H885 H 0.66738 0.17963 0.98181 0.0
H886 H 0.68631 0.21426 0.99288 0.0
H887 H 0.64921 0.19553 0.9944 0.0
H888 H 0.62145 0.18651 0.08318 0.0
H889 H 0.65263 0.23627 0.09048 0.0
H890 H 0.70346 0.2396 0.03168 0.0
C891 C 0.63155 0.13181 0.01168 0.0
C892 C 0.60518 0.1099 0.01765 0.0
C893 C 0.59222 0.11164 0.0384 0.0
C894 C 0.60467 0.13564 0.05223 0.0
C895 C 0.63012 0.15748 0.04513 0.0
C896 C 0.64356 0.15554 0.02549 0.0
C897 C 0.66949 0.1825 0.02029 0.0
C898 C 0.69515 0.17938 0.02253 0.0
C899 C 0.66798 0.19362 0.99591 0.0
C900 C 0.66831 0.20022 0.03973 0.0
C901 C 0.6456 0.18549 0.054 0.0
C902 C 0.6395 0.19811 0.07232 0.0
C903 C 0.65718 0.22642 0.0762 0.0
C904 C 0.68063 0.2418 0.06179 0.0
C905 C 0.68611 0.22834 0.04338 0.0
H906 H 0.528 0.63095 0.16188 0.0
H907 H 0.50055 0.5659 0.21384 0.0
H908 H 0.48316 0.59041 0.23863 0.0
H909 H 0.54628 0.68924 0.20222 0.0
H910 H 0.53317 0.70486 0.18216 0.0
H911 H 0.54744 0.68455 0.171 0.0
H912 H 0.50206 0.65389 0.1483 0.0
H913 H 0.48751 0.67381 0.15959 0.0
H914 H 0.46991 0.63706 0.16414 0.0
H915 H 0.46386 0.61976 0.25517 0.0
H916 H 0.44623 0.65168 0.26271 0.0
H917 H 0.48408 0.695 0.19793 0.0
C918 C 0.51886 0.62212 0.17873 0.0
C919 C 0.51556 0.59653 0.18598 0.0
C920 C 0.50354 0.58565 0.20811 0.0
C921 C 0.49348 0.59935 0.22219 0.0
C922 C 0.49582 0.62391 0.21387 0.0
C923 C 0.50849 0.63527 0.1927 0.0
C924 C 0.50634 0.66035 0.18646 0.0
C925 C 0.53501 0.68628 0.18541 0.0
C926 C 0.49051 0.656 0.16326 0.0
C927 C 0.48999 0.66119 0.20722 0.0
C928 C 0.4843 0.64023 0.22299 0.0
C929 C 0.46845 0.63638 0.24303 0.0
C930 C 0.45831 0.65447 0.24704 0.0
C931 C 0.46386 0.67602 0.23099 0.0
C932 C 0.47996 0.67924 0.21087 0.0
H933 H 0.92092 0.52176 0.32286 0.0
H934 H 0.96089 0.50134 0.37823 0.0
H935 H 0.9193 0.48525 0.40308 0.0
H936 H 0.87933 0.54128 0.35978 0.0
H937 H 0.85037 0.52507 0.34003 0.0
H938 H 0.88495 0.53954 0.3288 0.0
H939 H 0.87202 0.49248 0.30995 0.0
H940 H 0.83756 0.4778 0.32128 0.0
H941 H 0.85807 0.46213 0.32817 0.0
H942 H 0.87089 0.46657 0.41992 0.0
H943 H 0.82125 0.44797 0.42741 0.0
H944 H 0.81287 0.47683 0.35875 0.0
C945 C 0.92117 0.51433 0.34037 0.0
C946 C 0.94413 0.51271 0.34858 0.0
C947 C 0.94367 0.50308 0.37168 0.0
C948 C 0.92006 0.49374 0.38584 0.0
C949 C 0.89722 0.49427 0.37662 0.0
C950 C 0.89775 0.50451 0.35442 0.0
C951 C 0.8699 0.50039 0.34744 0.0
C952 C 0.87123 0.52823 0.34381 0.0
C953 C 0.85874 0.48211 0.32542 0.0
C954 C 0.85333 0.48578 0.36901 0.0
C955 C 0.86941 0.48272 0.38582 0.0
C956 C 0.85819 0.46902 0.40691 0.0
C957 C 0.82986 0.45826 0.41089 0.0
C958 C 0.81293 0.4609 0.39373 0.0
C959 C 0.8251 0.47492 0.37255 0.0
H960 H 0.12589 0.55887 0.37188 0.0
H961 H 0.05842 0.56764 0.39934 0.0
H962 H 0.07912 0.57583 0.439 0.0
H963 H 0.1381 0.52771 0.42483 0.0
H964 H 0.17491 0.54687 0.42064 0.0
H965 H 0.15221 0.53692 0.39561 0.0
H966 H 0.17581 0.58796 0.38236 0.0
H967 H 0.19826 0.59815 0.40748 0.0
H968 H 0.17715 0.61356 0.40233 0.0
H969 H 0.11034 0.5891 0.47431 0.0
H970 H 0.14835 0.60445 0.50286 0.0
H971 H 0.19614 0.58841 0.45177 0.0
C972 C 0.11515 0.56198 0.38632 0.0
C973 C 0.09052 0.56262 0.38252 0.0
C974 C 0.07708 0.56666 0.40189 0.0
C975 C 0.08879 0.57151 0.42444 0.0
C976 C 0.11382 0.57208 0.42729 0.0
C977 C 0.12668 0.56713 0.40877 0.0
C978 C 0.15455 0.57124 0.41586 0.0
C979 C 0.15495 0.54406 0.41414 0.0
C980 C 0.1778 0.59408 0.40114 0.0
C981 C 0.15578 0.58004 0.44115 0.0
C982 C 0.13197 0.58009 0.44749 0.0
C983 C 0.12885 0.58867 0.46965 0.0
C984 C 0.15056 0.5973 0.48577 0.0
C985 C 0.17519 0.59745 0.47964 0.0
C986 C 0.17766 0.58862 0.45699 0.0
H987 H 0.59408 0.12049 0.54022 0.0
H988 H 0.51984 0.05136 0.5687 0.0
H989 H 0.53323 0.07166 0.60841 0.0
H990 H 0.63958 0.13469 0.59198 0.0
H991 H 0.65543 0.17139 0.58779 0.0
H992 H 0.6429 0.14861 0.56283 0.0
H993 H 0.61291 0.16989 0.55069 0.0
H994 H 0.62502 0.19244 0.57571 0.0
H995 H 0.58856 0.1699 0.57139 0.0
H996 H 0.55201 0.10246 0.64412 0.0
H997 H 0.5741 0.14099 0.67246 0.0
H998 H 0.63361 0.19137 0.61944 0.0
C999 C 0.5808 0.10931 0.55484 0.0
C1000 C 0.55585 0.08432 0.55131 0.0
C1001 C 0.53924 0.0703 0.57098 0.0
C1002 C 0.54662 0.08178 0.59359 0.0
C1003 C 0.57066 0.10721 0.59618 0.0
C1004 C 0.58756 0.12071 0.5773 0.0
C1005 C 0.61054 0.1491 0.58403 0.0
C1006 C 0.63879 0.15105 0.58151 0.0
C1007 C 0.60915 0.17165 0.5696 0.0
C1008 C 0.60349 0.14991 0.60953 0.0
C1009 C 0.58079 0.12536 0.61638 0.0
C1010 C 0.56997 0.12163 0.639 0.0
C1011 C 0.58262 0.14358 0.65496 0.0
C1012 C 0.6055 0.16905 0.64806 0.0
C1013 C 0.61609 0.17211 0.6251 0.0
H1014 H 0.49756 0.58552 0.70704 0.0
H1015 H 0.47691 0.50436 0.73221 0.0
H1016 H 0.46613 0.51576 0.77131 0.0
H1017 H 0.52649 0.62329 0.76343 0.0
H1018 H 0.51193 0.64518 0.75845 0.0
H1019 H 0.52228 0.63216 0.73388 0.0
H1020 H 0.47323 0.61156 0.7163 0.0
H1021 H 0.46259 0.62412 0.74091 0.0
H1022 H 0.44391 0.58799 0.73364 0.0
H1023 H 0.45077 0.53328 0.80533 0.0
H1024 H 0.43566 0.55705 0.83305 0.0
H1025 H 0.46649 0.62697 0.78579 0.0
C1026 C 0.49146 0.57042 0.72098 0.0
C1027 C 0.48815 0.54408 0.71667 0.0
C1028 C 0.47998 0.52479 0.73526 0.0
C1029 C 0.47366 0.53104 0.75747 0.0
C1030 C 0.47598 0.55679 0.76081 0.0
C1031 C 0.48513 0.57635 0.74318 0.0
C1032 C 0.48385 0.60164 0.75066 0.0
C1033 C 0.51287 0.62707 0.75167 0.0
C1034 C 0.46476 0.6066 0.73441 0.0
C1035 C 0.47165 0.5929 0.77498 0.0
C1036 C 0.46739 0.56702 0.78055 0.0
C1037 C 0.45448 0.55374 0.80134 0.0
C1038 C 0.44577 0.56728 0.81687 0.0
C1039 C 0.45004 0.59384 0.81154 0.0
C1040 C 0.4634 0.60687 0.79043 0.0
H1041 H 0.95518 0.44964 0.89319 0.0
H1042 H 0.97653 0.53341 0.8766 0.0
H1043 H 0.94894 0.53363 0.91058 0.0
H1044 H 0.88774 0.42565 0.90749 0.0
H1045 H 0.88586 0.40379 0.93151 0.0
H1046 H 0.91041 0.41148 0.90828 0.0
H1047 H 0.95044 0.43046 0.93837 0.0
H1048 H 0.92594 0.42223 0.96183 0.0
H1049 H 0.95452 0.45682 0.9588 0.0
H1050 H 0.91294 0.52163 0.94218 0.0
H1051 H 0.87655 0.50073 0.97269 0.0
H1052 H 0.8808 0.42568 0.96973 0.0
C1053 C 0.95486 0.46834 0.89736 0.0
C1054 C 0.96819 0.49168 0.8827 0.0
C1055 C 0.96686 0.51561 0.88806 0.0
C1056 C 0.95109 0.51579 0.90716 0.0
C1057 C 0.93724 0.49201 0.92081 0.0
C1058 C 0.93956 0.46895 0.91649 0.0
C1059 C 0.92155 0.44555 0.93293 0.0
C1060 C 0.90013 0.42013 0.91923 0.0
C1061 C 0.93917 0.43835 0.94894 0.0
C1062 C 0.90802 0.45868 0.94669 0.0
C1063 C 0.91722 0.48545 0.93942 0.0
C1064 C 0.90605 0.50093 0.94837 0.0
C1065 C 0.88529 0.48889 0.96549 0.0
C1066 C 0.87623 0.46181 0.97355 0.0
C1067 C 0.88777 0.4466 0.96403 0.0
H1068 H 0.46984 0.92751 0.0377 0.0
H1069 H 0.54337 0.99695 0.06677 0.0
H1070 H 0.52888 0.97726 0.10654 0.0
H1071 H 0.42306 0.91539 0.08798 0.0
H1072 H 0.40664 0.87852 0.08471 0.0
H1073 H 0.42036 0.90053 0.05934 0.0
H1074 H 0.44985 0.878 0.04954 0.0
H1075 H 0.43654 0.8562 0.07498 0.0
H1076 H 0.47321 0.87802 0.07135 0.0
H1077 H 0.50938 0.94711 0.14229 0.0
H1078 H 0.48616 0.90962 0.17123 0.0
H1079 H 0.4263 0.85904 0.11838 0.0
C1080 C 0.48273 0.93885 0.05245 0.0
C1081 C 0.50778 0.96382 0.04907 0.0
C1082 C 0.52389 0.97805 0.06891 0.0
C1083 C 0.5159 0.96692 0.09156 0.0
C1084 C 0.4917 0.94164 0.09407 0.0
C1085 C 0.47524 0.9279 0.07505 0.0
C1086 C 0.45163 0.89992 0.08202 0.0
C1087 C 0.42377 0.89852 0.07829 0.0
C1088 C 0.45291 0.87668 0.06868 0.0
C1089 C 0.45777 0.89967 0.10786 0.0
C1090 C 0.48073 0.92406 0.11456 0.0
C1091 C 0.49111 0.92813 0.13733 0.0
C1092 C 0.47771 0.90671 0.15367 0.0
C1093 C 0.45427 0.88142 0.14714 0.0
C1094 C 0.44418 0.87807 0.12392 0.0
H1095 H 0.6123 0.52626 0.22328 0.0
H1096 H 0.52389 0.47404 0.21657 0.0
H1097 H 0.52329 0.44861 0.2525 0.0
H1098 H 0.62649 0.47549 0.23905 0.0
H1099 H 0.65355 0.49586 0.25966 0.0
H1100 H 0.64646 0.51238 0.23574 0.0
H1101 H 0.63916 0.54362 0.26497 0.0
H1102 H 0.64675 0.52756 0.28903 0.0
H1103 H 0.61488 0.52816 0.28871 0.0
H1104 H 0.53384 0.42501 0.28579 0.0
H1105 H 0.55378 0.40832 0.31613 0.0
H1106 H 0.63517 0.47682 0.30084 0.0
C1107 C 0.59272 0.50999 0.22983 0.0
C1108 C 0.56809 0.50212 0.21741 0.0
C1109 C 0.54286 0.48055 0.22615 0.0
C1110 C 0.54241 0.46594 0.2464 0.0
C1111 C 0.56732 0.47351 0.25774 0.0
C1112 C 0.59193 0.49542 0.24998 0.0
C1113 C 0.61608 0.49852 0.26428 0.0
C1114 C 0.63685 0.49536 0.24875 0.0
C1115 C 0.63003 0.5261 0.27754 0.0
C1116 C 0.60139 0.47449 0.28096 0.0
C1117 C 0.57328 0.46027 0.27697 0.0
C1118 C 0.55575 0.43628 0.28932 0.0
C1119 C 0.56725 0.42683 0.30635 0.0
C1120 C 0.59594 0.44143 0.31089 0.0
C1121 C 0.6131 0.46555 0.29801 0.0
H1122 H 0.44837 0.94414 0.4316 0.0
H1123 H 0.53655 0.97869 0.43871 0.0
H1124 H 0.53691 0.95394 0.4027 0.0
H1125 H 0.43291 0.87907 0.41524 0.0
H1126 H 0.40631 0.87328 0.3944 0.0
H1127 H 0.41356 0.89668 0.41849 0.0
H1128 H 0.42213 0.93589 0.38953 0.0
H1129 H 0.41437 0.91246 0.36529 0.0
H1130 H 0.44665 0.94449 0.36601 0.0
H1131 H 0.52606 0.91987 0.36947 0.0
H1132 H 0.50586 0.88355 0.33892 0.0
H1133 H 0.42501 0.87264 0.35334 0.0
C1134 C 0.46785 0.94713 0.42509 0.0
C1135 C 0.49248 0.9634 0.43765 0.0
C1136 C 0.51759 0.96662 0.429 0.0
C1137 C 0.51791 0.95251 0.40871 0.0
C1138 C 0.49301 0.93569 0.39721 0.0
C1139 C 0.46853 0.93345 0.40485 0.0
C1140 C 0.44436 0.91297 0.39027 0.0
C1141 C 0.42305 0.8891 0.40551 0.0
C1142 C 0.4311 0.92732 0.37698 0.0
C1143 C 0.45886 0.90336 0.37364 0.0
C1144 C 0.48691 0.91665 0.37788 0.0
C1145 C 0.50422 0.90974 0.3657 0.0
C1146 C 0.49258 0.88898 0.34856 0.0
C1147 C 0.46398 0.87557 0.34372 0.0
C1148 C 0.44702 0.88295 0.35643 0.0
H1149 H 0.53438 0.43942 0.60339 0.0
H1150 H 0.57376 0.52853 0.60226 0.0
H1151 H 0.59758 0.52952 0.56522 0.0
H1152 H 0.59147 0.4353 0.5858 0.0
H1153 H 0.57261 0.40472 0.56821 0.0
H1154 H 0.55605 0.41086 0.59266 0.0
H1155 H 0.51731 0.40708 0.56529 0.0
H1156 H 0.53351 0.40047 0.54077 0.0
H1157 H 0.52626 0.42838 0.53939 0.0
H1158 H 0.62068 0.5205 0.53051 0.0
H1159 H 0.63919 0.50241 0.50028 0.0
H1160 H 0.58416 0.41919 0.52488 0.0
C1161 C 0.5477 0.45914 0.59514 0.0
C1162 C 0.55233 0.48393 0.60564 0.0
C1163 C 0.56977 0.50931 0.59433 0.0
C1164 C 0.58345 0.51004 0.5734 0.0
C1165 C 0.57919 0.48519 0.564 0.0
C1166 C 0.56144 0.4602 0.57441 0.0
C1167 C 0.56144 0.43649 0.56175 0.0
C1168 C 0.57097 0.42094 0.57808 0.0
C1169 C 0.53294 0.41696 0.55117 0.0
C1170 C 0.58248 0.45202 0.54283 0.0
C1171 C 0.59239 0.48006 0.54425 0.0
C1172 C 0.61276 0.49855 0.52905 0.0
C1173 C 0.62311 0.48807 0.51191 0.0
C1174 C 0.61315 0.45936 0.51017 0.0
C1175 C 0.59248 0.44125 0.52586 0.0
H1176 H 0.12479 0.59158 0.77989 0.0
H1177 H 0.05915 0.51302 0.75451 0.0
H1178 H 0.07957 0.52426 0.71474 0.0
H1179 H 0.13507 0.63198 0.72491 0.0
H1180 H 0.17189 0.65102 0.72901 0.0
H1181 H 0.14933 0.63896 0.75415 0.0
H1182 H 0.17461 0.61387 0.76937 0.0
H1183 H 0.19701 0.62554 0.74421 0.0
H1184 H 0.1771 0.58924 0.75068 0.0
H1185 H 0.11069 0.54099 0.67953 0.0
H1186 H 0.14892 0.56274 0.65103 0.0
H1187 H 0.19509 0.62971 0.69988 0.0
C1188 C 0.11435 0.57699 0.76584 0.0
C1189 C 0.09034 0.55143 0.77027 0.0
C1190 C 0.0773 0.53289 0.75145 0.0
C1191 C 0.08884 0.53906 0.72883 0.0
C1192 C 0.11326 0.56392 0.72535 0.0
C1193 C 0.12568 0.58274 0.74329 0.0
C1194 C 0.1531 0.60676 0.73563 0.0
C1195 C 0.15228 0.63378 0.73594 0.0
C1196 C 0.17684 0.60896 0.75087 0.0
C1197 C 0.15466 0.59808 0.71079 0.0
C1198 C 0.13134 0.57347 0.7051 0.0
C1199 C 0.12884 0.56045 0.68367 0.0
C1200 C 0.15076 0.57284 0.66769 0.0
C1201 C 0.17495 0.59792 0.67325 0.0
C1202 C 0.17667 0.6108 0.69499 0.0
H1203 H 0.56801 0.11894 0.94543 0.0
H1204 H 0.58183 0.05421 0.91909 0.0
H1205 H 0.59095 0.07532 0.87949 0.0
H1206 H 0.53762 0.12954 0.89117 0.0
H1207 H 0.5549 0.16627 0.89567 0.0
H1208 H 0.54487 0.14334 0.92055 0.0
H1209 H 0.59532 0.16911 0.93549 0.0
H1210 H 0.60561 0.1918 0.91053 0.0
H1211 H 0.6225 0.17222 0.91653 0.0
H1212 H 0.60392 0.1067 0.8441 0.0
H1213 H 0.61837 0.14479 0.81561 0.0
H1214 H 0.59802 0.1899 0.86603 0.0
C1215 C 0.57243 0.10888 0.93122 0.0
C1216 C 0.57422 0.08493 0.9353 0.0
C1217 C 0.57997 0.07234 0.91627 0.0
C1218 C 0.58534 0.08429 0.89378 0.0
C1219 C 0.58467 0.10867 0.89067 0.0
C1220 C 0.57808 0.12065 0.90886 0.0
C1221 C 0.58098 0.14798 0.90163 0.0
C1222 C 0.55292 0.14669 0.90229 0.0
C1223 C 0.60238 0.17166 0.91695 0.0
C1224 C 0.59111 0.15002 0.8767 0.0
C1225 C 0.5927 0.12698 0.87056 0.0
C1226 C 0.60237 0.12464 0.84863 0.0
C1227 C 0.61051 0.14635 0.83257 0.0
C1228 C 0.60923 0.17023 0.83861 0.0
C1229 C 0.59933 0.17195 0.86097 0.0
H1230 H 0.52058 0.60922 0.10647 0.0
H1231 H 0.49701 0.52373 0.09442 0.0
H1232 H 0.4783 0.52579 0.05547 0.0
H1233 H 0.45953 0.60306 0.08515 0.0
H1234 H 0.47543 0.63719 0.07272 0.0
H1235 H 0.49102 0.63033 0.09751 0.0
H1236 H 0.53672 0.64848 0.0744 0.0
H1237 H 0.52139 0.6557 0.04957 0.0
H1238 H 0.53644 0.63401 0.04605 0.0
H1239 H 0.45921 0.53689 0.01875 0.0
H1240 H 0.44057 0.55536 0.98865 0.0
H1241 H 0.4726 0.63148 0.02783 0.0
C1242 C 0.51162 0.59086 0.09567 0.0
C1243 C 0.51008 0.56621 0.10363 0.0
C1244 C 0.49867 0.54292 0.08865 0.0
C1245 C 0.48786 0.54388 0.06656 0.0
C1246 C 0.48861 0.56823 0.05982 0.0
C1247 C 0.50025 0.59128 0.07403 0.0
C1248 C 0.49645 0.61418 0.06405 0.0
C1249 C 0.47961 0.62161 0.08086 0.0
C1250 C 0.52442 0.63959 0.05816 0.0
C1251 C 0.48043 0.60037 0.04207 0.0
C1252 C 0.4765 0.57406 0.03963 0.0
C1253 C 0.46222 0.55744 0.02052 0.0
C1254 C 0.45171 0.56802 0.00358 0.0
C1255 C 0.45509 0.59464 0.00621 0.0
C1256 C 0.46963 0.61096 0.02564 0.0
H1257 H 0.93558 0.46139 0.27865 0.0
H1258 H 1.00215 0.5382 0.25128 0.0
H1259 H 0.98172 0.52542 0.21156 0.0
H1260 H 0.9241 0.4182 0.22552 0.0
H1261 H 0.88728 0.40016 0.22973 0.0
H1262 H 0.90997 0.41302 0.25475 0.0
H1263 H 0.88574 0.43984 0.26812 0.0
H1264 H 0.86331 0.42748 0.24301 0.0
H1265 H 0.88402 0.46399 0.24823 0.0
H1266 H 0.95049 0.50739 0.17634 0.0
H1267 H 0.91228 0.48485 0.14802 0.0
H1268 H 0.86542 0.42031 0.19884 0.0
C1269 C 0.94621 0.47528 0.26421 0.0
C1270 C 0.97048 0.5008 0.26805 0.0
C1271 C 0.98379 0.51836 0.24869 0.0
C1272 C 0.97222 0.51134 0.22611 0.0
C1273 C 0.94749 0.48663 0.22321 0.0
C1274 C 0.93481 0.46873 0.24171 0.0
C1275 C 0.9071 0.44479 0.2346 0.0
C1276 C 0.90713 0.41742 0.23624 0.0
C1277 C 0.88368 0.444 0.24937 0.0
C1278 C 0.90573 0.4524 0.20935 0.0
C1279 C 0.92935 0.47641 0.20301 0.0
C1280 C 0.93216 0.48829 0.18096 0.0
C1281 C 0.91033 0.47526 0.16496 0.0
C1282 C 0.88588 0.45063 0.17109 0.0
C1283 C 0.88376 0.4391 0.1936 0.0
loop_
_geom_bond_atom_site_label_1
_geom_bond_atom_site_label_2
_geom_bond_distance
_geom_bond_site_symmetry_2
_ccdc_geom_bond_type
H0 C6 0.930 . S
H1 C9 0.931 . S
H2 C11 0.931 . S
H3 C13 0.930 . S
H4 C15 0.930 . S
H5 C17 0.931 1_455 S
C6 H0 0.930 . S
C6 C7 1.380 . S
C6 C8 1.394 . S
C7 C6 1.380 . S
C7 C11 1.382 . S
C8 C6 1.394 . S
C8 C9 1.400 . S
C9 H1 0.931 . S
C9 C8 1.400 . S
C9 C10 1.375 . S
C10 C9 1.375 . S
C10 C11 1.415 . S
C10 C12 1.512 . S
C11 H2 0.931 . S
C11 C7 1.382 . S
C11 C10 1.415 . S
C12 C10 1.512 . S
C12 C13 1.375 1_455 S
C12 C17 1.406 1_455 S
C13 H3 0.930 . S
C13 C12 1.375 1_655 S
C13 C14 1.389 . S
C14 C13 1.389 . S
C14 C15 1.405 . S
C15 H4 0.930 . S
C15 C14 1.405 . S
C15 C16 1.364 . S
C16 C15 1.364 . S
C16 C17 1.400 . S
C17 H5 0.931 1_655 S
C17 C12 1.406 1_655 S
C17 C16 1.400 . S
H18 C24 0.930 . S
H19 C27 0.931 . S
H20 C29 0.931 . S
H21 C31 0.930 . S
H22 C33 0.930 . S
H23 C35 0.931 1_545 S
C24 H18 0.930 . S
C24 C25 1.380 . S
C24 C26 1.394 . S
C25 C24 1.380 . S
C25 C29 1.382 . S
C26 C24 1.394 . S
C26 C27 1.400 . S
C27 H19 0.931 . S
C27 C26 1.400 . S
C27 C28 1.375 . S
C28 C27 1.375 . S
C28 C29 1.415 . S
C28 C30 1.505 . S
C29 H20 0.931 . S
C29 C25 1.382 . S
C29 C28 1.415 . S
C30 C28 1.505 . S
C30 C31 1.381 1_545 S
C30 C35 1.406 1_545 S
C31 H21 0.930 . S
C31 C30 1.381 1_565 S
C31 C32 1.389 . S
C32 C31 1.389 . S
C32 C33 1.405 . S
C33 H22 0.930 . S
C33 C32 1.405 . S
C33 C34 1.364 . S
C34 C33 1.364 . S
C34 C35 1.400 . S
C35 H23 0.931 1_565 S
C35 C30 1.406 1_565 S
C35 C34 1.400 . S
H36 C42 0.930 . S
H37 C45 0.931 . S
H38 C47 0.931 . S
H39 C49 0.930 . S
H40 C51 0.930 . S
H41 C53 0.931 . S
C42 H36 0.930 . S
C42 C43 1.380 . S
C42 C44 1.394 . S
C43 C42 1.380 . S
C43 C47 1.382 . S
C44 C42 1.394 . S
C44 C45 1.400 . S
C45 H37 0.931 . S
C45 C44 1.400 . S
C45 C46 1.375 . S
C46 C45 1.375 . S
C46 C47 1.415 . S
C46 C48 1.501 . S
C47 H38 0.931 . S
C47 C43 1.382 . S
C47 C46 1.415 . S
C48 C46 1.501 . S
C48 C49 1.384 . S
C48 C53 1.408 . S
C49 H39 0.930 . S
C49 C48 1.384 . S
C49 C50 1.389 . S
C50 C49 1.389 . S
C50 C51 1.405 . S
C51 H40 0.930 . S
C51 C50 1.405 . S
C51 C52 1.364 . S
C52 C51 1.364 . S
C52 C53 1.400 . S
C53 H41 0.931 . S
C53 C48 1.408 . S
C53 C52 1.400 . S
H54 C60 0.930 . S
H55 C63 0.931 . S
H56 C65 0.931 . S
H57 C67 0.930 . S
H58 C69 0.930 . S
H59 C71 0.931 1_455 S
C60 H54 0.930 . S
C60 C61 1.380 . S
C60 C62 1.394 . S
C61 C60 1.380 . S
C61 C65 1.382 . S
C62 C60 1.394 . S
C62 C63 1.400 . S
C63 H55 0.931 . S
C63 C62 1.400 . S
C63 C64 1.375 . S
C64 C63 1.375 . S
C64 C65 1.415 . S
C64 C66 1.511 . S
C65 H56 0.931 . S
C65 C61 1.382 . S
C65 C64 1.415 . S
C66 C64 1.511 . S
C66 C67 1.377 1_455 S
C66 C71 1.404 1_455 S
C67 H57 0.930 . S
C67 C66 1.377 1_655 S
C67 C68 1.389 . S
C68 C67 1.389 . S
C68 C69 1.405 . S
C69 H58 0.930 . S
C69 C68 1.405 . S
C69 C70 1.364 . S
C70 C69 1.364 . S
C70 C71 1.400 . S
C71 H59 0.931 1_655 S
C71 C66 1.404 1_655 S
C71 C70 1.400 . S
H72 C78 0.930 . S
H73 C81 0.931 . S
H74 C83 0.931 1_545 S
H75 C85 0.930 . S
H76 C87 0.930 . S
H77 C89 0.931 . S
C78 H72 0.930 . S
C78 C79 1.380 . S
C78 C80 1.394 1_554 S
C79 C78 1.380 . S
C79 C83 1.382 . S
C80 C78 1.394 1_556 S
C80 C81 1.400 . S
C81 H73 0.931 . S
C81 C80 1.400 . S
C81 C82 1.381 . S
C82 C81 1.381 . S
C82 C83 1.416 1_556 S
C82 C84 1.493 1_565 S
C83 H74 0.931 1_565 S
C83 C79 1.382 . S
C83 C82 1.416 1_554 S
C84 C82 1.493 1_545 S
C84 C85 1.384 1_556 S
C84 C89 1.408 . S
C85 H75 0.930 . S
C85 C84 1.384 1_554 S
C85 C86 1.382 1_554 S
C86 C85 1.382 1_556 S
C86 C87 1.431 . S
C87 H76 0.930 . S
C87 C86 1.431 . S
C87 C88 1.364 . S
C88 C87 1.364 . S
C88 C89 1.400 . S
C89 H77 0.931 . S
C89 C84 1.408 . S
C89 C88 1.400 . S
H90 C96 0.930 . S
H91 C99 0.931 . S
H92 C101 0.931 . S
H93 C103 0.930 . S
H94 C105 0.930 . S
H95 C107 0.931 . S
C96 H90 0.930 . S
C96 C97 1.380 . S
C96 C98 1.394 . S
C97 C96 1.380 . S
C97 C101 1.382 . S
C98 C96 1.394 . S
C98 C99 1.400 . S
C99 H91 0.931 . S
C99 C98 1.400 . S
C99 C100 1.375 . S
C100 C99 1.375 . S
C100 C101 1.415 . S
C100 C102 1.501 . S
C101 H92 0.931 . S
C101 C97 1.382 . S
C101 C100 1.415 . S
C102 C100 1.501 . S
C102 C103 1.384 . S
C102 C107 1.408 . S
C103 H93 0.930 . S
C103 C102 1.384 . S
C103 C104 1.389 . S
C104 C103 1.389 . S
C104 C105 1.405 . S
C105 H94 0.930 . S
C105 C104 1.405 . S
C105 C106 1.364 . S
C106 C105 1.364 . S
C106 C107 1.400 . S
C107 H95 0.931 . S
C107 C102 1.408 . S
C107 C106 1.400 . S
Li108 N125 1.990 . S
Li108 O168 1.956 . S
Li108 O169 1.970 . S
Li108 O170 1.961 . S
Li109 N133 1.990 . S
Li109 O168 1.970 . S
Li109 O169 1.956 . S
Li109 O171 1.961 . S
Li110 N155 1.990 . S
Li110 O168 1.961 . S
Li110 O170 1.956 . S
Li110 O171 1.970 . S
Li111 N161 1.990 . S
Li111 O169 1.961 . S
Li111 O170 1.970 . S
Li111 O171 1.956 . S
C112 C114 1.348 . S
C112 C115 1.356 . S
C112 O168 1.325 . S
N113 C116 1.314 . S
N113 C117 1.279 . S
C114 C112 1.348 . S
C114 C116 1.353 . S
C114 H172 0.929 . S
C115 C112 1.356 . S
C115 C117 1.358 . S
C115 H173 0.930 . S
C116 N113 1.314 . S
C116 C114 1.353 . S
C116 H174 0.930 . S
C117 N113 1.279 . S
C117 C115 1.358 . S
C117 H175 0.930 . S
C118 C121 1.348 . S
C118 C122 1.356 . S
C118 O169 1.325 . S
C119 N120 1.279 . S
C119 C122 1.358 . S
C119 H176 0.930 . S
N120 C119 1.279 . S
N120 C123 1.314 . S
C121 C118 1.348 . S
C121 C123 1.353 . S
C121 H177 0.929 . S
C122 C118 1.356 . S
C122 C119 1.358 . S
C122 H178 0.930 . S
C123 N120 1.314 . S
C123 C121 1.353 . S
C123 H179 0.930 . S
C124 N125 1.314 . S
C124 C129 1.353 . S
C124 H130 0.930 . S
N125 Li108 1.990 . S
N125 C124 1.314 . S
N125 C127 1.279 . S
C126 C127 1.358 . S
C126 C128 1.356 . S
C126 H180 0.930 . S
C127 N125 1.279 . S
C127 C126 1.358 . S
C127 H131 0.930 . S
C128 C126 1.356 . S
C128 C129 1.348 . S
C129 C124 1.353 . S
C129 C128 1.348 . S
C129 H181 0.929 . S
H130 C124 0.930 . S
H131 C127 0.930 . S
C132 N133 1.314 . S
C132 C134 1.353 . S
C132 H138 0.930 . S
N133 Li109 1.990 . S
N133 C132 1.314 . S
N133 C136 1.279 . S
C134 C132 1.353 . S
C134 C137 1.348 . S
C134 H182 0.929 . S
C135 C136 1.358 . S
C135 C137 1.356 . S
C135 H183 0.930 . S
C136 N133 1.279 . S
C136 C135 1.358 . S
C136 H139 0.930 . S
C137 C134 1.348 . S
C137 C135 1.356 . S
H138 C132 0.930 . S
H139 C136 0.930 . S
C140 C142 1.348 . S
C140 C143 1.356 . S
C140 O170 1.325 . S
N141 C144 1.314 . S
N141 C145 1.279 . S
C142 C140 1.348 . S
C142 C144 1.353 . S
C142 H184 0.929 . S
C143 C140 1.356 . S
C143 C145 1.358 . S
C143 H185 0.930 . S
C144 N141 1.314 . S
C144 C142 1.353 . S
C144 H186 0.930 . S
C145 N141 1.279 . S
C145 C143 1.358 . S
C145 H187 0.930 . S
C146 C147 1.348 . S
C146 C148 1.356 . S
C146 O171 1.325 . S
C147 C146 1.348 . S
C147 C149 1.353 . S
C147 H188 0.929 . S
C148 C146 1.356 . S
C148 C150 1.358 . S
C148 H189 0.930 . S
C149 C147 1.353 . S
C149 N151 1.314 . S
C149 H190 0.930 . S
C150 C148 1.358 . S
C150 N151 1.279 . S
C150 H191 0.930 . S
N151 C149 1.314 . S
N151 C150 1.279 . S
C152 C154 1.353 . S
C152 N155 1.314 . S
C152 H158 0.930 . S
C153 N155 1.279 . S
C153 C156 1.358 . S
C153 H159 0.930 . S
C154 C152 1.353 . S
C154 C157 1.348 . S
C154 H192 0.929 . S
N155 Li110 1.990 . S
N155 C152 1.314 . S
N155 C153 1.279 . S
C156 C153 1.358 . S
C156 C157 1.356 . S
C156 H193 0.930 . S
C157 C154 1.348 . S
C157 C156 1.356 . S
H158 C152 0.930 . S
H159 C153 0.930 . S
C160 N161 1.314 . S
C160 C162 1.353 . S
C160 H166 0.930 . S
N161 Li111 1.990 . S
N161 C160 1.314 . S
N161 C164 1.279 . S
C162 C160 1.353 . S
C162 C165 1.348 . S
C162 H194 0.929 . S
C163 C164 1.358 . S
C163 C165 1.356 . S
C163 H195 0.930 . S
C164 N161 1.279 . S
C164 C163 1.358 . S
C164 H167 0.930 . S
C165 C162 1.348 . S
C165 C163 1.356 . S
H166 C160 0.930 . S
H167 C164 0.930 . S
O168 Li108 1.956 . S
O168 Li109 1.970 . S
O168 Li110 1.961 . S
O168 C112 1.325 . S
O169 Li108 1.970 . S
O169 Li109 1.956 . S
O169 Li111 1.961 . S
O169 C118 1.325 . S
O170 Li108 1.961 . S
O170 Li110 1.956 . S
O170 Li111 1.970 . S
O170 C140 1.325 . S
O171 Li109 1.961 . S
O171 Li110 1.970 . S
O171 Li111 1.956 . S
O171 C146 1.325 . S
H172 C114 0.929 . S
H173 C115 0.930 . S
H174 C116 0.930 . S
H175 C117 0.930 . S
H176 C119 0.930 . S
H177 C121 0.929 . S
H178 C122 0.930 . S
H179 C123 0.930 . S
H180 C126 0.930 . S
H181 C129 0.929 . S
H182 C134 0.929 . S
H183 C135 0.930 . S
H184 C142 0.929 . S
H185 C143 0.930 . S
H186 C144 0.930 . S
H187 C145 0.930 . S
H188 C147 0.929 . S
H189 C148 0.930 . S
H190 C149 0.930 . S
H191 C150 0.930 . S
H192 C154 0.929 . S
H193 C156 0.930 . S
H194 C162 0.929 . S
H195 C163 0.930 . S
Li196 N213 1.990 . S
Li196 O256 1.956 . S
Li196 O257 1.970 . S
Li196 O258 1.961 . S
Li197 N221 1.990 . S
Li197 O256 1.970 . S
Li197 O257 1.956 . S
Li197 O259 1.961 . S
Li198 N243 1.990 . S
Li198 O256 1.961 . S
Li198 O258 1.956 . S
Li198 O259 1.970 . S
Li199 N249 1.990 . S
Li199 O257 1.961 . S
Li199 O258 1.970 . S
Li199 O259 1.956 . S
C200 C202 1.348 . S
C200 C203 1.356 . S
C200 O256 1.325 . S
N201 C204 1.314 . S
N201 C205 1.279 . S
C202 C200 1.348 . S
C202 C204 1.353 . S
C202 H260 0.929 . S
C203 C200 1.356 . S
C203 C205 1.358 . S
C203 H261 0.930 . S
C204 N201 1.314 . S
C204 C202 1.353 . S
C204 H262 0.930 . S
C205 N201 1.279 . S
C205 C203 1.358 . S
C205 H263 0.930 . S
C206 C209 1.348 . S
C206 C210 1.356 . S
C206 O257 1.325 . S
C207 N208 1.279 . S
C207 C210 1.358 . S
C207 H264 0.930 . S
N208 C207 1.279 . S
N208 C211 1.314 . S
C209 C206 1.348 . S
C209 C211 1.353 . S
C209 H265 0.929 . S
C210 C206 1.356 . S
C210 C207 1.358 . S
C210 H266 0.930 . S
C211 N208 1.314 . S
C211 C209 1.353 . S
C211 H267 0.930 . S
C212 N213 1.314 . S
C212 C217 1.353 . S
C212 H218 0.930 . S
N213 Li196 1.990 . S
N213 C212 1.314 . S
N213 C215 1.279 . S
C214 C215 1.358 . S
C214 C216 1.356 . S
C214 H268 0.930 . S
C215 N213 1.279 . S
C215 C214 1.358 . S
C215 H219 0.930 . S
C216 C214 1.356 . S
C216 C217 1.348 . S
C217 C212 1.353 . S
C217 C216 1.348 . S
C217 H269 0.929 . S
H218 C212 0.930 . S
H219 C215 0.930 . S
C220 N221 1.314 . S
C220 C222 1.353 . S
C220 H226 0.930 . S
N221 Li197 1.990 . S
N221 C220 1.314 . S
N221 C224 1.279 . S
C222 C220 1.353 . S
C222 C225 1.348 . S
C222 H270 0.929 . S
C223 C224 1.358 . S
C223 C225 1.356 . S
C223 H271 0.930 . S
C224 N221 1.279 . S
C224 C223 1.358 . S
C224 H227 0.930 . S
C225 C222 1.348 . S
C225 C223 1.356 . S
H226 C220 0.930 . S
H227 C224 0.930 . S
C228 C230 1.348 . S
C228 C231 1.356 . S
C228 O258 1.325 . S
N229 C232 1.314 . S
N229 C233 1.279 . S
C230 C228 1.348 . S
C230 C232 1.353 . S
C230 H272 0.929 . S
C231 C228 1.356 . S
C231 C233 1.358 . S
C231 H273 0.930 . S
C232 N229 1.314 . S
C232 C230 1.353 . S
C232 H274 0.930 . S
C233 N229 1.279 . S
C233 C231 1.358 . S
C233 H275 0.930 . S
C234 C235 1.348 . S
C234 C236 1.356 . S
C234 O259 1.325 . S
C235 C234 1.348 . S
C235 C237 1.353 . S
C235 H276 0.929 . S
C236 C234 1.356 . S
C236 C238 1.358 . S
C236 H277 0.930 . S
C237 C235 1.353 . S
C237 N239 1.314 . S
C237 H278 0.930 . S
C238 C236 1.358 . S
C238 N239 1.279 . S
C238 H279 0.930 . S
N239 C237 1.314 . S
N239 C238 1.279 . S
C240 C242 1.353 . S
C240 N243 1.314 . S
C240 H246 0.930 . S
C241 N243 1.279 . S
C241 C244 1.358 . S
C241 H247 0.930 . S
C242 C240 1.353 . S
C242 C245 1.348 . S
C242 H280 0.929 . S
N243 Li198 1.990 . S
N243 C240 1.314 . S
N243 C241 1.279 . S
C244 C241 1.358 . S
C244 C245 1.356 . S
C244 H281 0.930 . S
C245 C242 1.348 . S
C245 C244 1.356 . S
H246 C240 0.930 . S
H247 C241 0.930 . S
C248 N249 1.314 . S
C248 C250 1.353 . S
C248 H254 0.930 . S
N249 Li199 1.990 . S
N249 C248 1.314 . S
N249 C252 1.279 . S
C250 C248 1.353 . S
C250 C253 1.348 . S
C250 H282 0.929 . S
C251 C252 1.358 . S
C251 C253 1.356 . S
C251 H283 0.930 . S
C252 N249 1.279 . S
C252 C251 1.358 . S
C252 H255 0.930 . S
C253 C250 1.348 . S
C253 C251 1.356 . S
H254 C248 0.930 . S
H255 C252 0.930 . S
O256 Li196 1.956 . S
O256 Li197 1.970 . S
O256 Li198 1.961 . S
O256 C200 1.325 . S
O257 Li196 1.970 . S
O257 Li197 1.956 . S
O257 Li199 1.961 . S
O257 C206 1.325 . S
O258 Li196 1.961 . S
O258 Li198 1.956 . S
O258 Li199 1.970 . S
O258 C228 1.325 . S
O259 Li197 1.961 . S
O259 Li198 1.970 . S
O259 Li199 1.956 . S
O259 C234 1.325 . S
H260 C202 0.929 . S
H261 C203 0.930 . S
H262 C204 0.930 . S
H263 C205 0.930 . S
H264 C207 0.930 . S
H265 C209 0.929 . S
H266 C210 0.930 . S
H267 C211 0.930 . S
H268 C214 0.930 . S
H269 C217 0.929 . S
H270 C222 0.929 . S
H271 C223 0.930 . S
H272 C230 0.929 . S
H273 C231 0.930 . S
H274 C232 0.930 . S
H275 C233 0.930 . S
H276 C235 0.929 . S
H277 C236 0.930 . S
H278 C237 0.930 . S
H279 C238 0.930 . S
H280 C242 0.929 . S
H281 C244 0.930 . S
H282 C250 0.929 . S
H283 C251 0.930 . S
Li284 N301 1.990 . S
Li284 O344 1.956 . S
Li284 O345 1.970 . S
Li284 O346 1.961 . S
Li285 N309 1.990 . S
Li285 O344 1.970 . S
Li285 O345 1.956 . S
Li285 O347 1.961 . S
Li286 N331 1.990 . S
Li286 O344 1.961 . S
Li286 O346 1.956 . S
Li286 O347 1.970 . S
Li287 N337 1.990 . S
Li287 O345 1.961 . S
Li287 O346 1.970 . S
Li287 O347 1.956 . S
C288 C290 1.348 . S
C288 C291 1.356 . S
C288 O344 1.325 . S
N289 C292 1.314 . S
N289 C293 1.279 . S
C290 C288 1.348 . S
C290 C292 1.353 . S
C290 H348 0.929 . S
C291 C288 1.356 . S
C291 C293 1.358 . S
C291 H349 0.930 . S
C292 N289 1.314 . S
C292 C290 1.353 . S
C292 H350 0.930 . S
C293 N289 1.279 . S
C293 C291 1.358 . S
C293 H351 0.930 . S
C294 C297 1.348 . S
C294 C298 1.356 . S
C294 O345 1.325 . S
C295 N296 1.279 . S
C295 C298 1.358 . S
C295 H352 0.930 . S
N296 C295 1.279 . S
N296 C299 1.314 . S
C297 C294 1.348 . S
C297 C299 1.353 . S
C297 H353 0.929 . S
C298 C294 1.356 . S
C298 C295 1.358 . S
C298 H354 0.930 . S
C299 N296 1.314 . S
C299 C297 1.353 . S
C299 H355 0.930 . S
C300 N301 1.314 . S
C300 C305 1.353 . S
C300 H306 0.930 . S
N301 Li284 1.990 . S
N301 C300 1.314 . S
N301 C303 1.279 . S
C302 C303 1.358 . S
C302 C304 1.356 . S
C302 H356 0.930 . S
C303 N301 1.279 . S
C303 C302 1.358 . S
C303 H307 0.930 . S
C304 C302 1.356 . S
C304 C305 1.348 . S
C305 C300 1.353 . S
C305 C304 1.348 . S
C305 H357 0.929 . S
H306 C300 0.930 . S
H307 C303 0.930 . S
C308 N309 1.314 . S
C308 C310 1.353 . S
C308 H314 0.930 . S
N309 Li285 1.990 . S
N309 C308 1.314 . S
N309 C312 1.279 . S
C310 C308 1.353 . S
C310 C313 1.348 . S
C310 H358 0.929 . S
C311 C312 1.358 . S
C311 C313 1.356 . S
C311 H359 0.930 . S
C312 N309 1.279 . S
C312 C311 1.358 . S
C312 H315 0.930 . S
C313 C310 1.348 . S
C313 C311 1.356 . S
H314 C308 0.930 . S
H315 C312 0.930 . S
C316 C318 1.348 . S
C316 C319 1.356 . S
C316 O346 1.325 . S
N317 C320 1.314 . S
N317 C321 1.279 . S
C318 C316 1.348 . S
C318 C320 1.353 . S
C318 H360 0.929 . S
C319 C316 1.356 . S
C319 C321 1.358 . S
C319 H361 0.930 . S
C320 N317 1.314 . S
C320 C318 1.353 . S
C320 H362 0.930 . S
C321 N317 1.279 . S
C321 C319 1.358 . S
C321 H363 0.930 . S
C322 C323 1.348 . S
C322 C324 1.356 . S
C322 O347 1.325 . S
C323 C322 1.348 . S
C323 C325 1.353 . S
C323 H364 0.929 . S
C324 C322 1.356 . S
C324 C326 1.358 . S
C324 H365 0.930 . S
C325 C323 1.353 . S
C325 N327 1.314 . S
C325 H366 0.930 . S
C326 C324 1.358 . S
C326 N327 1.279 . S
C326 H367 0.930 . S
N327 C325 1.314 . S
N327 C326 1.279 . S
C328 C330 1.353 . S
C328 N331 1.314 . S
C328 H334 0.930 . S
C329 N331 1.279 . S
C329 C332 1.358 . S
C329 H335 0.930 . S
C330 C328 1.353 . S
C330 C333 1.348 . S
C330 H368 0.929 . S
N331 Li286 1.990 . S
N331 C328 1.314 . S
N331 C329 1.279 . S
C332 C329 1.358 . S
C332 C333 1.356 . S
C332 H369 0.930 . S
C333 C330 1.348 . S
C333 C332 1.356 . S
H334 C328 0.930 . S
H335 C329 0.930 . S
C336 N337 1.314 . S
C336 C338 1.353 . S
C336 H342 0.930 . S
N337 Li287 1.990 . S
N337 C336 1.314 . S
N337 C340 1.279 . S
C338 C336 1.353 . S
C338 C341 1.348 . S
C338 H370 0.929 . S
C339 C340 1.358 . S
C339 C341 1.356 . S
C339 H371 0.930 . S
C340 N337 1.279 . S
C340 C339 1.358 . S
C340 H343 0.930 . S
C341 C338 1.348 . S
C341 C339 1.356 . S
H342 C336 0.930 . S
H343 C340 0.930 . S
O344 Li284 1.956 . S
O344 Li285 1.970 . S
O344 Li286 1.961 . S
O344 C288 1.325 . S
O345 Li284 1.970 . S
O345 Li285 1.956 . S
O345 Li287 1.961 . S
O345 C294 1.325 . S
O346 Li284 1.961 . S
O346 Li286 1.956 . S
O346 Li287 1.970 . S
O346 C316 1.325 . S
O347 Li285 1.961 . S
O347 Li286 1.970 . S
O347 Li287 1.956 . S
O347 C322 1.325 . S
H348 C290 0.929 . S
H349 C291 0.930 . S
H350 C292 0.930 . S
H351 C293 0.930 . S
H352 C295 0.930 . S
H353 C297 0.929 . S
H354 C298 0.930 . S
H355 C299 0.930 . S
H356 C302 0.930 . S
H357 C305 0.929 . S
H358 C310 0.929 . S
H359 C311 0.930 . S
H360 C318 0.929 . S
H361 C319 0.930 . S
H362 C320 0.930 . S
H363 C321 0.930 . S
H364 C323 0.929 . S
H365 C324 0.930 . S
H366 C325 0.930 . S
H367 C326 0.930 . S
H368 C330 0.929 . S
H369 C332 0.930 . S
H370 C338 0.929 . S
H371 C339 0.930 . S
Li372 N389 1.990 . S
Li372 O432 1.956 . S
Li372 O433 1.970 . S
Li372 O434 1.961 . S
Li373 N397 1.990 . S
Li373 O432 1.970 . S
Li373 O433 1.956 . S
Li373 O435 1.961 . S
Li374 N419 1.990 . S
Li374 O432 1.961 . S
Li374 O434 1.956 . S
Li374 O435 1.970 . S
Li375 N425 1.990 . S
Li375 O433 1.961 . S
Li375 O434 1.970 . S
Li375 O435 1.956 . S
C376 C378 1.348 . S
C376 C379 1.356 . S
C376 O432 1.325 . S
N377 C380 1.314 . S
N377 C381 1.279 . S
C378 C376 1.348 . S
C378 C380 1.353 . S
C378 H436 0.929 . S
C379 C376 1.356 . S
C379 C381 1.358 . S
C379 H437 0.930 . S
C380 N377 1.314 . S
C380 C378 1.353 . S
C380 H438 0.930 . S
C381 N377 1.279 . S
C381 C379 1.358 . S
C381 H439 0.930 . S
C382 C385 1.348 . S
C382 C386 1.356 . S
C382 O433 1.325 . S
C383 N384 1.279 . S
C383 C386 1.358 . S
C383 H440 0.930 . S
N384 C383 1.279 . S
N384 C387 1.314 . S
C385 C382 1.348 . S
C385 C387 1.353 . S
C385 H441 0.929 . S
C386 C382 1.356 . S
C386 C383 1.358 . S
C386 H442 0.930 . S
C387 N384 1.314 . S
C387 C385 1.353 . S
C387 H443 0.930 . S
C388 N389 1.314 . S
C388 C393 1.353 . S
C388 H394 0.930 . S
N389 Li372 1.990 . S
N389 C388 1.314 . S
N389 C391 1.279 . S
C390 C391 1.358 1_554 S
C390 C392 1.356 . S
C390 H444 0.930 . S
C391 N389 1.279 . S
C391 C390 1.358 1_556 S
C391 H395 0.930 . S
C392 C390 1.356 . S
C392 C393 1.348 1_554 S
C393 C388 1.353 . S
C393 C392 1.348 1_556 S
C393 H445 0.929 . S
H394 C388 0.930 . S
H395 C391 0.930 . S
C396 N397 1.314 . S
C396 C398 1.353 . S
C396 H402 0.930 . S
N397 Li373 1.990 . S
N397 C396 1.314 . S
N397 C400 1.279 . S
C398 C396 1.353 . S
C398 C401 1.348 . S
C398 H446 0.929 . S
C399 C400 1.358 . S
C399 C401 1.356 . S
C399 H447 0.930 . S
C400 N397 1.279 . S
C400 C399 1.358 . S
C400 H403 0.930 . S
C401 C398 1.348 . S
C401 C399 1.356 . S
H402 C396 0.930 . S
H403 C400 0.930 . S
C404 C406 1.348 . S
C404 C407 1.356 . S
C404 O434 1.325 . S
N405 C408 1.314 . S
N405 C409 1.279 . S
C406 C404 1.348 . S
C406 C408 1.353 . S
C406 H448 0.929 . S
C407 C404 1.356 . S
C407 C409 1.358 . S
C407 H449 0.930 . S
C408 N405 1.314 . S
C408 C406 1.353 . S
C408 H450 0.930 . S
C409 N405 1.279 . S
C409 C407 1.358 . S
C409 H451 0.930 . S
C410 C411 1.348 . S
C410 C412 1.356 . S
C410 O435 1.325 . S
C411 C410 1.348 . S
C411 C413 1.353 . S
C411 H452 0.929 . S
C412 C410 1.356 . S
C412 C414 1.358 . S
C412 H453 0.930 . S
C413 C411 1.353 . S
C413 N415 1.314 . S
C413 H454 0.930 . S
C414 C412 1.358 . S
C414 N415 1.279 . S
C414 H455 0.930 . S
N415 C413 1.314 . S
N415 C414 1.279 . S
C416 C418 1.353 . S
C416 N419 1.314 . S
C416 H422 0.930 . S
C417 N419 1.279 . S
C417 C420 1.358 . S
C417 H423 0.930 . S
C418 C416 1.353 . S
C418 C421 1.348 . S
C418 H456 0.929 . S
N419 Li374 1.990 . S
N419 C416 1.314 . S
N419 C417 1.279 . S
C420 C417 1.358 . S
C420 C421 1.356 . S
C420 H457 0.930 . S
C421 C418 1.348 . S
C421 C420 1.356 . S
H422 C416 0.930 . S
H423 C417 0.930 . S
C424 N425 1.314 . S
C424 C426 1.353 . S
C424 H430 0.930 . S
N425 Li375 1.990 . S
N425 C424 1.314 . S
N425 C428 1.279 . S
C426 C424 1.353 . S
C426 C429 1.348 . S
C426 H458 0.929 . S
C427 C428 1.358 . S
C427 C429 1.356 . S
C427 H459 0.930 . S
C428 N425 1.279 . S
C428 C427 1.358 . S
C428 H431 0.930 . S
C429 C426 1.348 . S
C429 C427 1.356 . S
H430 C424 0.930 . S
H431 C428 0.930 . S
O432 Li372 1.956 . S
O432 Li373 1.970 . S
O432 Li374 1.961 . S
O432 C376 1.325 . S
O433 Li372 1.970 . S
O433 Li373 1.956 . S
O433 Li375 1.961 . S
O433 C382 1.325 . S
O434 Li372 1.961 . S
O434 Li374 1.956 . S
O434 Li375 1.970 . S
O434 C404 1.325 . S
O435 Li373 1.961 . S
O435 Li374 1.970 . S
O435 Li375 1.956 . S
O435 C410 1.325 . S
H436 C378 0.929 . S
H437 C379 0.930 . S
H438 C380 0.930 . S
H439 C381 0.930 . S
H440 C383 0.930 . S
H441 C385 0.929 . S
H442 C386 0.930 . S
H443 C387 0.930 . S
H444 C390 0.930 . S
H445 C393 0.929 . S
H446 C398 0.929 . S
H447 C399 0.930 . S
H448 C406 0.929 . S
H449 C407 0.930 . S
H450 C408 0.930 . S
H451 C409 0.930 . S
H452 C411 0.929 . S
H453 C412 0.930 . S
H454 C413 0.930 . S
H455 C414 0.930 . S
H456 C418 0.929 . S
H457 C420 0.930 . S
H458 C426 0.929 . S
H459 C427 0.930 . S
Li460 N477 1.990 . S
Li460 O520 1.956 . S
Li460 O521 1.970 . S
Li460 O522 1.961 . S
Li461 N485 1.990 . S
Li461 O520 1.970 . S
Li461 O521 1.956 . S
Li461 O523 1.961 . S
Li462 N507 1.990 . S
Li462 O520 1.961 . S
Li462 O522 1.956 . S
Li462 O523 1.970 . S
Li463 N513 1.990 . S
Li463 O521 1.961 . S
Li463 O522 1.970 . S
Li463 O523 1.956 . S
C464 C466 1.348 . S
C464 C467 1.356 . S
C464 O520 1.325 . S
N465 C468 1.314 . S
N465 C469 1.279 . S
C466 C464 1.348 . S
C466 C468 1.353 . S
C466 H524 0.929 . S
C467 C464 1.356 . S
C467 C469 1.358 . S
C467 H525 0.930 . S
C468 N465 1.314 . S
C468 C466 1.353 . S
C468 H526 0.930 . S
C469 N465 1.279 . S
C469 C467 1.358 . S
C469 H527 0.930 . S
C470 C473 1.348 . S
C470 C474 1.356 . S
C470 O521 1.325 . S
C471 N472 1.279 . S
C471 C474 1.358 . S
C471 H528 0.930 . S
N472 C471 1.279 . S
N472 C475 1.314 . S
C473 C470 1.348 . S
C473 C475 1.353 . S
C473 H529 0.929 . S
C474 C470 1.356 . S
C474 C471 1.358 . S
C474 H530 0.930 . S
C475 N472 1.314 . S
C475 C473 1.353 . S
C475 H531 0.930 . S
C476 N477 1.314 . S
C476 C481 1.353 . S
C476 H482 0.930 . S
N477 Li460 1.990 . S
N477 C476 1.314 . S
N477 C479 1.279 . S
C478 C479 1.358 . S
C478 C480 1.356 . S
C478 H532 0.930 . S
C479 N477 1.279 . S
C479 C478 1.358 . S
C479 H483 0.930 . S
C480 C478 1.356 . S
C480 C481 1.348 . S
C481 C476 1.353 . S
C481 C480 1.348 . S
C481 H533 0.929 . S
H482 C476 0.930 . S
H483 C479 0.930 . S
C484 N485 1.314 . S
C484 C486 1.353 . S
C484 H490 0.930 . S
N485 Li461 1.990 . S
N485 C484 1.314 . S
N485 C488 1.279 . S
C486 C484 1.353 . S
C486 C489 1.348 . S
C486 H534 0.929 . S
C487 C488 1.358 . S
C487 C489 1.356 . S
C487 H535 0.930 . S
C488 N485 1.279 . S
C488 C487 1.358 . S
C488 H491 0.930 . S
C489 C486 1.348 . S
C489 C487 1.356 . S
H490 C484 0.930 . S
H491 C488 0.930 . S
C492 C494 1.348 . S
C492 C495 1.356 . S
C492 O522 1.325 . S
N493 C496 1.314 1_556 S
N493 C497 1.279 1_556 S
C494 C492 1.348 . S
C494 C496 1.353 . S
C494 H536 0.929 . S
C495 C492 1.356 . S
C495 C497 1.358 . S
C495 H537 0.930 . S
C496 N493 1.314 1_554 S
C496 C494 1.353 . S
C496 H538 0.930 1_554 S
C497 N493 1.279 1_554 S
C497 C495 1.358 . S
C497 H539 0.930 1_554 S
C498 C499 1.348 . S
C498 C500 1.356 . S
C498 O523 1.325 . S
C499 C498 1.348 . S
C499 C501 1.353 . S
C499 H540 0.929 . S
C500 C498 1.356 . S
C500 C502 1.358 . S
C500 H541 0.930 . S
C501 C499 1.353 . S
C501 N503 1.314 . S
C501 H542 0.930 . S
C502 C500 1.358 . S
C502 N503 1.279 . S
C502 H543 0.930 . S
N503 C501 1.314 . S
N503 C502 1.279 . S
C504 C506 1.353 . S
C504 N507 1.314 . S
C504 H510 0.930 . S
C505 N507 1.279 . S
C505 C508 1.358 1_554 S
C505 H511 0.930 . S
C506 C504 1.353 . S
C506 C509 1.348 1_554 S
C506 H544 0.929 . S
N507 Li462 1.990 . S
N507 C504 1.314 . S
N507 C505 1.279 . S
C508 C505 1.358 1_556 S
C508 C509 1.356 . S
C508 H545 0.930 . S
C509 C506 1.348 1_556 S
C509 C508 1.356 . S
H510 C504 0.930 . S
H511 C505 0.930 . S
C512 N513 1.314 . S
C512 C514 1.353 . S
C512 H518 0.930 . S
N513 Li463 1.990 . S
N513 C512 1.314 . S
N513 C516 1.279 . S
C514 C512 1.353 . S
C514 C517 1.348 . S
C514 H546 0.929 . S
C515 C516 1.358 . S
C515 C517 1.356 . S
C515 H547 0.930 . S
C516 N513 1.279 . S
C516 C515 1.358 . S
C516 H519 0.930 . S
C517 C514 1.348 . S
C517 C515 1.356 . S
H518 C512 0.930 . S
H519 C516 0.930 . S
O520 Li460 1.956 . S
O520 Li461 1.970 . S
O520 Li462 1.961 . S
O520 C464 1.325 . S
O521 Li460 1.970 . S
O521 Li461 1.956 . S
O521 Li463 1.961 . S
O521 C470 1.325 . S
O522 Li460 1.961 . S
O522 Li462 1.956 . S
O522 Li463 1.970 . S
O522 C492 1.325 . S
O523 Li461 1.961 . S
O523 Li462 1.970 . S
O523 Li463 1.956 . S
O523 C498 1.325 . S
H524 C466 0.929 . S
H525 C467 0.930 . S
H526 C468 0.930 . S
H527 C469 0.930 . S
H528 C471 0.930 . S
H529 C473 0.929 . S
H530 C474 0.930 . S
H531 C475 0.930 . S
H532 C478 0.930 . S
H533 C481 0.929 . S
H534 C486 0.929 . S
H535 C487 0.930 . S
H536 C494 0.929 . S
H537 C495 0.930 . S
H538 C496 0.930 1_556 S
H539 C497 0.930 1_556 S
H540 C499 0.929 . S
H541 C500 0.930 . S
H542 C501 0.930 . S
H543 C502 0.930 . S
H544 C506 0.929 . S
H545 C508 0.930 . S
H546 C514 0.929 . S
H547 C515 0.930 . S
Li548 N565 1.990 . S
Li548 O608 1.956 . S
Li548 O609 1.970 . S
Li548 O610 1.961 . S
Li549 N573 1.990 . S
Li549 O608 1.970 . S
Li549 O609 1.956 . S
Li549 O611 1.961 . S
Li550 N595 1.990 . S
Li550 O608 1.961 . S
Li550 O610 1.956 . S
Li550 O611 1.970 . S
Li551 N601 1.990 . S
Li551 O609 1.961 . S
Li551 O610 1.970 . S
Li551 O611 1.956 . S
C552 C554 1.348 . S
C552 C555 1.356 . S
C552 O608 1.325 . S
N553 C556 1.314 . S
N553 C557 1.279 . S
C554 C552 1.348 . S
C554 C556 1.353 . S
C554 H612 0.929 . S
C555 C552 1.356 . S
C555 C557 1.358 . S
C555 H613 0.930 . S
C556 N553 1.314 . S
C556 C554 1.353 . S
C556 H614 0.930 . S
C557 N553 1.279 . S
C557 C555 1.358 . S
C557 H615 0.930 . S
C558 C561 1.348 . S
C558 C562 1.356 . S
C558 O609 1.325 . S
C559 N560 1.279 . S
C559 C562 1.358 . S
C559 H616 0.930 . S
N560 C559 1.279 . S
N560 C563 1.314 . S
C561 C558 1.348 . S
C561 C563 1.353 . S
C561 H617 0.929 . S
C562 C558 1.356 . S
C562 C559 1.358 . S
C562 H618 0.930 . S
C563 N560 1.314 . S
C563 C561 1.353 . S
C563 H619 0.930 . S
C564 N565 1.314 . S
C564 C569 1.353 . S
C564 H570 0.930 . S
N565 Li548 1.990 . S
N565 C564 1.314 . S
N565 C567 1.279 . S
C566 C567 1.358 . S
C566 C568 1.356 . S
C566 H620 0.930 . S
C567 N565 1.279 . S
C567 C566 1.358 . S
C567 H571 0.930 . S
C568 C566 1.356 . S
C568 C569 1.348 . S
C569 C564 1.353 . S
C569 C568 1.348 . S
C569 H621 0.929 . S
H570 C564 0.930 . S
H571 C567 0.930 . S
C572 N573 1.314 . S
C572 C574 1.353 . S
C572 H578 0.930 . S
N573 Li549 1.990 . S
N573 C572 1.314 . S
N573 C576 1.279 . S
C574 C572 1.353 . S
C574 C577 1.348 . S
C574 H622 0.929 . S
C575 C576 1.358 . S
C575 C577 1.356 . S
C575 H623 0.930 . S
C576 N573 1.279 . S
C576 C575 1.358 . S
C576 H579 0.930 . S
C577 C574 1.348 . S
C577 C575 1.356 . S
H578 C572 0.930 . S
H579 C576 0.930 . S
C580 C582 1.348 . S
C580 C583 1.356 . S
C580 O610 1.325 . S
N581 C584 1.314 . S
N581 C585 1.279 . S
C582 C580 1.348 . S
C582 C584 1.353 . S
C582 H624 0.929 . S
C583 C580 1.356 . S
C583 C585 1.358 . S
C583 H625 0.930 . S
C584 N581 1.314 . S
C584 C582 1.353 . S
C584 H626 0.930 . S
C585 N581 1.279 . S
C585 C583 1.358 . S
C585 H627 0.930 . S
C586 C587 1.348 . S
C586 C588 1.356 . S
C586 O611 1.325 . S
C587 C586 1.348 . S
C587 C589 1.353 . S
C587 H628 0.929 . S
C588 C586 1.356 . S
C588 C590 1.358 . S
C588 H629 0.930 . S
C589 C587 1.353 . S
C589 N591 1.314 . S
C589 H630 0.930 . S
C590 C588 1.358 . S
C590 N591 1.279 . S
C590 H631 0.930 . S
N591 C589 1.314 . S
N591 C590 1.279 . S
C592 C594 1.353 . S
C592 N595 1.314 . S
C592 H598 0.930 . S
C593 N595 1.279 . S
C593 C596 1.358 . S
C593 H599 0.930 . S
C594 C592 1.353 . S
C594 C597 1.348 . S
C594 H632 0.929 . S
N595 Li550 1.990 . S
N595 C592 1.314 . S
N595 C593 1.279 . S
C596 C593 1.358 . S
C596 C597 1.356 . S
C596 H633 0.930 . S
C597 C594 1.348 . S
C597 C596 1.356 . S
H598 C592 0.930 . S
H599 C593 0.930 . S
C600 N601 1.314 . S
C600 C602 1.353 . S
C600 H606 0.930 . S
N601 Li551 1.990 . S
N601 C600 1.314 . S
N601 C604 1.279 . S
C602 C600 1.353 . S
C602 C605 1.348 . S
C602 H634 0.929 . S
C603 C604 1.358 . S
C603 C605 1.356 . S
C603 H635 0.930 . S
C604 N601 1.279 . S
C604 C603 1.358 . S
C604 H607 0.930 . S
C605 C602 1.348 . S
C605 C603 1.356 . S
H606 C600 0.930 . S
H607 C604 0.930 . S
O608 Li548 1.956 . S
O608 Li549 1.970 . S
O608 Li550 1.961 . S
O608 C552 1.325 . S
O609 Li548 1.970 . S
O609 Li549 1.956 . S
O609 Li551 1.961 . S
O609 C558 1.325 . S
O610 Li548 1.961 . S
O610 Li550 1.956 . S
O610 Li551 1.970 . S
O610 C580 1.325 . S
O611 Li549 1.961 . S
O611 Li550 1.970 . S
O611 Li551 1.956 . S
O611 C586 1.325 . S
H612 C554 0.929 . S
H613 C555 0.930 . S
H614 C556 0.930 . S
H615 C557 0.930 . S
H616 C559 0.930 . S
H617 C561 0.929 . S
H618 C562 0.930 . S
H619 C563 0.930 . S
H620 C566 0.930 . S
H621 C569 0.929 . S
H622 C574 0.929 . S
H623 C575 0.930 . S
H624 C582 0.929 . S
H625 C583 0.930 . S
H626 C584 0.930 . S
H627 C585 0.930 . S
H628 C587 0.929 . S
H629 C588 0.930 . S
H630 C589 0.930 . S
H631 C590 0.930 . S
H632 C594 0.929 . S
H633 C596 0.930 . S
H634 C602 0.929 . S
H635 C603 0.930 . S
H636 C648 0.930 . S
H637 C650 0.930 . S
H638 C651 0.930 . S
H639 C655 0.959 . S
H640 C655 0.959 . S
H641 C655 0.961 . S
H642 C656 0.960 . S
H643 C656 0.961 . S
H644 C656 0.959 . S
H645 C659 0.929 . S
H646 C660 0.931 . S
H647 C662 0.930 . S
C648 H636 0.930 . S
C648 C649 1.399 . S
C648 C653 1.399 . S
C649 C648 1.399 . S
C649 C650 1.376 . S
C650 H637 0.930 . S
C650 C649 1.376 . S
C650 C651 1.388 . S
C651 H638 0.930 . S
C651 C650 1.388 . S
C651 C652 1.390 . S
C652 C651 1.390 . S
C652 C653 1.394 . S
C652 C658 1.465 . S
C653 C648 1.399 . S
C653 C652 1.394 . S
C653 C654 1.516 . S
C654 C653 1.516 . S
C654 C655 1.502 . S
C654 C656 1.561 . S
C654 C657 1.526 . S
C655 H639 0.959 . S
C655 H640 0.959 . S
C655 H641 0.961 . S
C655 C654 1.502 . S
C656 H642 0.960 . S
C656 H643 0.961 . S
C656 H644 0.959 . S
C656 C654 1.561 . S
C657 C654 1.526 . S
C657 C658 1.396 . S
C657 C662 1.390 . S
C658 C652 1.465 . S
C658 C657 1.396 . S
C658 C659 1.399 . S
C659 H645 0.929 . S
C659 C658 1.399 . S
C659 C660 1.385 . S
C660 H646 0.931 . S
C660 C659 1.385 . S
C660 C661 1.389 . S
C661 C660 1.389 . S
C661 C662 1.387 . S
C662 H647 0.930 . S
C662 C657 1.390 . S
C662 C661 1.387 . S
H663 C675 0.930 . S
H664 C677 0.930 . S
H665 C678 0.930 . S
H666 C682 0.959 . S
H667 C682 0.959 . S
H668 C682 0.961 . S
H669 C683 0.960 . S
H670 C683 0.961 . S
H671 C683 0.959 . S
H672 C686 0.929 . S
H673 C687 0.931 . S
H674 C689 0.930 . S
C675 H663 0.930 . S
C675 C676 1.399 . S
C675 C680 1.399 . S
C676 C675 1.399 . S
C676 C677 1.376 . S
C677 H664 0.930 . S
C677 C676 1.376 . S
C677 C678 1.388 . S
C678 H665 0.930 . S
C678 C677 1.388 . S
C678 C679 1.390 . S
C679 C678 1.390 . S
C679 C680 1.394 . S
C679 C685 1.465 . S
C680 C675 1.399 . S
C680 C679 1.394 . S
C680 C681 1.516 . S
C681 C680 1.516 . S
C681 C682 1.502 . S
C681 C683 1.561 . S
C681 C684 1.526 . S
C682 H666 0.959 . S
C682 H667 0.959 . S
C682 H668 0.961 . S
C682 C681 1.502 . S
C683 H669 0.960 . S
C683 H670 0.961 . S
C683 H671 0.959 . S
C683 C681 1.561 . S
C684 C681 1.526 . S
C684 C685 1.396 . S
C684 C689 1.390 . S
C685 C679 1.465 . S
C685 C684 1.396 . S
C685 C686 1.399 . S
C686 H672 0.929 . S
C686 C685 1.399 . S
C686 C687 1.385 . S
C687 H673 0.931 . S
C687 C686 1.385 . S
C687 C688 1.389 . S
C688 C687 1.389 . S
C688 C689 1.387 . S
C689 H674 0.930 . S
C689 C684 1.390 . S
C689 C688 1.387 . S
H690 C702 0.930 . S
H691 C704 0.930 . S
H692 C705 0.930 . S
H693 C709 0.959 . S
H694 C709 0.959 . S
H695 C709 0.961 . S
H696 C710 0.960 . S
H697 C710 0.961 . S
H698 C710 0.959 . S
H699 C713 0.929 . S
H700 C714 0.931 . S
H701 C716 0.930 . S
C702 H690 0.930 . S
C702 C703 1.399 . S
C702 C707 1.399 . S
C703 C702 1.399 . S
C703 C704 1.376 . S
C704 H691 0.930 . S
C704 C703 1.376 . S
C704 C705 1.388 . S
C705 H692 0.930 . S
C705 C704 1.388 . S
C705 C706 1.390 . S
C706 C705 1.390 . S
C706 C707 1.394 . S
C706 C712 1.465 . S
C707 C702 1.399 . S
C707 C706 1.394 . S
C707 C708 1.516 . S
C708 C707 1.516 . S
C708 C709 1.502 . S
C708 C710 1.561 . S
C708 C711 1.526 . S
C709 H693 0.959 . S
C709 H694 0.959 . S
C709 H695 0.961 . S
C709 C708 1.502 . S
C710 H696 0.960 . S
C710 H697 0.961 . S
C710 H698 0.959 . S
C710 C708 1.561 . S
C711 C708 1.526 . S
C711 C712 1.396 . S
C711 C716 1.390 . S
C712 C706 1.465 . S
C712 C711 1.396 . S
C712 C713 1.399 . S
C713 H699 0.929 . S
C713 C712 1.399 . S
C713 C714 1.385 . S
C714 H700 0.931 . S
C714 C713 1.385 . S
C714 C715 1.389 . S
C715 C714 1.389 . S
C715 C716 1.387 . S
C716 H701 0.930 . S
C716 C711 1.390 . S
C716 C715 1.387 . S
H717 C729 0.930 . S
H718 C731 0.930 . S
H719 C732 0.930 . S
H720 C736 0.959 . S
H721 C736 0.959 . S
H722 C736 0.961 . S
H723 C737 0.960 . S
H724 C737 0.961 . S
H725 C737 0.959 . S
H726 C740 0.929 . S
H727 C741 0.931 . S
H728 C743 0.930 . S
C729 H717 0.930 . S
C729 C730 1.399 . S
C729 C734 1.399 . S
C730 C729 1.399 . S
C730 C731 1.376 . S
C731 H718 0.930 . S
C731 C730 1.376 . S
C731 C732 1.388 . S
C732 H719 0.930 . S
C732 C731 1.388 . S
C732 C733 1.390 . S
C733 C732 1.390 . S
C733 C734 1.394 . S
C733 C739 1.465 . S
C734 C729 1.399 . S
C734 C733 1.394 . S
C734 C735 1.516 . S
C735 C734 1.516 . S
C735 C736 1.502 . S
C735 C737 1.561 . S
C735 C738 1.526 . S
C736 H720 0.959 . S
C736 H721 0.959 . S
C736 H722 0.961 . S
C736 C735 1.502 . S
C737 H723 0.960 . S
C737 H724 0.961 . S
C737 H725 0.959 . S
C737 C735 1.561 . S
C738 C735 1.526 . S
C738 C739 1.396 . S
C738 C743 1.390 . S
C739 C733 1.465 . S
C739 C738 1.396 . S
C739 C740 1.399 . S
C740 H726 0.929 . S
C740 C739 1.399 . S
C740 C741 1.385 . S
C741 H727 0.931 . S
C741 C740 1.385 . S
C741 C742 1.389 . S
C742 C741 1.389 . S
C742 C743 1.387 . S
C743 H728 0.930 . S
C743 C738 1.390 . S
C743 C742 1.387 . S
H744 C756 0.930 . S
H745 C758 0.930 1_554 S
H746 C759 0.930 1_554 S
H747 C763 0.959 . S
H748 C763 0.959 . S
H749 C763 0.961 . S
H750 C764 0.960 . S
H751 C764 0.961 . S
H752 C764 0.959 . S
H753 C767 0.929 . S
H754 C768 0.931 . S
H755 C770 0.930 . S
C756 H744 0.930 . S
C756 C757 1.399 . S
C756 C761 1.399 . S
C757 C756 1.399 . S
C757 C758 1.376 . S
C758 H745 0.930 1_556 S
C758 C757 1.376 . S
C758 C759 1.388 . S
C759 H746 0.930 1_556 S
C759 C758 1.388 . S
C759 C760 1.390 . S
C760 C759 1.390 . S
C760 C761 1.394 . S
C760 C766 1.465 . S
C761 C756 1.399 . S
C761 C760 1.394 . S
C761 C762 1.516 . S
C762 C761 1.516 . S
C762 C763 1.502 . S
C762 C764 1.561 . S
C762 C765 1.526 . S
C763 H747 0.959 . S
C763 H748 0.959 . S
C763 H749 0.961 . S
C763 C762 1.502 . S
C764 H750 0.960 . S
C764 H751 0.961 . S
C764 H752 0.959 . S
C764 C762 1.561 . S
C765 C762 1.526 . S
C765 C766 1.396 . S
C765 C770 1.390 . S
C766 C760 1.465 . S
C766 C765 1.396 . S
C766 C767 1.399 . S
C767 H753 0.929 . S
C767 C766 1.399 . S
C767 C768 1.385 . S
C768 H754 0.931 . S
C768 C767 1.385 . S
C768 C769 1.389 . S
C769 C768 1.389 . S
C769 C770 1.387 . S
C770 H755 0.930 . S
C770 C765 1.390 . S
C770 C769 1.387 . S
H771 C783 0.930 . S
H772 C785 0.930 . S
H773 C786 0.930 . S
H774 C790 0.959 . S
H775 C790 0.959 . S
H776 C790 0.961 . S
H777 C791 0.960 . S
H778 C791 0.961 . S
H779 C791 0.959 . S
H780 C794 0.929 . S
H781 C795 0.931 . S
H782 C797 0.930 . S
C783 H771 0.930 . S
C783 C784 1.399 . S
C783 C788 1.399 . S
C784 C783 1.399 . S
C784 C785 1.376 . S
C785 H772 0.930 . S
C785 C784 1.376 . S
C785 C786 1.388 . S
C786 H773 0.930 . S
C786 C785 1.388 . S
C786 C787 1.390 . S
C787 C786 1.390 . S
C787 C788 1.394 . S
C787 C793 1.465 . S
C788 C783 1.399 . S
C788 C787 1.394 . S
C788 C789 1.516 . S
C789 C788 1.516 . S
C789 C790 1.502 . S
C789 C791 1.561 . S
C789 C792 1.526 . S
C790 H774 0.959 . S
C790 H775 0.959 . S
C790 H776 0.961 . S
C790 C789 1.502 . S
C791 H777 0.960 . S
C791 H778 0.961 . S
C791 H779 0.959 . S
C791 C789 1.561 . S
C792 C789 1.526 . S
C792 C793 1.396 . S
C792 C797 1.390 . S
C793 C787 1.465 . S
C793 C792 1.396 . S
C793 C794 1.399 . S
C794 H780 0.929 . S
C794 C793 1.399 . S
C794 C795 1.385 . S
C795 H781 0.931 . S
C795 C794 1.385 . S
C795 C796 1.389 . S
C796 C795 1.389 . S
C796 C797 1.387 . S
C797 H782 0.930 . S
C797 C792 1.390 . S
C797 C796 1.387 . S
H798 C810 0.930 . S
H799 C812 0.930 . S
H800 C813 0.930 . S
H801 C817 0.959 . S
H802 C817 0.959 . S
H803 C817 0.961 . S
H804 C818 0.960 . S
H805 C818 0.961 . S
H806 C818 0.959 . S
H807 C821 0.929 . S
H808 C822 0.931 . S
H809 C824 0.930 . S
C810 H798 0.930 . S
C810 C811 1.399 . S
C810 C815 1.399 . S
C811 C810 1.399 . S
C811 C812 1.376 . S
C812 H799 0.930 . S
C812 C811 1.376 . S
C812 C813 1.388 . S
C813 H800 0.930 . S
C813 C812 1.388 . S
C813 C814 1.390 . S
C814 C813 1.390 . S
C814 C815 1.394 . S
C814 C820 1.465 . S
C815 C810 1.399 . S
C815 C814 1.394 . S
C815 C816 1.516 . S
C816 C815 1.516 . S
C816 C817 1.502 . S
C816 C818 1.561 . S
C816 C819 1.526 . S
C817 H801 0.959 . S
C817 H802 0.959 . S
C817 H803 0.961 . S
C817 C816 1.502 . S
C818 H804 0.960 . S
C818 H805 0.961 . S
C818 H806 0.959 . S
C818 C816 1.561 . S
C819 C816 1.526 . S
C819 C820 1.396 . S
C819 C824 1.390 . S
C820 C814 1.465 . S
C820 C819 1.396 . S
C820 C821 1.399 . S
C821 H807 0.929 . S
C821 C820 1.399 . S
C821 C822 1.385 . S
C822 H808 0.931 . S
C822 C821 1.385 . S
C822 C823 1.389 . S
C823 C822 1.389 . S
C823 C824 1.387 . S
C824 H809 0.930 . S
C824 C819 1.390 . S
C824 C823 1.387 . S
H825 C837 0.930 . S
H826 C839 0.930 . S
H827 C840 0.930 . S
H828 C844 0.959 . S
H829 C844 0.959 . S
H830 C844 0.961 . S
H831 C845 0.960 . S
H832 C845 0.961 . S
H833 C845 0.959 . S
H834 C848 0.929 . S
H835 C849 0.931 . S
H836 C851 0.930 . S
C837 H825 0.930 . S
C837 C838 1.399 . S
C837 C842 1.399 . S
C838 C837 1.399 . S
C838 C839 1.376 . S
C839 H826 0.930 . S
C839 C838 1.376 . S
C839 C840 1.388 . S
C840 H827 0.930 . S
C840 C839 1.388 . S
C840 C841 1.390 . S
C841 C840 1.390 . S
C841 C842 1.394 . S
C841 C847 1.465 . S
C842 C837 1.399 . S
C842 C841 1.394 . S
C842 C843 1.516 . S
C843 C842 1.516 . S
C843 C844 1.502 . S
C843 C845 1.561 . S
C843 C846 1.526 . S
C844 H828 0.959 . S
C844 H829 0.959 . S
C844 H830 0.961 . S
C844 C843 1.502 . S
C845 H831 0.960 . S
C845 H832 0.961 . S
C845 H833 0.959 . S
C845 C843 1.561 . S
C846 C843 1.526 . S
C846 C847 1.396 . S
C846 C851 1.390 . S
C847 C841 1.465 . S
C847 C846 1.396 . S
C847 C848 1.399 . S
C848 H834 0.929 . S
C848 C847 1.399 . S
C848 C849 1.385 . S
C849 H835 0.931 . S
C849 C848 1.385 . S
C849 C850 1.389 . S
C850 C849 1.389 . S
C850 C851 1.387 . S
C851 H836 0.930 . S
C851 C846 1.390 . S
C851 C850 1.387 . S
H852 C864 0.930 . S
H853 C866 0.930 . S
H854 C867 0.930 . S
H855 C871 0.959 . S
H856 C871 0.959 . S
H857 C871 0.961 . S
H858 C872 0.960 . S
H859 C872 0.961 . S
H860 C872 0.959 . S
H861 C875 0.929 . S
H862 C876 0.931 . S
H863 C878 0.930 . S
C864 H852 0.930 . S
C864 C865 1.399 . S
C864 C869 1.399 . S
C865 C864 1.399 . S
C865 C866 1.376 . S
C866 H853 0.930 . S
C866 C865 1.376 . S
C866 C867 1.388 . S
C867 H854 0.930 . S
C867 C866 1.388 . S
C867 C868 1.390 . S
C868 C867 1.390 . S
C868 C869 1.394 . S
C868 C874 1.465 . S
C869 C864 1.399 . S
C869 C868 1.394 . S
C869 C870 1.516 . S
C870 C869 1.516 . S
C870 C871 1.502 . S
C870 C872 1.561 . S
C870 C873 1.526 . S
C871 H855 0.959 . S
C871 H856 0.959 . S
C871 H857 0.961 . S
C871 C870 1.502 . S
C872 H858 0.960 . S
C872 H859 0.961 . S
C872 H860 0.959 . S
C872 C870 1.561 . S
C873 C870 1.526 . S
C873 C874 1.396 . S
C873 C878 1.390 . S
C874 C868 1.465 . S
C874 C873 1.396 . S
C874 C875 1.399 . S
C875 H861 0.929 . S
C875 C874 1.399 . S
C875 C876 1.385 . S
C876 H862 0.931 . S
C876 C875 1.385 . S
C876 C877 1.389 . S
C877 C876 1.389 . S
C877 C878 1.387 . S
C878 H863 0.930 . S
C878 C873 1.390 . S
C878 C877 1.387 . S
H879 C891 0.930 1_556 S
H880 C893 0.930 . S
H881 C894 0.930 . S
H882 C898 0.959 . S
H883 C898 0.959 . S
H884 C898 0.961 . S
H885 C899 0.960 . S
H886 C899 0.961 . S
H887 C899 0.959 . S
H888 C902 0.929 . S
H889 C903 0.931 . S
H890 C905 0.930 . S
C891 H879 0.930 1_554 S
C891 C892 1.399 . S
C891 C896 1.399 . S
C892 C891 1.399 . S
C892 C893 1.376 . S
C893 H880 0.930 . S
C893 C892 1.376 . S
C893 C894 1.388 . S
C894 H881 0.930 . S
C894 C893 1.388 . S
C894 C895 1.390 . S
C895 C894 1.390 . S
C895 C896 1.394 . S
C895 C901 1.465 . S
C896 C891 1.399 . S
C896 C895 1.394 . S
C896 C897 1.516 . S
C897 C896 1.516 . S
C897 C898 1.502 . S
C897 C899 1.561 1_554 S
C897 C900 1.526 . S
C898 H882 0.959 . S
C898 H883 0.959 . S
C898 H884 0.961 . S
C898 C897 1.502 . S
C899 H885 0.960 . S
C899 H886 0.961 . S
C899 H887 0.959 . S
C899 C897 1.561 1_556 S
C900 C897 1.526 . S
C900 C901 1.396 . S
C900 C905 1.390 . S
C901 C895 1.465 . S
C901 C900 1.396 . S
C901 C902 1.399 . S
C902 H888 0.929 . S
C902 C901 1.399 . S
C902 C903 1.385 . S
C903 H889 0.931 . S
C903 C902 1.385 . S
C903 C904 1.389 . S
C904 C903 1.389 . S
C904 C905 1.387 . S
C905 H890 0.930 . S
C905 C900 1.390 . S
C905 C904 1.387 . S
H906 C918 0.930 . S
H907 C920 0.930 . S
H908 C921 0.930 . S
H909 C925 0.959 . S
H910 C925 0.959 . S
H911 C925 0.961 . S
H912 C926 0.960 . S
H913 C926 0.961 . S
H914 C926 0.959 . S
H915 C929 0.929 . S
H916 C930 0.931 . S
H917 C932 0.930 . S
C918 H906 0.930 . S
C918 C919 1.399 . S
C918 C923 1.399 . S
C919 C918 1.399 . S
C919 C920 1.376 . S
C920 H907 0.930 . S
C920 C919 1.376 . S
C920 C921 1.388 . S
C921 H908 0.930 . S
C921 C920 1.388 . S
C921 C922 1.390 . S
C922 C921 1.390 . S
C922 C923 1.394 . S
C922 C928 1.465 . S
C923 C918 1.399 . S
C923 C922 1.394 . S
C923 C924 1.516 . S
C924 C923 1.516 . S
C924 C925 1.502 . S
C924 C926 1.561 . S
C924 C927 1.526 . S
C925 H909 0.959 . S
C925 H910 0.959 . S
C925 H911 0.961 . S
C925 C924 1.502 . S
C926 H912 0.960 . S
C926 H913 0.961 . S
C926 H914 0.959 . S
C926 C924 1.561 . S
C927 C924 1.526 . S
C927 C928 1.396 . S
C927 C932 1.390 . S
C928 C922 1.465 . S
C928 C927 1.396 . S
C928 C929 1.399 . S
C929 H915 0.929 . S
C929 C928 1.399 . S
C929 C930 1.385 . S
C930 H916 0.931 . S
C930 C929 1.385 . S
C930 C931 1.389 . S
C931 C930 1.389 . S
C931 C932 1.387 . S
C932 H917 0.930 . S
C932 C927 1.390 . S
C932 C931 1.387 . S
H933 C945 0.930 . S
H934 C947 0.930 . S
H935 C948 0.930 . S
H936 C952 0.959 . S
H937 C952 0.959 . S
H938 C952 0.961 . S
H939 C953 0.960 . S
H940 C953 0.961 . S
H941 C953 0.959 . S
H942 C956 0.929 . S
H943 C957 0.931 . S
H944 C959 0.930 . S
C945 H933 0.930 . S
C945 C946 1.399 . S
C945 C950 1.399 . S
C946 C945 1.399 . S
C946 C947 1.376 . S
C947 H934 0.930 . S
C947 C946 1.376 . S
C947 C948 1.388 . S
C948 H935 0.930 . S
C948 C947 1.388 . S
C948 C949 1.390 . S
C949 C948 1.390 . S
C949 C950 1.394 . S
C949 C955 1.465 . S
C950 C945 1.399 . S
C950 C949 1.394 . S
C950 C951 1.516 . S
C951 C950 1.516 . S
C951 C952 1.502 . S
C951 C953 1.561 . S
C951 C954 1.526 . S
C952 H936 0.959 . S
C952 H937 0.959 . S
C952 H938 0.961 . S
C952 C951 1.502 . S
C953 H939 0.960 . S
C953 H940 0.961 . S
C953 H941 0.959 . S
C953 C951 1.561 . S
C954 C951 1.526 . S
C954 C955 1.396 . S
C954 C959 1.390 . S
C955 C949 1.465 . S
C955 C954 1.396 . S
C955 C956 1.399 . S
C956 H942 0.929 . S
C956 C955 1.399 . S
C956 C957 1.385 . S
C957 H943 0.931 . S
C957 C956 1.385 . S
C957 C958 1.389 . S
C958 C957 1.389 . S
C958 C959 1.387 . S
C959 H944 0.930 . S
C959 C954 1.390 . S
C959 C958 1.387 . S
H960 C972 0.930 . S
H961 C974 0.930 . S
H962 C975 0.930 . S
H963 C979 0.959 . S
H964 C979 0.959 . S
H965 C979 0.961 . S
H966 C980 0.960 . S
H967 C980 0.961 . S
H968 C980 0.959 . S
H969 C983 0.929 . S
H970 C984 0.931 . S
H971 C986 0.930 . S
C972 H960 0.930 . S
C972 C973 1.399 . S
C972 C977 1.399 . S
C973 C972 1.399 . S
C973 C974 1.376 . S
C974 H961 0.930 . S
C974 C973 1.376 . S
C974 C975 1.388 . S
C975 H962 0.930 . S
C975 C974 1.388 . S
C975 C976 1.390 . S
C976 C975 1.390 . S
C976 C977 1.394 . S
C976 C982 1.465 . S
C977 C972 1.399 . S
C977 C976 1.394 . S
C977 C978 1.516 . S
C978 C977 1.516 . S
C978 C979 1.502 . S
C978 C980 1.561 . S
C978 C981 1.526 . S
C979 H963 0.959 . S
C979 H964 0.959 . S
C979 H965 0.961 . S
C979 C978 1.502 . S
C980 H966 0.960 . S
C980 H967 0.961 . S
C980 H968 0.959 . S
C980 C978 1.561 . S
C981 C978 1.526 . S
C981 C982 1.396 . S
C981 C986 1.390 . S
C982 C976 1.465 . S
C982 C981 1.396 . S
C982 C983 1.399 . S
C983 H969 0.929 . S
C983 C982 1.399 . S
C983 C984 1.385 . S
C984 H970 0.931 . S
C984 C983 1.385 . S
C984 C985 1.389 . S
C985 C984 1.389 . S
C985 C986 1.387 . S
C986 H971 0.930 . S
C986 C981 1.390 . S
C986 C985 1.387 . S
H987 C999 0.930 . S
H988 C1001 0.930 . S
H989 C1002 0.930 . S
H990 C1006 0.959 . S
H991 C1006 0.959 . S
H992 C1006 0.961 . S
H993 C1007 0.960 . S
H994 C1007 0.961 . S
H995 C1007 0.959 . S
H996 C1010 0.929 . S
H997 C1011 0.931 . S
H998 C1013 0.930 . S
C999 H987 0.930 . S
C999 C1000 1.399 . S
C999 C1004 1.399 . S
C1000 C999 1.399 . S
C1000 C1001 1.376 . S
C1001 H988 0.930 . S
C1001 C1000 1.376 . S
C1001 C1002 1.388 . S
C1002 H989 0.930 . S
C1002 C1001 1.388 . S
C1002 C1003 1.390 . S
C1003 C1002 1.390 . S
C1003 C1004 1.394 . S
C1003 C1009 1.465 . S
C1004 C999 1.399 . S
C1004 C1003 1.394 . S
C1004 C1005 1.516 . S
C1005 C1004 1.516 . S
C1005 C1006 1.502 . S
C1005 C1007 1.561 . S
C1005 C1008 1.526 . S
C1006 H990 0.959 . S
C1006 H991 0.959 . S
C1006 H992 0.961 . S
C1006 C1005 1.502 . S
C1007 H993 0.960 . S
C1007 H994 0.961 . S
C1007 H995 0.959 . S
C1007 C1005 1.561 . S
C1008 C1005 1.526 . S
C1008 C1009 1.396 . S
C1008 C1013 1.390 . S
C1009 C1003 1.465 . S
C1009 C1008 1.396 . S
C1009 C1010 1.399 . S
C1010 H996 0.929 . S
C1010 C1009 1.399 . S
C1010 C1011 1.385 . S
C1011 H997 0.931 . S
C1011 C1010 1.385 . S
C1011 C1012 1.389 . S
C1012 C1011 1.389 . S
C1012 C1013 1.387 . S
C1013 H998 0.930 . S
C1013 C1008 1.390 . S
C1013 C1012 1.387 . S
H1014 C1026 0.930 . S
H1015 C1028 0.930 . S
H1016 C1029 0.930 . S
H1017 C1033 0.959 . S
H1018 C1033 0.959 . S
H1019 C1033 0.961 . S
H1020 C1034 0.960 . S
H1021 C1034 0.961 . S
H1022 C1034 0.959 . S
H1023 C1037 0.929 . S
H1024 C1038 0.931 . S
H1025 C1040 0.930 . S
C1026 H1014 0.930 . S
C1026 C1027 1.399 . S
C1026 C1031 1.399 . S
C1027 C1026 1.399 . S
C1027 C1028 1.376 . S
C1028 H1015 0.930 . S
C1028 C1027 1.376 . S
C1028 C1029 1.388 . S
C1029 H1016 0.930 . S
C1029 C1028 1.388 . S
C1029 C1030 1.390 . S
C1030 C1029 1.390 . S
C1030 C1031 1.394 . S
C1030 C1036 1.465 . S
C1031 C1026 1.399 . S
C1031 C1030 1.394 . S
C1031 C1032 1.516 . S
C1032 C1031 1.516 . S
C1032 C1033 1.502 . S
C1032 C1034 1.561 . S
C1032 C1035 1.526 . S
C1033 H1017 0.959 . S
C1033 H1018 0.959 . S
C1033 H1019 0.961 . S
C1033 C1032 1.502 . S
C1034 H1020 0.960 . S
C1034 H1021 0.961 . S
C1034 H1022 0.959 . S
C1034 C1032 1.561 . S
C1035 C1032 1.526 . S
C1035 C1036 1.396 . S
C1035 C1040 1.390 . S
C1036 C1030 1.465 . S
C1036 C1035 1.396 . S
C1036 C1037 1.399 . S
C1037 H1023 0.929 . S
C1037 C1036 1.399 . S
C1037 C1038 1.385 . S
C1038 H1024 0.931 . S
C1038 C1037 1.385 . S
C1038 C1039 1.389 . S
C1039 C1038 1.389 . S
C1039 C1040 1.387 . S
C1040 H1025 0.930 . S
C1040 C1035 1.390 . S
C1040 C1039 1.387 . S
H1041 C1053 0.930 . S
H1042 C1055 0.930 . S
H1043 C1056 0.930 . S
H1044 C1060 0.959 . S
H1045 C1060 0.959 . S
H1046 C1060 0.961 . S
H1047 C1061 0.960 . S
H1048 C1061 0.961 . S
H1049 C1061 0.959 . S
H1050 C1064 0.929 . S
H1051 C1065 0.931 . S
H1052 C1067 0.930 . S
C1053 H1041 0.930 . S
C1053 C1054 1.399 . S
C1053 C1058 1.399 . S
C1054 C1053 1.399 . S
C1054 C1055 1.376 . S
C1055 H1042 0.930 . S
C1055 C1054 1.376 . S
C1055 C1056 1.388 . S
C1056 H1043 0.930 . S
C1056 C1055 1.388 . S
C1056 C1057 1.390 . S
C1057 C1056 1.390 . S
C1057 C1058 1.394 . S
C1057 C1063 1.465 . S
C1058 C1053 1.399 . S
C1058 C1057 1.394 . S
C1058 C1059 1.516 . S
C1059 C1058 1.516 . S
C1059 C1060 1.502 . S
C1059 C1061 1.561 . S
C1059 C1062 1.526 . S
C1060 H1044 0.959 . S
C1060 H1045 0.959 . S
C1060 H1046 0.961 . S
C1060 C1059 1.502 . S
C1061 H1047 0.960 . S
C1061 H1048 0.961 . S
C1061 H1049 0.959 . S
C1061 C1059 1.561 . S
C1062 C1059 1.526 . S
C1062 C1063 1.396 . S
C1062 C1067 1.390 . S
C1063 C1057 1.465 . S
C1063 C1062 1.396 . S
C1063 C1064 1.399 . S
C1064 H1050 0.929 . S
C1064 C1063 1.399 . S
C1064 C1065 1.385 . S
C1065 H1051 0.931 . S
C1065 C1064 1.385 . S
C1065 C1066 1.389 . S
C1066 C1065 1.389 . S
C1066 C1067 1.387 . S
C1067 H1052 0.930 . S
C1067 C1062 1.390 . S
C1067 C1066 1.387 . S
H1068 C1080 0.930 . S
H1069 C1082 0.930 . S
H1070 C1083 0.930 . S
H1071 C1087 0.959 . S
H1072 C1087 0.959 . S
H1073 C1087 0.961 . S
H1074 C1088 0.960 . S
H1075 C1088 0.961 . S
H1076 C1088 0.959 . S
H1077 C1091 0.929 . S
H1078 C1092 0.931 . S
H1079 C1094 0.930 . S
C1080 H1068 0.930 . S
C1080 C1081 1.399 . S
C1080 C1085 1.399 . S
C1081 C1080 1.399 . S
C1081 C1082 1.376 . S
C1082 H1069 0.930 . S
C1082 C1081 1.376 . S
C1082 C1083 1.388 . S
C1083 H1070 0.930 . S
C1083 C1082 1.388 . S
C1083 C1084 1.390 . S
C1084 C1083 1.390 . S
C1084 C1085 1.394 . S
C1084 C1090 1.465 . S
C1085 C1080 1.399 . S
C1085 C1084 1.394 . S
C1085 C1086 1.516 . S
C1086 C1085 1.516 . S
C1086 C1087 1.502 . S
C1086 C1088 1.561 . S
C1086 C1089 1.526 . S
C1087 H1071 0.959 . S
C1087 H1072 0.959 . S
C1087 H1073 0.961 . S
C1087 C1086 1.502 . S
C1088 H1074 0.960 . S
C1088 H1075 0.961 . S
C1088 H1076 0.959 . S
C1088 C1086 1.561 . S
C1089 C1086 1.526 . S
C1089 C1090 1.396 . S
C1089 C1094 1.390 . S
C1090 C1084 1.465 . S
C1090 C1089 1.396 . S
C1090 C1091 1.399 . S
C1091 H1077 0.929 . S
C1091 C1090 1.399 . S
C1091 C1092 1.385 . S
C1092 H1078 0.931 . S
C1092 C1091 1.385 . S
C1092 C1093 1.389 . S
C1093 C1092 1.389 . S
C1093 C1094 1.387 . S
C1094 H1079 0.930 . S
C1094 C1089 1.390 . S
C1094 C1093 1.387 . S
H1095 C1107 0.930 . S
H1096 C1109 0.930 . S
H1097 C1110 0.930 . S
H1098 C1114 0.959 . S
H1099 C1114 0.959 . S
H1100 C1114 0.961 . S
H1101 C1115 0.960 . S
H1102 C1115 0.961 . S
H1103 C1115 0.959 . S
H1104 C1118 0.929 . S
H1105 C1119 0.931 . S
H1106 C1121 0.930 . S
C1107 H1095 0.930 . S
C1107 C1108 1.399 . S
C1107 C1112 1.399 . S
C1108 C1107 1.399 . S
C1108 C1109 1.376 . S
C1109 H1096 0.930 . S
C1109 C1108 1.376 . S
C1109 C1110 1.388 . S
C1110 H1097 0.930 . S
C1110 C1109 1.388 . S
C1110 C1111 1.390 . S
C1111 C1110 1.390 . S
C1111 C1112 1.394 . S
C1111 C1117 1.465 . S
C1112 C1107 1.399 . S
C1112 C1111 1.394 . S
C1112 C1113 1.516 . S
C1113 C1112 1.516 . S
C1113 C1114 1.502 . S
C1113 C1115 1.561 . S
C1113 C1116 1.526 . S
C1114 H1098 0.959 . S
C1114 H1099 0.959 . S
C1114 H1100 0.961 . S
C1114 C1113 1.502 . S
C1115 H1101 0.960 . S
C1115 H1102 0.961 . S
C1115 H1103 0.959 . S
C1115 C1113 1.561 . S
C1116 C1113 1.526 . S
C1116 C1117 1.396 . S
C1116 C1121 1.390 . S
C1117 C1111 1.465 . S
C1117 C1116 1.396 . S
C1117 C1118 1.399 . S
C1118 H1104 0.929 . S
C1118 C1117 1.399 . S
C1118 C1119 1.385 . S
C1119 H1105 0.931 . S
C1119 C1118 1.385 . S
C1119 C1120 1.389 . S
C1120 C1119 1.389 . S
C1120 C1121 1.387 . S
C1121 H1106 0.930 . S
C1121 C1116 1.390 . S
C1121 C1120 1.387 . S
H1122 C1134 0.930 . S
H1123 C1136 0.930 . S
H1124 C1137 0.930 . S
H1125 C1141 0.959 . S
H1126 C1141 0.959 . S
H1127 C1141 0.961 . S
H1128 C1142 0.960 . S
H1129 C1142 0.961 . S
H1130 C1142 0.959 . S
H1131 C1145 0.929 . S
H1132 C1146 0.931 . S
H1133 C1148 0.930 . S
C1134 H1122 0.930 . S
C1134 C1135 1.399 . S
C1134 C1139 1.399 . S
C1135 C1134 1.399 . S
C1135 C1136 1.376 . S
C1136 H1123 0.930 . S
C1136 C1135 1.376 . S
C1136 C1137 1.388 . S
C1137 H1124 0.930 . S
C1137 C1136 1.388 . S
C1137 C1138 1.390 . S
C1138 C1137 1.390 . S
C1138 C1139 1.394 . S
C1138 C1144 1.465 . S
C1139 C1134 1.399 . S
C1139 C1138 1.394 . S
C1139 C1140 1.516 . S
C1140 C1139 1.516 . S
C1140 C1141 1.502 . S
C1140 C1142 1.561 . S
C1140 C1143 1.526 . S
C1141 H1125 0.959 . S
C1141 H1126 0.959 . S
C1141 H1127 0.961 . S
C1141 C1140 1.502 . S
C1142 H1128 0.960 . S
C1142 H1129 0.961 . S
C1142 H1130 0.959 . S
C1142 C1140 1.561 . S
C1143 C1140 1.526 . S
C1143 C1144 1.396 . S
C1143 C1148 1.390 . S
C1144 C1138 1.465 . S
C1144 C1143 1.396 . S
C1144 C1145 1.399 . S
C1145 H1131 0.929 . S
C1145 C1144 1.399 . S
C1145 C1146 1.385 . S
C1146 H1132 0.931 . S
C1146 C1145 1.385 . S
C1146 C1147 1.389 . S
C1147 C1146 1.389 . S
C1147 C1148 1.387 . S
C1148 H1133 0.930 . S
C1148 C1143 1.390 . S
C1148 C1147 1.387 . S
H1149 C1161 0.930 . S
H1150 C1163 0.930 . S
H1151 C1164 0.930 . S
H1152 C1168 0.959 . S
H1153 C1168 0.959 . S
H1154 C1168 0.961 . S
H1155 C1169 0.960 . S
H1156 C1169 0.961 . S
H1157 C1169 0.959 . S
H1158 C1172 0.929 . S
H1159 C1173 0.931 . S
H1160 C1175 0.930 . S
C1161 H1149 0.930 . S
C1161 C1162 1.399 . S
C1161 C1166 1.399 . S
C1162 C1161 1.399 . S
C1162 C1163 1.376 . S
C1163 H1150 0.930 . S
C1163 C1162 1.376 . S
C1163 C1164 1.388 . S
C1164 H1151 0.930 . S
C1164 C1163 1.388 . S
C1164 C1165 1.390 . S
C1165 C1164 1.390 . S
C1165 C1166 1.394 . S
C1165 C1171 1.465 . S
C1166 C1161 1.399 . S
C1166 C1165 1.394 . S
C1166 C1167 1.516 . S
C1167 C1166 1.516 . S
C1167 C1168 1.502 . S
C1167 C1169 1.561 . S
C1167 C1170 1.526 . S
C1168 H1152 0.959 . S
C1168 H1153 0.959 . S
C1168 H1154 0.961 . S
C1168 C1167 1.502 . S
C1169 H1155 0.960 . S
C1169 H1156 0.961 . S
C1169 H1157 0.959 . S
C1169 C1167 1.561 . S
C1170 C1167 1.526 . S
C1170 C1171 1.396 . S
C1170 C1175 1.390 . S
C1171 C1165 1.465 . S
C1171 C1170 1.396 . S
C1171 C1172 1.399 . S
C1172 H1158 0.929 . S
C1172 C1171 1.399 . S
C1172 C1173 1.385 . S
C1173 H1159 0.931 . S
C1173 C1172 1.385 . S
C1173 C1174 1.389 . S
C1174 C1173 1.389 . S
C1174 C1175 1.387 . S
C1175 H1160 0.930 . S
C1175 C1170 1.390 . S
C1175 C1174 1.387 . S
H1176 C1188 0.930 . S
H1177 C1190 0.930 . S
H1178 C1191 0.930 . S
H1179 C1195 0.959 . S
H1180 C1195 0.959 . S
H1181 C1195 0.961 . S
H1182 C1196 0.960 . S
H1183 C1196 0.961 . S
H1184 C1196 0.959 . S
H1185 C1199 0.929 . S
H1186 C1200 0.931 . S
H1187 C1202 0.930 . S
C1188 H1176 0.930 . S
C1188 C1189 1.399 . S
C1188 C1193 1.399 . S
C1189 C1188 1.399 . S
C1189 C1190 1.376 . S
C1190 H1177 0.930 . S
C1190 C1189 1.376 . S
C1190 C1191 1.388 . S
C1191 H1178 0.930 . S
C1191 C1190 1.388 . S
C1191 C1192 1.390 . S
C1192 C1191 1.390 . S
C1192 C1193 1.394 . S
C1192 C1198 1.465 . S
C1193 C1188 1.399 . S
C1193 C1192 1.394 . S
C1193 C1194 1.516 . S
C1194 C1193 1.516 . S
C1194 C1195 1.502 . S
C1194 C1196 1.561 . S
C1194 C1197 1.526 . S
C1195 H1179 0.959 . S
C1195 H1180 0.959 . S
C1195 H1181 0.961 . S
C1195 C1194 1.502 . S
C1196 H1182 0.960 . S
C1196 H1183 0.961 . S
C1196 H1184 0.959 . S
C1196 C1194 1.561 . S
C1197 C1194 1.526 . S
C1197 C1198 1.396 . S
C1197 C1202 1.390 . S
C1198 C1192 1.465 . S
C1198 C1197 1.396 . S
C1198 C1199 1.399 . S
C1199 H1185 0.929 . S
C1199 C1198 1.399 . S
C1199 C1200 1.385 . S
C1200 H1186 0.931 . S
C1200 C1199 1.385 . S
C1200 C1201 1.389 . S
C1201 C1200 1.389 . S
C1201 C1202 1.387 . S
C1202 H1187 0.930 . S
C1202 C1197 1.390 . S
C1202 C1201 1.387 . S
H1203 C1215 0.930 . S
H1204 C1217 0.930 . S
H1205 C1218 0.930 . S
H1206 C1222 0.959 . S
H1207 C1222 0.959 . S
H1208 C1222 0.961 . S
H1209 C1223 0.960 . S
H1210 C1223 0.961 . S
H1211 C1223 0.959 . S
H1212 C1226 0.929 . S
H1213 C1227 0.931 . S
H1214 C1229 0.930 . S
C1215 H1203 0.930 . S
C1215 C1216 1.399 . S
C1215 C1220 1.399 . S
C1216 C1215 1.399 . S
C1216 C1217 1.376 . S
C1217 H1204 0.930 . S
C1217 C1216 1.376 . S
C1217 C1218 1.388 . S
C1218 H1205 0.930 . S
C1218 C1217 1.388 . S
C1218 C1219 1.390 . S
C1219 C1218 1.390 . S
C1219 C1220 1.394 . S
C1219 C1225 1.465 . S
C1220 C1215 1.399 . S
C1220 C1219 1.394 . S
C1220 C1221 1.516 . S
C1221 C1220 1.516 . S
C1221 C1222 1.502 . S
C1221 C1223 1.561 . S
C1221 C1224 1.526 . S
C1222 H1206 0.959 . S
C1222 H1207 0.959 . S
C1222 H1208 0.961 . S
C1222 C1221 1.502 . S
C1223 H1209 0.960 . S
C1223 H1210 0.961 . S
C1223 H1211 0.959 . S
C1223 C1221 1.561 . S
C1224 C1221 1.526 . S
C1224 C1225 1.396 . S
C1224 C1229 1.390 . S
C1225 C1219 1.465 . S
C1225 C1224 1.396 . S
C1225 C1226 1.399 . S
C1226 H1212 0.929 . S
C1226 C1225 1.399 . S
C1226 C1227 1.385 . S
C1227 H1213 0.931 . S
C1227 C1226 1.385 . S
C1227 C1228 1.389 . S
C1228 C1227 1.389 . S
C1228 C1229 1.387 . S
C1229 H1214 0.930 . S
C1229 C1224 1.390 . S
C1229 C1228 1.387 . S
H1230 C1242 0.930 . S
H1231 C1244 0.930 . S
H1232 C1245 0.930 . S
H1233 C1249 0.959 . S
H1234 C1249 0.959 . S
H1235 C1249 0.961 . S
H1236 C1250 0.960 . S
H1237 C1250 0.961 . S
H1238 C1250 0.959 . S
H1239 C1253 0.929 . S
H1240 C1254 0.931 1_556 S
H1241 C1256 0.930 . S
C1242 H1230 0.930 . S
C1242 C1243 1.399 . S
C1242 C1247 1.399 . S
C1243 C1242 1.399 . S
C1243 C1244 1.376 . S
C1244 H1231 0.930 . S
C1244 C1243 1.376 . S
C1244 C1245 1.388 . S
C1245 H1232 0.930 . S
C1245 C1244 1.388 . S
C1245 C1246 1.390 . S
C1246 C1245 1.390 . S
C1246 C1247 1.394 . S
C1246 C1252 1.465 . S
C1247 C1242 1.399 . S
C1247 C1246 1.394 . S
C1247 C1248 1.516 . S
C1248 C1247 1.516 . S
C1248 C1249 1.502 . S
C1248 C1250 1.561 . S
C1248 C1251 1.526 . S
C1249 H1233 0.959 . S
C1249 H1234 0.959 . S
C1249 H1235 0.961 . S
C1249 C1248 1.502 . S
C1250 H1236 0.960 . S
C1250 H1237 0.961 . S
C1250 H1238 0.959 . S
C1250 C1248 1.561 . S
C1251 C1248 1.526 . S
C1251 C1252 1.396 . S
C1251 C1256 1.390 . S
C1252 C1246 1.465 . S
C1252 C1251 1.396 . S
C1252 C1253 1.399 . S
C1253 H1239 0.929 . S
C1253 C1252 1.399 . S
C1253 C1254 1.385 . S
C1254 H1240 0.931 1_554 S
C1254 C1253 1.385 . S
C1254 C1255 1.389 . S
C1255 C1254 1.389 . S
C1255 C1256 1.387 . S
C1256 H1241 0.930 . S
C1256 C1251 1.390 . S
C1256 C1255 1.387 . S
H1257 C1269 0.930 . S
H1258 C1271 0.930 . S
H1259 C1272 0.930 . S
H1260 C1276 0.959 . S
H1261 C1276 0.959 . S
H1262 C1276 0.961 . S
H1263 C1277 0.960 . S
H1264 C1277 0.961 . S
H1265 C1277 0.959 . S
H1266 C1280 0.929 . S
H1267 C1281 0.931 . S
H1268 C1283 0.930 . S
C1269 H1257 0.930 . S
C1269 C1270 1.399 . S
C1269 C1274 1.399 . S
C1270 C1269 1.399 . S
C1270 C1271 1.376 . S
C1271 H1258 0.930 . S
C1271 C1270 1.376 . S
C1271 C1272 1.388 . S
C1272 H1259 0.930 . S
C1272 C1271 1.388 . S
C1272 C1273 1.390 . S
C1273 C1272 1.390 . S
C1273 C1274 1.394 . S
C1273 C1279 1.465 . S
C1274 C1269 1.399 . S
C1274 C1273 1.394 . S
C1274 C1275 1.516 . S
C1275 C1274 1.516 . S
C1275 C1276 1.502 . S
C1275 C1277 1.561 . S
C1275 C1278 1.526 . S
C1276 H1260 0.959 . S
C1276 H1261 0.959 . S
C1276 H1262 0.961 . S
C1276 C1275 1.502 . S
C1277 H1263 0.960 . S
C1277 H1264 0.961 . S
C1277 H1265 0.959 . S
C1277 C1275 1.561 . S
C1278 C1275 1.526 . S
C1278 C1279 1.396 . S
C1278 C1283 1.390 . S
C1279 C1273 1.465 . S
C1279 C1278 1.396 . S
C1279 C1280 1.399 . S
C1280 H1266 0.929 . S
C1280 C1279 1.399 . S
C1280 C1281 1.385 . S
C1281 H1267 0.931 . S
C1281 C1280 1.385 . S
C1281 C1282 1.389 . S
C1282 C1281 1.389 . S
C1282 C1283 1.387 . S
C1283 H1268 0.930 . S
C1283 C1278 1.390 . S
C1283 C1282 1.387 . S
C661 C577 1.582 . S
C649 C8 1.539 . S
C676 C26 1.554 . S
C688 C137 1.585 . S
C703 C50 1.514 . S
C715 C225 1.581 . S
C730 C68 1.531 . S
C742 C304 1.554 . S
C769 C401 1.561 . S
C757 C80 1.502 . S
C784 C104 1.538 . S
C796 C480 1.557 . S
C811 C32 1.504 . S
C823 C245 1.567 . S
C838 C44 1.508 . S
C850 C341 1.569 . S
C865 C62 1.561 . S
C877 C421 1.582 . S
C904 C517 1.567 . S
C892 C86 1.544 1_554 S
C931 C597 1.569 . S
C919 C98 1.565 . S
C958 C157 1.582 . S
C946 C14 1.566 . S
C973 C7 1.446 . S
C985 C253 1.515 . S
C1000 C25 1.485 . S
C1012 C333 1.507 . S
C1039 C429 1.520 . S
C1027 C52 1.421 . S
C1054 C70 1.431 . S
C1066 C509 1.536 . S
C1093 C605 1.505 . S
C1081 C79 1.472 . S
C1120 C165 1.535 . S
C1108 C106 1.472 . S
C1147 C568 1.532 . S
C1135 C34 1.429 . S
C1162 C43 1.506 . S
C1174 C128 1.515 . S
C1201 C216 1.516 . S
C1189 C61 1.441 . S
C1216 C88 1.422 . S
C1228 C313 1.521 . S
C1243 C97 1.505 . S
C1255 C392 1.514 . S
C1270 C16 1.451 . S
C1282 C489 1.512 . S
