# Generated by pormake.
# Topology zzz, (3,6)-cn, num edge types: 1
# Building blocks:
#     Node 0, Type 0, BuildingBlock: BETDIP_clean_linker_0, # of connection points: 3
#     Node 1, Type 0, BuildingBlock: BETDIP_clean_linker_0, # of connection points: 3
#     Node 2, Type 0, BuildingBlock: BETDIP_clean_linker_0, # of connection points: 3
#     Node 3, Type 0, BuildingBlock: BETDIP_clean_linker_0, # of connection points: 3
#     Node 4, Type 0, BuildingBlock: BETDIP_clean_linker_0, # of connection points: 3
#     Node 5, Type 0, BuildingBlock: BETDIP_clean_linker_0, # of connection points: 3
#     Node 6, Type 0, BuildingBlock: BETDIP_clean_linker_0, # of connection points: 3
#     Node 7, Type 0, BuildingBlock: BETDIP_clean_linker_0, # of connection points: 3
#     Node 8, Type 1, BuildingBlock: MIFKUJ_clean_sbu_0, # of connection points: 6
#     Node 9, Type 1, BuildingBlock: MIFKUJ_clean_sbu_0, # of connection points: 6
#     Node 10, Type 1, BuildingBlock: MIFKUJ_clean_sbu_0, # of connection points: 6
#     Node 11, Type 1, BuildingBlock: MIFKUJ_clean_sbu_0, # of connection points: 6
#     Edge 12, Type (0, 1), BuildingBlock: AJUNOK_clean_linker_0, # of connection points: 2
#     Edge 13, Type (0, 1), BuildingBlock: AJUNOK_clean_linker_0, # of connection points: 2
#     Edge 14, Type (0, 1), BuildingBlock: AJUNOK_clean_linker_0, # of connection points: 2
#     Edge 15, Type (0, 1), BuildingBlock: AJUNOK_clean_linker_0, # of connection points: 2
#     Edge 16, Type (0, 1), BuildingBlock: AJUNOK_clean_linker_0, # of connection points: 2
#     Edge 17, Type (0, 1), BuildingBlock: AJUNOK_clean_linker_0, # of connection points: 2
#     Edge 18, Type (0, 1), BuildingBlock: AJUNOK_clean_linker_0, # of connection points: 2
#     Edge 19, Type (0, 1), BuildingBlock: AJUNOK_clean_linker_0, # of connection points: 2
#     Edge 20, Type (0, 1), BuildingBlock: AJUNOK_clean_linker_0, # of connection points: 2
#     Edge 21, Type (0, 1), BuildingBlock: AJUNOK_clean_linker_0, # of connection points: 2
#     Edge 22, Type (0, 1), BuildingBlock: AJUNOK_clean_linker_0, # of connection points: 2
#     Edge 23, Type (0, 1), BuildingBlock: AJUNOK_clean_linker_0, # of connection points: 2
#     Edge 24, Type (0, 1), BuildingBlock: AJUNOK_clean_linker_0, # of connection points: 2
#     Edge 25, Type (0, 1), BuildingBlock: AJUNOK_clean_linker_0, # of connection points: 2
#     Edge 26, Type (0, 1), BuildingBlock: AJUNOK_clean_linker_0, # of connection points: 2
#     Edge 27, Type (0, 1), BuildingBlock: AJUNOK_clean_linker_0, # of connection points: 2
#     Edge 28, Type (0, 1), BuildingBlock: AJUNOK_clean_linker_0, # of connection points: 2
#     Edge 29, Type (0, 1), BuildingBlock: AJUNOK_clean_linker_0, # of connection points: 2
#     Edge 30, Type (0, 1), BuildingBlock: AJUNOK_clean_linker_0, # of connection points: 2
#     Edge 31, Type (0, 1), BuildingBlock: AJUNOK_clean_linker_0, # of connection points: 2
#     Edge 32, Type (0, 1), BuildingBlock: AJUNOK_clean_linker_0, # of connection points: 2
#     Edge 33, Type (0, 1), BuildingBlock: AJUNOK_clean_linker_0, # of connection points: 2
#     Edge 34, Type (0, 1), BuildingBlock: AJUNOK_clean_linker_0, # of connection points: 2
#     Edge 35, Type (0, 1), BuildingBlock: AJUNOK_clean_linker_0, # of connection points: 2
# Relax obj value: 0.122
# Max RMSD: 0.122
# Mean RMSD: 0.084
data_MOF--net-zzz--node1-MIFKUJ_clean_sbu_0--node2-BETDIP_clean_linker_0--edge1-AJUNOK_clean_linker_0
_symmetry_space_group_name_H-M    P1
_symmetry_Int_Tables_number       1
_symmetry_cell_setting            triclinic
loop_
_symmetry_equiv_pos_as_xyz
'x, y, z'
_cell_length_a     36.018246
_cell_length_b     37.058028
_cell_length_c     12.782985
_cell_angle_alpha  89.596341
_cell_angle_beta   89.418591
_cell_angle_gamma 89.361808
loop_
_atom_site_label
_atom_site_type_symbol
_atom_site_fract_x
_atom_site_fract_y
_atom_site_fract_z
_atom_type_partial_charge
H0 H 0.73738 0.52514 0.22684 0.0
H1 H 0.74169 0.55748 0.90197 0.0
H2 H 0.84094 0.55565 0.08198 0.0
H3 H 0.68155 0.59008 -0.01209 0.0
C4 C 0.67429 0.56168 -0.01199 0.0
C5 C 0.75274 0.53537 0.1599 0.0
C6 C 0.79144 0.54108 0.16685 0.0
C7 C 0.73416 0.54327 0.06515 0.0
C8 C 0.75491 0.55426 -0.02266 0.0
C9 C 0.79311 0.55852 -0.01613 0.0
C10 C 0.81092 0.55337 0.07894 0.0
N11 N 0.69524 0.53823 0.05451 0.0
H12 H 1.01915 0.72733 0.22586 0.0
H13 H 0.04602 0.7468 0.90039 0.0
H14 H 0.05548 0.83192 0.12173 0.0
H15 H 0.98618 0.71504 0.90085 0.0
C16 C 1.00142 0.69226 0.93401 0.0
C17 C 0.02966 0.74478 0.1643 0.0
C18 C 0.03925 0.7808 0.1866 0.0
C19 C 0.03198 0.7323 0.05999 0.0
C20 C 0.04463 0.75575 -0.01911 0.0
C21 C 0.05251 0.79166 0.00251 0.0
C22 C 0.0509 0.8036 0.10545 0.0
N23 N 1.01937 0.69736 0.03188 0.0
H24 H 0.79125 0.99781 0.24451 0.0
H25 H 0.79441 0.96134 0.92612 0.0
H26 H 0.69604 0.94708 0.10867 0.0
H27 H 0.85647 0.93738 0.00592 0.0
C28 C 0.86135 0.96624 0.01066 0.0
C29 C 0.7784 0.98334 0.18142 0.0
C30 C 0.74056 0.97309 0.18903 0.0
C31 C 0.79907 0.97607 0.08865 0.0
C32 C 0.78068 0.96198 0.00198 0.0
C33 C 0.74313 0.95377 0.0083 0.0
C34 C 0.725 0.95481 0.10484 0.0
N35 N 0.83683 0.9867 0.07632 0.0
H36 H 0.5393 0.80636 0.21133 0.0
H37 H 0.50096 0.7843 0.89924 0.0
H38 H 0.50471 0.69972 0.12796 0.0
H39 H 0.5528 0.81918 0.86397 0.0
C40 C 0.54352 0.84183 0.91154 0.0
C41 C 0.52787 0.78805 0.15471 0.0
C42 C 0.52108 0.75176 0.18266 0.0
C43 C 0.52156 0.79983 0.05082 0.0
C44 C 0.50683 0.77555 -0.02156 0.0
C45 C 0.50195 0.7393 0.00485 0.0
C46 C 0.50793 0.72801 0.10751 0.0
N47 N 0.53177 0.83516 0.01698 0.0
H48 H 0.30449 0.47186 0.91202 0.0
H49 H 0.30295 0.46933 0.24893 0.0
H50 H 0.20171 0.45717 0.08141 0.0
H51 H 0.34191 0.53358 0.11026 0.0
C52 C 0.35873 0.50967 0.12627 0.0
C53 C 0.28951 0.46753 -0.01515 0.0
C54 C 0.25055 0.46329 -0.01535 0.0
C55 C 0.30858 0.46881 0.08072 0.0
C56 C 0.28873 0.46628 0.1752 0.0
C57 C 0.2505 0.46131 0.17441 0.0
C58 C 0.23181 0.45884 0.07995 0.0
N59 N 0.347 0.47638 0.08411 0.0
H60 H 1.00403 0.30241 0.93566 0.0
H61 H 1.00054 0.29658 0.27366 0.0
H62 H 0.0338 0.2041 0.09721 0.0
H63 H 0.9435 0.33669 0.21542 0.0
C64 C 0.96633 0.35394 0.19139 0.0
C65 C 1.00879 0.28767 0.00784 0.0
C66 C 1.02081 0.25129 0.00487 0.0
C67 C 1.00165 0.30443 0.10512 0.0
C68 C 1.00612 0.28441 0.19822 0.0
C69 C 1.01804 0.24858 0.19423 0.0
C70 C 0.02588 0.23247 0.0986 0.0
N71 N 0.99016 0.34124 0.10971 0.0
H72 H 0.24108 0.04838 0.9038 0.0
H73 H 0.24853 0.04541 0.24077 0.0
H74 H 0.34711 0.05562 0.05476 0.0
H75 H 0.2049 0.98837 0.14931 0.0
C76 C 0.18822 0.01303 0.14785 0.0
C77 C 0.25744 0.05033 -0.02588 0.0
C78 C 0.2965 0.0535 -0.03304 0.0
C79 C 0.23995 0.04772 0.07353 0.0
C80 C 0.26153 0.04835 0.16436 0.0
C81 C 0.29993 0.05121 0.15648 0.0
C82 C 0.317 0.05457 0.05891 0.0
N83 N 0.20116 0.04187 0.0836 0.0
H84 H 0.53425 0.22855 0.90617 0.0
H85 H 0.53041 0.24431 0.24063 0.0
H86 H 0.49768 0.33004 0.03533 0.0
H87 H 0.59457 0.20611 0.18305 0.0
C88 C 0.57136 0.18792 0.1744 0.0
C89 C 0.52701 0.24504 -0.02686 0.0
C90 C 0.51397 0.28081 0.9584 0.0
C91 C 0.53245 0.23145 0.07562 0.0
C92 C 0.52547 0.25396 0.1617 0.0
C93 C 0.51237 0.28906 0.14645 0.0
C94 C 0.50591 0.30196 0.04581 0.0
N95 N 0.54566 0.19563 0.09302 0.0
Zn96 Zn 1.01905 0.07299 0.60262 0.0
Zn97 Zn 0.02455 0.96075 0.57908 0.0
C98 C 1.00948 0.13009 0.7348 0.0
O99 O 0.97638 0.12329 0.69787 0.0
C100 C 0.03762 0.89612 0.47406 0.0
O101 O 0.07026 0.90543 0.50933 0.0
O102 O 1.0021 0.11052 0.49911 0.0
O103 O 0.06084 0.049 0.51483 0.0
O104 O 0.06152 0.98943 0.49888 0.0
C105 C 0.02983 0.13095 0.48215 0.0
O106 O 0.06181 0.12232 0.52445 0.0
O107 O 0.03586 0.10776 0.71517 0.0
C108 C 0.02568 0.91218 0.73114 0.0
O109 O 0.99121 0.91484 0.6989 0.0
O110 O 0.04933 0.93453 0.69637 0.0
O111 O 0.98149 0.98602 0.64997 0.0
O112 O 0.97575 0.04524 0.66989 0.0
O113 O 1.01035 0.91803 0.48701 0.0
C114 C 0.07472 0.02014 0.47664 0.0
C115 C 0.96374 0.01336 0.68422 0.0
Zn116 Zn 0.47885 0.02395 0.55393 0.0
Zn117 Zn 0.57175 0.02909 0.63664 0.0
C118 C 0.41434 0.01908 0.67748 0.0
O119 O 0.41438 0.98908 0.62335 0.0
C120 C 0.6308 0.0189 0.50065 0.0
O121 O 0.64039 0.04603 0.55967 0.0
O122 O 0.44251 0.01835 0.44048 0.0
O123 O 0.51176 0.06468 0.49954 0.0
O124 O 0.56232 0.07937 0.58562 0.0
C125 C 0.42242 0.0467 0.43395 0.0
O126 O 0.43205 0.07548 0.4861 0.0
O127 O 0.4429 0.03917 0.6712 0.0
C128 C 0.62161 0.99094 0.74842 0.0
O129 O 0.60285 0.96641 0.69836 0.0
O130 O 0.61153 0.02394 0.74186 0.0
O131 O 0.52902 1.00509 0.71231 0.0
O132 O 0.50127 0.97512 0.59112 0.0
O133 O 0.59845 1.00531 0.51214 0.0
C134 C 0.53945 0.08525 0.51204 0.0
C135 C 0.51772 0.97529 0.67824 0.0
Zn136 Zn 0.52738 0.46049 0.55976 0.0
Zn137 Zn 0.51482 0.57424 0.58121 0.0
C138 C 0.53329 0.3986 0.67701 0.0
O139 O 0.56626 0.40363 0.63475 0.0
C140 C 0.51452 0.64488 0.49671 0.0
O141 O 0.48156 0.64246 0.54097 0.0
O142 O 0.53979 0.42625 0.4442 0.0
O143 O 0.48841 0.49379 0.48616 0.0
O144 O 0.47679 0.55262 0.4901 0.0
C145 C 0.51005 0.40916 0.42619 0.0
O146 O 0.47952 0.4184 0.47664 0.0
O147 O 0.50858 0.42333 0.66584 0.0
C148 C 0.51599 0.61299 0.75512 0.0
O149 O 0.5507 0.60484 0.73357 0.0
O150 O 0.49074 0.59677 0.70664 0.0
O151 O 0.55325 0.53797 0.62642 0.0
O152 O 0.57325 0.48203 0.62874 0.0
O153 O 0.53616 0.61738 0.50042 0.0
C154 C 0.46946 0.52135 0.4565 0.0
C155 C 0.57738 0.51477 0.65444 0.0
Zn156 Zn 0.07545 0.51085 0.57156 0.0
Zn157 Zn 0.96707 0.51457 0.58789 0.0
C158 C 0.13319 0.50812 0.70726 0.0
O159 O 0.134 0.54008 0.66229 0.0
C160 C 0.91039 0.50289 0.44654 0.0
O161 O 0.90995 0.47347 0.50446 0.0
O162 O 0.1167 0.51459 0.46799 0.0
O163 O 0.04061 0.4776 0.49128 0.0
O164 O 0.98942 0.46518 0.57887 0.0
C165 C 0.13006 0.48286 0.45714 0.0
O166 O 0.11311 0.45576 0.50312 0.0
O167 O 0.10529 0.48807 0.69015 0.0
C168 C 0.91106 0.54638 0.69148 0.0
O169 O 0.92491 0.57296 0.63546 0.0
O170 O 0.92682 0.51552 0.69103 0.0
O171 O 0.99892 0.5544 0.6395 0.0
O172 O 0.0597 0.56011 0.62488 0.0
O173 O 0.93653 0.5254 0.45902 0.0
C174 C 1.01089 0.4597 0.50139 0.0
C175 C 0.02823 0.57202 0.65453 0.0
C176 C 0.15474 0.98899 0.30326 0.0
C177 C 0.1594 0.01744 0.23121 0.0
C178 C 0.12831 0.99092 0.38409 0.0
C179 C 0.10526 0.0215 0.39714 0.0
H180 H 0.17162 0.9647 0.29688 0.0
H181 H 0.12567 0.9679 0.43628 0.0
S182 S 0.10588 0.10361 0.22858 0.0
N183 N 0.13875 0.07745 0.1778 0.0
N184 N 0.0887 0.08108 0.3297 0.0
C185 C 0.10988 0.05055 0.32641 0.0
C186 C 0.13696 0.04851 0.24338 0.0
C187 C 0.52951 0.14326 0.26588 0.0
C188 C 0.56308 0.1622 0.26129 0.0
C189 C 0.52157 0.1196 0.34935 0.0
C190 C 0.54686 0.11383 0.43177 0.0
H191 H 0.50919 0.14659 0.20461 0.0
H192 H 0.49553 0.10526 0.34802 0.0
S193 S 0.63849 0.15786 0.45683 0.0
N194 N 0.62148 0.17437 0.34681 0.0
N195 N 0.60681 0.12997 0.50309 0.0
C196 C 0.58029 0.1332 0.42861 0.0
C197 C 0.58832 0.15726 0.34357 0.0
C198 C 0.40235 0.48127 0.25808 0.0
C199 C 0.38827 0.51205 0.20622 0.0
C200 C 0.42824 0.48436 0.33938 0.0
C201 C 0.44113 0.51826 0.37193 0.0
H202 H 0.39283 0.45466 0.23736 0.0
H203 H 0.43781 0.45999 0.37747 0.0
S204 S 0.41393 0.60699 0.25512 0.0
N205 N 0.38975 0.57721 0.18988 0.0
N206 N 0.43836 0.58331 0.3404 0.0
C207 C 0.42745 0.54917 0.31869 0.0
C208 C 0.40112 0.54595 0.23656 0.0
C209 C 0.96147 0.38296 0.3661 0.0
C210 C 0.97808 0.38206 0.2661 0.0
C211 C 0.97245 0.40787 0.4415 0.0
C212 C 1.00051 0.43309 0.42008 0.0
H213 H 0.94002 0.36386 0.38695 0.0
H214 H 0.9589 0.40714 0.51751 0.0
S215 S 0.05091 0.44374 0.16653 0.0
N216 N 0.02276 0.40959 0.14739 0.0
N217 N 0.04345 0.45664 0.28841 0.0
C218 C 1.01699 0.43286 0.31934 0.0
C219 C 1.00576 0.40734 0.24254 0.0
C220 C 0.88895 0.96235 0.83191 0.0
C221 C 0.88367 0.98245 0.92394 0.0
C222 C 0.91275 0.97408 0.75146 0.0
C223 C 0.93262 1.00641 0.75947 0.0
H224 H 0.87521 0.9367 0.82295 0.0
H225 H 0.91675 0.95686 0.68404 0.0
S226 S 0.928 0.06948 -0.01579 0.0
N227 N 0.89917 0.03688 0.01751 0.0
N228 N 0.94454 0.05893 0.86715 0.0
C229 C 0.92642 0.02764 0.84952 0.0
C230 C 0.90184 0.01564 0.93157 0.0
C231 C 0.52783 0.87583 0.74911 0.0
C232 C 0.53616 0.8764 0.85641 0.0
C233 C 0.52105 0.9078 0.69269 0.0
C234 C 0.52324 0.94169 0.7409 0.0
H235 H 0.52629 0.85034 0.70842 0.0
H236 H 0.51477 0.90594 0.61022 0.0
S237 S 0.54618 0.95768 0.01984 0.0
N238 N 0.54706 0.91332 0.00854 0.0
N239 N 0.53535 0.97367 0.903 0.0
C240 C 0.53203 0.94256 0.8484 0.0
C241 C 0.53822 0.90987 0.90606 0.0
C242 C 0.63749 0.51333 0.8981 0.0
C243 C 0.65227 0.5483 0.89849 0.0
C244 C 0.61487 0.50184 0.81563 0.0
C245 C 0.60644 0.52485 0.73048 0.0
H246 H 0.64241 0.49515 -0.03667 0.0
H247 H 0.60258 0.47533 0.82093 0.0
S248 S 0.64364 0.61659 0.68578 0.0
N249 N 0.66005 0.60437 0.80106 0.0
N250 N 0.61891 0.58223 0.64526 0.0
C251 C 0.62311 0.5589 0.72693 0.0
C252 C 0.64561 0.57077 0.81117 0.0
C253 C 1.01944 0.62748 0.90145 0.0
C254 C 1.01137 0.6622 0.86258 0.0
C255 C 0.02617 0.59856 0.83287 0.0
C256 C 0.02578 0.60364 0.72358 0.0
H257 H 1.01928 0.62237 -0.015 0.0
H258 H 0.03086 0.57184 0.86546 0.0
S259 S 1.0092 0.68966 0.58263 0.0
N260 N 1.00526 0.70031 0.70763 0.0
N261 N 1.01856 0.64593 0.57984 0.0
C262 C 1.01902 0.63831 0.68392 0.0
C263 C 1.01169 0.66763 0.75329 0.0
C264 C 0.98854 0.20727 0.32133 0.0
C265 C 1.02027 0.22584 0.28777 0.0
C266 C 0.99164 0.17699 0.38683 0.0
C267 C 0.02663 0.16448 0.42003 0.0
H268 H 0.96149 0.21478 0.29128 0.0
H269 H 0.96664 0.16265 0.40842 0.0
S270 S 0.11769 0.20665 0.35926 0.0
N271 N 0.08701 0.23183 0.29635 0.0
N272 N 0.09346 0.17525 0.42047 0.0
C273 C 0.05836 0.18445 0.39154 0.0
C274 C 0.05502 0.21512 0.32499 0.0
C275 C 0.34758 0.01666 0.25138 0.0
C276 C 0.32396 0.04698 0.24727 0.0
C277 C 0.37878 0.01633 0.31492 0.0
C278 C 0.38734 0.04642 0.37601 0.0
H279 H 0.34322 0.99406 0.1997 0.0
H280 H 0.39712 0.99298 0.31225 0.0
S281 S 0.32975 0.12966 0.40598 0.0
N282 N 0.30786 0.10568 0.31786 0.0
N283 N 0.36639 0.10525 0.44001 0.0
C284 C 0.36195 0.07567 0.37933 0.0
C285 C 0.33014 0.07587 0.31425 0.0
C286 C 0.54294 0.32668 0.27841 0.0
C287 C 0.51005 0.31482 0.2325 0.0
C288 C 0.54287 0.3575 0.34091 0.0
C289 C 0.50984 0.37708 0.3595 0.0
H290 H 0.56912 0.31315 0.26145 0.0
H291 H 0.56884 0.3662 0.37395 0.0
S292 S 0.41612 0.35512 0.26087 0.0
N293 N 0.44368 0.32335 0.21255 0.0
N294 N 0.44307 0.38125 0.33063 0.0
C295 C 0.47651 0.36443 0.31715 0.0
C296 C 0.47672 0.33322 0.25347 0.0
C297 C 0.21746 0.50006 0.30032 0.0
C298 C 0.2279 0.46515 0.26912 0.0
C299 C 0.18627 0.50559 0.36421 0.0
C300 C 0.16476 0.47629 0.39852 0.0
H301 H 0.2318 0.52333 0.26867 0.0
H302 H 0.17818 0.53303 0.38321 0.0
S303 S 0.18431 0.37923 0.34784 0.0
N304 N 0.21727 0.40091 0.28343 0.0
N305 N 0.15877 0.41073 0.40545 0.0
C306 C 0.17684 0.44101 0.37402 0.0
C307 C 0.20848 0.43556 0.30866 0.0
C308 C 1.02143 0.8196 0.85127 0.0
C309 C 0.05218 0.81872 0.9178 0.0
C310 C 1.01393 0.84976 0.7895 0.0
C311 C 0.03694 0.88013 0.79152 0.0
H312 H 1.00151 0.79789 0.85209 0.0
H313 H 0.98917 0.84953 0.74204 0.0
S314 S 0.12424 0.88871 0.93996 0.0
N315 N 0.10825 0.8486 -0.02646 0.0
N316 N 0.09418 0.90586 0.8558 0.0
C317 C 0.06942 0.87854 0.85133 0.0
C318 C 0.077 0.84768 0.91503 0.0
C319 C 0.6919 0.93406 0.89416 0.0
C320 C 0.71947 0.95923 0.91658 0.0
C321 C 0.66066 0.94433 0.83659 0.0
C322 C 0.65584 0.98021 0.80196 0.0
H323 H 0.69326 0.90714 0.92764 0.0
H324 H 0.63926 0.92453 0.82411 0.0
S325 S 0.72239 0.05498 0.83005 0.0
N326 N 0.7419 0.0204 0.89109 0.0
N327 N 0.68293 0.03976 0.78419 0.0
C328 C 0.68439 1.00489 0.81789 0.0
C329 C 0.71643 0.99429 0.87444 0.0
C330 C 0.47483 0.68197 0.93971 0.0
C331 C 0.4986 0.7115 0.92343 0.0
C332 C 0.47919 0.65031 0.88132 0.0
C333 C 0.5077 0.64736 0.80637 0.0
H334 H 0.45429 0.6826 0.0022 0.0
H335 H 0.46168 0.62744 0.89907 0.0
S336 S 0.57254 0.71897 0.72007 0.0
N337 N 0.54831 0.73718 0.81679 0.0
N338 N 0.55607 0.67793 0.70686 0.0
C339 C 0.52934 0.67769 0.78284 0.0
C340 C 0.5248 0.70985 0.84129 0.0
C341 C 0.84141 0.58813 0.87544 0.0
C342 C 0.81615 0.5599 0.88939 0.0
C343 C 0.8713 0.58445 0.80573 0.0
C344 C 0.87696 0.55208 0.75117 0.0
H345 H 0.83932 0.61207 0.92341 0.0
H346 H 0.89135 0.60598 0.79985 0.0
S347 S 0.81577 0.4725 0.75054 0.0
N348 N 0.7962 0.50048 0.83519 0.0
N349 N 0.85291 0.49335 0.70509 0.0
C350 C 0.85043 0.52484 0.75881 0.0
C351 C 0.81972 0.52885 0.82789 0.0
C352 C 0.98834 0.22036 0.86253 0.0
C353 C 0.02213 0.22931 0.90869 0.0
C354 C 0.98505 0.18876 0.80398 0.0
C355 C 1.01542 0.16484 0.78924 0.0
H356 H 0.96349 0.23608 0.87969 0.0
H357 H 0.95787 0.1823 0.77436 0.0
S358 S 0.11165 0.1799 0.87854 0.0
N359 N 0.0877 0.2147 0.92462 0.0
N360 N 0.08174 0.15536 0.81352 0.0
C361 C 0.0502 0.17531 0.82685 0.0
C362 C 0.05351 0.2076 0.88639 0.0
C363 C 0.34793 0.07386 0.84927 0.0
C364 C 0.31846 0.04985 0.8684 0.0
C365 C 0.37835 0.06417 0.78549 0.0
C366 C 0.3804 0.03018 0.73742 0.0
H367 H 0.34891 0.09918 0.89103 0.0
H368 H 0.40105 0.08294 0.7774 0.0
S369 S 0.30719 0.96012 0.74785 0.0
N370 N 0.29111 0.99254 0.82433 0.0
N371 N 0.34745 0.97448 0.70196 0.0
C372 C 0.34937 1.00735 0.74797 0.0
C373 C 0.31853 0.01723 0.81354 0.0
C374 C 0.55089 0.30954 0.81782 0.0
C375 C 0.51568 0.30051 0.85725 0.0
C376 C 0.55589 0.34064 0.75644 0.0
C377 C 0.52588 0.36397 0.73231 0.0
H378 H 0.57524 0.29456 0.84311 0.0
H379 H 0.58395 0.34744 0.73303 0.0
S380 S 0.42694 0.34765 0.79776 0.0
N381 N 0.44955 0.31384 0.85421 0.0
N382 N 0.45883 0.37224 0.73797 0.0
C383 C 0.49002 0.35313 0.76209 0.0
C384 C 0.48495 0.3213 0.82417 0.0
C385 C 0.19717 0.44801 0.86992 0.0
C386 C 0.2271 0.47088 0.89198 0.0
C387 C 0.16721 0.45988 0.80866 0.0
C388 C 0.16597 0.49513 0.76728 0.0
H389 H 0.19582 0.4215 0.90595 0.0
H390 H 0.14434 0.44167 0.79671 0.0
S391 S 0.23936 0.56435 0.79395 0.0
N392 N 0.25491 0.52935 0.8616 0.0
N393 N 0.19928 0.55175 0.74555 0.0
C394 C 0.19696 0.51744 0.78332 0.0
C395 C 0.2274 0.50525 0.84545 0.0
C396 C 0.06559 0.80783 0.34477 0.0
C397 C 0.03375 0.79838 0.28926 0.0
C398 C 0.06572 0.83834 0.40897 0.0
C399 C 0.03408 0.8609 0.41959 0.0
H400 H 0.0916 0.79366 0.33028 0.0
H401 H 0.09168 0.84543 0.44516 0.0
S402 S 0.9418 0.84396 0.30471 0.0
N403 N 0.96848 0.81091 0.25957 0.0
N404 N 0.96844 0.86826 0.38088 0.0
C405 C 1.00102 0.84962 0.37285 0.0
C406 C 1.00092 0.81831 0.30781 0.0
C407 C 0.67851 0.99871 0.24342 0.0
C408 C 0.71418 0.98585 0.27287 0.0
C409 C 0.65099 1.0074 0.31743 0.0
C410 C 0.65829 1.00501 0.42435 0.0
H411 H 0.67158 1.00213 0.16165 0.0
H412 H 0.62424 0.01723 0.29069 0.0
S413 S 0.74697 0.97613 0.54583 0.0
N414 N 0.75498 0.97235 0.41874 0.0
N415 N 0.70381 0.99121 0.55805 0.0
C416 C 0.69398 0.9938 0.45594 0.0
C417 C 0.72185 0.98383 0.38034 0.0
C418 C 0.50099 0.7356 0.36246 0.0
C419 C 0.52927 0.7356 0.28624 0.0
C420 C 0.49839 0.70748 0.43627 0.0
C421 C 0.52366 0.67805 0.43554 0.0
H422 H 0.47861 0.75532 0.35828 0.0
H423 H 0.47468 0.70757 0.48907 0.0
S424 S 0.60684 0.66948 0.26367 0.0
N425 N 0.58624 0.70715 0.22426 0.0
N426 N 0.58134 0.65406 0.36203 0.0
C427 C 0.55445 0.68001 0.36731 0.0
C428 C 0.55727 0.70892 0.29303 0.0
C429 C 0.83568 0.55735 0.30658 0.0
C430 C 0.81436 0.53069 0.25813 0.0
C431 C 0.86675 0.54818 0.36705 0.0
C432 C 0.87773 0.51196 0.38132 0.0
H433 H 0.82949 0.58564 0.29251 0.0
H434 H 0.88254 0.56966 0.40173 0.0
S435 S 0.83121 0.43199 0.2717 0.0
N436 N 0.8063 0.46668 0.22905 0.0
N437 N 0.86422 0.4492 0.34428 0.0
C438 C 0.85584 0.48497 0.33668 0.0
C439 C 0.82427 0.49438 0.2748 0.0
loop_
_geom_bond_atom_site_label_1
_geom_bond_atom_site_label_2
_geom_bond_distance
_geom_bond_site_symmetry_2
_ccdc_geom_bond_type
H0 C5 0.930 . S
H1 C8 0.930 . S
H2 C10 0.930 . S
H3 C4 1.016 . S
C4 H3 1.016 . S
C4 N11 1.286 1_556 S
C5 H0 0.930 . S
C5 C6 1.397 . S
C5 C7 1.361 . S
C6 C5 1.397 . S
C6 C10 1.390 . S
C7 C5 1.361 . S
C7 C8 1.393 1_554 S
C7 N11 1.413 . S
C8 H1 0.930 . S
C8 C7 1.393 1_556 S
C8 C9 1.399 . S
C9 C8 1.399 . S
C9 C10 1.381 1_556 S
C10 H2 0.930 . S
C10 C6 1.390 . S
C10 C9 1.381 1_554 S
N11 C4 1.286 1_554 S
N11 C7 1.413 . S
H12 C17 0.930 . S
H13 C20 0.930 . S
H14 C22 0.930 . S
H15 C16 1.016 . S
C16 H15 1.016 . S
C16 N23 1.286 1_656 S
C17 H12 0.930 . S
C17 C18 1.397 . S
C17 C19 1.361 . S
C18 C17 1.397 . S
C18 C22 1.390 1_455 S
C19 C17 1.361 . S
C19 C20 1.393 1_554 S
C19 N23 1.413 . S
C20 H13 0.930 . S
C20 C19 1.393 1_556 S
C20 C21 1.403 . S
C21 C20 1.403 . S
C21 C22 1.379 1_456 S
C22 H14 0.930 . S
C22 C18 1.390 1_655 S
C22 C21 1.379 1_654 S
N23 C16 1.286 1_454 S
N23 C19 1.413 . S
H24 C29 0.930 . S
H25 C32 0.930 . S
H26 C34 0.930 . S
H27 C28 1.016 . S
C28 H27 1.016 . S
C28 N35 1.286 1_556 S
C29 H24 0.930 . S
C29 C30 1.397 . S
C29 C31 1.361 . S
C30 C29 1.397 . S
C30 C34 1.390 . S
C31 C29 1.361 . S
C31 C32 1.393 1_554 S
C31 N35 1.413 . S
C32 H25 0.930 . S
C32 C31 1.393 1_556 S
C32 C33 1.399 . S
C33 C32 1.399 . S
C33 C34 1.381 1_556 S
C34 H26 0.930 . S
C34 C30 1.390 . S
C34 C33 1.381 1_554 S
N35 C28 1.286 1_554 S
N35 C31 1.413 . S
H36 C41 0.930 . S
H37 C44 0.930 . S
H38 C46 0.930 . S
H39 C40 1.016 . S
C40 H39 1.016 . S
C40 N47 1.286 1_556 S
C41 H36 0.930 . S
C41 C42 1.397 . S
C41 C43 1.361 . S
C42 C41 1.397 . S
C42 C46 1.390 . S
C43 C41 1.361 . S
C43 C44 1.393 1_554 S
C43 N47 1.413 . S
C44 H37 0.930 . S
C44 C43 1.393 1_556 S
C44 C45 1.399 . S
C45 C44 1.399 . S
C45 C46 1.381 1_556 S
C46 H38 0.930 . S
C46 C42 1.390 . S
C46 C45 1.381 1_554 S
N47 C40 1.286 1_554 S
N47 C43 1.413 . S
H48 C53 0.930 . S
H49 C56 0.930 . S
H50 C58 0.930 . S
H51 C52 1.016 . S
C52 H51 1.016 . S
C52 N59 1.286 . S
C53 H48 0.930 . S
C53 C54 1.397 . S
C53 C55 1.361 . S
C54 C53 1.397 . S
C54 C58 1.390 . S
C55 C53 1.361 . S
C55 C56 1.393 . S
C55 N59 1.413 . S
C56 H49 0.930 . S
C56 C55 1.393 . S
C56 C57 1.399 . S
C57 C56 1.399 . S
C57 C58 1.381 . S
C58 H50 0.930 . S
C58 C54 1.390 . S
C58 C57 1.381 . S
N59 C52 1.286 . S
N59 C55 1.413 . S
H60 C65 0.933 . S
H61 C68 0.930 . S
H62 C70 0.930 . S
H63 C64 1.027 . S
C64 H63 1.027 . S
C64 N71 1.271 1_655 S
C65 H60 0.933 . S
C65 C66 1.397 . S
C65 C67 1.361 . S
C66 C65 1.397 . S
C66 C70 1.390 1_455 S
C67 C65 1.361 . S
C67 C68 1.393 . S
C67 N71 1.413 . S
C68 H61 0.930 . S
C68 C67 1.393 . S
C68 C69 1.404 . S
C69 C68 1.404 . S
C69 C70 1.378 1_455 S
C70 H62 0.930 . S
C70 C66 1.390 1_655 S
C70 C69 1.378 1_655 S
N71 C64 1.271 1_455 S
N71 C67 1.413 . S
H72 C77 0.930 . S
H73 C80 0.930 . S
H74 C82 0.930 . S
H75 C76 1.016 . S
C76 H75 1.016 . S
C76 N83 1.286 . S
C77 H72 0.930 . S
C77 C78 1.397 . S
C77 C79 1.361 . S
C78 C77 1.397 . S
C78 C82 1.390 . S
C79 C77 1.361 . S
C79 C80 1.393 . S
C79 N83 1.413 . S
C80 H73 0.930 . S
C80 C79 1.393 . S
C80 C81 1.399 . S
C81 C80 1.399 . S
C81 C82 1.381 . S
C82 H74 0.930 . S
C82 C78 1.390 . S
C82 C81 1.381 . S
N83 C76 1.286 . S
N83 C79 1.413 . S
H84 C89 0.932 . S
H85 C92 0.930 . S
H86 C94 0.930 . S
H87 C88 1.016 . S
C88 H87 1.016 . S
C88 N95 1.286 . S
C89 H84 0.932 . S
C89 C90 1.397 . S
C89 C91 1.361 . S
C90 C89 1.397 . S
C90 C94 1.390 . S
C91 C89 1.361 . S
C91 C92 1.393 . S
C91 N95 1.413 . S
C92 H85 0.930 . S
C92 C91 1.393 . S
C92 C93 1.399 . S
C93 C92 1.399 . S
C93 C94 1.381 . S
C94 H86 0.930 . S
C94 C90 1.390 . S
C94 C93 1.381 . S
N95 C88 1.286 . S
N95 C91 1.413 . S
Zn96 O102 1.969 . S
Zn96 O103 1.965 1_655 S
Zn96 O107 2.024 1_655 S
Zn96 O112 1.969 . S
Zn97 O104 1.969 . S
Zn97 O110 1.969 . S
Zn97 O111 1.965 1_455 S
Zn97 O113 2.024 1_455 S
C98 O99 1.229 1_455 S
C98 O107 1.058 . S
O99 C98 1.229 1_655 S
C100 O101 1.229 1_655 S
C100 O113 1.058 . S
O101 C100 1.229 1_455 S
O102 Zn96 1.969 . S
O102 C105 1.267 . S
O103 Zn96 1.965 1_455 S
O103 C114 1.260 . S
O104 Zn97 1.969 . S
O104 C114 1.258 1_565 S
C105 O102 1.267 . S
C105 O106 1.228 1_655 S
O106 C105 1.228 1_455 S
O107 Zn96 2.024 1_455 S
O107 C98 1.058 . S
C108 O109 1.228 1_455 S
C108 O110 1.267 . S
O109 C108 1.228 1_655 S
O110 Zn97 1.969 . S
O110 C108 1.267 . S
O111 Zn97 1.965 1_655 S
O111 C115 1.260 1_565 S
O112 Zn96 1.969 . S
O112 C115 1.258 . S
O113 Zn97 2.024 1_655 S
O113 C100 1.058 . S
C114 O103 1.260 . S
C114 O104 1.258 1_545 S
C115 O111 1.260 1_545 S
C115 O112 1.258 . S
Zn116 O122 1.969 1_545 S
Zn116 O123 1.965 . S
Zn116 O127 2.024 . S
Zn116 O132 1.969 1_545 S
Zn117 O124 1.982 . S
Zn117 O130 1.975 . S
Zn117 O131 1.959 1_545 S
Zn117 O133 2.015 1_545 S
C118 O119 1.229 . S
C118 O127 1.058 . S
O119 C118 1.229 . S
C120 O121 1.229 1_565 S
C120 O133 1.058 . S
O121 C120 1.229 1_545 S
O122 Zn116 1.969 1_565 S
O122 C125 1.267 1_565 S
O123 Zn116 1.965 . S
O123 C134 1.260 . S
O124 Zn117 1.982 . S
O124 C134 1.258 . S
C125 O122 1.267 1_545 S
C125 O126 1.228 . S
O126 C125 1.228 . S
O127 Zn116 2.024 . S
O127 C118 1.058 . S
C128 O129 1.228 . S
C128 O130 1.267 1_565 S
O129 C128 1.228 . S
O130 Zn117 1.975 . S
O130 C128 1.267 1_545 S
O131 Zn117 1.959 1_565 S
O131 C135 1.260 . S
O132 Zn116 1.969 1_565 S
O132 C135 1.258 . S
O133 Zn117 2.015 1_565 S
O133 C120 1.058 . S
C134 O123 1.260 . S
C134 O124 1.258 . S
C135 O131 1.260 . S
C135 O132 1.258 . S
Zn136 O142 1.969 . S
Zn136 O143 1.965 . S
Zn136 O147 2.024 . S
Zn136 O152 1.969 . S
Zn137 O144 1.969 . S
Zn137 O150 1.969 . S
Zn137 O151 1.965 . S
Zn137 O153 2.024 . S
C138 O139 1.229 . S
C138 O147 1.058 . S
O139 C138 1.229 . S
C140 O141 1.229 . S
C140 O153 1.058 . S
O141 C140 1.229 . S
O142 Zn136 1.969 . S
O142 C145 1.267 . S
O143 Zn136 1.965 . S
O143 C154 1.260 . S
O144 Zn137 1.969 . S
O144 C154 1.258 . S
C145 O142 1.267 . S
C145 O146 1.228 . S
O146 C145 1.228 . S
O147 Zn136 2.024 . S
O147 C138 1.058 . S
C148 O149 1.228 . S
C148 O150 1.267 . S
O149 C148 1.228 . S
O150 Zn137 1.969 . S
O150 C148 1.267 . S
O151 Zn137 1.965 . S
O151 C155 1.260 . S
O152 Zn136 1.969 . S
O152 C155 1.258 . S
O153 Zn137 2.024 . S
O153 C140 1.058 . S
C154 O143 1.260 . S
C154 O144 1.258 . S
C155 O151 1.260 . S
C155 O152 1.258 . S
Zn156 O162 1.969 . S
Zn156 O163 1.965 . S
Zn156 O167 2.024 . S
Zn156 O172 1.969 . S
Zn157 O164 1.969 . S
Zn157 O170 1.969 . S
Zn157 O171 1.965 . S
Zn157 O173 2.024 . S
C158 O159 1.229 . S
C158 O167 1.058 . S
O159 C158 1.229 . S
C160 O161 1.229 . S
C160 O173 1.058 . S
O161 C160 1.229 . S
O162 Zn156 1.969 . S
O162 C165 1.267 . S
O163 Zn156 1.965 . S
O163 C174 1.260 1_455 S
O164 Zn157 1.969 . S
O164 C174 1.258 . S
C165 O162 1.267 . S
C165 O166 1.228 . S
O166 C165 1.228 . S
O167 Zn156 2.024 . S
O167 C158 1.058 . S
C168 O169 1.228 . S
C168 O170 1.267 . S
O169 C168 1.228 . S
O170 Zn157 1.969 . S
O170 C168 1.267 . S
O171 Zn157 1.965 . S
O171 C175 1.260 1_655 S
O172 Zn156 1.969 . S
O172 C175 1.258 . S
O173 Zn157 2.024 . S
O173 C160 1.058 . S
C174 O163 1.260 1_655 S
C174 O164 1.258 . S
C175 O171 1.260 1_455 S
C175 O172 1.258 . S
C176 C177 1.369 . S
C176 C178 1.419 . S
C176 H180 0.930 . S
C177 C176 1.369 . S
C177 C186 1.429 . S
C178 C176 1.419 . S
C178 C179 1.363 . S
C178 H181 0.929 1_545 S
C179 C178 1.363 . S
C179 C185 1.428 . S
H180 C176 0.930 . S
H181 C178 0.929 1_565 S
S182 N183 1.613 . S
S182 N184 1.610 . S
N183 S182 1.613 . S
N183 C186 1.350 . S
N184 S182 1.610 . S
N184 C185 1.351 . S
C185 C179 1.428 . S
C185 N184 1.351 . S
C185 C186 1.434 . S
C186 C177 1.429 . S
C186 N183 1.350 . S
C186 C185 1.434 . S
C187 C188 1.369 . S
C187 C189 1.419 . S
C187 H191 0.930 . S
C188 C187 1.369 . S
C188 C197 1.429 . S
C189 C187 1.419 . S
C189 C190 1.363 . S
C189 H192 0.929 . S
C190 C189 1.363 . S
C190 C196 1.428 . S
H191 C187 0.930 . S
H192 C189 0.929 . S
S193 N194 1.613 . S
S193 N195 1.610 . S
N194 S193 1.613 . S
N194 C197 1.350 . S
N195 S193 1.610 . S
N195 C196 1.351 . S
C196 C190 1.428 . S
C196 N195 1.351 . S
C196 C197 1.434 . S
C197 C188 1.429 . S
C197 N194 1.350 . S
C197 C196 1.434 . S
C198 C199 1.369 . S
C198 C200 1.419 . S
C198 H202 0.930 . S
C199 C198 1.369 . S
C199 C208 1.429 . S
C200 C198 1.419 . S
C200 C201 1.363 . S
C200 H203 0.929 . S
C201 C200 1.363 . S
C201 C207 1.428 . S
H202 C198 0.930 . S
H203 C200 0.929 . S
S204 N205 1.613 . S
S204 N206 1.610 . S
N205 S204 1.613 . S
N205 C208 1.350 . S
N206 S204 1.610 . S
N206 C207 1.351 . S
C207 C201 1.428 . S
C207 N206 1.351 . S
C207 C208 1.434 . S
C208 C199 1.429 . S
C208 N205 1.350 . S
C208 C207 1.434 . S
C209 C210 1.362 1_455 S
C209 C211 1.419 . S
C209 H213 0.930 . S
C210 C209 1.362 1_655 S
C210 C219 1.436 . S
C211 C209 1.419 . S
C211 C212 1.363 1_455 S
C211 H214 0.929 . S
C212 C211 1.363 1_655 S
C212 C218 1.428 . S
H213 C209 0.930 . S
H214 C211 0.929 . S
S215 N216 1.613 . S
S215 N217 1.610 . S
N216 S215 1.613 . S
N216 C219 1.350 . S
N217 S215 1.610 . S
N217 C218 1.351 . S
C218 C212 1.428 . S
C218 N217 1.351 . S
C218 C219 1.434 . S
C219 C210 1.436 . S
C219 N216 1.350 . S
C219 C218 1.434 . S
C220 C221 1.369 . S
C220 C222 1.419 . S
C220 H224 0.930 . S
C221 C220 1.369 . S
C221 C230 1.429 . S
C222 C220 1.419 . S
C222 C223 1.363 . S
C222 H225 0.929 . S
C223 C222 1.363 . S
C223 C229 1.433 . S
H224 C220 0.930 . S
H225 C222 0.929 . S
S226 N227 1.613 . S
S226 N228 1.610 1_554 S
N227 S226 1.613 . S
N227 C230 1.350 1_544 S
N228 S226 1.610 1_556 S
N228 C229 1.343 1_545 S
C229 C223 1.433 . S
C229 N228 1.343 1_565 S
C229 C230 1.438 . S
C230 C221 1.429 . S
C230 N227 1.350 1_566 S
C230 C229 1.438 . S
C231 C232 1.369 . S
C231 C233 1.419 . S
C231 H235 0.930 . S
C232 C231 1.369 . S
C232 C241 1.429 . S
C233 C231 1.419 . S
C233 C234 1.363 . S
C233 H236 0.929 . S
C234 C233 1.363 . S
C234 C240 1.428 . S
H235 C231 0.930 . S
H236 C233 0.929 . S
S237 N238 1.613 . S
S237 N239 1.610 1_554 S
N238 S237 1.613 . S
N238 C241 1.350 1_554 S
N239 S237 1.610 1_556 S
N239 C240 1.351 . S
C240 C234 1.428 . S
C240 N239 1.351 . S
C240 C241 1.434 . S
C241 C232 1.429 . S
C241 N238 1.350 1_556 S
C241 C240 1.434 . S
C242 C243 1.369 . S
C242 C244 1.419 . S
C242 H246 0.930 1_556 S
C243 C242 1.369 . S
C243 C252 1.429 . S
C244 C242 1.419 . S
C244 C245 1.363 . S
C244 H247 0.929 . S
C245 C244 1.363 . S
C245 C251 1.428 . S
H246 C242 0.930 1_554 S
H247 C244 0.929 . S
S248 N249 1.613 . S
S248 N250 1.610 . S
N249 S248 1.613 . S
N249 C252 1.350 . S
N250 S248 1.610 . S
N250 C251 1.351 . S
C251 C245 1.428 . S
C251 N250 1.351 . S
C251 C252 1.434 . S
C252 C243 1.429 . S
C252 N249 1.350 . S
C252 C251 1.434 . S
C253 C254 1.368 1_655 S
C253 C255 1.419 . S
C253 H257 0.930 1_556 S
C254 C253 1.368 1_455 S
C254 C263 1.430 . S
C255 C253 1.419 . S
C255 C256 1.363 1_655 S
C255 H258 0.929 . S
C256 C255 1.363 1_455 S
C256 C262 1.428 . S
H257 C253 0.930 1_554 S
H258 C255 0.929 . S
S259 N260 1.613 . S
S259 N261 1.610 . S
N260 S259 1.613 . S
N260 C263 1.350 . S
N261 S259 1.610 . S
N261 C262 1.351 . S
C262 C256 1.428 . S
C262 N261 1.351 . S
C262 C263 1.434 . S
C263 C254 1.430 . S
C263 N260 1.350 . S
C263 C262 1.434 . S
C264 C265 1.369 . S
C264 C266 1.419 . S
C264 H268 0.930 . S
C265 C264 1.369 . S
C265 C274 1.429 1_655 S
C266 C264 1.419 . S
C266 C267 1.363 . S
C266 H269 0.929 . S
C267 C266 1.363 . S
C267 C273 1.428 1_655 S
H268 C264 0.930 . S
H269 C266 0.929 . S
S270 N271 1.613 . S
S270 N272 1.610 . S
N271 S270 1.613 . S
N271 C274 1.350 . S
N272 S270 1.610 . S
N272 C273 1.351 . S
C273 C267 1.428 1_455 S
C273 N272 1.351 . S
C273 C274 1.434 . S
C274 C265 1.429 1_455 S
C274 N271 1.350 . S
C274 C273 1.434 . S
C275 C276 1.369 . S
C275 C277 1.419 . S
C275 H279 0.930 . S
C276 C275 1.369 . S
C276 C285 1.429 . S
C277 C275 1.419 . S
C277 C278 1.363 . S
C277 H280 0.929 . S
C278 C277 1.363 . S
C278 C284 1.428 . S
H279 C275 0.930 . S
H280 C277 0.929 . S
S281 N282 1.613 . S
S281 N283 1.610 . S
N282 S281 1.613 . S
N282 C285 1.350 . S
N283 S281 1.610 . S
N283 C284 1.351 . S
C284 C278 1.428 . S
C284 N283 1.351 . S
C284 C285 1.434 . S
C285 C276 1.429 . S
C285 N282 1.350 . S
C285 C284 1.434 . S
C286 C287 1.369 . S
C286 C288 1.419 . S
C286 H290 0.930 . S
C287 C286 1.369 . S
C287 C296 1.429 . S
C288 C286 1.419 . S
C288 C289 1.363 . S
C288 H291 0.929 . S
C289 C288 1.363 . S
C289 C295 1.428 . S
H290 C286 0.930 . S
H291 C288 0.929 . S
S292 N293 1.613 . S
S292 N294 1.610 . S
N293 S292 1.613 . S
N293 C296 1.350 . S
N294 S292 1.610 . S
N294 C295 1.351 . S
C295 C289 1.428 . S
C295 N294 1.351 . S
C295 C296 1.434 . S
C296 C287 1.429 . S
C296 N293 1.350 . S
C296 C295 1.434 . S
C297 C298 1.369 . S
C297 C299 1.419 . S
C297 H301 0.930 . S
C298 C297 1.369 . S
C298 C307 1.429 . S
C299 C297 1.419 . S
C299 C300 1.363 . S
C299 H302 0.929 . S
C300 C299 1.363 . S
C300 C306 1.428 . S
H301 C297 0.930 . S
H302 C299 0.929 . S
S303 N304 1.613 . S
S303 N305 1.610 . S
N304 S303 1.613 . S
N304 C307 1.350 . S
N305 S303 1.610 . S
N305 C306 1.351 . S
C306 C300 1.428 . S
C306 N305 1.351 . S
C306 C307 1.434 . S
C307 C298 1.429 . S
C307 N304 1.350 . S
C307 C306 1.434 . S
C308 C309 1.369 1_655 S
C308 C310 1.419 1_655 S
C308 H312 0.930 . S
C309 C308 1.369 1_455 S
C309 C318 1.429 1_556 S
C310 C308 1.419 1_455 S
C310 C311 1.363 . S
C310 H313 0.927 1_455 S
C311 C310 1.363 . S
C311 C317 1.428 . S
H312 C308 0.930 . S
H313 C310 0.927 1_655 S
S314 N315 1.613 . S
S314 N316 1.610 . S
N315 S314 1.613 . S
N315 C318 1.350 . S
N316 S314 1.610 . S
N316 C317 1.351 1_554 S
C317 C311 1.428 . S
C317 N316 1.351 1_556 S
C317 C318 1.434 1_556 S
C318 C309 1.429 1_554 S
C318 N315 1.350 . S
C318 C317 1.434 1_554 S
C319 C320 1.369 . S
C319 C321 1.419 . S
C319 H323 0.930 . S
C320 C319 1.369 . S
C320 C329 1.429 . S
C321 C319 1.419 . S
C321 C322 1.363 . S
C321 H324 0.929 . S
C322 C321 1.363 . S
C322 C328 1.428 1_565 S
H323 C319 0.930 . S
H324 C321 0.929 . S
S325 N326 1.613 . S
S325 N327 1.610 . S
N326 S325 1.613 . S
N326 C329 1.350 1_545 S
N327 S325 1.610 . S
N327 C328 1.351 . S
C328 C322 1.428 1_545 S
C328 N327 1.351 . S
C328 C329 1.434 1_545 S
C329 C320 1.429 . S
C329 N326 1.350 1_565 S
C329 C328 1.434 1_565 S
C330 C331 1.369 . S
C330 C332 1.419 . S
C330 H334 0.930 1_556 S
C331 C330 1.369 . S
C331 C340 1.429 . S
C332 C330 1.419 . S
C332 C333 1.363 . S
C332 H335 0.929 . S
C333 C332 1.363 . S
C333 C339 1.428 . S
H334 C330 0.930 1_554 S
H335 C332 0.929 . S
S336 N337 1.613 . S
S336 N338 1.610 . S
N337 S336 1.613 . S
N337 C340 1.350 . S
N338 S336 1.610 . S
N338 C339 1.351 . S
C339 C333 1.428 . S
C339 N338 1.351 . S
C339 C340 1.434 . S
C340 C331 1.429 . S
C340 N337 1.350 . S
C340 C339 1.434 . S
C341 C342 1.369 . S
C341 C343 1.419 . S
C341 H345 0.930 . S
C342 C341 1.369 . S
C342 C351 1.429 . S
C343 C341 1.419 . S
C343 C344 1.363 . S
C343 H346 0.929 . S
C344 C343 1.363 . S
C344 C350 1.428 . S
H345 C341 0.930 . S
H346 C343 0.929 . S
S347 N348 1.613 . S
S347 N349 1.610 . S
N348 S347 1.613 . S
N348 C351 1.350 . S
N349 S347 1.610 . S
N349 C350 1.351 . S
C350 C344 1.428 . S
C350 N349 1.351 . S
C350 C351 1.434 . S
C351 C342 1.429 . S
C351 N348 1.350 . S
C351 C350 1.434 . S
C352 C353 1.369 1_655 S
C352 C354 1.419 . S
C352 H356 0.930 . S
C353 C352 1.369 1_455 S
C353 C362 1.429 . S
C354 C352 1.419 . S
C354 C355 1.363 1_655 S
C354 H357 0.929 . S
C355 C354 1.363 1_455 S
C355 C361 1.428 . S
H356 C352 0.930 . S
H357 C354 0.929 . S
S358 N359 1.613 . S
S358 N360 1.610 1_554 S
N359 S358 1.613 . S
N359 C362 1.350 1_554 S
N360 S358 1.610 1_556 S
N360 C361 1.351 . S
C361 C355 1.428 . S
C361 N360 1.351 . S
C361 C362 1.434 . S
C362 C353 1.429 . S
C362 N359 1.350 1_556 S
C362 C361 1.434 . S
C363 C364 1.369 1_554 S
C363 C365 1.419 1_554 S
C363 H367 0.930 . S
C364 C363 1.369 1_556 S
C364 C373 1.429 . S
C365 C363 1.419 1_556 S
C365 C366 1.363 . S
C365 H368 0.929 1_556 S
C366 C365 1.363 . S
C366 C372 1.428 . S
H367 C363 0.930 . S
H368 C365 0.929 1_554 S
S369 N370 1.610 1_565 S
S369 N371 1.609 1_565 S
N370 S369 1.610 1_545 S
N370 C373 1.350 . S
N371 S369 1.609 1_545 S
N371 C372 1.351 . S
C372 C366 1.428 . S
C372 N371 1.351 . S
C372 C373 1.434 . S
C373 C364 1.429 . S
C373 N370 1.350 . S
C373 C372 1.434 . S
C374 C375 1.369 . S
C374 C376 1.419 . S
C374 H378 0.930 1_556 S
C375 C374 1.369 . S
C375 C384 1.429 . S
C376 C374 1.419 . S
C376 C377 1.363 . S
C376 H379 0.929 . S
C377 C376 1.363 . S
C377 C383 1.428 . S
H378 C374 0.930 1_554 S
H379 C376 0.929 . S
S380 N381 1.613 . S
S380 N382 1.610 . S
N381 S380 1.613 . S
N381 C384 1.350 . S
N382 S380 1.610 . S
N382 C383 1.351 . S
C383 C377 1.428 . S
C383 N382 1.351 . S
C383 C384 1.434 . S
C384 C375 1.429 . S
C384 N381 1.350 . S
C384 C383 1.434 . S
C385 C386 1.369 . S
C385 C387 1.419 . S
C385 H389 0.930 1_556 S
C386 C385 1.369 . S
C386 C395 1.429 . S
C387 C385 1.419 . S
C387 C388 1.363 . S
C387 H390 0.929 . S
C388 C387 1.363 . S
C388 C394 1.428 . S
H389 C385 0.930 1_554 S
H390 C387 0.929 . S
S391 N392 1.613 . S
S391 N393 1.610 . S
N392 S391 1.613 . S
N392 C395 1.350 . S
N393 S391 1.610 . S
N393 C394 1.351 . S
C394 C388 1.428 . S
C394 N393 1.351 . S
C394 C395 1.434 . S
C395 C386 1.429 . S
C395 N392 1.350 . S
C395 C394 1.434 . S
C396 C397 1.369 . S
C396 C398 1.419 . S
C396 H400 0.930 . S
C397 C396 1.369 . S
C397 C406 1.429 . S
C398 C396 1.419 . S
C398 C399 1.363 . S
C398 H401 0.929 . S
C399 C398 1.363 . S
C399 C405 1.428 . S
H400 C396 0.930 . S
H401 C398 0.929 . S
S402 N403 1.613 . S
S402 N404 1.610 . S
N403 S402 1.613 . S
N403 C406 1.350 . S
N404 S402 1.610 . S
N404 C405 1.351 . S
C405 C399 1.428 . S
C405 N404 1.351 . S
C405 C406 1.434 . S
C406 C397 1.429 . S
C406 N403 1.350 . S
C406 C405 1.434 . S
C407 C408 1.369 . S
C407 C409 1.419 . S
C407 H411 0.930 . S
C408 C407 1.369 . S
C408 C417 1.429 . S
C409 C407 1.419 . S
C409 C410 1.363 . S
C409 H412 0.929 . S
C410 C409 1.363 . S
C410 C416 1.428 . S
H411 C407 0.930 . S
H412 C409 0.929 . S
S413 N414 1.613 . S
S413 N415 1.610 . S
N414 S413 1.613 . S
N414 C417 1.350 . S
N415 S413 1.610 . S
N415 C416 1.351 . S
C416 C410 1.428 . S
C416 N415 1.351 . S
C416 C417 1.434 . S
C417 C408 1.429 . S
C417 N414 1.350 . S
C417 C416 1.434 . S
C418 C419 1.369 . S
C418 C420 1.419 . S
C418 H422 0.930 . S
C419 C418 1.369 . S
C419 C428 1.429 . S
C420 C418 1.419 . S
C420 C421 1.363 . S
C420 H423 0.929 . S
C421 C420 1.363 . S
C421 C427 1.428 . S
H422 C418 0.930 . S
H423 C420 0.929 . S
S424 N425 1.613 . S
S424 N426 1.610 . S
N425 S424 1.613 . S
N425 C428 1.350 . S
N426 S424 1.610 . S
N426 C427 1.351 . S
C427 C421 1.428 . S
C427 N426 1.351 . S
C427 C428 1.434 . S
C428 C419 1.429 . S
C428 N425 1.350 . S
C428 C427 1.434 . S
C429 C430 1.369 . S
C429 C431 1.419 . S
C429 H433 0.930 . S
C430 C429 1.369 . S
C430 C439 1.429 . S
C431 C429 1.419 . S
C431 C432 1.363 . S
C431 H434 0.929 . S
C432 C431 1.363 . S
C432 C438 1.428 . S
H433 C429 0.930 . S
H434 C431 0.929 . S
S435 N436 1.613 . S
S435 N437 1.610 . S
N436 S435 1.613 . S
N436 C439 1.350 . S
N437 S435 1.610 . S
N437 C438 1.351 . S
C438 C432 1.428 . S
C438 N437 1.351 . S
C438 C439 1.434 . S
C439 C430 1.429 . S
C439 N436 1.350 . S
C439 C438 1.434 . S
C177 C76 1.548 . S
C179 C114 1.594 . S
C190 C134 1.516 . S
C188 C88 1.494 . S
C201 C154 1.594 . S
C199 C52 1.545 . S
C212 C174 1.515 . S
C210 C64 1.501 . S
C223 C115 1.595 1_565 S
C221 C28 1.561 . S
C232 C40 1.501 . S
C234 C135 1.514 . S
C243 C4 1.553 . S
C245 C155 1.599 . S
C254 C16 1.490 1_455 S
C256 C175 1.523 . S
C267 C105 0.982 . S
C265 C69 1.005 1_655 S
C278 C125 1.003 . S
C276 C81 1.052 . S
C289 C145 0.988 . S
C287 C93 1.005 . S
C298 C57 1.047 . S
C300 C165 1.000 . S
C309 C21 1.002 . S
C311 C108 0.984 . S
C322 C128 1.015 . S
C320 C33 1.032 . S
C333 C148 0.976 . S
C331 C45 1.015 . S
C342 C9 1.028 . S
C344 C168 1.017 . S
C353 C66 1.520 1_556 S
C355 C98 1.463 . S
C364 C78 1.559 1_556 S
C366 C118 1.487 . S
C377 C138 1.455 . S
C375 C90 1.523 1_556 S
C388 C158 1.491 . S
C386 C54 1.556 1_556 S
C397 C18 1.535 1_655 S
C399 C100 1.457 . S
C410 C120 1.487 . S
C408 C30 1.554 . S
C421 C140 1.463 . S
C419 C42 1.522 . S
C430 C6 1.545 . S
C432 C160 1.498 . S
