# Generated by pormake.
# Topology tsx, (6,3)-cn, num edge types: 1
# Building blocks:
#     Node 0, Type 0, BuildingBlock: CIFDUS_clean_sbu_1, # of connection points: 6
#     Node 1, Type 0, BuildingBlock: CIFDUS_clean_sbu_1, # of connection points: 6
#     Node 2, Type 1, BuildingBlock: BELTOD_clean_linker_0, # of connection points: 3
#     Node 3, Type 1, BuildingBlock: BELTOD_clean_linker_0, # of connection points: 3
#     Node 4, Type 1, BuildingBlock: BELTOD_clean_linker_0, # of connection points: 3
#     Node 5, Type 1, BuildingBlock: BELTOD_clean_linker_0, # of connection points: 3
#     Edge 6, Type (0, 1), BuildingBlock: CIFDUS_clean_linker_0, # of connection points: 2
#     Edge 7, Type (0, 1), BuildingBlock: CIFDUS_clean_linker_0, # of connection points: 2
#     Edge 8, Type (0, 1), BuildingBlock: CIFDUS_clean_linker_0, # of connection points: 2
#     Edge 9, Type (0, 1), BuildingBlock: CIFDUS_clean_linker_0, # of connection points: 2
#     Edge 10, Type (0, 1), BuildingBlock: CIFDUS_clean_linker_0, # of connection points: 2
#     Edge 11, Type (0, 1), BuildingBlock: CIFDUS_clean_linker_0, # of connection points: 2
#     Edge 12, Type (0, 1), BuildingBlock: CIFDUS_clean_linker_0, # of connection points: 2
#     Edge 13, Type (0, 1), BuildingBlock: CIFDUS_clean_linker_0, # of connection points: 2
#     Edge 14, Type (0, 1), BuildingBlock: CIFDUS_clean_linker_0, # of connection points: 2
#     Edge 15, Type (0, 1), BuildingBlock: CIFDUS_clean_linker_0, # of connection points: 2
#     Edge 16, Type (0, 1), BuildingBlock: CIFDUS_clean_linker_0, # of connection points: 2
#     Edge 17, Type (0, 1), BuildingBlock: CIFDUS_clean_linker_0, # of connection points: 2
# Relax obj value: 0.115
# Max RMSD: 0.149
# Mean RMSD: 0.109
data_MOF--net-tsx--node1-CIFDUS_clean_sbu_1--node2-BELTOD_clean_linker_0--edge1-CIFDUS_clean_linker_0
_symmetry_space_group_name_H-M    P1
_symmetry_Int_Tables_number       1
_symmetry_cell_setting            triclinic
loop_
_symmetry_equiv_pos_as_xyz
'x, y, z'
_cell_length_a     18.029661
_cell_length_b     22.398855
_cell_length_c     36.695757
_cell_angle_alpha  97.988221
_cell_angle_beta   94.044663
_cell_angle_gamma 92.198063
loop_
_atom_site_label
_atom_site_type_symbol
_atom_site_fract_x
_atom_site_fract_y
_atom_site_fract_z
_atom_type_partial_charge
O0 O 0.95643 0.1003 0.00314 0.0
Mn1 Mn 0.03091 0.03056 0.0043 0.0
O2 O 0.85753 0.06216 0.96492 0.0
Mn3 Mn 0.89807 0.99009 0.94741 0.0
O4 O 0.10522 0.95978 0.00432 0.0
O5 O 0.11208 0.09455 0.02346 0.0
Mn6 Mn 0.16808 0.06677 0.05812 0.0
O7 O 1.00447 0.02188 0.05817 0.0
O8 O 0.21095 -0.00033 0.03578 0.0
O9 O 0.05894 0.03867 0.95043 0.0
O10 O 0.96488 0.99278 0.91182 0.0
O11 O 0.20907 0.14176 0.0557 0.0
O12 O 0.10748 0.0546 0.09507 0.0
C13 C 0.90422 0.92029 0.98133 0.0
C14 C 0.89101 0.10476 0.98751 0.0
C15 C 0.17421 0.95659 0.0153 0.0
C16 C 0.15571 0.14283 0.0303 0.0
C17 C 0.04023 0.03399 0.09009 0.0
C18 C 0.0299 0.01796 0.91788 0.0
O19 O 0.94876 0.96781 0.98563 0.0
O20 O 0.85415 0.91738 0.954 0.0
O21 O 0.46274 0.61942 0.50581 0.0
Mn22 Mn 0.52463 0.54269 0.50948 0.0
O23 O 0.35741 0.58857 0.47057 0.0
Mn24 Mn 0.38727 0.51237 0.45354 0.0
O25 O 0.58697 0.46595 0.51302 0.0
O26 O 0.61443 0.59795 0.52725 0.0
Mn27 Mn 0.66016 0.57334 0.56611 0.0
O28 O 0.49325 0.54276 0.56366 0.0
O29 O 0.68866 0.49615 0.55141 0.0
O30 O 0.55558 0.54224 0.45526 0.0
O31 O 0.45428 0.50783 0.41756 0.0
O32 O 0.71487 0.64044 0.55805 0.0
O33 O 0.59303 0.57955 0.60173 0.0
C34 C 0.38608 0.44308 0.48805 0.0
C35 C 0.39815 0.62938 0.49122 0.0
C36 C 0.64923 0.45569 0.52992 0.0
C37 C 0.66454 0.64168 0.53125 0.0
C38 C 0.52507 0.56116 0.59596 0.0
C39 C 0.523 0.52453 0.423 0.0
O40 O 0.43493 0.48756 0.4917 0.0
O41 O 0.33525 0.44349 0.4614 0.0
P42 P 0.1172 0.10694 0.42603 0.0
H43 H 0.09136 0.20109 0.48686 0.0
H44 H 0.97858 0.2508 0.50489 0.0
H45 H 0.84592 0.12163 0.42586 0.0
H46 H 0.95861 0.07186 0.40817 0.0
H47 H 0.26233 0.05488 0.43038 0.0
H48 H 0.30504 0.96181 0.4505 0.0
H49 H 0.08283 0.91942 0.47974 0.0
H50 H 0.04036 0.01133 0.45796 0.0
H51 H 0.13281 0.18399 0.36936 0.0
H52 H 0.0538 0.00165 0.37489 0.0
O53 O 0.18462 0.1611 0.4361 0.0
H54 H 0.09157 0.17205 0.30415 0.0
H55 H 1.00808 0.99012 0.30982 0.0
C56 C 0.03367 0.13401 0.44536 0.0
C57 C 0.03794 0.18278 0.47389 0.0
C58 C 0.97332 0.21094 0.4843 0.0
C59 C 0.90351 0.19062 0.46629 0.0
C60 C 0.89906 0.13891 0.43967 0.0
C61 C 0.96361 0.1105 0.42954 0.0
C62 C 0.14858 0.04048 0.44347 0.0
C63 C 0.22316 0.02585 0.44163 0.0
C64 C 0.2476 0.97274 0.45342 0.0
C65 C 0.19755 0.93304 0.46705 0.0
C66 C 0.12288 0.94857 0.46918 0.0
C67 C 0.09852 0.00145 0.45708 0.0
C68 C 0.09762 0.0934 0.37677 0.0
C69 C 0.10718 0.14106 0.35637 0.0
C70 C 0.08207 0.13446 0.31915 0.0
C71 C 0.04501 0.08042 0.30166 0.0
C72 C 0.03673 0.03222 0.32216 0.0
C73 C 0.06307 0.03865 0.35938 0.0
P74 P 0.11573 0.98064 0.58574 0.0
H75 H 0.02124 0.99954 0.52021 0.0
H76 H 0.894 0.96062 0.49811 0.0
H77 H 0.86521 0.90598 0.6047 0.0
H78 H 0.99223 0.9407 0.62529 0.0
H79 H 0.25521 0.98818 0.55106 0.0
H80 H 0.32558 0.07139 0.53126 0.0
H81 H 0.15243 0.19163 0.56327 0.0
H82 H 0.08156 0.10742 0.58301 0.0
H83 H 0.19691 0.90876 0.63472 0.0
H84 H 0.07474 0.07128 0.64543 0.0
O85 O 0.14999 0.91606 0.5673 0.0
H86 H 0.20457 0.91119 0.70157 0.0
H87 H 0.08159 0.07365 0.71253 0.0
C88 C 1.01655 0.97297 0.57422 0.0
C89 C 0.98692 0.97997 0.53878 0.0
C90 C 0.91421 0.95816 0.52634 0.0
C91 C 0.86954 0.93062 0.54977 0.0
C92 C 0.8977 0.92798 0.58619 0.0
C93 C 0.9707 0.94805 0.59807 0.0
C94 C 0.16273 0.04153 0.56808 0.0
C95 C 0.23182 0.03223 0.55351 0.0
C96 C 0.27224 0.07991 0.54232 0.0
C97 C 0.24487 0.13814 0.54605 0.0
C98 C 0.17544 0.1474 0.56066 0.0
C99 C 0.13462 0.09934 0.57159 0.0
C100 C 0.13461 0.98955 0.63511 0.0
C101 C 0.17294 0.94566 0.65147 0.0
C102 C 0.17722 0.94703 0.68973 0.0
C103 C 0.14308 0.99229 0.71228 0.0
C104 C 0.10904 0.03854 0.69595 0.0
C105 C 0.1048 0.0371 0.65759 0.0
P106 P 0.64336 0.58923 0.92232 0.0
H107 H 0.66306 0.68551 0.98496 0.0
H108 H 0.57504 0.75436 0.01281 0.0
H109 H 0.3929 0.64413 0.95149 0.0
H110 H 0.48133 0.57205 0.92737 0.0
H111 H 0.79332 0.54509 0.92167 0.0
H112 H 0.85141 0.46184 0.94685 0.0
H113 H 0.6436 0.415 0.99055 0.0
H114 H 0.58517 0.4968 0.96285 0.0
H115 H 0.52666 0.64164 0.8791 0.0
H116 H 0.66572 0.48921 0.86367 0.0
O117 O 0.71065 0.64043 0.91789 0.0
H118 H 0.46818 0.61393 0.81753 0.0
H119 H 0.61457 0.46544 0.79989 0.0
C120 C 0.57876 0.62583 0.95241 0.0
C121 C 0.60404 0.67513 0.97856 0.0
C122 C 0.55339 0.71498 0.99402 0.0
C123 C 0.47684 0.70719 0.98253 0.0
C124 C 0.45126 0.6528 0.96045 0.0
C125 C 0.50204 0.61164 0.94623 0.0
C126 C 0.68554 0.52801 0.94155 0.0
C127 C 0.76046 0.51713 0.93693 0.0
C128 C 0.79387 0.46975 0.95176 0.0
C129 C 0.75279 0.4319 0.97138 0.0
C130 C 0.67716 0.44291 0.9756 0.0
C131 C 0.64374 0.49007 0.96031 0.0
C132 C 0.59833 0.56595 0.87677 0.0
C133 C 0.54393 0.60142 0.86264 0.0
C134 C 0.51157 0.58622 0.82674 0.0
C135 C 0.53645 0.53744 0.80299 0.0
C136 C 0.59195 0.50231 0.81724 0.0
C137 C 0.62214 0.51624 0.85382 0.0
P138 P 0.62794 0.46856 0.0896 0.0
H139 H 0.55058 0.49038 0.02039 0.0
H140 H 0.43177 0.44732 0.98884 0.0
H141 H 0.37465 0.38289 0.08932 0.0
H142 H 0.49404 0.42322 0.1196 0.0
H143 H 0.77306 0.47615 0.05996 0.0
H144 H 0.84438 0.5578 0.03901 0.0
H145 H 0.66905 0.67877 0.06558 0.0
H146 H 0.59641 0.59587 0.08585 0.0
H147 H 0.6846 0.38943 0.141 0.0
H148 H 0.58706 0.56311 0.14751 0.0
O149 O 0.6661 0.40456 0.07311 0.0
H150 H 0.68157 0.39284 0.20756 0.0
H151 H 0.58405 0.56674 0.21453 0.0
C152 C 0.53149 0.45982 0.07211 0.0
C153 C 0.51153 0.4683 0.03567 0.0
C154 C 0.44353 0.44397 0.01783 0.0
C155 C 0.39378 0.4117 0.0366 0.0
C156 C 0.41113 0.40829 0.07422 0.0
C157 C 0.47973 0.43141 0.09164 0.0
C158 C 0.67905 0.52979 0.07414 0.0
C159 C 0.74956 0.52008 0.06124 0.0
C160 C 0.79056 0.56685 0.0494 0.0
C161 C 0.76254 0.6247 0.051 0.0
C162 C 0.6924 0.63478 0.06462 0.0
C163 C 0.65075 0.58748 0.07596 0.0
C164 C 0.6361 0.47609 0.13926 0.0
C165 C 0.66378 0.42888 0.15678 0.0
C166 C 0.66199 0.4308 0.19488 0.0
C167 C 0.63248 0.48 0.2162 0.0
C168 C 0.60796 0.52862 0.19883 0.0
C169 C 0.60939 0.52649 0.16055 0.0
H170 H 0.22545 0.17291 0.97278 0.0
H171 H 0.07631 0.23831 0.05399 0.0
H172 H 0.13263 0.34012 0.05831 0.0
H173 H 0.24919 0.3996 0.05362 0.0
H174 H 0.40231 0.33156 0.97456 0.0
H175 H 0.31979 0.24262 0.95433 0.0
C176 C 0.20212 0.21036 0.98953 0.0
C177 C 0.14787 0.19817 0.0135 0.0
C178 C 0.23811 0.26797 0.99346 0.0
C179 C 0.11806 0.24673 0.03522 0.0
C180 C 0.15169 0.30476 0.0384 0.0
C181 C 0.26291 0.36636 0.03099 0.0
C182 C 0.3325 0.37145 0.01622 0.0
C183 C 0.21579 0.31446 0.02 0.0
C184 C 0.3493 0.3286 0.98654 0.0
C185 C 0.30233 0.27734 0.97514 0.0
H186 H 0.31747 0.95381 1.00176 0.0
H187 H 0.12347 0.83698 0.00553 0.0
H188 H 0.20038 0.74828 0.99684 0.0
H189 H 0.32529 0.70549 0.9918 0.0
H190 H 0.51531 0.82655 0.98513 0.0
H191 H 0.43754 0.91201 0.99283 0.0
C192 C 0.29174 0.90886 1.00048 0.0
C193 C 0.21523 0.90182 0.00458 0.0
C194 C 0.33598 0.85893 0.99589 0.0
C195 C 0.18236 0.84341 0.00226 0.0
C196 C 0.22648 0.79288 0.99767 0.0
C197 C 0.34975 0.75044 0.99185 0.0
C198 C 0.42714 0.75894 0.9889 0.0
C199 C 0.30381 0.80023 0.99507 0.0
C200 C 0.45708 0.81799 0.98895 0.0
C201 C 0.41231 0.86725 0.9927 0.0
H202 H 0.91323 0.80346 0.9578 0.0
H203 H 0.89073 0.92962 0.05565 0.0
H204 H 0.84719 0.84702 0.08763 0.0
H205 H 0.79789 0.74073 0.0838 0.0
H206 H 0.82178 0.61652 0.98498 0.0
H207 H 0.88162 0.69629 0.95701 0.0
C208 C 0.90141 0.81236 0.9866 0.0
C209 C 0.90559 0.872 0.00457 0.0
C210 C 0.87451 0.76518 0.00413 0.0
C211 C 0.88932 0.88368 0.04163 0.0
C212 C 0.86309 0.8366 0.0596 0.0
C213 C 0.81694 0.73129 0.0563 0.0
C214 C 0.80448 0.67303 0.03617 0.0
C215 C 0.85242 0.77754 0.04053 0.0
C216 C 0.83041 0.66096 1.00084 0.0
C217 C 0.86473 0.70656 0.98488 0.0
H218 H 0.95378 0.21922 0.00685 0.0
H219 H 0.74256 0.1198 0.98024 0.0
H220 H 0.67996 0.21329 0.97678 0.0
H221 H 0.6874 0.32061 0.97248 0.0
H222 H 0.89671 0.42258 1.0 0.0
H223 H 0.95768 0.33074 0.01159 0.0
C224 C 0.89388 0.21825 1.0012 0.0
C225 C 0.85319 0.1625 0.99322 0.0
C226 C 0.85796 0.27246 0.99859 0.0
C227 C 0.77548 0.162 0.98589 0.0
C228 C 0.7395 0.21547 0.98383 0.0
C229 C 0.74587 0.32349 0.98203 0.0
C230 C 0.78742 0.37853 0.98456 0.0
C231 C 0.78053 0.27068 0.98879 0.0
C232 C 0.86354 0.38058 0.99669 0.0
C233 C 0.89849 0.32809 0.00358 0.0
H234 H 0.60891 0.74861 0.55166 0.0
H235 H 0.73071 0.65079 0.46811 0.0
H236 H 0.79814 0.744 0.45956 0.0
H237 H 0.84824 0.84372 0.49031 0.0
H238 H 0.7347 0.93744 0.57904 0.0
H239 H 0.63743 0.85671 0.57084 0.0
C240 C 0.64674 0.74862 0.52992 0.0
C241 C 0.66528 0.69324 0.51065 0.0
C242 C 0.68892 0.80165 0.52724 0.0
C243 C 0.71522 0.69313 0.48302 0.0
C244 C 0.75498 0.74633 0.47876 0.0
C245 C 0.80034 0.84772 0.50664 0.0
C246 C 0.79921 0.89575 0.53572 0.0
C247 C 0.74647 0.79966 0.50288 0.0
C248 C 0.7371 0.90039 0.55683 0.0
C249 C 0.68174 0.85405 0.55228 0.0
H250 H 0.65426 0.37926 0.46554 0.0
H251 H 0.7145 0.39833 0.58253 0.0
H252 H 0.79168 0.31127 0.57365 0.0
H253 H 0.85674 0.24005 0.53196 0.0
H254 H 0.80303 0.22375 0.41454 0.0
H255 H 0.70808 0.29815 0.42414 0.0
C256 C 0.68262 0.36305 0.48906 0.0
C257 C 0.67952 0.39524 0.52454 0.0
C258 C 0.72905 0.31397 0.48361 0.0
C259 C 0.71684 0.37437 0.55489 0.0
C260 C 0.76121 0.3248 0.54985 0.0
C261 C 0.82348 0.25224 0.50855 0.0
C262 C 0.83746 0.22707 0.47266 0.0
C263 C 0.77025 0.29595 0.51421 0.0
C264 C 0.79315 0.2424 0.44253 0.0
C265 C 0.73919 0.2853 0.44796 0.0
H266 H 0.40028 0.32789 0.4618 0.0
H267 H 0.36614 0.44637 0.56135 0.0
H268 H 0.322 0.3599 0.58987 0.0
H269 H 0.27586 0.25259 0.58223 0.0
H270 H 0.31122 0.13582 0.48179 0.0
H271 H 0.37209 0.2194 0.45768 0.0
C272 C 0.3858 0.33425 0.49026 0.0
C273 C 0.38674 0.39279 0.50969 0.0
C274 C 0.3588 0.28485 0.5058 0.0
C275 C 0.36699 0.40128 0.54626 0.0
C276 C 0.3406 0.352 0.56224 0.0
C277 C 0.29741 0.24556 0.55519 0.0
C278 C 0.28764 0.18839 0.53346 0.0
C279 C 0.33321 0.29395 0.54161 0.0
C280 C 0.31744 0.17942 0.49888 0.0
C281 C 0.35233 0.2272 0.48509 0.0
H282 H 0.25751 0.66075 0.47575 0.0
H283 H 0.47544 0.73707 0.51762 0.0
H284 H 0.43052 0.83893 0.51726 0.0
H285 H 0.33154 0.90556 0.4997 0.0
H286 H 0.1175 0.82539 0.45345 0.0
H287 H 0.15851 0.72604 0.46173 0.0
C288 C 0.29539 0.69953 0.48506 0.0
C289 C 0.37011 0.69116 0.49618 0.0
C290 C 0.26975 0.75746 0.48401 0.0
C291 C 0.41774 0.74214 0.50878 0.0
C292 C 0.39213 0.80039 0.5084 0.0
C293 C 0.29389 0.86636 0.4914 0.0
C294 C 0.22146 0.87339 0.47581 0.0
C295 C 0.31865 0.80852 0.49513 0.0
C296 C 0.17304 0.822 0.46602 0.0
C297 C 0.19669 0.76481 0.47038 0.0
H298 H 0.97614 0.11554 0.13659 0.0
H299 H 0.03583 0.93017 0.11952 0.0
H300 H 0.03388 0.92537 0.1857 0.0
H301 H 0.04228 0.98106 0.24863 0.0
H302 H 0.98192 0.16713 0.26546 0.0
H303 H 0.95763 0.16473 0.19919 0.0
C304 C 0.98482 0.07332 0.14727 0.0
C305 C 1.00544 0.02315 0.12355 0.0
C306 C 0.98647 0.07181 0.18541 0.0
C307 C 0.01854 0.96894 0.13744 0.0
C308 C 0.01878 0.96661 0.17533 0.0
C309 C 0.02169 0.02061 0.23803 0.0
C310 C 1.01671 0.07486 0.2621 0.0
C311 C 1.00706 0.01886 0.19974 0.0
C312 C 0.98948 0.12546 0.24758 0.0
C313 C 0.97474 0.12403 0.20963 0.0
H314 H 0.04592 0.92818 0.86363 0.0
H315 H 0.10583 0.11632 0.89895 0.0
H316 H 0.15211 0.12483 0.83827 0.0
H317 H 0.1621 0.08008 0.77287 0.0
H318 H 0.10107 0.89105 0.73956 0.0
H319 H 0.06956 0.88128 0.80185 0.0
C320 C 0.07046 0.97077 0.85819 0.0
C321 C 0.07208 0.02166 0.88528 0.0
C322 C 0.09618 0.97514 0.82353 0.0
C323 C 0.10443 0.07655 0.87835 0.0
C324 C 0.13018 0.08143 0.84362 0.0
C325 C 0.14272 0.03671 0.77948 0.0
C326 C 0.1338 0.98641 0.75155 0.0
C327 C 0.12422 0.03135 0.8156 0.0
C328 C 0.10929 0.93031 0.76054 0.0
C329 C 0.09069 0.92472 0.79612 0.0
H330 H 0.50147 0.46489 0.63074 0.0
H331 H 0.46881 0.65527 0.63677 0.0
H332 H 0.45968 0.66342 0.70333 0.0
H333 H 0.49074 0.62136 0.7596 0.0
H334 H 0.52258 0.43015 0.75499 0.0
H335 H 0.50415 0.4177 0.68787 0.0
C336 C 0.48836 0.50734 0.6465 0.0
C337 C 0.48509 0.55937 0.62916 0.0
C338 C 0.48662 0.51208 0.68504 0.0
C339 C 0.47012 0.61459 0.64967 0.0
C340 C 0.46637 0.61939 0.68779 0.0
C341 C 0.49089 0.57629 0.74448 0.0
C342 C 0.51031 0.52715 0.76286 0.0
C343 C 0.47905 0.56915 0.70592 0.0
C344 C 0.51086 0.4695 0.74186 0.0
C345 C 0.49945 0.46208 0.70335 0.0
H346 H 0.51995 0.4326 0.3682 0.0
H347 H 0.6175 0.61165 0.4034 0.0
H348 H 0.66431 0.61323 0.34213 0.0
H349 H 0.66553 0.56648 0.27646 0.0
H350 H 0.56778 0.38646 0.24338 0.0
H351 H 0.53331 0.38218 0.30593 0.0
C352 C 0.5527 0.47152 0.36259 0.0
C353 C 0.56497 0.52207 0.38987 0.0
C354 C 0.57862 0.47205 0.32759 0.0
C355 C 0.60785 0.57214 0.38268 0.0
C356 C 0.63387 0.57318 0.34761 0.0
C357 C 0.63731 0.52625 0.28319 0.0
C358 C 0.61898 0.47693 0.25532 0.0
C359 C 0.61768 0.52397 0.31949 0.0
C360 C 0.58304 0.42478 0.26437 0.0
C361 C 0.56296 0.42237 0.30009 0.0
loop_
_geom_bond_atom_site_label_1
_geom_bond_atom_site_label_2
_geom_bond_distance
_geom_bond_site_symmetry_2
_ccdc_geom_bond_type
O0 Mn1 2.163 1_654 S
O0 C14 1.244 1_554 S
Mn1 O0 2.163 1_456 S
Mn1 O4 2.160 1_545 S
Mn1 O5 2.221 1_556 S
Mn1 O7 2.159 1_556 S
Mn1 O9 2.164 . S
Mn1 O19 2.222 1_445 S
O2 Mn3 2.087 . S
O2 C14 1.256 . S
Mn3 O2 2.087 . S
Mn3 O10 2.089 . S
Mn3 O19 2.290 1_545 S
Mn3 O20 2.251 1_545 S
O4 Mn1 2.160 1_565 S
O4 C15 1.239 1_556 S
O5 Mn1 2.221 1_554 S
O5 Mn6 2.290 . S
O5 C16 1.278 . S
Mn6 O5 2.290 . S
Mn6 O8 2.089 1_545 S
Mn6 O11 2.251 . S
Mn6 O12 2.087 . S
O7 Mn1 2.159 1_554 S
O7 C17 1.244 . S
O8 Mn6 2.089 1_565 S
O8 C15 1.256 . S
O9 Mn1 2.164 . S
O9 C18 1.239 . S
O10 Mn3 2.089 . S
O10 C18 1.256 1_655 S
O11 Mn6 2.251 . S
O11 C16 1.241 . S
O12 Mn6 2.087 . S
O12 C17 1.256 . S
C13 O19 1.278 1_554 S
C13 O20 1.241 1_554 S
C14 O0 1.244 1_556 S
C14 O2 1.256 . S
C15 O4 1.239 1_554 S
C15 O8 1.256 . S
C16 O5 1.278 . S
C16 O11 1.241 . S
C17 O7 1.244 . S
C17 O12 1.256 . S
C18 O9 1.239 . S
C18 O10 1.256 1_455 S
O19 Mn1 2.222 1_665 S
O19 Mn3 2.290 1_565 S
O19 C13 1.278 1_556 S
O20 Mn3 2.251 1_565 S
O20 C13 1.241 1_556 S
O21 Mn22 2.163 . S
O21 C35 1.244 . S
Mn22 O21 2.163 . S
Mn22 O25 2.160 . S
Mn22 O26 2.221 . S
Mn22 O28 2.163 . S
Mn22 O30 2.160 . S
Mn22 O40 2.221 . S
O23 Mn24 2.087 . S
O23 C35 1.256 . S
Mn24 O23 2.087 . S
Mn24 O31 2.089 . S
Mn24 O40 2.290 . S
Mn24 O41 2.251 . S
O25 Mn22 2.160 . S
O25 C36 1.239 . S
O26 Mn22 2.221 . S
O26 Mn27 2.290 . S
O26 C37 1.278 . S
Mn27 O26 2.290 . S
Mn27 O29 2.089 . S
Mn27 O32 2.251 . S
Mn27 O33 2.087 . S
O28 Mn22 2.163 . S
O28 C38 1.244 . S
O29 Mn27 2.089 . S
O29 C36 1.256 . S
O30 Mn22 2.160 . S
O30 C39 1.239 . S
O31 Mn24 2.089 . S
O31 C39 1.256 . S
O32 Mn27 2.251 . S
O32 C37 1.241 . S
O33 Mn27 2.087 . S
O33 C38 1.256 . S
C34 O40 1.278 . S
C34 O41 1.241 . S
C35 O21 1.244 . S
C35 O23 1.256 . S
C36 O25 1.239 . S
C36 O29 1.256 . S
C37 O26 1.278 . S
C37 O32 1.241 . S
C38 O28 1.244 . S
C38 O33 1.256 . S
C39 O30 1.239 . S
C39 O31 1.256 . S
O40 Mn22 2.221 . S
O40 Mn24 2.290 . S
O40 C34 1.278 . S
O41 Mn24 2.251 . S
O41 C34 1.241 . S
P42 O53 1.490 . S
P42 C56 1.812 . S
P42 C62 1.803 1_545 S
P42 C68 1.819 . S
H43 C57 0.941 . S
H44 C58 0.939 . S
H45 C60 0.940 . S
H46 C61 0.940 . S
H47 C63 0.939 . S
H48 C64 0.942 . S
H49 C66 0.940 . S
H50 C67 0.939 . S
H51 C69 0.941 . S
H52 C73 0.939 . S
O53 P42 1.490 . S
H54 C70 0.939 . S
H55 C72 0.940 . S
C56 P42 1.812 . S
C56 C57 1.389 . S
C56 C61 1.391 1_455 S
C57 H43 0.941 . S
C57 C56 1.389 . S
C57 C58 1.397 1_455 S
C58 H44 0.939 . S
C58 C57 1.397 1_655 S
C58 C59 1.378 . S
C59 C58 1.378 . S
C59 C60 1.378 . S
C60 H45 0.940 . S
C60 C59 1.378 . S
C60 C61 1.396 . S
C61 H46 0.940 . S
C61 C56 1.391 1_655 S
C61 C60 1.396 . S
C62 P42 1.803 1_565 S
C62 C63 1.378 . S
C62 C67 1.400 . S
C63 H47 0.939 . S
C63 C62 1.378 . S
C63 C64 1.361 . S
C64 H48 0.942 . S
C64 C63 1.361 . S
C64 C65 1.369 . S
C65 C64 1.369 . S
C65 C66 1.404 . S
C66 H49 0.940 . S
C66 C65 1.404 . S
C66 C67 1.389 . S
C67 H50 0.939 . S
C67 C62 1.400 . S
C67 C66 1.389 . S
C68 P42 1.819 . S
C68 C69 1.391 . S
C68 C73 1.391 1_545 S
C69 H51 0.941 . S
C69 C68 1.391 . S
C69 C70 1.396 . S
C70 H54 0.939 . S
C70 C69 1.396 . S
C70 C71 1.397 . S
C71 C70 1.397 . S
C71 C72 1.385 1_545 S
C72 H55 0.940 . S
C72 C71 1.385 1_565 S
C72 C73 1.388 . S
C73 H52 0.939 . S
C73 C68 1.391 1_565 S
C73 C72 1.388 . S
P74 O85 1.490 1_545 S
P74 C88 1.804 1_445 S
P74 C94 1.803 . S
P74 C100 1.819 . S
H75 C89 0.941 . S
H76 C90 0.939 . S
H77 C92 0.940 . S
H78 C93 0.940 . S
H79 C95 0.939 . S
H80 C96 0.942 . S
H81 C98 0.940 . S
H82 C99 0.954 . S
H83 C101 0.941 1_565 S
H84 C105 0.939 . S
O85 P74 1.490 1_565 S
H86 C102 0.939 1_565 S
H87 C104 0.940 . S
C88 P74 1.804 1_665 S
C88 C89 1.388 1_655 S
C88 C93 1.399 1_565 S
C89 H75 0.941 . S
C89 C88 1.388 1_455 S
C89 C90 1.397 1_455 S
C90 H76 0.939 . S
C90 C89 1.397 1_655 S
C90 C91 1.378 . S
C91 C90 1.378 . S
C91 C92 1.378 . S
C92 H77 0.940 . S
C92 C91 1.378 . S
C92 C93 1.396 1_565 S
C93 H78 0.940 . S
C93 C88 1.399 1_545 S
C93 C92 1.396 1_545 S
C94 P74 1.803 . S
C94 C95 1.378 . S
C94 C99 1.400 . S
C95 H79 0.939 . S
C95 C94 1.378 . S
C95 C96 1.361 . S
C96 H80 0.942 . S
C96 C95 1.361 . S
C96 C97 1.369 . S
C97 C96 1.369 . S
C97 C98 1.404 . S
C98 H81 0.940 . S
C98 C97 1.404 . S
C98 C99 1.389 . S
C99 H82 0.954 . S
C99 C94 1.400 . S
C99 C98 1.389 . S
C100 P74 1.819 . S
C100 C101 1.391 . S
C100 C105 1.391 . S
C101 H83 0.941 1_545 S
C101 C100 1.391 . S
C101 C102 1.396 . S
C102 H86 0.939 1_545 S
C102 C101 1.396 . S
C102 C103 1.397 . S
C103 C102 1.397 . S
C103 C104 1.385 . S
C104 H87 0.940 . S
C104 C103 1.385 . S
C104 C105 1.388 . S
C105 H84 0.939 . S
C105 C100 1.391 . S
C105 C104 1.388 . S
P106 O117 1.490 . S
P106 C120 1.812 . S
P106 C126 1.803 . S
P106 C132 1.819 . S
H107 C121 0.941 . S
H108 C122 0.939 1_554 S
H109 C124 0.940 . S
H110 C125 0.940 . S
H111 C127 0.939 . S
H112 C128 0.942 . S
H113 C130 0.940 . S
H114 C131 0.939 . S
H115 C133 0.941 . S
H116 C137 0.939 . S
O117 P106 1.490 . S
H118 C134 0.939 . S
H119 C136 0.940 . S
C120 P106 1.812 . S
C120 C121 1.389 . S
C120 C125 1.391 . S
C121 H107 0.941 . S
C121 C120 1.389 . S
C121 C122 1.397 . S
C122 H108 0.939 1_556 S
C122 C121 1.397 . S
C122 C123 1.378 . S
C123 C122 1.378 . S
C123 C124 1.378 . S
C124 H109 0.940 . S
C124 C123 1.378 . S
C124 C125 1.396 . S
C125 H110 0.940 . S
C125 C120 1.391 . S
C125 C124 1.396 . S
C126 P106 1.803 . S
C126 C127 1.378 . S
C126 C131 1.400 . S
C127 H111 0.939 . S
C127 C126 1.378 . S
C127 C128 1.361 . S
C128 H112 0.942 . S
C128 C127 1.361 . S
C128 C129 1.369 . S
C129 C128 1.369 . S
C129 C130 1.404 . S
C130 H113 0.940 . S
C130 C129 1.404 . S
C130 C131 1.389 . S
C131 H114 0.939 . S
C131 C126 1.400 . S
C131 C130 1.389 . S
C132 P106 1.819 . S
C132 C133 1.391 . S
C132 C137 1.391 . S
C133 H115 0.941 . S
C133 C132 1.391 . S
C133 C134 1.396 . S
C134 H118 0.939 . S
C134 C133 1.396 . S
C134 C135 1.397 . S
C135 C134 1.397 . S
C135 C136 1.385 . S
C136 H119 0.940 . S
C136 C135 1.385 . S
C136 C137 1.388 . S
C137 H116 0.939 . S
C137 C132 1.391 . S
C137 C136 1.388 . S
P138 O149 1.490 . S
P138 C152 1.812 . S
P138 C158 1.803 . S
P138 C164 1.819 . S
H139 C153 0.941 . S
H140 C154 0.939 . S
H141 C156 0.940 . S
H142 C157 0.940 . S
H143 C159 0.939 . S
H144 C160 0.942 . S
H145 C162 0.940 . S
H146 C163 0.939 . S
H147 C165 0.941 . S
H148 C169 0.939 . S
O149 P138 1.490 . S
H150 C166 0.939 . S
H151 C168 0.940 . S
C152 P138 1.812 . S
C152 C153 1.389 . S
C152 C157 1.391 . S
C153 H139 0.941 . S
C153 C152 1.389 . S
C153 C154 1.397 . S
C154 H140 0.939 . S
C154 C153 1.397 . S
C154 C155 1.378 . S
C155 C154 1.378 . S
C155 C156 1.378 . S
C156 H141 0.940 . S
C156 C155 1.378 . S
C156 C157 1.396 . S
C157 H142 0.940 . S
C157 C152 1.391 . S
C157 C156 1.396 . S
C158 P138 1.803 . S
C158 C159 1.378 . S
C158 C163 1.400 . S
C159 H143 0.939 . S
C159 C158 1.378 . S
C159 C160 1.361 . S
C160 H144 0.942 . S
C160 C159 1.361 . S
C160 C161 1.369 . S
C161 C160 1.369 . S
C161 C162 1.404 . S
C162 H145 0.940 . S
C162 C161 1.404 . S
C162 C163 1.389 . S
C163 H146 0.939 . S
C163 C158 1.400 . S
C163 C162 1.389 . S
C164 P138 1.819 . S
C164 C165 1.391 . S
C164 C169 1.391 . S
C165 H147 0.941 . S
C165 C164 1.391 . S
C165 C166 1.396 . S
C166 H150 0.939 . S
C166 C165 1.396 . S
C166 C167 1.397 . S
C167 C166 1.397 . S
C167 C168 1.385 . S
C168 H151 0.940 . S
C168 C167 1.385 . S
C168 C169 1.388 . S
C169 H148 0.939 . S
C169 C164 1.391 . S
C169 C168 1.388 . S
H170 C176 0.924 1_556 S
H171 C179 0.930 . S
H172 C180 0.930 . S
H173 C181 0.930 . S
H174 C184 0.930 . S
H175 C185 0.930 1_556 S
C176 H170 0.924 1_554 S
C176 C177 1.355 . S
C176 C178 1.415 . S
C177 C176 1.355 . S
C177 C179 1.419 . S
C178 C176 1.415 . S
C178 C183 1.425 . S
C178 C185 1.409 . S
C179 H171 0.930 . S
C179 C177 1.419 . S
C179 C180 1.362 . S
C180 H172 0.930 . S
C180 C179 1.362 . S
C180 C183 1.409 . S
C181 H173 0.930 . S
C181 C182 1.355 . S
C181 C183 1.415 . S
C182 C181 1.355 . S
C182 C184 1.419 . S
C183 C178 1.425 . S
C183 C180 1.409 . S
C183 C181 1.415 . S
C184 H174 0.930 . S
C184 C182 1.419 . S
C184 C185 1.362 . S
C185 H175 0.930 1_554 S
C185 C178 1.409 . S
C185 C184 1.362 . S
H186 C192 0.930 . S
H187 C195 0.930 . S
H188 C196 0.930 . S
H189 C197 0.930 . S
H190 C200 0.930 . S
H191 C201 0.930 . S
C192 H186 0.930 . S
C192 C193 1.350 1_556 S
C192 C194 1.415 . S
C193 C192 1.350 1_554 S
C193 C195 1.425 . S
C194 C192 1.415 . S
C194 C199 1.425 . S
C194 C201 1.409 . S
C195 H187 0.930 . S
C195 C193 1.425 . S
C195 C196 1.362 . S
C196 H188 0.930 . S
C196 C195 1.362 . S
C196 C199 1.409 1_554 S
C197 H189 0.930 . S
C197 C198 1.355 . S
C197 C199 1.415 . S
C198 C197 1.355 . S
C198 C200 1.419 . S
C199 C194 1.425 . S
C199 C196 1.409 1_556 S
C199 C197 1.415 . S
C200 H190 0.930 . S
C200 C198 1.419 . S
C200 C201 1.362 . S
C201 H191 0.930 . S
C201 C194 1.409 . S
C201 C200 1.362 . S
H202 C208 0.930 . S
H203 C211 0.930 . S
H204 C212 0.930 . S
H205 C213 0.930 . S
H206 C216 0.930 . S
H207 C217 0.930 . S
C208 H202 0.930 . S
C208 C209 1.355 . S
C208 C210 1.415 . S
C209 C208 1.355 . S
C209 C211 1.419 . S
C210 C208 1.415 . S
C210 C215 1.425 . S
C210 C217 1.409 . S
C211 H203 0.930 . S
C211 C209 1.419 . S
C211 C212 1.362 . S
C212 H204 0.930 . S
C212 C211 1.362 . S
C212 C215 1.409 . S
C213 H205 0.930 . S
C213 C214 1.355 . S
C213 C215 1.415 . S
C214 C213 1.355 . S
C214 C216 1.419 . S
C215 C210 1.425 . S
C215 C212 1.409 . S
C215 C213 1.415 . S
C216 H206 0.930 . S
C216 C214 1.419 . S
C216 C217 1.362 . S
C217 H207 0.930 . S
C217 C210 1.409 . S
C217 C216 1.362 . S
H218 C224 0.930 . S
H219 C227 0.938 . S
H220 C228 0.930 . S
H221 C229 0.930 . S
H222 C232 0.930 . S
H223 C233 0.930 . S
C224 H218 0.930 . S
C224 C225 1.358 . S
C224 C226 1.415 . S
C225 C224 1.358 . S
C225 C227 1.416 1_556 S
C226 C224 1.415 . S
C226 C231 1.425 . S
C226 C233 1.409 . S
C227 H219 0.938 . S
C227 C225 1.416 1_554 S
C227 C228 1.357 1_554 S
C228 H220 0.930 . S
C228 C227 1.357 1_556 S
C228 C231 1.409 . S
C229 H221 0.930 . S
C229 C230 1.355 . S
C229 C231 1.415 . S
C230 C229 1.355 . S
C230 C232 1.419 . S
C231 C226 1.425 . S
C231 C228 1.409 . S
C231 C229 1.415 . S
C232 H222 0.930 . S
C232 C230 1.419 . S
C232 C233 1.362 . S
C233 H223 0.930 . S
C233 C226 1.409 . S
C233 C232 1.362 . S
H234 C240 0.930 . S
H235 C243 0.930 . S
H236 C244 0.930 . S
H237 C245 0.930 . S
H238 C248 0.930 . S
H239 C249 0.930 . S
C240 H234 0.930 . S
C240 C241 1.355 . S
C240 C242 1.415 . S
C241 C240 1.355 . S
C241 C243 1.419 . S
C242 C240 1.415 . S
C242 C247 1.425 . S
C242 C249 1.409 . S
C243 H235 0.930 . S
C243 C241 1.419 . S
C243 C244 1.362 . S
C244 H236 0.930 . S
C244 C243 1.362 . S
C244 C247 1.409 . S
C245 H237 0.930 . S
C245 C246 1.355 . S
C245 C247 1.415 . S
C246 C245 1.355 . S
C246 C248 1.419 . S
C247 C242 1.425 . S
C247 C244 1.409 . S
C247 C245 1.415 . S
C248 H238 0.930 . S
C248 C246 1.419 . S
C248 C249 1.362 . S
C249 H239 0.930 . S
C249 C242 1.409 . S
C249 C248 1.362 . S
H250 C256 0.930 . S
H251 C259 0.930 . S
H252 C260 0.930 . S
H253 C261 0.930 . S
H254 C264 0.930 . S
H255 C265 0.930 . S
C256 H250 0.930 . S
C256 C257 1.355 . S
C256 C258 1.415 . S
C257 C256 1.355 . S
C257 C259 1.419 . S
C258 C256 1.415 . S
C258 C263 1.425 . S
C258 C265 1.409 . S
C259 H251 0.930 . S
C259 C257 1.419 . S
C259 C260 1.362 . S
C260 H252 0.930 . S
C260 C259 1.362 . S
C260 C263 1.409 . S
C261 H253 0.930 . S
C261 C262 1.355 . S
C261 C263 1.415 . S
C262 C261 1.355 . S
C262 C264 1.419 . S
C263 C258 1.425 . S
C263 C260 1.409 . S
C263 C261 1.415 . S
C264 H254 0.930 . S
C264 C262 1.419 . S
C264 C265 1.362 . S
C265 H255 0.930 . S
C265 C258 1.409 . S
C265 C264 1.362 . S
H266 C272 0.930 . S
H267 C275 0.930 . S
H268 C276 0.930 . S
H269 C277 0.930 . S
H270 C280 0.930 . S
H271 C281 0.930 . S
C272 H266 0.930 . S
C272 C273 1.355 . S
C272 C274 1.415 . S
C273 C272 1.355 . S
C273 C275 1.419 . S
C274 C272 1.415 . S
C274 C279 1.425 . S
C274 C281 1.409 . S
C275 H267 0.930 . S
C275 C273 1.419 . S
C275 C276 1.362 . S
C276 H268 0.930 . S
C276 C275 1.362 . S
C276 C279 1.409 . S
C277 H269 0.930 . S
C277 C278 1.355 . S
C277 C279 1.415 . S
C278 C277 1.355 . S
C278 C280 1.419 . S
C279 C274 1.425 . S
C279 C276 1.409 . S
C279 C277 1.415 . S
C280 H270 0.930 . S
C280 C278 1.419 . S
C280 C281 1.362 . S
C281 H271 0.930 . S
C281 C274 1.409 . S
C281 C280 1.362 . S
H282 C288 0.930 . S
H283 C291 0.930 . S
H284 C292 0.930 . S
H285 C293 0.930 . S
H286 C296 0.930 . S
H287 C297 0.930 . S
C288 H282 0.930 . S
C288 C289 1.355 . S
C288 C290 1.415 . S
C289 C288 1.355 . S
C289 C291 1.419 . S
C290 C288 1.415 . S
C290 C295 1.425 . S
C290 C297 1.409 . S
C291 H283 0.930 . S
C291 C289 1.419 . S
C291 C292 1.362 . S
C292 H284 0.930 . S
C292 C291 1.362 . S
C292 C295 1.409 . S
C293 H285 0.930 . S
C293 C294 1.355 . S
C293 C295 1.415 . S
C294 C293 1.355 . S
C294 C296 1.419 . S
C295 C290 1.425 . S
C295 C292 1.409 . S
C295 C293 1.415 . S
C296 H286 0.930 . S
C296 C294 1.419 . S
C296 C297 1.362 . S
C297 H287 0.930 . S
C297 C290 1.409 . S
C297 C296 1.362 . S
H298 C304 0.930 1_655 S
H299 C307 0.930 . S
H300 C308 0.930 . S
H301 C309 0.930 . S
H302 C312 0.930 . S
H303 C313 0.930 . S
C304 H298 0.930 1_455 S
C304 C305 1.355 . S
C304 C306 1.415 . S
C305 C304 1.355 . S
C305 C307 1.419 1_545 S
C306 C304 1.415 . S
C306 C311 1.425 1_545 S
C306 C313 1.409 1_455 S
C307 H299 0.930 . S
C307 C305 1.419 1_565 S
C307 C308 1.362 . S
C308 H300 0.930 . S
C308 C307 1.362 . S
C308 C311 1.409 . S
C309 H301 0.930 . S
C309 C310 1.355 1_565 S
C309 C311 1.415 . S
C310 C309 1.355 1_545 S
C310 C312 1.419 1_455 S
C311 C306 1.425 1_565 S
C311 C308 1.409 . S
C311 C309 1.415 . S
C312 H302 0.930 . S
C312 C310 1.419 1_655 S
C312 C313 1.362 . S
C313 H303 0.930 . S
C313 C306 1.409 1_655 S
C313 C312 1.362 . S
H314 C320 0.930 1_565 S
H315 C323 0.930 . S
H316 C324 0.930 . S
H317 C325 0.930 . S
H318 C328 0.930 1_565 S
H319 C329 0.930 . S
C320 H314 0.930 1_545 S
C320 C321 1.355 . S
C320 C322 1.415 . S
C321 C320 1.355 . S
C321 C323 1.419 . S
C322 C320 1.415 . S
C322 C327 1.425 . S
C322 C329 1.409 1_545 S
C323 H315 0.930 . S
C323 C321 1.419 . S
C323 C324 1.362 . S
C324 H316 0.930 . S
C324 C323 1.362 . S
C324 C327 1.409 . S
C325 H317 0.930 . S
C325 C326 1.355 . S
C325 C327 1.415 . S
C326 C325 1.355 . S
C326 C328 1.419 . S
C327 C322 1.425 . S
C327 C324 1.409 . S
C327 C325 1.415 . S
C328 H318 0.930 1_545 S
C328 C326 1.419 . S
C328 C329 1.362 1_545 S
C329 H319 0.930 . S
C329 C322 1.409 1_565 S
C329 C328 1.362 1_565 S
H330 C336 0.930 . S
H331 C339 0.930 . S
H332 C340 0.930 . S
H333 C341 0.930 . S
H334 C344 0.930 . S
H335 C345 0.930 . S
C336 H330 0.930 . S
C336 C337 1.355 . S
C336 C338 1.415 . S
C337 C336 1.355 . S
C337 C339 1.419 . S
C338 C336 1.415 . S
C338 C343 1.425 . S
C338 C345 1.409 . S
C339 H331 0.930 . S
C339 C337 1.419 . S
C339 C340 1.362 . S
C340 H332 0.930 . S
C340 C339 1.362 . S
C340 C343 1.409 . S
C341 H333 0.930 . S
C341 C342 1.355 . S
C341 C343 1.415 . S
C342 C341 1.355 . S
C342 C344 1.419 . S
C343 C338 1.425 . S
C343 C340 1.409 . S
C343 C341 1.415 . S
C344 H334 0.930 . S
C344 C342 1.419 . S
C344 C345 1.362 . S
C345 H335 0.930 . S
C345 C338 1.409 . S
C345 C344 1.362 . S
H346 C352 0.930 . S
H347 C355 0.930 . S
H348 C356 0.930 . S
H349 C357 0.930 . S
H350 C360 0.930 . S
H351 C361 0.930 . S
C352 H346 0.930 . S
C352 C353 1.355 . S
C352 C354 1.415 . S
C353 C352 1.355 . S
C353 C355 1.419 . S
C354 C352 1.415 . S
C354 C359 1.425 . S
C354 C361 1.409 . S
C355 H347 0.930 . S
C355 C353 1.419 . S
C355 C356 1.362 . S
C356 H348 0.930 . S
C356 C355 1.362 . S
C356 C359 1.409 . S
C357 H349 0.930 . S
C357 C358 1.355 . S
C357 C359 1.415 . S
C358 C357 1.355 . S
C358 C360 1.419 . S
C359 C354 1.425 . S
C359 C356 1.409 . S
C359 C357 1.415 . S
C360 H350 0.930 . S
C360 C358 1.419 . S
C360 C361 1.362 . S
C361 H351 0.930 . S
C361 C354 1.409 . S
C361 C360 1.362 . S
C182 C155 1.403 . S
C177 C16 1.321 . S
C193 C15 1.532 . S
C198 C123 1.450 . S
C209 C13 1.215 . S
C214 C161 1.387 . S
C225 C14 1.324 . S
C230 C129 1.329 . S
C241 C37 1.306 . S
C246 C91 1.439 . S
C257 C36 1.493 . S
C262 C59 1.459 . S
C278 C97 1.398 . S
C273 C34 1.243 . S
C294 C65 1.403 . S
C289 C35 1.376 . S
C305 C17 1.490 . S
C310 C71 1.524 . S
C321 C18 1.396 . S
C326 C103 1.365 . S
C342 C135 1.527 . S
C337 C38 1.492 . S
C353 C39 1.408 . S
C358 C167 1.378 . S
