# Generated by pormake.
# Topology pyr, (3,6)-cn, num edge types: 1
# Building blocks:
#     Node 0, Type 0, BuildingBlock: ESEHIV_clean_linker_0, # of connection points: 3
#     Node 1, Type 0, BuildingBlock: ESEHIV_clean_linker_0, # of connection points: 3
#     Node 2, Type 0, BuildingBlock: ESEHIV_clean_linker_0, # of connection points: 3
#     Node 3, Type 0, BuildingBlock: ESEHIV_clean_linker_0, # of connection points: 3
#     Node 4, Type 0, BuildingBlock: ESEHIV_clean_linker_0, # of connection points: 3
#     Node 5, Type 0, BuildingBlock: ESEHIV_clean_linker_0, # of connection points: 3
#     Node 6, Type 0, BuildingBlock: ESEHIV_clean_linker_0, # of connection points: 3
#     Node 7, Type 0, BuildingBlock: ESEHIV_clean_linker_0, # of connection points: 3
#     Node 8, Type 1, BuildingBlock: MIFKUJ_clean_sbu_0, # of connection points: 6
#     Node 9, Type 1, BuildingBlock: MIFKUJ_clean_sbu_0, # of connection points: 6
#     Node 10, Type 1, BuildingBlock: MIFKUJ_clean_sbu_0, # of connection points: 6
#     Node 11, Type 1, BuildingBlock: MIFKUJ_clean_sbu_0, # of connection points: 6
#     Edge 12, Type (0, 1), BuildingBlock: AJUNOK_clean_linker_0, # of connection points: 2
#     Edge 13, Type (0, 1), BuildingBlock: AJUNOK_clean_linker_0, # of connection points: 2
#     Edge 14, Type (0, 1), BuildingBlock: AJUNOK_clean_linker_0, # of connection points: 2
#     Edge 15, Type (0, 1), BuildingBlock: AJUNOK_clean_linker_0, # of connection points: 2
#     Edge 16, Type (0, 1), BuildingBlock: AJUNOK_clean_linker_0, # of connection points: 2
#     Edge 17, Type (0, 1), BuildingBlock: AJUNOK_clean_linker_0, # of connection points: 2
#     Edge 18, Type (0, 1), BuildingBlock: AJUNOK_clean_linker_0, # of connection points: 2
#     Edge 19, Type (0, 1), BuildingBlock: AJUNOK_clean_linker_0, # of connection points: 2
#     Edge 20, Type (0, 1), BuildingBlock: AJUNOK_clean_linker_0, # of connection points: 2
#     Edge 21, Type (0, 1), BuildingBlock: AJUNOK_clean_linker_0, # of connection points: 2
#     Edge 22, Type (0, 1), BuildingBlock: AJUNOK_clean_linker_0, # of connection points: 2
#     Edge 23, Type (0, 1), BuildingBlock: AJUNOK_clean_linker_0, # of connection points: 2
#     Edge 24, Type (0, 1), BuildingBlock: AJUNOK_clean_linker_0, # of connection points: 2
#     Edge 25, Type (0, 1), BuildingBlock: AJUNOK_clean_linker_0, # of connection points: 2
#     Edge 26, Type (0, 1), BuildingBlock: AJUNOK_clean_linker_0, # of connection points: 2
#     Edge 27, Type (0, 1), BuildingBlock: AJUNOK_clean_linker_0, # of connection points: 2
#     Edge 28, Type (0, 1), BuildingBlock: AJUNOK_clean_linker_0, # of connection points: 2
#     Edge 29, Type (0, 1), BuildingBlock: AJUNOK_clean_linker_0, # of connection points: 2
#     Edge 30, Type (0, 1), BuildingBlock: AJUNOK_clean_linker_0, # of connection points: 2
#     Edge 31, Type (0, 1), BuildingBlock: AJUNOK_clean_linker_0, # of connection points: 2
#     Edge 32, Type (0, 1), BuildingBlock: AJUNOK_clean_linker_0, # of connection points: 2
#     Edge 33, Type (0, 1), BuildingBlock: AJUNOK_clean_linker_0, # of connection points: 2
#     Edge 34, Type (0, 1), BuildingBlock: AJUNOK_clean_linker_0, # of connection points: 2
#     Edge 35, Type (0, 1), BuildingBlock: AJUNOK_clean_linker_0, # of connection points: 2
# Relax obj value: 0.037
# Max RMSD: 0.089
# Mean RMSD: 0.052
data_MOF--net-pyr--node1-MIFKUJ_clean_sbu_0--node2-ESEHIV_clean_linker_0--edge1-AJUNOK_clean_linker_0
_symmetry_space_group_name_H-M    P1
_symmetry_Int_Tables_number       1
_symmetry_cell_setting            triclinic
loop_
_symmetry_equiv_pos_as_xyz
'x, y, z'
_cell_length_a     27.545077
_cell_length_b     24.667115
_cell_length_c     25.906309
_cell_angle_alpha  84.648658
_cell_angle_beta   87.306683
_cell_angle_gamma 97.243183
loop_
_atom_site_label
_atom_site_type_symbol
_atom_site_fract_x
_atom_site_fract_y
_atom_site_fract_z
_atom_type_partial_charge
H0 H 0.12704 0.21708 0.24809 0.0
H1 H 0.22462 0.09438 0.25872 0.0
H2 H 0.24415 0.22176 0.13137 0.0
C3 C 0.15788 0.1995 0.23207 0.0
C4 C 0.18291 0.2241 0.18578 0.0
C5 C 0.17235 0.1524 0.25808 0.0
C6 C 0.21386 0.13136 0.23904 0.0
C7 C 0.24035 0.15665 0.19367 0.0
C8 C 0.22443 0.20276 0.16701 0.0
H9 H 0.29846 0.90622 0.7555 0.0
H10 H 0.40914 0.80205 0.73082 0.0
H11 H 0.29461 0.81075 0.62428 0.0
C12 C 0.31378 0.87716 0.73262 0.0
C13 C 0.29182 0.86212 0.6872 0.0
C14 C 0.35531 0.85449 0.74895 0.0
C15 C 0.37606 0.81804 0.71886 0.0
C16 C 0.35516 0.80295 0.67314 0.0
C17 C 0.31241 0.82434 0.65809 0.0
H18 H 0.68268 0.29107 0.88167 0.0
H19 H 0.69153 0.42416 0.76108 0.0
H20 H 0.56695 0.29798 0.77621 0.0
C21 C 0.66657 0.31175 0.84922 0.0
C22 C 0.62183 0.28828 0.83208 0.0
C23 C 0.69137 0.36109 0.82453 0.0
C24 C 0.67179 0.38665 0.78094 0.0
C25 C 0.62688 0.36411 0.76305 0.0
C26 C 0.60211 0.31485 0.78895 0.0
H27 H 0.80051 0.68019 0.36472 0.0
H28 H 0.92631 0.68695 0.25837 0.0
H29 H 0.80105 0.56537 0.24943 0.0
C30 C 0.81887 0.66418 0.3326 0.0
C31 C 0.79473 0.62014 0.30926 0.0
C32 C 0.86632 0.68822 0.31486 0.0
C33 C 0.88967 0.66855 0.27236 0.0
C34 C 0.86614 0.62413 0.24876 0.0
C35 C 0.81878 0.60008 0.2673 0.0
H36 H 0.77706 0.90854 0.74523 0.0
H37 H 0.88108 0.79308 0.75851 0.0
H38 H 0.75218 0.77128 0.86267 0.0
C39 C 0.78776 0.87084 0.76349 0.0
C40 C 0.75934 0.84184 0.80595 0.0
C41 C 0.83142 0.85302 0.74609 0.0
C42 C 0.84664 0.80586 0.77128 0.0
C43 C 0.81825 0.77594 0.8133 0.0
C44 C 0.7744 0.79402 0.83015 0.0
H45 H 0.60176 0.20526 0.2765 0.0
H46 H 0.71029 0.09996 0.24754 0.0
H47 H 0.72212 0.19949 0.3759 0.0
C48 C 0.63581 0.19017 0.28631 0.0
C49 C 0.66003 0.2078 0.32933 0.0
C50 C 0.65458 0.15278 0.25585 0.0
C51 C 0.69679 0.13026 0.27025 0.0
C52 C 0.72157 0.14689 0.31362 0.0
C53 C 0.70285 0.18571 0.34301 0.0
H54 H 0.32733 0.71025 0.12809 0.0
H55 H 0.31953 0.57853 0.25023 0.0
H56 H 0.44285 0.70633 0.23388 0.0
C57 C 0.34322 0.69033 0.16112 0.0
C58 C 0.3881 0.71403 0.17767 0.0
C59 C 0.31819 0.64173 0.18707 0.0
C60 C 0.3389 0.61598 0.22989 0.0
C61 C 0.38422 0.63864 0.24684 0.0
C62 C 0.4084 0.68799 0.22061 0.0
H63 H 0.10062 0.30751 0.76906 0.0
H64 H 0.22831 0.31342 0.66562 0.0
H65 H 0.21268 0.44823 0.75563 0.0
C66 C 0.13498 0.32931 0.75169 0.0
C67 C 0.15297 0.38133 0.76677 0.0
C68 C 0.16233 0.30435 0.7156 0.0
C69 C 0.20742 0.33194 0.6942 0.0
C70 C 0.22564 0.38356 0.70838 0.0
C71 C 0.19837 0.40826 0.74456 0.0
Zn72 Zn 0.05952 0.02429 0.56132 0.0
Zn73 Zn 0.94967 0.98631 0.44769 0.0
C74 C 0.10942 0.10716 0.61524 0.0
O75 O 0.14619 0.08702 0.59315 0.0
C76 C 0.93905 0.8716 0.42813 0.0
O77 O 0.94043 0.86517 0.47889 0.0
O78 O 0.1076 0.97199 0.58353 0.0
O79 O 0.98977 0.98598 0.56474 0.0
O80 O 0.92552 0.96012 0.52087 0.0
C81 C 0.11883 0.96252 0.63026 0.0
O82 O 0.09543 0.98372 0.66718 0.0
O83 O 0.06588 0.08742 0.60688 0.0
C84 C 0.89022 0.04045 0.37419 0.0
O85 O 0.91134 0.01236 0.34097 0.0
O86 O 0.90195 0.03683 0.42114 0.0
O87 O 0.01843 0.02617 0.44651 0.0
O88 O 0.08277 0.0549 0.48866 0.0
O89 O 0.94467 0.92019 0.40534 0.0
C90 C 0.94598 0.96258 0.56371 0.0
C91 C 0.06172 0.05117 0.44629 0.0
Zn92 Zn 0.53883 0.97253 0.97725 0.0
Zn93 Zn 0.46859 0.03084 0.02932 0.0
C94 C 0.46739 0.90855 0.92479 0.0
O95 O 0.48718 0.86945 0.95076 0.0
C96 C 0.53497 0.09634 0.08575 0.0
O97 O 0.51067 0.13387 0.06369 0.0
O98 O 0.59256 0.93657 0.94584 0.0
O99 O 0.56343 0.05368 0.96928 0.0
O100 O 0.48829 0.07104 0.95802 0.0
C101 C 0.5992 0.94029 0.89669 0.0
O102 O 0.57161 0.9691 0.86802 0.0
O103 O 0.48253 0.95823 0.93093 0.0
C104 C 0.40419 0.06061 0.10736 0.0
O105 O 0.43108 0.03181 0.13695 0.0
O106 O 0.41301 0.06575 0.05844 0.0
O107 O 0.44515 0.94971 0.03936 0.0
O108 O 0.52014 0.93124 0.04795 0.0
O109 O 0.52403 0.04677 0.07639 0.0
C110 C 0.53416 0.08411 0.94893 0.0
C111 C 0.47441 0.91842 0.05849 0.0
Zn112 Zn 0.53125 0.45973 0.46855 0.0
Zn113 Zn 0.48358 0.54864 0.54053 0.0
C114 C 0.60084 0.52086 0.39584 0.0
O115 O 0.5685 0.49839 0.36584 0.0
C116 C 0.41479 0.48088 0.6121 0.0
O117 O 0.45098 0.48988 0.64271 0.0
O118 O 0.54554 0.39364 0.4331 0.0
O119 O 0.52937 0.43653 0.54575 0.0
O120 O 0.54106 0.51829 0.57421 0.0
C121 C 0.57755 0.36495 0.45057 0.0
O122 O 0.59685 0.37518 0.4946 0.0
O123 O 0.59185 0.51329 0.44488 0.0
C124 C 0.44132 0.64629 0.55476 0.0
O125 O 0.42225 0.63466 0.51097 0.0
O126 O 0.47145 0.61639 0.57455 0.0
O127 O 0.48614 0.57007 0.46262 0.0
O128 O 0.47232 0.4875 0.43633 0.0
O129 O 0.42085 0.49889 0.56424 0.0
C130 C 0.54485 0.46723 0.57987 0.0
C131 C 0.46945 0.53869 0.42948 0.0
Zn132 Zn 0.94405 0.51051 0.96014 0.0
Zn133 Zn 0.06606 0.50058 0.04707 0.0
C134 C 0.87644 0.45603 0.89887 0.0
O135 O 0.90902 0.48278 0.86388 0.0
C136 C 0.13081 0.55266 0.11302 0.0
O137 O 0.0963 0.52589 0.1459 0.0
O138 O 0.93172 0.57846 0.91761 0.0
O139 O 0.94075 0.53053 0.03433 0.0
O140 O 0.00641 0.52643 0.08048 0.0
C141 C 0.89198 0.59578 0.93107 0.0
O142 O 0.86536 0.57099 0.97192 0.0
O143 O 0.88454 0.45792 0.94672 0.0
C144 C 0.11842 0.41555 0.07613 0.0
O145 O 0.15002 0.44812 0.044 0.0
O146 O 0.07591 0.42885 0.08482 0.0
O147 O 0.0711 0.48483 0.97181 0.0
O148 O 0.00413 0.48485 0.92752 0.0
O149 O 0.12541 0.55131 0.06458 0.0
C150 C 0.96269 0.53671 0.07591 0.0
C151 C 0.04869 0.47714 0.93075 0.0
C152 C 0.1669 0.11402 0.35098 0.0
C153 C 0.14354 0.12498 0.30492 0.0
C154 C 0.13997 0.09011 0.39632 0.0
C155 C 0.08872 0.07574 0.39716 0.0
H156 H 0.20616 0.12491 0.35221 0.0
H157 H 0.15967 0.0828 0.43099 0.0
S158 S 0.0108 0.09449 0.28542 0.0
N159 N 0.06688 0.11852 0.26183 0.0
N160 N 0.01596 0.07368 0.34716 0.0
C161 C 0.06508 0.08579 0.35091 0.0
C162 C 0.09256 0.11045 0.3048 0.0
C163 C 0.39755 0.9233 0.80243 0.0
C164 C 0.37797 0.86884 0.79726 0.0
C165 C 0.42473 0.93629 0.84509 0.0
C166 C 0.43312 0.89518 0.88401 0.0
H167 H 0.39358 0.95564 0.77223 0.0
H168 H 0.44089 0.97848 0.8464 0.0
S169 S 0.38324 0.7474 0.89137 0.0
N170 N 0.36437 0.77453 0.83639 0.0
N171 N 0.41497 0.79858 0.91689 0.0
C172 C 0.4112 0.84101 0.88051 0.0
C173 C 0.38377 0.82792 0.83702 0.0
C174 C 0.58971 0.36099 0.67657 0.0
C175 C 0.60599 0.39163 0.71703 0.0
C176 C 0.57033 0.38584 0.63257 0.0
C177 C 0.56617 0.44249 0.62708 0.0
H178 H 0.59249 0.31742 0.67864 0.0
H179 H 0.55851 0.36016 0.60262 0.0
S180 S 0.60157 0.54062 0.72355 0.0
N181 N 0.6152 0.48126 0.74984 0.0
N182 N 0.57918 0.52821 0.6672 0.0
C183 C 0.58204 0.47357 0.66759 0.0
C184 C 0.60186 0.44815 0.71242 0.0
C185 C 0.91992 0.56009 0.2131 0.0
C186 C 0.89091 0.60266 0.20453 0.0
C187 C 0.94322 0.539 0.17128 0.0
C188 C 0.93753 0.5592 0.11953 0.0
H189 H 0.92462 0.54307 0.25235 0.0
H190 H 0.96533 0.50624 0.17948 0.0
S191 S 0.86809 0.67346 0.07751 0.0
N192 N 0.85964 0.66615 0.14142 0.0
N193 N 0.90286 0.62656 0.06272 0.0
C194 C 0.90894 0.60225 0.11079 0.0
C195 C 0.88577 0.62398 0.15335 0.0
C196 C 0.28659 0.12416 0.11989 0.0
C197 C 0.28324 0.13339 0.1726 0.0
C198 C 0.32609 0.10109 0.09912 0.0
C199 C 0.36358 0.08602 0.13035 0.0
H200 H 0.25801 0.13402 0.09463 0.0
H201 H 0.32675 0.0942 0.05841 0.0
S202 S 0.37402 0.10611 0.26985 0.0
N203 N 0.32218 0.12912 0.25489 0.0
N204 N 0.39624 0.0848 0.21611 0.0
C205 C 0.36112 0.09588 0.18299 0.0
C206 C 0.32098 0.11975 0.20405 0.0
C207 C 0.20835 0.88795 0.70766 0.0
C208 C 0.24703 0.88545 0.67083 0.0
C209 C 0.16659 0.91174 0.69384 0.0
C210 C 0.16158 0.9336 0.64254 0.0
H211 H 0.2104 0.87151 0.74765 0.0
H212 H 0.13812 0.91327 0.72378 0.0
S213 S 0.2531 0.93879 0.53158 0.0
N214 N 0.27822 0.90817 0.58103 0.0
N215 N 0.19933 0.95172 0.5547 0.0
C216 C 0.19969 0.93068 0.60506 0.0
C217 C 0.24246 0.90689 0.61928 0.0
C218 C 0.78022 0.39911 0.81084 0.0
C219 C 0.73806 0.38533 0.84444 0.0
C220 C 0.82496 0.42066 0.82923 0.0
C221 C 0.82929 0.42937 0.88194 0.0
H222 H 0.77873 0.39266 0.77012 0.0
H223 H 0.85639 0.43071 0.80173 0.0
S224 S 0.72857 0.40288 0.98508 0.0
N225 N 0.70264 0.38379 0.93234 0.0
N226 N 0.78669 0.42404 0.9671 0.0
C227 C 0.78722 0.41592 0.91591 0.0
C228 C 0.74164 0.39404 0.8971 0.0
C229 C 0.7353 0.58175 0.38395 0.0
C230 C 0.74485 0.59496 0.33006 0.0
C231 C 0.68847 0.55914 0.40496 0.0
C232 C 0.64917 0.54866 0.37293 0.0
H233 H 0.7645 0.58839 0.41018 0.0
H234 H 0.68335 0.5489 0.4466 0.0
S235 S 0.65418 0.57933 0.22935 0.0
N236 N 0.71065 0.59853 0.24529 0.0
N237 N 0.62273 0.55551 0.28436 0.0
C238 C 0.65809 0.56243 0.31892 0.0
C239 C 0.70585 0.58556 0.29759 0.0
C240 C 0.19914 0.3181 0.13828 0.0
C241 C 0.16553 0.272 0.15704 0.0
C242 C 0.18346 0.36415 0.11177 0.0
C243 C 0.13356 0.366 0.10356 0.0
H244 H 0.23779 0.31895 0.14479 0.0
H245 H 0.21062 0.39895 0.09842 0.0
S246 S 0.03135 0.25442 0.14134 0.0
N247 N 0.0805 0.22953 0.16243 0.0
N248 N 0.05085 0.31708 0.11412 0.0
C249 C 0.09959 0.32009 0.12162 0.0
C250 C 0.11563 0.27283 0.14797 0.0
C251 C 0.5933 0.23062 0.91539 0.0
C252 C 0.59606 0.23658 0.8606 0.0
C253 C 0.57288 0.18117 0.94365 0.0
C254 C 0.5535 0.13621 0.91832 0.0
H255 H 0.60755 0.26432 0.9367 0.0
H256 H 0.57264 0.17805 0.9856 0.0
S257 S 0.55231 0.12897 0.77633 0.0
N258 N 0.57861 0.1919 0.78236 0.0
N259 N 0.53841 0.09964 0.83606 0.0
C260 C 0.55513 0.14144 0.8639 0.0
C261 C 0.57667 0.19155 0.83489 0.0
C262 C 0.90495 0.78581 0.31677 0.0
C263 C 0.89104 0.73301 0.34245 0.0
C264 C 0.92195 0.83018 0.34444 0.0
C265 C 0.92595 0.82318 0.39871 0.0
H266 H 0.90075 0.79329 0.27544 0.0
H267 H 0.9307 0.87049 0.32327 0.0
S268 S 0.8982 0.69096 0.48266 0.0
N269 N 0.88539 0.675 0.42392 0.0
N270 N 0.91738 0.75752 0.4761 0.0
C271 C 0.91415 0.7697 0.4242 0.0
C272 C 0.89668 0.72488 0.39604 0.0
C273 C 0.39357 0.71671 0.66679 0.0
C274 C 0.37802 0.76424 0.6419 0.0
C275 C 0.41561 0.67973 0.63844 0.0
C276 C 0.42239 0.68851 0.58405 0.0
H277 H 0.38795 0.70751 0.70852 0.0
H278 H 0.42602 0.64313 0.65914 0.0
S279 S 0.39217 0.80863 0.50055 0.0
N280 N 0.37442 0.81994 0.55993 0.0
N281 N 0.41424 0.74927 0.50647 0.0
C282 C 0.40773 0.7361 0.55867 0.0
C283 C 0.38591 0.77421 0.5876 0.0
C284 C 0.83935 0.89397 0.65424 0.0
C285 C 0.86117 0.88363 0.70135 0.0
C286 C 0.86714 0.92012 0.61035 0.0
C287 C 0.91779 0.93734 0.61197 0.0
H288 H 0.8007 0.88061 0.65096 0.0
H289 H 0.8486 0.92643 0.57474 0.0
S290 S 0.99132 0.92244 0.72778 0.0
N291 N 0.93537 0.89443 0.74844 0.0
N292 N 0.98806 0.94364 0.66579 0.0
C293 C 0.93976 0.92836 0.65946 0.0
C294 C 0.91135 0.90141 0.70415 0.0
C295 C 0.61248 0.08315 0.20267 0.0
C296 C 0.62956 0.13816 0.20878 0.0
C297 C 0.58341 0.06965 0.16146 0.0
C298 C 0.57048 0.11076 0.12508 0.0
H299 H 0.61993 0.05061 0.23108 0.0
H300 H 0.56946 0.0269 0.15935 0.0
S301 S 0.61245 0.26035 0.12019 0.0
N302 N 0.63618 0.23333 0.17238 0.0
N303 N 0.58157 0.2083 0.09512 0.0
C304 C 0.58974 0.16566 0.12935 0.0
C305 C 0.61928 0.17927 0.17116 0.0
C306 C 0.42255 0.64318 0.33263 0.0
C307 C 0.4057 0.61183 0.29285 0.0
C308 C 0.44288 0.61915 0.37639 0.0
C309 C 0.44734 0.5626 0.38243 0.0
H310 H 0.41956 0.68671 0.33019 0.0
H311 H 0.45519 0.6454 0.40573 0.0
S312 S 0.41064 0.46273 0.28788 0.0
N313 N 0.39625 0.52161 0.26127 0.0
N314 N 0.43398 0.47615 0.34356 0.0
C315 C 0.43084 0.53077 0.34265 0.0
C316 C 0.41011 0.55538 0.298 0.0
C317 C 0.15009 0.4277 0.84894 0.0
C318 C 0.12556 0.40685 0.8071 0.0
C319 C 0.12516 0.45098 0.88806 0.0
C320 C 0.07456 0.45482 0.88697 0.0
H321 H 0.18884 0.42513 0.85203 0.0
H322 H 0.14585 0.4657 0.91965 0.0
S323 S 0.9937 0.40788 0.7844 0.0
N324 N 0.04821 0.39298 0.76586 0.0
N325 N 1.0011 0.43614 0.83927 0.0
C326 C 0.04973 0.43469 0.84478 0.0
C327 C 0.07521 0.41079 0.80504 0.0
C328 C 0.71267 0.86983 0.88151 0.0
C329 C 0.71639 0.86409 0.82806 0.0
C330 C 0.6743 0.89388 0.90332 0.0
C331 C 0.63826 0.91338 0.87246 0.0
H332 H 0.74034 0.85684 0.90657 0.0
H333 H 0.67353 0.89811 0.94458 0.0
S334 S 0.62916 0.90337 0.73096 0.0
N335 N 0.67931 0.87626 0.74523 0.0
N336 N 0.60715 0.92219 0.78597 0.0
C337 C 0.64088 0.90666 0.81904 0.0
C338 C 0.67998 0.8819 0.79689 0.0
C339 C 0.7717 0.10395 0.3807 0.0
C340 C 0.76661 0.12321 0.32861 0.0
C341 C 0.81255 0.07877 0.39536 0.0
C342 C 0.84969 0.07143 0.35841 0.0
H343 H 0.74326 0.10701 0.41021 0.0
H344 H 0.81421 0.0634 0.43571 0.0
S345 S 0.85692 0.12065 0.21818 0.0
N346 N 0.80468 0.13808 0.24094 0.0
N347 N 0.88067 0.08936 0.26824 0.0
C348 C 0.84586 0.09206 0.30653 0.0
C349 C 0.80455 0.11824 0.29169 0.0
C350 C 0.26491 0.61159 0.11644 0.0
C351 C 0.27005 0.6188 0.16926 0.0
C352 C 0.21958 0.59145 0.09833 0.0
C353 C 0.17753 0.5778 0.13236 0.0
H354 H 0.29639 0.62107 0.08893 0.0
H355 H 0.21777 0.58567 0.0575 0.0
S356 S 0.17085 0.59345 0.27374 0.0
N357 N 0.22889 0.61374 0.25484 0.0
N358 N 0.1437 0.57566 0.22123 0.0
C359 C 0.18206 0.58582 0.18519 0.0
C360 C 0.22828 0.60627 0.20355 0.0
C361 C 0.31601 0.38507 0.69339 0.0
C362 C 0.27375 0.41059 0.68519 0.0
C363 C 0.36163 0.40798 0.66934 0.0
C364 C 0.36612 0.45612 0.63497 0.0
H365 H 0.31371 0.34719 0.71871 0.0
H366 H 0.39349 0.38757 0.67719 0.0
S367 S 0.26689 0.53938 0.60164 0.0
N368 N 0.23949 0.48737 0.64182 0.0
N369 N 0.32503 0.5296 0.59524 0.0
C370 C 0.32419 0.48203 0.62646 0.0
C371 C 0.27801 0.45946 0.65197 0.0
C372 C 0.83346 0.72339 0.89676 0.0
C373 C 0.83613 0.72831 0.8421 0.0
C374 C 0.85155 0.68014 0.92517 0.0
C375 C 0.87418 0.64119 0.90005 0.0
H376 H 0.81789 0.75361 0.91787 0.0
H377 H 0.84843 0.67766 0.9671 0.0
S378 S 0.88613 0.63184 0.75826 0.0
N379 N 0.85915 0.68725 0.7641 0.0
N380 N 0.89568 0.60753 0.81797 0.0
C381 C 0.87675 0.64497 0.84561 0.0
C382 C 0.85715 0.68822 0.81652 0.0
C383 C 0.38487 0.81036 0.13954 0.0
C384 C 0.41247 0.76681 0.15026 0.0
C385 C 0.40551 0.85926 0.11056 0.0
C386 C 0.45475 0.86686 0.09114 0.0
H387 H 0.34674 0.80647 0.1534 0.0
H388 H 0.38245 0.89127 0.10315 0.0
S389 S 0.54279 0.76514 0.10823 0.0
N390 N 0.49152 0.73415 0.13913 0.0
N391 N 0.53077 0.8264 0.08511 0.0
C392 C 0.48312 0.82397 0.10238 0.0
C393 C 0.46191 0.77395 0.13186 0.0
C394 C 0.09967 0.24062 0.67553 0.0
C395 C 0.1447 0.24969 0.69887 0.0
C396 C 0.08709 0.19295 0.65053 0.0
C397 C 0.11937 0.15319 0.64781 0.0
H398 H 0.07525 0.27182 0.67418 0.0
H399 H 0.05311 0.18863 0.63099 0.0
S400 S 0.23763 0.15349 0.71087 0.0
N401 N 0.21839 0.2118 0.72373 0.0
N402 N 0.19531 0.12295 0.67639 0.0
C403 C 0.1629 0.16024 0.67409 0.0
C404 C 0.17541 0.20829 0.69975 0.0
C405 C 0.6358 0.24118 0.41432 0.0
C406 C 0.64004 0.24914 0.35971 0.0
C407 C 0.61509 0.27859 0.44348 0.0
C408 C 0.59718 0.3248 0.41906 0.0
H409 H 0.64794 0.2054 0.43469 0.0
H410 H 0.61263 0.27098 0.48545 0.0
S411 S 0.60416 0.3675 0.27748 0.0
N412 N 0.62839 0.30949 0.28267 0.0
N413 N 0.5878 0.37837 0.33737 0.0
C414 C 0.60174 0.33365 0.36459 0.0
C415 C 0.6236 0.29621 0.33496 0.0
loop_
_geom_bond_atom_site_label_1
_geom_bond_atom_site_label_2
_geom_bond_distance
_geom_bond_site_symmetry_2
_ccdc_geom_bond_type
H0 C3 0.931 . S
H1 C6 0.928 . S
H2 C8 0.930 . S
C3 H0 0.931 . S
C3 C4 1.413 . S
C3 C5 1.360 . S
C4 C3 1.413 . S
C4 C8 1.429 . S
C5 C3 1.360 . S
C5 C6 1.372 . S
C6 H1 0.928 . S
C6 C5 1.372 . S
C6 C7 1.404 . S
C7 C6 1.404 . S
C7 C8 1.391 . S
C8 H2 0.930 . S
C8 C4 1.429 . S
C8 C7 1.391 . S
H9 C12 0.931 . S
H10 C15 0.928 . S
H11 C17 0.930 . S
C12 H9 0.931 . S
C12 C13 1.413 . S
C12 C14 1.360 . S
C13 C12 1.413 . S
C13 C17 1.429 . S
C14 C12 1.360 . S
C14 C15 1.372 . S
C15 H10 0.928 . S
C15 C14 1.372 . S
C15 C16 1.404 . S
C16 C15 1.404 . S
C16 C17 1.391 . S
C17 H11 0.930 . S
C17 C13 1.429 . S
C17 C16 1.391 . S
H18 C21 0.931 . S
H19 C24 0.928 . S
H20 C26 0.930 . S
C21 H18 0.931 . S
C21 C22 1.413 . S
C21 C23 1.360 . S
C22 C21 1.413 . S
C22 C26 1.429 . S
C23 C21 1.360 . S
C23 C24 1.372 . S
C24 H19 0.928 . S
C24 C23 1.372 . S
C24 C25 1.404 . S
C25 C24 1.404 . S
C25 C26 1.391 . S
C26 H20 0.930 . S
C26 C22 1.429 . S
C26 C25 1.391 . S
H27 C30 0.931 . S
H28 C33 0.928 . S
H29 C35 0.930 . S
C30 H27 0.931 . S
C30 C31 1.413 . S
C30 C32 1.360 . S
C31 C30 1.413 . S
C31 C35 1.429 . S
C32 C30 1.360 . S
C32 C33 1.372 . S
C33 H28 0.928 . S
C33 C32 1.372 . S
C33 C34 1.404 . S
C34 C33 1.404 . S
C34 C35 1.391 . S
C35 H29 0.930 . S
C35 C31 1.429 . S
C35 C34 1.391 . S
H36 C39 0.931 . S
H37 C42 0.928 . S
H38 C44 0.930 . S
C39 H36 0.931 . S
C39 C40 1.413 . S
C39 C41 1.360 . S
C40 C39 1.413 . S
C40 C44 1.429 . S
C41 C39 1.360 . S
C41 C42 1.372 . S
C42 H37 0.928 . S
C42 C41 1.372 . S
C42 C43 1.404 . S
C43 C42 1.404 . S
C43 C44 1.391 . S
C44 H38 0.930 . S
C44 C40 1.429 . S
C44 C43 1.391 . S
H45 C48 0.931 . S
H46 C51 0.928 . S
H47 C53 0.930 . S
C48 H45 0.931 . S
C48 C49 1.413 . S
C48 C50 1.360 . S
C49 C48 1.413 . S
C49 C53 1.429 . S
C50 C48 1.360 . S
C50 C51 1.372 . S
C51 H46 0.928 . S
C51 C50 1.372 . S
C51 C52 1.404 . S
C52 C51 1.404 . S
C52 C53 1.391 . S
C53 H47 0.930 . S
C53 C49 1.429 . S
C53 C52 1.391 . S
H54 C57 0.931 . S
H55 C60 0.928 . S
H56 C62 0.930 . S
C57 H54 0.931 . S
C57 C58 1.413 . S
C57 C59 1.360 . S
C58 C57 1.413 . S
C58 C62 1.429 . S
C59 C57 1.360 . S
C59 C60 1.372 . S
C60 H55 0.928 . S
C60 C59 1.372 . S
C60 C61 1.404 . S
C61 C60 1.404 . S
C61 C62 1.391 . S
C62 H56 0.930 . S
C62 C58 1.429 . S
C62 C61 1.391 . S
H63 C66 0.931 . S
H64 C69 0.928 . S
H65 C71 0.930 . S
C66 H63 0.931 . S
C66 C67 1.413 . S
C66 C68 1.360 . S
C67 C66 1.413 . S
C67 C71 1.429 . S
C68 C66 1.360 . S
C68 C69 1.372 . S
C69 H64 0.928 . S
C69 C68 1.372 . S
C69 C70 1.404 . S
C70 C69 1.404 . S
C70 C71 1.391 . S
C71 H65 0.930 . S
C71 C67 1.429 . S
C71 C70 1.391 . S
Zn72 O78 1.969 1_545 S
Zn72 O79 1.965 1_545 S
Zn72 O83 2.024 . S
Zn72 O88 1.969 . S
Zn73 O80 1.969 . S
Zn73 O86 1.969 1_565 S
Zn73 O87 1.953 1_665 S
Zn73 O89 2.024 . S
C74 O75 1.229 . S
C74 O83 1.058 . S
O75 C74 1.229 . S
C76 O77 1.229 . S
C76 O89 1.058 . S
O77 C76 1.229 . S
O78 Zn72 1.969 1_565 S
O78 C81 1.267 . S
O79 Zn72 1.965 1_565 S
O79 C90 1.260 1_455 S
O80 Zn73 1.969 . S
O80 C90 1.258 . S
C81 O78 1.267 . S
C81 O82 1.228 . S
O82 C81 1.228 . S
O83 Zn72 2.024 . S
O83 C74 1.058 . S
C84 O85 1.228 . S
C84 O86 1.267 . S
O85 C84 1.228 . S
O86 Zn73 1.969 1_545 S
O86 C84 1.267 . S
O87 Zn73 1.953 1_445 S
O87 C91 1.276 . S
O88 Zn72 1.969 . S
O88 C91 1.258 . S
O89 Zn73 2.024 . S
O89 C76 1.058 . S
C90 O79 1.260 1_655 S
C90 O80 1.258 . S
C91 O87 1.276 . S
C91 O88 1.258 . S
Zn92 O98 1.969 . S
Zn92 O99 1.965 1_565 S
Zn92 O103 2.024 . S
Zn92 O108 1.969 1_556 S
Zn93 O100 1.969 . S
Zn93 O106 1.969 . S
Zn93 O107 1.965 1_545 S
Zn93 O109 2.024 . S
C94 O95 1.229 . S
C94 O103 1.058 . S
O95 C94 1.229 . S
C96 O97 1.229 . S
C96 O109 1.058 . S
O97 C96 1.229 . S
O98 Zn92 1.969 . S
O98 C101 1.267 . S
O99 Zn92 1.965 1_545 S
O99 C110 1.260 . S
O100 Zn93 1.969 . S
O100 C110 1.258 1_554 S
C101 O98 1.267 . S
C101 O102 1.228 . S
O102 C101 1.228 . S
O103 Zn92 2.024 . S
O103 C94 1.058 . S
C104 O105 1.228 . S
C104 O106 1.267 . S
O105 C104 1.228 . S
O106 Zn93 1.969 . S
O106 C104 1.267 . S
O107 Zn93 1.965 1_565 S
O107 C111 1.260 . S
O108 Zn92 1.969 1_554 S
O108 C111 1.258 . S
O109 Zn93 2.024 . S
O109 C96 1.058 . S
C110 O99 1.260 . S
C110 O100 1.258 1_556 S
C111 O107 1.260 . S
C111 O108 1.258 . S
Zn112 O118 1.969 . S
Zn112 O119 1.965 . S
Zn112 O123 2.024 . S
Zn112 O128 1.969 . S
Zn113 O120 1.969 . S
Zn113 O126 1.969 . S
Zn113 O127 1.965 . S
Zn113 O129 2.024 . S
C114 O115 1.229 . S
C114 O123 1.058 . S
O115 C114 1.229 . S
C116 O117 1.229 . S
C116 O129 1.058 . S
O117 C116 1.229 . S
O118 Zn112 1.969 . S
O118 C121 1.267 . S
O119 Zn112 1.965 . S
O119 C130 1.260 . S
O120 Zn113 1.969 . S
O120 C130 1.258 . S
C121 O118 1.267 . S
C121 O122 1.228 . S
O122 C121 1.228 . S
O123 Zn112 2.024 . S
O123 C114 1.058 . S
C124 O125 1.228 . S
C124 O126 1.267 . S
O125 C124 1.228 . S
O126 Zn113 1.969 . S
O126 C124 1.267 . S
O127 Zn113 1.965 . S
O127 C131 1.260 . S
O128 Zn112 1.969 . S
O128 C131 1.258 . S
O129 Zn113 2.024 . S
O129 C116 1.058 . S
C130 O119 1.260 . S
C130 O120 1.258 . S
C131 O127 1.260 . S
C131 O128 1.258 . S
Zn132 O138 1.969 . S
Zn132 O139 1.965 1_556 S
Zn132 O143 2.024 . S
Zn132 O148 1.969 1_655 S
Zn133 O140 1.969 . S
Zn133 O146 1.969 . S
Zn133 O147 1.965 1_554 S
Zn133 O149 2.024 . S
C134 O135 1.229 . S
C134 O143 1.058 . S
O135 C134 1.229 . S
C136 O137 1.229 . S
C136 O149 1.058 . S
O137 C136 1.229 . S
O138 Zn132 1.969 . S
O138 C141 1.267 . S
O139 Zn132 1.965 1_554 S
O139 C150 1.260 . S
O140 Zn133 1.969 . S
O140 C150 1.258 1_455 S
C141 O138 1.267 . S
C141 O142 1.228 . S
O142 C141 1.228 . S
O143 Zn132 2.024 . S
O143 C134 1.058 . S
C144 O145 1.228 . S
C144 O146 1.267 . S
O145 C144 1.228 . S
O146 Zn133 1.969 . S
O146 C144 1.267 . S
O147 Zn133 1.965 1_556 S
O147 C151 1.260 . S
O148 Zn132 1.969 1_455 S
O148 C151 1.258 . S
O149 Zn133 2.024 . S
O149 C136 1.058 . S
C150 O139 1.260 . S
C150 O140 1.258 1_655 S
C151 O147 1.260 . S
C151 O148 1.258 . S
C152 C153 1.369 . S
C152 C154 1.419 . S
C152 H156 0.930 . S
C153 C152 1.369 . S
C153 C162 1.429 . S
C154 C152 1.419 . S
C154 C155 1.363 . S
C154 H157 0.929 . S
C155 C154 1.363 . S
C155 C161 1.428 . S
H156 C152 0.930 . S
H157 C154 0.929 . S
S158 N159 1.613 . S
S158 N160 1.610 . S
N159 S158 1.613 . S
N159 C162 1.350 . S
N160 S158 1.610 . S
N160 C161 1.351 . S
C161 C155 1.428 . S
C161 N160 1.351 . S
C161 C162 1.434 . S
C162 C153 1.429 . S
C162 N159 1.350 . S
C162 C161 1.434 . S
C163 C164 1.369 . S
C163 C165 1.419 . S
C163 H167 0.930 . S
C164 C163 1.369 . S
C164 C173 1.429 . S
C165 C163 1.419 . S
C165 C166 1.363 . S
C165 H168 0.929 . S
C166 C165 1.363 . S
C166 C172 1.428 . S
H167 C163 0.930 . S
H168 C165 0.929 . S
S169 N170 1.613 . S
S169 N171 1.610 . S
N170 S169 1.613 . S
N170 C173 1.350 . S
N171 S169 1.610 . S
N171 C172 1.351 . S
C172 C166 1.428 . S
C172 N171 1.351 . S
C172 C173 1.434 . S
C173 C164 1.429 . S
C173 N170 1.350 . S
C173 C172 1.434 . S
C174 C175 1.369 . S
C174 C176 1.419 . S
C174 H178 0.930 . S
C175 C174 1.369 . S
C175 C184 1.429 . S
C176 C174 1.419 . S
C176 C177 1.363 . S
C176 H179 0.929 . S
C177 C176 1.363 . S
C177 C183 1.428 . S
H178 C174 0.930 . S
H179 C176 0.929 . S
S180 N181 1.613 . S
S180 N182 1.610 . S
N181 S180 1.613 . S
N181 C184 1.350 . S
N182 S180 1.610 . S
N182 C183 1.351 . S
C183 C177 1.428 . S
C183 N182 1.351 . S
C183 C184 1.434 . S
C184 C175 1.429 . S
C184 N181 1.350 . S
C184 C183 1.434 . S
C185 C186 1.369 . S
C185 C187 1.419 . S
C185 H189 0.930 . S
C186 C185 1.369 . S
C186 C195 1.429 . S
C187 C185 1.419 . S
C187 C188 1.363 . S
C187 H190 0.929 . S
C188 C187 1.363 . S
C188 C194 1.428 . S
H189 C185 0.930 . S
H190 C187 0.929 . S
S191 N192 1.613 . S
S191 N193 1.610 . S
N192 S191 1.613 . S
N192 C195 1.350 . S
N193 S191 1.610 . S
N193 C194 1.351 . S
C194 C188 1.428 . S
C194 N193 1.351 . S
C194 C195 1.434 . S
C195 C186 1.429 . S
C195 N192 1.350 . S
C195 C194 1.434 . S
C196 C197 1.369 . S
C196 C198 1.419 . S
C196 H200 0.930 . S
C197 C196 1.369 . S
C197 C206 1.429 . S
C198 C196 1.419 . S
C198 C199 1.363 . S
C198 H201 0.929 . S
C199 C198 1.363 . S
C199 C205 1.428 . S
H200 C196 0.930 . S
H201 C198 0.929 . S
S202 N203 1.613 . S
S202 N204 1.610 . S
N203 S202 1.613 . S
N203 C206 1.350 . S
N204 S202 1.610 . S
N204 C205 1.351 . S
C205 C199 1.428 . S
C205 N204 1.351 . S
C205 C206 1.434 . S
C206 C197 1.429 . S
C206 N203 1.350 . S
C206 C205 1.434 . S
C207 C208 1.369 . S
C207 C209 1.419 . S
C207 H211 0.930 . S
C208 C207 1.369 . S
C208 C217 1.429 . S
C209 C207 1.419 . S
C209 C210 1.363 . S
C209 H212 0.929 . S
C210 C209 1.363 . S
C210 C216 1.428 . S
H211 C207 0.930 . S
H212 C209 0.929 . S
S213 N214 1.613 . S
S213 N215 1.610 . S
N214 S213 1.613 . S
N214 C217 1.350 . S
N215 S213 1.610 . S
N215 C216 1.351 . S
C216 C210 1.428 . S
C216 N215 1.351 . S
C216 C217 1.434 . S
C217 C208 1.429 . S
C217 N214 1.350 . S
C217 C216 1.434 . S
C218 C219 1.369 . S
C218 C220 1.419 . S
C218 H222 0.930 . S
C219 C218 1.369 . S
C219 C228 1.429 . S
C220 C218 1.419 . S
C220 C221 1.363 . S
C220 H223 0.929 . S
C221 C220 1.363 . S
C221 C227 1.428 . S
H222 C218 0.930 . S
H223 C220 0.929 . S
S224 N225 1.613 . S
S224 N226 1.610 . S
N225 S224 1.613 . S
N225 C228 1.350 . S
N226 S224 1.610 . S
N226 C227 1.351 . S
C227 C221 1.428 . S
C227 N226 1.351 . S
C227 C228 1.434 . S
C228 C219 1.429 . S
C228 N225 1.350 . S
C228 C227 1.434 . S
C229 C230 1.369 . S
C229 C231 1.419 . S
C229 H233 0.930 . S
C230 C229 1.369 . S
C230 C239 1.429 . S
C231 C229 1.419 . S
C231 C232 1.363 . S
C231 H234 0.929 . S
C232 C231 1.363 . S
C232 C238 1.428 . S
H233 C229 0.930 . S
H234 C231 0.929 . S
S235 N236 1.613 . S
S235 N237 1.610 . S
N236 S235 1.613 . S
N236 C239 1.350 . S
N237 S235 1.610 . S
N237 C238 1.351 . S
C238 C232 1.428 . S
C238 N237 1.351 . S
C238 C239 1.434 . S
C239 C230 1.429 . S
C239 N236 1.350 . S
C239 C238 1.434 . S
C240 C241 1.369 . S
C240 C242 1.419 . S
C240 H244 0.930 . S
C241 C240 1.369 . S
C241 C250 1.429 . S
C242 C240 1.419 . S
C242 C243 1.363 . S
C242 H245 0.929 . S
C243 C242 1.363 . S
C243 C249 1.428 . S
H244 C240 0.930 . S
H245 C242 0.929 . S
S246 N247 1.613 . S
S246 N248 1.610 . S
N247 S246 1.613 . S
N247 C250 1.350 . S
N248 S246 1.610 . S
N248 C249 1.351 . S
C249 C243 1.428 . S
C249 N248 1.351 . S
C249 C250 1.434 . S
C250 C241 1.429 . S
C250 N247 1.350 . S
C250 C249 1.434 . S
C251 C252 1.369 . S
C251 C253 1.419 . S
C251 H255 0.930 . S
C252 C251 1.369 . S
C252 C261 1.429 . S
C253 C251 1.419 . S
C253 C254 1.363 . S
C253 H256 0.929 . S
C254 C253 1.363 . S
C254 C260 1.428 . S
H255 C251 0.930 . S
H256 C253 0.929 . S
S257 N258 1.613 . S
S257 N259 1.610 . S
N258 S257 1.613 . S
N258 C261 1.350 . S
N259 S257 1.610 . S
N259 C260 1.351 . S
C260 C254 1.428 . S
C260 N259 1.351 . S
C260 C261 1.434 . S
C261 C252 1.429 . S
C261 N258 1.350 . S
C261 C260 1.434 . S
C262 C263 1.369 . S
C262 C264 1.419 . S
C262 H266 0.930 . S
C263 C262 1.369 . S
C263 C272 1.429 . S
C264 C262 1.419 . S
C264 C265 1.363 . S
C264 H267 0.929 . S
C265 C264 1.363 . S
C265 C271 1.428 . S
H266 C262 0.930 . S
H267 C264 0.929 . S
S268 N269 1.613 . S
S268 N270 1.610 . S
N269 S268 1.613 . S
N269 C272 1.350 . S
N270 S268 1.610 . S
N270 C271 1.351 . S
C271 C265 1.428 . S
C271 N270 1.351 . S
C271 C272 1.434 . S
C272 C263 1.429 . S
C272 N269 1.350 . S
C272 C271 1.434 . S
C273 C274 1.369 . S
C273 C275 1.419 . S
C273 H277 0.930 . S
C274 C273 1.369 . S
C274 C283 1.429 . S
C275 C273 1.419 . S
C275 C276 1.363 . S
C275 H278 0.929 . S
C276 C275 1.363 . S
C276 C282 1.428 . S
H277 C273 0.930 . S
H278 C275 0.929 . S
S279 N280 1.613 . S
S279 N281 1.610 . S
N280 S279 1.613 . S
N280 C283 1.350 . S
N281 S279 1.610 . S
N281 C282 1.351 . S
C282 C276 1.428 . S
C282 N281 1.351 . S
C282 C283 1.434 . S
C283 C274 1.429 . S
C283 N280 1.350 . S
C283 C282 1.434 . S
C284 C285 1.369 . S
C284 C286 1.419 . S
C284 H288 0.930 . S
C285 C284 1.369 . S
C285 C294 1.429 . S
C286 C284 1.419 . S
C286 C287 1.363 . S
C286 H289 0.929 . S
C287 C286 1.363 . S
C287 C293 1.428 . S
H288 C284 0.930 . S
H289 C286 0.929 . S
S290 N291 1.613 . S
S290 N292 1.610 . S
N291 S290 1.613 . S
N291 C294 1.350 . S
N292 S290 1.610 . S
N292 C293 1.351 . S
C293 C287 1.428 . S
C293 N292 1.351 . S
C293 C294 1.434 . S
C294 C285 1.429 . S
C294 N291 1.350 . S
C294 C293 1.434 . S
C295 C296 1.369 . S
C295 C297 1.419 . S
C295 H299 0.930 . S
C296 C295 1.369 . S
C296 C305 1.429 . S
C297 C295 1.419 . S
C297 C298 1.363 . S
C297 H300 0.929 . S
C298 C297 1.363 . S
C298 C304 1.428 . S
H299 C295 0.930 . S
H300 C297 0.929 . S
S301 N302 1.613 . S
S301 N303 1.610 . S
N302 S301 1.613 . S
N302 C305 1.350 . S
N303 S301 1.610 . S
N303 C304 1.351 . S
C304 C298 1.428 . S
C304 N303 1.351 . S
C304 C305 1.434 . S
C305 C296 1.429 . S
C305 N302 1.350 . S
C305 C304 1.434 . S
C306 C307 1.369 . S
C306 C308 1.419 . S
C306 H310 0.930 . S
C307 C306 1.369 . S
C307 C316 1.429 . S
C308 C306 1.419 . S
C308 C309 1.363 . S
C308 H311 0.929 . S
C309 C308 1.363 . S
C309 C315 1.428 . S
H310 C306 0.930 . S
H311 C308 0.929 . S
S312 N313 1.613 . S
S312 N314 1.610 . S
N313 S312 1.613 . S
N313 C316 1.350 . S
N314 S312 1.610 . S
N314 C315 1.351 . S
C315 C309 1.428 . S
C315 N314 1.351 . S
C315 C316 1.434 . S
C316 C307 1.429 . S
C316 N313 1.350 . S
C316 C315 1.434 . S
C317 C318 1.369 . S
C317 C319 1.419 . S
C317 H321 0.930 . S
C318 C317 1.369 . S
C318 C327 1.429 . S
C319 C317 1.419 . S
C319 C320 1.363 . S
C319 H322 0.929 . S
C320 C319 1.363 . S
C320 C326 1.428 . S
H321 C317 0.930 . S
H322 C319 0.929 . S
S323 N324 1.613 1_655 S
S323 N325 1.610 . S
N324 S323 1.613 1_455 S
N324 C327 1.350 . S
N325 S323 1.610 . S
N325 C326 1.351 1_655 S
C326 C320 1.428 . S
C326 N325 1.351 1_455 S
C326 C327 1.434 . S
C327 C318 1.429 . S
C327 N324 1.350 . S
C327 C326 1.434 . S
C328 C329 1.369 . S
C328 C330 1.419 . S
C328 H332 0.930 . S
C329 C328 1.369 . S
C329 C338 1.429 . S
C330 C328 1.419 . S
C330 C331 1.363 . S
C330 H333 0.929 . S
C331 C330 1.363 . S
C331 C337 1.428 . S
H332 C328 0.930 . S
H333 C330 0.929 . S
S334 N335 1.613 . S
S334 N336 1.610 . S
N335 S334 1.613 . S
N335 C338 1.350 . S
N336 S334 1.610 . S
N336 C337 1.351 . S
C337 C331 1.428 . S
C337 N336 1.351 . S
C337 C338 1.434 . S
C338 C329 1.429 . S
C338 N335 1.350 . S
C338 C337 1.434 . S
C339 C340 1.369 . S
C339 C341 1.419 . S
C339 H343 0.930 . S
C340 C339 1.369 . S
C340 C349 1.429 . S
C341 C339 1.419 . S
C341 C342 1.363 . S
C341 H344 0.929 . S
C342 C341 1.363 . S
C342 C348 1.428 . S
H343 C339 0.930 . S
H344 C341 0.929 . S
S345 N346 1.613 . S
S345 N347 1.610 . S
N346 S345 1.613 . S
N346 C349 1.350 . S
N347 S345 1.610 . S
N347 C348 1.351 . S
C348 C342 1.428 . S
C348 N347 1.351 . S
C348 C349 1.434 . S
C349 C340 1.429 . S
C349 N346 1.350 . S
C349 C348 1.434 . S
C350 C351 1.369 . S
C350 C352 1.419 . S
C350 H354 0.930 . S
C351 C350 1.369 . S
C351 C360 1.429 . S
C352 C350 1.419 . S
C352 C353 1.363 . S
C352 H355 0.929 . S
C353 C352 1.363 . S
C353 C359 1.428 . S
H354 C350 0.930 . S
H355 C352 0.929 . S
S356 N357 1.613 . S
S356 N358 1.610 . S
N357 S356 1.613 . S
N357 C360 1.350 . S
N358 S356 1.610 . S
N358 C359 1.351 . S
C359 C353 1.428 . S
C359 N358 1.351 . S
C359 C360 1.434 . S
C360 C351 1.429 . S
C360 N357 1.350 . S
C360 C359 1.434 . S
C361 C362 1.369 . S
C361 C363 1.419 . S
C361 H365 0.930 . S
C362 C361 1.369 . S
C362 C371 1.429 . S
C363 C361 1.419 . S
C363 C364 1.363 . S
C363 H366 0.929 . S
C364 C363 1.363 . S
C364 C370 1.428 . S
H365 C361 0.930 . S
H366 C363 0.929 . S
S367 N368 1.613 . S
S367 N369 1.610 . S
N368 S367 1.613 . S
N368 C371 1.350 . S
N369 S367 1.610 . S
N369 C370 1.351 . S
C370 C364 1.428 . S
C370 N369 1.351 . S
C370 C371 1.434 . S
C371 C362 1.429 . S
C371 N368 1.350 . S
C371 C370 1.434 . S
C372 C373 1.369 . S
C372 C374 1.419 . S
C372 H376 0.930 . S
C373 C372 1.369 . S
C373 C382 1.429 . S
C374 C372 1.419 . S
C374 C375 1.363 . S
C374 H377 0.929 . S
C375 C374 1.363 . S
C375 C381 1.428 . S
H376 C372 0.930 . S
H377 C374 0.929 . S
S378 N379 1.613 . S
S378 N380 1.610 . S
N379 S378 1.613 . S
N379 C382 1.350 . S
N380 S378 1.610 . S
N380 C381 1.351 . S
C381 C375 1.428 . S
C381 N380 1.351 . S
C381 C382 1.434 . S
C382 C373 1.429 . S
C382 N379 1.350 . S
C382 C381 1.434 . S
C383 C384 1.369 . S
C383 C385 1.419 . S
C383 H387 0.930 . S
C384 C383 1.369 . S
C384 C393 1.429 . S
C385 C383 1.419 . S
C385 C386 1.363 . S
C385 H388 0.929 . S
C386 C385 1.363 . S
C386 C392 1.428 . S
H387 C383 0.930 . S
H388 C385 0.929 . S
S389 N390 1.613 . S
S389 N391 1.610 . S
N390 S389 1.613 . S
N390 C393 1.350 . S
N391 S389 1.610 . S
N391 C392 1.351 . S
C392 C386 1.428 . S
C392 N391 1.351 . S
C392 C393 1.434 . S
C393 C384 1.429 . S
C393 N390 1.350 . S
C393 C392 1.434 . S
C394 C395 1.369 . S
C394 C396 1.419 . S
C394 H398 0.930 . S
C395 C394 1.369 . S
C395 C404 1.429 . S
C396 C394 1.419 . S
C396 C397 1.363 . S
C396 H399 0.929 . S
C397 C396 1.363 . S
C397 C403 1.428 . S
H398 C394 0.930 . S
H399 C396 0.929 . S
S400 N401 1.613 . S
S400 N402 1.610 . S
N401 S400 1.613 . S
N401 C404 1.350 . S
N402 S400 1.610 . S
N402 C403 1.351 . S
C403 C397 1.428 . S
C403 N402 1.351 . S
C403 C404 1.434 . S
C404 C395 1.429 . S
C404 N401 1.350 . S
C404 C403 1.434 . S
C405 C406 1.369 . S
C405 C407 1.419 . S
C405 H409 0.930 . S
C406 C405 1.369 . S
C406 C415 1.429 . S
C407 C405 1.419 . S
C407 C408 1.363 . S
C407 H410 0.929 . S
C408 C407 1.363 . S
C408 C414 1.428 . S
H409 C405 0.930 . S
H410 C407 0.929 . S
S411 N412 1.613 . S
S411 N413 1.610 . S
N412 S411 1.613 . S
N412 C415 1.350 . S
N413 S411 1.610 . S
N413 C414 1.351 . S
C414 C408 1.428 . S
C414 N413 1.351 . S
C414 C415 1.434 . S
C415 C406 1.429 . S
C415 N412 1.350 . S
C415 C414 1.434 . S
C153 C5 1.442 . S
C155 C91 1.417 . S
C164 C14 1.263 . S
C166 C94 1.224 . S
C177 C130 1.801 . S
C175 C25 1.833 . S
C186 C34 1.708 . S
C188 C150 1.677 . S
C199 C104 1.572 . S
C197 C7 1.603 . S
C210 C81 1.455 . S
C208 C13 1.470 . S
C221 C134 1.562 . S
C219 C23 1.689 . S
C232 C114 1.365 . S
C230 C31 1.447 . S
C241 C4 1.358 . S
C243 C144 1.305 . S
C254 C110 1.671 . S
C252 C22 1.697 . S
C263 C32 1.622 . S
C265 C76 1.575 . S
C274 C16 1.324 . S
C276 C124 1.292 . S
C287 C90 1.408 . S
C285 C41 1.429 . S
C296 C50 1.266 . S
C298 C96 1.224 . S
C307 C61 1.832 . S
C309 C131 1.800 . S
C318 C67 1.713 . S
C320 C151 1.683 . S
C329 C40 1.614 . S
C331 C101 1.584 . S
C342 C84 1.436 . S
C340 C52 1.452 . S
C353 C136 1.565 . S
C351 C59 1.695 . S
C364 C116 1.361 . S
C362 C70 1.442 . S
C373 C43 1.358 . S
C375 C141 1.298 . S
C386 C111 1.677 . S
C384 C58 1.703 . S
C397 C74 1.563 . S
C395 C68 1.611 . S
C406 C49 1.330 . S
C408 C121 1.298 . S
