# Generated by pormake.
# Topology csq, (4,8)-cn, num edge types: 1
# Building blocks:
#     Node 0, Type 0, BuildingBlock: AZAVOO_clean_linker_0, # of connection points: 4
#     Node 1, Type 0, BuildingBlock: AZAVOO_clean_linker_0, # of connection points: 4
#     Node 2, Type 0, BuildingBlock: AZAVOO_clean_linker_0, # of connection points: 4
#     Node 3, Type 0, BuildingBlock: AZAVOO_clean_linker_0, # of connection points: 4
#     Node 4, Type 0, BuildingBlock: AZAVOO_clean_linker_0, # of connection points: 4
#     Node 5, Type 0, BuildingBlock: AZAVOO_clean_linker_0, # of connection points: 4
#     Node 6, Type 1, BuildingBlock: TAGTUT_clean_sbu_3, # of connection points: 8
#     Node 7, Type 1, BuildingBlock: TAGTUT_clean_sbu_3, # of connection points: 8
#     Node 8, Type 1, BuildingBlock: TAGTUT_clean_sbu_3, # of connection points: 8
#     Edge 9, Type (0, 1), BuildingBlock: KIFKEQ_clean_linker_1, # of connection points: 2
#     Edge 10, Type (0, 1), BuildingBlock: KIFKEQ_clean_linker_1, # of connection points: 2
#     Edge 11, Type (0, 1), BuildingBlock: KIFKEQ_clean_linker_1, # of connection points: 2
#     Edge 12, Type (0, 1), BuildingBlock: KIFKEQ_clean_linker_1, # of connection points: 2
#     Edge 13, Type (0, 1), BuildingBlock: KIFKEQ_clean_linker_1, # of connection points: 2
#     Edge 14, Type (0, 1), BuildingBlock: KIFKEQ_clean_linker_1, # of connection points: 2
#     Edge 15, Type (0, 1), BuildingBlock: KIFKEQ_clean_linker_1, # of connection points: 2
#     Edge 16, Type (0, 1), BuildingBlock: KIFKEQ_clean_linker_1, # of connection points: 2
#     Edge 17, Type (0, 1), BuildingBlock: KIFKEQ_clean_linker_1, # of connection points: 2
#     Edge 18, Type (0, 1), BuildingBlock: KIFKEQ_clean_linker_1, # of connection points: 2
#     Edge 19, Type (0, 1), BuildingBlock: KIFKEQ_clean_linker_1, # of connection points: 2
#     Edge 20, Type (0, 1), BuildingBlock: KIFKEQ_clean_linker_1, # of connection points: 2
#     Edge 21, Type (0, 1), BuildingBlock: KIFKEQ_clean_linker_1, # of connection points: 2
#     Edge 22, Type (0, 1), BuildingBlock: KIFKEQ_clean_linker_1, # of connection points: 2
#     Edge 23, Type (0, 1), BuildingBlock: KIFKEQ_clean_linker_1, # of connection points: 2
#     Edge 24, Type (0, 1), BuildingBlock: KIFKEQ_clean_linker_1, # of connection points: 2
#     Edge 25, Type (0, 1), BuildingBlock: KIFKEQ_clean_linker_1, # of connection points: 2
#     Edge 26, Type (0, 1), BuildingBlock: KIFKEQ_clean_linker_1, # of connection points: 2
#     Edge 27, Type (0, 1), BuildingBlock: KIFKEQ_clean_linker_1, # of connection points: 2
#     Edge 28, Type (0, 1), BuildingBlock: KIFKEQ_clean_linker_1, # of connection points: 2
#     Edge 29, Type (0, 1), BuildingBlock: KIFKEQ_clean_linker_1, # of connection points: 2
#     Edge 30, Type (0, 1), BuildingBlock: KIFKEQ_clean_linker_1, # of connection points: 2
#     Edge 31, Type (0, 1), BuildingBlock: KIFKEQ_clean_linker_1, # of connection points: 2
#     Edge 32, Type (0, 1), BuildingBlock: KIFKEQ_clean_linker_1, # of connection points: 2
# Relax obj value: 0.135
# Max RMSD: 0.242
# Mean RMSD: 0.202
data_MOF--net-csq--node1-TAGTUT_clean_sbu_3--node2-AZAVOO_clean_linker_0--edge1-KIFKEQ_clean_linker_1
_symmetry_space_group_name_H-M    P1
_symmetry_Int_Tables_number       1
_symmetry_cell_setting            triclinic
loop_
_symmetry_equiv_pos_as_xyz
'x, y, z'
_cell_length_a     58.781733
_cell_length_b     57.96056
_cell_length_c     23.603913
_cell_angle_alpha  92.388088
_cell_angle_beta   91.897077
_cell_angle_gamma 120.18983
loop_
_atom_site_label
_atom_site_type_symbol
_atom_site_fract_x
_atom_site_fract_y
_atom_site_fract_z
_atom_type_partial_charge
H0 H 0.15188 0.45284 0.47932 0.0
H1 H 0.39305 0.48902 0.12772 0.0
H2 H 0.15807 0.41778 0.1872 0.0
H3 H 0.12486 0.42317 0.23568 0.0
H4 H 0.16532 0.50686 0.20177 0.0
H5 H 0.19877 0.50127 0.1542 0.0
H6 H 0.19369 0.42361 0.28491 0.0
H7 H 0.174 0.42821 0.37142 0.0
H8 H 0.20826 0.51283 0.35005 0.0
H9 H 0.22786 0.50791 0.26378 0.0
H10 H 0.24529 0.42149 0.26013 0.0
H11 H 0.28026 0.42559 0.32652 0.0
H12 H 0.31556 0.51154 0.33724 0.0
H13 H 0.28074 0.50731 0.26972 0.0
H14 H 0.26312 0.41854 0.15373 0.0
H15 H 0.30528 0.42003 0.14599 0.0
H16 H 0.34493 0.50616 0.1425 0.0
H17 H 0.30263 0.50434 0.15083 0.0
H18 H 0.24128 0.41814 0.04281 0.0
H19 H 0.27795 0.42592 0.98494 0.0
H20 H 0.30429 0.5104 0.99334 0.0
H21 H 0.26735 0.50223 0.04971 0.0
H22 H 0.17693 0.40609 0.07107 0.0
H23 H 0.14239 0.39312 0.99533 0.0
H24 H 0.17646 0.47601 0.95766 0.0
H25 H 0.2111 0.48873 0.0334 0.0
O26 O 0.16074 0.45165 0.44638 0.0
O27 O 0.17938 0.49516 0.4343 0.0
O28 O 0.35513 0.44375 0.13713 0.0
O29 O 0.37624 0.4879 0.13198 0.0
C30 C 0.20569 0.45869 0.16194 0.0
C31 C 0.22111 0.46198 0.21219 0.0
C32 C 0.24483 0.46192 0.20881 0.0
C33 C 0.25413 0.46018 0.15556 0.0
C34 C 0.23924 0.4577 0.10512 0.0
C35 C 0.21446 0.45588 0.10838 0.0
C36 C 0.18086 0.45914 0.1674 0.0
C37 C 0.15899 0.43694 0.18765 0.0
C38 C 0.14011 0.44015 0.21578 0.0
C39 C 0.14279 0.46562 0.22377 0.0
C40 C 0.16303 0.48712 0.19735 0.0
C41 C 0.1819 0.48387 0.16921 0.0
C42 C 0.21217 0.46543 0.26831 0.0
C43 C 0.19726 0.44318 0.29961 0.0
C44 C 0.18591 0.44585 0.34874 0.0
C45 C 0.1894 0.47086 0.36743 0.0
C46 C 0.20512 0.49328 0.33679 0.0
C47 C 0.21645 0.49057 0.2877 0.0
C48 C 0.26065 0.46411 0.26049 0.0
C49 C 0.26007 0.44111 0.27837 0.0
C50 C 0.28009 0.44348 0.3156 0.0
C51 C 0.30059 0.46888 0.3359 0.0
C52 C 0.29986 0.4918 0.32189 0.0
C53 C 0.27999 0.48942 0.2839 0.0
C54 C 0.2799 0.46132 0.15266 0.0
C55 C 0.28098 0.4377 0.15161 0.0
C56 C 0.30506 0.43862 0.14711 0.0
C57 C 0.32847 0.46323 0.14346 0.0
C58 C 0.32728 0.48689 0.14514 0.0
C59 C 0.30319 0.48593 0.14993 0.0
C60 C 0.25162 0.45961 0.05049 0.0
C61 C 0.25409 0.43806 0.02929 0.0
C62 C 0.2755 0.44269 -0.00255 0.0
C63 C 0.29461 0.46893 0.986 0.0
C64 C 0.29008 0.48995 0.0013 0.0
C65 C 0.26868 0.48527 0.03301 0.0
C66 C 0.19644 0.44829 0.05732 0.0
C67 C 0.17721 0.42133 0.04554 0.0
C68 C 0.15746 0.414 0.00261 0.0
C69 C 0.15667 0.43355 0.97078 0.0
C70 C 0.17676 0.46047 0.98105 0.0
C71 C 0.19648 0.46781 0.02427 0.0
C72 C 0.17631 0.47341 0.41808 0.0
C73 C 0.35402 0.46427 0.13744 0.0
H74 H 0.83413 0.24628 0.45082 0.0
H75 H 0.62989 0.07317 0.92072 0.0
H76 H 0.78519 0.2863 0.16106 0.0
H77 H 0.81818 0.32271 0.22661 0.0
H78 H 0.87257 0.29448 0.19933 0.0
H79 H 0.83924 0.25767 0.13489 0.0
H80 H 0.77527 0.24778 0.24765 0.0
H81 H 0.79714 0.25162 0.34043 0.0
H82 H 0.82574 0.201 0.27309 0.0
H83 H 0.80411 0.19771 0.18022 0.0
H84 H 0.72859 0.19653 0.22417 0.0
H85 H 0.70053 0.15753 0.27654 0.0
H86 H 0.718 0.1083 0.16481 0.0
H87 H 0.74699 0.14776 0.11371 0.0
H88 H 0.69192 0.18199 0.09964 0.0
H89 H 0.65074 0.1433 0.05936 0.0
H90 H 0.69556 0.1174 0.9608 0.0
H91 H 0.73653 0.15597 0.00194 0.0
H92 H 0.71343 0.22795 0.01846 0.0
H93 H 0.6795 0.205 0.94143 0.0
H94 H 0.72764 0.17696 0.86399 0.0
H95 H 0.76189 0.20122 0.93952 0.0
H96 H 0.75832 0.27295 0.01403 0.0
H97 H 0.78095 0.30881 0.94932 0.0
H98 H 0.84901 0.29912 0.96295 0.0
H99 H 0.82594 0.26245 0.02494 0.0
O100 O 0.82544 0.24431 0.41384 0.0
O101 O 0.83914 0.2177 0.37755 0.0
O102 O 0.62369 0.10055 0.99483 0.0
O103 O 0.64583 0.08799 0.93903 0.0
C104 C 0.78771 0.24393 0.11677 0.0
C105 C 0.77622 0.22145 0.15006 0.0
C106 C 0.75341 0.19773 0.12888 0.0
C107 C 0.74198 0.1964 0.0746 0.0
C108 C 0.75351 0.21869 0.04086 0.0
C109 C 0.7767 0.24244 0.06142 0.0
C110 C 0.80989 0.26948 0.14296 0.0
C111 C 0.80451 0.28848 0.16783 0.0
C112 C 0.82319 0.309 0.20573 0.0
C113 C 0.84772 0.31113 0.21833 0.0
C114 C 0.8538 0.29325 0.19017 0.0
C115 C 0.83491 0.2724 0.1531 0.0
C116 C 0.78832 0.22266 0.20718 0.0
C117 C 0.78634 0.23761 0.25302 0.0
C118 C 0.7988 0.23971 0.30599 0.0
C119 C 0.81327 0.22668 0.31415 0.0
C120 C 0.81481 0.21133 0.26823 0.0
C121 C 0.80242 0.20935 0.21522 0.0
C122 C 0.73982 0.17495 0.16525 0.0
C123 C 0.72702 0.17752 0.21206 0.0
C124 C 0.71094 0.15524 0.2417 0.0
C125 C 0.70707 0.12998 0.22435 0.0
C126 C 0.72058 0.12757 0.17862 0.0
C127 C 0.73712 0.15002 0.14965 0.0
C128 C 0.71713 0.17181 0.05339 0.0
C129 C 0.69276 0.16776 0.06981 0.0
C130 C 0.6693 0.14571 0.04661 0.0
C131 C 0.66987 0.12734 0.00658 0.0
C132 C 0.69441 0.13119 0.99131 0.0
C133 C 0.71783 0.15317 0.01476 0.0
C134 C 0.74009 0.21617 0.98468 0.0
C135 C 0.7173 0.21822 0.98295 0.0
C136 C 0.69763 0.20452 0.93949 0.0
C137 C 0.7003 0.18824 0.89746 0.0
C138 C 0.72472 0.1892 0.89542 0.0
C139 C 0.74455 0.20329 0.93852 0.0
C140 C 0.79039 0.26492 0.0241 0.0
C141 C 0.77795 0.27829 0.00244 0.0
C142 C 0.79088 0.29879 0.96574 0.0
C143 C 0.81666 0.30663 0.95141 0.0
C144 C 0.82919 0.29351 0.97375 0.0
C145 C 0.81608 0.27267 0.00928 0.0
C146 C 0.82674 0.22921 0.37031 0.0
C147 C 0.64503 0.10448 0.98009 0.0
H148 H 0.59174 0.86597 0.75901 0.0
H149 H 0.54426 0.60828 0.02097 0.0
H150 H 0.58046 0.83698 0.0522 0.0
H151 H 0.57743 0.87051 -0.00094 0.0
H152 H 0.49251 0.82027 0.98374 0.0
H153 H 0.49604 0.78622 0.0345 0.0
H154 H 0.59495 0.81111 0.95915 0.0
H155 H 0.6017 0.83736 0.87619 0.0
H156 H 0.51722 0.79844 0.84239 0.0
H157 H 0.51081 0.77221 0.92514 0.0
H158 H 0.59987 0.75866 0.98997 0.0
H159 H 0.61295 0.74029 0.91031 0.0
H160 H 0.53641 0.7112 0.82416 0.0
H161 H 0.5237 0.72976 0.90354 0.0
H162 H 0.58422 0.73429 0.11178 0.0
H163 H 0.5896 0.69509 0.11301 0.0
H164 H 0.52159 0.65175 0.99435 0.0
H165 H 0.51622 0.69097 0.9942 0.0
H166 H 0.56596 0.75582 0.20331 0.0
H167 H 0.55613 0.72364 0.2753 0.0
H168 H 0.48505 0.66654 0.1758 0.0
H169 H 0.49413 0.69972 0.1066 0.0
H170 H 0.57475 0.80192 0.18245 0.0
H171 H 0.56986 0.82027 0.27296 0.0
H172 H 0.48659 0.78633 0.22852 0.0
H173 H 0.4916 0.76656 0.13925 0.0
O174 O 0.58867 0.85481 0.7906 0.0
O175 O 0.54508 0.83459 0.77587 0.0
O176 O 0.57711 0.64704 0.08315 0.0
O177 O 0.5425 0.62401 0.02154 0.0
C178 C 0.54138 0.78507 0.05074 0.0
C179 C 0.54832 0.77584 0.00148 0.0
C180 C 0.5519 0.75368 0.00303 0.0
C181 C 0.5467 0.73931 0.05234 0.0
C182 C 0.53863 0.74767 0.10104 0.0
C183 C 0.53709 0.77131 0.10102 0.0
C184 C 0.53851 0.80902 0.04689 0.0
C185 C 0.56111 0.83381 0.03996 0.0
C186 C 0.55931 0.8529 0.00881 0.0
C187 C 0.53475 0.84776 0.9852 0.0
C188 C 0.51184 0.8245 -0.00057 0.0
C189 C 0.51372 0.80526 0.02994 0.0
C190 C 0.55241 0.78993 0.94823 0.0
C191 C 0.57797 0.80809 0.93332 0.0
C192 C 0.58174 0.82313 0.88611 0.0
C193 C 0.55999 0.82016 0.85292 0.0
C194 C 0.5344 0.80133 0.86717 0.0
C195 C 0.53068 0.78629 0.91432 0.0
C196 C 0.56078 0.74522 0.95251 0.0
C197 C 0.58617 0.74871 0.95333 0.0
C198 C 0.59361 0.73832 0.90787 0.0
C199 C 0.57571 0.72432 0.86104 0.0
C200 C 0.55081 0.72228 0.85913 0.0
C201 C 0.5434 0.73261 0.90461 0.0
C202 C 0.54982 0.71542 0.05298 0.0
C203 C 0.57044 0.71625 0.08633 0.0
C204 C 0.57349 0.69387 0.08683 0.0
C205 C 0.55602 0.67027 0.05371 0.0
C206 C 0.5354 0.66958 0.0203 0.0
C207 C 0.53231 0.69195 0.02003 0.0
C208 C 0.53053 0.73041 0.1501 0.0
C209 C 0.54769 0.73683 0.19836 0.0
C210 C 0.54228 0.71804 0.23888 0.0
C211 C 0.51993 0.69211 0.23131 0.0
C212 C 0.50225 0.68625 0.18392 0.0
C213 C 0.50742 0.70524 0.14406 0.0
C214 C 0.53352 0.78287 0.15461 0.0
C215 C 0.55542 0.7983 0.19258 0.0
C216 C 0.55258 0.80894 0.24413 0.0
C217 C 0.52783 0.80494 0.25824 0.0
C218 C 0.50587 0.78948 0.21966 0.0
C219 C 0.50869 0.77842 0.16833 0.0
C220 C 0.56401 0.83686 0.80406 0.0
C221 C 0.55926 0.64648 0.05386 0.0
H222 H 0.79761 0.59513 0.44827 0.0
H223 H 0.95359 0.59381 0.93751 0.0
H224 H 0.74991 0.52194 0.17079 0.0
H225 H 0.7149 0.51942 0.22787 0.0
H226 H 0.71781 0.58539 0.14304 0.0
H227 H 0.75309 0.5878 0.08588 0.0
H228 H 0.80308 0.5467 0.23043 0.0
H229 H 0.80155 0.56101 0.32857 0.0
H230 H 0.79932 0.62949 0.26927 0.0
H231 H 0.80109 0.61506 0.17139 0.0
H232 H 0.83835 0.54092 0.16521 0.0
H233 H 0.88247 0.55303 0.20272 0.0
H234 H 0.90984 0.63617 0.17833 0.0
H235 H 0.86535 0.6238 0.13952 0.0
H236 H 0.83495 0.52394 0.04102 0.0
H237 H 0.87387 0.52548 0.00286 0.0
H238 H 0.90841 0.61047 0.98596 0.0
H239 H 0.86917 0.60852 0.0234 0.0
H240 H 0.78453 0.50441 0.97272 0.0
H241 H 0.80424 0.49375 0.89362 0.0
H242 H 0.84638 0.57741 0.85837 0.0
H243 H 0.82531 0.58722 0.93459 0.0
H244 H 0.73079 0.50642 0.04557 0.0
H245 H 0.69077 0.49237 0.98427 0.0
H246 H 0.7338 0.56201 0.88854 0.0
H247 H 0.7733 0.5762 0.9504 0.0
O248 O 0.79861 0.59004 0.40923 0.0
O249 O 0.79773 0.62504 0.37656 0.0
O250 O 0.91901 0.54878 0.96081 0.0
O251 O 0.93806 0.59267 0.95306 0.0
C252 C 0.77859 0.55953 0.09871 0.0
C253 C 0.80201 0.57062 0.13425 0.0
C254 C 0.825 0.57289 0.11281 0.0
C255 C 0.82506 0.56479 0.05585 0.0
C256 C 0.80213 0.55478 0.01936 0.0
C257 C 0.77872 0.55195 0.04081 0.0
C258 C 0.75402 0.55504 0.12422 0.0
C259 C 0.74262 0.53551 0.16372 0.0
C260 C 0.72285 0.5343 0.19671 0.0
C261 C 0.71392 0.5525 0.19061 0.0
C262 C 0.72429 0.5711 0.14864 0.0
C263 C 0.74432 0.57243 0.1158 0.0
C264 C 0.80241 0.57997 0.19397 0.0
C265 C 0.8026 0.56496 0.23884 0.0
C266 C 0.80156 0.5731 0.2948 0.0
C267 C 0.8003 0.59639 0.30678 0.0
C268 C 0.8003 0.61147 0.26156 0.0
C269 C 0.80136 0.60331 0.20566 0.0
C270 C 0.84881 0.58153 0.15016 0.0
C271 C 0.85362 0.56183 0.16965 0.0
C272 C 0.8788 0.56868 0.19005 0.0
C273 C 0.89935 0.59536 0.19176 0.0
C274 C 0.89415 0.61546 0.17653 0.0
C275 C 0.86885 0.6085 0.15531 0.0
C276 C 0.84924 0.56609 0.03465 0.0
C277 C 0.85096 0.54285 0.02901 0.0
C278 C 0.87321 0.5438 0.00727 0.0
C279 C 0.89424 0.5681 0.99122 0.0
C280 C 0.89257 0.59143 -0.0022 0.0
C281 C 0.87024 0.59041 0.01931 0.0
C282 C 0.80356 0.54662 0.95961 0.0
C283 C 0.79678 0.52008 0.94562 0.0
C284 C 0.80869 0.51419 0.90122 0.0
C285 C 0.82775 0.53481 0.87048 0.0
C286 C 0.83187 0.56082 0.88047 0.0
C287 C 0.81962 0.56656 0.92408 0.0
C288 C 0.75492 0.54233 0.00232 0.0
C289 C 0.7315 0.51858 0.0113 0.0
C290 C 0.70875 0.51059 0.97641 0.0
C291 C 0.70933 0.52603 0.93159 0.0
C292 C 0.73295 0.54952 0.92224 0.0
C293 C 0.7555 0.55766 0.95749 0.0
C294 C 0.79882 0.60479 0.36618 0.0
C295 C 0.91779 0.56916 0.96751 0.0
H296 H 0.31141 0.86535 0.43722 0.0
H297 H 0.07151 0.62443 0.0349 0.0
H298 H 0.26277 0.85823 0.13295 0.0
H299 H 0.30552 0.89011 0.18106 0.0
H300 H 0.32832 0.82986 0.16996 0.0
H301 H 0.28627 0.79892 0.11981 0.0
H302 H 0.23908 0.83303 0.23551 0.0
H303 H 0.26726 0.85219 0.32313 0.0
H304 H 0.28745 0.79004 0.31089 0.0
H305 H 0.25925 0.77116 0.22307 0.0
H306 H 0.18841 0.78054 0.25538 0.0
H307 H 0.17397 0.75605 0.34154 0.0
H308 H 0.18814 0.69517 0.26812 0.0
H309 H 0.2031 0.72011 0.183 0.0
H310 H 0.14659 0.7493 0.14893 0.0
H311 H 0.10333 0.70857 0.13435 0.0
H312 H 0.13844 0.67003 0.0403 0.0
H313 H 0.18161 0.71066 0.05612 0.0
H314 H 0.15689 0.76766 0.02373 0.0
H315 H 0.12689 0.73627 0.9468 0.0
H316 H 0.18825 0.72135 0.89427 0.0
H317 H 0.21783 0.75207 0.97202 0.0
H318 H 0.21849 0.83267 0.02356 0.0
H319 H 0.24174 0.864 0.95091 0.0
H320 H 0.28923 0.82725 0.92568 0.0
H321 H 0.26593 0.79612 -0.00169 0.0
O322 O 0.29988 0.85703 0.40331 0.0
O323 O 0.31029 0.82516 0.39421 0.0
O324 O 0.07163 0.66051 0.09475 0.0
O325 O 0.08849 0.6405 0.04282 0.0
C326 C 0.24347 0.80448 0.11825 0.0
C327 C 0.23208 0.79085 0.16711 0.0
C328 C 0.20702 0.76759 0.16236 0.0
C329 C 0.19303 0.75828 0.10881 0.0
C330 C 0.20386 0.77283 0.06021 0.0
C331 C 0.22912 0.79603 0.06518 0.0
C332 C 0.2714 0.82624 0.12373 0.0
C333 C 0.27763 0.85253 0.1381 0.0
C334 C 0.30191 0.87053 0.16643 0.0
C335 C 0.32 0.86223 0.18123 0.0
C336 C 0.31498 0.83703 0.15952 0.0
C337 C 0.29089 0.81923 0.13061 0.0
C338 C 0.24714 0.80072 0.22313 0.0
C339 C 0.2494 0.82344 0.2522 0.0
C340 C 0.26557 0.83437 0.30212 0.0
C341 C 0.27971 0.82272 0.32389 0.0
C342 C 0.27688 0.79954 0.29521 0.0
C343 C 0.26068 0.78862 0.24528 0.0
C344 C 0.19659 0.75196 0.21291 0.0
C345 C 0.18828 0.76186 0.25801 0.0
C346 C 0.18006 0.74786 0.30708 0.0
C347 C 0.18009 0.72375 0.31184 0.0
C348 C 0.18833 0.7139 0.26627 0.0
C349 C 0.19653 0.7279 0.2173 0.0
C350 C 0.16718 0.73296 0.10334 0.0
C351 C 0.14492 0.73193 0.12578 0.0
C352 C 0.12023 0.70868 0.11716 0.0
C353 C 0.1174 0.68608 0.08586 0.0
C354 C 0.13989 0.68707 0.06444 0.0
C355 C 0.16458 0.71026 0.07339 0.0
C356 C 0.18946 0.76195 0.00382 0.0
C357 C 0.16417 0.75841 0.99423 0.0
C358 C 0.14703 0.74041 0.95055 0.0
C359 C 0.15519 0.72618 0.91516 0.0
C360 C 0.18151 0.73217 0.92074 0.0
C361 C 0.1985 0.74985 0.96499 0.0
C362 C 0.24049 0.81211 0.01582 0.0
C363 C 0.23355 0.83109 0.0014 0.0
C364 C 0.24692 0.84902 0.96025 0.0
C365 C 0.2673 0.84807 0.93265 0.0
C366 C 0.27339 0.82823 0.94563 0.0
C367 C 0.26018 0.8105 0.98715 0.0
C368 C 0.29754 0.83492 0.37592 0.0
C369 C 0.09111 0.66164 0.07497 0.0
H370 H 0.48663 0.30192 0.83224 0.0
H371 H 0.41082 0.04652 0.17909 0.0
H372 H 0.49879 0.28515 0.14141 0.0
H373 H 0.50606 0.32123 0.08289 0.0
H374 H 0.42232 0.2929 0.07431 0.0
H375 H 0.41525 0.25536 0.12914 0.0
H376 H 0.4959 0.25296 0.03702 0.0
H377 H 0.49973 0.27519 0.94891 0.0
H378 H 0.41593 0.24607 0.94192 0.0
H379 H 0.4124 0.22389 0.02991 0.0
H380 H 0.49569 0.19847 0.08568 0.0
H381 H 0.50793 0.1833 0.00076 0.0
H382 H 0.43475 0.1666 0.91318 0.0
H383 H 0.42161 0.17927 0.00072 0.0
H384 H 0.48816 0.17925 0.18569 0.0
H385 H 0.48276 0.13527 0.20036 0.0
H386 H 0.4006 0.09792 0.14196 0.0
H387 H 0.40624 0.14209 0.12816 0.0
H388 H 0.49184 0.21511 0.27253 0.0
H389 H 0.49354 0.18557 0.34065 0.0
H390 H 0.40878 0.13556 0.32054 0.0
H391 H 0.40728 0.16572 0.2527 0.0
H392 H 0.489 0.2541 0.28526 0.0
H393 H 0.48918 0.28005 0.36901 0.0
H394 H 0.41336 0.26823 0.30903 0.0
H395 H 0.41218 0.23964 0.22911 0.0
O396 O 0.48455 0.29219 0.86583 0.0
O397 O 0.44114 0.2754 0.86236 0.0
O398 O 0.45597 0.08435 0.20243 0.0
O399 O 0.41368 0.06413 0.17223 0.0
C400 C 0.45185 0.23996 0.1458 0.0
C401 C 0.452 0.22556 0.09607 0.0
C402 C 0.4519 0.20137 0.09996 0.0
C403 C 0.44999 0.19053 0.15303 0.0
C404 C 0.44964 0.20463 0.20314 0.0
C405 C 0.45067 0.22953 0.1996 0.0
C406 C 0.45649 0.26741 0.13936 0.0
C407 C 0.48215 0.28749 0.12936 0.0
C408 C 0.48621 0.30815 0.09501 0.0
C409 C 0.46468 0.30972 0.07152 0.0
C410 C 0.43935 0.29183 0.08923 0.0
C411 C 0.43527 0.27072 0.12238 0.0
C412 C 0.45391 0.23696 0.03985 0.0
C413 C 0.47837 0.25117 0.01596 0.0
C414 C 0.48051 0.26394 0.96582 0.0
C415 C 0.45816 0.26255 0.93857 0.0
C416 C 0.43354 0.24759 0.96187 0.0
C417 C 0.43145 0.23487 0.01202 0.0
C418 C 0.45761 0.18957 0.04956 0.0
C419 C 0.48199 0.19077 0.04859 0.0
C420 C 0.48924 0.18276 -0.00062 0.0
C421 C 0.47256 0.1741 0.9495 0.0
C422 C 0.44802 0.17284 0.9508 0.0
C423 C 0.44045 0.18014 0.0007 0.0
C424 C 0.44755 0.16382 0.15613 0.0
C425 C 0.46907 0.16153 0.17574 0.0
C426 C 0.46591 0.13639 0.18415 0.0
C427 C 0.44119 0.11307 0.17263 0.0
C428 C 0.41988 0.11546 0.15142 0.0
C429 C 0.42306 0.14064 0.14319 0.0
C430 C 0.44938 0.19303 0.25839 0.0
C431 C 0.47347 0.19882 0.28551 0.0
C432 C 0.47442 0.18159 0.32398 0.0
C433 C 0.45132 0.15798 0.33555 0.0
C434 C 0.42697 0.15342 0.31202 0.0
C435 C 0.42601 0.17087 0.27397 0.0
C436 C 0.45043 0.24464 0.25144 0.0
C437 C 0.47201 0.25628 0.29138 0.0
C438 C 0.47227 0.27165 0.33879 0.0
C439 C 0.45139 0.27663 0.34606 0.0
C440 C 0.42962 0.26456 0.30598 0.0
C441 C 0.42905 0.24851 0.25956 0.0
C442 C 0.46065 0.277 0.88657 0.0
C443 C 0.43752 0.08638 0.18329 0.0
C444 C 0.04015 0.47926 0.54508 0.0
C445 C 0.0165 0.43897 0.74329 0.0
C446 C 0.94476 0.44169 0.71266 0.0
Mg447 Mg 0.02642 0.51897 0.48534 0.0
Mg448 Mg 0.01101 0.55823 0.5579 0.0
O449 O 0.00232 0.52295 0.53905 0.0
Mg450 Mg 0.00556 0.5028 0.60266 0.0
O451 O 0.00972 0.48101 0.66055 0.0
Mg452 Mg 0.98949 0.44446 0.61985 0.0
Mg453 Mg 0.00243 0.48386 0.73604 0.0
C454 C 0.96869 0.52737 0.64834 0.0
O455 O 0.03449 0.54097 0.66064 0.0
O456 O 0.01354 0.53992 0.4205 0.0
O457 O 0.02583 0.52699 0.7495 0.0
O458 O 0.0624 0.56046 0.51128 0.0
O459 O 0.00477 0.56736 0.47421 0.0
O460 O 0.05281 0.58327 0.5745 0.0
O461 O 0.9761 0.46375 0.55077 0.0
O462 O 0.99072 0.47708 0.46441 0.0
C463 C 0.97513 0.45917 0.49664 0.0
C464 C 0.00723 0.55814 0.42599 0.0
O465 O 0.97319 0.50777 0.64648 0.0
O466 O 0.0074 0.43067 0.6916 0.0
O467 O 0.98183 0.54852 0.62117 0.0
O468 O 0.95223 0.43231 0.67175 0.0
O469 O 0.01642 0.45894 0.76849 0.0
O470 O 0.96075 0.46372 0.74033 0.0
O471 O 0.03721 0.49949 0.55503 0.0
O472 O 0.02576 0.45722 0.56803 0.0
C473 C 0.06941 0.58115 0.54466 0.0
C474 C 0.0374 0.54553 0.71513 0.0
C475 C 0.48747 0.02023 0.49941 0.0
C476 C 0.56304 -0.00137 0.44489 0.0
C477 C 0.51656 0.92789 0.53163 0.0
Mg478 Mg 0.4516 0.00132 0.60867 0.0
Mg479 Mg 0.47692 0.99616 0.72887 0.0
O480 O 0.46769 0.9834 0.65267 0.0
Mg481 Mg 0.49674 0.98902 0.60273 0.0
O482 O 0.5237 0.99432 0.54752 0.0
Mg483 Mg 0.50012 0.97177 0.47959 0.0
Mg484 Mg 0.5496 0.98631 0.57106 0.0
C485 C 0.5058 0.96225 0.71631 0.0
O486 O 0.53129 0.02315 0.66024 0.0
O487 O 0.41809 0.98381 0.67213 0.0
O488 O 0.56352 0.01333 0.6472 0.0
O489 O 0.4736 0.04081 0.6629 0.0
O490 O 0.43736 0.98138 0.754 0.0
O491 O 0.49774 0.03886 0.7348 0.0
O492 O 0.46568 0.95656 0.5392 0.0
O493 O 0.43156 0.96275 0.5515 0.0
C494 C 0.44179 0.95036 0.52684 0.0
C495 C 0.41707 0.97788 0.7243 0.0
O496 O 0.50454 0.96131 0.66133 0.0
O497 O 0.53861 0.9899 0.43013 0.0
O498 O 0.49821 0.97573 0.74673 0.0
O499 O 0.50512 0.93595 0.49756 0.0
O500 O 0.57109 -0.00111 0.49618 0.0
O501 O 0.53353 0.94368 0.57055 0.0
O502 O 0.48733 0.01644 0.55251 0.0
O503 O 0.49355 0.00717 0.46383 0.0
C504 C 0.49074 0.05213 0.70444 0.0
C505 C 0.55469 0.0272 0.67196 0.0
C506 C 0.52959 0.55576 0.68804 0.0
C507 C 0.45255 0.48517 0.80236 0.0
C508 C 0.48422 0.43434 0.76314 0.0
Mg509 Mg 0.55349 0.5472 0.57478 0.0
Mg510 Mg 0.51463 0.49837 0.48238 0.0
O511 O 0.53085 0.50752 0.55645 0.0
Mg512 Mg 0.50708 0.49748 0.62174 0.0
O513 O 0.48536 0.48988 0.6891 0.0
Mg514 Mg 0.51216 0.50191 0.75462 0.0
Mg515 Mg 0.45592 0.45556 0.69219 0.0
C516 C 0.48451 0.4426 0.54177 0.0
O517 O 0.47044 0.49033 0.56835 0.0
O518 O 0.57932 0.54649 0.50171 0.0
O519 O 0.43854 0.45429 0.60884 0.0
O520 O 0.53167 0.55917 0.51127 0.0
O521 O 0.551 0.51204 0.44079 0.0
O522 O 0.50017 0.52481 0.45781 0.0
O523 O 0.54034 0.50265 0.6839 0.0
O524 O 0.57409 0.53542 0.64226 0.0
C525 C 0.56512 0.51889 0.68143 0.0
C526 C 0.57423 0.5316 0.45548 0.0
O527 O 0.49207 0.45362 0.59262 0.0
O528 O 0.47794 0.49913 0.81049 0.0
O529 O 0.48877 0.456 0.49716 0.0
O530 O 0.50018 0.45914 0.77606 0.0
O531 O 0.44089 0.46778 0.76055 0.0
O532 O 0.46585 0.42687 0.72419 0.0
O533 O 0.5238 0.54184 0.64114 0.0
O534 O 0.52547 0.54504 0.73559 0.0
C535 C 0.51269 0.54971 0.47336 0.0
C536 C 0.44639 0.47122 0.57016 0.0
H537 H 0.09003 0.43418 0.23969 0.0
H538 H 0.1599 0.50722 0.30407 0.0
H539 H 0.06568 0.43904 0.31663 0.0
H540 H 0.13551 0.51212 0.38066 0.0
H541 H 0.07437 0.52142 0.48451 0.0
H542 H 0.0985 0.51977 0.40333 0.0
H543 H 0.06742 0.43538 0.42018 0.0
H544 H 0.04324 0.43684 0.50023 0.0
C545 C 0.10012 0.45139 0.26991 0.0
C546 C 0.12689 0.4703 0.26559 0.0
C547 C 0.08621 0.45414 0.31408 0.0
C548 C 0.09874 0.47586 0.35502 0.0
C549 C 0.12522 0.49532 0.34949 0.0
C550 C 0.13915 0.49254 0.30538 0.0
C551 C 0.07275 0.50255 0.47097 0.0
C552 C 0.05671 0.47926 0.49886 0.0
C553 C 0.08662 0.50163 0.42454 0.0
C554 C 0.08457 0.47736 0.40484 0.0
C555 C 0.06899 0.45427 0.4335 0.0
C556 C 0.05531 0.45521 0.4799 0.0
H557 H 0.70384 0.12288 0.33739 0.0
H558 H 0.6663 0.08389 0.17349 0.0
H559 H 0.66875 0.08598 0.38399 0.0
H560 H 0.63099 0.0467 0.22023 0.0
H561 H 0.55843 0.01571 0.34051 0.0
H562 H 0.59449 0.04347 0.28133 0.0
H563 H 0.64949 0.03698 0.39595 0.0
H564 H 0.61378 0.00949 0.45503 0.0
C565 C 0.68823 0.10616 0.31146 0.0
C566 C 0.68768 0.10613 0.25204 0.0
C567 C 0.66825 0.08498 0.338 0.0
C568 C 0.64718 0.06348 0.30562 0.0
C569 C 0.64698 0.06309 0.24607 0.0
C570 C 0.66722 0.08418 0.21945 0.0
C571 C 0.57811 0.01969 0.35231 0.0
C572 C 0.58333 0.01086 0.40305 0.0
C573 C 0.59872 0.03551 0.31836 0.0
C574 C 0.6248 0.04269 0.3347 0.0
C575 C 0.62964 0.03214 0.38301 0.0
C576 C 0.60914 0.01639 0.41677 0.0
H577 H 0.47325 0.65 0.26486 0.0
H578 H 0.55793 0.68513 0.28526 0.0
H579 H 0.46769 0.61424 0.32474 0.0
H580 H 0.55216 0.65032 0.34688 0.0
H581 H 0.53419 0.60292 0.50189 0.0
H582 H 0.53329 0.63654 0.44545 0.0
H583 H 0.4793 0.57495 0.32065 0.0
H584 H 0.48035 0.54077 0.37713 0.0
C585 C 0.49069 0.65024 0.28193 0.0
C586 C 0.5161 0.67082 0.27023 0.0
C587 C 0.48743 0.62974 0.31639 0.0
C588 C 0.50948 0.62962 0.34077 0.0
C589 C 0.53478 0.65014 0.3294 0.0
C590 C 0.53806 0.67029 0.29434 0.0
C591 C 0.5218 0.59629 0.46281 0.0
C592 C 0.50768 0.56905 0.44366 0.0
C593 C 0.52138 0.61568 0.43041 0.0
C594 C 0.50661 0.60842 0.37824 0.0
C595 C 0.49093 0.58108 0.36073 0.0
C596 C 0.49153 0.56154 0.39307 0.0
H597 H 0.92905 0.62461 0.28581 0.0
H598 H 0.92862 0.57852 0.13721 0.0
H599 H 0.96575 0.62212 0.32926 0.0
H600 H 0.96618 0.5767 0.17941 0.0
H601 H 0.98029 0.53161 0.32634 0.0
H602 H 0.96378 0.54915 0.25384 0.0
H603 H 0.0087 0.62824 0.33894 0.0
H604 H 0.024 0.61018 0.4128 0.0
C605 C 0.93775 0.61506 0.26153 0.0
C606 C 0.92604 0.6014 0.209 0.0
C607 C 0.95886 0.61366 0.28613 0.0
C608 C 0.96855 0.59867 0.25819 0.0
C609 C 0.95875 0.58783 0.20248 0.0
C610 C 0.93744 0.589 0.17822 0.0
C611 C 0.98713 0.55283 0.32843 0.0
C612 C 0.00269 0.56945 0.3755 0.0
C613 C 0.9779 0.56303 0.28673 0.0
C614 C 0.98451 0.59007 0.29131 0.0
C615 C 0.0027 0.60722 0.33506 0.0
C616 C 0.01144 0.59691 0.37724 0.0
H617 H 0.36998 0.86903 0.1914 0.0
H618 H 0.31711 0.88825 0.27706 0.0
H619 H 0.40061 0.88658 0.27558 0.0
H620 H 0.34812 0.90702 0.35887 0.0
H621 H 0.39026 0.9126 0.52009 0.0
H622 H 0.36236 0.89013 0.43398 0.0
H623 H 0.43081 0.92685 0.33431 0.0
H624 H 0.45879 0.94841 0.42113 0.0
C625 C 0.36506 0.87736 0.22769 0.0
C626 C 0.34102 0.87718 0.22725 0.0
C627 C 0.38267 0.88751 0.27581 0.0
C628 C 0.37658 0.8977 0.32441 0.0
C629 C 0.35315 0.89867 0.32279 0.0
C630 C 0.33557 0.88843 0.27511 0.0
C631 C 0.39938 0.91519 0.47989 0.0
C632 C 0.42663 0.93216 0.47719 0.0
C633 C 0.38341 0.90265 0.43047 0.0
C634 C 0.39426 0.90733 0.37706 0.0
C635 C 0.42181 0.92282 0.37474 0.0
C636 C 0.4379 0.93507 0.42453 0.0
H637 H 0.41125 0.2766 0.40397 0.0
H638 H 0.49598 0.32147 0.39248 0.0
H639 H 0.41431 0.31278 0.46682 0.0
H640 H 0.4988 0.35614 0.45815 0.0
H641 H 0.4977 0.41033 0.59725 0.0
H642 H 0.48601 0.36472 0.56475 0.0
H643 H 0.43292 0.3639 0.43289 0.0
H644 H 0.44516 0.40963 0.46407 0.0
C645 C 0.43052 0.29379 0.41534 0.0
C646 C 0.45331 0.29608 0.39211 0.0
C647 C 0.43222 0.31428 0.45196 0.0
C648 C 0.45678 0.337 0.46744 0.0
C649 C 0.47967 0.33852 0.4476 0.0
C650 C 0.47797 0.31847 0.40993 0.0
C651 C 0.48289 0.40002 0.56256 0.0
C652 C 0.47253 0.41345 0.53258 0.0
C653 C 0.47627 0.37404 0.54402 0.0
C654 C 0.45866 0.36099 0.49638 0.0
C655 C 0.44638 0.3735 0.47002 0.0
C656 C 0.45348 0.39966 0.4876 0.0
H657 H 0.50156 0.83252 0.889 0.0
H658 H 0.56532 0.90242 0.98149 0.0
H659 H 0.49866 0.86071 0.81901 0.0
H660 H 0.56371 0.93032 0.90935 0.0
H661 H 0.52689 0.9739 0.82423 0.0
H662 H 0.53615 0.94669 0.88434 0.0
H663 H 0.51743 0.8892 0.74228 0.0
H664 H 0.50694 0.9165 0.6816 0.0
C665 C 0.51495 0.85391 0.89463 0.0
C666 C 0.53328 0.86517 0.94194 0.0
C667 C 0.51366 0.87005 0.85359 0.0
C668 C 0.53082 0.89792 0.8584 0.0
C669 C 0.54979 0.90903 0.9046 0.0
C670 C 0.55088 0.89294 0.94592 0.0
C671 C 0.52491 0.95557 0.80532 0.0
C672 C 0.51574 0.94719 0.74818 0.0
C673 C 0.53054 0.94 0.83994 0.0
C674 C 0.52748 0.91556 0.81859 0.0
C675 C 0.51963 0.90772 0.76047 0.0
C676 C 0.51389 0.92346 0.72547 0.0
H677 H 0.66022 0.51183 0.96553 0.0
H678 H 0.70454 0.52376 0.81646 0.0
H679 H 0.62288 0.50707 0.90622 0.0
H680 H 0.66736 0.5188 0.75737 0.0
H681 H 0.61804 0.55292 0.69199 0.0
H682 H 0.65043 0.55024 0.75298 0.0
H683 H 0.58859 0.4803 0.82452 0.0
H684 H 0.55564 0.48298 0.76303 0.0
C685 C 0.66169 0.51276 0.91996 0.0
C686 C 0.68532 0.51857 0.89549 0.0
C687 C 0.64037 0.51004 0.88612 0.0
C688 C 0.64248 0.51309 0.82746 0.0
C689 C 0.66546 0.51699 0.8027 0.0
C690 C 0.68669 0.51978 0.8364 0.0
C691 C 0.61118 0.53692 0.72063 0.0
C692 C 0.58423 0.51799 0.72218 0.0
C693 C 0.62981 0.53531 0.75536 0.0
C694 C 0.62205 0.51474 0.79259 0.0
C695 C 0.59507 0.49628 0.79591 0.0
C696 C 0.57626 0.49784 0.76079 0.0
H697 H 0.10934 0.68549 0.94814 0.0
H698 H 0.1574 0.71211 0.80386 0.0
H699 H 0.08016 0.64248 0.89644 0.0
H700 H 0.12777 0.6689 0.75158 0.0
H701 H 0.04735 0.59276 0.67212 0.0
H702 H 0.07578 0.63818 0.71526 0.0
H703 H 0.09171 0.60562 0.86244 0.0
H704 H 0.06484 0.56051 0.81774 0.0
C705 C 0.11325 0.68239 0.90479 0.0
C706 C 0.13554 0.70215 0.87981 0.0
C707 C 0.0967 0.65771 0.87547 0.0
C708 C 0.10188 0.65243 0.82029 0.0
C709 C 0.12338 0.67261 0.79407 0.0
C710 C 0.14028 0.69721 0.82388 0.0
C711 C 0.05788 0.5954 0.71233 0.0
C712 C 0.05464 0.57312 0.74039 0.0
C713 C 0.07371 0.62132 0.73754 0.0
C714 C 0.08587 0.62529 0.79206 0.0
C715 C 0.0824 0.60304 0.82044 0.0
C716 C 0.06704 0.57725 0.79481 0.0
H717 H 0.44043 0.13374 0.87036 0.0
H718 H 0.52229 0.19387 0.91058 0.0
H719 H 0.45346 0.11467 0.7939 0.0
H720 H 0.53529 0.17317 0.83581 0.0
H721 H 0.47716 0.08523 0.65332 0.0
H722 H 0.47938 0.12484 0.69865 0.0
H723 H 0.52647 0.12258 0.84011 0.0
H724 H 0.52406 0.08268 0.79554 0.0
C725 C 0.46113 0.14343 0.86212 0.0
C726 C 0.48029 0.16513 0.89751 0.0
C727 C 0.46859 0.13244 0.81813 0.0
C728 C 0.49536 0.14254 0.80921 0.0
C729 C 0.51453 0.16513 0.8421 0.0
C730 C 0.50703 0.17662 0.88535 0.0
C731 C 0.48875 0.09363 0.69321 0.0
C732 C 0.49952 0.08022 0.7221 0.0
C733 C 0.49013 0.11641 0.71881 0.0
C734 C 0.50263 0.12627 0.7731 0.0
C735 C 0.51669 0.11524 0.79814 0.0
C736 C 0.51509 0.09225 0.77283 0.0
H737 H 0.3236 0.50588 0.91022 0.0
H738 H 0.32424 0.44588 0.01184 0.0
H739 H 0.36601 0.51627 0.87557 0.0
H740 H 0.36597 0.45519 0.97457 0.0
H741 H 0.44901 0.48604 0.91898 0.0
H742 H 0.41299 0.48601 0.96963 0.0
H743 H 0.38011 0.49478 0.81089 0.0
H744 H 0.4159 0.49546 0.76188 0.0
C745 C 0.33274 0.49486 0.92517 0.0
C746 C 0.32019 0.47473 0.96317 0.0
C747 C 0.35705 0.50071 0.90501 0.0
C748 C 0.36942 0.48643 0.92182 0.0
C749 C 0.35721 0.46677 0.96097 0.0
C750 C 0.33294 0.46103 0.98145 0.0
C751 C 0.43447 0.48882 0.89572 0.0
C752 C 0.43519 0.49083 0.83671 0.0
C753 C 0.41367 0.48844 0.92437 0.0
C754 C 0.39348 0.49025 0.89433 0.0
C755 C 0.39534 0.49375 0.83581 0.0
C756 C 0.41585 0.49402 0.80754 0.0
H757 H 0.80116 0.31074 0.84365 0.0
H758 H 0.86415 0.35161 0.97406 0.0
H759 H 0.82691 0.3454 0.77839 0.0
H760 H 0.88958 0.38628 0.90972 0.0
H761 H 0.92304 0.45436 0.80073 0.0
H762 H 0.88732 0.42295 0.85556 0.0
H763 H 0.87168 0.3585 0.73321 0.0
H764 H 0.90764 0.38978 0.67823 0.0
C765 C 0.82029 0.3274 0.85851 0.0
C766 C 0.8308 0.3286 0.91363 0.0
C767 C 0.835 0.3471 0.82128 0.0
C768 C 0.86012 0.36858 0.83918 0.0
C769 C 0.87011 0.37016 0.89504 0.0
C770 C 0.85569 0.35027 0.93171 0.0
C771 C 0.91162 0.43363 0.78454 0.0
C772 C 0.91868 0.4245 0.73573 0.0
C773 C 0.89119 0.41566 0.81613 0.0
C774 C 0.87713 0.38826 0.79918 0.0
C775 C 0.88225 0.37954 0.74726 0.0
C776 C 0.9029 0.39749 0.71581 0.0
H777 H 0.846 0.49971 0.88315 0.0
H778 H 0.8504 0.55968 0.77388 0.0
H779 H 0.87718 0.49454 0.82732 0.0
H780 H 0.88381 0.55692 0.72255 0.0
H781 H 0.93122 0.53746 0.60906 0.0
H782 H 0.89468 0.53527 0.65815 0.0
H783 H 0.92027 0.51186 0.80834 0.0
H784 H 0.95551 0.51182 0.75632 0.0
C785 C 0.85337 0.51168 0.84694 0.0
C786 C 0.84535 0.53007 0.83322 0.0
C787 C 0.87189 0.50915 0.81549 0.0
C788 C 0.88349 0.52537 0.7701 0.0
C789 C 0.8752 0.54354 0.75616 0.0
C790 C 0.8562 0.54555 0.78658 0.0
C791 C 0.92882 0.53165 0.6525 0.0
C792 C 0.94624 0.52503 0.67914 0.0
C793 C 0.90798 0.53066 0.68112 0.0
C794 C 0.90448 0.52396 0.73814 0.0
C795 C 0.92184 0.51683 0.76443 0.0
C796 C 0.94226 0.51698 0.7349 0.0
H797 H 0.28837 0.902 0.95 0.0
H798 H 0.28396 0.84154 0.82946 0.0
H799 H 0.32073 0.93692 0.89418 0.0
H800 H 0.31658 0.87647 0.774 0.0
H801 H 0.36817 0.94582 0.67084 0.0
H802 H 0.32735 0.91629 0.71587 0.0
H803 H 0.3675 0.94886 0.88115 0.0
H804 H 0.40807 0.97811 0.83648 0.0
C805 C 0.29384 0.89618 0.91086 0.0
C806 C 0.28379 0.86904 0.89427 0.0
C807 C 0.31248 0.91617 0.87914 0.0
C808 C 0.32127 0.90942 0.82993 0.0
C809 C 0.31002 0.8823 0.81147 0.0
C810 C 0.29156 0.8623 0.84349 0.0
C811 C 0.36804 0.94713 0.71673 0.0
C812 C 0.39134 0.9641 0.7502 0.0
C813 C 0.34475 0.93011 0.74245 0.0
C814 C 0.3443 0.93017 0.80198 0.0
C815 C 0.36715 0.9485 0.83519 0.0
C816 C 0.39045 0.96515 0.8096 0.0
H817 H 0.42983 0.30204 0.98139 0.0
H818 H 0.50832 0.35855 0.05319 0.0
H819 H 0.43601 0.33082 0.90511 0.0
H820 H 0.51569 0.38547 0.97325 0.0
H821 H 0.51218 0.44558 0.86443 0.0
H822 H 0.50765 0.4156 0.93598 0.0
H823 H 0.45368 0.34809 0.82154 0.0
H824 H 0.4567 0.37894 0.75062 0.0
C825 C 0.44842 0.32062 0.9814 0.0
C826 C 0.46836 0.32791 0.02482 0.0
C827 C 0.45225 0.33693 0.93629 0.0
C828 C 0.47638 0.36081 0.93219 0.0
C829 C 0.49652 0.36773 0.97493 0.0
C830 C 0.49243 0.35185 0.02083 0.0
C831 C 0.49952 0.42433 0.85386 0.0
C832 C 0.48467 0.41479 0.80151 0.0
C833 C 0.49704 0.40688 0.89529 0.0
C834 C 0.48018 0.37907 0.88549 0.0
C835 C 0.46637 0.36934 0.83173 0.0
C836 C 0.46836 0.387 0.79051 0.0
H837 H 0.10469 0.401 0.98848 0.0
H838 H 0.15673 0.45019 0.86387 0.0
H839 H 0.06664 0.39372 0.92891 0.0
H840 H 0.11859 0.44319 0.8046 0.0
H841 H 0.02165 0.43607 0.85711 0.0
H842 H 0.05314 0.42749 0.90763 0.0
H843 H 0.07612 0.40904 0.74783 0.0
H844 H 0.04429 0.41749 0.69698 0.0
C845 C 0.10797 0.40974 0.94774 0.0
C846 C 0.1337 0.42632 0.93094 0.0
C847 C 0.08619 0.40567 0.91384 0.0
C848 C 0.08967 0.41794 0.86229 0.0
C849 C 0.1153 0.43326 0.8439 0.0
C850 C 0.13713 0.43752 0.87806 0.0
C851 C 0.03288 0.42944 0.83282 0.0
C852 C 0.03067 0.42761 0.77318 0.0
C853 C 0.05084 0.42442 0.86173 0.0
C854 C 0.06722 0.41782 0.83158 0.0
C855 C 0.06383 0.41428 0.772 0.0
C856 C 0.04549 0.4189 0.743 0.0
H857 H 0.69818 0.16949 0.78711 0.0
H858 H 0.64909 0.1591 0.9275 0.0
H859 H 0.6613 0.13046 0.7357 0.0
H860 H 0.6121 0.12093 0.87462 0.0
H861 H 0.60395 0.03937 0.71079 0.0
H862 H 0.63748 0.07998 0.76342 0.0
H863 H 0.5825 0.10839 0.77532 0.0
H864 H 0.5488 0.06787 0.72057 0.0
C865 C 0.67954 0.1592 0.80681 0.0
C866 C 0.67684 0.16752 0.86175 0.0
C867 C 0.65841 0.13691 0.77724 0.0
C868 C 0.63397 0.12267 0.80148 0.0
C869 C 0.6307 0.13172 0.85487 0.0
C870 C 0.65194 0.15378 0.88489 0.0
C871 C 0.59876 0.05408 0.72474 0.0
C872 C 0.57353 0.05025 0.71117 0.0
C873 C 0.6181 0.07743 0.75467 0.0
C874 C 0.61267 0.09743 0.77255 0.0
C875 C 0.58716 0.09323 0.76176 0.0
C876 C 0.56781 0.06993 0.73084 0.0
H877 H 0.5966 0.69306 0.8831 0.0
H878 H 0.56562 0.71805 0.74526 0.0
H879 H 0.59356 0.65721 0.82181 0.0
H880 H 0.56296 0.68202 0.68251 0.0
H881 H 0.51102 0.58781 0.65641 0.0
H882 H 0.53167 0.63562 0.68164 0.0
H883 H 0.60232 0.63686 0.74454 0.0
H884 H 0.58069 0.58861 0.72219 0.0
C885 C 0.59025 0.69163 0.83884 0.0
C886 C 0.58092 0.70807 0.81924 0.0
C887 C 0.58853 0.67098 0.80332 0.0
C888 C 0.57753 0.66635 0.74725 0.0
C889 C 0.57094 0.68467 0.72585 0.0
C890 C 0.57251 0.7053 0.76166 0.0
C891 C 0.53121 0.59862 0.67416 0.0
C892 C 0.54424 0.58488 0.68859 0.0
C893 C 0.54322 0.62605 0.68823 0.0
C894 C 0.56852 0.64005 0.71637 0.0
C895 C 0.58257 0.62656 0.72439 0.0
C896 C 0.57032 0.59906 0.71146 0.0
H897 H 0.42534 0.10424 0.30693 0.0
H898 H 0.48222 0.16399 0.43129 0.0
H899 H 0.43181 0.07021 0.34937 0.0
H900 H 0.48933 0.13004 0.47283 0.0
H901 H 0.48126 0.05772 0.56111 0.0
H902 H 0.46985 0.08981 0.5256 0.0
H903 H 0.46633 0.05908 0.35365 0.0
H904 H 0.47708 0.02667 0.38922 0.0
C905 C 0.43889 0.11004 0.344 0.0
C906 C 0.45318 0.13686 0.36585 0.0
C907 C 0.44289 0.09057 0.36787 0.0
C908 C 0.46126 0.09736 0.41431 0.0
C909 C 0.47489 0.12402 0.4374 0.0
C910 C 0.47096 0.14354 0.41334 0.0
C911 C 0.47773 0.05759 0.51584 0.0
C912 C 0.47998 0.03947 0.47818 0.0
C913 C 0.47141 0.07617 0.49538 0.0
C914 C 0.46709 0.07704 0.4367 0.0
C915 C 0.46912 0.05875 0.39914 0.0
C916 C 0.47551 0.04027 0.41957 0.0
H917 H 0.33159 0.44953 0.30155 0.0
H918 H 0.32178 0.4943 0.43984 0.0
H919 H 0.36918 0.45178 0.35509 0.0
H920 H 0.35922 0.49629 0.49373 0.0
H921 H 0.39547 0.45305 0.5913 0.0
H922 H 0.36203 0.45502 0.53185 0.0
H923 H 0.4173 0.48978 0.40177 0.0
H924 H 0.45123 0.48793 0.46186 0.0
C925 C 0.33761 0.45987 0.34341 0.0
C926 C 0.32379 0.47143 0.36732 0.0
C927 C 0.35914 0.46138 0.37357 0.0
C928 C 0.36683 0.47412 0.42826 0.0
C929 C 0.35343 0.48628 0.45156 0.0
C930 C 0.33216 0.48516 0.421 0.0
C931 C 0.40052 0.46088 0.54981 0.0
C932 C 0.42599 0.47044 0.53111 0.0
C933 C 0.38145 0.46227 0.5162 0.0
C934 C 0.38735 0.47286 0.4629 0.0
C935 C 0.41251 0.48169 0.44309 0.0
C936 C 0.43184 0.48072 0.47733 0.0
H937 H 0.83775 0.31764 0.32775 0.0
H938 H 0.89937 0.34871 0.2102 0.0
H939 H 0.86827 0.3496 0.4028 0.0
H940 H 0.92965 0.3817 0.28371 0.0
H941 H 0.98612 0.42804 0.42844 0.0
H942 H 0.95513 0.38937 0.36637 0.0
H943 H 0.89035 0.39442 0.43547 0.0
H944 H 0.92163 0.43205 0.50016 0.0
C945 C 0.85783 0.33161 0.31798 0.0
C946 C 0.86626 0.3309 0.26328 0.0
C947 C 0.87534 0.34999 0.36088 0.0
C948 C 0.9016 0.36839 0.3498 0.0
C949 C 0.90986 0.36754 0.29467 0.0
C950 C 0.89248 0.34882 0.25216 0.0
C951 C 0.96516 0.42027 0.43129 0.0
C952 C 0.95613 0.4328 0.46896 0.0
C953 C 0.94737 0.39838 0.39511 0.0
C954 C 0.92012 0.38902 0.39451 0.0
C955 C 0.91109 0.4008 0.4347 0.0
C956 C 0.92895 0.42237 0.47194 0.0
H957 H 0.56327 0.85423 0.30876 0.0
H958 H 0.48661 0.78523 0.32903 0.0
H959 H 0.55856 0.87665 0.39253 0.0
H960 H 0.48159 0.80842 0.41248 0.0
H961 H 0.47471 0.88471 0.47524 0.0
H962 H 0.47642 0.84899 0.42126 0.0
H963 H 0.55417 0.87608 0.49813 0.0
H964 H 0.55252 0.91203 0.55217 0.0
C965 C 0.54562 0.84352 0.3317 0.0
C966 C 0.52531 0.81784 0.31178 0.0
C967 C 0.54296 0.85644 0.38001 0.0
C968 C 0.5198 0.84421 0.40944 0.0
C969 C 0.49967 0.81831 0.39059 0.0
C970 C 0.50247 0.80518 0.34247 0.0
C971 C 0.49174 0.8824 0.48236 0.0
C972 C 0.5137 0.90148 0.51703 0.0
C973 C 0.49269 0.86186 0.45149 0.0
C974 C 0.51569 0.86015 0.4545 0.0
C975 C 0.53637 0.87726 0.49434 0.0
C976 C 0.53532 0.89769 0.52569 0.0
H977 H 0.7145 0.54963 0.30565 0.0
H978 H 0.66991 0.55575 0.16392 0.0
H979 H 0.68163 0.54698 0.36963 0.0
H980 H 0.63717 0.55361 0.22823 0.0
H981 H 0.56906 0.51062 0.34697 0.0
H982 H 0.60358 0.5184 0.28357 0.0
H983 H 0.6625 0.57304 0.41164 0.0
H984 H 0.62779 0.56513 0.47588 0.0
C985 C 0.69767 0.55047 0.28821 0.0
C986 C 0.6946 0.55255 0.22961 0.0
C987 C 0.67901 0.54927 0.32499 0.0
C988 C 0.65673 0.54998 0.30401 0.0
C989 C 0.65399 0.55273 0.24559 0.0
C990 C 0.67279 0.55414 0.20882 0.0
C991 C 0.58934 0.52435 0.36185 0.0
C992 C 0.59561 0.53713 0.41683 0.0
C993 C 0.60914 0.52899 0.32515 0.0
C994 C 0.63578 0.54639 0.34244 0.0
C995 C 0.64214 0.55937 0.39722 0.0
C996 C 0.62225 0.55491 0.43394 0.0
H997 H 0.20135 0.69806 0.36883 0.0
H998 H 0.13724 0.71429 0.37038 0.0
H999 H 0.18235 0.6679 0.44501 0.0
H1000 H 0.1183 0.68427 0.44606 0.0
H1001 H 0.08687 0.63287 0.58454 0.0
H1002 H 0.12075 0.67272 0.54328 0.0
H1003 H 0.14347 0.62396 0.44448 0.0
H1004 H 0.11014 0.58436 0.48628 0.0
C1005 C 0.18334 0.69538 0.38581 0.0
C1006 C 0.17059 0.70827 0.36303 0.0
C1007 C 0.17254 0.67822 0.42961 0.0
C1008 C 0.14876 0.67357 0.45156 0.0
C1009 C 0.13688 0.6877 0.43095 0.0
C1010 C 0.14768 0.70486 0.38725 0.0
C1011 C 0.09976 0.63076 0.55569 0.0
C1012 C 0.09524 0.6053 0.53734 0.0
C1013 C 0.11904 0.65361 0.53165 0.0
C1014 C 0.13424 0.65142 0.48926 0.0
C1015 C 0.13206 0.62643 0.47676 0.0
C1016 C 0.1128 0.60361 0.50069 0.0
loop_
_geom_bond_atom_site_label_1
_geom_bond_atom_site_label_2
_geom_bond_distance
_geom_bond_site_symmetry_2
_ccdc_geom_bond_type
H0 O26 0.856 . S
H1 O29 0.854 . S
H2 C37 0.930 . S
H3 C38 0.930 . S
H4 C40 0.930 . S
H5 C41 0.930 . S
H6 C43 0.931 . S
H7 C44 0.930 . S
H8 C46 0.930 . S
H9 C47 0.929 . S
H10 C49 0.930 . S
H11 C50 0.931 . S
H12 C52 0.930 . S
H13 C53 0.929 . S
H14 C55 0.931 . S
H15 C56 0.930 . S
H16 C58 0.930 . S
H17 C59 0.932 . S
H18 C61 0.930 . S
H19 C62 0.929 1_556 S
H20 C64 0.931 . S
H21 C65 0.930 . S
H22 C67 0.929 . S
H23 C68 0.931 . S
H24 C70 0.930 . S
H25 C71 0.929 . S
O26 H0 0.856 . S
O26 C72 1.300 . S
O27 C72 1.209 . S
O28 C73 1.199 . S
O29 H1 0.854 . S
O29 C73 1.297 . S
C30 C31 1.404 . S
C30 C35 1.397 . S
C30 C36 1.492 . S
C31 C30 1.404 . S
C31 C32 1.396 . S
C31 C42 1.492 . S
C32 C31 1.396 . S
C32 C33 1.397 . S
C32 C48 1.509 . S
C33 C32 1.397 . S
C33 C34 1.412 . S
C33 C54 1.485 . S
C34 C33 1.412 . S
C34 C35 1.388 . S
C34 C60 1.490 . S
C35 C30 1.397 . S
C35 C34 1.388 . S
C35 C66 1.519 . S
C36 C30 1.492 . S
C36 C37 1.363 . S
C36 C41 1.390 . S
C37 H2 0.930 . S
C37 C36 1.363 . S
C37 C38 1.372 . S
C38 H3 0.930 . S
C38 C37 1.372 . S
C38 C39 1.383 . S
C39 C38 1.383 . S
C39 C40 1.395 . S
C40 H4 0.930 . S
C40 C39 1.395 . S
C40 C41 1.362 . S
C41 H5 0.930 . S
C41 C36 1.390 . S
C41 C40 1.362 . S
C42 C31 1.492 . S
C42 C43 1.377 . S
C42 C47 1.397 . S
C43 H6 0.931 . S
C43 C42 1.377 . S
C43 C44 1.376 . S
C44 H7 0.930 . S
C44 C43 1.376 . S
C44 C45 1.376 . S
C45 C44 1.376 . S
C45 C46 1.378 . S
C45 C72 1.486 . S
C46 H8 0.930 . S
C46 C45 1.378 . S
C46 C47 1.376 . S
C47 H9 0.929 . S
C47 C42 1.397 . S
C47 C46 1.376 . S
C48 C32 1.509 . S
C48 C49 1.391 . S
C48 C53 1.386 . S
C49 H10 0.930 . S
C49 C48 1.391 . S
C49 C50 1.375 . S
C50 H11 0.931 . S
C50 C49 1.375 . S
C50 C51 1.375 . S
C51 C50 1.375 . S
C51 C52 1.361 . S
C52 H12 0.930 . S
C52 C51 1.361 . S
C52 C53 1.399 . S
C53 H13 0.929 . S
C53 C48 1.386 . S
C53 C52 1.399 . S
C54 C33 1.485 . S
C54 C55 1.394 . S
C54 C59 1.360 . S
C55 H14 0.931 . S
C55 C54 1.394 . S
C55 C56 1.372 . S
C56 H15 0.930 . S
C56 C55 1.372 . S
C56 C57 1.397 . S
C57 C56 1.397 . S
C57 C58 1.390 . S
C57 C73 1.476 . S
C58 H16 0.930 . S
C58 C57 1.390 . S
C58 C59 1.366 . S
C59 H17 0.932 . S
C59 C54 1.360 . S
C59 C58 1.366 . S
C60 C34 1.490 . S
C60 C61 1.380 . S
C60 C65 1.386 . S
C61 H18 0.930 . S
C61 C60 1.380 . S
C61 C62 1.381 . S
C62 H19 0.929 1_554 S
C62 C61 1.381 . S
C62 C63 1.371 1_554 S
C63 C62 1.371 1_556 S
C63 C64 1.380 1_556 S
C64 H20 0.931 . S
C64 C63 1.380 1_554 S
C64 C65 1.387 . S
C65 H21 0.930 . S
C65 C60 1.386 . S
C65 C64 1.387 . S
C66 C35 1.519 . S
C66 C67 1.377 . S
C66 C71 1.361 . S
C67 H22 0.929 . S
C67 C66 1.377 . S
C67 C68 1.386 . S
C68 H23 0.931 . S
C68 C67 1.386 . S
C68 C69 1.363 . S
C69 C68 1.363 . S
C69 C70 1.385 . S
C70 H24 0.930 . S
C70 C69 1.385 . S
C70 C71 1.396 . S
C71 H25 0.929 . S
C71 C66 1.361 . S
C71 C70 1.396 . S
C72 O26 1.300 . S
C72 O27 1.209 . S
C72 C45 1.486 . S
C73 O28 1.199 . S
C73 O29 1.297 . S
C73 C57 1.476 . S
H74 O100 0.856 . S
H75 O103 0.854 . S
H76 C111 0.930 . S
H77 C112 0.930 . S
H78 C114 0.930 . S
H79 C115 0.930 . S
H80 C117 0.931 . S
H81 C118 0.930 . S
H82 C120 0.930 . S
H83 C121 0.929 . S
H84 C123 0.930 . S
H85 C124 0.931 . S
H86 C126 0.930 . S
H87 C127 0.929 . S
H88 C129 0.931 . S
H89 C130 0.930 . S
H90 C132 0.930 . S
H91 C133 0.932 . S
H92 C135 0.930 1_554 S
H93 C136 0.929 . S
H94 C138 0.931 . S
H95 C139 0.930 . S
H96 C141 0.929 . S
H97 C142 0.931 . S
H98 C144 0.930 . S
H99 C145 0.929 . S
O100 H74 0.856 . S
O100 C146 1.300 . S
O101 C146 1.209 . S
O102 C147 1.199 . S
O103 H75 0.854 . S
O103 C147 1.297 . S
C104 C105 1.404 . S
C104 C109 1.397 . S
C104 C110 1.492 . S
C105 C104 1.404 . S
C105 C106 1.396 . S
C105 C116 1.492 . S
C106 C105 1.396 . S
C106 C107 1.397 . S
C106 C122 1.509 . S
C107 C106 1.397 . S
C107 C108 1.412 . S
C107 C128 1.485 . S
C108 C107 1.412 . S
C108 C109 1.388 . S
C108 C134 1.490 . S
C109 C104 1.397 . S
C109 C108 1.388 . S
C109 C140 1.519 . S
C110 C104 1.492 . S
C110 C111 1.363 . S
C110 C115 1.390 . S
C111 H76 0.930 . S
C111 C110 1.363 . S
C111 C112 1.372 . S
C112 H77 0.930 . S
C112 C111 1.372 . S
C112 C113 1.383 . S
C113 C112 1.383 . S
C113 C114 1.395 . S
C114 H78 0.930 . S
C114 C113 1.395 . S
C114 C115 1.362 . S
C115 H79 0.930 . S
C115 C110 1.390 . S
C115 C114 1.362 . S
C116 C105 1.492 . S
C116 C117 1.377 . S
C116 C121 1.397 . S
C117 H80 0.931 . S
C117 C116 1.377 . S
C117 C118 1.376 . S
C118 H81 0.930 . S
C118 C117 1.376 . S
C118 C119 1.376 . S
C119 C118 1.376 . S
C119 C120 1.378 . S
C119 C146 1.486 . S
C120 H82 0.930 . S
C120 C119 1.378 . S
C120 C121 1.376 . S
C121 H83 0.929 . S
C121 C116 1.397 . S
C121 C120 1.376 . S
C122 C106 1.509 . S
C122 C123 1.391 . S
C122 C127 1.386 . S
C123 H84 0.930 . S
C123 C122 1.391 . S
C123 C124 1.375 . S
C124 H85 0.931 . S
C124 C123 1.375 . S
C124 C125 1.375 . S
C125 C124 1.375 . S
C125 C126 1.361 . S
C126 H86 0.930 . S
C126 C125 1.361 . S
C126 C127 1.399 . S
C127 H87 0.929 . S
C127 C122 1.386 . S
C127 C126 1.399 . S
C128 C107 1.485 . S
C128 C129 1.394 . S
C128 C133 1.360 . S
C129 H88 0.931 . S
C129 C128 1.394 . S
C129 C130 1.372 . S
C130 H89 0.930 . S
C130 C129 1.372 . S
C130 C131 1.397 . S
C131 C130 1.397 . S
C131 C132 1.390 . S
C131 C147 1.476 . S
C132 H90 0.930 . S
C132 C131 1.390 . S
C132 C133 1.366 . S
C133 H91 0.932 . S
C133 C128 1.360 . S
C133 C132 1.366 . S
C134 C108 1.490 . S
C134 C135 1.380 1_554 S
C134 C139 1.386 1_554 S
C135 H92 0.930 1_556 S
C135 C134 1.380 1_556 S
C135 C136 1.381 . S
C136 H93 0.929 . S
C136 C135 1.381 . S
C136 C137 1.371 . S
C137 C136 1.371 . S
C137 C138 1.380 . S
C138 H94 0.931 . S
C138 C137 1.380 . S
C138 C139 1.387 . S
C139 H95 0.930 . S
C139 C134 1.386 1_556 S
C139 C138 1.387 . S
C140 C109 1.519 . S
C140 C141 1.377 . S
C140 C145 1.361 . S
C141 H96 0.929 . S
C141 C140 1.377 . S
C141 C142 1.386 1_554 S
C142 H97 0.931 . S
C142 C141 1.386 1_556 S
C142 C143 1.363 . S
C143 C142 1.363 . S
C143 C144 1.385 . S
C144 H98 0.930 . S
C144 C143 1.385 . S
C144 C145 1.396 1_556 S
C145 H99 0.929 . S
C145 C140 1.361 . S
C145 C144 1.396 1_554 S
C146 O100 1.300 . S
C146 O101 1.209 . S
C146 C119 1.486 . S
C147 O102 1.199 . S
C147 O103 1.297 . S
C147 C131 1.476 . S
H148 O174 0.856 . S
H149 O177 0.854 . S
H150 C185 0.930 . S
H151 C186 0.930 . S
H152 C188 0.930 . S
H153 C189 0.930 . S
H154 C191 0.931 . S
H155 C192 0.930 . S
H156 C194 0.930 . S
H157 C195 0.929 . S
H158 C197 0.930 . S
H159 C198 0.931 . S
H160 C200 0.930 . S
H161 C201 0.929 . S
H162 C203 0.931 . S
H163 C204 0.930 . S
H164 C206 0.930 . S
H165 C207 0.932 1_556 S
H166 C209 0.930 . S
H167 C210 0.929 . S
H168 C212 0.931 . S
H169 C213 0.930 . S
H170 C215 0.929 . S
H171 C216 0.931 . S
H172 C218 0.930 . S
H173 C219 0.929 . S
O174 H148 0.856 . S
O174 C220 1.300 . S
O175 C220 1.209 . S
O176 C221 1.199 . S
O177 H149 0.854 . S
O177 C221 1.297 . S
C178 C179 1.404 . S
C178 C183 1.397 1_556 S
C178 C184 1.492 . S
C179 C178 1.404 . S
C179 C180 1.396 . S
C179 C190 1.492 . S
C180 C179 1.396 . S
C180 C181 1.397 1_556 S
C180 C196 1.509 . S
C181 C180 1.397 1_554 S
C181 C182 1.412 . S
C181 C202 1.485 . S
C182 C181 1.412 . S
C182 C183 1.388 . S
C182 C208 1.490 . S
C183 C178 1.397 1_554 S
C183 C182 1.388 . S
C183 C214 1.519 . S
C184 C178 1.492 . S
C184 C185 1.363 . S
C184 C189 1.390 . S
C185 H150 0.930 . S
C185 C184 1.363 . S
C185 C186 1.372 . S
C186 H151 0.930 . S
C186 C185 1.372 . S
C186 C187 1.383 . S
C187 C186 1.383 . S
C187 C188 1.395 . S
C188 H152 0.930 . S
C188 C187 1.395 . S
C188 C189 1.362 . S
C189 H153 0.930 . S
C189 C184 1.390 . S
C189 C188 1.362 . S
C190 C179 1.492 . S
C190 C191 1.377 . S
C190 C195 1.397 . S
C191 H154 0.931 . S
C191 C190 1.377 . S
C191 C192 1.376 . S
C192 H155 0.930 . S
C192 C191 1.376 . S
C192 C193 1.376 . S
C193 C192 1.376 . S
C193 C194 1.378 . S
C193 C220 1.486 . S
C194 H156 0.930 . S
C194 C193 1.378 . S
C194 C195 1.376 . S
C195 H157 0.929 . S
C195 C190 1.397 . S
C195 C194 1.376 . S
C196 C180 1.509 . S
C196 C197 1.391 . S
C196 C201 1.386 . S
C197 H158 0.930 . S
C197 C196 1.391 . S
C197 C198 1.375 . S
C198 H159 0.931 . S
C198 C197 1.375 . S
C198 C199 1.375 . S
C199 C198 1.375 . S
C199 C200 1.361 . S
C200 H160 0.930 . S
C200 C199 1.361 . S
C200 C201 1.399 . S
C201 H161 0.929 . S
C201 C196 1.386 . S
C201 C200 1.399 . S
C202 C181 1.485 . S
C202 C203 1.394 . S
C202 C207 1.360 . S
C203 H162 0.931 . S
C203 C202 1.394 . S
C203 C204 1.372 . S
C204 H163 0.930 . S
C204 C203 1.372 . S
C204 C205 1.397 . S
C205 C204 1.397 . S
C205 C206 1.390 . S
C205 C221 1.476 . S
C206 H164 0.930 . S
C206 C205 1.390 . S
C206 C207 1.366 . S
C207 H165 0.932 1_554 S
C207 C202 1.360 . S
C207 C206 1.366 . S
C208 C182 1.490 . S
C208 C209 1.380 . S
C208 C213 1.386 . S
C209 H166 0.930 . S
C209 C208 1.380 . S
C209 C210 1.381 . S
C210 H167 0.929 . S
C210 C209 1.381 . S
C210 C211 1.371 . S
C211 C210 1.371 . S
C211 C212 1.380 . S
C212 H168 0.931 . S
C212 C211 1.380 . S
C212 C213 1.387 . S
C213 H169 0.930 . S
C213 C208 1.386 . S
C213 C212 1.387 . S
C214 C183 1.519 . S
C214 C215 1.377 . S
C214 C219 1.361 . S
C215 H170 0.929 . S
C215 C214 1.377 . S
C215 C216 1.386 . S
C216 H171 0.931 . S
C216 C215 1.386 . S
C216 C217 1.363 . S
C217 C216 1.363 . S
C217 C218 1.385 . S
C218 H172 0.930 . S
C218 C217 1.385 . S
C218 C219 1.396 . S
C219 H173 0.929 . S
C219 C214 1.361 . S
C219 C218 1.396 . S
C220 O174 1.300 . S
C220 O175 1.209 . S
C220 C193 1.486 . S
C221 O176 1.199 . S
C221 O177 1.297 . S
C221 C205 1.476 . S
H222 O248 0.856 . S
H223 O251 0.854 . S
H224 C259 0.930 . S
H225 C260 0.930 . S
H226 C262 0.930 . S
H227 C263 0.930 . S
H228 C265 0.931 . S
H229 C266 0.930 . S
H230 C268 0.930 . S
H231 C269 0.929 . S
H232 C271 0.930 . S
H233 C272 0.931 . S
H234 C274 0.930 . S
H235 C275 0.929 . S
H236 C277 0.931 1_556 S
H237 C278 0.930 . S
H238 C280 0.930 . S
H239 C281 0.932 . S
H240 C283 0.930 . S
H241 C284 0.929 . S
H242 C286 0.931 . S
H243 C287 0.930 . S
H244 C289 0.929 . S
H245 C290 0.931 . S
H246 C292 0.930 . S
H247 C293 0.929 . S
O248 H222 0.856 . S
O248 C294 1.300 . S
O249 C294 1.209 . S
O250 C295 1.199 . S
O251 H223 0.854 . S
O251 C295 1.297 1_554 S
C252 C253 1.404 . S
C252 C257 1.397 . S
C252 C258 1.492 . S
C253 C252 1.404 . S
C253 C254 1.396 . S
C253 C264 1.492 . S
C254 C253 1.396 . S
C254 C255 1.397 . S
C254 C270 1.509 . S
C255 C254 1.397 . S
C255 C256 1.412 . S
C255 C276 1.485 . S
C256 C255 1.412 . S
C256 C257 1.388 . S
C256 C282 1.490 1_554 S
C257 C252 1.397 . S
C257 C256 1.388 . S
C257 C288 1.519 1_554 S
C258 C252 1.492 . S
C258 C259 1.363 . S
C258 C263 1.390 . S
C259 H224 0.930 . S
C259 C258 1.363 . S
C259 C260 1.372 . S
C260 H225 0.930 . S
C260 C259 1.372 . S
C260 C261 1.383 . S
C261 C260 1.383 . S
C261 C262 1.395 . S
C262 H226 0.930 . S
C262 C261 1.395 . S
C262 C263 1.362 . S
C263 H227 0.930 . S
C263 C258 1.390 . S
C263 C262 1.362 . S
C264 C253 1.492 . S
C264 C265 1.377 . S
C264 C269 1.397 . S
C265 H228 0.931 . S
C265 C264 1.377 . S
C265 C266 1.376 . S
C266 H229 0.930 . S
C266 C265 1.376 . S
C266 C267 1.376 . S
C267 C266 1.376 . S
C267 C268 1.378 . S
C267 C294 1.486 . S
C268 H230 0.930 . S
C268 C267 1.378 . S
C268 C269 1.376 . S
C269 H231 0.929 . S
C269 C264 1.397 . S
C269 C268 1.376 . S
C270 C254 1.509 . S
C270 C271 1.391 . S
C270 C275 1.386 . S
C271 H232 0.930 . S
C271 C270 1.391 . S
C271 C272 1.375 . S
C272 H233 0.931 . S
C272 C271 1.375 . S
C272 C273 1.375 . S
C273 C272 1.375 . S
C273 C274 1.361 . S
C274 H234 0.930 . S
C274 C273 1.361 . S
C274 C275 1.399 . S
C275 H235 0.929 . S
C275 C270 1.386 . S
C275 C274 1.399 . S
C276 C255 1.485 . S
C276 C277 1.394 . S
C276 C281 1.360 . S
C277 H236 0.931 1_554 S
C277 C276 1.394 . S
C277 C278 1.372 1_554 S
C278 H237 0.930 . S
C278 C277 1.372 1_556 S
C278 C279 1.397 1_556 S
C279 C278 1.397 1_554 S
C279 C280 1.390 . S
C279 C295 1.476 1_554 S
C280 H238 0.930 . S
C280 C279 1.390 . S
C280 C281 1.366 . S
C281 H239 0.932 . S
C281 C276 1.360 . S
C281 C280 1.366 . S
C282 C256 1.490 1_556 S
C282 C283 1.380 . S
C282 C287 1.386 . S
C283 H240 0.930 . S
C283 C282 1.380 . S
C283 C284 1.381 . S
C284 H241 0.929 . S
C284 C283 1.381 . S
C284 C285 1.371 . S
C285 C284 1.371 . S
C285 C286 1.380 . S
C286 H242 0.931 . S
C286 C285 1.380 . S
C286 C287 1.387 . S
C287 H243 0.930 . S
C287 C282 1.386 . S
C287 C286 1.387 . S
C288 C257 1.519 1_556 S
C288 C289 1.377 . S
C288 C293 1.361 . S
C289 H244 0.929 . S
C289 C288 1.377 . S
C289 C290 1.386 . S
C290 H245 0.931 . S
C290 C289 1.386 . S
C290 C291 1.363 . S
C291 C290 1.363 . S
C291 C292 1.385 . S
C292 H246 0.930 . S
C292 C291 1.385 . S
C292 C293 1.396 . S
C293 H247 0.929 . S
C293 C288 1.361 . S
C293 C292 1.396 . S
C294 O248 1.300 . S
C294 O249 1.209 . S
C294 C267 1.486 . S
C295 O250 1.199 . S
C295 O251 1.297 1_556 S
C295 C279 1.476 1_556 S
H296 O322 0.856 . S
H297 O325 0.854 . S
H298 C333 0.930 . S
H299 C334 0.930 . S
H300 C336 0.930 . S
H301 C337 0.930 . S
H302 C339 0.931 . S
H303 C340 0.930 . S
H304 C342 0.930 . S
H305 C343 0.929 . S
H306 C345 0.930 . S
H307 C346 0.931 . S
H308 C348 0.930 . S
H309 C349 0.929 . S
H310 C351 0.931 . S
H311 C352 0.930 . S
H312 C354 0.930 . S
H313 C355 0.932 . S
H314 C357 0.930 1_554 S
H315 C358 0.929 . S
H316 C360 0.931 . S
H317 C361 0.930 1_554 S
H318 C363 0.929 . S
H319 C364 0.931 . S
H320 C366 0.930 . S
H321 C367 0.929 . S
O322 H296 0.856 . S
O322 C368 1.300 . S
O323 C368 1.209 . S
O324 C369 1.199 . S
O325 H297 0.854 . S
O325 C369 1.297 . S
C326 C327 1.404 . S
C326 C331 1.397 . S
C326 C332 1.492 . S
C327 C326 1.404 . S
C327 C328 1.396 . S
C327 C338 1.492 . S
C328 C327 1.396 . S
C328 C329 1.397 . S
C328 C344 1.509 . S
C329 C328 1.397 . S
C329 C330 1.412 . S
C329 C350 1.485 . S
C330 C329 1.412 . S
C330 C331 1.388 . S
C330 C356 1.490 . S
C331 C326 1.397 . S
C331 C330 1.388 . S
C331 C362 1.519 . S
C332 C326 1.492 . S
C332 C333 1.363 . S
C332 C337 1.390 . S
C333 H298 0.930 . S
C333 C332 1.363 . S
C333 C334 1.372 . S
C334 H299 0.930 . S
C334 C333 1.372 . S
C334 C335 1.383 . S
C335 C334 1.383 . S
C335 C336 1.395 . S
C336 H300 0.930 . S
C336 C335 1.395 . S
C336 C337 1.362 . S
C337 H301 0.930 . S
C337 C332 1.390 . S
C337 C336 1.362 . S
C338 C327 1.492 . S
C338 C339 1.377 . S
C338 C343 1.397 . S
C339 H302 0.931 . S
C339 C338 1.377 . S
C339 C340 1.376 . S
C340 H303 0.930 . S
C340 C339 1.376 . S
C340 C341 1.376 . S
C341 C340 1.376 . S
C341 C342 1.378 . S
C341 C368 1.486 . S
C342 H304 0.930 . S
C342 C341 1.378 . S
C342 C343 1.376 . S
C343 H305 0.929 . S
C343 C338 1.397 . S
C343 C342 1.376 . S
C344 C328 1.509 . S
C344 C345 1.391 . S
C344 C349 1.386 . S
C345 H306 0.930 . S
C345 C344 1.391 . S
C345 C346 1.375 . S
C346 H307 0.931 . S
C346 C345 1.375 . S
C346 C347 1.375 . S
C347 C346 1.375 . S
C347 C348 1.361 . S
C348 H308 0.930 . S
C348 C347 1.361 . S
C348 C349 1.399 . S
C349 H309 0.929 . S
C349 C344 1.386 . S
C349 C348 1.399 . S
C350 C329 1.485 . S
C350 C351 1.394 . S
C350 C355 1.360 . S
C351 H310 0.931 . S
C351 C350 1.394 . S
C351 C352 1.372 . S
C352 H311 0.930 . S
C352 C351 1.372 . S
C352 C353 1.397 . S
C353 C352 1.397 . S
C353 C354 1.390 . S
C353 C369 1.476 . S
C354 H312 0.930 . S
C354 C353 1.390 . S
C354 C355 1.366 . S
C355 H313 0.932 . S
C355 C350 1.360 . S
C355 C354 1.366 . S
C356 C330 1.490 . S
C356 C357 1.380 1_554 S
C356 C361 1.386 1_554 S
C357 H314 0.930 1_556 S
C357 C356 1.380 1_556 S
C357 C358 1.381 . S
C358 H315 0.929 . S
C358 C357 1.381 . S
C358 C359 1.371 . S
C359 C358 1.371 . S
C359 C360 1.380 . S
C360 H316 0.931 . S
C360 C359 1.380 . S
C360 C361 1.387 . S
C361 H317 0.930 1_556 S
C361 C356 1.386 1_556 S
C361 C360 1.387 . S
C362 C331 1.519 . S
C362 C363 1.377 . S
C362 C367 1.361 . S
C363 H318 0.929 . S
C363 C362 1.377 . S
C363 C364 1.386 . S
C364 H319 0.931 . S
C364 C363 1.386 . S
C364 C365 1.363 1_554 S
C365 C364 1.363 1_556 S
C365 C366 1.385 . S
C366 H320 0.930 . S
C366 C365 1.385 . S
C366 C367 1.396 1_556 S
C367 H321 0.929 . S
C367 C362 1.361 . S
C367 C366 1.396 1_554 S
C368 O322 1.300 . S
C368 O323 1.209 . S
C368 C341 1.486 . S
C369 O324 1.199 . S
C369 O325 1.297 . S
C369 C353 1.476 . S
H370 O396 0.856 . S
H371 O399 0.854 . S
H372 C407 0.930 . S
H373 C408 0.930 . S
H374 C410 0.930 . S
H375 C411 0.930 . S
H376 C413 0.931 . S
H377 C414 0.930 . S
H378 C416 0.930 . S
H379 C417 0.929 1_554 S
H380 C419 0.930 . S
H381 C420 0.931 . S
H382 C422 0.930 . S
H383 C423 0.929 . S
H384 C425 0.931 . S
H385 C426 0.930 . S
H386 C428 0.930 . S
H387 C429 0.932 . S
H388 C431 0.930 . S
H389 C432 0.929 . S
H390 C434 0.931 . S
H391 C435 0.930 . S
H392 C437 0.929 . S
H393 C438 0.931 . S
H394 C440 0.930 . S
H395 C441 0.929 . S
O396 H370 0.856 . S
O396 C442 1.300 . S
O397 C442 1.209 . S
O398 C443 1.199 . S
O399 H371 0.854 . S
O399 C443 1.297 . S
C400 C401 1.404 . S
C400 C405 1.397 . S
C400 C406 1.492 . S
C401 C400 1.404 . S
C401 C402 1.396 . S
C401 C412 1.492 . S
C402 C401 1.396 . S
C402 C403 1.397 . S
C402 C418 1.509 . S
C403 C402 1.397 . S
C403 C404 1.412 . S
C403 C424 1.485 . S
C404 C403 1.412 . S
C404 C405 1.388 . S
C404 C430 1.490 . S
C405 C400 1.397 . S
C405 C404 1.388 . S
C405 C436 1.519 . S
C406 C400 1.492 . S
C406 C407 1.363 . S
C406 C411 1.390 . S
C407 H372 0.930 . S
C407 C406 1.363 . S
C407 C408 1.372 . S
C408 H373 0.930 . S
C408 C407 1.372 . S
C408 C409 1.383 . S
C409 C408 1.383 . S
C409 C410 1.395 . S
C410 H374 0.930 . S
C410 C409 1.395 . S
C410 C411 1.362 . S
C411 H375 0.930 . S
C411 C406 1.390 . S
C411 C410 1.362 . S
C412 C401 1.492 . S
C412 C413 1.377 1_554 S
C412 C417 1.397 1_554 S
C413 H376 0.931 . S
C413 C412 1.377 1_556 S
C413 C414 1.376 . S
C414 H377 0.930 . S
C414 C413 1.376 . S
C414 C415 1.376 . S
C415 C414 1.376 . S
C415 C416 1.378 . S
C415 C442 1.486 . S
C416 H378 0.930 . S
C416 C415 1.378 . S
C416 C417 1.376 . S
C417 H379 0.929 1_556 S
C417 C412 1.397 1_556 S
C417 C416 1.376 . S
C418 C402 1.509 . S
C418 C419 1.391 . S
C418 C423 1.386 . S
C419 H380 0.930 . S
C419 C418 1.391 . S
C419 C420 1.375 1_554 S
C420 H381 0.931 . S
C420 C419 1.375 1_556 S
C420 C421 1.375 . S
C421 C420 1.375 . S
C421 C422 1.361 . S
C422 H382 0.930 . S
C422 C421 1.361 . S
C422 C423 1.399 1_556 S
C423 H383 0.929 . S
C423 C418 1.386 . S
C423 C422 1.399 1_554 S
C424 C403 1.485 . S
C424 C425 1.394 . S
C424 C429 1.360 . S
C425 H384 0.931 . S
C425 C424 1.394 . S
C425 C426 1.372 . S
C426 H385 0.930 . S
C426 C425 1.372 . S
C426 C427 1.397 . S
C427 C426 1.397 . S
C427 C428 1.390 . S
C427 C443 1.476 . S
C428 H386 0.930 . S
C428 C427 1.390 . S
C428 C429 1.366 . S
C429 H387 0.932 . S
C429 C424 1.360 . S
C429 C428 1.366 . S
C430 C404 1.490 . S
C430 C431 1.380 . S
C430 C435 1.386 . S
C431 H388 0.930 . S
C431 C430 1.380 . S
C431 C432 1.381 . S
C432 H389 0.929 . S
C432 C431 1.381 . S
C432 C433 1.371 . S
C433 C432 1.371 . S
C433 C434 1.380 . S
C434 H390 0.931 . S
C434 C433 1.380 . S
C434 C435 1.387 . S
C435 H391 0.930 . S
C435 C430 1.386 . S
C435 C434 1.387 . S
C436 C405 1.519 . S
C436 C437 1.377 . S
C436 C441 1.361 . S
C437 H392 0.929 . S
C437 C436 1.377 . S
C437 C438 1.386 . S
C438 H393 0.931 . S
C438 C437 1.386 . S
C438 C439 1.363 . S
C439 C438 1.363 . S
C439 C440 1.385 . S
C440 H394 0.930 . S
C440 C439 1.385 . S
C440 C441 1.396 . S
C441 H395 0.929 . S
C441 C436 1.361 . S
C441 C440 1.396 . S
C442 O396 1.300 . S
C442 O397 1.209 . S
C442 C415 1.486 . S
C443 O398 1.199 . S
C443 O399 1.297 . S
C443 C427 1.476 . S
C444 O471 1.312 . S
C444 O472 1.208 . S
C445 O466 1.331 . S
C445 O469 1.244 . S
C446 O468 1.264 . S
C446 O470 1.273 . S
Mg447 O449 1.936 . S
Mg447 O456 2.081 1_455 S
Mg447 O458 2.023 . S
Mg447 O462 2.031 1_455 S
Mg447 O471 2.291 . S
Mg448 O449 1.963 . S
Mg448 O459 1.942 1_455 S
Mg448 O460 1.955 . S
Mg448 O467 1.986 1_455 S
O449 Mg447 1.936 . S
O449 Mg448 1.963 . S
O449 Mg450 1.915 . S
Mg450 O449 1.915 . S
Mg450 O451 1.915 . S
Mg450 O455 2.013 . S
Mg450 O461 2.114 1_455 S
Mg450 O465 2.013 1_455 S
Mg450 O471 2.114 . S
O451 Mg450 1.915 . S
O451 Mg452 1.936 . S
O451 Mg453 1.963 . S
Mg452 O451 1.936 . S
Mg452 O461 2.291 1_455 S
Mg452 O466 2.081 . S
Mg452 O468 2.023 1_455 S
Mg452 O472 2.031 . S
Mg453 O451 1.963 . S
Mg453 O457 1.986 . S
Mg453 O469 1.942 . S
Mg453 O470 1.955 1_455 S
C454 O465 1.191 . S
C454 O467 1.307 . S
O455 Mg450 2.013 . S
O455 C474 1.191 . S
O456 Mg447 2.081 1_655 S
O456 C464 1.331 . S
O457 Mg453 1.986 . S
O457 C474 1.307 . S
O458 Mg447 2.023 . S
O458 C473 1.264 . S
O459 Mg448 1.942 1_655 S
O459 C464 1.244 . S
O460 Mg448 1.955 . S
O460 C473 1.273 . S
O461 Mg450 2.114 1_655 S
O461 Mg452 2.291 1_655 S
O461 C463 1.312 . S
O462 Mg447 2.031 1_655 S
O462 C463 1.208 . S
C463 O461 1.312 . S
C463 O462 1.208 . S
C464 O456 1.331 . S
C464 O459 1.244 . S
O465 Mg450 2.013 1_655 S
O465 C454 1.191 . S
O466 C445 1.331 . S
O466 Mg452 2.081 . S
O467 Mg448 1.986 1_655 S
O467 C454 1.307 . S
O468 C446 1.264 . S
O468 Mg452 2.023 1_655 S
O469 C445 1.244 . S
O469 Mg453 1.942 . S
O470 C446 1.273 . S
O470 Mg453 1.955 1_655 S
O471 C444 1.312 . S
O471 Mg447 2.291 . S
O471 Mg450 2.114 . S
O472 C444 1.208 . S
O472 Mg452 2.031 . S
C473 O458 1.264 . S
C473 O460 1.273 . S
C474 O455 1.191 . S
C474 O457 1.307 . S
C475 O502 1.312 . S
C475 O503 1.208 . S
C476 O497 1.331 . S
C476 O500 1.244 . S
C477 O499 1.264 . S
C477 O501 1.273 . S
Mg478 O480 1.936 1_545 S
Mg478 O487 2.081 1_545 S
Mg478 O489 2.023 . S
Mg478 O493 2.031 1_545 S
Mg478 O502 2.291 . S
Mg479 O480 1.956 . S
Mg479 O490 1.949 . S
Mg479 O491 1.909 1_565 S
Mg479 O498 2.028 . S
O480 Mg478 1.936 1_565 S
O480 Mg479 1.956 . S
O480 Mg481 1.915 1_565 S
Mg481 O480 1.915 1_545 S
Mg481 O482 1.915 . S
Mg481 O486 2.013 . S
Mg481 O492 2.114 1_545 S
Mg481 O496 2.013 1_545 S
Mg481 O502 2.114 . S
O482 Mg481 1.915 . S
O482 Mg483 1.936 . S
O482 Mg484 1.963 . S
Mg483 O482 1.936 . S
Mg483 O492 2.291 1_545 S
Mg483 O497 2.081 . S
Mg483 O499 2.023 1_545 S
Mg483 O503 2.031 . S
Mg484 O482 1.963 . S
Mg484 O488 1.986 . S
Mg484 O500 1.942 . S
Mg484 O501 1.955 1_545 S
C485 O496 1.191 . S
C485 O498 1.307 . S
O486 Mg481 2.013 . S
O486 C505 1.191 . S
O487 Mg478 2.081 1_565 S
O487 C495 1.331 . S
O488 Mg484 1.986 . S
O488 C505 1.307 . S
O489 Mg478 2.023 . S
O489 C504 1.264 . S
O490 Mg479 1.949 . S
O490 C495 1.244 . S
O491 Mg479 1.909 1_545 S
O491 C504 1.273 . S
O492 Mg481 2.114 1_565 S
O492 Mg483 2.291 1_565 S
O492 C494 1.312 . S
O493 Mg478 2.031 1_565 S
O493 C494 1.208 . S
C494 O492 1.312 . S
C494 O493 1.208 . S
C495 O487 1.331 . S
C495 O490 1.244 . S
O496 Mg481 2.013 1_565 S
O496 C485 1.191 . S
O497 C476 1.331 . S
O497 Mg483 2.081 . S
O498 Mg479 2.028 . S
O498 C485 1.307 . S
O499 C477 1.264 . S
O499 Mg483 2.023 1_565 S
O500 C476 1.244 . S
O500 Mg484 1.942 . S
O501 C477 1.273 . S
O501 Mg484 1.955 1_565 S
O502 C475 1.312 . S
O502 Mg478 2.291 . S
O502 Mg481 2.114 . S
O503 C475 1.208 . S
O503 Mg483 2.031 . S
C504 O489 1.264 . S
C504 O491 1.273 . S
C505 O486 1.191 . S
C505 O488 1.307 . S
C506 O533 1.312 . S
C506 O534 1.208 . S
C507 O528 1.331 . S
C507 O531 1.244 . S
C508 O530 1.264 . S
C508 O532 1.273 . S
Mg509 O511 1.936 . S
Mg509 O518 2.081 . S
Mg509 O520 2.023 . S
Mg509 O524 2.031 . S
Mg509 O533 2.291 . S
Mg510 O511 1.963 . S
Mg510 O521 1.942 . S
Mg510 O522 1.955 . S
Mg510 O529 1.986 . S
O511 Mg509 1.936 . S
O511 Mg510 1.963 . S
O511 Mg512 1.915 . S
Mg512 O511 1.915 . S
Mg512 O513 1.915 . S
Mg512 O517 2.013 . S
Mg512 O523 2.114 . S
Mg512 O527 2.013 . S
Mg512 O533 2.114 . S
O513 Mg512 1.915 . S
O513 Mg514 1.936 . S
O513 Mg515 1.963 . S
Mg514 O513 1.936 . S
Mg514 O523 2.291 . S
Mg514 O528 2.081 . S
Mg514 O530 2.023 . S
Mg514 O534 2.031 . S
Mg515 O513 1.963 . S
Mg515 O519 1.986 . S
Mg515 O531 1.942 . S
Mg515 O532 1.955 . S
C516 O527 1.191 . S
C516 O529 1.307 . S
O517 Mg512 2.013 . S
O517 C536 1.191 . S
O518 Mg509 2.081 . S
O518 C526 1.331 . S
O519 Mg515 1.986 . S
O519 C536 1.307 . S
O520 Mg509 2.023 . S
O520 C535 1.264 . S
O521 Mg510 1.942 . S
O521 C526 1.244 . S
O522 Mg510 1.955 . S
O522 C535 1.273 . S
O523 Mg512 2.114 . S
O523 Mg514 2.291 . S
O523 C525 1.312 . S
O524 Mg509 2.031 . S
O524 C525 1.208 . S
C525 O523 1.312 . S
C525 O524 1.208 . S
C526 O518 1.331 . S
C526 O521 1.244 . S
O527 Mg512 2.013 . S
O527 C516 1.191 . S
O528 C507 1.331 . S
O528 Mg514 2.081 . S
O529 Mg510 1.986 . S
O529 C516 1.307 . S
O530 C508 1.264 . S
O530 Mg514 2.023 . S
O531 C507 1.244 . S
O531 Mg515 1.942 . S
O532 C508 1.273 . S
O532 Mg515 1.955 . S
O533 C506 1.312 . S
O533 Mg509 2.291 . S
O533 Mg512 2.114 . S
O534 C506 1.208 . S
O534 Mg514 2.031 . S
C535 O520 1.264 . S
C535 O522 1.273 . S
C536 O517 1.191 . S
C536 O519 1.307 . S
H537 C545 0.950 . S
H538 C550 0.950 . S
H539 C547 0.950 . S
H540 C549 0.950 . S
H541 C551 0.950 . S
H542 C553 0.950 . S
H543 C555 0.950 . S
H544 C556 0.950 . S
C545 H537 0.950 . S
C545 C546 1.386 . S
C545 C547 1.391 . S
C546 C545 1.386 . S
C546 C550 1.393 . S
C547 H539 0.950 . S
C547 C545 1.391 . S
C547 C548 1.400 . S
C548 C547 1.400 . S
C548 C549 1.398 . S
C548 C554 1.491 . S
C549 H540 0.950 . S
C549 C548 1.398 . S
C549 C550 1.391 . S
C550 H538 0.950 . S
C550 C546 1.393 . S
C550 C549 1.391 . S
C551 H541 0.950 . S
C551 C552 1.386 . S
C551 C553 1.391 . S
C552 C551 1.386 . S
C552 C556 1.393 . S
C553 H542 0.950 . S
C553 C551 1.391 . S
C553 C554 1.400 . S
C554 C548 1.491 . S
C554 C553 1.400 . S
C554 C555 1.398 . S
C555 H543 0.950 . S
C555 C554 1.398 . S
C555 C556 1.391 . S
C556 H544 0.950 . S
C556 C552 1.393 . S
C556 C555 1.391 . S
H557 C565 0.950 . S
H558 C570 0.950 . S
H559 C567 0.950 . S
H560 C569 0.950 . S
H561 C571 0.950 . S
H562 C573 0.950 . S
H563 C575 0.950 . S
H564 C576 0.950 . S
C565 H557 0.950 . S
C565 C566 1.386 . S
C565 C567 1.391 . S
C566 C565 1.386 . S
C566 C570 1.393 . S
C567 H559 0.950 . S
C567 C565 1.391 . S
C567 C568 1.400 . S
C568 C567 1.400 . S
C568 C569 1.398 . S
C568 C574 1.491 . S
C569 H560 0.950 . S
C569 C568 1.398 . S
C569 C570 1.391 . S
C570 H558 0.950 . S
C570 C566 1.393 . S
C570 C569 1.391 . S
C571 H561 0.950 . S
C571 C572 1.386 . S
C571 C573 1.391 . S
C572 C571 1.386 . S
C572 C576 1.393 . S
C573 H562 0.950 . S
C573 C571 1.391 . S
C573 C574 1.400 . S
C574 C568 1.491 . S
C574 C573 1.400 . S
C574 C575 1.398 . S
C575 H563 0.950 . S
C575 C574 1.398 . S
C575 C576 1.391 . S
C576 H564 0.950 . S
C576 C572 1.393 . S
C576 C575 1.391 . S
H577 C585 0.950 . S
H578 C590 0.950 . S
H579 C587 0.950 . S
H580 C589 0.950 . S
H581 C591 0.950 . S
H582 C593 0.950 . S
H583 C595 0.950 . S
H584 C596 0.950 . S
C585 H577 0.950 . S
C585 C586 1.386 . S
C585 C587 1.391 . S
C586 C585 1.386 . S
C586 C590 1.393 . S
C587 H579 0.950 . S
C587 C585 1.391 . S
C587 C588 1.400 . S
C588 C587 1.400 . S
C588 C589 1.398 . S
C588 C594 1.491 . S
C589 H580 0.950 . S
C589 C588 1.398 . S
C589 C590 1.391 . S
C590 H578 0.950 . S
C590 C586 1.393 . S
C590 C589 1.391 . S
C591 H581 0.950 . S
C591 C592 1.386 . S
C591 C593 1.391 . S
C592 C591 1.386 . S
C592 C596 1.393 . S
C593 H582 0.950 . S
C593 C591 1.391 . S
C593 C594 1.400 . S
C594 C588 1.491 . S
C594 C593 1.400 . S
C594 C595 1.398 . S
C595 H583 0.950 . S
C595 C594 1.398 . S
C595 C596 1.391 . S
C596 H584 0.950 . S
C596 C592 1.393 . S
C596 C595 1.391 . S
H597 C605 0.950 . S
H598 C610 0.950 . S
H599 C607 0.950 . S
H600 C609 0.950 . S
H601 C611 0.950 . S
H602 C613 0.950 . S
H603 C615 0.950 . S
H604 C616 0.950 . S
C605 H597 0.950 . S
C605 C606 1.386 . S
C605 C607 1.391 . S
C606 C605 1.386 . S
C606 C610 1.393 . S
C607 H599 0.950 . S
C607 C605 1.391 . S
C607 C608 1.400 . S
C608 C607 1.400 . S
C608 C609 1.398 . S
C608 C614 1.491 . S
C609 H600 0.950 . S
C609 C608 1.398 . S
C609 C610 1.391 . S
C610 H598 0.950 . S
C610 C606 1.393 . S
C610 C609 1.391 . S
C611 H601 0.950 . S
C611 C612 1.386 . S
C611 C613 1.391 . S
C612 C611 1.386 . S
C612 C616 1.393 . S
C613 H602 0.950 . S
C613 C611 1.391 . S
C613 C614 1.400 . S
C614 C608 1.491 . S
C614 C613 1.400 . S
C614 C615 1.398 . S
C615 H603 0.950 . S
C615 C614 1.398 . S
C615 C616 1.391 . S
C616 H604 0.950 . S
C616 C612 1.393 . S
C616 C615 1.391 . S
H617 C625 0.950 . S
H618 C630 0.950 . S
H619 C627 0.950 . S
H620 C629 0.950 . S
H621 C631 0.950 . S
H622 C633 0.950 . S
H623 C635 0.950 . S
H624 C636 0.950 . S
C625 H617 0.950 . S
C625 C626 1.386 . S
C625 C627 1.391 . S
C626 C625 1.386 . S
C626 C630 1.393 . S
C627 H619 0.950 . S
C627 C625 1.391 . S
C627 C628 1.400 . S
C628 C627 1.400 . S
C628 C629 1.398 . S
C628 C634 1.491 . S
C629 H620 0.950 . S
C629 C628 1.398 . S
C629 C630 1.391 . S
C630 H618 0.950 . S
C630 C626 1.393 . S
C630 C629 1.391 . S
C631 H621 0.950 . S
C631 C632 1.386 . S
C631 C633 1.391 . S
C632 C631 1.386 . S
C632 C636 1.393 . S
C633 H622 0.950 . S
C633 C631 1.391 . S
C633 C634 1.400 . S
C634 C628 1.491 . S
C634 C633 1.400 . S
C634 C635 1.398 . S
C635 H623 0.950 . S
C635 C634 1.398 . S
C635 C636 1.391 . S
C636 H624 0.950 . S
C636 C632 1.393 . S
C636 C635 1.391 . S
H637 C645 0.950 . S
H638 C650 0.950 . S
H639 C647 0.950 . S
H640 C649 0.950 . S
H641 C651 0.950 . S
H642 C653 0.950 . S
H643 C655 0.950 . S
H644 C656 0.950 . S
C645 H637 0.950 . S
C645 C646 1.386 . S
C645 C647 1.391 . S
C646 C645 1.386 . S
C646 C650 1.393 . S
C647 H639 0.950 . S
C647 C645 1.391 . S
C647 C648 1.400 . S
C648 C647 1.400 . S
C648 C649 1.398 . S
C648 C654 1.491 . S
C649 H640 0.950 . S
C649 C648 1.398 . S
C649 C650 1.391 . S
C650 H638 0.950 . S
C650 C646 1.393 . S
C650 C649 1.391 . S
C651 H641 0.950 . S
C651 C652 1.386 . S
C651 C653 1.391 . S
C652 C651 1.386 . S
C652 C656 1.393 . S
C653 H642 0.950 . S
C653 C651 1.391 . S
C653 C654 1.400 . S
C654 C648 1.491 . S
C654 C653 1.400 . S
C654 C655 1.398 . S
C655 H643 0.950 . S
C655 C654 1.398 . S
C655 C656 1.391 . S
C656 H644 0.950 . S
C656 C652 1.393 . S
C656 C655 1.391 . S
H657 C665 0.950 . S
H658 C670 0.950 . S
H659 C667 0.950 . S
H660 C669 0.950 . S
H661 C671 0.950 . S
H662 C673 0.950 . S
H663 C675 0.950 . S
H664 C676 0.950 . S
C665 H657 0.950 . S
C665 C666 1.386 . S
C665 C667 1.391 . S
C666 C665 1.386 . S
C666 C670 1.393 . S
C667 H659 0.950 . S
C667 C665 1.391 . S
C667 C668 1.400 . S
C668 C667 1.400 . S
C668 C669 1.398 . S
C668 C674 1.491 . S
C669 H660 0.950 . S
C669 C668 1.398 . S
C669 C670 1.391 . S
C670 H658 0.950 . S
C670 C666 1.393 . S
C670 C669 1.391 . S
C671 H661 0.950 . S
C671 C672 1.386 . S
C671 C673 1.391 . S
C672 C671 1.386 . S
C672 C676 1.393 . S
C673 H662 0.950 . S
C673 C671 1.391 . S
C673 C674 1.400 . S
C674 C668 1.491 . S
C674 C673 1.400 . S
C674 C675 1.398 . S
C675 H663 0.950 . S
C675 C674 1.398 . S
C675 C676 1.391 . S
C676 H664 0.950 . S
C676 C672 1.393 . S
C676 C675 1.391 . S
H677 C685 0.950 . S
H678 C690 0.950 . S
H679 C687 0.950 . S
H680 C689 0.950 . S
H681 C691 0.950 . S
H682 C693 0.950 . S
H683 C695 0.950 . S
H684 C696 0.950 . S
C685 H677 0.950 . S
C685 C686 1.386 . S
C685 C687 1.391 . S
C686 C685 1.386 . S
C686 C690 1.393 . S
C687 H679 0.950 . S
C687 C685 1.391 . S
C687 C688 1.400 . S
C688 C687 1.400 . S
C688 C689 1.398 . S
C688 C694 1.491 . S
C689 H680 0.950 . S
C689 C688 1.398 . S
C689 C690 1.391 . S
C690 H678 0.950 . S
C690 C686 1.393 . S
C690 C689 1.391 . S
C691 H681 0.950 . S
C691 C692 1.386 . S
C691 C693 1.391 . S
C692 C691 1.386 . S
C692 C696 1.393 . S
C693 H682 0.950 . S
C693 C691 1.391 . S
C693 C694 1.400 . S
C694 C688 1.491 . S
C694 C693 1.400 . S
C694 C695 1.398 . S
C695 H683 0.950 . S
C695 C694 1.398 . S
C695 C696 1.391 . S
C696 H684 0.950 . S
C696 C692 1.393 . S
C696 C695 1.391 . S
H697 C705 0.950 . S
H698 C710 0.950 . S
H699 C707 0.950 . S
H700 C709 0.950 . S
H701 C711 0.950 . S
H702 C713 0.950 . S
H703 C715 0.950 . S
H704 C716 0.950 . S
C705 H697 0.950 . S
C705 C706 1.386 . S
C705 C707 1.391 . S
C706 C705 1.386 . S
C706 C710 1.393 . S
C707 H699 0.950 . S
C707 C705 1.391 . S
C707 C708 1.400 . S
C708 C707 1.400 . S
C708 C709 1.398 . S
C708 C714 1.491 . S
C709 H700 0.950 . S
C709 C708 1.398 . S
C709 C710 1.391 . S
C710 H698 0.950 . S
C710 C706 1.393 . S
C710 C709 1.391 . S
C711 H701 0.950 . S
C711 C712 1.386 . S
C711 C713 1.391 . S
C712 C711 1.386 . S
C712 C716 1.393 . S
C713 H702 0.950 . S
C713 C711 1.391 . S
C713 C714 1.400 . S
C714 C708 1.491 . S
C714 C713 1.400 . S
C714 C715 1.398 . S
C715 H703 0.950 . S
C715 C714 1.398 . S
C715 C716 1.391 . S
C716 H704 0.950 . S
C716 C712 1.393 . S
C716 C715 1.391 . S
H717 C725 0.950 . S
H718 C730 0.950 . S
H719 C727 0.950 . S
H720 C729 0.950 . S
H721 C731 0.950 . S
H722 C733 0.950 . S
H723 C735 0.950 . S
H724 C736 0.950 . S
C725 H717 0.950 . S
C725 C726 1.386 . S
C725 C727 1.391 . S
C726 C725 1.386 . S
C726 C730 1.393 . S
C727 H719 0.950 . S
C727 C725 1.391 . S
C727 C728 1.400 . S
C728 C727 1.400 . S
C728 C729 1.398 . S
C728 C734 1.491 . S
C729 H720 0.950 . S
C729 C728 1.398 . S
C729 C730 1.391 . S
C730 H718 0.950 . S
C730 C726 1.393 . S
C730 C729 1.391 . S
C731 H721 0.950 . S
C731 C732 1.386 . S
C731 C733 1.391 . S
C732 C731 1.386 . S
C732 C736 1.393 . S
C733 H722 0.950 . S
C733 C731 1.391 . S
C733 C734 1.400 . S
C734 C728 1.491 . S
C734 C733 1.400 . S
C734 C735 1.398 . S
C735 H723 0.950 . S
C735 C734 1.398 . S
C735 C736 1.391 . S
C736 H724 0.950 . S
C736 C732 1.393 . S
C736 C735 1.391 . S
H737 C745 0.950 . S
H738 C750 0.950 . S
H739 C747 0.950 . S
H740 C749 0.950 . S
H741 C751 0.950 . S
H742 C753 0.950 . S
H743 C755 0.950 . S
H744 C756 0.950 . S
C745 H737 0.950 . S
C745 C746 1.386 . S
C745 C747 1.391 . S
C746 C745 1.386 . S
C746 C750 1.393 . S
C747 H739 0.950 . S
C747 C745 1.391 . S
C747 C748 1.400 . S
C748 C747 1.400 . S
C748 C749 1.398 . S
C748 C754 1.491 . S
C749 H740 0.950 . S
C749 C748 1.398 . S
C749 C750 1.391 . S
C750 H738 0.950 . S
C750 C746 1.393 . S
C750 C749 1.391 . S
C751 H741 0.950 . S
C751 C752 1.386 . S
C751 C753 1.391 . S
C752 C751 1.386 . S
C752 C756 1.393 . S
C753 H742 0.950 . S
C753 C751 1.391 . S
C753 C754 1.400 . S
C754 C748 1.491 . S
C754 C753 1.400 . S
C754 C755 1.398 . S
C755 H743 0.950 . S
C755 C754 1.398 . S
C755 C756 1.391 . S
C756 H744 0.950 . S
C756 C752 1.393 . S
C756 C755 1.391 . S
H757 C765 0.950 . S
H758 C770 0.950 . S
H759 C767 0.950 . S
H760 C769 0.950 . S
H761 C771 0.950 . S
H762 C773 0.950 . S
H763 C775 0.950 . S
H764 C776 0.950 . S
C765 H757 0.950 . S
C765 C766 1.386 . S
C765 C767 1.391 . S
C766 C765 1.386 . S
C766 C770 1.393 . S
C767 H759 0.950 . S
C767 C765 1.391 . S
C767 C768 1.400 . S
C768 C767 1.400 . S
C768 C769 1.398 . S
C768 C774 1.491 . S
C769 H760 0.950 . S
C769 C768 1.398 . S
C769 C770 1.391 . S
C770 H758 0.950 . S
C770 C766 1.393 . S
C770 C769 1.391 . S
C771 H761 0.950 . S
C771 C772 1.386 . S
C771 C773 1.391 . S
C772 C771 1.386 . S
C772 C776 1.393 . S
C773 H762 0.950 . S
C773 C771 1.391 . S
C773 C774 1.400 . S
C774 C768 1.491 . S
C774 C773 1.400 . S
C774 C775 1.398 . S
C775 H763 0.950 . S
C775 C774 1.398 . S
C775 C776 1.391 . S
C776 H764 0.950 . S
C776 C772 1.393 . S
C776 C775 1.391 . S
H777 C785 0.950 . S
H778 C790 0.950 . S
H779 C787 0.950 . S
H780 C789 0.950 . S
H781 C791 0.950 . S
H782 C793 0.950 . S
H783 C795 0.950 . S
H784 C796 0.950 . S
C785 H777 0.950 . S
C785 C786 1.386 . S
C785 C787 1.391 . S
C786 C785 1.386 . S
C786 C790 1.393 . S
C787 H779 0.950 . S
C787 C785 1.391 . S
C787 C788 1.400 . S
C788 C787 1.400 . S
C788 C789 1.398 . S
C788 C794 1.491 . S
C789 H780 0.950 . S
C789 C788 1.398 . S
C789 C790 1.391 . S
C790 H778 0.950 . S
C790 C786 1.393 . S
C790 C789 1.391 . S
C791 H781 0.950 . S
C791 C792 1.386 . S
C791 C793 1.391 . S
C792 C791 1.386 . S
C792 C796 1.393 . S
C793 H782 0.950 . S
C793 C791 1.391 . S
C793 C794 1.400 . S
C794 C788 1.491 . S
C794 C793 1.400 . S
C794 C795 1.398 . S
C795 H783 0.950 . S
C795 C794 1.398 . S
C795 C796 1.391 . S
C796 H784 0.950 . S
C796 C792 1.393 . S
C796 C795 1.391 . S
H797 C805 0.950 . S
H798 C810 0.950 . S
H799 C807 0.950 . S
H800 C809 0.950 . S
H801 C811 0.950 . S
H802 C813 0.950 . S
H803 C815 0.950 . S
H804 C816 0.950 . S
C805 H797 0.950 . S
C805 C806 1.386 . S
C805 C807 1.391 . S
C806 C805 1.386 . S
C806 C810 1.393 . S
C807 H799 0.950 . S
C807 C805 1.391 . S
C807 C808 1.400 . S
C808 C807 1.400 . S
C808 C809 1.398 . S
C808 C814 1.491 . S
C809 H800 0.950 . S
C809 C808 1.398 . S
C809 C810 1.391 . S
C810 H798 0.950 . S
C810 C806 1.393 . S
C810 C809 1.391 . S
C811 H801 0.950 . S
C811 C812 1.386 . S
C811 C813 1.391 . S
C812 C811 1.386 . S
C812 C816 1.393 . S
C813 H802 0.950 . S
C813 C811 1.391 . S
C813 C814 1.400 . S
C814 C808 1.491 . S
C814 C813 1.400 . S
C814 C815 1.398 . S
C815 H803 0.950 . S
C815 C814 1.398 . S
C815 C816 1.391 . S
C816 H804 0.950 . S
C816 C812 1.393 . S
C816 C815 1.391 . S
H817 C825 0.950 . S
H818 C830 0.950 . S
H819 C827 0.950 . S
H820 C829 0.950 . S
H821 C831 0.950 . S
H822 C833 0.950 . S
H823 C835 0.950 . S
H824 C836 0.950 . S
C825 H817 0.950 . S
C825 C826 1.386 1_556 S
C825 C827 1.391 . S
C826 C825 1.386 1_554 S
C826 C830 1.393 . S
C827 H819 0.950 . S
C827 C825 1.391 . S
C827 C828 1.400 . S
C828 C827 1.400 . S
C828 C829 1.398 . S
C828 C834 1.491 . S
C829 H820 0.950 . S
C829 C828 1.398 . S
C829 C830 1.391 1_556 S
C830 H818 0.950 . S
C830 C826 1.393 . S
C830 C829 1.391 1_554 S
C831 H821 0.950 . S
C831 C832 1.386 . S
C831 C833 1.391 . S
C832 C831 1.386 . S
C832 C836 1.393 . S
C833 H822 0.950 . S
C833 C831 1.391 . S
C833 C834 1.400 . S
C834 C828 1.491 . S
C834 C833 1.400 . S
C834 C835 1.398 . S
C835 H823 0.950 . S
C835 C834 1.398 . S
C835 C836 1.391 . S
C836 H824 0.950 . S
C836 C832 1.393 . S
C836 C835 1.391 . S
H837 C845 0.946 1_554 S
H838 C850 0.950 . S
H839 C847 0.950 . S
H840 C849 0.950 . S
H841 C851 0.950 . S
H842 C853 0.950 . S
H843 C855 0.950 . S
H844 C856 0.950 . S
C845 H837 0.946 1_556 S
C845 C846 1.386 1_556 S
C845 C847 1.394 . S
C846 C845 1.386 1_554 S
C846 C850 1.389 1_554 S
C847 H839 0.950 . S
C847 C845 1.394 . S
C847 C848 1.400 . S
C848 C847 1.400 . S
C848 C849 1.398 . S
C848 C854 1.491 . S
C849 H840 0.950 . S
C849 C848 1.398 . S
C849 C850 1.391 . S
C850 H838 0.950 . S
C850 C846 1.389 1_556 S
C850 C849 1.391 . S
C851 H841 0.950 . S
C851 C852 1.386 . S
C851 C853 1.391 . S
C852 C851 1.386 . S
C852 C856 1.393 . S
C853 H842 0.950 . S
C853 C851 1.391 . S
C853 C854 1.400 . S
C854 C848 1.491 . S
C854 C853 1.400 . S
C854 C855 1.398 . S
C855 H843 0.950 . S
C855 C854 1.398 . S
C855 C856 1.391 . S
C856 H844 0.950 . S
C856 C852 1.393 . S
C856 C855 1.391 . S
H857 C865 0.950 . S
H858 C870 0.950 . S
H859 C867 0.950 . S
H860 C869 0.950 . S
H861 C871 0.950 . S
H862 C873 0.950 . S
H863 C875 0.950 . S
H864 C876 0.950 . S
C865 H857 0.950 . S
C865 C866 1.386 . S
C865 C867 1.391 . S
C866 C865 1.386 . S
C866 C870 1.393 . S
C867 H859 0.950 . S
C867 C865 1.391 . S
C867 C868 1.400 . S
C868 C867 1.400 . S
C868 C869 1.398 . S
C868 C874 1.491 . S
C869 H860 0.950 . S
C869 C868 1.398 . S
C869 C870 1.391 . S
C870 H858 0.950 . S
C870 C866 1.393 . S
C870 C869 1.391 . S
C871 H861 0.950 . S
C871 C872 1.386 . S
C871 C873 1.391 . S
C872 C871 1.386 . S
C872 C876 1.393 . S
C873 H862 0.950 . S
C873 C871 1.391 . S
C873 C874 1.400 . S
C874 C868 1.491 . S
C874 C873 1.400 . S
C874 C875 1.398 . S
C875 H863 0.950 . S
C875 C874 1.398 . S
C875 C876 1.391 . S
C876 H864 0.950 . S
C876 C872 1.393 . S
C876 C875 1.391 . S
H877 C885 0.950 . S
H878 C890 0.950 . S
H879 C887 0.950 . S
H880 C889 0.950 . S
H881 C891 0.950 . S
H882 C893 0.950 . S
H883 C895 0.950 . S
H884 C896 0.950 . S
C885 H877 0.950 . S
C885 C886 1.386 . S
C885 C887 1.391 . S
C886 C885 1.386 . S
C886 C890 1.393 . S
C887 H879 0.950 . S
C887 C885 1.391 . S
C887 C888 1.400 . S
C888 C887 1.400 . S
C888 C889 1.398 . S
C888 C894 1.491 . S
C889 H880 0.950 . S
C889 C888 1.398 . S
C889 C890 1.391 . S
C890 H878 0.950 . S
C890 C886 1.393 . S
C890 C889 1.391 . S
C891 H881 0.950 . S
C891 C892 1.386 . S
C891 C893 1.391 . S
C892 C891 1.386 . S
C892 C896 1.393 . S
C893 H882 0.950 . S
C893 C891 1.391 . S
C893 C894 1.400 . S
C894 C888 1.491 . S
C894 C893 1.400 . S
C894 C895 1.398 . S
C895 H883 0.950 . S
C895 C894 1.398 . S
C895 C896 1.391 . S
C896 H884 0.950 . S
C896 C892 1.393 . S
C896 C895 1.391 . S
H897 C905 0.950 . S
H898 C910 0.950 . S
H899 C907 0.950 . S
H900 C909 0.950 . S
H901 C911 0.950 . S
H902 C913 0.950 . S
H903 C915 0.950 . S
H904 C916 0.950 . S
C905 H897 0.950 . S
C905 C906 1.386 . S
C905 C907 1.391 . S
C906 C905 1.386 . S
C906 C910 1.393 . S
C907 H899 0.950 . S
C907 C905 1.391 . S
C907 C908 1.400 . S
C908 C907 1.400 . S
C908 C909 1.398 . S
C908 C914 1.491 . S
C909 H900 0.950 . S
C909 C908 1.398 . S
C909 C910 1.391 . S
C910 H898 0.950 . S
C910 C906 1.393 . S
C910 C909 1.391 . S
C911 H901 0.950 . S
C911 C912 1.386 . S
C911 C913 1.391 . S
C912 C911 1.386 . S
C912 C916 1.393 . S
C913 H902 0.950 . S
C913 C911 1.391 . S
C913 C914 1.400 . S
C914 C908 1.491 . S
C914 C913 1.400 . S
C914 C915 1.398 . S
C915 H903 0.950 . S
C915 C914 1.398 . S
C915 C916 1.391 . S
C916 H904 0.950 . S
C916 C912 1.393 . S
C916 C915 1.391 . S
H917 C925 0.950 . S
H918 C930 0.950 . S
H919 C927 0.950 . S
H920 C929 0.950 . S
H921 C931 0.950 . S
H922 C933 0.950 . S
H923 C935 0.950 . S
H924 C936 0.950 . S
C925 H917 0.950 . S
C925 C926 1.386 . S
C925 C927 1.391 . S
C926 C925 1.386 . S
C926 C930 1.393 . S
C927 H919 0.950 . S
C927 C925 1.391 . S
C927 C928 1.400 . S
C928 C927 1.400 . S
C928 C929 1.398 . S
C928 C934 1.491 . S
C929 H920 0.950 . S
C929 C928 1.398 . S
C929 C930 1.391 . S
C930 H918 0.950 . S
C930 C926 1.393 . S
C930 C929 1.391 . S
C931 H921 0.950 . S
C931 C932 1.386 . S
C931 C933 1.391 . S
C932 C931 1.386 . S
C932 C936 1.393 . S
C933 H922 0.950 . S
C933 C931 1.391 . S
C933 C934 1.400 . S
C934 C928 1.491 . S
C934 C933 1.400 . S
C934 C935 1.398 . S
C935 H923 0.950 . S
C935 C934 1.398 . S
C935 C936 1.391 . S
C936 H924 0.950 . S
C936 C932 1.393 . S
C936 C935 1.391 . S
H937 C945 0.950 . S
H938 C950 0.950 . S
H939 C947 0.950 . S
H940 C949 0.950 . S
H941 C951 0.950 . S
H942 C953 0.950 . S
H943 C955 0.950 . S
H944 C956 0.950 . S
C945 H937 0.950 . S
C945 C946 1.386 . S
C945 C947 1.391 . S
C946 C945 1.386 . S
C946 C950 1.393 . S
C947 H939 0.950 . S
C947 C945 1.391 . S
C947 C948 1.400 . S
C948 C947 1.400 . S
C948 C949 1.398 . S
C948 C954 1.491 . S
C949 H940 0.950 . S
C949 C948 1.398 . S
C949 C950 1.391 . S
C950 H938 0.950 . S
C950 C946 1.393 . S
C950 C949 1.391 . S
C951 H941 0.950 . S
C951 C952 1.386 . S
C951 C953 1.391 . S
C952 C951 1.386 . S
C952 C956 1.393 . S
C953 H942 0.950 . S
C953 C951 1.391 . S
C953 C954 1.400 . S
C954 C948 1.491 . S
C954 C953 1.400 . S
C954 C955 1.398 . S
C955 H943 0.950 . S
C955 C954 1.398 . S
C955 C956 1.391 . S
C956 H944 0.950 . S
C956 C952 1.393 . S
C956 C955 1.391 . S
H957 C965 0.950 . S
H958 C970 0.950 . S
H959 C967 0.950 . S
H960 C969 0.950 . S
H961 C971 0.950 . S
H962 C973 0.950 . S
H963 C975 0.950 . S
H964 C976 0.950 . S
C965 H957 0.950 . S
C965 C966 1.386 . S
C965 C967 1.391 . S
C966 C965 1.386 . S
C966 C970 1.393 . S
C967 H959 0.950 . S
C967 C965 1.391 . S
C967 C968 1.400 . S
C968 C967 1.400 . S
C968 C969 1.398 . S
C968 C974 1.491 . S
C969 H960 0.950 . S
C969 C968 1.398 . S
C969 C970 1.391 . S
C970 H958 0.950 . S
C970 C966 1.393 . S
C970 C969 1.391 . S
C971 H961 0.950 . S
C971 C972 1.386 . S
C971 C973 1.391 . S
C972 C971 1.386 . S
C972 C976 1.393 . S
C973 H962 0.950 . S
C973 C971 1.391 . S
C973 C974 1.400 . S
C974 C968 1.491 . S
C974 C973 1.400 . S
C974 C975 1.398 . S
C975 H963 0.950 . S
C975 C974 1.398 . S
C975 C976 1.391 . S
C976 H964 0.950 . S
C976 C972 1.393 . S
C976 C975 1.391 . S
H977 C985 0.950 . S
H978 C990 0.950 . S
H979 C987 0.950 . S
H980 C989 0.950 . S
H981 C991 0.950 . S
H982 C993 0.950 . S
H983 C995 0.950 . S
H984 C996 0.950 . S
C985 H977 0.950 . S
C985 C986 1.386 . S
C985 C987 1.391 . S
C986 C985 1.386 . S
C986 C990 1.393 . S
C987 H979 0.950 . S
C987 C985 1.391 . S
C987 C988 1.400 . S
C988 C987 1.400 . S
C988 C989 1.398 . S
C988 C994 1.491 . S
C989 H980 0.950 . S
C989 C988 1.398 . S
C989 C990 1.391 . S
C990 H978 0.950 . S
C990 C986 1.393 . S
C990 C989 1.391 . S
C991 H981 0.950 . S
C991 C992 1.386 . S
C991 C993 1.391 . S
C992 C991 1.386 . S
C992 C996 1.393 . S
C993 H982 0.950 . S
C993 C991 1.391 . S
C993 C994 1.400 . S
C994 C988 1.491 . S
C994 C993 1.400 . S
C994 C995 1.398 . S
C995 H983 0.950 . S
C995 C994 1.398 . S
C995 C996 1.391 . S
C996 H984 0.950 . S
C996 C992 1.393 . S
C996 C995 1.391 . S
H997 C1005 0.950 . S
H998 C1010 0.950 . S
H999 C1007 0.950 . S
H1000 C1009 0.950 . S
H1001 C1011 0.950 . S
H1002 C1013 0.950 . S
H1003 C1015 0.950 . S
H1004 C1016 0.950 . S
C1005 H997 0.950 . S
C1005 C1006 1.386 . S
C1005 C1007 1.391 . S
C1006 C1005 1.386 . S
C1006 C1010 1.393 . S
C1007 H999 0.950 . S
C1007 C1005 1.391 . S
C1007 C1008 1.400 . S
C1008 C1007 1.400 . S
C1008 C1009 1.398 . S
C1008 C1014 1.491 . S
C1009 H1000 0.950 . S
C1009 C1008 1.398 . S
C1009 C1010 1.391 . S
C1010 H998 0.950 . S
C1010 C1006 1.393 . S
C1010 C1009 1.391 . S
C1011 H1001 0.950 . S
C1011 C1012 1.386 . S
C1011 C1013 1.391 . S
C1012 C1011 1.386 . S
C1012 C1016 1.393 . S
C1013 H1002 0.950 . S
C1013 C1011 1.391 . S
C1013 C1014 1.400 . S
C1014 C1008 1.491 . S
C1014 C1013 1.400 . S
C1014 C1015 1.398 . S
C1015 H1003 0.950 . S
C1015 C1014 1.398 . S
C1015 C1016 1.391 . S
C1016 H1004 0.950 . S
C1016 C1012 1.393 . S
C1016 C1015 1.391 . S
C546 C39 1.750 . S
C552 C444 1.720 . S
C566 C125 0.846 . S
C572 C476 0.844 . S
C592 C535 2.269 . S
C586 C211 2.139 . S
C612 C464 0.768 . S
C606 C273 0.783 . S
C626 C335 1.848 . S
C632 C494 1.844 . S
C652 C516 1.621 . S
C646 C439 1.632 . S
C672 C485 1.735 . S
C666 C187 1.737 . S
C686 C291 1.729 . S
C692 C525 1.681 . S
C712 C474 2.081 . S
C706 C359 1.889 . S
C726 C421 0.828 . S
C732 C504 0.818 . S
C746 C63 2.067 . S
C752 C507 2.184 . S
C772 C446 2.012 . S
C766 C143 2.023 . S
C792 C454 1.999 . S
C786 C285 1.899 . S
C812 C495 1.877 . S
C806 C365 1.924 . S
C832 C508 2.102 . S
C826 C409 2.095 . S
C852 C445 1.843 . S
C846 C69 1.897 . S
C872 C505 1.843 . S
C866 C137 1.759 . S
C886 C199 0.346 . S
C892 C506 0.397 . S
C912 C475 2.009 . S
C906 C433 1.866 . S
C932 C536 0.408 . S
C926 C51 0.354 . S
C952 C463 1.652 . S
C946 C113 1.732 . S
C972 C477 1.916 . S
C966 C217 1.963 . S
C986 C261 2.026 . S
C992 C526 2.033 . S
C1006 C347 0.753 . S
C1012 C473 0.741 . S
