# Generated by pormake.
# Topology zzz, (3,6)-cn, num edge types: 1
# Building blocks:
#     Node 0, Type 0, BuildingBlock: PAMTOO_clean_linker_0, # of connection points: 3
#     Node 1, Type 0, BuildingBlock: PAMTOO_clean_linker_0, # of connection points: 3
#     Node 2, Type 0, BuildingBlock: PAMTOO_clean_linker_0, # of connection points: 3
#     Node 3, Type 0, BuildingBlock: PAMTOO_clean_linker_0, # of connection points: 3
#     Node 4, Type 0, BuildingBlock: PAMTOO_clean_linker_0, # of connection points: 3
#     Node 5, Type 0, BuildingBlock: PAMTOO_clean_linker_0, # of connection points: 3
#     Node 6, Type 0, BuildingBlock: PAMTOO_clean_linker_0, # of connection points: 3
#     Node 7, Type 0, BuildingBlock: PAMTOO_clean_linker_0, # of connection points: 3
#     Node 8, Type 1, BuildingBlock: BETDAH_clean_sbu_0, # of connection points: 6
#     Node 9, Type 1, BuildingBlock: BETDAH_clean_sbu_0, # of connection points: 6
#     Node 10, Type 1, BuildingBlock: BETDAH_clean_sbu_0, # of connection points: 6
#     Node 11, Type 1, BuildingBlock: BETDAH_clean_sbu_0, # of connection points: 6
#     Edge 12, Type (0, 1), None
#     Edge 13, Type (0, 1), None
#     Edge 14, Type (0, 1), None
#     Edge 15, Type (0, 1), None
#     Edge 16, Type (0, 1), None
#     Edge 17, Type (0, 1), None
#     Edge 18, Type (0, 1), None
#     Edge 19, Type (0, 1), None
#     Edge 20, Type (0, 1), None
#     Edge 21, Type (0, 1), None
#     Edge 22, Type (0, 1), None
#     Edge 23, Type (0, 1), None
#     Edge 24, Type (0, 1), None
#     Edge 25, Type (0, 1), None
#     Edge 26, Type (0, 1), None
#     Edge 27, Type (0, 1), None
#     Edge 28, Type (0, 1), None
#     Edge 29, Type (0, 1), None
#     Edge 30, Type (0, 1), None
#     Edge 31, Type (0, 1), None
#     Edge 32, Type (0, 1), None
#     Edge 33, Type (0, 1), None
#     Edge 34, Type (0, 1), None
#     Edge 35, Type (0, 1), None
# Relax obj value: 0.654
# Max RMSD: 0.258
# Mean RMSD: 0.149
data_MOF--net-zzz--node1-BETDAH_clean_sbu_0--node2-PAMTOO_clean_linker_0--edge1-none
_symmetry_space_group_name_H-M    P1
_symmetry_Int_Tables_number       1
_symmetry_cell_setting            triclinic
loop_
_symmetry_equiv_pos_as_xyz
'x, y, z'
_cell_length_a     23.024471
_cell_length_b     22.953917
_cell_length_c     6.9399667
_cell_angle_alpha  89.597082
_cell_angle_beta   90.45274
_cell_angle_gamma 90.119
loop_
_atom_site_label
_atom_site_type_symbol
_atom_site_fract_x
_atom_site_fract_y
_atom_site_fract_z
_atom_type_partial_charge
H0 H 0.90901 0.45793 0.43612 0.0
H1 H 0.75389 0.49952 0.1187 0.0
H2 H 0.81664 0.61673 0.55936 0.0
H3 H 0.65238 0.58964 0.44122 0.0
C4 C 0.66864 0.57142 0.30732 0.0
O5 O 0.72654 0.59256 0.28534 0.0
H6 H 0.66989 0.52362 0.32867 0.0
C7 C 0.87308 0.48746 0.41168 0.0
C8 C 0.87189 0.53931 0.51678 0.0
C9 C 0.8307 0.47348 0.27064 0.0
C10 C 0.78499 0.51079 0.2306 0.0
C11 C 0.77627 0.56086 0.33657 0.0
C12 C 0.82093 0.57647 0.48074 0.0
H13 H 0.06787 0.87634 0.46748 0.0
H14 H 0.08227 0.74722 0.12818 0.0
H15 H 0.95737 0.81314 0.53648 0.0
H16 H 1.02719 0.65744 0.39447 0.0
C17 C 0.99161 0.66499 0.29072 0.0
O18 O 0.98374 0.72604 0.25957 0.0
H19 H 0.95114 0.64956 0.35932 0.0
C20 C 0.09752 0.87094 0.39668 0.0
C21 C 1.03942 0.8707 0.51012 0.0
C22 C 0.10869 0.82572 0.26657 0.0
C23 C 0.07064 0.77921 0.23551 0.0
C24 C 1.0178 0.77194 0.32982 0.0
C25 C 0.99929 0.81665 0.4681 0.0
H26 H 0.7051 0.0749 0.48862 0.0
H27 H 0.83361 0.08581 0.1477 0.0
H28 H 0.76138 0.96 0.54856 0.0
H29 H 0.92422 0.94762 0.37568 0.0
C30 C 0.9109 0.98866 0.30328 0.0
O31 O 0.84954 0.98453 0.27288 0.0
H32 H 0.91996 1.0245 0.404 0.0
C33 C 0.71188 0.10499 0.41921 0.0
C34 C 0.70908 0.04571 0.52953 0.0
C35 C 0.75688 0.11486 0.28707 0.0
C36 C 0.80134 0.07478 0.25476 0.0
C37 C 0.80585 1.02049 0.3459 0.0
C38 C 0.76033 1.0029 0.48326 0.0
H39 H 0.4551 0.6795 0.45731 0.0
H40 H 0.49392 0.83923 0.16078 0.0
H41 H 0.61738 0.76778 0.57042 0.0
H42 H 0.55346 0.92581 0.42696 0.0
C43 C 0.58781 0.91741 0.32142 0.0
O44 O 0.59441 0.85643 0.29447 0.0
H45 H 0.62948 0.93242 0.38432 0.0
C46 C 0.48398 0.71635 0.43913 0.0
C47 C 0.53659 0.71662 0.54247 0.0
C48 C 0.46914 0.76007 0.30288 0.0
C49 C 0.50571 0.807 0.26923 0.0
C50 C 0.55861 0.81214 0.36362 0.0
C51 C 0.5751 0.76603 0.50155 0.0
H52 H 0.20419 0.57476 0.28183 0.0
H53 H 0.33451 0.58439 0.62325 0.0
H54 H 0.26563 0.46427 0.19954 0.0
H55 H 0.43037 0.45439 0.38408 0.0
C56 C 0.41442 0.49525 0.44851 0.0
O57 O 0.35371 0.48715 0.47727 0.0
H58 H 0.42151 0.53059 0.34383 0.0
C59 C 0.21038 0.60362 0.35617 0.0
C60 C 0.20946 0.5465 0.236 0.0
C61 C 0.25596 0.61297 0.48865 0.0
C62 C 0.30194 0.57417 0.51478 0.0
C63 C 0.30814 0.5224 0.41285 0.0
C64 C 0.2629 0.50558 0.27288 0.0
H65 H 1.01671 0.20153 0.30505 0.0
H66 H 1.00019 0.3405 0.59815 0.0
H67 H 0.10394 0.27887 0.12224 0.0
H68 H 0.13917 0.43409 0.37832 0.0
C69 C 0.10977 0.40922 0.47338 0.0
O70 O 0.07175 0.37532 0.35611 0.0
H71 H 0.13947 0.37866 0.5504 0.0
C72 C 0.99136 0.20564 0.3931 0.0
C73 C 0.04037 0.20936 0.24021 0.0
C74 C 0.98044 0.25396 0.51017 0.0
C75 C 1.01314 0.30513 0.505 0.0
C76 C 0.05656 0.31636 0.37062 0.0
C77 C 0.07236 0.2701 0.23331 0.0
H78 H 0.37301 1.01136 0.29174 0.0
H79 H 0.23514 0.99384 0.58826 0.0
H80 H 0.2979 0.10328 0.12113 0.0
H81 H 0.15236 0.14081 0.4427 0.0
C82 C 0.16772 0.09817 0.49938 0.0
O83 O 0.20151 0.07085 0.3536 0.0
H84 H 0.19651 0.10894 0.6235 0.0
C85 C 0.3688 0.98535 0.37922 0.0
C86 C 0.36538 1.03584 0.2287 0.0
C87 C 0.32107 0.97434 0.4991 0.0
C88 C 0.27002 1.00691 0.49325 0.0
C89 C 0.25947 0.05238 0.36273 0.0
C90 C 0.3057 0.0692 0.22653 0.0
H91 H 0.57432 0.38236 0.29052 0.0
H92 H 0.5817 0.25754 0.65344 0.0
H93 H 0.46691 0.31651 0.19433 0.0
H94 H 0.49913 0.1533 0.31904 0.0
C95 C 0.51525 0.17062 0.45536 0.0
O96 O 0.49214 0.22791 0.47258 0.0
H97 H 0.56313 0.17375 0.44408 0.0
C98 C 0.60318 0.377 0.36622 0.0
C99 C 0.5463 0.3764 0.24269 0.0
C100 C 0.61196 0.33306 0.50564 0.0
C101 C 0.57213 0.28845 0.53858 0.0
C102 C 0.52283 0.27856 0.42494 0.0
C103 C 0.50658 0.3218 0.27693 0.0
Ho104 Ho 0.08038 1.02179 0.94113 0.0
Ho105 Ho 0.98772 0.05537 0.80064 0.0
C106 C 1.02135 0.92656 0.66105 0.0
C107 C 0.1767 0.98166 0.07648 0.0
C108 C 0.20884 0.93103 1.00238 0.0
C109 C 0.23884 0.90087 0.14596 0.0
C110 C 0.21166 0.85261 0.22843 0.0
C111 C 0.15988 0.83241 0.14328 0.0
C112 C 0.14922 0.84707 0.94913 0.0
C113 C 0.17694 0.89634 0.8734 0.0
C114 C 0.1132 0.06426 0.58299 0.0
C115 C 0.05118 0.1537 0.07985 0.0
C116 C 0.8908 0.10601 0.70139 0.0
C117 C 0.86562 0.16123 0.76809 0.0
C118 C 0.84121 0.19345 0.61915 0.0
C119 C 0.87525 0.23686 0.53749 0.0
C120 C 0.92813 0.25135 0.62897 0.0
C121 C 0.93482 0.23697 0.8245 0.0
C122 C 0.89965 0.19261 0.89994 0.0
C123 C 0.95229 0.9968 0.12315 0.0
O124 O 0.04715 0.93154 0.83154 0.0
O125 O 1.00314 0.9776 0.59309 0.0
O126 O 0.17449 1.02744 0.96604 0.0
O127 O 0.12617 0.9695 0.15177 0.0
O128 O 0.11923 1.01148 0.64234 0.0
O129 O 0.07725 0.08775 0.70097 0.0
O130 O 1.00996 0.14298 0.95092 0.0
O131 O 0.08477 0.10809 0.11898 0.0
O132 O 0.89463 0.06583 0.8307 0.0
O133 O 0.93854 0.10982 0.60137 0.0
O134 O 0.93752 0.98282 0.94997 0.0
O135 O 0.9963 1.03168 0.1134 0.0
H136 H 0.27313 0.92222 0.22184 0.0
H137 H 0.22405 0.83974 0.37305 0.0
H138 H 0.11213 0.82927 0.87251 0.0
H139 H 0.16097 0.9145 0.73931 0.0
H140 H 0.8074 0.17442 0.53531 0.0
H141 H 0.8661 0.24849 0.38961 0.0
H142 H 0.97264 0.25133 0.90483 0.0
H143 H 0.91021 0.17386 0.03939 0.0
Ho144 Ho 0.5525 0.08528 0.96103 0.0
Ho145 Ho 0.52367 0.99451 0.80773 0.0
C146 C 0.65228 1.029 0.67874 0.0
C147 C 0.602 0.17828 0.09194 0.0
C148 C 0.65148 0.21203 0.01686 0.0
C149 C 0.68029 0.24294 0.16033 0.0
C150 C 0.73009 0.21816 0.24076 0.0
C151 C 0.75111 0.1663 0.15982 0.0
C152 C 0.7365 0.15505 0.96605 0.0
C153 C 0.68683 0.18168 0.88851 0.0
C154 C 0.50536 0.12438 0.62042 0.0
C155 C 0.42278 0.05194 0.08064 0.0
C156 C 0.47328 0.90011 0.69062 0.0
C157 C 0.42162 0.87103 0.77121 0.0
C158 C 0.38949 0.84165 0.63248 0.0
C159 C 0.34234 0.8706 0.55014 0.0
C160 C 0.32559 0.92409 0.63006 0.0
C161 C 0.34177 0.93529 0.82165 0.0
C162 C 0.38946 0.90506 0.89896 0.0
C163 C 0.57664 0.95704 0.13929 0.0
O164 O 0.64378 0.05929 0.83847 0.0
O165 O 0.60409 1.00486 0.61238 0.0
O166 O 0.55449 0.17962 0.99134 0.0
O167 O 0.61412 0.12566 0.15334 0.0
O168 O 0.48858 0.1399 0.78905 0.0
O169 O 0.53835 0.07927 0.64147 0.0
O170 O 0.43153 1.02376 0.91724 0.0
O171 O 0.47148 0.07297 0.15294 0.0
O172 O 0.51938 0.89978 0.7979 0.0
O173 O 0.46419 0.95144 0.61367 0.0
O174 O 0.59231 0.94269 0.96848 0.0
O175 O 0.54061 0.99998 0.12651 0.0
H176 H 0.65695 0.27441 0.2414 0.0
H177 H 0.74269 0.23155 0.38406 0.0
H178 H 0.75438 0.11783 0.89215 0.0
H179 H 0.6685 0.16524 0.75556 0.0
H180 H 0.40928 0.80695 0.55628 0.0
H181 H 0.32853 0.85792 0.40734 0.0
H182 H 0.32604 0.97371 0.89393 0.0
H183 H 0.40943 0.92029 0.03102 0.0
Ho184 Ho 0.49234 0.5603 0.95681 0.0
Ho185 Ho 0.58344 0.53332 0.80347 0.0
C186 C 0.54769 0.66165 0.67401 0.0
C187 C 0.3986 0.60886 0.08195 0.0
C188 C 0.3662 0.65987 1.00833 0.0
C189 C 0.33656 0.68775 0.1541 0.0
C190 C 0.36617 0.73126 0.25361 0.0
C191 C 0.41852 0.75196 0.17573 0.0
C192 C 0.42914 0.74181 0.97908 0.0
C193 C 0.39865 0.69662 0.88902 0.0
C194 C 0.4541 0.50731 0.62957 0.0
C195 C 0.52865 0.43233 0.08954 0.0
C196 C 0.67757 0.48556 0.67991 0.0
C197 C 0.71164 0.43686 0.7614 0.0
C198 C 0.74161 0.40654 0.62066 0.0
C199 C 0.71539 0.35686 0.54548 0.0
C200 C 0.66359 0.33755 0.63075 0.0
C201 C 0.65388 0.35255 0.82418 0.0
C202 C 0.68152 0.40244 0.89533 0.0
C203 C 0.62188 0.58061 0.1424 0.0
O204 O 0.51801 0.65244 0.8344 0.0
O205 O 0.57178 0.61415 0.6069 0.0
O206 O 0.39801 0.56306 0.9747 0.0
O207 O 0.45055 0.61946 0.15117 0.0
O208 O 0.44035 0.49127 0.80135 0.0
O209 O 0.49746 0.54317 0.6385 0.0
O210 O 0.55853 0.44135 0.92912 0.0
O211 O 0.504 0.48004 0.15466 0.0
O212 O 0.67768 0.53355 0.77629 0.0
O213 O 0.62551 0.4722 0.61764 0.0
O214 O 0.63636 0.5989 0.97356 0.0
O215 O 0.57756 0.54649 0.12183 0.0
H216 H 0.30053 0.66632 0.21787 0.0
H217 H 0.35369 0.7406 0.39989 0.0
H218 H 0.46701 0.75989 0.90873 0.0
H219 H 0.41304 0.68092 0.75158 0.0
H220 H 0.77359 0.42871 0.53752 0.0
H221 H 0.72735 0.34307 0.40231 0.0
H222 H 0.6171 0.33498 0.9018 0.0
H223 H 0.66586 0.42171 0.02692 0.0
Ho224 Ho 1.02688 0.49548 0.94007 0.0
Ho225 Ho 0.05409 0.58267 0.7868 0.0
C226 C 0.92656 0.54971 0.65033 0.0
C227 C 0.98096 0.40018 0.07148 0.0
C228 C 0.92984 0.3671 1.00687 0.0
C229 C 0.9023 0.3399 0.16016 0.0
C230 C 0.85658 0.36954 0.24539 0.0
C231 C 0.83676 0.4207 0.15454 0.0
C232 C 0.84774 0.42821 0.95668 0.0
C233 C 0.89383 0.39727 0.87729 0.0
C234 C 0.08506 0.45258 0.63041 0.0
C235 C 0.15301 0.52956 0.08456 0.0
C236 C 0.10354 0.67744 0.66534 0.0
C237 C 0.15216 0.71059 0.75113 0.0
C238 C 0.18269 0.74233 0.61421 0.0
C239 C 0.23147 0.71633 0.53501 0.0
C240 C 0.25093 0.6635 0.61657 0.0
C241 C 0.23564 0.65143 0.80879 0.0
C242 C 0.18635 0.67885 0.88249 0.0
C243 C 1.00165 0.62373 0.11242 0.0
O244 O 0.93505 0.51951 0.81167 0.0
O245 O 0.97473 0.57326 0.58441 0.0
O246 O 1.02435 0.40089 0.95544 0.0
O247 O 0.97077 0.45175 0.14176 0.0
O248 O 0.09898 0.44462 0.80857 0.0
O249 O 0.04881 0.49582 0.62033 0.0
O250 O 0.14522 0.55814 0.9196 0.0
O251 O 0.10441 0.50649 0.14945 0.0
O252 O 0.05552 0.67731 0.75994 0.0
O253 O 0.11604 0.62552 0.60234 0.0
O254 O 0.98523 0.63592 0.93897 0.0
O255 O 1.03723 0.5804 0.10598 0.0
H256 H 0.92603 0.30835 0.24202 0.0
H257 H 0.84605 0.35999 0.39411 0.0
H258 H 0.83022 0.46507 0.87745 0.0
H259 H 0.91046 0.41054 0.73863 0.0
H260 H 0.16109 0.77627 0.53682 0.0
H261 H 0.24468 0.7302 0.39289 0.0
H262 H 0.25286 0.61358 0.88358 0.0
H263 H 0.16728 0.6625 0.01413 0.0
loop_
_geom_bond_atom_site_label_1
_geom_bond_atom_site_label_2
_geom_bond_distance
_geom_bond_site_symmetry_2
_ccdc_geom_bond_type
H0 C7 0.929 . S
H1 C10 0.930 . S
H2 C12 0.929 . S
H3 C4 0.969 . S
C4 H3 0.969 . S
C4 O5 1.550 . S
C4 H6 0.973 . S
O5 C4 1.550 . S
O5 C11 1.412 . S
H6 C4 0.973 . S
C7 H0 0.929 . S
C7 C8 1.400 . S
C7 C9 1.364 . S
C8 C7 1.400 . S
C8 C12 1.377 . S
C9 C7 1.364 . S
C9 C10 1.374 . S
C10 H1 0.930 . S
C10 C9 1.374 . S
C10 C11 1.383 . S
C11 O5 1.412 . S
C11 C10 1.383 . S
C11 C12 1.394 . S
C12 H2 0.929 . S
C12 C8 1.377 . S
C12 C11 1.394 . S
H13 C20 0.928 1_655 S
H14 C23 0.931 . S
H15 C25 0.929 1_655 S
H16 C17 0.969 . S
C17 H16 0.969 . S
C17 O18 1.550 1_455 S
C17 H19 0.973 1_455 S
O18 C17 1.550 1_655 S
O18 C24 1.412 1_655 S
H19 C17 0.973 1_655 S
C20 H13 0.928 1_455 S
C20 C21 1.399 . S
C20 C22 1.364 . S
C21 C20 1.399 . S
C21 C25 1.377 . S
C22 C20 1.364 . S
C22 C23 1.374 1_455 S
C23 H14 0.931 . S
C23 C22 1.374 1_655 S
C23 C24 1.383 1_655 S
C24 O18 1.412 1_455 S
C24 C23 1.383 1_455 S
C24 C25 1.394 . S
C25 H15 0.929 1_455 S
C25 C21 1.377 . S
C25 C24 1.394 . S
H26 C33 0.928 1_565 S
H27 C36 0.931 . S
H28 C38 0.929 1_565 S
H29 C30 0.969 . S
C30 H29 0.969 . S
C30 O31 1.550 1_545 S
C30 H32 0.973 1_545 S
O31 C30 1.550 1_565 S
O31 C37 1.412 1_565 S
H32 C30 0.973 1_565 S
C33 H26 0.928 1_545 S
C33 C34 1.399 . S
C33 C35 1.364 . S
C34 C33 1.399 . S
C34 C38 1.377 . S
C35 C33 1.364 . S
C35 C36 1.374 1_545 S
C36 H27 0.931 . S
C36 C35 1.374 1_565 S
C36 C37 1.383 1_565 S
C37 O31 1.412 1_545 S
C37 C36 1.383 1_545 S
C37 C38 1.394 . S
C38 H28 0.929 1_545 S
C38 C34 1.377 . S
C38 C37 1.394 . S
H39 C46 0.929 . S
H40 C49 0.930 . S
H41 C51 0.929 . S
H42 C43 0.969 . S
C43 H42 0.969 . S
C43 O44 1.550 . S
C43 H45 0.973 . S
O44 C43 1.550 . S
O44 C50 1.412 . S
H45 C43 0.973 . S
C46 H39 0.929 . S
C46 C47 1.400 . S
C46 C48 1.364 . S
C47 C46 1.400 . S
C47 C51 1.377 . S
C48 C46 1.364 . S
C48 C49 1.374 . S
C49 H40 0.930 . S
C49 C48 1.374 . S
C49 C50 1.383 . S
C50 O44 1.412 . S
C50 C49 1.383 . S
C50 C51 1.394 . S
C51 H41 0.929 . S
C51 C47 1.377 . S
C51 C50 1.394 . S
H52 C59 0.929 . S
H53 C62 0.930 . S
H54 C64 0.929 . S
H55 C56 0.969 . S
C56 H55 0.969 . S
C56 O57 1.550 . S
C56 H58 0.973 . S
O57 C56 1.550 . S
O57 C63 1.412 . S
H58 C56 0.973 . S
C59 H52 0.929 . S
C59 C60 1.400 . S
C59 C61 1.364 1_556 S
C60 C59 1.400 . S
C60 C64 1.377 . S
C61 C59 1.364 1_554 S
C61 C62 1.374 . S
C62 H53 0.930 . S
C62 C61 1.374 . S
C62 C63 1.383 . S
C63 O57 1.412 . S
C63 C62 1.383 . S
C63 C64 1.394 1_554 S
C64 H54 0.929 . S
C64 C60 1.377 . S
C64 C63 1.394 1_556 S
H65 C72 0.928 1_656 S
H66 C75 0.931 . S
H67 C77 0.928 1_655 S
H68 C69 0.969 . S
C69 H68 0.969 . S
C69 O70 1.550 1_455 S
C69 H71 0.973 1_455 S
O70 C69 1.550 1_655 S
O70 C76 1.412 1_655 S
H71 C69 0.973 1_655 S
C72 H65 0.928 1_454 S
C72 C73 1.400 1_554 S
C72 C74 1.364 . S
C73 C72 1.400 1_556 S
C73 C77 1.377 . S
C74 C72 1.364 . S
C74 C75 1.374 1_455 S
C75 H66 0.931 . S
C75 C74 1.374 1_655 S
C75 C76 1.383 1_655 S
C76 O70 1.412 1_455 S
C76 C75 1.383 1_455 S
C76 C77 1.395 1_554 S
C77 H67 0.928 1_455 S
C77 C73 1.377 . S
C77 C76 1.395 1_556 S
H78 C85 0.928 1_565 S
H79 C88 0.931 . S
H80 C90 0.928 1_565 S
H81 C82 0.969 . S
C82 H81 0.969 . S
C82 O83 1.550 1_545 S
C82 H84 0.973 1_545 S
O83 C82 1.550 1_565 S
O83 C89 1.412 1_565 S
H84 C82 0.973 1_565 S
C85 H78 0.928 1_545 S
C85 C86 1.400 . S
C85 C87 1.364 1_556 S
C86 C85 1.400 . S
C86 C90 1.377 . S
C87 C85 1.364 1_554 S
C87 C88 1.374 1_545 S
C88 H79 0.931 . S
C88 C87 1.374 1_565 S
C88 C89 1.383 1_565 S
C89 O83 1.412 1_545 S
C89 C88 1.383 1_545 S
C89 C90 1.395 1_554 S
C90 H80 0.928 1_545 S
C90 C86 1.377 . S
C90 C89 1.395 1_556 S
H91 C98 0.929 . S
H92 C101 0.930 . S
H93 C103 0.929 . S
H94 C95 0.969 . S
C95 H94 0.969 . S
C95 O96 1.550 . S
C95 H97 0.973 . S
O96 C95 1.550 . S
O96 C102 1.412 . S
H97 C95 0.973 . S
C98 H91 0.929 . S
C98 C99 1.400 . S
C98 C100 1.364 1_556 S
C99 C98 1.400 . S
C99 C103 1.377 . S
C100 C98 1.364 1_554 S
C100 C101 1.374 . S
C101 H92 0.930 . S
C101 C100 1.374 . S
C101 C102 1.383 . S
C102 O96 1.412 . S
C102 C101 1.383 . S
C102 C103 1.394 1_554 S
C103 H93 0.929 . S
C103 C99 1.377 . S
C103 C102 1.394 1_556 S
Ho104 C107 2.811 . S
Ho104 O124 2.322 1_554 S
Ho104 O126 2.378 . S
Ho104 O127 2.524 . S
Ho104 O128 2.381 1_554 S
Ho104 O129 2.669 1_564 S
Ho104 O131 2.346 1_565 S
Ho104 O135 2.305 1_455 S
Ho105 C116 2.811 . S
Ho105 O125 2.346 1_545 S
Ho105 O129 2.305 1_655 S
Ho105 O130 2.322 . S
Ho105 O132 2.378 . S
Ho105 O133 2.524 . S
Ho105 O134 2.381 . S
Ho105 O135 2.669 1_546 S
C106 O124 1.259 1_655 S
C106 O125 1.268 . S
C107 Ho104 2.811 . S
C107 C108 1.488 . S
C107 O126 1.215 . S
C107 O127 1.289 . S
C108 C107 1.488 . S
C108 C109 1.348 . S
C108 C113 1.413 . S
C109 C108 1.348 . S
C109 C110 1.442 . S
C109 H136 0.930 . S
C110 C109 1.442 . S
C110 C111 1.381 . S
C110 H137 0.931 . S
C111 C110 1.381 . S
C111 C112 1.321 . S
C112 C111 1.321 . S
C112 C113 1.403 . S
C112 H138 0.934 . S
C113 C108 1.413 . S
C113 C112 1.403 . S
C113 H139 0.930 . S
C114 O128 1.275 . S
C114 O129 1.256 1_565 S
C115 O130 1.259 1_455 S
C115 O131 1.268 1_556 S
C116 Ho105 2.811 . S
C116 C117 1.488 . S
C116 O132 1.215 . S
C116 O133 1.289 . S
C117 C116 1.488 . S
C117 C118 1.348 . S
C117 C122 1.413 . S
C118 C117 1.348 . S
C118 C119 1.442 . S
C118 H140 0.930 . S
C119 C118 1.442 . S
C119 C120 1.381 . S
C119 H141 0.931 . S
C120 C119 1.381 . S
C120 C121 1.321 . S
C121 C120 1.321 . S
C121 C122 1.403 . S
C121 H142 0.934 . S
C122 C117 1.413 . S
C122 C121 1.403 . S
C122 H143 0.930 . S
C123 O134 1.275 1_554 S
C123 O135 1.256 1_545 S
O124 Ho104 2.322 1_556 S
O124 C106 1.259 1_455 S
O125 Ho105 2.346 1_565 S
O125 C106 1.268 . S
O126 Ho104 2.378 . S
O126 C107 1.215 . S
O127 Ho104 2.524 . S
O127 C107 1.289 . S
O128 Ho104 2.381 1_556 S
O128 C114 1.275 . S
O129 Ho104 2.669 1_546 S
O129 Ho105 2.305 1_455 S
O129 C114 1.256 1_545 S
O130 Ho105 2.322 . S
O130 C115 1.259 1_655 S
O131 Ho104 2.346 1_545 S
O131 C115 1.268 1_554 S
O132 Ho105 2.378 . S
O132 C116 1.215 . S
O133 Ho105 2.524 . S
O133 C116 1.289 . S
O134 Ho105 2.381 . S
O134 C123 1.275 1_556 S
O135 Ho104 2.305 1_655 S
O135 Ho105 2.669 1_564 S
O135 C123 1.256 1_565 S
H136 C109 0.930 . S
H137 C110 0.931 . S
H138 C112 0.934 . S
H139 C113 0.930 . S
H140 C118 0.930 . S
H141 C119 0.931 . S
H142 C121 0.934 . S
H143 C122 0.930 . S
Ho144 C147 2.811 . S
Ho144 O164 2.322 1_554 S
Ho144 O166 2.378 . S
Ho144 O167 2.524 . S
Ho144 O168 2.381 1_554 S
Ho144 O169 2.669 1_554 S
Ho144 O171 2.346 . S
Ho144 O175 2.305 1_545 S
Ho145 C156 2.811 . S
Ho145 O165 2.346 . S
Ho145 O169 2.305 1_565 S
Ho145 O170 2.322 . S
Ho145 O172 2.378 . S
Ho145 O173 2.524 . S
Ho145 O174 2.381 . S
Ho145 O175 2.669 1_556 S
C146 O164 1.259 1_565 S
C146 O165 1.268 . S
C147 Ho144 2.811 . S
C147 C148 1.488 . S
C147 O166 1.215 . S
C147 O167 1.289 . S
C148 C147 1.488 . S
C148 C149 1.348 . S
C148 C153 1.413 . S
C149 C148 1.348 . S
C149 C150 1.442 . S
C149 H176 0.930 1_545 S
C150 C149 1.442 . S
C150 C151 1.381 . S
C150 H177 0.931 . S
C151 C150 1.381 . S
C151 C152 1.321 . S
C152 C151 1.321 . S
C152 C153 1.403 . S
C152 H178 0.934 . S
C153 C148 1.413 . S
C153 C152 1.403 . S
C153 H179 0.930 . S
C154 O168 1.275 . S
C154 O169 1.256 . S
C155 O170 1.259 1_545 S
C155 O171 1.268 1_556 S
C156 Ho145 2.811 . S
C156 C157 1.488 . S
C156 O172 1.215 . S
C156 O173 1.289 . S
C157 C156 1.488 . S
C157 C158 1.348 . S
C157 C162 1.413 . S
C158 C157 1.348 . S
C158 C159 1.442 . S
C158 H180 0.930 1_565 S
C159 C158 1.442 . S
C159 C160 1.381 . S
C159 H181 0.931 . S
C160 C159 1.381 . S
C160 C161 1.321 . S
C161 C160 1.321 . S
C161 C162 1.403 . S
C161 H182 0.934 . S
C162 C157 1.413 . S
C162 C161 1.403 . S
C162 H183 0.930 . S
C163 O174 1.275 1_554 S
C163 O175 1.256 . S
O164 Ho144 2.322 1_556 S
O164 C146 1.259 1_545 S
O165 Ho145 2.346 . S
O165 C146 1.268 . S
O166 Ho144 2.378 . S
O166 C147 1.215 . S
O167 Ho144 2.524 . S
O167 C147 1.289 . S
O168 Ho144 2.381 1_556 S
O168 C154 1.275 . S
O169 Ho144 2.669 1_556 S
O169 Ho145 2.305 1_545 S
O169 C154 1.256 . S
O170 Ho145 2.322 . S
O170 C155 1.259 1_565 S
O171 Ho144 2.346 . S
O171 C155 1.268 1_554 S
O172 Ho145 2.378 . S
O172 C156 1.215 . S
O173 Ho145 2.524 . S
O173 C156 1.289 . S
O174 Ho145 2.381 . S
O174 C163 1.275 1_556 S
O175 Ho144 2.305 1_565 S
O175 Ho145 2.669 1_554 S
O175 C163 1.256 . S
H176 C149 0.930 1_565 S
H177 C150 0.931 . S
H178 C152 0.934 . S
H179 C153 0.930 . S
H180 C158 0.930 1_545 S
H181 C159 0.931 . S
H182 C161 0.934 . S
H183 C162 0.930 . S
Ho184 C187 2.811 . S
Ho184 O204 2.322 1_554 S
Ho184 O206 2.378 . S
Ho184 O207 2.524 . S
Ho184 O208 2.381 1_554 S
Ho184 O209 2.669 1_554 S
Ho184 O211 2.346 . S
Ho184 O215 2.305 . S
Ho185 C196 2.811 . S
Ho185 O205 2.346 . S
Ho185 O209 2.305 . S
Ho185 O210 2.322 . S
Ho185 O212 2.378 . S
Ho185 O213 2.524 . S
Ho185 O214 2.381 . S
Ho185 O215 2.669 1_556 S
C186 O204 1.259 . S
C186 O205 1.268 . S
C187 Ho184 2.811 . S
C187 C188 1.488 . S
C187 O206 1.215 . S
C187 O207 1.289 . S
C188 C187 1.488 . S
C188 C189 1.348 . S
C188 C193 1.413 . S
C189 C188 1.348 . S
C189 C190 1.442 . S
C189 H216 0.930 . S
C190 C189 1.442 . S
C190 C191 1.381 . S
C190 H217 0.931 . S
C191 C190 1.381 . S
C191 C192 1.321 . S
C192 C191 1.321 . S
C192 C193 1.403 . S
C192 H218 0.934 . S
C193 C188 1.413 . S
C193 C192 1.403 . S
C193 H219 0.930 . S
C194 O208 1.275 . S
C194 O209 1.256 . S
C195 O210 1.259 . S
C195 O211 1.268 1_556 S
C196 Ho185 2.811 . S
C196 C197 1.488 . S
C196 O212 1.215 . S
C196 O213 1.289 . S
C197 C196 1.488 . S
C197 C198 1.348 . S
C197 C202 1.413 . S
C198 C197 1.348 . S
C198 C199 1.442 . S
C198 H220 0.930 . S
C199 C198 1.442 . S
C199 C200 1.381 . S
C199 H221 0.931 . S
C200 C199 1.381 . S
C200 C201 1.321 . S
C201 C200 1.321 . S
C201 C202 1.403 . S
C201 H222 0.934 . S
C202 C197 1.413 . S
C202 C201 1.403 . S
C202 H223 0.930 . S
C203 O214 1.275 1_554 S
C203 O215 1.256 . S
O204 Ho184 2.322 1_556 S
O204 C186 1.259 . S
O205 Ho185 2.346 . S
O205 C186 1.268 . S
O206 Ho184 2.378 . S
O206 C187 1.215 . S
O207 Ho184 2.524 . S
O207 C187 1.289 . S
O208 Ho184 2.381 1_556 S
O208 C194 1.275 . S
O209 Ho184 2.669 1_556 S
O209 Ho185 2.305 . S
O209 C194 1.256 . S
O210 Ho185 2.322 . S
O210 C195 1.259 . S
O211 Ho184 2.346 . S
O211 C195 1.268 1_554 S
O212 Ho185 2.378 . S
O212 C196 1.215 . S
O213 Ho185 2.524 . S
O213 C196 1.289 . S
O214 Ho185 2.381 . S
O214 C203 1.275 1_556 S
O215 Ho184 2.305 . S
O215 Ho185 2.669 1_554 S
O215 C203 1.256 . S
H216 C189 0.930 . S
H217 C190 0.931 . S
H218 C192 0.934 . S
H219 C193 0.930 . S
H220 C198 0.930 . S
H221 C199 0.931 . S
H222 C201 0.934 . S
H223 C202 0.930 . S
Ho224 C227 2.811 . S
Ho224 O244 2.322 1_554 S
Ho224 O246 2.378 . S
Ho224 O247 2.524 . S
Ho224 O248 2.381 1_554 S
Ho224 O249 2.669 1_654 S
Ho224 O251 2.346 1_655 S
Ho224 O255 2.305 . S
Ho225 C236 2.811 . S
Ho225 O245 2.346 1_455 S
Ho225 O249 2.305 . S
Ho225 O250 2.322 . S
Ho225 O252 2.378 . S
Ho225 O253 2.524 . S
Ho225 O254 2.381 . S
Ho225 O255 2.669 1_456 S
C226 O244 1.259 . S
C226 O245 1.268 . S
C227 Ho224 2.811 . S
C227 C228 1.488 . S
C227 O246 1.215 . S
C227 O247 1.289 . S
C228 C227 1.488 . S
C228 C229 1.348 . S
C228 C233 1.413 . S
C229 C228 1.348 . S
C229 C230 1.442 . S
C229 H256 0.930 . S
C230 C229 1.442 . S
C230 C231 1.381 . S
C230 H257 0.931 . S
C231 C230 1.381 . S
C231 C232 1.321 . S
C232 C231 1.321 . S
C232 C233 1.403 . S
C232 H258 0.934 . S
C233 C228 1.413 . S
C233 C232 1.403 . S
C233 H259 0.930 . S
C234 O248 1.276 . S
C234 O249 1.255 1_655 S
C235 O250 1.259 . S
C235 O251 1.268 1_556 S
C236 Ho225 2.811 . S
C236 C237 1.488 . S
C236 O252 1.215 . S
C236 O253 1.289 . S
C237 C236 1.488 . S
C237 C238 1.348 . S
C237 C242 1.413 . S
C238 C237 1.348 . S
C238 C239 1.442 . S
C238 H260 0.930 . S
C239 C238 1.442 . S
C239 C240 1.381 . S
C239 H261 0.931 . S
C240 C239 1.381 . S
C240 C241 1.321 . S
C241 C240 1.321 . S
C241 C242 1.403 . S
C241 H262 0.934 . S
C242 C237 1.413 . S
C242 C241 1.403 . S
C242 H263 0.930 . S
C243 O254 1.278 1_554 S
C243 O255 1.254 1_455 S
O244 Ho224 2.322 1_556 S
O244 C226 1.259 . S
O245 Ho225 2.346 1_655 S
O245 C226 1.268 . S
O246 Ho224 2.378 . S
O246 C227 1.215 . S
O247 Ho224 2.524 . S
O247 C227 1.289 . S
O248 Ho224 2.381 1_556 S
O248 C234 1.276 . S
O249 Ho224 2.669 1_456 S
O249 Ho225 2.305 . S
O249 C234 1.255 1_455 S
O250 Ho225 2.322 . S
O250 C235 1.259 . S
O251 Ho224 2.346 1_455 S
O251 C235 1.268 1_554 S
O252 Ho225 2.378 . S
O252 C236 1.215 . S
O253 Ho225 2.524 . S
O253 C236 1.289 . S
O254 Ho225 2.381 . S
O254 C243 1.278 1_556 S
O255 Ho224 2.305 . S
O255 Ho225 2.669 1_654 S
O255 C243 1.254 1_655 S
H256 C229 0.930 . S
H257 C230 0.931 . S
H258 C232 0.934 . S
H259 C233 0.930 . S
H260 C238 0.930 . S
H261 C239 0.931 . S
H262 C241 0.934 . S
H263 C242 0.930 . S
C82 C114 3.377 1_545 S
C154 C95 3.376 . S
C194 C56 3.396 . S
C234 C69 3.385 1_655 S
C123 C30 3.361 . S
C43 C163 3.423 . S
C4 C203 3.457 . S
C17 C243 3.386 . S
C120 C74 2.554 1_655 S
C160 C87 2.400 1_565 S
C200 C100 2.278 . S
C61 C240 2.408 . S
C22 C111 2.553 . S
C151 C35 2.400 . S
C191 C48 2.256 . S
C9 C231 2.387 . S
C73 C115 4.002 . S
C86 C155 3.929 . S
C195 C99 3.930 . S
C235 C60 4.000 . S
C21 C106 4.007 1_455 S
C146 C34 3.928 1_565 S
C186 C47 3.941 . S
C8 C226 4.016 . S
