# Generated by pormake.
# Topology pyr, (3,6)-cn, num edge types: 1
# Building blocks:
#     Node 0, Type 0, BuildingBlock: CUQRIR_clean_linker_1, # of connection points: 3
#     Node 1, Type 0, BuildingBlock: CUQRIR_clean_linker_1, # of connection points: 3
#     Node 2, Type 0, BuildingBlock: CUQRIR_clean_linker_1, # of connection points: 3
#     Node 3, Type 0, BuildingBlock: CUQRIR_clean_linker_1, # of connection points: 3
#     Node 4, Type 0, BuildingBlock: CUQRIR_clean_linker_1, # of connection points: 3
#     Node 5, Type 0, BuildingBlock: CUQRIR_clean_linker_1, # of connection points: 3
#     Node 6, Type 0, BuildingBlock: CUQRIR_clean_linker_1, # of connection points: 3
#     Node 7, Type 0, BuildingBlock: CUQRIR_clean_linker_1, # of connection points: 3
#     Node 8, Type 1, BuildingBlock: GEDQOX_clean_sbu_0, # of connection points: 6
#     Node 9, Type 1, BuildingBlock: GEDQOX_clean_sbu_0, # of connection points: 6
#     Node 10, Type 1, BuildingBlock: GEDQOX_clean_sbu_0, # of connection points: 6
#     Node 11, Type 1, BuildingBlock: GEDQOX_clean_sbu_0, # of connection points: 6
#     Edge 12, Type (0, 1), BuildingBlock: MIFKUJ_clean_linker_0, # of connection points: 2
#     Edge 13, Type (0, 1), BuildingBlock: MIFKUJ_clean_linker_0, # of connection points: 2
#     Edge 14, Type (0, 1), BuildingBlock: MIFKUJ_clean_linker_0, # of connection points: 2
#     Edge 15, Type (0, 1), BuildingBlock: MIFKUJ_clean_linker_0, # of connection points: 2
#     Edge 16, Type (0, 1), BuildingBlock: MIFKUJ_clean_linker_0, # of connection points: 2
#     Edge 17, Type (0, 1), BuildingBlock: MIFKUJ_clean_linker_0, # of connection points: 2
#     Edge 18, Type (0, 1), BuildingBlock: MIFKUJ_clean_linker_0, # of connection points: 2
#     Edge 19, Type (0, 1), BuildingBlock: MIFKUJ_clean_linker_0, # of connection points: 2
#     Edge 20, Type (0, 1), BuildingBlock: MIFKUJ_clean_linker_0, # of connection points: 2
#     Edge 21, Type (0, 1), BuildingBlock: MIFKUJ_clean_linker_0, # of connection points: 2
#     Edge 22, Type (0, 1), BuildingBlock: MIFKUJ_clean_linker_0, # of connection points: 2
#     Edge 23, Type (0, 1), BuildingBlock: MIFKUJ_clean_linker_0, # of connection points: 2
#     Edge 24, Type (0, 1), BuildingBlock: MIFKUJ_clean_linker_0, # of connection points: 2
#     Edge 25, Type (0, 1), BuildingBlock: MIFKUJ_clean_linker_0, # of connection points: 2
#     Edge 26, Type (0, 1), BuildingBlock: MIFKUJ_clean_linker_0, # of connection points: 2
#     Edge 27, Type (0, 1), BuildingBlock: MIFKUJ_clean_linker_0, # of connection points: 2
#     Edge 28, Type (0, 1), BuildingBlock: MIFKUJ_clean_linker_0, # of connection points: 2
#     Edge 29, Type (0, 1), BuildingBlock: MIFKUJ_clean_linker_0, # of connection points: 2
#     Edge 30, Type (0, 1), BuildingBlock: MIFKUJ_clean_linker_0, # of connection points: 2
#     Edge 31, Type (0, 1), BuildingBlock: MIFKUJ_clean_linker_0, # of connection points: 2
#     Edge 32, Type (0, 1), BuildingBlock: MIFKUJ_clean_linker_0, # of connection points: 2
#     Edge 33, Type (0, 1), BuildingBlock: MIFKUJ_clean_linker_0, # of connection points: 2
#     Edge 34, Type (0, 1), BuildingBlock: MIFKUJ_clean_linker_0, # of connection points: 2
#     Edge 35, Type (0, 1), BuildingBlock: MIFKUJ_clean_linker_0, # of connection points: 2
# Relax obj value: 0.149
# Max RMSD: 0.233
# Mean RMSD: 0.161
data_MOF--net-pyr--node1-GEDQOX_clean_sbu_0--node2-CUQRIR_clean_linker_1--edge1-MIFKUJ_clean_linker_0
_symmetry_space_group_name_H-M    P1
_symmetry_Int_Tables_number       1
_symmetry_cell_setting            triclinic
loop_
_symmetry_equiv_pos_as_xyz
'x, y, z'
_cell_length_a     49.276823
_cell_length_b     48.707719
_cell_length_c     42.654942
_cell_angle_alpha  87.685593
_cell_angle_beta   95.434848
_cell_angle_gamma 92.501767
loop_
_atom_site_label
_atom_site_type_symbol
_atom_site_fract_x
_atom_site_fract_y
_atom_site_fract_z
_atom_type_partial_charge
C0 C 0.19374 0.20674 0.1842 0.0
N1 N 0.21027 0.18452 0.1907 0.0
N2 N 0.2015 0.22404 0.16014 0.0
C3 C 0.16918 0.21146 0.20155 0.0
C4 C 0.22408 0.21095 0.15204 0.0
N5 N 0.23 0.18709 0.17009 0.0
C6 C 0.24141 0.2221 0.12689 0.0
H7 H 0.1588 0.19175 0.20831 0.0
H8 H 0.15421 0.2241 0.18702 0.0
H9 H 0.17595 0.22237 0.22345 0.0
H10 H 0.26116 0.23027 0.13817 0.0
H11 H 0.23173 0.23898 0.1124 0.0
H12 H 0.24579 0.20535 0.11145 0.0
C13 C 0.38003 0.76735 0.73662 0.0
N14 N 0.37867 0.79055 0.75265 0.0
N15 N 0.40047 0.75185 0.74992 0.0
C16 C 0.36277 0.76061 0.70663 0.0
C17 C 0.41158 0.76657 0.77459 0.0
N18 N 0.39808 0.79001 0.77645 0.0
C19 C 0.43659 0.75903 0.79561 0.0
H20 H 0.35403 0.73932 0.70839 0.0
H21 H 0.37584 0.76174 0.68676 0.0
H22 H 0.34575 0.77471 0.70136 0.0
H23 H 0.45212 0.77623 0.79529 0.0
H24 H 0.44538 0.73995 0.78844 0.0
H25 H 0.43124 0.75586 0.82019 0.0
C26 C 0.71016 0.38169 0.8372 0.0
N27 N 0.73135 0.37911 0.85953 0.0
N28 N 0.7125 0.40587 0.82091 0.0
C29 C 0.68703 0.36075 0.83149 0.0
C30 C 0.73573 0.41806 0.83411 0.0
N31 N 0.74703 0.40192 0.85805 0.0
C32 C 0.74782 0.44513 0.82275 0.0
H33 H 0.69388 0.34405 0.81754 0.0
H34 H 0.66899 0.36993 0.81824 0.0
H35 H 0.68113 0.35151 0.8542 0.0
H36 H 0.74227 0.46155 0.83797 0.0
H37 H 0.73992 0.45037 0.79812 0.0
H38 H 0.7704 0.44461 0.82435 0.0
C39 C 0.81934 0.78489 0.27024 0.0
N40 N 0.84121 0.80101 0.26339 0.0
N41 N 0.80771 0.79462 0.29483 0.0
C42 C 0.8114 0.75764 0.25568 0.0
C43 C 0.82314 0.81755 0.30236 0.0
N44 N 0.84354 0.82148 0.28321 0.0
C45 C 0.8202 0.83431 0.33069 0.0
H46 H 0.78926 0.75666 0.24809 0.0
H47 H 0.81559 0.74077 0.27354 0.0
H48 H 0.82249 0.75429 0.23486 0.0
H49 H 0.83885 0.83285 0.34734 0.0
H50 H 0.80206 0.82746 0.34289 0.0
H51 H 0.81802 0.85623 0.32332 0.0
C52 C 0.83863 0.86135 0.88838 0.0
N53 N 0.86033 0.85597 0.87101 0.0
N54 N 0.82549 0.88523 0.87896 0.0
C55 C 0.83187 0.84459 0.91724 0.0
C56 C 0.84089 0.8945 0.85491 0.0
N57 N 0.86192 0.8775 0.84976 0.0
C58 C 0.83441 0.91992 0.83493 0.0
H59 H 0.81655 0.82807 0.91025 0.0
H60 H 0.82309 0.85757 0.9342 0.0
H61 H 0.85028 0.83507 0.92928 0.0
H62 H 0.84643 0.9377 0.84526 0.0
H63 H 0.81242 0.92417 0.83409 0.0
H64 H 0.83988 0.91782 0.81053 0.0
C65 C 0.70833 0.29588 0.30671 0.0
N66 N 0.71378 0.27294 0.29193 0.0
N67 N 0.68779 0.3093 0.29019 0.0
C68 C 0.72155 0.30407 0.33845 0.0
C69 C 0.68102 0.29373 0.26479 0.0
N70 N 0.69707 0.27179 0.26566 0.0
C71 C 0.65693 0.29833 0.24102 0.0
H72 H 0.70847 0.29626 0.35691 0.0
H73 H 0.72372 0.3267 0.33993 0.0
H74 H 0.74203 0.29542 0.34339 0.0
H75 H 0.64849 0.31887 0.24298 0.0
H76 H 0.64086 0.28221 0.24485 0.0
H77 H 0.66282 0.29656 0.21678 0.0
C78 C 0.35607 0.61286 0.1655 0.0
N79 N 0.38152 0.62468 0.16769 0.0
N80 N 0.34188 0.62097 0.13815 0.0
C81 C 0.344 0.59639 0.19183 0.0
C82 C 0.35965 0.63824 0.12397 0.0
N83 N 0.38363 0.64067 0.14206 0.0
C84 C 0.35402 0.65209 0.09197 0.0
H85 H 0.34615 0.57418 0.18823 0.0
H86 H 0.32202 0.60026 0.1922 0.0
H87 H 0.35468 0.60144 0.21504 0.0
H88 H 0.3462 0.67279 0.0947 0.0
H89 H 0.33854 0.63998 0.0771 0.0
H90 H 0.37305 0.65474 0.07999 0.0
C91 C 0.23161 0.2359 0.77097 0.0
N92 N 0.23912 0.23544 0.74132 0.0
N93 N 0.24254 0.2585 0.78571 0.0
C94 C 0.21037 0.21658 0.78381 0.0
C95 C 0.25728 0.2715 0.76387 0.0
N96 N 0.25498 0.25768 0.73686 0.0
C97 C 0.26982 0.30014 0.767 0.0
H98 H 0.19008 0.22129 0.77173 0.0
H99 H 0.20991 0.21863 0.80957 0.0
H100 H 0.21448 0.19502 0.77896 0.0
H101 H 0.28141 0.30219 0.79041 0.0
H102 H 0.25333 0.3151 0.76499 0.0
H103 H 0.28381 0.30531 0.74856 0.0
Nd104 Nd 0.06298 0.99864 0.52383 0.0
Nd105 Nd 0.02351 0.03929 0.51218 0.0
C106 C 0.10036 0.96114 0.52497 0.0
C107 C 0.12011 0.949 0.54915 0.0
C108 C 0.11224 0.93832 0.5782 0.0
C109 C 0.13191 0.92903 0.60163 0.0
C110 C 0.1597 0.93074 0.59654 0.0
C111 C 0.16742 0.94115 0.56736 0.0
C112 C 0.1478 0.95007 0.54387 0.0
C113 C 0.0726 0.04071 0.56509 0.0
C114 C 1.01523 0.99283 0.57389 0.0
C115 C 0.98622 0.07692 0.51174 0.0
C116 C 0.96761 0.09193 0.48895 0.0
C117 C 0.95266 0.11294 0.49946 0.0
C118 C 0.93235 0.12519 0.47925 0.0
C119 C 0.92656 0.11655 0.44816 0.0
C120 C 0.94239 0.0962 0.43729 0.0
C121 C 0.96275 0.08391 0.4576 0.0
C122 C 1.0159 0.9981 0.46977 0.0
C123 C 0.07195 0.04578 0.46313 0.0
O124 O 0.07443 0.95488 0.52656 0.0
O125 O 0.10506 0.98713 0.51806 0.0
O126 O 0.07503 0.01498 0.57301 0.0
O127 O 0.06582 0.0437 0.53602 0.0
O128 O 0.03466 0.97939 0.56197 0.0
O129 O 1.00949 0.01754 0.5605 0.0
O130 O 1.01231 0.08312 0.51195 0.0
O131 O 0.9809 0.05052 0.51459 0.0
O132 O 1.01375 0.0239 0.46213 0.0
O133 O 1.02093 0.99443 0.49908 0.0
O134 O 0.05259 0.0592 0.47521 0.0
O135 O 0.07727 0.02072 0.47584 0.0
H136 H 0.09103 0.93757 0.58303 0.0
H137 H 0.12547 0.92108 0.62395 0.0
H138 H 0.18867 0.94225 0.56264 0.0
H139 H 0.15431 0.95831 0.52169 0.0
H140 H 0.95617 0.11935 0.52359 0.0
H141 H 0.92089 0.14121 0.48813 0.0
H142 H 0.93835 0.08905 0.41352 0.0
H143 H 0.97407 0.06758 0.44916 0.0
Nd144 Nd 0.52757 0.01879 0.05425 0.0
Nd145 Nd 0.53015 0.04834 0.00872 0.0
C146 C 0.52288 0.97725 0.09604 0.0
C147 C 0.52435 0.94731 0.09856 0.0
C148 C 0.53308 0.93238 0.07414 0.0
C149 C 0.5311 0.9036 0.07557 0.0
C150 C 0.52008 0.88966 0.10122 0.0
C151 C 0.5125 0.90474 0.12615 0.0
C152 C 0.51468 0.93336 0.12483 0.0
C153 C 0.48552 0.05735 0.06138 0.0
C154 C 0.49592 0.99688 0.99157 0.0
C155 C 0.53259 0.09198 0.96977 0.0
C156 C 0.55481 0.11197 0.96386 0.0
C157 C 0.54874 0.13823 0.9514 0.0
C158 C 0.56955 0.15839 0.94898 0.0
C159 C 0.59685 0.1526 0.95899 0.0
C160 C 0.60284 0.12604 0.9711 0.0
C161 C 0.58198 0.10592 0.97361 0.0
C162 C 0.57243 1.01057 1.00042 0.0
C163 C 0.56793 0.06784 0.07077 0.0
O164 O 0.54552 0.99144 0.09305 0.0
O165 O 0.50257 0.98663 0.07761 0.0
O166 O 0.50562 0.05099 0.08187 0.0
O167 O 0.4902 0.04579 0.03566 0.0
O168 O 0.51313 0.98888 0.01503 0.0
O169 O 0.4942 0.02324 0.98606 0.0
O170 O 0.52421 0.09263 0.99776 0.0
O171 O 0.53525 0.06697 0.9611 0.0
O172 O 0.55323 0.01847 0.97949 0.0
O173 O 0.56745 0.02101 0.02679 0.0
O174 O 0.55689 0.07571 0.04302 0.0
O175 O 0.56109 0.04356 0.08192 0.0
H176 H 0.54046 0.94296 0.05359 0.0
H177 H 0.53681 0.89234 0.05598 0.0
H178 H 0.50405 0.89437 0.1462 0.0
H179 H 0.50784 0.94465 0.14381 0.0
H180 H 0.52781 0.14336 0.94433 0.0
H181 H 0.56411 0.17875 0.94012 0.0
H182 H 0.62363 0.1208 0.97874 0.0
H183 H 0.58697 0.0858 0.98376 0.0
Nd184 Nd 0.49983 0.5078 0.50352 0.0
Nd185 Nd 0.55214 0.5418 0.51837 0.0
C186 C 0.44996 0.48756 0.48767 0.0
C187 C 0.42879 0.47329 0.50482 0.0
C188 C 0.40198 0.4705 0.49087 0.0
C189 C 0.38228 0.45515 0.50639 0.0
C190 C 0.38923 0.44225 0.53603 0.0
C191 C 0.41613 0.44566 0.55008 0.0
C192 C 0.43566 0.46117 0.5347 0.0
C193 C 0.53249 0.48839 0.55481 0.0
C194 C 0.50054 0.55939 0.5509 0.0
C195 C 0.60247 0.5608 0.53307 0.0
C196 C 0.62335 0.57203 0.51338 0.0
C197 C 0.65079 0.5741 0.52529 0.0
C198 C 0.67024 0.58637 0.50674 0.0
C199 C 0.66239 0.5969 0.47612 0.0
C200 C 0.63486 0.59395 0.46413 0.0
C201 C 0.6156 0.58143 0.48248 0.0
C202 C 0.51973 0.56169 0.46704 0.0
C203 C 0.55185 0.491 0.47043 0.0
O204 O 0.45525 0.51345 0.49379 0.0
O205 O 0.47199 0.47386 0.48625 0.0
O206 O 0.51766 0.47236 0.53602 0.0
O207 O 0.52784 0.51303 0.54785 0.0
O208 O 0.48577 0.54507 0.52922 0.0
O209 O 0.52716 0.55709 0.55565 0.0
O210 O 0.59614 0.53459 0.53038 0.0
O211 O 0.58107 0.57576 0.5331 0.0
O212 O 0.53473 0.57732 0.48613 0.0
O213 O 0.52405 0.53687 0.47377 0.0
O214 O 0.56633 0.50511 0.4924 0.0
O215 O 0.52514 0.49279 0.46593 0.0
H216 H 0.39638 0.47984 0.46781 0.0
H217 H 0.36169 0.45327 0.49511 0.0
H218 H 0.42242 0.43566 0.57257 0.0
H219 H 0.45633 0.46311 0.5458 0.0
H220 H 0.65707 0.56664 0.54903 0.0
H221 H 0.69132 0.58793 0.51653 0.0
H222 H 0.62787 0.60223 0.44098 0.0
H223 H 0.59446 0.5798 0.47284 0.0
Nd224 Nd 1.01221 0.53503 0.03404 0.0
Nd225 Nd 0.05235 0.54518 0.98781 0.0
C226 C 0.96671 0.53091 0.06184 0.0
C227 C 0.94973 0.5529 0.07118 0.0
C228 C 0.93742 0.57141 0.04854 0.0
C229 C 0.9268 0.59564 0.05777 0.0
C230 C 0.92839 0.60191 0.08979 0.0
C231 C 0.93907 0.58245 0.11245 0.0
C232 C 0.94944 0.55815 0.10323 0.0
C233 C 0.05794 0.56339 0.05804 0.0
C234 C 1.00677 0.5941 0.98627 0.0
C235 C 0.09645 0.54974 0.95707 0.0
C236 C 0.11472 0.52918 0.94747 0.0
C237 C 0.12443 0.50839 0.96891 0.0
C238 C 0.1383 0.48661 0.95861 0.0
C239 C 0.14262 0.4852 0.92675 0.0
C240 C 0.13374 0.50641 0.90544 0.0
C241 C 0.11997 0.52833 0.91578 0.0
C242 C 1.0066 0.51485 0.96627 0.0
C243 C 0.05888 0.48681 0.03623 0.0
O244 O 0.96733 0.52774 0.03155 0.0
O245 O 0.99087 0.52977 0.07737 0.0
O246 O 0.04479 0.54498 0.07414 0.0
O247 O 0.0459 0.56764 0.03092 0.0
O248 O 0.99483 0.57572 1.00548 0.0
O249 O 0.03138 0.58831 0.97817 0.0
O250 O 0.09686 0.55342 0.98734 0.0
O251 O 0.07174 0.54866 0.94292 0.0
O252 O 1.01743 0.53453 0.94961 0.0
O253 O 1.02007 0.51159 0.9925 0.0
O254 O 0.07059 0.50522 0.01685 0.0
O255 O 0.03407 0.49225 0.0442 0.0
H256 H 0.93714 0.56794 0.02359 0.0
H257 H 0.91816 0.60985 0.03974 0.0
H258 H 0.94092 0.58662 0.13732 0.0
H259 H 0.95883 0.54425 0.12114 0.0
H260 H 0.12044 0.5084 0.99341 0.0
H261 H 0.14449 0.47015 0.97521 0.0
H262 H 0.13689 0.50567 0.8807 0.0
H263 H 0.11248 0.54404 0.89883 0.0
H264 H 0.17922 0.13567 0.18973 0.0
H265 H 0.15787 0.11194 0.23386 0.0
H266 H 0.20394 0.16563 0.29853 0.0
H267 H 0.22453 0.18952 0.25428 0.0
H268 H 0.16207 0.08165 0.28405 0.0
H269 H 0.17561 0.1724 0.36862 0.0
H270 H 0.17962 0.2231 0.36576 0.0
H271 H 0.13763 0.22396 0.27281 0.0
H272 H 0.13297 0.17334 0.27533 0.0
H273 H 0.11564 0.02612 0.43243 0.0
H274 H 0.1402 0.04654 0.38922 0.0
H275 H 0.08901 0.11617 0.38377 0.0
H276 H 0.06506 0.09606 0.42777 0.0
H277 H 0.13138 0.13842 0.36664 0.0
H278 H 0.09084 0.05581 0.32423 0.0
H279 H 0.07982 1.00603 0.32123 0.0
H280 H 0.16493 0.99034 0.32159 0.0
H281 H 0.17648 0.04002 0.32495 0.0
C282 C 0.1859 0.14178 0.21342 0.0
C283 C 0.20534 0.16422 0.21738 0.0
C284 C 0.17301 0.12824 0.23928 0.0
C285 C 0.17801 0.1365 0.27112 0.0
C286 C 0.19825 0.15828 0.27513 0.0
C287 C 0.21103 0.17179 0.24931 0.0
C288 C 0.16196 0.12322 0.29924 0.0
C289 C 0.15579 0.09443 0.30207 0.0
C290 C 0.15199 0.13863 0.32352 0.0
C291 C 0.15423 0.16906 0.32206 0.0
C292 C 0.16713 0.18342 0.34764 0.0
C293 C 0.16951 0.21215 0.34607 0.0
C294 C 0.15896 0.22674 0.31908 0.0
C295 C 0.14585 0.21264 0.29367 0.0
C296 C 0.14333 0.18394 0.29517 0.0
C297 C 0.10928 0.04577 0.4222 0.0
C298 C 0.08753 0.05874 0.4348 0.0
C299 C 0.12353 0.0577 0.39654 0.0
C300 C 0.11701 0.08345 0.38098 0.0
C301 C 0.09544 0.09652 0.39392 0.0
C302 C 0.08127 0.08465 0.41969 0.0
C303 C 0.13237 0.09666 0.35222 0.0
C304 C 0.13812 0.12552 0.34902 0.0
C305 C 0.14134 0.08139 0.32716 0.0
C306 C 0.13453 0.05158 0.32518 0.0
C307 C 0.10721 0.04171 0.32386 0.0
C308 C 0.10087 0.01353 0.32208 0.0
C309 C 0.12167 0.99503 0.32131 0.0
C310 C 0.14885 1.00469 0.32225 0.0
C311 C 0.1553 0.03286 0.32407 0.0
H312 H 0.11672 0.97322 0.31993 0.0
H313 H 0.16089 0.24897 0.31789 0.0
H314 H 0.40038 0.78708 0.83976 0.0
H315 H 0.41424 0.82418 0.87582 0.0
H316 H 0.42472 0.87999 0.79624 0.0
H317 H 0.41207 0.84239 0.76037 0.0
H318 H 0.46612 0.88654 0.83943 0.0
H319 H 0.36993 0.88211 0.83859 0.0
H320 H 0.32425 0.86019 0.84223 0.0
H321 H 0.34588 0.8373 0.93934 0.0
H322 H 0.39198 0.85844 0.93609 0.0
H323 H 0.47312 1.0066 0.93158 0.0
H324 H 0.45288 0.97261 0.8945 0.0
H325 H 0.46543 0.90824 0.96614 0.0
H326 H 0.48636 0.94201 1.0032 0.0
H327 H 0.41042 0.90878 0.92542 0.0
H328 H 0.50912 0.91094 0.92174 0.0
H329 H 0.55342 0.93536 0.9162 0.0
H330 H 0.52385 0.96634 0.82417 0.0
H331 H 0.47916 0.94252 0.82945 0.0
C332 C 0.40588 0.80725 0.83016 0.0
C333 C 0.40528 0.81204 0.7975 0.0
C334 C 0.4135 0.82848 0.85065 0.0
C335 C 0.42024 0.85498 0.83874 0.0
C336 C 0.41957 0.85975 0.80598 0.0
C337 C 0.41213 0.83843 0.78553 0.0
C338 C 0.42851 0.87751 0.86053 0.0
C339 C 0.45371 0.89162 0.85791 0.0
C340 C 0.4124 0.88413 0.88479 0.0
C341 C 0.38454 0.8717 0.88702 0.0
C342 C 0.36504 0.87223 0.86067 0.0
C343 C 0.33906 0.85996 0.86266 0.0
C344 C 0.33217 0.84739 0.891 0.0
C345 C 0.35126 0.84705 0.91741 0.0
C346 C 0.37733 0.85917 0.9155 0.0
C347 C 0.47127 0.98526 0.93956 0.0
C348 C 0.4814 0.97689 0.97021 0.0
C349 C 0.45972 0.96592 0.91837 0.0
C350 C 0.45772 0.93801 0.92768 0.0
C351 C 0.46674 0.92974 0.95865 0.0
C352 C 0.47878 0.949 0.97968 0.0
C353 C 0.44805 0.91723 0.90443 0.0
C354 C 0.42263 0.90362 0.90678 0.0
C355 C 0.46368 0.91136 0.87958 0.0
C356 C 0.49071 0.92521 0.87614 0.0
C357 C 0.51198 0.92316 0.90044 0.0
C358 C 0.53717 0.93686 0.89734 0.0
C359 C 0.54142 0.95245 0.86989 0.0
C360 C 0.52051 0.95429 0.84545 0.0
C361 C 0.49525 0.94069 0.84848 0.0
H362 H 0.56093 0.96305 0.86754 0.0
H363 H 0.31203 0.83791 0.89251 0.0
H364 H 0.71976 0.40128 0.76004 0.0
H365 H 0.68849 0.41583 0.7146 0.0
H366 H 0.63438 0.4463 0.77798 0.0
H367 H 0.66571 0.4313 0.82324 0.0
H368 H 0.60645 0.41743 0.73233 0.0
H369 H 0.67451 0.49034 0.73891 0.0
H370 H 0.72118 0.51109 0.7422 0.0
H371 H 0.73324 0.47931 0.65232 0.0
H372 H 0.68676 0.45797 0.64873 0.0
H373 H 0.56258 0.52119 0.59572 0.0
H374 H 0.59271 0.50729 0.64174 0.0
H375 H 0.57434 0.42196 0.62173 0.0
H376 H 0.5436 0.43587 0.57567 0.0
H377 H 0.63787 0.47975 0.647 0.0
H378 H 0.57558 0.38505 0.6921 0.0
H379 H 0.52757 0.3683 0.69182 0.0
H380 H 0.50138 0.45143 0.68353 0.0
H381 H 0.54922 0.46867 0.68419 0.0
C382 C 0.70123 0.41128 0.76392 0.0
C383 C 0.69491 0.41555 0.7946 0.0
C384 C 0.68345 0.41955 0.7382 0.0
C385 C 0.65923 0.43232 0.74298 0.0
C386 C 0.65295 0.43647 0.77383 0.0
C387 C 0.67076 0.42815 0.79952 0.0
C388 C 0.64044 0.44129 0.71576 0.0
C389 C 0.6133 0.43103 0.71364 0.0
C390 C 0.64931 0.4594 0.6917 0.0
C391 C 0.67724 0.47232 0.6937 0.0
C392 C 0.68719 0.48758 0.71996 0.0
C393 C 0.7136 0.49948 0.72187 0.0
C394 C 0.73019 0.49646 0.69752 0.0
C395 C 0.72038 0.48159 0.67118 0.0
C396 C 0.69399 0.4696 0.66919 0.0
C397 C 0.56487 0.49945 0.60117 0.0
C398 C 0.55068 0.47955 0.58232 0.0
C399 C 0.58218 0.49156 0.62738 0.0
C400 C 0.58562 0.46363 0.63526 0.0
C401 C 0.57168 0.44364 0.61626 0.0
C402 C 0.55423 0.45157 0.58997 0.0
C403 C 0.60393 0.45563 0.66334 0.0
C404 C 0.63103 0.46605 0.6656 0.0
C405 C 0.59481 0.43825 0.6879 0.0
C406 C 0.56597 0.42811 0.68784 0.0
C407 C 0.55957 0.39975 0.69031 0.0
C408 C 0.53239 0.39017 0.69008 0.0
C409 C 0.51143 0.40878 0.68754 0.0
C410 C 0.51762 0.43703 0.68536 0.0
C411 C 0.54477 0.44671 0.68562 0.0
H412 H 0.4904 0.40133 0.68734 0.0
H413 H 0.75063 0.5057 0.69904 0.0
H414 H 0.85047 0.82411 0.20676 0.0
H415 H 0.87534 0.80295 0.16706 0.0
H416 H 0.89974 0.73869 0.23539 0.0
H417 H 0.87568 0.76032 0.27466 0.0
H418 H 0.93753 0.74654 0.19705 0.0
H419 H 0.83764 0.73425 0.18592 0.0
H420 H 0.79106 0.75155 0.17732 0.0
H421 H 0.80993 0.79012 0.08924 0.0
H422 H 0.85674 0.7733 0.09762 0.0
H423 H 0.9038 0.61407 0.14225 0.0
H424 H 0.89741 0.65952 0.16179 0.0
H425 H 0.92868 0.6976 0.07891 0.0
H426 H 0.93666 0.65218 0.05975 0.0
H427 H 0.87066 0.71407 0.11072 0.0
H428 H 0.96976 0.71172 0.12068 0.0
H429 H 1.01285 0.68805 0.13362 0.0
H430 H 0.99214 0.67145 0.22827 0.0
H431 H 0.9487 0.69464 0.21571 0.0
C432 C 0.8622 0.80614 0.21334 0.0
C433 C 0.86133 0.79361 0.24339 0.0
C434 C 0.87616 0.79394 0.19075 0.0
C435 C 0.88892 0.76888 0.19804 0.0
C436 C 0.89011 0.75798 0.2291 0.0
C437 C 0.87641 0.77025 0.25156 0.0
C438 C 0.89742 0.75157 0.17314 0.0
C439 C 0.9231 0.73987 0.17779 0.0
C440 C 0.87873 0.74292 0.14776 0.0
C441 C 0.85069 0.75293 0.14263 0.0
C442 C 0.83185 0.7466 0.16487 0.0
C443 C 0.80544 0.75629 0.16002 0.0
C444 C 0.79758 0.77203 0.13281 0.0
C445 C 0.81609 0.77802 0.11035 0.0
C446 C 0.84255 0.76844 0.11515 0.0
C447 C 0.90948 0.63203 0.12816 0.0
C448 C 0.92104 0.62937 0.09958 0.0
C449 C 0.90565 0.65795 0.13928 0.0
C450 C 0.91288 0.6817 0.12187 0.0
C451 C 0.92312 0.67937 0.09264 0.0
C452 C 0.9274 0.65337 0.08166 0.0
C453 C 0.91029 0.70872 0.13538 0.0
C454 C 0.88563 0.72191 0.12883 0.0
C455 C 0.92966 0.71834 0.15938 0.0
C456 C 0.95591 0.70474 0.16717 0.0
C457 C 0.97429 0.70281 0.14417 0.0
C458 C 0.9988 0.68953 0.15145 0.0
C459 C 1.00521 0.67821 0.18173 0.0
C460 C 0.98715 0.68022 0.20482 0.0
C461 C 0.9626 0.69347 0.19764 0.0
H462 H 0.02419 0.66792 0.18732 0.0
H463 H 0.77712 0.77951 0.12908 0.0
H464 H 0.2852 0.20117 0.18089 0.0
H465 H 0.32481 0.17988 0.1627 0.0
H466 H 0.27273 0.11251 0.12798 0.0
H467 H 0.2329 0.13481 0.14495 0.0
H468 H 0.35904 0.14613 0.16601 0.0
H469 H 0.30373 0.06833 0.08073 0.0
H470 H 0.26143 0.0637 0.04508 0.0
H471 H 0.25669 0.15157 0.03731 0.0
H472 H 0.2991 0.15672 0.07261 0.0
H473 H 0.46999 0.06683 0.12156 0.0
H474 H 0.42916 0.08489 0.13974 0.0
H475 H 0.39536 0.09677 0.04377 0.0
H476 H 0.43619 0.07684 0.02554 0.0
H477 H 0.35219 0.09304 0.06897 0.0
H478 H 0.42459 0.15241 0.11136 0.0
H479 H 0.46832 0.16581 0.14092 0.0
H480 H 0.44076 0.12783 0.22546 0.0
H481 H 0.39696 0.11397 0.19631 0.0
C482 C 0.28188 0.18149 0.16995 0.0
C483 C 0.25461 0.17004 0.16596 0.0
C484 C 0.30525 0.16897 0.15898 0.0
C485 C 0.30368 0.14388 0.14246 0.0
C486 C 0.27635 0.13198 0.13925 0.0
C487 C 0.25285 0.14468 0.15006 0.0
C488 C 0.33 0.13096 0.12925 0.0
C489 C 0.35684 0.13438 0.14484 0.0
C490 C 0.32978 0.1158 0.10079 0.0
C491 C 0.30437 0.11287 0.0796 0.0
C492 C 0.29367 0.08665 0.07136 0.0
C493 C 0.26968 0.08394 0.05122 0.0
C494 C 0.25632 0.10732 0.03904 0.0
C495 C 0.26699 0.13348 0.04685 0.0
C496 C 0.29099 0.1363 0.06693 0.0
C497 C 0.45414 0.07323 0.10379 0.0
C498 C 0.45805 0.06979 0.07142 0.0
C499 C 0.43005 0.08439 0.11457 0.0
C500 C 0.40755 0.09412 0.09404 0.0
C501 C 0.41122 0.09031 0.06147 0.0
C502 C 0.43534 0.07863 0.05063 0.0
C503 C 0.38105 0.10746 0.10637 0.0
C504 C 0.35426 0.10437 0.09046 0.0
C505 C 0.38141 0.12373 0.13401 0.0
C506 C 0.40765 0.13191 0.15159 0.0
C507 C 0.42794 0.1468 0.13622 0.0
C508 C 0.45272 0.15448 0.1529 0.0
C509 C 0.45735 0.1476 0.18503 0.0
C510 C 0.43716 0.13309 0.20057 0.0
C511 C 0.41235 0.12533 0.18398 0.0
H512 H 0.47654 0.15356 0.1979 0.0
H513 H 0.23775 0.10518 0.02348 0.0
H514 H 0.37913 0.82437 0.70171 0.0
H515 H 0.34333 0.85582 0.68195 0.0
H516 H 0.30133 0.83665 0.76497 0.0
H517 H 0.33762 0.80543 0.78474 0.0
H518 H 0.2925 0.83697 0.66695 0.0
H519 H 0.25928 0.89157 0.77462 0.0
H520 H 0.28 0.90972 0.82492 0.0
H521 H 0.35721 0.92136 0.78634 0.0
H522 H 0.33688 0.90379 0.73565 0.0
H523 H 0.16006 0.88206 0.63048 0.0
H524 H 0.19797 0.86383 0.66542 0.0
H525 H 0.24481 0.93966 0.65275 0.0
H526 H 0.20701 0.95797 0.61769 0.0
H527 H 0.2518 0.91384 0.71665 0.0
H528 H 0.25562 0.89514 0.60648 0.0
H529 H 0.23637 0.87849 0.55489 0.0
H530 H 0.22268 0.79788 0.59641 0.0
H531 H 0.24143 0.81422 0.6484 0.0
C532 C 0.36254 0.82758 0.71593 0.0
C533 C 0.36064 0.81256 0.74438 0.0
C534 C 0.34214 0.84536 0.70471 0.0
C535 C 0.31957 0.84839 0.72187 0.0
C536 C 0.31865 0.83475 0.75145 0.0
C537 C 0.33921 0.81697 0.76271 0.0
C538 C 0.29569 0.86304 0.70694 0.0
C539 C 0.28371 0.85381 0.67789 0.0
C540 C 0.2842 0.885 0.72117 0.0
C541 C 0.29656 0.89611 0.75139 0.0
C542 C 0.28064 0.89816 0.7768 0.0
C543 C 0.29231 0.90837 0.80538 0.0
C544 C 0.31989 0.91671 0.8088 0.0
C545 C 0.33585 0.91489 0.78365 0.0
C546 C 0.32426 0.90477 0.755 0.0
C547 C 0.17818 0.89506 0.63578 0.0
C548 C 0.1808 0.92126 0.62114 0.0
C549 C 0.19977 0.88466 0.65573 0.0
C550 C 0.22415 0.90041 0.66152 0.0
C551 C 0.2261 0.92729 0.64866 0.0
C552 C 0.20465 0.93757 0.62843 0.0
C553 C 0.24878 0.8875 0.677 0.0
C554 C 0.26073 0.89696 0.70598 0.0
C555 C 0.26063 0.86592 0.66263 0.0
C556 C 0.24963 0.85597 0.63136 0.0
C557 C 0.24828 0.87393 0.60465 0.0
C558 C 0.2375 0.86454 0.57534 0.0
C559 C 0.22824 0.83716 0.57239 0.0
C560 C 0.22981 0.81909 0.59874 0.0
C561 C 0.24052 0.8284 0.62813 0.0
H562 H 0.21991 0.82992 0.54967 0.0
H563 H 0.32891 0.92452 0.83098 0.0
H564 H 0.79029 0.36968 0.86386 0.0
H565 H 0.83614 0.38174 0.88856 0.0
H566 H 0.80715 0.45873 0.91627 0.0
H567 H 0.76134 0.44612 0.89251 0.0
H568 H 0.8682 0.42282 0.87078 0.0
H569 H 0.8443 0.48153 0.98091 0.0
H570 H 0.8115 0.47797 0.02124 0.0
H571 H 0.79885 0.39152 1.00636 0.0
H572 H 0.83189 0.39444 0.96632 0.0
H573 H 0.97175 0.5227 0.91334 0.0
H574 H 0.92867 0.49727 0.89902 0.0
H575 H 0.94154 0.44566 0.98333 0.0
H576 H 0.98422 0.47143 0.99807 0.0
H577 H 0.89116 0.46079 0.97662 0.0
H578 H 0.95028 0.42146 0.91031 0.0
H579 H 0.98429 0.42106 0.8715 0.0
H580 H 0.92887 0.46084 0.80212 0.0
H581 H 0.89466 0.46182 0.84065 0.0
C582 C 0.79373 0.38877 0.87606 0.0
C583 C 0.77261 0.4071 0.87633 0.0
C584 C 0.81984 0.39576 0.88988 0.0
C585 C 0.82508 0.42112 0.9043 0.0
C586 C 0.80357 0.4389 0.90567 0.0
C587 C 0.77751 0.43185 0.89194 0.0
C588 C 0.85333 0.43019 0.91548 0.0
C589 C 0.87328 0.43092 0.89402 0.0
C590 C 0.86011 0.44029 0.94599 0.0
C591 C 0.84045 0.43827 0.9704 0.0
C592 C 0.83465 0.46172 0.98636 0.0
C593 C 0.81598 0.45982 0.00916 0.0
C594 C 0.80305 0.43455 0.0163 0.0
C595 C 0.80881 0.4111 1.00073 0.0
C596 C 0.82749 0.41288 0.97795 0.0
C597 C 0.96542 0.50582 0.92867 0.0
C598 C 0.98128 0.49894 0.95672 0.0
C599 C 0.94089 0.49123 0.92044 0.0
C600 C 0.93203 0.46933 0.93994 0.0
C601 C 0.94797 0.46244 0.96793 0.0
C602 C 0.97237 0.47712 0.97625 0.0
C603 C 0.90575 0.45416 0.93158 0.0
C604 C 0.88617 0.45237 0.95353 0.0
C605 C 0.89949 0.4425 0.90177 0.0
C606 C 0.91998 0.44189 0.87846 0.0
C607 C 0.94541 0.43029 0.88684 0.0
C608 C 0.96472 0.42993 0.86488 0.0
C609 C 0.95876 0.44096 0.83438 0.0
C610 C 0.93346 0.45232 0.82576 0.0
C611 C 0.91409 0.45275 0.84764 0.0
H612 H 0.97374 0.44067 0.81741 0.0
H613 H 0.78859 0.43313 0.03394 0.0
H614 H 0.82176 0.77836 0.35494 0.0
H615 H 0.79689 0.74495 0.38677 0.0
H616 H 0.73315 0.73763 0.31039 0.0
H617 H 0.75691 0.77333 0.27988 0.0
H618 H 0.71084 0.73146 0.36096 0.0
H619 H 0.78753 0.69178 0.32417 0.0
H620 H 0.83575 0.68768 0.31473 0.0
H621 H 0.85794 0.6807 0.41445 0.0
H622 H 0.80989 0.68526 0.42452 0.0
H623 H 0.66539 0.59767 0.41215 0.0
H624 H 0.69173 0.63048 0.38108 0.0
H625 H 0.73107 0.66426 0.46636 0.0
H626 H 0.7038 0.63268 0.49776 0.0
H627 H 0.76518 0.65464 0.40957 0.0
H628 H 0.68344 0.69677 0.44168 0.0
H629 H 0.63371 0.69601 0.44507 0.0
H630 H 0.61989 0.69209 0.3444 0.0
H631 H 0.66956 0.69226 0.3405 0.0
C632 C 0.80195 0.77033 0.34551 0.0
C633 C 0.79113 0.77828 0.31504 0.0
C634 C 0.788 0.75084 0.3634 0.0
C635 C 0.76361 0.738 0.35057 0.0
C636 C 0.75208 0.74699 0.32071 0.0
C637 C 0.76566 0.76719 0.30321 0.0
C638 C 0.75081 0.7145 0.36775 0.0
C639 C 0.72277 0.71459 0.37124 0.0
C640 C 0.76621 0.69221 0.38103 0.0
C641 C 0.79512 0.68911 0.3751 0.0
C642 C 0.80271 0.68954 0.3441 0.0
C643 C 0.83001 0.68713 0.33863 0.0
C644 C 0.8499 0.68398 0.36398 0.0
C645 C 0.84251 0.68317 0.39485 0.0
C646 C 0.81524 0.68565 0.40045 0.0
C647 C 0.67969 0.61199 0.42438 0.0
C648 C 0.68207 0.61285 0.4575 0.0
C649 C 0.69488 0.6305 0.40656 0.0
C650 C 0.71305 0.64977 0.42157 0.0
C651 C 0.71711 0.64937 0.45451 0.0
C652 C 0.70158 0.63119 0.47239 0.0
C653 C 0.72567 0.67214 0.40298 0.0
C654 C 0.75352 0.67166 0.39918 0.0
C655 C 0.70997 0.69354 0.38848 0.0
C656 C 0.68018 0.69424 0.39084 0.0
C657 C 0.66978 0.69552 0.4203 0.0
C658 C 0.64161 0.69522 0.42231 0.0
C659 C 0.62364 0.6939 0.39497 0.0
C660 C 0.63382 0.69304 0.36556 0.0
C661 C 0.66198 0.69325 0.36344 0.0
H662 H 0.60184 0.69361 0.39656 0.0
H663 H 0.87104 0.68212 0.3597 0.0
H664 H 0.18342 0.24022 0.0981 0.0
H665 H 0.161 0.28234 0.07785 0.0
H666 H 0.16523 0.31166 0.17199 0.0
H667 H 0.18782 0.26957 0.19211 0.0
H668 H 0.12195 0.33193 0.14871 0.0
H669 H 0.20505 0.33959 0.10316 0.0
H670 H 0.24289 0.32736 0.07324 0.0
H671 H 0.18798 0.32148 0.98917 0.0
H672 H 0.14963 0.3333 0.01877 0.0
H673 H 0.03963 0.43993 0.07063 0.0
H674 H 0.06206 0.39768 0.0894 0.0
H675 H 0.1358 0.42802 0.05114 0.0
H676 H 0.11261 0.4696 0.03077 0.0
H677 H 0.1423 0.37923 0.04827 0.0
H678 H 0.06828 0.3416 0.14 0.0
H679 H 0.03885 0.36072 0.17674 0.0
H680 H 0.08773 0.43592 0.17845 0.0
H681 H 0.11759 0.41714 0.14198 0.0
C682 C 0.18022 0.25571 0.11472 0.0
C683 C 0.18856 0.25048 0.14727 0.0
C684 C 0.167 0.28048 0.10287 0.0
C685 C 0.16093 0.30207 0.12256 0.0
C686 C 0.16896 0.29653 0.15517 0.0
C687 C 0.18229 0.27184 0.16701 0.0
C688 C 0.14628 0.32957 0.1097 0.0
C689 C 0.12653 0.34177 0.12648 0.0
C690 C 0.15175 0.34468 0.08115 0.0
C691 C 0.17441 0.33697 0.06328 0.0
C692 C 0.20097 0.3354 0.07837 0.0
C693 C 0.22251 0.3286 0.06148 0.0
C694 C 0.21781 0.32358 0.02939 0.0
C695 C 0.19154 0.32531 0.01408 0.0
C696 C 0.16989 0.33206 0.03091 0.0
C697 C 0.06069 0.43797 0.06607 0.0
C698 C 0.07367 0.45961 0.04881 0.0
C699 C 0.07409 0.41322 0.0775 0.0
C700 C 0.1019 0.4082 0.07337 0.0
C701 C 0.11473 0.4298 0.05569 0.0
C702 C 0.10117 0.45438 0.04385 0.0
C703 C 0.11714 0.38109 0.08669 0.0
C704 C 0.13725 0.3691 0.07015 0.0
C705 C 0.11271 0.3667 0.11606 0.0
C706 C 0.09494 0.37808 0.13799 0.0
C707 C 0.07276 0.36219 0.14828 0.0
C708 C 0.05601 0.37297 0.16904 0.0
C709 C 0.06136 0.39955 0.17983 0.0
C710 C 0.08355 0.41537 0.16998 0.0
C711 C 0.10038 0.40468 0.14926 0.0
H712 H 0.04836 0.40786 0.19588 0.0
H713 H 0.2346 0.31849 0.01645 0.0
H714 H 0.72893 0.3814 0.92201 0.0
H715 H 0.71998 0.34169 0.95755 0.0
H716 H 0.73007 0.28714 0.88251 0.0
H717 H 0.73949 0.32675 0.84774 0.0
H718 H 0.67575 0.31221 0.94535 0.0
H719 H 0.74094 0.22337 0.9068 0.0
H720 H 0.78886 0.21646 0.89811 0.0
H721 H 0.81494 0.28294 0.95838 0.0
H722 H 0.76723 0.29001 0.96789 0.0
H723 H 0.60252 0.19173 0.91208 0.0
H724 H 0.63624 0.22982 0.91113 0.0
H725 H 0.67519 0.20092 1.0004 0.0
H726 H 0.64083 0.16302 1.00218 0.0
H727 H 0.71207 0.21852 0.95203 0.0
H728 H 0.64158 0.25167 1.00706 0.0
H729 H 0.59402 0.25874 0.01728 0.0
H730 H 0.58112 0.30487 0.92959 0.0
H731 H 0.6285 0.29772 0.9186 0.0
C732 C 0.73049 0.3608 0.91387 0.0
C733 C 0.73464 0.35679 0.88237 0.0
C734 C 0.72525 0.33818 0.93399 0.0
C735 C 0.72426 0.31137 0.92274 0.0
C736 C 0.73114 0.30748 0.89205 0.0
C737 C 0.73637 0.33005 0.87207 0.0
C738 C 0.71072 0.28828 0.93988 0.0
C739 C 0.68402 0.29187 0.94747 0.0
C740 C 0.72156 0.26174 0.94326 0.0
C741 C 0.7504 0.25725 0.93801 0.0
C742 C 0.75688 0.23637 0.91845 0.0
C743 C 0.78403 0.23247 0.91331 0.0
C744 C 0.80493 0.24926 0.92766 0.0
C745 C 0.79873 0.26998 0.94723 0.0
C746 C 0.77162 0.27397 0.95246 0.0
C747 C 0.6181 0.19349 0.93166 0.0
C748 C 0.61874 0.17447 0.95737 0.0
C749 C 0.63747 0.21516 0.93096 0.0
C750 C 0.65799 0.21824 0.95582 0.0
C751 C 0.65947 0.1988 0.981 0.0
C752 C 0.63988 0.17714 0.98187 0.0
C753 C 0.67698 0.24258 0.9555 0.0
C754 C 0.70441 0.2391 0.95095 0.0
C755 C 0.66704 0.26935 0.95536 0.0
C756 C 0.63859 0.27407 0.96197 0.0
C757 C 0.62856 0.26319 0.98987 0.0
C758 C 0.60163 0.26722 0.99581 0.0
C759 C 0.58455 0.28223 0.97409 0.0
C760 C 0.59439 0.29327 0.94641 0.0
C761 C 0.6213 0.28927 0.94034 0.0
H762 H 0.5637 0.28532 0.97872 0.0
H763 H 0.82592 0.24622 0.92362 0.0
H764 H 0.89562 0.807 0.29796 0.0
H765 H 0.93318 0.83665 0.32008 0.0
H766 H 0.88078 0.90587 0.30931 0.0
H767 H 0.84437 0.87666 0.28359 0.0
H768 H 0.92823 0.92515 0.30757 0.0
H769 H 0.88696 0.86032 0.37794 0.0
H770 H 0.87213 0.81431 0.39768 0.0
H771 H 0.95535 0.7901 0.40931 0.0
H772 H 0.97063 0.83587 0.38918 0.0
H773 H 0.97889 0.9571 0.48158 0.0
H774 H 0.95545 0.92595 0.44346 0.0
H775 H 1.00656 0.95845 0.37261 0.0
H776 H 0.02812 0.99138 0.41015 0.0
H777 H 0.96399 0.88691 0.41218 0.0
H778 H 0.97518 0.95619 0.3001 0.0
H779 H 0.98085 1.00544 0.28509 0.0
H780 H 0.94195 0.02697 0.36611 0.0
H781 H 0.93577 0.97785 0.38138 0.0
C782 C 0.89266 0.82881 0.29866 0.0
C783 C 0.86711 0.83962 0.28926 0.0
C784 C 0.91396 0.84569 0.31196 0.0
C785 C 0.90953 0.8733 0.31761 0.0
C786 C 0.88473 0.8846 0.30562 0.0
C787 C 0.86383 0.86792 0.29118 0.0
C788 C 0.92909 0.88945 0.33909 0.0
C789 C 0.93619 0.91672 0.33036 0.0
C790 C 0.93896 0.87881 0.36928 0.0
C791 C 0.9299 0.85138 0.38173 0.0
C792 C 0.90207 0.84513 0.38457 0.0
C793 C 0.89359 0.8191 0.39581 0.0
C794 C 0.91278 0.79927 0.40465 0.0
C795 C 0.94051 0.80546 0.40237 0.0
C796 C 0.94909 0.83144 0.39105 0.0
C797 C 0.98515 0.95734 0.45789 0.0
C798 C 1.005 0.9766 0.4485 0.0
C799 C 0.97184 0.93952 0.43609 0.0
C800 C 0.97872 0.94016 0.40477 0.0
C801 C 1.00012 0.95814 0.39619 0.0
C802 C 1.01265 0.97673 0.41767 0.0
C803 C 0.96259 0.92292 0.38106 0.0
C804 C 0.9563 0.89533 0.38928 0.0
C805 C 0.95203 0.93383 0.35125 0.0
C806 C 0.95534 0.96339 0.34205 0.0
C807 C 0.96778 0.97145 0.31464 0.0
C808 C 0.97109 0.99933 0.3061 0.0
C809 C 0.96186 0.01932 0.3247 0.0
C810 C 0.94918 1.01147 0.35179 0.0
C811 C 0.94578 0.98362 0.3604 0.0
H812 H 0.96448 0.04089 0.31807 0.0
H813 H 0.90618 0.77913 0.41334 0.0
H814 H 0.44916 0.75037 0.72687 0.0
H815 H 0.46433 0.71437 0.69475 0.0
H816 H 0.38996 0.66661 0.70713 0.0
H817 H 0.37561 0.70217 0.74063 0.0
H818 H 0.43089 0.6333 0.70574 0.0
H819 H 0.39563 0.70808 0.64185 0.0
H820 H 0.39068 0.75653 0.62406 0.0
H821 H 0.47396 0.76159 0.60176 0.0
H822 H 0.47958 0.71327 0.61997 0.0
H823 H 0.44737 0.55777 0.56548 0.0
H824 H 0.4271 0.58842 0.60058 0.0
H825 H 0.50406 0.63382 0.61538 0.0
H826 H 0.52445 0.60325 0.58111 0.0
H827 H 0.45613 0.66661 0.60044 0.0
H828 H 0.49029 0.59096 0.66946 0.0
H829 H 0.49256 0.5419 0.6858 0.0
H830 H 0.40646 0.53796 0.69516 0.0
H831 H 0.40363 0.58694 0.67841 0.0
C832 C 0.43657 0.73176 0.72342 0.0
C833 C 0.41128 0.72886 0.73593 0.0
C834 C 0.44501 0.71139 0.70484 0.0
C835 C 0.42793 0.68814 0.69786 0.0
C836 C 0.40336 0.68447 0.71199 0.0
C837 C 0.39513 0.70471 0.73095 0.0
C838 C 0.43496 0.6687 0.67426 0.0
C839 C 0.43602 0.64055 0.68257 0.0
C840 C 0.44145 0.67809 0.64389 0.0
C841 C 0.43809 0.70709 0.63252 0.0
C842 C 0.41295 0.71956 0.63334 0.0
C843 C 0.41002 0.747 0.62318 0.0
C844 C 0.432 0.76214 0.61184 0.0
C845 C 0.45695 0.74984 0.61058 0.0
C846 C 0.46002 0.72242 0.62081 0.0
C847 C 0.45985 0.57437 0.57616 0.0
C848 C 0.48749 0.57808 0.57074 0.0
C849 C 0.44831 0.59175 0.59619 0.0
C850 C 0.46418 0.61326 0.61053 0.0
C851 C 0.49153 0.61732 0.6045 0.0
C852 C 0.50315 0.59976 0.58504 0.0
C853 C 0.45275 0.63151 0.63231 0.0
C854 C 0.45072 0.65943 0.62354 0.0
C855 C 0.44491 0.62182 0.66194 0.0
C856 C 0.44669 0.5925 0.67233 0.0
C857 C 0.47181 0.57957 0.67473 0.0
C858 C 0.47321 0.55179 0.68412 0.0
C859 C 0.44966 0.5368 0.69142 0.0
C860 C 0.42468 0.54959 0.68944 0.0
C861 C 0.42317 0.57735 0.68002 0.0
H862 H 0.45078 0.5153 0.69868 0.0
H863 H 0.42969 0.78339 0.60397 0.0
H864 H 0.86569 0.85332 0.7921 0.0
H865 H 0.89045 0.87079 0.74739 0.0
H866 H 0.92645 0.93678 0.80339 0.0
H867 H 0.90094 0.91963 0.84743 0.0
H868 H 0.92294 0.96036 0.75198 0.0
H869 H 0.9609 0.87222 0.77004 0.0
H870 H 0.96128 0.82169 0.77679 0.0
H871 H 0.92013 0.81339 0.68412 0.0
H872 H 0.91922 0.86389 0.67697 0.0
H873 H 0.02484 0.94482 0.61287 0.0
H874 H 1.00144 0.92545 0.65767 0.0
H875 H 0.94539 0.99113 0.64589 0.0
H876 H 0.96953 1.01101 0.60216 0.0
H877 H 0.96107 0.90133 0.67669 0.0
H878 H 0.90583 0.99766 0.70674 0.0
H879 H 0.91272 0.04818 0.7058 0.0
H880 H 0.99948 0.04009 0.71122 0.0
H881 H 0.99311 0.98955 0.71252 0.0
C882 C 0.87959 0.87099 0.79552 0.0
C883 C 0.88164 0.88386 0.82508 0.0
C884 C 0.89408 0.88143 0.76924 0.0
C885 C 0.91177 0.9056 0.77038 0.0
C886 C 0.91366 0.9183 0.80011 0.0
C887 C 0.89911 0.90797 0.82621 0.0
C888 C 0.92734 0.91805 0.74133 0.0
C889 C 0.93094 0.94698 0.7357 0.0
C890 C 0.93931 0.90209 0.71894 0.0
C891 C 0.93973 0.8718 0.72312 0.0
C892 C 0.95178 0.8596 0.75119 0.0
C893 C 0.95211 0.83098 0.75508 0.0
C894 C 0.94066 0.81434 0.73094 0.0
C895 C 0.92893 0.8263 0.70282 0.0
C896 C 0.92852 0.85492 0.69883 0.0
C897 C 1.00767 0.95553 0.61974 0.0
C898 C 0.99997 0.98024 0.60271 0.0
C899 C 0.99382 0.94408 0.646 0.0
C900 C 0.97105 0.95632 0.65752 0.0
C901 C 0.96306 0.98076 0.63993 0.0
C902 C 0.97707 0.99235 0.61389 0.0
C903 C 0.95602 0.94364 0.68688 0.0
C904 C 0.95272 0.91469 0.69273 0.0
C905 C 0.94494 0.95957 0.70999 0.0
C906 C 0.94895 0.98986 0.70936 0.0
C907 C 0.92637 1.00668 0.70781 0.0
C908 C 0.93019 0.03531 0.7072 0.0
C909 C 0.95652 0.04733 0.70834 0.0
C910 C 0.9791 0.03076 0.71022 0.0
C911 C 0.97539 1.00212 0.71087 0.0
H912 H 0.95943 0.0695 0.70783 0.0
H913 H 0.94094 0.79218 0.73399 0.0
H914 H 0.702 0.27166 0.20343 0.0
H915 H 0.68758 0.2341 0.16802 0.0
H916 H 0.66873 0.1821 0.24802 0.0
H917 H 0.68265 0.21995 0.28321 0.0
H918 H 0.69198 0.15387 0.1995 0.0
H919 H 0.61909 0.2153 0.21224 0.0
H920 H 0.59886 0.26079 0.2114 0.0
H921 H 0.61181 0.27322 0.11361 0.0
H922 H 0.63229 0.22783 0.11394 0.0
H923 H 0.58834 0.06151 0.13245 0.0
H924 H 0.61784 0.09407 0.16345 0.0
H925 H 0.62114 0.14849 0.08138 0.0
H926 H 0.59117 0.11638 0.0505 0.0
H927 H 0.60931 0.17589 0.12879 0.0
H928 H 0.67679 0.11218 0.11342 0.0
H929 H 0.69798 0.06725 0.11356 0.0
H930 H 0.69734 0.05924 0.2141 0.0
H931 H 0.67572 0.10392 0.21455 0.0
C932 C 0.69507 0.25205 0.21327 0.0
C933 C 0.69292 0.2486 0.24573 0.0
C934 C 0.68701 0.23064 0.19321 0.0
C935 C 0.67679 0.20548 0.20543 0.0
C936 C 0.67657 0.20136 0.23816 0.0
C937 C 0.68446 0.22288 0.25819 0.0
C938 C 0.66336 0.18482 0.18399 0.0
C939 C 0.67379 0.15848 0.18414 0.0
C940 C 0.64004 0.1912 0.16352 0.0
C941 C 0.62747 0.21833 0.1632 0.0
C942 C 0.61778 0.22782 0.19062 0.0
C943 C 0.60624 0.25356 0.19023 0.0
C944 C 0.60418 0.26994 0.16252 0.0
C945 C 0.61349 0.26054 0.13508 0.0
C946 C 0.62501 0.23479 0.13534 0.0
C947 C 0.59557 0.0803 0.12096 0.0
C948 C 0.58725 0.08648 0.08912 0.0
C949 C 0.61259 0.09881 0.13865 0.0
C950 C 0.62191 0.12367 0.12471 0.0
C951 C 0.61419 0.12948 0.09267 0.0
C952 C 0.59702 0.11111 0.07506 0.0
C953 C 0.63779 0.14459 0.14406 0.0
C954 C 0.62769 0.17111 0.14373 0.0
C955 C 0.66149 0.1383 0.16413 0.0
C956 C 0.67432 0.1113 0.16396 0.0
C957 C 0.68089 0.10072 0.13554 0.0
C958 C 0.69304 0.07531 0.13551 0.0
C959 C 0.69892 0.06036 0.16381 0.0
C960 C 0.69272 0.07082 0.1922 0.0
C961 C 0.68053 0.09619 0.19235 0.0
H962 H 0.70834 0.04071 0.16374 0.0
H963 H 0.59529 0.28989 0.16228 0.0
H964 H 0.40443 0.57858 0.19101 0.0
H965 H 0.43165 0.57267 0.24186 0.0
H966 H 0.43 0.65982 0.25564 0.0
H967 H 0.40238 0.66556 0.20478 0.0
H968 H 0.48238 0.63264 0.27727 0.0
H969 H 0.38569 0.62662 0.28936 0.0
H970 H 0.33815 0.61017 0.27572 0.0
H971 H 0.36138 0.52668 0.29396 0.0
H972 H 0.40912 0.54265 0.30757 0.0
H973 H 0.51469 0.61465 0.44428 0.0
H974 H 0.49329 0.62997 0.39261 0.0
H975 H 0.47306 0.54552 0.3699 0.0
H976 H 0.49379 0.53024 0.42151 0.0
H977 H 0.43112 0.57671 0.35365 0.0
H978 H 0.52732 0.58138 0.34054 0.0
H979 H 0.5753 0.59644 0.35393 0.0
H980 H 0.55434 0.68073 0.33694 0.0
H981 H 0.5061 0.66617 0.32382 0.0
C982 C 0.41054 0.59646 0.20466 0.0
C983 C 0.40153 0.62244 0.19431 0.0
C984 C 0.42598 0.59313 0.23355 0.0
C985 C 0.43259 0.61581 0.25247 0.0
C986 C 0.42517 0.64215 0.24122 0.0
C987 C 0.40954 0.64543 0.21227 0.0
C988 C 0.44438 0.61121 0.28529 0.0
C989 C 0.47112 0.62083 0.29423 0.0
C990 C 0.4297 0.59548 0.30709 0.0
C991 C 0.40098 0.58582 0.29925 0.0
C992 C 0.38068 0.60475 0.29031 0.0
C993 C 0.35369 0.59552 0.28268 0.0
C994 C 0.34676 0.5674 0.2839 0.0
C995 C 0.36678 0.54846 0.29298 0.0
C996 C 0.39379 0.55759 0.30075 0.0
C997 C 0.50553 0.59944 0.42825 0.0
C998 C 0.50594 0.57129 0.43673 0.0
C999 C 0.49349 0.60818 0.39873 0.0
C1000 C 0.4819 0.58885 0.37729 0.0
C1001 C 0.48192 0.56077 0.38607 0.0
C1002 C 0.49381 0.55207 0.41552 0.0
C1003 C 0.46946 0.59759 0.3457 0.0
C1004 C 0.44244 0.58879 0.33695 0.0
C1005 C 0.48402 0.61392 0.32414 0.0
C1006 C 0.51305 0.6227 0.33155 0.0
C1007 C 0.5329 0.60314 0.33986 0.0
C1008 C 0.56014 0.61158 0.34736 0.0
C1009 C 0.56784 0.63953 0.34638 0.0
C1010 C 0.54833 0.65909 0.33774 0.0
C1011 C 0.52103 0.65076 0.33024 0.0
H1012 H 0.58894 0.646 0.35224 0.0
H1013 H 0.32588 0.56029 0.27786 0.0
H1014 H 0.26847 0.27744 0.83953 0.0
H1015 H 0.25161 0.31291 0.87132 0.0
H1016 H 0.1734 0.30717 0.81664 0.0
H1017 H 0.19063 0.27278 0.78435 0.0
H1018 H 0.19799 0.35834 0.81389 0.0
H1019 H 0.17533 0.29134 0.89844 0.0
H1020 H 0.18846 0.25264 0.93518 0.0
H1021 H 0.25867 0.30003 0.97295 0.0
H1022 H 0.24548 0.33924 0.93704 0.0
H1023 H 0.1207 0.45289 0.88 0.0
H1024 H 0.1386 0.41079 0.86241 0.0
H1025 H 0.20882 0.41973 0.93043 0.0
H1026 H 0.19016 0.46144 0.94908 0.0
H1027 H 0.19289 0.3677 0.92857 0.0
H1028 H 0.21228 0.43709 0.85092 0.0
H1029 H 0.20303 0.47549 0.81248 0.0
H1030 H 0.14521 0.42398 0.75784 0.0
H1031 H 0.15382 0.38537 0.7962 0.0
C1032 C 0.24743 0.28319 0.83523 0.0
C1033 C 0.23077 0.27253 0.80974 0.0
C1034 C 0.23778 0.30331 0.85334 0.0
C1035 C 0.21127 0.31266 0.84622 0.0
C1036 C 0.19391 0.30019 0.82249 0.0
C1037 C 0.20362 0.28036 0.8043 0.0
C1038 C 0.20294 0.33807 0.85976 0.0
C1039 C 0.19642 0.36029 0.83891 0.0
C1040 C 0.20237 0.34098 0.89245 0.0
C1041 C 0.20943 0.31812 0.91519 0.0
C1042 C 0.19343 0.29352 0.9148 0.0
C1043 C 0.20083 0.27156 0.93551 0.0
C1044 C 0.22432 0.27392 0.95648 0.0
C1045 C 0.24037 0.2983 0.95687 0.0
C1046 C 0.23281 0.32049 0.93657 0.0
C1047 C 0.14006 0.44596 0.89098 0.0
C1048 C 0.15434 0.46051 0.91545 0.0
C1049 C 0.15028 0.42193 0.88097 0.0
C1050 C 0.17537 0.41243 0.89463 0.0
C1051 C 0.1895 0.42675 0.91947 0.0
C1052 C 0.17896 0.45058 0.92995 0.0
C1053 C 0.18679 0.38776 0.88247 0.0
C1054 C 0.19429 0.36582 0.90352 0.0
C1055 C 0.18873 0.38521 0.84981 0.0
C1056 C 0.18356 0.40839 0.82659 0.0
C1057 C 0.19746 0.434 0.83083 0.0
C1058 C 0.19235 0.4558 0.80903 0.0
C1059 C 0.17351 0.45219 0.78277 0.0
C1060 C 0.15978 0.42675 0.7782 0.0
C1061 C 0.1648 0.40489 0.79995 0.0
H1062 H 0.16957 0.4691 0.76592 0.0
H1063 H 0.23013 0.25684 0.97237 0.0
H1064 H 0.77655 0.85974 0.89625 0.0
H1065 H 0.73716 0.87919 0.91719 0.0
H1066 H 0.77586 0.9598 0.9122 0.0
H1067 H 0.8158 0.9401 0.89217 0.0
H1068 H 0.74783 0.96466 0.95876 0.0
H1069 H 0.71159 0.92888 0.86017 0.0
H1070 H 0.70092 0.89413 0.81984 0.0
H1071 H 0.65714 0.84395 0.88485 0.0
H1072 H 0.66783 0.87829 0.92568 0.0
H1073 H 0.62509 0.99947 0.03459 0.0
H1074 H 0.66576 0.97928 0.01665 0.0
H1075 H 0.62381 0.97056 0.92436 0.0
H1076 H 0.58333 0.99011 0.94244 0.0
H1077 H 0.65377 0.93124 0.92509 0.0
H1078 H 0.73623 0.96986 0.01935 0.0
H1079 H 0.74614 1.00911 0.05404 0.0
H1080 H 0.69668 0.06027 0.98946 0.0
H1081 H 0.68672 0.0214 0.95426 0.0
C1082 C 0.77717 0.88167 0.89956 0.0
C1083 C 0.80076 0.89762 0.89161 0.0
C1084 C 0.7537 0.89327 0.91152 0.0
C1085 C 0.75147 0.92198 0.91659 0.0
C1086 C 0.77532 0.93784 0.90909 0.0
C1087 C 0.7988 0.92626 0.89699 0.0
C1088 C 0.72516 0.93505 0.92943 0.0
C1089 C 0.72746 0.95679 0.95122 0.0
C1090 C 0.69715 0.92667 0.92043 0.0
C1091 C 0.69076 0.906 0.89606 0.0
C1092 C 0.69984 0.91035 0.86591 0.0
C1093 C 0.69377 0.89074 0.84296 0.0
C1094 C 0.67843 0.86681 0.84981 0.0
C1095 C 0.66907 0.86247 0.8796 0.0
C1096 C 0.67511 0.882 0.90265 0.0
C1097 C 0.62418 0.99337 0.01038 0.0
C1098 C 0.59947 0.99723 0.99058 0.0
C1099 C 0.64827 0.98171 0.9996 0.0
C1100 C 0.64989 0.97295 0.96804 0.0
C1101 C 0.62494 0.97649 0.94864 0.0
C1102 C 0.60104 0.98816 0.95932 0.0
C1103 C 0.67642 0.96025 0.95523 0.0
C1104 C 0.67414 0.93879 0.93312 0.0
C1105 C 0.70439 0.96915 0.96362 0.0
C1106 C 0.71051 0.99265 0.98439 0.0
C1107 C 0.72755 0.98951 0.01253 0.0
C1108 C 0.73315 1.01168 0.03228 0.0
C1109 C 0.72196 0.03714 0.02402 0.0
C1110 C 0.70525 0.04052 0.9959 0.0
C1111 C 0.69961 0.01843 0.97605 0.0
H1112 H 0.72629 0.05426 0.03937 0.0
H1113 H 0.67375 0.85166 0.83202 0.0
H1114 H 0.7549 0.2549 0.26203 0.0
H1115 H 0.79002 0.22318 0.28397 0.0
H1116 H 0.74974 0.21316 0.3695 0.0
H1117 H 0.71466 0.24447 0.34732 0.0
H1118 H 0.80405 0.22859 0.38003 0.0
H1119 H 0.74796 0.16234 0.32101 0.0
H1120 H 0.72272 0.14428 0.27303 0.0
H1121 H 0.79747 0.14185 0.22922 0.0
H1122 H 0.82312 0.16052 0.27669 0.0
H1123 H 0.87578 0.12575 0.46463 0.0
H1124 H 0.83861 0.14806 0.43293 0.0
H1125 H 0.88711 0.15536 0.35377 0.0
H1126 H 0.92471 0.13305 0.38559 0.0
H1127 H 0.83045 0.14149 0.33689 0.0
H1128 H 0.88608 0.2088 0.39538 0.0
H1129 H 0.91102 0.22795 0.44296 0.0
H1130 H 0.83634 0.2289 0.48716 0.0
H1131 H 0.81099 0.20934 0.44 0.0
C1132 C 0.75351 0.24548 0.28528 0.0
C1133 C 0.73265 0.25235 0.30339 0.0
C1134 C 0.77342 0.22743 0.29776 0.0
C1135 C 0.77252 0.216 0.32843 0.0
C1136 C 0.75091 0.22196 0.3459 0.0
C1137 C 0.73101 0.23984 0.33337 0.0
C1138 C 0.79507 0.1995 0.34339 0.0
C1139 C 0.80958 0.20938 0.37078 0.0
C1140 C 0.80276 0.17489 0.3307 0.0
C1141 C 0.78745 0.16314 0.30233 0.0
C1142 C 0.75901 0.1582 0.30105 0.0
C1143 C 0.74462 0.14782 0.27395 0.0
C1144 C 0.75847 0.14198 0.24806 0.0
C1145 C 0.78676 0.14643 0.24927 0.0
C1146 C 0.80124 0.15691 0.27628 0.0
C1147 C 0.87859 0.1321 0.44048 0.0
C1148 C 0.90338 0.12814 0.4278 0.0
C1149 C 0.85725 0.14463 0.42233 0.0
C1150 C 0.86026 0.15364 0.39115 0.0
C1151 C 0.88442 0.14852 0.3778 0.0
C1152 C 0.90587 0.13586 0.39601 0.0
C1153 C 0.83899 0.17043 0.37379 0.0
C1154 C 0.82487 0.16073 0.34598 0.0
C1155 C 0.83155 0.19533 0.38598 0.0
C1156 C 0.84668 0.20738 0.41426 0.0
C1157 C 0.875 0.2129 0.41533 0.0
C1158 C 0.88921 0.22386 0.44221 0.0
C1159 C 0.87528 0.22958 0.46809 0.0
C1160 C 0.8471 0.22443 0.4671 0.0
C1161 C 0.8328 0.21343 0.4403 0.0
H1162 H 0.88632 0.23806 0.48888 0.0
H1163 H 0.74729 0.13394 0.2271 0.0
H1164 H 0.3048 0.65887 0.11929 0.0
H1165 H 0.25603 0.65059 0.10532 0.0
H1166 H 0.26514 0.56378 0.12637 0.0
H1167 H 0.31444 0.57192 0.1371 0.0
H1168 H 0.2317 0.56744 0.07986 0.0
H1169 H 0.23915 0.61074 0.17825 0.0
H1170 H 0.25347 0.64599 0.217 0.0
H1171 H 0.2091 0.70642 0.1594 0.0
H1172 H 0.19483 0.6716 0.12006 0.0
H1173 H 0.08521 0.55616 0.11589 0.0
H1174 H 0.13323 0.56815 0.13146 0.0
H1175 H 0.14156 0.60498 0.03908 0.0
H1176 H 0.09299 0.59454 0.02391 0.0
H1177 H 0.16491 0.625 0.12395 0.0
H1178 H 0.19989 0.56105 0.02368 0.0
H1179 H 0.18956 0.51651 0.99851 0.0
H1180 H 0.15038 0.48574 0.07929 0.0
H1181 H 0.16079 0.5298 0.10501 0.0
C1182 C 0.29644 0.63797 0.12003 0.0
C1183 C 0.31331 0.61597 0.12902 0.0
C1184 C 0.26848 0.63329 0.11271 0.0
C1185 C 0.25669 0.60663 0.11546 0.0
C1186 C 0.27365 0.58457 0.12411 0.0
C1187 C 0.30174 0.58919 0.1305 0.0
C1188 C 0.22676 0.60164 0.10916 0.0
C1189 C 0.21722 0.58018 0.0895 0.0
C1190 C 0.20765 0.61761 0.12245 0.0
C1191 C 0.21614 0.63862 0.14606 0.0
C1192 C 0.2326 0.63159 0.17374 0.0
C1193 C 0.24069 0.65148 0.19582 0.0
C1194 C 0.23226 0.67844 0.19063 0.0
C1195 C 0.21566 0.68554 0.16337 0.0
C1196 C 0.20754 0.66573 0.14118 0.0
C1197 C 0.09714 0.56728 0.09909 0.0
C1198 C 0.08562 0.57395 0.06846 0.0
C1199 C 0.1245 0.57406 0.10801 0.0
C1200 C 0.14084 0.58697 0.08619 0.0
C1201 C 0.12918 0.5947 0.05604 0.0
C1202 C 0.10157 0.58864 0.04739 0.0
C1203 C 0.17036 0.59129 0.09444 0.0
C1204 C 0.17965 0.61263 0.11425 0.0
C1205 C 0.18928 0.57431 0.08278 0.0
C1206 C 0.18063 0.54892 0.06597 0.0
C1207 C 0.18877 0.54487 0.03586 0.0
C1208 C 0.18307 0.51965 0.0216 0.0
C1209 C 0.16938 0.49831 0.03735 0.0
C1210 C 0.16089 0.50231 0.06708 0.0
C1211 C 0.16656 0.52745 0.08143 0.0
H1212 H 0.16548 0.47861 0.02665 0.0
H1213 H 0.23854 0.69381 0.20776 0.0
H1214 H 0.30157 0.25199 0.71059 0.0
H1215 H 0.31829 0.28179 0.6681 0.0
H1216 H 0.24032 0.31987 0.6545 0.0
H1217 H 0.22472 0.29155 0.69847 0.0
H1218 H 0.3082 0.29518 0.60855 0.0
H1219 H 0.24774 0.38619 0.64137 0.0
H1220 H 0.22639 0.40308 0.68663 0.0
H1221 H 0.28431 0.36072 0.7506 0.0
H1222 H 0.30583 0.3434 0.70571 0.0
H1223 H 0.34987 0.40654 0.50902 0.0
H1224 H 0.31963 0.37434 0.5359 0.0
H1225 H 0.35401 0.40393 0.62572 0.0
H1226 H 0.38279 0.43737 0.59905 0.0
H1227 H 0.30296 0.39442 0.62839 0.0
H1228 H 0.37559 0.34404 0.59153 0.0
H1229 H 0.40316 0.32763 0.55124 0.0
H1230 H 0.33153 0.2892 0.50374 0.0
H1231 H 0.30348 0.30568 0.54359 0.0
C1232 C 0.2879 0.26614 0.69766 0.0
C1233 C 0.26177 0.26919 0.707 0.0
C1234 C 0.29737 0.28319 0.67353 0.0
C1235 C 0.28071 0.30343 0.65846 0.0
C1236 C 0.25372 0.30477 0.66612 0.0
C1237 C 0.24456 0.28822 0.69071 0.0
C1238 C 0.29253 0.32491 0.6375 0.0
C1239 C 0.30686 0.31689 0.6127 0.0
C1240 C 0.29111 0.35327 0.64311 0.0
C1241 C 0.27816 0.36329 0.67023 0.0
C1242 C 0.25585 0.38045 0.66511 0.0
C1243 C 0.24369 0.39003 0.69068 0.0
C1244 C 0.25388 0.38282 0.72147 0.0
C1245 C 0.2763 0.36608 0.72674 0.0
C1246 C 0.28842 0.3563 0.70126 0.0
C1247 C 0.35053 0.40667 0.53445 0.0
C1248 C 0.36906 0.42435 0.55189 0.0
C1249 C 0.33346 0.38797 0.54981 0.0
C1250 C 0.33495 0.38627 0.58286 0.0
C1251 C 0.35257 0.4047 0.60019 0.0
C1252 C 0.36929 0.42363 0.5849 0.0
C1253 C 0.31916 0.36473 0.59982 0.0
C1254 C 0.30392 0.37275 0.6238 0.0
C1255 C 0.32057 0.33638 0.59412 0.0
C1256 C 0.33742 0.32634 0.57031 0.0
C1257 C 0.36571 0.33224 0.57238 0.0
C1258 C 0.38141 0.32291 0.54964 0.0
C1259 C 0.36909 0.30745 0.52489 0.0
C1260 C 0.34104 0.30122 0.52289 0.0
C1261 C 0.32523 0.31054 0.54554 0.0
H1262 H 0.38128 0.30025 0.50731 0.0
H1263 H 0.24447 0.39029 0.74124 0.0
H1264 H 0.84205 0.80173 0.87631 0.0
H1265 H 0.86671 0.76075 0.89494 0.0
H1266 H 0.9425 0.80796 0.89718 0.0
H1267 H 0.91738 0.84981 0.87971 0.0
H1268 H 0.95107 0.75387 0.8771 0.0
H1269 H 0.91123 0.7861 0.96621 0.0
H1270 H 0.87412 0.80057 0.99598 0.0
H1271 H 0.8328 0.72174 0.98379 0.0
H1272 H 0.86944 0.70695 0.95344 0.0
H1273 H 0.0281 0.6423 0.95632 0.0
H1274 H 1.00668 0.68501 0.93762 0.0
H1275 H 0.92992 0.65278 0.96662 0.0
H1276 H 0.95205 0.61065 0.98726 0.0
H1277 H 0.92228 0.70087 0.9706 0.0
H1278 H 0.95697 0.66903 0.87815 0.0
H1279 H 0.99108 0.65335 0.84476 0.0
H1280 H 0.03834 0.72877 0.85881 0.0
H1281 H 1.00463 0.74477 0.89254 0.0
C1282 C 0.86401 0.80385 0.88063 0.0
C1283 C 0.87693 0.83035 0.87611 0.0
C1284 C 0.87846 0.77978 0.89167 0.0
C1285 C 0.90726 0.77986 0.89864 0.0
C1286 C 0.92053 0.80604 0.89262 0.0
C1287 C 0.9059 0.83051 0.88208 0.0
C1288 C 0.92268 0.75316 0.91232 0.0
C1289 C 0.94477 0.74274 0.89788 0.0
C1290 C 0.91501 0.73669 0.93903 0.0
C1291 C 0.89297 0.74551 0.95727 0.0
C1292 C 0.89412 0.77192 0.96964 0.0
C1293 C 0.87318 0.78018 0.98665 0.0
C1294 C 0.85109 0.76211 0.99172 0.0
C1295 C 0.84991 0.73573 0.97981 0.0
C1296 C 0.87076 0.7274 0.9627 0.0
C1297 C 1.00658 0.64392 0.95883 0.0
C1298 C 0.99247 0.6216 0.97373 0.0
C1299 C 0.99377 0.66898 0.94735 0.0
C1300 C 0.96544 0.67364 0.9488 0.0
C1301 C 0.95145 0.65132 0.96413 0.0
C1302 C 0.96442 0.62644 0.97618 0.0
C1303 C 0.95083 0.70112 0.93532 0.0
C1304 C 0.92875 0.71179 0.9498 0.0
C1305 C 0.95812 0.71749 0.90819 0.0
C1306 C 0.97847 0.70793 0.88814 0.0
C1307 C 0.97473 0.68218 0.87425 0.0
C1308 C 0.99397 0.67326 0.85526 0.0
C1309 C 1.01691 0.69002 0.84976 0.0
C1310 C 1.0206 0.71578 0.86316 0.0
C1311 C 1.00143 0.72479 0.8822 0.0
H1312 H 0.03178 0.68307 0.83504 0.0
H1313 H 0.83492 0.76852 1.00494 0.0
H1314 H 0.37829 0.69491 0.13843 0.0
H1315 H 0.41293 0.73008 0.12605 0.0
H1316 H 0.47199 0.66747 0.12376 0.0
H1317 H 0.43678 0.63197 0.13637 0.0
H1318 H 0.49171 0.71872 0.15489 0.0
H1319 H 0.44942 0.68922 0.05674 0.0
H1320 H 0.41061 0.67429 0.01974 0.0
H1321 H 0.37567 0.75322 0.02305 0.0
H1322 H 0.41397 0.76848 0.06056 0.0
H1323 H 0.55416 0.84771 0.09361 0.0
H1324 H 0.54201 0.79796 0.09447 0.0
H1325 H 0.45891 0.81569 0.1077 0.0
H1326 H 0.47092 0.86477 0.10727 0.0
H1327 H 0.46499 0.77714 0.05987 0.0
H1328 H 0.49884 0.79883 0.16917 0.0
H1329 H 0.53515 0.81377 0.20943 0.0
H1330 H 0.58533 0.74942 0.18506 0.0
H1331 H 0.54938 0.73434 0.14434 0.0
C1332 C 0.3987 0.68878 0.13531 0.0
C1333 C 0.40498 0.661 0.13759 0.0
C1334 C 0.41843 0.70874 0.12836 0.0
C1335 C 0.4448 0.70123 0.12338 0.0
C1336 C 0.45165 0.67354 0.12729 0.0
C1337 C 0.4317 0.65342 0.13438 0.0
C1338 C 0.46421 0.72279 0.11275 0.0
C1339 C 0.48654 0.73103 0.13357 0.0
C1340 C 0.45738 0.73872 0.08489 0.0
C1341 C 0.43465 0.73 0.06149 0.0
C1342 C 0.43343 0.70339 0.04966 0.0
C1343 C 0.4115 0.69485 0.02861 0.0
C1344 C 0.3907 0.7128 0.01904 0.0
C1345 C 0.39183 0.73935 0.03044 0.0
C1346 C 0.41368 0.74798 0.05156 0.0
C1347 C 0.53333 0.84078 0.09656 0.0
C1348 C 0.51346 0.85985 0.10066 0.0
C1349 C 0.52646 0.81253 0.09707 0.0
C1350 C 0.49958 0.80331 0.10107 0.0
C1351 C 0.47973 0.82246 0.10445 0.0
C1352 C 0.48663 0.85042 0.10443 0.0
C1353 C 0.49144 0.77381 0.10286 0.0
C1354 C 0.47112 0.76411 0.08032 0.0
C1355 C 0.50014 0.75661 0.12906 0.0
C1356 C 0.52165 0.76574 0.15344 0.0
C1357 C 0.51773 0.78806 0.17219 0.0
C1358 C 0.53821 0.79651 0.19514 0.0
C1359 C 0.56258 0.78262 0.19971 0.0
C1360 C 0.56648 0.76021 0.18142 0.0
C1361 C 0.54607 0.75171 0.15841 0.0
H1362 H 0.5784 0.78918 0.2175 0.0
H1363 H 0.37371 0.70614 1.00278 0.0
H1364 H 0.20023 0.2495 0.69574 0.0
H1365 H 0.17308 0.21821 0.66047 0.0
H1366 H 0.21969 0.1504 0.70074 0.0
H1367 H 0.24786 0.1822 0.73491 0.0
H1368 H 0.19041 0.17081 0.61687 0.0
H1369 H 0.16607 0.10962 0.72691 0.0
H1370 H 0.16398 0.11614 0.78374 0.0
H1371 H 0.13946 0.19906 0.76393 0.0
H1372 H 0.1413 0.19293 0.70705 0.0
H1373 H 0.10238 0.03515 0.62186 0.0
H1374 H 0.13103 0.07051 0.64921 0.0
H1375 H 0.10261 0.13128 0.57861 0.0
H1376 H 0.07453 0.09569 0.55053 0.0
H1377 H 0.12329 0.11627 0.67619 0.0
H1378 H 0.15444 0.17736 0.56493 0.0
H1379 H 0.15901 0.16952 0.5089 0.0
H1380 H 0.17277 0.08418 0.53105 0.0
H1381 H 0.16867 0.0916 0.58723 0.0
C1382 C 0.2056 0.22823 0.69573 0.0
C1383 C 0.22652 0.2182 0.71716 0.0
C1384 C 0.18995 0.21036 0.6759 0.0
C1385 C 0.19457 0.18215 0.67803 0.0
C1386 C 0.2161 0.17221 0.69866 0.0
C1387 C 0.23209 0.19022 0.71803 0.0
C1388 C 0.17478 0.16273 0.66187 0.0
C1389 C 0.17546 0.15907 0.62959 0.0
C1390 C 0.1558 0.1472 0.67882 0.0
C1391 C 0.15408 0.15088 0.71285 0.0
C1392 C 0.16017 0.12919 0.73473 0.0
C1393 C 0.15907 0.13284 0.76693 0.0
C1394 C 0.1517 0.15804 0.77745 0.0
C1395 C 0.14529 0.1796 0.75578 0.0
C1396 C 0.14645 0.17608 0.72358 0.0
C1397 C 0.10203 0.05611 0.61234 0.0
C1398 C 0.08656 0.06269 0.58389 0.0
C1399 C 0.11839 0.07629 0.628 0.0
C1400 C 0.1194 0.1034 0.61559 0.0
C1401 C 0.10264 0.11034 0.58818 0.0
C1402 C 0.08648 0.09008 0.5723 0.0
C1403 C 0.13871 0.12406 0.63085 0.0
C1404 C 0.13804 0.12799 0.66317 0.0
C1405 C 0.15789 0.13959 0.61387 0.0
C1406 C 0.16093 0.135 0.58022 0.0
C1407 C 0.15855 0.15696 0.55785 0.0
C1408 C 0.16104 0.15258 0.52606 0.0
C1409 C 0.16607 0.12635 0.5164 0.0
C1410 C 0.16876 0.10447 0.53854 0.0
C1411 C 0.16634 0.10874 0.57035 0.0
H1412 H 0.16794 0.123 0.49178 0.0
H1413 H 0.15089 0.16084 0.80238 0.0
H1414 H 0.70572 0.36129 0.30132 0.0
H1415 H 0.68191 0.39579 0.32783 0.0
H1416 H 0.61159 0.34004 0.33005 0.0
H1417 H 0.63585 0.30527 0.30463 0.0
H1418 H 0.60094 0.39934 0.31393 0.0
H1419 H 0.65007 0.33875 0.39092 0.0
H1420 H 0.69166 0.31596 0.41318 0.0
H1421 H 0.73243 0.39464 0.42864 0.0
H1422 H 0.6912 0.41791 0.40587 0.0
H1423 H 0.52962 0.44975 0.43367 0.0
H1424 H 0.55282 0.42154 0.39933 0.0
H1425 H 0.62875 0.46629 0.42482 0.0
H1426 H 0.60582 0.49383 0.46024 0.0
H1427 H 0.63816 0.41494 0.42433 0.0
H1428 H 0.59015 0.47659 0.35174 0.0
H1429 H 0.55056 0.50136 0.32712 0.0
H1430 H 0.51003 0.42474 0.30083 0.0
H1431 H 0.54922 0.39946 0.32573 0.0
C1432 C 0.68509 0.35668 0.30728 0.0
C1433 C 0.67256 0.33077 0.30139 0.0
C1434 C 0.67151 0.3763 0.32218 0.0
C1435 C 0.64509 0.37031 0.33092 0.0
C1436 C 0.63193 0.34502 0.3233 0.0
C1437 C 0.6457 0.32526 0.30887 0.0
C1438 C 0.63222 0.38925 0.35071 0.0
C1439 C 0.60885 0.40268 0.33814 0.0
C1440 C 0.64313 0.39403 0.38194 0.0
C1441 C 0.66766 0.38006 0.39638 0.0
C1442 C 0.66797 0.35119 0.39884 0.0
C1443 C 0.69147 0.33818 0.41157 0.0
C1444 C 0.7147 0.35384 0.42224 0.0
C1445 C 0.71444 0.38254 0.42031 0.0
C1446 C 0.69101 0.39565 0.40751 0.0
C1447 C 0.55125 0.45361 0.4319 0.0
C1448 C 0.56589 0.47404 0.44957 0.0
C1449 C 0.56448 0.43758 0.41211 0.0
C1450 C 0.59246 0.44211 0.40897 0.0
C1451 C 0.60714 0.46243 0.42677 0.0
C1452 C 0.59401 0.47817 0.44698 0.0
C1453 C 0.60652 0.42518 0.38776 0.0
C1454 C 0.6302 0.41197 0.40005 0.0
C1455 C 0.59608 0.42098 0.35609 0.0
C1456 C 0.57255 0.43611 0.34084 0.0
C1457 C 0.57272 0.465 0.34089 0.0
C1458 C 0.55036 0.47914 0.32687 0.0
C1459 C 0.52777 0.46463 0.31248 0.0
C1460 C 0.52753 0.43595 0.31201 0.0
C1461 C 0.54983 0.4217 0.32605 0.0
H1462 H 0.51047 0.47561 0.30164 0.0
H1463 H 0.73288 0.34373 0.43206 0.0
loop_
_geom_bond_atom_site_label_1
_geom_bond_atom_site_label_2
_geom_bond_distance
_geom_bond_site_symmetry_2
_ccdc_geom_bond_type
C0 N1 1.317 . S
C0 N2 1.348 . S
C0 C3 1.485 . S
N1 C0 1.317 . S
N1 N5 1.370 . S
N2 C0 1.348 . S
N2 C4 1.346 . S
C3 C0 1.485 . S
C3 H7 0.960 . S
C3 H8 0.961 . S
C3 H9 0.960 . S
C4 N2 1.346 . S
C4 N5 1.307 . S
C4 C6 1.486 . S
N5 N1 1.370 . S
N5 C4 1.307 . S
C6 C4 1.486 . S
C6 H10 0.960 . S
C6 H11 0.960 . S
C6 H12 0.959 . S
H7 C3 0.960 . S
H8 C3 0.961 . S
H9 C3 0.960 . S
H10 C6 0.960 . S
H11 C6 0.960 . S
H12 C6 0.959 . S
C13 N14 1.317 . S
C13 N15 1.348 . S
C13 C16 1.485 . S
N14 C13 1.317 . S
N14 N18 1.370 . S
N15 C13 1.348 . S
N15 C17 1.346 . S
C16 C13 1.485 . S
C16 H20 0.960 . S
C16 H21 0.961 . S
C16 H22 0.960 . S
C17 N15 1.346 . S
C17 N18 1.307 . S
C17 C19 1.486 . S
N18 N14 1.370 . S
N18 C17 1.307 . S
C19 C17 1.486 . S
C19 H23 0.960 . S
C19 H24 0.960 . S
C19 H25 0.959 . S
H20 C16 0.960 . S
H21 C16 0.961 . S
H22 C16 0.960 . S
H23 C19 0.960 . S
H24 C19 0.960 . S
H25 C19 0.959 . S
C26 N27 1.317 . S
C26 N28 1.348 . S
C26 C29 1.485 . S
N27 C26 1.317 . S
N27 N31 1.370 . S
N28 C26 1.348 . S
N28 C30 1.346 . S
C29 C26 1.485 . S
C29 H33 0.960 . S
C29 H34 0.961 . S
C29 H35 0.960 . S
C30 N28 1.346 . S
C30 N31 1.307 . S
C30 C32 1.486 . S
N31 N27 1.370 . S
N31 C30 1.307 . S
C32 C30 1.486 . S
C32 H36 0.960 . S
C32 H37 0.960 . S
C32 H38 0.959 . S
H33 C29 0.960 . S
H34 C29 0.961 . S
H35 C29 0.960 . S
H36 C32 0.960 . S
H37 C32 0.960 . S
H38 C32 0.959 . S
C39 N40 1.317 . S
C39 N41 1.348 . S
C39 C42 1.485 . S
N40 C39 1.317 . S
N40 N44 1.370 . S
N41 C39 1.348 . S
N41 C43 1.346 . S
C42 C39 1.485 . S
C42 H46 0.960 . S
C42 H47 0.961 . S
C42 H48 0.960 . S
C43 N41 1.346 . S
C43 N44 1.307 . S
C43 C45 1.486 . S
N44 N40 1.370 . S
N44 C43 1.307 . S
C45 C43 1.486 . S
C45 H49 0.960 . S
C45 H50 0.960 . S
C45 H51 0.959 . S
H46 C42 0.960 . S
H47 C42 0.961 . S
H48 C42 0.960 . S
H49 C45 0.960 . S
H50 C45 0.960 . S
H51 C45 0.959 . S
C52 N53 1.317 . S
C52 N54 1.348 . S
C52 C55 1.485 . S
N53 C52 1.317 . S
N53 N57 1.370 . S
N54 C52 1.348 . S
N54 C56 1.346 . S
C55 C52 1.485 . S
C55 H59 0.960 . S
C55 H60 0.961 . S
C55 H61 0.960 . S
C56 N54 1.346 . S
C56 N57 1.307 . S
C56 C58 1.486 . S
N57 N53 1.370 . S
N57 C56 1.307 . S
C58 C56 1.486 . S
C58 H62 0.960 . S
C58 H63 0.960 . S
C58 H64 0.959 . S
H59 C55 0.960 . S
H60 C55 0.961 . S
H61 C55 0.960 . S
H62 C58 0.960 . S
H63 C58 0.960 . S
H64 C58 0.959 . S
C65 N66 1.317 . S
C65 N67 1.348 . S
C65 C68 1.485 . S
N66 C65 1.317 . S
N66 N70 1.370 . S
N67 C65 1.348 . S
N67 C69 1.346 . S
C68 C65 1.485 . S
C68 H72 0.960 . S
C68 H73 0.961 . S
C68 H74 0.960 . S
C69 N67 1.346 . S
C69 N70 1.307 . S
C69 C71 1.486 . S
N70 N66 1.370 . S
N70 C69 1.307 . S
C71 C69 1.486 . S
C71 H75 0.960 . S
C71 H76 0.960 . S
C71 H77 0.959 . S
H72 C68 0.960 . S
H73 C68 0.961 . S
H74 C68 0.960 . S
H75 C71 0.960 . S
H76 C71 0.960 . S
H77 C71 0.959 . S
C78 N79 1.317 . S
C78 N80 1.348 . S
C78 C81 1.485 . S
N79 C78 1.317 . S
N79 N83 1.370 . S
N80 C78 1.348 . S
N80 C82 1.346 . S
C81 C78 1.485 . S
C81 H85 0.960 . S
C81 H86 0.961 . S
C81 H87 0.960 . S
C82 N80 1.346 . S
C82 N83 1.307 . S
C82 C84 1.486 . S
N83 N79 1.370 . S
N83 C82 1.307 . S
C84 C82 1.486 . S
C84 H88 0.960 . S
C84 H89 0.960 . S
C84 H90 0.959 . S
H85 C81 0.960 . S
H86 C81 0.961 . S
H87 C81 0.960 . S
H88 C84 0.960 . S
H89 C84 0.960 . S
H90 C84 0.959 . S
C91 N92 1.317 . S
C91 N93 1.348 . S
C91 C94 1.485 . S
N92 C91 1.317 . S
N92 N96 1.370 . S
N93 C91 1.348 . S
N93 C95 1.346 . S
C94 C91 1.485 . S
C94 H98 0.960 . S
C94 H99 0.961 . S
C94 H100 0.960 . S
C95 N93 1.346 . S
C95 N96 1.307 . S
C95 C97 1.486 . S
N96 N92 1.370 . S
N96 C95 1.307 . S
C97 C95 1.486 . S
C97 H101 0.960 . S
C97 H102 0.960 . S
C97 H103 0.959 . S
H98 C94 0.960 . S
H99 C94 0.961 . S
H100 C94 0.960 . S
H101 C97 0.960 . S
H102 C97 0.960 . S
H103 C97 0.959 . S
Nd104 C106 2.836 . S
Nd104 O124 2.500 . S
Nd104 O125 2.492 . S
Nd104 O126 2.487 1_565 S
Nd104 O127 2.682 1_565 S
Nd104 O128 2.410 . S
Nd104 O133 2.414 . S
Nd104 O135 2.424 1_565 S
Nd105 C115 2.836 1_455 S
Nd105 O127 2.414 . S
Nd105 O129 2.424 1_545 S
Nd105 O130 2.500 . S
Nd105 O131 2.492 1_455 S
Nd105 O132 2.487 1_445 S
Nd105 O133 2.682 1_545 S
Nd105 O134 2.410 . S
C106 Nd104 2.836 . S
C106 C107 1.498 . S
C106 O124 1.258 . S
C106 O125 1.239 . S
C107 C106 1.498 . S
C107 C108 1.366 . S
C107 C112 1.407 . S
C108 C107 1.366 . S
C108 C109 1.392 . S
C108 H136 0.930 . S
C109 C108 1.392 . S
C109 C110 1.398 . S
C109 H137 0.929 . S
C110 C109 1.398 . S
C110 C111 1.352 . S
C111 C110 1.352 . S
C111 C112 1.384 . S
C111 H138 0.930 . S
C112 C107 1.407 . S
C112 C111 1.384 . S
C112 H139 0.929 . S
C113 O126 1.241 . S
C113 O127 1.273 . S
C114 O128 1.251 . S
C114 O129 1.268 . S
C115 Nd105 2.836 1_655 S
C115 C116 1.498 . S
C115 O130 1.258 1_655 S
C115 O131 1.239 . S
C116 C115 1.498 . S
C116 C117 1.366 . S
C116 C121 1.407 . S
C117 C116 1.366 . S
C117 C118 1.392 . S
C117 H140 0.930 1_655 S
C118 C117 1.392 . S
C118 C119 1.398 . S
C118 H141 0.929 . S
C119 C118 1.398 . S
C119 C120 1.352 . S
C120 C119 1.352 . S
C120 C121 1.384 . S
C120 H142 0.930 . S
C121 C116 1.407 . S
C121 C120 1.384 . S
C121 H143 0.929 . S
C122 O132 1.241 1_455 S
C122 O133 1.273 . S
C123 O134 1.251 . S
C123 O135 1.268 . S
O124 Nd104 2.500 . S
O124 C106 1.258 . S
O125 Nd104 2.492 . S
O125 C106 1.239 . S
O126 Nd104 2.487 1_545 S
O126 C113 1.241 . S
O127 Nd104 2.682 1_545 S
O127 Nd105 2.414 . S
O127 C113 1.273 . S
O128 Nd104 2.410 . S
O128 C114 1.251 . S
O129 Nd105 2.424 1_565 S
O129 C114 1.268 . S
O130 Nd105 2.500 . S
O130 C115 1.258 1_455 S
O131 Nd105 2.492 1_655 S
O131 C115 1.239 . S
O132 Nd105 2.487 1_665 S
O132 C122 1.241 1_655 S
O133 Nd104 2.414 . S
O133 Nd105 2.682 1_565 S
O133 C122 1.273 . S
O134 Nd105 2.410 . S
O134 C123 1.251 . S
O135 Nd104 2.424 1_545 S
O135 C123 1.268 . S
H136 C108 0.930 . S
H137 C109 0.929 . S
H138 C111 0.930 . S
H139 C112 0.929 . S
H140 C117 0.930 1_455 S
H141 C118 0.929 . S
H142 C120 0.930 . S
H143 C121 0.929 . S
Nd144 C146 2.836 . S
Nd144 O164 2.500 . S
Nd144 O165 2.492 . S
Nd144 O166 2.487 1_565 S
Nd144 O167 2.682 1_565 S
Nd144 O168 2.410 . S
Nd144 O173 2.414 . S
Nd144 O175 2.424 1_565 S
Nd145 C155 2.836 1_554 S
Nd145 O167 2.414 . S
Nd145 O169 2.424 1_544 S
Nd145 O170 2.500 . S
Nd145 O171 2.492 1_554 S
Nd145 O172 2.487 . S
Nd145 O173 2.682 1_545 S
Nd145 O174 2.410 . S
C146 Nd144 2.836 . S
C146 C147 1.498 . S
C146 O164 1.258 . S
C146 O165 1.239 . S
C147 C146 1.498 . S
C147 C148 1.366 . S
C147 C152 1.407 . S
C148 C147 1.366 . S
C148 C149 1.392 . S
C148 H176 0.930 . S
C149 C148 1.392 . S
C149 C150 1.398 . S
C149 H177 0.929 . S
C150 C149 1.398 . S
C150 C151 1.352 . S
C151 C150 1.352 . S
C151 C152 1.384 . S
C151 H178 0.930 . S
C152 C147 1.407 . S
C152 C151 1.384 . S
C152 H179 0.929 . S
C153 O166 1.241 . S
C153 O167 1.273 . S
C154 O168 1.251 . S
C154 O169 1.268 1_554 S
C155 Nd145 2.836 1_556 S
C155 C156 1.498 . S
C155 O170 1.258 1_556 S
C155 O171 1.239 . S
C156 C155 1.498 . S
C156 C157 1.368 . S
C156 C161 1.407 . S
C157 C156 1.368 . S
C157 C158 1.393 . S
C157 H180 0.927 1_556 S
C158 C157 1.393 . S
C158 C159 1.398 . S
C158 H181 0.929 1_556 S
C159 C158 1.398 . S
C159 C160 1.352 . S
C160 C159 1.352 . S
C160 C161 1.384 . S
C160 H182 0.930 . S
C161 C156 1.407 . S
C161 C160 1.384 . S
C161 H183 0.929 . S
C162 O172 1.241 1_565 S
C162 O173 1.273 . S
C163 O174 1.251 . S
C163 O175 1.268 . S
O164 Nd144 2.500 . S
O164 C146 1.258 . S
O165 Nd144 2.492 . S
O165 C146 1.239 . S
O166 Nd144 2.487 1_545 S
O166 C153 1.241 . S
O167 Nd144 2.682 1_545 S
O167 Nd145 2.414 . S
O167 C153 1.273 . S
O168 Nd144 2.410 . S
O168 C154 1.251 . S
O169 Nd145 2.424 1_566 S
O169 C154 1.268 1_556 S
O170 Nd145 2.500 . S
O170 C155 1.258 1_554 S
O171 Nd145 2.492 1_556 S
O171 C155 1.239 . S
O172 Nd145 2.487 . S
O172 C162 1.241 1_545 S
O173 Nd144 2.414 . S
O173 Nd145 2.682 1_565 S
O173 C162 1.273 . S
O174 Nd145 2.410 . S
O174 C163 1.251 . S
O175 Nd144 2.424 1_545 S
O175 C163 1.268 . S
H176 C148 0.930 . S
H177 C149 0.929 . S
H178 C151 0.930 . S
H179 C152 0.929 . S
H180 C157 0.927 1_554 S
H181 C158 0.929 1_554 S
H182 C160 0.930 . S
H183 C161 0.929 . S
Nd184 C186 2.836 . S
Nd184 O204 2.500 . S
Nd184 O205 2.492 . S
Nd184 O206 2.487 . S
Nd184 O207 2.682 . S
Nd184 O208 2.410 . S
Nd184 O213 2.414 . S
Nd184 O215 2.424 . S
Nd185 C195 2.836 . S
Nd185 O207 2.414 . S
Nd185 O209 2.424 . S
Nd185 O210 2.500 . S
Nd185 O211 2.492 . S
Nd185 O212 2.487 . S
Nd185 O213 2.682 . S
Nd185 O214 2.410 . S
C186 Nd184 2.836 . S
C186 C187 1.498 . S
C186 O204 1.258 . S
C186 O205 1.239 . S
C187 C186 1.498 . S
C187 C188 1.366 . S
C187 C192 1.407 . S
C188 C187 1.366 . S
C188 C189 1.392 . S
C188 H216 0.930 . S
C189 C188 1.392 . S
C189 C190 1.398 . S
C189 H217 0.929 . S
C190 C189 1.398 . S
C190 C191 1.352 . S
C191 C190 1.352 . S
C191 C192 1.384 . S
C191 H218 0.930 . S
C192 C187 1.407 . S
C192 C191 1.384 . S
C192 H219 0.929 . S
C193 O206 1.241 . S
C193 O207 1.273 . S
C194 O208 1.251 . S
C194 O209 1.268 . S
C195 Nd185 2.836 . S
C195 C196 1.498 . S
C195 O210 1.258 . S
C195 O211 1.239 . S
C196 C195 1.498 . S
C196 C197 1.366 . S
C196 C201 1.407 . S
C197 C196 1.366 . S
C197 C198 1.392 . S
C197 H220 0.930 . S
C198 C197 1.392 . S
C198 C199 1.398 . S
C198 H221 0.929 . S
C199 C198 1.398 . S
C199 C200 1.352 . S
C200 C199 1.352 . S
C200 C201 1.384 . S
C200 H222 0.930 . S
C201 C196 1.407 . S
C201 C200 1.384 . S
C201 H223 0.929 . S
C202 O212 1.241 . S
C202 O213 1.273 . S
C203 O214 1.251 . S
C203 O215 1.268 . S
O204 Nd184 2.500 . S
O204 C186 1.258 . S
O205 Nd184 2.492 . S
O205 C186 1.239 . S
O206 Nd184 2.487 . S
O206 C193 1.241 . S
O207 Nd184 2.682 . S
O207 Nd185 2.414 . S
O207 C193 1.273 . S
O208 Nd184 2.410 . S
O208 C194 1.251 . S
O209 Nd185 2.424 . S
O209 C194 1.268 . S
O210 Nd185 2.500 . S
O210 C195 1.258 . S
O211 Nd185 2.492 . S
O211 C195 1.239 . S
O212 Nd185 2.487 . S
O212 C202 1.241 . S
O213 Nd184 2.414 . S
O213 Nd185 2.682 . S
O213 C202 1.273 . S
O214 Nd185 2.410 . S
O214 C203 1.251 . S
O215 Nd184 2.424 . S
O215 C203 1.268 . S
H216 C188 0.930 . S
H217 C189 0.929 . S
H218 C191 0.930 . S
H219 C192 0.929 . S
H220 C197 0.930 . S
H221 C198 0.929 . S
H222 C200 0.930 . S
H223 C201 0.929 . S
Nd224 C226 2.837 . S
Nd224 O244 2.501 . S
Nd224 O245 2.492 . S
Nd224 O246 2.485 1_655 S
Nd224 O247 2.680 1_655 S
Nd224 O248 2.410 . S
Nd224 O253 2.415 1_554 S
Nd224 O255 2.423 1_655 S
Nd225 C235 2.836 . S
Nd225 O247 2.414 1_556 S
Nd225 O249 2.424 1_455 S
Nd225 O250 2.500 . S
Nd225 O251 2.492 . S
Nd225 O252 2.487 1_455 S
Nd225 O253 2.682 1_455 S
Nd225 O254 2.410 . S
C226 Nd224 2.837 . S
C226 C227 1.498 . S
C226 O244 1.258 . S
C226 O245 1.239 . S
C227 C226 1.498 . S
C227 C228 1.366 . S
C227 C232 1.407 . S
C228 C227 1.366 . S
C228 C229 1.392 . S
C228 H256 0.930 . S
C229 C228 1.392 . S
C229 C230 1.398 . S
C229 H257 0.929 . S
C230 C229 1.398 . S
C230 C231 1.352 . S
C231 C230 1.352 . S
C231 C232 1.384 . S
C231 H258 0.930 . S
C232 C227 1.407 . S
C232 C231 1.384 . S
C232 H259 0.929 . S
C233 O246 1.241 . S
C233 O247 1.273 . S
C234 O248 1.251 1_556 S
C234 O249 1.268 . S
C235 Nd225 2.836 . S
C235 C236 1.498 . S
C235 O250 1.258 . S
C235 O251 1.239 . S
C236 C235 1.498 . S
C236 C237 1.366 . S
C236 C241 1.407 . S
C237 C236 1.366 . S
C237 C238 1.392 . S
C237 H260 0.930 . S
C238 C237 1.392 . S
C238 C239 1.398 . S
C238 H261 0.929 . S
C239 C238 1.398 . S
C239 C240 1.352 . S
C240 C239 1.352 . S
C240 C241 1.384 . S
C240 H262 0.930 . S
C241 C236 1.407 . S
C241 C240 1.384 . S
C241 H263 0.929 . S
C242 O252 1.241 . S
C242 O253 1.273 . S
C243 O254 1.251 1_554 S
C243 O255 1.268 . S
O244 Nd224 2.501 . S
O244 C226 1.258 . S
O245 Nd224 2.492 . S
O245 C226 1.239 . S
O246 Nd224 2.485 1_455 S
O246 C233 1.241 . S
O247 Nd224 2.680 1_455 S
O247 Nd225 2.414 1_554 S
O247 C233 1.273 . S
O248 Nd224 2.410 . S
O248 C234 1.251 1_554 S
O249 Nd225 2.424 1_655 S
O249 C234 1.268 . S
O250 Nd225 2.500 . S
O250 C235 1.258 . S
O251 Nd225 2.492 . S
O251 C235 1.239 . S
O252 Nd225 2.487 1_655 S
O252 C242 1.241 . S
O253 Nd224 2.415 1_556 S
O253 Nd225 2.682 1_655 S
O253 C242 1.273 . S
O254 Nd225 2.410 . S
O254 C243 1.251 1_556 S
O255 Nd224 2.423 1_455 S
O255 C243 1.268 . S
H256 C228 0.930 . S
H257 C229 0.929 . S
H258 C231 0.930 . S
H259 C232 0.929 . S
H260 C237 0.930 . S
H261 C238 0.929 . S
H262 C240 0.930 . S
H263 C241 0.929 . S
H264 C282 0.951 . S
H265 C284 0.951 . S
H266 C286 0.950 . S
H267 C287 0.950 . S
H268 C289 0.950 . S
H269 C292 0.950 . S
H270 C293 0.950 . S
H271 C295 0.950 . S
H272 C296 0.950 . S
H273 C297 0.951 . S
H274 C299 0.951 . S
H275 C301 0.950 . S
H276 C302 0.950 . S
H277 C304 0.950 . S
H278 C307 0.950 . S
H279 C308 0.950 1_565 S
H280 C310 0.950 . S
H281 C311 0.950 . S
C282 H264 0.951 . S
C282 C283 1.366 . S
C282 C284 1.388 . S
C283 C282 1.366 . S
C283 C287 1.385 . S
C284 H265 0.951 . S
C284 C282 1.388 . S
C284 C285 1.366 . S
C285 C284 1.366 . S
C285 C286 1.414 . S
C285 C288 1.499 . S
C286 H266 0.950 . S
C286 C285 1.414 . S
C286 C287 1.374 . S
C287 H267 0.950 . S
C287 C283 1.385 . S
C287 C286 1.374 . S
C288 C285 1.499 . S
C288 C289 1.373 . S
C288 C290 1.389 . S
C289 H268 0.950 . S
C289 C288 1.373 . S
C289 C305 1.377 . S
C290 C288 1.389 . S
C290 C291 1.524 . S
C290 C304 1.377 . S
C291 C290 1.524 . S
C291 C292 1.397 . S
C291 C296 1.363 . S
C292 H269 0.950 . S
C292 C291 1.397 . S
C292 C293 1.334 . S
C293 H270 0.950 . S
C293 C292 1.334 . S
C293 C294 1.287 . S
C294 C293 1.287 . S
C294 C295 1.524 . S
C294 H313 0.913 . S
C295 H271 0.950 . S
C295 C294 1.524 . S
C295 C296 1.415 . S
C296 H272 0.950 . S
C296 C291 1.363 . S
C296 C295 1.415 . S
C297 H273 0.951 . S
C297 C298 1.366 . S
C297 C299 1.388 . S
C298 C297 1.366 . S
C298 C302 1.385 . S
C299 H274 0.951 . S
C299 C297 1.388 . S
C299 C300 1.366 . S
C300 C299 1.366 . S
C300 C301 1.414 . S
C300 C303 1.499 . S
C301 H275 0.950 . S
C301 C300 1.414 . S
C301 C302 1.374 . S
C302 H276 0.950 . S
C302 C298 1.385 . S
C302 C301 1.374 . S
C303 C300 1.499 . S
C303 C304 1.373 . S
C303 C305 1.389 . S
C304 H277 0.950 . S
C304 C290 1.377 . S
C304 C303 1.373 . S
C305 C289 1.377 . S
C305 C303 1.389 . S
C305 C306 1.524 . S
C306 C305 1.524 . S
C306 C307 1.397 . S
C306 C311 1.363 . S
C307 H278 0.950 . S
C307 C306 1.397 . S
C307 C308 1.334 . S
C308 H279 0.950 1_545 S
C308 C307 1.334 . S
C308 C309 1.286 . S
C309 C308 1.286 . S
C309 C310 1.522 . S
C309 H312 1.002 1_545 S
C310 H280 0.950 . S
C310 C309 1.522 . S
C310 C311 1.415 . S
C311 H281 0.950 . S
C311 C306 1.363 . S
C311 C310 1.415 . S
H312 C309 1.002 1_565 S
H313 C294 0.913 . S
H314 C332 0.951 . S
H315 C334 0.951 . S
H316 C336 0.950 . S
H317 C337 0.950 . S
H318 C339 0.950 . S
H319 C342 0.950 . S
H320 C343 0.950 . S
H321 C345 0.950 . S
H322 C346 0.950 . S
H323 C347 0.951 . S
H324 C349 0.951 . S
H325 C351 0.950 . S
H326 C352 0.950 1_554 S
H327 C354 0.950 . S
H328 C357 0.950 . S
H329 C358 0.950 . S
H330 C360 0.950 . S
H331 C361 0.950 . S
C332 H314 0.951 . S
C332 C333 1.366 . S
C332 C334 1.388 . S
C333 C332 1.366 . S
C333 C337 1.385 . S
C334 H315 0.951 . S
C334 C332 1.388 . S
C334 C335 1.366 . S
C335 C334 1.366 . S
C335 C336 1.414 . S
C335 C338 1.499 . S
C336 H316 0.950 . S
C336 C335 1.414 . S
C336 C337 1.374 . S
C337 H317 0.950 . S
C337 C333 1.385 . S
C337 C336 1.374 . S
C338 C335 1.499 . S
C338 C339 1.373 . S
C338 C340 1.389 . S
C339 H318 0.950 . S
C339 C338 1.373 . S
C339 C355 1.377 . S
C340 C338 1.389 . S
C340 C341 1.524 . S
C340 C354 1.377 . S
C341 C340 1.524 . S
C341 C342 1.397 . S
C341 C346 1.363 . S
C342 H319 0.950 . S
C342 C341 1.397 . S
C342 C343 1.334 . S
C343 H320 0.950 . S
C343 C342 1.334 . S
C343 C344 1.287 . S
C344 C343 1.287 . S
C344 C345 1.524 . S
C344 H363 0.913 . S
C345 H321 0.950 . S
C345 C344 1.524 . S
C345 C346 1.415 . S
C346 H322 0.950 . S
C346 C341 1.363 . S
C346 C345 1.415 . S
C347 H323 0.951 . S
C347 C348 1.366 . S
C347 C349 1.388 . S
C348 C347 1.366 . S
C348 C352 1.385 . S
C349 H324 0.951 . S
C349 C347 1.388 . S
C349 C350 1.366 . S
C350 C349 1.366 . S
C350 C351 1.414 . S
C350 C353 1.499 . S
C351 H325 0.950 . S
C351 C350 1.414 . S
C351 C352 1.374 . S
C352 H326 0.950 1_556 S
C352 C348 1.385 . S
C352 C351 1.374 . S
C353 C350 1.499 . S
C353 C354 1.373 . S
C353 C355 1.389 . S
C354 H327 0.950 . S
C354 C340 1.377 . S
C354 C353 1.373 . S
C355 C339 1.377 . S
C355 C353 1.389 . S
C355 C356 1.524 . S
C356 C355 1.524 . S
C356 C357 1.397 . S
C356 C361 1.363 . S
C357 H328 0.950 . S
C357 C356 1.397 . S
C357 C358 1.334 . S
C358 H329 0.950 . S
C358 C357 1.334 . S
C358 C359 1.287 . S
C359 C358 1.287 . S
C359 C360 1.524 . S
C359 H362 0.999 . S
C360 H330 0.950 . S
C360 C359 1.524 . S
C360 C361 1.415 . S
C361 H331 0.950 . S
C361 C356 1.363 . S
C361 C360 1.415 . S
H362 C359 0.999 . S
H363 C344 0.913 . S
H364 C382 0.951 . S
H365 C384 0.951 . S
H366 C386 0.950 . S
H367 C387 0.950 . S
H368 C389 0.950 . S
H369 C392 0.950 . S
H370 C393 0.950 . S
H371 C395 0.950 . S
H372 C396 0.950 . S
H373 C397 0.951 . S
H374 C399 0.951 . S
H375 C401 0.950 . S
H376 C402 0.950 . S
H377 C404 0.950 . S
H378 C407 0.950 . S
H379 C408 0.950 . S
H380 C410 0.950 . S
H381 C411 0.950 . S
C382 H364 0.951 . S
C382 C383 1.366 . S
C382 C384 1.388 . S
C383 C382 1.366 . S
C383 C387 1.385 . S
C384 H365 0.951 . S
C384 C382 1.388 . S
C384 C385 1.366 . S
C385 C384 1.366 . S
C385 C386 1.414 . S
C385 C388 1.499 . S
C386 H366 0.950 . S
C386 C385 1.414 . S
C386 C387 1.374 . S
C387 H367 0.950 . S
C387 C383 1.385 . S
C387 C386 1.374 . S
C388 C385 1.499 . S
C388 C389 1.373 . S
C388 C390 1.389 . S
C389 H368 0.950 . S
C389 C388 1.373 . S
C389 C405 1.377 . S
C390 C388 1.389 . S
C390 C391 1.524 . S
C390 C404 1.377 . S
C391 C390 1.524 . S
C391 C392 1.397 . S
C391 C396 1.363 . S
C392 H369 0.950 . S
C392 C391 1.397 . S
C392 C393 1.334 . S
C393 H370 0.950 . S
C393 C392 1.334 . S
C393 C394 1.287 . S
C394 C393 1.287 . S
C394 C395 1.524 . S
C394 H413 0.913 . S
C395 H371 0.950 . S
C395 C394 1.524 . S
C395 C396 1.415 . S
C396 H372 0.950 . S
C396 C391 1.363 . S
C396 C395 1.415 . S
C397 H373 0.951 . S
C397 C398 1.366 . S
C397 C399 1.388 . S
C398 C397 1.366 . S
C398 C402 1.385 . S
C399 H374 0.951 . S
C399 C397 1.388 . S
C399 C400 1.366 . S
C400 C399 1.366 . S
C400 C401 1.414 . S
C400 C403 1.499 . S
C401 H375 0.950 . S
C401 C400 1.414 . S
C401 C402 1.374 . S
C402 H376 0.950 . S
C402 C398 1.385 . S
C402 C401 1.374 . S
C403 C400 1.499 . S
C403 C404 1.373 . S
C403 C405 1.389 . S
C404 H377 0.950 . S
C404 C390 1.377 . S
C404 C403 1.373 . S
C405 C389 1.377 . S
C405 C403 1.389 . S
C405 C406 1.524 . S
C406 C405 1.524 . S
C406 C407 1.397 . S
C406 C411 1.363 . S
C407 H378 0.950 . S
C407 C406 1.397 . S
C407 C408 1.334 . S
C408 H379 0.950 . S
C408 C407 1.334 . S
C408 C409 1.287 . S
C409 C408 1.287 . S
C409 C410 1.524 . S
C409 H412 0.999 . S
C410 H380 0.950 . S
C410 C409 1.524 . S
C410 C411 1.415 . S
C411 H381 0.950 . S
C411 C406 1.363 . S
C411 C410 1.415 . S
H412 C409 0.999 . S
H413 C394 0.913 . S
H414 C432 0.951 . S
H415 C434 0.951 . S
H416 C436 0.950 . S
H417 C437 0.950 . S
H418 C439 0.950 . S
H419 C442 0.950 . S
H420 C443 0.950 . S
H421 C445 0.950 . S
H422 C446 0.950 . S
H423 C447 0.951 . S
H424 C449 0.951 . S
H425 C451 0.950 . S
H426 C452 0.950 . S
H427 C454 0.950 . S
H428 C457 0.950 . S
H429 C458 0.950 1_455 S
H430 C460 0.950 . S
H431 C461 0.950 . S
C432 H414 0.951 . S
C432 C433 1.366 . S
C432 C434 1.388 . S
C433 C432 1.366 . S
C433 C437 1.385 . S
C434 H415 0.951 . S
C434 C432 1.388 . S
C434 C435 1.366 . S
C435 C434 1.366 . S
C435 C436 1.414 . S
C435 C438 1.499 . S
C436 H416 0.950 . S
C436 C435 1.414 . S
C436 C437 1.374 . S
C437 H417 0.950 . S
C437 C433 1.385 . S
C437 C436 1.374 . S
C438 C435 1.499 . S
C438 C439 1.373 . S
C438 C440 1.389 . S
C439 H418 0.950 . S
C439 C438 1.373 . S
C439 C455 1.377 . S
C440 C438 1.389 . S
C440 C441 1.524 . S
C440 C454 1.377 . S
C441 C440 1.524 . S
C441 C442 1.397 . S
C441 C446 1.363 . S
C442 H419 0.950 . S
C442 C441 1.397 . S
C442 C443 1.334 . S
C443 H420 0.950 . S
C443 C442 1.334 . S
C443 C444 1.287 . S
C444 C443 1.287 . S
C444 C445 1.524 . S
C444 H463 0.913 . S
C445 H421 0.950 . S
C445 C444 1.524 . S
C445 C446 1.415 . S
C446 H422 0.950 . S
C446 C441 1.363 . S
C446 C445 1.415 . S
C447 H423 0.951 . S
C447 C448 1.366 . S
C447 C449 1.388 . S
C448 C447 1.366 . S
C448 C452 1.385 . S
C449 H424 0.951 . S
C449 C447 1.388 . S
C449 C450 1.366 . S
C450 C449 1.366 . S
C450 C451 1.414 . S
C450 C453 1.499 . S
C451 H425 0.950 . S
C451 C450 1.414 . S
C451 C452 1.374 . S
C452 H426 0.950 . S
C452 C448 1.385 . S
C452 C451 1.374 . S
C453 C450 1.499 . S
C453 C454 1.373 . S
C453 C455 1.389 . S
C454 H427 0.950 . S
C454 C440 1.377 . S
C454 C453 1.373 . S
C455 C439 1.377 . S
C455 C453 1.389 . S
C455 C456 1.524 . S
C456 C455 1.524 . S
C456 C457 1.397 . S
C456 C461 1.363 . S
C457 H428 0.950 . S
C457 C456 1.397 . S
C457 C458 1.334 . S
C458 H429 0.950 1_655 S
C458 C457 1.334 . S
C458 C459 1.287 . S
C459 C458 1.287 . S
C459 C460 1.524 . S
C459 H462 0.999 1_655 S
C460 H430 0.950 . S
C460 C459 1.524 . S
C460 C461 1.415 . S
C461 H431 0.950 . S
C461 C456 1.363 . S
C461 C460 1.415 . S
H462 C459 0.999 1_455 S
H463 C444 0.913 . S
H464 C482 0.951 . S
H465 C484 0.951 . S
H466 C486 0.950 . S
H467 C487 0.950 . S
H468 C489 0.950 . S
H469 C492 0.950 . S
H470 C493 0.950 . S
H471 C495 0.950 . S
H472 C496 0.950 . S
H473 C497 0.951 . S
H474 C499 0.951 . S
H475 C501 0.950 . S
H476 C502 0.950 . S
H477 C504 0.950 . S
H478 C507 0.950 . S
H479 C508 0.950 . S
H480 C510 0.950 . S
H481 C511 0.950 . S
C482 H464 0.951 . S
C482 C483 1.366 . S
C482 C484 1.388 . S
C483 C482 1.366 . S
C483 C487 1.385 . S
C484 H465 0.951 . S
C484 C482 1.388 . S
C484 C485 1.366 . S
C485 C484 1.366 . S
C485 C486 1.414 . S
C485 C488 1.499 . S
C486 H466 0.950 . S
C486 C485 1.414 . S
C486 C487 1.374 . S
C487 H467 0.950 . S
C487 C483 1.385 . S
C487 C486 1.374 . S
C488 C485 1.499 . S
C488 C489 1.373 . S
C488 C490 1.389 . S
C489 H468 0.950 . S
C489 C488 1.373 . S
C489 C505 1.377 . S
C490 C488 1.389 . S
C490 C491 1.524 . S
C490 C504 1.377 . S
C491 C490 1.524 . S
C491 C492 1.397 . S
C491 C496 1.363 . S
C492 H469 0.950 . S
C492 C491 1.397 . S
C492 C493 1.334 1_554 S
C493 H470 0.950 . S
C493 C492 1.334 1_556 S
C493 C494 1.287 . S
C494 C493 1.287 . S
C494 C495 1.524 . S
C494 H513 0.913 . S
C495 H471 0.950 . S
C495 C494 1.524 . S
C495 C496 1.415 1_556 S
C496 H472 0.950 . S
C496 C491 1.363 . S
C496 C495 1.415 1_554 S
C497 H473 0.951 . S
C497 C498 1.366 . S
C497 C499 1.388 . S
C498 C497 1.366 . S
C498 C502 1.385 . S
C499 H474 0.951 . S
C499 C497 1.388 . S
C499 C500 1.366 . S
C500 C499 1.366 . S
C500 C501 1.414 . S
C500 C503 1.499 . S
C501 H475 0.950 . S
C501 C500 1.414 . S
C501 C502 1.374 . S
C502 H476 0.950 . S
C502 C498 1.385 . S
C502 C501 1.374 . S
C503 C500 1.499 . S
C503 C504 1.373 . S
C503 C505 1.389 . S
C504 H477 0.950 . S
C504 C490 1.377 . S
C504 C503 1.373 . S
C505 C489 1.377 . S
C505 C503 1.389 . S
C505 C506 1.524 . S
C506 C505 1.524 . S
C506 C507 1.397 . S
C506 C511 1.363 . S
C507 H478 0.950 . S
C507 C506 1.397 . S
C507 C508 1.334 . S
C508 H479 0.950 . S
C508 C507 1.334 . S
C508 C509 1.287 . S
C509 C508 1.287 . S
C509 C510 1.524 . S
C509 H512 0.999 . S
C510 H480 0.950 . S
C510 C509 1.524 . S
C510 C511 1.415 . S
C511 H481 0.950 . S
C511 C506 1.363 . S
C511 C510 1.415 . S
H512 C509 0.999 . S
H513 C494 0.913 . S
H514 C532 0.951 . S
H515 C534 0.951 . S
H516 C536 0.950 . S
H517 C537 0.950 . S
H518 C539 0.950 . S
H519 C542 0.950 . S
H520 C543 0.950 . S
H521 C545 0.950 . S
H522 C546 0.950 . S
H523 C547 0.951 . S
H524 C549 0.951 . S
H525 C551 0.950 . S
H526 C552 0.950 . S
H527 C554 0.950 . S
H528 C557 0.950 . S
H529 C558 0.950 . S
H530 C560 0.950 . S
H531 C561 0.950 . S
C532 H514 0.951 . S
C532 C533 1.366 . S
C532 C534 1.388 . S
C533 C532 1.366 . S
C533 C537 1.385 . S
C534 H515 0.951 . S
C534 C532 1.388 . S
C534 C535 1.366 . S
C535 C534 1.366 . S
C535 C536 1.414 . S
C535 C538 1.499 . S
C536 H516 0.950 . S
C536 C535 1.414 . S
C536 C537 1.374 . S
C537 H517 0.950 . S
C537 C533 1.385 . S
C537 C536 1.374 . S
C538 C535 1.499 . S
C538 C539 1.373 . S
C538 C540 1.389 . S
C539 H518 0.950 . S
C539 C538 1.373 . S
C539 C555 1.377 . S
C540 C538 1.389 . S
C540 C541 1.524 . S
C540 C554 1.377 . S
C541 C540 1.524 . S
C541 C542 1.397 . S
C541 C546 1.363 . S
C542 H519 0.950 . S
C542 C541 1.397 . S
C542 C543 1.334 . S
C543 H520 0.950 . S
C543 C542 1.334 . S
C543 C544 1.287 . S
C544 C543 1.287 . S
C544 C545 1.524 . S
C544 H563 0.913 . S
C545 H521 0.950 . S
C545 C544 1.524 . S
C545 C546 1.415 . S
C546 H522 0.950 . S
C546 C541 1.363 . S
C546 C545 1.415 . S
C547 H523 0.951 . S
C547 C548 1.366 . S
C547 C549 1.388 . S
C548 C547 1.366 . S
C548 C552 1.385 . S
C549 H524 0.951 . S
C549 C547 1.388 . S
C549 C550 1.366 . S
C550 C549 1.366 . S
C550 C551 1.414 . S
C550 C553 1.499 . S
C551 H525 0.950 . S
C551 C550 1.414 . S
C551 C552 1.374 . S
C552 H526 0.950 . S
C552 C548 1.385 . S
C552 C551 1.374 . S
C553 C550 1.499 . S
C553 C554 1.373 . S
C553 C555 1.389 . S
C554 H527 0.950 . S
C554 C540 1.377 . S
C554 C553 1.373 . S
C555 C539 1.377 . S
C555 C553 1.389 . S
C555 C556 1.524 . S
C556 C555 1.524 . S
C556 C557 1.397 . S
C556 C561 1.363 . S
C557 H528 0.950 . S
C557 C556 1.397 . S
C557 C558 1.334 . S
C558 H529 0.950 . S
C558 C557 1.334 . S
C558 C559 1.287 . S
C559 C558 1.287 . S
C559 C560 1.524 . S
C559 H562 0.999 . S
C560 H530 0.950 . S
C560 C559 1.524 . S
C560 C561 1.415 . S
C561 H531 0.950 . S
C561 C556 1.363 . S
C561 C560 1.415 . S
H562 C559 0.999 . S
H563 C544 0.913 . S
H564 C582 0.951 . S
H565 C584 0.951 . S
H566 C586 0.950 . S
H567 C587 0.950 . S
H568 C589 0.950 . S
H569 C592 0.950 . S
H570 C593 0.950 . S
H571 C595 0.950 1_554 S
H572 C596 0.950 . S
H573 C597 0.951 . S
H574 C599 0.951 . S
H575 C601 0.950 . S
H576 C602 0.950 . S
H577 C604 0.950 . S
H578 C607 0.950 . S
H579 C608 0.950 . S
H580 C610 0.950 . S
H581 C611 0.950 . S
C582 H564 0.951 . S
C582 C583 1.366 . S
C582 C584 1.388 . S
C583 C582 1.366 . S
C583 C587 1.385 . S
C584 H565 0.951 . S
C584 C582 1.388 . S
C584 C585 1.366 . S
C585 C584 1.366 . S
C585 C586 1.414 . S
C585 C588 1.499 . S
C586 H566 0.950 . S
C586 C585 1.414 . S
C586 C587 1.374 . S
C587 H567 0.950 . S
C587 C583 1.385 . S
C587 C586 1.374 . S
C588 C585 1.499 . S
C588 C589 1.373 . S
C588 C590 1.389 . S
C589 H568 0.950 . S
C589 C588 1.373 . S
C589 C605 1.377 . S
C590 C588 1.389 . S
C590 C591 1.524 . S
C590 C604 1.377 . S
C591 C590 1.524 . S
C591 C592 1.397 . S
C591 C596 1.363 . S
C592 H569 0.950 . S
C592 C591 1.397 . S
C592 C593 1.334 . S
C593 H570 0.950 . S
C593 C592 1.334 . S
C593 C594 1.287 . S
C594 C593 1.287 . S
C594 C595 1.524 . S
C594 H613 0.939 . S
C595 H571 0.950 1_556 S
C595 C594 1.524 . S
C595 C596 1.415 . S
C596 H572 0.950 . S
C596 C591 1.363 . S
C596 C595 1.415 . S
C597 H573 0.951 . S
C597 C598 1.366 . S
C597 C599 1.388 . S
C598 C597 1.366 . S
C598 C602 1.385 . S
C599 H574 0.951 . S
C599 C597 1.388 . S
C599 C600 1.366 . S
C600 C599 1.366 . S
C600 C601 1.414 . S
C600 C603 1.499 . S
C601 H575 0.950 . S
C601 C600 1.414 . S
C601 C602 1.374 . S
C602 H576 0.950 . S
C602 C598 1.385 . S
C602 C601 1.374 . S
C603 C600 1.499 . S
C603 C604 1.373 . S
C603 C605 1.389 . S
C604 H577 0.950 . S
C604 C590 1.377 . S
C604 C603 1.373 . S
C605 C589 1.377 . S
C605 C603 1.389 . S
C605 C606 1.524 . S
C606 C605 1.524 . S
C606 C607 1.397 . S
C606 C611 1.363 . S
C607 H578 0.950 . S
C607 C606 1.397 . S
C607 C608 1.334 . S
C608 H579 0.950 . S
C608 C607 1.334 . S
C608 C609 1.287 . S
C609 C608 1.287 . S
C609 C610 1.524 . S
C609 H612 0.999 . S
C610 H580 0.950 . S
C610 C609 1.524 . S
C610 C611 1.415 . S
C611 H581 0.950 . S
C611 C606 1.363 . S
C611 C610 1.415 . S
H612 C609 0.999 . S
H613 C594 0.939 . S
H614 C632 0.951 . S
H615 C634 0.951 . S
H616 C636 0.950 . S
H617 C637 0.950 . S
H618 C639 0.950 . S
H619 C642 0.950 . S
H620 C643 0.950 . S
H621 C645 0.950 . S
H622 C646 0.950 . S
H623 C647 0.951 . S
H624 C649 0.951 . S
H625 C651 0.950 . S
H626 C652 0.950 . S
H627 C654 0.950 . S
H628 C657 0.950 . S
H629 C658 0.950 . S
H630 C660 0.950 . S
H631 C661 0.950 . S
C632 H614 0.951 . S
C632 C633 1.366 . S
C632 C634 1.388 . S
C633 C632 1.366 . S
C633 C637 1.385 . S
C634 H615 0.951 . S
C634 C632 1.388 . S
C634 C635 1.366 . S
C635 C634 1.366 . S
C635 C636 1.414 . S
C635 C638 1.499 . S
C636 H616 0.950 . S
C636 C635 1.414 . S
C636 C637 1.374 . S
C637 H617 0.950 . S
C637 C633 1.385 . S
C637 C636 1.374 . S
C638 C635 1.499 . S
C638 C639 1.373 . S
C638 C640 1.389 . S
C639 H618 0.950 . S
C639 C638 1.373 . S
C639 C655 1.377 . S
C640 C638 1.389 . S
C640 C641 1.524 . S
C640 C654 1.377 . S
C641 C640 1.524 . S
C641 C642 1.397 . S
C641 C646 1.363 . S
C642 H619 0.950 . S
C642 C641 1.397 . S
C642 C643 1.334 . S
C643 H620 0.950 . S
C643 C642 1.334 . S
C643 C644 1.287 . S
C644 C643 1.287 . S
C644 C645 1.524 . S
C644 H663 0.913 . S
C645 H621 0.950 . S
C645 C644 1.524 . S
C645 C646 1.415 . S
C646 H622 0.950 . S
C646 C641 1.363 . S
C646 C645 1.415 . S
C647 H623 0.951 . S
C647 C648 1.366 . S
C647 C649 1.388 . S
C648 C647 1.366 . S
C648 C652 1.385 . S
C649 H624 0.951 . S
C649 C647 1.388 . S
C649 C650 1.366 . S
C650 C649 1.366 . S
C650 C651 1.414 . S
C650 C653 1.499 . S
C651 H625 0.950 . S
C651 C650 1.414 . S
C651 C652 1.374 . S
C652 H626 0.950 . S
C652 C648 1.385 . S
C652 C651 1.374 . S
C653 C650 1.499 . S
C653 C654 1.373 . S
C653 C655 1.389 . S
C654 H627 0.950 . S
C654 C640 1.377 . S
C654 C653 1.373 . S
C655 C639 1.377 . S
C655 C653 1.389 . S
C655 C656 1.524 . S
C656 C655 1.524 . S
C656 C657 1.397 . S
C656 C661 1.363 . S
C657 H628 0.950 . S
C657 C656 1.397 . S
C657 C658 1.334 . S
C658 H629 0.950 . S
C658 C657 1.334 . S
C658 C659 1.287 . S
C659 C658 1.287 . S
C659 C660 1.524 . S
C659 H662 0.999 . S
C660 H630 0.950 . S
C660 C659 1.524 . S
C660 C661 1.415 . S
C661 H631 0.950 . S
C661 C656 1.363 . S
C661 C660 1.415 . S
H662 C659 0.999 . S
H663 C644 0.913 . S
H664 C682 0.951 . S
H665 C684 0.951 . S
H666 C686 0.950 . S
H667 C687 0.950 . S
H668 C689 0.950 . S
H669 C692 0.950 . S
H670 C693 0.950 . S
H671 C695 0.950 . S
H672 C696 0.950 . S
H673 C697 0.951 . S
H674 C699 0.951 . S
H675 C701 0.950 . S
H676 C702 0.950 1_556 S
H677 C704 0.950 . S
H678 C707 0.950 . S
H679 C708 0.950 . S
H680 C710 0.950 . S
H681 C711 0.950 . S
C682 H664 0.951 . S
C682 C683 1.366 . S
C682 C684 1.388 . S
C683 C682 1.366 . S
C683 C687 1.385 . S
C684 H665 0.951 . S
C684 C682 1.388 . S
C684 C685 1.366 . S
C685 C684 1.366 . S
C685 C686 1.414 . S
C685 C688 1.499 . S
C686 H666 0.950 . S
C686 C685 1.414 . S
C686 C687 1.374 . S
C687 H667 0.950 . S
C687 C683 1.385 . S
C687 C686 1.374 . S
C688 C685 1.499 . S
C688 C689 1.373 . S
C688 C690 1.389 . S
C689 H668 0.950 . S
C689 C688 1.373 . S
C689 C705 1.377 . S
C690 C688 1.389 . S
C690 C691 1.524 . S
C690 C704 1.377 . S
C691 C690 1.524 . S
C691 C692 1.397 . S
C691 C696 1.363 1_554 S
C692 H669 0.950 . S
C692 C691 1.397 . S
C692 C693 1.334 1_554 S
C693 H670 0.950 . S
C693 C692 1.334 1_556 S
C693 C694 1.287 . S
C694 C693 1.287 . S
C694 C695 1.524 . S
C694 H713 0.913 . S
C695 H671 0.950 . S
C695 C694 1.524 . S
C695 C696 1.415 . S
C696 H672 0.950 . S
C696 C691 1.363 1_556 S
C696 C695 1.415 . S
C697 H673 0.951 . S
C697 C698 1.366 . S
C697 C699 1.388 . S
C698 C697 1.366 . S
C698 C702 1.385 . S
C699 H674 0.951 . S
C699 C697 1.388 . S
C699 C700 1.366 . S
C700 C699 1.366 . S
C700 C701 1.414 . S
C700 C703 1.499 . S
C701 H675 0.950 . S
C701 C700 1.414 . S
C701 C702 1.374 . S
C702 H676 0.950 1_554 S
C702 C698 1.385 . S
C702 C701 1.374 . S
C703 C700 1.499 . S
C703 C704 1.373 . S
C703 C705 1.389 . S
C704 H677 0.950 . S
C704 C690 1.377 . S
C704 C703 1.373 . S
C705 C689 1.377 . S
C705 C703 1.389 . S
C705 C706 1.524 . S
C706 C705 1.524 . S
C706 C707 1.397 . S
C706 C711 1.363 . S
C707 H678 0.950 . S
C707 C706 1.397 . S
C707 C708 1.334 . S
C708 H679 0.950 . S
C708 C707 1.334 . S
C708 C709 1.287 . S
C709 C708 1.287 . S
C709 C710 1.524 . S
C709 H712 0.999 . S
C710 H680 0.950 . S
C710 C709 1.524 . S
C710 C711 1.415 . S
C711 H681 0.950 . S
C711 C706 1.363 . S
C711 C710 1.415 . S
H712 C709 0.999 . S
H713 C694 0.913 . S
H714 C732 0.951 . S
H715 C734 0.951 . S
H716 C736 0.950 . S
H717 C737 0.950 . S
H718 C739 0.950 . S
H719 C742 0.950 . S
H720 C743 0.950 . S
H721 C745 0.950 . S
H722 C746 0.950 . S
H723 C747 0.951 . S
H724 C749 0.951 . S
H725 C751 0.950 . S
H726 C752 0.950 . S
H727 C754 0.950 . S
H728 C757 0.950 . S
H729 C758 0.950 . S
H730 C760 0.950 . S
H731 C761 0.950 . S
C732 H714 0.951 . S
C732 C733 1.366 . S
C732 C734 1.388 . S
C733 C732 1.366 . S
C733 C737 1.385 . S
C734 H715 0.951 . S
C734 C732 1.388 . S
C734 C735 1.366 . S
C735 C734 1.366 . S
C735 C736 1.414 . S
C735 C738 1.499 . S
C736 H716 0.950 . S
C736 C735 1.414 . S
C736 C737 1.374 . S
C737 H717 0.950 . S
C737 C733 1.385 . S
C737 C736 1.374 . S
C738 C735 1.499 . S
C738 C739 1.373 . S
C738 C740 1.389 . S
C739 H718 0.950 . S
C739 C738 1.373 . S
C739 C755 1.377 . S
C740 C738 1.389 . S
C740 C741 1.524 . S
C740 C754 1.377 . S
C741 C740 1.524 . S
C741 C742 1.397 . S
C741 C746 1.363 . S
C742 H719 0.950 . S
C742 C741 1.397 . S
C742 C743 1.334 . S
C743 H720 0.950 . S
C743 C742 1.334 . S
C743 C744 1.287 . S
C744 C743 1.287 . S
C744 C745 1.524 . S
C744 H763 0.913 . S
C745 H721 0.950 . S
C745 C744 1.524 . S
C745 C746 1.415 . S
C746 H722 0.950 . S
C746 C741 1.363 . S
C746 C745 1.415 . S
C747 H723 0.951 . S
C747 C748 1.366 . S
C747 C749 1.388 . S
C748 C747 1.366 . S
C748 C752 1.385 . S
C749 H724 0.951 . S
C749 C747 1.388 . S
C749 C750 1.366 . S
C750 C749 1.366 . S
C750 C751 1.414 . S
C750 C753 1.499 . S
C751 H725 0.950 . S
C751 C750 1.414 . S
C751 C752 1.374 . S
C752 H726 0.950 . S
C752 C748 1.385 . S
C752 C751 1.374 . S
C753 C750 1.499 . S
C753 C754 1.373 . S
C753 C755 1.389 . S
C754 H727 0.950 . S
C754 C740 1.377 . S
C754 C753 1.373 . S
C755 C739 1.377 . S
C755 C753 1.389 . S
C755 C756 1.524 . S
C756 C755 1.524 . S
C756 C757 1.397 . S
C756 C761 1.363 . S
C757 H728 0.950 . S
C757 C756 1.397 . S
C757 C758 1.334 . S
C758 H729 0.950 . S
C758 C757 1.334 . S
C758 C759 1.287 . S
C759 C758 1.287 . S
C759 C760 1.524 . S
C759 H762 0.999 . S
C760 H730 0.950 . S
C760 C759 1.524 . S
C760 C761 1.415 . S
C761 H731 0.950 . S
C761 C756 1.363 . S
C761 C760 1.415 . S
H762 C759 0.999 . S
H763 C744 0.913 . S
H764 C782 0.951 . S
H765 C784 0.951 . S
H766 C786 0.950 . S
H767 C787 0.950 . S
H768 C789 0.950 . S
H769 C792 0.950 . S
H770 C793 0.950 . S
H771 C795 0.950 . S
H772 C796 0.950 . S
H773 C797 0.951 . S
H774 C799 0.951 . S
H775 C801 0.950 . S
H776 C802 0.950 . S
H777 C804 0.950 . S
H778 C807 0.950 . S
H779 C808 0.950 . S
H780 C810 0.950 . S
H781 C811 0.950 . S
C782 H764 0.951 . S
C782 C783 1.366 . S
C782 C784 1.388 . S
C783 C782 1.366 . S
C783 C787 1.385 . S
C784 H765 0.951 . S
C784 C782 1.388 . S
C784 C785 1.366 . S
C785 C784 1.366 . S
C785 C786 1.414 . S
C785 C788 1.499 . S
C786 H766 0.950 . S
C786 C785 1.414 . S
C786 C787 1.374 . S
C787 H767 0.950 . S
C787 C783 1.385 . S
C787 C786 1.374 . S
C788 C785 1.499 . S
C788 C789 1.373 . S
C788 C790 1.389 . S
C789 H768 0.950 . S
C789 C788 1.373 . S
C789 C805 1.377 . S
C790 C788 1.389 . S
C790 C791 1.524 . S
C790 C804 1.377 . S
C791 C790 1.524 . S
C791 C792 1.397 . S
C791 C796 1.363 . S
C792 H769 0.950 . S
C792 C791 1.397 . S
C792 C793 1.334 . S
C793 H770 0.950 . S
C793 C792 1.334 . S
C793 C794 1.287 . S
C794 C793 1.287 . S
C794 C795 1.524 . S
C794 H813 0.913 . S
C795 H771 0.950 . S
C795 C794 1.524 . S
C795 C796 1.415 . S
C796 H772 0.950 . S
C796 C791 1.363 . S
C796 C795 1.415 . S
C797 H773 0.951 . S
C797 C798 1.366 1_655 S
C797 C799 1.388 . S
C798 C797 1.366 1_455 S
C798 C802 1.385 . S
C799 H774 0.951 . S
C799 C797 1.388 . S
C799 C800 1.366 . S
C800 C799 1.366 . S
C800 C801 1.414 1_655 S
C800 C803 1.499 . S
C801 H775 0.950 . S
C801 C800 1.414 1_455 S
C801 C802 1.374 . S
C802 H776 0.950 . S
C802 C798 1.385 . S
C802 C801 1.374 . S
C803 C800 1.499 . S
C803 C804 1.373 . S
C803 C805 1.389 . S
C804 H777 0.950 . S
C804 C790 1.377 . S
C804 C803 1.373 . S
C805 C789 1.377 . S
C805 C803 1.389 . S
C805 C806 1.524 . S
C806 C805 1.524 . S
C806 C807 1.397 . S
C806 C811 1.363 . S
C807 H778 0.950 . S
C807 C806 1.397 . S
C807 C808 1.334 . S
C808 H779 0.950 . S
C808 C807 1.334 . S
C808 C809 1.287 . S
C809 C808 1.287 . S
C809 C810 1.524 . S
C809 H812 0.999 . S
C810 H780 0.950 . S
C810 C809 1.524 . S
C810 C811 1.415 . S
C811 H781 0.950 . S
C811 C806 1.363 . S
C811 C810 1.415 . S
H812 C809 0.999 . S
H813 C794 0.913 . S
H814 C832 0.951 . S
H815 C834 0.951 . S
H816 C836 0.950 . S
H817 C837 0.950 . S
H818 C839 0.950 . S
H819 C842 0.950 . S
H820 C843 0.950 . S
H821 C845 0.950 . S
H822 C846 0.950 . S
H823 C847 0.951 . S
H824 C849 0.951 . S
H825 C851 0.950 . S
H826 C852 0.950 . S
H827 C854 0.950 . S
H828 C857 0.950 . S
H829 C858 0.950 . S
H830 C860 0.950 . S
H831 C861 0.950 . S
C832 H814 0.951 . S
C832 C833 1.366 . S
C832 C834 1.388 . S
C833 C832 1.366 . S
C833 C837 1.385 . S
C834 H815 0.951 . S
C834 C832 1.388 . S
C834 C835 1.366 . S
C835 C834 1.366 . S
C835 C836 1.414 . S
C835 C838 1.499 . S
C836 H816 0.950 . S
C836 C835 1.414 . S
C836 C837 1.374 . S
C837 H817 0.950 . S
C837 C833 1.385 . S
C837 C836 1.374 . S
C838 C835 1.499 . S
C838 C839 1.373 . S
C838 C840 1.389 . S
C839 H818 0.950 . S
C839 C838 1.373 . S
C839 C855 1.377 . S
C840 C838 1.389 . S
C840 C841 1.524 . S
C840 C854 1.377 . S
C841 C840 1.524 . S
C841 C842 1.397 . S
C841 C846 1.363 . S
C842 H819 0.950 . S
C842 C841 1.397 . S
C842 C843 1.334 . S
C843 H820 0.950 . S
C843 C842 1.334 . S
C843 C844 1.287 . S
C844 C843 1.287 . S
C844 C845 1.524 . S
C844 H863 0.913 . S
C845 H821 0.950 . S
C845 C844 1.524 . S
C845 C846 1.415 . S
C846 H822 0.950 . S
C846 C841 1.363 . S
C846 C845 1.415 . S
C847 H823 0.951 . S
C847 C848 1.366 . S
C847 C849 1.388 . S
C848 C847 1.366 . S
C848 C852 1.385 . S
C849 H824 0.951 . S
C849 C847 1.388 . S
C849 C850 1.366 . S
C850 C849 1.366 . S
C850 C851 1.414 . S
C850 C853 1.499 . S
C851 H825 0.950 . S
C851 C850 1.414 . S
C851 C852 1.374 . S
C852 H826 0.950 . S
C852 C848 1.385 . S
C852 C851 1.374 . S
C853 C850 1.499 . S
C853 C854 1.373 . S
C853 C855 1.389 . S
C854 H827 0.950 . S
C854 C840 1.377 . S
C854 C853 1.373 . S
C855 C839 1.377 . S
C855 C853 1.389 . S
C855 C856 1.524 . S
C856 C855 1.524 . S
C856 C857 1.397 . S
C856 C861 1.363 . S
C857 H828 0.950 . S
C857 C856 1.397 . S
C857 C858 1.334 . S
C858 H829 0.950 . S
C858 C857 1.334 . S
C858 C859 1.287 . S
C859 C858 1.287 . S
C859 C860 1.524 . S
C859 H862 0.999 . S
C860 H830 0.950 . S
C860 C859 1.524 . S
C860 C861 1.415 . S
C861 H831 0.950 . S
C861 C856 1.363 . S
C861 C860 1.415 . S
H862 C859 0.999 . S
H863 C844 0.913 . S
H864 C882 0.951 . S
H865 C884 0.951 . S
H866 C886 0.950 . S
H867 C887 0.950 . S
H868 C889 0.950 . S
H869 C892 0.950 . S
H870 C893 0.950 . S
H871 C895 0.950 . S
H872 C896 0.950 . S
H873 C897 0.951 . S
H874 C899 0.951 . S
H875 C901 0.950 . S
H876 C902 0.950 . S
H877 C904 0.950 . S
H878 C907 0.950 . S
H879 C908 0.950 . S
H880 C910 0.950 . S
H881 C911 0.950 . S
C882 H864 0.951 . S
C882 C883 1.366 . S
C882 C884 1.388 . S
C883 C882 1.366 . S
C883 C887 1.385 . S
C884 H865 0.951 . S
C884 C882 1.388 . S
C884 C885 1.366 . S
C885 C884 1.366 . S
C885 C886 1.414 . S
C885 C888 1.499 . S
C886 H866 0.950 . S
C886 C885 1.414 . S
C886 C887 1.374 . S
C887 H867 0.950 . S
C887 C883 1.385 . S
C887 C886 1.374 . S
C888 C885 1.499 . S
C888 C889 1.373 . S
C888 C890 1.389 . S
C889 H868 0.950 . S
C889 C888 1.373 . S
C889 C905 1.377 . S
C890 C888 1.389 . S
C890 C891 1.524 . S
C890 C904 1.377 . S
C891 C890 1.524 . S
C891 C892 1.397 . S
C891 C896 1.363 . S
C892 H869 0.950 . S
C892 C891 1.397 . S
C892 C893 1.334 . S
C893 H870 0.950 . S
C893 C892 1.334 . S
C893 C894 1.287 . S
C894 C893 1.287 . S
C894 C895 1.524 . S
C894 H913 0.913 . S
C895 H871 0.950 . S
C895 C894 1.524 . S
C895 C896 1.415 . S
C896 H872 0.950 . S
C896 C891 1.363 . S
C896 C895 1.415 . S
C897 H873 0.951 . S
C897 C898 1.366 . S
C897 C899 1.388 . S
C898 C897 1.366 . S
C898 C902 1.385 1_455 S
C899 H874 0.951 . S
C899 C897 1.388 . S
C899 C900 1.366 1_455 S
C900 C899 1.366 1_655 S
C900 C901 1.414 . S
C900 C903 1.499 . S
C901 H875 0.950 . S
C901 C900 1.414 . S
C901 C902 1.374 . S
C902 H876 0.950 . S
C902 C898 1.385 1_655 S
C902 C901 1.374 . S
C903 C900 1.499 . S
C903 C904 1.373 . S
C903 C905 1.389 . S
C904 H877 0.950 . S
C904 C890 1.377 . S
C904 C903 1.373 . S
C905 C889 1.377 . S
C905 C903 1.389 . S
C905 C906 1.524 . S
C906 C905 1.524 . S
C906 C907 1.397 . S
C906 C911 1.363 . S
C907 H878 0.950 . S
C907 C906 1.397 . S
C907 C908 1.334 1_565 S
C908 H879 0.950 . S
C908 C907 1.334 1_545 S
C908 C909 1.287 . S
C909 C908 1.287 . S
C909 C910 1.524 . S
C909 H912 0.999 . S
C910 H880 0.950 . S
C910 C909 1.524 . S
C910 C911 1.415 1_545 S
C911 H881 0.950 . S
C911 C906 1.363 . S
C911 C910 1.415 1_565 S
H912 C909 0.999 . S
H913 C894 0.913 . S
H914 C932 0.951 . S
H915 C934 0.951 . S
H916 C936 0.950 . S
H917 C937 0.950 . S
H918 C939 0.950 . S
H919 C942 0.950 . S
H920 C943 0.950 . S
H921 C945 0.950 . S
H922 C946 0.950 . S
H923 C947 0.951 . S
H924 C949 0.951 . S
H925 C951 0.950 . S
H926 C952 0.950 . S
H927 C954 0.950 . S
H928 C957 0.950 . S
H929 C958 0.950 . S
H930 C960 0.950 . S
H931 C961 0.950 . S
C932 H914 0.951 . S
C932 C933 1.366 . S
C932 C934 1.388 . S
C933 C932 1.366 . S
C933 C937 1.385 . S
C934 H915 0.951 . S
C934 C932 1.388 . S
C934 C935 1.366 . S
C935 C934 1.366 . S
C935 C936 1.414 . S
C935 C938 1.499 . S
C936 H916 0.950 . S
C936 C935 1.414 . S
C936 C937 1.374 . S
C937 H917 0.950 . S
C937 C933 1.385 . S
C937 C936 1.374 . S
C938 C935 1.499 . S
C938 C939 1.373 . S
C938 C940 1.389 . S
C939 H918 0.950 . S
C939 C938 1.373 . S
C939 C955 1.377 . S
C940 C938 1.389 . S
C940 C941 1.524 . S
C940 C954 1.377 . S
C941 C940 1.524 . S
C941 C942 1.397 . S
C941 C946 1.363 . S
C942 H919 0.950 . S
C942 C941 1.397 . S
C942 C943 1.334 . S
C943 H920 0.950 . S
C943 C942 1.334 . S
C943 C944 1.287 . S
C944 C943 1.287 . S
C944 C945 1.524 . S
C944 H963 0.913 . S
C945 H921 0.950 . S
C945 C944 1.524 . S
C945 C946 1.415 . S
C946 H922 0.950 . S
C946 C941 1.363 . S
C946 C945 1.415 . S
C947 H923 0.951 . S
C947 C948 1.366 . S
C947 C949 1.388 . S
C948 C947 1.366 . S
C948 C952 1.385 . S
C949 H924 0.951 . S
C949 C947 1.388 . S
C949 C950 1.366 . S
C950 C949 1.366 . S
C950 C951 1.414 . S
C950 C953 1.499 . S
C951 H925 0.950 . S
C951 C950 1.414 . S
C951 C952 1.374 . S
C952 H926 0.950 . S
C952 C948 1.385 . S
C952 C951 1.374 . S
C953 C950 1.499 . S
C953 C954 1.373 . S
C953 C955 1.389 . S
C954 H927 0.950 . S
C954 C940 1.377 . S
C954 C953 1.373 . S
C955 C939 1.377 . S
C955 C953 1.389 . S
C955 C956 1.524 . S
C956 C955 1.524 . S
C956 C957 1.397 . S
C956 C961 1.363 . S
C957 H928 0.950 . S
C957 C956 1.397 . S
C957 C958 1.334 . S
C958 H929 0.950 . S
C958 C957 1.334 . S
C958 C959 1.287 . S
C959 C958 1.287 . S
C959 C960 1.524 . S
C959 H962 0.999 . S
C960 H930 0.950 . S
C960 C959 1.524 . S
C960 C961 1.415 . S
C961 H931 0.950 . S
C961 C956 1.363 . S
C961 C960 1.415 . S
H962 C959 0.999 . S
H963 C944 0.913 . S
H964 C982 0.951 . S
H965 C984 0.951 . S
H966 C986 0.950 . S
H967 C987 0.950 . S
H968 C989 0.950 . S
H969 C992 0.950 . S
H970 C993 0.950 . S
H971 C995 0.950 . S
H972 C996 0.950 . S
H973 C997 0.951 . S
H974 C999 0.951 . S
H975 C1001 0.950 . S
H976 C1002 0.950 . S
H977 C1004 0.950 . S
H978 C1007 0.950 . S
H979 C1008 0.950 . S
H980 C1010 0.950 . S
H981 C1011 0.950 . S
C982 H964 0.951 . S
C982 C983 1.366 . S
C982 C984 1.388 . S
C983 C982 1.366 . S
C983 C987 1.385 . S
C984 H965 0.951 . S
C984 C982 1.388 . S
C984 C985 1.366 . S
C985 C984 1.366 . S
C985 C986 1.414 . S
C985 C988 1.499 . S
C986 H966 0.950 . S
C986 C985 1.414 . S
C986 C987 1.374 . S
C987 H967 0.950 . S
C987 C983 1.385 . S
C987 C986 1.374 . S
C988 C985 1.499 . S
C988 C989 1.373 . S
C988 C990 1.389 . S
C989 H968 0.950 . S
C989 C988 1.373 . S
C989 C1005 1.377 . S
C990 C988 1.389 . S
C990 C991 1.524 . S
C990 C1004 1.377 . S
C991 C990 1.524 . S
C991 C992 1.397 . S
C991 C996 1.363 . S
C992 H969 0.950 . S
C992 C991 1.397 . S
C992 C993 1.334 . S
C993 H970 0.950 . S
C993 C992 1.334 . S
C993 C994 1.287 . S
C994 C993 1.287 . S
C994 C995 1.524 . S
C994 H1013 0.913 . S
C995 H971 0.950 . S
C995 C994 1.524 . S
C995 C996 1.415 . S
C996 H972 0.950 . S
C996 C991 1.363 . S
C996 C995 1.415 . S
C997 H973 0.951 . S
C997 C998 1.366 . S
C997 C999 1.388 . S
C998 C997 1.366 . S
C998 C1002 1.385 . S
C999 H974 0.951 . S
C999 C997 1.388 . S
C999 C1000 1.366 . S
C1000 C999 1.366 . S
C1000 C1001 1.414 . S
C1000 C1003 1.499 . S
C1001 H975 0.950 . S
C1001 C1000 1.414 . S
C1001 C1002 1.374 . S
C1002 H976 0.950 . S
C1002 C998 1.385 . S
C1002 C1001 1.374 . S
C1003 C1000 1.499 . S
C1003 C1004 1.373 . S
C1003 C1005 1.389 . S
C1004 H977 0.950 . S
C1004 C990 1.377 . S
C1004 C1003 1.373 . S
C1005 C989 1.377 . S
C1005 C1003 1.389 . S
C1005 C1006 1.524 . S
C1006 C1005 1.524 . S
C1006 C1007 1.397 . S
C1006 C1011 1.363 . S
C1007 H978 0.950 . S
C1007 C1006 1.397 . S
C1007 C1008 1.334 . S
C1008 H979 0.950 . S
C1008 C1007 1.334 . S
C1008 C1009 1.287 . S
C1009 C1008 1.287 . S
C1009 C1010 1.524 . S
C1009 H1012 0.999 . S
C1010 H980 0.950 . S
C1010 C1009 1.524 . S
C1010 C1011 1.415 . S
C1011 H981 0.950 . S
C1011 C1006 1.363 . S
C1011 C1010 1.415 . S
H1012 C1009 0.999 . S
H1013 C994 0.913 . S
H1014 C1032 0.951 . S
H1015 C1034 0.951 . S
H1016 C1036 0.950 . S
H1017 C1037 0.950 . S
H1018 C1039 0.950 . S
H1019 C1042 0.950 . S
H1020 C1043 0.950 . S
H1021 C1045 0.950 . S
H1022 C1046 0.950 . S
H1023 C1047 0.951 . S
H1024 C1049 0.951 . S
H1025 C1051 0.950 . S
H1026 C1052 0.950 . S
H1027 C1054 0.950 . S
H1028 C1057 0.950 . S
H1029 C1058 0.950 . S
H1030 C1060 0.950 . S
H1031 C1061 0.950 . S
C1032 H1014 0.951 . S
C1032 C1033 1.366 . S
C1032 C1034 1.388 . S
C1033 C1032 1.366 . S
C1033 C1037 1.385 . S
C1034 H1015 0.951 . S
C1034 C1032 1.388 . S
C1034 C1035 1.366 . S
C1035 C1034 1.366 . S
C1035 C1036 1.414 . S
C1035 C1038 1.499 . S
C1036 H1016 0.950 . S
C1036 C1035 1.414 . S
C1036 C1037 1.374 . S
C1037 H1017 0.950 . S
C1037 C1033 1.385 . S
C1037 C1036 1.374 . S
C1038 C1035 1.499 . S
C1038 C1039 1.373 . S
C1038 C1040 1.389 . S
C1039 H1018 0.950 . S
C1039 C1038 1.373 . S
C1039 C1055 1.377 . S
C1040 C1038 1.389 . S
C1040 C1041 1.524 . S
C1040 C1054 1.377 . S
C1041 C1040 1.524 . S
C1041 C1042 1.397 . S
C1041 C1046 1.363 . S
C1042 H1019 0.950 . S
C1042 C1041 1.397 . S
C1042 C1043 1.334 . S
C1043 H1020 0.950 . S
C1043 C1042 1.334 . S
C1043 C1044 1.287 . S
C1044 C1043 1.287 . S
C1044 C1045 1.524 . S
C1044 H1063 0.913 . S
C1045 H1021 0.950 . S
C1045 C1044 1.524 . S
C1045 C1046 1.415 . S
C1046 H1022 0.950 . S
C1046 C1041 1.363 . S
C1046 C1045 1.415 . S
C1047 H1023 0.951 . S
C1047 C1048 1.366 . S
C1047 C1049 1.388 . S
C1048 C1047 1.366 . S
C1048 C1052 1.385 . S
C1049 H1024 0.951 . S
C1049 C1047 1.388 . S
C1049 C1050 1.366 . S
C1050 C1049 1.366 . S
C1050 C1051 1.414 . S
C1050 C1053 1.499 . S
C1051 H1025 0.950 . S
C1051 C1050 1.414 . S
C1051 C1052 1.374 . S
C1052 H1026 0.950 . S
C1052 C1048 1.385 . S
C1052 C1051 1.374 . S
C1053 C1050 1.499 . S
C1053 C1054 1.373 . S
C1053 C1055 1.389 . S
C1054 H1027 0.950 . S
C1054 C1040 1.377 . S
C1054 C1053 1.373 . S
C1055 C1039 1.377 . S
C1055 C1053 1.389 . S
C1055 C1056 1.524 . S
C1056 C1055 1.524 . S
C1056 C1057 1.397 . S
C1056 C1061 1.363 . S
C1057 H1028 0.950 . S
C1057 C1056 1.397 . S
C1057 C1058 1.334 . S
C1058 H1029 0.950 . S
C1058 C1057 1.334 . S
C1058 C1059 1.287 . S
C1059 C1058 1.287 . S
C1059 C1060 1.524 . S
C1059 H1062 0.999 . S
C1060 H1030 0.950 . S
C1060 C1059 1.524 . S
C1060 C1061 1.415 . S
C1061 H1031 0.950 . S
C1061 C1056 1.363 . S
C1061 C1060 1.415 . S
H1062 C1059 0.999 . S
H1063 C1044 0.913 . S
H1064 C1082 0.951 . S
H1065 C1084 0.951 . S
H1066 C1086 0.950 . S
H1067 C1087 0.950 . S
H1068 C1089 0.950 . S
H1069 C1092 0.950 . S
H1070 C1093 0.950 . S
H1071 C1095 0.950 . S
H1072 C1096 0.950 . S
H1073 C1097 0.951 1_545 S
H1074 C1099 0.951 . S
H1075 C1101 0.950 . S
H1076 C1102 0.949 . S
H1077 C1104 0.950 . S
H1078 C1107 0.950 . S
H1079 C1108 0.950 . S
H1080 C1110 0.950 . S
H1081 C1111 0.950 . S
C1082 H1064 0.951 . S
C1082 C1083 1.366 . S
C1082 C1084 1.388 . S
C1083 C1082 1.366 . S
C1083 C1087 1.385 . S
C1084 H1065 0.951 . S
C1084 C1082 1.388 . S
C1084 C1085 1.366 . S
C1085 C1084 1.366 . S
C1085 C1086 1.414 . S
C1085 C1088 1.499 . S
C1086 H1066 0.950 . S
C1086 C1085 1.414 . S
C1086 C1087 1.374 . S
C1087 H1067 0.950 . S
C1087 C1083 1.385 . S
C1087 C1086 1.374 . S
C1088 C1085 1.499 . S
C1088 C1089 1.373 . S
C1088 C1090 1.389 . S
C1089 H1068 0.950 . S
C1089 C1088 1.373 . S
C1089 C1105 1.377 . S
C1090 C1088 1.389 . S
C1090 C1091 1.524 . S
C1090 C1104 1.377 . S
C1091 C1090 1.524 . S
C1091 C1092 1.397 . S
C1091 C1096 1.363 . S
C1092 H1069 0.950 . S
C1092 C1091 1.397 . S
C1092 C1093 1.334 . S
C1093 H1070 0.950 . S
C1093 C1092 1.334 . S
C1093 C1094 1.287 . S
C1094 C1093 1.287 . S
C1094 C1095 1.524 . S
C1094 H1113 0.913 . S
C1095 H1071 0.950 . S
C1095 C1094 1.524 . S
C1095 C1096 1.415 . S
C1096 H1072 0.950 . S
C1096 C1091 1.363 . S
C1096 C1095 1.415 . S
C1097 H1073 0.951 1_565 S
C1097 C1098 1.366 . S
C1097 C1099 1.388 . S
C1098 C1097 1.366 . S
C1098 C1102 1.379 1_554 S
C1099 H1074 0.951 . S
C1099 C1097 1.388 . S
C1099 C1100 1.366 1_554 S
C1100 C1099 1.366 1_556 S
C1100 C1101 1.414 . S
C1100 C1103 1.499 . S
C1101 H1075 0.950 . S
C1101 C1100 1.414 . S
C1101 C1102 1.381 . S
C1102 H1076 0.949 . S
C1102 C1098 1.379 1_556 S
C1102 C1101 1.381 . S
C1103 C1100 1.499 . S
C1103 C1104 1.373 . S
C1103 C1105 1.389 . S
C1104 H1077 0.950 . S
C1104 C1090 1.377 . S
C1104 C1103 1.373 . S
C1105 C1089 1.377 . S
C1105 C1103 1.389 . S
C1105 C1106 1.524 1_556 S
C1106 C1105 1.524 1_554 S
C1106 C1107 1.397 . S
C1106 C1111 1.363 . S
C1107 H1078 0.950 . S
C1107 C1106 1.397 . S
C1107 C1108 1.334 . S
C1108 H1079 0.950 . S
C1108 C1107 1.334 . S
C1108 C1109 1.287 . S
C1109 C1108 1.287 . S
C1109 C1110 1.524 . S
C1109 H1112 0.999 . S
C1110 H1080 0.950 . S
C1110 C1109 1.524 . S
C1110 C1111 1.415 . S
C1111 H1081 0.950 . S
C1111 C1106 1.363 . S
C1111 C1110 1.415 . S
H1112 C1109 0.999 . S
H1113 C1094 0.913 . S
H1114 C1132 0.951 . S
H1115 C1134 0.951 . S
H1116 C1136 0.950 . S
H1117 C1137 0.950 . S
H1118 C1139 0.950 . S
H1119 C1142 0.950 . S
H1120 C1143 0.950 . S
H1121 C1145 0.950 . S
H1122 C1146 0.950 . S
H1123 C1147 0.951 . S
H1124 C1149 0.951 . S
H1125 C1151 0.950 . S
H1126 C1152 0.950 . S
H1127 C1154 0.950 . S
H1128 C1157 0.950 . S
H1129 C1158 0.950 . S
H1130 C1160 0.950 . S
H1131 C1161 0.950 . S
C1132 H1114 0.951 . S
C1132 C1133 1.366 . S
C1132 C1134 1.388 . S
C1133 C1132 1.366 . S
C1133 C1137 1.385 . S
C1134 H1115 0.951 . S
C1134 C1132 1.388 . S
C1134 C1135 1.366 . S
C1135 C1134 1.366 . S
C1135 C1136 1.414 . S
C1135 C1138 1.499 . S
C1136 H1116 0.950 . S
C1136 C1135 1.414 . S
C1136 C1137 1.374 . S
C1137 H1117 0.950 . S
C1137 C1133 1.385 . S
C1137 C1136 1.374 . S
C1138 C1135 1.499 . S
C1138 C1139 1.373 . S
C1138 C1140 1.389 . S
C1139 H1118 0.950 . S
C1139 C1138 1.373 . S
C1139 C1155 1.377 . S
C1140 C1138 1.389 . S
C1140 C1141 1.524 . S
C1140 C1154 1.377 . S
C1141 C1140 1.524 . S
C1141 C1142 1.397 . S
C1141 C1146 1.363 . S
C1142 H1119 0.950 . S
C1142 C1141 1.397 . S
C1142 C1143 1.334 . S
C1143 H1120 0.950 . S
C1143 C1142 1.334 . S
C1143 C1144 1.287 . S
C1144 C1143 1.287 . S
C1144 C1145 1.524 . S
C1144 H1163 0.913 . S
C1145 H1121 0.950 . S
C1145 C1144 1.524 . S
C1145 C1146 1.415 . S
C1146 H1122 0.950 . S
C1146 C1141 1.363 . S
C1146 C1145 1.415 . S
C1147 H1123 0.951 . S
C1147 C1148 1.366 . S
C1147 C1149 1.388 . S
C1148 C1147 1.366 . S
C1148 C1152 1.385 . S
C1149 H1124 0.951 . S
C1149 C1147 1.388 . S
C1149 C1150 1.366 . S
C1150 C1149 1.366 . S
C1150 C1151 1.414 . S
C1150 C1153 1.499 . S
C1151 H1125 0.950 . S
C1151 C1150 1.414 . S
C1151 C1152 1.374 . S
C1152 H1126 0.950 . S
C1152 C1148 1.385 . S
C1152 C1151 1.374 . S
C1153 C1150 1.499 . S
C1153 C1154 1.373 . S
C1153 C1155 1.389 . S
C1154 H1127 0.950 . S
C1154 C1140 1.377 . S
C1154 C1153 1.373 . S
C1155 C1139 1.377 . S
C1155 C1153 1.389 . S
C1155 C1156 1.524 . S
C1156 C1155 1.524 . S
C1156 C1157 1.397 . S
C1156 C1161 1.363 . S
C1157 H1128 0.950 . S
C1157 C1156 1.397 . S
C1157 C1158 1.334 . S
C1158 H1129 0.950 . S
C1158 C1157 1.334 . S
C1158 C1159 1.287 . S
C1159 C1158 1.287 . S
C1159 C1160 1.524 . S
C1159 H1162 0.999 . S
C1160 H1130 0.950 . S
C1160 C1159 1.524 . S
C1160 C1161 1.415 . S
C1161 H1131 0.950 . S
C1161 C1156 1.363 . S
C1161 C1160 1.415 . S
H1162 C1159 0.999 . S
H1163 C1144 0.913 . S
H1164 C1182 0.951 . S
H1165 C1184 0.951 . S
H1166 C1186 0.950 . S
H1167 C1187 0.950 . S
H1168 C1189 0.950 . S
H1169 C1192 0.950 . S
H1170 C1193 0.950 . S
H1171 C1195 0.950 . S
H1172 C1196 0.950 . S
H1173 C1197 0.951 . S
H1174 C1199 0.951 . S
H1175 C1201 0.950 . S
H1176 C1202 0.950 . S
H1177 C1204 0.950 . S
H1178 C1207 0.950 . S
H1179 C1208 0.950 1_556 S
H1180 C1210 0.950 . S
H1181 C1211 0.950 . S
C1182 H1164 0.951 . S
C1182 C1183 1.366 . S
C1182 C1184 1.388 . S
C1183 C1182 1.366 . S
C1183 C1187 1.385 . S
C1184 H1165 0.951 . S
C1184 C1182 1.388 . S
C1184 C1185 1.366 . S
C1185 C1184 1.366 . S
C1185 C1186 1.414 . S
C1185 C1188 1.499 . S
C1186 H1166 0.950 . S
C1186 C1185 1.414 . S
C1186 C1187 1.374 . S
C1187 H1167 0.950 . S
C1187 C1183 1.385 . S
C1187 C1186 1.374 . S
C1188 C1185 1.499 . S
C1188 C1189 1.373 . S
C1188 C1190 1.389 . S
C1189 H1168 0.950 . S
C1189 C1188 1.373 . S
C1189 C1205 1.377 . S
C1190 C1188 1.389 . S
C1190 C1191 1.524 . S
C1190 C1204 1.377 . S
C1191 C1190 1.524 . S
C1191 C1192 1.397 . S
C1191 C1196 1.363 . S
C1192 H1169 0.950 . S
C1192 C1191 1.397 . S
C1192 C1193 1.334 . S
C1193 H1170 0.950 . S
C1193 C1192 1.334 . S
C1193 C1194 1.287 . S
C1194 C1193 1.287 . S
C1194 C1195 1.524 . S
C1194 H1213 0.913 . S
C1195 H1171 0.950 . S
C1195 C1194 1.524 . S
C1195 C1196 1.415 . S
C1196 H1172 0.950 . S
C1196 C1191 1.363 . S
C1196 C1195 1.415 . S
C1197 H1173 0.951 . S
C1197 C1198 1.366 . S
C1197 C1199 1.388 . S
C1198 C1197 1.366 . S
C1198 C1202 1.385 . S
C1199 H1174 0.951 . S
C1199 C1197 1.388 . S
C1199 C1200 1.366 . S
C1200 C1199 1.366 . S
C1200 C1201 1.414 . S
C1200 C1203 1.499 . S
C1201 H1175 0.950 . S
C1201 C1200 1.414 . S
C1201 C1202 1.374 . S
C1202 H1176 0.950 . S
C1202 C1198 1.385 . S
C1202 C1201 1.374 . S
C1203 C1200 1.499 . S
C1203 C1204 1.373 . S
C1203 C1205 1.389 . S
C1204 H1177 0.950 . S
C1204 C1190 1.377 . S
C1204 C1203 1.373 . S
C1205 C1189 1.377 . S
C1205 C1203 1.389 . S
C1205 C1206 1.524 . S
C1206 C1205 1.524 . S
C1206 C1207 1.397 . S
C1206 C1211 1.363 . S
C1207 H1178 0.950 . S
C1207 C1206 1.397 . S
C1207 C1208 1.334 . S
C1208 H1179 0.950 1_554 S
C1208 C1207 1.334 . S
C1208 C1209 1.287 . S
C1209 C1208 1.287 . S
C1209 C1210 1.524 . S
C1209 H1212 0.999 . S
C1210 H1180 0.950 . S
C1210 C1209 1.524 . S
C1210 C1211 1.415 . S
C1211 H1181 0.950 . S
C1211 C1206 1.363 . S
C1211 C1210 1.415 . S
H1212 C1209 0.999 . S
H1213 C1194 0.913 . S
H1214 C1232 0.951 . S
H1215 C1234 0.951 . S
H1216 C1236 0.950 . S
H1217 C1237 0.950 . S
H1218 C1239 0.950 . S
H1219 C1242 0.950 . S
H1220 C1243 0.950 . S
H1221 C1245 0.950 . S
H1222 C1246 0.950 . S
H1223 C1247 0.951 . S
H1224 C1249 0.951 . S
H1225 C1251 0.950 . S
H1226 C1252 0.950 . S
H1227 C1254 0.950 . S
H1228 C1257 0.950 . S
H1229 C1258 0.950 . S
H1230 C1260 0.950 . S
H1231 C1261 0.950 . S
C1232 H1214 0.951 . S
C1232 C1233 1.366 . S
C1232 C1234 1.388 . S
C1233 C1232 1.366 . S
C1233 C1237 1.385 . S
C1234 H1215 0.951 . S
C1234 C1232 1.388 . S
C1234 C1235 1.366 . S
C1235 C1234 1.366 . S
C1235 C1236 1.414 . S
C1235 C1238 1.499 . S
C1236 H1216 0.950 . S
C1236 C1235 1.414 . S
C1236 C1237 1.374 . S
C1237 H1217 0.950 . S
C1237 C1233 1.385 . S
C1237 C1236 1.374 . S
C1238 C1235 1.499 . S
C1238 C1239 1.373 . S
C1238 C1240 1.389 . S
C1239 H1218 0.950 . S
C1239 C1238 1.373 . S
C1239 C1255 1.377 . S
C1240 C1238 1.389 . S
C1240 C1241 1.524 . S
C1240 C1254 1.377 . S
C1241 C1240 1.524 . S
C1241 C1242 1.397 . S
C1241 C1246 1.363 . S
C1242 H1219 0.950 . S
C1242 C1241 1.397 . S
C1242 C1243 1.334 . S
C1243 H1220 0.950 . S
C1243 C1242 1.334 . S
C1243 C1244 1.287 . S
C1244 C1243 1.287 . S
C1244 C1245 1.524 . S
C1244 H1263 0.913 . S
C1245 H1221 0.950 . S
C1245 C1244 1.524 . S
C1245 C1246 1.415 . S
C1246 H1222 0.950 . S
C1246 C1241 1.363 . S
C1246 C1245 1.415 . S
C1247 H1223 0.951 . S
C1247 C1248 1.366 . S
C1247 C1249 1.388 . S
C1248 C1247 1.366 . S
C1248 C1252 1.385 . S
C1249 H1224 0.951 . S
C1249 C1247 1.388 . S
C1249 C1250 1.366 . S
C1250 C1249 1.366 . S
C1250 C1251 1.414 . S
C1250 C1253 1.499 . S
C1251 H1225 0.950 . S
C1251 C1250 1.414 . S
C1251 C1252 1.374 . S
C1252 H1226 0.950 . S
C1252 C1248 1.385 . S
C1252 C1251 1.374 . S
C1253 C1250 1.499 . S
C1253 C1254 1.373 . S
C1253 C1255 1.389 . S
C1254 H1227 0.950 . S
C1254 C1240 1.377 . S
C1254 C1253 1.373 . S
C1255 C1239 1.377 . S
C1255 C1253 1.389 . S
C1255 C1256 1.524 . S
C1256 C1255 1.524 . S
C1256 C1257 1.397 . S
C1256 C1261 1.363 . S
C1257 H1228 0.950 . S
C1257 C1256 1.397 . S
C1257 C1258 1.334 . S
C1258 H1229 0.950 . S
C1258 C1257 1.334 . S
C1258 C1259 1.287 . S
C1259 C1258 1.287 . S
C1259 C1260 1.524 . S
C1259 H1262 0.999 . S
C1260 H1230 0.950 . S
C1260 C1259 1.524 . S
C1260 C1261 1.415 . S
C1261 H1231 0.950 . S
C1261 C1256 1.363 . S
C1261 C1260 1.415 . S
H1262 C1259 0.999 . S
H1263 C1244 0.913 . S
H1264 C1282 0.951 . S
H1265 C1284 0.951 . S
H1266 C1286 0.950 . S
H1267 C1287 0.950 . S
H1268 C1289 0.950 . S
H1269 C1292 0.950 . S
H1270 C1293 0.950 . S
H1271 C1295 0.950 . S
H1272 C1296 0.950 . S
H1273 C1297 0.951 1_454 S
H1274 C1299 0.951 . S
H1275 C1301 0.950 . S
H1276 C1302 0.950 . S
H1277 C1304 0.950 . S
H1278 C1307 0.950 . S
H1279 C1308 0.950 . S
H1280 C1310 0.950 . S
H1281 C1311 0.950 . S
C1282 H1264 0.951 . S
C1282 C1283 1.366 . S
C1282 C1284 1.388 . S
C1283 C1282 1.366 . S
C1283 C1287 1.385 . S
C1284 H1265 0.951 . S
C1284 C1282 1.388 . S
C1284 C1285 1.366 . S
C1285 C1284 1.366 . S
C1285 C1286 1.414 . S
C1285 C1288 1.499 . S
C1286 H1266 0.950 . S
C1286 C1285 1.414 . S
C1286 C1287 1.374 . S
C1287 H1267 0.950 . S
C1287 C1283 1.385 . S
C1287 C1286 1.374 . S
C1288 C1285 1.499 . S
C1288 C1289 1.373 . S
C1288 C1290 1.389 . S
C1289 H1268 0.950 . S
C1289 C1288 1.373 . S
C1289 C1305 1.377 . S
C1290 C1288 1.389 . S
C1290 C1291 1.524 . S
C1290 C1304 1.377 . S
C1291 C1290 1.524 . S
C1291 C1292 1.397 . S
C1291 C1296 1.363 . S
C1292 H1269 0.950 . S
C1292 C1291 1.397 . S
C1292 C1293 1.334 . S
C1293 H1270 0.950 . S
C1293 C1292 1.334 . S
C1293 C1294 1.287 . S
C1294 C1293 1.287 . S
C1294 C1295 1.524 . S
C1294 H1313 0.913 . S
C1295 H1271 0.950 . S
C1295 C1294 1.524 . S
C1295 C1296 1.415 . S
C1296 H1272 0.950 . S
C1296 C1291 1.363 . S
C1296 C1295 1.415 . S
C1297 H1273 0.951 1_656 S
C1297 C1298 1.366 . S
C1297 C1299 1.388 . S
C1298 C1297 1.366 . S
C1298 C1302 1.385 . S
C1299 H1274 0.951 . S
C1299 C1297 1.388 . S
C1299 C1300 1.366 . S
C1300 C1299 1.366 . S
C1300 C1301 1.414 . S
C1300 C1303 1.499 . S
C1301 H1275 0.950 . S
C1301 C1300 1.414 . S
C1301 C1302 1.374 . S
C1302 H1276 0.950 . S
C1302 C1298 1.385 . S
C1302 C1301 1.374 . S
C1303 C1300 1.499 . S
C1303 C1304 1.373 . S
C1303 C1305 1.389 . S
C1304 H1277 0.950 . S
C1304 C1290 1.377 . S
C1304 C1303 1.373 . S
C1305 C1289 1.377 . S
C1305 C1303 1.389 . S
C1305 C1306 1.524 . S
C1306 C1305 1.524 . S
C1306 C1307 1.397 . S
C1306 C1311 1.363 1_655 S
C1307 H1278 0.950 . S
C1307 C1306 1.397 . S
C1307 C1308 1.334 1_655 S
C1308 H1279 0.950 . S
C1308 C1307 1.334 1_455 S
C1308 C1309 1.287 . S
C1309 C1308 1.287 . S
C1309 C1310 1.524 . S
C1309 H1312 0.999 . S
C1310 H1280 0.950 . S
C1310 C1309 1.524 . S
C1310 C1311 1.415 . S
C1311 H1281 0.950 . S
C1311 C1306 1.363 1_455 S
C1311 C1310 1.415 . S
H1312 C1309 0.999 . S
H1313 C1294 0.913 . S
H1314 C1332 0.951 . S
H1315 C1334 0.951 . S
H1316 C1336 0.950 . S
H1317 C1337 0.950 . S
H1318 C1339 0.950 . S
H1319 C1342 0.950 . S
H1320 C1343 0.950 . S
H1321 C1345 0.950 . S
H1322 C1346 0.950 . S
H1323 C1347 0.951 . S
H1324 C1349 0.951 . S
H1325 C1351 0.950 . S
H1326 C1352 0.950 . S
H1327 C1354 0.950 . S
H1328 C1357 0.950 . S
H1329 C1358 0.950 . S
H1330 C1360 0.950 . S
H1331 C1361 0.950 . S
C1332 H1314 0.951 . S
C1332 C1333 1.366 . S
C1332 C1334 1.388 . S
C1333 C1332 1.366 . S
C1333 C1337 1.385 . S
C1334 H1315 0.951 . S
C1334 C1332 1.388 . S
C1334 C1335 1.366 . S
C1335 C1334 1.366 . S
C1335 C1336 1.414 . S
C1335 C1338 1.499 . S
C1336 H1316 0.950 . S
C1336 C1335 1.414 . S
C1336 C1337 1.374 . S
C1337 H1317 0.950 . S
C1337 C1333 1.385 . S
C1337 C1336 1.374 . S
C1338 C1335 1.499 . S
C1338 C1339 1.373 . S
C1338 C1340 1.389 . S
C1339 H1318 0.950 . S
C1339 C1338 1.373 . S
C1339 C1355 1.377 . S
C1340 C1338 1.389 . S
C1340 C1341 1.524 . S
C1340 C1354 1.377 . S
C1341 C1340 1.524 . S
C1341 C1342 1.397 . S
C1341 C1346 1.363 . S
C1342 H1319 0.950 . S
C1342 C1341 1.397 . S
C1342 C1343 1.334 . S
C1343 H1320 0.950 . S
C1343 C1342 1.334 . S
C1343 C1344 1.287 . S
C1344 C1343 1.287 . S
C1344 C1345 1.524 . S
C1344 H1363 0.913 . S
C1345 H1321 0.950 . S
C1345 C1344 1.524 . S
C1345 C1346 1.415 . S
C1346 H1322 0.950 . S
C1346 C1341 1.363 . S
C1346 C1345 1.415 . S
C1347 H1323 0.951 . S
C1347 C1348 1.366 . S
C1347 C1349 1.388 . S
C1348 C1347 1.366 . S
C1348 C1352 1.385 . S
C1349 H1324 0.951 . S
C1349 C1347 1.388 . S
C1349 C1350 1.366 . S
C1350 C1349 1.366 . S
C1350 C1351 1.414 . S
C1350 C1353 1.499 . S
C1351 H1325 0.950 . S
C1351 C1350 1.414 . S
C1351 C1352 1.374 . S
C1352 H1326 0.950 . S
C1352 C1348 1.385 . S
C1352 C1351 1.374 . S
C1353 C1350 1.499 . S
C1353 C1354 1.373 . S
C1353 C1355 1.389 . S
C1354 H1327 0.950 . S
C1354 C1340 1.377 . S
C1354 C1353 1.373 . S
C1355 C1339 1.377 . S
C1355 C1353 1.389 . S
C1355 C1356 1.524 . S
C1356 C1355 1.524 . S
C1356 C1357 1.397 . S
C1356 C1361 1.363 . S
C1357 H1328 0.950 . S
C1357 C1356 1.397 . S
C1357 C1358 1.334 . S
C1358 H1329 0.950 . S
C1358 C1357 1.334 . S
C1358 C1359 1.287 . S
C1359 C1358 1.287 . S
C1359 C1360 1.524 . S
C1359 H1362 0.999 . S
C1360 H1330 0.950 . S
C1360 C1359 1.524 . S
C1360 C1361 1.415 . S
C1361 H1331 0.950 . S
C1361 C1356 1.363 . S
C1361 C1360 1.415 . S
H1362 C1359 0.999 . S
H1363 C1344 0.913 . S
H1364 C1382 0.951 . S
H1365 C1384 0.951 . S
H1366 C1386 0.950 . S
H1367 C1387 0.950 . S
H1368 C1389 0.950 . S
H1369 C1392 0.950 . S
H1370 C1393 0.950 . S
H1371 C1395 0.950 . S
H1372 C1396 0.950 . S
H1373 C1397 0.951 . S
H1374 C1399 0.951 . S
H1375 C1401 0.950 . S
H1376 C1402 0.950 . S
H1377 C1404 0.950 . S
H1378 C1407 0.950 . S
H1379 C1408 0.950 . S
H1380 C1410 0.950 . S
H1381 C1411 0.950 . S
C1382 H1364 0.951 . S
C1382 C1383 1.366 . S
C1382 C1384 1.388 . S
C1383 C1382 1.366 . S
C1383 C1387 1.385 . S
C1384 H1365 0.951 . S
C1384 C1382 1.388 . S
C1384 C1385 1.366 . S
C1385 C1384 1.366 . S
C1385 C1386 1.414 . S
C1385 C1388 1.499 . S
C1386 H1366 0.950 . S
C1386 C1385 1.414 . S
C1386 C1387 1.374 . S
C1387 H1367 0.950 . S
C1387 C1383 1.385 . S
C1387 C1386 1.374 . S
C1388 C1385 1.499 . S
C1388 C1389 1.373 . S
C1388 C1390 1.389 . S
C1389 H1368 0.950 . S
C1389 C1388 1.373 . S
C1389 C1405 1.377 . S
C1390 C1388 1.389 . S
C1390 C1391 1.524 . S
C1390 C1404 1.377 . S
C1391 C1390 1.524 . S
C1391 C1392 1.397 . S
C1391 C1396 1.363 . S
C1392 H1369 0.950 . S
C1392 C1391 1.397 . S
C1392 C1393 1.334 . S
C1393 H1370 0.950 . S
C1393 C1392 1.334 . S
C1393 C1394 1.287 . S
C1394 C1393 1.287 . S
C1394 C1395 1.524 . S
C1394 H1413 0.913 . S
C1395 H1371 0.950 . S
C1395 C1394 1.524 . S
C1395 C1396 1.415 . S
C1396 H1372 0.950 . S
C1396 C1391 1.363 . S
C1396 C1395 1.415 . S
C1397 H1373 0.951 . S
C1397 C1398 1.366 . S
C1397 C1399 1.388 . S
C1398 C1397 1.366 . S
C1398 C1402 1.385 . S
C1399 H1374 0.951 . S
C1399 C1397 1.388 . S
C1399 C1400 1.366 . S
C1400 C1399 1.366 . S
C1400 C1401 1.414 . S
C1400 C1403 1.499 . S
C1401 H1375 0.950 . S
C1401 C1400 1.414 . S
C1401 C1402 1.374 . S
C1402 H1376 0.950 . S
C1402 C1398 1.385 . S
C1402 C1401 1.374 . S
C1403 C1400 1.499 . S
C1403 C1404 1.373 . S
C1403 C1405 1.389 . S
C1404 H1377 0.950 . S
C1404 C1390 1.377 . S
C1404 C1403 1.373 . S
C1405 C1389 1.377 . S
C1405 C1403 1.389 . S
C1405 C1406 1.524 . S
C1406 C1405 1.524 . S
C1406 C1407 1.397 . S
C1406 C1411 1.363 . S
C1407 H1378 0.950 . S
C1407 C1406 1.397 . S
C1407 C1408 1.334 . S
C1408 H1379 0.950 . S
C1408 C1407 1.334 . S
C1408 C1409 1.287 . S
C1409 C1408 1.287 . S
C1409 C1410 1.524 . S
C1409 H1412 0.999 . S
C1410 H1380 0.950 . S
C1410 C1409 1.524 . S
C1410 C1411 1.415 . S
C1411 H1381 0.950 . S
C1411 C1406 1.363 . S
C1411 C1410 1.415 . S
H1412 C1409 0.999 . S
H1413 C1394 0.913 . S
H1414 C1432 0.951 . S
H1415 C1434 0.951 . S
H1416 C1436 0.950 . S
H1417 C1437 0.950 . S
H1418 C1439 0.950 . S
H1419 C1442 0.950 . S
H1420 C1443 0.950 . S
H1421 C1445 0.950 . S
H1422 C1446 0.950 . S
H1423 C1447 0.951 . S
H1424 C1449 0.951 . S
H1425 C1451 0.950 . S
H1426 C1452 0.950 . S
H1427 C1454 0.950 . S
H1428 C1457 0.950 . S
H1429 C1458 0.950 . S
H1430 C1460 0.950 . S
H1431 C1461 0.950 . S
C1432 H1414 0.951 . S
C1432 C1433 1.366 . S
C1432 C1434 1.388 . S
C1433 C1432 1.366 . S
C1433 C1437 1.385 . S
C1434 H1415 0.951 . S
C1434 C1432 1.388 . S
C1434 C1435 1.366 . S
C1435 C1434 1.366 . S
C1435 C1436 1.414 . S
C1435 C1438 1.499 . S
C1436 H1416 0.950 . S
C1436 C1435 1.414 . S
C1436 C1437 1.374 . S
C1437 H1417 0.950 . S
C1437 C1433 1.385 . S
C1437 C1436 1.374 . S
C1438 C1435 1.499 . S
C1438 C1439 1.373 . S
C1438 C1440 1.389 . S
C1439 H1418 0.950 . S
C1439 C1438 1.373 . S
C1439 C1455 1.377 . S
C1440 C1438 1.389 . S
C1440 C1441 1.524 . S
C1440 C1454 1.377 . S
C1441 C1440 1.524 . S
C1441 C1442 1.397 . S
C1441 C1446 1.363 . S
C1442 H1419 0.950 . S
C1442 C1441 1.397 . S
C1442 C1443 1.334 . S
C1443 H1420 0.950 . S
C1443 C1442 1.334 . S
C1443 C1444 1.287 . S
C1444 C1443 1.287 . S
C1444 C1445 1.524 . S
C1444 H1463 0.913 . S
C1445 H1421 0.950 . S
C1445 C1444 1.524 . S
C1445 C1446 1.415 . S
C1446 H1422 0.950 . S
C1446 C1441 1.363 . S
C1446 C1445 1.415 . S
C1447 H1423 0.951 . S
C1447 C1448 1.366 . S
C1447 C1449 1.388 . S
C1448 C1447 1.366 . S
C1448 C1452 1.385 . S
C1449 H1424 0.951 . S
C1449 C1447 1.388 . S
C1449 C1450 1.366 . S
C1450 C1449 1.366 . S
C1450 C1451 1.414 . S
C1450 C1453 1.499 . S
C1451 H1425 0.950 . S
C1451 C1450 1.414 . S
C1451 C1452 1.374 . S
C1452 H1426 0.950 . S
C1452 C1448 1.385 . S
C1452 C1451 1.374 . S
C1453 C1450 1.499 . S
C1453 C1454 1.373 . S
C1453 C1455 1.389 . S
C1454 H1427 0.950 . S
C1454 C1440 1.377 . S
C1454 C1453 1.373 . S
C1455 C1439 1.377 . S
C1455 C1453 1.389 . S
C1455 C1456 1.524 . S
C1456 C1455 1.524 . S
C1456 C1457 1.397 . S
C1456 C1461 1.363 . S
C1457 H1428 0.950 . S
C1457 C1456 1.397 . S
C1457 C1458 1.334 . S
C1458 H1429 0.950 . S
C1458 C1457 1.334 . S
C1458 C1459 1.287 . S
C1459 C1458 1.287 . S
C1459 C1460 1.524 . S
C1459 H1462 0.999 . S
C1460 H1430 0.950 . S
C1460 C1459 1.524 . S
C1460 C1461 1.415 . S
C1461 H1431 0.950 . S
C1461 C1456 1.363 . S
C1461 C1460 1.415 . S
H1462 C1459 0.999 . S
H1463 C1444 0.913 . S
C283 N1 2.721 . S
C298 C123 2.760 . S
C333 N18 2.559 . S
C348 C154 2.601 1_556 S
C398 C193 0.659 . S
C383 N28 0.638 . S
C433 N40 0.585 . S
C448 C230 0.552 . S
C498 C153 3.284 . S
C483 N5 3.342 . S
C548 C110 1.444 . S
C533 N14 1.418 . S
C598 C242 1.294 . S
C583 N31 1.339 . S
C648 C199 0.464 . S
C633 N41 0.460 . S
C683 N2 2.189 . S
C698 C243 2.204 . S
C748 C159 1.479 . S
C733 N27 1.461 . S
C783 N44 0.806 . S
C798 C122 0.797 . S
C833 N15 2.131 . S
C848 C194 2.141 . S
C898 C114 3.363 . S
C883 N57 3.388 . S
C933 N70 1.913 . S
C948 C163 1.957 . S
C983 N79 1.126 . S
C998 C202 1.096 . S
C1033 N93 0.188 . S
C1048 C239 0.197 . S
C1083 N54 2.923 . S
C1098 C162 2.800 . S
C1148 C119 1.938 . S
C1133 N66 1.970 . S
C1198 C233 0.591 . S
C1183 N80 0.564 . S
C1248 C190 0.962 . S
C1233 N96 0.946 . S
C1283 N53 2.218 . S
C1298 C234 2.230 . S
C1348 C150 1.308 . S
C1333 N83 1.310 . S
C1398 C113 0.729 . S
C1383 N92 0.729 . S
C1433 N67 2.263 . S
C1448 C203 2.280 . S
