# Generated by pormake.
# Topology rtl, (3,6)-cn, num edge types: 1
# Building blocks:
#     Node 0, Type 0, BuildingBlock: VETTIZ_charged_linker_0, # of connection points: 3
#     Node 1, Type 0, BuildingBlock: VETTIZ_charged_linker_0, # of connection points: 3
#     Node 2, Type 0, BuildingBlock: VETTIZ_charged_linker_0, # of connection points: 3
#     Node 3, Type 0, BuildingBlock: VETTIZ_charged_linker_0, # of connection points: 3
#     Node 4, Type 1, BuildingBlock: VOLQOD_clean_sbu_1, # of connection points: 6
#     Node 5, Type 1, BuildingBlock: VOLQOD_clean_sbu_1, # of connection points: 6
#     Edge 6, Type (0, 1), BuildingBlock: CIFDUS_clean_linker_0, # of connection points: 2
#     Edge 7, Type (0, 1), BuildingBlock: CIFDUS_clean_linker_0, # of connection points: 2
#     Edge 8, Type (0, 1), BuildingBlock: CIFDUS_clean_linker_0, # of connection points: 2
#     Edge 9, Type (0, 1), BuildingBlock: CIFDUS_clean_linker_0, # of connection points: 2
#     Edge 10, Type (0, 1), BuildingBlock: CIFDUS_clean_linker_0, # of connection points: 2
#     Edge 11, Type (0, 1), BuildingBlock: CIFDUS_clean_linker_0, # of connection points: 2
#     Edge 12, Type (0, 1), BuildingBlock: CIFDUS_clean_linker_0, # of connection points: 2
#     Edge 13, Type (0, 1), BuildingBlock: CIFDUS_clean_linker_0, # of connection points: 2
#     Edge 14, Type (0, 1), BuildingBlock: CIFDUS_clean_linker_0, # of connection points: 2
#     Edge 15, Type (0, 1), BuildingBlock: CIFDUS_clean_linker_0, # of connection points: 2
#     Edge 16, Type (0, 1), BuildingBlock: CIFDUS_clean_linker_0, # of connection points: 2
#     Edge 17, Type (0, 1), BuildingBlock: CIFDUS_clean_linker_0, # of connection points: 2
# Relax obj value: 0.081
# Max RMSD: 0.157
# Mean RMSD: 0.091
data_MOF--net-rtl--node1-VOLQOD_clean_sbu_1--node2-VETTIZ_charged_linker_0--edge1-CIFDUS_clean_linker_0
_symmetry_space_group_name_H-M    P1
_symmetry_Int_Tables_number       1
_symmetry_cell_setting            triclinic
loop_
_symmetry_equiv_pos_as_xyz
'x, y, z'
_cell_length_a     40.157819
_cell_length_b     34.594684
_cell_length_c     26.268435
_cell_angle_alpha  89.897124
_cell_angle_beta   90.440629
_cell_angle_gamma 90.566209
loop_
_atom_site_label
_atom_site_type_symbol
_atom_site_fract_x
_atom_site_fract_y
_atom_site_fract_z
_atom_type_partial_charge
C0 C 0.09612 0.75202 0.83694 0.0
C1 C 0.06997 0.77839 0.83073 0.0
C2 C 0.049 0.78616 0.87209 0.0
C3 C 0.08392 0.7475 0.92693 0.0
C4 C 0.10231 0.73642 0.88535 0.0
C5 C 0.12927 0.70839 0.89983 0.0
H6 H 0.23119 0.64027 0.08234 0.0
C7 C 0.09962 0.7314 0.97294 0.0
C8 C 0.12553 0.7073 0.95751 0.0
H9 H 0.22946 0.61089 0.9222 0.0
H10 H 0.17853 0.64637 0.91099 0.0
H11 H 0.20848 0.72858 0.07007 0.0
H12 H 0.15332 0.62358 0.09933 0.0
H13 H 0.13343 0.66042 0.13315 0.0
H14 H 0.17595 0.64818 0.14894 0.0
H15 H 0.2128 0.70063 0.12741 0.0
H16 H 0.18121 0.73662 0.12098 0.0
C17 C 0.16319 0.72593 0.88362 0.0
C18 C 0.12111 0.66871 0.875 0.0
C19 C 0.07606 0.7953 0.14171 0.0
C20 C 0.09036 0.79169 0.19025 0.0
C21 C 0.11297 0.76171 0.2 0.0
C22 C 0.12279 0.73706 0.16064 0.0
C23 C 0.10993 0.74274 0.11123 0.0
C24 C 0.08606 0.77056 0.10293 0.0
C25 C 0.07445 0.77207 0.04855 0.0
C26 C 0.09616 0.74125 0.025 0.0
C27 C 0.11733 0.72477 0.0617 0.0
C28 C 0.08257 0.81308 0.02789 0.0
C29 C 0.03691 0.76101 0.04642 0.0
C30 C 0.21966 0.64086 0.04496 0.0
C31 C 0.23498 0.62351 0.00289 0.0
C32 C 0.21886 0.62503 0.95498 0.0
C33 C 0.18923 0.64548 0.94846 0.0
C34 C 0.17554 0.66474 0.99016 0.0
C35 C 0.18993 0.66098 0.03778 0.0
C36 C 0.17094 0.68214 0.07801 0.0
C37 C 0.14292 0.69939 0.04642 0.0
C38 C 0.14638 0.68995 0.99476 0.0
C39 C 0.1944 0.71359 0.10077 0.0
C40 C 0.15782 0.65229 0.11729 0.0
H41 H 0.03966 0.77853 0.95062 0.0
H42 H 0.11191 0.74475 0.80518 0.0
H43 H 0.09459 0.66643 0.86269 0.0
H44 H 0.12461 0.64442 0.90206 0.0
H45 H 0.13662 0.66374 0.84084 0.0
H46 H 0.16577 0.75615 0.8976 0.0
H47 H 0.16539 0.7264 0.8415 0.0
H48 H 0.18468 0.71003 0.89894 0.0
H49 H 0.05796 0.81761 0.13387 0.0
H50 H 0.12396 0.75834 0.23753 0.0
H51 H 0.14078 0.71535 0.16978 0.0
H52 H 0.10884 0.8212 0.03685 0.0
H53 H 0.0662 0.83497 0.04546 0.0
H54 H 0.07981 0.81583 0.98639 0.0
H55 H 0.02867 0.74582 0.08159 0.0
H56 H 0.03116 0.74047 0.01513 0.0
H57 H 0.02112 0.787 0.0419 0.0
H58 H 0.02853 0.80612 0.86798 0.0
C59 C 0.05572 0.77056 0.92011 0.0
C60 C 0.58584 0.7511 0.66567 0.0
C61 C 0.55889 0.72483 0.66838 0.0
C62 C 0.5407 0.716 0.62377 0.0
C63 C 0.57766 0.75649 0.57427 0.0
C64 C 0.59457 0.76687 0.61824 0.0
C65 C 0.62247 0.79519 0.60764 0.0
H66 H 0.72211 0.88328 0.43477 0.0
C67 C 0.59448 0.77494 0.53077 0.0
C68 C 0.6205 0.79815 0.54983 0.0
H69 H 0.72455 0.89533 0.59853 0.0
H70 H 0.67547 0.85471 0.60542 0.0
H71 H 0.70613 0.79362 0.43283 0.0
H72 H 0.64045 0.89128 0.42327 0.0
H73 H 0.62784 0.85713 0.37722 0.0
H74 H 0.66868 0.87899 0.37327 0.0
H75 H 0.70333 0.82313 0.37672 0.0
H76 H 0.67536 0.78282 0.38706 0.0
C77 C 0.65553 0.77693 0.62584 0.0
C78 C 0.61429 0.83406 0.63379 0.0
C79 C 0.56134 0.73329 0.35281 0.0
C80 C 0.5751 0.73985 0.30459 0.0
C81 C 0.60214 0.76592 0.29997 0.0
C82 C 0.61556 0.78462 0.34305 0.0
C83 C 0.60207 0.77676 0.39132 0.0
C84 C 0.57524 0.75167 0.39532 0.0
C85 C 0.5651 0.7448 0.44942 0.0
C86 C 0.59017 0.77004 0.47755 0.0
C87 C 0.61174 0.7888 0.44352 0.0
C88 C 0.56979 0.70115 0.46122 0.0
C89 C 0.52902 0.75955 0.45588 0.0
C90 C 0.71195 0.87725 0.47207 0.0
C91 C 0.72726 0.89232 0.51619 0.0
C92 C 0.71306 0.88426 0.564 0.0
C93 C 0.68473 0.86045 0.56796 0.0
C94 C 0.6704 0.84453 0.52366 0.0
C95 C 0.68354 0.85374 0.47664 0.0
C96 C 0.66454 0.83486 0.43364 0.0
C97 C 0.63778 0.81295 0.46259 0.0
C98 C 0.64172 0.81816 0.51541 0.0
C99 C 0.68842 0.80729 0.40561 0.0
C100 C 0.64966 0.86703 0.39961 0.0
H101 H 0.53536 0.72314 0.54436 0.0
H102 H 0.59989 0.75888 0.69955 0.0
H103 H 0.587 0.83753 0.63879 0.0
H104 H 0.622 0.85936 0.6107 0.0
H105 H 0.62611 0.83609 0.67208 0.0
H106 H 0.65709 0.74645 0.6127 0.0
H107 H 0.6573 0.77692 0.66807 0.0
H108 H 0.67777 0.79177 0.61072 0.0
H109 H 0.54108 0.71276 0.35787 0.0
H110 H 0.61309 0.77152 0.26309 0.0
H111 H 0.63631 0.80387 0.33725 0.0
H112 H 0.59147 0.68941 0.44034 0.0
H113 H 0.54747 0.684 0.44967 0.0
H114 H 0.57547 0.69516 0.50159 0.0
H115 H 0.52398 0.78447 0.4302 0.0
H116 H 0.52431 0.77074 0.49456 0.0
H117 H 0.51043 0.73656 0.44676 0.0
H118 H 0.52001 0.69568 0.62476 0.0
C119 C 0.54984 0.73175 0.57693 0.0
C120 C 0.90672 0.23242 0.17626 0.0
C121 C 0.93162 0.20422 0.18087 0.0
C122 C 0.94929 0.19338 0.13696 0.0
C123 C 0.91564 0.23594 0.08506 0.0
C124 C 0.89906 0.24765 0.12815 0.0
C125 C 0.87158 0.27551 0.11592 0.0
H126 H 0.77804 0.36743 0.93847 0.0
C127 C 0.89981 0.25451 0.04056 0.0
C128 C 0.87402 0.27784 0.05831 0.0
H129 H 0.76716 0.36911 0.10185 0.0
H130 H 0.81601 0.32937 0.11168 0.0
H131 H 0.86235 0.37264 0.93576 0.0
H132 H 0.78836 0.28201 0.93095 0.0
H133 H 0.82192 0.265 0.89542 0.0
H134 H 0.80024 0.30777 0.87457 0.0
H135 H 0.83309 0.36559 0.88446 0.0
H136 H 0.87206 0.34031 0.88621 0.0
C137 C 0.88023 0.31468 0.14149 0.0
C138 C 0.83815 0.25711 0.13329 0.0
C139 C 0.93467 0.21551 0.8631 0.0
C140 C 0.92037 0.22136 0.81461 0.0
C141 C 0.8943 0.24824 0.80963 0.0
C142 C 0.88183 0.26743 0.85233 0.0
C143 C 0.89503 0.25919 0.90081 0.0
C144 C 0.92122 0.23385 0.90546 0.0
C145 C 0.93029 0.22585 0.96005 0.0
C146 C 0.90516 0.25055 0.98749 0.0
C147 C 0.88483 0.27033 0.95265 0.0
C148 C 0.96637 0.24051 0.96937 0.0
C149 C 0.92487 0.18198 0.97035 0.0
C150 C 0.7867 0.35974 0.97629 0.0
C151 C 0.76919 0.37144 0.01953 0.0
C152 C 0.78048 0.36026 0.06816 0.0
C153 C 0.80875 0.3372 0.07369 0.0
C154 C 0.82547 0.32458 0.03004 0.0
C155 C 0.81451 0.33606 0.98236 0.0
C156 C 0.83407 0.31796 0.94022 0.0
C157 C 0.85905 0.29443 0.9705 0.0
C158 C 0.85384 0.29836 0.02304 0.0
C159 C 0.85126 0.35067 0.90961 0.0
C160 C 0.8101 0.29199 0.90824 0.0
H161 H 0.95563 0.1993 0.05744 0.0
H162 H 0.89291 0.24188 0.20914 0.0
H163 H 0.83838 0.22515 0.12857 0.0
H164 H 0.81659 0.26666 0.11036 0.0
H165 H 0.83339 0.26324 0.17406 0.0
H166 H 0.90747 0.32071 0.13978 0.0
H167 H 0.87299 0.31459 0.18222 0.0
H168 H 0.86851 0.33951 0.12218 0.0
H169 H 0.95517 0.19581 0.86863 0.0
H170 H 0.88247 0.25331 0.77309 0.0
H171 H 0.8616 0.28694 0.84615 0.0
H172 H 0.97074 0.26852 0.94949 0.0
H173 H 0.98475 0.21954 0.95478 0.0
H174 H 0.97183 0.24637 0.00991 0.0
H175 H 0.9056 0.1694 0.94443 0.0
H176 H 0.9153 0.17588 0.00889 0.0
H177 H 0.94818 0.16558 0.96461 0.0
H178 H 0.96825 0.17138 0.13886 0.0
C179 C 0.94164 0.2093 0.08935 0.0
C180 C 0.4072 0.27622 0.33461 0.0
C181 C 0.43264 0.3044 0.33179 0.0
C182 C 0.45065 0.31422 0.37621 0.0
C183 C 0.41612 0.27091 0.42596 0.0
C184 C 0.3993 0.26 0.38211 0.0
C185 C 0.37161 0.23153 0.39298 0.0
H186 H 0.27969 0.13215 0.56552 0.0
C187 C 0.40031 0.25113 0.46952 0.0
C188 C 0.37435 0.22777 0.45059 0.0
H189 H 0.26772 0.13559 0.40156 0.0
H190 H 0.31591 0.1767 0.39477 0.0
H191 H 0.36165 0.12833 0.56869 0.0
H192 H 0.29231 0.22255 0.57574 0.0
H193 H 0.32464 0.23246 0.6192 0.0
H194 H 0.29865 0.19025 0.62839 0.0
H195 H 0.33466 0.13572 0.62194 0.0
H196 H 0.37443 0.16008 0.61763 0.0
C197 C 0.37973 0.19313 0.36577 0.0
C198 C 0.33826 0.25002 0.37614 0.0
C199 C 0.43606 0.28803 0.64815 0.0
C200 C 0.42345 0.27932 0.69659 0.0
C201 C 0.3988 0.25023 0.70118 0.0
C202 C 0.38559 0.23182 0.65768 0.0
C203 C 0.39702 0.24283 0.60916 0.0
C204 C 0.42239 0.26991 0.60529 0.0
C205 C 0.43085 0.27932 0.55111 0.0
C206 C 0.40599 0.25397 0.52276 0.0
C207 C 0.38619 0.2326 0.55677 0.0
C208 C 0.4672 0.26665 0.54159 0.0
C209 C 0.42437 0.32304 0.54233 0.0
C210 C 0.2873 0.1418 0.52812 0.0
C211 C 0.2697 0.13007 0.48405 0.0
C212 C 0.28098 0.14323 0.43619 0.0
C213 C 0.3089 0.16757 0.43225 0.0
C214 C 0.3257 0.17958 0.4766 0.0
C215 C 0.31494 0.16663 0.52353 0.0
C216 C 0.33516 0.18371 0.56662 0.0
C217 C 0.3601 0.20848 0.53768 0.0
C218 C 0.35433 0.20601 0.48491 0.0
C219 C 0.35233 0.15038 0.59572 0.0
C220 C 0.31167 0.20838 0.59967 0.0
H221 H 0.45702 0.30676 0.45552 0.0
H222 H 0.39289 0.26822 0.30107 0.0
H223 H 0.33867 0.28175 0.38301 0.0
H224 H 0.31668 0.23921 0.39789 0.0
H225 H 0.33346 0.24539 0.33489 0.0
H226 H 0.40697 0.18755 0.36687 0.0
H227 H 0.37185 0.19399 0.32515 0.0
H228 H 0.36826 0.16764 0.38426 0.0
H229 H 0.45539 0.30979 0.6434 0.0
H230 H 0.3887 0.24295 0.73813 0.0
H231 H 0.36629 0.2106 0.66337 0.0
H232 H 0.47339 0.24041 0.56419 0.0
H233 H 0.48523 0.28976 0.55264 0.0
H234 H 0.4716 0.25827 0.50163 0.0
H235 H 0.40304 0.33305 0.56551 0.0
H236 H 0.41717 0.33003 0.50278 0.0
H237 H 0.44647 0.34082 0.5532 0.0
H238 H 0.47069 0.33538 0.37474 0.0
C239 C 0.44269 0.29751 0.4231 0.0
O240 O 0.92102 0.00154 0.50171 0.0
Zn241 Zn 0.96479 0.03172 0.50797 0.0
O242 O 0.00326 0.99704 0.51167 0.0
Zn243 Zn 0.02781 0.00413 0.57545 0.0
Zn244 Zn 0.98734 0.9439 0.50814 0.0
Zn245 Zn 0.03348 0.00681 0.4553 0.0
O246 O 0.07371 0.02718 0.5641 0.0
O247 O 0.0783 0.02545 0.47999 0.0
O248 O 0.96263 0.06459 0.57141 0.0
O249 O 0.00303 0.04063 0.62036 0.0
O250 O 0.03246 0.95362 0.61352 0.0
O251 O 0.99672 0.9151 0.5725 0.0
O252 O 0.00974 0.91462 0.45292 0.0
O253 O 0.96836 0.06679 0.44644 0.0
O254 O 0.04067 0.95885 0.41371 0.0
O255 O 0.01539 0.04841 0.40993 0.0
C256 C 0.91512 0.96561 0.49504 0.0
C257 C 0.09048 0.03297 0.52378 0.0
C258 C 0.01679 0.92158 0.6092 0.0
C259 C 0.97872 0.06346 0.61339 0.0
C260 C 0.03 0.92422 0.4181 0.0
C261 C 0.98981 0.06985 0.41108 0.0
O262 O 0.93845 0.94105 0.49504 0.0
O263 O 0.58691 0.49383 0.00035 0.0
Zn264 Zn 0.55128 0.53409 0.99606 0.0
O265 O 0.50696 0.5099 -0.00211 0.0
Zn266 Zn 0.48369 0.52352 0.93579 0.0
Zn267 Zn 0.51019 0.45338 0.00291 0.0
Zn268 Zn 0.48203 0.52953 0.05563 0.0
O269 O 0.43904 0.5455 0.94999 0.0
O270 O 0.43681 0.5492 0.03421 0.0
O271 O 0.55828 0.56685 0.93301 0.0
O272 O 0.5086 0.56338 0.89577 0.0
O273 O 0.47631 0.47689 0.8923 0.0
O274 O 0.49027 0.42669 0.94045 0.0
O275 O 0.48818 0.4331 0.06704 0.0
O276 O 0.55733 0.57078 0.05484 0.0
O277 O 0.47403 0.48718 0.10649 0.0
O278 O 0.50752 0.57245 0.09096 0.0
C279 C 0.58603 0.45725 0.00591 0.0
C280 C 0.4236 0.55394 0.99045 0.0
C281 C 0.47883 0.44057 0.89889 0.0
C282 C 0.53805 0.57713 0.89808 0.0
C283 C 0.47636 0.45049 0.10556 0.0
C284 C 0.53753 0.5845 0.08771 0.0
O285 O 0.55856 0.43856 0.00801 0.0
H286 H 0.22178 0.13107 0.55776 0.0
H287 H 0.24834 0.07334 0.4183 0.0
H288 H 0.19562 0.03803 0.41883 0.0
H289 H 0.14084 0.02562 0.45653 0.0
H290 H 0.11565 0.07965 0.59881 0.0
H291 H 0.16945 0.11347 0.6002 0.0
C292 C 0.21649 0.11021 0.52797 0.0
C293 C 0.239 0.10556 0.48756 0.0
C294 C 0.18631 0.08927 0.52897 0.0
C295 C 0.23124 0.07852 0.44915 0.0
C296 C 0.20114 0.05801 0.44957 0.0
C297 C 0.14723 0.04463 0.488 0.0
C298 C 0.12419 0.05045 0.52722 0.0
C299 C 0.17827 0.06364 0.48881 0.0
C300 C 0.13298 0.07468 0.56815 0.0
C301 C 0.16367 0.09415 0.56885 0.0
H302 H 0.28568 0.62816 0.93551 0.0
H303 H 0.26021 0.58091 0.08257 0.0
H304 H 0.31685 0.5568 0.09287 0.0
H305 H 0.37373 0.54912 0.05981 0.0
H306 H 0.39732 0.59306 0.91033 0.0
H307 H 0.34102 0.61797 0.90101 0.0
C308 C 0.29219 0.61192 0.96944 0.0
C309 C 0.26861 0.60635 0.00812 0.0
C310 C 0.32453 0.59765 0.97477 0.0
C311 C 0.27793 0.58606 0.05238 0.0
C312 C 0.31029 0.57212 0.05825 0.0
C313 C 0.36652 0.56431 0.02536 0.0
C314 C 0.38963 0.56943 0.98594 0.0
C315 C 0.33386 0.57793 0.01978 0.0
C316 C 0.37991 0.58869 0.94118 0.0
C317 C 0.34775 0.60296 0.9358 0.0
H318 H 0.78148 0.87253 0.46235 0.0
H319 H 0.74483 0.96018 0.56338 0.0
H320 H 0.79919 0.99302 0.56219 0.0
H321 H 0.85833 0.99433 0.53632 0.0
H322 H 0.8949 0.90381 0.43947 0.0
H323 H 0.83933 0.87498 0.43435 0.0
C324 C 0.78524 0.89918 0.48342 0.0
C325 C 0.75922 0.914 0.51277 0.0
C326 C 0.8166 0.91735 0.48334 0.0
C327 C 0.76461 0.94813 0.54072 0.0
C328 C 0.79563 0.96693 0.53996 0.0
C329 C 0.85392 0.96865 0.51354 0.0
C330 C 0.88062 0.9512 0.48833 0.0
C331 C 0.82199 0.95149 0.51197 0.0
C332 C 0.87474 0.91763 0.45943 0.0
C333 C 0.84299 0.9011 0.4565 0.0
H334 H 0.70848 0.34948 0.05195 0.0
H335 H 0.76028 0.44092 0.97291 0.0
H336 H 0.70795 0.4761 0.96207 0.0
H337 H 0.64751 0.48038 0.97504 0.0
H338 H 0.59539 0.38668 0.04968 0.0
H339 H 0.64779 0.35262 0.06209 0.0
C340 C 0.70818 0.37725 0.03268 0.0
C341 C 0.73794 0.39301 0.01373 0.0
C342 C 0.67803 0.39667 0.0256 0.0
C343 C 0.73749 0.42854 0.98792 0.0
C344 C 0.70767 0.44853 0.98173 0.0
C345 C 0.64764 0.45252 0.99404 0.0
C346 C 0.61765 0.43615 0.0116 0.0
C347 C 0.67778 0.43283 0.00039 0.0
C348 C 0.61813 0.39983 0.03563 0.0
C349 C 0.64808 0.3804 0.04293 0.0
H350 H 0.06635 0.779 0.28506 0.0
H351 H 0.09753 0.86917 0.18198 0.0
H352 H 0.08288 0.91839 0.24435 0.0
H353 H 0.05944 0.93572 0.32673 0.0
H354 H 0.02549 0.84583 0.42863 0.0
H355 H 0.04294 0.79655 0.3683 0.0
C356 C 0.07013 0.80945 0.27672 0.0
C357 C 0.08289 0.82069 0.22937 0.0
C358 C 0.061 0.83755 0.3123 0.0
C359 C 0.0875 0.8601 0.21832 0.0
C360 C 0.07917 0.88816 0.25387 0.0
C361 C 0.05603 0.90536 0.33588 0.0
C362 C 0.04119 0.89448 0.38201 0.0
C363 C 0.06561 0.87723 0.30077 0.0
C364 C 0.0367 0.85499 0.39317 0.0
C365 C 0.04673 0.82677 0.35877 0.0
H366 H 0.60131 0.68901 0.73408 0.0
H367 H 0.49743 0.71421 0.70917 0.0
H368 H 0.48207 0.67131 0.77916 0.0
H369 H 0.49767 0.62306 0.84261 0.0
H370 H 0.60133 0.59768 0.86933 0.0
H371 H 0.61734 0.64447 0.80356 0.0
C372 C 0.5754 0.68574 0.74481 0.0
C373 C 0.55049 0.70443 0.71628 0.0
C374 C 0.5667 0.66064 0.78481 0.0
C375 C 0.51699 0.69972 0.73023 0.0
C376 C 0.50819 0.67517 0.77013 0.0
C377 C 0.5238 0.62773 0.8341 0.0
C378 C 0.54825 0.60649 0.86017 0.0
C379 C 0.53276 0.65473 0.79672 0.0
C380 C 0.58202 0.61351 0.84949 0.0
C381 C 0.59117 0.64024 0.81194 0.0
H382 H 0.99102 0.18007 0.22002 0.0
H383 H 0.8858 0.18246 0.25257 0.0
H384 H 0.895 0.14401 0.32912 0.0
H385 H 0.93214 0.10509 0.38303 0.0
H386 H 0.0365 0.09847 0.34605 0.0
H387 H 0.0282 0.14244 0.27454 0.0
C388 C 0.97001 0.17207 0.24363 0.0
C389 C 0.93775 0.18408 0.23014 0.0
C390 C 0.97525 0.14875 0.28663 0.0
C391 C 0.91101 0.17417 0.26214 0.0
C392 C 0.91617 0.15177 0.30575 0.0
C393 C 0.95311 0.11355 0.3596 0.0
C394 C 0.98484 0.09833 0.36972 0.0
C395 C 0.94808 0.13828 0.31783 0.0
C396 C 0.01174 0.10946 0.33884 0.0
C397 C 0.00706 0.13468 0.29797 0.0
H398 H 0.42975 0.35684 0.69902 0.0
H399 H 0.44001 0.25566 0.79367 0.0
H400 H 0.45827 0.29647 0.86523 0.0
H401 H 0.47204 0.36139 0.90008 0.0
H402 H 0.46121 0.46146 0.80275 0.0
H403 H 0.44298 0.42041 0.73294 0.0
C404 C 0.43635 0.34358 0.73513 0.0
C405 C 0.43399 0.30326 0.74085 0.0
C406 C 0.44683 0.36705 0.77562 0.0
C407 C 0.44165 0.28667 0.78834 0.0
C408 C 0.45221 0.30998 0.82913 0.0
C409 C 0.46577 0.37416 0.86357 0.0
C410 C 0.46809 0.41456 0.8569 0.0
C411 C 0.45503 0.35027 0.82313 0.0
C412 C 0.45966 0.43057 0.80928 0.0
C413 C 0.44921 0.40712 0.76914 0.0
H414 H 0.61168 0.7022 0.23403 0.0
H415 H 0.51046 0.72538 0.27749 0.0
H416 H 0.48982 0.67985 0.21339 0.0
H417 H 0.50069 0.6305 0.14893 0.0
H418 H 0.60196 0.60742 0.10506 0.0
H419 H 0.62236 0.65607 0.16511 0.0
C420 C 0.58509 0.69791 0.22867 0.0
C421 C 0.56264 0.71697 0.26059 0.0
C422 C 0.57341 0.67138 0.1921 0.0
C423 C 0.52825 0.71072 0.25369 0.0
C424 C 0.51644 0.68468 0.21711 0.0
C425 C 0.52723 0.63612 0.15241 0.0
C426 C 0.54974 0.61501 0.12288 0.0
C427 C 0.53882 0.66422 0.18689 0.0
C428 C 0.58404 0.6231 0.12743 0.0
C429 C 0.59576 0.65095 0.16178 0.0
H430 H 0.94024 0.14633 0.81651 0.0
H431 H 0.92352 0.24157 0.71304 0.0
H432 H 0.93813 0.20045 0.6413 0.0
H433 H 0.95646 0.13733 0.60803 0.0
H434 H 0.97882 0.04534 0.71356 0.0
H435 H 0.96203 0.08583 0.78475 0.0
C436 C 0.94052 0.1587 0.77858 0.0
C437 C 0.93084 0.19727 0.77062 0.0
C438 C 0.95001 0.1354 0.73777 0.0
C439 C 0.93036 0.21191 0.72056 0.0
C440 C 0.93895 0.18847 0.67943 0.0
C441 C 0.95754 0.12628 0.64667 0.0
C442 C 0.96861 0.08845 0.65573 0.0
C443 C 0.94876 0.15013 0.6876 0.0
C444 C 0.97042 0.07445 0.70585 0.0
C445 C 0.96078 0.09753 0.74648 0.0
H446 H 0.43735 0.38155 0.31951 0.0
H447 H 0.44245 0.27445 0.23656 0.0
H448 H 0.45601 0.31013 0.15842 0.0
H449 H 0.46814 0.37205 0.11474 0.0
H450 H 0.46158 0.47874 0.19924 0.0
H451 H 0.44699 0.44288 0.2757 0.0
C452 C 0.44157 0.36603 0.28432 0.0
C453 C 0.43935 0.3255 0.28376 0.0
C454 C 0.44914 0.38666 0.23989 0.0
C455 C 0.44408 0.30571 0.23778 0.0
C456 C 0.45194 0.32608 0.19325 0.0
C457 C 0.46345 0.38744 0.14985 0.0
C458 C 0.46616 0.42808 0.15112 0.0
C459 C 0.45481 0.3666 0.19397 0.0
C460 C 0.4597 0.44753 0.19694 0.0
C461 C 0.4514 0.42706 0.24085 0.0
H462 H 0.01411 0.78938 0.77414 0.0
H463 H 0.11828 0.82 0.78365 0.0
H464 H 0.11118 0.86744 0.71539 0.0
H465 H 0.07431 0.90353 0.65751 0.0
H466 H 0.97068 0.87082 0.64515 0.0
H467 H 0.97841 0.82107 0.71034 0.0
C468 C 0.03527 0.80609 0.76058 0.0
C469 C 0.0666 0.80143 0.78369 0.0
C470 C 0.03097 0.8333 0.72152 0.0
C471 C 0.09399 0.82294 0.76589 0.0
C472 C 0.08987 0.85031 0.72732 0.0
C473 C 0.0535 0.88544 0.66921 0.0
C474 C 0.02191 0.89105 0.64741 0.0
C475 C 0.05832 0.85634 0.7057 0.0
C476 C 0.9952 0.86702 0.66181 0.0
C477 C -0.0004 0.83861 0.69896 0.0
loop_
_geom_bond_atom_site_label_1
_geom_bond_atom_site_label_2
_geom_bond_distance
_geom_bond_site_symmetry_2
_ccdc_geom_bond_type
C0 C1 1.391 . S
C0 C4 1.391 . S
C0 H42 0.948 . S
C1 C0 1.391 . S
C1 C2 1.391 . S
C2 C1 1.391 . S
C2 H58 0.947 . S
C2 C59 1.392 . S
C3 C4 1.391 . S
C3 C7 1.397 . S
C3 C59 1.419 . S
C4 C0 1.391 . S
C4 C3 1.391 . S
C4 C5 1.399 . S
C5 C4 1.399 . S
C5 C8 1.396 . S
C5 C17 1.453 . S
C5 C18 1.684 . S
H6 C30 0.948 . S
C7 C3 1.397 . S
C7 C8 1.394 . S
C7 C26 1.723 1_556 S
C8 C5 1.396 . S
C8 C7 1.394 . S
C8 C38 1.723 . S
H9 C32 0.947 . S
H10 C33 0.948 . S
H11 C39 0.982 . S
H12 C40 0.979 . S
H13 C40 0.980 . S
H14 C40 0.983 . S
H15 C39 0.979 . S
H16 C39 0.977 . S
C17 C5 1.453 . S
C17 H46 0.982 . S
C17 H47 0.979 . S
C17 H48 0.977 . S
C18 C5 1.684 . S
C18 H43 0.979 . S
C18 H44 0.980 . S
C18 H45 0.983 . S
C19 C20 1.391 . S
C19 C24 1.391 . S
C19 H49 0.948 . S
C20 C19 1.391 . S
C20 C21 1.391 . S
C21 C20 1.391 . S
C21 C22 1.392 . S
C21 H50 0.947 . S
C22 C21 1.392 . S
C22 C23 1.419 . S
C22 H51 0.948 . S
C23 C22 1.419 . S
C23 C24 1.391 . S
C23 C27 1.397 . S
C24 C19 1.391 . S
C24 C23 1.391 . S
C24 C25 1.399 . S
C25 C24 1.399 . S
C25 C26 1.396 . S
C25 C28 1.453 . S
C25 C29 1.684 . S
C26 C7 1.723 1_554 S
C26 C25 1.396 . S
C26 C27 1.394 . S
C27 C23 1.397 . S
C27 C26 1.394 . S
C27 C37 1.723 . S
C28 C25 1.453 . S
C28 H52 0.982 . S
C28 H53 0.979 . S
C28 H54 0.961 1_554 S
C29 C25 1.684 . S
C29 H55 0.979 . S
C29 H56 0.980 1_554 S
C29 H57 0.983 . S
C30 H6 0.948 . S
C30 C31 1.391 1_554 S
C30 C35 1.391 . S
C31 C30 1.391 1_556 S
C31 C32 1.391 . S
C32 H9 0.947 . S
C32 C31 1.391 . S
C32 C33 1.392 . S
C33 H10 0.948 . S
C33 C32 1.392 . S
C33 C34 1.419 . S
C34 C33 1.419 . S
C34 C35 1.391 1_556 S
C34 C38 1.397 . S
C35 C30 1.391 . S
C35 C34 1.391 1_554 S
C35 C36 1.399 . S
C36 C35 1.399 . S
C36 C37 1.396 . S
C36 C39 1.453 . S
C36 C40 1.684 . S
C37 C27 1.723 . S
C37 C36 1.396 . S
C37 C38 1.394 1_554 S
C38 C8 1.723 . S
C38 C34 1.397 . S
C38 C37 1.394 1_556 S
C39 H11 0.982 . S
C39 H15 0.979 . S
C39 H16 0.977 . S
C39 C36 1.453 . S
C40 H12 0.979 . S
C40 H13 0.980 . S
C40 H14 0.983 . S
C40 C36 1.684 . S
H41 C59 0.948 . S
H42 C0 0.948 . S
H43 C18 0.979 . S
H44 C18 0.980 . S
H45 C18 0.983 . S
H46 C17 0.982 . S
H47 C17 0.979 . S
H48 C17 0.977 . S
H49 C19 0.948 . S
H50 C21 0.947 . S
H51 C22 0.948 . S
H52 C28 0.982 . S
H53 C28 0.979 . S
H54 C28 0.961 1_556 S
H55 C29 0.979 . S
H56 C29 0.980 1_556 S
H57 C29 0.983 . S
H58 C2 0.947 . S
C59 C2 1.392 . S
C59 C3 1.419 . S
C59 H41 0.948 . S
C60 C61 1.391 . S
C60 C64 1.391 . S
C60 H102 0.948 . S
C61 C60 1.391 . S
C61 C62 1.391 . S
C62 C61 1.391 . S
C62 H118 0.947 . S
C62 C119 1.392 . S
C63 C64 1.391 . S
C63 C67 1.397 . S
C63 C119 1.419 . S
C64 C60 1.391 . S
C64 C63 1.391 . S
C64 C65 1.399 . S
C65 C64 1.399 . S
C65 C68 1.396 . S
C65 C77 1.453 . S
C65 C78 1.684 . S
H66 C90 0.948 . S
C67 C63 1.397 . S
C67 C68 1.394 . S
C67 C86 1.723 . S
C68 C65 1.396 . S
C68 C67 1.394 . S
C68 C98 1.723 . S
H69 C92 0.947 . S
H70 C93 0.948 . S
H71 C99 0.982 . S
H72 C100 0.979 . S
H73 C100 0.980 . S
H74 C100 0.983 . S
H75 C99 0.979 . S
H76 C99 0.977 . S
C77 C65 1.453 . S
C77 H106 0.982 . S
C77 H107 0.979 . S
C77 H108 0.977 . S
C78 C65 1.684 . S
C78 H103 0.979 . S
C78 H104 0.980 . S
C78 H105 0.983 . S
C79 C80 1.391 . S
C79 C84 1.391 . S
C79 H109 0.948 . S
C80 C79 1.391 . S
C80 C81 1.391 . S
C81 C80 1.391 . S
C81 C82 1.392 . S
C81 H110 0.947 . S
C82 C81 1.392 . S
C82 C83 1.419 . S
C82 H111 0.948 . S
C83 C82 1.419 . S
C83 C84 1.391 . S
C83 C87 1.397 . S
C84 C79 1.391 . S
C84 C83 1.391 . S
C84 C85 1.399 . S
C85 C84 1.399 . S
C85 C86 1.396 . S
C85 C88 1.453 . S
C85 C89 1.684 . S
C86 C67 1.723 . S
C86 C85 1.396 . S
C86 C87 1.394 . S
C87 C83 1.397 . S
C87 C86 1.394 . S
C87 C97 1.723 . S
C88 C85 1.453 . S
C88 H112 0.982 . S
C88 H113 0.979 . S
C88 H114 0.977 . S
C89 C85 1.684 . S
C89 H115 0.979 . S
C89 H116 0.980 . S
C89 H117 0.983 . S
C90 H66 0.948 . S
C90 C91 1.391 . S
C90 C95 1.391 . S
C91 C90 1.391 . S
C91 C92 1.391 . S
C92 H69 0.947 . S
C92 C91 1.391 . S
C92 C93 1.392 . S
C93 H70 0.948 . S
C93 C92 1.392 . S
C93 C94 1.419 . S
C94 C93 1.419 . S
C94 C95 1.391 . S
C94 C98 1.397 . S
C95 C90 1.391 . S
C95 C94 1.391 . S
C95 C96 1.399 . S
C96 C95 1.399 . S
C96 C97 1.396 . S
C96 C99 1.453 . S
C96 C100 1.684 . S
C97 C87 1.723 . S
C97 C96 1.396 . S
C97 C98 1.394 . S
C98 C68 1.723 . S
C98 C94 1.397 . S
C98 C97 1.394 . S
C99 H71 0.982 . S
C99 H75 0.979 . S
C99 H76 0.977 . S
C99 C96 1.453 . S
C100 H72 0.979 . S
C100 H73 0.980 . S
C100 H74 0.983 . S
C100 C96 1.684 . S
H101 C119 0.948 . S
H102 C60 0.948 . S
H103 C78 0.979 . S
H104 C78 0.980 . S
H105 C78 0.983 . S
H106 C77 0.982 . S
H107 C77 0.979 . S
H108 C77 0.977 . S
H109 C79 0.948 . S
H110 C81 0.947 . S
H111 C82 0.948 . S
H112 C88 0.982 . S
H113 C88 0.979 . S
H114 C88 0.977 . S
H115 C89 0.979 . S
H116 C89 0.980 . S
H117 C89 0.983 . S
H118 C62 0.947 . S
C119 C62 1.392 . S
C119 C63 1.419 . S
C119 H101 0.948 . S
C120 C121 1.391 . S
C120 C124 1.391 . S
C120 H162 0.948 . S
C121 C120 1.391 . S
C121 C122 1.391 . S
C122 C121 1.391 . S
C122 H178 0.947 . S
C122 C179 1.392 . S
C123 C124 1.391 . S
C123 C127 1.397 . S
C123 C179 1.419 . S
C124 C120 1.391 . S
C124 C123 1.391 . S
C124 C125 1.399 . S
C125 C124 1.399 . S
C125 C128 1.396 . S
C125 C137 1.453 . S
C125 C138 1.684 . S
H126 C150 0.948 . S
C127 C123 1.397 . S
C127 C128 1.394 . S
C127 C146 1.723 1_554 S
C128 C125 1.396 . S
C128 C127 1.394 . S
C128 C158 1.723 . S
H129 C152 0.947 . S
H130 C153 0.948 . S
H131 C159 0.982 . S
H132 C160 0.979 . S
H133 C160 0.980 . S
H134 C160 0.983 . S
H135 C159 0.979 . S
H136 C159 0.977 . S
C137 C125 1.453 . S
C137 H166 0.982 . S
C137 H167 0.979 . S
C137 H168 0.977 . S
C138 C125 1.684 . S
C138 H163 0.979 . S
C138 H164 0.980 . S
C138 H165 0.983 . S
C139 C140 1.391 . S
C139 C144 1.391 . S
C139 H169 0.948 . S
C140 C139 1.391 . S
C140 C141 1.391 . S
C141 C140 1.391 . S
C141 C142 1.392 . S
C141 H170 0.947 . S
C142 C141 1.392 . S
C142 C143 1.419 . S
C142 H171 0.948 . S
C143 C142 1.419 . S
C143 C144 1.391 . S
C143 C147 1.397 . S
C144 C139 1.391 . S
C144 C143 1.391 . S
C144 C145 1.399 . S
C145 C144 1.399 . S
C145 C146 1.396 . S
C145 C148 1.453 . S
C145 C149 1.684 . S
C146 C127 1.723 1_556 S
C146 C145 1.396 . S
C146 C147 1.394 . S
C147 C143 1.397 . S
C147 C146 1.394 . S
C147 C157 1.723 . S
C148 C145 1.453 . S
C148 H172 0.982 . S
C148 H173 0.979 . S
C148 H174 0.977 1_556 S
C149 C145 1.684 . S
C149 H175 0.979 . S
C149 H176 0.980 1_556 S
C149 H177 0.983 . S
C150 H126 0.948 . S
C150 C151 1.391 1_556 S
C150 C155 1.391 . S
C151 C150 1.391 1_554 S
C151 C152 1.391 . S
C152 H129 0.947 . S
C152 C151 1.391 . S
C152 C153 1.392 . S
C153 H130 0.948 . S
C153 C152 1.392 . S
C153 C154 1.419 . S
C154 C153 1.419 . S
C154 C155 1.391 1_554 S
C154 C158 1.397 . S
C155 C150 1.391 . S
C155 C154 1.391 1_556 S
C155 C156 1.399 . S
C156 C155 1.399 . S
C156 C157 1.396 . S
C156 C159 1.453 . S
C156 C160 1.684 . S
C157 C147 1.723 . S
C157 C156 1.396 . S
C157 C158 1.394 1_556 S
C158 C128 1.723 . S
C158 C154 1.397 . S
C158 C157 1.394 1_554 S
C159 H131 0.982 . S
C159 H135 0.979 . S
C159 H136 0.977 . S
C159 C156 1.453 . S
C160 H132 0.979 . S
C160 H133 0.980 . S
C160 H134 0.983 . S
C160 C156 1.684 . S
H161 C179 0.948 . S
H162 C120 0.948 . S
H163 C138 0.979 . S
H164 C138 0.980 . S
H165 C138 0.983 . S
H166 C137 0.982 . S
H167 C137 0.979 . S
H168 C137 0.977 . S
H169 C139 0.948 . S
H170 C141 0.947 . S
H171 C142 0.948 . S
H172 C148 0.982 . S
H173 C148 0.979 . S
H174 C148 0.977 1_554 S
H175 C149 0.979 . S
H176 C149 0.980 1_554 S
H177 C149 0.983 . S
H178 C122 0.947 . S
C179 C122 1.392 . S
C179 C123 1.419 . S
C179 H161 0.948 . S
C180 C181 1.391 . S
C180 C184 1.391 . S
C180 H222 0.948 . S
C181 C180 1.391 . S
C181 C182 1.391 . S
C182 C181 1.391 . S
C182 H238 0.947 . S
C182 C239 1.392 . S
C183 C184 1.391 . S
C183 C187 1.397 . S
C183 C239 1.419 . S
C184 C180 1.391 . S
C184 C183 1.391 . S
C184 C185 1.399 . S
C185 C184 1.399 . S
C185 C188 1.396 . S
C185 C197 1.453 . S
C185 C198 1.684 . S
H186 C210 0.948 . S
C187 C183 1.397 . S
C187 C188 1.394 . S
C187 C206 1.723 . S
C188 C185 1.396 . S
C188 C187 1.394 . S
C188 C218 1.723 . S
H189 C212 0.947 . S
H190 C213 0.948 . S
H191 C219 0.982 . S
H192 C220 0.979 . S
H193 C220 0.980 . S
H194 C220 0.983 . S
H195 C219 0.979 . S
H196 C219 0.977 . S
C197 C185 1.453 . S
C197 H226 0.982 . S
C197 H227 0.979 . S
C197 H228 0.977 . S
C198 C185 1.684 . S
C198 H223 0.979 . S
C198 H224 0.980 . S
C198 H225 0.983 . S
C199 C200 1.391 . S
C199 C204 1.391 . S
C199 H229 0.948 . S
C200 C199 1.391 . S
C200 C201 1.391 . S
C201 C200 1.391 . S
C201 C202 1.392 . S
C201 H230 0.947 . S
C202 C201 1.392 . S
C202 C203 1.419 . S
C202 H231 0.948 . S
C203 C202 1.419 . S
C203 C204 1.391 . S
C203 C207 1.397 . S
C204 C199 1.391 . S
C204 C203 1.391 . S
C204 C205 1.399 . S
C205 C204 1.399 . S
C205 C206 1.396 . S
C205 C208 1.453 . S
C205 C209 1.684 . S
C206 C187 1.723 . S
C206 C205 1.396 . S
C206 C207 1.394 . S
C207 C203 1.397 . S
C207 C206 1.394 . S
C207 C217 1.723 . S
C208 C205 1.453 . S
C208 H232 0.982 . S
C208 H233 0.979 . S
C208 H234 0.977 . S
C209 C205 1.684 . S
C209 H235 0.979 . S
C209 H236 0.980 . S
C209 H237 0.983 . S
C210 H186 0.948 . S
C210 C211 1.391 . S
C210 C215 1.391 . S
C211 C210 1.391 . S
C211 C212 1.391 . S
C212 H189 0.947 . S
C212 C211 1.391 . S
C212 C213 1.392 . S
C213 H190 0.948 . S
C213 C212 1.392 . S
C213 C214 1.419 . S
C214 C213 1.419 . S
C214 C215 1.391 . S
C214 C218 1.397 . S
C215 C210 1.391 . S
C215 C214 1.391 . S
C215 C216 1.399 . S
C216 C215 1.399 . S
C216 C217 1.396 . S
C216 C219 1.453 . S
C216 C220 1.684 . S
C217 C207 1.723 . S
C217 C216 1.396 . S
C217 C218 1.394 . S
C218 C188 1.723 . S
C218 C214 1.397 . S
C218 C217 1.394 . S
C219 H191 0.982 . S
C219 H195 0.979 . S
C219 H196 0.977 . S
C219 C216 1.453 . S
C220 H192 0.979 . S
C220 H193 0.980 . S
C220 H194 0.983 . S
C220 C216 1.684 . S
H221 C239 0.948 . S
H222 C180 0.948 . S
H223 C198 0.979 . S
H224 C198 0.980 . S
H225 C198 0.983 . S
H226 C197 0.982 . S
H227 C197 0.979 . S
H228 C197 0.977 . S
H229 C199 0.948 . S
H230 C201 0.947 . S
H231 C202 0.948 . S
H232 C208 0.982 . S
H233 C208 0.979 . S
H234 C208 0.977 . S
H235 C209 0.979 . S
H236 C209 0.980 . S
H237 C209 0.983 . S
H238 C182 0.947 . S
C239 C182 1.392 . S
C239 C183 1.419 . S
C239 H221 0.948 . S
O240 Zn241 1.953 1_565 S
O240 C256 1.225 . S
Zn241 O240 1.953 1_545 S
Zn241 O242 1.949 1_655 S
Zn241 O248 1.919 . S
Zn241 O253 1.924 . S
O242 Zn241 1.949 1_455 S
O242 Zn243 1.923 . S
O242 Zn244 1.950 1_445 S
O242 Zn245 1.945 . S
Zn243 O242 1.923 . S
Zn243 O246 1.933 . S
Zn243 O249 1.941 . S
Zn243 O250 1.965 1_545 S
Zn244 O242 1.950 1_665 S
Zn244 O251 1.938 1_655 S
Zn244 O252 1.906 1_655 S
Zn244 O262 1.953 . S
Zn245 O242 1.945 . S
Zn245 O247 1.932 . S
Zn245 O254 1.977 1_545 S
Zn245 O255 1.910 1_455 S
O246 Zn243 1.933 . S
O246 C257 1.226 . S
O247 Zn245 1.932 . S
O247 C257 1.307 . S
O248 Zn241 1.919 . S
O248 C259 1.253 . S
O249 Zn243 1.941 . S
O249 C259 1.283 1_455 S
O250 Zn243 1.965 1_565 S
O250 C258 1.303 . S
O251 Zn244 1.938 1_455 S
O251 C258 1.247 . S
O252 Zn244 1.906 1_455 S
O252 C260 1.304 . S
O253 Zn241 1.924 . S
O253 C261 1.311 . S
O254 Zn245 1.977 1_565 S
O254 C260 1.272 . S
O255 Zn245 1.910 1_655 S
O255 C261 1.231 . S
C256 O240 1.225 . S
C256 O262 1.298 . S
C257 O246 1.226 . S
C257 O247 1.307 . S
C258 O250 1.303 . S
C258 O251 1.247 . S
C259 O248 1.253 . S
C259 O249 1.283 1_655 S
C260 O252 1.304 . S
C260 O254 1.272 . S
C261 O253 1.311 . S
C261 O255 1.231 . S
O262 Zn244 1.953 . S
O262 C256 1.298 . S
O263 Zn264 1.953 . S
O263 C279 1.225 1_556 S
Zn264 O263 1.953 . S
Zn264 O265 1.949 1_556 S
Zn264 O271 1.919 . S
Zn264 O276 1.924 1_556 S
O265 Zn264 1.949 1_554 S
O265 Zn266 1.923 1_554 S
O265 Zn267 1.950 . S
O265 Zn268 1.945 . S
Zn266 O265 1.923 1_556 S
Zn266 O269 1.933 . S
Zn266 O272 1.941 . S
Zn266 O273 1.965 . S
Zn267 O265 1.950 . S
Zn267 O274 1.938 1_554 S
Zn267 O275 1.906 . S
Zn267 O285 1.953 . S
Zn268 O265 1.945 . S
Zn268 O270 1.932 . S
Zn268 O277 1.977 . S
Zn268 O278 1.910 . S
O269 Zn266 1.933 . S
O269 C280 1.226 1_556 S
O270 Zn268 1.932 . S
O270 C280 1.307 . S
O271 Zn264 1.919 . S
O271 C282 1.253 . S
O272 Zn266 1.941 . S
O272 C282 1.283 . S
O273 Zn266 1.965 . S
O273 C281 1.303 . S
O274 Zn267 1.938 1_556 S
O274 C281 1.247 . S
O275 Zn267 1.906 . S
O275 C283 1.304 . S
O276 Zn264 1.924 1_554 S
O276 C284 1.311 . S
O277 Zn268 1.977 . S
O277 C283 1.272 . S
O278 Zn268 1.910 . S
O278 C284 1.231 . S
C279 O263 1.225 1_554 S
C279 O285 1.298 . S
C280 O269 1.226 1_554 S
C280 O270 1.307 . S
C281 O273 1.303 . S
C281 O274 1.247 . S
C282 O271 1.253 . S
C282 O272 1.283 . S
C283 O275 1.304 . S
C283 O277 1.272 . S
C284 O276 1.311 . S
C284 O278 1.231 . S
O285 Zn267 1.953 . S
O285 C279 1.298 . S
H286 C292 0.930 . S
H287 C295 0.930 . S
H288 C296 0.930 . S
H289 C297 0.930 . S
H290 C300 0.930 . S
H291 C301 0.930 . S
C292 H286 0.930 . S
C292 C293 1.355 . S
C292 C294 1.415 . S
C293 C292 1.355 . S
C293 C295 1.419 . S
C294 C292 1.415 . S
C294 C299 1.425 . S
C294 C301 1.409 . S
C295 H287 0.930 . S
C295 C293 1.419 . S
C295 C296 1.362 . S
C296 H288 0.930 . S
C296 C295 1.362 . S
C296 C299 1.409 . S
C297 H289 0.930 . S
C297 C298 1.355 . S
C297 C299 1.415 . S
C298 C297 1.355 . S
C298 C300 1.419 . S
C299 C294 1.425 . S
C299 C296 1.409 . S
C299 C297 1.415 . S
C300 H290 0.930 . S
C300 C298 1.419 . S
C300 C301 1.362 . S
C301 H291 0.930 . S
C301 C294 1.409 . S
C301 C300 1.362 . S
H302 C308 0.930 . S
H303 C311 0.930 . S
H304 C312 0.930 . S
H305 C313 0.930 . S
H306 C316 0.930 . S
H307 C317 0.930 . S
C308 H302 0.930 . S
C308 C309 1.355 1_556 S
C308 C310 1.415 . S
C309 C308 1.355 1_554 S
C309 C311 1.419 . S
C310 C308 1.415 . S
C310 C315 1.425 1_556 S
C310 C317 1.409 . S
C311 H303 0.930 . S
C311 C309 1.419 . S
C311 C312 1.362 . S
C312 H304 0.930 . S
C312 C311 1.362 . S
C312 C315 1.409 . S
C313 H305 0.930 . S
C313 C314 1.355 . S
C313 C315 1.415 . S
C314 C313 1.355 . S
C314 C316 1.419 1_554 S
C315 C310 1.425 1_554 S
C315 C312 1.409 . S
C315 C313 1.415 . S
C316 H306 0.930 . S
C316 C314 1.419 1_556 S
C316 C317 1.362 . S
C317 H307 0.930 . S
C317 C310 1.409 . S
C317 C316 1.362 . S
H318 C324 0.930 . S
H319 C327 0.930 . S
H320 C328 0.930 . S
H321 C329 0.930 . S
H322 C332 0.930 . S
H323 C333 0.930 . S
C324 H318 0.930 . S
C324 C325 1.355 . S
C324 C326 1.415 . S
C325 C324 1.355 . S
C325 C327 1.419 . S
C326 C324 1.415 . S
C326 C331 1.425 . S
C326 C333 1.409 . S
C327 H319 0.930 . S
C327 C325 1.419 . S
C327 C328 1.362 . S
C328 H320 0.930 . S
C328 C327 1.362 . S
C328 C331 1.409 . S
C329 H321 0.930 . S
C329 C330 1.355 . S
C329 C331 1.415 . S
C330 C329 1.355 . S
C330 C332 1.419 . S
C331 C326 1.425 . S
C331 C328 1.409 . S
C331 C329 1.415 . S
C332 H322 0.930 . S
C332 C330 1.419 . S
C332 C333 1.362 . S
C333 H323 0.930 . S
C333 C326 1.409 . S
C333 C332 1.362 . S
H334 C340 0.930 . S
H335 C343 0.930 . S
H336 C344 0.930 . S
H337 C345 0.930 . S
H338 C348 0.930 . S
H339 C349 0.930 . S
C340 H334 0.930 . S
C340 C341 1.369 . S
C340 C342 1.415 . S
C341 C340 1.369 . S
C341 C343 1.402 1_554 S
C342 C340 1.415 . S
C342 C347 1.425 1_554 S
C342 C349 1.409 . S
C343 H335 0.930 . S
C343 C341 1.402 1_556 S
C343 C344 1.362 . S
C344 H336 0.930 . S
C344 C343 1.362 . S
C344 C347 1.409 . S
C345 H337 0.930 . S
C345 C346 1.355 1_556 S
C345 C347 1.415 . S
C346 C345 1.355 1_554 S
C346 C348 1.419 . S
C347 C342 1.425 1_556 S
C347 C344 1.409 . S
C347 C345 1.415 . S
C348 H338 0.930 . S
C348 C346 1.419 . S
C348 C349 1.362 . S
C349 H339 0.930 . S
C349 C342 1.409 . S
C349 C348 1.362 . S
H350 C356 0.930 . S
H351 C359 0.930 . S
H352 C360 0.930 . S
H353 C361 0.930 . S
H354 C364 0.930 . S
H355 C365 0.930 . S
C356 H350 0.930 . S
C356 C357 1.355 . S
C356 C358 1.415 . S
C357 C356 1.355 . S
C357 C359 1.419 . S
C358 C356 1.415 . S
C358 C363 1.425 . S
C358 C365 1.409 . S
C359 H351 0.930 . S
C359 C357 1.419 . S
C359 C360 1.362 . S
C360 H352 0.930 . S
C360 C359 1.362 . S
C360 C363 1.409 . S
C361 H353 0.930 . S
C361 C362 1.355 . S
C361 C363 1.415 . S
C362 C361 1.355 . S
C362 C364 1.419 . S
C363 C358 1.425 . S
C363 C360 1.409 . S
C363 C361 1.415 . S
C364 H354 0.930 . S
C364 C362 1.419 . S
C364 C365 1.362 . S
C365 H355 0.930 . S
C365 C358 1.409 . S
C365 C364 1.362 . S
H366 C372 0.930 . S
H367 C375 0.930 . S
H368 C376 0.930 . S
H369 C377 0.930 . S
H370 C380 0.930 . S
H371 C381 0.930 . S
C372 H366 0.930 . S
C372 C373 1.355 . S
C372 C374 1.415 . S
C373 C372 1.355 . S
C373 C375 1.419 . S
C374 C372 1.415 . S
C374 C379 1.425 . S
C374 C381 1.409 . S
C375 H367 0.930 . S
C375 C373 1.419 . S
C375 C376 1.362 . S
C376 H368 0.930 . S
C376 C375 1.362 . S
C376 C379 1.409 . S
C377 H369 0.930 . S
C377 C378 1.355 . S
C377 C379 1.415 . S
C378 C377 1.355 . S
C378 C380 1.419 . S
C379 C374 1.425 . S
C379 C376 1.409 . S
C379 C377 1.415 . S
C380 H370 0.930 . S
C380 C378 1.419 . S
C380 C381 1.362 . S
C381 H371 0.930 . S
C381 C374 1.409 . S
C381 C380 1.362 . S
H382 C388 0.930 . S
H383 C391 0.930 . S
H384 C392 0.930 . S
H385 C393 0.930 . S
H386 C396 0.930 . S
H387 C397 0.930 1_455 S
C388 H382 0.930 . S
C388 C389 1.355 . S
C388 C390 1.415 . S
C389 C388 1.355 . S
C389 C391 1.419 . S
C390 C388 1.415 . S
C390 C395 1.425 . S
C390 C397 1.409 . S
C391 H383 0.930 . S
C391 C389 1.419 . S
C391 C392 1.362 . S
C392 H384 0.930 . S
C392 C391 1.362 . S
C392 C395 1.409 . S
C393 H385 0.930 . S
C393 C394 1.355 . S
C393 C395 1.415 . S
C394 C393 1.355 . S
C394 C396 1.419 . S
C395 C390 1.425 . S
C395 C392 1.409 . S
C395 C393 1.415 . S
C396 H386 0.930 . S
C396 C394 1.419 . S
C396 C397 1.362 . S
C397 H387 0.930 1_655 S
C397 C390 1.409 . S
C397 C396 1.362 . S
H398 C404 0.930 . S
H399 C407 0.930 . S
H400 C408 0.930 . S
H401 C409 0.930 . S
H402 C412 0.930 . S
H403 C413 0.930 . S
C404 H398 0.930 . S
C404 C405 1.355 . S
C404 C406 1.415 . S
C405 C404 1.355 . S
C405 C407 1.419 . S
C406 C404 1.415 . S
C406 C411 1.425 . S
C406 C413 1.409 . S
C407 H399 0.930 . S
C407 C405 1.419 . S
C407 C408 1.362 . S
C408 H400 0.930 . S
C408 C407 1.362 . S
C408 C411 1.409 . S
C409 H401 0.930 . S
C409 C410 1.355 . S
C409 C411 1.415 . S
C410 C409 1.355 . S
C410 C412 1.419 . S
C411 C406 1.425 . S
C411 C408 1.409 . S
C411 C409 1.415 . S
C412 H402 0.930 . S
C412 C410 1.419 . S
C412 C413 1.362 . S
C413 H403 0.930 . S
C413 C406 1.409 . S
C413 C412 1.362 . S
H414 C420 0.930 . S
H415 C423 0.930 . S
H416 C424 0.930 . S
H417 C425 0.930 . S
H418 C428 0.930 . S
H419 C429 0.930 . S
C420 H414 0.930 . S
C420 C421 1.355 . S
C420 C422 1.415 . S
C421 C420 1.355 . S
C421 C423 1.419 . S
C422 C420 1.415 . S
C422 C427 1.425 . S
C422 C429 1.409 . S
C423 H415 0.930 . S
C423 C421 1.419 . S
C423 C424 1.362 . S
C424 H416 0.930 . S
C424 C423 1.362 . S
C424 C427 1.409 . S
C425 H417 0.930 . S
C425 C426 1.355 . S
C425 C427 1.415 . S
C426 C425 1.355 . S
C426 C428 1.419 . S
C427 C422 1.425 . S
C427 C424 1.409 . S
C427 C425 1.415 . S
C428 H418 0.930 . S
C428 C426 1.419 . S
C428 C429 1.362 . S
C429 H419 0.930 . S
C429 C422 1.409 . S
C429 C428 1.362 . S
H430 C436 0.930 . S
H431 C439 0.930 . S
H432 C440 0.930 1_455 S
H433 C441 0.930 1_455 S
H434 C444 0.930 . S
H435 C445 0.930 . S
C436 H430 0.930 . S
C436 C437 1.355 . S
C436 C438 1.415 . S
C437 C436 1.355 . S
C437 C439 1.419 . S
C438 C436 1.415 . S
C438 C443 1.425 . S
C438 C445 1.409 . S
C439 H431 0.930 . S
C439 C437 1.419 . S
C439 C440 1.362 . S
C440 H432 0.930 1_655 S
C440 C439 1.362 . S
C440 C443 1.409 . S
C441 H433 0.930 1_655 S
C441 C442 1.355 . S
C441 C443 1.415 . S
C442 C441 1.355 . S
C442 C444 1.419 . S
C443 C438 1.425 . S
C443 C440 1.409 . S
C443 C441 1.415 . S
C444 H434 0.930 . S
C444 C442 1.419 . S
C444 C445 1.362 . S
C445 H435 0.930 . S
C445 C438 1.409 . S
C445 C444 1.362 . S
H446 C452 0.930 . S
H447 C455 0.930 . S
H448 C456 0.930 . S
H449 C457 0.930 . S
H450 C460 0.930 . S
H451 C461 0.930 . S
C452 H446 0.930 . S
C452 C453 1.355 . S
C452 C454 1.415 . S
C453 C452 1.355 . S
C453 C455 1.419 . S
C454 C452 1.415 . S
C454 C459 1.425 . S
C454 C461 1.409 . S
C455 H447 0.930 . S
C455 C453 1.419 . S
C455 C456 1.362 . S
C456 H448 0.930 . S
C456 C455 1.362 . S
C456 C459 1.409 . S
C457 H449 0.930 . S
C457 C458 1.355 . S
C457 C459 1.415 . S
C458 C457 1.355 . S
C458 C460 1.419 . S
C459 C454 1.425 . S
C459 C456 1.409 . S
C459 C457 1.415 . S
C460 H450 0.930 . S
C460 C458 1.419 . S
C460 C461 1.362 . S
C461 H451 0.930 . S
C461 C454 1.409 . S
C461 C460 1.362 . S
H462 C468 0.930 . S
H463 C471 0.930 . S
H464 C472 0.930 . S
H465 C473 0.930 . S
H466 C476 0.930 . S
H467 C477 0.930 . S
C468 H462 0.930 . S
C468 C469 1.355 . S
C468 C470 1.415 . S
C469 C468 1.355 . S
C469 C471 1.419 . S
C470 C468 1.415 . S
C470 C475 1.425 . S
C470 C477 1.409 1_455 S
C471 H463 0.930 . S
C471 C469 1.419 . S
C471 C472 1.362 . S
C472 H464 0.930 . S
C472 C471 1.362 . S
C472 C475 1.409 . S
C473 H465 0.930 . S
C473 C474 1.355 . S
C473 C475 1.415 . S
C474 C473 1.355 . S
C474 C476 1.419 1_455 S
C475 C470 1.425 . S
C475 C472 1.409 . S
C475 C473 1.415 . S
C476 H466 0.930 . S
C476 C474 1.419 1_655 S
C476 C477 1.362 . S
C477 H467 0.930 . S
C477 C470 1.409 1_655 S
C477 C476 1.362 . S
C298 C257 1.679 . S
C293 C211 1.607 . S
C309 C31 1.668 1_554 S
C314 C280 1.675 . S
C325 C91 1.652 . S
C330 C256 1.685 . S
C341 C151 1.613 . S
C346 C279 1.678 . S
C362 C260 1.662 . S
C357 C20 1.714 . S
C378 C282 1.649 . S
C373 C61 1.582 . S
C389 C121 1.606 . S
C394 C261 1.624 . S
C405 C200 1.625 . S
C410 C281 1.588 . S
C426 C284 1.682 . S
C421 C80 1.750 . S
C442 C259 1.627 . S
C437 C140 1.650 . S
C458 C283 1.692 . S
C453 C181 1.620 . S
C469 C1 1.623 . S
C474 C258 1.643 . S
