# Generated by pormake.
# Topology zzz, (3,6)-cn, num edge types: 1
# Building blocks:
#     Node 0, Type 0, BuildingBlock: QEWDON_clean_linker_0, # of connection points: 3
#     Node 1, Type 0, BuildingBlock: QEWDON_clean_linker_0, # of connection points: 3
#     Node 2, Type 0, BuildingBlock: QEWDON_clean_linker_0, # of connection points: 3
#     Node 3, Type 0, BuildingBlock: QEWDON_clean_linker_0, # of connection points: 3
#     Node 4, Type 0, BuildingBlock: QEWDON_clean_linker_0, # of connection points: 3
#     Node 5, Type 0, BuildingBlock: QEWDON_clean_linker_0, # of connection points: 3
#     Node 6, Type 0, BuildingBlock: QEWDON_clean_linker_0, # of connection points: 3
#     Node 7, Type 0, BuildingBlock: QEWDON_clean_linker_0, # of connection points: 3
#     Node 8, Type 1, BuildingBlock: KUMJIN_clean_sbu_1, # of connection points: 6
#     Node 9, Type 1, BuildingBlock: KUMJIN_clean_sbu_1, # of connection points: 6
#     Node 10, Type 1, BuildingBlock: KUMJIN_clean_sbu_1, # of connection points: 6
#     Node 11, Type 1, BuildingBlock: KUMJIN_clean_sbu_1, # of connection points: 6
#     Edge 12, Type (0, 1), BuildingBlock: ZUJKAS_clean_linker_0, # of connection points: 2
#     Edge 13, Type (0, 1), BuildingBlock: ZUJKAS_clean_linker_0, # of connection points: 2
#     Edge 14, Type (0, 1), BuildingBlock: ZUJKAS_clean_linker_0, # of connection points: 2
#     Edge 15, Type (0, 1), BuildingBlock: ZUJKAS_clean_linker_0, # of connection points: 2
#     Edge 16, Type (0, 1), BuildingBlock: ZUJKAS_clean_linker_0, # of connection points: 2
#     Edge 17, Type (0, 1), BuildingBlock: ZUJKAS_clean_linker_0, # of connection points: 2
#     Edge 18, Type (0, 1), BuildingBlock: ZUJKAS_clean_linker_0, # of connection points: 2
#     Edge 19, Type (0, 1), BuildingBlock: ZUJKAS_clean_linker_0, # of connection points: 2
#     Edge 20, Type (0, 1), BuildingBlock: ZUJKAS_clean_linker_0, # of connection points: 2
#     Edge 21, Type (0, 1), BuildingBlock: ZUJKAS_clean_linker_0, # of connection points: 2
#     Edge 22, Type (0, 1), BuildingBlock: ZUJKAS_clean_linker_0, # of connection points: 2
#     Edge 23, Type (0, 1), BuildingBlock: ZUJKAS_clean_linker_0, # of connection points: 2
#     Edge 24, Type (0, 1), BuildingBlock: ZUJKAS_clean_linker_0, # of connection points: 2
#     Edge 25, Type (0, 1), BuildingBlock: ZUJKAS_clean_linker_0, # of connection points: 2
#     Edge 26, Type (0, 1), BuildingBlock: ZUJKAS_clean_linker_0, # of connection points: 2
#     Edge 27, Type (0, 1), BuildingBlock: ZUJKAS_clean_linker_0, # of connection points: 2
#     Edge 28, Type (0, 1), BuildingBlock: ZUJKAS_clean_linker_0, # of connection points: 2
#     Edge 29, Type (0, 1), BuildingBlock: ZUJKAS_clean_linker_0, # of connection points: 2
#     Edge 30, Type (0, 1), BuildingBlock: ZUJKAS_clean_linker_0, # of connection points: 2
#     Edge 31, Type (0, 1), BuildingBlock: ZUJKAS_clean_linker_0, # of connection points: 2
#     Edge 32, Type (0, 1), BuildingBlock: ZUJKAS_clean_linker_0, # of connection points: 2
#     Edge 33, Type (0, 1), BuildingBlock: ZUJKAS_clean_linker_0, # of connection points: 2
#     Edge 34, Type (0, 1), BuildingBlock: ZUJKAS_clean_linker_0, # of connection points: 2
#     Edge 35, Type (0, 1), BuildingBlock: ZUJKAS_clean_linker_0, # of connection points: 2
# Relax obj value: 0.091
# Max RMSD: 0.082
# Mean RMSD: 0.033
data_MOF--net-zzz--node1-KUMJIN_clean_sbu_1--node2-QEWDON_clean_linker_0--edge1-ZUJKAS_clean_linker_0
_symmetry_space_group_name_H-M    P1
_symmetry_Int_Tables_number       1
_symmetry_cell_setting            triclinic
loop_
_symmetry_equiv_pos_as_xyz
'x, y, z'
_cell_length_a     69.365118
_cell_length_b     69.407953
_cell_length_c     19.9021
_cell_angle_alpha  90.113933
_cell_angle_beta   90.003713
_cell_angle_gamma 90.187626
loop_
_atom_site_label
_atom_site_type_symbol
_atom_site_fract_x
_atom_site_fract_y
_atom_site_fract_z
_atom_type_partial_charge
H0 H 0.75741 0.55335 0.1424 0.0
C1 C 0.76636 0.55061 0.1859 0.0
C2 C 0.78611 0.54874 0.17604 0.0
C3 C 0.75835 0.54954 0.25062 0.0
H4 H 0.81395 0.5453 0.22133 0.0
C5 C 0.79854 0.54636 0.23035 0.0
C6 C 0.79159 0.54589 0.29602 0.0
C7 C 0.77131 0.54722 0.30647 0.0
C8 C 0.73679 0.55237 0.25788 0.0
H9 H 0.76585 0.54653 0.35731 0.0
C10 C 0.72348 0.54786 0.20484 0.0
C11 C 0.70358 0.55249 0.20984 0.0
C12 C 0.72946 0.56116 0.31612 0.0
H13 H 0.73887 0.56534 0.35699 0.0
C14 C 0.70992 0.56554 0.32161 0.0
H15 H 0.72842 0.5406 0.15993 0.0
C16 C 0.69718 0.56143 0.26922 0.0
H17 H 0.68225 0.56562 0.27499 0.0
H18 H 0.70463 0.57257 0.36655 0.0
H19 H 0.98623 0.76246 0.13441 0.0
C20 C 0.98908 0.77207 0.1762 0.0
C21 C 0.98575 0.79163 0.16704 0.0
C22 C 0.99508 0.76492 0.23879 0.0
H23 H 0.98618 0.81986 0.21083 0.0
C24 C 0.98844 0.8046 0.21984 0.0
C25 C 0.99446 0.79846 0.28321 0.0
C26 C 0.99809 0.77846 0.2926 0.0
C27 C 0.9961 0.74331 0.24762 0.0
H28 H 1.00282 0.77356 0.34146 0.0
C29 C 1.00003 0.73045 0.19282 0.0
C30 C 0.99817 0.71014 0.19993 0.0
C31 C 0.99095 0.73523 0.30973 0.0
H32 H 0.98735 0.74426 0.35228 0.0
C33 C 0.98924 0.71535 0.31724 0.0
H34 H 1.00458 0.73614 0.14479 0.0
C35 C 0.99255 0.70299 0.26316 0.0
H36 H 0.9903 0.68772 0.27096 0.0
H37 H 0.98483 0.70946 0.36517 0.0
H38 H 0.78095 0.99472 0.1289 0.0
C39 C 0.77126 0.99707 0.17067 0.0
C40 C 0.75165 0.99558 0.15814 0.0
C41 C 0.77819 1.00085 0.23578 0.0
H42 H 0.72307 0.99645 0.19827 0.0
C43 C 0.73833 0.99738 0.21016 0.0
C44 C 0.74416 1.00059 0.2765 0.0
C45 C 0.76429 1.00281 0.28919 0.0
C46 C 0.79985 1.00127 0.24632 0.0
H47 H 0.76894 1.00571 0.34008 0.0
C48 C 0.81309 1.00533 0.19272 0.0
C49 C 0.83331 1.00349 0.20124 0.0
C50 C 0.80761 0.99598 0.30883 0.0
H51 H 0.79839 0.99226 0.35068 0.0
C52 C 0.8275 0.99456 0.31791 0.0
H53 H 0.80789 1.01012 0.14436 0.0
C54 C 0.84018 0.99811 0.26489 0.0
H55 H 0.85548 0.99626 0.27358 0.0
H56 H 0.83315 0.99024 0.36627 0.0
H57 H 0.54348 0.78462 0.14243 0.0
C58 C 0.54149 0.7762 0.18762 0.0
C59 C 0.53973 0.75631 0.1809 0.0
C60 C 0.54126 0.78499 0.25127 0.0
H61 H 0.53751 0.729 0.23029 0.0
C62 C 0.53838 0.74451 0.23715 0.0
C63 C 0.5389 0.75212 0.30185 0.0
C64 C 0.53996 0.77257 0.30931 0.0
C65 C 0.54395 0.80676 0.25493 0.0
H66 H 0.54 0.77855 0.35951 0.0
C67 C 0.53918 0.81947 0.20024 0.0
C68 C 0.54347 0.83957 0.20284 0.0
C69 C 0.55278 0.81492 0.31183 0.0
H70 H 0.55721 0.8061 0.35376 0.0
C71 C 0.55688 0.83458 0.31482 0.0
H72 H 0.53192 0.81398 0.15609 0.0
C73 C 0.55244 0.84669 0.26123 0.0
H74 H 0.5564 0.86175 0.26532 0.0
H75 H 0.56392 0.84047 0.35889 0.0
H76 H 0.27751 0.49488 0.12465 0.0
C77 C 0.2689 0.49626 0.07983 0.0
C78 C 0.25007 0.48901 0.0825 0.0
C79 C 0.27598 0.5058 0.02228 0.0
H80 H 0.22279 0.48675 0.03228 0.0
C81 C 0.23769 0.49142 0.02791 0.0
C82 C 0.24347 0.50121 0.97023 0.0
C83 C 0.2627 0.50832 0.96714 0.0
C84 C 0.29666 0.51367 0.02231 0.0
H85 H 0.26692 0.51552 0.92149 0.0
C86 C 0.31069 0.50898 0.0732 0.0
C87 C 0.32962 0.517 0.07267 0.0
C88 C 0.30261 0.52651 0.97147 0.0
H89 H 0.29302 0.53121 0.93223 0.0
C90 C 0.32121 0.53414 0.97029 0.0
H91 H 0.30745 0.49889 0.11274 0.0
C92 C 0.33447 0.52957 0.02012 0.0
H93 H 0.34859 0.53626 0.01796 0.0
H94 H 0.32531 0.54397 0.9306 0.0
H95 H 0.0453 0.28284 0.12249 0.0
C96 C 0.04516 0.27447 0.07679 0.0
C97 C 0.05152 0.25547 0.08134 0.0
C98 C 0.03794 0.28203 0.01612 0.0
H99 H 0.05449 0.22825 0.03163 0.0
C100 C 0.0504 0.24325 0.02589 0.0
C101 C 0.04247 0.24941 0.96527 0.0
C102 C 0.03639 0.26892 0.96002 0.0
C103 C 0.03115 0.30298 0.01436 0.0
H104 H 0.03067 0.27349 0.91226 0.0
C105 C 0.03526 0.31659 0.06726 0.0
C106 C 0.02715 0.33534 0.06755 0.0
C107 C 0.01965 0.30955 0.96067 0.0
H108 H 0.01568 0.30031 0.91929 0.0
C109 C 1.01241 0.32828 0.95959 0.0
H110 H 0.04441 0.31293 0.10914 0.0
C111 C 0.01588 0.34093 0.01265 0.0
H112 H 1.00962 0.35521 0.01095 0.0
H113 H 1.00363 0.33291 0.9177 0.0
H114 H 0.26258 0.04125 0.14088 0.0
C115 C 0.27128 0.04292 0.09618 0.0
C116 C 0.29116 0.04517 0.1044 0.0
C117 C 0.26305 0.04156 0.03153 0.0
H118 H 0.31877 0.04744 0.05624 0.0
C119 C 0.30331 0.04613 0.04866 0.0
C120 C 0.29608 0.04453 0.98362 0.0
C121 C 0.27587 0.04246 0.9748 0.0
C122 C 0.24155 0.03764 0.02473 0.0
H123 H 0.27045 0.04158 0.924 0.0
C124 C 0.22794 0.04172 0.07726 0.0
C125 C 0.20813 0.03658 0.07109 0.0
C126 C 0.23451 0.02858 0.96626 0.0
H127 H 0.24398 0.02448 0.92564 0.0
C128 C 0.2151 0.02383 0.95959 0.0
H129 H 0.23247 0.04909 0.12249 0.0
C130 C 0.20213 0.02759 0.01123 0.0
H131 H 0.18732 0.02299 1.00451 0.0
H132 H 0.21011 0.01673 0.91429 0.0
H133 H 0.47868 0.26314 0.11206 0.0
C134 C 0.4844 0.27302 0.07509 0.0
C135 C 0.47845 0.29227 0.07816 0.0
C136 C 0.49779 0.26674 0.02655 0.0
H137 H 0.48087 0.32037 0.03315 0.0
C138 C 0.48503 0.30535 0.02977 0.0
C139 C 0.49824 0.3 0.98038 0.0
C140 C 0.50473 0.28063 0.97882 0.0
C141 C 0.50432 0.24585 0.02684 0.0
H142 H 0.51558 0.27675 0.94222 0.0
C143 C 0.50354 0.23392 0.08567 0.0
C144 C 0.50919 0.21427 0.08343 0.0
C145 C 0.51084 0.23735 0.96676 0.0
H146 H 0.51117 0.24536 0.92023 0.0
C147 C 0.51663 0.21813 0.96484 0.0
H148 H 0.49901 0.23976 0.1335 0.0
C149 C 0.51585 0.20673 0.02235 0.0
H150 H 0.52024 0.19179 0.01886 0.0
H151 H 0.52157 0.21192 0.91799 0.0
Eu152 Eu 0.99949 0.03318 0.55557 0.0
C153 C 0.06619 0.04294 0.76107 0.0
N154 N 0.0651 0.03178 0.70491 0.0
C155 C 0.09773 0.03975 0.67643 0.0
C156 C 0.08321 0.05322 0.7764 0.0
C157 C 0.0806 0.02982 0.6632 0.0
C158 C 0.09903 0.05156 0.73313 0.0
C159 C 0.0509 0.05593 0.86114 0.0
C160 C 0.05011 0.04436 0.80281 0.0
C161 C 0.06781 0.06623 0.87627 0.0
C162 C 0.0839 0.06488 0.83407 0.0
Eu163 Eu 0.03575 0.01531 0.6883 0.0
N164 N 0.03374 0.0345 0.78644 0.0
C165 C 0.03473 0.05665 0.90308 0.0
C166 C 0.01844 0.03423 0.82948 0.0
C167 C 0.01853 0.04556 0.88759 0.0
H168 H 0.07998 0.02019 0.62064 0.0
H169 H 1.00623 0.04544 0.92105 0.0
H170 H 0.9551 0.02757 0.62118 0.0
H171 H 0.03076 1.00274 0.32624 0.0
H172 H 1.00637 0.02486 0.82105 0.0
H173 H 0.03479 0.06534 0.94838 0.0
H174 H 0.02955 0.02395 0.42461 0.0
H175 H 0.10997 0.03816 0.64318 0.0
H176 H 0.06862 0.07521 0.92077 0.0
H177 H 0.09684 0.0729 0.84656 0.0
H178 H 0.92555 1.00899 0.59766 0.0
H179 H 0.11235 0.05922 0.74325 0.0
H180 H 1.00281 0.98201 0.29857 0.0
N181 N 0.97055 0.01606 0.53812 0.0
C182 C 0.96994 1.00471 0.48234 0.0
C183 C 0.93797 1.00753 0.56515 0.0
C184 C 0.95321 0.99403 0.46653 0.0
C185 C 0.95485 0.01783 0.57895 0.0
C186 C 0.93716 0.99553 0.50884 0.0
N187 N 1.00239 1.01363 0.45864 0.0
C188 C 0.01785 0.01411 0.41634 0.0
C189 C 0.98604 0.99153 0.38413 0.0
C190 C 0.98629 1.00339 0.44179 0.0
C191 C 1.00245 0.99092 0.34331 0.0
C192 C 0.01831 1.00248 0.35902 0.0
H193 H 0.92404 0.98756 0.49832 0.0
H194 H 0.94034 0.97377 0.39668 0.0
H195 H 0.96901 0.97164 0.32449 0.0
O196 O 1.00322 0.05564 0.48038 0.0
O197 O 0.99962 1.0005 0.57602 0.0
O198 O 0.03119 0.99497 0.60002 0.0
O199 O 0.97494 0.04999 0.52134 0.0
O200 O 0.03175 0.03957 0.53585 0.0
O201 O 0.0467 1.01335 0.58143 0.0
O202 O 0.03113 0.99205 0.7588 0.0
O203 O 0.03536 0.04807 0.67066 0.0
O204 O 1.00397 0.05392 0.64305 0.0
O205 O 0.06036 0.99777 0.72088 0.0
O206 O 1.00354 1.00964 0.71031 0.0
O207 O 0.9879 0.03516 0.66199 0.0
C208 C 0.01441 0.98871 0.57873 0.0
C209 C 0.98358 0.08238 0.50302 0.0
C210 C 0.99561 0.11495 0.49107 0.0
C211 C 0.98263 0.12136 0.54003 0.0
C212 C 0.97047 0.08887 0.55209 0.0
C213 C 0.97002 0.10831 0.57031 0.0
C214 C 0.99597 0.0956 0.47222 0.0
C215 C 0.04667 0.02788 0.53953 0.0
C216 C 0.98558 0.06181 0.48695 0.0
C217 C 0.95306 0.9821 0.40952 0.0
C218 C 0.96941 0.98085 0.3685 0.0
C219 C 0.02059 0.05988 0.66707 0.0
C220 C 0.05623 0.97108 0.79825 0.0
C221 C 0.04975 0.9397 0.8463 0.0
C222 C 0.06921 0.93822 0.86524 0.0
C223 C 0.07564 0.96961 0.81717 0.0
C224 C 0.0434 0.95619 0.81314 0.0
C225 C 0.08207 0.95321 0.85093 0.0
C226 C 0.9885 0.02122 0.70655 0.0
C227 C 0.0493 0.98727 0.75869 0.0
H228 H 0.9822 0.13642 0.55436 0.0
H229 H 0.96081 0.07895 0.57729 0.0
H230 H 0.96003 0.11322 0.60835 0.0
H231 H 1.00613 0.09083 0.43423 0.0
H232 H 0.07441 0.92557 0.89129 0.0
H233 H 0.08579 0.98102 0.80543 0.0
H234 H 0.02853 0.9571 0.79653 0.0
H235 H 0.09705 0.95205 0.86551 0.0
Eu236 Eu 0.52834 0.0412 0.69765 0.0
C237 C 0.51445 0.96151 0.57597 0.0
N238 N 0.52525 0.97655 0.55371 0.0
C239 C 0.55087 0.95522 0.52343 0.0
C240 C 0.52191 0.94265 0.57535 0.0
C241 C 0.54294 0.97368 0.52561 0.0
C242 C 0.5404 0.93965 0.54902 0.0
C243 C 0.48451 0.94967 0.62363 0.0
C244 C 0.49589 0.96505 0.59951 0.0
C245 C 0.49217 0.93096 0.6254 0.0
C246 C 0.51077 0.92745 0.60097 0.0
Eu247 Eu 0.51058 1.00694 0.55578 0.0
N248 N 0.48869 0.98327 0.59604 0.0
C249 C 0.46553 0.95341 0.64343 0.0
C250 C 0.46967 0.98655 0.60954 0.0
C251 C 0.458 0.97187 0.63525 0.0
H252 H 0.55087 0.98557 0.50421 0.0
H253 H 0.44305 0.9747 0.64732 0.0
H254 H 0.48753 0.05513 0.77841 0.0
H255 H 0.58459 0.08667 0.59132 0.0
H256 H 0.46312 1.00022 0.59877 0.0
H257 H 0.45636 0.942 0.66249 0.0
H258 H 0.57017 0.05656 0.63541 0.0
H259 H 0.565 0.95299 0.5017 0.0
H260 H 0.48365 0.91902 0.64418 0.0
H261 H 0.51634 0.91288 0.60157 0.0
H262 H 0.46653 0.08351 0.78424 0.0
H263 H 0.54661 0.92535 0.54744 0.0
H264 H 0.56523 0.11657 0.58839 0.0
N265 N 0.50772 0.06811 0.71169 0.0
C266 C 0.5141 0.08501 0.68515 0.0
C267 C 0.47968 0.08404 0.75498 0.0
C268 C 0.50296 0.10193 0.68975 0.0
C269 C 0.49138 0.06775 0.74996 0.0
C270 C 0.4853 0.10112 0.72359 0.0
N271 N 0.54292 0.0693 0.65484 0.0
C272 C 0.56167 0.06957 0.63389 0.0
C273 C 0.53998 0.1032 0.63258 0.0
C274 C 0.53238 0.08572 0.65709 0.0
C275 C 0.55888 0.10342 0.60773 0.0
C276 C 0.56986 0.08657 0.60921 0.0
H277 H 0.47632 0.1138 0.7283 0.0
H278 H 0.5017 0.13233 0.66548 0.0
H279 H 0.53415 0.13344 0.6157 0.0
O280 O 0.55492 0.03921 0.75397 0.0
O281 O 0.52845 0.05143 0.58827 0.0
O282 O 0.50098 0.0383 0.54739 0.0
O283 O 0.52997 0.05223 0.80054 0.0
O284 O 0.552 0.02272 0.64971 0.0
O285 O 0.54112 0.01873 0.54137 0.0
O286 O 0.4934 0.99413 0.47595 0.0
O287 O 0.52704 0.99344 0.64523 0.0
O288 O 0.51707 1.01203 0.73253 0.0
O289 O 0.51885 1.01067 0.4506 0.0
O290 O 0.48676 0.02479 0.6058 0.0
O291 O 0.49827 0.02823 0.71323 0.0
C292 C 0.51342 0.05256 0.54856 0.0
C293 C 0.551 0.03364 0.86814 0.0
C294 C 0.57497 0.01638 0.93287 0.0
C295 C 0.56027 1.00777 0.97104 0.0
C296 C 0.53627 0.02515 0.90653 0.0
C297 C 0.54097 1.01225 0.95798 0.0
C298 C 0.57013 0.02921 0.8817 0.0
C299 C 0.55535 0.01984 0.58517 0.0
C300 C 0.54732 0.04566 0.80931 0.0
C301 C 0.51013 0.11924 0.6629 0.0
C302 C 0.52863 0.11988 0.63464 0.0
C303 C 0.52298 0.99533 0.70962 0.0
C304 C 0.49232 1.01283 0.37737 0.0
C305 C 0.46245 0.02736 0.33923 0.0
C306 C 0.47111 0.03155 0.27721 0.0
C307 C 0.5009 0.01724 0.31546 0.0
C308 C 0.47316 0.01834 0.3896 0.0
C309 C 0.49035 0.02669 0.26577 0.0
C310 C 0.48378 0.02768 0.67048 0.0
C311 C 0.50334 1.00223 0.42817 0.0
H312 H 0.56369 0.99777 0.01097 0.0
H313 H 0.52125 0.02812 0.89601 0.0
H314 H 0.52964 1.00558 0.9873 0.0
H315 H 0.58134 0.03535 0.85017 0.0
H316 H 0.46295 0.03848 0.23768 0.0
H317 H 0.51571 1.01323 0.30543 0.0
H318 H 0.46631 0.01504 0.43723 0.0
H319 H 0.497 0.03 0.21795 0.0
Eu320 Eu 0.5362 0.51579 0.56643 0.0
C321 C 0.47116 0.50394 0.7748 0.0
N322 N 0.4718 0.51507 0.71866 0.0
C323 C 0.43922 0.50642 0.69172 0.0
C324 C 0.45443 0.49327 0.79071 0.0
C325 C 0.45607 0.51673 0.6779 0.0
C326 C 0.4384 0.49459 0.74824 0.0
C327 C 0.48727 0.49081 0.873 0.0
C328 C 0.48752 0.50268 0.8155 0.0
C329 C 0.47058 0.48028 0.88895 0.0
C330 C 0.45423 0.48151 0.84799 0.0
Eu331 Eu 0.50041 0.53289 0.70348 0.0
N332 N 0.50372 0.51266 0.79818 0.0
C333 C 0.50383 0.48983 0.91294 0.0
C334 C 0.51954 0.51245 0.83891 0.0
C335 C 0.51997 0.50082 0.89608 0.0
H336 H 0.45617 0.52654 0.63611 0.0
H337 H 0.53265 0.50061 0.92777 0.0
H338 H 0.58202 0.51524 0.62068 0.0
H339 H 0.5059 0.54909 0.34041 0.0
H340 H 0.53163 0.52162 0.82935 0.0
H341 H 0.50419 0.48088 0.95748 0.0
H342 H 0.50585 0.52835 0.43951 0.0
H343 H 0.42678 0.50781 0.65924 0.0
H344 H 0.47018 0.4711 0.9329 0.0
H345 H 0.4415 0.47323 0.86092 0.0
H346 H 0.61323 0.53026 0.59275 0.0
H347 H 0.4253 0.48662 0.75885 0.0
H348 H 0.53564 0.5664 0.30778 0.0
N349 N 0.56674 0.52927 0.54279 0.0
C350 C 0.56786 0.54073 0.48765 0.0
C351 C 0.60056 0.53352 0.56323 0.0
C352 C 0.58552 0.5493 0.46875 0.0
C353 C 0.58278 0.52533 0.57991 0.0
C354 C 0.60193 0.54565 0.50761 0.0
N355 N 0.53451 0.53529 0.46884 0.0
C356 C 0.51856 0.53656 0.42895 0.0
C357 C 0.55223 0.55535 0.39135 0.0
C358 C 0.55135 0.54375 0.44947 0.0
C359 C 0.53554 0.55764 0.3528 0.0
C360 C 0.51871 0.548 0.37127 0.0
H361 H 0.61576 0.55191 0.49456 0.0
H362 H 0.59976 0.56774 0.3963 0.0
H363 H 0.57064 0.57303 0.32854 0.0
O364 O 0.52807 0.49164 0.50189 0.0
O365 O 0.5358 0.54868 0.57975 0.0
O366 O 0.50575 0.55562 0.62235 0.0
O367 O 0.5585 0.49677 0.52678 0.0
O368 O 0.5037 0.51086 0.54704 0.0
O369 O 0.48863 0.53625 0.59806 0.0
O370 O 0.5025 0.55323 0.78647 0.0
O371 O 0.50154 0.50038 0.68036 0.0
O372 O 0.53336 0.49647 0.65778 0.0
O373 O 0.47527 0.54911 0.73603 0.0
O374 O 0.53238 0.54022 0.72331 0.0
O375 O 0.54929 0.51593 0.67152 0.0
C376 C 0.52182 0.56099 0.59217 0.0
C377 C 0.55147 0.46938 0.4555 0.0
C378 C 0.54295 0.43843 0.40742 0.0
C379 C 0.5624 0.43518 0.3917 0.0
C380 C 0.57089 0.46613 0.43921 0.0
C381 C 0.57628 0.44911 0.407 0.0
C382 C 0.5375 0.45565 0.43836 0.0
C383 C 0.48888 0.52267 0.55213 0.0
C384 C 0.54595 0.48613 0.49555 0.0
C385 C 0.58633 0.56105 0.4115 0.0
C386 C 0.56974 0.56407 0.37294 0.0
C387 C 0.51687 0.48929 0.67809 0.0
C388 C 0.4839 0.58077 0.76463 0.0
C389 C 0.49917 0.61214 0.77043 0.0
C390 C 0.48506 0.61966 0.72744 0.0
C391 C 0.46951 0.58848 0.7227 0.0
C392 C 0.49839 0.59285 0.7896 0.0
C393 C 0.47014 0.60787 0.70435 0.0
C394 C 0.54819 0.52979 0.7167 0.0
C395 C 0.48518 0.55995 0.77661 0.0
H396 H 0.56681 0.4219 0.36758 0.0
H397 H 0.58191 0.47658 0.45228 0.0
H398 H 0.59127 0.44657 0.39485 0.0
H399 H 0.52252 0.45789 0.45182 0.0
H400 H 0.48537 0.63469 0.71296 0.0
H401 H 0.4581 0.57947 0.70262 0.0
H402 H 0.50947 0.58717 0.82248 0.0
H403 H 0.45919 0.6137 0.67151 0.0
Eu404 Eu 0.02782 0.5437 0.55392 0.0
C405 C 0.03736 0.47716 0.75968 0.0
N406 N 0.0254 0.47818 0.70564 0.0
C407 C 0.03137 0.44501 0.67962 0.0
C408 C 0.04707 0.4599 0.77505 0.0
C409 C 0.02208 0.4624 0.66623 0.0
C410 C 0.04399 0.44376 0.73408 0.0
C411 C 0.05245 0.49279 0.85568 0.0
C412 C 0.04007 0.4935 0.79946 0.0
C413 C 0.06223 0.47565 0.8707 0.0
C414 C 0.05954 0.45927 0.83058 0.0
Eu415 Eu 1.01015 0.50804 0.68842 0.0
N416 N 0.03073 0.51007 0.78305 0.0
C417 C 0.0545 0.50927 0.89563 0.0
C418 C 0.03174 0.52574 0.82442 0.0
C419 C 0.04389 0.52573 0.88041 0.0
H420 H 1.01183 0.46302 0.62559 0.0
H421 H 0.0448 0.53831 0.91247 0.0
H422 H 0.02432 0.58838 0.61915 0.0
H423 H 0.99394 0.51269 0.3297 0.0
H424 H 0.0228 0.53806 0.81626 0.0
H425 H 0.06385 0.50929 0.93924 0.0
H426 H 0.01625 0.51357 0.42505 0.0
H427 H 0.02868 0.43253 0.64825 0.0
H428 H 0.07183 0.47489 0.91355 0.0
H429 H 0.06713 0.44614 0.84304 0.0
H430 H 1.00598 0.6181 0.59859 0.0
H431 H 0.05116 0.43024 0.74436 0.0
H432 H 0.97356 0.54095 0.30487 0.0
N433 N 1.01134 0.57296 0.53835 0.0
C434 C 0.99924 0.57365 0.48461 0.0
C435 C 1.00384 0.60567 0.5665 0.0
C436 C 0.98866 0.59048 0.47056 0.0
C437 C 0.01401 0.58869 0.57862 0.0
C438 C 0.99105 0.60655 0.51243 0.0
N439 N 1.00725 0.54111 0.45955 0.0
C440 C 1.00676 0.52554 0.41768 0.0
C441 C 0.98452 0.55767 0.38863 0.0
C442 C 0.99713 0.55732 0.44423 0.0
C443 C 0.98306 0.54124 0.34809 0.0
C444 C 0.99443 0.5252 0.3622 0.0
H445 H 0.98318 0.61974 0.50321 0.0
H446 H 0.96771 0.60353 0.40414 0.0
H447 H 0.96414 0.57487 0.33239 0.0
O448 O 0.05015 0.53894 0.47869 0.0
O449 O 0.99519 0.54339 0.57612 0.0
O450 O 0.98929 0.51193 0.60124 0.0
O451 O 0.04462 0.56775 0.51493 0.0
O452 O 0.03351 0.51141 0.53356 0.0
O453 O 1.00786 0.49608 0.58266 0.0
O454 O 0.98797 0.51434 0.76175 0.0
O455 O 0.04284 0.50838 0.66864 0.0
O456 O 0.04889 0.53968 0.64051 0.0
O457 O 0.99208 0.4845 0.72736 0.0
O458 O 1.00465 0.54035 0.70847 0.0
O459 O 0.03045 0.55552 0.65992 0.0
C460 C 0.98328 0.52863 0.57878 0.0
C461 C 0.077 0.55909 0.49614 0.0
C462 C 0.10984 0.54803 0.47956 0.0
C463 C 0.11632 0.56134 0.52786 0.0
C464 C 0.08363 0.57232 0.54467 0.0
C465 C 0.10322 0.57343 0.56016 0.0
C466 C 0.09021 0.5471 0.46356 0.0
C467 C 0.02192 0.49632 0.53849 0.0
C468 C 0.05634 0.55668 0.48184 0.0
C469 C 0.97598 0.59073 0.4156 0.0
C470 C 0.97393 0.5744 0.37479 0.0
C471 C 0.05476 0.52312 0.6647 0.0
C472 C 0.96686 0.49039 0.80935 0.0
C473 C 0.93687 0.4985 0.86469 0.0
C474 C 0.9355 0.47955 0.88911 0.0
C475 C 0.96536 0.47143 0.83295 0.0
C476 C 0.95273 0.50385 0.82581 0.0
C477 C 0.94975 0.46609 0.87325 0.0
C478 C 0.01641 0.55528 0.70416 0.0
C479 C 0.98267 0.49634 0.76581 0.0
H480 H 0.13144 0.5622 0.5412 0.0
H481 H 0.07372 0.58161 0.57136 0.0
H482 H 0.10824 0.58354 0.59781 0.0
H483 H 0.08518 0.53696 0.42585 0.0
H484 H 0.92325 0.47505 0.91898 0.0
H485 H 0.97621 0.46083 0.82037 0.0
H486 H 0.95391 0.51852 0.80741 0.0
H487 H 0.94858 0.45146 0.89153 0.0
H488 H 0.17051 0.0481 0.05726 0.0
H489 H 0.14491 0.04777 0.14013 0.0
H490 H 0.18592 0.03315 0.29448 0.0
H491 H 0.21166 0.03195 0.20955 0.0
H492 H 0.15608 1.01279 0.31561 0.0
H493 H 0.12716 0.08526 0.27108 0.0
H494 H 0.12657 0.072 0.19395 0.0
H495 H 0.14942 0.07744 0.23344 0.0
C496 C 0.17425 0.0448 0.10878 0.0
C497 C 0.19334 0.03983 0.12588 0.0
C498 C 0.15946 0.04495 0.15688 0.0
C499 C 0.1632 0.04083 0.2248 0.0
C500 C 0.18242 0.03649 0.24278 0.0
H501 H 0.06796 0.06048 0.51349 0.0
H502 H 0.09683 0.06346 0.44282 0.0
C503 C 0.19727 0.03603 0.19411 0.0
C504 C 0.14687 0.04001 0.27535 0.0
H505 H 0.10539 0.06287 0.32418 0.0
C506 C 0.14517 0.02393 0.31799 0.0
C507 C 0.13258 0.05458 0.28051 0.0
C508 C 0.13417 0.07336 0.24281 0.0
C509 C 0.12964 0.02178 0.36355 0.0
C510 C 0.11453 0.03562 0.36483 0.0
C511 C 0.11653 0.05194 0.32334 0.0
C512 C 0.09677 0.03371 0.40896 0.0
C513 C 0.13013 1.00487 0.41109 0.0
C514 C 0.08652 0.01618 0.41389 0.0
C515 C 0.07045 0.01434 0.45653 0.0
C516 C 0.06341 0.03023 0.49283 0.0
C517 C 0.07296 0.048 0.48585 0.0
C518 C 0.08953 0.04967 0.4452 0.0
H519 H 0.14518 1.00028 0.42125 0.0
H520 H 0.12316 1.00833 0.45983 0.0
H521 H 0.12255 0.99245 0.38774 0.0
H522 H 0.09084 1.0038 0.38456 0.0
H523 H 0.06325 1.0005 0.46017 0.0
H524 H 0.5391 0.19595 0.14485 0.0
H525 H 0.53773 0.16981 0.22753 0.0
H526 H 0.47591 0.17512 0.23637 0.0
H527 H 0.47732 0.20154 0.15379 0.0
H528 H 0.52183 0.16771 0.36197 0.0
H529 H 0.48482 0.11736 0.18652 0.0
H530 H 0.49663 0.13908 0.15796 0.0
H531 H 0.47365 0.14044 0.1991 0.0
C532 C 0.52524 0.19183 0.16549 0.0
C533 C 0.50835 0.20101 0.14306 0.0
C534 C 0.52445 0.17676 0.21258 0.0
C535 C 0.5067 0.1701 0.23778 0.0
C536 C 0.4898 0.17969 0.21724 0.0
H537 H 0.48094 0.06678 0.48487 0.0
H538 H 0.47854 0.09533 0.41225 0.0
C539 C 0.49062 0.19501 0.17062 0.0
C540 C 0.50608 0.15296 0.28428 0.0
H541 H 0.49179 0.10566 0.29473 0.0
C542 C 0.5152 0.15417 0.34724 0.0
C543 C 0.49736 0.1352 0.26583 0.0
C544 C 0.48765 0.13275 0.19855 0.0
C545 C 0.51573 0.13837 0.39201 0.0
C546 C 0.50755 0.12035 0.3728 0.0
C547 C 0.49817 0.11926 0.31007 0.0
C548 C 0.50894 0.10252 0.41629 0.0
C549 C 0.52455 0.14145 0.46049 0.0
C550 C 0.52683 0.09635 0.44172 0.0
C551 C 0.52816 0.08012 0.48354 0.0
C552 C 0.51172 0.06928 0.50098 0.0
C553 C 0.4939 0.07486 0.47327 0.0
C554 C 0.49253 0.09126 0.43162 0.0
H555 H 0.52397 0.15685 0.47574 0.0
H556 H 0.51704 0.13274 0.49922 0.0
H557 H 0.53995 0.13718 0.45918 0.0
H558 H 0.53992 0.10402 0.4289 0.0
H559 H 0.54223 0.07596 0.50179 0.0
H560 H 0.36808 0.50947 0.05479 0.0
H561 H 0.39371 0.50858 0.13861 0.0
H562 H 0.35167 0.51482 0.2964 0.0
H563 H 0.32574 0.51591 0.21191 0.0
H564 H 0.40395 0.53736 0.22473 0.0
H565 H 0.38575 0.47193 0.37125 0.0
H566 H 0.37514 0.47693 0.2903 0.0
H567 H 0.36646 0.48903 0.36419 0.0
C568 C 0.36415 0.5105 0.10733 0.0
C569 C 0.34467 0.51298 0.12597 0.0
C570 C 0.37894 0.50998 0.15551 0.0
C571 C 0.37489 0.51166 0.22447 0.0
C572 C 0.35536 0.51325 0.24383 0.0
H573 H 0.46011 0.54891 0.5266 0.0
H574 H 0.43282 0.54605 0.44919 0.0
C575 C 0.34045 0.51383 0.19528 0.0
C576 C 0.39127 0.51291 0.27452 0.0
H577 H 0.41116 0.4915 0.41362 0.0
C578 C 0.40543 0.52731 0.26604 0.0
C579 C 0.39361 0.49973 0.32834 0.0
C580 C 0.37956 0.4834 0.33901 0.0
C581 C 0.42148 0.52901 0.30951 0.0
C582 C 0.4236 0.51612 0.36422 0.0
C583 C 0.40961 0.50154 0.37233 0.0
C584 C 0.44022 0.5176 0.41308 0.0
C585 C 0.43633 0.54442 0.29551 0.0
C586 C 0.45357 0.50249 0.42027 0.0
C587 C 0.46934 0.50411 0.46481 0.0
C588 C 0.47209 0.52079 0.5043 0.0
C589 C 0.45857 0.53581 0.49744 0.0
C590 C 0.44292 0.53423 0.45267 0.0
H591 H 0.4353 0.54987 0.24317 0.0
H592 H 0.43396 0.55674 0.33011 0.0
H593 H 0.45114 0.53891 0.30395 0.0
H594 H 0.45194 0.48947 0.39067 0.0
H595 H 0.47934 0.49221 0.46849 0.0
H596 H 0.0599 0.35362 0.11597 0.0
H597 H 0.06149 0.38007 0.19906 0.0
H598 H 1.00016 0.37545 0.22989 0.0
H599 H 0.99859 0.3493 0.14733 0.0
H600 H 0.04164 0.41631 0.19357 0.0
H601 H 0.02061 0.37637 0.42286 0.0
H602 H 0.02892 0.36438 0.34769 0.0
H603 H 1.00449 0.37283 0.35331 0.0
C604 C 0.04687 0.35798 0.14171 0.0
C605 C 0.02914 0.34917 0.12547 0.0
C606 C 0.04773 0.37324 0.18884 0.0
C607 C 0.03096 0.37981 0.22171 0.0
C608 C 0.01339 0.3706 0.20656 0.0
H609 H 0.99547 0.46801 0.50839 0.0
H610 H 0.99873 0.44078 0.4313 0.0
C611 C 1.0125 0.35559 0.15915 0.0
C612 C 0.03144 0.39676 0.26938 0.0
H613 H 0.01975 0.41052 0.42978 0.0
C614 C 0.03705 0.415 0.24545 0.0
C615 C 0.0253 0.39529 0.33713 0.0
C616 C 0.01964 0.37615 0.36714 0.0
C617 C 0.03602 0.43175 0.28617 0.0
C618 C 0.02975 0.43031 0.35407 0.0
C619 C 0.0245 0.41193 0.37812 0.0
C620 C 0.02792 0.44753 0.40055 0.0
C621 C 0.04087 0.45091 0.25462 0.0
C622 C 0.0432 0.46071 0.41052 0.0
C623 C 0.04126 0.47658 0.45442 0.0
C624 C 0.02412 0.47955 0.49099 0.0
C625 C 1.00895 0.46625 0.48164 0.0
C626 C 1.01082 0.45056 0.43726 0.0
H627 H 0.03938 0.4504 0.19906 0.0
H628 H 0.03146 0.46254 0.27422 0.0
H629 H 0.05608 0.45464 0.26617 0.0
H630 H 0.05682 0.45863 0.38508 0.0
H631 H 0.05332 0.48637 0.46046 0.0
H632 H 0.83146 0.99116 0.06849 0.0
H633 H 0.85682 0.99316 0.98229 0.0
H634 H 0.89267 0.02532 0.1196 0.0
H635 H 0.86776 0.02298 0.20564 0.0
H636 H 0.87502 0.02004 0.91461 0.0
H637 H 0.93015 0.98472 0.07085 0.0
H638 H 0.9052 0.98576 0.09568 0.0
H639 H 0.92112 1.00583 0.1119 0.0
C640 C 0.84469 0.99879 0.08015 0.0
C641 C 0.84756 1.00665 0.14483 0.0
C642 C 0.8593 0.99985 0.03074 0.0
C643 C 0.87717 1.00883 0.0445 0.0
C644 C 0.87952 0.01758 0.10784 0.0
H645 H 0.96057 0.04762 0.7397 0.0
H646 H 0.93402 0.04429 0.81948 0.0
C647 C 0.86509 0.01637 0.15718 0.0
C648 C 0.8933 1.00924 0.99325 0.0
H649 H 0.94182 1.00143 0.97392 0.0
C650 C 0.88958 0.01583 0.92766 0.0
C651 C 0.9124 1.00334 0.00868 0.0
C652 C 0.91742 0.99431 0.07534 0.0
C653 C 0.90429 0.01722 0.87853 0.0
C654 C 0.92365 1.01255 0.8954 0.0
C655 C 0.92723 1.00541 0.9604 0.0
C656 C 0.94032 0.01477 0.8467 0.0
C657 C 0.89867 0.02325 0.80843 0.0
C658 C 0.95367 0.99973 0.83669 0.0
C659 C 0.96928 1.00181 0.79184 0.0
C660 C 0.972 0.01894 0.75514 0.0
C661 C 0.95883 0.03407 0.76591 0.0
C662 C 0.94342 0.03209 0.81141 0.0
H663 H 0.88335 0.01967 0.79771 0.0
H664 H 0.90032 0.03909 0.8037 0.0
H665 H 0.90781 0.01617 0.76987 0.0
H666 H 0.95195 0.98623 0.86323 0.0
H667 H 0.97912 0.98986 0.78543 0.0
H668 H 0.52896 0.87626 0.21257 0.0
H669 H 0.52586 0.9008 0.12594 0.0
H670 H 0.54547 0.86022 0.97696 0.0
H671 H 0.54852 0.83536 0.06432 0.0
H672 H 0.55165 0.918 0.05138 0.0
H673 H 0.50083 0.88205 0.87675 0.0
H674 H 0.5059 0.8726 0.95919 0.0
H675 H 0.52236 0.8684 0.89081 0.0
C676 C 0.53252 0.87238 0.16135 0.0
C677 C 0.5391 0.85362 0.1463 0.0
C678 C 0.53073 0.88658 0.1114 0.0
C679 C 0.53529 0.88269 0.04383 0.0
C680 C 0.54143 0.86379 0.02798 0.0
H681 H 0.53953 0.95952 0.68783 0.0
H682 H 0.54243 0.93242 0.76606 0.0
C683 C 0.54318 0.84946 0.0783 0.0
C684 C 0.53423 0.89871 0.99183 0.0
H685 H 0.51471 0.91143 0.83939 0.0
C686 C 0.54349 0.91646 1.00522 0.0
C687 C 0.52367 0.89709 0.93079 0.0
C688 C 0.51247 0.87909 0.91365 0.0
C689 C 0.54259 0.93225 0.96025 0.0
C690 C 0.53193 0.93064 0.89957 0.0
C691 C 0.52291 0.91286 0.88553 0.0
C692 C 0.52976 0.94727 0.8508 0.0
C693 C 0.55339 0.95049 0.97782 0.0
C694 C 0.52137 0.96483 0.87089 0.0
C695 C 0.51918 0.98021 0.82532 0.0
C696 C 0.52541 0.9787 0.75797 0.0
C697 C 0.53399 0.96119 0.73819 0.0
C698 C 0.53587 0.94565 0.78347 0.0
H699 H 0.56505 0.94776 0.01486 0.0
H700 H 0.55984 0.95719 0.93241 0.0
H701 H 0.54324 0.96098 1.00048 0.0
H702 H 0.51623 0.9666 0.9219 0.0
H703 H 0.51245 0.99333 0.84304 0.0
H704 H 0.66646 0.53898 0.22161 0.0
H705 H 0.6417 0.5358 0.13514 0.0
H706 H 0.68246 0.55377 0.98447 0.0
H707 H 0.70753 0.55729 0.07161 0.0
H708 H 0.64276 0.57324 0.9842 0.0
H709 H 0.63922 0.49332 0.98289 0.0
H710 H 0.64042 0.50479 0.06401 0.0
H711 H 0.66058 0.50647 0.00784 0.0
C712 C 0.67031 0.54228 0.17017 0.0
C713 C 0.68916 0.54852 0.15429 0.0
C714 C 0.65605 0.54035 0.12048 0.0
C715 C 0.66004 0.54454 0.05289 0.0
C716 C 0.6789 0.55048 0.03618 0.0
H717 H 0.58164 0.5085 0.73008 0.0
H718 H 0.60873 0.5138 0.80533 0.0
C719 C 0.69332 0.55231 0.08612 0.0
C720 C 0.64438 0.54272 1.00068 0.0
H721 H 0.6146 0.5097 0.92525 0.0
C722 C 0.6367 0.55934 0.97071 0.0
C723 C 0.63641 0.52464 0.98255 0.0
C724 C 0.64459 0.5062 0.01041 0.0
C725 C 0.62128 0.55841 0.92399 0.0
C726 C 0.61277 0.54029 0.90737 0.0
C727 C 0.62075 0.52368 0.93717 0.0
C728 C 0.59611 0.53797 0.85829 0.0
C729 C 0.61472 0.57696 0.89206 0.0
C730 C 0.57946 0.5496 0.86135 0.0
C731 C 0.56422 0.54726 0.81498 0.0
C732 C 0.56471 0.53271 0.7654 0.0
C733 C 0.58092 0.52051 0.76459 0.0
C734 C 0.59643 0.5233 0.8092 0.0
H735 H 0.62637 0.58799 0.89235 0.0
H736 H 0.61 0.57469 0.83936 0.0
H737 H 0.60249 0.58291 0.92139 0.0
H738 H 0.57801 0.5604 0.90021 0.0
H739 H 0.55186 0.55669 0.8189 0.0
H740 H 0.98973 0.71382 0.06332 0.0
H741 H 0.9922 0.689 0.97516 0.0
H742 H 0.01639 0.64953 0.1187 0.0
H743 H 0.01443 0.67406 0.20579 0.0
H744 H 0.02215 0.6676 0.92017 0.0
H745 H 0.97132 0.61818 0.04671 0.0
H746 H 0.97412 0.64305 0.07143 0.0
H747 H 0.99088 0.62518 0.10058 0.0
C748 C 0.9958 0.69995 0.07607 0.0
C749 C 1.00148 0.69603 0.14281 0.0
C750 C 0.9971 0.68566 0.02547 0.0
C751 C 1.00395 0.66702 0.04024 0.0
C752 C 1.01044 0.66345 0.10589 0.0
H753 H 0.04462 0.5794 0.75242 0.0
H754 H 0.04154 0.60597 0.83245 0.0
C755 C 1.00928 0.67764 0.15603 0.0
C756 C 1.00446 0.65121 0.98797 0.0
H757 H 0.99044 0.60449 0.95923 0.0
C758 C 0.01507 0.65386 0.92848 0.0
C759 C 0.99497 0.63326 0.99745 0.0
C760 C 0.98201 0.62977 0.05712 0.0
C761 C 0.01691 0.63908 0.87971 0.0
C762 C 1.00838 0.62067 0.89107 0.0
C763 C 0.9973 0.61828 0.94988 0.0
C764 C 1.0105 0.60383 0.84286 0.0
C765 C 0.02764 0.6437 0.8158 0.0
C766 C 0.99438 0.59257 0.82392 0.0
C767 C 0.99628 0.57677 0.77978 0.0
C768 C 0.0143 0.57189 0.75216 0.0
C769 C 0.03044 0.58295 0.77148 0.0
C770 C 0.02863 0.5984 0.817 0.0
H771 H 0.02713 0.65937 0.80452 0.0
H772 H 0.04303 0.63976 0.82196 0.0
H773 H 0.02163 0.63573 0.77215 0.0
H774 H 0.98019 0.59608 0.8429 0.0
H775 H 0.98354 0.56856 0.76636 0.0
H776 H 0.08452 0.23704 0.11786 0.0
H777 H 0.08733 0.21415 0.21117 0.0
H778 H 0.03065 0.2305 0.27997 0.0
H779 H 0.02827 0.25385 0.18931 0.0
H780 H 0.05316 0.2188 0.38283 0.0
H781 H 0.0556 0.16682 0.16862 0.0
H782 H 0.07567 0.18306 0.1762 0.0
H783 H 0.05216 0.19224 0.15598 0.0
C784 C 0.07314 0.2363 0.15503 0.0
C785 C 0.05614 0.24695 0.14676 0.0
C786 C 0.07467 0.22318 0.20774 0.0
C787 C 0.05896 0.22029 0.25092 0.0
C788 C 0.04292 0.23251 0.24698 0.0
H789 H 0.98841 0.13408 0.3768 0.0
H790 H 1.00929 0.15783 0.32177 0.0
C791 C 0.04156 0.24586 0.19529 0.0
C792 C 0.05727 0.20266 0.29153 0.0
H793 H 0.04808 0.15461 0.274 0.0
C794 C 0.05259 0.20464 0.35975 0.0
C795 C 0.05621 0.1843 0.26038 0.0
C796 C 0.06002 0.18138 0.18625 0.0
C797 C 0.04543 0.18901 0.39649 0.0
C798 C 0.04363 0.17093 0.36447 0.0
C799 C 0.04974 0.16857 0.29799 0.0
C800 C 0.03231 0.15535 0.39487 0.0
C801 C 0.03821 0.19231 0.46717 0.0
C802 C 0.03868 0.14592 0.45292 0.0
C803 C 0.02677 0.13241 0.48411 0.0
C804 C 1.00845 0.12851 0.45764 0.0
C805 C 1.00242 0.13734 0.39823 0.0
C806 C 0.01432 0.1507 0.36686 0.0
H807 H 0.03857 0.20777 0.48162 0.0
H808 H 0.02318 0.18694 0.47233 0.0
H809 H 0.04732 0.18417 0.50302 0.0
H810 H 0.05266 0.14921 0.47436 0.0
H811 H 0.03173 0.12514 0.52895 0.0
H812 H 0.29183 0.07349 0.19953 0.0
H813 H 0.31472 0.07542 0.29385 0.0
H814 H 0.33449 0.01796 0.24744 0.0
H815 H 0.31132 0.01587 0.15586 0.0
H816 H 0.33748 0.02548 0.38068 0.0
H817 H 0.3688 0.08524 0.22728 0.0
H818 H 0.34517 0.08878 0.26187 0.0
H819 H 0.34883 0.07101 0.1973 0.0
C820 C 0.30052 0.06105 0.2119 0.0
C821 C 0.30008 0.04457 0.17106 0.0
C822 C 0.31366 0.0622 0.2651 0.0
C823 C 0.32659 0.04702 0.27651 0.0
C824 C 0.32466 0.02986 0.23964 0.0
H825 H 0.43299 1.01213 0.2686 0.0
H826 H 0.39861 0.01913 0.28078 0.0
C827 C 0.31148 0.02865 0.18727 0.0
C828 C 0.34426 0.04964 0.31695 0.0
H829 H 0.3891 0.06944 0.30114 0.0
C830 C 0.3486 0.03558 0.36531 0.0
C831 C 0.3588 0.06277 0.29626 0.0
C832 C 0.35532 0.07776 0.24265 0.0
C833 C 0.36755 0.03292 0.3877 0.0
C834 C 0.38224 0.04493 0.36232 0.0
C835 C 0.37758 0.0604 0.3205 0.0
C836 C 0.4025 0.03893 0.36385 0.0
C837 C 0.37214 0.01616 0.43291 0.0
C838 C 0.41585 0.0477 0.40713 0.0
C839 C 0.43549 0.04357 0.40056 0.0
C840 C 0.44182 0.03107 0.34954 0.0
C841 C 0.42835 0.02201 0.30755 0.0
C842 C 0.4088 0.02584 0.31491 0.0
H843 H 0.35908 1.01073 0.45917 0.0
H844 H 0.37818 1.00426 0.40217 0.0
H845 H 0.38316 0.02035 0.47075 0.0
H846 H 0.41112 0.05799 0.4446 0.0
H847 H 0.44577 0.05057 0.43364 0.0
H848 H 0.4874 0.2844 0.20805 0.0
H849 H 0.48553 0.3083 0.29677 0.0
H850 H 0.44805 0.343 0.17438 0.0
H851 H 0.44913 0.31865 0.086 0.0
H852 H 0.5013 0.34145 0.21458 0.0
H853 H 0.43945 0.36133 0.37948 0.0
H854 H 0.44431 0.3365 0.3574 0.0
H855 H 0.43505 0.35265 0.29528 0.0
C856 C 0.47755 0.29633 0.20173 0.0
C857 C 0.46903 0.30009 0.13908 0.0
C858 C 0.47649 0.31004 0.25279 0.0
C859 C 0.46702 0.32754 0.24126 0.0
C860 C 0.45543 0.32956 0.18411 0.0
H861 H 0.51005 0.44205 0.33417 0.0
H862 H 0.48804 0.41593 0.3004 0.0
C863 C 0.45622 0.31569 0.13335 0.0
C864 C 0.47518 0.345 0.27202 0.0
H865 H 0.46682 0.38198 0.38111 0.0
C866 C 0.4938 0.35024 0.25134 0.0
C867 C 0.46504 0.35666 0.31791 0.0
C868 C 0.44483 0.35162 0.33926 0.0
C869 C 0.50284 0.36662 0.27693 0.0
C870 C 0.49309 0.37784 0.32526 0.0
C871 C 0.47421 0.37307 0.34454 0.0
C872 C 0.50304 0.39408 0.35726 0.0
C873 C 0.52283 0.37179 0.25242 0.0
C874 C 0.51828 0.39029 0.40143 0.0
C875 C 0.53099 0.40494 0.41932 0.0
C876 C 0.52841 0.42355 0.39384 0.0
C877 C 0.51229 0.42768 0.35376 0.0
C878 C 0.49968 0.41291 0.33509 0.0
H879 H 0.52675 0.36381 0.20596 0.0
H880 H 0.52395 0.38749 0.24229 0.0
H881 H 0.53353 0.36819 0.29187 0.0
H882 H 0.521 0.37575 0.41866 0.0
H883 H 0.54316 0.40165 0.4514 0.0
H884 H 0.22861 0.45649 0.1027 0.0
H885 H 0.20366 0.45366 0.18912 0.0
H886 H 0.22693 0.50364 0.28985 0.0
H887 H 0.25166 0.50664 0.20385 0.0
H888 H 0.20592 0.47541 0.37556 0.0
H889 H 0.16761 0.50104 0.14562 0.0
H890 H 0.17963 0.47815 0.14153 0.0
H891 H 0.19353 0.49988 0.14974 0.0
C892 C 0.22898 0.46621 0.14534 0.0
C893 C 0.24167 0.48206 0.14604 0.0
C894 C 0.21476 0.46458 0.1945 0.0
C895 C 0.21331 0.47872 0.24448 0.0
C896 C 0.22787 0.49264 0.25128 0.0
H897 H 0.14394 0.55781 0.42214 0.0
H898 H 0.16667 0.53642 0.36503 0.0
C899 C 0.24205 0.4943 0.20218 0.0
C900 C 0.19477 0.48236 0.2777 0.0
H901 H 0.15224 0.50544 0.24866 0.0
C902 C 0.19386 0.48136 0.34791 0.0
C903 C 0.17932 0.4905 0.24092 0.0
C904 C 0.17996 0.49262 0.16534 0.0
C905 C 0.17824 0.48929 0.38276 0.0
C906 C 0.16342 0.49834 0.34614 0.0
C907 C 0.16369 0.49826 0.27594 0.0
C908 C 0.14942 0.51076 0.37981 0.0
C909 C 0.17824 0.48932 0.45851 0.0
C910 C 0.13229 0.50319 0.40596 0.0
C911 C 0.11934 0.51534 0.43868 0.0
C912 C 0.12349 0.53511 0.44547 0.0
C913 C 0.14062 0.54258 0.41849 0.0
C914 C 0.15348 0.53046 0.38567 0.0
H915 H 0.1902 0.4806 0.47957 0.0
H916 H 0.17968 0.50435 0.47713 0.0
H917 H 0.16432 0.48356 0.47746 0.0
H918 H 0.12904 0.48797 0.40133 0.0
H919 H 0.1062 0.50928 0.45932 0.0
H920 H 1.00806 0.79118 0.05638 0.0
H921 H 1.00636 0.81518 0.96709 0.0
H922 H 0.95116 0.8341 0.04156 0.0
H923 H 0.95307 0.81036 0.13207 0.0
H924 H 0.98012 0.83417 0.86729 0.0
H925 H 0.99348 0.87331 0.10865 0.0
H926 H 0.99443 0.84744 0.10319 0.0
H927 H 0.97159 0.85954 0.10211 0.0
C928 C 0.99508 0.7997 0.05115 0.0
C929 C 0.98081 0.79931 0.10089 0.0
C930 C 0.99408 0.81335 1.00015 0.0
C931 C 0.97879 0.82651 0.99896 0.0
C932 C 0.96306 0.82403 0.04224 0.0
H933 H 0.01337 0.94295 0.89597 0.0
H934 H 0.99041 0.91694 0.91795 0.0
C935 C 0.96416 0.81054 0.09375 0.0
C936 C 0.98225 0.84534 0.96803 0.0
H937 H 0.99944 0.88976 0.00966 0.0
C938 C 0.98384 0.84656 0.89801 0.0
C939 C 0.9873 0.8613 0.0089 0.0
C940 C 0.98677 0.86044 0.08486 0.0
C941 C 0.99126 0.8632 0.86769 0.0
C942 C 0.99739 0.87863 0.90889 0.0
C943 C 0.99456 0.87787 0.97845 0.0
C944 C 1.00945 0.89438 0.88333 0.0
C945 C 0.99322 0.86385 0.7923 0.0
C946 C 0.0277 0.89016 0.85685 0.0
C947 C 0.04084 0.90492 0.84453 0.0
C948 C 0.03592 0.92405 0.85912 0.0
C949 C 0.01746 0.92828 0.88413 0.0
C950 C 1.00431 0.91352 0.89623 0.0
H951 H 0.98229 0.85448 0.76759 0.0
H952 H 0.99167 0.87878 0.7731 0.0
H953 H 1.00769 0.85846 0.77788 0.0
H954 H 0.03209 0.87539 0.8485 0.0
H955 H 0.05487 0.90139 0.82417 0.0
H956 H 0.73627 0.96324 0.10479 0.0
H957 H 0.71099 0.96364 0.0196 0.0
H958 H 0.72388 0.02322 0.97765 0.0
H959 H 0.74934 0.02276 0.06236 0.0
H960 H 0.69135 1.01082 0.07342 0.0
H961 H 0.68901 0.97676 0.81957 0.0
H962 H 0.70335 0.96581 0.8848 0.0
H963 H 0.71042 0.98869 0.85128 0.0
C964 C 0.7346 0.97594 0.07377 0.0
C965 C 0.74437 0.99303 0.08984 0.0
C966 C 0.72027 0.97614 0.02484 0.0
C967 C 0.71558 0.9935 0.99309 0.0
C968 C 0.72755 1.00966 1.00128 0.0
H969 H 0.60457 0.04199 0.93367 0.0
H970 H 0.63885 0.03508 0.93923 0.0
C971 C 0.74198 1.00943 0.04986 0.0
C972 C 0.69524 0.99675 0.97764 0.0
H973 H 0.65915 0.98673 0.86694 0.0
C974 C 0.68432 1.00576 0.0279 0.0
C975 C 0.68628 0.98958 0.91929 0.0
C976 C 0.69778 0.97968 0.86522 0.0
C977 C 0.66447 1.00782 0.02134 0.0
C978 C 0.65547 1.00098 0.96241 0.0
C979 C 0.6663 0.99186 0.91204 0.0
C980 C 0.63493 1.00438 0.95172 0.0
C981 C 0.65322 0.01712 0.07772 0.0
C982 C 0.62159 0.98924 0.95645 0.0
C983 C 0.60188 0.99309 0.95239 0.0
C984 C 0.5955 1.01211 0.94379 0.0
C985 C 0.60907 0.02716 0.93963 0.0
C986 C 0.62862 0.02328 0.94263 0.0
H987 H 0.66159 0.01762 0.12529 0.0
H988 H 0.64958 0.03213 0.06354 0.0
H989 H 0.63951 1.00924 0.08692 0.0
H990 H 0.62642 0.97458 0.96412 0.0
H991 H 0.59171 0.98124 0.9547 0.0
H992 H 0.51119 0.73601 0.12306 0.0
H993 H 0.51448 0.71393 0.0281 0.0
H994 H 0.57315 0.7331 0.99832 0.0
H995 H 0.56986 0.75523 0.0944 0.0
H996 H 0.52585 0.71882 0.89191 0.0
H997 H 0.57607 0.67434 0.04549 0.0
H998 H 0.56153 0.69315 0.08188 0.0
H999 H 0.58214 0.69927 0.03178 0.0
C1000 C 0.52454 0.73589 0.09473 0.0
C1001 C 0.54027 0.74714 0.11498 0.0
C1002 C 0.52645 0.72333 0.04094 0.0
C1003 C 0.54414 0.72187 0.00726 0.0
C1004 C 0.55949 0.73406 0.02445 0.0
H1005 H 0.52459 0.63483 0.70264 0.0
H1006 H 0.54462 0.66049 0.75164 0.0
C1007 C 0.55755 0.74674 0.07843 0.0
C1008 C 0.54656 0.70621 0.9587 0.0
H1009 H 0.56306 0.66011 0.94872 0.0
C1010 C 0.53444 0.70616 0.90262 0.0
C1011 C 0.55753 0.68972 0.97478 0.0
C1012 C 0.57001 0.68892 0.03689 0.0
C1013 C 0.53171 0.68943 0.86485 0.0
C1014 C 0.54223 0.67269 0.88192 0.0
C1015 C 0.55544 0.67316 0.93517 0.0
C1016 C 0.53658 0.65393 0.85414 0.0
C1017 C 0.51609 0.68932 0.8118 0.0
C1018 C 0.52692 0.64095 0.89639 0.0
C1019 C 0.51576 0.6263 0.86876 0.0
C1020 C 0.51408 0.62469 0.79878 0.0
C1021 C 0.52543 0.63629 0.75679 0.0
C1022 C 0.53691 0.65074 0.78458 0.0
H1023 H 0.50728 0.70266 0.81278 0.0
H1024 H 0.52275 0.68809 0.76132 0.0
H1025 H 0.50626 0.67682 0.81893 0.0
H1026 H 0.52656 0.64321 0.95029 0.0
H1027 H 0.50723 0.61729 0.90185 0.0
H1028 H 0.79042 0.58077 0.10037 0.0
H1029 H 0.81183 0.58401 1.00262 0.0
H1030 H 0.82239 0.52274 0.00754 0.0
H1031 H 0.80116 0.51961 0.10449 0.0
H1032 H 0.84947 0.57432 0.02677 0.0
H1033 H 0.82354 0.53323 0.80733 0.0
H1034 H 0.80733 0.54271 0.87046 0.0
H1035 H 0.81922 0.51993 0.88294 0.0
C1036 C 0.79669 0.56797 0.07818 0.0
C1037 C 0.79431 0.54995 0.10873 0.0
C1038 C 0.80881 0.56981 0.02265 0.0
C1039 C 0.81837 0.55359 0.99731 0.0
C1040 C 0.81468 0.53534 0.02498 0.0
H1041 H 0.91892 0.5062 0.98309 0.0
H1042 H 0.89171 0.52781 1.0011 0.0
C1043 C 0.80273 0.53355 0.08058 0.0
C1044 C 0.83542 0.5558 0.95434 0.0
H1045 H 0.85842 0.53043 0.83258 0.0
C1046 C 0.85134 0.56546 0.98227 0.0
C1047 C 0.83777 0.54445 0.89611 0.0
C1048 C 0.82095 0.53467 0.86219 0.0
C1049 C 0.86999 0.56173 0.95926 0.0
C1050 C 0.8725 0.54809 0.9074 0.0
C1051 C 0.85642 0.54071 0.87311 0.0
C1052 C 0.89091 0.53806 0.89826 0.0
C1053 C 0.88687 0.57098 0.99469 0.0
C1054 C 0.89921 0.53657 0.83443 0.0
C1055 C 0.91449 0.52397 0.82388 0.0
C1056 C 0.92151 0.51262 0.87702 0.0
C1057 C 0.91358 0.51463 0.94133 0.0
C1058 C 0.89833 0.52724 0.95183 0.0
H1059 H 0.88303 0.58555 0.01353 0.0
H1060 H 0.8909 0.56209 0.03879 0.0
H1061 H 0.89959 0.57218 0.96103 0.0
H1062 H 0.89339 0.54458 0.79242 0.0
H1063 H 0.92031 0.52255 0.7736 0.0
H1064 H 1.00882 0.23606 0.90679 0.0
H1065 H 1.00444 0.20505 0.84789 0.0
H1066 H 0.06586 0.19621 0.85029 0.0
H1067 H 0.07025 0.22701 0.90838 0.0
H1068 H 0.02073 0.18714 0.72457 0.0
H1069 H 0.04379 0.14962 0.95692 0.0
H1070 H 0.03668 0.17462 0.95651 0.0
H1071 H 0.0602 0.16779 0.92732 0.0
C1072 C 0.02143 0.22787 0.89232 0.0
C1073 C 0.03992 0.23423 0.91179 0.0
C1074 C 0.0189 0.20997 0.85936 0.0
C1075 C 0.03478 0.19794 0.84573 0.0
C1076 C 0.05331 0.20493 0.86103 0.0
H1077 H 0.05315 0.07877 0.71353 0.0
H1078 H 0.05607 0.11178 0.75556 0.0
C1079 C 0.05583 0.22274 0.89351 0.0
C1080 C 0.03213 0.17772 0.81937 0.0
H1081 H 0.0395 0.13028 0.86005 0.0
C1082 C 0.02471 0.17472 0.75442 0.0
C1083 C 0.0374 0.16134 0.85778 0.0
C1084 C 0.04482 0.16338 0.92873 0.0
C1085 C 0.02285 0.15601 0.72654 0.0
C1086 C 0.0281 0.13961 0.76501 0.0
C1087 C 0.03545 0.14266 0.8301 0.0
C1088 C 0.02617 0.11922 0.73899 0.0
C1089 C 0.01586 0.15409 0.65512 0.0
C1090 C 1.00833 0.11191 0.71647 0.0
C1091 C 1.00655 0.09278 0.69352 0.0
C1092 C 0.02256 0.08031 0.69198 0.0
C1093 C 0.0404 0.08767 0.71456 0.0
C1094 C 0.04212 0.10672 0.73834 0.0
H1095 H 0.01843 0.16749 0.62596 0.0
H1096 H 0.0231 0.14198 0.62913 0.0
H1097 H 1.00012 0.15124 0.65539 0.0
H1098 H 0.99562 0.12092 0.71754 0.0
H1099 H 0.99252 0.08771 0.67745 0.0
H1100 H 0.31059 1.01275 0.92028 0.0
H1101 H 0.34123 1.01069 0.85885 0.0
H1102 H 0.34644 0.07258 0.86504 0.0
H1103 H 0.31619 0.0745 0.92852 0.0
H1104 H 0.35739 0.02269 0.74548 0.0
H1105 H 0.39568 0.05869 0.95504 0.0
H1106 H 0.37073 0.05159 0.96105 0.0
H1107 H 0.37736 0.07363 0.91918 0.0
C1108 C 0.31793 0.02595 0.90638 0.0
C1109 C 0.31067 0.04382 0.9281 0.0
C1110 C 0.33564 0.02477 0.87184 0.0
C1111 C 0.34668 0.04143 0.85853 0.0
C1112 C 0.3387 0.0594 0.87609 0.0
H1113 H 0.45133 0.03898 0.60135 0.0
H1114 H 0.41844 0.04284 0.64398 0.0
C1115 C 0.32111 0.06055 0.91118 0.0
C1116 C 0.36676 0.0399 0.82943 0.0
H1117 H 0.41392 0.05284 0.8566 0.0
C1118 C 0.36973 0.02929 0.76993 0.0
C1119 C 0.38317 0.04813 0.86145 0.0
C1120 C 0.38166 0.05847 0.92803 0.0
C1121 C 0.3883 0.02685 0.74163 0.0
C1122 C 0.4046 0.03565 0.77243 0.0
C1123 C 0.40162 0.04617 0.8321 0.0
C1124 C 0.42491 0.03363 0.74549 0.0
C1125 C 0.39021 0.01425 0.68012 0.0
C1126 C 0.44007 0.02793 0.78816 0.0
C1127 C 0.45903 0.02607 0.76399 0.0
C1128 C 0.46352 0.02983 0.69624 0.0
C1129 C 0.44844 0.03572 0.6536 0.0
C1130 C 0.42949 0.03778 0.67799 0.0
H1131 H 0.37798 1.00395 0.67576 0.0
H1132 H 0.39012 0.02344 0.63457 0.0
H1133 H 0.40385 1.00593 0.68095 0.0
H1134 H 0.43721 0.02471 0.84046 0.0
H1135 H 0.4702 0.0215 0.79847 0.0
H1136 H 0.49226 0.30612 0.84471 0.0
H1137 H 0.49757 0.33639 0.78289 0.0
H1138 H 0.52335 0.36145 0.96002 0.0
H1139 H 0.51911 0.33113 0.01948 0.0
H1140 H 0.48344 0.36959 0.79477 0.0
H1141 H 0.56088 0.38174 0.83375 0.0
H1142 H 0.54961 0.35913 0.85459 0.0
H1143 H 0.54962 0.37887 0.91397 0.0
C1144 C 0.49994 0.3178 0.86912 0.0
C1145 C 0.50582 0.31592 0.93647 0.0
C1146 C 0.50268 0.33532 0.83415 0.0
C1147 C 0.51128 0.35147 0.86571 0.0
C1148 C 0.51741 0.34931 0.93271 0.0
H1149 H 0.48633 0.47011 0.73717 0.0
H1150 H 0.48546 0.43796 0.78413 0.0
C1151 C 0.51496 0.33183 0.96705 0.0
C1152 C 0.51266 0.37087 0.83108 0.0
H1153 H 0.54213 0.41018 0.81116 0.0
C1154 C 0.49642 0.3783 0.79753 0.0
C1155 C 0.5296 0.38243 0.83264 0.0
C1156 C 0.54844 0.375 0.86 0.0
C1157 C 0.49648 0.39678 0.76752 0.0
C1158 C 0.51293 0.409 0.77411 0.0
C1159 C 0.52929 0.40133 0.80631 0.0
C1160 C 0.51371 0.42954 0.7479 0.0
C1161 C 0.47898 0.40252 0.72728 0.0
C1162 C 0.53033 0.43675 0.71537 0.0
C1163 C 0.53141 0.456 0.69321 0.0
C1164 C 0.51572 0.46865 0.70118 0.0
C1165 C 0.49897 0.46129 0.73195 0.0
C1166 C 0.49823 0.44239 0.75708 0.0
H1167 H 0.47161 0.38968 0.70576 0.0
H1168 H 0.46848 0.40979 0.76082 0.0
H1169 H 0.48279 0.41234 0.68536 0.0
H1170 H 0.54261 0.42746 0.70686 0.0
H1171 H 0.54454 0.46091 0.66917 0.0
H1172 H 0.22094 0.47408 0.90921 0.0
H1173 H 0.19033 0.47893 0.85084 0.0
H1174 H 0.1992 0.54036 0.85773 0.0
H1175 H 0.22996 0.53551 0.9173 0.0
H1176 H 0.15897 0.49902 0.90725 0.0
H1177 H 0.17998 0.53128 0.66281 0.0
H1178 H 0.19681 0.51823 0.71483 0.0
H1179 H 0.19023 0.54247 0.73623 0.0
C1180 C 0.21673 0.48864 0.89641 0.0
C1181 C 0.22817 0.50438 0.91749 0.0
C1182 C 0.19904 0.49141 0.86347 0.0
C1183 C 0.19222 0.51001 0.84951 0.0
C1184 C 0.20411 0.52581 0.86691 0.0
H1185 H 0.08238 0.55146 0.6805 0.0
H1186 H 0.11515 0.54842 0.72503 0.0
C1187 C 0.22186 0.52303 0.90053 0.0
C1188 C 0.17215 0.51266 0.82172 0.0
H1189 H 0.14665 0.52966 0.68668 0.0
C1190 C 0.15632 0.50571 0.85893 0.0
C1191 C 0.16845 0.52145 0.75883 0.0
C1192 C 0.18472 0.52868 0.71535 0.0
C1193 C 0.13713 0.50749 0.83574 0.0
C1194 C 0.13343 0.51602 0.77221 0.0
C1195 C 0.14926 0.52309 0.7352 0.0
C1196 C 0.11332 0.51774 0.7435 0.0
C1197 C 0.121 0.50064 0.88078 0.0
C1198 C 0.10119 0.50152 0.73692 0.0
C1199 C 0.08239 0.50323 0.71107 0.0
C1200 C 0.07504 0.52122 0.69076 0.0
C1201 C 0.08735 0.53737 0.69582 0.0
C1202 C 0.1062 0.53564 0.72147 0.0
H1203 H 0.12552 0.50037 0.93433 0.0
H1204 H 0.10808 0.50996 0.87624 0.0
H1205 H 0.11688 0.48574 0.86637 0.0
H1206 H 0.1063 0.48739 0.75119 0.0
H1207 H 0.07367 0.49035 0.70657 0.0
H1208 H 0.9669 0.82356 0.32474 0.0
H1209 H 0.97142 0.85411 0.38347 0.0
H1210 H 0.03089 0.83966 0.42029 0.0
H1211 H 0.02654 0.80925 0.358 0.0
H1212 H 0.98037 0.86695 0.50119 0.0
H1213 H 0.03944 0.88997 0.33143 0.0
H1214 H 0.02577 0.86824 0.31681 0.0
H1215 H 0.04489 0.86861 0.37807 0.0
C1216 C 0.98088 0.82667 0.34657 0.0
C1217 C 0.99635 0.81383 0.33639 0.0
C1218 C 0.9835 0.84431 0.38002 0.0
C1219 C 1.00169 0.8498 0.40492 0.0
C1220 C 0.01685 0.8363 0.39966 0.0
H1221 H 0.04235 0.96065 0.57191 0.0
H1222 H 0.03917 0.92723 0.53406 0.0
C1223 C 0.01426 0.81862 0.36532 0.0
C1224 C 1.00454 0.86979 0.43401 0.0
H1225 H 0.03123 0.9113 0.4189 0.0
C1226 C 0.99155 0.87658 0.48307 0.0
C1227 C 0.01903 0.88269 0.41085 0.0
C1228 C 0.03296 0.87712 0.35597 0.0
C1229 C 0.99271 0.89547 0.50964 0.0
C1230 C 1.00707 0.90842 0.48591 0.0
C1231 C 0.0202 0.90158 0.43751 0.0
C1232 C 1.00878 0.92903 0.51023 0.0
C1233 C 0.97867 0.90112 0.56409 0.0
C1234 C 0.99289 0.94163 0.50946 0.0
C1235 C 0.9946 0.96074 0.53262 0.0
C1236 C 1.0124 0.96816 0.55517 0.0
C1237 C 0.02837 0.95563 0.5549 0.0
C1238 C 0.02658 0.93641 0.53291 0.0
H1239 H 0.97317 0.88831 0.59151 0.0
H1240 H 0.98538 0.91112 0.60098 0.0
H1241 H 0.9661 0.90839 0.54092 0.0
H1242 H 0.97908 0.93677 0.49054 0.0
H1243 H 0.98188 0.96966 0.53291 0.0
H1244 H 0.71495 0.97474 0.29411 0.0
H1245 H 0.68492 0.97895 0.3553 0.0
H1246 H 0.70688 0.03167 0.44152 0.0
H1247 H 0.7368 0.02806 0.37592 0.0
H1248 H 0.67232 0.98021 0.47388 0.0
H1249 H 0.65852 0.05298 0.37035 0.0
H1250 H 0.6784 0.03843 0.34206 0.0
H1251 H 0.68008 0.05174 0.41969 0.0
C1252 C 0.71354 0.98721 0.32654 0.0
C1253 C 0.72837 1.00119 0.32892 0.0
C1254 C 0.6962 0.98963 0.36182 0.0
C1255 C 0.69298 1.00601 0.40192 0.0
C1256 C 0.70841 0.01926 0.40905 0.0
H1257 H 0.58865 0.01469 0.65906 0.0
H1258 H 0.62186 1.01148 0.61795 0.0
C1259 C 0.72581 0.01698 0.37258 0.0
C1260 C 0.67334 1.00904 0.43391 0.0
H1261 H 0.63563 0.04087 0.44725 0.0
C1262 C 0.66445 0.99357 0.46812 0.0
C1263 C 0.66254 0.02629 0.42613 0.0
C1264 C 0.67026 0.04324 0.38704 0.0
C1265 C 0.64548 0.99483 0.49397 0.0
C1266 C 0.63492 1.01215 0.48713 0.0
C1267 C 0.6437 0.02763 0.45327 0.0
C1268 C 0.61455 0.01421 0.51274 0.0
C1269 C 0.63656 0.97731 0.52643 0.0
C1270 C 0.59916 0.01706 0.46783 0.0
C1271 C 0.58008 0.01876 0.49124 0.0
C1272 C 0.57578 0.01796 0.56049 0.0
C1273 C 0.59126 0.01536 0.60547 0.0
C1274 C 0.61034 1.01344 0.58192 0.0
H1275 H 0.64506 0.96406 0.5167 0.0
H1276 H 0.63579 0.97957 0.58157 0.0
H1277 H 0.62164 0.97503 0.50771 0.0
H1278 H 0.60188 0.01776 0.4143 0.0
H1279 H 0.56867 0.02082 0.45483 0.0
H1280 H 0.50929 0.74055 0.38523 0.0
H1281 H 0.50709 0.70976 0.4458 0.0
H1282 H 0.56596 0.69731 0.39212 0.0
H1283 H 0.56833 0.7283 0.33524 0.0
H1284 H 0.50775 0.6755 0.39985 0.0
H1285 H 0.56941 0.6775 0.57478 0.0
H1286 H 0.56155 0.69871 0.5306 0.0
H1287 H 0.57727 0.68153 0.49033 0.0
C1288 C 0.52208 0.73175 0.38985 0.0
C1289 C 0.53924 0.73744 0.35757 0.0
C1290 C 0.52074 0.71384 0.42343 0.0
C1291 C 0.53644 0.7009 0.42529 0.0
C1292 C 0.55374 0.70693 0.39457 0.0
H1293 H 0.55269 0.57847 0.52754 0.0
H1294 H 0.55562 0.6117 0.48784 0.0
C1295 C 0.55515 0.72488 0.36196 0.0
C1296 C 0.53423 0.68063 0.45356 0.0
H1297 H 0.55606 0.6463 0.5519 0.0
C1298 C 0.51825 0.66933 0.43384 0.0
C1299 C 0.54788 0.67203 0.49765 0.0
C1300 C 0.56487 0.68316 0.52506 0.0
C1301 C 0.51578 0.65 0.45522 0.0
C1302 C 0.52951 0.64139 0.49867 0.0
C1303 C 0.54547 0.65264 0.51855 0.0
C1304 C 0.52763 0.62082 0.52359 0.0
C1305 C 0.49867 0.6388 0.42905 0.0
C1306 C 0.51104 0.61447 0.55809 0.0
C1307 C 0.50916 0.59521 0.57976 0.0
C1308 C 0.52394 0.58164 0.56892 0.0
C1309 C 0.54077 0.58817 0.53603 0.0
C1310 C 0.54255 0.60738 0.51363 0.0
H1311 H 0.49274 0.64529 0.38245 0.0
H1312 H 0.50255 0.62359 0.41842 0.0
H1313 H 0.48708 0.63891 0.46747 0.0
H1314 H 0.49946 0.62444 0.56871 0.0
H1315 H 0.49605 0.59096 0.60514 0.0
H1316 H 0.81281 0.57511 0.35068 0.0
H1317 H 0.84427 0.57225 0.40614 0.0
H1318 H 0.83735 0.51056 0.41249 0.0
H1319 H 0.80608 0.51346 0.35552 0.0
H1320 H 0.85965 0.55833 0.52114 0.0
H1321 H 0.88685 0.51443 0.3091 0.0
H1322 H 0.86376 0.52624 0.30657 0.0
H1323 H 0.86647 0.50367 0.35 0.0
C1324 C 0.81764 0.56099 0.36641 0.0
C1325 C 0.80658 0.54455 0.3502 0.0
C1326 C 0.83584 0.55932 0.39741 0.0
C1327 C 0.84368 0.54113 0.41232 0.0
C1328 C 0.83205 0.52477 0.40024 0.0
H1329 H 0.95607 0.50026 0.55735 0.0
H1330 H 0.92266 0.50374 0.51935 0.0
C1331 C 0.81387 0.52645 0.36901 0.0
C1332 C 0.86423 0.53929 0.43723 0.0
H1333 H 0.90768 0.51785 0.40269 0.0
C1334 C 0.87012 0.54949 0.49501 0.0
C1335 C 0.87822 0.52793 0.40331 0.0
C1336 C 0.87361 0.5176 0.33845 0.0
C1337 C 0.88916 0.54824 0.52048 0.0
C1338 C 0.90305 0.53671 0.48692 0.0
C1339 C 0.89719 0.52661 0.42902 0.0
C1340 C 0.92363 0.5348 0.51096 0.0
C1341 C 0.89405 0.55894 0.58432 0.0
C1342 C 0.93574 0.551 0.51851 0.0
C1343 C 0.95493 0.54904 0.54065 0.0
C1344 C 0.96276 0.53078 0.55522 0.0
C1345 C 0.95068 0.51457 0.547 0.0
C1346 C 0.93148 0.51655 0.52497 0.0
H1347 H 0.88092 0.56263 0.61353 0.0
H1348 H 0.90378 0.55032 0.61673 0.0
H1349 H 0.90153 0.5726 0.57141 0.0
H1350 H 0.93041 0.56524 0.50676 0.0
H1351 H 0.9636 0.56191 0.54672 0.0
loop_
_geom_bond_atom_site_label_1
_geom_bond_atom_site_label_2
_geom_bond_distance
_geom_bond_site_symmetry_2
_ccdc_geom_bond_type
H0 C1 0.949 . S
C1 H0 0.949 . S
C1 C2 1.395 . S
C1 C3 1.391 . S
C2 C1 1.395 . S
C2 C5 1.390 . S
C3 C1 1.391 . S
C3 C7 1.387 . S
C3 C8 1.491 . S
H4 C5 0.950 . S
C5 C2 1.390 . S
C5 H4 0.950 . S
C5 C6 1.378 . S
C6 C5 1.378 . S
C6 C7 1.409 . S
C7 C3 1.387 . S
C7 C6 1.409 . S
C7 H9 0.951 . S
C8 C3 1.491 . S
C8 C10 1.382 . S
C8 C12 1.404 . S
H9 C7 0.951 . S
C10 C8 1.382 . S
C10 C11 1.390 . S
C10 H15 0.949 . S
C11 C10 1.390 . S
C11 C16 1.399 . S
C12 C8 1.404 . S
C12 H13 0.950 . S
C12 C14 1.375 . S
H13 C12 0.950 . S
C14 C12 1.375 . S
C14 C16 1.382 . S
C14 H18 0.950 . S
H15 C10 0.949 . S
C16 C11 1.399 . S
C16 C14 1.382 . S
C16 H17 0.952 . S
H17 C16 0.952 . S
H18 C14 0.950 . S
H19 C20 0.949 . S
C20 H19 0.949 . S
C20 C21 1.395 . S
C20 C22 1.391 . S
C21 C20 1.395 . S
C21 C24 1.390 . S
C22 C20 1.391 . S
C22 C26 1.387 . S
C22 C27 1.491 . S
H23 C24 0.950 . S
C24 C21 1.390 . S
C24 H23 0.950 . S
C24 C25 1.378 . S
C25 C24 1.378 . S
C25 C26 1.409 . S
C26 C22 1.387 . S
C26 C25 1.409 . S
C26 H28 0.951 . S
C27 C22 1.491 . S
C27 C29 1.382 . S
C27 C31 1.404 . S
H28 C26 0.951 . S
C29 C27 1.382 . S
C29 C30 1.390 . S
C29 H34 0.949 . S
C30 C29 1.390 . S
C30 C35 1.399 . S
C31 C27 1.404 . S
C31 H32 0.950 . S
C31 C33 1.375 . S
H32 C31 0.950 . S
C33 C31 1.375 . S
C33 C35 1.382 . S
C33 H37 0.950 . S
H34 C29 0.949 . S
C35 C30 1.399 . S
C35 C33 1.382 . S
C35 H36 0.952 . S
H36 C35 0.952 . S
H37 C33 0.950 . S
H38 C39 0.949 . S
C39 H38 0.949 . S
C39 C40 1.395 . S
C39 C41 1.391 . S
C40 C39 1.395 . S
C40 C43 1.390 . S
C41 C39 1.391 . S
C41 C45 1.387 . S
C41 C46 1.491 . S
H42 C43 0.950 . S
C43 C40 1.390 . S
C43 H42 0.950 . S
C43 C44 1.378 . S
C44 C43 1.378 . S
C44 C45 1.409 . S
C45 C41 1.387 . S
C45 C44 1.409 . S
C45 H47 0.951 . S
C46 C41 1.491 . S
C46 C48 1.382 . S
C46 C50 1.404 . S
H47 C45 0.951 . S
C48 C46 1.382 . S
C48 C49 1.390 . S
C48 H53 0.949 . S
C49 C48 1.390 . S
C49 C54 1.399 . S
C50 C46 1.404 . S
C50 H51 0.950 . S
C50 C52 1.375 . S
H51 C50 0.950 . S
C52 C50 1.375 . S
C52 C54 1.382 . S
C52 H56 0.950 . S
H53 C48 0.949 . S
C54 C49 1.399 . S
C54 C52 1.382 . S
C54 H55 0.952 . S
H55 C54 0.952 . S
H56 C52 0.950 . S
H57 C58 0.949 . S
C58 H57 0.949 . S
C58 C59 1.395 . S
C58 C60 1.391 . S
C59 C58 1.395 . S
C59 C62 1.390 . S
C60 C58 1.391 . S
C60 C64 1.387 . S
C60 C65 1.491 . S
H61 C62 0.950 . S
C62 C59 1.390 . S
C62 H61 0.950 . S
C62 C63 1.378 . S
C63 C62 1.378 . S
C63 C64 1.409 . S
C64 C60 1.387 . S
C64 C63 1.409 . S
C64 H66 0.951 . S
C65 C60 1.491 . S
C65 C67 1.382 . S
C65 C69 1.404 . S
H66 C64 0.951 . S
C67 C65 1.382 . S
C67 C68 1.390 . S
C67 H72 0.949 . S
C68 C67 1.390 . S
C68 C73 1.399 . S
C69 C65 1.404 . S
C69 H70 0.950 . S
C69 C71 1.375 . S
H70 C69 0.950 . S
C71 C69 1.375 . S
C71 C73 1.382 . S
C71 H75 0.950 . S
H72 C67 0.949 . S
C73 C68 1.399 . S
C73 C71 1.382 . S
C73 H74 0.952 . S
H74 C73 0.952 . S
H75 C71 0.950 . S
H76 C77 0.949 . S
C77 H76 0.949 . S
C77 C78 1.395 . S
C77 C79 1.391 . S
C78 C77 1.395 . S
C78 C81 1.390 . S
C79 C77 1.391 . S
C79 C83 1.387 1_554 S
C79 C84 1.491 . S
H80 C81 0.950 1_556 S
C81 C78 1.390 . S
C81 H80 0.950 1_554 S
C81 C82 1.378 1_554 S
C82 C81 1.378 1_556 S
C82 C83 1.409 . S
C83 C79 1.387 1_556 S
C83 C82 1.409 . S
C83 H85 0.951 . S
C84 C79 1.491 . S
C84 C86 1.382 . S
C84 C88 1.404 1_554 S
H85 C83 0.951 . S
C86 C84 1.382 . S
C86 C87 1.390 . S
C86 H91 0.949 . S
C87 C86 1.390 . S
C87 C92 1.399 . S
C88 C84 1.404 1_556 S
C88 H89 0.950 . S
C88 C90 1.375 . S
H89 C88 0.950 . S
C90 C88 1.375 . S
C90 C92 1.382 1_556 S
C90 H94 0.950 . S
H91 C86 0.949 . S
C92 C87 1.399 . S
C92 C90 1.382 1_554 S
C92 H93 0.952 . S
H93 C92 0.952 . S
H94 C90 0.950 . S
H95 C96 0.949 . S
C96 H95 0.949 . S
C96 C97 1.395 . S
C96 C98 1.391 . S
C97 C96 1.395 . S
C97 C100 1.390 . S
C98 C96 1.391 . S
C98 C102 1.387 1_554 S
C98 C103 1.491 . S
H99 C100 0.950 . S
C100 C97 1.390 . S
C100 H99 0.950 . S
C100 C101 1.378 1_554 S
C101 C100 1.378 1_556 S
C101 C102 1.409 . S
C102 C98 1.387 1_556 S
C102 C101 1.409 . S
C102 H104 0.951 . S
C103 C98 1.491 . S
C103 C105 1.382 . S
C103 C107 1.404 1_554 S
H104 C102 0.951 . S
C105 C103 1.382 . S
C105 C106 1.390 . S
C105 H110 0.949 . S
C106 C105 1.390 . S
C106 C111 1.399 . S
C107 C103 1.404 1_556 S
C107 H108 0.950 . S
C107 C109 1.375 . S
H108 C107 0.950 . S
C109 C107 1.375 . S
C109 C111 1.382 1_556 S
C109 H113 0.950 . S
H110 C105 0.949 . S
C111 C106 1.399 . S
C111 C109 1.382 1_554 S
C111 H112 0.952 . S
H112 C111 0.952 . S
H113 C109 0.950 . S
H114 C115 0.949 . S
C115 H114 0.949 . S
C115 C116 1.395 . S
C115 C117 1.391 . S
C116 C115 1.395 . S
C116 C119 1.390 . S
C117 C115 1.391 . S
C117 C121 1.387 1_554 S
C117 C122 1.491 . S
H118 C119 0.950 . S
C119 C116 1.390 . S
C119 H118 0.950 . S
C119 C120 1.378 1_554 S
C120 C119 1.378 1_556 S
C120 C121 1.409 . S
C121 C117 1.387 1_556 S
C121 C120 1.409 . S
C121 H123 0.951 . S
C122 C117 1.491 . S
C122 C124 1.382 . S
C122 C126 1.404 1_554 S
H123 C121 0.951 . S
C124 C122 1.382 . S
C124 C125 1.390 . S
C124 H129 0.949 . S
C125 C124 1.390 . S
C125 C130 1.399 . S
C126 C122 1.404 1_556 S
C126 H127 0.950 . S
C126 C128 1.375 . S
H127 C126 0.950 . S
C128 C126 1.375 . S
C128 C130 1.382 1_556 S
C128 H132 0.950 . S
H129 C124 0.949 . S
C130 C125 1.399 . S
C130 C128 1.382 1_554 S
C130 H131 0.952 . S
H131 C130 0.952 . S
H132 C128 0.950 . S
H133 C134 0.949 . S
C134 H133 0.949 . S
C134 C135 1.395 . S
C134 C136 1.391 . S
C135 C134 1.395 . S
C135 C138 1.383 1_554 S
C136 C134 1.391 . S
C136 C140 1.387 1_554 S
C136 C141 1.491 . S
H137 C138 0.950 . S
C138 C135 1.383 1_556 S
C138 H137 0.950 . S
C138 C139 1.385 . S
C139 C138 1.385 . S
C139 C140 1.409 . S
C140 C136 1.387 1_556 S
C140 C139 1.409 . S
C140 H142 0.951 . S
C141 C136 1.491 . S
C141 C143 1.382 . S
C141 C145 1.404 1_554 S
H142 C140 0.951 . S
C143 C141 1.382 . S
C143 C144 1.390 . S
C143 H148 0.949 . S
C144 C143 1.390 . S
C144 C149 1.399 . S
C145 C141 1.404 1_556 S
C145 H146 0.950 . S
C145 C147 1.375 . S
H146 C145 0.950 . S
C147 C145 1.375 . S
C147 C149 1.382 1_556 S
C147 H151 0.950 . S
H148 C143 0.949 . S
C149 C144 1.399 . S
C149 C147 1.382 1_554 S
C149 H150 0.952 . S
H150 C149 0.952 . S
H151 C147 0.950 . S
Eu152 N181 2.600 . S
Eu152 N187 2.562 . S
Eu152 O196 2.462 1_655 S
Eu152 O197 2.373 1_545 S
Eu152 O199 2.432 . S
Eu152 O200 2.291 1_655 S
Eu152 O204 2.335 1_655 S
Eu152 O207 2.372 . S
Eu152 C216 2.787 . S
C153 N154 1.365 . S
C153 C156 1.405 . S
C153 C160 1.448 . S
N154 C153 1.365 . S
N154 C157 1.319 . S
N154 Eu163 2.600 1_545 S
C155 C157 1.397 . S
C155 C158 1.367 . S
C155 H175 0.931 . S
C156 C153 1.405 . S
C156 C158 1.403 . S
C156 C162 1.439 . S
C157 N154 1.319 . S
C157 C155 1.397 . S
C157 H168 0.930 1_545 S
C158 C155 1.367 . S
C158 C156 1.403 . S
C158 H179 0.929 . S
C159 C160 1.430 . S
C159 C161 1.387 . S
C159 C165 1.404 . S
C160 C153 1.448 . S
C160 C159 1.430 . S
C160 N164 1.351 . S
C161 C159 1.387 . S
C161 C162 1.374 . S
C161 H176 0.931 . S
C162 C156 1.439 . S
C162 C161 1.374 . S
C162 H177 0.931 . S
Eu163 N154 2.600 1_565 S
Eu163 N164 2.562 1_565 S
Eu163 O198 2.335 . S
Eu163 O201 2.372 1_565 S
Eu163 O202 2.462 . S
Eu163 O203 2.373 1_565 S
Eu163 O205 2.432 . S
Eu163 O206 2.291 1_465 S
Eu163 C227 2.787 . S
N164 C160 1.351 . S
N164 Eu163 2.562 1_545 S
N164 C166 1.325 . S
C165 C159 1.404 . S
C165 C167 1.366 . S
C165 H173 0.930 . S
C166 N164 1.325 . S
C166 C167 1.416 . S
C166 H172 0.929 1_455 S
C167 C165 1.366 . S
C167 C166 1.416 . S
C167 H169 0.930 1_455 S
H168 C157 0.930 1_565 S
H169 C167 0.930 1_655 S
H170 C185 0.930 . S
H171 C192 0.936 . S
H172 C166 0.929 1_655 S
H173 C165 0.930 . S
H174 C188 0.929 . S
H175 C155 0.931 . S
H176 C161 0.931 . S
H177 C162 0.931 . S
H178 C183 0.931 . S
H179 C158 0.929 . S
H180 C191 0.930 . S
N181 Eu152 2.600 . S
N181 C182 1.365 . S
N181 C185 1.319 . S
C182 N181 1.365 . S
C182 C184 1.426 . S
C182 C190 1.448 . S
C183 H178 0.931 . S
C183 C185 1.397 . S
C183 C186 1.367 . S
C184 C182 1.426 . S
C184 C186 1.411 . S
C184 C217 1.416 1_545 S
C185 H170 0.930 . S
C185 N181 1.319 . S
C185 C183 1.397 . S
C186 C183 1.367 . S
C186 C184 1.411 . S
C186 H193 0.913 1_545 S
N187 Eu152 2.562 . S
N187 C188 1.325 1_655 S
N187 C190 1.351 . S
C188 H174 0.929 . S
C188 N187 1.325 1_455 S
C188 C192 1.416 . S
C189 C190 1.430 1_565 S
C189 C191 1.404 . S
C189 C218 1.387 . S
C190 C182 1.448 . S
C190 N187 1.351 . S
C190 C189 1.430 1_545 S
C191 H180 0.930 . S
C191 C189 1.404 . S
C191 C192 1.366 1_665 S
C192 H171 0.936 . S
C192 C188 1.416 . S
C192 C191 1.366 1_445 S
H193 C186 0.913 1_565 S
H194 C217 0.931 . S
H195 C218 0.931 . S
O196 Eu152 2.462 1_455 S
O196 C216 1.252 1_455 S
O197 Eu152 2.373 1_565 S
O197 C208 1.249 . S
O198 Eu163 2.335 . S
O198 C208 1.264 1_455 S
O199 Eu152 2.432 . S
O199 C216 1.268 . S
O200 Eu152 2.291 1_455 S
O200 C215 1.255 . S
O201 Eu163 2.372 1_545 S
O201 C215 1.257 . S
O202 Eu163 2.462 . S
O202 C227 1.252 . S
O203 Eu163 2.373 1_545 S
O203 C219 1.249 . S
O204 Eu152 2.335 1_455 S
O204 C219 1.264 . S
O205 Eu163 2.432 . S
O205 C227 1.268 . S
O206 Eu163 2.291 1_645 S
O206 C226 1.255 . S
O207 Eu152 2.372 . S
O207 C226 1.257 . S
C208 O197 1.249 . S
C208 O198 1.264 1_655 S
C209 C212 1.382 . S
C209 C214 1.390 1_655 S
C209 C216 1.506 . S
C210 C211 1.398 1_455 S
C210 C214 1.392 . S
C211 C210 1.398 1_655 S
C211 C213 1.372 . S
C211 H228 0.931 . S
C212 C209 1.382 . S
C212 C213 1.390 . S
C212 H229 0.931 . S
C213 C211 1.372 . S
C213 C212 1.390 . S
C213 H230 0.929 . S
C214 C209 1.390 1_455 S
C214 C210 1.392 . S
C214 H231 0.930 . S
C215 O200 1.255 . S
C215 O201 1.257 . S
C216 Eu152 2.787 . S
C216 O196 1.252 1_655 S
C216 O199 1.268 . S
C216 C209 1.506 . S
C217 C184 1.416 1_565 S
C217 H194 0.931 . S
C217 C218 1.374 . S
C218 C189 1.387 . S
C218 H195 0.931 . S
C218 C217 1.374 . S
C219 O203 1.249 . S
C219 O204 1.264 . S
C220 C223 1.382 . S
C220 C224 1.390 . S
C220 C227 1.506 . S
C221 C222 1.398 . S
C221 C224 1.392 . S
C222 C221 1.398 . S
C222 C225 1.372 . S
C222 H232 0.931 . S
C223 C220 1.382 . S
C223 C225 1.390 . S
C223 H233 0.931 . S
C224 C220 1.390 . S
C224 C221 1.392 . S
C224 H234 0.930 1_455 S
C225 C222 1.372 . S
C225 C223 1.390 . S
C225 H235 0.929 . S
C226 O206 1.255 . S
C226 O207 1.257 . S
C227 Eu163 2.787 . S
C227 O202 1.252 . S
C227 O205 1.268 . S
C227 C220 1.506 . S
H228 C211 0.931 . S
H229 C212 0.931 . S
H230 C213 0.929 . S
H231 C214 0.930 . S
H232 C222 0.931 . S
H233 C223 0.931 . S
H234 C224 0.930 1_655 S
H235 C225 0.929 . S
Eu236 N265 2.600 . S
Eu236 N271 2.562 . S
Eu236 O280 2.462 . S
Eu236 O281 2.373 . S
Eu236 O283 2.432 . S
Eu236 O284 2.291 . S
Eu236 O288 2.335 1_545 S
Eu236 O291 2.372 . S
Eu236 C300 2.787 . S
C237 N238 1.365 . S
C237 C240 1.405 . S
C237 C244 1.448 . S
N238 C237 1.365 . S
N238 C241 1.319 . S
N238 Eu247 2.600 . S
C239 C241 1.397 . S
C239 C242 1.367 . S
C239 H259 0.931 . S
C240 C237 1.405 . S
C240 C242 1.403 . S
C240 C246 1.439 . S
C241 N238 1.319 . S
C241 C239 1.397 . S
C241 H252 0.930 . S
C242 C239 1.367 . S
C242 C240 1.403 . S
C242 H263 0.929 . S
C243 C244 1.430 . S
C243 C245 1.387 . S
C243 C249 1.404 . S
C244 C237 1.448 . S
C244 C243 1.430 . S
C244 N248 1.351 . S
C245 C243 1.387 . S
C245 C246 1.374 . S
C245 H260 0.931 . S
C246 C240 1.439 . S
C246 C245 1.374 . S
C246 H261 0.931 . S
Eu247 N238 2.600 . S
Eu247 N248 2.562 . S
Eu247 O282 2.335 1_565 S
Eu247 O285 2.379 . S
Eu247 O286 2.462 1_565 S
Eu247 O287 2.373 . S
Eu247 O289 2.432 . S
Eu247 O290 2.291 1_565 S
Eu247 C311 2.787 1_565 S
N248 C244 1.351 . S
N248 Eu247 2.562 . S
N248 C250 1.325 . S
C249 C243 1.404 . S
C249 C251 1.366 . S
C249 H257 0.930 . S
C250 N248 1.325 . S
C250 C251 1.416 . S
C250 H256 0.929 . S
C251 C249 1.366 . S
C251 C250 1.416 . S
C251 H253 0.930 . S
H252 C241 0.930 . S
H253 C251 0.930 . S
H254 C269 0.930 . S
H255 C276 0.930 . S
H256 C250 0.929 . S
H257 C249 0.930 . S
H258 C272 0.929 . S
H259 C239 0.931 . S
H260 C245 0.931 . S
H261 C246 0.931 . S
H262 C267 0.931 . S
H263 C242 0.929 . S
H264 C275 0.930 . S
N265 Eu236 2.600 . S
N265 C266 1.365 . S
N265 C269 1.319 . S
C266 N265 1.365 . S
C266 C268 1.405 . S
C266 C274 1.448 . S
C267 H262 0.931 . S
C267 C269 1.397 . S
C267 C270 1.367 . S
C268 C266 1.405 . S
C268 C270 1.403 . S
C268 C301 1.439 . S
C269 H254 0.930 . S
C269 N265 1.319 . S
C269 C267 1.397 . S
C270 C267 1.367 . S
C270 C268 1.403 . S
C270 H277 0.929 . S
N271 Eu236 2.562 . S
N271 C272 1.325 . S
N271 C274 1.351 . S
C272 H258 0.929 . S
C272 N271 1.325 . S
C272 C276 1.416 . S
C273 C274 1.430 . S
C273 C275 1.404 . S
C273 C302 1.387 . S
C274 C266 1.448 . S
C274 N271 1.351 . S
C274 C273 1.430 . S
C275 H264 0.930 . S
C275 C273 1.404 . S
C275 C276 1.366 . S
C276 H255 0.930 . S
C276 C272 1.416 . S
C276 C275 1.366 . S
H277 C270 0.929 . S
H278 C301 0.931 . S
H279 C302 0.931 . S
O280 Eu236 2.462 . S
O280 C300 1.252 . S
O281 Eu236 2.373 . S
O281 C292 1.249 . S
O282 Eu247 2.335 1_545 S
O282 C292 1.264 . S
O283 Eu236 2.432 . S
O283 C300 1.268 . S
O284 Eu236 2.291 . S
O284 C299 1.255 . S
O285 Eu247 2.379 . S
O285 C299 1.238 1_565 S
O286 Eu247 2.462 1_545 S
O286 C311 1.252 . S
O287 Eu247 2.373 . S
O287 C303 1.249 . S
O288 Eu236 2.335 1_565 S
O288 C303 1.264 . S
O289 Eu247 2.432 . S
O289 C311 1.268 1_565 S
O290 Eu247 2.291 1_545 S
O290 C310 1.255 . S
O291 Eu236 2.372 . S
O291 C310 1.257 . S
C292 O281 1.249 . S
C292 O282 1.264 . S
C293 C296 1.382 . S
C293 C298 1.390 . S
C293 C300 1.506 . S
C294 C295 1.398 . S
C294 C298 1.392 . S
C295 C294 1.398 . S
C295 C297 1.372 . S
C295 H312 0.931 . S
C296 C293 1.382 . S
C296 C297 1.390 . S
C296 H313 0.931 . S
C297 C295 1.372 . S
C297 C296 1.390 . S
C297 H314 0.929 1_556 S
C298 C293 1.390 . S
C298 C294 1.392 . S
C298 H315 0.930 . S
C299 O284 1.255 . S
C299 O285 1.238 1_545 S
C300 Eu236 2.787 . S
C300 O280 1.252 . S
C300 O283 1.268 . S
C300 C293 1.506 . S
C301 C268 1.439 . S
C301 H278 0.931 . S
C301 C302 1.374 . S
C302 C273 1.387 . S
C302 H279 0.931 . S
C302 C301 1.374 . S
C303 O287 1.249 . S
C303 O288 1.264 . S
C304 C307 1.389 . S
C304 C308 1.390 . S
C304 C311 1.506 . S
C305 C306 1.398 . S
C305 C308 1.392 . S
C306 C305 1.398 . S
C306 C309 1.372 . S
C306 H316 0.931 . S
C307 C304 1.389 . S
C307 C309 1.395 . S
C307 H317 0.921 1_545 S
C308 C304 1.390 . S
C308 C305 1.392 . S
C308 H318 0.930 . S
C309 C306 1.372 . S
C309 C307 1.395 . S
C309 H319 0.937 . S
C310 O290 1.255 . S
C310 O291 1.257 . S
C311 Eu247 2.787 1_545 S
C311 O286 1.252 . S
C311 O289 1.268 1_545 S
C311 C304 1.506 . S
H312 C295 0.931 . S
H313 C296 0.931 . S
H314 C297 0.929 1_554 S
H315 C298 0.930 . S
H316 C306 0.931 . S
H317 C307 0.921 1_565 S
H318 C308 0.930 . S
H319 C309 0.937 . S
Eu320 N349 2.600 . S
Eu320 N355 2.562 . S
Eu320 O364 2.462 . S
Eu320 O365 2.373 . S
Eu320 O367 2.432 . S
Eu320 O368 2.291 . S
Eu320 O372 2.335 . S
Eu320 O375 2.372 . S
Eu320 C384 2.787 . S
C321 N322 1.365 . S
C321 C324 1.405 . S
C321 C328 1.448 . S
N322 C321 1.365 . S
N322 C325 1.319 . S
N322 Eu331 2.600 . S
C323 C325 1.397 . S
C323 C326 1.367 . S
C323 H343 0.931 . S
C324 C321 1.405 . S
C324 C326 1.403 . S
C324 C330 1.439 . S
C325 N322 1.319 . S
C325 C323 1.397 . S
C325 H336 0.930 . S
C326 C323 1.367 . S
C326 C324 1.403 . S
C326 H347 0.929 . S
C327 C328 1.430 . S
C327 C329 1.387 . S
C327 C333 1.404 . S
C328 C321 1.448 . S
C328 C327 1.430 . S
C328 N332 1.351 . S
C329 C327 1.387 . S
C329 C330 1.374 . S
C329 H344 0.931 . S
C330 C324 1.439 . S
C330 C329 1.374 . S
C330 H345 0.931 . S
Eu331 N322 2.600 . S
Eu331 N332 2.562 . S
Eu331 O366 2.335 . S
Eu331 O369 2.372 . S
Eu331 O370 2.462 . S
Eu331 O371 2.373 . S
Eu331 O373 2.432 . S
Eu331 O374 2.291 . S
Eu331 C395 2.787 . S
N332 C328 1.351 . S
N332 Eu331 2.562 . S
N332 C334 1.325 . S
C333 C327 1.404 . S
C333 C335 1.366 . S
C333 H341 0.930 . S
C334 N332 1.325 . S
C334 C335 1.416 . S
C334 H340 0.929 . S
C335 C333 1.366 . S
C335 C334 1.416 . S
C335 H337 0.930 . S
H336 C325 0.930 . S
H337 C335 0.930 . S
H338 C353 0.930 . S
H339 C360 0.930 . S
H340 C334 0.929 . S
H341 C333 0.930 . S
H342 C356 0.929 . S
H343 C323 0.931 . S
H344 C329 0.931 . S
H345 C330 0.931 . S
H346 C351 0.931 . S
H347 C326 0.929 . S
H348 C359 0.930 . S
N349 Eu320 2.600 . S
N349 C350 1.365 . S
N349 C353 1.319 . S
C350 N349 1.365 . S
C350 C352 1.405 . S
C350 C358 1.448 . S
C351 H346 0.931 . S
C351 C353 1.397 . S
C351 C354 1.367 . S
C352 C350 1.405 . S
C352 C354 1.403 . S
C352 C385 1.439 . S
C353 H338 0.930 . S
C353 N349 1.319 . S
C353 C351 1.397 . S
C354 C351 1.367 . S
C354 C352 1.403 . S
C354 H361 0.929 . S
N355 Eu320 2.562 . S
N355 C356 1.325 . S
N355 C358 1.351 . S
C356 H342 0.929 . S
C356 N355 1.325 . S
C356 C360 1.416 . S
C357 C358 1.430 . S
C357 C359 1.404 . S
C357 C386 1.387 . S
C358 C350 1.448 . S
C358 N355 1.351 . S
C358 C357 1.430 . S
C359 H348 0.930 . S
C359 C357 1.404 . S
C359 C360 1.366 . S
C360 H339 0.930 . S
C360 C356 1.416 . S
C360 C359 1.366 . S
H361 C354 0.929 . S
H362 C385 0.931 . S
H363 C386 0.931 . S
O364 Eu320 2.462 . S
O364 C384 1.252 . S
O365 Eu320 2.373 . S
O365 C376 1.249 . S
O366 Eu331 2.335 . S
O366 C376 1.264 . S
O367 Eu320 2.432 . S
O367 C384 1.268 . S
O368 Eu320 2.291 . S
O368 C383 1.255 . S
O369 Eu331 2.372 . S
O369 C383 1.257 . S
O370 Eu331 2.462 . S
O370 C395 1.252 . S
O371 Eu331 2.373 . S
O371 C387 1.249 . S
O372 Eu320 2.335 . S
O372 C387 1.264 . S
O373 Eu331 2.432 . S
O373 C395 1.268 . S
O374 Eu331 2.291 . S
O374 C394 1.255 . S
O375 Eu320 2.372 . S
O375 C394 1.257 . S
C376 O365 1.249 . S
C376 O366 1.264 . S
C377 C380 1.382 . S
C377 C382 1.390 . S
C377 C384 1.506 . S
C378 C379 1.398 . S
C378 C382 1.392 . S
C379 C378 1.398 . S
C379 C381 1.372 . S
C379 H396 0.931 . S
C380 C377 1.382 . S
C380 C381 1.390 . S
C380 H397 0.931 . S
C381 C379 1.372 . S
C381 C380 1.390 . S
C381 H398 0.929 . S
C382 C377 1.390 . S
C382 C378 1.392 . S
C382 H399 0.930 . S
C383 O368 1.255 . S
C383 O369 1.257 . S
C384 Eu320 2.787 . S
C384 O364 1.252 . S
C384 O367 1.268 . S
C384 C377 1.506 . S
C385 C352 1.439 . S
C385 H362 0.931 . S
C385 C386 1.374 . S
C386 C357 1.387 . S
C386 H363 0.931 . S
C386 C385 1.374 . S
C387 O371 1.249 . S
C387 O372 1.264 . S
C388 C391 1.382 . S
C388 C392 1.390 . S
C388 C395 1.506 . S
C389 C390 1.398 . S
C389 C392 1.392 . S
C390 C389 1.398 . S
C390 C393 1.372 . S
C390 H400 0.931 . S
C391 C388 1.382 . S
C391 C393 1.390 . S
C391 H401 0.931 . S
C392 C388 1.390 . S
C392 C389 1.392 . S
C392 H402 0.930 . S
C393 C390 1.372 . S
C393 C391 1.390 . S
C393 H403 0.929 . S
C394 O374 1.255 . S
C394 O375 1.257 . S
C395 Eu331 2.787 . S
C395 O370 1.252 . S
C395 O373 1.268 . S
C395 C388 1.506 . S
H396 C379 0.931 . S
H397 C380 0.931 . S
H398 C381 0.929 . S
H399 C382 0.930 . S
H400 C390 0.931 . S
H401 C391 0.931 . S
H402 C392 0.930 . S
H403 C393 0.929 . S
Eu404 N433 2.600 . S
Eu404 N439 2.562 . S
Eu404 O448 2.462 . S
Eu404 O449 2.373 1_455 S
Eu404 O451 2.432 . S
Eu404 O452 2.291 . S
Eu404 O456 2.335 . S
Eu404 O459 2.372 . S
Eu404 C468 2.787 . S
C405 N406 1.364 . S
C405 C408 1.405 . S
C405 C412 1.448 . S
N406 C405 1.364 . S
N406 C409 1.319 1_455 S
N406 Eu415 2.600 1_455 S
C407 C409 1.397 1_455 S
C407 C410 1.367 . S
C407 H427 0.931 . S
C408 C405 1.405 . S
C408 C410 1.403 . S
C408 C414 1.439 . S
C409 N406 1.319 1_655 S
C409 C407 1.397 1_655 S
C409 H420 0.930 . S
C410 C407 1.367 . S
C410 C408 1.403 . S
C410 H431 0.929 . S
C411 C412 1.430 . S
C411 C413 1.387 . S
C411 C417 1.404 . S
C412 C405 1.448 . S
C412 C411 1.430 . S
C412 N416 1.351 . S
C413 C411 1.387 . S
C413 C414 1.374 . S
C413 H428 0.931 . S
C414 C408 1.439 . S
C414 C413 1.374 . S
C414 H429 0.931 . S
Eu415 N406 2.600 1_655 S
Eu415 N416 2.562 1_655 S
Eu415 O450 2.335 . S
Eu415 O453 2.372 . S
Eu415 O454 2.462 . S
Eu415 O455 2.373 1_655 S
Eu415 O457 2.432 . S
Eu415 O458 2.291 1_655 S
Eu415 C479 2.787 . S
N416 C412 1.351 . S
N416 Eu415 2.562 1_455 S
N416 C418 1.325 . S
C417 C411 1.404 . S
C417 C419 1.366 . S
C417 H425 0.930 . S
C418 N416 1.325 . S
C418 C419 1.416 . S
C418 H424 0.929 . S
C419 C417 1.366 . S
C419 C418 1.416 . S
C419 H421 0.930 . S
H420 C409 0.930 . S
H421 C419 0.930 . S
H422 C437 0.930 . S
H423 C444 0.930 . S
H424 C418 0.929 . S
H425 C417 0.930 . S
H426 C440 0.929 . S
H427 C407 0.931 . S
H428 C413 0.931 . S
H429 C414 0.931 . S
H430 C435 0.931 . S
H431 C410 0.929 . S
H432 C443 0.930 . S
N433 Eu404 2.600 . S
N433 C434 1.365 . S
N433 C437 1.319 . S
C434 N433 1.365 . S
C434 C436 1.405 1_455 S
C434 C442 1.448 . S
C435 H430 0.931 . S
C435 C437 1.397 . S
C435 C438 1.363 1_455 S
C436 C434 1.405 1_655 S
C436 C438 1.405 . S
C436 C469 1.439 . S
C437 H422 0.930 . S
C437 N433 1.319 . S
C437 C435 1.397 . S
C438 C435 1.363 1_655 S
C438 C436 1.405 . S
C438 H445 0.932 . S
N439 Eu404 2.562 . S
N439 C440 1.325 . S
N439 C442 1.351 . S
C440 H426 0.929 . S
C440 N439 1.325 . S
C440 C444 1.416 1_455 S
C441 C442 1.430 1_655 S
C441 C443 1.404 . S
C441 C470 1.387 . S
C442 C434 1.448 . S
C442 N439 1.351 . S
C442 C441 1.430 1_455 S
C443 H432 0.930 . S
C443 C441 1.404 . S
C443 C444 1.366 . S
C444 H423 0.930 . S
C444 C440 1.416 1_655 S
C444 C443 1.366 . S
H445 C438 0.932 . S
H446 C469 0.931 . S
H447 C470 0.931 . S
O448 Eu404 2.462 . S
O448 C468 1.252 . S
O449 Eu404 2.373 1_655 S
O449 C460 1.249 . S
O450 Eu415 2.335 . S
O450 C460 1.264 . S
O451 Eu404 2.432 . S
O451 C468 1.268 . S
O452 Eu404 2.291 . S
O452 C467 1.255 . S
O453 Eu415 2.372 . S
O453 C467 1.257 1_655 S
O454 Eu415 2.462 . S
O454 C479 1.252 . S
O455 Eu415 2.373 1_455 S
O455 C471 1.249 . S
O456 Eu404 2.335 . S
O456 C471 1.264 . S
O457 Eu415 2.432 . S
O457 C479 1.268 . S
O458 Eu415 2.291 1_455 S
O458 C478 1.255 . S
O459 Eu404 2.372 . S
O459 C478 1.257 . S
C460 O449 1.249 . S
C460 O450 1.264 . S
C461 C464 1.382 . S
C461 C466 1.390 . S
C461 C468 1.506 . S
C462 C463 1.398 . S
C462 C466 1.392 . S
C463 C462 1.398 . S
C463 C465 1.372 . S
C463 H480 0.931 . S
C464 C461 1.382 . S
C464 C465 1.390 . S
C464 H481 0.931 . S
C465 C463 1.372 . S
C465 C464 1.390 . S
C465 H482 0.929 . S
C466 C461 1.390 . S
C466 C462 1.392 . S
C466 H483 0.930 . S
C467 O452 1.255 . S
C467 O453 1.257 1_455 S
C468 Eu404 2.787 . S
C468 O448 1.252 . S
C468 O451 1.268 . S
C468 C461 1.506 . S
C469 C436 1.439 . S
C469 H446 0.931 . S
C469 C470 1.374 . S
C470 C441 1.387 . S
C470 H447 0.931 . S
C470 C469 1.374 . S
C471 O455 1.249 . S
C471 O456 1.264 . S
C472 C475 1.382 . S
C472 C476 1.390 . S
C472 C479 1.506 . S
C473 C474 1.398 . S
C473 C476 1.392 . S
C474 C473 1.398 . S
C474 C477 1.372 . S
C474 H484 0.931 . S
C475 C472 1.382 . S
C475 C477 1.390 . S
C475 H485 0.931 . S
C476 C472 1.390 . S
C476 C473 1.392 . S
C476 H486 0.930 . S
C477 C474 1.372 . S
C477 C475 1.390 . S
C477 H487 0.929 . S
C478 O458 1.255 . S
C478 O459 1.257 . S
C479 Eu415 2.787 . S
C479 O454 1.252 . S
C479 O457 1.268 . S
C479 C472 1.506 . S
H480 C463 0.931 . S
H481 C464 0.931 . S
H482 C465 0.929 . S
H483 C466 0.930 . S
H484 C474 0.931 . S
H485 C475 0.931 . S
H486 C476 0.930 . S
H487 C477 0.929 . S
H488 C496 0.929 . S
H489 C498 0.930 . S
H490 C500 0.930 . S
H491 C503 0.929 . S
H492 C506 0.930 . S
H493 C508 0.960 . S
H494 C508 0.960 . S
H495 C508 0.960 . S
C496 H488 0.929 . S
C496 C497 1.377 . S
C496 C498 1.384 . S
C497 C496 1.377 . S
C497 C503 1.390 . S
C498 H489 0.930 . S
C498 C496 1.384 . S
C498 C499 1.372 . S
C499 C498 1.372 . S
C499 C500 1.400 . S
C499 C504 1.490 . S
C500 H490 0.930 . S
C500 C499 1.400 . S
C500 C503 1.386 . S
H501 C517 0.930 . S
H502 C518 0.931 . S
C503 H491 0.929 . S
C503 C497 1.390 . S
C503 C500 1.386 . S
C504 C499 1.490 . S
C504 C506 1.395 . S
C504 C507 1.403 . S
H505 C511 0.930 . S
C506 H492 0.930 . S
C506 C504 1.395 . S
C506 C509 1.403 . S
C507 C504 1.403 . S
C507 C508 1.524 . S
C507 C511 1.400 . S
C508 H493 0.960 . S
C508 H494 0.960 . S
C508 H495 0.960 . S
C508 C507 1.524 . S
C509 C506 1.403 . S
C509 C510 1.392 . S
C509 C513 1.495 1_545 S
C510 C509 1.392 . S
C510 C511 1.385 . S
C510 C512 1.478 . S
C511 H505 0.930 . S
C511 C507 1.400 . S
C511 C510 1.385 . S
C512 C510 1.478 . S
C512 C514 1.381 . S
C512 C518 1.383 . S
C513 C509 1.495 1_565 S
C513 H519 0.959 . S
C513 H520 0.961 . S
C513 H521 0.960 . S
C514 C512 1.381 . S
C514 C515 1.394 . S
C514 H522 0.930 . S
C515 C514 1.394 . S
C515 C516 1.383 . S
C515 H523 0.929 . S
C516 C515 1.383 . S
C516 C517 1.377 . S
C517 H501 0.930 . S
C517 C516 1.377 . S
C517 C518 1.379 . S
C518 H502 0.931 . S
C518 C512 1.383 . S
C518 C517 1.379 . S
H519 C513 0.959 . S
H520 C513 0.961 . S
H521 C513 0.960 . S
H522 C514 0.930 . S
H523 C515 0.929 . S
H524 C532 0.929 . S
H525 C534 0.930 . S
H526 C536 0.930 . S
H527 C539 0.929 . S
H528 C542 0.930 . S
H529 C544 0.960 . S
H530 C544 0.960 . S
H531 C544 0.960 . S
C532 H524 0.929 . S
C532 C533 1.377 . S
C532 C534 1.384 . S
C533 C532 1.377 . S
C533 C539 1.390 . S
C534 H525 0.930 . S
C534 C532 1.384 . S
C534 C535 1.372 . S
C535 C534 1.372 . S
C535 C536 1.400 . S
C535 C540 1.490 . S
C536 H526 0.930 . S
C536 C535 1.400 . S
C536 C539 1.386 . S
H537 C553 0.930 . S
H538 C554 0.931 . S
C539 H527 0.929 . S
C539 C533 1.390 . S
C539 C536 1.386 . S
C540 C535 1.490 . S
C540 C542 1.395 . S
C540 C543 1.403 . S
H541 C547 0.930 . S
C542 H528 0.930 . S
C542 C540 1.395 . S
C542 C545 1.403 . S
C543 C540 1.403 . S
C543 C544 1.524 . S
C543 C547 1.400 . S
C544 H529 0.960 . S
C544 H530 0.960 . S
C544 H531 0.960 . S
C544 C543 1.524 . S
C545 C542 1.403 . S
C545 C546 1.392 . S
C545 C549 1.495 . S
C546 C545 1.392 . S
C546 C547 1.385 . S
C546 C548 1.478 . S
C547 H541 0.930 . S
C547 C543 1.400 . S
C547 C546 1.385 . S
C548 C546 1.478 . S
C548 C550 1.381 . S
C548 C554 1.383 . S
C549 C545 1.495 . S
C549 H555 0.959 . S
C549 H556 0.961 . S
C549 H557 0.960 . S
C550 C548 1.381 . S
C550 C551 1.394 . S
C550 H558 0.930 . S
C551 C550 1.394 . S
C551 C552 1.383 . S
C551 H559 0.929 . S
C552 C551 1.383 . S
C552 C553 1.377 . S
C553 H537 0.930 . S
C553 C552 1.377 . S
C553 C554 1.379 . S
C554 H538 0.931 . S
C554 C548 1.383 . S
C554 C553 1.379 . S
H555 C549 0.959 . S
H556 C549 0.961 . S
H557 C549 0.960 . S
H558 C550 0.930 . S
H559 C551 0.929 . S
H560 C568 0.929 . S
H561 C570 0.930 . S
H562 C572 0.930 . S
H563 C575 0.929 . S
H564 C578 0.930 . S
H565 C580 0.960 . S
H566 C580 0.960 . S
H567 C580 0.960 . S
C568 H560 0.929 . S
C568 C569 1.377 . S
C568 C570 1.384 . S
C569 C568 1.377 . S
C569 C575 1.390 . S
C570 H561 0.930 . S
C570 C568 1.384 . S
C570 C571 1.372 . S
C571 C570 1.372 . S
C571 C572 1.400 . S
C571 C576 1.490 . S
C572 H562 0.930 . S
C572 C571 1.400 . S
C572 C575 1.386 . S
H573 C589 0.930 . S
H574 C590 0.931 . S
C575 H563 0.929 . S
C575 C569 1.390 . S
C575 C572 1.386 . S
C576 C571 1.490 . S
C576 C578 1.395 . S
C576 C579 1.403 . S
H577 C583 0.930 . S
C578 H564 0.930 . S
C578 C576 1.395 . S
C578 C581 1.403 . S
C579 C576 1.403 . S
C579 C580 1.524 . S
C579 C583 1.400 . S
C580 H565 0.960 . S
C580 H566 0.960 . S
C580 H567 0.960 . S
C580 C579 1.524 . S
C581 C578 1.403 . S
C581 C582 1.392 . S
C581 C585 1.495 . S
C582 C581 1.392 . S
C582 C583 1.385 . S
C582 C584 1.478 . S
C583 H577 0.930 . S
C583 C579 1.400 . S
C583 C582 1.385 . S
C584 C582 1.478 . S
C584 C586 1.381 . S
C584 C590 1.383 . S
C585 C581 1.495 . S
C585 H591 0.959 . S
C585 H592 0.961 . S
C585 H593 0.960 . S
C586 C584 1.381 . S
C586 C587 1.394 . S
C586 H594 0.930 . S
C587 C586 1.394 . S
C587 C588 1.383 . S
C587 H595 0.929 . S
C588 C587 1.383 . S
C588 C589 1.377 . S
C589 H573 0.930 . S
C589 C588 1.377 . S
C589 C590 1.379 . S
C590 H574 0.931 . S
C590 C584 1.383 . S
C590 C589 1.379 . S
H591 C585 0.959 . S
H592 C585 0.961 . S
H593 C585 0.960 . S
H594 C586 0.930 . S
H595 C587 0.929 . S
H596 C604 0.929 . S
H597 C606 0.930 . S
H598 C608 0.930 . S
H599 C611 0.929 . S
H600 C614 0.930 . S
H601 C616 0.960 . S
H602 C616 0.960 . S
H603 C616 0.960 . S
C604 H596 0.929 . S
C604 C605 1.377 . S
C604 C606 1.384 . S
C605 C604 1.377 . S
C605 C611 1.390 . S
C606 H597 0.930 . S
C606 C604 1.384 . S
C606 C607 1.372 . S
C607 C606 1.372 . S
C607 C608 1.400 . S
C607 C612 1.490 . S
C608 H598 0.930 . S
C608 C607 1.400 . S
C608 C611 1.386 . S
H609 C625 0.976 . S
H610 C626 0.931 1_655 S
C611 H599 0.929 . S
C611 C605 1.390 . S
C611 C608 1.386 . S
C612 C607 1.490 . S
C612 C614 1.395 . S
C612 C615 1.403 . S
H613 C619 0.930 . S
C614 H600 0.930 . S
C614 C612 1.395 . S
C614 C617 1.403 . S
C615 C612 1.403 . S
C615 C616 1.524 . S
C615 C619 1.400 . S
C616 H601 0.960 . S
C616 H602 0.960 . S
C616 H603 0.960 . S
C616 C615 1.524 . S
C617 C614 1.403 . S
C617 C618 1.392 . S
C617 C621 1.495 . S
C618 C617 1.392 . S
C618 C619 1.385 . S
C618 C620 1.478 . S
C619 H613 0.930 . S
C619 C615 1.400 . S
C619 C618 1.385 . S
C620 C618 1.478 . S
C620 C622 1.381 . S
C620 C626 1.383 . S
C621 C617 1.495 . S
C621 H627 0.959 . S
C621 H628 0.961 . S
C621 H629 0.960 . S
C622 C620 1.381 . S
C622 C623 1.394 . S
C622 H630 0.930 . S
C623 C622 1.394 . S
C623 C624 1.383 . S
C623 H631 0.929 . S
C624 C623 1.383 . S
C624 C625 1.339 1_455 S
C625 H609 0.976 . S
C625 C624 1.339 1_655 S
C625 C626 1.373 1_655 S
C626 H610 0.931 1_455 S
C626 C620 1.383 . S
C626 C625 1.373 1_455 S
H627 C621 0.959 . S
H628 C621 0.961 . S
H629 C621 0.960 . S
H630 C622 0.930 . S
H631 C623 0.929 . S
H632 C640 0.929 . S
H633 C642 0.930 1_556 S
H634 C644 0.930 1_545 S
H635 C647 0.941 . S
H636 C650 0.930 . S
H637 C652 0.960 . S
H638 C652 0.960 . S
H639 C652 0.960 . S
C640 H632 0.929 . S
C640 C641 1.377 . S
C640 C642 1.384 . S
C641 C640 1.377 . S
C641 C647 1.390 . S
C642 H633 0.930 1_554 S
C642 C640 1.384 . S
C642 C643 1.372 . S
C643 C642 1.372 . S
C643 C644 1.400 . S
C643 C648 1.490 1_554 S
C644 H634 0.930 1_565 S
C644 C643 1.400 . S
C644 C647 1.386 . S
H645 C661 0.930 . S
H646 C662 0.931 . S
C647 H635 0.941 . S
C647 C641 1.390 . S
C647 C644 1.386 . S
C648 C643 1.490 1_556 S
C648 C650 1.395 . S
C648 C651 1.403 . S
H649 C655 0.930 . S
C650 H636 0.930 . S
C650 C648 1.395 . S
C650 C653 1.403 . S
C651 C648 1.403 . S
C651 C652 1.524 1_556 S
C651 C655 1.400 . S
C652 H637 0.960 . S
C652 H638 0.960 . S
C652 H639 0.960 . S
C652 C651 1.524 1_554 S
C653 C650 1.403 . S
C653 C654 1.392 . S
C653 C657 1.495 1_565 S
C654 C653 1.392 . S
C654 C655 1.385 . S
C654 C656 1.478 . S
C655 H649 0.930 . S
C655 C651 1.400 . S
C655 C654 1.385 . S
C656 C654 1.478 . S
C656 C658 1.381 . S
C656 C662 1.383 1_565 S
C657 C653 1.495 1_545 S
C657 H663 0.959 . S
C657 H664 0.961 . S
C657 H665 0.960 1_545 S
C658 C656 1.381 . S
C658 C659 1.394 . S
C658 H666 0.930 . S
C659 C658 1.394 . S
C659 C660 1.383 1_565 S
C659 H667 0.929 . S
C660 C659 1.383 1_545 S
C660 C661 1.377 . S
C661 H645 0.930 . S
C661 C660 1.377 . S
C661 C662 1.379 . S
C662 H646 0.931 . S
C662 C656 1.383 1_545 S
C662 C661 1.379 . S
H663 C657 0.959 . S
H664 C657 0.961 . S
H665 C657 0.960 1_565 S
H666 C658 0.930 . S
H667 C659 0.929 . S
H668 C676 0.929 . S
H669 C678 0.930 . S
H670 C680 0.930 1_556 S
H671 C683 0.929 . S
H672 C686 0.930 1_554 S
H673 C688 0.960 . S
H674 C688 0.960 . S
H675 C688 0.960 . S
C676 H668 0.929 . S
C676 C677 1.377 . S
C676 C678 1.384 . S
C677 C676 1.377 . S
C677 C683 1.390 . S
C678 H669 0.930 . S
C678 C676 1.384 . S
C678 C679 1.372 . S
C679 C678 1.372 . S
C679 C680 1.400 . S
C679 C684 1.490 1_554 S
C680 H670 0.930 1_554 S
C680 C679 1.400 . S
C680 C683 1.386 . S
H681 C697 0.930 . S
H682 C698 0.931 . S
C683 H671 0.929 . S
C683 C677 1.390 . S
C683 C680 1.386 . S
C684 C679 1.490 1_556 S
C684 C686 1.395 . S
C684 C687 1.403 . S
H685 C691 0.930 . S
C686 H672 0.930 1_556 S
C686 C684 1.395 . S
C686 C689 1.403 . S
C687 C684 1.403 . S
C687 C688 1.524 . S
C687 C691 1.400 . S
C688 H673 0.960 . S
C688 H674 0.960 . S
C688 H675 0.960 . S
C688 C687 1.524 . S
C689 C686 1.403 . S
C689 C690 1.392 . S
C689 C693 1.495 . S
C690 C689 1.392 . S
C690 C691 1.385 . S
C690 C692 1.478 . S
C691 H685 0.930 . S
C691 C687 1.400 . S
C691 C690 1.385 . S
C692 C690 1.478 . S
C692 C694 1.381 . S
C692 C698 1.383 . S
C693 C689 1.495 . S
C693 H699 0.959 1_556 S
C693 H700 0.961 . S
C693 H701 0.960 . S
C694 C692 1.381 . S
C694 C695 1.394 . S
C694 H702 0.930 . S
C695 C694 1.394 . S
C695 C696 1.383 . S
C695 H703 0.929 . S
C696 C695 1.383 . S
C696 C697 1.377 . S
C697 H681 0.930 . S
C697 C696 1.377 . S
C697 C698 1.379 . S
C698 H682 0.931 . S
C698 C692 1.383 . S
C698 C697 1.379 . S
H699 C693 0.959 1_554 S
H700 C693 0.961 . S
H701 C693 0.960 . S
H702 C694 0.930 . S
H703 C695 0.929 . S
H704 C712 0.929 . S
H705 C714 0.930 . S
H706 C716 0.930 1_556 S
H707 C719 0.929 . S
H708 C722 0.930 . S
H709 C724 0.960 . S
H710 C724 0.960 1_554 S
H711 C724 0.960 . S
C712 H704 0.929 . S
C712 C713 1.377 . S
C712 C714 1.384 . S
C713 C712 1.377 . S
C713 C719 1.390 . S
C714 H705 0.930 . S
C714 C712 1.384 . S
C714 C715 1.372 . S
C715 C714 1.372 . S
C715 C716 1.400 . S
C715 C720 1.490 1_554 S
C716 H706 0.930 1_554 S
C716 C715 1.400 . S
C716 C719 1.386 . S
H717 C733 0.930 . S
H718 C734 0.931 . S
C719 H707 0.929 . S
C719 C713 1.390 . S
C719 C716 1.386 . S
C720 C715 1.490 1_556 S
C720 C722 1.395 . S
C720 C723 1.403 . S
H721 C727 0.930 . S
C722 H708 0.930 . S
C722 C720 1.395 . S
C722 C725 1.403 . S
C723 C720 1.403 . S
C723 C724 1.524 . S
C723 C727 1.400 . S
C724 H709 0.960 . S
C724 H710 0.960 1_556 S
C724 H711 0.960 . S
C724 C723 1.524 . S
C725 C722 1.403 . S
C725 C726 1.392 . S
C725 C729 1.495 . S
C726 C725 1.392 . S
C726 C727 1.385 . S
C726 C728 1.478 . S
C727 H721 0.930 . S
C727 C723 1.400 . S
C727 C726 1.385 . S
C728 C726 1.478 . S
C728 C730 1.381 . S
C728 C734 1.383 . S
C729 C725 1.495 . S
C729 H735 0.959 . S
C729 H736 0.961 . S
C729 H737 0.960 . S
C730 C728 1.381 . S
C730 C731 1.394 . S
C730 H738 0.930 . S
C731 C730 1.394 . S
C731 C732 1.383 . S
C731 H739 0.929 . S
C732 C731 1.383 . S
C732 C733 1.377 . S
C733 H717 0.930 . S
C733 C732 1.377 . S
C733 C734 1.379 . S
C734 H718 0.931 . S
C734 C728 1.383 . S
C734 C733 1.379 . S
H735 C729 0.959 . S
H736 C729 0.961 . S
H737 C729 0.960 . S
H738 C730 0.930 . S
H739 C731 0.929 . S
H740 C748 0.929 . S
H741 C750 0.930 1_556 S
H742 C752 0.930 . S
H743 C755 0.929 . S
H744 C758 0.930 . S
H745 C760 0.960 1_556 S
H746 C760 0.958 1_556 S
H747 C760 0.960 . S
C748 H740 0.929 . S
C748 C749 1.377 . S
C748 C750 1.384 . S
C749 C748 1.377 . S
C749 C755 1.390 . S
C750 H741 0.930 1_554 S
C750 C748 1.384 . S
C750 C751 1.372 . S
C751 C750 1.372 . S
C751 C752 1.400 . S
C751 C756 1.490 1_554 S
C752 H742 0.930 . S
C752 C751 1.400 . S
C752 C755 1.386 . S
H753 C769 0.930 . S
H754 C770 0.927 1_455 S
C755 H743 0.929 . S
C755 C749 1.390 . S
C755 C752 1.386 . S
C756 C751 1.490 1_556 S
C756 C758 1.395 1_655 S
C756 C759 1.403 . S
H757 C763 0.930 . S
C758 H744 0.930 . S
C758 C756 1.395 1_455 S
C758 C761 1.403 . S
C759 C756 1.403 . S
C759 C760 1.524 1_556 S
C759 C763 1.400 . S
C760 H745 0.960 1_554 S
C760 H746 0.958 1_554 S
C760 H747 0.960 . S
C760 C759 1.524 1_554 S
C761 C758 1.403 . S
C761 C762 1.392 1_455 S
C761 C765 1.495 . S
C762 C761 1.392 1_655 S
C762 C763 1.385 . S
C762 C764 1.478 . S
C763 H757 0.930 . S
C763 C759 1.400 . S
C763 C762 1.385 . S
C764 C762 1.478 . S
C764 C766 1.381 . S
C764 C770 1.383 . S
C765 C761 1.495 . S
C765 H771 0.959 . S
C765 H772 0.961 . S
C765 H773 0.960 . S
C766 C764 1.381 . S
C766 C767 1.394 . S
C766 H774 0.930 . S
C767 C766 1.394 . S
C767 C768 1.384 . S
C767 H775 0.929 . S
C768 C767 1.384 . S
C768 C769 1.377 1_655 S
C769 H753 0.930 . S
C769 C768 1.377 1_455 S
C769 C770 1.379 1_455 S
C770 H754 0.927 1_655 S
C770 C764 1.383 . S
C770 C769 1.379 1_655 S
H771 C765 0.959 . S
H772 C765 0.961 . S
H773 C765 0.960 . S
H774 C766 0.930 . S
H775 C767 0.929 . S
H776 C784 0.929 . S
H777 C786 0.930 . S
H778 C788 0.930 . S
H779 C791 0.929 . S
H780 C794 0.930 . S
H781 C796 0.960 . S
H782 C796 0.960 . S
H783 C796 0.960 . S
C784 H776 0.929 . S
C784 C785 1.377 . S
C784 C786 1.384 . S
C785 C784 1.377 . S
C785 C791 1.390 . S
C786 H777 0.930 . S
C786 C784 1.384 . S
C786 C787 1.372 . S
C787 C786 1.372 . S
C787 C788 1.400 . S
C787 C792 1.490 . S
C788 H778 0.930 . S
C788 C787 1.400 . S
C788 C791 1.386 . S
H789 C805 0.934 . S
H790 C806 0.931 1_655 S
C791 H779 0.929 . S
C791 C785 1.390 . S
C791 C788 1.386 . S
C792 C787 1.490 . S
C792 C794 1.395 . S
C792 C795 1.403 . S
H793 C799 0.930 . S
C794 H780 0.930 . S
C794 C792 1.395 . S
C794 C797 1.403 . S
C795 C792 1.403 . S
C795 C796 1.524 . S
C795 C799 1.400 . S
C796 H781 0.960 . S
C796 H782 0.960 . S
C796 H783 0.960 . S
C796 C795 1.524 . S
C797 C794 1.403 . S
C797 C798 1.392 . S
C797 C801 1.495 . S
C798 C797 1.392 . S
C798 C799 1.385 . S
C798 C800 1.478 . S
C799 H793 0.930 . S
C799 C795 1.400 . S
C799 C798 1.385 . S
C800 C798 1.478 . S
C800 C802 1.381 . S
C800 C806 1.383 . S
C801 C797 1.495 . S
C801 H807 0.959 . S
C801 H808 0.961 1_455 S
C801 H809 0.960 . S
C802 C800 1.381 . S
C802 C803 1.394 . S
C802 H810 0.930 . S
C803 C802 1.394 . S
C803 C804 1.383 . S
C803 H811 0.929 . S
C804 C803 1.383 . S
C804 C805 1.374 1_455 S
C805 H789 0.934 . S
C805 C804 1.374 1_655 S
C805 C806 1.379 1_655 S
C806 H790 0.931 1_455 S
C806 C800 1.383 . S
C806 C805 1.379 1_455 S
H807 C801 0.959 . S
H808 C801 0.961 1_655 S
H809 C801 0.960 . S
H810 C802 0.930 . S
H811 C803 0.929 . S
H812 C820 0.929 . S
H813 C822 0.930 . S
H814 C824 0.930 . S
H815 C827 0.929 . S
H816 C830 0.930 . S
H817 C832 0.960 . S
H818 C832 0.960 . S
H819 C832 0.960 . S
C820 H812 0.929 . S
C820 C821 1.377 . S
C820 C822 1.384 . S
C821 C820 1.377 . S
C821 C827 1.390 . S
C822 H813 0.930 . S
C822 C820 1.384 . S
C822 C823 1.372 . S
C823 C822 1.372 . S
C823 C824 1.400 . S
C823 C828 1.490 . S
C824 H814 0.930 . S
C824 C823 1.400 . S
C824 C827 1.386 . S
H825 C841 0.930 . S
H826 C842 0.931 . S
C827 H815 0.929 . S
C827 C821 1.390 . S
C827 C824 1.386 . S
C828 C823 1.490 . S
C828 C830 1.395 . S
C828 C831 1.403 . S
H829 C835 0.930 . S
C830 H816 0.930 . S
C830 C828 1.395 . S
C830 C833 1.403 . S
C831 C828 1.403 . S
C831 C832 1.524 . S
C831 C835 1.400 . S
C832 H817 0.960 . S
C832 H818 0.960 . S
C832 H819 0.960 . S
C832 C831 1.524 . S
C833 C830 1.403 . S
C833 C834 1.392 . S
C833 C837 1.495 1_545 S
C834 C833 1.392 . S
C834 C835 1.385 . S
C834 C836 1.478 . S
C835 H829 0.930 . S
C835 C831 1.400 . S
C835 C834 1.385 . S
C836 C834 1.478 . S
C836 C838 1.381 . S
C836 C842 1.383 . S
C837 C833 1.495 1_565 S
C837 H843 0.959 . S
C837 H844 0.961 . S
C837 H845 0.960 1_565 S
C838 C836 1.381 . S
C838 C839 1.394 . S
C838 H846 0.930 . S
C839 C838 1.394 . S
C839 C840 1.383 . S
C839 H847 0.929 . S
C840 C839 1.383 . S
C840 C841 1.377 . S
C841 H825 0.930 . S
C841 C840 1.377 . S
C841 C842 1.379 . S
C842 H826 0.931 . S
C842 C836 1.383 . S
C842 C841 1.379 . S
H843 C837 0.959 . S
H844 C837 0.961 . S
H845 C837 0.960 1_545 S
H846 C838 0.930 . S
H847 C839 0.929 . S
H848 C856 0.929 . S
H849 C858 0.930 . S
H850 C860 0.930 . S
H851 C863 0.929 . S
H852 C866 0.930 . S
H853 C868 0.960 . S
H854 C868 0.960 . S
H855 C868 0.960 . S
C856 H848 0.929 . S
C856 C857 1.377 . S
C856 C858 1.384 . S
C857 C856 1.377 . S
C857 C863 1.390 . S
C858 H849 0.930 . S
C858 C856 1.384 . S
C858 C859 1.372 . S
C859 C858 1.372 . S
C859 C860 1.400 . S
C859 C864 1.490 . S
C860 H850 0.930 . S
C860 C859 1.400 . S
C860 C863 1.386 . S
H861 C877 0.930 . S
H862 C878 0.931 . S
C863 H851 0.929 . S
C863 C857 1.390 . S
C863 C860 1.386 . S
C864 C859 1.490 . S
C864 C866 1.395 . S
C864 C867 1.403 . S
H865 C871 0.930 . S
C866 H852 0.930 . S
C866 C864 1.395 . S
C866 C869 1.403 . S
C867 C864 1.403 . S
C867 C868 1.524 . S
C867 C871 1.400 . S
C868 H853 0.960 . S
C868 H854 0.960 . S
C868 H855 0.960 . S
C868 C867 1.524 . S
C869 C866 1.403 . S
C869 C870 1.392 . S
C869 C873 1.495 . S
C870 C869 1.392 . S
C870 C871 1.385 . S
C870 C872 1.478 . S
C871 H865 0.930 . S
C871 C867 1.400 . S
C871 C870 1.385 . S
C872 C870 1.478 . S
C872 C874 1.381 . S
C872 C878 1.383 . S
C873 C869 1.495 . S
C873 H879 0.959 . S
C873 H880 0.961 . S
C873 H881 0.960 . S
C874 C872 1.381 . S
C874 C875 1.394 . S
C874 H882 0.930 . S
C875 C874 1.394 . S
C875 C876 1.383 . S
C875 H883 0.929 . S
C876 C875 1.383 . S
C876 C877 1.377 . S
C877 H861 0.930 . S
C877 C876 1.377 . S
C877 C878 1.379 . S
C878 H862 0.931 . S
C878 C872 1.383 . S
C878 C877 1.379 . S
H879 C873 0.959 . S
H880 C873 0.961 . S
H881 C873 0.960 . S
H882 C874 0.930 . S
H883 C875 0.929 . S
H884 C892 0.929 . S
H885 C894 0.930 . S
H886 C896 0.930 . S
H887 C899 0.929 . S
H888 C902 0.930 . S
H889 C904 0.960 . S
H890 C904 0.960 . S
H891 C904 0.960 . S
C892 H884 0.929 . S
C892 C893 1.377 . S
C892 C894 1.384 . S
C893 C892 1.377 . S
C893 C899 1.390 . S
C894 H885 0.930 . S
C894 C892 1.384 . S
C894 C895 1.372 . S
C895 C894 1.372 . S
C895 C896 1.400 . S
C895 C900 1.490 . S
C896 H886 0.930 . S
C896 C895 1.400 . S
C896 C899 1.386 . S
H897 C913 0.930 . S
H898 C914 0.931 . S
C899 H887 0.929 . S
C899 C893 1.390 . S
C899 C896 1.386 . S
C900 C895 1.490 . S
C900 C902 1.395 . S
C900 C903 1.403 . S
H901 C907 0.930 . S
C902 H888 0.930 . S
C902 C900 1.395 . S
C902 C905 1.403 . S
C903 C900 1.403 . S
C903 C904 1.524 . S
C903 C907 1.400 . S
C904 H889 0.960 . S
C904 H890 0.960 . S
C904 H891 0.960 . S
C904 C903 1.524 . S
C905 C902 1.403 . S
C905 C906 1.392 . S
C905 C909 1.495 . S
C906 C905 1.392 . S
C906 C907 1.385 . S
C906 C908 1.478 . S
C907 H901 0.930 . S
C907 C903 1.400 . S
C907 C906 1.385 . S
C908 C906 1.478 . S
C908 C910 1.381 . S
C908 C914 1.383 . S
C909 C905 1.495 . S
C909 H915 0.959 . S
C909 H916 0.961 . S
C909 H917 0.960 . S
C910 C908 1.381 . S
C910 C911 1.394 . S
C910 H918 0.930 . S
C911 C910 1.394 . S
C911 C912 1.383 . S
C911 H919 0.929 . S
C912 C911 1.383 . S
C912 C913 1.377 . S
C913 H897 0.930 . S
C913 C912 1.377 . S
C913 C914 1.379 . S
C914 H898 0.931 . S
C914 C908 1.383 . S
C914 C913 1.379 . S
H915 C909 0.959 . S
H916 C909 0.961 . S
H917 C909 0.960 . S
H918 C910 0.930 . S
H919 C911 0.929 . S
H920 C928 0.929 . S
H921 C930 0.930 1_455 S
H922 C932 0.930 . S
H923 C935 0.929 . S
H924 C938 0.930 . S
H925 C940 0.954 1_455 S
H926 C940 0.960 1_455 S
H927 C940 0.960 . S
C928 H920 0.929 . S
C928 C929 1.377 . S
C928 C930 1.384 . S
C929 C928 1.377 . S
C929 C935 1.390 . S
C930 H921 0.930 1_655 S
C930 C928 1.384 . S
C930 C931 1.372 . S
C931 C930 1.372 . S
C931 C932 1.400 . S
C931 C936 1.490 . S
C932 H922 0.930 . S
C932 C931 1.400 . S
C932 C935 1.386 . S
H933 C949 0.930 . S
H934 C950 0.931 . S
C935 H923 0.929 . S
C935 C929 1.390 . S
C935 C932 1.386 . S
C936 C931 1.490 . S
C936 C938 1.395 1_554 S
C936 C939 1.403 . S
H937 C943 0.930 . S
C938 H924 0.930 . S
C938 C936 1.395 1_556 S
C938 C941 1.403 . S
C939 C936 1.403 . S
C939 C940 1.524 . S
C939 C943 1.400 . S
C940 H925 0.954 1_655 S
C940 H926 0.960 1_655 S
C940 H927 0.960 . S
C940 C939 1.524 . S
C941 C938 1.403 . S
C941 C942 1.392 . S
C941 C945 1.495 . S
C942 C941 1.392 . S
C942 C943 1.385 1_556 S
C942 C944 1.478 . S
C943 H937 0.930 . S
C943 C939 1.400 . S
C943 C942 1.385 1_554 S
C944 C942 1.478 . S
C944 C946 1.381 1_655 S
C944 C950 1.383 . S
C945 C941 1.495 . S
C945 H951 0.959 . S
C945 H952 0.961 . S
C945 H953 0.960 . S
C946 C944 1.381 1_455 S
C946 C947 1.394 . S
C946 H954 0.930 . S
C947 C946 1.394 . S
C947 C948 1.383 . S
C947 H955 0.929 . S
C948 C947 1.383 . S
C948 C949 1.377 1_455 S
C949 H933 0.930 . S
C949 C948 1.377 1_655 S
C949 C950 1.379 . S
C950 H934 0.931 . S
C950 C944 1.383 . S
C950 C949 1.379 . S
H951 C945 0.959 . S
H952 C945 0.961 . S
H953 C945 0.960 . S
H954 C946 0.930 . S
H955 C947 0.929 . S
H956 C964 0.929 . S
H957 C966 0.930 . S
H958 C968 0.930 1_545 S
H959 C971 0.929 . S
H960 C974 0.930 . S
H961 C976 0.960 . S
H962 C976 0.960 . S
H963 C976 0.960 . S
C964 H956 0.929 . S
C964 C965 1.377 . S
C964 C966 1.384 . S
C965 C964 1.377 . S
C965 C971 1.390 . S
C966 H957 0.930 . S
C966 C964 1.384 . S
C966 C967 1.372 . S
C967 C966 1.372 . S
C967 C968 1.400 . S
C967 C972 1.490 . S
C968 H958 0.930 1_565 S
C968 C967 1.400 . S
C968 C971 1.386 . S
H969 C985 0.930 . S
H970 C986 0.931 . S
C971 H959 0.929 . S
C971 C965 1.390 . S
C971 C968 1.386 . S
C972 C967 1.490 . S
C972 C974 1.395 . S
C972 C975 1.403 1_554 S
H973 C979 0.930 . S
C974 H960 0.930 . S
C974 C972 1.395 . S
C974 C977 1.411 . S
C975 C972 1.403 1_556 S
C975 C976 1.524 . S
C975 C979 1.400 . S
C976 H961 0.960 . S
C976 H962 0.960 . S
C976 H963 0.960 . S
C976 C975 1.524 . S
C977 C974 1.411 . S
C977 C978 1.398 1_554 S
C977 C981 1.483 1_565 S
C978 C977 1.398 1_556 S
C978 C979 1.385 . S
C978 C980 1.470 1_565 S
C979 H973 0.930 . S
C979 C975 1.400 . S
C979 C978 1.385 . S
C980 C978 1.470 1_545 S
C980 C982 1.362 1_545 S
C980 C986 1.408 . S
C981 C977 1.483 1_545 S
C981 H987 0.959 . S
C981 H988 0.961 . S
C981 H989 0.936 1_545 S
C982 C980 1.362 1_565 S
C982 C983 1.394 . S
C982 H990 0.930 1_556 S
C983 C982 1.394 . S
C983 C984 1.383 1_565 S
C983 H991 0.929 . S
C984 C983 1.383 1_545 S
C984 C985 1.377 . S
C985 H969 0.930 . S
C985 C984 1.377 . S
C985 C986 1.379 . S
C986 H970 0.931 . S
C986 C980 1.408 . S
C986 C985 1.379 . S
H987 C981 0.959 . S
H988 C981 0.961 . S
H989 C981 0.936 1_565 S
H990 C982 0.930 1_554 S
H991 C983 0.929 . S
H992 C1000 0.929 . S
H993 C1002 0.930 . S
H994 C1004 0.930 . S
H995 C1007 0.929 . S
H996 C1010 0.930 . S
H997 C1012 0.960 . S
H998 C1012 0.960 . S
H999 C1012 0.960 . S
C1000 H992 0.929 . S
C1000 C1001 1.377 . S
C1000 C1002 1.384 . S
C1001 C1000 1.377 . S
C1001 C1007 1.390 . S
C1002 H993 0.930 . S
C1002 C1000 1.384 . S
C1002 C1003 1.372 . S
C1003 C1002 1.372 . S
C1003 C1004 1.400 . S
C1003 C1008 1.490 . S
C1004 H994 0.930 . S
C1004 C1003 1.400 . S
C1004 C1007 1.386 . S
H1005 C1021 0.930 . S
H1006 C1022 0.931 . S
C1007 H995 0.929 . S
C1007 C1001 1.390 . S
C1007 C1004 1.386 . S
C1008 C1003 1.490 . S
C1008 C1010 1.395 . S
C1008 C1011 1.403 . S
H1009 C1015 0.930 . S
C1010 H996 0.930 . S
C1010 C1008 1.395 . S
C1010 C1013 1.403 1_554 S
C1011 C1008 1.403 . S
C1011 C1012 1.524 . S
C1011 C1015 1.400 . S
C1012 H997 0.960 . S
C1012 H998 0.960 . S
C1012 H999 0.960 . S
C1012 C1011 1.524 . S
C1013 C1010 1.403 1_556 S
C1013 C1014 1.392 . S
C1013 C1017 1.495 . S
C1014 C1013 1.392 . S
C1014 C1015 1.385 1_556 S
C1014 C1016 1.478 . S
C1015 H1009 0.930 . S
C1015 C1011 1.400 . S
C1015 C1014 1.385 1_554 S
C1016 C1014 1.478 . S
C1016 C1018 1.381 . S
C1016 C1022 1.383 . S
C1017 C1013 1.495 . S
C1017 H1023 0.959 . S
C1017 H1024 0.961 . S
C1017 H1025 0.960 . S
C1018 C1016 1.381 . S
C1018 C1019 1.394 . S
C1018 H1026 0.930 1_556 S
C1019 C1018 1.394 . S
C1019 C1020 1.383 . S
C1019 H1027 0.929 . S
C1020 C1019 1.383 . S
C1020 C1021 1.377 . S
C1021 H1005 0.930 . S
C1021 C1020 1.377 . S
C1021 C1022 1.379 . S
C1022 H1006 0.931 . S
C1022 C1016 1.383 . S
C1022 C1021 1.379 . S
H1023 C1017 0.959 . S
H1024 C1017 0.961 . S
H1025 C1017 0.960 . S
H1026 C1018 0.930 1_554 S
H1027 C1019 0.929 . S
H1028 C1036 0.929 . S
H1029 C1038 0.930 . S
H1030 C1040 0.930 . S
H1031 C1043 0.929 . S
H1032 C1046 0.930 . S
H1033 C1048 0.960 . S
H1034 C1048 0.960 . S
H1035 C1048 0.960 . S
C1036 H1028 0.929 . S
C1036 C1037 1.377 . S
C1036 C1038 1.384 . S
C1037 C1036 1.377 . S
C1037 C1043 1.390 . S
C1038 H1029 0.930 . S
C1038 C1036 1.384 . S
C1038 C1039 1.372 . S
C1039 C1038 1.372 . S
C1039 C1040 1.400 . S
C1039 C1044 1.490 . S
C1040 H1030 0.930 . S
C1040 C1039 1.400 . S
C1040 C1043 1.386 . S
H1041 C1057 0.930 . S
H1042 C1058 0.931 1_554 S
C1043 H1031 0.929 . S
C1043 C1037 1.390 . S
C1043 C1040 1.386 . S
C1044 C1039 1.490 . S
C1044 C1046 1.395 . S
C1044 C1047 1.403 . S
H1045 C1051 0.930 . S
C1046 H1032 0.930 . S
C1046 C1044 1.395 . S
C1046 C1049 1.403 . S
C1047 C1044 1.403 . S
C1047 C1048 1.524 . S
C1047 C1051 1.400 1_554 S
C1048 H1033 0.960 . S
C1048 H1034 0.960 . S
C1048 H1035 0.960 . S
C1048 C1047 1.524 . S
C1049 C1046 1.403 . S
C1049 C1050 1.392 1_554 S
C1049 C1053 1.495 . S
C1050 C1049 1.392 1_556 S
C1050 C1051 1.385 . S
C1050 C1052 1.478 . S
C1051 H1045 0.930 . S
C1051 C1047 1.400 1_556 S
C1051 C1050 1.385 . S
C1052 C1050 1.478 . S
C1052 C1054 1.381 . S
C1052 C1058 1.383 . S
C1053 C1049 1.495 . S
C1053 H1059 0.959 . S
C1053 H1060 0.961 . S
C1053 H1061 0.960 1_554 S
C1054 C1052 1.381 . S
C1054 C1055 1.394 . S
C1054 H1062 0.930 . S
C1055 C1054 1.394 . S
C1055 C1056 1.383 . S
C1055 H1063 0.929 . S
C1056 C1055 1.383 . S
C1056 C1057 1.377 . S
C1057 H1041 0.930 . S
C1057 C1056 1.377 . S
C1057 C1058 1.379 . S
C1058 H1042 0.931 1_556 S
C1058 C1052 1.383 . S
C1058 C1057 1.379 . S
H1059 C1053 0.959 . S
H1060 C1053 0.961 . S
H1061 C1053 0.960 1_556 S
H1062 C1054 0.930 . S
H1063 C1055 0.929 . S
H1064 C1072 0.929 . S
H1065 C1074 0.930 . S
H1066 C1076 0.930 . S
H1067 C1079 0.929 . S
H1068 C1082 0.930 . S
H1069 C1084 0.960 . S
H1070 C1084 0.960 . S
H1071 C1084 0.960 . S
C1072 H1064 0.929 . S
C1072 C1073 1.377 . S
C1072 C1074 1.384 . S
C1073 C1072 1.377 . S
C1073 C1079 1.390 . S
C1074 H1065 0.930 . S
C1074 C1072 1.384 . S
C1074 C1075 1.372 . S
C1075 C1074 1.372 . S
C1075 C1076 1.400 . S
C1075 C1080 1.490 . S
C1076 H1066 0.930 . S
C1076 C1075 1.400 . S
C1076 C1079 1.386 . S
H1077 C1093 0.930 . S
H1078 C1094 0.931 . S
C1079 H1067 0.929 . S
C1079 C1073 1.390 . S
C1079 C1076 1.386 . S
C1080 C1075 1.490 . S
C1080 C1082 1.395 . S
C1080 C1083 1.403 . S
H1081 C1087 0.930 . S
C1082 H1068 0.930 . S
C1082 C1080 1.395 . S
C1082 C1085 1.403 . S
C1083 C1080 1.403 . S
C1083 C1084 1.524 . S
C1083 C1087 1.400 . S
C1084 H1069 0.960 . S
C1084 H1070 0.960 . S
C1084 H1071 0.960 . S
C1084 C1083 1.524 . S
C1085 C1082 1.403 . S
C1085 C1086 1.392 . S
C1085 C1089 1.495 . S
C1086 C1085 1.392 . S
C1086 C1087 1.385 . S
C1086 C1088 1.478 . S
C1087 H1081 0.930 . S
C1087 C1083 1.400 . S
C1087 C1086 1.385 . S
C1088 C1086 1.478 . S
C1088 C1090 1.381 . S
C1088 C1094 1.383 . S
C1089 C1085 1.495 . S
C1089 H1095 0.959 . S
C1089 H1096 0.961 . S
C1089 H1097 0.960 . S
C1090 C1088 1.381 . S
C1090 C1091 1.394 . S
C1090 H1098 0.930 1_455 S
C1091 C1090 1.394 . S
C1091 C1092 1.383 . S
C1091 H1099 0.929 1_455 S
C1092 C1091 1.383 . S
C1092 C1093 1.377 . S
C1093 H1077 0.930 . S
C1093 C1092 1.377 . S
C1093 C1094 1.379 . S
C1094 H1078 0.931 . S
C1094 C1088 1.383 . S
C1094 C1093 1.379 . S
H1095 C1089 0.959 . S
H1096 C1089 0.961 . S
H1097 C1089 0.960 . S
H1098 C1090 0.930 1_655 S
H1099 C1091 0.929 1_655 S
H1100 C1108 0.929 . S
H1101 C1110 0.930 . S
H1102 C1112 0.930 . S
H1103 C1115 0.929 . S
H1104 C1118 0.930 . S
H1105 C1120 0.960 . S
H1106 C1120 0.960 . S
H1107 C1120 0.960 . S
C1108 H1100 0.929 . S
C1108 C1109 1.377 . S
C1108 C1110 1.384 . S
C1109 C1108 1.377 . S
C1109 C1115 1.390 . S
C1110 H1101 0.930 . S
C1110 C1108 1.384 . S
C1110 C1111 1.372 . S
C1111 C1110 1.372 . S
C1111 C1112 1.400 . S
C1111 C1116 1.490 . S
C1112 H1102 0.930 . S
C1112 C1111 1.400 . S
C1112 C1115 1.386 . S
H1113 C1129 0.930 . S
H1114 C1130 0.931 . S
C1115 H1103 0.929 . S
C1115 C1109 1.390 . S
C1115 C1112 1.386 . S
C1116 C1111 1.490 . S
C1116 C1118 1.395 . S
C1116 C1119 1.403 . S
H1117 C1123 0.930 . S
C1118 H1104 0.930 . S
C1118 C1116 1.395 . S
C1118 C1121 1.403 . S
C1119 C1116 1.403 . S
C1119 C1120 1.524 . S
C1119 C1123 1.400 . S
C1120 H1105 0.960 . S
C1120 H1106 0.960 . S
C1120 H1107 0.960 . S
C1120 C1119 1.524 . S
C1121 C1118 1.403 . S
C1121 C1122 1.392 . S
C1121 C1125 1.495 . S
C1122 C1121 1.392 . S
C1122 C1123 1.385 . S
C1122 C1124 1.478 . S
C1123 H1117 0.930 . S
C1123 C1119 1.400 . S
C1123 C1122 1.385 . S
C1124 C1122 1.478 . S
C1124 C1126 1.381 . S
C1124 C1130 1.383 . S
C1125 C1121 1.495 . S
C1125 H1131 0.959 . S
C1125 H1132 0.961 . S
C1125 H1133 0.964 1_545 S
C1126 C1124 1.381 . S
C1126 C1127 1.394 . S
C1126 H1134 0.930 1_545 S
C1127 C1126 1.394 . S
C1127 C1128 1.383 . S
C1127 H1135 0.929 1_545 S
C1128 C1127 1.383 . S
C1128 C1129 1.377 . S
C1129 H1113 0.930 . S
C1129 C1128 1.377 . S
C1129 C1130 1.379 . S
C1130 H1114 0.931 . S
C1130 C1124 1.383 . S
C1130 C1129 1.379 . S
H1131 C1125 0.959 . S
H1132 C1125 0.961 . S
H1133 C1125 0.964 1_565 S
H1134 C1126 0.930 1_565 S
H1135 C1127 0.929 1_565 S
H1136 C1144 0.929 . S
H1137 C1146 0.930 . S
H1138 C1148 0.930 . S
H1139 C1151 0.929 . S
H1140 C1154 0.930 . S
H1141 C1156 0.960 . S
H1142 C1156 0.960 . S
H1143 C1156 0.960 . S
C1144 H1136 0.929 . S
C1144 C1145 1.377 . S
C1144 C1146 1.384 . S
C1145 C1144 1.377 . S
C1145 C1151 1.390 . S
C1146 H1137 0.930 . S
C1146 C1144 1.384 . S
C1146 C1147 1.372 . S
C1147 C1146 1.372 . S
C1147 C1148 1.400 . S
C1147 C1152 1.490 . S
C1148 H1138 0.930 . S
C1148 C1147 1.400 . S
C1148 C1151 1.386 . S
H1149 C1165 0.930 . S
H1150 C1166 0.931 . S
C1151 H1139 0.929 . S
C1151 C1145 1.390 . S
C1151 C1148 1.386 . S
C1152 C1147 1.490 . S
C1152 C1154 1.395 . S
C1152 C1155 1.403 . S
H1153 C1159 0.930 . S
C1154 H1140 0.930 . S
C1154 C1152 1.395 . S
C1154 C1157 1.403 . S
C1155 C1152 1.403 . S
C1155 C1156 1.524 . S
C1155 C1159 1.400 . S
C1156 H1141 0.960 . S
C1156 H1142 0.960 . S
C1156 H1143 0.960 . S
C1156 C1155 1.524 . S
C1157 C1154 1.403 . S
C1157 C1158 1.392 . S
C1157 C1161 1.495 . S
C1158 C1157 1.392 . S
C1158 C1159 1.385 . S
C1158 C1160 1.478 . S
C1159 H1153 0.930 . S
C1159 C1155 1.400 . S
C1159 C1158 1.385 . S
C1160 C1158 1.478 . S
C1160 C1162 1.381 . S
C1160 C1166 1.383 . S
C1161 C1157 1.495 . S
C1161 H1167 0.959 . S
C1161 H1168 0.961 . S
C1161 H1169 0.960 . S
C1162 C1160 1.381 . S
C1162 C1163 1.394 . S
C1162 H1170 0.930 . S
C1163 C1162 1.394 . S
C1163 C1164 1.383 . S
C1163 H1171 0.929 . S
C1164 C1163 1.383 . S
C1164 C1165 1.377 . S
C1165 H1149 0.930 . S
C1165 C1164 1.377 . S
C1165 C1166 1.379 . S
C1166 H1150 0.931 . S
C1166 C1160 1.383 . S
C1166 C1165 1.379 . S
H1167 C1161 0.959 . S
H1168 C1161 0.961 . S
H1169 C1161 0.960 . S
H1170 C1162 0.930 . S
H1171 C1163 0.929 . S
H1172 C1180 0.929 . S
H1173 C1182 0.930 . S
H1174 C1184 0.930 . S
H1175 C1187 0.929 . S
H1176 C1190 0.930 . S
H1177 C1192 0.960 . S
H1178 C1192 0.960 . S
H1179 C1192 0.960 . S
C1180 H1172 0.929 . S
C1180 C1181 1.377 . S
C1180 C1182 1.384 . S
C1181 C1180 1.377 . S
C1181 C1187 1.390 . S
C1182 H1173 0.930 . S
C1182 C1180 1.384 . S
C1182 C1183 1.372 . S
C1183 C1182 1.372 . S
C1183 C1184 1.400 . S
C1183 C1188 1.490 . S
C1184 H1174 0.930 . S
C1184 C1183 1.400 . S
C1184 C1187 1.386 . S
H1185 C1201 0.930 . S
H1186 C1202 0.931 . S
C1187 H1175 0.929 . S
C1187 C1181 1.390 . S
C1187 C1184 1.386 . S
C1188 C1183 1.490 . S
C1188 C1190 1.395 . S
C1188 C1191 1.403 . S
H1189 C1195 0.930 . S
C1190 H1176 0.930 . S
C1190 C1188 1.395 . S
C1190 C1193 1.403 . S
C1191 C1188 1.403 . S
C1191 C1192 1.524 . S
C1191 C1195 1.400 . S
C1192 H1177 0.960 . S
C1192 H1178 0.960 . S
C1192 H1179 0.960 . S
C1192 C1191 1.524 . S
C1193 C1190 1.403 . S
C1193 C1194 1.392 . S
C1193 C1197 1.495 . S
C1194 C1193 1.392 . S
C1194 C1195 1.385 . S
C1194 C1196 1.478 . S
C1195 H1189 0.930 . S
C1195 C1191 1.400 . S
C1195 C1194 1.385 . S
C1196 C1194 1.478 . S
C1196 C1198 1.381 . S
C1196 C1202 1.383 . S
C1197 C1193 1.495 . S
C1197 H1203 0.959 . S
C1197 H1204 0.961 . S
C1197 H1205 0.960 . S
C1198 C1196 1.381 . S
C1198 C1199 1.394 . S
C1198 H1206 0.930 . S
C1199 C1198 1.394 . S
C1199 C1200 1.383 . S
C1199 H1207 0.929 . S
C1200 C1199 1.383 . S
C1200 C1201 1.377 . S
C1201 H1185 0.930 . S
C1201 C1200 1.377 . S
C1201 C1202 1.379 . S
C1202 H1186 0.931 . S
C1202 C1196 1.383 . S
C1202 C1201 1.379 . S
H1203 C1197 0.959 . S
H1204 C1197 0.961 . S
H1205 C1197 0.960 . S
H1206 C1198 0.930 . S
H1207 C1199 0.929 . S
H1208 C1216 0.929 . S
H1209 C1218 0.930 . S
H1210 C1220 0.920 1_455 S
H1211 C1223 0.929 . S
H1212 C1226 0.930 . S
H1213 C1228 0.960 . S
H1214 C1228 0.960 . S
H1215 C1228 0.960 . S
C1216 H1208 0.929 . S
C1216 C1217 1.377 . S
C1216 C1218 1.384 . S
C1217 C1216 1.377 . S
C1217 C1223 1.390 . S
C1218 H1209 0.930 . S
C1218 C1216 1.384 . S
C1218 C1219 1.372 . S
C1219 C1218 1.372 . S
C1219 C1220 1.400 . S
C1219 C1224 1.490 . S
C1220 H1210 0.920 1_655 S
C1220 C1219 1.400 . S
C1220 C1223 1.386 . S
H1221 C1237 0.930 . S
H1222 C1238 0.931 1_455 S
C1223 H1211 0.929 . S
C1223 C1217 1.390 . S
C1223 C1220 1.386 . S
C1224 C1219 1.490 . S
C1224 C1226 1.395 . S
C1224 C1227 1.399 1_655 S
H1225 C1231 0.964 . S
C1226 H1212 0.930 . S
C1226 C1224 1.395 . S
C1226 C1229 1.403 . S
C1227 C1224 1.399 1_455 S
C1227 C1228 1.528 . S
C1227 C1231 1.400 . S
C1228 H1213 0.960 . S
C1228 H1214 0.960 . S
C1228 H1215 0.960 . S
C1228 C1227 1.528 . S
C1229 C1226 1.403 . S
C1229 C1230 1.392 . S
C1229 C1233 1.495 . S
C1230 C1229 1.392 . S
C1230 C1231 1.354 1_655 S
C1230 C1232 1.478 . S
C1231 H1225 0.964 . S
C1231 C1227 1.400 . S
C1231 C1230 1.354 1_455 S
C1232 C1230 1.478 . S
C1232 C1234 1.381 . S
C1232 C1238 1.383 . S
C1233 C1229 1.495 . S
C1233 H1239 0.959 . S
C1233 H1240 0.961 . S
C1233 H1241 0.960 . S
C1234 C1232 1.381 . S
C1234 C1235 1.394 . S
C1234 H1242 0.930 . S
C1235 C1234 1.394 . S
C1235 C1236 1.383 . S
C1235 H1243 0.929 . S
C1236 C1235 1.383 . S
C1236 C1237 1.377 1_655 S
C1237 H1221 0.930 . S
C1237 C1236 1.377 1_455 S
C1237 C1238 1.379 1_455 S
C1238 H1222 0.931 1_655 S
C1238 C1232 1.383 . S
C1238 C1237 1.379 1_655 S
H1239 C1233 0.959 . S
H1240 C1233 0.961 . S
H1241 C1233 0.960 . S
H1242 C1234 0.930 . S
H1243 C1235 0.929 . S
H1244 C1252 0.929 . S
H1245 C1254 0.930 . S
H1246 C1256 0.930 . S
H1247 C1259 0.929 . S
H1248 C1262 0.930 . S
H1249 C1264 0.960 . S
H1250 C1264 0.960 . S
H1251 C1264 0.960 . S
C1252 H1244 0.929 . S
C1252 C1253 1.377 . S
C1252 C1254 1.384 . S
C1253 C1252 1.377 . S
C1253 C1259 1.390 . S
C1254 H1245 0.930 . S
C1254 C1252 1.384 . S
C1254 C1255 1.372 . S
C1255 C1254 1.372 . S
C1255 C1256 1.400 . S
C1255 C1260 1.490 . S
C1256 H1246 0.930 . S
C1256 C1255 1.400 . S
C1256 C1259 1.386 . S
H1257 C1273 0.919 1_545 S
H1258 C1274 0.931 . S
C1259 H1247 0.929 . S
C1259 C1253 1.390 . S
C1259 C1256 1.386 . S
C1260 C1255 1.490 . S
C1260 C1262 1.395 . S
C1260 C1263 1.403 1_565 S
H1261 C1267 0.930 . S
C1262 H1248 0.930 . S
C1262 C1260 1.395 . S
C1262 C1265 1.403 . S
C1263 C1260 1.403 1_545 S
C1263 C1264 1.524 . S
C1263 C1267 1.400 . S
C1264 H1249 0.960 . S
C1264 H1250 0.960 . S
C1264 H1251 0.960 . S
C1264 C1263 1.524 . S
C1265 C1262 1.403 . S
C1265 C1266 1.392 . S
C1265 C1269 1.495 . S
C1266 C1265 1.392 . S
C1266 C1267 1.385 1_565 S
C1266 C1268 1.478 . S
C1267 H1261 0.930 . S
C1267 C1263 1.400 . S
C1267 C1266 1.385 1_545 S
C1268 C1266 1.478 . S
C1268 C1270 1.381 . S
C1268 C1274 1.383 . S
C1269 C1265 1.495 . S
C1269 H1275 0.959 . S
C1269 H1276 0.961 . S
C1269 H1277 0.960 . S
C1270 C1268 1.381 . S
C1270 C1271 1.394 . S
C1270 H1278 0.930 . S
C1271 C1270 1.394 . S
C1271 C1272 1.383 . S
C1271 H1279 0.929 . S
C1272 C1271 1.383 . S
C1272 C1273 1.378 . S
C1273 H1257 0.919 1_565 S
C1273 C1272 1.378 . S
C1273 C1274 1.393 . S
C1274 H1258 0.931 . S
C1274 C1268 1.383 . S
C1274 C1273 1.393 . S
H1275 C1269 0.959 . S
H1276 C1269 0.961 . S
H1277 C1269 0.960 . S
H1278 C1270 0.930 . S
H1279 C1271 0.929 . S
H1280 C1288 0.929 . S
H1281 C1290 0.930 . S
H1282 C1292 0.930 . S
H1283 C1295 0.929 . S
H1284 C1298 0.930 . S
H1285 C1300 0.960 . S
H1286 C1300 0.960 . S
H1287 C1300 0.960 . S
C1288 H1280 0.929 . S
C1288 C1289 1.377 . S
C1288 C1290 1.384 . S
C1289 C1288 1.377 . S
C1289 C1295 1.390 . S
C1290 H1281 0.930 . S
C1290 C1288 1.384 . S
C1290 C1291 1.372 . S
C1291 C1290 1.372 . S
C1291 C1292 1.400 . S
C1291 C1296 1.490 . S
C1292 H1282 0.930 . S
C1292 C1291 1.400 . S
C1292 C1295 1.386 . S
H1293 C1309 0.930 . S
H1294 C1310 0.931 . S
C1295 H1283 0.929 . S
C1295 C1289 1.390 . S
C1295 C1292 1.386 . S
C1296 C1291 1.490 . S
C1296 C1298 1.395 . S
C1296 C1299 1.403 . S
H1297 C1303 0.930 . S
C1298 H1284 0.930 . S
C1298 C1296 1.395 . S
C1298 C1301 1.403 . S
C1299 C1296 1.403 . S
C1299 C1300 1.524 . S
C1299 C1303 1.400 . S
C1300 H1285 0.960 . S
C1300 H1286 0.960 . S
C1300 H1287 0.960 . S
C1300 C1299 1.524 . S
C1301 C1298 1.403 . S
C1301 C1302 1.392 . S
C1301 C1305 1.495 . S
C1302 C1301 1.392 . S
C1302 C1303 1.385 . S
C1302 C1304 1.478 . S
C1303 H1297 0.930 . S
C1303 C1299 1.400 . S
C1303 C1302 1.385 . S
C1304 C1302 1.478 . S
C1304 C1306 1.381 . S
C1304 C1310 1.383 . S
C1305 C1301 1.495 . S
C1305 H1311 0.959 . S
C1305 H1312 0.961 . S
C1305 H1313 0.960 . S
C1306 C1304 1.381 . S
C1306 C1307 1.394 . S
C1306 H1314 0.930 . S
C1307 C1306 1.394 . S
C1307 C1308 1.383 . S
C1307 H1315 0.929 . S
C1308 C1307 1.383 . S
C1308 C1309 1.377 . S
C1309 H1293 0.930 . S
C1309 C1308 1.377 . S
C1309 C1310 1.379 . S
C1310 H1294 0.931 . S
C1310 C1304 1.383 . S
C1310 C1309 1.379 . S
H1311 C1305 0.959 . S
H1312 C1305 0.961 . S
H1313 C1305 0.960 . S
H1314 C1306 0.930 . S
H1315 C1307 0.929 . S
H1316 C1324 0.929 . S
H1317 C1326 0.930 . S
H1318 C1328 0.930 . S
H1319 C1331 0.929 . S
H1320 C1334 0.930 . S
H1321 C1336 0.960 . S
H1322 C1336 0.960 . S
H1323 C1336 0.960 . S
C1324 H1316 0.929 . S
C1324 C1325 1.377 . S
C1324 C1326 1.384 . S
C1325 C1324 1.377 . S
C1325 C1331 1.390 . S
C1326 H1317 0.930 . S
C1326 C1324 1.384 . S
C1326 C1327 1.372 . S
C1327 C1326 1.372 . S
C1327 C1328 1.400 . S
C1327 C1332 1.490 . S
C1328 H1318 0.930 . S
C1328 C1327 1.400 . S
C1328 C1331 1.386 . S
H1329 C1345 0.930 . S
H1330 C1346 0.931 . S
C1331 H1319 0.929 . S
C1331 C1325 1.390 . S
C1331 C1328 1.386 . S
C1332 C1327 1.490 . S
C1332 C1334 1.395 . S
C1332 C1335 1.403 . S
H1333 C1339 0.930 . S
C1334 H1320 0.930 . S
C1334 C1332 1.395 . S
C1334 C1337 1.403 . S
C1335 C1332 1.403 . S
C1335 C1336 1.524 . S
C1335 C1339 1.400 . S
C1336 H1321 0.960 . S
C1336 H1322 0.960 . S
C1336 H1323 0.960 . S
C1336 C1335 1.524 . S
C1337 C1334 1.403 . S
C1337 C1338 1.392 . S
C1337 C1341 1.495 . S
C1338 C1337 1.392 . S
C1338 C1339 1.385 . S
C1338 C1340 1.478 . S
C1339 H1333 0.930 . S
C1339 C1335 1.400 . S
C1339 C1338 1.385 . S
C1340 C1338 1.478 . S
C1340 C1342 1.381 . S
C1340 C1346 1.383 . S
C1341 C1337 1.495 . S
C1341 H1347 0.959 . S
C1341 H1348 0.961 . S
C1341 H1349 0.960 . S
C1342 C1340 1.381 . S
C1342 C1343 1.394 . S
C1342 H1350 0.930 . S
C1343 C1342 1.394 . S
C1343 C1344 1.383 . S
C1343 H1351 0.929 . S
C1344 C1343 1.383 . S
C1344 C1345 1.377 . S
C1345 H1329 0.930 . S
C1345 C1344 1.377 . S
C1345 C1346 1.379 . S
C1346 H1330 0.931 . S
C1346 C1340 1.383 . S
C1346 C1345 1.379 . S
H1347 C1341 0.959 . S
H1348 C1341 0.961 . S
H1349 C1341 0.960 . S
H1350 C1342 0.930 . S
H1351 C1343 0.929 . S
C497 C125 1.893 . S
C516 C215 1.948 . S
C552 C292 1.980 . S
C533 C144 1.890 . S
C588 C383 1.938 . S
C569 C87 1.887 . S
C624 C467 1.942 . S
C605 C106 1.881 . S
C660 C226 1.958 . S
C641 C49 1.950 . S
C677 C68 1.957 . S
C696 C303 1.967 . S
C713 C11 1.943 . S
C732 C394 1.959 . S
C749 C30 1.934 . S
C768 C478 1.934 1_655 S
C804 C210 0.549 . S
C785 C97 0.576 . S
C840 C305 0.631 . S
C821 C116 0.559 . S
C876 C378 0.538 . S
C857 C135 0.583 . S
C893 C78 0.548 . S
C912 C462 0.609 . S
C929 C21 0.564 . S
C948 C221 0.620 . S
C984 C294 0.507 . S
C965 C40 0.553 . S
C1020 C389 0.526 . S
C1001 C59 0.558 . S
C1037 C2 0.565 . S
C1056 C473 0.687 . S
C1073 C101 1.889 . S
C1092 C219 2.011 . S
C1109 C120 1.888 . S
C1128 C310 2.032 . S
C1164 C387 2.031 . S
C1145 C139 1.910 . S
C1200 C471 2.050 . S
C1181 C82 1.918 . S
C1217 C25 1.889 . S
C1236 C208 2.014 . S
C1272 C299 2.033 1_565 S
C1253 C44 1.892 . S
C1308 C376 2.045 . S
C1289 C63 1.916 . S
C1325 C6 1.912 . S
C1344 C460 2.032 . S
