# Generated by pormake.
# Topology zzz, (3,6)-cn, num edge types: 1
# Building blocks:
#     Node 0, Type 0, BuildingBlock: KAKCAD_clean_linker_0, # of connection points: 3
#     Node 1, Type 0, BuildingBlock: KAKCAD_clean_linker_0, # of connection points: 3
#     Node 2, Type 0, BuildingBlock: KAKCAD_clean_linker_0, # of connection points: 3
#     Node 3, Type 0, BuildingBlock: KAKCAD_clean_linker_0, # of connection points: 3
#     Node 4, Type 0, BuildingBlock: KAKCAD_clean_linker_0, # of connection points: 3
#     Node 5, Type 0, BuildingBlock: KAKCAD_clean_linker_0, # of connection points: 3
#     Node 6, Type 0, BuildingBlock: KAKCAD_clean_linker_0, # of connection points: 3
#     Node 7, Type 0, BuildingBlock: KAKCAD_clean_linker_0, # of connection points: 3
#     Node 8, Type 1, BuildingBlock: KUMJIN_clean_sbu_0, # of connection points: 6
#     Node 9, Type 1, BuildingBlock: KUMJIN_clean_sbu_0, # of connection points: 6
#     Node 10, Type 1, BuildingBlock: KUMJIN_clean_sbu_0, # of connection points: 6
#     Node 11, Type 1, BuildingBlock: KUMJIN_clean_sbu_0, # of connection points: 6
#     Edge 12, Type (0, 1), BuildingBlock: KIFKEQ_clean_linker_1, # of connection points: 2
#     Edge 13, Type (0, 1), BuildingBlock: KIFKEQ_clean_linker_1, # of connection points: 2
#     Edge 14, Type (0, 1), BuildingBlock: KIFKEQ_clean_linker_1, # of connection points: 2
#     Edge 15, Type (0, 1), BuildingBlock: KIFKEQ_clean_linker_1, # of connection points: 2
#     Edge 16, Type (0, 1), BuildingBlock: KIFKEQ_clean_linker_1, # of connection points: 2
#     Edge 17, Type (0, 1), BuildingBlock: KIFKEQ_clean_linker_1, # of connection points: 2
#     Edge 18, Type (0, 1), BuildingBlock: KIFKEQ_clean_linker_1, # of connection points: 2
#     Edge 19, Type (0, 1), BuildingBlock: KIFKEQ_clean_linker_1, # of connection points: 2
#     Edge 20, Type (0, 1), BuildingBlock: KIFKEQ_clean_linker_1, # of connection points: 2
#     Edge 21, Type (0, 1), BuildingBlock: KIFKEQ_clean_linker_1, # of connection points: 2
#     Edge 22, Type (0, 1), BuildingBlock: KIFKEQ_clean_linker_1, # of connection points: 2
#     Edge 23, Type (0, 1), BuildingBlock: KIFKEQ_clean_linker_1, # of connection points: 2
#     Edge 24, Type (0, 1), BuildingBlock: KIFKEQ_clean_linker_1, # of connection points: 2
#     Edge 25, Type (0, 1), BuildingBlock: KIFKEQ_clean_linker_1, # of connection points: 2
#     Edge 26, Type (0, 1), BuildingBlock: KIFKEQ_clean_linker_1, # of connection points: 2
#     Edge 27, Type (0, 1), BuildingBlock: KIFKEQ_clean_linker_1, # of connection points: 2
#     Edge 28, Type (0, 1), BuildingBlock: KIFKEQ_clean_linker_1, # of connection points: 2
#     Edge 29, Type (0, 1), BuildingBlock: KIFKEQ_clean_linker_1, # of connection points: 2
#     Edge 30, Type (0, 1), BuildingBlock: KIFKEQ_clean_linker_1, # of connection points: 2
#     Edge 31, Type (0, 1), BuildingBlock: KIFKEQ_clean_linker_1, # of connection points: 2
#     Edge 32, Type (0, 1), BuildingBlock: KIFKEQ_clean_linker_1, # of connection points: 2
#     Edge 33, Type (0, 1), BuildingBlock: KIFKEQ_clean_linker_1, # of connection points: 2
#     Edge 34, Type (0, 1), BuildingBlock: KIFKEQ_clean_linker_1, # of connection points: 2
#     Edge 35, Type (0, 1), BuildingBlock: KIFKEQ_clean_linker_1, # of connection points: 2
# Relax obj value: 0.294
# Max RMSD: 0.225
# Mean RMSD: 0.211
data_MOF--net-zzz--node1-KUMJIN_clean_sbu_0--node2-KAKCAD_clean_linker_0--edge1-KIFKEQ_clean_linker_1
_symmetry_space_group_name_H-M    P1
_symmetry_Int_Tables_number       1
_symmetry_cell_setting            triclinic
loop_
_symmetry_equiv_pos_as_xyz
'x, y, z'
_cell_length_a     58.254345
_cell_length_b     58.180043
_cell_length_c     20.204422
_cell_angle_alpha  90.858897
_cell_angle_beta   90.091893
_cell_angle_gamma 89.968634
loop_
_atom_site_label
_atom_site_type_symbol
_atom_site_fract_x
_atom_site_fract_y
_atom_site_fract_z
_atom_type_partial_charge
C0 C 0.79468 0.60549 0.93941 0.0
C1 C 0.81748 0.59764 0.93605 0.0
C2 C 0.78003 0.5979 0.98975 0.0
C3 C 0.78786 0.582 0.03678 0.0
C4 C 0.81075 0.57446 0.03308 0.0
C5 C 0.82533 0.58228 0.98403 0.0
C6 C 0.77226 0.57179 0.08696 0.0
C7 C 0.74947 0.5661 0.07109 0.0
C8 C 0.73599 0.55303 0.11424 0.0
C9 C 0.74573 0.54511 0.17408 0.0
C10 C 0.76859 0.551 0.19085 0.0
C11 C 0.78112 0.56504 0.14831 0.0
C12 C 0.78145 0.54087 0.24727 0.0
C13 C 0.77895 0.54939 0.31228 0.0
C14 C 0.80015 0.52637 0.23301 0.0
C15 C 0.81665 0.52148 0.28121 0.0
C16 C 0.81499 0.53082 0.34582 0.0
C17 C 0.71251 0.54655 0.09171 0.0
C18 C 0.6941 0.56184 0.10099 0.0
C19 C 0.70946 0.52745 0.04933 0.0
C20 C 0.68862 0.52399 0.01561 0.0
C21 C 0.67026 0.53965 0.02306 0.0
C22 C 0.67319 0.55837 0.06746 0.0
C23 C 0.79545 0.54432 0.36111 0.0
H24 H 0.78812 0.61717 0.90266 0.0
H25 H 0.76255 0.60419 0.99118 0.0
H26 H 0.81735 0.56159 0.06629 0.0
H27 H 0.84252 0.57521 0.98167 0.0
H28 H 0.74242 0.57079 0.02349 0.0
H29 H 0.79851 0.56974 0.16206 0.0
H30 H 0.73593 0.53398 0.20592 0.0
H31 H 0.76497 0.56099 0.32438 0.0
H32 H 0.80282 0.51998 0.18294 0.0
H33 H 0.83142 0.51143 0.26617 0.0
H34 H 0.69619 0.57699 0.13223 0.0
H35 H 0.72361 0.51578 0.0398 0.0
H36 H 0.79318 0.55158 0.41029 0.0
H37 H 0.65947 0.57064 0.07554 0.0
H38 H 0.68734 0.50958 0.98132 0.0
C39 C 0.91874 0.79387 0.93326 0.0
C40 C 0.92135 0.81782 0.93129 0.0
C41 C 0.9279 0.78146 0.98605 0.0
C42 C 0.94061 0.79271 0.03653 0.0
C43 C 0.9419 0.81688 0.03576 0.0
C44 C 0.93213 0.82923 0.98446 0.0
C45 C 0.95454 0.77957 0.0855 0.0
C46 C 0.96433 0.75826 0.06799 0.0
C47 C 0.97982 0.74711 0.11 0.0
C48 C 0.98658 0.75814 0.17011 0.0
C49 C 0.97669 0.77959 0.18889 0.0
C50 C 0.96016 0.78942 0.14735 0.0
C51 C 0.98403 0.79359 0.24818 0.0
C52 C 0.96735 0.80189 0.29293 0.0
C53 C 1.00614 0.80323 0.25146 0.0
C54 C 0.01099 0.82165 0.29548 0.0
C55 C 0.99385 0.83096 0.33745 0.0
C56 C 0.98841 0.72409 0.08744 0.0
C57 C 0.97616 0.70417 0.10385 0.0
C58 C 1.00476 0.72251 0.03643 0.0
C59 C 0.00828 0.70173 1.00134 0.0
C60 C 0.99523 0.68199 0.01548 0.0
C61 C 0.97953 0.68342 0.06851 0.0
C62 C 0.97219 0.82018 0.33693 0.0
H63 H 0.91058 0.7847 0.89255 0.0
H64 H 0.92585 0.76298 0.98554 0.0
H65 H 0.95186 0.82643 0.07202 0.0
H66 H 0.9349 0.84764 0.98351 0.0
H67 H 0.9605 0.75037 0.02034 0.0
H68 H 0.95236 0.80555 0.1625 0.0
H69 H 0.99924 0.75018 0.20169 0.0
H70 H 0.95008 0.79502 0.2913 0.0
H71 H 0.01921 0.79766 0.2167 0.0
H72 H 0.02786 0.82942 0.29374 0.0
H73 H 0.96298 0.705 0.14159 0.0
H74 H 0.01392 0.73774 0.02117 0.0
H75 H 0.95863 0.8263 0.36928 0.0
H76 H 0.96936 0.66861 0.08171 0.0
H77 H 0.02034 0.70153 0.96063 0.0
C78 C 0.72224 0.91054 0.94309 0.0
C79 C 0.69864 0.91543 0.94239 0.0
C80 C 0.73609 0.91862 0.99524 0.0
C81 C 0.72671 0.93245 0.04646 0.0
C82 C 0.70278 0.936 0.04705 0.0
C83 C 0.68896 0.92734 0.99635 0.0
C84 C 0.74164 0.9453 0.09475 0.0
C85 C 0.76358 0.95299 0.07652 0.0
C86 C 0.77623 0.96806 0.11747 0.0
C87 C 0.76624 0.97651 0.17691 0.0
C88 C 0.74447 0.96835 0.19694 0.0
C89 C 0.73297 0.9522 0.15673 0.0
C90 C 0.73186 0.97722 0.2563 0.0
C91 C 0.72379 0.96161 0.30339 0.0
C92 C 0.72286 0.99963 0.25712 0.0
C93 C 0.70504 1.00577 0.30093 0.0
C94 C 0.69577 0.9896 0.3449 0.0
C95 C 0.79971 0.97447 0.09509 0.0
C96 C 0.81683 0.95748 0.09196 0.0
C97 C 0.80382 0.99558 0.06443 0.0
C98 C 0.82427 0.99922 0.02901 0.0
C99 C 0.84104 0.98177 0.02318 0.0
C100 C 0.83724 0.96111 0.05698 0.0
C101 C 0.70609 0.96772 0.34719 0.0
H102 H 0.73011 0.90146 0.90179 0.0
H103 H 0.75427 0.91485 0.99364 0.0
H104 H 0.69463 0.94692 0.08387 0.0
H105 H 0.67091 0.93186 0.99647 0.0
H106 H 0.77073 0.94804 0.02895 0.0
H107 H 0.71648 0.94583 0.17298 0.0
H108 H 0.7754 0.98889 0.20757 0.0
H109 H 0.73021 0.94413 0.30344 0.0
H110 H 0.72833 0.01186 0.22043 0.0
H111 H 0.69756 0.02274 0.29723 0.0
H112 H 0.81397 0.94091 0.11432 0.0
H113 H 0.79067 0.00876 0.06464 0.0
H114 H 0.69989 0.95494 0.38122 0.0
H115 H 0.84983 0.94742 0.05516 0.0
H116 H 0.82636 0.01529 1.0034 0.0
C117 C 0.53125 0.69928 0.25588 0.0
C118 C 0.53571 0.70302 0.32372 0.0
C119 C 0.53745 0.71559 0.20898 0.0
C120 C 0.54838 0.7362 0.22807 0.0
C121 C 0.55173 0.7407 0.29593 0.0
C122 C 0.54549 0.72429 0.34323 0.0
C123 C 0.5598 0.75039 0.17662 0.0
C124 C 0.55518 0.77402 0.16797 0.0
C125 C 0.5663 0.78621 0.11702 0.0
C126 C 0.5821 0.77463 0.07587 0.0
C127 C 0.58617 0.751 0.08209 0.0
C128 C 0.57512 0.73923 0.13323 0.0
C129 C 0.59921 0.73779 0.03045 0.0
C130 C 0.5973 0.74352 0.96321 0.0
C131 C 0.61073 0.71737 0.04655 0.0
C132 C 0.61673 0.70144 0.99714 0.0
C133 C 0.61194 0.70585 0.93015 0.0
C134 C 0.5602 0.81025 0.09967 0.0
C135 C 0.53821 0.81528 0.0752 0.0
C136 C 0.57757 0.82688 0.09366 0.0
C137 C 0.5734 0.84752 0.06078 0.0
C138 C 0.55185 0.8519 0.03208 0.0
C139 C 0.5341 0.83582 0.04145 0.0
C140 C 0.60401 0.72791 0.9137 0.0
H141 H 0.52406 0.68316 0.23821 0.0
H142 H 0.53474 0.71155 0.15701 0.0
H143 H 0.56032 0.7563 0.31212 0.0
H144 H 0.54888 0.72805 0.39496 0.0
H145 H 0.54274 0.78268 0.19938 0.0
H146 H 0.57769 0.7209 0.13816 0.0
H147 H 0.59041 0.78397 0.03657 0.0
H148 H 0.58884 0.75916 0.94817 0.0
H149 H 0.61354 0.7128 0.09768 0.0
H150 H 0.62309 0.68489 0.01259 0.0
H151 H 0.52461 0.80263 0.07807 0.0
H152 H 0.59477 0.82331 0.11121 0.0
H153 H 0.60106 0.73243 0.86261 0.0
H154 H 0.51723 0.83875 0.02063 0.0
H155 H 0.5875 0.8594 0.05425 0.0
C156 C 0.22129 0.43418 0.319 0.0
C157 C 0.20679 0.41733 0.29075 0.0
C158 C 0.23922 0.44347 0.28235 0.0
C159 C 0.24295 0.43615 0.21675 0.0
C160 C 0.2304 0.41735 0.19154 0.0
C161 C 0.21257 0.40789 0.22844 0.0
C162 C 0.2565 0.45081 0.1719 0.0
C163 C 0.27761 0.46005 0.19179 0.0
C164 C 0.28875 0.47675 0.15392 0.0
C165 C 0.27821 0.48446 0.09484 0.0
C166 C 0.25686 0.47506 0.07411 0.0
C167 C 0.24653 0.45813 0.11277 0.0
C168 C 0.24348 0.48329 0.01587 0.0
C169 C 0.23434 0.50565 0.01522 0.0
C170 C 0.23522 0.46715 0.96906 0.0
C171 C 0.21731 0.47269 0.92569 0.0
C172 C 0.20699 0.4946 0.92769 0.0
C173 C 0.31091 0.48605 0.18002 0.0
C174 C 0.31156 0.49595 0.24391 0.0
C175 C 0.3318 0.48112 0.14814 0.0
C176 C 0.35285 0.48483 0.18107 0.0
C177 C 0.35344 0.49353 0.24669 0.0
C178 C 0.33247 0.49973 0.2766 0.0
C179 C 0.21632 0.51125 0.97169 0.0
H180 H 0.2174 0.442 0.36664 0.0
H181 H 0.2486 0.45796 0.3031 0.0
H182 H 0.23326 0.41109 0.14146 0.0
H183 H 0.2021 0.39452 0.20591 0.0
H184 H 0.28529 0.45441 0.23774 0.0
H185 H 0.22971 0.45167 0.09878 0.0
H186 H 0.28631 0.49776 0.06609 0.0
H187 H 0.24003 0.51836 0.05139 0.0
H188 H 0.24164 0.44967 0.96901 0.0
H189 H 0.21066 0.45924 0.89345 0.0
H190 H 0.29573 0.4998 0.26989 0.0
H191 H 0.33182 0.47308 0.09944 0.0
H192 H 0.2092 0.52843 0.97415 0.0
H193 H 0.33212 0.507 0.32624 0.0
H194 H 0.36855 0.47974 0.15631 0.0
C195 C 0.09881 0.24334 0.34852 0.0
C196 C 0.10522 0.22027 0.33838 0.0
C197 C 0.09041 0.25633 0.2963 0.0
C198 C 0.08951 0.24714 0.23123 0.0
C199 C 0.10026 0.22571 0.21978 0.0
C200 C 0.10744 0.21221 0.27264 0.0
C201 C 0.07493 0.2582 0.17876 0.0
C202 C 0.06734 0.28105 0.18611 0.0
C203 C 0.04961 0.28991 0.14698 0.0
C204 C 0.04062 0.27629 0.09419 0.0
C205 C 0.04953 0.25394 0.08182 0.0
C206 C 0.06605 0.24509 0.12533 0.0
C207 C 0.04188 0.2385 0.02592 0.0
C208 C 0.02018 0.22793 0.02616 0.0
C209 C 0.05824 0.23044 0.9799 0.0
C210 C 0.05346 0.21177 0.93724 0.0
C211 C 0.0322 0.20026 0.93953 0.0
C212 C 0.03989 0.31256 0.16878 0.0
C213 C 0.02572 0.31334 0.22506 0.0
C214 C 0.04951 0.33325 0.1468 0.0
C215 C 0.04567 0.35407 0.18171 0.0
C216 C 0.03253 0.3546 0.24034 0.0
C217 C 0.02209 0.33401 0.2603 0.0
C218 C 0.01539 0.20909 0.9835 0.0
H219 H 0.09832 0.2509 0.39776 0.0
H220 H 0.08312 0.27283 0.30929 0.0
H221 H 0.10188 0.21843 0.1705 0.0
H222 H 0.1129 0.19482 0.26149 0.0
H223 H 0.0744 0.29213 0.22443 0.0
H224 H 0.07101 0.22733 0.1182 0.0
H225 H 0.02699 0.28295 0.06341 0.0
H226 H 1.00741 0.23331 0.06209 0.0
H227 H 0.07523 0.238 0.97903 0.0
H228 H 0.06675 0.20604 0.90341 0.0
H229 H 0.0186 0.2976 0.24434 0.0
H230 H 0.06114 0.33309 0.10502 0.0
H231 H 0.99886 0.20074 0.98751 0.0
H232 H 0.01163 0.33372 0.30454 0.0
H233 H 0.05411 0.3695 0.16492 0.0
C234 C 0.30706 0.10628 0.30286 0.0
C235 C 0.32386 0.12143 0.27873 0.0
C236 C 0.29011 0.09735 0.26108 0.0
C237 C 0.28957 0.1032 0.194 0.0
C238 C 0.30472 0.12018 0.17143 0.0
C239 C 0.32164 0.12929 0.21349 0.0
C240 C 0.27629 0.0886 0.14669 0.0
C241 C 0.25431 0.08065 0.16265 0.0
C242 C 0.24373 0.0631 0.12512 0.0
C243 C 0.2555 0.0534 0.07003 0.0
C244 C 0.27726 0.0621 0.05169 0.0
C245 C 0.28726 0.07967 0.09029 0.0
C246 C 0.29122 0.05269 0.99564 0.0
C247 C 0.30095 0.03063 0.99874 0.0
C248 C 0.29921 0.06774 0.94698 0.0
C249 C 0.31741 0.06149 0.90517 0.0
C250 C 0.32833 0.04002 0.91104 0.0
C251 C 0.22104 0.05468 0.14844 0.0
C252 C 0.21978 0.03502 0.18776 0.0
C253 C 0.20164 0.06898 0.14432 0.0
C254 C 0.18168 0.0642 0.18055 0.0
C255 C 0.1808 0.04523 0.22296 0.0
C256 C 0.19993 0.03037 0.22469 0.0
C257 C 0.31929 0.02434 0.95686 0.0
H258 H 0.30813 0.09948 0.35233 0.0
H259 H 0.27885 0.0842 0.28006 0.0
H260 H 0.30439 0.12535 0.12015 0.0
H261 H 0.33388 0.14136 0.19358 0.0
H262 H 0.24571 0.0875 0.20627 0.0
H263 H 0.30451 0.08531 0.07862 0.0
H264 H 0.24779 0.03946 0.04169 0.0
H265 H 0.29551 0.01885 0.03666 0.0
H266 H 0.2922 0.08495 0.94387 0.0
H267 H 0.32343 0.07386 0.86964 0.0
H268 H 0.23465 0.024 0.19306 0.0
H269 H 0.20235 0.08455 0.11566 0.0
H270 H 0.32724 1.0077 0.96324 0.0
H271 H 0.19982 0.01549 0.25625 0.0
H272 H 0.16744 0.07613 0.17828 0.0
C273 C 0.45982 0.30558 0.88664 0.0
C274 C 0.48139 0.3165 0.88939 0.0
C275 C 0.45356 0.28945 0.93413 0.0
C276 C 0.46876 0.28357 0.98524 0.0
C277 C 0.49103 0.29285 0.98471 0.0
C278 C 0.49731 0.30911 0.93725 0.0
C279 C 0.45934 0.27417 0.04768 0.0
C280 C 0.4662 0.25294 0.07468 0.0
C281 C 0.45846 0.24658 0.13836 0.0
C282 C 0.44444 0.26202 0.1745 0.0
C283 C 0.43818 0.28341 0.14894 0.0
C284 C 0.44485 0.28873 0.0844 0.0
C285 C 0.42806 0.30157 0.19286 0.0
C286 C 0.41242 0.2963 0.24354 0.0
C287 C 0.43625 0.32421 0.18875 0.0
C288 C 0.43014 0.34075 0.23583 0.0
C289 C 0.41577 0.33522 0.28914 0.0
C290 C 0.46559 0.22467 0.17058 0.0
C291 C 0.46399 0.20326 0.13759 0.0
C292 C 0.47195 0.22497 0.23781 0.0
C293 C 0.47535 0.20457 0.27212 0.0
C294 C 0.47297 0.18301 0.24026 0.0
C295 C 0.46761 0.18268 0.17202 0.0
C296 C 0.40639 0.31296 0.29139 0.0
H297 H 0.44727 0.31039 0.84975 0.0
H298 H 0.43616 0.28286 0.93395 0.0
H299 H 0.50289 0.28909 0.02446 0.0
H300 H 0.51402 0.31714 0.94129 0.0
H301 H 0.4778 0.24182 0.04723 0.0
H302 H 0.4399 0.30511 0.06377 0.0
H303 H 0.43919 0.25773 0.22421 0.0
H304 H 0.40549 0.27912 0.24766 0.0
H305 H 0.44875 0.32895 0.1518 0.0
H306 H 0.43829 0.35743 0.23294 0.0
H307 H 0.4591 0.20239 0.08588 0.0
H308 H 0.47371 0.24111 0.26476 0.0
H309 H 0.39516 0.30815 0.33151 0.0
H310 H 0.46599 0.16651 0.1452 0.0
H311 H 0.47909 0.20587 0.32452 0.0
Eu312 Eu 0.03615 0.00936 0.70046 0.0
C313 C 0.94972 0.98922 0.52542 0.0
C314 C 0.96323 0.96534 0.43444 0.0
C315 C 0.92426 0.96084 0.47475 0.0
C316 C 0.96714 0.9827 0.4828 0.0
C317 C 0.92791 0.97875 0.52088 0.0
C318 C 0.9419 0.95412 0.43166 0.0
C319 C 0.91435 1.00566 0.60426 0.0
N320 N 0.95376 1.00654 0.56942 0.0
C321 C 0.93623 0.01549 0.60684 0.0
C322 C 0.91025 0.98698 0.56174 0.0
Eu323 Eu 0.99165 0.0214 0.57523 0.0
N324 N 0.98763 0.99382 0.48705 0.0
C325 C 1.0043 0.9894 0.44084 0.0
C326 C 0.98072 0.96 0.38954 0.0
C327 C 1.0012 0.97232 0.39221 0.0
H328 H 0.93944 0.02975 0.64054 0.0
H329 H 0.01473 0.96858 0.35698 0.0
H330 H 0.93873 0.94057 0.39543 0.0
H331 H 0.90073 0.0124 0.63531 0.0
H332 H 0.02038 0.99843 0.44122 0.0
H333 H 0.01366 0.06283 0.9178 0.0
H334 H 0.97843 0.94671 0.35197 0.0
H335 H 0.08989 0.99707 0.65244 0.0
H336 H 0.00918 0.03128 0.83782 0.0
H337 H 0.12845 0.01483 0.65463 0.0
H338 H 0.90771 0.95242 0.47104 0.0
H339 H 0.04858 0.08695 0.91643 0.0
H340 H 0.08783 0.09398 0.86978 0.0
H341 H 0.89328 0.97938 0.55977 0.0
H342 H 0.11933 0.08093 0.79726 0.0
N343 N 0.04038 0.03783 0.78671 0.0
C344 C 0.02425 0.04169 0.83472 0.0
C345 C 0.04658 0.07312 0.88036 0.0
C346 C 0.06391 0.06795 0.83483 0.0
C347 C 0.02687 0.05956 0.88124 0.0
C348 C 0.06035 0.0498 0.78872 0.0
H349 H 0.13484 0.05105 0.71785 0.0
N350 N 0.07436 0.02372 0.70977 0.0
C351 C 0.11435 0.02299 0.68071 0.0
C352 C 0.07793 0.04257 0.74833 0.0
C353 C 0.09251 0.01304 0.67933 0.0
C354 C 0.11786 0.04345 0.71624 0.0
C355 C 0.0997 0.05315 0.75226 0.0
O356 O 0.05853 0.98204 0.73602 0.0
O357 O 0.0131 0.99459 0.62199 0.0
O358 O 0.97602 0.99974 0.65642 0.0
O359 O 0.99966 0.00967 0.74489 0.0
O360 O 0.04618 0.98204 0.62368 0.0
O361 O 0.02468 0.98585 0.77714 0.0
O362 O 0.96772 0.04864 0.54958 0.0
O363 O 0.01549 0.03674 0.65186 0.0
O364 O 0.05453 0.02436 0.6115 0.0
O365 O 0.02708 0.024 0.52677 0.0
O366 O 0.98185 0.04806 0.65379 0.0
O367 O 0.99894 0.0442 0.4929 0.0
C368 C 0.02647 0.98009 0.59517 0.0
C369 C 0.03691 0.94817 0.74721 0.0
C370 C 0.00899 0.91812 0.71881 0.0
C371 C 0.0141 0.94024 0.74387 0.0
C372 C 0.02706 0.90425 0.69494 0.0
C373 C 0.05464 0.93378 0.72419 0.0
C374 C 0.04967 0.91208 0.69762 0.0
C375 C 0.97977 1.00211 0.72072 0.0
C376 C 0.04209 0.9721 0.76815 0.0
C377 C 0.10286 0.07233 0.79431 0.0
C378 C 0.08495 0.07973 0.83563 0.0
C379 C 1.0019 0.05092 0.67945 0.0
C380 C 0.98781 0.08221 0.52407 0.0
C381 C 0.01074 0.08984 0.5241 0.0
C382 C 0.0163 0.11227 0.54521 0.0
C383 C 0.99866 0.12691 0.56789 0.0
C384 C 0.97046 0.0973 0.54571 0.0
C385 C 0.97592 0.11943 0.568 0.0
C386 C 0.04845 0.02637 0.5486 0.0
C387 C 0.98203 0.05801 0.50861 0.0
H388 H 1.00024 0.95133 0.76039 0.0
H389 H 0.02389 0.88699 0.67634 0.0
H390 H 0.07234 0.93949 0.72549 0.0
H391 H 0.06345 0.90118 0.67961 0.0
H392 H 0.02435 0.07832 0.50845 0.0
H393 H 1.0023 0.14442 0.58348 0.0
H394 H 0.9527 0.09179 0.54678 0.0
H395 H 0.96245 0.13089 0.58502 0.0
Eu396 Eu 0.51741 0.03889 0.68706 0.0
C397 C 0.53672 0.94807 0.52078 0.0
C398 C 0.56185 0.95983 0.43234 0.0
C399 C 0.56412 0.92088 0.47362 0.0
C400 C 0.54442 0.96485 0.47881 0.0
C401 C 0.54606 0.92571 0.51767 0.0
C402 C 0.57203 0.93793 0.43107 0.0
C403 C 0.51781 0.91415 0.59802 0.0
N404 N 0.51926 0.95331 0.56248 0.0
C405 C 0.50918 0.9366 0.59934 0.0
C406 C 0.53656 0.90875 0.55771 0.0
Eu407 Eu 0.50631 0.99192 0.56609 0.0
N408 N 0.53417 0.98579 0.48146 0.0
C409 C 0.53942 1.00193 0.43538 0.0
C410 C 0.56816 0.97678 0.38756 0.0
C411 C 0.55664 0.9978 0.38849 0.0
H412 H 0.4949 0.94077 0.63136 0.0
H413 H 0.56111 0.01093 0.35338 0.0
H414 H 0.58563 0.93386 0.39629 0.0
H415 H 0.51011 0.9011 0.62845 0.0
H416 H 0.53097 0.01837 0.43541 0.0
H417 H 0.4655 0.01783 0.90449 0.0
H418 H 0.58154 0.97366 0.35133 0.0
H419 H 0.52527 0.09027 0.61888 0.0
H420 H 0.49512 0.01155 0.82052 0.0
H421 H 0.50797 0.12911 0.62196 0.0
H422 H 0.57171 0.90388 0.471 0.0
H423 H 0.44334 0.05407 0.90722 0.0
H424 H 0.4368 0.09338 0.86151 0.0
H425 H 0.54325 0.89137 0.55678 0.0
H426 H 0.44832 0.1237 0.78469 0.0
N427 N 0.4901 0.04383 0.77393 0.0
C428 C 0.48598 0.02759 0.82069 0.0
C429 C 0.45654 0.05149 0.8701 0.0
C430 C 0.46158 0.06856 0.82442 0.0
C431 C 0.46903 0.03105 0.86878 0.0
C432 C 0.47881 0.06425 0.77674 0.0
H433 H 0.47511 0.13732 0.69612 0.0
N434 N 0.50232 0.07673 0.69013 0.0
C435 C 0.50131 0.11579 0.65344 0.0
C436 C 0.48511 0.08122 0.7334 0.0
C437 C 0.51112 0.09384 0.65203 0.0
C438 C 0.48272 0.12033 0.69517 0.0
C439 C 0.4746 0.10306 0.73657 0.0
O440 O 0.54555 0.06238 0.70977 0.0
O441 O 0.53257 0.01486 0.61186 0.0
O442 O 0.52795 0.97702 0.64867 0.0
O443 O 0.52089 1.00335 0.73474 0.0
O444 O 0.54342 0.04852 0.608 0.0
O445 O 0.53955 0.03318 0.77268 0.0
O446 O 0.47565 0.97182 0.54279 0.0
O447 O 0.49138 0.01575 0.64197 0.0
O448 O 0.49477 0.05277 0.60509 0.0
O449 O 0.50395 0.02754 0.51868 0.0
O450 O 0.48015 0.98221 0.64471 0.0
O451 O 0.48667 0.99832 0.47605 0.0
C452 C 0.54632 0.02819 0.58334 0.0
C453 C 0.578 0.04151 0.74148 0.0
C454 C 0.6061 0.01095 0.72149 0.0
C455 C 0.58399 0.01807 0.74065 0.0
C456 C 0.62206 0.02761 0.70158 0.0
C457 C 0.59435 0.05783 0.72242 0.0
C458 C 0.61618 0.05087 0.70215 0.0
C459 C 0.52792 0.98288 0.71237 0.0
C460 C 0.55415 0.04891 0.75432 0.0
C461 C 0.45679 0.10712 0.78201 0.0
C462 C 0.45026 0.08988 0.82579 0.0
C463 C 0.47765 1.00242 0.67061 0.0
C464 C 0.4474 0.99778 0.50639 0.0
C465 C 0.44404 0.01997 0.48133 0.0
C466 C 0.4253 0.03344 0.50208 0.0
C467 C 0.40948 0.02428 0.54699 0.0
C468 C 0.43096 0.98874 0.54985 0.0
C469 C 0.41219 1.00197 0.57004 0.0
C470 C 0.49557 0.04741 0.5412 0.0
C471 C 0.46952 0.98572 0.49593 0.0
H472 H 0.57143 1.00529 0.75425 0.0
H473 H 0.63937 0.0228 0.6876 0.0
H474 H 0.59004 0.07595 0.72175 0.0
H475 H 0.62864 0.06355 0.68716 0.0
H476 H 0.45638 0.02714 0.44731 0.0
H477 H 0.39469 0.03417 0.56304 0.0
H478 H 0.43306 0.97175 0.57026 0.0
H479 H 0.39986 0.99501 0.60441 0.0
Eu480 Eu 0.54178 0.5061 0.58471 0.0
C481 C 0.439 0.4908 0.66651 0.0
C482 C 0.41457 0.50796 0.58371 0.0
C483 C 0.40094 0.47511 0.64519 0.0
C484 C 0.43567 0.50699 0.61809 0.0
C485 C 0.42152 0.47492 0.68147 0.0
C486 C 0.39744 0.49166 0.59655 0.0
C487 C 0.44505 0.46133 0.77137 0.0
N488 N 0.45889 0.49128 0.70132 0.0
C489 C 0.46172 0.47758 0.75521 0.0
C490 C 0.42497 0.45978 0.73377 0.0
Eu491 Eu 0.48684 0.51862 0.66968 0.0
N492 N 0.45268 0.52236 0.60632 0.0
C493 C 0.44903 0.54004 0.56382 0.0
C494 C 0.41115 0.52555 0.53833 0.0
C495 C 0.42838 0.54178 0.52885 0.0
H496 H 0.47728 0.47869 0.7843 0.0
H497 H 0.42583 0.55562 0.49438 0.0
H498 H 0.38127 0.49197 0.57004 0.0
H499 H 0.4477 0.45004 0.81277 0.0
H500 H 0.46203 0.55276 0.55565 0.0
H501 H 0.60587 0.48279 0.76996 0.0
H502 H 0.39519 0.52693 0.51107 0.0
H503 H 0.5487 0.53899 0.45037 0.0
H504 H 0.56916 0.47991 0.70933 0.0
H505 H 0.5766 0.56668 0.40649 0.0
H506 H 0.3874 0.46293 0.65556 0.0
H507 H 0.63404 0.51276 0.74082 0.0
H508 H 0.6454 0.54484 0.66585 0.0
H509 H 0.412 0.44728 0.74662 0.0
H510 H 0.63743 0.56767 0.5669 0.0
N511 N 0.57621 0.50826 0.64725 0.0
C512 C 0.58133 0.49305 0.69604 0.0
C513 C 0.61798 0.51153 0.71386 0.0
C514 C 0.61319 0.52625 0.66146 0.0
C515 C 0.60215 0.49457 0.73038 0.0
C516 C 0.59203 0.52389 0.6279 0.0
H517 H 0.61207 0.5756 0.46923 0.0
N518 N 0.56783 0.53265 0.53813 0.0
C519 C 0.57989 0.55839 0.45316 0.0
C520 C 0.58768 0.53653 0.57178 0.0
C521 C 0.56413 0.54263 0.47817 0.0
C522 C 0.59985 0.56343 0.48883 0.0
C523 C 0.60416 0.55218 0.54833 0.0
O524 O 0.54648 0.48773 0.4904 0.0
O525 O 0.50357 0.5048 0.57933 0.0
O526 O 0.49056 0.48015 0.65176 0.0
O527 O 0.53027 0.4769 0.65289 0.0
O528 O 0.52006 0.51207 0.49197 0.0
O529 O 0.56233 0.4749 0.5794 0.0
O530 O 0.47414 0.52782 0.76772 0.0
O531 O 0.52511 0.52002 0.67644 0.0
O532 O 0.53848 0.54489 0.59278 0.0
O533 O 0.49872 0.54864 0.60446 0.0
O534 O 0.50822 0.51026 0.76098 0.0
O535 O 0.4769 0.55401 0.69268 0.0
C536 C 0.50029 0.50911 0.51906 0.0
C537 C 0.55032 0.44757 0.50161 0.0
C538 C 0.52058 0.41807 0.50026 0.0
C539 C 0.52735 0.44105 0.51078 0.0
C540 C 0.53726 0.40187 0.4799 0.0
C541 C 0.56661 0.43118 0.48182 0.0
C542 C 0.56006 0.40842 0.47091 0.0
C543 C 0.50949 0.46797 0.66067 0.0
C544 C 0.55792 0.47098 0.5172 0.0
C545 C 0.62467 0.55556 0.58379 0.0
C546 C 0.62919 0.54258 0.64017 0.0
C547 C 0.52802 0.51483 0.73631 0.0
C548 C 0.48567 0.56423 0.80358 0.0
C549 C 0.50826 0.57159 0.79166 0.0
C550 C 0.52043 0.58391 0.84063 0.0
C551 C 0.50968 0.58864 0.90178 0.0
C552 C 0.47529 0.56911 0.86465 0.0
C553 C 0.48729 0.58127 0.91354 0.0
C554 C 0.51931 0.55714 0.58958 0.0
C555 C 0.47351 0.54971 0.75524 0.0
H556 H 0.51491 0.45382 0.52663 0.0
H557 H 0.53264 0.38417 0.46928 0.0
H558 H 0.58443 0.43598 0.47534 0.0
H559 H 0.57267 0.39581 0.45522 0.0
H560 H 0.51641 0.5675 0.74475 0.0
H561 H 0.51836 0.59856 0.94007 0.0
H562 H 0.45801 0.56325 0.87476 0.0
H563 H 0.4792 0.58506 0.96065 0.0
Eu564 Eu 0.01781 0.54054 0.58869 0.0
C565 C 0.0338 0.4449 0.71355 0.0
C566 C 0.02402 0.41637 0.62941 0.0
C567 C 0.05323 0.40786 0.71144 0.0
C568 C 0.02139 0.43857 0.65755 0.0
C569 C 0.0496 0.42944 0.74166 0.0
C570 C 0.04041 0.4013 0.65559 0.0
C571 C 0.05552 0.45688 0.831 0.0
N572 N 0.02966 0.46576 0.74232 0.0
C573 C 0.03952 0.47152 0.80182 0.0
C574 C 0.0608 0.43588 0.8004 0.0
Eu575 Eu 1.00319 0.48987 0.68698 0.0
N576 N 1.00569 0.4535 0.6332 0.0
C577 C 0.99065 0.44657 0.58486 0.0
C578 C 0.00948 0.40965 0.57743 0.0
C579 C 0.99245 0.42468 0.55584 0.0
H580 H 0.03566 0.48773 0.82588 0.0
H581 H 0.98081 0.41948 0.51662 0.0
H582 H 0.04286 0.3843 0.63408 0.0
H583 H 0.06377 0.46181 0.87711 0.0
H584 H 0.97737 0.45809 0.56808 0.0
H585 H 0.06053 0.60539 0.74697 0.0
H586 H 0.01084 0.39269 0.5549 0.0
H587 H 0.98087 0.55108 0.46515 0.0
H588 H 0.05723 0.56899 0.68597 0.0
H589 H 0.95391 0.58151 0.43095 0.0
H590 H 0.06543 0.39584 0.73203 0.0
H591 H 0.03083 0.63535 0.73449 0.0
H592 H 0.9954 0.64888 0.67627 0.0
H593 H 0.07312 0.42452 0.82336 0.0
H594 H 0.96635 0.64248 0.58946 0.0
N595 N 0.02451 0.57649 0.6441 0.0
C596 C 0.04349 0.58113 0.68189 0.0
C597 C 0.029 0.61904 0.7084 0.0
C598 C 0.01072 0.6151 0.66483 0.0
C599 C 0.04575 0.60216 0.7157 0.0
C600 C 0.00908 0.59348 0.63232 0.0
H601 H 0.95121 0.6177 0.49639 0.0
N602 N 0.99291 0.56969 0.54977 0.0
C603 C 0.96462 0.58407 0.47426 0.0
C604 C 0.99273 0.58993 0.5837 0.0
C605 C 0.97995 0.56692 0.49364 0.0
C606 C 0.96307 0.60441 0.51151 0.0
C607 C 0.97758 0.60777 0.56609 0.0
O608 O 0.02922 0.55536 0.49581 0.0
O609 O 0.01684 0.50206 0.58988 0.0
O610 O 0.04197 0.49231 0.68192 0.0
O611 O 0.04616 0.53162 0.66458 0.0
O612 O 1.0061 0.51727 0.50353 0.0
O613 O 0.05336 0.53671 0.55568 0.0
O614 O 0.98235 0.49155 0.77718 0.0
O615 O 1.00246 0.52822 0.68174 0.0
O616 O 0.97872 0.53757 0.59561 0.0
O617 O 0.97378 0.49867 0.6162 0.0
O618 O 0.00977 0.51481 0.77351 0.0
O619 O 0.97464 0.46632 0.70106 0.0
C620 C 0.01029 0.49789 0.53107 0.0
C621 C 0.05436 0.53009 0.43929 0.0
C622 C 0.07071 0.49474 0.39197 0.0
C623 C 0.06701 0.50964 0.44643 0.0
C624 C 0.06123 0.50038 0.33022 0.0
C625 C 0.04543 0.53549 0.37677 0.0
C626 C 0.04871 0.52062 0.32284 0.0
C627 C 0.05424 0.51144 0.68473 0.0
C628 C 0.04898 0.54495 0.49735 0.0
C629 C 0.97809 0.6287 0.60155 0.0
C630 C 0.99463 0.63235 0.65093 0.0
C631 C 1.0069 0.53358 0.7413 0.0
C632 C 0.94343 0.48176 0.75776 0.0
C633 C 0.93551 0.50363 0.7397 0.0
C634 C 0.9118 0.50828 0.73667 0.0
C635 C 0.8963 0.49053 0.75237 0.0
C636 C 0.92769 0.46443 0.77261 0.0
C637 C 0.90422 0.46884 0.76992 0.0
C638 C 0.96575 0.51885 0.59692 0.0
C639 C 0.96791 0.47603 0.75584 0.0
H640 H 0.07379 0.50516 0.49451 0.0
H641 H 0.06407 0.48954 0.28698 0.0
H642 H 0.03558 0.55107 0.36974 0.0
H643 H 0.04167 0.5249 0.27496 0.0
H644 H 0.94783 0.51682 0.72754 0.0
H645 H 0.87795 0.49348 0.75314 0.0
H646 H 0.93358 0.44742 0.78566 0.0
H647 H 0.89211 0.45543 0.78188 0.0
H648 H 0.13448 0.04931 0.1963 0.0
H649 H 0.18183 0.03446 0.35432 0.0
H650 H 0.10226 0.04484 0.27243 0.0
H651 H 0.14997 0.03076 0.43082 0.0
H652 H 0.0889 1.00328 0.5412 0.0
H653 H 0.11994 1.00754 0.46265 0.0
H654 H 0.08115 0.05996 0.36218 0.0
H655 H 0.04966 0.05493 0.4409 0.0
C656 C 0.13804 0.04519 0.24739 0.0
C657 C 0.16083 0.04199 0.26878 0.0
C658 C 0.11951 0.04275 0.29139 0.0
C659 C 0.12322 0.03729 0.35838 0.0
C660 C 0.14611 0.03437 0.37959 0.0
C661 C 0.16454 0.03653 0.33553 0.0
C662 C 0.0872 0.01611 0.50347 0.0
C663 C 0.06712 0.02935 0.49908 0.0
C664 C 0.10506 0.01853 0.45777 0.0
C665 C 0.10354 0.03443 0.40602 0.0
C666 C 0.08312 0.04741 0.4008 0.0
C667 C 0.06505 0.04471 0.44635 0.0
H668 H 0.44989 0.14156 0.2245 0.0
H669 H 0.50189 0.17479 0.34537 0.0
H670 H 0.45282 0.10725 0.29324 0.0
H671 H 0.50356 0.14115 0.41535 0.0
H672 H 0.47253 0.08782 0.56575 0.0
H673 H 0.46604 0.11944 0.48966 0.0
H674 H 0.49375 0.07851 0.32923 0.0
H675 H 0.50141 0.04714 0.40582 0.0
C676 C 0.46205 0.14163 0.26508 0.0
C677 C 0.4755 0.1613 0.27921 0.0
C678 C 0.46354 0.122 0.30472 0.0
C679 C 0.47822 0.12172 0.35992 0.0
C680 C 0.49185 0.14108 0.3736 0.0
C681 C 0.49073 0.16044 0.33349 0.0
C682 C 0.47755 0.08556 0.51453 0.0
C683 C 0.48843 0.06521 0.49277 0.0
C684 C 0.47355 0.10361 0.47083 0.0
C685 C 0.47965 0.10148 0.40383 0.0
C686 C 0.48895 0.08058 0.38076 0.0
C687 C 0.49341 0.06267 0.42481 0.0
H688 H 0.36063 0.48406 0.37802 0.0
H689 H 0.39662 0.50602 0.20338 0.0
H690 H 0.39585 0.48714 0.4419 0.0
H691 H 0.43223 0.50824 0.26691 0.0
H692 H 0.48633 0.53461 0.41536 0.0
H693 H 0.45163 0.53017 0.3484 0.0
H694 H 0.43223 0.47132 0.46382 0.0
H695 H 0.4666 0.47657 0.53218 0.0
C696 C 0.37604 0.48967 0.35309 0.0
C697 C 0.37551 0.49507 0.28531 0.0
C698 C 0.39645 0.49113 0.38981 0.0
C699 C 0.41713 0.49807 0.36017 0.0
C700 C 0.41669 0.50319 0.29212 0.0
C701 C 0.39623 0.50168 0.25528 0.0
C702 C 0.47451 0.52083 0.42649 0.0
C703 C 0.47879 0.50638 0.4802 0.0
C704 C 0.45469 0.51808 0.38763 0.0
C705 C 0.43882 0.50041 0.40036 0.0
C706 C 0.44367 0.48542 0.45292 0.0
C707 C 0.46338 0.48839 0.49231 0.0
H708 H 0.03611 0.35886 0.37568 0.0
H709 H 0.02512 0.39926 0.20112 0.0
H710 H 0.03242 0.39344 0.44501 0.0
H711 H 0.02146 0.43392 0.27063 0.0
H712 H 0.98701 0.48385 0.42194 0.0
H713 H 0.99378 0.45016 0.35105 0.0
H714 H 0.05115 0.43103 0.47402 0.0
H715 H 0.04445 0.46519 0.5446 0.0
C716 C 0.03279 0.3751 0.35198 0.0
C717 C 0.03065 0.37609 0.28253 0.0
C718 C 0.0309 0.39503 0.39188 0.0
C719 C 0.02645 0.41657 0.36379 0.0
C720 C 0.02459 0.41763 0.29427 0.0
C721 C 0.02683 0.39774 0.25425 0.0
C722 C 1.00105 0.47241 0.43392 0.0
C723 C 0.01468 0.47678 0.49019 0.0
C724 C 1.00505 0.45315 0.39297 0.0
C725 C 0.02292 0.43763 0.40677 0.0
C726 C 0.03699 0.44233 0.46232 0.0
C727 C 0.03313 0.46185 0.50298 0.0
H728 H 0.86731 0.02058 1.00273 0.0
H729 H 0.86191 0.94918 0.94336 0.0
H730 H 0.90043 0.02488 0.93015 0.0
H731 H 0.89552 0.95323 0.87317 0.0
H732 H 0.94205 0.97457 0.70027 0.0
H733 H 0.90876 0.9698 0.77215 0.0
H734 H 0.94007 0.01472 0.91844 0.0
H735 H 0.97274 0.02007 0.84573 0.0
C736 C 0.87314 1.00576 0.9744 0.0
C737 C 0.8618 0.9845 0.97963 0.0
C738 C 0.89238 1.00816 0.93315 0.0
C739 C 0.90089 0.98939 0.89556 0.0
C740 C 0.88948 0.96816 0.90062 0.0
C741 C 0.87029 0.96576 0.94187 0.0
C742 C 0.94184 0.98343 0.7478 0.0
C743 C 0.96026 0.99772 0.76693 0.0
C744 C 0.92276 0.98056 0.78941 0.0
C745 C 0.9215 0.99194 0.85146 0.0
C746 C 0.94013 1.00591 0.87085 0.0
C747 C 0.95918 0.00872 0.82932 0.0
H748 H 0.56588 0.89669 0.05228 0.0
H749 H 0.53088 0.85272 0.9109 0.0
H750 H 0.56222 0.92901 0.97643 0.0
H751 H 0.52717 0.88492 0.83553 0.0
H752 H 0.54717 0.94045 0.68834 0.0
H753 H 0.55325 0.90947 0.7664 0.0
H754 H 0.53125 0.95403 0.9267 0.0
H755 H 0.52464 0.98492 0.84846 0.0
C756 C 0.55735 0.89393 1.00516 0.0
C757 C 0.54856 0.8721 0.98796 0.0
C758 C 0.55517 0.91248 0.96181 0.0
C759 C 0.54451 0.90955 0.89968 0.0
C760 C 0.5357 0.88774 0.88263 0.0
C761 C 0.53758 0.86933 0.92626 0.0
C762 C 0.54332 0.94364 0.74001 0.0
C763 C 0.53451 0.96502 0.76134 0.0
C764 C 0.54693 0.92585 0.78491 0.0
C765 C 0.54232 0.92909 0.85274 0.0
C766 C 0.53487 0.95089 0.87478 0.0
C767 C 0.53098 0.96861 0.82968 0.0
H768 H 0.64821 0.49961 0.98535 0.0
H769 H 0.64302 0.57334 0.96819 0.0
H770 H 0.61425 0.49497 0.91652 0.0
H771 H 0.60825 0.56869 0.90209 0.0
H772 H 0.5597 0.54981 0.72607 0.0
H773 H 0.59328 0.55689 0.79687 0.0
H774 H 0.57404 0.49922 0.91728 0.0
H775 H 0.54106 0.49201 0.84552 0.0
C776 C 0.63984 0.5149 0.96721 0.0
C777 C 0.64859 0.53687 0.98294 0.0
C778 C 0.62004 0.51224 0.92823 0.0
C779 C 0.60813 0.53145 0.90388 0.0
C780 C 0.61686 0.55344 0.91946 0.0
C781 C 0.63675 0.55612 0.95836 0.0
C782 C 0.56286 0.53859 0.76741 0.0
C783 C 0.5483 0.5198 0.77882 0.0
C784 C 0.58195 0.54279 0.80865 0.0
C785 C 0.58683 0.52835 0.86247 0.0
C786 C 0.57142 0.51031 0.87537 0.0
C787 C 0.55238 0.50621 0.83444 0.0
H788 H 0.96065 0.65304 0.97235 0.0
H789 H 0.03406 0.66211 0.96089 0.0
H790 H 0.96358 0.61833 0.90333 0.0
H791 H 0.0369 0.62769 0.89057 0.0
H792 H 0.03591 0.5502 0.83507 0.0
H793 H 0.03311 0.58606 0.89914 0.0
H794 H 0.97198 0.60413 0.79042 0.0
H795 H 0.975 0.56803 0.72612 0.0
C796 C 0.97747 0.64762 0.95552 0.0
C797 C 0.99714 0.66047 0.97314 0.0
C798 C 0.9791 0.6278 0.915 0.0
C799 C 1.00048 0.62001 0.89113 0.0
C800 C 0.02014 0.63291 0.90845 0.0
C801 C 0.01849 0.65283 0.94852 0.0
C802 C 0.02207 0.56202 0.82426 0.0
C803 C 1.00607 0.55661 0.77429 0.0
C804 C 0.02045 0.58264 0.86095 0.0
C805 C 1.00239 0.59825 0.85006 0.0
C806 C 0.98609 0.59258 0.80061 0.0
C807 C 0.98795 0.57204 0.76307 0.0
H808 H 0.08044 0.22387 0.45375 0.0
H809 H 0.12823 0.17855 0.35198 0.0
H810 H 0.06978 0.19349 0.52516 0.0
H811 H 0.11622 0.14728 0.42319 0.0
H812 H 0.04533 0.10542 0.44099 0.0
H813 H 0.0783 0.12872 0.41346 0.0
H814 H 0.07412 0.16301 0.60425 0.0
H815 H 0.04069 0.13975 0.63155 0.0
C816 C 0.08955 0.20778 0.44775 0.0
C817 C 0.10475 0.20378 0.39459 0.0
C818 C 0.08326 0.19008 0.48949 0.0
C819 C 0.09169 0.16773 0.47894 0.0
C820 C 0.10903 0.16425 0.43153 0.0
C821 C 0.1157 0.18218 0.39021 0.0
C822 C 0.05195 0.11726 0.47824 0.0
C823 C 0.03994 0.12131 0.53756 0.0
C824 C 0.07104 0.13058 0.46257 0.0
C825 C 0.07847 0.14818 0.50598 0.0
C826 C 0.06843 0.14995 0.56914 0.0
C827 C 0.04923 0.13672 0.58464 0.0
H828 H 0.36799 0.12482 0.23114 0.0
H829 H 0.32946 0.12581 0.41374 0.0
H830 H 0.4025 0.11531 0.29165 0.0
H831 H 0.36323 0.11379 0.47305 0.0
H832 H 0.41453 0.07364 0.5673 0.0
H833 H 0.39888 0.10835 0.51784 0.0
H834 H 0.41079 0.0787 0.32302 0.0
H835 H 0.42716 0.04502 0.3726 0.0
C836 C 0.36687 0.1237 0.28445 0.0
C837 C 0.34554 0.12485 0.31705 0.0
C838 C 0.38674 0.11781 0.3192 0.0
C839 C 0.3855 0.1122 0.38662 0.0
C840 C 0.36504 0.11731 0.4209 0.0
C841 C 0.34536 0.1239 0.38651 0.0
C842 C 0.41425 0.07498 0.51387 0.0
C843 C 0.42125 0.05638 0.47363 0.0
C844 C 0.40527 0.09483 0.48541 0.0
C845 C 0.40258 0.09615 0.41626 0.0
C846 C 0.41233 0.0786 0.37637 0.0
C847 C 0.42164 0.059 0.40482 0.0
H848 H 0.41203 0.38221 0.28749 0.0
H849 H 0.41626 0.32546 0.42204 0.0
H850 H 0.42857 0.40733 0.36983 0.0
H851 H 0.43024 0.35121 0.50827 0.0
H852 H 0.50342 0.37775 0.54758 0.0
H853 H 0.46626 0.36178 0.52417 0.0
H854 H 0.44352 0.42776 0.4518 0.0
H855 H 0.48197 0.44264 0.46735 0.0
C856 C 0.41563 0.37529 0.33591 0.0
C857 C 0.41441 0.35153 0.34652 0.0
C858 C 0.42499 0.38988 0.38422 0.0
C859 C 0.43269 0.38106 0.44504 0.0
C860 C 0.42632 0.35837 0.46045 0.0
C861 C 0.41773 0.34356 0.41115 0.0
C862 C 0.49048 0.38884 0.52647 0.0
C863 C 0.49611 0.41104 0.50575 0.0
C864 C 0.4687 0.3798 0.51414 0.0
C865 C 0.45177 0.39296 0.48202 0.0
C866 C 0.45633 0.4165 0.47258 0.0
C867 C 0.47841 0.42529 0.48281 0.0
H868 H 0.16651 0.41373 0.22266 0.0
H869 H 0.19378 0.41453 0.42175 0.0
H870 H 0.12906 0.42321 0.26465 0.0
H871 H 0.15571 0.42413 0.4644 0.0
H872 H 0.06559 0.45194 0.33424 0.0
H873 H 0.09442 0.42161 0.32677 0.0
H874 H 0.1393 0.46168 0.45408 0.0
H875 H 0.11054 0.49148 0.4625 0.0
C876 C 0.16436 0.41478 0.27584 0.0
C877 C 0.18341 0.41407 0.31864 0.0
C878 C 0.14265 0.42028 0.30016 0.0
C879 C 0.13947 0.42521 0.36785 0.0
C880 C 0.15777 0.42114 0.41171 0.0
C881 C 0.17958 0.41562 0.38729 0.0
C882 C 0.08143 0.45399 0.36179 0.0
C883 C 0.08592 0.47435 0.39792 0.0
C884 C 0.09792 0.43656 0.35772 0.0
C885 C 0.11939 0.43933 0.38881 0.0
C886 C 0.12294 0.45874 0.42994 0.0
C887 C 0.1064 0.47602 0.43447 0.0
H888 H 0.89739 0.85777 0.91359 0.0
H889 H 0.939 0.80742 0.81088 0.0
H890 H 0.9078 0.88644 0.83205 0.0
H891 H 0.95027 0.83596 0.73156 0.0
H892 H 0.98617 0.8892 0.63143 0.0
H893 H 0.95204 0.86647 0.65516 0.0
H894 H 0.94462 0.90291 0.84206 0.0
H895 H 0.9782 0.92522 0.81867 0.0
C896 C 0.90786 0.85257 0.87169 0.0
C897 C 0.91796 0.83065 0.86943 0.0
C898 C 0.91403 0.86902 0.82529 0.0
C899 C 0.93081 0.86387 0.77723 0.0
C900 C 0.93755 0.84078 0.76824 0.0
C901 C 0.93107 0.82426 0.81396 0.0
C902 C 0.97689 0.89265 0.6769 0.0
C903 C 0.98537 0.90859 0.72399 0.0
C904 C 0.95724 0.87971 0.69031 0.0
C905 C 0.94578 0.8824 0.75119 0.0
C906 C 0.95274 0.90029 0.79439 0.0
C907 C 0.97229 0.91316 0.78103 0.0
H908 H 0.65599 0.89626 0.92633 0.0
H909 H 0.7098 0.93111 0.8214 0.0
H910 H 0.62811 0.90889 0.84427 0.0
H911 H 0.68223 0.94466 0.74176 0.0
H912 H 0.63363 0.98508 0.63853 0.0
H913 H 0.65269 0.94905 0.66515 0.0
H914 H 0.61411 0.94635 0.8477 0.0
H915 H 0.59493 0.98157 0.82032 0.0
C916 C 0.66199 0.90576 0.88402 0.0
C917 C 0.68487 0.91328 0.88105 0.0
C918 C 0.64601 0.91324 0.83735 0.0
C919 C 0.65263 0.9288 0.78819 0.0
C920 C 0.67624 0.93295 0.77909 0.0
C921 C 0.69224 0.92514 0.82504 0.0
C922 C 0.62884 0.97639 0.68348 0.0
C923 C 0.61329 0.98658 0.72829 0.0
C924 C 0.63974 0.95571 0.69873 0.0
C925 C 0.63559 0.94504 0.75963 0.0
C926 C 0.61792 0.95385 0.80028 0.0
C927 C 0.6069 0.97434 0.78472 0.0
H928 H 0.5813 0.70093 0.82776 0.0
H929 H 0.63783 0.66577 0.92189 0.0
H930 H 0.56881 0.6655 0.77839 0.0
H931 H 0.62445 0.62953 0.87323 0.0
H932 H 0.55765 0.58509 0.92308 0.0
H933 H 0.59008 0.61098 0.91526 0.0
H934 H 0.56883 0.62944 0.718 0.0
H935 H 0.53565 0.6042 0.72722 0.0
C936 C 0.59184 0.68592 0.83585 0.0
C937 C 0.61013 0.68631 0.88153 0.0
C938 C 0.58453 0.66529 0.80703 0.0
C939 C 0.59515 0.64447 0.82358 0.0
C940 C 0.61552 0.64525 0.86103 0.0
C941 C 0.62305 0.66603 0.88938 0.0
C942 C 0.56016 0.59433 0.87751 0.0
C943 C 0.54353 0.59349 0.82715 0.0
C944 C 0.57904 0.60891 0.87241 0.0
C945 C 0.58169 0.62286 0.81669 0.0
C946 C 0.56694 0.61933 0.76223 0.0
C947 C 0.54794 0.60481 0.7675 0.0
H948 H 0.80683 0.59649 0.80358 0.0
H949 H 0.86266 0.60967 0.93905 0.0
H950 H 0.83412 0.58801 0.71587 0.0
H951 H 0.88985 0.59916 0.85516 0.0
H952 H 0.87208 0.52057 0.67253 0.0
H953 H 0.85138 0.55569 0.69065 0.0
H954 H 0.91235 0.58671 0.77645 0.0
H955 H 0.93194 0.5503 0.76653 0.0
C956 C 0.82499 0.59822 0.81414 0.0
C957 C 0.83268 0.60246 0.87902 0.0
C958 C 0.8408 0.59281 0.76408 0.0
C959 C 0.8644 0.59059 0.77905 0.0
C960 C 0.872 0.59945 0.84075 0.0
C961 C 0.85627 0.60547 0.88993 0.0
C962 C 0.88102 0.53484 0.69594 0.0
C963 C 0.90295 0.53186 0.72351 0.0
C964 C 0.8692 0.55549 0.70533 0.0
C965 C 0.87933 0.5739 0.7411 0.0
C966 C 0.90309 0.57244 0.75431 0.0
C967 C 0.91463 0.55146 0.74732 0.0
H968 H 0.99214 0.18519 0.87896 0.0
H969 H 0.06298 0.1657 0.90701 0.0
H970 H 0.98559 0.14985 0.81526 0.0
H971 H 0.05642 0.13045 0.84313 0.0
H972 H 0.04118 0.07755 0.67461 0.0
H973 H 0.04869 0.1139 0.73427 0.0
H974 H 0.98232 0.10923 0.82809 0.0
H975 H 0.97498 0.07325 0.76828 0.0
C976 C 1.00634 0.17339 0.872 0.0
C977 C 0.02813 0.17864 0.89859 0.0
C978 C 1.00258 0.15299 0.83522 0.0
C979 C 0.02044 0.13703 0.82369 0.0
C980 C 0.04227 0.14235 0.84972 0.0
C981 C 0.04603 0.16273 0.88657 0.0
C982 C 0.0284 0.08419 0.70877 0.0
C983 C 1.00776 0.07216 0.71822 0.0
C984 C 0.0326 0.10513 0.74281 0.0
C985 C 0.01613 0.11475 0.78642 0.0
C986 C 0.99537 0.10272 0.79463 0.0
C987 C 0.99122 0.0819 0.76076 0.0
H988 H 0.34195 0.99887 0.85355 0.0
H989 H 0.36401 0.06917 0.88223 0.0
H990 H 0.37754 0.99035 0.7944 0.0
H991 H 0.39954 0.06064 0.82342 0.0
H992 H 0.45236 0.04225 0.66111 0.0
H993 H 0.41596 0.05139 0.71613 0.0
H994 H 0.4179 0.98577 0.81332 0.0
H995 H 0.454 0.9767 0.75759 0.0
C996 C 0.35438 0.01252 0.84754 0.0
C997 C 0.34987 0.03475 0.87272 0.0
C998 C 0.37488 1.00762 0.81358 0.0
C999 C 0.39159 0.02478 0.80391 0.0
C1000 C 0.38701 0.04705 0.82868 0.0
C1001 C 0.36652 0.05194 0.86253 0.0
C1002 C 0.44514 0.02999 0.69508 0.0
C1003 C 0.45636 0.00903 0.70657 0.0
C1004 C 0.42421 0.03515 0.7265 0.0
C1005 C 0.41385 0.01936 0.7696 0.0
C1006 C 0.42507 0.99828 0.78007 0.0
C1007 C 0.44591 0.99314 0.74862 0.0
H1008 H 0.45194 0.3513 0.85752 0.0
H1009 H 0.52189 0.32892 0.82787 0.0
H1010 H 0.45966 0.38592 0.79616 0.0
H1011 H 0.52966 0.36374 0.76524 0.0
H1012 H 0.5407 0.442 0.72892 0.0
H1013 H 0.53463 0.40433 0.77786 0.0
H1014 H 0.46678 0.40155 0.69127 0.0
H1015 H 0.47267 0.4394 0.6444 0.0
C1016 C 0.46889 0.35348 0.83665 0.0
C1017 C 0.4862 0.33705 0.84748 0.0
C1018 C 0.47336 0.37348 0.8012 0.0
C1019 C 0.4953 0.3778 0.77502 0.0
C1020 C 0.51261 0.36126 0.78515 0.0
C1021 C 0.50814 0.3412 0.82101 0.0
C1022 C 0.52459 0.43321 0.71984 0.0
C1023 C 0.50703 0.44391 0.68376 0.0
C1024 C 0.5211 0.41151 0.74774 0.0
C1025 C 0.50003 0.39985 0.73972 0.0
C1026 C 0.48298 0.41015 0.70042 0.0
C1027 C 0.4864 0.43187 0.67314 0.0
H1028 H 0.19583 0.47881 0.80192 0.0
H1029 H 0.16919 0.52072 0.9625 0.0
H1030 H 0.15985 0.48346 0.7418 0.0
H1031 H 0.13338 0.52563 0.90179 0.0
H1032 H 0.07816 0.5455 0.75133 0.0
H1033 H 0.11548 0.54282 0.80558 0.0
H1034 H 0.11989 0.47125 0.74746 0.0
H1035 H 0.08283 0.47417 0.69155 0.0
C1036 C 0.18237 0.48903 0.82465 0.0
C1037 C 0.18566 0.49928 0.88765 0.0
C1038 C 0.16163 0.49169 0.78996 0.0
C1039 C 0.14349 0.50483 0.81681 0.0
C1040 C 0.14697 0.51561 0.87894 0.0
C1041 C 0.16767 0.51284 0.91382 0.0
C1042 C 0.08727 0.52934 0.74864 0.0
C1043 C 0.07753 0.5102 0.7158 0.0
C1044 C 0.10861 0.52768 0.78083 0.0
C1045 C 0.12092 0.50682 0.78101 0.0
C1046 C 0.1112 0.48771 0.74772 0.0
C1047 C 0.08982 0.48935 0.71589 0.0
H1048 H 0.03337 0.84461 0.40329 0.0
H1049 H 0.96389 0.86668 0.36505 0.0
H1050 H 0.04035 0.88006 0.4661 0.0
H1051 H 0.97089 0.90207 0.42794 0.0
H1052 H 0.98603 0.95523 0.5963 0.0
H1053 H 0.97772 0.91905 0.53691 0.0
H1054 H 0.04549 0.9204 0.45063 0.0
H1055 H 0.05356 0.95633 0.5099 0.0
C1056 C 0.01956 0.85699 0.40788 0.0
C1057 C 0.99803 0.85247 0.37862 0.0
C1058 C 0.02358 0.87745 0.44408 0.0
C1059 C 1.00624 0.8942 0.45229 0.0
C1060 C 0.98462 0.88957 0.42383 0.0
C1061 C 0.9806 0.86911 0.38759 0.0
C1062 C 0.99894 0.94795 0.56368 0.0
C1063 C 0.02021 0.95902 0.55624 0.0
C1064 C 0.99427 0.9271 0.52984 0.0
C1065 C 0.01093 0.91655 0.48867 0.0
C1066 C 0.03228 0.92764 0.48227 0.0
C1067 C 0.03687 0.94843 0.51581 0.0
H1068 H 0.68335 0.03024 0.40762 0.0
H1069 H 0.65945 0.96094 0.37129 0.0
H1070 H 0.64788 0.03898 0.46708 0.0
H1071 H 0.62406 0.96969 0.43052 0.0
H1072 H 0.57079 0.98779 0.59177 0.0
H1073 H 0.60721 0.97819 0.53754 0.0
H1074 H 0.60776 0.04492 0.4466 0.0
H1075 H 0.57144 0.0543 0.50068 0.0
C1076 C 0.67056 0.01685 0.41209 0.0
C1077 C 0.67449 0.99484 0.38447 0.0
C1078 C 0.65013 0.02188 0.44623 0.0
C1079 C 0.63291 1.00509 0.4537 0.0
C1080 C 0.63697 0.983 0.42689 0.0
C1081 C 0.65739 0.97797 0.39282 0.0
C1082 C 0.57859 1.00024 0.55945 0.0
C1083 C 0.56794 0.02157 0.54901 0.0
C1084 C 0.59955 0.99481 0.52856 0.0
C1085 C 0.61062 0.01077 0.48752 0.0
C1086 C 0.60004 0.03226 0.47834 0.0
C1087 C 0.57908 0.0376 0.50891 0.0
H1088 H 0.56137 0.69148 0.43339 0.0
H1089 H 0.50057 0.67126 0.3247 0.0
H1090 H 0.5564 0.65885 0.50606 0.0
H1091 H 0.49648 0.63789 0.39428 0.0
H1092 H 0.48417 0.58598 0.55211 0.0
H1093 H 0.48701 0.62271 0.49694 0.0
H1094 H 0.561 0.61895 0.50865 0.0
H1095 H 0.55799 0.58292 0.56724 0.0
C1096 C 0.54679 0.68026 0.42516 0.0
C1097 C 0.53149 0.68415 0.37241 0.0
C1098 C 0.54414 0.6612 0.46643 0.0
C1099 C 0.52615 0.64533 0.45617 0.0
C1100 C 0.51044 0.64967 0.4047 0.0
C1101 C 0.513 0.66877 0.36383 0.0
C1102 C 0.50106 0.593 0.54347 0.0
C1103 C 0.52086 0.5809 0.56247 0.0
C1104 C 0.50272 0.61413 0.51113 0.0
C1105 C 0.52427 0.62386 0.4966 0.0
C1106 C 0.54404 0.61227 0.51869 0.0
C1107 C 0.54234 0.59127 0.55161 0.0
H1108 H 0.83044 0.56087 0.44397 0.0
H1109 H 0.84418 0.49366 0.35917 0.0
H1110 H 0.86388 0.55719 0.51501 0.0
H1111 H 0.87867 0.49094 0.42519 0.0
H1112 H 0.93553 0.48348 0.57149 0.0
H1113 H 0.89731 0.48559 0.52336 0.0
H1114 H 0.90312 0.5596 0.51598 0.0
H1115 H 0.94037 0.55743 0.56944 0.0
C1116 C 0.8404 0.5452 0.44046 0.0
C1117 C 0.83441 0.52772 0.39452 0.0
C1118 C 0.86003 0.54326 0.48069 0.0
C1119 C 0.87459 0.52391 0.47579 0.0
C1120 C 0.86808 0.50609 0.43156 0.0
C1121 C 0.84829 0.50786 0.3923 0.0
C1122 C 0.92858 0.50024 0.5601 0.0
C1123 C 0.94158 0.52025 0.57209 0.0
C1124 C 0.9066 0.50147 0.53168 0.0
C1125 C 0.89697 0.52274 0.51347 0.0
C1126 C 0.90961 0.54281 0.52872 0.0
C1127 C 0.93139 0.54158 0.55828 0.0
loop_
_geom_bond_atom_site_label_1
_geom_bond_atom_site_label_2
_geom_bond_distance
_geom_bond_site_symmetry_2
_ccdc_geom_bond_type
C0 C1 1.387 . S
C0 C2 1.405 . S
C0 H24 0.922 1_554 S
C1 C0 1.387 . S
C1 C5 1.397 . S
C2 C0 1.405 . S
C2 C3 1.384 . S
C2 H25 0.930 . S
C3 C2 1.384 . S
C3 C4 1.377 . S
C3 C6 1.481 . S
C4 C3 1.377 . S
C4 C5 1.389 . S
C4 H26 0.929 . S
C5 C1 1.397 . S
C5 C4 1.389 . S
C5 H27 0.931 . S
C6 C3 1.481 . S
C6 C7 1.387 . S
C6 C11 1.390 . S
C7 C6 1.387 . S
C7 C8 1.401 . S
C7 H28 0.930 . S
C8 C7 1.401 . S
C8 C9 1.376 . S
C8 C17 1.511 . S
C9 C8 1.376 . S
C9 C10 1.392 . S
C9 H30 0.931 . S
C10 C9 1.392 . S
C10 C11 1.361 . S
C10 C12 1.500 . S
C11 C6 1.390 . S
C11 C10 1.361 . S
C11 H29 0.931 . S
C12 C10 1.500 . S
C12 C13 1.371 . S
C12 C14 1.365 . S
C13 C12 1.371 . S
C13 C23 1.386 . S
C13 H31 0.931 . S
C14 C12 1.365 . S
C14 C15 1.409 . S
C14 H32 0.929 . S
C15 C14 1.409 . S
C15 C16 1.380 . S
C15 H33 0.930 . S
C16 C15 1.380 . S
C16 C23 1.357 . S
C17 C8 1.511 . S
C17 C18 1.341 . S
C17 C19 1.371 . S
C18 C17 1.341 . S
C18 C22 1.394 . S
C18 H34 0.930 . S
C19 C17 1.371 . S
C19 C20 1.392 . S
C19 H35 0.931 . S
C20 C19 1.392 . S
C20 C21 1.331 . S
C20 H38 0.932 . S
C21 C20 1.331 . S
C21 C22 1.336 . S
C22 C18 1.394 . S
C22 C21 1.336 . S
C22 H37 0.929 . S
C23 C13 1.386 . S
C23 C16 1.357 . S
C23 H36 0.928 . S
H24 C0 0.922 1_556 S
H25 C2 0.930 . S
H26 C4 0.929 . S
H27 C5 0.931 . S
H28 C7 0.930 . S
H29 C11 0.931 . S
H30 C9 0.931 . S
H31 C13 0.931 . S
H32 C14 0.929 . S
H33 C15 0.930 . S
H34 C18 0.930 . S
H35 C19 0.931 . S
H36 C23 0.928 . S
H37 C22 0.929 . S
H38 C20 0.932 . S
C39 C40 1.386 . S
C39 C41 1.397 . S
C39 H63 0.931 1_554 S
C40 C39 1.386 . S
C40 C44 1.397 . S
C41 C39 1.397 . S
C41 C42 1.384 . S
C41 H64 0.930 . S
C42 C41 1.384 . S
C42 C43 1.377 . S
C42 C45 1.481 . S
C43 C42 1.377 . S
C43 C44 1.389 . S
C43 H65 0.929 . S
C44 C40 1.397 . S
C44 C43 1.389 . S
C44 H66 0.931 . S
C45 C42 1.481 . S
C45 C46 1.387 . S
C45 C50 1.390 . S
C46 C45 1.387 . S
C46 C47 1.401 . S
C46 H67 0.930 . S
C47 C46 1.401 . S
C47 C48 1.376 . S
C47 C56 1.511 . S
C48 C47 1.376 . S
C48 C49 1.392 . S
C48 H69 0.931 . S
C49 C48 1.392 . S
C49 C50 1.361 . S
C49 C51 1.500 . S
C50 C45 1.390 . S
C50 C49 1.361 . S
C50 H68 0.931 . S
C51 C49 1.500 . S
C51 C52 1.371 . S
C51 C53 1.365 . S
C52 C51 1.371 . S
C52 C62 1.386 . S
C52 H70 0.931 . S
C53 C51 1.365 . S
C53 C54 1.409 . S
C53 H71 0.929 . S
C54 C53 1.409 . S
C54 C55 1.380 . S
C54 H72 0.930 . S
C55 C54 1.380 . S
C55 C62 1.357 . S
C56 C47 1.511 . S
C56 C57 1.341 . S
C56 C58 1.371 . S
C57 C56 1.341 . S
C57 C61 1.394 . S
C57 H73 0.930 . S
C58 C56 1.371 . S
C58 C59 1.392 . S
C58 H74 0.931 . S
C59 C58 1.392 . S
C59 C60 1.331 . S
C59 H77 0.932 . S
C60 C59 1.331 . S
C60 C61 1.336 . S
C61 C57 1.394 . S
C61 C60 1.336 . S
C61 H76 0.929 . S
C62 C52 1.386 . S
C62 C55 1.357 . S
C62 H75 0.928 . S
H63 C39 0.931 1_556 S
H64 C41 0.930 . S
H65 C43 0.929 . S
H66 C44 0.931 . S
H67 C46 0.930 . S
H68 C50 0.931 . S
H69 C48 0.931 . S
H70 C52 0.931 . S
H71 C53 0.929 . S
H72 C54 0.930 . S
H73 C57 0.930 . S
H74 C58 0.931 . S
H75 C62 0.928 . S
H76 C61 0.929 . S
H77 C59 0.932 . S
C78 C79 1.386 . S
C78 C80 1.397 . S
C78 H102 0.931 1_554 S
C79 C78 1.386 . S
C79 C83 1.397 . S
C80 C78 1.397 . S
C80 C81 1.384 . S
C80 H103 0.930 . S
C81 C80 1.384 . S
C81 C82 1.377 . S
C81 C84 1.481 . S
C82 C81 1.377 . S
C82 C83 1.389 . S
C82 H104 0.929 . S
C83 C79 1.397 . S
C83 C82 1.389 . S
C83 H105 0.931 . S
C84 C81 1.481 . S
C84 C85 1.387 . S
C84 C89 1.390 . S
C85 C84 1.387 . S
C85 C86 1.401 . S
C85 H106 0.930 . S
C86 C85 1.401 . S
C86 C87 1.376 . S
C86 C95 1.511 . S
C87 C86 1.376 . S
C87 C88 1.392 . S
C87 H108 0.931 . S
C88 C87 1.392 . S
C88 C89 1.361 . S
C88 C90 1.500 . S
C89 C84 1.390 . S
C89 C88 1.361 . S
C89 H107 0.931 . S
C90 C88 1.500 . S
C90 C91 1.371 . S
C90 C92 1.365 . S
C91 C90 1.371 . S
C91 C101 1.386 . S
C91 H109 0.931 . S
C92 C90 1.365 . S
C92 C93 1.409 . S
C92 H110 0.929 . S
C93 C92 1.409 . S
C93 C94 1.380 . S
C93 H111 0.930 . S
C94 C93 1.380 . S
C94 C101 1.357 . S
C95 C86 1.511 . S
C95 C96 1.341 . S
C95 C97 1.371 . S
C96 C95 1.341 . S
C96 C100 1.394 . S
C96 H112 0.930 . S
C97 C95 1.371 . S
C97 C98 1.392 . S
C97 H113 0.931 . S
C98 C97 1.392 . S
C98 C99 1.331 . S
C98 H116 0.932 . S
C99 C98 1.331 . S
C99 C100 1.336 . S
C100 C96 1.394 . S
C100 C99 1.336 . S
C100 H115 0.929 . S
C101 C91 1.386 . S
C101 C94 1.357 . S
C101 H114 0.928 . S
H102 C78 0.931 1_556 S
H103 C80 0.930 . S
H104 C82 0.929 . S
H105 C83 0.931 . S
H106 C85 0.930 . S
H107 C89 0.931 . S
H108 C87 0.931 . S
H109 C91 0.931 . S
H110 C92 0.929 . S
H111 C93 0.930 . S
H112 C96 0.930 . S
H113 C97 0.931 . S
H114 C101 0.928 . S
H115 C100 0.929 . S
H116 C98 0.932 . S
C117 C118 1.386 . S
C117 C119 1.397 . S
C117 H141 0.931 . S
C118 C117 1.386 . S
C118 C122 1.397 . S
C119 C117 1.397 . S
C119 C120 1.384 . S
C119 H142 0.930 . S
C120 C119 1.384 . S
C120 C121 1.377 . S
C120 C123 1.481 . S
C121 C120 1.377 . S
C121 C122 1.389 . S
C121 H143 0.929 . S
C122 C118 1.397 . S
C122 C121 1.389 . S
C122 H144 0.931 . S
C123 C120 1.481 . S
C123 C124 1.387 . S
C123 C128 1.390 . S
C124 C123 1.387 . S
C124 C125 1.401 . S
C124 H145 0.930 . S
C125 C124 1.401 . S
C125 C126 1.376 . S
C125 C134 1.511 . S
C126 C125 1.376 . S
C126 C127 1.392 . S
C126 H147 0.931 . S
C127 C126 1.392 . S
C127 C128 1.361 . S
C127 C129 1.500 . S
C128 C123 1.390 . S
C128 C127 1.361 . S
C128 H146 0.931 . S
C129 C127 1.500 . S
C129 C130 1.371 . S
C129 C131 1.365 . S
C130 C129 1.371 . S
C130 C140 1.386 1_554 S
C130 H148 0.931 . S
C131 C129 1.365 . S
C131 C132 1.409 . S
C131 H149 0.929 . S
C132 C131 1.409 . S
C132 C133 1.380 . S
C132 H150 0.930 . S
C133 C132 1.380 . S
C133 C140 1.357 1_554 S
C134 C125 1.511 . S
C134 C135 1.341 . S
C134 C136 1.371 . S
C135 C134 1.341 . S
C135 C139 1.394 . S
C135 H151 0.930 . S
C136 C134 1.371 . S
C136 C137 1.392 . S
C136 H152 0.931 . S
C137 C136 1.392 . S
C137 C138 1.331 . S
C137 H155 0.932 . S
C138 C137 1.331 . S
C138 C139 1.336 . S
C139 C135 1.394 . S
C139 C138 1.336 . S
C139 H154 0.929 . S
C140 C130 1.386 1_556 S
C140 C133 1.357 1_556 S
C140 H153 0.928 . S
H141 C117 0.931 . S
H142 C119 0.930 . S
H143 C121 0.929 . S
H144 C122 0.931 . S
H145 C124 0.930 . S
H146 C128 0.931 . S
H147 C126 0.931 . S
H148 C130 0.931 . S
H149 C131 0.929 . S
H150 C132 0.930 . S
H151 C135 0.930 . S
H152 C136 0.931 . S
H153 C140 0.928 . S
H154 C139 0.929 . S
H155 C137 0.932 . S
C156 C157 1.386 . S
C156 C158 1.397 . S
C156 H180 0.931 . S
C157 C156 1.386 . S
C157 C161 1.397 . S
C158 C156 1.397 . S
C158 C159 1.384 . S
C158 H181 0.930 . S
C159 C158 1.384 . S
C159 C160 1.377 . S
C159 C162 1.481 . S
C160 C159 1.377 . S
C160 C161 1.389 . S
C160 H182 0.929 . S
C161 C157 1.397 . S
C161 C160 1.389 . S
C161 H183 0.931 . S
C162 C159 1.481 . S
C162 C163 1.387 . S
C162 C167 1.390 . S
C163 C162 1.387 . S
C163 C164 1.401 . S
C163 H184 0.930 . S
C164 C163 1.401 . S
C164 C165 1.376 1_554 S
C164 C173 1.511 . S
C165 C164 1.376 1_556 S
C165 C166 1.392 . S
C165 H186 0.931 . S
C166 C165 1.392 . S
C166 C167 1.361 1_556 S
C166 C168 1.500 . S
C167 C162 1.390 . S
C167 C166 1.361 1_554 S
C167 H185 0.928 1_554 S
C168 C166 1.500 . S
C168 C169 1.371 . S
C168 C170 1.365 . S
C169 C168 1.371 . S
C169 C179 1.386 . S
C169 H187 0.931 . S
C170 C168 1.365 . S
C170 C171 1.409 . S
C170 H188 0.929 . S
C171 C170 1.409 . S
C171 C172 1.380 . S
C171 H189 0.930 . S
C172 C171 1.380 . S
C172 C179 1.357 . S
C173 C164 1.511 . S
C173 C174 1.341 . S
C173 C175 1.371 . S
C174 C173 1.341 . S
C174 C178 1.394 . S
C174 H190 0.930 . S
C175 C173 1.371 . S
C175 C176 1.392 . S
C175 H191 0.931 1_554 S
C176 C175 1.392 . S
C176 C177 1.331 . S
C176 H194 0.932 1_554 S
C177 C176 1.331 . S
C177 C178 1.336 . S
C178 C174 1.394 . S
C178 C177 1.336 . S
C178 H193 0.929 . S
C179 C169 1.386 . S
C179 C172 1.357 . S
C179 H192 0.928 . S
H180 C156 0.931 . S
H181 C158 0.930 . S
H182 C160 0.929 . S
H183 C161 0.931 . S
H184 C163 0.930 . S
H185 C167 0.928 1_556 S
H186 C165 0.931 . S
H187 C169 0.931 . S
H188 C170 0.929 . S
H189 C171 0.930 . S
H190 C174 0.930 . S
H191 C175 0.931 1_556 S
H192 C179 0.928 . S
H193 C178 0.929 . S
H194 C176 0.932 1_556 S
C195 C196 1.386 . S
C195 C197 1.397 . S
C195 H219 0.931 . S
C196 C195 1.386 . S
C196 C200 1.397 . S
C197 C195 1.397 . S
C197 C198 1.384 . S
C197 H220 0.930 . S
C198 C197 1.384 . S
C198 C199 1.377 . S
C198 C201 1.481 . S
C199 C198 1.377 . S
C199 C200 1.389 . S
C199 H221 0.929 . S
C200 C196 1.397 . S
C200 C199 1.389 . S
C200 H222 0.931 . S
C201 C198 1.481 . S
C201 C202 1.387 . S
C201 C206 1.390 . S
C202 C201 1.387 . S
C202 C203 1.401 . S
C202 H223 0.930 . S
C203 C202 1.401 . S
C203 C204 1.376 1_554 S
C203 C212 1.511 . S
C204 C203 1.376 1_556 S
C204 C205 1.392 . S
C204 H225 0.931 . S
C205 C204 1.392 . S
C205 C206 1.361 1_556 S
C205 C207 1.500 . S
C206 C201 1.390 . S
C206 C205 1.361 1_554 S
C206 H224 0.931 1_554 S
C207 C205 1.500 . S
C207 C208 1.371 . S
C207 C209 1.365 . S
C208 C207 1.371 . S
C208 C218 1.386 . S
C208 H226 0.931 . S
C209 C207 1.365 . S
C209 C210 1.409 . S
C209 H227 0.929 . S
C210 C209 1.409 . S
C210 C211 1.380 . S
C210 H228 0.930 . S
C211 C210 1.380 . S
C211 C218 1.357 . S
C212 C203 1.511 . S
C212 C213 1.341 . S
C212 C214 1.371 . S
C213 C212 1.341 . S
C213 C217 1.394 . S
C213 H229 0.930 . S
C214 C212 1.371 . S
C214 C215 1.392 . S
C214 H230 0.931 1_554 S
C215 C214 1.392 . S
C215 C216 1.331 . S
C215 H233 0.932 1_554 S
C216 C215 1.331 . S
C216 C217 1.336 . S
C217 C213 1.394 . S
C217 C216 1.336 . S
C217 H232 0.929 . S
C218 C208 1.386 . S
C218 C211 1.357 . S
C218 H231 0.928 . S
H219 C195 0.931 . S
H220 C197 0.930 . S
H221 C199 0.929 . S
H222 C200 0.931 . S
H223 C202 0.930 . S
H224 C206 0.931 1_556 S
H225 C204 0.931 . S
H226 C208 0.931 . S
H227 C209 0.929 . S
H228 C210 0.930 . S
H229 C213 0.930 . S
H230 C214 0.931 1_556 S
H231 C218 0.928 . S
H232 C217 0.929 . S
H233 C215 0.932 1_556 S
C234 C235 1.386 . S
C234 C236 1.397 . S
C234 H258 0.931 . S
C235 C234 1.386 . S
C235 C239 1.397 . S
C236 C234 1.397 . S
C236 C237 1.384 . S
C236 H259 0.930 . S
C237 C236 1.384 . S
C237 C238 1.377 . S
C237 C240 1.481 . S
C238 C237 1.377 . S
C238 C239 1.389 . S
C238 H260 0.929 . S
C239 C235 1.397 . S
C239 C238 1.389 . S
C239 H261 0.931 . S
C240 C237 1.481 . S
C240 C241 1.387 . S
C240 C245 1.404 . S
C241 C240 1.387 . S
C241 C242 1.401 . S
C241 H262 0.930 . S
C242 C241 1.401 . S
C242 C243 1.376 1_554 S
C242 C251 1.511 . S
C243 C242 1.376 1_556 S
C243 C244 1.392 . S
C243 H264 0.931 . S
C244 C243 1.392 . S
C244 C245 1.351 1_556 S
C244 C246 1.500 . S
C245 C240 1.404 . S
C245 C244 1.351 1_554 S
C245 H263 0.928 1_554 S
C246 C244 1.500 . S
C246 C247 1.371 . S
C246 C248 1.365 . S
C247 C246 1.371 . S
C247 C257 1.386 . S
C247 H265 0.931 . S
C248 C246 1.365 . S
C248 C249 1.409 . S
C248 H266 0.929 . S
C249 C248 1.409 . S
C249 C250 1.380 . S
C249 H267 0.930 . S
C250 C249 1.380 . S
C250 C257 1.357 . S
C251 C242 1.511 . S
C251 C252 1.341 . S
C251 C253 1.371 . S
C252 C251 1.341 . S
C252 C256 1.394 . S
C252 H268 0.930 . S
C253 C251 1.371 . S
C253 C254 1.392 . S
C253 H269 0.931 1_554 S
C254 C253 1.392 . S
C254 C255 1.331 . S
C254 H272 0.932 1_554 S
C255 C254 1.331 . S
C255 C256 1.336 . S
C256 C252 1.394 . S
C256 C255 1.336 . S
C256 H271 0.929 . S
C257 C247 1.386 . S
C257 C250 1.357 . S
C257 H270 0.928 . S
H258 C234 0.931 . S
H259 C236 0.930 . S
H260 C238 0.929 . S
H261 C239 0.931 . S
H262 C241 0.930 . S
H263 C245 0.928 1_556 S
H264 C243 0.931 . S
H265 C247 0.931 . S
H266 C248 0.929 . S
H267 C249 0.930 . S
H268 C252 0.930 . S
H269 C253 0.931 1_556 S
H270 C257 0.928 . S
H271 C256 0.929 . S
H272 C254 0.932 1_556 S
C273 C274 1.386 . S
C273 C275 1.397 . S
C273 H297 0.931 . S
C274 C273 1.386 . S
C274 C278 1.397 . S
C275 C273 1.397 . S
C275 C276 1.384 . S
C275 H298 0.930 . S
C276 C275 1.384 . S
C276 C277 1.377 . S
C276 C279 1.481 . S
C277 C276 1.377 . S
C277 C278 1.389 . S
C277 H299 0.929 . S
C278 C274 1.397 . S
C278 C277 1.389 . S
C278 H300 0.931 . S
C279 C276 1.481 . S
C279 C280 1.387 . S
C279 C284 1.390 1_556 S
C280 C279 1.387 . S
C280 C281 1.401 1_556 S
C280 H301 0.930 . S
C281 C280 1.401 1_554 S
C281 C282 1.376 . S
C281 C290 1.511 . S
C282 C281 1.376 . S
C282 C283 1.392 . S
C282 H303 0.931 . S
C283 C282 1.392 . S
C283 C284 1.361 . S
C283 C285 1.500 . S
C284 C279 1.390 1_554 S
C284 C283 1.361 . S
C284 H302 0.928 1_554 S
C285 C283 1.500 . S
C285 C286 1.371 . S
C285 C287 1.365 . S
C286 C285 1.371 . S
C286 C296 1.386 . S
C286 H304 0.931 . S
C287 C285 1.365 . S
C287 C288 1.409 . S
C287 H305 0.929 . S
C288 C287 1.409 . S
C288 C289 1.380 . S
C288 H306 0.930 . S
C289 C288 1.380 . S
C289 C296 1.357 . S
C290 C281 1.511 . S
C290 C291 1.341 . S
C290 C292 1.371 . S
C291 C290 1.341 . S
C291 C295 1.394 . S
C291 H307 0.930 1_554 S
C292 C290 1.371 . S
C292 C293 1.392 . S
C292 H308 0.931 . S
C293 C292 1.392 . S
C293 C294 1.331 . S
C293 H311 0.932 . S
C294 C293 1.331 . S
C294 C295 1.336 . S
C295 C291 1.394 . S
C295 C294 1.336 . S
C295 H310 0.929 1_554 S
C296 C286 1.386 . S
C296 C289 1.357 . S
C296 H309 0.928 . S
H297 C273 0.931 . S
H298 C275 0.930 . S
H299 C277 0.929 . S
H300 C278 0.931 . S
H301 C280 0.930 . S
H302 C284 0.928 1_556 S
H303 C282 0.931 . S
H304 C286 0.931 . S
H305 C287 0.929 . S
H306 C288 0.930 . S
H307 C291 0.930 1_556 S
H308 C292 0.931 . S
H309 C296 0.928 . S
H310 C295 0.929 1_556 S
H311 C293 0.932 . S
Eu312 N343 2.657 1_565 S
Eu312 N350 2.609 . S
Eu312 O356 2.558 . S
Eu312 O357 2.612 1_455 S
Eu312 O359 2.339 1_455 S
Eu312 O360 2.563 . S
Eu312 O361 2.419 . S
Eu312 O363 2.380 1_565 S
Eu312 O364 2.432 . S
Eu312 C376 2.848 . S
C313 C316 1.429 1_545 S
C313 C317 1.411 . S
C313 N320 1.377 . S
C314 C316 1.420 . S
C314 C318 1.423 . S
C314 C326 1.392 . S
C315 C317 1.420 1_565 S
C315 C318 1.351 . S
C315 H338 0.931 . S
C316 C313 1.429 1_565 S
C316 C314 1.420 . S
C316 N324 1.362 1_565 S
C317 C313 1.411 . S
C317 C315 1.420 1_545 S
C317 C322 1.395 . S
C318 C314 1.423 . S
C318 C315 1.351 . S
C318 H330 0.930 . S
C319 C321 1.400 . S
C319 C322 1.386 . S
C319 H331 0.930 . S
N320 C313 1.377 . S
N320 C321 1.321 . S
N320 Eu323 2.609 . S
C321 C319 1.400 . S
C321 N320 1.321 . S
C321 H328 0.930 . S
C322 C317 1.395 . S
C322 C319 1.386 . S
C322 H341 0.930 . S
Eu323 N320 2.609 . S
Eu323 N324 2.657 . S
Eu323 O357 2.380 1_545 S
Eu323 O358 2.432 . S
Eu323 O362 2.558 . S
Eu323 O363 2.612 1_655 S
Eu323 O365 2.339 1_655 S
Eu323 O366 2.563 1_655 S
Eu323 O367 2.419 . S
Eu323 C387 2.848 . S
N324 C316 1.362 1_545 S
N324 Eu323 2.657 . S
N324 C325 1.334 1_645 S
C325 N324 1.334 1_465 S
C325 C327 1.414 . S
C325 H332 0.929 . S
C326 C314 1.392 . S
C326 C327 1.359 1_655 S
C326 H334 0.930 . S
C327 C325 1.414 . S
C327 C326 1.359 1_455 S
C327 H329 0.938 . S
H328 C321 0.930 . S
H329 C327 0.938 . S
H330 C318 0.930 . S
H331 C319 0.930 . S
H332 C325 0.929 . S
H333 C347 0.930 1_655 S
H334 C326 0.930 . S
H335 C353 0.930 . S
H336 C344 0.929 1_655 S
H337 C351 0.930 . S
H338 C315 0.931 . S
H339 C345 0.930 . S
H340 C378 0.930 . S
H341 C322 0.930 . S
H342 C377 0.931 . S
N343 Eu312 2.657 1_545 S
N343 C344 1.334 . S
N343 C348 1.362 . S
C344 H336 0.929 1_455 S
C344 N343 1.334 . S
C344 C347 1.413 . S
C345 H339 0.930 . S
C345 C346 1.392 . S
C345 C347 1.367 . S
C346 C345 1.392 . S
C346 C348 1.420 . S
C346 C378 1.423 . S
C347 H333 0.930 1_455 S
C347 C344 1.413 . S
C347 C345 1.367 . S
C348 N343 1.362 . S
C348 C346 1.420 . S
C348 C352 1.429 . S
H349 C354 0.928 . S
N350 Eu312 2.609 . S
N350 C352 1.377 1_565 S
N350 C353 1.321 . S
C351 H337 0.930 . S
C351 C353 1.400 . S
C351 C354 1.404 . S
C352 C348 1.429 . S
C352 N350 1.377 1_545 S
C352 C355 1.411 . S
C353 H335 0.930 . S
C353 N350 1.321 . S
C353 C351 1.400 . S
C354 H349 0.928 . S
C354 C351 1.404 . S
C354 C355 1.379 1_565 S
C355 C352 1.411 . S
C355 C354 1.379 1_545 S
C355 C377 1.420 . S
O356 Eu312 2.558 . S
O356 C376 1.257 . S
O357 Eu312 2.612 1_655 S
O357 Eu323 2.380 1_565 S
O357 C368 1.276 . S
O358 Eu323 2.432 . S
O358 C375 1.264 . S
O359 Eu312 2.339 1_655 S
O359 C375 1.254 1_565 S
O360 Eu312 2.563 . S
O360 C368 1.235 1_455 S
O361 Eu312 2.419 . S
O361 C376 1.249 . S
O362 Eu323 2.558 . S
O362 C387 1.257 . S
O363 Eu312 2.380 1_545 S
O363 Eu323 2.612 1_455 S
O363 C379 1.276 . S
O364 Eu312 2.432 . S
O364 C386 1.264 1_565 S
O365 Eu323 2.339 1_455 S
O365 C386 1.254 . S
O366 Eu323 2.563 1_455 S
O366 C379 1.235 . S
O367 Eu323 2.419 . S
O367 C387 1.249 . S
C368 O357 1.276 . S
C368 O360 1.235 1_655 S
C369 C371 1.393 . S
C369 C373 1.395 . S
C369 C376 1.492 . S
C370 C371 1.392 . S
C370 C372 1.386 . S
C371 C369 1.393 . S
C371 C370 1.392 . S
C371 H388 0.917 1_455 S
C372 C370 1.386 . S
C372 C374 1.395 . S
C372 H389 0.930 . S
C373 C369 1.395 . S
C373 C374 1.379 . S
C373 H390 0.930 . S
C374 C372 1.395 . S
C374 C373 1.379 . S
C374 H391 0.930 . S
C375 O358 1.264 . S
C375 O359 1.254 1_545 S
C376 Eu312 2.848 . S
C376 O356 1.257 . S
C376 O361 1.249 . S
C376 C369 1.492 . S
C377 H342 0.931 . S
C377 C355 1.420 . S
C377 C378 1.351 . S
C378 H340 0.930 . S
C378 C346 1.423 . S
C378 C377 1.351 . S
C379 O363 1.276 . S
C379 O366 1.235 . S
C380 C381 1.393 . S
C380 C384 1.395 . S
C380 C387 1.492 . S
C381 C380 1.393 . S
C381 C382 1.392 . S
C381 H392 0.930 1_655 S
C382 C381 1.392 . S
C382 C383 1.386 . S
C383 C382 1.386 . S
C383 C385 1.395 . S
C383 H393 0.930 . S
C384 C380 1.395 . S
C384 C385 1.379 . S
C384 H394 0.930 . S
C385 C383 1.395 . S
C385 C384 1.379 . S
C385 H395 0.930 . S
C386 O364 1.264 1_545 S
C386 O365 1.254 . S
C387 Eu323 2.848 . S
C387 O362 1.257 . S
C387 O367 1.249 . S
C387 C380 1.492 . S
H388 C371 0.917 1_655 S
H389 C372 0.930 . S
H390 C373 0.930 . S
H391 C374 0.930 . S
H392 C381 0.930 1_455 S
H393 C383 0.930 . S
H394 C384 0.930 . S
H395 C385 0.930 . S
Eu396 N427 2.657 . S
Eu396 N434 2.609 . S
Eu396 O440 2.558 . S
Eu396 O441 2.612 1_545 S
Eu396 O443 2.339 1_545 S
Eu396 O444 2.563 . S
Eu396 O445 2.419 . S
Eu396 O447 2.380 . S
Eu396 O448 2.432 . S
Eu396 C460 2.848 . S
C397 C400 1.429 . S
C397 C401 1.411 . S
C397 N404 1.377 . S
C398 C400 1.420 . S
C398 C402 1.423 . S
C398 C410 1.392 . S
C399 C401 1.420 . S
C399 C402 1.351 . S
C399 H422 0.931 . S
C400 C397 1.429 . S
C400 C398 1.420 . S
C400 N408 1.362 . S
C401 C397 1.411 . S
C401 C399 1.420 . S
C401 C406 1.395 . S
C402 C398 1.423 . S
C402 C399 1.351 . S
C402 H414 0.930 . S
C403 C405 1.400 . S
C403 C406 1.386 . S
C403 H415 0.930 . S
N404 C397 1.377 . S
N404 C405 1.321 . S
N404 Eu407 2.609 . S
C405 C403 1.400 . S
C405 N404 1.321 . S
C405 H412 0.930 . S
C406 C401 1.395 . S
C406 C403 1.386 . S
C406 H425 0.930 . S
Eu407 N404 2.609 . S
Eu407 N408 2.657 . S
Eu407 O441 2.380 . S
Eu407 O442 2.432 . S
Eu407 O446 2.558 . S
Eu407 O447 2.612 1_565 S
Eu407 O449 2.339 1_565 S
Eu407 O450 2.563 1_565 S
Eu407 O451 2.419 . S
Eu407 C471 2.848 . S
N408 C400 1.362 . S
N408 Eu407 2.657 . S
N408 C409 1.334 1_565 S
C409 N408 1.334 1_545 S
C409 C411 1.413 . S
C409 H416 0.929 . S
C410 C398 1.392 . S
C410 C411 1.367 1_565 S
C410 H418 0.930 . S
C411 C409 1.413 . S
C411 C410 1.367 1_545 S
C411 H413 0.930 . S
H412 C405 0.930 . S
H413 C411 0.930 . S
H414 C402 0.930 . S
H415 C403 0.930 . S
H416 C409 0.929 . S
H417 C431 0.930 1_565 S
H418 C410 0.930 . S
H419 C437 0.930 . S
H420 C428 0.929 1_565 S
H421 C435 0.930 . S
H422 C399 0.931 . S
H423 C429 0.930 . S
H424 C462 0.930 . S
H425 C406 0.930 . S
H426 C461 0.931 . S
N427 Eu396 2.657 . S
N427 C428 1.334 . S
N427 C432 1.362 . S
C428 H420 0.929 1_545 S
C428 N427 1.334 . S
C428 C431 1.413 . S
C429 H423 0.930 . S
C429 C430 1.392 . S
C429 C431 1.367 . S
C430 C429 1.392 . S
C430 C432 1.420 . S
C430 C462 1.423 . S
C431 H417 0.930 1_545 S
C431 C428 1.413 . S
C431 C429 1.367 . S
C432 N427 1.362 . S
C432 C430 1.420 . S
C432 C436 1.429 . S
H433 C438 0.930 . S
N434 Eu396 2.609 . S
N434 C436 1.377 . S
N434 C437 1.321 . S
C435 H421 0.930 . S
C435 C437 1.400 . S
C435 C438 1.386 . S
C436 C432 1.429 . S
C436 N434 1.377 . S
C436 C439 1.411 . S
C437 H419 0.930 . S
C437 N434 1.321 . S
C437 C435 1.400 . S
C438 H433 0.930 . S
C438 C435 1.386 . S
C438 C439 1.395 . S
C439 C436 1.411 . S
C439 C438 1.395 . S
C439 C461 1.420 . S
O440 Eu396 2.558 . S
O440 C460 1.257 . S
O441 Eu396 2.612 1_565 S
O441 Eu407 2.380 . S
O441 C452 1.276 . S
O442 Eu407 2.432 . S
O442 C459 1.264 . S
O443 Eu396 2.339 1_565 S
O443 C459 1.254 . S
O444 Eu396 2.563 . S
O444 C452 1.235 1_545 S
O445 Eu396 2.419 . S
O445 C460 1.249 . S
O446 Eu407 2.558 . S
O446 C471 1.257 . S
O447 Eu396 2.380 . S
O447 Eu407 2.612 1_545 S
O447 C463 1.276 . S
O448 Eu396 2.432 . S
O448 C470 1.264 . S
O449 Eu407 2.339 1_545 S
O449 C470 1.254 . S
O450 Eu407 2.563 1_545 S
O450 C463 1.235 . S
O451 Eu407 2.419 . S
O451 C471 1.249 . S
C452 O441 1.276 . S
C452 O444 1.235 1_565 S
C453 C455 1.393 . S
C453 C457 1.395 . S
C453 C460 1.492 . S
C454 C455 1.392 . S
C454 C456 1.386 . S
C455 C453 1.393 . S
C455 C454 1.392 . S
C455 H472 0.930 . S
C456 C454 1.386 . S
C456 C458 1.395 . S
C456 H473 0.930 . S
C457 C453 1.395 . S
C457 C458 1.379 . S
C457 H474 0.930 . S
C458 C456 1.395 . S
C458 C457 1.379 . S
C458 H475 0.930 . S
C459 O442 1.264 . S
C459 O443 1.254 . S
C460 Eu396 2.848 . S
C460 O440 1.257 . S
C460 O445 1.249 . S
C460 C453 1.492 . S
C461 H426 0.931 . S
C461 C439 1.420 . S
C461 C462 1.351 . S
C462 H424 0.930 . S
C462 C430 1.423 . S
C462 C461 1.351 . S
C463 O447 1.276 . S
C463 O450 1.235 . S
C464 C465 1.393 . S
C464 C468 1.395 . S
C464 C471 1.492 . S
C465 C464 1.393 . S
C465 C466 1.392 . S
C465 H476 0.930 1_565 S
C466 C465 1.392 . S
C466 C467 1.386 . S
C467 C466 1.386 . S
C467 C469 1.395 . S
C467 H477 0.930 . S
C468 C464 1.395 . S
C468 C469 1.379 . S
C468 H478 0.930 . S
C469 C467 1.395 . S
C469 C468 1.379 . S
C469 H479 0.930 . S
C470 O448 1.264 . S
C470 O449 1.254 . S
C471 Eu407 2.848 . S
C471 O446 1.257 . S
C471 O451 1.249 . S
C471 C464 1.492 . S
H472 C455 0.930 . S
H473 C456 0.930 . S
H474 C457 0.930 . S
H475 C458 0.930 . S
H476 C465 0.930 1_545 S
H477 C467 0.930 . S
H478 C468 0.930 . S
H479 C469 0.930 . S
Eu480 N511 2.657 . S
Eu480 N518 2.609 . S
Eu480 O524 2.558 . S
Eu480 O525 2.612 . S
Eu480 O527 2.339 . S
Eu480 O528 2.563 . S
Eu480 O529 2.419 . S
Eu480 O531 2.380 . S
Eu480 O532 2.432 . S
Eu480 C544 2.848 . S
C481 C484 1.429 . S
C481 C485 1.411 . S
C481 N488 1.377 . S
C482 C484 1.420 . S
C482 C486 1.423 . S
C482 C494 1.392 . S
C483 C485 1.420 . S
C483 C486 1.351 . S
C483 H506 0.931 . S
C484 C481 1.429 . S
C484 C482 1.420 . S
C484 N492 1.362 . S
C485 C481 1.411 . S
C485 C483 1.420 . S
C485 C490 1.395 . S
C486 C482 1.423 . S
C486 C483 1.351 . S
C486 H498 0.930 . S
C487 C489 1.400 . S
C487 C490 1.386 . S
C487 H499 0.930 . S
N488 C481 1.377 . S
N488 C489 1.321 . S
N488 Eu491 2.609 . S
C489 C487 1.400 . S
C489 N488 1.321 . S
C489 H496 0.930 . S
C490 C485 1.395 . S
C490 C487 1.386 . S
C490 H509 0.930 . S
Eu491 N488 2.609 . S
Eu491 N492 2.657 . S
Eu491 O525 2.380 . S
Eu491 O526 2.432 . S
Eu491 O530 2.558 . S
Eu491 O531 2.612 . S
Eu491 O533 2.339 . S
Eu491 O534 2.563 . S
Eu491 O535 2.419 . S
Eu491 C555 2.848 . S
N492 C484 1.362 . S
N492 Eu491 2.657 . S
N492 C493 1.334 . S
C493 N492 1.334 . S
C493 C495 1.413 . S
C493 H500 0.929 . S
C494 C482 1.392 . S
C494 C495 1.367 . S
C494 H502 0.930 . S
C495 C493 1.413 . S
C495 C494 1.367 . S
C495 H497 0.930 . S
H496 C489 0.930 . S
H497 C495 0.930 . S
H498 C486 0.930 . S
H499 C487 0.930 . S
H500 C493 0.929 . S
H501 C515 0.930 . S
H502 C494 0.930 . S
H503 C521 0.930 . S
H504 C512 0.929 . S
H505 C519 0.930 . S
H506 C483 0.931 . S
H507 C513 0.930 . S
H508 C546 0.930 . S
H509 C490 0.930 . S
H510 C545 0.931 . S
N511 Eu480 2.657 . S
N511 C512 1.334 . S
N511 C516 1.362 . S
C512 H504 0.929 . S
C512 N511 1.334 . S
C512 C515 1.413 . S
C513 H507 0.930 . S
C513 C514 1.392 . S
C513 C515 1.367 . S
C514 C513 1.392 . S
C514 C516 1.420 . S
C514 C546 1.423 . S
C515 H501 0.930 . S
C515 C512 1.413 . S
C515 C513 1.367 . S
C516 N511 1.362 . S
C516 C514 1.420 . S
C516 C520 1.429 . S
H517 C522 0.930 . S
N518 Eu480 2.609 . S
N518 C520 1.377 . S
N518 C521 1.321 . S
C519 H505 0.930 . S
C519 C521 1.400 . S
C519 C522 1.386 . S
C520 C516 1.429 . S
C520 N518 1.377 . S
C520 C523 1.411 . S
C521 H503 0.930 . S
C521 N518 1.321 . S
C521 C519 1.400 . S
C522 H517 0.930 . S
C522 C519 1.386 . S
C522 C523 1.395 . S
C523 C520 1.411 . S
C523 C522 1.395 . S
C523 C545 1.420 . S
O524 Eu480 2.558 . S
O524 C544 1.257 . S
O525 Eu480 2.612 . S
O525 Eu491 2.380 . S
O525 C536 1.276 . S
O526 Eu491 2.432 . S
O526 C543 1.264 . S
O527 Eu480 2.339 . S
O527 C543 1.254 . S
O528 Eu480 2.563 . S
O528 C536 1.235 . S
O529 Eu480 2.419 . S
O529 C544 1.249 . S
O530 Eu491 2.558 . S
O530 C555 1.257 . S
O531 Eu480 2.380 . S
O531 Eu491 2.612 . S
O531 C547 1.276 . S
O532 Eu480 2.432 . S
O532 C554 1.264 . S
O533 Eu491 2.339 . S
O533 C554 1.254 . S
O534 Eu491 2.563 . S
O534 C547 1.235 . S
O535 Eu491 2.419 . S
O535 C555 1.249 . S
C536 O525 1.276 . S
C536 O528 1.235 . S
C537 C539 1.393 . S
C537 C541 1.395 . S
C537 C544 1.492 . S
C538 C539 1.392 . S
C538 C540 1.386 . S
C539 C537 1.393 . S
C539 C538 1.392 . S
C539 H556 0.930 . S
C540 C538 1.386 . S
C540 C542 1.395 . S
C540 H557 0.930 . S
C541 C537 1.395 . S
C541 C542 1.379 . S
C541 H558 0.930 . S
C542 C540 1.395 . S
C542 C541 1.379 . S
C542 H559 0.930 . S
C543 O526 1.264 . S
C543 O527 1.254 . S
C544 Eu480 2.848 . S
C544 O524 1.257 . S
C544 O529 1.249 . S
C544 C537 1.492 . S
C545 H510 0.931 . S
C545 C523 1.420 . S
C545 C546 1.351 . S
C546 H508 0.930 . S
C546 C514 1.423 . S
C546 C545 1.351 . S
C547 O531 1.276 . S
C547 O534 1.235 . S
C548 C549 1.393 . S
C548 C552 1.395 . S
C548 C555 1.492 . S
C549 C548 1.393 . S
C549 C550 1.392 . S
C549 H560 0.930 . S
C550 C549 1.392 . S
C550 C551 1.386 . S
C551 C550 1.386 . S
C551 C553 1.395 . S
C551 H561 0.930 . S
C552 C548 1.395 . S
C552 C553 1.379 . S
C552 H562 0.930 . S
C553 C551 1.395 . S
C553 C552 1.379 . S
C553 H563 0.930 . S
C554 O532 1.264 . S
C554 O533 1.254 . S
C555 Eu491 2.848 . S
C555 O530 1.257 . S
C555 O535 1.249 . S
C555 C548 1.492 . S
H556 C539 0.930 . S
H557 C540 0.930 . S
H558 C541 0.930 . S
H559 C542 0.930 . S
H560 C549 0.930 . S
H561 C551 0.930 . S
H562 C552 0.930 . S
H563 C553 0.930 . S
Eu564 N595 2.657 . S
Eu564 N602 2.609 . S
Eu564 O608 2.558 . S
Eu564 O609 2.612 . S
Eu564 O611 2.339 . S
Eu564 O612 2.563 . S
Eu564 O613 2.419 . S
Eu564 O615 2.386 . S
Eu564 O616 2.432 1_455 S
Eu564 C628 2.848 . S
C565 C568 1.429 . S
C565 C569 1.411 . S
C565 N572 1.377 . S
C566 C568 1.420 . S
C566 C570 1.423 . S
C566 C578 1.392 . S
C567 C569 1.420 . S
C567 C570 1.351 . S
C567 H590 0.931 . S
C568 C565 1.429 . S
C568 C566 1.420 . S
C568 N576 1.362 . S
C569 C565 1.411 . S
C569 C567 1.420 . S
C569 C574 1.395 . S
C570 C566 1.423 . S
C570 C567 1.351 . S
C570 H582 0.930 . S
C571 C573 1.400 . S
C571 C574 1.386 1_455 S
C571 H583 0.930 . S
N572 C565 1.377 . S
N572 C573 1.321 1_655 S
N572 Eu575 2.609 . S
C573 C571 1.400 . S
C573 N572 1.321 1_455 S
C573 H580 0.930 . S
C574 C569 1.395 . S
C574 C571 1.386 1_655 S
C574 H593 0.930 . S
Eu575 N572 2.609 . S
Eu575 N576 2.657 . S
Eu575 O609 2.380 1_655 S
Eu575 O610 2.432 1_655 S
Eu575 O614 2.558 . S
Eu575 O615 2.609 1_655 S
Eu575 O617 2.339 . S
Eu575 O618 2.563 . S
Eu575 O619 2.419 . S
Eu575 C639 2.848 . S
N576 C568 1.362 . S
N576 Eu575 2.657 . S
N576 C577 1.334 . S
C577 N576 1.334 . S
C577 C579 1.413 . S
C577 H584 0.929 . S
C578 C566 1.392 . S
C578 C579 1.367 . S
C578 H586 0.930 . S
C579 C577 1.413 . S
C579 C578 1.367 . S
C579 H581 0.930 . S
H580 C573 0.930 . S
H581 C579 0.930 . S
H582 C570 0.930 . S
H583 C571 0.930 . S
H584 C577 0.929 . S
H585 C599 0.930 . S
H586 C578 0.930 . S
H587 C605 0.930 1_655 S
H588 C596 0.929 . S
H589 C603 0.927 1_655 S
H590 C567 0.931 . S
H591 C597 0.930 . S
H592 C630 0.930 . S
H593 C574 0.930 . S
H594 C629 0.931 . S
N595 Eu564 2.657 . S
N595 C596 1.334 . S
N595 C600 1.362 . S
C596 H588 0.929 . S
C596 N595 1.334 . S
C596 C599 1.413 . S
C597 H591 0.930 . S
C597 C598 1.392 . S
C597 C599 1.367 . S
C598 C597 1.392 . S
C598 C600 1.420 . S
C598 C630 1.423 . S
C599 H585 0.930 . S
C599 C596 1.413 . S
C599 C597 1.367 . S
C600 N595 1.362 . S
C600 C598 1.420 . S
C600 C604 1.429 . S
H601 C606 0.930 . S
N602 Eu564 2.609 . S
N602 C604 1.377 . S
N602 C605 1.321 . S
C603 H589 0.927 1_455 S
C603 C605 1.400 . S
C603 C606 1.388 . S
C604 C600 1.429 . S
C604 N602 1.377 . S
C604 C607 1.411 . S
C605 H587 0.930 1_455 S
C605 N602 1.321 . S
C605 C603 1.400 . S
C606 H601 0.930 . S
C606 C603 1.388 . S
C606 C607 1.395 . S
C607 C604 1.411 . S
C607 C606 1.395 . S
C607 C629 1.420 . S
O608 Eu564 2.558 . S
O608 C628 1.257 . S
O609 Eu564 2.612 . S
O609 Eu575 2.380 1_455 S
O609 C620 1.276 . S
O610 Eu575 2.432 1_455 S
O610 C627 1.264 . S
O611 Eu564 2.339 . S
O611 C627 1.254 . S
O612 Eu564 2.563 . S
O612 C620 1.235 . S
O613 Eu564 2.419 . S
O613 C628 1.249 . S
O614 Eu575 2.558 . S
O614 C639 1.257 . S
O615 Eu564 2.386 . S
O615 Eu575 2.609 1_455 S
O615 C631 1.272 1_455 S
O616 Eu564 2.432 1_655 S
O616 C638 1.264 . S
O617 Eu575 2.339 . S
O617 C638 1.254 . S
O618 Eu575 2.563 . S
O618 C631 1.235 . S
O619 Eu575 2.419 . S
O619 C639 1.249 . S
C620 O609 1.276 . S
C620 O612 1.235 . S
C621 C623 1.393 . S
C621 C625 1.395 . S
C621 C628 1.492 . S
C622 C623 1.392 . S
C622 C624 1.386 . S
C623 C621 1.393 . S
C623 C622 1.392 . S
C623 H640 0.930 . S
C624 C622 1.386 . S
C624 C626 1.395 . S
C624 H641 0.930 . S
C625 C621 1.395 . S
C625 C626 1.379 . S
C625 H642 0.930 . S
C626 C624 1.395 . S
C626 C625 1.379 . S
C626 H643 0.930 . S
C627 O610 1.264 . S
C627 O611 1.254 . S
C628 Eu564 2.848 . S
C628 O608 1.257 . S
C628 O613 1.249 . S
C628 C621 1.492 . S
C629 H594 0.931 . S
C629 C607 1.420 . S
C629 C630 1.351 . S
C630 H592 0.930 . S
C630 C598 1.423 . S
C630 C629 1.351 . S
C631 O615 1.272 1_655 S
C631 O618 1.235 . S
C632 C633 1.393 . S
C632 C636 1.395 . S
C632 C639 1.492 . S
C633 C632 1.393 . S
C633 C634 1.392 . S
C633 H644 0.930 . S
C634 C633 1.392 . S
C634 C635 1.386 . S
C635 C634 1.386 . S
C635 C637 1.395 . S
C635 H645 0.930 . S
C636 C632 1.395 . S
C636 C637 1.379 . S
C636 H646 0.930 . S
C637 C635 1.395 . S
C637 C636 1.379 . S
C637 H647 0.930 . S
C638 O616 1.264 . S
C638 O617 1.254 . S
C639 Eu575 2.848 . S
C639 O614 1.257 . S
C639 O619 1.249 . S
C639 C632 1.492 . S
H640 C623 0.930 . S
H641 C624 0.930 . S
H642 C625 0.930 . S
H643 C626 0.930 . S
H644 C633 0.930 . S
H645 C635 0.930 . S
H646 C636 0.930 . S
H647 C637 0.930 . S
H648 C656 0.950 . S
H649 C661 0.950 . S
H650 C658 0.950 . S
H651 C660 0.950 . S
H652 C662 0.950 . S
H653 C664 0.950 . S
H654 C666 0.950 . S
H655 C667 0.950 . S
C656 H648 0.950 . S
C656 C657 1.386 . S
C656 C658 1.391 . S
C657 C656 1.386 . S
C657 C661 1.393 . S
C658 H650 0.950 . S
C658 C656 1.391 . S
C658 C659 1.400 . S
C659 C658 1.400 . S
C659 C660 1.398 . S
C659 C665 1.491 . S
C660 H651 0.950 . S
C660 C659 1.398 . S
C660 C661 1.391 . S
C661 H649 0.950 . S
C661 C657 1.393 . S
C661 C660 1.391 . S
C662 H652 0.950 . S
C662 C663 1.386 . S
C662 C664 1.391 . S
C663 C662 1.386 . S
C663 C667 1.393 . S
C664 H653 0.950 . S
C664 C662 1.391 . S
C664 C665 1.400 . S
C665 C659 1.491 . S
C665 C664 1.400 . S
C665 C666 1.398 . S
C666 H654 0.950 . S
C666 C665 1.398 . S
C666 C667 1.391 . S
C667 H655 0.950 . S
C667 C663 1.393 . S
C667 C666 1.391 . S
H668 C676 0.950 . S
H669 C681 0.950 . S
H670 C678 0.950 . S
H671 C680 0.950 . S
H672 C682 0.950 . S
H673 C684 0.950 . S
H674 C686 0.950 . S
H675 C687 0.950 . S
C676 H668 0.950 . S
C676 C677 1.386 . S
C676 C678 1.391 . S
C677 C676 1.386 . S
C677 C681 1.393 . S
C678 H670 0.950 . S
C678 C676 1.391 . S
C678 C679 1.400 . S
C679 C678 1.400 . S
C679 C680 1.398 . S
C679 C685 1.491 . S
C680 H671 0.950 . S
C680 C679 1.398 . S
C680 C681 1.391 . S
C681 H669 0.950 . S
C681 C677 1.393 . S
C681 C680 1.391 . S
C682 H672 0.950 . S
C682 C683 1.386 . S
C682 C684 1.391 . S
C683 C682 1.386 . S
C683 C687 1.393 . S
C684 H673 0.950 . S
C684 C682 1.391 . S
C684 C685 1.400 . S
C685 C679 1.491 . S
C685 C684 1.400 . S
C685 C686 1.398 . S
C686 H674 0.950 . S
C686 C685 1.398 . S
C686 C687 1.391 . S
C687 H675 0.950 . S
C687 C683 1.393 . S
C687 C686 1.391 . S
H688 C696 0.950 . S
H689 C701 0.950 . S
H690 C698 0.950 . S
H691 C700 0.950 . S
H692 C702 0.950 . S
H693 C704 0.950 . S
H694 C706 0.950 . S
H695 C707 0.950 . S
C696 H688 0.950 . S
C696 C697 1.386 . S
C696 C698 1.391 . S
C697 C696 1.386 . S
C697 C701 1.393 . S
C698 H690 0.950 . S
C698 C696 1.391 . S
C698 C699 1.400 . S
C699 C698 1.400 . S
C699 C700 1.398 . S
C699 C705 1.491 . S
C700 H691 0.950 . S
C700 C699 1.398 . S
C700 C701 1.391 . S
C701 H689 0.950 . S
C701 C697 1.393 . S
C701 C700 1.391 . S
C702 H692 0.950 . S
C702 C703 1.386 . S
C702 C704 1.391 . S
C703 C702 1.386 . S
C703 C707 1.393 . S
C704 H693 0.950 . S
C704 C702 1.391 . S
C704 C705 1.400 . S
C705 C699 1.491 . S
C705 C704 1.400 . S
C705 C706 1.398 . S
C706 H694 0.950 . S
C706 C705 1.398 . S
C706 C707 1.391 . S
C707 H695 0.950 . S
C707 C703 1.393 . S
C707 C706 1.391 . S
H708 C716 0.950 . S
H709 C721 0.950 . S
H710 C718 0.950 . S
H711 C720 0.950 . S
H712 C722 0.950 . S
H713 C724 0.950 . S
H714 C726 0.950 . S
H715 C727 0.950 . S
C716 H708 0.950 . S
C716 C717 1.386 . S
C716 C718 1.391 . S
C717 C716 1.386 . S
C717 C721 1.393 . S
C718 H710 0.950 . S
C718 C716 1.391 . S
C718 C719 1.400 . S
C719 C718 1.400 . S
C719 C720 1.398 . S
C719 C725 1.491 . S
C720 H711 0.950 . S
C720 C719 1.398 . S
C720 C721 1.391 . S
C721 H709 0.950 . S
C721 C717 1.393 . S
C721 C720 1.391 . S
C722 H712 0.950 . S
C722 C723 1.386 . S
C722 C724 1.391 . S
C723 C722 1.386 . S
C723 C727 1.393 . S
C724 H713 0.950 . S
C724 C722 1.391 . S
C724 C725 1.400 . S
C725 C719 1.491 . S
C725 C724 1.400 . S
C725 C726 1.398 . S
C726 H714 0.950 . S
C726 C725 1.398 . S
C726 C727 1.391 . S
C727 H715 0.950 . S
C727 C723 1.393 . S
C727 C726 1.391 . S
H728 C736 0.950 . S
H729 C741 0.950 . S
H730 C738 0.950 . S
H731 C740 0.950 . S
H732 C742 0.950 . S
H733 C744 0.950 . S
H734 C746 0.950 . S
H735 C747 0.945 1_545 S
C736 H728 0.950 . S
C736 C737 1.386 . S
C736 C738 1.391 . S
C737 C736 1.386 . S
C737 C741 1.393 . S
C738 H730 0.950 . S
C738 C736 1.391 . S
C738 C739 1.400 1_554 S
C739 C738 1.400 1_556 S
C739 C740 1.398 . S
C739 C745 1.491 . S
C740 H731 0.950 . S
C740 C739 1.398 . S
C740 C741 1.391 1_556 S
C741 H729 0.950 . S
C741 C737 1.393 . S
C741 C740 1.391 1_554 S
C742 H732 0.950 . S
C742 C743 1.386 . S
C742 C744 1.391 . S
C743 C742 1.386 . S
C743 C747 1.393 . S
C744 H733 0.950 . S
C744 C742 1.391 . S
C744 C745 1.400 . S
C745 C739 1.491 . S
C745 C744 1.400 . S
C745 C746 1.398 . S
C746 H734 0.950 . S
C746 C745 1.398 . S
C746 C747 1.391 . S
C747 H735 0.945 1_565 S
C747 C743 1.393 . S
C747 C746 1.391 . S
H748 C756 0.950 . S
H749 C761 0.950 . S
H750 C758 0.950 . S
H751 C760 0.950 . S
H752 C762 0.950 . S
H753 C764 0.950 . S
H754 C766 0.950 . S
H755 C767 0.950 . S
C756 H748 0.950 . S
C756 C757 1.386 . S
C756 C758 1.391 1_554 S
C757 C756 1.386 . S
C757 C761 1.393 . S
C758 H750 0.950 . S
C758 C756 1.391 1_556 S
C758 C759 1.400 . S
C759 C758 1.400 . S
C759 C760 1.398 . S
C759 C765 1.491 . S
C760 H751 0.950 . S
C760 C759 1.398 . S
C760 C761 1.391 1_556 S
C761 H749 0.950 . S
C761 C757 1.393 . S
C761 C760 1.391 1_554 S
C762 H752 0.950 . S
C762 C763 1.386 . S
C762 C764 1.391 . S
C763 C762 1.386 . S
C763 C767 1.393 . S
C764 H753 0.950 . S
C764 C762 1.391 . S
C764 C765 1.400 . S
C765 C759 1.491 . S
C765 C764 1.400 . S
C765 C766 1.398 . S
C766 H754 0.950 . S
C766 C765 1.398 . S
C766 C767 1.391 . S
C767 H755 0.950 . S
C767 C763 1.393 . S
C767 C766 1.391 . S
H768 C776 0.950 . S
H769 C781 0.950 . S
H770 C778 0.950 . S
H771 C780 0.950 . S
H772 C782 0.950 . S
H773 C784 0.950 . S
H774 C786 0.950 . S
H775 C787 0.950 . S
C776 H768 0.950 . S
C776 C777 1.386 . S
C776 C778 1.391 1_554 S
C777 C776 1.386 . S
C777 C781 1.393 . S
C778 H770 0.950 . S
C778 C776 1.391 1_556 S
C778 C779 1.400 . S
C779 C778 1.400 . S
C779 C780 1.398 . S
C779 C785 1.491 . S
C780 H771 0.950 . S
C780 C779 1.398 . S
C780 C781 1.391 1_556 S
C781 H769 0.950 . S
C781 C777 1.393 . S
C781 C780 1.391 1_554 S
C782 H772 0.950 . S
C782 C783 1.386 . S
C782 C784 1.391 . S
C783 C782 1.386 . S
C783 C787 1.393 . S
C784 H773 0.950 . S
C784 C782 1.391 . S
C784 C785 1.400 . S
C785 C779 1.491 . S
C785 C784 1.400 . S
C785 C786 1.398 . S
C786 H774 0.950 . S
C786 C785 1.398 . S
C786 C787 1.391 . S
C787 H775 0.950 . S
C787 C783 1.393 . S
C787 C786 1.391 . S
H788 C796 0.950 . S
H789 C801 0.950 . S
H790 C798 0.950 . S
H791 C800 0.950 . S
H792 C802 0.950 . S
H793 C804 0.950 . S
H794 C806 0.950 . S
H795 C807 0.950 . S
C796 H788 0.950 . S
C796 C797 1.386 . S
C796 C798 1.391 1_554 S
C797 C796 1.386 . S
C797 C801 1.393 . S
C798 H790 0.950 . S
C798 C796 1.391 1_556 S
C798 C799 1.400 . S
C799 C798 1.400 . S
C799 C800 1.398 1_556 S
C799 C805 1.491 . S
C800 H791 0.950 . S
C800 C799 1.398 1_554 S
C800 C801 1.391 . S
C801 H789 0.950 . S
C801 C797 1.393 . S
C801 C800 1.391 . S
C802 H792 0.950 . S
C802 C803 1.386 . S
C802 C804 1.391 . S
C803 C802 1.386 . S
C803 C807 1.393 . S
C804 H793 0.950 . S
C804 C802 1.391 . S
C804 C805 1.400 . S
C805 C799 1.491 . S
C805 C804 1.400 . S
C805 C806 1.398 . S
C806 H794 0.950 . S
C806 C805 1.398 . S
C806 C807 1.391 . S
C807 H795 0.950 . S
C807 C803 1.393 . S
C807 C806 1.391 . S
H808 C816 0.950 . S
H809 C821 0.950 . S
H810 C818 0.950 . S
H811 C820 0.950 . S
H812 C822 0.950 . S
H813 C824 0.950 . S
H814 C826 0.950 . S
H815 C827 0.950 . S
C816 H808 0.950 . S
C816 C817 1.386 . S
C816 C818 1.391 . S
C817 C816 1.386 . S
C817 C821 1.393 . S
C818 H810 0.950 . S
C818 C816 1.391 . S
C818 C819 1.400 . S
C819 C818 1.400 . S
C819 C820 1.398 . S
C819 C825 1.491 . S
C820 H811 0.950 . S
C820 C819 1.398 . S
C820 C821 1.391 . S
C821 H809 0.950 . S
C821 C817 1.393 . S
C821 C820 1.391 . S
C822 H812 0.950 . S
C822 C823 1.386 . S
C822 C824 1.391 . S
C823 C822 1.386 . S
C823 C827 1.393 1_455 S
C824 H813 0.950 . S
C824 C822 1.391 . S
C824 C825 1.400 . S
C825 C819 1.491 . S
C825 C824 1.400 . S
C825 C826 1.398 . S
C826 H814 0.950 . S
C826 C825 1.398 . S
C826 C827 1.391 1_455 S
C827 H815 0.950 . S
C827 C823 1.393 1_655 S
C827 C826 1.391 1_655 S
H828 C836 0.950 . S
H829 C841 0.950 . S
H830 C838 0.950 . S
H831 C840 0.950 . S
H832 C842 0.950 . S
H833 C844 0.950 . S
H834 C846 0.950 . S
H835 C847 0.950 1_565 S
C836 H828 0.950 . S
C836 C837 1.386 . S
C836 C838 1.391 . S
C837 C836 1.386 . S
C837 C841 1.393 . S
C838 H830 0.950 . S
C838 C836 1.391 . S
C838 C839 1.400 . S
C839 C838 1.400 . S
C839 C840 1.398 . S
C839 C845 1.491 . S
C840 H831 0.950 . S
C840 C839 1.398 . S
C840 C841 1.391 . S
C841 H829 0.950 . S
C841 C837 1.393 . S
C841 C840 1.391 . S
C842 H832 0.950 . S
C842 C843 1.400 . S
C842 C844 1.391 . S
C843 C842 1.400 . S
C843 C847 1.395 . S
C844 H833 0.950 . S
C844 C842 1.391 . S
C844 C845 1.400 . S
C845 C839 1.491 . S
C845 C844 1.400 . S
C845 C846 1.398 . S
C846 H834 0.950 . S
C846 C845 1.398 . S
C846 C847 1.391 . S
C847 H835 0.950 1_545 S
C847 C843 1.395 . S
C847 C846 1.391 . S
H848 C856 0.950 . S
H849 C861 0.950 . S
H850 C858 0.950 . S
H851 C860 0.950 . S
H852 C862 0.950 . S
H853 C864 0.950 . S
H854 C866 0.950 . S
H855 C867 0.950 . S
C856 H848 0.950 . S
C856 C857 1.386 . S
C856 C858 1.391 . S
C857 C856 1.386 . S
C857 C861 1.393 . S
C858 H850 0.950 . S
C858 C856 1.391 . S
C858 C859 1.400 . S
C859 C858 1.400 . S
C859 C860 1.398 . S
C859 C865 1.491 . S
C860 H851 0.950 . S
C860 C859 1.398 . S
C860 C861 1.391 . S
C861 H849 0.950 . S
C861 C857 1.393 . S
C861 C860 1.391 . S
C862 H852 0.950 . S
C862 C863 1.386 . S
C862 C864 1.391 . S
C863 C862 1.386 . S
C863 C867 1.393 . S
C864 H853 0.950 . S
C864 C862 1.391 . S
C864 C865 1.400 . S
C865 C859 1.491 . S
C865 C864 1.400 . S
C865 C866 1.398 . S
C866 H854 0.950 . S
C866 C865 1.398 . S
C866 C867 1.391 . S
C867 H855 0.950 . S
C867 C863 1.393 . S
C867 C866 1.391 . S
H868 C876 0.950 . S
H869 C881 0.950 . S
H870 C878 0.950 . S
H871 C880 0.950 . S
H872 C882 0.950 . S
H873 C884 0.950 . S
H874 C886 0.950 . S
H875 C887 0.950 . S
C876 H868 0.950 . S
C876 C877 1.386 . S
C876 C878 1.391 . S
C877 C876 1.386 . S
C877 C881 1.393 . S
C878 H870 0.950 . S
C878 C876 1.391 . S
C878 C879 1.400 . S
C879 C878 1.400 . S
C879 C880 1.398 . S
C879 C885 1.491 . S
C880 H871 0.950 . S
C880 C879 1.398 . S
C880 C881 1.391 . S
C881 H869 0.950 . S
C881 C877 1.393 . S
C881 C880 1.391 . S
C882 H872 0.950 . S
C882 C883 1.386 . S
C882 C884 1.391 . S
C883 C882 1.386 . S
C883 C887 1.393 . S
C884 H873 0.950 . S
C884 C882 1.391 . S
C884 C885 1.400 . S
C885 C879 1.491 . S
C885 C884 1.400 . S
C885 C886 1.398 . S
C886 H874 0.950 . S
C886 C885 1.398 . S
C886 C887 1.391 . S
C887 H875 0.950 . S
C887 C883 1.393 . S
C887 C886 1.391 . S
H888 C896 0.950 1_554 S
H889 C901 0.950 . S
H890 C898 0.950 . S
H891 C900 0.950 . S
H892 C902 0.950 . S
H893 C904 0.947 1_455 S
H894 C906 0.950 . S
H895 C907 0.950 . S
C896 H888 0.950 1_556 S
C896 C897 1.386 . S
C896 C898 1.391 . S
C897 C896 1.386 . S
C897 C901 1.393 . S
C898 H890 0.950 . S
C898 C896 1.391 . S
C898 C899 1.400 . S
C899 C898 1.400 . S
C899 C900 1.398 . S
C899 C905 1.491 . S
C900 H891 0.950 . S
C900 C899 1.398 . S
C900 C901 1.391 . S
C901 H889 0.950 . S
C901 C897 1.393 . S
C901 C900 1.391 . S
C902 H892 0.950 . S
C902 C903 1.386 . S
C902 C904 1.391 1_455 S
C903 C902 1.386 . S
C903 C907 1.393 1_455 S
C904 H893 0.947 1_655 S
C904 C902 1.391 1_655 S
C904 C905 1.400 . S
C905 C899 1.491 . S
C905 C904 1.400 . S
C905 C906 1.398 . S
C906 H894 0.950 . S
C906 C905 1.398 . S
C906 C907 1.391 . S
C907 H895 0.950 . S
C907 C903 1.393 1_655 S
C907 C906 1.391 . S
H908 C916 0.950 . S
H909 C921 0.950 . S
H910 C918 0.950 1_554 S
H911 C920 0.950 . S
H912 C922 0.950 . S
H913 C924 0.950 . S
H914 C926 0.950 . S
H915 C927 0.946 1_545 S
C916 H908 0.950 . S
C916 C917 1.386 1_554 S
C916 C918 1.391 1_554 S
C917 C916 1.386 1_556 S
C917 C921 1.393 . S
C918 H910 0.950 1_556 S
C918 C916 1.391 1_556 S
C918 C919 1.400 . S
C919 C918 1.400 . S
C919 C920 1.398 . S
C919 C925 1.491 . S
C920 H911 0.950 . S
C920 C919 1.398 . S
C920 C921 1.391 . S
C921 H909 0.950 . S
C921 C917 1.393 . S
C921 C920 1.391 . S
C922 H912 0.950 . S
C922 C923 1.386 . S
C922 C924 1.391 1_545 S
C923 C922 1.386 . S
C923 C927 1.380 1_545 S
C924 H913 0.950 . S
C924 C922 1.391 1_565 S
C924 C925 1.400 . S
C925 C919 1.491 . S
C925 C924 1.400 . S
C925 C926 1.398 . S
C926 H914 0.950 . S
C926 C925 1.398 . S
C926 C927 1.409 . S
C927 H915 0.946 1_565 S
C927 C923 1.380 1_565 S
C927 C926 1.409 . S
H928 C936 0.950 . S
H929 C941 0.950 . S
H930 C938 0.950 . S
H931 C940 0.950 . S
H932 C942 0.950 . S
H933 C944 0.950 . S
H934 C946 0.950 . S
H935 C947 0.950 . S
C936 H928 0.950 . S
C936 C937 1.386 . S
C936 C938 1.391 . S
C937 C936 1.386 . S
C937 C941 1.393 . S
C938 H930 0.950 . S
C938 C936 1.391 . S
C938 C939 1.400 . S
C939 C938 1.400 . S
C939 C940 1.398 . S
C939 C945 1.491 . S
C940 H931 0.950 . S
C940 C939 1.398 . S
C940 C941 1.391 . S
C941 H929 0.950 . S
C941 C937 1.393 . S
C941 C940 1.391 . S
C942 H932 0.950 . S
C942 C943 1.386 . S
C942 C944 1.391 . S
C943 C942 1.386 . S
C943 C947 1.393 . S
C944 H933 0.950 . S
C944 C942 1.391 . S
C944 C945 1.400 . S
C945 C939 1.491 . S
C945 C944 1.400 . S
C945 C946 1.398 . S
C946 H934 0.950 . S
C946 C945 1.398 . S
C946 C947 1.391 . S
C947 H935 0.950 . S
C947 C943 1.393 . S
C947 C946 1.391 . S
H948 C956 0.950 . S
H949 C961 0.950 . S
H950 C958 0.950 . S
H951 C960 0.950 1_554 S
H952 C962 0.950 . S
H953 C964 0.950 . S
H954 C966 0.950 . S
H955 C967 0.950 . S
C956 H948 0.950 . S
C956 C957 1.386 . S
C956 C958 1.391 . S
C957 C956 1.386 . S
C957 C961 1.393 1_556 S
C958 H950 0.950 . S
C958 C956 1.391 . S
C958 C959 1.400 . S
C959 C958 1.400 . S
C959 C960 1.398 . S
C959 C965 1.491 . S
C960 H951 0.950 1_556 S
C960 C959 1.398 . S
C960 C961 1.391 1_556 S
C961 H949 0.950 . S
C961 C957 1.393 1_554 S
C961 C960 1.391 1_554 S
C962 H952 0.950 . S
C962 C963 1.386 . S
C962 C964 1.391 . S
C963 C962 1.386 . S
C963 C967 1.393 . S
C964 H953 0.950 . S
C964 C962 1.391 . S
C964 C965 1.400 . S
C965 C959 1.491 . S
C965 C964 1.400 . S
C965 C966 1.398 . S
C966 H954 0.950 . S
C966 C965 1.398 . S
C966 C967 1.391 . S
C967 H955 0.950 . S
C967 C963 1.393 . S
C967 C966 1.391 . S
H968 C976 0.950 . S
H969 C981 0.950 . S
H970 C978 0.950 . S
H971 C980 0.950 . S
H972 C982 0.950 . S
H973 C984 0.950 . S
H974 C986 0.950 . S
H975 C987 0.950 . S
C976 H968 0.950 . S
C976 C977 1.386 . S
C976 C978 1.391 . S
C977 C976 1.386 . S
C977 C981 1.393 . S
C978 H970 0.950 . S
C978 C976 1.391 . S
C978 C979 1.400 . S
C979 C978 1.400 . S
C979 C980 1.398 . S
C979 C985 1.491 . S
C980 H971 0.950 . S
C980 C979 1.398 . S
C980 C981 1.391 . S
C981 H969 0.950 . S
C981 C977 1.393 . S
C981 C980 1.391 . S
C982 H972 0.950 . S
C982 C983 1.386 . S
C982 C984 1.391 . S
C983 C982 1.386 . S
C983 C987 1.393 . S
C984 H973 0.950 . S
C984 C982 1.391 . S
C984 C985 1.400 . S
C985 C979 1.491 . S
C985 C984 1.400 . S
C985 C986 1.398 . S
C986 H974 0.950 . S
C986 C985 1.398 . S
C986 C987 1.391 . S
C987 H975 0.950 . S
C987 C983 1.393 . S
C987 C986 1.391 . S
H988 C996 0.950 . S
H989 C1001 0.950 . S
H990 C998 0.950 . S
H991 C1000 0.950 . S
H992 C1002 0.950 . S
H993 C1004 0.950 . S
H994 C1006 0.950 . S
H995 C1007 0.950 . S
C996 H988 0.950 . S
C996 C997 1.386 . S
C996 C998 1.391 . S
C997 C996 1.386 . S
C997 C1001 1.393 . S
C998 H990 0.950 . S
C998 C996 1.391 . S
C998 C999 1.400 . S
C999 C998 1.400 . S
C999 C1000 1.398 . S
C999 C1005 1.491 . S
C1000 H991 0.950 . S
C1000 C999 1.398 . S
C1000 C1001 1.391 . S
C1001 H989 0.950 . S
C1001 C997 1.393 . S
C1001 C1000 1.391 . S
C1002 H992 0.950 . S
C1002 C1003 1.386 . S
C1002 C1004 1.391 . S
C1003 C1002 1.386 . S
C1003 C1007 1.393 . S
C1004 H993 0.950 . S
C1004 C1002 1.391 . S
C1004 C1005 1.400 . S
C1005 C999 1.491 . S
C1005 C1004 1.400 . S
C1005 C1006 1.398 . S
C1006 H994 0.950 . S
C1006 C1005 1.398 . S
C1006 C1007 1.391 . S
C1007 H995 0.950 . S
C1007 C1003 1.393 . S
C1007 C1006 1.391 . S
H1008 C1016 0.950 . S
H1009 C1021 0.950 . S
H1010 C1018 0.950 . S
H1011 C1020 0.950 . S
H1012 C1022 0.950 . S
H1013 C1024 0.950 . S
H1014 C1026 0.950 . S
H1015 C1027 0.950 . S
C1016 H1008 0.950 . S
C1016 C1017 1.386 . S
C1016 C1018 1.391 . S
C1017 C1016 1.386 . S
C1017 C1021 1.393 . S
C1018 H1010 0.950 . S
C1018 C1016 1.391 . S
C1018 C1019 1.400 . S
C1019 C1018 1.400 . S
C1019 C1020 1.398 . S
C1019 C1025 1.491 . S
C1020 H1011 0.950 . S
C1020 C1019 1.398 . S
C1020 C1021 1.391 . S
C1021 H1009 0.950 . S
C1021 C1017 1.393 . S
C1021 C1020 1.391 . S
C1022 H1012 0.950 . S
C1022 C1023 1.386 . S
C1022 C1024 1.391 . S
C1023 C1022 1.386 . S
C1023 C1027 1.393 . S
C1024 H1013 0.950 . S
C1024 C1022 1.391 . S
C1024 C1025 1.400 . S
C1025 C1019 1.491 . S
C1025 C1024 1.400 . S
C1025 C1026 1.398 . S
C1026 H1014 0.950 . S
C1026 C1025 1.398 . S
C1026 C1027 1.391 . S
C1027 H1015 0.950 . S
C1027 C1023 1.393 . S
C1027 C1026 1.391 . S
H1028 C1036 0.950 . S
H1029 C1041 0.950 . S
H1030 C1038 0.950 . S
H1031 C1040 0.950 . S
H1032 C1042 0.950 . S
H1033 C1044 0.950 . S
H1034 C1046 0.950 . S
H1035 C1047 0.950 . S
C1036 H1028 0.950 . S
C1036 C1037 1.386 . S
C1036 C1038 1.391 . S
C1037 C1036 1.386 . S
C1037 C1041 1.393 . S
C1038 H1030 0.950 . S
C1038 C1036 1.391 . S
C1038 C1039 1.400 . S
C1039 C1038 1.400 . S
C1039 C1040 1.398 . S
C1039 C1045 1.491 . S
C1040 H1031 0.950 . S
C1040 C1039 1.398 . S
C1040 C1041 1.391 . S
C1041 H1029 0.950 . S
C1041 C1037 1.393 . S
C1041 C1040 1.391 . S
C1042 H1032 0.950 . S
C1042 C1043 1.386 . S
C1042 C1044 1.391 . S
C1043 C1042 1.386 . S
C1043 C1047 1.393 . S
C1044 H1033 0.950 . S
C1044 C1042 1.391 . S
C1044 C1045 1.400 . S
C1045 C1039 1.491 . S
C1045 C1044 1.400 . S
C1045 C1046 1.398 . S
C1046 H1034 0.950 . S
C1046 C1045 1.398 . S
C1046 C1047 1.391 . S
C1047 H1035 0.950 . S
C1047 C1043 1.393 . S
C1047 C1046 1.391 . S
H1048 C1056 0.950 . S
H1049 C1061 0.950 . S
H1050 C1058 0.950 . S
H1051 C1060 0.950 . S
H1052 C1062 0.950 . S
H1053 C1064 0.950 . S
H1054 C1066 0.950 . S
H1055 C1067 0.950 1_455 S
C1056 H1048 0.950 . S
C1056 C1057 1.386 . S
C1056 C1058 1.391 . S
C1057 C1056 1.386 . S
C1057 C1061 1.393 . S
C1058 H1050 0.950 . S
C1058 C1056 1.391 . S
C1058 C1059 1.400 . S
C1059 C1058 1.400 . S
C1059 C1060 1.398 . S
C1059 C1065 1.491 . S
C1060 H1051 0.950 . S
C1060 C1059 1.398 . S
C1060 C1061 1.391 . S
C1061 H1049 0.950 . S
C1061 C1057 1.393 . S
C1061 C1060 1.391 . S
C1062 H1052 0.950 . S
C1062 C1063 1.386 . S
C1062 C1064 1.391 . S
C1063 C1062 1.386 . S
C1063 C1067 1.393 . S
C1064 H1053 0.950 . S
C1064 C1062 1.391 . S
C1064 C1065 1.400 . S
C1065 C1059 1.491 . S
C1065 C1064 1.400 . S
C1065 C1066 1.398 . S
C1066 H1054 0.950 . S
C1066 C1065 1.398 . S
C1066 C1067 1.391 . S
C1067 H1055 0.950 1_655 S
C1067 C1063 1.393 . S
C1067 C1066 1.391 . S
H1068 C1076 0.950 . S
H1069 C1081 0.950 . S
H1070 C1078 0.950 . S
H1071 C1080 0.950 . S
H1072 C1082 0.950 . S
H1073 C1084 0.950 . S
H1074 C1086 0.950 1_545 S
H1075 C1087 0.950 1_545 S
C1076 H1068 0.950 . S
C1076 C1077 1.386 . S
C1076 C1078 1.391 . S
C1077 C1076 1.386 . S
C1077 C1081 1.393 . S
C1078 H1070 0.950 . S
C1078 C1076 1.391 . S
C1078 C1079 1.400 . S
C1079 C1078 1.400 . S
C1079 C1080 1.398 . S
C1079 C1085 1.491 . S
C1080 H1071 0.950 . S
C1080 C1079 1.398 . S
C1080 C1081 1.391 . S
C1081 H1069 0.950 . S
C1081 C1077 1.393 . S
C1081 C1080 1.391 . S
C1082 H1072 0.950 . S
C1082 C1083 1.386 . S
C1082 C1084 1.391 . S
C1083 C1082 1.386 . S
C1083 C1087 1.393 . S
C1084 H1073 0.950 . S
C1084 C1082 1.391 . S
C1084 C1085 1.400 . S
C1085 C1079 1.491 . S
C1085 C1084 1.400 . S
C1085 C1086 1.398 . S
C1086 H1074 0.950 1_565 S
C1086 C1085 1.398 . S
C1086 C1087 1.391 . S
C1087 H1075 0.950 1_565 S
C1087 C1083 1.393 . S
C1087 C1086 1.391 . S
H1088 C1096 0.950 . S
H1089 C1101 0.950 . S
H1090 C1098 0.950 . S
H1091 C1100 0.950 . S
H1092 C1102 0.950 . S
H1093 C1104 0.950 . S
H1094 C1106 0.950 . S
H1095 C1107 0.950 . S
C1096 H1088 0.950 . S
C1096 C1097 1.386 . S
C1096 C1098 1.391 . S
C1097 C1096 1.386 . S
C1097 C1101 1.393 . S
C1098 H1090 0.950 . S
C1098 C1096 1.391 . S
C1098 C1099 1.400 . S
C1099 C1098 1.400 . S
C1099 C1100 1.398 . S
C1099 C1105 1.491 . S
C1100 H1091 0.950 . S
C1100 C1099 1.398 . S
C1100 C1101 1.391 . S
C1101 H1089 0.950 . S
C1101 C1097 1.393 . S
C1101 C1100 1.391 . S
C1102 H1092 0.950 . S
C1102 C1103 1.386 . S
C1102 C1104 1.391 . S
C1103 C1102 1.386 . S
C1103 C1107 1.393 . S
C1104 H1093 0.950 . S
C1104 C1102 1.391 . S
C1104 C1105 1.400 . S
C1105 C1099 1.491 . S
C1105 C1104 1.400 . S
C1105 C1106 1.398 . S
C1106 H1094 0.950 . S
C1106 C1105 1.398 . S
C1106 C1107 1.391 . S
C1107 H1095 0.950 . S
C1107 C1103 1.393 . S
C1107 C1106 1.391 . S
H1108 C1116 0.950 . S
H1109 C1121 0.950 . S
H1110 C1118 0.950 . S
H1111 C1120 0.950 . S
H1112 C1122 0.950 . S
H1113 C1124 0.950 . S
H1114 C1126 0.950 . S
H1115 C1127 0.950 . S
C1116 H1108 0.950 . S
C1116 C1117 1.386 . S
C1116 C1118 1.391 . S
C1117 C1116 1.386 . S
C1117 C1121 1.393 . S
C1118 H1110 0.950 . S
C1118 C1116 1.391 . S
C1118 C1119 1.400 . S
C1119 C1118 1.400 . S
C1119 C1120 1.398 . S
C1119 C1125 1.491 . S
C1120 H1111 0.950 . S
C1120 C1119 1.398 . S
C1120 C1121 1.391 . S
C1121 H1109 0.950 . S
C1121 C1117 1.393 . S
C1121 C1120 1.391 . S
C1122 H1112 0.950 . S
C1122 C1123 1.386 . S
C1122 C1124 1.391 . S
C1123 C1122 1.386 . S
C1123 C1127 1.393 . S
C1124 H1113 0.950 . S
C1124 C1122 1.391 . S
C1124 C1125 1.400 . S
C1125 C1119 1.491 . S
C1125 C1124 1.400 . S
C1125 C1126 1.398 . S
C1126 H1114 0.950 . S
C1126 C1125 1.398 . S
C1126 C1127 1.391 . S
C1127 H1115 0.950 . S
C1127 C1123 1.393 . S
C1127 C1126 1.391 . S
C657 C255 2.249 . S
C663 C386 2.338 . S
C683 C470 2.375 . S
C677 C294 2.284 . S
C703 C536 2.287 . S
C697 C177 2.395 . S
C723 C620 2.277 . S
C717 C216 2.388 . S
C743 C375 2.336 1_565 S
C737 C99 2.277 . S
C757 C138 2.251 . S
C763 C459 2.357 . S
C777 C21 2.400 . S
C783 C547 2.274 . S
C797 C60 2.386 . S
C803 C631 2.259 . S
C823 C382 0.632 1_455 S
C817 C196 0.642 . S
C843 C466 0.529 1_545 S
C837 C235 0.642 . S
C863 C538 0.542 . S
C857 C289 0.574 . S
C877 C157 0.634 . S
C883 C622 0.629 . S
C897 C40 0.621 1_556 S
C903 C370 0.644 . S
C923 C454 0.594 . S
C917 C79 0.572 1_556 S
C943 C550 0.521 . S
C937 C133 0.616 1_556 S
C957 C1 0.638 1_556 S
C963 C634 0.624 . S
C977 C211 2.770 . S
C983 C379 2.922 . S
C997 C250 2.725 . S
C1003 C463 2.879 . S
C1023 C543 2.934 . S
C1017 C274 2.598 . S
C1043 C627 2.964 . S
C1037 C172 2.619 . S
C1057 C55 2.743 . S
C1063 C368 2.908 . S
C1083 C452 2.863 . S
C1077 C94 2.698 . S
C1103 C554 2.933 . S
C1097 C118 2.616 . S
C1117 C16 2.641 . S
C1123 C638 2.965 . S
