# Generated by pormake.
# Topology pth, (4,4)-cn, num edge types: 1
# Building blocks:
#     Node 0, Type 0, BuildingBlock: NAHDIM_clean_sbu_0, # of connection points: 4
#     Node 1, Type 0, BuildingBlock: NAHDIM_clean_sbu_0, # of connection points: 4
#     Node 2, Type 0, BuildingBlock: NAHDIM_clean_sbu_0, # of connection points: 4
#     Node 3, Type 1, BuildingBlock: NAHDIM_clean_linker_0, # of connection points: 4
#     Node 4, Type 1, BuildingBlock: NAHDIM_clean_linker_0, # of connection points: 4
#     Node 5, Type 1, BuildingBlock: NAHDIM_clean_linker_0, # of connection points: 4
#     Edge 6, Type (0, 1), BuildingBlock: AJUNOK_clean_linker_0, # of connection points: 2
#     Edge 7, Type (0, 1), BuildingBlock: AJUNOK_clean_linker_0, # of connection points: 2
#     Edge 8, Type (0, 1), BuildingBlock: AJUNOK_clean_linker_0, # of connection points: 2
#     Edge 9, Type (0, 1), BuildingBlock: AJUNOK_clean_linker_0, # of connection points: 2
#     Edge 10, Type (0, 1), BuildingBlock: AJUNOK_clean_linker_0, # of connection points: 2
#     Edge 11, Type (0, 1), BuildingBlock: AJUNOK_clean_linker_0, # of connection points: 2
#     Edge 12, Type (0, 1), BuildingBlock: AJUNOK_clean_linker_0, # of connection points: 2
#     Edge 13, Type (0, 1), BuildingBlock: AJUNOK_clean_linker_0, # of connection points: 2
#     Edge 14, Type (0, 1), BuildingBlock: AJUNOK_clean_linker_0, # of connection points: 2
#     Edge 15, Type (0, 1), BuildingBlock: AJUNOK_clean_linker_0, # of connection points: 2
#     Edge 16, Type (0, 1), BuildingBlock: AJUNOK_clean_linker_0, # of connection points: 2
#     Edge 17, Type (0, 1), BuildingBlock: AJUNOK_clean_linker_0, # of connection points: 2
# Relax obj value: 0.060
# Max RMSD: 0.179
# Mean RMSD: 0.115
data_MOF--net-pth--node1-NAHDIM_clean_sbu_0--node2-NAHDIM_clean_linker_0--edge1-AJUNOK_clean_linker_0
_symmetry_space_group_name_H-M    P1
_symmetry_Int_Tables_number       1
_symmetry_cell_setting            triclinic
loop_
_symmetry_equiv_pos_as_xyz
'x, y, z'
_cell_length_a     25.696645
_cell_length_b     25.838295
_cell_length_c     64.482888
_cell_angle_alpha  91.777229
_cell_angle_beta   90.444253
_cell_angle_gamma 120.59555
loop_
_atom_site_label
_atom_site_type_symbol
_atom_site_fract_x
_atom_site_fract_y
_atom_site_fract_z
_atom_type_partial_charge
C0 C 0.11282 0.00884 0.10432 0.0
O1 O 0.13038 0.06294 0.11217 0.0
O2 O 0.06956 0.10771 0.08776 0.0
Zn3 Zn 0.08356 0.05371 0.06842 0.0
O4 O 0.00854 -3e-05 0.0513 0.0
C5 C 0.1804 0.16191 0.05285 0.0
O6 O 0.18295 0.1811 0.07214 0.0
O7 O 0.09885 0.99798 0.08508 0.0
C8 C 0.99155 0.01929 0.03637 0.0
O9 O 0.0221 0.07702 0.03282 0.0
C10 C 0.02667 0.08934 0.1004 0.0
O11 O 0.98678 0.03152 0.10064 0.0
O12 O 0.14729 0.10591 0.04841 0.0
C13 C 0.08711 0.16053 0.3713 0.0
O14 O 0.04729 0.10286 0.36917 0.0
O15 O 0.0923 0.03481 0.38921 0.0
Zn16 Zn 0.11495 0.11317 0.40441 0.0
O17 O 0.04741 0.10522 0.4219 0.0
C18 C 0.21781 0.10998 0.41899 0.0
O19 O 0.21576 0.09115 0.39968 0.0
O20 O 0.12904 0.17855 0.38505 0.0
C21 C 0.0354 0.08273 0.43966 0.0
O22 O 0.06525 0.05782 0.44675 0.0
C23 C 0.03968 0.98872 0.38713 0.0
O24 O 0.99313 0.99079 0.3944 0.0
O25 O 0.18412 0.13099 0.4239 0.0
C26 C 0.16412 0.04837 0.71714 0.0
O27 O 0.18109 0.10247 0.72483 0.0
O28 O 0.99884 0.04116 0.71646 0.0
Zn29 Zn 0.0495 0.0206 0.7346 0.0
O30 O 0.0912 0.08643 0.75701 0.0
C31 C 0.944 0.94393 0.75598 0.0
O32 O 0.93883 0.99172 0.75442 0.0
O33 O 0.10935 0.00678 0.71881 0.0
C34 C 0.10616 0.14057 0.75383 0.0
O35 O 0.0976 0.15442 0.7352 0.0
C36 C 0.01198 0.07252 0.70046 0.0
O37 O 0.06599 0.09457 0.69268 0.0
O38 O 0.99027 0.94491 0.74864 0.0
C39 C 0.9753 0.71241 0.37042 0.0
C40 C 0.01578 0.76245 0.35595 0.0
C41 C 0.01175 0.72149 0.32115 0.0
C42 C 0.07343 0.74489 0.31758 0.0
C43 C 0.09233 0.71568 0.30347 0.0
C44 C 0.04859 0.66213 0.29275 0.0
C45 C 0.98623 0.64031 0.29555 0.0
C46 C 0.96869 0.67096 0.30954 0.0
C47 C 0.15903 0.74113 0.30041 0.0
C48 C 0.9381 0.58341 0.28438 0.0
C49 C 0.08287 0.2669 0.33292 0.0
C50 C 0.06645 0.30617 0.32158 0.0
C51 C 0.10717 0.40909 0.3111 0.0
C52 C 0.0502 0.40062 0.30547 0.0
C53 C 0.04507 0.44618 0.29623 0.0
C54 C 0.0979 0.5015 0.29244 0.0
C55 C 0.15515 0.51123 0.29874 0.0
C56 C 0.15902 0.46475 0.30804 0.0
C57 C 0.98311 0.43465 0.29007 0.0
C58 C 0.21217 0.57006 0.29511 0.0
C59 C 0.06339 0.36997 0.16334 0.0
C60 C 0.0122 0.36613 0.17252 0.0
C61 C 0.01437 0.41733 0.18147 0.0
C62 C 0.06892 0.47356 0.18137 0.0
C63 C 0.11992 0.47807 0.1715 0.0
C64 C 0.11622 0.42616 0.16239 0.0
C65 C 0.95851 0.41107 0.19142 0.0
C66 C 0.17871 0.5373 0.1712 0.0
C67 C 0.92945 0.79982 0.15879 0.0
C68 C 0.99101 0.80439 0.15727 0.0
C69 C 0.00114 0.71654 0.15833 0.0
C70 C 0.95916 0.65641 0.16171 0.0
C71 C 0.97576 0.62097 0.1728 0.0
C72 C 0.03654 0.646 0.17988 0.0
C73 C 0.07994 0.70609 0.17543 0.0
C74 C 0.06147 0.7411 0.16495 0.0
C75 C 0.92806 0.55716 0.17721 0.0
C76 C 0.14558 0.73345 0.18189 0.0
C77 C 0.06774 0.62574 0.28025 0.0
C78 C 0.08124 0.58756 0.29096 0.0
C79 C 0.09287 0.54675 0.28035 0.0
C80 C 0.09184 0.54415 0.25842 0.0
C81 C 0.1017 0.50236 0.24731 0.0
C82 C 0.09662 0.49722 0.22579 0.0
C83 C 0.08199 0.53402 0.21452 0.0
C84 C 0.07296 0.52637 0.19275 0.0
C85 C 0.06052 0.56492 0.18187 0.0
C86 C 0.05417 0.60963 0.19229 0.0
C87 C 0.0602 0.61609 0.21423 0.0
C88 C 0.05075 0.6582 0.22538 0.0
C89 C 0.05441 0.66238 0.24699 0.0
C90 C 0.06735 0.62442 0.25829 0.0
C91 C 0.07878 0.58292 0.24736 0.0
C92 C 0.07452 0.57829 0.22534 0.0
C93 C 0.06417 0.25939 0.18194 0.0
C94 C 0.03218 0.26296 0.16236 0.0
O95 O 0.99255 0.74641 0.33578 0.0
O96 O 0.98232 0.75043 0.1489 0.0
O97 O 0.06351 0.32091 0.15513 0.0
O98 O 0.11358 0.36456 0.31925 0.0
H99 H 0.06119 0.76706 0.35716 0.0
H100 H 0.97517 0.67053 0.36587 0.0
H101 H 0.92797 0.70268 0.36958 0.0
H102 H 0.99273 0.72543 0.38672 0.0
H103 H 0.1068 0.78574 0.32589 0.0
H104 H 0.92118 0.65405 0.31216 0.0
H105 H 0.17302 0.71117 0.30737 0.0
H106 H 0.18687 0.78697 0.30772 0.0
H107 H 0.1685 0.74296 0.28358 0.0
H108 H 0.89181 0.57061 0.28925 0.0
H109 H 0.94576 0.54569 0.28738 0.0
H110 H 0.94072 0.58967 0.2674 0.0
H111 H 0.03973 0.28541 0.30683 0.0
H112 H 0.03191 0.24798 0.35979 0.0
H113 H 0.13378 0.29041 0.33332 0.0
H114 H 0.07651 0.23088 0.32116 0.0
H115 H 0.00936 0.35827 0.30798 0.0
H116 H 0.20272 0.47128 0.31259 0.0
H117 H 0.98024 0.43843 0.27304 0.0
H118 H 0.97548 0.46917 0.29776 0.0
H119 H 0.94634 0.38944 0.29435 0.0
H120 H 0.25284 0.57215 0.30214 0.0
H121 H 0.20807 0.60803 0.30169 0.0
H122 H 0.21853 0.57614 0.27816 0.0
H123 H 0.98545 0.25067 0.16624 0.0
H124 H 0.97013 0.32365 0.17263 0.0
H125 H 0.15528 0.42887 0.15504 0.0
H126 H 0.96649 0.41923 0.20846 0.0
H127 H 0.91812 0.36568 0.18839 0.0
H128 H 0.9487 0.44521 0.18554 0.0
H129 H 0.21417 0.53351 0.16271 0.0
H130 H 0.19535 0.55405 0.18736 0.0
H131 H 0.17122 0.57124 0.16376 0.0
H132 H 0.01054 0.81249 0.17336 0.0
H133 H 0.9346 0.84197 0.16589 0.0
H134 H 0.89953 0.76198 0.16867 0.0
H135 H 0.90747 0.7915 0.14315 0.0
H136 H 0.91277 0.63802 0.15631 0.0
H137 H 0.09393 0.78754 0.16184 0.0
H138 H 0.93029 0.54818 0.19383 0.0
H139 H 0.93649 0.52556 0.16782 0.0
H140 H 0.8817 0.54756 0.17332 0.0
H141 H 0.17474 0.77747 0.1748 0.0
H142 H 0.16197 0.70245 0.1774 0.0
H143 H 0.15044 0.74042 0.19902 0.0
H144 H 0.07994 0.58766 0.30778 0.0
H145 H 0.11256 0.47241 0.25512 0.0
H146 H 0.10391 0.46366 0.21811 0.0
H147 H 0.05332 0.55851 0.16515 0.0
H148 H 0.03959 0.68788 0.21754 0.0
H149 H 0.04623 0.69522 0.25477 0.0
H150 H 0.03983 0.21306 0.18777 0.0
H151 H 0.06501 0.29063 0.19434 0.0
H152 H 0.11151 0.27202 0.17864 0.0
C153 C 0.325 0.92508 0.70478 0.0
C154 C 0.3366 0.97663 0.69086 0.0
C155 C 0.37434 0.9811 0.65622 0.0
C156 C 0.41051 0.04355 0.65453 0.0
C157 C 0.45911 0.06805 0.64097 0.0
C158 C 0.47217 0.02915 0.62912 0.0
C159 C 0.43437 0.96597 0.63036 0.0
C160 C 0.38507 0.9428 0.64362 0.0
C161 C 0.49728 0.13549 0.63968 0.0
C162 C 0.44728 0.92288 0.61831 0.0
C163 C 0.87409 0.21691 0.70291 0.0
C164 C 0.8506 0.16513 0.68661 0.0
C165 C 0.7992 0.16357 0.65464 0.0
C166 C 0.76044 0.10135 0.6514 0.0
C167 C 0.70798 0.07855 0.63878 0.0
C168 C 0.69373 0.11896 0.62951 0.0
C169 C 0.73332 0.18181 0.6326 0.0
C170 C 0.78631 0.20325 0.6448 0.0
C171 C 0.66767 0.01135 0.63544 0.0
C172 C 0.71917 0.22637 0.62335 0.0
C173 C 0.79221 0.12397 0.4975 0.0
C174 C 0.75394 0.06693 0.50518 0.0
C175 C 0.70014 0.05396 0.51484 0.0
C176 C 0.68487 0.09932 0.517 0.0
C177 C 0.7222 0.15609 0.50845 0.0
C178 C 0.77522 0.16741 0.49853 0.0
C179 C 0.66016 0.99212 0.52305 0.0
C180 C 0.70693 0.20518 0.51029 0.0
C181 C 0.20039 0.94623 0.49046 0.0
C182 C 0.26455 -0.00068 0.48803 0.0
C183 C 0.35795 0.99849 0.49504 0.0
C184 C 0.37868 0.95853 0.4977 0.0
C185 C 0.43321 0.97662 0.5085 0.0
C186 C 0.46831 0.03664 0.51645 0.0
C187 C 0.44906 0.07819 0.51289 0.0
C188 C 0.3939 0.05864 0.50223 0.0
C189 C 0.45278 0.93134 0.51174 0.0
C190 C 0.48649 0.14302 0.52055 0.0
C191 C 0.52787 0.05434 0.61676 0.0
C192 C 0.58289 0.07502 0.62749 0.0
C193 C 0.63686 0.09564 0.61697 0.0
C194 C 0.63604 0.09438 0.59503 0.0
C195 C 0.68889 0.11167 0.58391 0.0
C196 C 0.68761 0.11006 0.56234 0.0
C197 C 0.63342 0.09115 0.55103 0.0
C198 C 0.63143 0.08802 0.52908 0.0
C199 C 0.57737 0.07105 0.5183 0.0
C200 C 0.5244 0.05549 0.52888 0.0
C201 C 0.52492 0.05613 0.55084 0.0
C202 C 0.47195 0.0385 0.56198 0.0
C203 C 0.47282 0.03828 0.58357 0.0
C204 C 0.52669 0.05577 0.59485 0.0
C205 C 0.58086 0.07503 0.58396 0.0
C206 C 0.57978 0.07437 0.56193 0.0
C207 C 0.93466 0.18699 0.51028 0.0
C208 C 0.88943 0.12956 0.49794 0.0
O209 O 0.32988 0.95676 0.67026 0.0
O210 O 0.3033 0.97726 0.4854 0.0
O211 O 0.84537 0.13793 0.4888 0.0
O212 O 0.84899 0.18653 0.66732 0.0
H213 H 0.38421 0.01277 0.6944 0.0
H214 H 0.35886 0.91131 0.70179 0.0
H215 H 0.27919 0.88532 0.70166 0.0
H216 H 0.32927 0.9398 0.7214 0.0
H217 H 0.40094 0.07307 0.66393 0.0
H218 H 0.35638 0.89461 0.64495 0.0
H219 H 0.54179 0.1516 0.64755 0.0
H220 H 0.47568 0.15885 0.6472 0.0
H221 H 0.50567 0.14817 0.62322 0.0
H222 H 0.41754 0.87555 0.62274 0.0
H223 H 0.49515 0.93544 0.6209 0.0
H224 H 0.44024 0.92548 0.60147 0.0
H225 H 0.80393 0.1313 0.69121 0.0
H226 H 0.8753 0.20059 0.71856 0.0
H227 H 0.84354 0.23557 0.70329 0.0
H228 H 0.92024 0.25361 0.69928 0.0
H229 H 0.77142 0.0707 0.65866 0.0
H230 H 0.81689 0.25123 0.64734 0.0
H231 H 0.65708 -0.00056 0.61863 0.0
H232 H 0.62428 0.99634 0.64332 0.0
H233 H 0.68867 0.98639 0.64164 0.0
H234 H 0.75079 0.27322 0.62922 0.0
H235 H 0.67224 0.21451 0.62692 0.0
H236 H 0.72229 0.22466 0.60621 0.0
H237 H 0.86892 0.09259 0.50905 0.0
H238 H 0.76599 0.03251 0.50355 0.0
H239 H 0.80474 0.21095 0.49216 0.0
H240 H 0.66226 0.99508 0.54027 0.0
H241 H 0.67414 0.95978 0.51773 0.0
H242 H 0.61238 0.97429 0.51803 0.0
H243 H 0.74169 0.24749 0.50337 0.0
H244 H 0.70257 0.21475 0.52689 0.0
H245 H 0.66266 0.18991 0.50236 0.0
H246 H 0.27633 0.02738 0.5027 0.0
H247 H 0.16829 0.96252 0.49298 0.0
H248 H 0.19916 0.92041 0.50409 0.0
H249 H 0.18536 0.91552 0.47643 0.0
H250 H 0.35101 0.91249 0.49174 0.0
H251 H 0.37922 0.09044 0.49948 0.0
H252 H 0.46049 0.92886 0.52856 0.0
H253 H 0.49626 0.94604 0.50397 0.0
H254 H 0.41885 0.88565 0.50548 0.0
H255 H 0.46796 0.17084 0.51497 0.0
H256 H 0.53371 0.16259 0.51532 0.0
H257 H 0.48799 0.14538 0.53778 0.0
H258 H 0.58367 0.07471 0.64432 0.0
H259 H 0.73183 0.12626 0.59177 0.0
H260 H 0.72975 0.12388 0.55464 0.0
H261 H 0.57625 0.06893 0.50146 0.0
H262 H 0.42908 0.02423 0.55413 0.0
H263 H 0.43071 0.02417 0.59134 0.0
H264 H 0.95636 0.22581 0.49998 0.0
H265 H 0.97028 0.18107 0.51777 0.0
H266 H 0.91096 0.19724 0.52263 0.0
C267 C 0.72558 0.67071 0.76871 0.0
C268 C 0.73824 0.72162 0.78447 0.0
C269 C 0.70214 0.68107 0.81826 0.0
C270 C 0.66526 0.70507 0.82304 0.0
C271 C 0.61717 0.67613 0.83662 0.0
C272 C 0.60596 0.6222 0.84559 0.0
C273 C 0.64495 0.59957 0.84155 0.0
C274 C 0.69315 0.62987 0.82809 0.0
C275 C 0.5777 0.70255 0.84112 0.0
C276 C 0.63466 0.54249 0.85098 0.0
C277 C 0.11255 0.29835 0.83359 0.0
C278 C 0.17257 0.30704 0.82593 0.0
C279 C 0.26916 0.4022 0.8291 0.0
C280 C 0.30673 0.37857 0.83299 0.0
C281 C 0.36518 0.41537 0.84166 0.0
C282 C 0.38619 0.47679 0.84649 0.0
C283 C 0.3497 0.50134 0.84142 0.0
C284 C 0.29174 0.46366 0.8326 0.0
C285 C 0.40377 0.38833 0.8463 0.0
C286 C 0.37107 0.56686 0.84606 0.0
C287 C 0.28926 0.40572 0.97736 0.0
C288 C 0.32913 0.38624 0.97134 0.0
C289 C 0.38388 0.42564 0.96202 0.0
C290 C 0.39882 0.48549 0.95864 0.0
C291 C 0.3601 0.50594 0.96564 0.0
C292 C 0.30596 0.46575 0.97509 0.0
C293 C 0.42505 0.40292 0.95528 0.0
C294 C 0.37496 0.56963 0.96252 0.0
C295 C 0.84506 0.83622 0.95931 0.0
C296 C 0.8093 0.84403 0.97679 0.0
C297 C 0.71898 0.74476 0.97732 0.0
C298 C 0.70805 0.68598 0.97595 0.0
C299 C 0.65497 0.6394 0.96622 0.0
C300 C 0.61158 0.65217 0.95813 0.0
C301 C 0.62083 0.7109 0.96064 0.0
C302 C 0.67457 0.75667 0.97021 0.0
C303 C 0.64596 0.57705 0.96405 0.0
C304 C 0.57435 0.72549 0.95291 0.0
C305 C 0.55158 0.58766 0.85821 0.0
C306 C 0.49666 0.54911 0.84767 0.0
C307 C 0.4438 0.51418 0.85847 0.0
C308 C 0.44564 0.51647 0.88042 0.0
C309 C 0.39357 0.48059 0.89176 0.0
C310 C 0.39576 0.48301 0.91332 0.0
C311 C 0.44989 0.52209 0.92443 0.0
C312 C 0.45242 0.52514 0.94639 0.0
C313 C 0.50604 0.56683 0.95697 0.0
C314 C 0.55783 0.60516 0.94614 0.0
C315 C 0.55704 0.6007 0.9242 0.0
C316 C 0.60909 0.63685 0.91286 0.0
C317 C 0.60759 0.63246 0.89126 0.0
C318 C 0.55384 0.59229 0.88016 0.0
C319 C 0.50076 0.55594 0.89129 0.0
C320 C 0.50263 0.55942 0.91332 0.0
C321 C 0.13423 0.28665 0.9798 0.0
C322 C 0.20094 0.30612 0.98274 0.0
O323 O 0.74633 0.70618 0.80415 0.0
O324 O 0.77263 0.78902 0.9856 0.0
O325 O 0.23437 0.36825 0.98531 0.0
O326 O 0.21097 0.36731 0.82214 0.0
H327 H 0.69782 0.72678 0.7838 0.0
H328 H 0.68289 0.62931 0.77252 0.0
H329 H 0.76258 0.66043 0.76893 0.0
H330 H 0.72036 0.68317 0.75281 0.0
H331 H 0.67395 0.74629 0.81611 0.0
H332 H 0.72265 0.61241 0.82456 0.0
H333 H 0.5319 0.67244 0.83411 0.0
H334 H 0.59622 0.74795 0.83477 0.0
H335 H 0.5727 0.70574 0.85812 0.0
H336 H 0.66831 0.53013 0.84593 0.0
H337 H 0.58861 0.50481 0.84658 0.0
H338 H 0.63732 0.54807 0.86817 0.0
H339 H 0.19142 0.29288 0.83872 0.0
H340 H 0.0811 0.25036 0.83689 0.0
H341 H 0.09091 0.31254 0.82185 0.0
H342 H 0.12057 0.32584 0.84814 0.0
H343 H 0.29044 0.33145 0.82942 0.0
H344 H 0.26276 0.48162 0.82913 0.0
H345 H 0.41028 0.38876 0.86336 0.0
H346 H 0.44915 0.41582 0.83963 0.0
H347 H 0.38311 0.34125 0.84002 0.0
H348 H 0.33819 0.57949 0.84044 0.0
H349 H 0.41507 0.59552 0.83866 0.0
H350 H 0.37833 0.57663 0.86306 0.0
H351 H 0.21393 0.29134 0.96826 0.0
H352 H 0.3176 0.34038 0.97379 0.0
H353 H 0.2753 0.48053 0.98014 0.0
H354 H 0.42532 0.40033 0.93806 0.0
H355 H 0.4105 0.35763 0.9611 0.0
H356 H 0.47212 0.43474 0.96091 0.0
H357 H 0.3396 0.57824 0.96859 0.0
H358 H 0.38006 0.57892 0.94573 0.0
H359 H 0.41875 0.60163 0.9705 0.0
H360 H 0.78135 0.86121 0.97006 0.0
H361 H 0.8749 0.87994 0.95213 0.0
H362 H 0.81348 0.80418 0.94705 0.0
H363 H 0.87322 0.81837 0.96536 0.0
H364 H 0.74226 0.67715 0.98186 0.0
H365 H 0.68158 0.80155 0.97219 0.0
H366 H 0.64197 0.56335 0.94735 0.0
H367 H 0.60311 0.5444 0.97135 0.0
H368 H 0.68378 0.57433 0.97133 0.0
H369 H 0.58608 0.77203 0.95756 0.0
H370 H 0.5293 0.69339 0.95902 0.0
H371 H 0.57061 0.72047 0.93571 0.0
H372 H 0.49496 0.54652 0.83083 0.0
H373 H 0.35048 0.44989 0.8841 0.0
H374 H 0.35423 0.45414 0.92116 0.0
H375 H 0.5072 0.57012 0.9738 0.0
H376 H 0.65169 0.66873 0.92056 0.0
H377 H 0.64901 0.66127 0.88335 0.0
H378 H 0.11788 0.30031 0.99365 0.0
H379 H 0.10621 0.23703 0.97722 0.0
H380 H 0.12822 0.30811 0.96604 0.0
C381 C 0.07485 0.1922 0.11746 0.0
C382 C 0.02542 0.13273 0.11574 0.0
C383 C 0.07664 0.23383 0.1323 0.0
C384 C 0.02852 0.21816 0.14579 0.0
H385 H 0.11321 0.20672 0.1075 0.0
H386 H 0.11628 0.27855 0.13328 0.0
S387 S 0.88922 0.06822 0.14815 0.0
N388 N 0.92756 0.06013 0.12917 0.0
N389 N 0.93088 0.13866 0.15697 0.0
C390 C 0.97899 0.15884 0.14435 0.0
C391 C 0.9773 0.11621 0.12932 0.0
C392 C 0.97683 0.06259 0.47224 0.0
C393 C 0.99347 0.09104 0.45317 0.0
C394 C 0.94183 0.07391 0.48615 0.0
C395 C 0.92187 0.11399 0.48157 0.0
H396 H 0.99191 0.03215 0.47669 0.0
H397 H 0.93137 0.05204 0.50086 0.0
S398 S 0.95311 0.20053 0.43377 0.0
N399 N 0.98652 0.16085 0.43032 0.0
N400 N 0.92185 0.18279 0.45667 0.0
C401 C 0.93768 0.1424 0.46247 0.0
C402 C 0.9729 0.13054 0.44821 0.0
C403 C 0.83526 0.87987 0.76438 0.0
C404 C 0.89391 0.88849 0.76449 0.0
C405 C 0.78599 0.82667 0.77118 0.0
C406 C 0.79343 0.78023 0.77868 0.0
H407 H 0.82687 0.91383 0.75847 0.0
H408 H 0.7415 0.82158 0.77027 0.0
S409 S 0.93852 0.78245 0.78383 0.0
N410 N 0.95727 0.84735 0.77363 0.0
N411 N 0.8647 0.74776 0.78691 0.0
C412 C 0.8522 0.78904 0.77953 0.0
C413 C 0.90236 0.84299 0.7723 0.0
C414 C 0.06178 0.89815 0.10967 0.0
C415 C 0.09336 0.95755 0.11818 0.0
C416 C 0.03136 0.84874 0.1223 0.0
C417 C 0.03229 0.85655 0.14402 0.0
H418 H 0.05756 0.88967 0.09301 0.0
H419 H 0.0049 0.80434 0.11491 0.0
S420 S 0.11289 0.00169 0.17436 0.0
N421 N 0.12723 0.02066 0.14995 0.0
N422 N 0.07031 0.92762 0.17361 0.0
C423 C 0.06644 0.91524 0.15282 0.0
C424 C 0.09718 0.96569 0.13997 0.0
C425 C 0.24465 0.11066 0.4564 0.0
C426 C 0.24379 0.09096 0.43573 0.0
C427 C 0.25539 0.08339 0.47303 0.0
C428 C 0.2659 0.03545 0.46971 0.0
H429 H 0.23376 0.14532 0.45987 0.0
H430 H 0.25239 0.09793 0.48869 0.0
S431 S 0.27414 0.97038 0.41854 0.0
N432 N 0.25971 0.02373 0.41283 0.0
N433 N 0.27853 0.97181 0.44412 0.0
C434 C 0.26865 0.01755 0.4491 0.0
C435 C 0.25828 0.0457 0.43212 0.0
C436 C 0.14181 0.17197 0.7908 0.0
C437 C 0.12848 0.18614 0.7713 0.0
C438 C 0.15805 0.21207 0.80803 0.0
C439 C 0.16189 0.26808 0.80647 0.0
H440 H 0.13854 0.129 0.79294 0.0
H441 H 0.16632 0.19852 0.82285 0.0
S442 S 0.13272 0.32777 0.75893 0.0
N443 N 0.12164 0.2612 0.75139 0.0
N444 N 0.15165 0.33607 0.78384 0.0
C445 C 0.14986 0.28343 0.78699 0.0
C446 C 0.13351 0.24271 0.7694 0.0
C447 C 0.90979 0.06157 0.70041 0.0
C448 C 0.96951 0.09173 0.69335 0.0
C449 C 0.87109 0.08395 0.69717 0.0
C450 C 0.8902 0.13723 0.68662 0.0
H451 H 0.89332 0.02142 0.70925 0.0
H452 H 0.8265 0.06048 0.70369 0.0
S453 S 0.04036 0.23108 0.66355 0.0
N454 N 0.04464 0.17593 0.67413 0.0
N455 N 0.97157 0.21793 0.66804 0.0
C456 C 0.9487 0.16633 0.67854 0.0
C457 C 0.98831 0.14348 0.68184 0.0
C458 C 0.91875 0.91373 0.0237 0.0
C459 C 0.94201 0.97591 0.02197 0.0
C460 C 0.87548 0.87158 0.00943 0.0
C461 C 0.85259 0.88969 0.99306 0.0
H462 H 0.93521 0.89727 0.03586 0.0
H463 H 0.86059 0.82448 0.01107 0.0
S464 S 0.89771 0.04674 0.9816 0.0
N465 N 0.9384 0.05337 0.00254 0.0
N466 N 0.85656 0.97388 0.97583 0.0
C467 C 0.87487 0.95158 0.99126 0.0
C468 C 0.9194 0.99467 0.00571 0.0
C469 C 0.08173 0.92246 0.37892 0.0
C470 C 0.03247 0.93195 0.37816 0.0
C471 C 0.07598 0.86825 0.37153 0.0
C472 C 0.02102 0.82163 0.36278 0.0
H473 H 0.12487 0.95662 0.38576 0.0
H474 H 0.11485 0.86262 0.37289 0.0
S475 S 0.87944 0.82536 0.35587 0.0
N476 N 0.92746 0.89111 0.36732 0.0
N477 N 0.91702 0.78954 0.35293 0.0
C478 C 0.97176 0.83108 0.36143 0.0
C479 C 0.97739 0.8861 0.36925 0.0
C480 C 0.18952 0.97794 0.69839 0.0
C481 C 0.20916 0.03416 0.70855 0.0
C482 C 0.23083 0.96085 0.69195 0.0
C483 C 0.29343 0.99898 0.69563 0.0
H484 H 0.14172 0.94622 0.69572 0.0
H485 H 0.21353 0.91668 0.68457 0.0
S486 S 0.36894 0.15275 0.72017 0.0
N487 N 0.29612 0.1296 0.72073 0.0
N488 N 0.37338 0.09691 0.70895 0.0
C489 C 0.31388 0.05619 0.70504 0.0
C490 C 0.2719 0.07391 0.71141 0.0
C491 C 0.19772 0.18364 0.01519 0.0
C492 C 0.19982 0.20469 0.03576 0.0
C493 C 0.20215 0.21846 0.99832 0.0
C494 C 0.20886 0.27573 0.00129 0.0
H495 H 0.18949 0.13862 0.01202 0.0
H496 H 0.1972 0.19912 0.98277 0.0
S497 S 0.222 0.35402 0.05204 0.0
N498 N 0.21412 0.28891 0.05815 0.0
N499 N 0.22073 0.3534 0.02645 0.0
C500 C 0.21423 0.29871 0.02178 0.0
C501 C 0.21049 0.26357 0.03899 0.0
C502 C 0.00508 0.17096 0.34538 0.0
C503 C 0.07364 0.20283 0.36147 0.0
C504 C 0.97867 0.21849 0.33546 0.0
C505 C 0.03315 0.30088 0.33936 0.0
H506 H 0.97889 0.12296 0.34203 0.0
H507 H 0.94056 0.2008 0.32463 0.0
S508 S 0.18238 0.38236 0.38056 0.0
N509 N 0.16573 0.31023 0.38134 0.0
N510 N 0.1326 0.39008 0.36567 0.0
C511 C 0.09337 0.3323 0.36015 0.0
C512 C 0.11557 0.28186 0.36915 0.0
loop_
_geom_bond_atom_site_label_1
_geom_bond_atom_site_label_2
_geom_bond_distance
_geom_bond_site_symmetry_2
_ccdc_geom_bond_type
C0 O1 1.160 . S
C0 O7 1.185 . S
O1 C0 1.160 . S
O2 Zn3 1.899 . S
O2 C10 1.284 . S
Zn3 O2 1.899 . S
Zn3 O4 2.032 1_445 S
Zn3 O7 2.086 1_545 S
Zn3 O12 1.977 . S
O4 Zn3 2.032 1_665 S
O4 C8 1.278 . S
C5 O6 1.203 . S
C5 O12 1.267 . S
O6 C5 1.203 . S
O7 C0 1.185 . S
O7 Zn3 2.086 1_565 S
C8 O4 1.278 . S
C8 O9 1.211 1_565 S
O9 C8 1.211 1_545 S
C10 O2 1.284 . S
C10 O11 1.273 1_455 S
O11 C10 1.273 1_655 S
O12 Zn3 1.977 . S
O12 C5 1.267 . S
C13 O14 1.160 . S
C13 O20 1.185 . S
O14 C13 1.160 . S
O15 Zn16 1.899 . S
O15 C23 1.284 1_545 S
Zn16 O15 1.899 . S
Zn16 O17 2.032 . S
Zn16 O20 2.086 . S
Zn16 O25 1.977 . S
O17 Zn16 2.032 . S
O17 C21 1.278 . S
C18 O19 1.203 . S
C18 O25 1.267 . S
O19 C18 1.203 . S
O20 C13 1.185 . S
O20 Zn16 2.086 . S
C21 O17 1.278 . S
C21 O22 1.213 . S
O22 C21 1.213 . S
C23 O15 1.284 1_565 S
C23 O24 1.273 . S
O24 C23 1.273 . S
O25 Zn16 1.977 . S
O25 C18 1.267 . S
C26 O27 1.160 . S
C26 O33 1.185 1_545 S
O27 C26 1.160 . S
O28 Zn29 1.899 1_655 S
O28 C36 1.284 . S
Zn29 O28 1.899 1_455 S
Zn29 O30 2.032 . S
Zn29 O33 2.086 1_545 S
Zn29 O38 1.977 1_545 S
O30 Zn29 2.032 . S
O30 C34 1.278 . S
C31 O32 1.203 . S
C31 O38 1.267 1_655 S
O32 C31 1.203 . S
O33 C26 1.185 1_565 S
O33 Zn29 2.086 1_565 S
C34 O30 1.278 . S
C34 O35 1.211 . S
O35 C34 1.211 . S
C36 O28 1.284 . S
C36 O37 1.273 . S
O37 C36 1.273 . S
O38 Zn29 1.977 1_565 S
O38 C31 1.267 1_455 S
C39 C40 1.560 1_655 S
C39 H100 0.959 . S
C39 H101 0.959 . S
C39 H102 0.960 . S
C40 C39 1.560 1_455 S
C40 O95 1.426 1_455 S
C40 H99 0.980 . S
C41 C42 1.407 . S
C41 C46 1.418 1_455 S
C41 O95 1.334 1_455 S
C42 C41 1.407 . S
C42 C43 1.360 . S
C42 H103 0.929 . S
C43 C42 1.360 . S
C43 C44 1.401 . S
C43 C47 1.527 . S
C44 C43 1.401 . S
C44 C45 1.405 1_455 S
C44 C77 1.587 . S
C45 C44 1.405 1_655 S
C45 C46 1.332 . S
C45 C48 1.496 . S
C46 C41 1.418 1_655 S
C46 C45 1.332 . S
C46 H104 0.929 . S
C47 C43 1.527 . S
C47 H105 0.959 . S
C47 H106 0.961 . S
C47 H107 0.961 . S
C48 C45 1.496 . S
C48 H108 0.960 . S
C48 H109 0.960 . S
C48 H110 0.961 . S
C49 C50 1.517 . S
C49 H112 0.961 . S
C49 H113 0.960 . S
C49 H114 0.959 . S
C50 C49 1.517 . S
C50 O98 1.468 . S
C50 H111 0.980 . S
C51 C52 1.349 . S
C51 C56 1.367 . S
C51 O98 1.408 . S
C52 C51 1.349 . S
C52 C53 1.407 . S
C52 H115 0.930 . S
C53 C52 1.407 . S
C53 C54 1.449 . S
C53 C57 1.535 1_455 S
C54 C53 1.449 . S
C54 C55 1.384 . S
C54 C79 1.553 . S
C55 C54 1.384 . S
C55 C56 1.364 . S
C55 C58 1.450 . S
C56 C51 1.367 . S
C56 C55 1.364 . S
C56 H116 0.931 . S
C57 C53 1.535 1_655 S
C57 H117 0.959 . S
C57 H118 0.961 . S
C57 H119 0.959 . S
C58 C55 1.450 . S
C58 H120 0.960 . S
C58 H121 0.960 . S
C58 H122 0.960 . S
C59 C60 1.309 . S
C59 C64 1.304 . S
C59 O97 1.435 . S
C60 C59 1.309 . S
C60 C61 1.476 . S
C60 H124 0.930 1_455 S
C61 C60 1.476 . S
C61 C62 1.400 . S
C61 C65 1.567 1_455 S
C62 C61 1.400 . S
C62 C63 1.373 . S
C62 C84 1.432 . S
C63 C62 1.373 . S
C63 C64 1.339 . S
C63 C66 1.530 . S
C64 C59 1.304 . S
C64 C63 1.339 . S
C64 H125 0.930 . S
C65 C61 1.567 1_655 S
C65 H126 0.961 . S
C65 H127 0.960 . S
C65 H128 0.958 . S
C66 C63 1.530 . S
C66 H129 0.961 . S
C66 H130 0.960 . S
C66 H131 0.960 . S
C67 C68 1.530 1_655 S
C67 H133 0.961 . S
C67 H134 0.961 . S
C67 H135 0.959 . S
C68 C67 1.530 1_455 S
C68 O96 1.412 1_455 S
C68 H132 0.980 . S
C69 C70 1.288 . S
C69 C74 1.377 1_655 S
C69 O96 1.393 . S
C70 C69 1.288 . S
C70 C71 1.369 . S
C70 H136 0.932 . S
C71 C70 1.369 . S
C71 C72 1.398 1_655 S
C71 C75 1.527 . S
C72 C71 1.398 1_455 S
C72 C73 1.380 . S
C72 C86 1.497 . S
C73 C72 1.380 . S
C73 C74 1.383 . S
C73 C76 1.603 . S
C74 C69 1.377 1_455 S
C74 C73 1.383 . S
C74 H137 0.929 . S
C75 C71 1.527 . S
C75 H138 0.961 . S
C75 H139 0.959 . S
C75 H140 0.959 . S
C76 C73 1.603 . S
C76 H141 0.960 . S
C76 H142 0.962 . S
C76 H143 0.961 . S
C77 C44 1.587 . S
C77 C78 1.360 . S
C77 C90 1.412 . S
C78 C77 1.360 . S
C78 C79 1.365 . S
C78 H144 0.929 . S
C79 C54 1.553 . S
C79 C78 1.365 . S
C79 C80 1.404 . S
C80 C79 1.404 . S
C80 C81 1.395 . S
C80 C91 1.451 . S
C81 C80 1.395 . S
C81 C82 1.322 . S
C81 H145 0.930 . S
C82 C81 1.322 . S
C82 C83 1.459 . S
C82 H146 0.929 . S
C83 C82 1.459 . S
C83 C84 1.445 . S
C83 C92 1.395 . S
C84 C62 1.432 . S
C84 C83 1.445 . S
C84 C85 1.370 . S
C85 C84 1.370 . S
C85 C86 1.438 . S
C85 H147 0.930 . S
C86 C72 1.497 . S
C86 C85 1.438 . S
C86 C87 1.360 . S
C87 C86 1.360 . S
C87 C88 1.401 . S
C87 C92 1.446 . S
C88 C87 1.401 . S
C88 C89 1.347 . S
C88 H148 0.929 . S
C89 C88 1.347 . S
C89 C90 1.455 . S
C89 H149 0.930 . S
C90 C77 1.412 . S
C90 C89 1.455 . S
C90 C91 1.331 . S
C91 C80 1.451 . S
C91 C90 1.331 . S
C91 C92 1.497 . S
C92 C83 1.395 . S
C92 C87 1.446 . S
C92 C91 1.497 . S
C93 C94 1.582 . S
C93 H150 0.962 . S
C93 H151 0.959 . S
C93 H152 0.958 . S
C94 C93 1.582 . S
C94 O97 1.458 . S
C94 H123 0.980 . S
O95 C40 1.426 1_655 S
O95 C41 1.334 1_655 S
O96 C68 1.412 1_655 S
O96 C69 1.393 . S
O97 C59 1.435 . S
O97 C94 1.458 . S
O98 C50 1.468 . S
O98 C51 1.408 . S
H99 C40 0.980 . S
H100 C39 0.959 . S
H101 C39 0.959 . S
H102 C39 0.960 . S
H103 C42 0.929 . S
H104 C46 0.929 . S
H105 C47 0.959 . S
H106 C47 0.961 . S
H107 C47 0.961 . S
H108 C48 0.960 . S
H109 C48 0.960 . S
H110 C48 0.961 . S
H111 C50 0.980 . S
H112 C49 0.961 . S
H113 C49 0.960 . S
H114 C49 0.959 . S
H115 C52 0.930 . S
H116 C56 0.931 . S
H117 C57 0.959 . S
H118 C57 0.961 . S
H119 C57 0.959 . S
H120 C58 0.960 . S
H121 C58 0.960 . S
H122 C58 0.960 . S
H123 C94 0.980 . S
H124 C60 0.930 1_655 S
H125 C64 0.930 . S
H126 C65 0.961 . S
H127 C65 0.960 . S
H128 C65 0.958 . S
H129 C66 0.961 . S
H130 C66 0.960 . S
H131 C66 0.960 . S
H132 C68 0.980 . S
H133 C67 0.961 . S
H134 C67 0.961 . S
H135 C67 0.959 . S
H136 C70 0.932 . S
H137 C74 0.929 . S
H138 C75 0.961 . S
H139 C75 0.959 . S
H140 C75 0.959 . S
H141 C76 0.960 . S
H142 C76 0.962 . S
H143 C76 0.961 . S
H144 C78 0.929 . S
H145 C81 0.930 . S
H146 C82 0.929 . S
H147 C85 0.930 . S
H148 C88 0.929 . S
H149 C89 0.930 . S
H150 C93 0.962 . S
H151 C93 0.959 . S
H152 C93 0.958 . S
C153 C154 1.560 1_565 S
C153 H214 0.959 . S
C153 H215 0.959 . S
C153 H216 0.960 . S
C154 C153 1.560 1_545 S
C154 O209 1.426 1_545 S
C154 H213 0.980 . S
C155 C156 1.407 . S
C155 C160 1.418 1_545 S
C155 O209 1.334 1_545 S
C156 C155 1.407 . S
C156 C157 1.360 . S
C156 H217 0.929 . S
C157 C156 1.360 . S
C157 C158 1.401 . S
C157 C161 1.527 . S
C158 C157 1.401 . S
C158 C159 1.405 1_545 S
C158 C191 1.587 . S
C159 C158 1.405 1_565 S
C159 C160 1.332 . S
C159 C162 1.496 . S
C160 C155 1.418 1_565 S
C160 C159 1.332 . S
C160 H218 0.929 . S
C161 C157 1.527 . S
C161 H219 0.959 . S
C161 H220 0.961 . S
C161 H221 0.961 . S
C162 C159 1.496 . S
C162 H222 0.960 . S
C162 H223 0.960 . S
C162 H224 0.961 . S
C163 C164 1.517 . S
C163 H226 0.961 . S
C163 H227 0.960 . S
C163 H228 0.959 . S
C164 C163 1.517 . S
C164 O212 1.468 . S
C164 H225 0.980 . S
C165 C166 1.349 . S
C165 C170 1.367 . S
C165 O212 1.408 . S
C166 C165 1.349 . S
C166 C167 1.407 . S
C166 H229 0.930 . S
C167 C166 1.407 . S
C167 C168 1.449 . S
C167 C171 1.535 1_545 S
C168 C167 1.449 . S
C168 C169 1.384 . S
C168 C193 1.553 . S
C169 C168 1.384 . S
C169 C170 1.364 . S
C169 C172 1.450 . S
C170 C165 1.367 . S
C170 C169 1.364 . S
C170 H230 0.931 . S
C171 C167 1.535 1_565 S
C171 H231 0.959 . S
C171 H232 0.961 . S
C171 H233 0.959 . S
C172 C169 1.450 . S
C172 H234 0.960 . S
C172 H235 0.960 . S
C172 H236 0.960 . S
C173 C174 1.309 . S
C173 C178 1.304 . S
C173 O211 1.435 . S
C174 C173 1.309 . S
C174 C175 1.476 . S
C174 H238 0.930 . S
C175 C174 1.476 . S
C175 C176 1.400 . S
C175 C179 1.567 1_545 S
C176 C175 1.400 . S
C176 C177 1.373 . S
C176 C198 1.432 . S
C177 C176 1.373 . S
C177 C178 1.339 . S
C177 C180 1.530 . S
C178 C173 1.304 . S
C178 C177 1.339 . S
C178 H239 0.930 . S
C179 C175 1.567 1_565 S
C179 H240 0.961 . S
C179 H241 0.960 . S
C179 H242 0.958 . S
C180 C177 1.530 . S
C180 H243 0.961 . S
C180 H244 0.960 . S
C180 H245 0.960 . S
C181 C182 1.530 . S
C181 H247 0.961 . S
C181 H248 0.961 1_545 S
C181 H249 0.959 1_545 S
C182 C181 1.530 . S
C182 O210 1.412 . S
C182 H246 0.980 . S
C183 C184 1.288 1_545 S
C183 C188 1.377 . S
C183 O210 1.393 . S
C184 C183 1.288 1_565 S
C184 C185 1.369 . S
C184 H250 0.932 . S
C185 C184 1.369 . S
C185 C186 1.398 1_565 S
C185 C189 1.527 . S
C186 C185 1.398 1_545 S
C186 C187 1.380 . S
C186 C200 1.497 . S
C187 C186 1.380 . S
C187 C188 1.383 . S
C187 C190 1.603 . S
C188 C183 1.377 . S
C188 C187 1.383 . S
C188 H251 0.929 . S
C189 C185 1.527 . S
C189 H252 0.961 . S
C189 H253 0.959 . S
C189 H254 0.959 . S
C190 C187 1.603 . S
C190 H255 0.960 . S
C190 H256 0.962 . S
C190 H257 0.961 . S
C191 C158 1.587 . S
C191 C192 1.360 . S
C191 C204 1.412 . S
C192 C191 1.360 . S
C192 C193 1.365 . S
C192 H258 0.929 . S
C193 C168 1.553 . S
C193 C192 1.365 . S
C193 C194 1.404 . S
C194 C193 1.404 . S
C194 C195 1.395 . S
C194 C205 1.451 . S
C195 C194 1.395 . S
C195 C196 1.322 . S
C195 H259 0.930 . S
C196 C195 1.322 . S
C196 C197 1.459 . S
C196 H260 0.929 . S
C197 C196 1.459 . S
C197 C198 1.445 . S
C197 C206 1.395 . S
C198 C176 1.432 . S
C198 C197 1.445 . S
C198 C199 1.370 . S
C199 C198 1.370 . S
C199 C200 1.438 . S
C199 H261 0.930 . S
C200 C186 1.497 . S
C200 C199 1.438 . S
C200 C201 1.360 . S
C201 C200 1.360 . S
C201 C202 1.401 . S
C201 C206 1.446 . S
C202 C201 1.401 . S
C202 C203 1.347 . S
C202 H262 0.929 . S
C203 C202 1.347 . S
C203 C204 1.455 . S
C203 H263 0.930 . S
C204 C191 1.412 . S
C204 C203 1.455 . S
C204 C205 1.331 . S
C205 C194 1.451 . S
C205 C204 1.331 . S
C205 C206 1.497 . S
C206 C197 1.395 . S
C206 C201 1.446 . S
C206 C205 1.497 . S
C207 C208 1.582 . S
C207 H264 0.962 . S
C207 H265 0.959 . S
C207 H266 0.958 . S
C208 C207 1.582 . S
C208 O211 1.458 . S
C208 H237 0.980 . S
O209 C154 1.426 1_565 S
O209 C155 1.334 1_565 S
O210 C182 1.412 . S
O210 C183 1.393 . S
O211 C173 1.435 . S
O211 C208 1.458 . S
O212 C164 1.468 . S
O212 C165 1.408 . S
H213 C154 0.980 . S
H214 C153 0.959 . S
H215 C153 0.959 . S
H216 C153 0.960 . S
H217 C156 0.929 . S
H218 C160 0.929 . S
H219 C161 0.959 . S
H220 C161 0.961 . S
H221 C161 0.961 . S
H222 C162 0.960 . S
H223 C162 0.960 . S
H224 C162 0.961 . S
H225 C164 0.980 . S
H226 C163 0.961 . S
H227 C163 0.960 . S
H228 C163 0.959 . S
H229 C166 0.930 . S
H230 C170 0.931 . S
H231 C171 0.959 . S
H232 C171 0.961 . S
H233 C171 0.959 . S
H234 C172 0.960 . S
H235 C172 0.960 . S
H236 C172 0.960 . S
H237 C208 0.980 . S
H238 C174 0.930 . S
H239 C178 0.930 . S
H240 C179 0.961 . S
H241 C179 0.960 . S
H242 C179 0.958 . S
H243 C180 0.961 . S
H244 C180 0.960 . S
H245 C180 0.960 . S
H246 C182 0.980 . S
H247 C181 0.961 . S
H248 C181 0.961 1_565 S
H249 C181 0.959 1_565 S
H250 C184 0.932 . S
H251 C188 0.929 . S
H252 C189 0.961 . S
H253 C189 0.959 . S
H254 C189 0.959 . S
H255 C190 0.960 . S
H256 C190 0.962 . S
H257 C190 0.961 . S
H258 C192 0.929 . S
H259 C195 0.930 . S
H260 C196 0.929 . S
H261 C199 0.930 . S
H262 C202 0.929 . S
H263 C203 0.930 . S
H264 C207 0.962 . S
H265 C207 0.959 . S
H266 C207 0.958 . S
C267 C268 1.560 . S
C267 H328 0.959 . S
C267 H329 0.959 . S
C267 H330 0.960 . S
C268 C267 1.560 . S
C268 O323 1.426 . S
C268 H327 0.980 . S
C269 C270 1.407 . S
C269 C274 1.418 . S
C269 O323 1.334 . S
C270 C269 1.407 . S
C270 C271 1.360 . S
C270 H331 0.929 . S
C271 C270 1.360 . S
C271 C272 1.401 . S
C271 C275 1.527 . S
C272 C271 1.401 . S
C272 C273 1.405 . S
C272 C305 1.587 . S
C273 C272 1.405 . S
C273 C274 1.332 . S
C273 C276 1.496 . S
C274 C269 1.418 . S
C274 C273 1.332 . S
C274 H332 0.929 . S
C275 C271 1.527 . S
C275 H333 0.959 . S
C275 H334 0.961 . S
C275 H335 0.961 . S
C276 C273 1.496 . S
C276 H336 0.960 . S
C276 H337 0.960 . S
C276 H338 0.961 . S
C277 C278 1.517 . S
C277 H340 0.961 . S
C277 H341 0.960 . S
C277 H342 0.959 . S
C278 C277 1.517 . S
C278 O326 1.468 . S
C278 H339 0.980 . S
C279 C280 1.349 . S
C279 C284 1.367 . S
C279 O326 1.408 . S
C280 C279 1.349 . S
C280 C281 1.407 . S
C280 H343 0.930 . S
C281 C280 1.407 . S
C281 C282 1.449 . S
C281 C285 1.535 . S
C282 C281 1.449 . S
C282 C283 1.384 . S
C282 C307 1.553 . S
C283 C282 1.384 . S
C283 C284 1.364 . S
C283 C286 1.450 . S
C284 C279 1.367 . S
C284 C283 1.364 . S
C284 H344 0.931 . S
C285 C281 1.535 . S
C285 H345 0.959 . S
C285 H346 0.961 . S
C285 H347 0.959 . S
C286 C283 1.450 . S
C286 H348 0.960 . S
C286 H349 0.960 . S
C286 H350 0.960 . S
C287 C288 1.309 . S
C287 C292 1.304 . S
C287 O325 1.435 . S
C288 C287 1.309 . S
C288 C289 1.476 . S
C288 H352 0.930 . S
C289 C288 1.476 . S
C289 C290 1.400 . S
C289 C293 1.567 . S
C290 C289 1.400 . S
C290 C291 1.373 . S
C290 C312 1.432 . S
C291 C290 1.373 . S
C291 C292 1.339 . S
C291 C294 1.530 . S
C292 C287 1.304 . S
C292 C291 1.339 . S
C292 H353 0.930 . S
C293 C289 1.567 . S
C293 H354 0.961 . S
C293 H355 0.960 . S
C293 H356 0.958 . S
C294 C291 1.530 . S
C294 H357 0.961 . S
C294 H358 0.960 . S
C294 H359 0.960 . S
C295 C296 1.520 1_554 S
C295 H361 0.961 . S
C295 H362 0.961 1_554 S
C295 H363 0.959 . S
C296 C295 1.520 1_556 S
C296 O324 1.419 . S
C296 H360 1.017 . S
C297 C298 1.288 . S
C297 C302 1.377 . S
C297 O324 1.393 . S
C298 C297 1.288 . S
C298 C299 1.369 . S
C298 H364 0.932 . S
C299 C298 1.369 . S
C299 C300 1.398 . S
C299 C303 1.527 . S
C300 C299 1.398 . S
C300 C301 1.380 . S
C300 C314 1.497 . S
C301 C300 1.380 . S
C301 C302 1.383 . S
C301 C304 1.603 . S
C302 C297 1.377 . S
C302 C301 1.383 . S
C302 H365 0.929 . S
C303 C299 1.527 . S
C303 H366 0.961 . S
C303 H367 0.959 . S
C303 H368 0.959 . S
C304 C301 1.603 . S
C304 H369 0.960 . S
C304 H370 0.962 . S
C304 H371 0.961 . S
C305 C272 1.587 . S
C305 C306 1.360 . S
C305 C318 1.412 . S
C306 C305 1.360 . S
C306 C307 1.365 . S
C306 H372 0.929 . S
C307 C282 1.553 . S
C307 C306 1.365 . S
C307 C308 1.404 . S
C308 C307 1.404 . S
C308 C309 1.395 . S
C308 C319 1.451 . S
C309 C308 1.395 . S
C309 C310 1.322 . S
C309 H373 0.930 . S
C310 C309 1.322 . S
C310 C311 1.459 . S
C310 H374 0.929 . S
C311 C310 1.459 . S
C311 C312 1.445 . S
C311 C320 1.395 . S
C312 C290 1.432 . S
C312 C311 1.445 . S
C312 C313 1.370 . S
C313 C312 1.370 . S
C313 C314 1.438 . S
C313 H375 0.930 . S
C314 C300 1.497 . S
C314 C313 1.438 . S
C314 C315 1.360 . S
C315 C314 1.360 . S
C315 C316 1.401 . S
C315 C320 1.446 . S
C316 C315 1.401 . S
C316 C317 1.347 . S
C316 H376 0.929 . S
C317 C316 1.347 . S
C317 C318 1.455 . S
C317 H377 0.930 . S
C318 C305 1.412 . S
C318 C317 1.455 . S
C318 C319 1.331 . S
C319 C308 1.451 . S
C319 C318 1.331 . S
C319 C320 1.497 . S
C320 C311 1.395 . S
C320 C315 1.446 . S
C320 C319 1.497 . S
C321 C322 1.582 1_554 S
C321 H378 0.962 . S
C321 H379 0.959 1_554 S
C321 H380 0.958 . S
C322 C321 1.582 1_556 S
C322 O325 1.458 . S
C322 H351 0.980 . S
O323 C268 1.426 . S
O323 C269 1.334 . S
O324 C296 1.419 . S
O324 C297 1.393 . S
O325 C287 1.435 . S
O325 C322 1.458 . S
O326 C278 1.468 . S
O326 C279 1.408 . S
H327 C268 0.980 . S
H328 C267 0.959 . S
H329 C267 0.959 . S
H330 C267 0.960 . S
H331 C270 0.929 . S
H332 C274 0.929 . S
H333 C275 0.959 . S
H334 C275 0.961 . S
H335 C275 0.961 . S
H336 C276 0.960 . S
H337 C276 0.960 . S
H338 C276 0.961 . S
H339 C278 0.980 . S
H340 C277 0.961 . S
H341 C277 0.960 . S
H342 C277 0.959 . S
H343 C280 0.930 . S
H344 C284 0.931 . S
H345 C285 0.959 . S
H346 C285 0.961 . S
H347 C285 0.959 . S
H348 C286 0.960 . S
H349 C286 0.960 . S
H350 C286 0.960 . S
H351 C322 0.980 . S
H352 C288 0.930 . S
H353 C292 0.930 . S
H354 C293 0.961 . S
H355 C293 0.960 . S
H356 C293 0.958 . S
H357 C294 0.961 . S
H358 C294 0.960 . S
H359 C294 0.960 . S
H360 C296 1.017 . S
H361 C295 0.961 . S
H362 C295 0.961 1_556 S
H363 C295 0.959 . S
H364 C298 0.932 . S
H365 C302 0.929 . S
H366 C303 0.961 . S
H367 C303 0.959 . S
H368 C303 0.959 . S
H369 C304 0.960 . S
H370 C304 0.962 . S
H371 C304 0.961 . S
H372 C306 0.929 . S
H373 C309 0.930 . S
H374 C310 0.929 . S
H375 C313 0.930 . S
H376 C316 0.929 . S
H377 C317 0.930 . S
H378 C321 0.962 . S
H379 C321 0.959 1_556 S
H380 C321 0.958 . S
C381 C382 1.369 . S
C381 C383 1.419 . S
C381 H385 0.930 . S
C382 C381 1.369 . S
C382 C391 1.429 1_455 S
C383 C381 1.419 . S
C383 C384 1.363 . S
C383 H386 0.929 . S
C384 C383 1.363 . S
C384 C390 1.428 1_455 S
H385 C381 0.930 . S
H386 C383 0.929 . S
S387 N388 1.613 . S
S387 N389 1.610 . S
N388 S387 1.613 . S
N388 C391 1.350 . S
N389 S387 1.610 . S
N389 C390 1.351 . S
C390 C384 1.428 1_655 S
C390 N389 1.351 . S
C390 C391 1.434 . S
C391 C382 1.429 1_655 S
C391 N388 1.350 . S
C391 C390 1.434 . S
C392 C393 1.369 . S
C392 C394 1.419 . S
C392 H396 0.930 . S
C393 C392 1.369 . S
C393 C402 1.429 . S
C394 C392 1.419 . S
C394 C395 1.363 . S
C394 H397 0.929 . S
C395 C394 1.363 . S
C395 C401 1.428 . S
H396 C392 0.930 . S
H397 C394 0.929 . S
S398 N399 1.613 . S
S398 N400 1.610 . S
N399 S398 1.613 . S
N399 C402 1.350 . S
N400 S398 1.610 . S
N400 C401 1.351 . S
C401 C395 1.428 . S
C401 N400 1.351 . S
C401 C402 1.434 . S
C402 C393 1.429 . S
C402 N399 1.350 . S
C402 C401 1.434 . S
C403 C404 1.369 . S
C403 C405 1.419 . S
C403 H407 0.930 . S
C404 C403 1.369 . S
C404 C413 1.429 . S
C405 C403 1.419 . S
C405 C406 1.363 . S
C405 H408 0.929 . S
C406 C405 1.363 . S
C406 C412 1.428 . S
H407 C403 0.930 . S
H408 C405 0.929 . S
S409 N410 1.613 . S
S409 N411 1.610 . S
N410 S409 1.613 . S
N410 C413 1.350 . S
N411 S409 1.610 . S
N411 C412 1.351 . S
C412 C406 1.428 . S
C412 N411 1.351 . S
C412 C413 1.434 . S
C413 C404 1.429 . S
C413 N410 1.350 . S
C413 C412 1.434 . S
C414 C415 1.369 . S
C414 C416 1.419 . S
C414 H418 0.930 . S
C415 C414 1.369 . S
C415 C424 1.429 . S
C416 C414 1.419 . S
C416 C417 1.363 . S
C416 H419 0.929 . S
C417 C416 1.363 . S
C417 C423 1.428 . S
H418 C414 0.930 . S
H419 C416 0.929 . S
S420 N421 1.613 1_655 S
S420 N422 1.610 . S
N421 S420 1.613 1_455 S
N421 C424 1.350 . S
N422 S420 1.610 . S
N422 C423 1.351 1_655 S
C423 C417 1.428 . S
C423 N422 1.351 1_455 S
C423 C424 1.434 . S
C424 C415 1.429 . S
C424 N421 1.350 . S
C424 C423 1.434 . S
C425 C426 1.369 . S
C425 C427 1.419 . S
C425 H429 0.930 . S
C426 C425 1.369 . S
C426 C435 1.429 . S
C427 C425 1.419 . S
C427 C428 1.363 . S
C427 H430 0.929 . S
C428 C427 1.363 . S
C428 C434 1.428 . S
H429 C425 0.930 . S
H430 C427 0.929 . S
S431 N432 1.613 . S
S431 N433 1.610 . S
N432 S431 1.613 . S
N432 C435 1.350 . S
N433 S431 1.610 . S
N433 C434 1.351 . S
C434 C428 1.428 . S
C434 N433 1.351 . S
C434 C435 1.434 . S
C435 C426 1.429 . S
C435 N432 1.350 . S
C435 C434 1.434 . S
C436 C437 1.369 . S
C436 C438 1.419 . S
C436 H440 0.930 . S
C437 C436 1.369 . S
C437 C446 1.429 . S
C438 C436 1.419 . S
C438 C439 1.363 . S
C438 H441 0.929 . S
C439 C438 1.363 . S
C439 C445 1.428 . S
H440 C436 0.930 . S
H441 C438 0.929 . S
S442 N443 1.613 . S
S442 N444 1.610 . S
N443 S442 1.613 . S
N443 C446 1.350 . S
N444 S442 1.610 . S
N444 C445 1.351 . S
C445 C439 1.428 . S
C445 N444 1.351 . S
C445 C446 1.434 . S
C446 C437 1.429 . S
C446 N443 1.350 . S
C446 C445 1.434 . S
C447 C448 1.369 . S
C447 C449 1.419 . S
C447 H451 0.935 . S
C448 C447 1.369 . S
C448 C457 1.429 . S
C449 C447 1.419 . S
C449 C450 1.363 . S
C449 H452 0.929 1_545 S
C450 C449 1.363 . S
C450 C456 1.428 . S
H451 C447 0.935 . S
H452 C449 0.929 1_565 S
S453 N454 1.613 . S
S453 N455 1.610 1_455 S
N454 S453 1.613 . S
N454 C457 1.350 1_455 S
N455 S453 1.610 1_655 S
N455 C456 1.351 . S
C456 C450 1.428 . S
C456 N455 1.351 . S
C456 C457 1.434 . S
C457 C448 1.429 . S
C457 N454 1.350 1_655 S
C457 C456 1.434 . S
C458 C459 1.369 . S
C458 C460 1.419 . S
C458 H462 0.930 . S
C459 C458 1.369 . S
C459 C468 1.429 . S
C460 C458 1.419 . S
C460 C461 1.363 . S
C460 H463 0.929 . S
C461 C460 1.363 . S
C461 C467 1.428 . S
H462 C458 0.930 . S
H463 C460 0.929 . S
S464 N465 1.613 1_556 S
S464 N466 1.610 1_545 S
N465 S464 1.613 1_554 S
N465 C468 1.350 1_545 S
N466 S464 1.610 1_565 S
N466 C467 1.351 1_556 S
C467 C461 1.428 . S
C467 N466 1.351 1_554 S
C467 C468 1.434 . S
C468 C459 1.429 . S
C468 N465 1.350 1_565 S
C468 C467 1.434 . S
C469 C470 1.369 . S
C469 C471 1.419 . S
C469 H473 0.930 . S
C470 C469 1.369 . S
C470 C479 1.432 . S
C471 C469 1.419 . S
C471 C472 1.363 . S
C471 H474 0.929 . S
C472 C471 1.363 . S
C472 C478 1.428 1_455 S
H473 C469 0.930 . S
H474 C471 0.929 . S
S475 N476 1.613 . S
S475 N477 1.610 . S
N476 S475 1.613 . S
N476 C479 1.342 1_655 S
N477 S475 1.610 . S
N477 C478 1.351 . S
C478 C472 1.428 1_655 S
C478 N477 1.351 . S
C478 C479 1.438 1_655 S
C479 C470 1.432 . S
C479 N476 1.342 1_455 S
C479 C478 1.438 1_455 S
C480 C481 1.369 1_565 S
C480 C482 1.419 . S
C480 H484 0.930 . S
C481 C480 1.369 1_545 S
C481 C490 1.429 . S
C482 C480 1.419 . S
C482 C483 1.363 1_565 S
C482 H485 0.929 . S
C483 C482 1.363 1_545 S
C483 C489 1.428 . S
H484 C480 0.930 . S
H485 C482 0.929 . S
S486 N487 1.613 . S
S486 N488 1.610 . S
N487 S486 1.613 . S
N487 C490 1.350 . S
N488 S486 1.610 . S
N488 C489 1.351 . S
C489 C483 1.428 . S
C489 N488 1.351 . S
C489 C490 1.434 . S
C490 C481 1.429 . S
C490 N487 1.350 . S
C490 C489 1.434 . S
C491 C492 1.369 . S
C491 C493 1.383 1_554 S
C491 H495 0.930 . S
C492 C491 1.369 . S
C492 C501 1.429 . S
C493 C491 1.383 1_556 S
C493 C494 1.351 1_556 S
C493 H496 0.981 . S
C494 C493 1.351 1_554 S
C494 C500 1.428 . S
H495 C491 0.930 . S
H496 C493 0.981 . S
S497 N498 1.613 . S
S497 N499 1.610 . S
N498 S497 1.613 . S
N498 C501 1.350 . S
N499 S497 1.610 . S
N499 C500 1.351 . S
C500 C494 1.428 . S
C500 N499 1.351 . S
C500 C501 1.434 . S
C501 C492 1.429 . S
C501 N498 1.350 . S
C501 C500 1.434 . S
C502 C503 1.369 . S
C502 C504 1.419 . S
C502 H506 0.930 . S
C503 C502 1.369 . S
C503 C512 1.429 . S
C504 C502 1.419 . S
C504 C505 1.363 . S
C504 H507 0.919 1_455 S
C505 C504 1.363 . S
C505 C511 1.428 . S
H506 C502 0.930 . S
H507 C504 0.919 1_655 S
S508 N509 1.613 . S
S508 N510 1.610 . S
N509 S508 1.613 . S
N509 C512 1.350 . S
N510 S508 1.610 . S
N510 C511 1.351 . S
C511 C505 1.428 . S
C511 N510 1.351 . S
C511 C512 1.434 . S
C512 C503 1.429 . S
C512 N509 1.350 . S
C512 C511 1.434 . S
C384 C94 1.095 . S
C382 C10 1.500 . S
C393 C21 1.517 1_655 S
C395 C208 1.161 . S
C404 C31 1.269 . S
C406 C268 1.013 . S
C415 C0 1.356 . S
C417 C68 1.147 . S
C428 C182 1.145 . S
C426 C18 1.339 . S
C437 C34 1.405 . S
C439 C278 0.899 . S
C450 C164 0.803 . S
C448 C36 1.423 . S
C459 C8 1.392 . S
C461 C296 1.031 1_554 S
C472 C40 1.060 . S
C470 C23 1.300 . S
C483 C154 1.007 . S
C481 C26 1.210 . S
C494 C322 1.244 1_554 S
C492 C5 1.448 . S
C503 C13 1.376 . S
C505 C50 0.771 . S
