# Generated by pormake.
# Topology pth, (4,4)-cn, num edge types: 1
# Building blocks:
#     Node 0, Type 0, BuildingBlock: QUQFOY_clean_sbu_3, # of connection points: 4
#     Node 1, Type 0, BuildingBlock: QUQFOY_clean_sbu_3, # of connection points: 4
#     Node 2, Type 0, BuildingBlock: QUQFOY_clean_sbu_3, # of connection points: 4
#     Node 3, Type 1, BuildingBlock: NAHDIM_clean_linker_0, # of connection points: 4
#     Node 4, Type 1, BuildingBlock: NAHDIM_clean_linker_0, # of connection points: 4
#     Node 5, Type 1, BuildingBlock: NAHDIM_clean_linker_0, # of connection points: 4
#     Edge 6, Type (0, 1), BuildingBlock: EZIPEK_clean_linker_0, # of connection points: 2
#     Edge 7, Type (0, 1), BuildingBlock: EZIPEK_clean_linker_0, # of connection points: 2
#     Edge 8, Type (0, 1), BuildingBlock: EZIPEK_clean_linker_0, # of connection points: 2
#     Edge 9, Type (0, 1), BuildingBlock: EZIPEK_clean_linker_0, # of connection points: 2
#     Edge 10, Type (0, 1), BuildingBlock: EZIPEK_clean_linker_0, # of connection points: 2
#     Edge 11, Type (0, 1), BuildingBlock: EZIPEK_clean_linker_0, # of connection points: 2
#     Edge 12, Type (0, 1), BuildingBlock: EZIPEK_clean_linker_0, # of connection points: 2
#     Edge 13, Type (0, 1), BuildingBlock: EZIPEK_clean_linker_0, # of connection points: 2
#     Edge 14, Type (0, 1), BuildingBlock: EZIPEK_clean_linker_0, # of connection points: 2
#     Edge 15, Type (0, 1), BuildingBlock: EZIPEK_clean_linker_0, # of connection points: 2
#     Edge 16, Type (0, 1), BuildingBlock: EZIPEK_clean_linker_0, # of connection points: 2
#     Edge 17, Type (0, 1), BuildingBlock: EZIPEK_clean_linker_0, # of connection points: 2
# Relax obj value: 0.008
# Max RMSD: 0.056
# Mean RMSD: 0.048
data_MOF--net-pth--node1-QUQFOY_clean_sbu_3--node2-NAHDIM_clean_linker_0--edge1-EZIPEK_clean_linker_0
_symmetry_space_group_name_H-M    P1
_symmetry_Int_Tables_number       1
_symmetry_cell_setting            triclinic
loop_
_symmetry_equiv_pos_as_xyz
'x, y, z'
_cell_length_a     25.893003
_cell_length_b     25.593374
_cell_length_c     67.180675
_cell_angle_alpha  89.646272
_cell_angle_beta   91.549348
_cell_angle_gamma 120.8893
loop_
_atom_site_label
_atom_site_type_symbol
_atom_site_fract_x
_atom_site_fract_y
_atom_site_fract_z
_atom_type_partial_charge
C0 C -8e-05 0.17106 0.09521 0.0
O1 O 0.95938 0.16949 0.08378 0.0
Cd2 Cd 0.9393 0.11714 0.05217 0.0
O3 O 0.0239 0.13989 0.09125 0.0
Cd4 Cd 0.01435 0.06357 0.067 0.0
C5 C 0.08365 0.17858 0.03559 0.0
O6 O 0.9084 0.01102 0.05478 0.0
O7 O 0.97422 0.00711 0.03645 0.0
O8 O -0.00085 -0.00142 0.09528 0.0
C9 C 0.91957 0.98812 0.03993 0.0
O10 O 0.03256 0.17442 0.03403 0.0
C11 C 0.03852 0.98553 0.09079 0.0
O12 O 0.09297 0.14557 0.04767 0.0
O13 O 0.06834 0.00996 0.07524 0.0
C14 C 0.1395 0.03968 0.42857 0.0
O15 O 0.17979 0.06725 0.41578 0.0
Cd16 Cd 0.15254 0.09536 0.38461 0.0
O17 O 0.08688 0.03089 0.42569 0.0
Cd18 Cd 0.02638 0.0518 0.40165 0.0
C19 C 0.03526 0.95752 0.36872 0.0
O20 O 0.10476 0.15352 0.39155 0.0
O21 O 0.0204 0.11225 0.37452 0.0
O22 O 0.98998 0.07666 0.43094 0.0
C23 C 0.07178 0.15866 0.37829 0.0
O24 O 0.0898 -0.00082 0.3664 0.0
C25 C 0.93461 0.03967 0.42705 0.0
O26 O 0.00246 0.96383 0.38107 0.0
O27 O 0.92127 0.0087 0.41103 0.0
C28 C 0.92052 0.09372 0.70719 0.0
O29 O 0.89836 0.10407 0.72225 0.0
Cd30 Cd 0.93248 0.10102 0.75558 0.0
O31 O 0.96038 0.07886 0.70923 0.0
Cd32 Cd 0.01802 0.06228 0.73605 0.0
C33 C 0.89697 0.95416 0.76138 0.0
O34 O 0.04043 0.15554 0.75277 0.0
O35 O 0.07832 0.1061 0.76699 0.0
O36 O 0.09984 0.10101 0.71266 0.0
C37 C 0.07442 0.15347 0.76623 0.0
O38 O 0.88582 0.99526 0.7662 0.0
C39 C 0.10675 0.05548 0.71362 0.0
O40 O 0.9403 0.96582 0.75012 0.0
O41 O 0.07193 0.01221 0.72487 0.0
C42 C 0.84402 0.69224 0.34232 0.0
C43 C 0.90786 0.71388 0.33537 0.0
C44 C 0.93454 0.67445 0.30735 0.0
C45 C -0.00294 0.70708 0.30552 0.0
C46 C 0.02644 0.67991 0.29685 0.0
C47 C 0.99207 0.61924 0.28965 0.0
C48 C 0.92869 0.58658 0.2913 0.0
C49 C 0.90063 0.61491 0.30005 0.0
C50 C 0.09395 0.71611 0.29515 0.0
C51 C 0.89067 0.52195 0.28371 0.0
C52 C 0.22741 0.43891 0.3604 0.0
C53 C 0.16548 0.40483 0.34972 0.0
C54 C 0.14491 0.44531 0.31989 0.0
C55 C 0.08382 0.41186 0.31436 0.0
C56 C 0.05725 0.43876 0.30308 0.0
C57 C 0.09313 0.50002 0.29702 0.0
C58 C 0.15491 0.53388 0.30275 0.0
C59 C 0.18015 0.50582 0.31405 0.0
C60 C 0.99146 0.40135 0.29709 0.0
C61 C 0.19456 0.59921 0.29651 0.0
C62 C 0.14002 0.40921 0.17298 0.0
C63 C 0.07916 0.38805 0.17635 0.0
C64 C 0.06161 0.42651 0.18469 0.0
C65 C 0.10586 0.48732 0.18971 0.0
C66 C 0.16693 0.50937 0.18565 0.0
C67 C 0.18312 0.46998 0.1772 0.0
C68 C -0.00414 0.40202 0.18838 0.0
C69 C 0.21513 0.57409 0.19066 0.0
C70 C 0.0318 0.84346 0.16688 0.0
C71 C 0.06326 0.83311 0.14953 0.0
C72 C 0.04649 0.73249 0.15886 0.0
C73 C 0.00267 0.67071 0.15735 0.0
C74 C 0.00468 0.62771 0.1699 0.0
C75 C 0.05299 0.64697 0.1839 0.0
C76 C 0.09851 0.70933 0.18514 0.0
C77 C 0.09433 0.75154 0.17282 0.0
C78 C 0.95515 0.5618 0.16819 0.0
C79 C 0.15217 0.73151 0.1993 0.0
C80 C 0.02192 0.59013 0.27993 0.0
C81 C 0.04191 0.55871 0.29189 0.0
C82 C 0.06759 0.52773 0.28351 0.0
C83 C 0.07179 0.52625 0.2626 0.0
C84 C 0.09405 0.49252 0.2536 0.0
C85 C 0.0985 0.4918 0.23303 0.0
C86 C 0.08257 0.52622 0.22071 0.0
C87 C 0.08827 0.52697 0.19983 0.0
C88 C 0.07697 0.56565 0.1882 0.0
C89 C 0.05748 0.60199 0.19678 0.0
C90 C 0.04653 0.59785 0.21742 0.0
C91 C 0.02212 0.62975 0.2263 0.0
C92 C 0.0131 0.62658 0.24672 0.0
C93 C 0.02935 0.59243 0.25909 0.0
C94 C 0.05376 0.55977 0.2504 0.0
C95 C 0.06075 0.56112 0.22949 0.0
C96 C 0.17468 0.28878 0.16741 0.0
C97 C 0.12899 0.30983 0.16573 0.0
O98 O 0.90597 0.70084 0.3153 0.0
O99 O 0.04136 0.77167 0.14636 0.0
O100 O 0.15915 0.37288 0.16566 0.0
O101 O 0.17136 0.41843 0.32965 0.0
H102 H 0.92026 0.68493 0.34419 0.0
H103 H 0.81534 0.64212 0.34022 0.0
H104 H 0.82231 0.71356 0.3339 0.0
H105 H 0.84524 0.70274 0.35841 0.0
H106 H 0.02263 0.75389 0.3107 0.0
H107 H 0.85212 0.59064 0.30132 0.0
H108 H 0.11403 0.69205 0.30294 0.0
H109 H 0.11422 0.76266 0.3016 0.0
H110 H 0.10588 0.71983 0.27924 0.0
H111 H 0.84212 0.50225 0.28663 0.0
H112 H 0.90612 0.49296 0.2909 0.0
H113 H 0.89616 0.52062 0.26742 0.0
H114 H 0.14106 0.42457 0.35685 0.0
H115 H 0.22276 0.42802 0.37653 0.0
H116 H 0.24691 0.4888 0.35886 0.0
H117 H 0.25976 0.42755 0.35426 0.0
H118 H 0.05749 0.36436 0.31845 0.0
H119 H 0.22761 0.53076 0.31822 0.0
H120 H 0.96784 0.42496 0.30182 0.0
H121 H 0.96913 0.35517 0.3037 0.0
H122 H 0.98671 0.39667 0.28062 0.0
H123 H 0.24078 0.62028 0.30316 0.0
H124 H 0.17443 0.62645 0.30099 0.0
H125 H 0.19763 0.60133 0.28004 0.0
H126 H 0.10516 0.29478 0.17987 0.0
H127 H 0.04523 0.34183 0.17242 0.0
H128 H 0.2299 0.4861 0.17427 0.0
H129 H 0.9891 0.40197 0.20463 0.0
H130 H 0.9666 0.35495 0.18249 0.0
H131 H 0.98145 0.43201 0.18132 0.0
H132 H 0.2607 0.58412 0.1867 0.0
H133 H 0.21519 0.58269 0.20684 0.0
H134 H 0.20524 0.60608 0.18258 0.0
H135 H 0.11102 0.85593 0.15446 0.0
H136 H 0.04869 0.89286 0.16864 0.0
H137 H 0.04203 0.82742 0.18101 0.0
H138 H 0.98225 0.81906 0.16473 0.0
H139 H 0.96612 0.65639 0.14646 0.0
H140 H 0.12932 0.79893 0.17395 0.0
H141 H 0.93855 0.54302 0.18317 0.0
H142 H 0.97316 0.53492 0.16158 0.0
H143 H 0.91662 0.55568 0.15868 0.0
H144 H 0.1881 0.779 0.19614 0.0
H145 H 0.17146 0.7016 0.19843 0.0
H146 H 0.13768 0.73 0.21479 0.0
H147 H 0.03776 0.55866 0.30792 0.0
H148 H 0.1078 0.46583 0.26234 0.0
H149 H 0.11562 0.46473 0.22695 0.0
H150 H 0.08413 0.568 0.1723 0.0
H151 H 0.00946 0.65726 0.21753 0.0
H152 H 0.99413 0.65205 0.25274 0.0
H153 H 0.15078 0.23844 0.16886 0.0
H154 H 0.20416 0.30938 0.18088 0.0
H155 H 0.20366 0.30184 0.15426 0.0
C156 C 0.35965 0.15685 0.67946 0.0
C157 C 0.3102 0.10023 0.66809 0.0
C158 C 0.36717 0.06168 0.65078 0.0
C159 C 0.39646 0.11046 0.63749 0.0
C160 C 0.43826 0.11264 0.62412 0.0
C161 C 0.45004 0.06445 0.62365 0.0
C162 C 0.41978 0.01473 0.63669 0.0
C163 C 0.37899 0.01424 0.65015 0.0
C164 C 0.47031 0.16683 0.61059 0.0
C165 C 0.43079 0.9623 0.63647 0.0
C166 C 0.92596 0.18094 0.61386 0.0
C167 C 0.87004 0.1468 0.62658 0.0
C168 C 0.78097 0.15773 0.62423 0.0
C169 C 0.7368 0.09608 0.62653 0.0
C170 C 0.67631 0.07488 0.62129 0.0
C171 C 0.6598 0.11631 0.61388 0.0
C172 C 0.70348 0.17906 0.61299 0.0
C173 C 0.7636 0.19895 0.61825 0.0
C174 C 0.6304 0.00791 0.62291 0.0
C175 C 0.68711 0.22465 0.60561 0.0
C176 C 0.69129 0.05296 0.48809 0.0
C177 C 0.65133 0.9968 0.49675 0.0
C178 C 0.60231 0.98924 0.50752 0.0
C179 C 0.59281 0.03868 0.50945 0.0
C180 C 0.63081 0.09408 0.49966 0.0
C181 C 0.67946 0.10033 0.48894 0.0
C182 C 0.56174 0.92907 0.51736 0.0
C183 C 0.62135 0.14735 0.50119 0.0
C184 C 0.10627 0.88996 0.51177 0.0
C185 C 0.16724 0.93653 0.50324 0.0
C186 C 0.26099 0.93462 0.50588 0.0
C187 C 0.28183 0.89533 0.51062 0.0
C188 C 0.3414 0.91795 0.51732 0.0
C189 C 0.38123 0.98162 0.51894 0.0
C190 C 0.3614 0.02176 0.51302 0.0
C191 C 0.30134 -0.00217 0.50654 0.0
C192 C 0.36132 0.87387 0.52322 0.0
C193 C 0.40333 0.08987 0.51399 0.0
C194 C 0.49507 0.06688 0.60984 0.0
C195 C 0.55339 0.08776 0.61741 0.0
C196 C 0.59859 0.09335 0.60512 0.0
C197 C 0.58582 0.07831 0.58465 0.0
C198 C 0.63059 0.08424 0.57184 0.0
C199 C 0.61788 0.06993 0.55171 0.0
C200 C 0.55981 0.04885 0.54356 0.0
C201 C 0.54648 0.03402 0.52309 0.0
C202 C 0.4883 0.01307 0.51545 0.0
C203 C 0.44254 0.00598 0.52781 0.0
C204 C 0.45497 0.02046 0.54835 0.0
C205 C 0.4099 0.01337 0.56126 0.0
C206 C 0.42277 0.02821 0.5814 0.0
C207 C 0.48117 0.05063 0.58945 0.0
C208 C 0.52695 0.057 0.57679 0.0
C209 C 0.51391 0.04218 0.55622 0.0
C210 C 0.83205 0.10299 0.49756 0.0
C211 C 0.78172 0.04655 0.4865 0.0
O212 O 0.32796 0.05851 0.66454 0.0
O213 O 0.20167 0.90975 0.50095 0.0
O214 O 0.74153 0.06269 0.47888 0.0
O215 O 0.84067 0.1793 0.62734 0.0
H216 H 0.30384 0.11824 0.65377 0.0
H217 H 0.39856 0.18424 0.66983 0.0
H218 H 0.37712 0.14519 0.69291 0.0
H219 H 0.342 0.18637 0.68393 0.0
H220 H 0.38765 0.14738 0.63747 0.0
H221 H 0.35614 0.97668 0.66037 0.0
H222 H 0.51975 0.18655 0.61203 0.0
H223 H 0.46006 0.20296 0.61395 0.0
H224 H 0.45663 0.15198 0.59487 0.0
H225 H 0.39978 0.92457 0.64626 0.0
H226 H 0.47782 0.97855 0.64158 0.0
H227 H 0.42525 0.94439 0.62106 0.0
H228 H 0.83994 0.10366 0.61843 0.0
H229 H 0.94752 0.15337 0.61205 0.0
H230 H 0.95981 0.2254 0.6206 0.0
H231 H 0.91277 0.18925 0.59883 0.0
H232 H 0.74935 0.06428 0.63216 0.0
H233 H 0.79784 0.24664 0.61698 0.0
H234 H 0.59178 0.00148 0.63165 0.0
H235 H 0.64958 0.98213 0.63009 0.0
H236 H 0.61272 0.9885 0.60781 0.0
H237 H 0.72507 0.27233 0.60746 0.0
H238 H 0.64792 0.21929 0.61375 0.0
H239 H 0.67375 0.21601 0.58958 0.0
H240 H 0.75909 0.00926 0.49737 0.0
H241 H 0.65851 0.95894 0.4952 0.0
H242 H 0.7099 0.14307 0.48183 0.0
H243 H 0.56557 0.93546 0.53378 0.0
H244 H 0.57313 0.89405 0.51354 0.0
H245 H 0.51413 0.91201 0.51281 0.0
H246 H 0.65256 0.18603 0.49174 0.0
H247 H 0.62844 0.16327 0.51691 0.0
H248 H 0.57428 0.13295 0.49668 0.0
H249 H 0.19049 0.97261 0.51475 0.0
H250 H 0.11345 0.87185 0.52598 0.0
H251 H 0.07953 0.91159 0.51489 0.0
H252 H 0.07942 0.85121 0.50138 0.0
H253 H 0.25053 0.84664 0.5097 0.0
H254 H 0.28607 0.02854 0.50211 0.0
H255 H 0.37762 0.88194 0.53899 0.0
H256 H 0.39944 0.88159 0.51395 0.0
H257 H 0.32451 0.82564 0.52141 0.0
H258 H 0.38269 0.1148 0.5072 0.0
H259 H 0.44553 0.10276 0.50622 0.0
H260 H 0.41568 0.10461 0.52978 0.0
H261 H 0.56385 0.10029 0.63304 0.0
H262 H 0.67614 0.10018 0.5772 0.0
H263 H 0.65431 0.07566 0.54262 0.0
H264 H 0.47834 0.00148 0.49975 0.0
H265 H 0.36413 0.9964 0.55593 0.0
H266 H 0.38632 0.02192 0.5906 0.0
H267 H 0.85633 0.14101 0.48697 0.0
H268 H 0.86513 0.09397 0.50519 0.0
H269 H 0.81233 0.11793 0.50911 0.0
C270 C 0.77967 0.67134 0.77095 0.0
C271 C 0.75481 0.70028 0.78477 0.0
C272 C 0.70971 0.66266 0.81693 0.0
C273 C 0.68209 0.69643 0.82045 0.0
C274 C 0.63307 0.67429 0.83314 0.0
C275 C 0.61158 0.61729 0.84248 0.0
C276 C 0.64079 0.58413 0.8394 0.0
C277 C 0.69015 0.60779 0.82683 0.0
C278 C 0.60393 0.71149 0.83647 0.0
C279 C 0.61904 0.52314 0.84903 0.0
C280 C 0.1609 0.4156 0.79046 0.0
C281 C 0.20302 0.3944 0.7986 0.0
C282 C 0.27382 0.44006 0.82618 0.0
C283 C 0.30166 0.40745 0.83166 0.0
C284 C 0.35964 0.43726 0.84048 0.0
C285 C 0.38937 0.50074 0.8442 0.0
C286 C 0.36118 0.53372 0.83852 0.0
C287 C 0.3034 0.50274 0.82958 0.0
C288 C 0.38846 0.40084 0.84633 0.0
C289 C 0.39147 0.60131 0.84238 0.0
C290 C 0.29613 0.44731 0.97256 0.0
C291 C 0.32511 0.41696 0.96622 0.0
C292 C 0.37908 0.44813 0.95592 0.0
C293 C 0.4043 0.51082 0.95186 0.0
C294 C 0.37624 0.54194 0.95886 0.0
C295 C 0.32272 0.50975 0.96933 0.0
C296 C 0.40885 0.41399 0.94919 0.0
C297 C 0.40216 0.60884 0.95493 0.0
C298 C 0.88869 0.82046 0.98593 0.0
C299 C 0.82559 0.81057 0.98247 0.0
C300 C 0.73253 0.71654 0.97296 0.0
C301 C 0.7091 0.65419 0.97034 0.0
C302 C 0.65584 0.61831 0.95909 0.0
C303 C 0.62495 0.64562 0.95059 0.0
C304 C 0.64763 0.70849 0.95361 0.0
C305 C 0.70125 0.74333 0.96479 0.0
C306 C 0.63258 0.55131 0.95628 0.0
C307 C 0.61486 0.73866 0.94519 0.0
C308 C 0.55709 0.59106 0.85478 0.0
C309 C 0.50088 0.55947 0.84491 0.0
C310 C 0.44765 0.53183 0.8555 0.0
C311 C 0.45011 0.53473 0.87652 0.0
C312 C 0.39732 0.50628 0.8876 0.0
C313 C 0.40008 0.5089 0.90828 0.0
C314 C 0.45571 0.54061 0.9187 0.0
C315 C 0.45893 0.54331 0.93974 0.0
C316 C 0.5147 0.57727 0.94962 0.0
C317 C 0.56787 0.60819 0.93905 0.0
C318 C 0.56586 0.60421 0.91802 0.0
C319 C 0.61866 0.63304 0.90695 0.0
C320 C 0.61601 0.6288 0.88623 0.0
C321 C 0.56044 0.5959 0.87581 0.0
C322 C 0.50669 0.56705 0.8867 0.0
C323 C 0.50944 0.57058 0.90782 0.0
C324 C 0.13738 0.35428 0.97974 0.0
C325 C 0.19821 0.35784 0.97951 0.0
O326 O 0.75576 0.68233 0.80422 0.0
O327 O 0.78443 0.7489 0.98389 0.0
O328 O 0.24305 0.41817 0.98206 0.0
O329 O 0.2171 0.41078 0.81845 0.0
H330 H 0.70736 0.6788 0.77947 0.0
H331 H 0.75223 0.62094 0.77204 0.0
H332 H 0.82704 0.68555 0.7747 0.0
H333 H 0.77705 0.68396 0.75525 0.0
H334 H 0.6993 0.7403 0.81348 0.0
H335 H 0.71258 0.58262 0.8242 0.0
H336 H 0.55734 0.68691 0.83006 0.0
H337 H 0.62906 0.75708 0.8295 0.0
H338 H 0.60093 0.71742 0.85268 0.0
H339 H 0.64528 0.50205 0.84452 0.0
H340 H 0.57084 0.49162 0.84495 0.0
H341 H 0.62261 0.52862 0.86547 0.0
H342 H 0.24376 0.42079 0.78956 0.0
H343 H 0.14847 0.40149 0.7746 0.0
H344 H 0.18431 0.46609 0.79127 0.0
H345 H 0.11915 0.39713 0.799 0.0
H346 H 0.27762 0.35864 0.82918 0.0
H347 H 0.28079 0.52711 0.8254 0.0
H348 H 0.39367 0.4012 0.8628 0.0
H349 H 0.43414 0.422 0.84011 0.0
H350 H 0.36142 0.35282 0.84106 0.0
H351 H 0.36427 0.6206 0.83652 0.0
H352 H 0.43611 0.6252 0.83536 0.0
H353 H 0.3992 0.61047 0.85865 0.0
H354 H 0.20067 0.34295 0.96427 0.0
H355 H 0.30606 0.36922 0.96947 0.0
H356 H 0.30042 0.5329 0.97461 0.0
H357 H 0.40732 0.41165 0.93267 0.0
H358 H 0.38654 0.36686 0.95504 0.0
H359 H 0.45696 0.43859 0.95413 0.0
H360 H 0.37363 0.62584 0.96073 0.0
H361 H 0.40709 0.61733 0.93866 0.0
H362 H 0.44772 0.6354 0.96204 0.0
H363 H 0.82499 0.82463 0.96686 0.0
H364 H 0.92344 0.86936 0.98427 0.0
H365 H 0.897 0.79381 0.97481 0.0
H366 H 0.89344 0.8054 0.00107 0.0
H367 H 0.73319 0.63382 0.97696 0.0
H368 H 0.71783 0.79102 0.96744 0.0
H369 H 0.62588 0.53965 0.94015 0.0
H370 H 0.58813 0.52431 0.9633 0.0
H371 H 0.66367 0.53771 0.96291 0.0
H372 H 0.63736 0.78758 0.94943 0.0
H373 H 0.56801 0.71497 0.95053 0.0
H374 H 0.61227 0.7349 0.92869 0.0
H375 H 0.49851 0.55633 0.82878 0.0
H376 H 0.35315 0.4813 0.88044 0.0
H377 H 0.35795 0.48592 0.91599 0.0
H378 H 0.51673 0.57997 0.96577 0.0
H379 H 0.66266 0.65898 0.91418 0.0
H380 H 0.65806 0.65181 0.87848 0.0
H381 H 0.09999 0.30665 0.97712 0.0
H382 H 0.13498 0.38313 0.96775 0.0
H383 H 0.13117 0.37068 0.99425 0.0
C384 C 0.07276 0.27139 0.11055 0.0
C385 C 0.02303 0.21203 0.11275 0.0
C386 C 0.02978 0.22756 0.14882 0.0
C387 C 0.08792 0.2814 0.14704 0.0
N388 N 0.16733 0.34967 0.12459 0.0
N389 N 0.95555 0.13065 0.13391 0.0
C390 C 0.10991 0.30259 0.12746 0.0
C391 C 0.0018 0.18932 0.13186 0.0
N392 N 0.0852 0.29767 0.09218 0.0
N393 N -0.00023 0.21319 0.16632 0.0
H394 H 0.93197 0.10243 0.12175 0.0
H395 H 0.94342 0.10889 0.14762 0.0
H396 H 0.01435 0.24065 0.17898 0.0
H397 H 0.95553 0.17733 0.16751 0.0
H398 H 0.11731 0.34335 0.08997 0.0
H399 H 0.05901 0.27556 0.07948 0.0
H400 H 0.1866 0.36061 0.11063 0.0
H401 H 0.19859 0.37468 0.13583 0.0
C402 C 0.89192 0.01172 0.46104 0.0
C403 C 0.88823 0.03024 0.44138 0.0
C404 C 0.79594 0.02857 0.44964 0.0
C405 C 0.80842 0.02571 0.47024 0.0
N406 N 0.85744 0.99185 0.49421 0.0
N407 N 0.83779 0.05973 0.41701 0.0
C408 C 0.85254 0.0101 0.47552 0.0
C409 C 0.84024 0.03912 0.43561 0.0
N410 N 0.93313 0.99529 0.4661 0.0
N411 N 0.73978 0.01447 0.4432 0.0
H412 H 0.86963 0.06872 0.40628 0.0
H413 H 0.80699 0.07288 0.41293 0.0
H414 H 0.70307 0.99458 0.45253 0.0
H415 H 0.72758 0.0122 0.42818 0.0
H416 H 0.93783 0.98254 0.48052 0.0
H417 H 0.96117 0.99253 0.45583 0.0
H418 H 0.82873 0.98566 0.50575 0.0
H419 H 0.82873 0.98566 0.50575 0.0
C420 C 0.88539 0.86887 0.783 0.0
C421 C 0.85962 0.89193 0.76932 0.0
C422 C 0.76166 0.79867 0.77246 0.0
C423 C 0.78962 0.77014 0.78271 0.0
N424 N 0.88094 0.78114 0.79822 0.0
N425 N 0.77457 0.87652 0.74909 0.0
C426 C 0.8522 0.80627 0.78832 0.0
C427 C 0.7981 0.85632 0.76357 0.0
N428 N 0.94111 0.90733 0.79138 0.0
N429 N 0.70045 0.77264 0.77189 0.0
H430 H 0.79965 0.9186 0.74219 0.0
H431 H 0.73179 0.84912 0.74265 0.0
H432 H 0.67121 0.73374 0.77971 0.0
H433 H 0.67898 0.79459 0.76602 0.0
H434 H 0.95952 0.89523 0.80323 0.0
H435 H 0.96676 0.95336 0.78779 0.0
H436 H 0.92761 0.80283 0.79979 0.0
H437 H 0.8594 0.73751 0.80406 0.0
C438 C -0.00512 0.88401 0.10723 0.0
C439 C 0.04631 0.94098 0.10275 0.0
C440 C 0.1092 0.91178 0.12189 0.0
C441 C 0.05689 0.86246 0.13031 0.0
N442 N 0.94802 0.7934 0.12619 0.0
N443 N 0.15315 0.01174 0.10738 0.0
C444 C -0.00052 0.84593 0.12163 0.0
C445 C 0.10386 0.9554 0.11028 0.0
N446 N 0.94085 0.86541 0.09765 0.0
N447 N 0.16347 0.91518 0.12394 0.0
H448 H 0.15142 0.04594 0.09944 0.0
H449 H 0.19469 0.02631 0.11449 0.0
H450 H 0.16793 0.88015 0.13011 0.0
H451 H 0.20195 0.94791 0.11683 0.0
H452 H 0.90176 0.82433 0.10078 0.0
H453 H 0.93585 0.88936 0.08589 0.0
H454 H 0.9457 0.76012 0.13576 0.0
H455 H 0.9457 0.76012 0.13576 0.0
C456 C 0.15737 0.96449 0.4468 0.0
C457 C 0.15257 0.0171 0.44723 0.0
C458 C 0.15409 0.01606 0.48368 0.0
C459 C 0.15879 0.96269 0.48356 0.0
N460 N 0.14193 0.87503 0.46412 0.0
N461 N 0.14847 0.09498 0.46588 0.0
C462 C 0.1543 0.93381 0.46487 0.0
C463 C 0.1516 0.04322 0.46557 0.0
N464 N 0.16471 0.94349 0.42906 0.0
N465 N 0.14893 0.04135 0.50076 0.0
H466 H 0.14858 0.11807 0.45301 0.0
H467 H 0.14738 0.11571 0.47907 0.0
H468 H 0.14557 0.02388 0.51503 0.0
H469 H 0.14557 0.02388 0.51503 0.0
H470 H 0.17627 0.91017 0.42802 0.0
H471 H 0.16463 0.96299 0.4154 0.0
H472 H 0.13186 0.85007 0.45094 0.0
H473 H 0.13377 0.8477 0.47653 0.0
C474 C 0.17382 0.24593 0.77493 0.0
C475 C 0.11206 0.20727 0.77906 0.0
C476 C 0.11705 0.28296 0.80245 0.0
C477 C 0.17567 0.32555 0.79566 0.0
N478 N 0.26824 0.33711 0.78373 0.0
N479 N 0.02472 0.18537 0.79736 0.0
C480 C 0.20685 0.3038 0.78448 0.0
C481 C 0.08399 0.22434 0.79332 0.0
N482 N 0.19988 0.22921 0.76084 0.0
N483 N 0.094 0.29757 0.8181 0.0
H484 H 0.00054 0.14074 0.79189 0.0
H485 H -0.00135 0.19767 0.80535 0.0
H486 H 0.11728 0.33897 0.8257 0.0
H487 H 0.05424 0.26672 0.82496 0.0
H488 H 0.24202 0.25884 0.75509 0.0
H489 H 0.17788 0.18659 0.75387 0.0
H490 H 0.29377 0.32107 0.77738 0.0
H491 H 0.29457 0.37759 0.79166 0.0
C492 C 0.92499 0.16828 0.682 0.0
C493 C 0.90647 0.10734 0.68701 0.0
C494 C 0.87893 0.07684 0.65212 0.0
C495 C 0.88705 0.13512 0.64754 0.0
N496 N 0.9209 0.23843 0.65886 0.0
N497 N 0.85775 0.00161 0.67758 0.0
C498 C 0.91087 0.18145 0.66269 0.0
C499 C 0.88095 0.06104 0.67229 0.0
N500 N 0.95966 0.21444 0.69525 0.0
N501 N 0.87309 0.03767 0.63727 0.0
H502 H 0.85848 0.98834 0.69226 0.0
H503 H 0.83271 0.9653 0.66775 0.0
H504 H 0.87746 0.04875 0.62223 0.0
H505 H 0.87232 0.99716 0.64 0.0
H506 H 0.98119 0.26038 0.6916 0.0
H507 H 0.97193 0.20731 0.70947 0.0
H508 H 0.92715 0.26925 0.67007 0.0
H509 H 0.9218 0.25534 0.64469 0.0
C510 C 0.8666 0.95783 0.00679 0.0
C511 C 0.87184 0.9418 0.02664 0.0
C512 C 0.8081 0.83386 0.01794 0.0
C513 C 0.81583 0.84977 -0.00253 0.0
N514 N 0.82379 0.92357 0.97347 0.0
N515 N 0.84361 0.8657 0.052 0.0
C516 C 0.83567 0.91095 0.99224 0.0
C517 C 0.84009 0.88012 0.03259 0.0
N518 N 0.89409 0.01796 0.00179 0.0
N519 N 0.76796 0.77554 0.02336 0.0
H520 H 0.86401 0.89861 0.06324 0.0
H521 H 0.82881 0.82159 0.05682 0.0
H522 H 0.73779 0.74288 0.01322 0.0
H523 H 0.75785 0.7619 0.03807 0.0
H524 H 0.89882 0.03353 0.98724 0.0
H525 H 0.91409 0.05285 0.01244 0.0
H526 H 0.83379 0.96657 0.96885 0.0
H527 H 0.79745 0.88948 0.96307 0.0
C528 C 0.96546 0.88484 0.34238 0.0
C529 C 0.01011 0.89952 0.35752 0.0
C530 C 0.00215 0.80073 0.35278 0.0
C531 C 0.95089 0.78204 0.3399 0.0
N532 N 0.90059 0.81477 0.31643 0.0
N533 N 0.06877 0.87104 0.37838 0.0
C534 C 0.93754 0.8267 0.33283 0.0
C535 C 0.02857 0.85777 0.36283 0.0
N536 N 0.9481 0.92582 0.3377 0.0
N537 N 0.02793 0.76572 0.35458 0.0
H538 H 0.0899 0.91257 0.38602 0.0
H539 H 0.07765 0.83921 0.3848 0.0
H540 H 0.01359 0.72605 0.34637 0.0
H541 H 0.06865 0.77997 0.36218 0.0
H542 H 0.9101 0.91537 0.32899 0.0
H543 H 0.97008 0.9701 0.34345 0.0
H544 H 0.89422 0.8473 0.3093 0.0
H545 H 0.8803 0.77389 0.30854 0.0
C546 C 0.20065 0.04972 0.71105 0.0
C547 C 0.15259 0.05288 0.70162 0.0
C548 C 0.19722 0.05989 0.66916 0.0
C549 C 0.25053 0.0694 0.67911 0.0
N550 N 0.28965 0.04579 0.70908 0.0
N551 N 0.10192 0.05603 0.67133 0.0
C552 C 0.24801 0.05533 0.6997 0.0
C553 C 0.1497 0.05602 0.68051 0.0
N554 N 0.20433 0.04356 0.73111 0.0
N555 N 0.19054 0.05035 0.64902 0.0
H556 H 0.06387 0.04794 0.6789 0.0
H557 H 0.10097 0.06648 0.65638 0.0
H558 H 0.22174 0.04615 0.64073 0.0
H559 H 0.15112 0.03863 0.64096 0.0
H560 H 0.17284 0.04072 0.74109 0.0
H561 H 0.17284 0.04072 0.74109 0.0
H562 H 0.32378 0.04399 0.7018 0.0
H563 H 0.32378 0.04399 0.7018 0.0
C564 C 0.16632 0.28526 0.0298 0.0
C565 C 0.13271 0.22385 0.02326 0.0
C566 C 0.17673 0.25365 0.99037 0.0
C567 C 0.1997 0.31557 -0.00436 0.0
N568 N 0.24488 0.38844 0.02267 0.0
N569 N 0.10891 0.14721 -0.00172 0.0
C570 C 0.20345 0.33112 0.01614 0.0
C571 C 0.14001 0.20716 0.00395 0.0
N572 N 0.16061 0.29982 0.04883 0.0
N573 N 0.19148 0.2398 0.97261 0.0
H574 H 0.08364 0.11213 0.00818 0.0
H575 H 0.10588 0.13221 0.9837 0.0
H576 H 0.22196 0.27318 0.96315 0.0
H577 H 0.17966 0.19597 0.9683 0.0
H578 H 0.17702 0.34419 0.05382 0.0
H579 H 0.13684 0.2668 0.0595 0.0
H580 H 0.25198 0.40172 0.03758 0.0
H581 H 0.27871 0.42014 0.01371 0.0
C582 C 0.05962 0.24837 0.37209 0.0
C583 C 0.09101 0.21763 0.36849 0.0
C584 C 0.16228 0.30225 0.34772 0.0
C585 C 0.13411 0.33566 0.35297 0.0
N586 N 0.04016 0.32736 0.36191 0.0
N587 N 0.17084 0.21275 0.35277 0.0
C588 C 0.07796 0.30482 0.36267 0.0
C589 C 0.14158 0.24362 0.35608 0.0
N590 N 0.01441 0.22558 0.38551 0.0
N591 N 0.20641 0.32486 0.33391 0.0
H592 H 0.1541 0.16787 0.3572 0.0
H593 H 0.21292 0.23192 0.34645 0.0
H594 H 0.22219 0.36639 0.32687 0.0
H595 H 0.22425 0.30039 0.32787 0.0
H596 H -0.00459 0.25006 0.39072 0.0
H597 H -0.00059 0.18451 0.3929 0.0
H598 H -0.00361 0.3036 0.36706 0.0
H599 H 0.04859 0.36545 0.35372 0.0
loop_
_geom_bond_atom_site_label_1
_geom_bond_atom_site_label_2
_geom_bond_distance
_geom_bond_site_symmetry_2
_ccdc_geom_bond_type
C0 O1 1.306 1_455 S
C0 O3 1.160 . S
O1 C0 1.306 1_655 S
O1 Cd2 2.228 . S
Cd2 O1 2.228 . S
Cd2 O6 2.273 . S
Cd2 O10 2.277 1_655 S
O3 C0 1.160 . S
O3 Cd4 2.203 . S
Cd4 O3 2.203 . S
Cd4 O6 2.411 1_455 S
Cd4 O7 2.333 1_445 S
Cd4 O8 2.352 1_445 S
Cd4 O12 2.277 . S
Cd4 O13 2.356 1_545 S
C5 O10 1.209 . S
C5 O12 1.226 . S
O6 Cd2 2.273 . S
O6 Cd4 2.411 1_655 S
O6 C9 1.320 1_545 S
O7 Cd4 2.333 1_665 S
O7 C9 1.214 . S
O8 Cd4 2.352 1_665 S
O8 C11 1.258 1_655 S
C9 O6 1.320 1_565 S
C9 O7 1.214 . S
O10 Cd2 2.277 1_455 S
O10 C5 1.209 . S
C11 O8 1.258 1_455 S
C11 O13 1.282 . S
O12 Cd4 2.277 . S
O12 C5 1.226 . S
O13 Cd4 2.356 1_565 S
O13 C11 1.282 . S
C14 O15 1.306 . S
C14 O17 1.160 . S
O15 C14 1.306 . S
O15 Cd16 2.228 . S
Cd16 O15 2.228 . S
Cd16 O20 2.273 . S
Cd16 O24 2.277 . S
O17 C14 1.160 . S
O17 Cd18 2.203 . S
Cd18 O17 2.203 . S
Cd18 O20 2.411 . S
Cd18 O21 2.333 1_455 S
Cd18 O22 2.352 1_455 S
Cd18 O26 2.277 1_445 S
Cd18 O27 2.358 1_445 S
C19 O24 1.209 1_565 S
C19 O26 1.226 1_455 S
O20 Cd16 2.273 . S
O20 Cd18 2.411 . S
O20 C23 1.320 . S
O21 Cd18 2.333 1_655 S
O21 C23 1.214 1_655 S
O22 Cd18 2.352 1_655 S
O22 C25 1.258 . S
C23 O20 1.320 . S
C23 O21 1.214 1_455 S
O24 Cd16 2.277 . S
O24 C19 1.209 1_545 S
C25 O22 1.258 . S
C25 O27 1.274 1_545 S
O26 Cd18 2.277 1_665 S
O26 C19 1.226 1_655 S
O27 Cd18 2.358 1_665 S
O27 C25 1.274 1_565 S
C28 O29 1.306 . S
C28 O31 1.160 . S
O29 C28 1.306 . S
O29 Cd30 2.228 . S
Cd30 O29 2.228 . S
Cd30 O34 2.273 1_655 S
Cd30 O38 2.277 . S
O31 C28 1.160 . S
O31 Cd32 2.203 1_655 S
Cd32 O31 2.203 1_455 S
Cd32 O34 2.411 . S
Cd32 O35 2.333 . S
Cd32 O36 2.352 . S
Cd32 O40 2.277 1_445 S
Cd32 O41 2.356 . S
C33 O38 1.209 1_565 S
C33 O40 1.226 . S
O34 Cd30 2.273 1_455 S
O34 Cd32 2.411 . S
O34 C37 1.320 . S
O35 Cd32 2.333 . S
O35 C37 1.214 . S
O36 Cd32 2.352 . S
O36 C39 1.258 . S
C37 O34 1.320 . S
C37 O35 1.214 . S
O38 Cd30 2.277 . S
O38 C33 1.209 1_545 S
C39 O36 1.258 . S
C39 O41 1.282 . S
O40 Cd32 2.277 1_665 S
O40 C33 1.226 . S
O41 Cd32 2.356 . S
O41 C39 1.282 . S
C42 C43 1.560 1_655 S
C42 H103 0.959 . S
C42 H104 0.959 . S
C42 H105 0.960 . S
C43 C42 1.560 1_455 S
C43 O98 1.426 1_455 S
C43 H102 0.980 . S
C44 C45 1.407 . S
C44 C49 1.418 1_455 S
C44 O98 1.334 1_455 S
C45 C44 1.407 . S
C45 C46 1.360 . S
C45 H106 0.929 . S
C46 C45 1.360 . S
C46 C47 1.401 . S
C46 C50 1.527 . S
C47 C46 1.401 . S
C47 C48 1.405 1_455 S
C47 C80 1.587 . S
C48 C47 1.405 1_655 S
C48 C49 1.332 . S
C48 C51 1.496 . S
C49 C44 1.418 1_655 S
C49 C48 1.332 . S
C49 H107 0.929 . S
C50 C46 1.527 . S
C50 H108 0.959 . S
C50 H109 0.961 . S
C50 H110 0.961 . S
C51 C48 1.496 . S
C51 H111 0.960 . S
C51 H112 0.960 . S
C51 H113 0.961 . S
C52 C53 1.517 . S
C52 H115 0.961 . S
C52 H116 0.960 . S
C52 H117 0.959 . S
C53 C52 1.517 . S
C53 O101 1.468 . S
C53 H114 0.980 . S
C54 C55 1.349 . S
C54 C59 1.367 . S
C54 O101 1.408 . S
C55 C54 1.349 . S
C55 C56 1.407 . S
C55 H118 0.930 . S
C56 C55 1.407 . S
C56 C57 1.449 . S
C56 C60 1.535 1_455 S
C57 C56 1.449 . S
C57 C58 1.384 . S
C57 C82 1.553 . S
C58 C57 1.384 . S
C58 C59 1.364 . S
C58 C61 1.450 . S
C59 C54 1.367 . S
C59 C58 1.364 . S
C59 H119 0.931 . S
C60 C56 1.535 1_655 S
C60 H120 0.959 . S
C60 H121 0.961 . S
C60 H122 0.959 . S
C61 C58 1.450 . S
C61 H123 0.960 . S
C61 H124 0.960 . S
C61 H125 0.960 . S
C62 C63 1.309 . S
C62 C67 1.304 . S
C62 O100 1.435 . S
C63 C62 1.309 . S
C63 C64 1.476 . S
C63 H127 0.930 . S
C64 C63 1.476 . S
C64 C65 1.400 . S
C64 C68 1.567 1_455 S
C65 C64 1.400 . S
C65 C66 1.373 . S
C65 C87 1.432 . S
C66 C65 1.373 . S
C66 C67 1.339 . S
C66 C69 1.530 . S
C67 C62 1.304 . S
C67 C66 1.339 . S
C67 H128 0.930 . S
C68 C64 1.567 1_655 S
C68 H129 0.961 . S
C68 H130 0.960 . S
C68 H131 0.958 . S
C69 C66 1.530 . S
C69 H132 0.961 . S
C69 H133 0.960 . S
C69 H134 0.960 . S
C70 C71 1.530 1_655 S
C70 H136 0.961 1_655 S
C70 H137 0.961 . S
C70 H138 0.959 . S
C71 C70 1.530 1_455 S
C71 O99 1.412 1_455 S
C71 H135 0.980 . S
C72 C73 1.288 1_455 S
C72 C77 1.377 . S
C72 O99 1.393 1_455 S
C73 C72 1.288 1_655 S
C73 C74 1.369 . S
C73 H139 0.932 . S
C74 C73 1.369 . S
C74 C75 1.398 1_655 S
C74 C78 1.527 . S
C75 C74 1.398 1_455 S
C75 C76 1.380 . S
C75 C89 1.497 . S
C76 C75 1.380 . S
C76 C77 1.383 . S
C76 C79 1.603 . S
C77 C72 1.377 . S
C77 C76 1.383 . S
C77 H140 0.929 . S
C78 C74 1.527 . S
C78 H141 0.961 . S
C78 H142 0.959 . S
C78 H143 0.959 . S
C79 C76 1.603 . S
C79 H144 0.960 . S
C79 H145 0.962 . S
C79 H146 0.961 . S
C80 C47 1.587 . S
C80 C81 1.360 . S
C80 C93 1.412 . S
C81 C80 1.360 . S
C81 C82 1.365 . S
C81 H147 0.929 . S
C82 C57 1.553 . S
C82 C81 1.365 . S
C82 C83 1.404 . S
C83 C82 1.404 . S
C83 C84 1.395 . S
C83 C94 1.451 . S
C84 C83 1.395 . S
C84 C85 1.322 . S
C84 H148 0.930 . S
C85 C84 1.322 . S
C85 C86 1.459 . S
C85 H149 0.929 . S
C86 C85 1.459 . S
C86 C87 1.445 . S
C86 C95 1.395 . S
C87 C65 1.432 . S
C87 C86 1.445 . S
C87 C88 1.370 . S
C88 C87 1.370 . S
C88 C89 1.438 . S
C88 H150 0.930 . S
C89 C75 1.497 . S
C89 C88 1.438 . S
C89 C90 1.360 . S
C90 C89 1.360 . S
C90 C91 1.401 . S
C90 C95 1.446 . S
C91 C90 1.401 . S
C91 C92 1.347 . S
C91 H151 0.929 . S
C92 C91 1.347 . S
C92 C93 1.455 . S
C92 H152 0.930 . S
C93 C80 1.412 . S
C93 C92 1.455 . S
C93 C94 1.331 . S
C94 C83 1.451 . S
C94 C93 1.331 . S
C94 C95 1.497 . S
C95 C86 1.395 . S
C95 C90 1.446 . S
C95 C94 1.497 . S
C96 C97 1.582 . S
C96 H153 0.962 . S
C96 H154 0.959 . S
C96 H155 0.958 . S
C97 C96 1.582 . S
C97 O100 1.458 . S
C97 H126 0.980 . S
O98 C43 1.426 1_655 S
O98 C44 1.334 1_655 S
O99 C71 1.412 1_655 S
O99 C72 1.393 1_655 S
O100 C62 1.435 . S
O100 C97 1.458 . S
O101 C53 1.468 . S
O101 C54 1.408 . S
H102 C43 0.980 . S
H103 C42 0.959 . S
H104 C42 0.959 . S
H105 C42 0.960 . S
H106 C45 0.929 . S
H107 C49 0.929 . S
H108 C50 0.959 . S
H109 C50 0.961 . S
H110 C50 0.961 . S
H111 C51 0.960 . S
H112 C51 0.960 . S
H113 C51 0.961 . S
H114 C53 0.980 . S
H115 C52 0.961 . S
H116 C52 0.960 . S
H117 C52 0.959 . S
H118 C55 0.930 . S
H119 C59 0.931 . S
H120 C60 0.959 . S
H121 C60 0.961 . S
H122 C60 0.959 . S
H123 C61 0.960 . S
H124 C61 0.960 . S
H125 C61 0.960 . S
H126 C97 0.980 . S
H127 C63 0.930 . S
H128 C67 0.930 . S
H129 C68 0.961 . S
H130 C68 0.960 . S
H131 C68 0.958 . S
H132 C69 0.961 . S
H133 C69 0.960 . S
H134 C69 0.960 . S
H135 C71 0.980 . S
H136 C70 0.961 1_455 S
H137 C70 0.961 . S
H138 C70 0.959 . S
H139 C73 0.932 . S
H140 C77 0.929 . S
H141 C78 0.961 . S
H142 C78 0.959 . S
H143 C78 0.959 . S
H144 C79 0.960 . S
H145 C79 0.962 . S
H146 C79 0.961 . S
H147 C81 0.929 . S
H148 C84 0.930 . S
H149 C85 0.929 . S
H150 C88 0.930 . S
H151 C91 0.929 . S
H152 C92 0.930 . S
H153 C96 0.962 . S
H154 C96 0.959 . S
H155 C96 0.958 . S
C156 C157 1.560 1_565 S
C156 H217 0.959 . S
C156 H218 0.959 . S
C156 H219 0.960 1_565 S
C157 C156 1.560 1_545 S
C157 O212 1.439 . S
C157 H216 0.980 . S
C158 C159 1.407 . S
C158 C163 1.418 1_545 S
C158 O212 1.334 . S
C159 C158 1.407 . S
C159 C160 1.360 . S
C159 H220 0.929 . S
C160 C159 1.360 . S
C160 C161 1.401 . S
C160 C164 1.527 . S
C161 C160 1.401 . S
C161 C162 1.405 . S
C161 C194 1.587 . S
C162 C161 1.405 . S
C162 C163 1.332 1_545 S
C162 C165 1.496 1_545 S
C163 C158 1.418 1_565 S
C163 C162 1.332 1_565 S
C163 H221 0.929 . S
C164 C160 1.527 . S
C164 H222 0.959 . S
C164 H223 0.961 . S
C164 H224 0.961 . S
C165 C162 1.496 1_565 S
C165 H225 0.960 . S
C165 H226 0.960 . S
C165 H227 0.961 . S
C166 C167 1.517 . S
C166 H229 0.961 . S
C166 H230 0.960 . S
C166 H231 0.959 . S
C167 C166 1.517 . S
C167 O215 1.468 . S
C167 H228 0.980 . S
C168 C169 1.349 . S
C168 C173 1.367 . S
C168 O215 1.408 . S
C169 C168 1.349 . S
C169 C170 1.407 . S
C169 H232 0.930 . S
C170 C169 1.407 . S
C170 C171 1.449 . S
C170 C174 1.535 . S
C171 C170 1.449 . S
C171 C172 1.384 . S
C171 C196 1.553 . S
C172 C171 1.384 . S
C172 C173 1.364 . S
C172 C175 1.450 . S
C173 C168 1.367 . S
C173 C172 1.364 . S
C173 H233 0.931 . S
C174 C170 1.535 . S
C174 H234 0.959 . S
C174 H235 0.961 1_545 S
C174 H236 0.959 1_545 S
C175 C172 1.450 . S
C175 H237 0.960 . S
C175 H238 0.960 . S
C175 H239 0.960 . S
C176 C177 1.309 . S
C176 C181 1.304 . S
C176 O214 1.435 . S
C177 C176 1.309 . S
C177 C178 1.476 . S
C177 H241 0.930 . S
C178 C177 1.476 . S
C178 C179 1.400 . S
C178 C182 1.567 1_545 S
C179 C178 1.400 . S
C179 C180 1.373 . S
C179 C201 1.432 . S
C180 C179 1.373 . S
C180 C181 1.339 . S
C180 C183 1.530 . S
C181 C176 1.304 . S
C181 C180 1.339 . S
C181 H242 0.930 . S
C182 C178 1.567 1_565 S
C182 H243 0.961 . S
C182 H244 0.960 . S
C182 H245 0.958 . S
C183 C180 1.530 . S
C183 H246 0.961 . S
C183 H247 0.960 . S
C183 H248 0.960 . S
C184 C185 1.530 . S
C184 H250 0.961 . S
C184 H251 0.961 1_545 S
C184 H252 0.959 1_545 S
C185 C184 1.530 . S
C185 O213 1.412 . S
C185 H249 0.980 . S
C186 C187 1.288 1_545 S
C186 C191 1.377 . S
C186 O213 1.393 . S
C187 C186 1.288 1_565 S
C187 C188 1.369 . S
C187 H253 0.932 . S
C188 C187 1.369 . S
C188 C189 1.398 1_565 S
C188 C192 1.527 . S
C189 C188 1.398 1_545 S
C189 C190 1.380 . S
C189 C203 1.497 . S
C190 C189 1.380 . S
C190 C191 1.383 . S
C190 C193 1.603 . S
C191 C186 1.377 . S
C191 C190 1.383 . S
C191 H254 0.929 . S
C192 C188 1.527 . S
C192 H255 0.961 . S
C192 H256 0.959 . S
C192 H257 0.959 . S
C193 C190 1.603 . S
C193 H258 0.960 . S
C193 H259 0.962 . S
C193 H260 0.961 . S
C194 C161 1.587 . S
C194 C195 1.360 . S
C194 C207 1.412 . S
C195 C194 1.360 . S
C195 C196 1.365 . S
C195 H261 0.929 . S
C196 C171 1.553 . S
C196 C195 1.365 . S
C196 C197 1.404 . S
C197 C196 1.404 . S
C197 C198 1.395 . S
C197 C208 1.451 . S
C198 C197 1.395 . S
C198 C199 1.322 . S
C198 H262 0.930 . S
C199 C198 1.322 . S
C199 C200 1.459 . S
C199 H263 0.929 . S
C200 C199 1.459 . S
C200 C201 1.445 . S
C200 C209 1.395 . S
C201 C179 1.432 . S
C201 C200 1.445 . S
C201 C202 1.370 . S
C202 C201 1.370 . S
C202 C203 1.438 . S
C202 H264 0.930 . S
C203 C189 1.497 . S
C203 C202 1.438 . S
C203 C204 1.360 . S
C204 C203 1.360 . S
C204 C205 1.401 . S
C204 C209 1.446 . S
C205 C204 1.401 . S
C205 C206 1.347 . S
C205 H265 0.929 . S
C206 C205 1.347 . S
C206 C207 1.455 . S
C206 H266 0.930 . S
C207 C194 1.412 . S
C207 C206 1.455 . S
C207 C208 1.331 . S
C208 C197 1.451 . S
C208 C207 1.331 . S
C208 C209 1.497 . S
C209 C200 1.395 . S
C209 C204 1.446 . S
C209 C208 1.497 . S
C210 C211 1.582 . S
C210 H267 0.962 . S
C210 H268 0.959 . S
C210 H269 0.958 . S
C211 C210 1.582 . S
C211 O214 1.458 . S
C211 H240 0.980 . S
O212 C157 1.439 . S
O212 C158 1.334 . S
O213 C185 1.412 . S
O213 C186 1.393 . S
O214 C176 1.435 . S
O214 C211 1.458 . S
O215 C167 1.468 . S
O215 C168 1.408 . S
H216 C157 0.980 . S
H217 C156 0.959 . S
H218 C156 0.959 . S
H219 C156 0.960 1_545 S
H220 C159 0.929 . S
H221 C163 0.929 . S
H222 C164 0.959 . S
H223 C164 0.961 . S
H224 C164 0.961 . S
H225 C165 0.960 . S
H226 C165 0.960 . S
H227 C165 0.961 . S
H228 C167 0.980 . S
H229 C166 0.961 . S
H230 C166 0.960 . S
H231 C166 0.959 . S
H232 C169 0.930 . S
H233 C173 0.931 . S
H234 C174 0.959 . S
H235 C174 0.961 1_565 S
H236 C174 0.959 1_565 S
H237 C175 0.960 . S
H238 C175 0.960 . S
H239 C175 0.960 . S
H240 C211 0.980 . S
H241 C177 0.930 . S
H242 C181 0.930 . S
H243 C182 0.961 . S
H244 C182 0.960 . S
H245 C182 0.958 . S
H246 C183 0.961 . S
H247 C183 0.960 . S
H248 C183 0.960 . S
H249 C185 0.980 . S
H250 C184 0.961 . S
H251 C184 0.961 1_565 S
H252 C184 0.959 1_565 S
H253 C187 0.932 . S
H254 C191 0.929 . S
H255 C192 0.961 . S
H256 C192 0.959 . S
H257 C192 0.959 . S
H258 C193 0.960 . S
H259 C193 0.962 . S
H260 C193 0.961 . S
H261 C195 0.929 . S
H262 C198 0.930 . S
H263 C199 0.929 . S
H264 C202 0.930 . S
H265 C205 0.929 . S
H266 C206 0.930 . S
H267 C210 0.962 . S
H268 C210 0.959 . S
H269 C210 0.958 . S
C270 C271 1.560 . S
C270 H331 0.959 . S
C270 H332 0.959 . S
C270 H333 0.960 . S
C271 C270 1.560 . S
C271 O326 1.426 . S
C271 H330 0.980 . S
C272 C273 1.407 . S
C272 C277 1.418 . S
C272 O326 1.334 . S
C273 C272 1.407 . S
C273 C274 1.360 . S
C273 H334 0.929 . S
C274 C273 1.360 . S
C274 C275 1.401 . S
C274 C278 1.527 . S
C275 C274 1.401 . S
C275 C276 1.405 . S
C275 C308 1.587 . S
C276 C275 1.405 . S
C276 C277 1.332 . S
C276 C279 1.496 . S
C277 C272 1.418 . S
C277 C276 1.332 . S
C277 H335 0.929 . S
C278 C274 1.527 . S
C278 H336 0.959 . S
C278 H337 0.961 . S
C278 H338 0.961 . S
C279 C276 1.496 . S
C279 H339 0.960 . S
C279 H340 0.960 . S
C279 H341 0.961 . S
C280 C281 1.517 . S
C280 H343 0.961 . S
C280 H344 0.960 . S
C280 H345 0.959 . S
C281 C280 1.517 . S
C281 O329 1.468 . S
C281 H342 0.980 . S
C282 C283 1.349 . S
C282 C287 1.367 . S
C282 O329 1.408 . S
C283 C282 1.349 . S
C283 C284 1.407 . S
C283 H346 0.930 . S
C284 C283 1.407 . S
C284 C285 1.449 . S
C284 C288 1.535 . S
C285 C284 1.449 . S
C285 C286 1.384 . S
C285 C310 1.553 . S
C286 C285 1.384 . S
C286 C287 1.364 . S
C286 C289 1.450 . S
C287 C282 1.367 . S
C287 C286 1.364 . S
C287 H347 0.931 . S
C288 C284 1.535 . S
C288 H348 0.959 . S
C288 H349 0.961 . S
C288 H350 0.959 . S
C289 C286 1.450 . S
C289 H351 0.960 . S
C289 H352 0.960 . S
C289 H353 0.960 . S
C290 C291 1.309 . S
C290 C295 1.304 . S
C290 O328 1.435 . S
C291 C290 1.309 . S
C291 C292 1.476 . S
C291 H355 0.930 . S
C292 C291 1.476 . S
C292 C293 1.400 . S
C292 C296 1.567 . S
C293 C292 1.400 . S
C293 C294 1.373 . S
C293 C315 1.432 . S
C294 C293 1.373 . S
C294 C295 1.339 . S
C294 C297 1.530 . S
C295 C290 1.304 . S
C295 C294 1.339 . S
C295 H356 0.930 . S
C296 C292 1.567 . S
C296 H357 0.961 . S
C296 H358 0.960 . S
C296 H359 0.958 . S
C297 C294 1.530 . S
C297 H360 0.961 . S
C297 H361 0.960 . S
C297 H362 0.960 . S
C298 C299 1.530 1_554 S
C298 H364 0.961 . S
C298 H365 0.961 1_554 S
C298 H366 0.959 . S
C299 C298 1.530 1_556 S
C299 O327 1.412 . S
C299 H363 0.980 . S
C300 C301 1.288 . S
C300 C305 1.377 . S
C300 O327 1.393 . S
C301 C300 1.288 . S
C301 C302 1.369 . S
C301 H367 0.932 . S
C302 C301 1.369 . S
C302 C303 1.398 . S
C302 C306 1.527 . S
C303 C302 1.398 . S
C303 C304 1.380 . S
C303 C317 1.497 . S
C304 C303 1.380 . S
C304 C305 1.383 . S
C304 C307 1.603 . S
C305 C300 1.377 . S
C305 C304 1.383 . S
C305 H368 0.929 . S
C306 C302 1.527 . S
C306 H369 0.961 . S
C306 H370 0.959 . S
C306 H371 0.959 . S
C307 C304 1.603 . S
C307 H372 0.960 . S
C307 H373 0.962 . S
C307 H374 0.961 . S
C308 C275 1.587 . S
C308 C309 1.360 . S
C308 C321 1.412 . S
C309 C308 1.360 . S
C309 C310 1.365 . S
C309 H375 0.929 . S
C310 C285 1.553 . S
C310 C309 1.365 . S
C310 C311 1.404 . S
C311 C310 1.404 . S
C311 C312 1.395 . S
C311 C322 1.451 . S
C312 C311 1.395 . S
C312 C313 1.322 . S
C312 H376 0.930 . S
C313 C312 1.322 . S
C313 C314 1.459 . S
C313 H377 0.929 . S
C314 C313 1.459 . S
C314 C315 1.445 . S
C314 C323 1.395 . S
C315 C293 1.432 . S
C315 C314 1.445 . S
C315 C316 1.370 . S
C316 C315 1.370 . S
C316 C317 1.438 . S
C316 H378 0.930 . S
C317 C303 1.497 . S
C317 C316 1.438 . S
C317 C318 1.360 . S
C318 C317 1.360 . S
C318 C319 1.401 . S
C318 C323 1.446 . S
C319 C318 1.401 . S
C319 C320 1.347 . S
C319 H379 0.929 . S
C320 C319 1.347 . S
C320 C321 1.455 . S
C320 H380 0.930 . S
C321 C308 1.412 . S
C321 C320 1.455 . S
C321 C322 1.331 . S
C322 C311 1.451 . S
C322 C321 1.331 . S
C322 C323 1.497 . S
C323 C314 1.395 . S
C323 C318 1.446 . S
C323 C322 1.497 . S
C324 C325 1.582 1_554 S
C324 H381 0.961 . S
C324 H382 0.959 1_554 S
C324 H383 0.958 . S
C325 C324 1.582 1_556 S
C325 O328 1.458 . S
C325 H354 0.980 . S
O326 C271 1.426 . S
O326 C272 1.334 . S
O327 C299 1.412 . S
O327 C300 1.393 . S
O328 C290 1.435 . S
O328 C325 1.458 . S
O329 C281 1.468 . S
O329 C282 1.408 . S
H330 C271 0.980 . S
H331 C270 0.959 . S
H332 C270 0.959 . S
H333 C270 0.960 . S
H334 C273 0.929 . S
H335 C277 0.929 . S
H336 C278 0.959 . S
H337 C278 0.961 . S
H338 C278 0.961 . S
H339 C279 0.960 . S
H340 C279 0.960 . S
H341 C279 0.961 . S
H342 C281 0.980 . S
H343 C280 0.961 . S
H344 C280 0.960 . S
H345 C280 0.959 . S
H346 C283 0.930 . S
H347 C287 0.931 . S
H348 C288 0.959 . S
H349 C288 0.961 . S
H350 C288 0.959 . S
H351 C289 0.960 . S
H352 C289 0.960 . S
H353 C289 0.960 . S
H354 C325 0.980 . S
H355 C291 0.930 . S
H356 C295 0.930 . S
H357 C296 0.961 . S
H358 C296 0.960 . S
H359 C296 0.958 . S
H360 C297 0.961 . S
H361 C297 0.960 . S
H362 C297 0.960 . S
H363 C299 0.980 . S
H364 C298 0.961 . S
H365 C298 0.961 1_556 S
H366 C298 0.959 . S
H367 C301 0.932 . S
H368 C305 0.929 . S
H369 C306 0.961 . S
H370 C306 0.959 . S
H371 C306 0.959 . S
H372 C307 0.960 . S
H373 C307 0.962 . S
H374 C307 0.961 . S
H375 C309 0.929 . S
H376 C312 0.930 . S
H377 C313 0.929 . S
H378 C316 0.930 . S
H379 C319 0.929 . S
H380 C320 0.930 . S
H381 C324 0.961 . S
H382 C324 0.959 1_556 S
H383 C324 0.958 . S
C384 C385 1.363 . S
C384 C390 1.379 . S
C384 N392 1.356 . S
C385 C384 1.363 . S
C385 C391 1.363 1_455 S
C386 C387 1.363 1_655 S
C386 C391 1.379 . S
C386 N393 1.356 . S
C387 C386 1.363 1_455 S
C387 C390 1.363 . S
N388 C390 1.356 . S
N388 H400 0.984 . S
N388 H401 0.985 . S
N389 C391 1.356 . S
N389 H394 0.984 . S
N389 H395 0.985 . S
C390 C384 1.379 . S
C390 C387 1.363 . S
C390 N388 1.356 . S
C391 C385 1.363 1_655 S
C391 C386 1.379 . S
C391 N389 1.356 . S
N392 C384 1.356 . S
N392 H398 0.984 . S
N392 H399 0.984 . S
N393 C386 1.356 . S
N393 H396 0.984 . S
N393 H397 0.985 . S
H394 N389 0.984 . S
H395 N389 0.985 . S
H396 N393 0.984 . S
H397 N393 0.985 . S
H398 N392 0.984 . S
H399 N392 0.984 . S
H400 N388 0.984 . S
H401 N388 0.985 . S
C402 C403 1.363 . S
C402 C408 1.379 . S
C402 N410 1.356 . S
C403 C402 1.363 . S
C403 C409 1.363 . S
C404 C405 1.363 . S
C404 C409 1.379 . S
C404 N411 1.356 1_545 S
C405 C404 1.363 . S
C405 C408 1.363 . S
N406 C408 1.356 . S
N406 H418 0.984 . S
N406 H419 0.985 . S
N407 C409 1.356 1_565 S
N407 H412 0.984 . S
N407 H413 0.985 . S
C408 C402 1.379 . S
C408 C405 1.363 . S
C408 N406 1.356 . S
C409 C403 1.363 . S
C409 C404 1.379 . S
C409 N407 1.356 1_545 S
N410 C402 1.356 . S
N410 H416 0.984 . S
N410 H417 0.984 . S
N411 C404 1.356 1_565 S
N411 H414 0.984 . S
N411 H415 0.985 . S
H412 N407 0.984 . S
H413 N407 0.985 . S
H414 N411 0.984 . S
H415 N411 0.985 . S
H416 N410 0.984 . S
H417 N410 0.984 . S
H418 N406 0.984 . S
H419 N406 0.985 . S
C420 C421 1.363 . S
C420 C426 1.379 . S
C420 N428 1.356 . S
C421 C420 1.363 . S
C421 C427 1.363 . S
C422 C423 1.363 . S
C422 C427 1.379 . S
C422 N429 1.356 . S
C423 C422 1.363 . S
C423 C426 1.363 . S
N424 C426 1.356 . S
N424 H436 0.984 . S
N424 H437 0.985 . S
N425 C427 1.356 . S
N425 H430 0.984 . S
N425 H431 0.985 . S
C426 C420 1.379 . S
C426 C423 1.363 . S
C426 N424 1.356 . S
C427 C421 1.363 . S
C427 C422 1.379 . S
C427 N425 1.356 . S
N428 C420 1.356 . S
N428 H434 0.984 . S
N428 H435 0.984 . S
N429 C422 1.356 . S
N429 H432 0.984 . S
N429 H433 0.985 . S
H430 N425 0.984 . S
H431 N425 0.985 . S
H432 N429 0.984 . S
H433 N429 0.985 . S
H434 N428 0.984 . S
H435 N428 0.984 . S
H436 N424 0.984 . S
H437 N424 0.985 . S
C438 C439 1.363 1_655 S
C438 C444 1.373 1_655 S
C438 N446 1.356 . S
C439 C438 1.363 1_455 S
C439 C445 1.363 . S
C440 C441 1.363 . S
C440 C445 1.379 . S
C440 N447 1.356 . S
C441 C440 1.363 . S
C441 C444 1.375 . S
N442 C444 1.353 1_655 S
N442 H454 0.984 . S
N442 H455 0.985 . S
N443 C445 1.356 . S
N443 H448 0.984 . S
N443 H449 0.985 . S
C444 C438 1.373 1_455 S
C444 C441 1.375 . S
C444 N442 1.353 1_455 S
C445 C439 1.363 . S
C445 C440 1.379 . S
C445 N443 1.356 . S
N446 C438 1.356 . S
N446 H452 0.984 . S
N446 H453 0.984 . S
N447 C440 1.356 . S
N447 H450 0.984 . S
N447 H451 0.985 . S
H448 N443 0.984 . S
H449 N443 0.985 . S
H450 N447 0.984 . S
H451 N447 0.985 . S
H452 N446 0.984 . S
H453 N446 0.984 . S
H454 N442 0.984 . S
H455 N442 0.985 . S
C456 C457 1.363 . S
C456 C462 1.379 . S
C456 N464 1.356 . S
C457 C456 1.363 . S
C457 C463 1.363 . S
C458 C459 1.363 . S
C458 C463 1.379 . S
C458 N465 1.356 . S
C459 C458 1.363 . S
C459 C462 1.363 . S
N460 C462 1.356 . S
N460 H472 0.984 . S
N460 H473 0.985 . S
N461 C463 1.356 1_565 S
N461 H466 0.976 1_565 S
N461 H467 0.985 . S
C462 C456 1.379 . S
C462 C459 1.363 . S
C462 N460 1.356 . S
C463 C457 1.363 . S
C463 C458 1.379 . S
C463 N461 1.356 1_545 S
N464 C456 1.356 . S
N464 H470 0.984 . S
N464 H471 0.984 . S
N465 C458 1.356 . S
N465 H468 0.984 . S
N465 H469 0.985 1_545 S
H466 N461 0.976 1_545 S
H467 N461 0.985 . S
H468 N465 0.984 . S
H469 N465 0.985 1_565 S
H470 N464 0.984 . S
H471 N464 0.984 . S
H472 N460 0.984 . S
H473 N460 0.985 . S
C474 C475 1.363 . S
C474 C480 1.379 . S
C474 N482 1.356 . S
C475 C474 1.363 . S
C475 C481 1.363 . S
C476 C477 1.363 . S
C476 C481 1.379 . S
C476 N483 1.356 . S
C477 C476 1.363 . S
C477 C480 1.363 . S
N478 C480 1.356 . S
N478 H490 0.984 . S
N478 H491 0.985 . S
N479 C481 1.356 . S
N479 H484 0.984 . S
N479 H485 0.985 . S
C480 C474 1.379 . S
C480 C477 1.363 . S
C480 N478 1.356 . S
C481 C475 1.363 . S
C481 C476 1.379 . S
C481 N479 1.356 . S
N482 C474 1.356 . S
N482 H488 0.984 . S
N482 H489 0.984 . S
N483 C476 1.356 . S
N483 H486 0.984 . S
N483 H487 0.985 . S
H484 N479 0.984 . S
H485 N479 0.985 . S
H486 N483 0.984 . S
H487 N483 0.985 . S
H488 N482 0.984 . S
H489 N482 0.984 . S
H490 N478 0.984 . S
H491 N478 0.985 . S
C492 C493 1.363 . S
C492 C498 1.379 . S
C492 N500 1.356 . S
C493 C492 1.363 . S
C493 C499 1.363 . S
C494 C495 1.363 . S
C494 C499 1.379 . S
C494 N501 1.357 . S
C495 C494 1.363 . S
C495 C498 1.363 . S
N496 C498 1.356 . S
N496 H508 0.984 . S
N496 H509 0.985 . S
N497 C499 1.356 1_565 S
N497 H502 0.984 . S
N497 H503 0.985 . S
C498 C492 1.379 . S
C498 C495 1.363 . S
C498 N496 1.356 . S
C499 C493 1.363 . S
C499 C494 1.379 . S
C499 N497 1.356 1_545 S
N500 C492 1.356 . S
N500 H506 0.984 . S
N500 H507 0.984 . S
N501 C494 1.357 . S
N501 H504 0.987 . S
N501 H505 0.981 1_545 S
H502 N497 0.984 . S
H503 N497 0.985 . S
H504 N501 0.987 . S
H505 N501 0.981 1_565 S
H506 N500 0.984 . S
H507 N500 0.984 . S
H508 N496 0.984 . S
H509 N496 0.985 . S
C510 C511 1.363 . S
C510 C516 1.379 . S
C510 N518 1.356 1_565 S
C511 C510 1.363 . S
C511 C517 1.363 . S
C512 C513 1.363 . S
C512 C517 1.379 . S
C512 N519 1.356 . S
C513 C512 1.363 . S
C513 C516 1.363 . S
N514 C516 1.356 1_556 S
N514 H526 0.984 . S
N514 H527 0.985 . S
N515 C517 1.356 . S
N515 H520 0.984 . S
N515 H521 0.985 . S
C516 C510 1.379 . S
C516 C513 1.363 . S
C516 N514 1.356 1_554 S
C517 C511 1.363 . S
C517 C512 1.379 . S
C517 N515 1.356 . S
N518 C510 1.356 1_545 S
N518 H524 0.984 . S
N518 H525 0.984 . S
N519 C512 1.356 . S
N519 H522 0.984 . S
N519 H523 0.985 . S
H520 N515 0.984 . S
H521 N515 0.985 . S
H522 N519 0.984 . S
H523 N519 0.985 . S
H524 N518 0.984 . S
H525 N518 0.984 . S
H526 N514 0.984 . S
H527 N514 0.985 . S
C528 C529 1.363 . S
C528 C534 1.379 . S
C528 N536 1.356 1_455 S
C529 C528 1.363 . S
C529 C535 1.363 . S
C530 C531 1.363 . S
C530 C535 1.379 . S
C530 N537 1.356 . S
C531 C530 1.363 . S
C531 C534 1.363 . S
N532 C534 1.356 1_655 S
N532 H544 0.984 . S
N532 H545 0.985 1_655 S
N533 C535 1.356 . S
N533 H538 0.984 . S
N533 H539 0.985 . S
C534 C528 1.379 . S
C534 C531 1.363 . S
C534 N532 1.356 1_455 S
C535 C529 1.363 . S
C535 C530 1.379 . S
C535 N533 1.356 . S
N536 C528 1.356 1_655 S
N536 H542 0.984 . S
N536 H543 0.984 . S
N537 C530 1.356 . S
N537 H540 0.984 . S
N537 H541 0.985 . S
H538 N533 0.984 . S
H539 N533 0.985 . S
H540 N537 0.984 . S
H541 N537 0.985 . S
H542 N536 0.984 . S
H543 N536 0.984 . S
H544 N532 0.984 . S
H545 N532 0.985 1_455 S
C546 C547 1.363 . S
C546 C552 1.379 . S
C546 N554 1.356 1_545 S
C547 C546 1.363 . S
C547 C553 1.363 . S
C548 C549 1.363 . S
C548 C553 1.379 . S
C548 N555 1.356 . S
C549 C548 1.363 . S
C549 C552 1.363 . S
N550 C552 1.356 1_565 S
N550 H562 0.984 . S
N550 H563 0.985 . S
N551 C553 1.356 . S
N551 H556 0.984 . S
N551 H557 0.985 . S
C552 C546 1.379 . S
C552 C549 1.363 . S
C552 N550 1.356 1_545 S
C553 C547 1.363 . S
C553 C548 1.379 . S
C553 N551 1.356 . S
N554 C546 1.356 1_565 S
N554 H560 0.984 . S
N554 H561 0.984 . S
N555 C548 1.356 . S
N555 H558 0.984 . S
N555 H559 0.985 . S
H556 N551 0.984 . S
H557 N551 0.985 . S
H558 N555 0.984 . S
H559 N555 0.985 . S
H560 N554 0.984 . S
H561 N554 0.984 . S
H562 N550 0.984 . S
H563 N550 0.985 . S
C564 C565 1.363 . S
C564 C570 1.379 . S
C564 N572 1.356 . S
C565 C564 1.363 . S
C565 C571 1.363 . S
C566 C567 1.363 . S
C566 C571 1.379 . S
C566 N573 1.356 1_554 S
C567 C566 1.363 . S
C567 C570 1.363 . S
N568 C570 1.356 . S
N568 H580 0.984 . S
N568 H581 1.008 . S
N569 C571 1.356 . S
N569 H574 0.984 . S
N569 H575 0.985 . S
C570 C564 1.379 . S
C570 C567 1.363 . S
C570 N568 1.356 . S
C571 C565 1.363 . S
C571 C566 1.379 . S
C571 N569 1.356 . S
N572 C564 1.356 . S
N572 H578 0.984 . S
N572 H579 0.984 . S
N573 C566 1.356 1_556 S
N573 H576 0.984 . S
N573 H577 0.985 . S
H574 N569 0.984 . S
H575 N569 0.985 . S
H576 N573 0.984 . S
H577 N573 0.985 . S
H578 N572 0.984 . S
H579 N572 0.984 . S
H580 N568 0.984 . S
H581 N568 1.008 . S
C582 C583 1.363 . S
C582 C588 1.379 . S
C582 N590 1.356 . S
C583 C582 1.363 . S
C583 C589 1.363 . S
C584 C585 1.363 . S
C584 C589 1.379 . S
C584 N591 1.356 . S
C585 C584 1.363 . S
C585 C588 1.363 . S
N586 C588 1.356 . S
N586 H598 0.984 . S
N586 H599 0.985 . S
N587 C589 1.356 . S
N587 H592 0.984 . S
N587 H593 0.985 . S
C588 C582 1.379 . S
C588 C585 1.363 . S
C588 N586 1.356 . S
C589 C583 1.363 . S
C589 C584 1.379 . S
C589 N587 1.356 . S
N590 C582 1.356 . S
N590 H596 0.984 . S
N590 H597 0.984 . S
N591 C584 1.356 . S
N591 H594 0.984 . S
N591 H595 0.985 . S
H592 N587 0.984 . S
H593 N587 0.985 . S
H594 N591 0.984 . S
H595 N591 0.985 . S
H596 N590 0.984 . S
H597 N590 0.984 . S
H598 N586 0.984 . S
H599 N586 0.985 . S
C387 C97 1.160 . S
C385 C0 1.538 . S
C403 C25 1.566 . S
C405 C211 1.169 . S
C421 C33 1.382 . S
C423 C271 1.071 . S
C439 C11 1.396 . S
C441 C71 1.083 . S
C459 C185 1.128 . S
C457 C14 1.444 . S
C475 C37 1.540 . S
C477 C281 0.965 . S
C495 C167 0.906 . S
C493 C28 1.503 . S
C511 C9 1.486 . S
C513 C299 1.117 1_554 S
C531 C43 1.117 . S
C529 C19 1.401 . S
C549 C157 1.082 . S
C547 C39 1.362 . S
C567 C325 1.221 1_554 S
C565 C5 1.579 . S
C583 C23 1.560 . S
C585 C53 0.942 . S
