# Generated by pormake.
# Topology zzz, (3,6)-cn, num edge types: 1
# Building blocks:
#     Node 0, Type 0, BuildingBlock: KAKCAD_clean_linker_0, # of connection points: 3
#     Node 1, Type 0, BuildingBlock: KAKCAD_clean_linker_0, # of connection points: 3
#     Node 2, Type 0, BuildingBlock: KAKCAD_clean_linker_0, # of connection points: 3
#     Node 3, Type 0, BuildingBlock: KAKCAD_clean_linker_0, # of connection points: 3
#     Node 4, Type 0, BuildingBlock: KAKCAD_clean_linker_0, # of connection points: 3
#     Node 5, Type 0, BuildingBlock: KAKCAD_clean_linker_0, # of connection points: 3
#     Node 6, Type 0, BuildingBlock: KAKCAD_clean_linker_0, # of connection points: 3
#     Node 7, Type 0, BuildingBlock: KAKCAD_clean_linker_0, # of connection points: 3
#     Node 8, Type 1, BuildingBlock: BETFEN_clean_sbu_0, # of connection points: 6
#     Node 9, Type 1, BuildingBlock: BETFEN_clean_sbu_0, # of connection points: 6
#     Node 10, Type 1, BuildingBlock: BETFEN_clean_sbu_0, # of connection points: 6
#     Node 11, Type 1, BuildingBlock: BETFEN_clean_sbu_0, # of connection points: 6
#     Edge 12, Type (0, 1), BuildingBlock: MIFKUJ_clean_linker_0, # of connection points: 2
#     Edge 13, Type (0, 1), BuildingBlock: MIFKUJ_clean_linker_0, # of connection points: 2
#     Edge 14, Type (0, 1), BuildingBlock: MIFKUJ_clean_linker_0, # of connection points: 2
#     Edge 15, Type (0, 1), BuildingBlock: MIFKUJ_clean_linker_0, # of connection points: 2
#     Edge 16, Type (0, 1), BuildingBlock: MIFKUJ_clean_linker_0, # of connection points: 2
#     Edge 17, Type (0, 1), BuildingBlock: MIFKUJ_clean_linker_0, # of connection points: 2
#     Edge 18, Type (0, 1), BuildingBlock: MIFKUJ_clean_linker_0, # of connection points: 2
#     Edge 19, Type (0, 1), BuildingBlock: MIFKUJ_clean_linker_0, # of connection points: 2
#     Edge 20, Type (0, 1), BuildingBlock: MIFKUJ_clean_linker_0, # of connection points: 2
#     Edge 21, Type (0, 1), BuildingBlock: MIFKUJ_clean_linker_0, # of connection points: 2
#     Edge 22, Type (0, 1), BuildingBlock: MIFKUJ_clean_linker_0, # of connection points: 2
#     Edge 23, Type (0, 1), BuildingBlock: MIFKUJ_clean_linker_0, # of connection points: 2
#     Edge 24, Type (0, 1), BuildingBlock: MIFKUJ_clean_linker_0, # of connection points: 2
#     Edge 25, Type (0, 1), BuildingBlock: MIFKUJ_clean_linker_0, # of connection points: 2
#     Edge 26, Type (0, 1), BuildingBlock: MIFKUJ_clean_linker_0, # of connection points: 2
#     Edge 27, Type (0, 1), BuildingBlock: MIFKUJ_clean_linker_0, # of connection points: 2
#     Edge 28, Type (0, 1), BuildingBlock: MIFKUJ_clean_linker_0, # of connection points: 2
#     Edge 29, Type (0, 1), BuildingBlock: MIFKUJ_clean_linker_0, # of connection points: 2
#     Edge 30, Type (0, 1), BuildingBlock: MIFKUJ_clean_linker_0, # of connection points: 2
#     Edge 31, Type (0, 1), BuildingBlock: MIFKUJ_clean_linker_0, # of connection points: 2
#     Edge 32, Type (0, 1), BuildingBlock: MIFKUJ_clean_linker_0, # of connection points: 2
#     Edge 33, Type (0, 1), BuildingBlock: MIFKUJ_clean_linker_0, # of connection points: 2
#     Edge 34, Type (0, 1), BuildingBlock: MIFKUJ_clean_linker_0, # of connection points: 2
#     Edge 35, Type (0, 1), BuildingBlock: MIFKUJ_clean_linker_0, # of connection points: 2
# Relax obj value: 0.415
# Max RMSD: 0.273
# Mean RMSD: 0.251
data_MOF--net-zzz--node1-BETFEN_clean_sbu_0--node2-KAKCAD_clean_linker_0--edge1-MIFKUJ_clean_linker_0
_symmetry_space_group_name_H-M    P1
_symmetry_Int_Tables_number       1
_symmetry_cell_setting            triclinic
loop_
_symmetry_equiv_pos_as_xyz
'x, y, z'
_cell_length_a     75.448497
_cell_length_b     75.400754
_cell_length_c     22.800353
_cell_angle_alpha  89.959936
_cell_angle_beta   89.96765
_cell_angle_gamma 90.011578
loop_
_atom_site_label
_atom_site_type_symbol
_atom_site_fract_x
_atom_site_fract_y
_atom_site_fract_z
_atom_type_partial_charge
C0 C 0.74214 0.46749 0.03895 0.0
C1 C 0.75583 0.45565 0.05355 0.0
C2 C 0.73183 0.47521 0.08284 0.0
C3 C 0.73482 0.47101 0.14214 0.0
C4 C 0.74686 0.4574 0.15581 0.0
C5 C 0.75734 0.44985 0.11198 0.0
C6 C 0.72769 0.48271 0.18896 0.0
C7 C 0.71087 0.49033 0.18375 0.0
C8 C 0.70541 0.504 0.22137 0.0
C9 C 0.71693 0.50991 0.26625 0.0
C10 C 0.73356 0.50156 0.27406 0.0
C11 C 0.73873 0.48815 0.235 0.0
C12 C 0.74657 0.50681 0.32001 0.0
C13 C 0.75495 0.52343 0.31818 0.0
C14 C 0.75345 0.49371 0.35752 0.0
C15 C 0.76899 0.49669 0.38953 0.0
C16 C 0.77817 0.51288 0.38488 0.0
C17 C 0.68803 0.51231 0.20848 0.0
C18 C 0.68739 0.52798 0.17525 0.0
C19 C 0.67254 0.50212 0.21424 0.0
C20 C 0.65705 0.50681 0.18413 0.0
C21 C 0.65677 0.52171 0.14689 0.0
C22 C 0.67192 0.53263 0.14474 0.0
C23 C 0.7706 0.52644 0.35025 0.0
H24 H 0.74038 0.47191 0.99411 0.0
H25 H 0.72265 0.48559 0.07046 0.0
H26 H 0.74911 0.45349 0.20092 0.0
H27 H 0.7677 0.44072 0.12491 0.0
H28 H 0.70216 0.48612 0.14856 0.0
H29 H 0.75196 0.48266 0.2387 0.0
H30 H 0.71296 0.52065 0.29487 0.0
H31 H 0.75011 0.53367 0.28897 0.0
H32 H 0.74739 0.48068 0.35915 0.0
H33 H 0.77436 0.48582 0.41497 0.0
H34 H 0.69927 0.53584 0.16902 0.0
H35 H 0.67283 0.48975 0.23842 0.0
H36 H 0.7771 0.53918 0.34622 0.0
H37 H 0.67211 0.54432 0.11711 0.0
H38 H 0.64575 0.49798 0.18655 0.0
C39 C 0.02279 0.74689 0.01254 0.0
C40 C 0.03749 0.75824 0.01704 0.0
C41 C 0.01525 0.73947 0.06271 0.0
C42 C 0.02228 0.74316 0.1185 0.0
C43 C 0.03764 0.75362 0.12267 0.0
C44 C 0.04518 0.76109 0.0724 0.0
C45 C 0.01293 0.73693 0.17199 0.0
C46 C 0.00535 0.72003 0.17335 0.0
C47 C 0.99502 0.71445 0.22094 0.0
C48 C 0.99237 0.726 0.26899 0.0
C49 C 1.00038 0.743 0.2689 0.0
C50 C 0.01058 0.74823 0.22019 0.0
C51 C 0.99814 0.75607 0.31741 0.0
C52 C 0.98149 0.76352 0.32994 0.0
C53 C 0.01324 0.76353 0.34375 0.0
C54 C 0.0119 0.77863 0.37916 0.0
C55 C 0.99542 0.78691 0.38877 0.0
C56 C 0.98738 0.69638 0.21663 0.0
C57 C 0.97345 0.69346 0.17689 0.0
C58 C 0.99754 0.68182 0.23512 0.0
C59 C 0.99486 0.665 0.21038 0.0
C60 C 0.98204 0.66241 0.1662 0.0
C61 C 0.97077 0.67667 0.15208 0.0
C62 C 0.98014 0.77879 0.3652 0.0
H63 H 0.01666 0.74439 0.9704 0.0
H64 H 1.00336 0.73155 0.0579 0.0
H65 H 0.04353 0.75646 0.16495 0.0
H66 H 0.0564 0.76992 0.07738 0.0
H67 H 0.0074 0.71108 0.13672 0.0
H68 H 0.01612 0.76149 0.21896 0.0
H69 H 0.98432 0.72182 0.30586 0.0
H70 H 0.96967 0.75824 0.30947 0.0
H71 H 0.02625 0.75809 0.33475 0.0
H72 H 0.02392 0.78412 0.39765 0.0
H73 H 0.96576 0.70456 0.16066 0.0
H74 H 0.00862 0.68379 0.26459 0.0
H75 H 0.96722 0.78475 0.37124 0.0
H76 H 0.96087 0.67532 0.11802 0.0
H77 H 0.00359 0.65428 0.22319 0.0
C78 C 0.75335 0.01239 0.0386 0.0
C79 C 0.74176 0.02692 0.03565 0.0
C80 C 0.76188 0.00826 0.09113 0.0
C81 C 0.75884 0.01853 0.14158 0.0
C82 C 0.74832 0.03381 0.13743 0.0
C83 C 0.73993 0.03803 0.0848 0.0
C84 C 0.76551 0.01249 0.19911 0.0
C85 C 0.78291 0.00656 0.20465 0.0
C86 C 0.78916 0.99959 0.25768 0.0
C87 C 0.77758 0.99834 0.30639 0.0
C88 C 0.75991 0.00455 0.30135 0.0
C89 C 0.75416 0.01164 0.24764 0.0
C90 C 0.74665 1.00349 0.34965 0.0
C91 C 0.73975 0.98705 0.36755 0.0
C92 C 0.73807 0.01905 0.36832 0.0
C93 C 0.72245 0.01823 0.40142 0.0
C94 C 0.71482 1.0018 0.41636 0.0
C95 C 0.80803 0.99422 0.25825 0.0
C96 C 0.8128 0.97824 0.23069 0.0
C97 C 0.82092 0.00753 0.26431 0.0
C98 C 0.83756 0.00571 0.23766 0.0
C99 C 0.84166 0.99052 0.20449 0.0
C100 C 0.82949 0.97636 0.2043 0.0
C101 C 0.72398 0.98621 0.40045 0.0
H102 H 0.75497 1.00364 1.00131 0.0
H103 H 0.76995 0.99639 0.09321 0.0
H104 H 0.74601 0.04207 0.17553 0.0
H105 H 0.73095 0.04923 0.08402 0.0
H106 H 0.79178 0.00743 0.16723 0.0
H107 H 0.7405 0.01592 0.243 0.0
H108 H 0.78226 0.99283 0.34744 0.0
H109 H 0.74589 0.97485 0.3529 0.0
H110 H 0.74293 0.0319 0.35429 0.0
H111 H 0.71579 0.03053 0.41213 0.0
H112 H 0.80295 0.96799 0.22392 0.0
H113 H 0.81745 0.02013 0.28403 0.0
H114 H 0.71866 0.97331 0.41176 0.0
H115 H 0.83216 0.96452 0.17892 0.0
H116 H 0.84672 0.01676 0.23932 0.0
C117 C 0.50262 0.73633 0.38467 0.0
C118 C 0.51634 0.72458 0.40108 0.0
C119 C 0.50601 0.75088 0.34758 0.0
C120 C 0.52319 0.75401 0.32615 0.0
C121 C 0.53704 0.74305 0.34584 0.0
C122 C 0.53369 0.72855 0.3824 0.0
C123 C 0.52642 0.76616 0.27555 0.0
C124 C 0.5212 0.78421 0.27483 0.0
C125 C 0.52491 0.79482 0.22507 0.0
C126 C 0.53315 0.78719 0.17608 0.0
C127 C 0.53795 0.76931 0.17586 0.0
C128 C 0.53473 0.75898 0.22573 0.0
C129 C 0.54509 0.76097 0.12209 0.0
C130 C 0.53644 0.76346 0.06825 0.0
C131 C 0.55949 0.74921 0.12513 0.0
C132 C 0.56438 0.73925 0.07613 0.0
C133 C 0.5548 0.74068 0.02341 0.0
C134 C 0.52059 0.81397 0.22101 0.0
C135 C 0.50369 0.81935 0.20229 0.0
C136 C 0.53459 0.82623 0.2188 0.0
C137 C 0.53211 0.84304 0.19413 0.0
C138 C 0.51556 0.84799 0.17091 0.0
C139 C 0.50117 0.83626 0.17777 0.0
C140 C 0.5412 0.75338 0.01944 0.0
H141 H 0.48913 0.73398 0.39892 0.0
H142 H 0.49504 0.75901 0.33287 0.0
H143 H 0.55044 0.7451 0.33005 0.0
H144 H 0.54465 0.71987 0.39299 0.0
H145 H 0.51472 0.78998 0.31269 0.0
H146 H 0.53808 0.745 0.22489 0.0
H147 H 0.53575 0.79525 0.13757 0.0
H148 H 0.52521 0.77236 0.06482 0.0
H149 H 0.56657 0.74729 0.16598 0.0
H150 H 0.57515 0.72983 0.08031 0.0
H151 H 0.49281 0.80998 0.20207 0.0
H152 H 0.54782 0.82227 0.23187 0.0
H153 H 0.53335 0.75469 0.97992 0.0
H154 H 0.48828 0.83961 0.16005 0.0
H155 H 0.54342 0.85183 0.1903 0.0
C156 C 0.23793 0.51391 0.29487 0.0
C157 C 0.22569 0.50069 0.31083 0.0
C158 C 0.24751 0.51252 0.24268 0.0
C159 C 0.24489 0.49801 0.20517 0.0
C160 C 0.23331 0.4844 0.22216 0.0
C161 C 0.22394 0.48563 0.27479 0.0
C162 C 0.25364 0.49751 0.14726 0.0
C163 C 0.27187 0.50018 0.14284 0.0
C164 C 0.28032 0.50037 0.08814 0.0
C165 C 0.27018 0.49821 0.03642 0.0
C166 C 0.25164 0.49544 0.04053 0.0
C167 C 0.24365 0.495 0.09627 0.0
C168 C 0.23984 0.49336 0.98849 0.0
C169 C 0.23789 0.50707 0.94712 0.0
C170 C 0.22788 0.47907 0.98686 0.0
C171 C 0.21351 0.47912 0.94817 0.0
C172 C 0.21067 0.49346 0.90985 0.0
C173 C 0.29982 0.50264 0.08897 0.0
C174 C 0.30679 0.51939 0.10288 0.0
C175 C 0.31062 0.48763 0.09622 0.0
C176 C 0.32749 0.48917 0.12165 0.0
C177 C 0.3338 0.50576 0.14083 0.0
C178 C 0.32361 0.52094 0.12834 0.0
C179 C 0.22344 0.50709 0.90798 0.0
H180 H 0.23944 0.52581 0.32097 0.0
H181 H 0.25636 0.52321 0.23028 0.0
H182 H 0.23132 0.47294 0.19427 0.0
H183 H 0.2149 0.47503 0.28635 0.0
H184 H 0.27962 0.50194 0.18251 0.0
H185 H 0.22942 0.49328 0.09994 0.0
H186 H 0.2766 0.4985 0.99393 0.0
H187 H 0.24677 0.51835 0.94783 0.0
H188 H 0.22905 0.4683 0.01811 0.0
H189 H 0.20415 0.46823 0.95001 0.0
H190 H 0.29857 0.53112 0.09903 0.0
H191 H 0.30536 0.47452 0.08748 0.0
H192 H 0.22164 0.51834 0.879 0.0
H193 H 0.32817 0.53396 0.14163 0.0
H194 H 0.33489 0.47718 0.13083 0.0
C195 C 0.02922 0.25874 0.29061 0.0
C196 C 0.04123 0.24459 0.29524 0.0
C197 C 0.02745 0.26792 0.23783 0.0
C198 C 0.03769 0.26311 0.18886 0.0
C199 C 0.05083 0.25006 0.19518 0.0
C200 C 0.0526 0.24087 0.24797 0.0
C201 C 0.03324 0.27023 0.13019 0.0
C202 C 0.02909 0.28811 0.12302 0.0
C203 C 0.02285 0.29461 0.06931 0.0
C204 C 0.02087 0.28289 0.02119 0.0
C205 C 0.02557 0.26477 0.02754 0.0
C206 C 0.0316 0.25874 0.08235 0.0
C207 C 0.02394 0.25129 0.97978 0.0
C208 C 0.00762 0.2478 0.95246 0.0
C209 C 0.03805 0.23945 0.97001 0.0
C210 C 0.0356 0.22384 0.93797 0.0
C211 C 0.01898 0.21959 0.91364 0.0
C212 C 0.01834 0.31374 0.06796 0.0
C213 C 1.00203 0.3192 0.09157 0.0
C214 C 0.03219 0.32615 0.0643 0.0
C215 C 0.0303 0.34313 0.08857 0.0
C216 C 0.01453 0.34805 0.11744 0.0
C217 C 1.00011 0.33618 0.11586 0.0
C218 C 0.00518 0.23216 0.91962 0.0
H219 H 0.02042 0.26196 0.32662 0.0
H220 H 0.0172 0.27791 0.23428 0.0
H221 H 0.0591 0.24632 0.15836 0.0
H222 H 0.06191 0.22996 0.25012 0.0
H223 H 0.03045 0.29708 0.15996 0.0
H224 H 0.03431 0.24473 0.08849 0.0
H225 H 0.01593 0.28779 0.97963 0.0
H226 H 0.99645 0.25657 0.95946 0.0
H227 H 0.0508 0.24174 0.99052 0.0
H228 H 0.04659 0.21466 0.9355 0.0
H229 H 0.99133 0.30973 0.09662 0.0
H230 H 0.04504 0.32215 0.04773 0.0
H231 H 0.99228 0.22969 0.90054 0.0
H232 H 0.98781 0.33938 0.13794 0.0
H233 H 0.04158 0.352 0.08797 0.0
C234 C 0.24843 0.96707 0.29764 0.0
C235 C 0.2615 0.97719 0.3257 0.0
C236 C 0.24016 0.97352 0.24715 0.0
C237 C 0.24522 0.98995 0.22338 0.0
C238 C 0.25823 1.0001 0.25163 0.0
C239 C 0.2662 0.99383 0.30276 0.0
C240 C 0.23689 0.99654 0.16921 0.0
C241 C 0.21854 0.99857 0.16668 0.0
C242 C 0.21027 0.00497 0.11591 0.0
C243 C 0.22067 0.0091 0.06604 0.0
C244 C 0.23929 0.00677 0.06817 0.0
C245 C 0.2472 1.00074 0.12017 0.0
C246 C 0.25116 0.00994 0.0173 0.0
C247 C 0.25629 0.9956 0.98186 0.0
C248 C 0.26075 0.02585 0.01351 0.0
C249 C 0.27568 0.02714 0.97705 0.0
C250 C 0.28154 0.01245 0.94402 0.0
C251 C 0.19075 0.00702 0.11871 0.0
C252 C 0.18031 0.99166 0.12339 0.0
C253 C 0.18345 0.02334 0.13611 0.0
C254 C 0.16661 0.02402 0.16241 0.0
C255 C 0.15693 0.00835 0.1724 0.0
C256 C 0.1636 0.99231 0.14995 0.0
C257 C 0.27125 0.99685 0.94545 0.0
H258 H 0.24477 0.95413 0.31444 0.0
H259 H 0.23014 0.96551 0.2258 0.0
H260 H 0.26221 0.01285 0.23408 0.0
H261 H 0.27649 1.00171 0.32329 0.0
H262 H 0.21062 0.99542 0.20508 0.0
H263 H 0.26146 0.99895 0.12207 0.0
H264 H 0.2144 0.01385 0.0263 0.0
H265 H 0.24943 0.98302 0.9853 0.0
H266 H 0.2573 0.03696 0.04141 0.0
H267 H 0.28303 0.03948 0.97644 0.0
H268 H 0.18578 0.97887 0.11151 0.0
H269 H 0.19142 0.03529 0.13446 0.0
H270 H 0.27536 0.98519 0.92133 0.0
H271 H 0.15637 0.98004 0.15635 0.0
H272 H 0.16188 0.03657 0.17941 0.0
C273 C 0.47956 0.28469 0.95612 0.0
C274 C 0.49282 0.29783 0.95751 0.0
C275 C 0.48034 0.27003 0.99442 0.0
C276 C 0.49447 0.26823 0.03434 0.0
C277 C 0.50837 0.28069 0.03185 0.0
C278 C 0.50747 0.29536 0.99447 0.0
C279 C 0.49373 0.25532 0.08423 0.0
C280 C 0.48912 0.23721 0.07726 0.0
C281 C 0.48862 0.22586 0.12673 0.0
C282 C 0.49251 0.23266 0.18243 0.0
C283 C 0.49739 0.25034 0.18957 0.0
C284 C 0.49784 0.26159 0.14079 0.0
C285 C 0.50303 0.25689 0.24762 0.0
C286 C 0.4918 0.25548 0.29655 0.0
C287 C 0.51977 0.26471 0.25403 0.0
C288 C 0.52507 0.27145 0.30815 0.0
C289 C 0.51361 0.27072 0.35668 0.0
C290 C 0.4857 0.20646 0.12317 0.0
C291 C 0.4701 0.1992 0.14694 0.0
C292 C 0.5004 0.19534 0.11482 0.0
C293 C 0.50006 0.17774 0.13472 0.0
C294 C 0.48496 0.1709 0.16315 0.0
C295 C 0.46968 0.18155 0.16627 0.0
C296 C 0.49697 0.26256 0.35063 0.0
H297 H 0.46812 0.2863 0.92795 0.0
H298 H 0.4694 0.26073 0.9953 0.0
H299 H 0.51964 0.27956 0.06106 0.0
H300 H 0.51798 0.30514 0.99588 0.0
H301 H 0.48632 0.23196 0.03405 0.0
H302 H 0.50127 0.27541 0.14731 0.0
H303 H 0.49253 0.22389 0.22022 0.0
H304 H 0.47883 0.24943 0.29243 0.0
H305 H 0.52869 0.26576 0.21692 0.0
H306 H 0.53784 0.27795 0.31137 0.0
H307 H 0.45876 0.20764 0.15535 0.0
H308 H 0.51272 0.20072 0.09802 0.0
H309 H 0.48787 0.26198 0.38736 0.0
H310 H 0.45789 0.17675 0.18826 0.0
H311 H 0.51199 0.16983 0.13116 0.0
Pr312 Pr 0.00686 0.9938 0.73652 0.0
Pr313 Pr 0.98353 0.00792 0.61856 0.0
C314 C 0.01593 0.97736 0.83602 0.0
C315 C 0.02007 0.95849 0.84477 0.0
C316 C 0.03577 0.95346 0.87317 0.0
C317 C 0.0413 0.93575 0.8723 0.0
C318 C 0.03122 0.92284 0.84273 0.0
C319 C 0.01522 0.92788 0.81604 0.0
C320 C 0.00969 0.94548 0.81715 0.0
C321 C 0.02869 1.00091 0.63858 0.0
C322 C 0.992 0.96462 0.63273 0.0
C323 C 0.977 0.02544 0.51897 0.0
C324 C 0.98561 0.0421 0.50191 0.0
C325 C 0.9783 0.05331 0.45937 0.0
C326 C 0.98525 0.07039 0.45121 0.0
C327 C 0.9994 0.07651 0.48627 0.0
C328 C 0.00685 0.06495 0.52775 0.0
C329 C 1.00011 0.04796 0.53506 0.0
C330 C 0.96168 0.99962 0.7147 0.0
C331 C 0.9994 0.03681 0.72135 0.0
O332 O 0.99944 0.98109 0.82283 0.0
O333 O 0.02743 0.98609 0.8041 0.0
O334 O 0.01218 1.003 0.64354 0.0
O335 O 0.03477 0.99498 0.68823 0.0
O336 O 0.98594 0.97747 0.59806 0.0
O337 O 0.99904 0.96758 0.68544 0.0
O338 O 0.98732 0.01144 0.52065 0.0
O339 O 0.96686 0.02688 0.56533 0.0
O340 O 0.97826 0.99852 0.71077 0.0
O341 O 0.95534 0.00494 0.66453 0.0
O342 O 0.00371 0.02399 0.75859 0.0
O343 O 0.99362 0.03365 0.66738 0.0
H344 H 0.04404 0.96333 0.89422 0.0
H345 H 0.05354 0.93222 0.89413 0.0
H346 H 0.00725 0.91835 0.79228 0.0
H347 H 0.99763 0.94899 0.7942 0.0
H348 H 0.96697 0.04908 0.43382 0.0
H349 H 0.97937 0.07886 0.41818 0.0
H350 H 0.01743 0.06918 0.55656 0.0
H351 H 0.00582 0.03967 0.56869 0.0
Pr352 Pr 0.50153 0.02164 0.71843 0.0
Pr353 Pr 0.49058 0.99449 0.60736 0.0
C354 C 0.51255 0.03285 0.82391 0.0
C355 C 0.52932 0.03094 0.85523 0.0
C356 C 0.53479 0.04413 0.89442 0.0
C357 C 0.55212 0.04411 0.91588 0.0
C358 C 0.56414 0.03092 0.89812 0.0
C359 C 0.55825 0.01718 0.86137 0.0
C360 C 0.54097 0.0172 0.84 0.0
C361 C 0.49493 0.04058 0.61438 0.0
C362 C 0.53279 0.00638 0.62485 0.0
C363 C 0.47555 0.98014 0.51288 0.0
C364 C 0.45959 0.96908 0.51411 0.0
C365 C 0.45365 0.9626 0.56847 0.0
C366 C 0.4366 0.95576 0.5743 0.0
C367 C 0.42522 0.95524 0.52578 0.0
C368 C 0.4316 0.96057 0.47044 0.0
C369 C 0.44869 0.96759 0.46473 0.0
C370 C 0.49763 0.97589 0.71199 0.0
C371 C 0.45895 0.01028 0.70005 0.0
O372 O 0.50332 0.01831 0.81669 0.0
O373 O 0.51342 0.04269 0.77667 0.0
O374 O 0.49383 0.02408 0.62244 0.0
O375 O 0.49922 0.04821 0.66355 0.0
O376 O 0.52045 1.00082 0.58752 0.0
O377 O 0.52904 0.01253 0.67824 0.0
O378 O 0.4727 0.99664 0.52839 0.0
O379 O 0.48964 0.97319 0.53758 0.0
O380 O 0.49786 0.99231 0.70299 0.0
O381 O 0.49387 0.96794 0.66306 0.0
O382 O 0.47085 0.01901 0.7317 0.0
O383 O 0.46312 1.00089 0.65271 0.0
H384 H 0.52594 0.05487 0.90619 0.0
H385 H 0.55631 0.05477 0.9445 0.0
H386 H 0.56728 0.00698 0.84628 0.0
H387 H 0.537 0.00702 0.80916 0.0
H388 H 0.46179 0.96388 0.60734 0.0
H389 H 0.43199 0.95174 0.61732 0.0
H390 H 0.42296 0.9605 0.4325 0.0
H391 H 0.45296 0.97279 0.42274 0.0
Pr392 Pr 0.48213 0.51615 0.70885 0.0
Pr393 Pr 0.50551 0.50158 0.59211 0.0
C394 C 0.47465 0.53553 0.80347 0.0
C395 C 0.48172 0.55335 0.81661 0.0
C396 C 0.47024 0.56802 0.81668 0.0
C397 C 0.47702 0.58526 0.81406 0.0
C398 C 0.49542 0.58813 0.81149 0.0
C399 C 0.50687 0.57348 0.81485 0.0
C400 C 0.50012 0.55629 0.81723 0.0
C401 C 0.46055 0.50961 0.61017 0.0
C402 C 0.49827 0.5442 0.60645 0.0
C403 C 0.51519 0.48464 0.49431 0.0
C404 C 0.52578 0.46848 0.48695 0.0
C405 C 0.53909 0.46429 0.52774 0.0
C406 C 0.54624 0.44724 0.52968 0.0
C407 C 0.54005 0.43403 0.49137 0.0
C408 C 0.52747 0.43862 0.44831 0.0
C409 C 0.52042 0.45572 0.44614 0.0
C410 C 0.5273 0.5098 0.68878 0.0
C411 C 0.49093 0.47298 0.69873 0.0
O412 O 0.48588 0.52223 0.80538 0.0
O413 O 0.46418 0.53497 0.75777 0.0
O414 O 0.47706 0.50796 0.61488 0.0
O415 O 0.45416 0.51415 0.66102 0.0
O416 O 0.50009 0.53124 0.56764 0.0
O417 O 0.49475 0.54117 0.66262 0.0
O418 O 0.49988 0.48198 0.52 0.0
O419 O 0.52358 0.49875 0.5135 0.0
O420 O 0.51071 0.51063 0.68478 0.0
O421 O 0.53364 0.5044 0.63882 0.0
O422 O 0.48433 0.48591 0.73188 0.0
O423 O 0.49838 0.47573 0.64648 0.0
H424 H 0.45601 0.5661 0.81534 0.0
H425 H 0.46786 0.59629 0.81146 0.0
H426 H 0.52109 0.57526 0.81439 0.0
H427 H 0.50938 0.54533 0.81664 0.0
H428 H 0.54325 0.47389 0.56028 0.0
H429 H 0.55608 0.4442 0.56277 0.0
H430 H 0.5222 0.42874 0.41864 0.0
H431 H 0.50995 0.45864 0.41508 0.0
Pr432 Pr 0.99103 0.49541 0.68716 0.0
Pr433 Pr 1.00222 0.52093 0.58622 0.0
C434 C 0.98087 0.4834 0.793 0.0
C435 C 0.96456 0.48439 0.82729 0.0
C436 C 0.96253 0.4737 0.87703 0.0
C437 C 0.9458 0.47153 0.90226 0.0
C438 C 0.93089 0.47988 0.87751 0.0
C439 C 0.93332 0.49164 0.83023 0.0
C440 C 0.95004 0.49389 0.80537 0.0
C441 C 0.9997 0.47439 0.58916 0.0
C442 C 0.95944 0.50969 0.59731 0.0
C443 C 0.01329 0.54016 0.49505 0.0
C444 C 0.03084 0.54861 0.4908 0.0
C445 C 0.0382 0.55683 0.54055 0.0
C446 C 0.05645 0.55953 0.54457 0.0
C447 C 0.06767 0.55405 0.49899 0.0
C448 C 0.06012 0.54735 0.44705 0.0
C449 C 0.04184 0.54464 0.44305 0.0
C450 C 0.99886 0.53633 0.69712 0.0
C451 C 0.03398 0.50414 0.66752 0.0
O452 O 0.98969 0.49822 0.78604 0.0
O453 O 0.9795 0.47412 0.74479 0.0
O454 O 1.00031 0.49108 0.59177 0.0
O455 O 0.99486 0.46794 0.63941 0.0
O456 O 0.97204 0.51664 0.56391 0.0
O457 O 0.96302 0.50207 0.64825 0.0
O458 O 0.01381 0.5228 0.49501 0.0
O459 O 1.00244 0.54662 0.53458 0.0
O460 O 0.98803 0.52553 0.67458 0.0
O461 O 0.01209 0.53936 0.66221 0.0
O462 O 0.02146 0.49959 0.70525 0.0
O463 O 0.03004 0.51026 0.61488 0.0
H464 H 0.97367 0.4663 0.89437 0.0
H465 H 0.9444 0.46268 0.93941 0.0
H466 H 0.92214 0.49817 0.80973 0.0
H467 H 0.95144 0.50215 0.76673 0.0
H468 H 0.03009 0.55994 0.57836 0.0
H469 H 0.06187 0.56496 0.58472 0.0
H470 H 0.06843 0.54285 0.41128 0.0
H471 H 0.03651 0.53806 0.40468 0.0
H472 H 0.15134 0.98632 0.26481 0.0
H473 H 0.12703 0.98644 0.33492 0.0
H474 H 0.10279 0.03016 0.24275 0.0
H475 H 0.12778 0.03052 0.17333 0.0
H476 H 0.09902 0.03591 0.35253 0.0
H477 H 0.08614 0.98569 0.23645 0.0
H478 H 0.09144 0.95768 0.18353 0.0
H479 H 0.10404 0.93165 0.34577 0.0
H480 H 0.09907 0.95957 0.39964 0.0
H481 H 0.01984 0.01537 0.53108 0.0
H482 H 0.03892 0.01863 0.44433 0.0
H483 H 0.08152 0.99301 0.53735 0.0
H484 H 0.06278 0.99047 0.62441 0.0
H485 H 0.07147 0.97929 0.41579 0.0
H486 H 0.08684 0.03267 0.52659 0.0
H487 H 0.0801 0.06123 0.57428 0.0
H488 H 0.05915 0.08138 0.4124 0.0
H489 H 0.06563 0.05284 0.3638 0.0
C490 C 0.14072 0.99581 0.25885 0.0
C491 C 0.14135 0.00821 0.2128 0.0
C492 C 0.12673 0.99585 0.29904 0.0
C493 C 0.11268 0.00799 0.29362 0.0
C494 C 0.11334 0.02054 0.24788 0.0
C495 C 0.12759 0.02072 0.20807 0.0
C496 C 0.09773 0.00771 0.33701 0.0
C497 C 0.09278 0.02354 0.36531 0.0
C498 C 0.08937 0.99165 0.35416 0.0
C499 C 0.09233 0.97478 0.32205 0.0
C500 C 0.09015 0.97402 0.26082 0.0
C501 C 0.09309 0.95816 0.23066 0.0
C502 C 0.09811 0.94291 0.26126 0.0
C503 C 0.10016 0.94348 0.32212 0.0
C504 C 0.09726 0.95932 0.35251 0.0
C505 C 0.03327 0.01067 0.53321 0.0
C506 C 0.03974 1.00285 0.58487 0.0
C507 C 0.04418 0.01248 0.48358 0.0
C508 C 0.06167 0.00611 0.48446 0.0
C509 C 0.06808 0.99806 0.53571 0.0
C510 C 0.05732 0.99663 0.58547 0.0
C511 C 0.07334 0.0073 0.43195 0.0
C512 C 0.07758 0.99164 0.40199 0.0
C513 C 0.08067 0.02353 0.4124 0.0
C514 C 0.07652 0.04056 0.44179 0.0
C515 C 0.08061 0.04311 0.50133 0.0
C516 C 0.07691 0.05932 0.52844 0.0
C517 C 0.06923 0.07311 0.49635 0.0
C518 C 0.06516 0.0707 0.43711 0.0
C519 C 0.06884 0.05451 0.40978 0.0
H520 H 0.06647 0.08568 0.51737 0.0
H521 H 0.10037 0.93064 0.23782 0.0
H522 H 0.51113 0.16017 0.23718 0.0
H523 H 0.51181 0.13412 0.30009 0.0
H524 H 0.46168 0.11689 0.22893 0.0
H525 H 0.46067 0.14357 0.16715 0.0
H526 H 0.46031 0.11201 0.33847 0.0
H527 H 0.50327 0.09507 0.19886 0.0
H528 H 0.52929 0.0976 0.13392 0.0
H529 H 0.56314 0.10434 0.28357 0.0
H530 H 0.5373 0.10211 0.34944 0.0
H531 H 0.47546 0.03211 0.51556 0.0
H532 H 0.47259 0.05003 0.42532 0.0
H533 H 0.50891 0.08855 0.49649 0.0
H534 H 0.51138 0.07113 0.58641 0.0
H535 H 0.51516 0.07726 0.37272 0.0
H536 H 0.46902 0.09845 0.50766 0.0
H537 H 0.44234 0.09388 0.56838 0.0
H538 H 0.41372 0.07562 0.41725 0.0
H539 H 0.44035 0.07987 0.3558 0.0
C540 C 0.50041 0.15067 0.23392 0.0
C541 C 0.48595 0.15387 0.1965 0.0
C542 C 0.50082 0.13567 0.26998 0.0
C543 C 0.48699 0.12315 0.26874 0.0
C544 C 0.47259 0.12622 0.23079 0.0
C545 C 0.47203 0.14145 0.1953 0.0
C546 C 0.48722 0.10759 0.30973 0.0
C547 C 0.47222 0.10418 0.34472 0.0
C548 C 0.50267 0.09716 0.31849 0.0
C549 C 0.5183 0.09853 0.2791 0.0
C550 C 0.51624 0.09722 0.21794 0.0
C551 C 0.53097 0.09858 0.18095 0.0
C552 C 0.54785 0.10116 0.2046 0.0
C553 C 0.55005 0.10235 0.26531 0.0
C554 C 0.53537 0.10101 0.3025 0.0
C555 C 0.48292 0.04431 0.51147 0.0
C556 C 0.49364 0.05023 0.55791 0.0
C557 C 0.48124 0.05455 0.46012 0.0
C558 C 0.49058 0.07062 0.4542 0.0
C559 C 0.50164 0.07619 0.49997 0.0
C560 C 0.50298 0.06624 0.55144 0.0
C561 C 0.48853 0.08222 0.4018 0.0
C562 C 0.5032 0.08488 0.36501 0.0
C563 C 0.4727 0.09165 0.39049 0.0
C564 C 0.45672 0.08925 0.42736 0.0
C565 C 0.45709 0.0933 0.48752 0.0
C566 C 0.44197 0.09081 0.52203 0.0
C567 C 0.42636 0.0844 0.49673 0.0
C568 C 0.42583 0.08054 0.43682 0.0
C569 C 0.44093 0.083 0.40213 0.0
H570 H 0.41467 0.08248 0.52352 0.0
H571 H 0.55923 0.10221 0.17589 0.0
H572 H 0.36592 0.48841 0.13165 0.0
H573 H 0.39057 0.48881 0.20175 0.0
H574 H 0.36163 0.52554 0.31067 0.0
H575 H 0.33727 0.52544 0.24064 0.0
H576 H 0.39439 0.5349 0.31157 0.0
H577 H 0.36408 0.47925 0.33806 0.0
H578 H 0.35197 0.45027 0.30787 0.0
H579 H 0.40405 0.43291 0.25814 0.0
H580 H 0.41644 0.46189 0.28737 0.0
H581 H 0.42552 0.51646 0.59832 0.0
H582 H 0.40751 0.5154 0.50934 0.0
H583 H 0.45277 0.4974 0.41058 0.0
H584 H 0.47114 0.49908 0.49969 0.0
H585 H 0.41581 0.47816 0.39607 0.0
H586 H 0.44584 0.53445 0.38265 0.0
H587 H 0.45633 0.5629 0.42302 0.0
H588 H 0.4026 0.57867 0.45674 0.0
H589 H 0.3918 0.55014 0.4176 0.0
C590 C 0.36489 0.49666 0.17036 0.0
C591 C 0.3496 0.50695 0.18023 0.0
C592 C 0.37897 0.49683 0.21061 0.0
C593 C 0.37795 0.50703 0.26224 0.0
C594 C 0.36288 0.51762 0.27127 0.0
C595 C 0.34893 0.51759 0.23089 0.0
C596 C 0.39218 0.5064 0.30796 0.0
C597 C 0.399 0.52245 0.3299 0.0
C598 C 0.39856 0.49021 0.3318 0.0
C599 C 0.39114 0.4728 0.31418 0.0
C600 C 0.37292 0.4693 0.32024 0.0
C601 C 0.36602 0.45287 0.30338 0.0
C602 C 0.37723 0.43978 0.28091 0.0
C603 C 0.39538 0.44308 0.27542 0.0
C604 C 0.40235 0.4595 0.29213 0.0
C605 C 0.43167 0.51216 0.55781 0.0
C606 C 0.44976 0.50771 0.55614 0.0
C607 C 0.42134 0.51158 0.50698 0.0
C608 C 0.42879 0.50631 0.45341 0.0
C609 C 0.44675 0.50142 0.45162 0.0
C610 C 0.45722 0.50233 0.50251 0.0
C611 C 0.41771 0.50659 0.39949 0.0
C612 C 0.41142 0.49052 0.37654 0.0
C613 C 0.41161 0.52274 0.3753 0.0
C614 C 0.41802 0.54009 0.39764 0.0
C615 C 0.43627 0.54392 0.3991 0.0
C616 C 0.44227 0.56007 0.4217 0.0
C617 C 0.43014 0.57257 0.44255 0.0
C618 C 0.41198 0.56897 0.44062 0.0
C619 C 0.40591 0.55281 0.41818 0.0
H620 H 0.43482 0.58506 0.46011 0.0
H621 H 0.37186 0.42707 0.26791 0.0
H622 H 0.04051 0.361 0.18969 0.0
H623 H 0.03838 0.38497 0.26102 0.0
H624 H 0.98495 0.39581 0.20442 0.0
H625 H 0.98695 0.37167 0.13286 0.0
H626 H 0.03314 0.41958 0.26356 0.0
H627 H 0.95979 0.40689 0.32248 0.0
H628 H 0.93787 0.3826 0.3195 0.0
H629 H 0.97977 0.34422 0.33095 0.0
H630 H 1.0019 0.36827 0.33481 0.0
H631 H 0.00479 0.4852 0.47475 0.0
H632 H 0.00768 0.4662 0.38758 0.0
H633 H 0.00438 0.41972 0.49755 0.0
H634 H 1.00112 0.43853 0.58381 0.0
H635 H 0.98407 0.41512 0.40767 0.0
H636 H 0.04413 0.43468 0.43524 0.0
H637 H 0.06789 0.45691 0.44642 0.0
H638 H 0.05613 0.47782 0.27559 0.0
H639 H 0.03213 0.45586 0.26375 0.0
C640 C 0.02841 0.36871 0.19126 0.0
C641 C 0.01387 0.36427 0.15536 0.0
C642 C 0.02721 0.38245 0.23242 0.0
C643 C 0.01143 0.39213 0.23899 0.0
C644 C 0.99718 0.38836 0.20115 0.0
C645 C 0.99833 0.37453 0.16015 0.0
C646 C 0.00958 0.4052 0.28805 0.0
C647 C 0.02232 0.41868 0.29479 0.0
C648 C 0.99569 0.40394 0.32976 0.0
C649 C 0.98249 0.38938 0.3282 0.0
C650 C 0.96431 0.39326 0.32452 0.0
C651 C 0.95185 0.37954 0.32268 0.0
C652 C 0.95743 0.36188 0.32481 0.0
C653 C 0.97547 0.3579 0.32907 0.0
C654 C 0.98798 0.37157 0.33105 0.0
C655 C 0.00483 0.47093 0.48017 0.0
C656 C 1.00274 0.46336 0.53615 0.0
C657 C 0.0065 0.46006 0.43035 0.0
C658 C 0.0063 0.44144 0.43571 0.0
C659 C 0.00447 0.43399 0.49187 0.0
C660 C 1.00269 0.44479 0.54134 0.0
C661 C 0.00762 0.42953 0.38337 0.0
C662 C 0.99476 0.41622 0.37602 0.0
C663 C 0.02165 0.43069 0.34215 0.0
C664 C 0.03621 0.44375 0.34887 0.0
C665 C 0.04653 0.4441 0.40022 0.0
C666 C 0.06005 0.45663 0.40666 0.0
C667 C 0.06348 0.4688 0.36182 0.0
C668 C 0.05344 0.46841 0.31034 0.0
C669 C 0.03988 0.45591 0.30372 0.0
H670 H 0.07394 0.4785 0.36691 0.0
H671 H 0.94777 0.35127 0.32331 0.0
H672 H 0.85177 0.01723 0.13127 0.0
H673 H 0.87418 0.01649 0.05402 0.0
H674 H 0.88839 0.96323 0.10379 0.0
H675 H 0.86572 0.96379 0.18151 0.0
H676 H 0.91862 0.98997 0.0736 0.0
H677 H 0.86482 0.96319 0.99876 0.0
H678 H 0.83256 0.96229 0.98187 0.0
H679 H 0.83552 0.01114 0.88549 0.0
H680 H 0.86779 0.01249 0.90269 0.0
H681 H 0.96653 0.97584 0.80481 0.0
H682 H 0.94805 0.97219 0.89273 0.0
H683 H 0.91382 0.01426 0.83217 0.0
H684 H 0.93196 0.01746 0.74413 0.0
H685 H 0.89421 0.98991 0.87158 0.0
H686 H 0.94607 0.01889 0.94813 0.0
H687 H 0.97809 0.02245 0.96638 0.0
H688 H 0.97898 0.97301 0.05996 0.0
H689 H 0.94698 0.96906 0.04164 0.0
C690 C 0.85993 0.00548 0.12693 0.0
C691 C 0.85699 0.99059 0.16295 0.0
C692 C 0.87268 0.00506 0.08243 0.0
C693 C 0.88294 0.98981 0.07309 0.0
C694 C 0.88065 0.97516 0.11043 0.0
C695 C 0.86765 0.97547 0.1546 0.0
C696 C 0.89493 0.9889 0.02129 0.0
C697 C 0.91336 0.98964 0.02935 0.0
C698 C 0.88803 0.98894 0.96364 0.0
C699 C 0.86869 0.98802 0.95247 0.0
C700 C 0.85857 0.97382 0.97438 0.0
C701 C 0.84029 0.97321 0.96469 0.0
C702 C 0.83199 0.98667 0.93274 0.0
C703 C 0.84197 1.00074 0.91028 0.0
C704 C 0.86025 1.00142 0.91994 0.0
C705 C 0.95525 0.98447 0.81104 0.0
C706 C 0.95088 0.99716 0.76833 0.0
C707 C 0.94461 0.98236 0.86118 0.0
C708 C 0.92959 0.99314 0.87 0.0
C709 C 0.92525 0.00573 0.82679 0.0
C710 C 0.93567 0.0076 0.77644 0.0
C711 C 0.9181 0.99129 0.92328 0.0
C712 C 0.89965 0.99006 0.9156 0.0
C713 C 0.92502 0.99112 0.98119 0.0
C714 C 0.94418 0.99359 0.99299 0.0
C715 C 0.95312 0.00873 0.97231 0.0
C716 C 0.97126 0.01083 0.9827 0.0
C717 C 0.98057 0.99794 0.01414 0.0
C718 C 0.97175 0.98297 0.03551 0.0
C719 C 0.95361 0.9808 0.0252 0.0
H720 H 0.99462 0.99957 0.02208 0.0
H721 H 0.81783 0.98618 0.9253 0.0
H722 H 0.48918 0.87331 0.1712 0.0
H723 H 0.48613 0.89889 0.10533 0.0
H724 H 0.53484 0.88426 0.01864 0.0
H725 H 0.53817 0.8592 0.08526 0.0
H726 H 0.53434 0.91799 0.02464 0.0
H727 H 0.49144 0.8744 0.96373 0.0
H728 H 0.46596 0.85419 0.97542 0.0
H729 H 0.43252 0.89826 0.01982 0.0
H730 H 0.45787 0.91871 0.00911 0.0
H731 H 0.51294 0.94378 0.72514 0.0
H732 H 0.5161 0.92634 0.81521 0.0
H733 H 0.49198 0.96857 0.91437 0.0
H734 H 0.48915 0.98633 0.82398 0.0
H735 H 0.4787 0.92499 0.91114 0.0
H736 H 0.52371 0.96872 0.96438 0.0
H737 H 0.54981 0.98716 0.94141 0.0
H738 H 0.57976 0.94042 0.89956 0.0
H739 H 0.55375 0.92171 0.9219 0.0
C740 C 0.49928 0.87566 0.13832 0.0
C741 C 0.51394 0.86423 0.13371 0.0
C742 C 0.49751 0.89026 0.10045 0.0
C743 C 0.51012 0.89348 0.0561 0.0
C744 C 0.52493 0.88224 0.05241 0.0
C745 C 0.52684 0.86786 0.09072 0.0
C746 C 0.50777 0.90806 0.01207 0.0
C747 C 0.52211 0.91948 1.00014 0.0
C748 C 0.49182 0.91031 0.97987 0.0
C749 C 0.47659 0.89804 0.98636 0.0
C750 C 0.47868 0.87975 0.97643 0.0
C751 C 0.46426 0.86826 0.98281 0.0
C752 C 0.44765 0.87493 0.99855 0.0
C753 C 0.44541 0.89311 0.00778 0.0
C754 C 0.45979 0.90466 1.00155 0.0
C755 C 0.50861 0.94949 0.76632 0.0
C756 C 0.50108 0.96652 0.76784 0.0
C757 C 0.51039 0.9395 0.81766 0.0
C758 C 0.50435 0.94618 0.87142 0.0
C759 C 0.49688 0.96326 0.87334 0.0
C760 C 0.49544 0.97345 0.82192 0.0
C761 C 0.50518 0.93472 0.92438 0.0
C762 C 0.49068 0.92374 0.93715 0.0
C763 C 0.52101 0.93269 0.95665 0.0
C764 C 0.53675 0.94385 0.94422 0.0
C765 C 0.53582 0.96239 0.94978 0.0
C766 C 0.5506 0.97289 0.93699 0.0
C767 C 0.56641 0.96498 0.9187 0.0
C768 C 0.5675 0.94654 0.91361 0.0
C769 C 0.55275 0.93598 0.92647 0.0
H770 H 0.57783 0.97311 0.90862 0.0
H771 H 0.4365 0.86601 0.00344 0.0
H772 H 0.62099 0.51834 0.1689 0.0
H773 H 0.59663 0.51972 0.09808 0.0
H774 H 0.63383 0.5322 0.96043 0.0
H775 H 0.65813 0.53103 0.03089 0.0
H776 H 0.6049 0.55084 0.94453 0.0
H777 H 0.61731 0.48931 0.984 0.0
H778 H 0.621 0.46279 0.0462 0.0
H779 H 0.56708 0.4674 0.10461 0.0
H780 H 0.56314 0.4941 0.0433 0.0
H781 H 0.56195 0.51921 0.68872 0.0
H782 H 0.58113 0.52505 0.7729 0.0
H783 H 0.53705 0.51622 0.88987 0.0
H784 H 0.51783 0.51013 0.80513 0.0
H785 H 0.56649 0.49783 0.92357 0.0
H786 H 0.55374 0.55823 0.87298 0.0
H787 H 0.55116 0.58462 0.80932 0.0
H788 H 0.60649 0.5813 0.76742 0.0
H789 H 0.60948 0.55494 0.83075 0.0
C790 C 0.62397 0.52151 0.12362 0.0
C791 C 0.64158 0.52454 0.10575 0.0
C792 C 0.61001 0.52225 0.08305 0.0
C793 C 0.61335 0.52577 0.02344 0.0
C794 C 0.63083 0.52948 0.00602 0.0
C795 C 0.64475 0.52887 0.04657 0.0
C796 C 0.59888 0.52489 0.97862 0.0
C797 C 0.59658 0.53919 0.93978 0.0
C798 C 0.58767 0.50989 0.97292 0.0
C799 C 0.59 0.49382 0.00963 0.0
C800 C 0.60628 0.48474 0.01046 0.0
C801 C 0.60841 0.46967 0.04549 0.0
C802 C 0.5943 0.46345 0.07948 0.0
C803 C 0.57801 0.47226 0.07836 0.0
C804 C 0.57582 0.48736 0.04347 0.0
C805 C 0.55629 0.51872 0.73236 0.0
C806 C 0.53831 0.51447 0.74036 0.0
C807 C 0.56725 0.52218 0.7805 0.0
C808 C 0.56053 0.52135 0.83791 0.0
C809 C 0.54252 0.51712 0.84604 0.0
C810 C 0.5315 0.5138 0.79765 0.0
C811 C 0.57269 0.52368 0.889 0.0
C812 C 0.5746 0.5096 0.9289 0.0
C813 C 0.58365 0.53882 0.89524 0.0
C814 C 0.5818 0.55451 0.85635 0.0
C815 C 0.56533 0.56303 0.84983 0.0
C816 C 0.56379 0.578 0.81391 0.0
C817 C 0.5786 0.58455 0.78418 0.0
C818 C 0.59502 0.57619 0.79044 0.0
C819 C 0.59666 0.56128 0.82648 0.0
H820 H 0.57737 0.59614 0.75643 0.0
H821 H 0.59598 0.45177 0.10656 0.0
H822 H 0.01078 0.64368 0.12692 0.0
H823 H 0.01143 0.6197 0.05545 0.0
H824 H 0.95438 0.62019 0.04662 0.0
H825 H 0.95354 0.64409 0.11966 0.0
H826 H 0.96958 0.58499 0.03893 0.0
H827 H 0.97505 0.64218 0.94738 0.0
H828 H 0.98757 0.67214 0.93464 0.0
H829 H 0.03896 0.64971 0.90218 0.0
H830 H 0.02678 0.6196 0.91568 0.0
H831 H 0.96774 0.54103 0.75794 0.0
H832 H 0.9628 0.56046 0.84273 0.0
H833 H 0.01856 0.57331 0.8456 0.0
H834 H 0.02327 0.55473 0.75941 0.0
H835 H 1.00129 0.602 0.85666 0.0
H836 H 0.9961 0.54454 0.94913 0.0
H837 H 0.98339 0.51451 0.95797 0.0
H838 H 0.93178 0.53682 0.98709 0.0
H839 H 0.94413 0.567 0.97742 0.0
C840 C 0.99829 0.63841 0.11138 0.0
C841 C 0.98209 0.64596 0.12928 0.0
C842 C 0.99871 0.62473 0.06997 0.0
C843 C 0.98297 0.61824 0.04507 0.0
C844 C 0.9667 0.62498 0.06512 0.0
C845 C 0.96626 0.63876 0.10658 0.0
C846 C 0.98378 0.60578 0.99426 0.0
C847 C 0.97635 0.58873 0.9988 0.0
C848 C 0.99272 0.61056 0.94198 0.0
C849 C 1.00003 0.62865 0.93306 0.0
C850 C 0.98904 0.64364 0.93794 0.0
C851 C 0.99607 0.66065 0.93054 0.0
C852 C 0.01406 0.66283 0.91774 0.0
C853 C 0.02503 0.648 0.91216 0.0
C854 C 0.01807 0.63096 0.91964 0.0
C855 C 0.97893 0.54792 0.77711 0.0
C856 C 0.99588 0.54644 0.75195 0.0
C857 C 0.97613 0.55897 0.82582 0.0
C858 C 0.99033 0.56835 0.85129 0.0
C859 C 0.00733 0.56638 0.82689 0.0
C860 C 0.01004 0.55567 0.77768 0.0
C861 C 0.9876 0.58087 0.9015 0.0
C862 C 0.99457 0.59809 0.89672 0.0
C863 C 0.9783 0.57614 0.95339 0.0
C864 C 0.97102 0.55804 0.96207 0.0
C865 C 0.98203 0.54304 0.95732 0.0
C866 C 0.97489 0.52599 0.9624 0.0
C867 C 0.95678 0.52376 0.97291 0.0
C868 C 0.9458 0.53858 0.97885 0.0
C869 C 0.95287 0.55566 0.97363 0.0
H870 H 0.95126 0.51055 0.97653 0.0
H871 H 0.01948 0.67601 0.91204 0.0
H872 H 0.01094 0.2308 0.33953 0.0
H873 H 0.00801 0.20476 0.40102 0.0
H874 H 0.06486 0.20246 0.42123 0.0
H875 H 0.0679 0.22859 0.35789 0.0
H876 H 0.053 0.17261 0.38156 0.0
H877 H 0.03576 0.21031 0.53563 0.0
H878 H 0.01991 0.23426 0.58671 0.0
H879 H 0.97061 0.20682 0.56264 0.0
H880 H 0.98602 0.18287 0.51004 0.0
H881 H 0.03352 0.08832 0.49933 0.0
H882 H 0.04421 0.11875 0.49754 0.0
H883 H 0.99135 0.13716 0.45877 0.0
H884 H 0.98027 0.10682 0.46514 0.0
H885 H 0.00743 0.15948 0.53232 0.0
H886 H 0.02324 0.12961 0.34915 0.0
H887 H 0.03771 0.10582 0.29233 0.0
H888 H 0.088 0.11957 0.36777 0.0
H889 H 0.07377 0.14335 0.42543 0.0
C890 C 0.02281 0.22522 0.35887 0.0
C891 C 0.03966 0.23171 0.34388 0.0
C892 C 0.02111 0.21028 0.39421 0.0
C893 C 0.03621 0.2017 0.41619 0.0
C894 C 0.05304 0.2089 0.40474 0.0
C895 C 0.05476 0.22379 0.36868 0.0
C896 C 0.03435 0.18389 0.44283 0.0
C897 C 0.04339 0.16983 0.41581 0.0
C898 C 0.02156 0.18023 0.48671 0.0
C899 C 0.01214 0.19469 0.51861 0.0
C900 C 0.02151 0.20941 0.54056 0.0
C901 C 0.01259 0.22302 0.5699 0.0
C902 C 0.99427 0.22207 0.57791 0.0
C903 C 0.98482 0.20752 0.55652 0.0
C904 C 0.99366 0.19389 0.52699 0.0
C905 C 0.02408 0.09883 0.49142 0.0
C906 C 0.00603 0.09503 0.48197 0.0
C907 C 0.03026 0.11624 0.49005 0.0
C908 C 0.01862 0.13021 0.47737 0.0
C909 C 1.00057 0.12656 0.4687 0.0
C910 C 0.99431 0.10915 0.47119 0.0
C911 C 0.02535 0.14847 0.46857 0.0
C912 C 0.01732 0.16248 0.49922 0.0
C913 C 0.03885 0.15219 0.42732 0.0
C914 C 0.04744 0.13812 0.39194 0.0
C915 C 0.03737 0.12751 0.35372 0.0
C916 C 0.04553 0.11404 0.32137 0.0
C917 C 0.06376 0.11118 0.32648 0.0
C918 C 0.07388 0.1218 0.36386 0.0
C919 C 0.06579 0.13528 0.39634 0.0
H920 H 0.07005 0.10071 0.30152 0.0
H921 H 0.98739 0.2326 0.60074 0.0
H922 H 0.26618 0.99163 0.4341 0.0
H923 H 0.28885 0.98308 0.50573 0.0
H924 H 0.30329 0.9385 0.39701 0.0
H925 H 0.28012 0.94654 0.32715 0.0
H926 H 0.31085 0.93119 0.50833 0.0
H927 H 0.32081 0.98028 0.37334 0.0
H928 H 0.314 0.00943 0.32964 0.0
H929 H 0.31925 0.03408 0.49849 0.0
H930 H 0.32585 0.00499 0.5433 0.0
H931 H 0.40373 0.93333 0.46196 0.0
H932 H 0.37128 0.93229 0.46515 0.0
H933 H 0.37128 0.96911 0.60978 0.0
H934 H 0.40366 0.9699 0.60772 0.0
H935 H 0.35392 0.98093 0.50989 0.0
H936 H 0.35256 0.93103 0.63573 0.0
H937 H 0.36123 0.90145 0.67188 0.0
H938 H 0.34186 0.87776 0.51312 0.0
H939 H 0.33338 0.90725 0.47561 0.0
C940 C 0.2738 0.97964 0.42689 0.0
C941 C 0.2717 0.96984 0.37508 0.0
C942 C 0.2867 0.97477 0.46766 0.0
C943 C 0.29807 0.96045 0.45581 0.0
C944 C 0.29472 0.94963 0.40697 0.0
C945 C 0.28155 0.95426 0.36693 0.0
C946 C 0.3152 0.95869 0.48688 0.0
C947 C 0.32027 0.94206 0.50909 0.0
C948 C 0.32739 0.97298 0.48867 0.0
C949 C 0.32357 0.99047 0.46175 0.0
C950 C 0.32041 0.99191 0.40116 0.0
C951 C 0.31659 0.00841 0.3762 0.0
C952 C 0.31613 0.02359 0.4113 0.0
C953 C 0.31956 0.0223 0.4714 0.0
C954 C 0.32332 0.00582 0.49661 0.0
C955 C 0.39679 0.94075 0.49552 0.0
C956 C 0.40613 0.95174 0.53435 0.0
C957 C 0.37831 0.94004 0.49769 0.0
C958 C 0.36895 0.95051 0.53812 0.0
C959 C 0.37831 0.96073 0.57899 0.0
C960 C 0.39677 0.96119 0.5776 0.0
C961 C 0.34976 0.95333 0.52993 0.0
C962 C 0.34435 0.97019 0.51141 0.0
C963 C 0.33748 0.93919 0.53054 0.0
C964 C 0.34246 0.92138 0.55273 0.0
C965 C 0.35032 0.91952 0.60832 0.0
C966 C 0.35516 0.90277 0.62909 0.0
C967 C 0.35212 0.88773 0.59477 0.0
C968 C 0.34421 0.88942 0.53965 0.0
C969 C 0.33936 0.90616 0.51865 0.0
H970 H 0.35588 0.87476 0.61092 0.0
H971 H 0.31318 0.03636 0.39191 0.0
H972 H 0.5443 0.26878 0.41998 0.0
H973 H 0.55508 0.291 0.48957 0.0
H974 H 0.50464 0.31796 0.47941 0.0
H975 H 0.49378 0.29546 0.41241 0.0
H976 H 0.56151 0.32099 0.45566 0.0
H977 H 0.49716 0.34819 0.57721 0.0
H978 H 0.4745 0.33685 0.64537 0.0
H979 H 0.50753 0.29219 0.68633 0.0
H980 H 0.53058 0.3034 0.61926 0.0
H981 H 0.54658 0.40901 0.40729 0.0
H982 H 0.54925 0.37719 0.42141 0.0
H983 H 0.54835 0.38443 0.60925 0.0
H984 H 0.54441 0.41627 0.59526 0.0
H985 H 0.52674 0.36046 0.5857 0.0
H986 H 0.58614 0.36696 0.53633 0.0
H987 H 0.61275 0.37789 0.48494 0.0
H988 H 0.59536 0.35291 0.3259 0.0
H989 H 0.56851 0.34205 0.37596 0.0
C990 C 0.53535 0.27908 0.43475 0.0
C991 C 0.51831 0.2806 0.41043 0.0
C992 C 0.54149 0.29177 0.47447 0.0
C993 C 0.5308 0.30635 0.48955 0.0
C994 C 0.51315 0.30678 0.46968 0.0
C995 C 0.50692 0.29393 0.43085 0.0
C996 C 0.53887 0.32283 0.51333 0.0
C997 C 0.55409 0.32946 0.48518 0.0
C998 C 0.52983 0.33373 0.55405 0.0
C999 C 0.51562 0.32662 0.59274 0.0
C1000 C 0.49966 0.33597 0.60078 0.0
C1001 C 0.48672 0.32956 0.63927 0.0
C1002 C 0.48955 0.31378 0.66999 0.0
C1003 C 0.50532 0.30437 0.66227 0.0
C1004 C 0.51831 0.31072 0.62387 0.0
C1005 C 0.54712 0.40387 0.45162 0.0
C1006 C 0.54513 0.41519 0.50003 0.0
C1007 C 0.54894 0.38565 0.45976 0.0
C1008 C 0.54924 0.37835 0.51651 0.0
C1009 C 0.54824 0.38973 0.56507 0.0
C1010 C 0.54616 0.40798 0.55693 0.0
C1011 C 0.54829 0.35882 0.52397 0.0
C1012 C 0.53447 0.35173 0.55794 0.0
C1013 C 0.5591 0.34727 0.49075 0.0
C1014 C 0.57528 0.35367 0.46007 0.0
C1015 C 0.58794 0.36386 0.49032 0.0
C1016 C 0.60307 0.37004 0.4614 0.0
C1017 C 0.60574 0.36609 0.4022 0.0
C1018 C 0.59329 0.35593 0.3718 0.0
C1019 C 0.57813 0.34971 0.40049 0.0
H1020 H 0.61746 0.3709 0.37989 0.0
H1021 H 0.47954 0.30887 0.6999 0.0
H1022 H 0.19058 0.49258 0.31477 0.0
H1023 H 0.16904 0.5016 0.38745 0.0
H1024 H 0.21044 0.52544 0.49138 0.0
H1025 H 0.23246 0.51607 0.41842 0.0
H1026 H 0.16265 0.49729 0.50283 0.0
H1027 H 0.19151 0.56473 0.54379 0.0
H1028 H 0.2142 0.58528 0.50515 0.0
H1029 H 0.20485 0.56606 0.33058 0.0
H1030 H 0.18199 0.54557 0.36823 0.0
H1031 H 0.08527 0.54265 0.59686 0.0
H1032 H 0.11681 0.53559 0.60502 0.0
H1033 H 0.12528 0.55519 0.42944 0.0
H1034 H 0.09394 0.56271 0.42155 0.0
H1035 H 0.15337 0.56239 0.49827 0.0
H1036 H 0.11304 0.5123 0.4625 0.0
H1037 H 0.09054 0.48968 0.48636 0.0
H1038 H 0.12199 0.47209 0.63223 0.0
H1039 H 0.14429 0.49496 0.6105 0.0
C1040 C 0.19533 0.49916 0.35392 0.0
C1041 C 0.21329 0.50366 0.36046 0.0
C1042 C 0.18293 0.50437 0.39558 0.0
C1043 C 0.18812 0.51429 0.44464 0.0
C1044 C 0.20616 0.51789 0.45355 0.0
C1045 C 0.21868 0.51262 0.41167 0.0
C1046 C 0.17409 0.52256 0.48083 0.0
C1047 C 0.16078 0.51157 0.50358 0.0
C1048 C 0.17176 0.54116 0.48217 0.0
C1049 C 0.18526 0.55352 0.45889 0.0
C1050 C 0.19431 0.56494 0.49718 0.0
C1051 C 0.20718 0.57656 0.47546 0.0
C1052 C 0.21101 0.57693 0.41548 0.0
C1053 C 0.20191 0.56573 0.37704 0.0
C1054 C 0.189 0.55412 0.39853 0.0
C1055 C 0.09396 0.546 0.56071 0.0
C1056 C 0.0871 0.55305 0.50816 0.0
C1057 C 0.11196 0.54185 0.56544 0.0
C1058 C 0.12331 0.54462 0.51762 0.0
C1059 C 0.11674 0.55292 0.46692 0.0
C1060 C 0.0988 0.55707 0.46218 0.0
C1061 C 0.14138 0.53701 0.5162 0.0
C1062 C 0.15552 0.54818 0.50069 0.0
C1063 C 0.1443 0.51848 0.5203 0.0
C1064 C 0.13015 0.50564 0.5357 0.0
C1065 C 0.11495 0.50388 0.50046 0.0
C1066 C 0.10225 0.49095 0.51347 0.0
C1067 C 0.10477 0.47948 0.56093 0.0
C1068 C 0.11993 0.48102 0.59573 0.0
C1069 C 0.13256 0.49405 0.58332 0.0
H1070 H 0.09497 0.46942 0.57073 0.0
H1071 H 0.221 0.58591 0.39877 0.0
H1072 H 0.01604 0.77564 0.9411 0.0
H1073 H 0.02422 0.7991 0.87426 0.0
H1074 H 0.07959 0.78976 0.911 0.0
H1075 H 0.07127 0.76627 0.98014 0.0
H1076 H 0.0727 0.82162 0.93365 0.0
H1077 H 0.06208 0.78886 0.7624 0.0
H1078 H 0.04749 0.76762 0.69598 0.0
H1079 H 1.00062 0.79988 0.69403 0.0
H1080 H 0.01481 0.82124 0.76081 0.0
H1081 H 0.06511 0.91071 0.82462 0.0
H1082 H 0.075 0.87976 0.81934 0.0
H1083 H 0.0211 0.86216 0.84392 0.0
H1084 H 0.01122 0.89279 0.85088 0.0
H1085 H 0.03975 0.84234 0.75843 0.0
H1086 H 0.04769 0.86591 0.95983 0.0
H1087 H 0.0613 0.88676 0.03002 0.0
H1088 H 0.11317 0.87068 0.97346 0.0
H1089 H 0.09981 0.84987 0.90245 0.0
C1090 C 0.03 0.77802 0.93328 0.0
C1091 C 0.04301 0.76921 0.96628 0.0
C1092 C 0.03472 0.79144 0.89441 0.0
C1093 C 0.05258 0.79619 0.88683 0.0
C1094 C 0.06573 0.78634 0.91597 0.0
C1095 C 0.06097 0.77299 0.95564 0.0
C1096 C 0.05679 0.81358 0.8595 0.0
C1097 C 0.06608 0.82593 0.89388 0.0
C1098 C 0.04821 0.81939 0.80764 0.0
C1099 C 0.03958 0.8067 0.76672 0.0
C1100 C 0.04864 0.79141 0.748 0.0
C1101 C 0.04043 0.77934 0.71024 0.0
C1102 C 0.02313 0.78238 0.69088 0.0
C1103 C 0.01402 0.79753 0.7091 0.0
C1104 C 0.02218 0.80968 0.74668 0.0
C1105 C 0.0554 0.90022 0.82916 0.0
C1106 C 0.03738 0.90421 0.83855 0.0
C1107 C 0.06104 0.8826 0.82533 0.0
C1108 C 0.04874 0.86874 0.83075 0.0
C1109 C 0.03075 0.8727 0.83865 0.0
C1110 C 0.02513 0.89023 0.84284 0.0
C1111 C 0.05445 0.85006 0.83507 0.0
C1112 C 0.04712 0.83766 0.79624 0.0
C1113 C 0.06481 0.84412 0.88272 0.0
C1114 C 0.07279 0.85656 0.92543 0.0
C1115 C 0.062 0.86693 0.96214 0.0
C1116 C 0.06966 0.87872 1.00207 0.0
C1117 C 0.08809 0.88009 0.00605 0.0
C1118 C 0.0989 0.86964 0.97021 0.0
C1119 C 0.0913 0.85786 0.93012 0.0
H1120 H 0.094 0.88922 0.03701 0.0
H1121 H 0.0168 0.77302 0.66166 0.0
H1122 H 0.73156 0.05683 0.97592 0.0
H1123 H 0.70327 0.06035 0.92464 0.0
H1124 H 0.69396 0.00404 0.93908 0.0
H1125 H 0.72219 1.00042 0.98851 0.0
H1126 H 0.67588 0.01673 0.84927 0.0
H1127 H 0.68415 0.03159 0.05469 0.0
H1128 H 0.69814 0.04769 0.13669 0.0
H1129 H 0.68209 0.09734 0.06112 0.0
H1130 H 0.66812 0.08149 0.9784 0.0
H1131 H 0.58694 0.00472 0.93232 0.0
H1132 H 0.61928 0.00665 0.93812 0.0
H1133 H 0.6167 0.06258 0.89902 0.0
H1134 H 0.58444 0.06073 0.89254 0.0
H1135 H 0.64097 0.05411 0.98642 0.0
H1136 H 0.62424 0.03399 0.79487 0.0
H1137 H 0.60814 0.014 0.72848 0.0
H1138 H 0.63976 0.97009 0.78703 0.0
H1139 H 0.65535 0.98962 0.85661 0.0
C1140 C 0.7238 0.04514 0.96571 0.0
C1141 C 0.72883 0.02843 0.9873 0.0
C1142 C 0.70766 0.04715 0.93651 0.0
C1143 C 0.69628 0.03254 0.93007 0.0
C1144 C 0.70247 0.01553 0.94408 0.0
C1145 C 0.71867 0.01347 0.97242 0.0
C1146 C 0.67704 0.03512 0.92138 0.0
C1147 C 0.66822 0.02498 0.87886 0.0
C1148 C 0.66706 0.04584 0.96035 0.0
C1149 C 0.6753 0.05539 0.01015 0.0
C1150 C 0.68368 0.04594 0.05551 0.0
C1151 C 0.69159 0.05502 0.10209 0.0
C1152 C 0.69106 0.07353 0.104 0.0
C1153 C 0.68254 0.083 0.05948 0.0
C1154 C 0.67461 0.07399 0.01276 0.0
C1155 C 0.59328 0.01744 0.92551 0.0
C1156 C 0.58322 0.03253 0.91156 0.0
C1157 C 0.6117 0.01852 0.92877 0.0
C1158 C 0.6203 0.03469 0.91775 0.0
C1159 C 0.61025 0.04999 0.90729 0.0
C1160 C 0.59184 0.04892 0.90402 0.0
C1161 C 0.6398 0.0355 0.91502 0.0
C1162 C 0.64861 0.04626 0.95557 0.0
C1163 C 0.64966 0.02492 0.8754 0.0
C1164 C 0.64085 0.01328 0.8316 0.0
C1165 C 0.62765 0.02004 0.79419 0.0
C1166 C 0.61855 0.00876 0.75609 0.0
C1167 C 0.62291 0.99077 0.75351 0.0
C1168 C 0.63635 0.98402 0.78923 0.0
C1169 C 0.64525 0.99518 0.82831 0.0
H1170 H 0.61592 0.98207 0.72371 0.0
H1171 H 0.69722 0.08054 0.14006 0.0
H1172 H 0.56042 0.70523 0.03663 0.0
H1173 H 0.55697 0.68239 0.96309 0.0
H1174 H 0.54955 0.72231 0.82968 0.0
H1175 H 0.55326 0.74555 0.90374 0.0
H1176 H 0.5225 0.70082 0.83176 0.0
H1177 H 0.58369 0.69197 0.8166 0.0
H1178 H 0.61478 0.68882 0.84802 0.0
H1179 H 0.60159 0.6413 0.94232 0.0
H1180 H 0.57037 0.6443 0.91237 0.0
H1181 H 0.5227 0.5988 0.74067 0.0
H1182 H 0.53647 0.62812 0.73608 0.0
H1183 H 0.49881 0.64744 0.86351 0.0
H1184 H 0.48485 0.61836 0.86729 0.0
H1185 H 0.55333 0.64286 0.81982 0.0
H1186 H 0.49175 0.68662 0.86384 0.0
H1187 H 0.46149 0.69095 0.82533 0.0
H1188 H 0.47786 0.67101 0.65755 0.0
H1189 H 0.5082 0.6664 0.69527 0.0
C1190 C 0.55884 0.70929 0.99137 0.0
C1191 C 0.55696 0.72727 0.97626 0.0
C1192 C 0.55687 0.69612 0.9491 0.0
C1193 C 0.55305 0.70061 0.89072 0.0
C1194 C 0.55248 0.71856 0.87451 0.0
C1195 C 0.55451 0.7318 0.91691 0.0
C1196 C 0.54665 0.68659 0.85046 0.0
C1197 C 0.52942 0.68826 0.82796 0.0
C1198 C 0.55582 0.67036 0.84381 0.0
C1199 C 0.57462 0.66839 0.86213 0.0
C1200 C 0.58738 0.6809 0.84432 0.0
C1201 C 0.60504 0.67913 0.86186 0.0
C1202 C 0.61015 0.66487 0.89713 0.0
C1203 C 0.59761 0.65233 0.91491 0.0
C1204 C 0.57993 0.65404 0.89753 0.0
C1205 C 0.51721 0.6094 0.76704 0.0
C1206 C 0.50276 0.60626 0.80468 0.0
C1207 C 0.52501 0.62618 0.76402 0.0
C1208 C 0.51857 0.64011 0.79878 0.0
C1209 C 0.50373 0.63712 0.83482 0.0
C1210 C 0.49584 0.6204 0.83747 0.0
C1211 C 0.52879 0.65681 0.8051 0.0
C1212 C 0.54671 0.65562 0.82137 0.0
C1213 C 0.52042 0.67358 0.80494 0.0
C1214 C 0.50216 0.67602 0.78248 0.0
C1215 C 0.48887 0.68314 0.81874 0.0
C1216 C 0.47171 0.68558 0.79712 0.0
C1217 C 0.46774 0.68116 0.7391 0.0
C1218 C 0.48093 0.6743 0.70259 0.0
C1219 C 0.49808 0.67166 0.72416 0.0
H1220 H 0.45446 0.6831 0.72237 0.0
H1221 H 0.62384 0.66352 0.91067 0.0
H1222 H 0.77081 0.47956 0.97941 0.0
H1223 H 0.79938 0.47737 0.93218 0.0
H1224 H 0.80389 0.42282 0.98764 0.0
H1225 H 0.77492 0.42494 0.03581 0.0
H1226 H 0.83071 0.441 0.0258 0.0
H1227 H 0.80453 0.4348 0.83901 0.0
H1228 H 0.78409 0.44055 0.7569 0.0
H1229 H 0.80501 0.49321 0.73853 0.0
H1230 H 0.8254 0.48792 0.82114 0.0
H1231 H 0.9188 0.44677 0.90517 0.0
H1232 H 0.88826 0.43776 0.92423 0.0
H1233 H 0.87115 0.49207 0.90682 0.0
H1234 H 0.90177 0.50135 0.88939 0.0
H1235 H 0.85144 0.46755 0.83888 0.0
H1236 H 0.87307 0.47477 0.03778 0.0
H1237 H 0.89346 0.46894 0.12006 0.0
H1238 H 0.88072 0.41348 0.11302 0.0
H1239 H 0.86041 0.41896 0.03012 0.0
C1240 C 0.7774 0.4668 0.97949 0.0
C1241 C 0.77059 0.45244 0.01184 0.0
C1242 C 0.79386 0.46557 0.95227 0.0
C1243 C 0.80382 0.44992 0.95618 0.0
C1244 C 0.79643 0.43505 0.9842 0.0
C1245 C 0.77991 0.43629 0.01176 0.0
C1246 C 0.82285 0.45034 0.94015 0.0
C1247 C 0.83524 0.4463 0.98415 0.0
C1248 C 0.82878 0.45762 0.88634 0.0
C1249 C 0.81648 0.46096 0.83661 0.0
C1250 C 0.8047 0.44766 0.81781 0.0
C1251 C 0.79313 0.45083 0.77109 0.0
C1252 C 0.79325 0.46724 0.74256 0.0
C1253 C 0.80495 0.4805 0.76066 0.0
C1254 C 0.81654 0.47741 0.80739 0.0
C1255 C 0.90864 0.45689 0.90688 0.0
C1256 C 0.91273 0.47481 0.89589 0.0
C1257 C 0.89118 0.45167 0.91718 0.0
C1258 C 0.87752 0.46425 0.91651 0.0
C1259 C 0.88155 0.48217 0.90689 0.0
C1260 C 0.89903 0.48744 0.89702 0.0
C1261 C 0.85893 0.45874 0.92513 0.0
C1262 C 0.84678 0.46183 0.87976 0.0
C1263 C 0.8532 0.45053 0.97748 0.0
C1264 C 0.8654 0.44724 0.02729 0.0
C1265 C 0.87475 0.46131 0.05341 0.0
C1266 C 0.88626 0.45807 0.10024 0.0
C1267 C 0.88843 0.44084 0.12162 0.0
C1268 C 0.87905 0.42681 0.09633 0.0
C1269 C 0.86753 0.42998 0.04945 0.0
H1270 H 0.89734 0.43836 0.1579 0.0
H1271 H 0.78429 0.46966 0.70638 0.0
H1272 H 0.0427 0.19851 0.8524 0.0
H1273 H 0.03885 0.16809 0.81979 0.0
H1274 H 0.98423 0.16938 0.87552 0.0
H1275 H 0.98841 0.1993 0.91332 0.0
H1276 H 0.99616 0.13967 0.90544 0.0
H1277 H 1.00021 0.17183 0.72504 0.0
H1278 H 0.01349 0.19206 0.65271 0.0
H1279 H 0.05861 0.15771 0.63627 0.0
H1280 H 0.0459 0.13756 0.71039 0.0
H1281 H 0.98948 0.0666 0.66062 0.0
H1282 H 0.9917 0.09748 0.69099 0.0
H1283 H 0.01589 0.08121 0.85373 0.0
H1284 H 0.01323 0.05012 0.8243 0.0
H1285 H 0.0174 0.11855 0.71191 0.0
H1286 H 0.00681 0.11056 0.96226 0.0
H1287 H 0.99113 0.09063 0.03074 0.0
H1288 H 0.95367 0.07732 0.89605 0.0
H1289 H 0.96897 0.09736 0.82705 0.0
C1290 C 0.02986 0.19238 0.85848 0.0
C1291 C 0.01593 0.20164 0.88628 0.0
C1292 C 0.02759 0.17492 0.83872 0.0
C1293 C 0.01115 0.16626 0.84423 0.0
C1294 C 0.99709 0.17559 0.87054 0.0
C1295 C 0.99944 0.19295 0.89145 0.0
C1296 C 0.00877 0.14739 0.82443 0.0
C1297 C 1.00081 0.13515 0.86299 0.0
C1298 C 0.01457 0.14123 0.76875 0.0
C1299 C 0.02219 0.1533 0.72391 0.0
C1300 C 0.01304 0.16867 0.70647 0.0
C1301 C 0.02049 0.18013 0.66507 0.0
C1302 C 0.03692 0.1762 0.63992 0.0
C1303 C 0.04591 0.16077 0.65597 0.0
C1304 C 0.03862 0.14935 0.69783 0.0
C1305 C 0.99523 0.0695 0.70306 0.0
C1306 C 1.00108 0.05572 0.7401 0.0
C1307 C 0.99654 0.08727 0.72033 0.0
C1308 C 0.00376 0.09184 0.77509 0.0
C1309 C 0.0099 0.07813 0.81181 0.0
C1310 C 0.00846 0.0603 0.79474 0.0
C1311 C 0.00501 0.11093 0.7931 0.0
C1312 C 0.01276 0.12315 0.75429 0.0
C1313 C 0.99865 0.11715 0.84787 0.0
C1314 C 0.98915 0.10533 0.88936 0.0
C1315 C 0.99518 0.10344 0.94736 0.0
C1316 C 0.98637 0.09211 0.98624 0.0
C1317 C 0.97145 0.08267 0.9677 0.0
C1318 C 0.96526 0.0846 0.9103 0.0
C1319 C 0.97401 0.09593 0.87128 0.0
H1320 H 0.96468 0.07388 0.99783 0.0
H1321 H 0.04273 0.18508 0.608 0.0
H1322 H 0.31258 0.02813 0.97943 0.0
H1323 H 0.34133 0.02793 0.93072 0.0
H1324 H 0.31944 0.99713 0.78896 0.0
H1325 H 0.29042 0.99736 0.83745 0.0
H1326 H 0.35117 0.98408 0.82065 0.0
H1327 H 0.32898 0.04144 0.77118 0.0
H1328 H 0.31575 0.07083 0.78925 0.0
H1329 H 0.35982 0.08486 0.89888 0.0
H1330 H 0.37321 0.05545 0.88212 0.0
H1331 H 0.42978 0.99498 0.64744 0.0
H1332 H 0.39894 0.99565 0.68089 0.0
H1333 H 0.41433 0.02709 0.83034 0.0
H1334 H 0.44502 0.02684 0.79676 0.0
H1335 H 0.38464 0.03972 0.78555 0.0
H1336 H 0.40607 0.98166 0.83821 0.0
H1337 H 0.41962 0.95256 0.81774 0.0
H1338 H 0.37698 0.93989 0.70051 0.0
H1339 H 0.36325 0.96904 0.71968 0.0
C1340 C 0.3137 0.02157 0.93735 0.0
C1341 C 0.29898 0.01292 0.91228 0.0
C1342 C 0.33026 0.02141 0.90956 0.0
C1343 C 0.33262 0.0127 0.85562 0.0
C1344 C 0.31802 0.00396 0.83049 0.0
C1345 C 0.3014 0.0041 0.85837 0.0
C1346 C 0.3504 0.01259 0.82629 0.0
C1347 C 0.35835 0.99628 0.81208 0.0
C1348 C 0.36 0.02844 0.81572 0.0
C1349 C 0.35202 0.04617 0.82576 0.0
C1350 C 0.33579 0.05074 0.79949 0.0
C1351 C 0.32827 0.06741 0.80944 0.0
C1352 C 0.33692 0.07969 0.8453 0.0
C1353 C 0.35313 0.07533 0.87116 0.0
C1354 C 0.3607 0.05867 0.8614 0.0
C1355 C 0.42663 1.0021 0.68736 0.0
C1356 C 0.44003 0.01084 0.71935 0.0
C1357 C 0.40895 1.00239 0.70662 0.0
C1358 C 0.40424 0.01125 0.75866 0.0
C1359 C 0.41754 0.02016 0.7901 0.0
C1360 C 0.43517 0.01995 0.77081 0.0
C1361 C 0.38556 0.01122 0.78095 0.0
C1362 C 0.37742 0.02753 0.79375 0.0
C1363 C 0.37581 0.99536 0.79011 0.0
C1364 C 0.38376 0.97764 0.77975 0.0
C1365 C 0.39963 0.97272 0.80776 0.0
C1366 C 0.40733 0.95621 0.79642 0.0
C1367 C 0.39919 0.94442 0.75762 0.0
C1368 C 0.38327 0.94907 0.73042 0.0
C1369 C 0.37552 0.96558 0.74153 0.0
H1370 H 0.40519 0.93166 0.74877 0.0
H1371 H 0.33108 0.09259 0.85295 0.0
H1372 H 0.48972 0.30347 0.83842 0.0
H1373 H 0.48828 0.33229 0.7872 0.0
H1374 H 0.48972 0.35934 0.95359 0.0
H1375 H 0.49162 0.33079 0.00445 0.0
H1376 H 0.46332 0.37241 0.87346 0.0
H1377 H 0.5255 0.35757 0.88096 0.0
H1378 H 0.5515 0.33862 0.86234 0.0
H1379 H 0.54218 0.34185 0.67714 0.0
H1380 H 0.51576 0.36051 0.69457 0.0
H1381 H 0.48358 0.46159 0.81064 0.0
H1382 H 0.48289 0.43122 0.84758 0.0
H1383 H 0.49549 0.41158 0.67485 0.0
H1384 H 0.49687 0.44201 0.63808 0.0
H1385 H 0.51315 0.3931 0.74892 0.0
H1386 H 0.45219 0.409 0.73806 0.0
H1387 H 0.4255 0.42721 0.75429 0.0
H1388 H 0.4314 0.42124 0.94056 0.0
H1389 H 0.45828 0.40318 0.92548 0.0
C1390 C 0.48963 0.31559 0.86385 0.0
C1391 C 0.49083 0.31492 0.92537 0.0
C1392 C 0.48885 0.33202 0.83463 0.0
C1393 C 0.48892 0.348 0.86656 0.0
C1394 C 0.48962 0.34724 0.92802 0.0
C1395 C 0.49076 0.33092 0.95701 0.0
C1396 C 0.48865 0.36561 0.83659 0.0
C1397 C 0.47425 0.377 0.84649 0.0
C1398 C 0.50266 0.3714 0.79993 0.0
C1399 C 0.51849 0.3602 0.78914 0.0
C1400 C 0.52883 0.35405 0.83625 0.0
C1401 C 0.54365 0.34338 0.82588 0.0
C1402 C 0.54839 0.33894 0.76852 0.0
C1403 C 0.53836 0.34522 0.72142 0.0
C1404 C 0.52346 0.35583 0.73152 0.0
C1405 C 0.48613 0.45084 0.78032 0.0
C1406 C 0.49014 0.45436 0.72117 0.0
C1407 C 0.48564 0.43338 0.80151 0.0
C1408 C 0.48876 0.41889 0.76394 0.0
C1409 C 0.49295 0.4224 0.70494 0.0
C1410 C 0.49368 0.43988 0.68386 0.0
C1411 C 0.48788 0.40019 0.78647 0.0
C1412 C 0.50206 0.38854 0.7752 0.0
C1413 C 0.47353 0.39404 0.8213 0.0
C1414 C 0.45734 0.40485 0.83062 0.0
C1415 C 0.44787 0.41167 0.78249 0.0
C1416 C 0.43269 0.42195 0.79149 0.0
C1417 C 0.42678 0.42542 0.84843 0.0
C1418 C 0.43601 0.41856 0.89649 0.0
C1419 C 0.4512 0.40828 0.88774 0.0
H1420 H 0.41503 0.43338 0.8553 0.0
H1421 H 0.55989 0.33071 0.76054 0.0
H1422 H 0.20516 0.50232 0.79342 0.0
H1423 H 0.17674 0.50365 0.74073 0.0
H1424 H 0.14925 0.48964 0.9002 0.0
H1425 H 0.1774 0.48781 0.95189 0.0
H1426 H 0.1361 0.47134 0.81595 0.0
H1427 H 0.15206 0.53405 0.83526 0.0
H1428 H 0.17103 0.56018 0.81752 0.0
H1429 H 0.16618 0.55259 0.63154 0.0
H1430 H 0.14736 0.52634 0.64831 0.0
H1431 H 0.04716 0.49457 0.77487 0.0
H1432 H 0.078 0.49288 0.80567 0.0
H1433 H 0.09484 0.50938 0.63332 0.0
H1434 H 0.06389 0.51144 0.60228 0.0
H1435 H 0.11515 0.52427 0.70734 0.0
H1436 H 0.09565 0.46466 0.6863 0.0
H1437 H 0.07709 0.4382 0.70081 0.0
H1438 H 0.08886 0.43872 0.88499 0.0
H1439 H 0.10739 0.46534 0.87175 0.0
C1440 C 0.19302 0.49957 0.81708 0.0
C1441 C 0.1936 0.49478 0.87676 0.0
C1442 C 0.17674 0.5004 0.78699 0.0
C1443 C 0.16067 0.49685 0.81635 0.0
C1444 C 0.16134 0.4923 0.87609 0.0
C1445 C 0.17752 0.49123 0.90574 0.0
C1446 C 0.14304 0.49751 0.78594 0.0
C1447 C 0.13148 0.48301 0.79269 0.0
C1448 C 0.13717 0.51232 0.75281 0.0
C1449 C 0.14849 0.52811 0.74302 0.0
C1450 C 0.15516 0.53789 0.79062 0.0
C1451 C 0.16586 0.55274 0.78074 0.0
C1452 C 0.16986 0.55801 0.72345 0.0
C1453 C 0.16311 0.54848 0.67589 0.0
C1454 C 0.15242 0.53362 0.68556 0.0
C1455 C 0.05738 0.49771 0.74317 0.0
C1456 C 0.05293 0.50287 0.68571 0.0
C1457 C 0.07512 0.49664 0.76084 0.0
C1458 C 0.08896 0.50036 0.72133 0.0
C1459 C 0.08453 0.50603 0.66439 0.0
C1460 C 0.06676 0.50718 0.64666 0.0
C1461 C 0.10792 0.49843 0.73986 0.0
C1462 C 0.11978 0.51255 0.73022 0.0
C1463 C 0.11415 0.48316 0.76991 0.0
C1464 C 0.10297 0.46708 0.77794 0.0
C1465 C 0.09431 0.45919 0.72991 0.0
C1466 C 0.08375 0.44415 0.73794 0.0
C1467 C 0.08179 0.43678 0.79379 0.0
C1468 C 0.0904 0.44443 0.84173 0.0
C1469 C 0.10096 0.45949 0.83395 0.0
H1470 H 0.07361 0.42513 0.79991 0.0
H1471 H 0.17815 0.56951 0.7159 0.0
H1472 H 0.01879 0.81477 0.38184 0.0
H1473 H 0.01729 0.8435 0.43034 0.0
H1474 H 0.96824 0.8283 0.51341 0.0
H1475 H 0.96973 0.79927 0.46523 0.0
H1476 H 0.96545 0.86097 0.47311 0.0
H1477 H 0.00757 0.8305 0.59077 0.0
H1478 H 0.03431 0.81301 0.61372 0.0
H1479 H 0.06724 0.85423 0.54328 0.0
H1480 H 0.04073 0.87181 0.51834 0.0
H1481 H 0.99955 0.93412 0.69379 0.0
H1482 H 0.99864 0.90354 0.65921 0.0
H1483 H 0.98238 0.92173 0.48809 0.0
H1484 H 0.98277 0.95236 0.52303 0.0
H1485 H 0.01628 0.88606 0.58317 0.0
H1486 H 0.95788 0.89089 0.41773 0.0
H1487 H 0.92983 0.90731 0.40598 0.0
H1488 H 0.92696 0.91519 0.59224 0.0
H1489 H 0.95485 0.89861 0.60518 0.0
C1490 C 0.00781 0.81731 0.41121 0.0
C1491 C 0.99448 0.80446 0.41987 0.0
C1492 C 0.00695 0.83387 0.43891 0.0
C1493 C 0.99278 0.83812 0.47636 0.0
C1494 C 0.97935 0.82541 0.48483 0.0
C1495 C 0.9802 0.80879 0.45707 0.0
C1496 C 0.99183 0.85598 0.5051 0.0
C1497 C 0.97658 0.86642 0.49721 0.0
C1498 C 0.00614 0.86309 0.53792 0.0
C1499 C 0.02212 0.85242 0.55216 0.0
C1500 C 0.02049 0.83577 0.57959 0.0
C1501 C 0.03561 0.82586 0.59313 0.0
C1502 C 0.05243 0.83251 0.58012 0.0
C1503 C 0.05419 0.84909 0.55335 0.0
C1504 C 0.03912 0.85903 0.53943 0.0
C1505 C 0.99564 0.93168 0.64891 0.0
C1506 C 0.99113 0.94585 0.6115 0.0
C1507 C 0.99519 0.91408 0.62901 0.0
C1508 C 0.99025 0.91011 0.57103 0.0
C1509 C 0.98587 0.92426 0.53338 0.0
C1510 C 0.98618 0.94187 0.55343 0.0
C1511 C 0.9901 0.89127 0.54975 0.0
C1512 C 0.00514 0.88062 0.55909 0.0
C1513 C 0.97544 0.88382 0.51959 0.0
C1514 C 0.95855 0.89365 0.51231 0.0
C1515 C 0.95123 0.89606 0.45619 0.0
C1516 C 0.93536 0.90541 0.44932 0.0
C1517 C 0.92665 0.91234 0.49831 0.0
C1518 C 0.93375 0.90988 0.55431 0.0
C1519 C 0.9496 0.90053 0.56142 0.0
H1520 H 0.91437 0.91958 0.49289 0.0
H1521 H 0.0641 0.82482 0.5908 0.0
H1522 H 0.70094 0.02337 0.50256 0.0
H1523 H 0.67056 0.02401 0.53999 0.0
H1524 H 0.65722 0.97932 0.43077 0.0
H1525 H 0.68743 0.97893 0.39183 0.0
H1526 H 0.63244 0.00496 0.42193 0.0
H1527 H 0.66117 0.97468 0.58658 0.0
H1528 H 0.6837 0.97184 0.66454 0.0
H1529 H 0.66817 0.02231 0.73492 0.0
H1530 H 0.64546 0.02535 0.65774 0.0
H1531 H 0.54738 0.9863 0.53702 0.0
H1532 H 0.57822 0.98525 0.50493 0.0
H1533 H 0.59197 0.02447 0.63491 0.0
H1534 H 0.56123 0.02482 0.66932 0.0
H1535 H 0.61688 1.00241 0.63278 0.0
H1536 H 0.58769 0.0333 0.47894 0.0
H1537 H 0.56531 0.03881 0.40227 0.0
H1538 H 0.58226 0.99214 0.31016 0.0
H1539 H 0.6046 0.98622 0.38673 0.0
C1540 C 0.69158 0.01362 0.48656 0.0
C1541 C 0.69677 1.00108 0.44407 0.0
C1542 C 0.67419 0.01391 0.50847 0.0
C1543 C 0.6615 1.00162 0.48871 0.0
C1544 C 0.6667 0.98893 0.44696 0.0
C1545 C 0.6841 0.9886 0.42512 0.0
C1546 C 0.64268 1.00241 0.50961 0.0
C1547 C 0.62902 0.00415 0.46808 0.0
C1548 C 0.63813 1.00214 0.56987 0.0
C1549 C 0.65172 1.00027 0.61629 0.0
C1550 C 0.66261 0.98517 0.61865 0.0
C1551 C 0.67536 0.98351 0.66279 0.0
C1552 C 0.67736 0.99689 0.70468 0.0
C1553 C 0.6666 0.01195 0.70252 0.0
C1554 C 0.65374 0.01361 0.65876 0.0
C1555 C 0.55695 0.99472 0.55886 0.0
C1556 C 0.55172 0.00572 0.60563 0.0
C1557 C 0.57465 0.99421 0.54009 0.0
C1558 C 0.58758 0.00507 0.56636 0.0
C1559 C 0.58239 0.01594 0.61359 0.0
C1560 C 0.56474 0.01617 0.63321 0.0
C1561 C 0.60649 0.00486 0.54538 0.0
C1562 C 0.62021 1.00326 0.58677 0.0
C1563 C 0.61111 0.00573 0.48506 0.0
C1564 C 0.5977 0.00923 0.43889 0.0
C1565 C 0.58656 0.02414 0.44256 0.0
C1566 C 0.57389 0.02735 0.39909 0.0
C1567 C 0.57234 0.0158 0.35146 0.0
C1568 C 0.58347 1.00105 0.34713 0.0
C1569 C 0.59614 0.99777 0.39053 0.0
H1570 H 0.56253 0.01831 0.31783 0.0
H1571 H 0.68723 0.99558 0.73885 0.0
H1572 H 0.53736 0.7072 0.48198 0.0
H1573 H 0.53354 0.67725 0.52083 0.0
H1574 H 0.48298 0.6732 0.43431 0.0
H1575 H 0.48701 0.70281 0.39257 0.0
H1576 H 0.4849 0.6584 0.55667 0.0
H1577 H 0.5137 0.65569 0.36599 0.0
H1578 H 0.53684 0.66412 0.29479 0.0
H1579 H 0.5771 0.64507 0.41203 0.0
H1580 H 0.55419 0.63678 0.48435 0.0
H1581 H 0.49789 0.55753 0.49413 0.0
H1582 H 0.50034 0.58864 0.46379 0.0
H1583 H 0.50675 0.60424 0.64433 0.0
H1584 H 0.50369 0.57342 0.67522 0.0
H1585 H 0.52609 0.61344 0.47452 0.0
H1586 H 0.4919 0.63792 0.67336 0.0
H1587 H 0.46905 0.62903 0.7452 0.0
H1588 H 0.44009 0.60245 0.60898 0.0
H1589 H 0.4626 0.61167 0.5363 0.0
C1590 C 0.5254 0.70002 0.47093 0.0
C1591 C 0.51265 0.70752 0.43304 0.0
C1592 C 0.52318 0.6829 0.49377 0.0
C1593 C 0.50803 0.67292 0.48019 0.0
C1594 C 0.49475 0.68069 0.44556 0.0
C1595 C 0.49707 0.69773 0.42191 0.0
C1596 C 0.50681 0.65392 0.49785 0.0
C1597 C 0.49393 0.64861 0.53878 0.0
C1598 C 0.5185 0.64103 0.4745 0.0
C1599 C 0.53225 0.64578 0.43077 0.0
C1600 C 0.5275 0.65343 0.37677 0.0
C1601 C 0.54057 0.65817 0.33618 0.0
C1602 C 0.55843 0.65518 0.34894 0.0
C1603 C 0.56326 0.6474 0.40224 0.0
C1604 C 0.55024 0.64267 0.44302 0.0
C1605 C 0.49981 0.56759 0.52741 0.0
C1606 C 0.50044 0.56294 0.58717 0.0
C1607 C 0.50124 0.58539 0.50997 0.0
C1608 C 0.50339 0.5989 0.55185 0.0
C1609 C 0.50457 0.59418 0.61132 0.0
C1610 C 0.50292 0.57648 0.62886 0.0
C1611 C 0.50425 0.61791 0.53356 0.0
C1612 C 0.51708 0.62323 0.49255 0.0
C1613 C 0.49257 0.6308 0.55688 0.0
C1614 C 0.47864 0.62586 0.59949 0.0
C1615 C 0.4804 0.63061 0.6587 0.0
C1616 C 0.46762 0.62536 0.69958 0.0
C1617 C 0.45309 0.61523 0.68165 0.0
C1618 C 0.45131 0.61036 0.62277 0.0
C1619 C 0.46404 0.61564 0.58172 0.0
H1620 H 0.44326 0.61109 0.7134 0.0
H1621 H 0.56853 0.65885 0.31747 0.0
H1622 H 0.7902 0.50003 0.49106 0.0
H1623 H 0.82047 0.50026 0.5289 0.0
H1624 H 0.83749 0.5307 0.37891 0.0
H1625 H 0.80743 0.52981 0.33939 0.0
H1626 H 0.85987 0.50469 0.39704 0.0
H1627 H 0.83306 0.54864 0.52189 0.0
H1628 H 0.81113 0.56034 0.59214 0.0
H1629 H 0.82564 0.52013 0.71663 0.0
H1630 H 0.84744 0.508 0.64673 0.0
H1631 H 0.94622 0.52572 0.49825 0.0
H1632 H 0.91545 0.52716 0.46535 0.0
H1633 H 0.89909 0.49698 0.61672 0.0
H1634 H 0.9298 0.49583 0.65071 0.0
H1635 H 0.87631 0.52271 0.59893 0.0
H1636 H 0.90233 0.4783 0.47673 0.0
H1637 H 0.92406 0.46555 0.40783 0.0
H1638 H 0.91075 0.50519 0.27994 0.0
H1639 H 0.88911 0.51835 0.34844 0.0
C1640 C 0.80035 0.50681 0.466 0.0
C1641 C 0.79621 0.51488 0.41191 0.0
C1642 C 0.8177 0.50708 0.48811 0.0
C1643 C 0.83139 0.51563 0.45717 0.0
C1644 C 0.82723 0.52403 0.40384 0.0
C1645 C 0.80991 0.52369 0.38156 0.0
C1646 C 0.85014 0.51515 0.47884 0.0
C1647 C 0.86346 0.50892 0.44091 0.0
C1648 C 0.85491 0.52005 0.53679 0.0
C1649 C 0.84177 0.52731 0.57881 0.0
C1650 C 0.83147 0.5422 0.56404 0.0
C1651 C 0.81907 0.54892 0.60383 0.0
C1652 C 0.81694 0.54094 0.65873 0.0
C1653 C 0.82725 0.52626 0.67402 0.0
C1654 C 0.83964 0.51946 0.63435 0.0
C1655 C 0.93611 0.51936 0.52465 0.0
C1656 C 0.94062 0.51057 0.57709 0.0
C1657 C 0.91846 0.52012 0.50555 0.0
C1658 C 0.90484 0.51195 0.53794 0.0
C1659 C 0.90927 0.50337 0.59072 0.0
C1660 C 0.92692 0.50267 0.61003 0.0
C1661 C 0.88602 0.51241 0.51693 0.0
C1662 C 0.8727 0.51855 0.55499 0.0
C1663 C 0.88121 0.50729 0.45926 0.0
C1664 C 0.89423 0.49942 0.41797 0.0
C1665 C 0.90414 0.48439 0.4341 0.0
C1666 C 0.91642 0.47708 0.39508 0.0
C1667 C 0.91882 0.48459 0.3396 0.0
C1668 C 0.9089 0.49941 0.32297 0.0
C1669 C 0.89662 0.50679 0.36186 0.0
H1670 H 0.92832 0.4789 0.30944 0.0
H1671 H 0.80734 0.54617 0.68948 0.0
loop_
_geom_bond_atom_site_label_1
_geom_bond_atom_site_label_2
_geom_bond_distance
_geom_bond_site_symmetry_2
_ccdc_geom_bond_type
C0 C1 1.386 . S
C0 C2 1.397 . S
C0 H24 0.931 . S
C1 C0 1.386 . S
C1 C5 1.397 . S
C2 C0 1.397 . S
C2 C3 1.384 . S
C2 H25 0.930 . S
C3 C2 1.384 . S
C3 C4 1.377 . S
C3 C6 1.481 . S
C4 C3 1.377 . S
C4 C5 1.389 . S
C4 H26 0.929 . S
C5 C1 1.397 . S
C5 C4 1.389 . S
C5 H27 0.931 . S
C6 C3 1.481 . S
C6 C7 1.387 . S
C6 C11 1.390 . S
C7 C6 1.387 . S
C7 C8 1.401 . S
C7 H28 0.930 . S
C8 C7 1.401 . S
C8 C9 1.376 . S
C8 C17 1.511 . S
C9 C8 1.376 . S
C9 C10 1.392 . S
C9 H30 0.931 . S
C10 C9 1.392 . S
C10 C11 1.361 . S
C10 C12 1.500 . S
C11 C6 1.390 . S
C11 C10 1.361 . S
C11 H29 0.931 . S
C12 C10 1.500 . S
C12 C13 1.371 . S
C12 C14 1.365 . S
C13 C12 1.371 . S
C13 C23 1.386 . S
C13 H31 0.931 . S
C14 C12 1.365 . S
C14 C15 1.409 . S
C14 H32 0.929 . S
C15 C14 1.409 . S
C15 C16 1.380 . S
C15 H33 0.930 . S
C16 C15 1.380 . S
C16 C23 1.357 . S
C17 C8 1.511 . S
C17 C18 1.341 . S
C17 C19 1.371 . S
C18 C17 1.341 . S
C18 C22 1.394 . S
C18 H34 0.930 . S
C19 C17 1.371 . S
C19 C20 1.392 . S
C19 H35 0.931 . S
C20 C19 1.392 . S
C20 C21 1.331 . S
C20 H38 0.932 . S
C21 C20 1.331 . S
C21 C22 1.336 . S
C22 C18 1.394 . S
C22 C21 1.336 . S
C22 H37 0.929 . S
C23 C13 1.386 . S
C23 C16 1.357 . S
C23 H36 0.928 . S
H24 C0 0.931 . S
H25 C2 0.930 . S
H26 C4 0.929 . S
H27 C5 0.931 . S
H28 C7 0.930 . S
H29 C11 0.931 . S
H30 C9 0.931 . S
H31 C13 0.931 . S
H32 C14 0.929 . S
H33 C15 0.930 . S
H34 C18 0.930 . S
H35 C19 0.931 . S
H36 C23 0.928 . S
H37 C22 0.929 . S
H38 C20 0.932 . S
C39 C40 1.386 . S
C39 C41 1.397 . S
C39 H63 0.931 . S
C40 C39 1.386 . S
C40 C44 1.397 1_655 S
C41 C39 1.397 . S
C41 C42 1.384 . S
C41 H64 0.930 . S
C42 C41 1.384 . S
C42 C43 1.377 1_655 S
C42 C45 1.481 . S
C43 C42 1.377 1_455 S
C43 C44 1.389 . S
C43 H65 0.929 . S
C44 C40 1.397 1_455 S
C44 C43 1.389 . S
C44 H66 0.931 . S
C45 C42 1.481 . S
C45 C46 1.387 . S
C45 C50 1.390 . S
C46 C45 1.387 . S
C46 C47 1.401 . S
C46 H67 0.930 . S
C47 C46 1.401 . S
C47 C48 1.376 . S
C47 C56 1.511 . S
C48 C47 1.376 . S
C48 C49 1.392 . S
C48 H69 0.931 . S
C49 C48 1.392 . S
C49 C50 1.361 . S
C49 C51 1.502 . S
C50 C45 1.390 . S
C50 C49 1.361 . S
C50 H68 0.931 . S
C51 C49 1.502 . S
C51 C52 1.398 . S
C51 C53 1.338 1_655 S
C52 C51 1.398 . S
C52 C62 1.386 . S
C52 H70 0.931 . S
C53 C51 1.338 1_455 S
C53 C54 1.409 . S
C53 H71 0.929 . S
C54 C53 1.409 . S
C54 C55 1.380 1_455 S
C54 H72 0.930 . S
C55 C54 1.380 1_655 S
C55 C62 1.357 . S
C56 C47 1.511 . S
C56 C57 1.341 . S
C56 C58 1.371 1_655 S
C57 C56 1.341 . S
C57 C61 1.394 . S
C57 H73 0.930 . S
C58 C56 1.371 1_455 S
C58 C59 1.392 . S
C58 H74 0.931 . S
C59 C58 1.392 . S
C59 C60 1.331 1_455 S
C59 H77 0.932 . S
C60 C59 1.331 1_655 S
C60 C61 1.336 . S
C61 C57 1.394 . S
C61 C60 1.336 . S
C61 H76 0.929 . S
C62 C52 1.386 . S
C62 C55 1.357 . S
C62 H75 0.928 . S
H63 C39 0.931 . S
H64 C41 0.930 . S
H65 C43 0.929 . S
H66 C44 0.931 . S
H67 C46 0.930 . S
H68 C50 0.931 . S
H69 C48 0.931 . S
H70 C52 0.931 . S
H71 C53 0.929 . S
H72 C54 0.930 . S
H73 C57 0.930 . S
H74 C58 0.931 . S
H75 C62 0.928 . S
H76 C61 0.929 . S
H77 C59 0.932 . S
C78 C79 1.386 . S
C78 C80 1.397 . S
C78 H102 0.931 . S
C79 C78 1.386 . S
C79 C83 1.397 1_565 S
C80 C78 1.397 . S
C80 C81 1.384 . S
C80 H103 0.930 . S
C81 C80 1.384 . S
C81 C82 1.377 1_565 S
C81 C84 1.481 . S
C82 C81 1.377 1_545 S
C82 C83 1.389 . S
C82 H104 0.929 . S
C83 C79 1.397 1_545 S
C83 C82 1.389 . S
C83 H105 0.931 . S
C84 C81 1.481 . S
C84 C85 1.387 . S
C84 C89 1.390 . S
C85 C84 1.387 . S
C85 C86 1.401 . S
C85 H106 0.930 . S
C86 C85 1.401 . S
C86 C87 1.376 . S
C86 C95 1.511 . S
C87 C86 1.376 . S
C87 C88 1.392 . S
C87 H108 0.931 . S
C88 C87 1.392 . S
C88 C89 1.361 . S
C88 C90 1.502 . S
C89 C84 1.390 . S
C89 C88 1.361 . S
C89 H107 0.931 . S
C90 C88 1.502 . S
C90 C91 1.400 . S
C90 C92 1.337 1_565 S
C91 C90 1.400 . S
C91 C101 1.386 . S
C91 H109 0.931 . S
C92 C90 1.337 1_545 S
C92 C93 1.409 . S
C92 H110 0.929 . S
C93 C92 1.409 . S
C93 C94 1.380 1_545 S
C93 H111 0.930 . S
C94 C93 1.380 1_565 S
C94 C101 1.357 . S
C95 C86 1.511 . S
C95 C96 1.341 . S
C95 C97 1.371 1_565 S
C96 C95 1.341 . S
C96 C100 1.394 . S
C96 H112 0.930 . S
C97 C95 1.371 1_545 S
C97 C98 1.392 . S
C97 H113 0.931 . S
C98 C97 1.392 . S
C98 C99 1.331 1_545 S
C98 H116 0.932 . S
C99 C98 1.331 1_565 S
C99 C100 1.336 . S
C100 C96 1.394 . S
C100 C99 1.336 . S
C100 H115 0.929 . S
C101 C91 1.386 . S
C101 C94 1.357 . S
C101 H114 0.928 . S
H102 C78 0.931 . S
H103 C80 0.930 . S
H104 C82 0.929 . S
H105 C83 0.931 . S
H106 C85 0.930 . S
H107 C89 0.931 . S
H108 C87 0.931 . S
H109 C91 0.931 . S
H110 C92 0.929 . S
H111 C93 0.930 . S
H112 C96 0.930 . S
H113 C97 0.931 . S
H114 C101 0.928 . S
H115 C100 0.929 . S
H116 C98 0.932 . S
C117 C118 1.386 . S
C117 C119 1.397 . S
C117 H141 0.931 . S
C118 C117 1.386 . S
C118 C122 1.397 . S
C119 C117 1.397 . S
C119 C120 1.384 . S
C119 H142 0.930 . S
C120 C119 1.384 . S
C120 C121 1.377 . S
C120 C123 1.481 . S
C121 C120 1.377 . S
C121 C122 1.389 . S
C121 H143 0.929 . S
C122 C118 1.397 . S
C122 C121 1.389 . S
C122 H144 0.931 . S
C123 C120 1.481 . S
C123 C124 1.387 . S
C123 C128 1.390 . S
C124 C123 1.387 . S
C124 C125 1.401 . S
C124 H145 0.930 . S
C125 C124 1.401 . S
C125 C126 1.376 . S
C125 C134 1.511 . S
C126 C125 1.376 . S
C126 C127 1.392 . S
C126 H147 0.931 . S
C127 C126 1.392 . S
C127 C128 1.361 . S
C127 C129 1.500 . S
C128 C123 1.390 . S
C128 C127 1.361 . S
C128 H146 0.931 . S
C129 C127 1.500 . S
C129 C130 1.371 . S
C129 C131 1.365 . S
C130 C129 1.371 . S
C130 C140 1.386 . S
C130 H148 0.931 . S
C131 C129 1.365 . S
C131 C132 1.409 . S
C131 H149 0.929 . S
C132 C131 1.409 . S
C132 C133 1.380 . S
C132 H150 0.930 . S
C133 C132 1.380 . S
C133 C140 1.357 . S
C134 C125 1.511 . S
C134 C135 1.341 . S
C134 C136 1.371 . S
C135 C134 1.341 . S
C135 C139 1.394 . S
C135 H151 0.930 . S
C136 C134 1.371 . S
C136 C137 1.392 . S
C136 H152 0.931 . S
C137 C136 1.392 . S
C137 C138 1.331 . S
C137 H155 0.932 . S
C138 C137 1.331 . S
C138 C139 1.336 . S
C139 C135 1.394 . S
C139 C138 1.336 . S
C139 H154 0.929 . S
C140 C130 1.386 . S
C140 C133 1.357 . S
C140 H153 0.928 . S
H141 C117 0.931 . S
H142 C119 0.930 . S
H143 C121 0.929 . S
H144 C122 0.931 . S
H145 C124 0.930 . S
H146 C128 0.931 . S
H147 C126 0.931 . S
H148 C130 0.931 . S
H149 C131 0.929 . S
H150 C132 0.930 . S
H151 C135 0.930 . S
H152 C136 0.931 . S
H153 C140 0.928 . S
H154 C139 0.929 . S
H155 C137 0.932 . S
C156 C157 1.386 . S
C156 C158 1.397 . S
C156 H180 0.931 . S
C157 C156 1.386 . S
C157 C161 1.397 . S
C158 C156 1.397 . S
C158 C159 1.384 . S
C158 H181 0.930 . S
C159 C158 1.384 . S
C159 C160 1.377 . S
C159 C162 1.481 . S
C160 C159 1.377 . S
C160 C161 1.389 . S
C160 H182 0.929 . S
C161 C157 1.397 . S
C161 C160 1.389 . S
C161 H183 0.931 . S
C162 C159 1.481 . S
C162 C163 1.387 . S
C162 C167 1.390 . S
C163 C162 1.387 . S
C163 C164 1.401 . S
C163 H184 0.930 . S
C164 C163 1.401 . S
C164 C165 1.376 1_554 S
C164 C173 1.511 . S
C165 C164 1.376 1_556 S
C165 C166 1.392 . S
C165 H186 0.931 . S
C166 C165 1.392 . S
C166 C167 1.361 1_556 S
C166 C168 1.500 . S
C167 C162 1.390 . S
C167 C166 1.361 1_554 S
C167 H185 0.931 . S
C168 C166 1.500 . S
C168 C169 1.371 . S
C168 C170 1.365 . S
C169 C168 1.371 . S
C169 C179 1.386 . S
C169 H187 0.931 . S
C170 C168 1.365 . S
C170 C171 1.409 . S
C170 H188 0.929 . S
C171 C170 1.409 . S
C171 C172 1.380 . S
C171 H189 0.930 . S
C172 C171 1.380 . S
C172 C179 1.357 . S
C173 C164 1.511 . S
C173 C174 1.341 . S
C173 C175 1.371 . S
C174 C173 1.341 . S
C174 C178 1.394 . S
C174 H190 0.930 . S
C175 C173 1.371 . S
C175 C176 1.392 . S
C175 H191 0.931 1_554 S
C176 C175 1.392 . S
C176 C177 1.331 . S
C176 H194 0.932 . S
C177 C176 1.331 . S
C177 C178 1.336 . S
C178 C174 1.394 . S
C178 C177 1.336 . S
C178 H193 0.929 . S
C179 C169 1.386 . S
C179 C172 1.357 . S
C179 H192 0.928 . S
H180 C156 0.931 . S
H181 C158 0.930 . S
H182 C160 0.929 . S
H183 C161 0.931 . S
H184 C163 0.930 . S
H185 C167 0.931 . S
H186 C165 0.931 . S
H187 C169 0.931 . S
H188 C170 0.929 . S
H189 C171 0.930 . S
H190 C174 0.930 . S
H191 C175 0.931 1_556 S
H192 C179 0.928 . S
H193 C178 0.929 . S
H194 C176 0.932 . S
C195 C196 1.386 1_655 S
C195 C197 1.397 . S
C195 H219 0.931 . S
C196 C195 1.386 1_455 S
C196 C200 1.397 . S
C197 C195 1.397 . S
C197 C198 1.384 1_655 S
C197 H220 0.930 . S
C198 C197 1.384 1_455 S
C198 C199 1.377 . S
C198 C201 1.483 . S
C199 C198 1.377 . S
C199 C200 1.389 . S
C199 H221 0.929 . S
C200 C196 1.397 . S
C200 C199 1.389 . S
C200 H222 0.931 . S
C201 C198 1.483 . S
C201 C202 1.386 . S
C201 C206 1.393 . S
C202 C201 1.386 . S
C202 C203 1.400 . S
C202 H223 0.929 1_455 S
C203 C202 1.400 . S
C203 C204 1.376 1_554 S
C203 C212 1.510 . S
C204 C203 1.376 1_556 S
C204 C205 1.395 . S
C204 H225 0.930 . S
C205 C204 1.395 . S
C205 C206 1.361 1_556 S
C205 C207 1.500 . S
C206 C201 1.393 . S
C206 C205 1.361 1_554 S
C206 H224 0.931 . S
C207 C205 1.500 . S
C207 C208 1.371 1_455 S
C207 C209 1.365 . S
C208 C207 1.371 1_655 S
C208 C218 1.386 . S
C208 H226 0.931 . S
C209 C207 1.365 . S
C209 C210 1.409 . S
C209 H227 0.929 . S
C210 C209 1.409 . S
C210 C211 1.380 . S
C210 H228 0.930 . S
C211 C210 1.380 . S
C211 C218 1.357 1_455 S
C212 C203 1.510 . S
C212 C213 1.338 1_455 S
C212 C214 1.374 . S
C213 C212 1.338 1_655 S
C213 C217 1.394 . S
C213 H229 0.930 . S
C214 C212 1.374 . S
C214 C215 1.392 . S
C214 H230 0.931 1_554 S
C215 C214 1.392 . S
C215 C216 1.331 . S
C215 H233 0.932 . S
C216 C215 1.331 . S
C216 C217 1.336 1_455 S
C217 C213 1.394 . S
C217 C216 1.336 1_655 S
C217 H232 0.929 . S
C218 C208 1.386 . S
C218 C211 1.357 1_655 S
C218 H231 0.928 . S
H219 C195 0.931 . S
H220 C197 0.930 . S
H221 C199 0.929 . S
H222 C200 0.931 . S
H223 C202 0.929 1_655 S
H224 C206 0.931 . S
H225 C204 0.930 . S
H226 C208 0.931 . S
H227 C209 0.929 . S
H228 C210 0.930 . S
H229 C213 0.930 . S
H230 C214 0.931 1_556 S
H231 C218 0.928 . S
H232 C217 0.929 . S
H233 C215 0.932 . S
C234 C235 1.386 1_565 S
C234 C236 1.397 . S
C234 H258 0.931 . S
C235 C234 1.386 1_545 S
C235 C239 1.397 . S
C236 C234 1.397 . S
C236 C237 1.384 1_565 S
C236 H259 0.930 . S
C237 C236 1.384 1_545 S
C237 C238 1.377 . S
C237 C240 1.481 . S
C238 C237 1.377 . S
C238 C239 1.389 . S
C238 H260 0.929 . S
C239 C235 1.397 . S
C239 C238 1.389 . S
C239 H261 0.931 . S
C240 C237 1.481 . S
C240 C241 1.388 . S
C240 C245 1.390 . S
C241 C240 1.388 . S
C241 C242 1.402 . S
C241 H262 0.929 1_545 S
C242 C241 1.402 . S
C242 C243 1.378 1_554 S
C242 C251 1.512 . S
C243 C242 1.378 1_556 S
C243 C244 1.395 . S
C243 H264 0.930 . S
C244 C243 1.395 . S
C244 C245 1.361 1_556 S
C244 C246 1.500 . S
C245 C240 1.390 . S
C245 C244 1.361 1_554 S
C245 H263 0.931 . S
C246 C244 1.500 . S
C246 C247 1.371 1_545 S
C246 C248 1.365 . S
C247 C246 1.371 1_565 S
C247 C257 1.386 . S
C247 H265 0.931 . S
C248 C246 1.365 . S
C248 C249 1.409 . S
C248 H266 0.929 . S
C249 C248 1.409 . S
C249 C250 1.380 . S
C249 H267 0.930 . S
C250 C249 1.380 . S
C250 C257 1.357 1_545 S
C251 C242 1.512 . S
C251 C252 1.337 1_545 S
C251 C253 1.376 . S
C252 C251 1.337 1_565 S
C252 C256 1.394 . S
C252 H268 0.930 . S
C253 C251 1.376 . S
C253 C254 1.392 . S
C253 H269 0.931 1_554 S
C254 C253 1.392 . S
C254 C255 1.331 . S
C254 H272 0.932 . S
C255 C254 1.331 . S
C255 C256 1.336 1_545 S
C256 C252 1.394 . S
C256 C255 1.336 1_565 S
C256 H271 0.929 . S
C257 C247 1.386 . S
C257 C250 1.357 1_565 S
C257 H270 0.928 . S
H258 C234 0.931 . S
H259 C236 0.930 . S
H260 C238 0.929 . S
H261 C239 0.931 . S
H262 C241 0.929 1_565 S
H263 C245 0.931 . S
H264 C243 0.930 . S
H265 C247 0.931 . S
H266 C248 0.929 . S
H267 C249 0.930 . S
H268 C252 0.930 . S
H269 C253 0.931 1_556 S
H270 C257 0.928 . S
H271 C256 0.929 . S
H272 C254 0.932 . S
C273 C274 1.386 . S
C273 C275 1.397 . S
C273 H297 0.931 . S
C274 C273 1.386 . S
C274 C278 1.397 . S
C275 C273 1.397 . S
C275 C276 1.384 . S
C275 H298 0.930 . S
C276 C275 1.384 . S
C276 C277 1.377 . S
C276 C279 1.481 . S
C277 C276 1.377 . S
C277 C278 1.389 . S
C277 H299 0.929 . S
C278 C274 1.397 . S
C278 C277 1.389 . S
C278 H300 0.931 . S
C279 C276 1.481 . S
C279 C280 1.387 . S
C279 C284 1.390 1_556 S
C280 C279 1.387 . S
C280 C281 1.401 1_556 S
C280 H301 0.930 . S
C281 C280 1.401 1_554 S
C281 C282 1.376 . S
C281 C290 1.511 . S
C282 C281 1.376 . S
C282 C283 1.392 . S
C282 H303 0.931 . S
C283 C282 1.392 . S
C283 C284 1.361 . S
C283 C285 1.500 . S
C284 C279 1.390 1_554 S
C284 C283 1.361 . S
C284 H302 0.931 . S
C285 C283 1.500 . S
C285 C286 1.371 . S
C285 C287 1.365 . S
C286 C285 1.371 . S
C286 C296 1.386 . S
C286 H304 0.931 . S
C287 C285 1.365 . S
C287 C288 1.409 . S
C287 H305 0.929 . S
C288 C287 1.409 . S
C288 C289 1.380 . S
C288 H306 0.930 . S
C289 C288 1.380 . S
C289 C296 1.357 . S
C290 C281 1.511 . S
C290 C291 1.341 . S
C290 C292 1.371 . S
C291 C290 1.341 . S
C291 C295 1.394 . S
C291 H307 0.930 1_554 S
C292 C290 1.371 . S
C292 C293 1.392 . S
C292 H308 0.931 . S
C293 C292 1.392 . S
C293 C294 1.331 . S
C293 H311 0.932 . S
C294 C293 1.331 . S
C294 C295 1.336 . S
C295 C291 1.394 . S
C295 C294 1.336 . S
C295 H310 0.929 . S
C296 C286 1.386 . S
C296 C289 1.357 . S
C296 H309 0.928 . S
H297 C273 0.931 . S
H298 C275 0.930 . S
H299 C277 0.929 . S
H300 C278 0.931 . S
H301 C280 0.930 . S
H302 C284 0.931 . S
H303 C282 0.931 . S
H304 C286 0.931 . S
H305 C287 0.929 . S
H306 C288 0.930 . S
H307 C291 0.930 1_556 S
H308 C292 0.931 . S
H309 C296 0.928 . S
H310 C295 0.929 . S
H311 C293 0.932 . S
Pr312 C314 2.880 . S
Pr312 O332 2.562 . S
Pr312 O333 2.490 . S
Pr312 O334 2.695 1_565 S
Pr312 O335 2.512 . S
Pr312 O337 2.437 . S
Pr312 O340 2.436 1_455 S
Pr312 O342 2.438 1_565 S
Pr313 C323 2.880 . S
Pr313 O334 2.436 1_655 S
Pr313 O336 2.438 1_545 S
Pr313 O338 2.562 . S
Pr313 O339 2.490 . S
Pr313 O340 2.695 1_545 S
Pr313 O341 2.512 . S
Pr313 O343 2.437 . S
C314 Pr312 2.880 . S
C314 C315 1.491 . S
C314 O332 1.254 . S
C314 O333 1.225 . S
C315 C314 1.491 . S
C315 C316 1.392 . S
C315 C320 1.356 . S
C316 C315 1.392 . S
C316 C317 1.368 . S
C316 H344 0.929 . S
C317 C316 1.368 . S
C317 C318 1.386 . S
C317 H345 0.929 . S
C318 C317 1.386 . S
C318 C319 1.373 . S
C319 C318 1.373 . S
C319 C320 1.409 . S
C319 H346 0.931 1_455 S
C320 C315 1.356 . S
C320 C319 1.409 . S
C320 H347 0.930 1_455 S
C321 O334 1.255 1_565 S
C321 O335 1.276 . S
C322 O336 1.267 . S
C322 O337 1.278 1_655 S
C323 Pr313 2.880 . S
C323 C324 1.491 . S
C323 O338 1.254 . S
C323 O339 1.225 . S
C324 C323 1.491 . S
C324 C325 1.392 . S
C324 C329 1.356 . S
C325 C324 1.392 . S
C325 C326 1.368 . S
C325 H348 0.929 . S
C326 C325 1.368 . S
C326 C327 1.386 . S
C326 H349 0.929 . S
C327 C326 1.386 . S
C327 C328 1.373 . S
C328 C327 1.373 . S
C328 C329 1.409 . S
C328 H350 0.931 1_655 S
C329 C324 1.356 . S
C329 C328 1.409 . S
C329 H351 0.930 1_655 S
C330 O340 1.250 1_545 S
C330 O341 1.284 . S
C331 O342 1.267 . S
C331 O343 1.278 1_455 S
O332 Pr312 2.562 . S
O332 C314 1.254 . S
O333 Pr312 2.490 . S
O333 C314 1.225 . S
O334 Pr312 2.695 1_545 S
O334 Pr313 2.436 1_455 S
O334 C321 1.255 1_545 S
O335 Pr312 2.512 . S
O335 C321 1.276 . S
O336 Pr313 2.438 1_565 S
O336 C322 1.267 . S
O337 Pr312 2.437 . S
O337 C322 1.278 1_455 S
O338 Pr313 2.562 . S
O338 C323 1.254 . S
O339 Pr313 2.490 . S
O339 C323 1.225 . S
O340 Pr312 2.436 1_655 S
O340 Pr313 2.695 1_565 S
O340 C330 1.250 1_565 S
O341 Pr313 2.512 . S
O341 C330 1.284 . S
O342 Pr312 2.438 1_545 S
O342 C331 1.267 . S
O343 Pr313 2.437 . S
O343 C331 1.278 1_655 S
H344 C316 0.929 . S
H345 C317 0.929 . S
H346 C319 0.931 1_655 S
H347 C320 0.930 1_655 S
H348 C325 0.929 . S
H349 C326 0.929 . S
H350 C328 0.931 1_455 S
H351 C329 0.930 1_455 S
Pr352 C354 2.880 . S
Pr352 O372 2.562 . S
Pr352 O373 2.490 . S
Pr352 O374 2.695 . S
Pr352 O375 2.512 . S
Pr352 O377 2.437 . S
Pr352 O380 2.436 1_545 S
Pr352 O382 2.438 . S
Pr353 C363 2.880 . S
Pr353 O374 2.436 1_565 S
Pr353 O376 2.438 . S
Pr353 O378 2.562 . S
Pr353 O379 2.490 . S
Pr353 O380 2.695 . S
Pr353 O381 2.512 . S
Pr353 O383 2.437 . S
C354 Pr352 2.880 . S
C354 C355 1.491 . S
C354 O372 1.254 . S
C354 O373 1.225 . S
C355 C354 1.491 . S
C355 C356 1.392 . S
C355 C360 1.356 . S
C356 C355 1.392 . S
C356 C357 1.368 . S
C356 H384 0.929 . S
C357 C356 1.368 . S
C357 C358 1.386 . S
C357 H385 0.929 . S
C358 C357 1.386 . S
C358 C359 1.373 . S
C359 C358 1.373 . S
C359 C360 1.409 . S
C359 H386 0.931 1_545 S
C360 C355 1.356 . S
C360 C359 1.409 . S
C360 H387 0.930 1_545 S
C361 O374 1.270 . S
C361 O375 1.248 . S
C362 O376 1.267 . S
C362 O377 1.278 1_565 S
C363 Pr353 2.880 . S
C363 C364 1.491 . S
C363 O378 1.254 . S
C363 O379 1.225 . S
C364 C363 1.491 . S
C364 C365 1.392 . S
C364 C369 1.356 . S
C365 C364 1.392 . S
C365 C366 1.368 . S
C365 H388 0.929 . S
C366 C365 1.368 . S
C366 C367 1.386 . S
C366 H389 0.929 . S
C367 C366 1.386 . S
C367 C368 1.373 . S
C368 C367 1.373 . S
C368 C369 1.409 . S
C368 H390 0.931 1_565 S
C369 C364 1.356 . S
C369 C368 1.409 . S
C369 H391 0.930 1_565 S
C370 O380 1.270 . S
C370 O381 1.248 . S
C371 O382 1.267 . S
C371 O383 1.278 1_545 S
O372 Pr352 2.562 . S
O372 C354 1.254 . S
O373 Pr352 2.490 . S
O373 C354 1.225 . S
O374 Pr352 2.695 . S
O374 Pr353 2.436 1_545 S
O374 C361 1.270 . S
O375 Pr352 2.512 . S
O375 C361 1.248 . S
O376 Pr353 2.438 . S
O376 C362 1.267 . S
O377 Pr352 2.437 . S
O377 C362 1.278 1_545 S
O378 Pr353 2.562 . S
O378 C363 1.254 . S
O379 Pr353 2.490 . S
O379 C363 1.225 . S
O380 Pr352 2.436 1_565 S
O380 Pr353 2.695 . S
O380 C370 1.270 . S
O381 Pr353 2.512 . S
O381 C370 1.248 . S
O382 Pr352 2.438 . S
O382 C371 1.267 . S
O383 Pr353 2.437 . S
O383 C371 1.278 1_565 S
H384 C356 0.929 . S
H385 C357 0.929 . S
H386 C359 0.931 1_565 S
H387 C360 0.930 1_565 S
H388 C365 0.929 . S
H389 C366 0.929 . S
H390 C368 0.931 1_545 S
H391 C369 0.930 1_545 S
Pr392 C394 2.880 . S
Pr392 O412 2.562 . S
Pr392 O413 2.490 . S
Pr392 O414 2.695 . S
Pr392 O415 2.512 . S
Pr392 O417 2.437 . S
Pr392 O420 2.436 . S
Pr392 O422 2.438 . S
Pr393 C403 2.880 . S
Pr393 O414 2.436 . S
Pr393 O416 2.438 . S
Pr393 O418 2.562 . S
Pr393 O419 2.490 . S
Pr393 O420 2.695 . S
Pr393 O421 2.512 . S
Pr393 O423 2.437 . S
C394 Pr392 2.880 . S
C394 C395 1.491 . S
C394 O412 1.254 . S
C394 O413 1.225 . S
C395 C394 1.491 . S
C395 C396 1.392 . S
C395 C400 1.356 . S
C396 C395 1.392 . S
C396 C397 1.368 . S
C396 H424 0.929 . S
C397 C396 1.368 . S
C397 C398 1.386 . S
C397 H425 0.929 . S
C398 C397 1.386 . S
C398 C399 1.373 . S
C399 C398 1.373 . S
C399 C400 1.409 . S
C399 H426 0.931 . S
C400 C395 1.356 . S
C400 C399 1.409 . S
C400 H427 0.930 . S
C401 O414 1.270 . S
C401 O415 1.248 . S
C402 O416 1.267 . S
C402 O417 1.278 . S
C403 Pr393 2.880 . S
C403 C404 1.491 . S
C403 O418 1.254 . S
C403 O419 1.225 . S
C404 C403 1.491 . S
C404 C405 1.392 . S
C404 C409 1.356 . S
C405 C404 1.392 . S
C405 C406 1.368 . S
C405 H428 0.929 . S
C406 C405 1.368 . S
C406 C407 1.386 . S
C406 H429 0.929 . S
C407 C406 1.386 . S
C407 C408 1.373 . S
C408 C407 1.373 . S
C408 C409 1.409 . S
C408 H430 0.931 . S
C409 C404 1.356 . S
C409 C408 1.409 . S
C409 H431 0.930 . S
C410 O420 1.270 . S
C410 O421 1.248 . S
C411 O422 1.267 . S
C411 O423 1.278 . S
O412 Pr392 2.562 . S
O412 C394 1.254 . S
O413 Pr392 2.490 . S
O413 C394 1.225 . S
O414 Pr392 2.695 . S
O414 Pr393 2.436 . S
O414 C401 1.270 . S
O415 Pr392 2.512 . S
O415 C401 1.248 . S
O416 Pr393 2.438 . S
O416 C402 1.267 . S
O417 Pr392 2.437 . S
O417 C402 1.278 . S
O418 Pr393 2.562 . S
O418 C403 1.254 . S
O419 Pr393 2.490 . S
O419 C403 1.225 . S
O420 Pr392 2.436 . S
O420 Pr393 2.695 . S
O420 C410 1.270 . S
O421 Pr393 2.512 . S
O421 C410 1.248 . S
O422 Pr392 2.438 . S
O422 C411 1.267 . S
O423 Pr393 2.437 . S
O423 C411 1.278 . S
H424 C396 0.929 . S
H425 C397 0.929 . S
H426 C399 0.931 . S
H427 C400 0.930 . S
H428 C405 0.929 . S
H429 C406 0.929 . S
H430 C408 0.931 . S
H431 C409 0.930 . S
Pr432 C434 2.880 . S
Pr432 O452 2.562 . S
Pr432 O453 2.490 . S
Pr432 O454 2.695 1_655 S
Pr432 O455 2.512 . S
Pr432 O457 2.437 . S
Pr432 O460 2.436 . S
Pr432 O462 2.438 1_655 S
Pr433 C443 2.880 . S
Pr433 O454 2.436 . S
Pr433 O456 2.438 1_455 S
Pr433 O458 2.562 . S
Pr433 O459 2.490 . S
Pr433 O460 2.695 1_455 S
Pr433 O461 2.512 . S
Pr433 O463 2.437 . S
C434 Pr432 2.880 . S
C434 C435 1.491 . S
C434 O452 1.254 . S
C434 O453 1.225 . S
C435 C434 1.491 . S
C435 C436 1.392 . S
C435 C440 1.356 . S
C436 C435 1.392 . S
C436 C437 1.368 . S
C436 H464 0.929 . S
C437 C436 1.368 . S
C437 C438 1.386 . S
C437 H465 0.929 . S
C438 C437 1.386 . S
C438 C439 1.373 . S
C439 C438 1.373 . S
C439 C440 1.409 . S
C439 H466 0.931 . S
C440 C435 1.356 . S
C440 C439 1.409 . S
C440 H467 0.930 . S
C441 O454 1.255 1_655 S
C441 O455 1.275 . S
C442 O456 1.267 . S
C442 O457 1.278 . S
C443 Pr433 2.880 . S
C443 C444 1.491 . S
C443 O458 1.254 . S
C443 O459 1.225 . S
C444 C443 1.491 . S
C444 C445 1.392 . S
C444 C449 1.356 . S
C445 C444 1.392 . S
C445 C446 1.368 . S
C445 H468 0.929 . S
C446 C445 1.368 . S
C446 C447 1.386 . S
C446 H469 0.929 . S
C447 C446 1.386 . S
C447 C448 1.373 . S
C448 C447 1.373 . S
C448 C449 1.409 . S
C448 H470 0.931 . S
C449 C444 1.356 . S
C449 C448 1.409 . S
C449 H471 0.930 . S
C450 O460 1.251 1_455 S
C450 O461 1.284 . S
C451 O462 1.267 . S
C451 O463 1.278 . S
O452 Pr432 2.562 . S
O452 C434 1.254 . S
O453 Pr432 2.490 . S
O453 C434 1.225 . S
O454 Pr432 2.695 1_455 S
O454 Pr433 2.436 . S
O454 C441 1.255 1_455 S
O455 Pr432 2.512 . S
O455 C441 1.275 . S
O456 Pr433 2.438 1_655 S
O456 C442 1.267 . S
O457 Pr432 2.437 . S
O457 C442 1.278 . S
O458 Pr433 2.562 . S
O458 C443 1.254 . S
O459 Pr433 2.490 . S
O459 C443 1.225 . S
O460 Pr432 2.436 . S
O460 Pr433 2.695 1_655 S
O460 C450 1.251 1_655 S
O461 Pr433 2.512 . S
O461 C450 1.284 . S
O462 Pr432 2.438 1_455 S
O462 C451 1.267 . S
O463 Pr433 2.437 . S
O463 C451 1.278 . S
H464 C436 0.929 . S
H465 C437 0.929 . S
H466 C439 0.931 . S
H467 C440 0.930 . S
H468 C445 0.929 . S
H469 C446 0.929 . S
H470 C448 0.931 . S
H471 C449 0.930 . S
H472 C490 0.951 . S
H473 C492 0.951 . S
H474 C494 0.950 . S
H475 C495 0.950 . S
H476 C497 0.950 . S
H477 C500 0.950 . S
H478 C501 0.950 . S
H479 C503 0.950 . S
H480 C504 0.950 . S
H481 C505 0.951 . S
H482 C507 0.951 . S
H483 C509 0.950 . S
H484 C510 0.950 . S
H485 C512 0.950 . S
H486 C515 0.950 . S
H487 C516 0.950 . S
H488 C518 0.950 . S
H489 C519 0.950 . S
C490 H472 0.951 . S
C490 C491 1.366 . S
C490 C492 1.389 . S
C491 C490 1.366 . S
C491 C495 1.385 . S
C492 H473 0.951 . S
C492 C490 1.389 . S
C492 C493 1.366 . S
C493 C492 1.366 . S
C493 C494 1.415 . S
C493 C496 1.499 . S
C494 H474 0.950 . S
C494 C493 1.415 . S
C494 C495 1.374 . S
C495 H475 0.950 . S
C495 C491 1.385 . S
C495 C494 1.374 . S
C496 C493 1.499 . S
C496 C497 1.389 . S
C496 C498 1.375 1_545 S
C497 H476 0.950 . S
C497 C496 1.389 . S
C497 C513 1.377 . S
C498 C496 1.375 1_565 S
C498 C499 1.524 . S
C498 C512 1.377 . S
C499 C498 1.524 . S
C499 C500 1.397 . S
C499 C504 1.363 . S
C500 H477 0.950 . S
C500 C499 1.397 . S
C500 C501 1.334 . S
C501 H478 0.950 . S
C501 C500 1.334 . S
C501 C502 1.287 . S
C502 C501 1.287 . S
C502 C503 1.524 . S
C502 H521 0.913 . S
C503 H479 0.950 . S
C503 C502 1.524 . S
C503 C504 1.415 . S
C504 H480 0.950 . S
C504 C499 1.363 . S
C504 C503 1.415 . S
C505 H481 0.951 . S
C505 C506 1.366 . S
C505 C507 1.388 . S
C506 C505 1.366 . S
C506 C510 1.385 . S
C507 H482 0.951 . S
C507 C505 1.388 . S
C507 C508 1.366 . S
C508 C507 1.366 . S
C508 C509 1.414 . S
C508 C511 1.499 . S
C509 H483 0.950 . S
C509 C508 1.414 . S
C509 C510 1.374 . S
C510 H484 0.950 . S
C510 C506 1.385 . S
C510 C509 1.374 . S
C511 C508 1.499 . S
C511 C512 1.373 1_545 S
C511 C513 1.389 . S
C512 H485 0.950 . S
C512 C498 1.377 . S
C512 C511 1.373 1_565 S
C513 C497 1.377 . S
C513 C511 1.389 . S
C513 C514 1.524 . S
C514 C513 1.524 . S
C514 C515 1.397 . S
C514 C519 1.363 . S
C515 H486 0.950 . S
C515 C514 1.397 . S
C515 C516 1.334 . S
C516 H487 0.950 . S
C516 C515 1.334 . S
C516 C517 1.287 . S
C517 C516 1.287 . S
C517 C518 1.524 . S
C517 H520 0.999 . S
C518 H488 0.950 . S
C518 C517 1.524 . S
C518 C519 1.415 . S
C519 H489 0.950 . S
C519 C514 1.363 . S
C519 C518 1.415 . S
H520 C517 0.999 . S
H521 C502 0.913 . S
H522 C540 0.951 . S
H523 C542 0.951 . S
H524 C544 0.950 . S
H525 C545 0.950 . S
H526 C547 0.950 . S
H527 C550 0.950 . S
H528 C551 0.950 . S
H529 C553 0.950 . S
H530 C554 0.950 . S
H531 C555 0.951 . S
H532 C557 0.951 . S
H533 C559 0.950 . S
H534 C560 0.950 . S
H535 C562 0.950 . S
H536 C565 0.950 . S
H537 C566 0.950 . S
H538 C568 0.950 . S
H539 C569 0.950 . S
C540 H522 0.951 . S
C540 C541 1.366 . S
C540 C542 1.388 . S
C541 C540 1.366 . S
C541 C545 1.385 . S
C542 H523 0.951 . S
C542 C540 1.388 . S
C542 C543 1.366 . S
C543 C542 1.366 . S
C543 C544 1.414 . S
C543 C546 1.499 . S
C544 H524 0.950 . S
C544 C543 1.414 . S
C544 C545 1.374 . S
C545 H525 0.950 . S
C545 C541 1.385 . S
C545 C544 1.374 . S
C546 C543 1.499 . S
C546 C547 1.373 . S
C546 C548 1.389 . S
C547 H526 0.950 . S
C547 C546 1.373 . S
C547 C563 1.377 . S
C548 C546 1.389 . S
C548 C549 1.524 . S
C548 C562 1.377 . S
C549 C548 1.524 . S
C549 C550 1.397 . S
C549 C554 1.363 . S
C550 H527 0.950 . S
C550 C549 1.397 . S
C550 C551 1.334 . S
C551 H528 0.950 . S
C551 C550 1.334 . S
C551 C552 1.287 . S
C552 C551 1.287 . S
C552 C553 1.524 . S
C552 H571 0.913 . S
C553 H529 0.950 . S
C553 C552 1.524 . S
C553 C554 1.415 . S
C554 H530 0.950 . S
C554 C549 1.363 . S
C554 C553 1.415 . S
C555 H531 0.951 . S
C555 C556 1.366 . S
C555 C557 1.388 . S
C556 C555 1.366 . S
C556 C560 1.385 . S
C557 H532 0.951 . S
C557 C555 1.388 . S
C557 C558 1.366 . S
C558 C557 1.366 . S
C558 C559 1.414 . S
C558 C561 1.499 . S
C559 H533 0.950 . S
C559 C558 1.414 . S
C559 C560 1.374 . S
C560 H534 0.950 . S
C560 C556 1.385 . S
C560 C559 1.374 . S
C561 C558 1.499 . S
C561 C562 1.373 . S
C561 C563 1.389 . S
C562 H535 0.950 . S
C562 C548 1.377 . S
C562 C561 1.373 . S
C563 C547 1.377 . S
C563 C561 1.389 . S
C563 C564 1.524 . S
C564 C563 1.524 . S
C564 C565 1.397 . S
C564 C569 1.363 . S
C565 H536 0.950 . S
C565 C564 1.397 . S
C565 C566 1.334 . S
C566 H537 0.950 . S
C566 C565 1.334 . S
C566 C567 1.287 . S
C567 C566 1.287 . S
C567 C568 1.524 . S
C567 H570 0.999 . S
C568 H538 0.950 . S
C568 C567 1.524 . S
C568 C569 1.415 . S
C569 H539 0.950 . S
C569 C564 1.363 . S
C569 C568 1.415 . S
H570 C567 0.999 . S
H571 C552 0.913 . S
H572 C590 0.951 . S
H573 C592 0.951 . S
H574 C594 0.950 . S
H575 C595 0.950 . S
H576 C597 0.950 . S
H577 C600 0.950 . S
H578 C601 0.950 . S
H579 C603 0.950 . S
H580 C604 0.950 . S
H581 C605 0.951 . S
H582 C607 0.951 . S
H583 C609 0.950 . S
H584 C610 0.950 . S
H585 C612 0.950 . S
H586 C615 0.950 . S
H587 C616 0.950 . S
H588 C618 0.950 . S
H589 C619 0.950 . S
C590 H572 0.951 . S
C590 C591 1.366 . S
C590 C592 1.388 . S
C591 C590 1.366 . S
C591 C595 1.385 . S
C592 H573 0.951 . S
C592 C590 1.388 . S
C592 C593 1.366 . S
C593 C592 1.366 . S
C593 C594 1.414 . S
C593 C596 1.499 . S
C594 H574 0.950 . S
C594 C593 1.414 . S
C594 C595 1.374 . S
C595 H575 0.950 . S
C595 C591 1.385 . S
C595 C594 1.374 . S
C596 C593 1.499 . S
C596 C597 1.373 . S
C596 C598 1.389 . S
C597 H576 0.950 . S
C597 C596 1.373 . S
C597 C613 1.377 . S
C598 C596 1.389 . S
C598 C599 1.524 . S
C598 C612 1.377 . S
C599 C598 1.524 . S
C599 C600 1.397 . S
C599 C604 1.363 . S
C600 H577 0.950 . S
C600 C599 1.397 . S
C600 C601 1.334 . S
C601 H578 0.950 . S
C601 C600 1.334 . S
C601 C602 1.287 . S
C602 C601 1.287 . S
C602 C603 1.524 . S
C602 H621 0.913 . S
C603 H579 0.950 . S
C603 C602 1.524 . S
C603 C604 1.415 . S
C604 H580 0.950 . S
C604 C599 1.363 . S
C604 C603 1.415 . S
C605 H581 0.951 . S
C605 C606 1.366 . S
C605 C607 1.388 . S
C606 C605 1.366 . S
C606 C610 1.385 . S
C607 H582 0.951 . S
C607 C605 1.388 . S
C607 C608 1.366 . S
C608 C607 1.366 . S
C608 C609 1.414 . S
C608 C611 1.499 . S
C609 H583 0.950 . S
C609 C608 1.414 . S
C609 C610 1.374 . S
C610 H584 0.950 . S
C610 C606 1.385 . S
C610 C609 1.374 . S
C611 C608 1.499 . S
C611 C612 1.373 . S
C611 C613 1.389 . S
C612 H585 0.950 . S
C612 C598 1.377 . S
C612 C611 1.373 . S
C613 C597 1.377 . S
C613 C611 1.389 . S
C613 C614 1.524 . S
C614 C613 1.524 . S
C614 C615 1.397 . S
C614 C619 1.363 . S
C615 H586 0.950 . S
C615 C614 1.397 . S
C615 C616 1.334 . S
C616 H587 0.950 . S
C616 C615 1.334 . S
C616 C617 1.287 . S
C617 C616 1.287 . S
C617 C618 1.524 . S
C617 H620 0.999 . S
C618 H588 0.950 . S
C618 C617 1.524 . S
C618 C619 1.415 . S
C619 H589 0.950 . S
C619 C614 1.363 . S
C619 C618 1.415 . S
H620 C617 0.999 . S
H621 C602 0.913 . S
H622 C640 0.951 . S
H623 C642 0.951 . S
H624 C644 0.950 . S
H625 C645 0.950 . S
H626 C647 0.950 . S
H627 C650 0.950 1_655 S
H628 C651 0.950 . S
H629 C653 0.950 . S
H630 C654 0.950 . S
H631 C655 0.951 . S
H632 C657 0.951 . S
H633 C659 0.950 . S
H634 C660 0.950 . S
H635 C662 0.950 . S
H636 C665 0.950 1_455 S
H637 C666 0.946 1_455 S
H638 C668 0.950 . S
H639 C669 0.950 . S
C640 H622 0.951 . S
C640 C641 1.366 . S
C640 C642 1.388 . S
C641 C640 1.366 . S
C641 C645 1.385 1_455 S
C642 H623 0.951 . S
C642 C640 1.388 . S
C642 C643 1.366 . S
C643 C642 1.366 . S
C643 C644 1.414 1_455 S
C643 C646 1.500 . S
C644 H624 0.950 . S
C644 C643 1.414 1_655 S
C644 C645 1.374 . S
C645 H625 0.950 . S
C645 C641 1.385 1_655 S
C645 C644 1.374 . S
C646 C643 1.500 . S
C646 C647 1.357 1_455 S
C646 C648 1.408 . S
C647 H626 0.950 . S
C647 C646 1.357 1_655 S
C647 C663 1.377 . S
C648 C646 1.408 . S
C648 C649 1.524 . S
C648 C662 1.377 . S
C649 C648 1.524 . S
C649 C650 1.397 . S
C649 C654 1.363 . S
C650 H627 0.950 1_455 S
C650 C649 1.397 . S
C650 C651 1.334 . S
C651 H628 0.950 . S
C651 C650 1.334 . S
C651 C652 1.287 . S
C652 C651 1.287 . S
C652 C653 1.524 . S
C652 H671 0.913 . S
C653 H629 0.950 . S
C653 C652 1.524 . S
C653 C654 1.415 . S
C654 H630 0.950 . S
C654 C649 1.363 . S
C654 C653 1.415 . S
C655 H631 0.951 . S
C655 C656 1.366 1_655 S
C655 C657 1.388 . S
C656 C655 1.366 1_455 S
C656 C660 1.385 . S
C657 H632 0.951 . S
C657 C655 1.388 . S
C657 C658 1.366 1_655 S
C658 C657 1.366 1_455 S
C658 C659 1.414 . S
C658 C661 1.499 . S
C659 H633 0.950 . S
C659 C658 1.414 . S
C659 C660 1.374 . S
C660 H634 0.950 . S
C660 C656 1.385 . S
C660 C659 1.374 . S
C661 C658 1.499 . S
C661 C662 1.373 . S
C661 C663 1.389 1_455 S
C662 H635 0.950 . S
C662 C648 1.377 . S
C662 C661 1.373 . S
C663 C647 1.377 . S
C663 C661 1.389 1_655 S
C663 C664 1.524 . S
C664 C663 1.524 . S
C664 C665 1.397 . S
C664 C669 1.363 . S
C665 H636 0.950 1_655 S
C665 C664 1.397 . S
C665 C666 1.334 . S
C666 H637 0.946 1_655 S
C666 C665 1.334 . S
C666 C667 1.287 . S
C667 C666 1.287 . S
C667 C668 1.524 . S
C667 H670 0.999 . S
C668 H638 0.950 . S
C668 C667 1.524 . S
C668 C669 1.415 . S
C669 H639 0.950 . S
C669 C664 1.363 . S
C669 C668 1.415 . S
H670 C667 0.999 . S
H671 C652 0.913 . S
H672 C690 0.951 . S
H673 C692 0.951 . S
H674 C694 0.950 . S
H675 C695 0.950 . S
H676 C697 0.950 . S
H677 C700 0.950 1_565 S
H678 C701 0.950 . S
H679 C703 0.950 . S
H680 C704 0.950 . S
H681 C705 0.951 . S
H682 C707 0.951 . S
H683 C709 0.950 . S
H684 C710 0.950 . S
H685 C712 0.950 . S
H686 C715 1.014 . S
H687 C716 0.950 . S
H688 C718 0.950 . S
H689 C719 0.950 . S
C690 H672 0.951 . S
C690 C691 1.366 1_545 S
C690 C692 1.388 . S
C691 C690 1.366 1_565 S
C691 C695 1.385 . S
C692 H673 0.951 . S
C692 C690 1.388 . S
C692 C693 1.366 1_545 S
C693 C692 1.366 1_565 S
C693 C694 1.414 . S
C693 C696 1.499 . S
C694 H674 0.950 . S
C694 C693 1.414 . S
C694 C695 1.374 . S
C695 H675 0.950 . S
C695 C691 1.385 . S
C695 C694 1.374 . S
C696 C693 1.499 . S
C696 C697 1.373 . S
C696 C698 1.389 1_564 S
C697 H676 0.950 . S
C697 C696 1.373 . S
C697 C713 1.377 1_554 S
C698 C696 1.389 1_546 S
C698 C699 1.524 . S
C698 C712 1.377 . S
C699 C698 1.524 . S
C699 C700 1.397 . S
C699 C704 1.363 . S
C700 H677 0.950 1_545 S
C700 C699 1.397 . S
C700 C701 1.334 . S
C701 H678 0.950 . S
C701 C700 1.334 . S
C701 C702 1.287 . S
C702 C701 1.287 . S
C702 C703 1.524 . S
C702 H721 0.913 . S
C703 H679 0.950 . S
C703 C702 1.524 . S
C703 C704 1.415 . S
C704 H680 0.950 . S
C704 C699 1.363 . S
C704 C703 1.415 . S
C705 H681 0.951 . S
C705 C706 1.366 . S
C705 C707 1.388 . S
C706 C705 1.366 . S
C706 C710 1.385 1_565 S
C707 H682 0.951 . S
C707 C705 1.388 . S
C707 C708 1.366 . S
C708 C707 1.366 . S
C708 C709 1.414 1_565 S
C708 C711 1.500 . S
C709 H683 0.950 . S
C709 C708 1.414 1_545 S
C709 C710 1.374 . S
C710 H684 0.950 . S
C710 C706 1.385 1_545 S
C710 C709 1.374 . S
C711 C708 1.500 . S
C711 C712 1.351 1_565 S
C711 C713 1.413 . S
C712 H685 0.950 . S
C712 C698 1.377 . S
C712 C711 1.351 1_545 S
C713 C697 1.377 1_556 S
C713 C711 1.413 . S
C713 C714 1.524 . S
C714 C713 1.524 . S
C714 C715 1.397 . S
C714 C719 1.363 1_556 S
C715 H686 1.014 . S
C715 C714 1.397 . S
C715 C716 1.334 . S
C716 H687 0.950 . S
C716 C715 1.334 . S
C716 C717 1.287 1_556 S
C717 C716 1.287 1_554 S
C717 C718 1.524 . S
C717 H720 0.999 . S
C718 H688 0.950 . S
C718 C717 1.524 . S
C718 C719 1.415 . S
C719 H689 0.950 . S
C719 C714 1.363 1_554 S
C719 C718 1.415 . S
H720 C717 0.999 . S
H721 C702 0.913 . S
H722 C740 0.951 . S
H723 C742 0.951 . S
H724 C744 0.950 . S
H725 C745 0.950 . S
H726 C747 0.946 1_554 S
H727 C750 0.950 . S
H728 C751 0.950 . S
H729 C753 0.950 . S
H730 C754 0.950 . S
H731 C755 0.951 . S
H732 C757 0.951 . S
H733 C759 0.950 . S
H734 C760 0.950 . S
H735 C762 0.950 . S
H736 C765 0.950 . S
H737 C766 0.950 . S
H738 C768 0.950 . S
H739 C769 0.950 . S
C740 H722 0.951 . S
C740 C741 1.366 . S
C740 C742 1.388 . S
C741 C740 1.366 . S
C741 C745 1.385 . S
C742 H723 0.951 . S
C742 C740 1.388 . S
C742 C743 1.366 . S
C743 C742 1.366 . S
C743 C744 1.414 . S
C743 C746 1.499 . S
C744 H724 0.950 . S
C744 C743 1.414 . S
C744 C745 1.374 . S
C745 H725 0.950 . S
C745 C741 1.385 . S
C745 C744 1.374 . S
C746 C743 1.499 . S
C746 C747 1.364 1_554 S
C746 C748 1.389 . S
C747 H726 0.946 1_556 S
C747 C746 1.364 1_556 S
C747 C763 1.390 . S
C748 C746 1.389 . S
C748 C749 1.524 . S
C748 C762 1.377 1_554 S
C749 C748 1.524 . S
C749 C750 1.397 . S
C749 C754 1.363 . S
C750 H727 0.950 . S
C750 C749 1.397 . S
C750 C751 1.334 . S
C751 H728 0.950 . S
C751 C750 1.334 . S
C751 C752 1.287 . S
C752 C751 1.287 . S
C752 C753 1.524 . S
C752 H771 0.913 . S
C753 H729 0.950 . S
C753 C752 1.524 . S
C753 C754 1.415 . S
C754 H730 0.950 . S
C754 C749 1.363 . S
C754 C753 1.415 . S
C755 H731 0.951 . S
C755 C756 1.366 . S
C755 C757 1.388 . S
C756 C755 1.366 . S
C756 C760 1.385 . S
C757 H732 0.951 . S
C757 C755 1.388 . S
C757 C758 1.366 . S
C758 C757 1.366 . S
C758 C759 1.414 . S
C758 C761 1.499 . S
C759 H733 0.950 . S
C759 C758 1.414 . S
C759 C760 1.374 . S
C760 H734 0.950 . S
C760 C756 1.385 . S
C760 C759 1.374 . S
C761 C758 1.499 . S
C761 C762 1.373 . S
C761 C763 1.389 . S
C762 H735 0.950 . S
C762 C748 1.377 1_556 S
C762 C761 1.373 . S
C763 C747 1.390 . S
C763 C761 1.389 . S
C763 C764 1.524 . S
C764 C763 1.524 . S
C764 C765 1.397 . S
C764 C769 1.363 . S
C765 H736 0.950 . S
C765 C764 1.397 . S
C765 C766 1.334 . S
C766 H737 0.950 . S
C766 C765 1.334 . S
C766 C767 1.287 . S
C767 C766 1.287 . S
C767 C768 1.524 . S
C767 H770 0.999 . S
C768 H738 0.950 . S
C768 C767 1.524 . S
C768 C769 1.415 . S
C769 H739 0.950 . S
C769 C764 1.363 . S
C769 C768 1.415 . S
H770 C767 0.999 . S
H771 C752 0.913 . S
H772 C790 0.951 . S
H773 C792 0.951 . S
H774 C794 0.950 . S
H775 C795 0.950 . S
H776 C797 0.950 1_554 S
H777 C800 0.950 . S
H778 C801 0.950 . S
H779 C803 0.950 . S
H780 C804 0.950 . S
H781 C805 0.951 . S
H782 C807 0.951 . S
H783 C809 0.950 . S
H784 C810 0.950 . S
H785 C812 0.950 . S
H786 C815 0.950 . S
H787 C816 0.950 . S
H788 C818 0.950 . S
H789 C819 0.950 . S
C790 H772 0.951 . S
C790 C791 1.366 . S
C790 C792 1.388 . S
C791 C790 1.366 . S
C791 C795 1.385 . S
C792 H773 0.951 . S
C792 C790 1.388 . S
C792 C793 1.366 . S
C793 C792 1.366 . S
C793 C794 1.414 . S
C793 C796 1.499 . S
C794 H774 0.950 . S
C794 C793 1.414 . S
C794 C795 1.374 . S
C795 H775 0.950 . S
C795 C791 1.385 . S
C795 C794 1.374 . S
C796 C793 1.499 . S
C796 C797 1.373 1_554 S
C796 C798 1.389 . S
C797 H776 0.950 1_556 S
C797 C796 1.373 1_556 S
C797 C813 1.377 . S
C798 C796 1.389 . S
C798 C799 1.524 . S
C798 C812 1.377 1_554 S
C799 C798 1.524 . S
C799 C800 1.397 . S
C799 C804 1.363 . S
C800 H777 0.950 . S
C800 C799 1.397 . S
C800 C801 1.334 . S
C801 H778 0.950 . S
C801 C800 1.334 . S
C801 C802 1.287 . S
C802 C801 1.287 . S
C802 C803 1.524 . S
C802 H821 0.913 . S
C803 H779 0.950 . S
C803 C802 1.524 . S
C803 C804 1.415 . S
C804 H780 0.950 . S
C804 C799 1.363 . S
C804 C803 1.415 . S
C805 H781 0.951 . S
C805 C806 1.366 . S
C805 C807 1.388 . S
C806 C805 1.366 . S
C806 C810 1.385 . S
C807 H782 0.951 . S
C807 C805 1.388 . S
C807 C808 1.366 . S
C808 C807 1.366 . S
C808 C809 1.414 . S
C808 C811 1.499 . S
C809 H783 0.950 . S
C809 C808 1.414 . S
C809 C810 1.374 . S
C810 H784 0.950 . S
C810 C806 1.385 . S
C810 C809 1.374 . S
C811 C808 1.499 . S
C811 C812 1.373 . S
C811 C813 1.389 . S
C812 H785 0.950 . S
C812 C798 1.377 1_556 S
C812 C811 1.373 . S
C813 C797 1.377 . S
C813 C811 1.389 . S
C813 C814 1.524 . S
C814 C813 1.524 . S
C814 C815 1.397 . S
C814 C819 1.363 . S
C815 H786 0.950 . S
C815 C814 1.397 . S
C815 C816 1.334 . S
C816 H787 0.950 . S
C816 C815 1.334 . S
C816 C817 1.287 . S
C817 C816 1.287 . S
C817 C818 1.524 . S
C817 H820 0.999 . S
C818 H788 0.950 . S
C818 C817 1.524 . S
C818 C819 1.415 . S
C819 H789 0.950 . S
C819 C814 1.363 . S
C819 C818 1.415 . S
H820 C817 0.999 . S
H821 C802 0.913 . S
H822 C840 0.951 . S
H823 C842 0.951 . S
H824 C844 0.950 . S
H825 C845 0.950 . S
H826 C847 0.950 . S
H827 C850 0.953 . S
H828 C851 0.950 . S
H829 C853 0.950 . S
H830 C854 0.950 . S
H831 C855 0.951 . S
H832 C857 0.951 . S
H833 C859 0.950 . S
H834 C860 0.950 . S
H835 C862 0.950 . S
H836 C865 0.950 . S
H837 C866 0.950 . S
H838 C868 0.950 . S
H839 C869 0.950 . S
C840 H822 0.951 . S
C840 C841 1.366 1_455 S
C840 C842 1.388 . S
C841 C840 1.366 1_655 S
C841 C845 1.385 . S
C842 H823 0.951 . S
C842 C840 1.388 . S
C842 C843 1.366 1_455 S
C843 C842 1.366 1_655 S
C843 C844 1.414 . S
C843 C846 1.499 . S
C844 H824 0.950 . S
C844 C843 1.414 . S
C844 C845 1.374 . S
C845 H825 0.950 . S
C845 C841 1.385 . S
C845 C844 1.374 . S
C846 C843 1.499 . S
C846 C847 1.373 . S
C846 C848 1.389 1_654 S
C847 H826 0.950 . S
C847 C846 1.373 . S
C847 C863 1.377 1_554 S
C848 C846 1.389 1_456 S
C848 C849 1.524 . S
C848 C862 1.377 . S
C849 C848 1.524 . S
C849 C850 1.397 1_455 S
C849 C854 1.363 . S
C850 H827 0.953 . S
C850 C849 1.397 1_655 S
C850 C851 1.334 . S
C851 H828 0.950 . S
C851 C850 1.334 . S
C851 C852 1.287 1_655 S
C852 C851 1.287 1_455 S
C852 C853 1.524 . S
C852 H871 0.913 . S
C853 H829 0.950 . S
C853 C852 1.524 . S
C853 C854 1.415 . S
C854 H830 0.950 . S
C854 C849 1.363 . S
C854 C853 1.415 . S
C855 H831 0.951 . S
C855 C856 1.366 . S
C855 C857 1.388 . S
C856 C855 1.366 . S
C856 C860 1.385 1_655 S
C857 H832 0.951 . S
C857 C855 1.388 . S
C857 C858 1.400 . S
C858 C857 1.400 . S
C858 C859 1.381 1_655 S
C858 C861 1.498 . S
C859 H833 0.950 . S
C859 C858 1.381 1_455 S
C859 C860 1.374 . S
C860 H834 0.950 . S
C860 C856 1.385 1_455 S
C860 C859 1.374 . S
C861 C858 1.498 . S
C861 C862 1.372 1_655 S
C861 C863 1.391 . S
C862 H835 0.950 . S
C862 C848 1.377 . S
C862 C861 1.372 1_455 S
C863 C847 1.377 1_556 S
C863 C861 1.391 . S
C863 C864 1.526 . S
C864 C863 1.526 . S
C864 C865 1.399 1_655 S
C864 C869 1.358 1_556 S
C865 H836 0.950 . S
C865 C864 1.399 1_455 S
C865 C866 1.334 . S
C866 H837 0.950 . S
C866 C865 1.334 . S
C866 C867 1.287 1_456 S
C867 C866 1.287 1_654 S
C867 C868 1.524 . S
C867 H870 0.999 . S
C868 H838 0.950 . S
C868 C867 1.524 . S
C868 C869 1.415 . S
C869 H839 0.950 . S
C869 C864 1.358 1_554 S
C869 C868 1.415 . S
H870 C867 0.999 . S
H871 C852 0.913 . S
H872 C890 0.951 . S
H873 C892 0.951 . S
H874 C894 0.950 . S
H875 C895 0.950 . S
H876 C897 0.950 . S
H877 C900 0.950 . S
H878 C901 0.950 . S
H879 C903 0.950 . S
H880 C904 0.950 . S
H881 C905 0.951 . S
H882 C907 0.951 1_455 S
H883 C909 0.950 . S
H884 C910 0.950 . S
H885 C912 0.950 . S
H886 C915 0.950 . S
H887 C916 0.950 . S
H888 C918 0.950 . S
H889 C919 0.950 . S
C890 H872 0.951 . S
C890 C891 1.366 1_655 S
C890 C892 1.388 . S
C891 C890 1.366 1_455 S
C891 C895 1.385 . S
C892 H873 0.951 . S
C892 C890 1.388 . S
C892 C893 1.366 . S
C893 C892 1.366 . S
C893 C894 1.414 1_655 S
C893 C896 1.499 . S
C894 H874 0.950 . S
C894 C893 1.414 1_455 S
C894 C895 1.374 . S
C895 H875 0.950 . S
C895 C891 1.385 . S
C895 C894 1.374 . S
C896 C893 1.499 . S
C896 C897 1.373 . S
C896 C898 1.389 . S
C897 H876 0.950 . S
C897 C896 1.373 . S
C897 C913 1.377 . S
C898 C896 1.389 . S
C898 C899 1.524 . S
C898 C912 1.377 . S
C899 C898 1.524 . S
C899 C900 1.397 1_655 S
C899 C904 1.363 . S
C900 H877 0.950 . S
C900 C899 1.397 1_455 S
C900 C901 1.334 . S
C901 H878 0.950 . S
C901 C900 1.334 . S
C901 C902 1.287 1_455 S
C902 C901 1.287 1_655 S
C902 C903 1.524 . S
C902 H921 0.913 . S
C903 H879 0.950 . S
C903 C902 1.524 . S
C903 C904 1.415 . S
C904 H880 0.950 . S
C904 C899 1.363 . S
C904 C903 1.415 . S
C905 H881 0.951 . S
C905 C906 1.366 . S
C905 C907 1.388 . S
C906 C905 1.366 . S
C906 C910 1.385 . S
C907 H882 0.951 1_655 S
C907 C905 1.388 . S
C907 C908 1.366 . S
C908 C907 1.366 . S
C908 C909 1.414 . S
C908 C911 1.499 . S
C909 H883 0.950 . S
C909 C908 1.414 . S
C909 C910 1.374 . S
C910 H884 0.950 . S
C910 C906 1.385 . S
C910 C909 1.374 . S
C911 C908 1.499 . S
C911 C912 1.373 . S
C911 C913 1.389 . S
C912 H885 0.950 . S
C912 C898 1.377 . S
C912 C911 1.373 . S
C913 C897 1.377 . S
C913 C911 1.389 . S
C913 C914 1.524 . S
C914 C913 1.524 . S
C914 C915 1.397 . S
C914 C919 1.363 1_655 S
C915 H886 0.950 . S
C915 C914 1.397 . S
C915 C916 1.334 . S
C916 H887 0.950 . S
C916 C915 1.334 . S
C916 C917 1.287 . S
C917 C916 1.287 . S
C917 C918 1.524 1_655 S
C917 H920 0.999 . S
C918 H888 0.950 . S
C918 C917 1.524 1_455 S
C918 C919 1.415 . S
C919 H889 0.950 . S
C919 C914 1.363 1_455 S
C919 C918 1.415 . S
H920 C917 0.999 . S
H921 C902 0.913 . S
H922 C940 0.951 . S
H923 C942 0.951 . S
H924 C944 0.950 . S
H925 C945 0.950 . S
H926 C947 0.950 . S
H927 C950 0.950 . S
H928 C951 0.950 . S
H929 C953 0.950 . S
H930 C954 0.950 . S
H931 C955 0.951 . S
H932 C957 0.951 . S
H933 C959 0.950 . S
H934 C960 0.950 . S
H935 C962 0.950 . S
H936 C965 0.950 . S
H937 C966 0.950 . S
H938 C968 0.950 . S
H939 C969 0.950 . S
C940 H922 0.951 . S
C940 C941 1.366 . S
C940 C942 1.388 . S
C941 C940 1.366 . S
C941 C945 1.385 1_545 S
C942 H923 0.951 . S
C942 C940 1.388 . S
C942 C943 1.366 1_545 S
C943 C942 1.366 1_565 S
C943 C944 1.414 . S
C943 C946 1.499 . S
C944 H924 0.950 . S
C944 C943 1.414 . S
C944 C945 1.374 . S
C945 H925 0.950 . S
C945 C941 1.385 1_565 S
C945 C944 1.374 . S
C946 C943 1.499 . S
C946 C947 1.373 . S
C946 C948 1.389 1_565 S
C947 H926 0.950 . S
C947 C946 1.373 . S
C947 C963 1.377 . S
C948 C946 1.389 1_545 S
C948 C949 1.524 . S
C948 C962 1.377 . S
C949 C948 1.524 . S
C949 C950 1.397 . S
C949 C954 1.363 . S
C950 H927 0.950 . S
C950 C949 1.397 . S
C950 C951 1.334 . S
C951 H928 0.950 . S
C951 C950 1.334 . S
C951 C952 1.287 . S
C952 C951 1.287 . S
C952 C953 1.524 . S
C952 H971 0.913 . S
C953 H929 0.950 . S
C953 C952 1.524 . S
C953 C954 1.415 . S
C954 H930 0.950 . S
C954 C949 1.363 . S
C954 C953 1.415 . S
C955 H931 0.951 . S
C955 C956 1.366 . S
C955 C957 1.388 . S
C956 C955 1.366 . S
C956 C960 1.385 . S
C957 H932 0.951 . S
C957 C955 1.388 . S
C957 C958 1.366 . S
C958 C957 1.366 . S
C958 C959 1.414 . S
C958 C961 1.499 . S
C959 H933 0.950 . S
C959 C958 1.414 . S
C959 C960 1.374 . S
C960 H934 0.950 . S
C960 C956 1.385 . S
C960 C959 1.374 . S
C961 C958 1.499 . S
C961 C962 1.373 1_565 S
C961 C963 1.389 . S
C962 H935 0.950 . S
C962 C948 1.377 . S
C962 C961 1.373 1_545 S
C963 C947 1.377 . S
C963 C961 1.389 . S
C963 C964 1.524 . S
C964 C963 1.524 . S
C964 C965 1.397 . S
C964 C969 1.363 . S
C965 H936 0.950 . S
C965 C964 1.397 . S
C965 C966 1.334 . S
C966 H937 0.950 . S
C966 C965 1.334 . S
C966 C967 1.287 . S
C967 C966 1.287 . S
C967 C968 1.524 . S
C967 H970 0.999 . S
C968 H938 0.950 . S
C968 C967 1.524 . S
C968 C969 1.415 . S
C969 H939 0.950 . S
C969 C964 1.363 . S
C969 C968 1.415 . S
H970 C967 0.999 . S
H971 C952 0.913 . S
H972 C990 0.951 . S
H973 C992 0.951 . S
H974 C994 0.950 . S
H975 C995 0.950 . S
H976 C997 0.950 . S
H977 C1000 0.950 . S
H978 C1001 0.950 . S
H979 C1003 0.950 . S
H980 C1004 0.950 . S
H981 C1005 0.951 . S
H982 C1007 0.951 . S
H983 C1009 0.950 . S
H984 C1010 0.950 . S
H985 C1012 0.950 . S
H986 C1015 0.950 . S
H987 C1016 0.950 . S
H988 C1018 0.950 . S
H989 C1019 0.950 . S
C990 H972 0.951 . S
C990 C991 1.366 . S
C990 C992 1.388 . S
C991 C990 1.366 . S
C991 C995 1.385 . S
C992 H973 0.951 . S
C992 C990 1.388 . S
C992 C993 1.366 . S
C993 C992 1.366 . S
C993 C994 1.414 . S
C993 C996 1.499 . S
C994 H974 0.950 . S
C994 C993 1.414 . S
C994 C995 1.374 . S
C995 H975 0.950 . S
C995 C991 1.385 . S
C995 C994 1.374 . S
C996 C993 1.499 . S
C996 C997 1.373 . S
C996 C998 1.389 . S
C997 H976 0.950 . S
C997 C996 1.373 . S
C997 C1013 1.377 . S
C998 C996 1.389 . S
C998 C999 1.524 . S
C998 C1012 1.377 . S
C999 C998 1.524 . S
C999 C1000 1.397 . S
C999 C1004 1.363 . S
C1000 H977 0.950 . S
C1000 C999 1.397 . S
C1000 C1001 1.334 . S
C1001 H978 0.950 . S
C1001 C1000 1.334 . S
C1001 C1002 1.287 . S
C1002 C1001 1.287 . S
C1002 C1003 1.524 . S
C1002 H1021 0.913 . S
C1003 H979 0.950 . S
C1003 C1002 1.524 . S
C1003 C1004 1.415 . S
C1004 H980 0.950 . S
C1004 C999 1.363 . S
C1004 C1003 1.415 . S
C1005 H981 0.951 . S
C1005 C1006 1.366 . S
C1005 C1007 1.388 . S
C1006 C1005 1.366 . S
C1006 C1010 1.385 . S
C1007 H982 0.951 . S
C1007 C1005 1.388 . S
C1007 C1008 1.366 . S
C1008 C1007 1.366 . S
C1008 C1009 1.414 . S
C1008 C1011 1.499 . S
C1009 H983 0.950 . S
C1009 C1008 1.414 . S
C1009 C1010 1.374 . S
C1010 H984 0.950 . S
C1010 C1006 1.385 . S
C1010 C1009 1.374 . S
C1011 C1008 1.499 . S
C1011 C1012 1.373 . S
C1011 C1013 1.389 . S
C1012 H985 0.950 . S
C1012 C998 1.377 . S
C1012 C1011 1.373 . S
C1013 C997 1.377 . S
C1013 C1011 1.389 . S
C1013 C1014 1.524 . S
C1014 C1013 1.524 . S
C1014 C1015 1.397 . S
C1014 C1019 1.363 . S
C1015 H986 0.950 . S
C1015 C1014 1.397 . S
C1015 C1016 1.334 . S
C1016 H987 0.950 . S
C1016 C1015 1.334 . S
C1016 C1017 1.287 . S
C1017 C1016 1.287 . S
C1017 C1018 1.524 . S
C1017 H1020 0.999 . S
C1018 H988 0.950 . S
C1018 C1017 1.524 . S
C1018 C1019 1.415 . S
C1019 H989 0.950 . S
C1019 C1014 1.363 . S
C1019 C1018 1.415 . S
H1020 C1017 0.999 . S
H1021 C1002 0.913 . S
H1022 C1040 0.951 . S
H1023 C1042 0.951 . S
H1024 C1044 0.950 . S
H1025 C1045 0.950 . S
H1026 C1047 0.950 . S
H1027 C1050 0.950 . S
H1028 C1051 0.950 . S
H1029 C1053 0.950 . S
H1030 C1054 0.950 . S
H1031 C1055 0.951 . S
H1032 C1057 0.951 . S
H1033 C1059 0.950 . S
H1034 C1060 0.950 . S
H1035 C1062 0.950 . S
H1036 C1065 0.950 . S
H1037 C1066 0.950 . S
H1038 C1068 0.950 . S
H1039 C1069 0.950 . S
C1040 H1022 0.951 . S
C1040 C1041 1.366 . S
C1040 C1042 1.388 . S
C1041 C1040 1.366 . S
C1041 C1045 1.385 . S
C1042 H1023 0.951 . S
C1042 C1040 1.388 . S
C1042 C1043 1.366 . S
C1043 C1042 1.366 . S
C1043 C1044 1.414 . S
C1043 C1046 1.499 . S
C1044 H1024 0.950 . S
C1044 C1043 1.414 . S
C1044 C1045 1.374 . S
C1045 H1025 0.950 . S
C1045 C1041 1.385 . S
C1045 C1044 1.374 . S
C1046 C1043 1.499 . S
C1046 C1047 1.373 . S
C1046 C1048 1.389 . S
C1047 H1026 0.950 . S
C1047 C1046 1.373 . S
C1047 C1063 1.377 . S
C1048 C1046 1.389 . S
C1048 C1049 1.524 . S
C1048 C1062 1.377 . S
C1049 C1048 1.524 . S
C1049 C1050 1.397 . S
C1049 C1054 1.363 . S
C1050 H1027 0.950 . S
C1050 C1049 1.397 . S
C1050 C1051 1.334 . S
C1051 H1028 0.950 . S
C1051 C1050 1.334 . S
C1051 C1052 1.287 . S
C1052 C1051 1.287 . S
C1052 C1053 1.524 . S
C1052 H1071 0.913 . S
C1053 H1029 0.950 . S
C1053 C1052 1.524 . S
C1053 C1054 1.415 . S
C1054 H1030 0.950 . S
C1054 C1049 1.363 . S
C1054 C1053 1.415 . S
C1055 H1031 0.951 . S
C1055 C1056 1.366 . S
C1055 C1057 1.388 . S
C1056 C1055 1.366 . S
C1056 C1060 1.385 . S
C1057 H1032 0.951 . S
C1057 C1055 1.388 . S
C1057 C1058 1.366 . S
C1058 C1057 1.366 . S
C1058 C1059 1.414 . S
C1058 C1061 1.499 . S
C1059 H1033 0.950 . S
C1059 C1058 1.414 . S
C1059 C1060 1.374 . S
C1060 H1034 0.950 . S
C1060 C1056 1.385 . S
C1060 C1059 1.374 . S
C1061 C1058 1.499 . S
C1061 C1062 1.373 . S
C1061 C1063 1.389 . S
C1062 H1035 0.950 . S
C1062 C1048 1.377 . S
C1062 C1061 1.373 . S
C1063 C1047 1.377 . S
C1063 C1061 1.389 . S
C1063 C1064 1.524 . S
C1064 C1063 1.524 . S
C1064 C1065 1.397 . S
C1064 C1069 1.363 . S
C1065 H1036 0.950 . S
C1065 C1064 1.397 . S
C1065 C1066 1.334 . S
C1066 H1037 0.950 . S
C1066 C1065 1.334 . S
C1066 C1067 1.287 . S
C1067 C1066 1.287 . S
C1067 C1068 1.524 . S
C1067 H1070 0.999 . S
C1068 H1038 0.950 . S
C1068 C1067 1.524 . S
C1068 C1069 1.415 . S
C1069 H1039 0.950 . S
C1069 C1064 1.363 . S
C1069 C1068 1.415 . S
H1070 C1067 0.999 . S
H1071 C1052 0.913 . S
H1072 C1090 0.951 . S
H1073 C1092 0.951 . S
H1074 C1094 0.950 . S
H1075 C1095 0.950 . S
H1076 C1097 0.950 . S
H1077 C1100 0.950 1_455 S
H1078 C1101 0.950 . S
H1079 C1103 0.950 . S
H1080 C1104 0.950 . S
H1081 C1105 0.951 . S
H1082 C1107 0.951 . S
H1083 C1109 0.950 1_655 S
H1084 C1110 0.955 . S
H1085 C1112 0.950 1_655 S
H1086 C1115 0.950 . S
H1087 C1116 0.950 . S
H1088 C1118 0.950 . S
H1089 C1119 0.950 . S
C1090 H1072 0.951 . S
C1090 C1091 1.366 . S
C1090 C1092 1.388 . S
C1091 C1090 1.366 . S
C1091 C1095 1.385 1_655 S
C1092 H1073 0.951 . S
C1092 C1090 1.388 . S
C1092 C1093 1.366 1_655 S
C1093 C1092 1.366 1_455 S
C1093 C1094 1.414 . S
C1093 C1096 1.499 . S
C1094 H1074 0.950 . S
C1094 C1093 1.414 . S
C1094 C1095 1.374 . S
C1095 H1075 0.950 . S
C1095 C1091 1.385 1_455 S
C1095 C1094 1.374 . S
C1096 C1093 1.499 . S
C1096 C1097 1.373 . S
C1096 C1098 1.387 1_454 S
C1097 H1076 0.950 . S
C1097 C1096 1.373 . S
C1097 C1113 1.377 . S
C1098 C1096 1.387 1_656 S
C1098 C1099 1.528 . S
C1098 C1112 1.376 1_655 S
C1099 C1098 1.528 . S
C1099 C1100 1.397 . S
C1099 C1104 1.363 . S
C1100 H1077 0.950 1_655 S
C1100 C1099 1.397 . S
C1100 C1101 1.334 . S
C1101 H1078 0.950 . S
C1101 C1100 1.334 . S
C1101 C1102 1.287 . S
C1102 C1101 1.287 . S
C1102 C1103 1.524 . S
C1102 H1121 0.913 . S
C1103 H1079 0.950 . S
C1103 C1102 1.524 . S
C1103 C1104 1.415 . S
C1104 H1080 0.950 . S
C1104 C1099 1.363 . S
C1104 C1103 1.415 . S
C1105 H1081 0.951 . S
C1105 C1106 1.366 . S
C1105 C1107 1.388 . S
C1106 C1105 1.366 . S
C1106 C1110 1.385 . S
C1107 H1082 0.951 . S
C1107 C1105 1.388 . S
C1107 C1108 1.366 . S
C1108 C1107 1.366 . S
C1108 C1109 1.414 . S
C1108 C1111 1.499 . S
C1109 H1083 0.950 1_455 S
C1109 C1108 1.414 . S
C1109 C1110 1.374 . S
C1110 H1084 0.955 . S
C1110 C1106 1.385 . S
C1110 C1109 1.374 . S
C1111 C1108 1.499 . S
C1111 C1112 1.373 . S
C1111 C1113 1.389 1_556 S
C1112 H1085 0.950 1_455 S
C1112 C1098 1.376 1_455 S
C1112 C1111 1.373 . S
C1113 C1097 1.377 . S
C1113 C1111 1.389 1_554 S
C1113 C1114 1.524 . S
C1114 C1113 1.524 . S
C1114 C1115 1.397 . S
C1114 C1119 1.363 . S
C1115 H1086 0.950 . S
C1115 C1114 1.397 . S
C1115 C1116 1.334 . S
C1116 H1087 0.950 . S
C1116 C1115 1.334 . S
C1116 C1117 1.287 . S
C1117 C1116 1.287 . S
C1117 C1118 1.524 . S
C1117 H1120 0.999 . S
C1118 H1088 0.950 . S
C1118 C1117 1.524 . S
C1118 C1119 1.415 . S
C1119 H1089 0.950 . S
C1119 C1114 1.363 . S
C1119 C1118 1.415 . S
H1120 C1117 0.999 . S
H1121 C1102 0.913 . S
H1122 C1140 0.951 . S
H1123 C1142 0.951 . S
H1124 C1144 0.950 . S
H1125 C1145 0.950 . S
H1126 C1147 0.950 . S
H1127 C1150 0.950 . S
H1128 C1151 0.950 . S
H1129 C1153 0.950 . S
H1130 C1154 0.950 . S
H1131 C1155 0.977 . S
H1132 C1157 0.951 1_565 S
H1133 C1159 0.950 . S
H1134 C1160 0.950 . S
H1135 C1162 0.950 1_554 S
H1136 C1165 0.950 . S
H1137 C1166 0.943 1_545 S
H1138 C1168 0.950 . S
H1139 C1169 0.950 . S
C1140 H1122 0.951 . S
C1140 C1141 1.366 1_545 S
C1140 C1142 1.388 . S
C1141 C1140 1.366 1_565 S
C1141 C1145 1.385 . S
C1142 H1123 0.951 . S
C1142 C1140 1.388 . S
C1142 C1143 1.366 . S
C1143 C1142 1.366 . S
C1143 C1144 1.414 1_545 S
C1143 C1146 1.499 . S
C1144 H1124 0.950 . S
C1144 C1143 1.414 1_565 S
C1144 C1145 1.374 . S
C1145 H1125 0.950 . S
C1145 C1141 1.385 . S
C1145 C1144 1.374 . S
C1146 C1143 1.499 . S
C1146 C1147 1.373 1_544 S
C1146 C1148 1.389 . S
C1147 H1126 0.950 . S
C1147 C1146 1.373 1_566 S
C1147 C1163 1.377 1_565 S
C1148 C1146 1.389 . S
C1148 C1149 1.524 . S
C1148 C1162 1.377 1_554 S
C1149 C1148 1.524 . S
C1149 C1150 1.397 . S
C1149 C1154 1.363 . S
C1150 H1127 0.950 . S
C1150 C1149 1.397 . S
C1150 C1151 1.334 . S
C1151 H1128 0.950 . S
C1151 C1150 1.334 . S
C1151 C1152 1.287 . S
C1152 C1151 1.287 . S
C1152 C1153 1.524 . S
C1152 H1171 0.913 . S
C1153 H1129 0.950 . S
C1153 C1152 1.524 . S
C1153 C1154 1.415 . S
C1154 H1130 0.950 . S
C1154 C1149 1.363 . S
C1154 C1153 1.415 . S
C1155 H1131 0.977 . S
C1155 C1156 1.366 . S
C1155 C1157 1.388 . S
C1156 C1155 1.366 . S
C1156 C1160 1.385 . S
C1157 H1132 0.951 1_545 S
C1157 C1155 1.388 . S
C1157 C1158 1.366 . S
C1158 C1157 1.366 . S
C1158 C1159 1.414 . S
C1158 C1161 1.499 . S
C1159 H1133 0.950 . S
C1159 C1158 1.414 . S
C1159 C1160 1.374 . S
C1160 H1134 0.950 . S
C1160 C1156 1.385 . S
C1160 C1159 1.374 . S
C1161 C1158 1.499 . S
C1161 C1162 1.373 . S
C1161 C1163 1.389 . S
C1162 H1135 0.950 1_556 S
C1162 C1148 1.377 1_556 S
C1162 C1161 1.373 . S
C1163 C1147 1.377 1_545 S
C1163 C1161 1.389 . S
C1163 C1164 1.524 1_545 S
C1164 C1163 1.524 1_565 S
C1164 C1165 1.397 1_565 S
C1164 C1169 1.363 . S
C1165 H1136 0.950 . S
C1165 C1164 1.397 1_545 S
C1165 C1166 1.334 1_545 S
C1166 H1137 0.943 1_565 S
C1166 C1165 1.334 1_565 S
C1166 C1167 1.287 . S
C1167 C1166 1.287 . S
C1167 C1168 1.524 . S
C1167 H1170 0.999 . S
C1168 H1138 0.950 . S
C1168 C1167 1.524 . S
C1168 C1169 1.415 . S
C1169 H1139 0.950 . S
C1169 C1164 1.363 . S
C1169 C1168 1.415 . S
H1170 C1167 0.999 . S
H1171 C1152 0.913 . S
H1172 C1190 0.951 . S
H1173 C1192 0.951 . S
H1174 C1194 0.950 1_556 S
H1175 C1195 0.950 . S
H1176 C1197 0.950 . S
H1177 C1200 0.950 . S
H1178 C1201 0.950 . S
H1179 C1203 0.950 . S
H1180 C1204 0.950 . S
H1181 C1205 0.951 . S
H1182 C1207 0.951 . S
H1183 C1209 0.950 . S
H1184 C1210 0.950 . S
H1185 C1212 0.950 1_554 S
H1186 C1215 0.950 . S
H1187 C1216 0.950 . S
H1188 C1218 0.950 . S
H1189 C1219 0.950 . S
C1190 H1172 0.951 . S
C1190 C1191 1.366 . S
C1190 C1192 1.388 . S
C1191 C1190 1.366 . S
C1191 C1195 1.385 . S
C1192 H1173 0.951 . S
C1192 C1190 1.388 . S
C1192 C1193 1.366 . S
C1193 C1192 1.366 . S
C1193 C1194 1.414 . S
C1193 C1196 1.499 . S
C1194 H1174 0.950 1_554 S
C1194 C1193 1.414 . S
C1194 C1195 1.374 . S
C1195 H1175 0.950 . S
C1195 C1191 1.385 . S
C1195 C1194 1.374 . S
C1196 C1193 1.499 . S
C1196 C1197 1.373 1_554 S
C1196 C1198 1.389 . S
C1197 H1176 0.950 . S
C1197 C1196 1.373 1_556 S
C1197 C1213 1.377 . S
C1198 C1196 1.389 . S
C1198 C1199 1.524 . S
C1198 C1212 1.377 1_554 S
C1199 C1198 1.524 . S
C1199 C1200 1.397 . S
C1199 C1204 1.363 . S
C1200 H1177 0.950 . S
C1200 C1199 1.397 . S
C1200 C1201 1.334 . S
C1201 H1178 0.950 . S
C1201 C1200 1.334 . S
C1201 C1202 1.287 . S
C1202 C1201 1.287 . S
C1202 C1203 1.524 . S
C1202 H1221 0.913 . S
C1203 H1179 0.950 . S
C1203 C1202 1.524 . S
C1203 C1204 1.415 . S
C1204 H1180 0.950 . S
C1204 C1199 1.363 . S
C1204 C1203 1.415 . S
C1205 H1181 0.951 . S
C1205 C1206 1.366 . S
C1205 C1207 1.388 . S
C1206 C1205 1.366 . S
C1206 C1210 1.385 . S
C1207 H1182 0.951 . S
C1207 C1205 1.388 . S
C1207 C1208 1.366 . S
C1208 C1207 1.366 . S
C1208 C1209 1.414 . S
C1208 C1211 1.499 . S
C1209 H1183 0.950 . S
C1209 C1208 1.414 . S
C1209 C1210 1.374 . S
C1210 H1184 0.950 . S
C1210 C1206 1.385 . S
C1210 C1209 1.374 . S
C1211 C1208 1.499 . S
C1211 C1212 1.373 . S
C1211 C1213 1.389 . S
C1212 H1185 0.950 1_556 S
C1212 C1198 1.377 1_556 S
C1212 C1211 1.373 . S
C1213 C1197 1.377 . S
C1213 C1211 1.389 . S
C1213 C1214 1.524 . S
C1214 C1213 1.524 . S
C1214 C1215 1.397 . S
C1214 C1219 1.363 . S
C1215 H1186 0.950 . S
C1215 C1214 1.397 . S
C1215 C1216 1.334 . S
C1216 H1187 0.950 . S
C1216 C1215 1.334 . S
C1216 C1217 1.287 . S
C1217 C1216 1.287 . S
C1217 C1218 1.524 . S
C1217 H1220 0.999 . S
C1218 H1188 0.950 . S
C1218 C1217 1.524 . S
C1218 C1219 1.415 . S
C1219 H1189 0.950 . S
C1219 C1214 1.363 . S
C1219 C1218 1.415 . S
H1220 C1217 0.999 . S
H1221 C1202 0.913 . S
H1222 C1240 0.951 . S
H1223 C1242 0.951 . S
H1224 C1244 0.950 . S
H1225 C1245 0.950 . S
H1226 C1247 0.950 . S
H1227 C1250 0.950 . S
H1228 C1251 0.950 . S
H1229 C1253 0.950 . S
H1230 C1254 0.950 . S
H1231 C1255 0.951 . S
H1232 C1257 0.951 . S
H1233 C1259 0.950 . S
H1234 C1260 0.950 . S
H1235 C1262 0.950 . S
H1236 C1265 0.950 . S
H1237 C1266 0.950 . S
H1238 C1268 0.950 . S
H1239 C1269 0.950 . S
C1240 H1222 0.951 . S
C1240 C1241 1.366 . S
C1240 C1242 1.388 . S
C1241 C1240 1.366 . S
C1241 C1245 1.385 . S
C1242 H1223 0.951 . S
C1242 C1240 1.388 . S
C1242 C1243 1.366 . S
C1243 C1242 1.366 . S
C1243 C1244 1.414 . S
C1243 C1246 1.499 . S
C1244 H1224 0.950 . S
C1244 C1243 1.414 . S
C1244 C1245 1.374 . S
C1245 H1225 0.950 . S
C1245 C1241 1.385 . S
C1245 C1244 1.374 . S
C1246 C1243 1.499 . S
C1246 C1247 1.373 . S
C1246 C1248 1.389 1_554 S
C1247 H1226 0.950 . S
C1247 C1246 1.373 . S
C1247 C1263 1.368 1_554 S
C1248 C1246 1.389 1_556 S
C1248 C1249 1.524 . S
C1248 C1262 1.377 . S
C1249 C1248 1.524 . S
C1249 C1250 1.397 . S
C1249 C1254 1.363 . S
C1250 H1227 0.950 . S
C1250 C1249 1.397 . S
C1250 C1251 1.334 . S
C1251 H1228 0.950 . S
C1251 C1250 1.334 . S
C1251 C1252 1.287 . S
C1252 C1251 1.287 . S
C1252 C1253 1.524 . S
C1252 H1271 0.913 . S
C1253 H1229 0.950 . S
C1253 C1252 1.524 . S
C1253 C1254 1.415 . S
C1254 H1230 0.950 . S
C1254 C1249 1.363 . S
C1254 C1253 1.415 . S
C1255 H1231 0.951 . S
C1255 C1256 1.366 . S
C1255 C1257 1.388 . S
C1256 C1255 1.366 . S
C1256 C1260 1.385 . S
C1257 H1232 0.951 . S
C1257 C1255 1.388 . S
C1257 C1258 1.366 . S
C1258 C1257 1.366 . S
C1258 C1259 1.414 . S
C1258 C1261 1.499 . S
C1259 H1233 0.950 . S
C1259 C1258 1.414 . S
C1259 C1260 1.374 . S
C1260 H1234 0.950 . S
C1260 C1256 1.385 . S
C1260 C1259 1.374 . S
C1261 C1258 1.499 . S
C1261 C1262 1.373 . S
C1261 C1263 1.405 . S
C1262 H1235 0.950 . S
C1262 C1248 1.377 . S
C1262 C1261 1.373 . S
C1263 C1247 1.368 1_556 S
C1263 C1261 1.405 . S
C1263 C1264 1.516 1_556 S
C1264 C1263 1.516 1_554 S
C1264 C1265 1.397 . S
C1264 C1269 1.363 . S
C1265 H1236 0.950 . S
C1265 C1264 1.397 . S
C1265 C1266 1.334 . S
C1266 H1237 0.950 . S
C1266 C1265 1.334 . S
C1266 C1267 1.287 . S
C1267 C1266 1.287 . S
C1267 C1268 1.524 . S
C1267 H1270 0.999 . S
C1268 H1238 0.950 . S
C1268 C1267 1.524 . S
C1268 C1269 1.415 . S
C1269 H1239 0.950 . S
C1269 C1264 1.363 . S
C1269 C1268 1.415 . S
H1270 C1267 0.999 . S
H1271 C1252 0.913 . S
H1272 C1290 0.951 . S
H1273 C1292 0.951 . S
H1274 C1294 0.950 . S
H1275 C1295 0.950 . S
H1276 C1297 0.950 . S
H1277 C1300 0.950 . S
H1278 C1301 0.950 . S
H1279 C1303 0.950 . S
H1280 C1304 0.950 . S
H1281 C1305 0.951 . S
H1282 C1307 0.951 . S
H1283 C1309 0.950 . S
H1284 C1310 0.950 . S
H1285 C1312 0.950 . S
H1286 C1315 0.950 1_455 S
H1287 C1316 0.950 . S
H1288 C1318 0.950 . S
H1289 C1319 0.950 . S
C1290 H1272 0.951 . S
C1290 C1291 1.366 . S
C1290 C1292 1.388 . S
C1291 C1290 1.366 . S
C1291 C1295 1.385 1_455 S
C1292 H1273 0.951 . S
C1292 C1290 1.388 . S
C1292 C1293 1.366 . S
C1293 C1292 1.366 . S
C1293 C1294 1.414 1_455 S
C1293 C1296 1.499 . S
C1294 H1274 0.950 . S
C1294 C1293 1.414 1_655 S
C1294 C1295 1.374 . S
C1295 H1275 0.950 . S
C1295 C1291 1.385 1_655 S
C1295 C1294 1.374 . S
C1296 C1293 1.499 . S
C1296 C1297 1.373 1_455 S
C1296 C1298 1.389 . S
C1297 H1276 0.950 . S
C1297 C1296 1.373 1_655 S
C1297 C1313 1.377 . S
C1298 C1296 1.389 . S
C1298 C1299 1.524 . S
C1298 C1312 1.377 . S
C1299 C1298 1.524 . S
C1299 C1300 1.397 . S
C1299 C1304 1.363 . S
C1300 H1277 0.950 . S
C1300 C1299 1.397 . S
C1300 C1301 1.334 . S
C1301 H1278 0.950 . S
C1301 C1300 1.334 . S
C1301 C1302 1.287 . S
C1302 C1301 1.287 . S
C1302 C1303 1.524 . S
C1302 H1321 0.913 . S
C1303 H1279 0.950 . S
C1303 C1302 1.524 . S
C1303 C1304 1.415 . S
C1304 H1280 0.950 . S
C1304 C1299 1.363 . S
C1304 C1303 1.415 . S
C1305 H1281 0.951 . S
C1305 C1306 1.366 1_655 S
C1305 C1307 1.388 . S
C1306 C1305 1.366 1_455 S
C1306 C1310 1.385 . S
C1307 H1282 0.951 . S
C1307 C1305 1.388 . S
C1307 C1308 1.366 1_655 S
C1308 C1307 1.366 1_455 S
C1308 C1309 1.414 . S
C1308 C1311 1.499 . S
C1309 H1283 0.950 . S
C1309 C1308 1.414 . S
C1309 C1310 1.374 . S
C1310 H1284 0.950 . S
C1310 C1306 1.385 . S
C1310 C1309 1.374 . S
C1311 C1308 1.499 . S
C1311 C1312 1.373 . S
C1311 C1313 1.389 1_455 S
C1312 H1285 0.950 . S
C1312 C1298 1.377 . S
C1312 C1311 1.373 . S
C1313 C1297 1.377 . S
C1313 C1311 1.389 1_655 S
C1313 C1314 1.524 . S
C1314 C1313 1.524 . S
C1314 C1315 1.397 . S
C1314 C1319 1.363 . S
C1315 H1286 0.950 1_655 S
C1315 C1314 1.397 . S
C1315 C1316 1.334 . S
C1316 H1287 0.950 . S
C1316 C1315 1.334 . S
C1316 C1317 1.287 . S
C1317 C1316 1.287 . S
C1317 C1318 1.524 . S
C1317 H1320 0.999 . S
C1318 H1288 0.950 . S
C1318 C1317 1.524 . S
C1318 C1319 1.415 . S
C1319 H1289 0.950 . S
C1319 C1314 1.363 . S
C1319 C1318 1.415 . S
H1320 C1317 0.999 . S
H1321 C1302 0.913 . S
H1322 C1340 0.951 . S
H1323 C1342 0.951 . S
H1324 C1344 0.950 . S
H1325 C1345 0.950 . S
H1326 C1347 0.950 . S
H1327 C1350 0.950 . S
H1328 C1351 0.950 . S
H1329 C1353 0.950 . S
H1330 C1354 0.950 . S
H1331 C1355 0.951 . S
H1332 C1357 0.951 . S
H1333 C1359 0.950 . S
H1334 C1360 0.950 . S
H1335 C1362 0.950 . S
H1336 C1365 0.950 . S
H1337 C1366 0.950 . S
H1338 C1368 0.950 . S
H1339 C1369 0.950 . S
C1340 H1322 0.951 . S
C1340 C1341 1.366 . S
C1340 C1342 1.388 . S
C1341 C1340 1.366 . S
C1341 C1345 1.385 . S
C1342 H1323 0.951 . S
C1342 C1340 1.388 . S
C1342 C1343 1.366 . S
C1343 C1342 1.366 . S
C1343 C1344 1.414 . S
C1343 C1346 1.499 . S
C1344 H1324 0.950 . S
C1344 C1343 1.414 . S
C1344 C1345 1.374 . S
C1345 H1325 0.950 . S
C1345 C1341 1.385 . S
C1345 C1344 1.374 . S
C1346 C1343 1.499 . S
C1346 C1347 1.373 1_545 S
C1346 C1348 1.389 . S
C1347 H1326 0.950 . S
C1347 C1346 1.373 1_565 S
C1347 C1363 1.377 . S
C1348 C1346 1.389 . S
C1348 C1349 1.524 . S
C1348 C1362 1.377 . S
C1349 C1348 1.524 . S
C1349 C1350 1.397 . S
C1349 C1354 1.363 . S
C1350 H1327 0.950 . S
C1350 C1349 1.397 . S
C1350 C1351 1.334 . S
C1351 H1328 0.950 . S
C1351 C1350 1.334 . S
C1351 C1352 1.287 . S
C1352 C1351 1.287 . S
C1352 C1353 1.524 . S
C1352 H1371 0.913 . S
C1353 H1329 0.950 . S
C1353 C1352 1.524 . S
C1353 C1354 1.415 . S
C1354 H1330 0.950 . S
C1354 C1349 1.363 . S
C1354 C1353 1.415 . S
C1355 H1331 0.951 . S
C1355 C1356 1.366 . S
C1355 C1357 1.388 . S
C1356 C1355 1.366 . S
C1356 C1360 1.385 . S
C1357 H1332 0.951 . S
C1357 C1355 1.388 . S
C1357 C1358 1.366 . S
C1358 C1357 1.366 . S
C1358 C1359 1.414 . S
C1358 C1361 1.499 . S
C1359 H1333 0.950 . S
C1359 C1358 1.414 . S
C1359 C1360 1.374 . S
C1360 H1334 0.950 . S
C1360 C1356 1.385 . S
C1360 C1359 1.374 . S
C1361 C1358 1.499 . S
C1361 C1362 1.373 . S
C1361 C1363 1.389 1_545 S
C1362 H1335 0.950 . S
C1362 C1348 1.377 . S
C1362 C1361 1.373 . S
C1363 C1347 1.377 . S
C1363 C1361 1.389 1_565 S
C1363 C1364 1.524 . S
C1364 C1363 1.524 . S
C1364 C1365 1.397 . S
C1364 C1369 1.363 . S
C1365 H1336 0.950 . S
C1365 C1364 1.397 . S
C1365 C1366 1.334 . S
C1366 H1337 0.950 . S
C1366 C1365 1.334 . S
C1366 C1367 1.287 . S
C1367 C1366 1.287 . S
C1367 C1368 1.524 . S
C1367 H1370 0.999 . S
C1368 H1338 0.950 . S
C1368 C1367 1.524 . S
C1368 C1369 1.415 . S
C1369 H1339 0.950 . S
C1369 C1364 1.363 . S
C1369 C1368 1.415 . S
H1370 C1367 0.999 . S
H1371 C1352 0.913 . S
H1372 C1390 0.951 . S
H1373 C1392 0.951 . S
H1374 C1394 0.950 . S
H1375 C1395 0.950 . S
H1376 C1397 0.950 . S
H1377 C1400 0.950 . S
H1378 C1401 0.950 . S
H1379 C1403 0.950 . S
H1380 C1404 0.950 . S
H1381 C1405 0.951 . S
H1382 C1407 0.951 . S
H1383 C1409 0.950 . S
H1384 C1410 0.950 . S
H1385 C1412 0.950 . S
H1386 C1415 0.950 . S
H1387 C1416 0.950 . S
H1388 C1418 0.950 . S
H1389 C1419 0.950 . S
C1390 H1372 0.951 . S
C1390 C1391 1.366 . S
C1390 C1392 1.388 . S
C1391 C1390 1.366 . S
C1391 C1395 1.385 . S
C1392 H1373 0.951 . S
C1392 C1390 1.388 . S
C1392 C1393 1.366 . S
C1393 C1392 1.366 . S
C1393 C1394 1.414 . S
C1393 C1396 1.499 . S
C1394 H1374 0.950 . S
C1394 C1393 1.414 . S
C1394 C1395 1.374 . S
C1395 H1375 0.950 . S
C1395 C1391 1.385 . S
C1395 C1394 1.374 . S
C1396 C1393 1.499 . S
C1396 C1397 1.373 . S
C1396 C1398 1.389 . S
C1397 H1376 0.950 . S
C1397 C1396 1.373 . S
C1397 C1413 1.377 . S
C1398 C1396 1.389 . S
C1398 C1399 1.524 . S
C1398 C1412 1.377 . S
C1399 C1398 1.524 . S
C1399 C1400 1.397 . S
C1399 C1404 1.363 . S
C1400 H1377 0.950 . S
C1400 C1399 1.397 . S
C1400 C1401 1.334 . S
C1401 H1378 0.950 . S
C1401 C1400 1.334 . S
C1401 C1402 1.287 . S
C1402 C1401 1.287 . S
C1402 C1403 1.524 . S
C1402 H1421 0.913 . S
C1403 H1379 0.950 . S
C1403 C1402 1.524 . S
C1403 C1404 1.415 . S
C1404 H1380 0.950 . S
C1404 C1399 1.363 . S
C1404 C1403 1.415 . S
C1405 H1381 0.951 . S
C1405 C1406 1.366 . S
C1405 C1407 1.388 . S
C1406 C1405 1.366 . S
C1406 C1410 1.385 . S
C1407 H1382 0.951 . S
C1407 C1405 1.388 . S
C1407 C1408 1.366 . S
C1408 C1407 1.366 . S
C1408 C1409 1.414 . S
C1408 C1411 1.499 . S
C1409 H1383 0.950 . S
C1409 C1408 1.414 . S
C1409 C1410 1.374 . S
C1410 H1384 0.950 . S
C1410 C1406 1.385 . S
C1410 C1409 1.374 . S
C1411 C1408 1.499 . S
C1411 C1412 1.373 . S
C1411 C1413 1.389 . S
C1412 H1385 0.950 . S
C1412 C1398 1.377 . S
C1412 C1411 1.373 . S
C1413 C1397 1.377 . S
C1413 C1411 1.389 . S
C1413 C1414 1.524 . S
C1414 C1413 1.524 . S
C1414 C1415 1.397 . S
C1414 C1419 1.363 . S
C1415 H1386 0.950 . S
C1415 C1414 1.397 . S
C1415 C1416 1.334 . S
C1416 H1387 0.950 . S
C1416 C1415 1.334 . S
C1416 C1417 1.287 . S
C1417 C1416 1.287 . S
C1417 C1418 1.524 . S
C1417 H1420 0.999 . S
C1418 H1388 0.950 . S
C1418 C1417 1.524 . S
C1418 C1419 1.415 . S
C1419 H1389 0.950 . S
C1419 C1414 1.363 . S
C1419 C1418 1.415 . S
H1420 C1417 0.999 . S
H1421 C1402 0.913 . S
H1422 C1440 0.951 . S
H1423 C1442 0.951 . S
H1424 C1444 0.950 . S
H1425 C1445 0.950 . S
H1426 C1447 0.950 . S
H1427 C1450 0.950 . S
H1428 C1451 0.950 . S
H1429 C1453 0.950 . S
H1430 C1454 0.950 . S
H1431 C1455 0.951 . S
H1432 C1457 0.951 . S
H1433 C1459 0.950 . S
H1434 C1460 0.950 . S
H1435 C1462 0.950 . S
H1436 C1465 0.950 . S
H1437 C1466 0.950 . S
H1438 C1468 0.950 . S
H1439 C1469 0.950 . S
C1440 H1422 0.951 . S
C1440 C1441 1.366 . S
C1440 C1442 1.388 . S
C1441 C1440 1.366 . S
C1441 C1445 1.385 . S
C1442 H1423 0.951 . S
C1442 C1440 1.388 . S
C1442 C1443 1.366 . S
C1443 C1442 1.366 . S
C1443 C1444 1.414 . S
C1443 C1446 1.499 . S
C1444 H1424 0.950 . S
C1444 C1443 1.414 . S
C1444 C1445 1.374 . S
C1445 H1425 0.950 . S
C1445 C1441 1.385 . S
C1445 C1444 1.374 . S
C1446 C1443 1.499 . S
C1446 C1447 1.373 . S
C1446 C1448 1.389 . S
C1447 H1426 0.950 . S
C1447 C1446 1.373 . S
C1447 C1463 1.377 . S
C1448 C1446 1.389 . S
C1448 C1449 1.524 . S
C1448 C1462 1.377 . S
C1449 C1448 1.524 . S
C1449 C1450 1.397 . S
C1449 C1454 1.363 . S
C1450 H1427 0.950 . S
C1450 C1449 1.397 . S
C1450 C1451 1.334 . S
C1451 H1428 0.950 . S
C1451 C1450 1.334 . S
C1451 C1452 1.287 . S
C1452 C1451 1.287 . S
C1452 C1453 1.524 . S
C1452 H1471 0.913 . S
C1453 H1429 0.950 . S
C1453 C1452 1.524 . S
C1453 C1454 1.415 . S
C1454 H1430 0.950 . S
C1454 C1449 1.363 . S
C1454 C1453 1.415 . S
C1455 H1431 0.951 . S
C1455 C1456 1.366 . S
C1455 C1457 1.388 . S
C1456 C1455 1.366 . S
C1456 C1460 1.385 . S
C1457 H1432 0.951 . S
C1457 C1455 1.388 . S
C1457 C1458 1.366 . S
C1458 C1457 1.366 . S
C1458 C1459 1.414 . S
C1458 C1461 1.499 . S
C1459 H1433 0.950 . S
C1459 C1458 1.414 . S
C1459 C1460 1.374 . S
C1460 H1434 0.950 . S
C1460 C1456 1.385 . S
C1460 C1459 1.374 . S
C1461 C1458 1.499 . S
C1461 C1462 1.373 . S
C1461 C1463 1.389 . S
C1462 H1435 0.950 . S
C1462 C1448 1.377 . S
C1462 C1461 1.373 . S
C1463 C1447 1.377 . S
C1463 C1461 1.389 . S
C1463 C1464 1.524 . S
C1464 C1463 1.524 . S
C1464 C1465 1.397 . S
C1464 C1469 1.363 . S
C1465 H1436 0.950 . S
C1465 C1464 1.397 . S
C1465 C1466 1.334 . S
C1466 H1437 0.950 . S
C1466 C1465 1.334 . S
C1466 C1467 1.287 . S
C1467 C1466 1.287 . S
C1467 C1468 1.524 . S
C1467 H1470 0.999 . S
C1468 H1438 0.950 . S
C1468 C1467 1.524 . S
C1468 C1469 1.415 . S
C1469 H1439 0.950 . S
C1469 C1464 1.363 . S
C1469 C1468 1.415 . S
H1470 C1467 0.999 . S
H1471 C1452 0.913 . S
H1472 C1490 0.951 . S
H1473 C1492 0.951 . S
H1474 C1494 0.950 . S
H1475 C1495 0.950 . S
H1476 C1497 0.950 . S
H1477 C1500 0.950 . S
H1478 C1501 0.950 . S
H1479 C1503 0.950 . S
H1480 C1504 0.950 . S
H1481 C1505 0.951 . S
H1482 C1507 0.951 . S
H1483 C1509 0.949 1_455 S
H1484 C1510 0.933 1_455 S
H1485 C1512 0.950 . S
H1486 C1515 0.950 . S
H1487 C1516 0.950 . S
H1488 C1518 0.950 . S
H1489 C1519 0.950 . S
C1490 H1472 0.951 . S
C1490 C1491 1.366 1_455 S
C1490 C1492 1.388 . S
C1491 C1490 1.366 1_655 S
C1491 C1495 1.385 . S
C1492 H1473 0.951 . S
C1492 C1490 1.388 . S
C1492 C1493 1.366 1_455 S
C1493 C1492 1.366 1_655 S
C1493 C1494 1.414 . S
C1493 C1496 1.499 . S
C1494 H1474 0.950 . S
C1494 C1493 1.414 . S
C1494 C1495 1.374 . S
C1495 H1475 0.950 . S
C1495 C1491 1.385 . S
C1495 C1494 1.374 . S
C1496 C1493 1.499 . S
C1496 C1497 1.373 . S
C1496 C1498 1.389 1_655 S
C1497 H1476 0.950 . S
C1497 C1496 1.373 . S
C1497 C1513 1.377 . S
C1498 C1496 1.389 1_455 S
C1498 C1499 1.524 . S
C1498 C1512 1.377 . S
C1499 C1498 1.524 . S
C1499 C1500 1.397 . S
C1499 C1504 1.363 . S
C1500 H1477 0.950 . S
C1500 C1499 1.397 . S
C1500 C1501 1.334 . S
C1501 H1478 0.950 . S
C1501 C1500 1.334 . S
C1501 C1502 1.287 . S
C1502 C1501 1.287 . S
C1502 C1503 1.524 . S
C1502 H1521 0.913 . S
C1503 H1479 0.950 . S
C1503 C1502 1.524 . S
C1503 C1504 1.415 . S
C1504 H1480 0.950 . S
C1504 C1499 1.363 . S
C1504 C1503 1.415 . S
C1505 H1481 0.951 . S
C1505 C1506 1.366 . S
C1505 C1507 1.388 . S
C1506 C1505 1.366 . S
C1506 C1510 1.405 . S
C1507 H1482 0.951 . S
C1507 C1505 1.388 . S
C1507 C1508 1.366 . S
C1508 C1507 1.366 . S
C1508 C1509 1.415 . S
C1508 C1511 1.499 . S
C1509 H1483 0.949 1_655 S
C1509 C1508 1.415 . S
C1509 C1510 1.373 . S
C1510 H1484 0.933 1_655 S
C1510 C1506 1.405 . S
C1510 C1509 1.373 . S
C1511 C1508 1.499 . S
C1511 C1512 1.373 1_655 S
C1511 C1513 1.389 . S
C1512 H1485 0.950 . S
C1512 C1498 1.377 . S
C1512 C1511 1.373 1_455 S
C1513 C1497 1.377 . S
C1513 C1511 1.389 . S
C1513 C1514 1.524 . S
C1514 C1513 1.524 . S
C1514 C1515 1.397 . S
C1514 C1519 1.363 . S
C1515 H1486 0.950 . S
C1515 C1514 1.397 . S
C1515 C1516 1.334 . S
C1516 H1487 0.950 . S
C1516 C1515 1.334 . S
C1516 C1517 1.287 . S
C1517 C1516 1.287 . S
C1517 C1518 1.524 . S
C1517 H1520 0.999 . S
C1518 H1488 0.950 . S
C1518 C1517 1.524 . S
C1518 C1519 1.415 . S
C1519 H1489 0.950 . S
C1519 C1514 1.363 . S
C1519 C1518 1.415 . S
H1520 C1517 0.999 . S
H1521 C1502 0.913 . S
H1522 C1540 0.951 . S
H1523 C1542 0.951 . S
H1524 C1544 0.950 . S
H1525 C1545 0.950 . S
H1526 C1547 0.950 . S
H1527 C1550 0.950 . S
H1528 C1551 0.950 . S
H1529 C1553 0.950 . S
H1530 C1554 0.950 . S
H1531 C1555 0.951 . S
H1532 C1557 0.951 . S
H1533 C1559 0.950 . S
H1534 C1560 0.950 . S
H1535 C1562 0.950 . S
H1536 C1565 0.950 . S
H1537 C1566 0.950 . S
H1538 C1568 0.950 . S
H1539 C1569 0.950 . S
C1540 H1522 0.951 . S
C1540 C1541 1.366 1_545 S
C1540 C1542 1.388 . S
C1541 C1540 1.366 1_565 S
C1541 C1545 1.385 . S
C1542 H1523 0.951 . S
C1542 C1540 1.388 . S
C1542 C1543 1.366 1_545 S
C1543 C1542 1.366 1_565 S
C1543 C1544 1.414 . S
C1543 C1546 1.499 . S
C1544 H1524 0.950 . S
C1544 C1543 1.414 . S
C1544 C1545 1.374 . S
C1545 H1525 0.950 . S
C1545 C1541 1.385 . S
C1545 C1544 1.374 . S
C1546 C1543 1.499 . S
C1546 C1547 1.373 . S
C1546 C1548 1.389 . S
C1547 H1526 0.950 . S
C1547 C1546 1.373 . S
C1547 C1563 1.377 . S
C1548 C1546 1.389 . S
C1548 C1549 1.524 . S
C1548 C1562 1.377 . S
C1549 C1548 1.524 . S
C1549 C1550 1.397 . S
C1549 C1554 1.363 1_565 S
C1550 H1527 0.950 . S
C1550 C1549 1.397 . S
C1550 C1551 1.334 . S
C1551 H1528 0.950 . S
C1551 C1550 1.334 . S
C1551 C1552 1.287 . S
C1552 C1551 1.287 . S
C1552 C1553 1.524 1_565 S
C1552 H1571 0.913 . S
C1553 H1529 0.950 . S
C1553 C1552 1.524 1_545 S
C1553 C1554 1.415 . S
C1554 H1530 0.950 . S
C1554 C1549 1.363 1_545 S
C1554 C1553 1.415 . S
C1555 H1531 0.951 . S
C1555 C1556 1.366 . S
C1555 C1557 1.388 . S
C1556 C1555 1.366 . S
C1556 C1560 1.385 1_565 S
C1557 H1532 0.951 . S
C1557 C1555 1.388 . S
C1557 C1558 1.366 . S
C1558 C1557 1.366 . S
C1558 C1559 1.414 1_565 S
C1558 C1561 1.499 . S
C1559 H1533 0.950 . S
C1559 C1558 1.414 1_545 S
C1559 C1560 1.374 . S
C1560 H1534 0.950 . S
C1560 C1556 1.385 1_545 S
C1560 C1559 1.374 . S
C1561 C1558 1.499 . S
C1561 C1562 1.373 . S
C1561 C1563 1.389 . S
C1562 H1535 0.950 . S
C1562 C1548 1.377 . S
C1562 C1561 1.373 . S
C1563 C1547 1.377 . S
C1563 C1561 1.389 . S
C1563 C1564 1.524 . S
C1564 C1563 1.524 . S
C1564 C1565 1.397 1_565 S
C1564 C1569 1.363 . S
C1565 H1536 0.950 . S
C1565 C1564 1.397 1_545 S
C1565 C1566 1.334 . S
C1566 H1537 0.950 . S
C1566 C1565 1.334 . S
C1566 C1567 1.287 1_545 S
C1567 C1566 1.287 1_565 S
C1567 C1568 1.524 . S
C1567 H1570 0.999 . S
C1568 H1538 0.950 . S
C1568 C1567 1.524 . S
C1568 C1569 1.415 . S
C1569 H1539 0.950 . S
C1569 C1564 1.363 . S
C1569 C1568 1.415 . S
H1570 C1567 0.999 . S
H1571 C1552 0.913 . S
H1572 C1590 0.951 . S
H1573 C1592 0.951 . S
H1574 C1594 0.950 . S
H1575 C1595 0.950 . S
H1576 C1597 0.950 . S
H1577 C1600 0.950 . S
H1578 C1601 0.950 . S
H1579 C1603 0.950 . S
H1580 C1604 0.950 . S
H1581 C1605 0.951 . S
H1582 C1607 0.951 . S
H1583 C1609 0.950 . S
H1584 C1610 0.950 . S
H1585 C1612 0.950 . S
H1586 C1615 0.950 . S
H1587 C1616 0.950 . S
H1588 C1618 0.950 . S
H1589 C1619 0.950 . S
C1590 H1572 0.951 . S
C1590 C1591 1.366 . S
C1590 C1592 1.388 . S
C1591 C1590 1.366 . S
C1591 C1595 1.385 . S
C1592 H1573 0.951 . S
C1592 C1590 1.388 . S
C1592 C1593 1.366 . S
C1593 C1592 1.366 . S
C1593 C1594 1.414 . S
C1593 C1596 1.499 . S
C1594 H1574 0.950 . S
C1594 C1593 1.414 . S
C1594 C1595 1.374 . S
C1595 H1575 0.950 . S
C1595 C1591 1.385 . S
C1595 C1594 1.374 . S
C1596 C1593 1.499 . S
C1596 C1597 1.373 . S
C1596 C1598 1.389 . S
C1597 H1576 0.950 . S
C1597 C1596 1.373 . S
C1597 C1613 1.377 . S
C1598 C1596 1.389 . S
C1598 C1599 1.524 . S
C1598 C1612 1.377 . S
C1599 C1598 1.524 . S
C1599 C1600 1.397 . S
C1599 C1604 1.363 . S
C1600 H1577 0.950 . S
C1600 C1599 1.397 . S
C1600 C1601 1.334 . S
C1601 H1578 0.950 . S
C1601 C1600 1.334 . S
C1601 C1602 1.287 . S
C1602 C1601 1.287 . S
C1602 C1603 1.524 . S
C1602 H1621 0.913 . S
C1603 H1579 0.950 . S
C1603 C1602 1.524 . S
C1603 C1604 1.415 . S
C1604 H1580 0.950 . S
C1604 C1599 1.363 . S
C1604 C1603 1.415 . S
C1605 H1581 0.951 . S
C1605 C1606 1.366 . S
C1605 C1607 1.388 . S
C1606 C1605 1.366 . S
C1606 C1610 1.385 . S
C1607 H1582 0.951 . S
C1607 C1605 1.388 . S
C1607 C1608 1.366 . S
C1608 C1607 1.366 . S
C1608 C1609 1.414 . S
C1608 C1611 1.499 . S
C1609 H1583 0.950 . S
C1609 C1608 1.414 . S
C1609 C1610 1.374 . S
C1610 H1584 0.950 . S
C1610 C1606 1.385 . S
C1610 C1609 1.374 . S
C1611 C1608 1.499 . S
C1611 C1612 1.373 . S
C1611 C1613 1.389 . S
C1612 H1585 0.950 . S
C1612 C1598 1.377 . S
C1612 C1611 1.373 . S
C1613 C1597 1.377 . S
C1613 C1611 1.389 . S
C1613 C1614 1.524 . S
C1614 C1613 1.524 . S
C1614 C1615 1.397 . S
C1614 C1619 1.363 . S
C1615 H1586 0.950 . S
C1615 C1614 1.397 . S
C1615 C1616 1.334 . S
C1616 H1587 0.950 . S
C1616 C1615 1.334 . S
C1616 C1617 1.287 . S
C1617 C1616 1.287 . S
C1617 C1618 1.524 . S
C1617 H1620 0.999 . S
C1618 H1588 0.950 . S
C1618 C1617 1.524 . S
C1618 C1619 1.415 . S
C1619 H1589 0.950 . S
C1619 C1614 1.363 . S
C1619 C1618 1.415 . S
H1620 C1617 0.999 . S
H1621 C1602 0.913 . S
H1622 C1640 0.951 . S
H1623 C1642 0.951 . S
H1624 C1644 0.950 . S
H1625 C1645 0.950 . S
H1626 C1647 0.950 . S
H1627 C1650 0.950 . S
H1628 C1651 0.950 . S
H1629 C1653 0.950 . S
H1630 C1654 0.950 . S
H1631 C1655 0.951 . S
H1632 C1657 0.951 . S
H1633 C1659 0.950 . S
H1634 C1660 0.950 . S
H1635 C1662 0.950 . S
H1636 C1665 0.950 . S
H1637 C1666 0.950 . S
H1638 C1668 0.950 . S
H1639 C1669 0.950 . S
C1640 H1622 0.951 . S
C1640 C1641 1.366 . S
C1640 C1642 1.388 . S
C1641 C1640 1.366 . S
C1641 C1645 1.385 . S
C1642 H1623 0.951 . S
C1642 C1640 1.388 . S
C1642 C1643 1.366 . S
C1643 C1642 1.366 . S
C1643 C1644 1.414 . S
C1643 C1646 1.499 . S
C1644 H1624 0.950 . S
C1644 C1643 1.414 . S
C1644 C1645 1.374 . S
C1645 H1625 0.950 . S
C1645 C1641 1.385 . S
C1645 C1644 1.374 . S
C1646 C1643 1.499 . S
C1646 C1647 1.373 . S
C1646 C1648 1.389 . S
C1647 H1626 0.950 . S
C1647 C1646 1.373 . S
C1647 C1663 1.377 . S
C1648 C1646 1.389 . S
C1648 C1649 1.524 . S
C1648 C1662 1.377 . S
C1649 C1648 1.524 . S
C1649 C1650 1.397 . S
C1649 C1654 1.363 . S
C1650 H1627 0.950 . S
C1650 C1649 1.397 . S
C1650 C1651 1.334 . S
C1651 H1628 0.950 . S
C1651 C1650 1.334 . S
C1651 C1652 1.287 . S
C1652 C1651 1.287 . S
C1652 C1653 1.524 . S
C1652 H1671 0.913 . S
C1653 H1629 0.950 . S
C1653 C1652 1.524 . S
C1653 C1654 1.415 . S
C1654 H1630 0.950 . S
C1654 C1649 1.363 . S
C1654 C1653 1.415 . S
C1655 H1631 0.951 . S
C1655 C1656 1.366 . S
C1655 C1657 1.388 . S
C1656 C1655 1.366 . S
C1656 C1660 1.385 . S
C1657 H1632 0.951 . S
C1657 C1655 1.388 . S
C1657 C1658 1.366 . S
C1658 C1657 1.366 . S
C1658 C1659 1.414 . S
C1658 C1661 1.499 . S
C1659 H1633 0.950 . S
C1659 C1658 1.414 . S
C1659 C1660 1.374 . S
C1660 H1634 0.950 . S
C1660 C1656 1.385 . S
C1660 C1659 1.374 . S
C1661 C1658 1.499 . S
C1661 C1662 1.373 . S
C1661 C1663 1.389 . S
C1662 H1635 0.950 . S
C1662 C1648 1.377 . S
C1662 C1661 1.373 . S
C1663 C1647 1.377 . S
C1663 C1661 1.389 . S
C1663 C1664 1.524 . S
C1664 C1663 1.524 . S
C1664 C1665 1.397 . S
C1664 C1669 1.363 . S
C1665 H1636 0.950 . S
C1665 C1664 1.397 . S
C1665 C1666 1.334 . S
C1666 H1637 0.950 . S
C1666 C1665 1.334 . S
C1666 C1667 1.287 . S
C1667 C1666 1.287 . S
C1667 C1668 1.524 . S
C1667 H1670 0.999 . S
C1668 H1638 0.950 . S
C1668 C1667 1.524 . S
C1668 C1669 1.415 . S
C1669 H1639 0.950 . S
C1669 C1664 1.363 . S
C1669 C1668 1.415 . S
H1670 C1667 0.999 . S
H1671 C1652 0.913 . S
C491 C255 1.910 . S
C506 C321 2.016 1_545 S
C556 C361 2.028 . S
C541 C294 1.895 . S
C606 C401 2.021 . S
C591 C177 1.910 . S
C656 C441 2.025 1_455 S
C641 C216 1.918 . S
C706 C330 2.017 1_565 S
C691 C99 1.913 . S
C741 C138 1.896 . S
C756 C370 2.029 . S
C791 C21 1.911 . S
C806 C410 2.021 . S
C841 C60 1.917 . S
C856 C450 2.023 1_655 S
C906 C327 0.264 . S
C891 C196 0.268 . S
C956 C367 0.263 . S
C941 C235 0.269 . S
C1006 C407 0.263 . S
C991 C289 0.267 . S
C1041 C157 0.271 . S
C1056 C447 0.267 . S
C1091 C40 0.252 . S
C1106 C318 0.263 . S
C1156 C358 0.265 . S
C1141 C79 0.256 . S
C1206 C398 0.261 . S
C1191 C133 0.260 . S
C1241 C1 0.252 . S
C1256 C438 0.264 . S
C1291 C211 2.515 . S
C1306 C331 2.823 . S
C1341 C250 2.508 . S
C1356 C371 2.816 . S
C1406 C411 2.823 . S
C1391 C274 2.520 . S
C1456 C451 2.817 . S
C1441 C172 2.508 . S
C1491 C55 2.516 . S
C1506 C322 2.824 . S
C1556 C362 2.817 . S
C1541 C94 2.508 . S
C1606 C402 2.822 . S
C1591 C118 2.521 . S
C1641 C16 2.509 . S
C1656 C442 2.818 . S
