# Generated by pormake.
# Topology pyr, (3,6)-cn, num edge types: 1
# Building blocks:
#     Node 0, Type 0, BuildingBlock: INOVEN_clean_linker_0, # of connection points: 3
#     Node 1, Type 0, BuildingBlock: INOVEN_clean_linker_0, # of connection points: 3
#     Node 2, Type 0, BuildingBlock: INOVEN_clean_linker_0, # of connection points: 3
#     Node 3, Type 0, BuildingBlock: INOVEN_clean_linker_0, # of connection points: 3
#     Node 4, Type 0, BuildingBlock: INOVEN_clean_linker_0, # of connection points: 3
#     Node 5, Type 0, BuildingBlock: INOVEN_clean_linker_0, # of connection points: 3
#     Node 6, Type 0, BuildingBlock: INOVEN_clean_linker_0, # of connection points: 3
#     Node 7, Type 0, BuildingBlock: INOVEN_clean_linker_0, # of connection points: 3
#     Node 8, Type 1, BuildingBlock: VOLQOD_clean_sbu_1, # of connection points: 6
#     Node 9, Type 1, BuildingBlock: VOLQOD_clean_sbu_1, # of connection points: 6
#     Node 10, Type 1, BuildingBlock: VOLQOD_clean_sbu_1, # of connection points: 6
#     Node 11, Type 1, BuildingBlock: VOLQOD_clean_sbu_1, # of connection points: 6
#     Edge 12, Type (0, 1), BuildingBlock: AJUNOK_clean_linker_0, # of connection points: 2
#     Edge 13, Type (0, 1), BuildingBlock: AJUNOK_clean_linker_0, # of connection points: 2
#     Edge 14, Type (0, 1), BuildingBlock: AJUNOK_clean_linker_0, # of connection points: 2
#     Edge 15, Type (0, 1), BuildingBlock: AJUNOK_clean_linker_0, # of connection points: 2
#     Edge 16, Type (0, 1), BuildingBlock: AJUNOK_clean_linker_0, # of connection points: 2
#     Edge 17, Type (0, 1), BuildingBlock: AJUNOK_clean_linker_0, # of connection points: 2
#     Edge 18, Type (0, 1), BuildingBlock: AJUNOK_clean_linker_0, # of connection points: 2
#     Edge 19, Type (0, 1), BuildingBlock: AJUNOK_clean_linker_0, # of connection points: 2
#     Edge 20, Type (0, 1), BuildingBlock: AJUNOK_clean_linker_0, # of connection points: 2
#     Edge 21, Type (0, 1), BuildingBlock: AJUNOK_clean_linker_0, # of connection points: 2
#     Edge 22, Type (0, 1), BuildingBlock: AJUNOK_clean_linker_0, # of connection points: 2
#     Edge 23, Type (0, 1), BuildingBlock: AJUNOK_clean_linker_0, # of connection points: 2
#     Edge 24, Type (0, 1), BuildingBlock: AJUNOK_clean_linker_0, # of connection points: 2
#     Edge 25, Type (0, 1), BuildingBlock: AJUNOK_clean_linker_0, # of connection points: 2
#     Edge 26, Type (0, 1), BuildingBlock: AJUNOK_clean_linker_0, # of connection points: 2
#     Edge 27, Type (0, 1), BuildingBlock: AJUNOK_clean_linker_0, # of connection points: 2
#     Edge 28, Type (0, 1), BuildingBlock: AJUNOK_clean_linker_0, # of connection points: 2
#     Edge 29, Type (0, 1), BuildingBlock: AJUNOK_clean_linker_0, # of connection points: 2
#     Edge 30, Type (0, 1), BuildingBlock: AJUNOK_clean_linker_0, # of connection points: 2
#     Edge 31, Type (0, 1), BuildingBlock: AJUNOK_clean_linker_0, # of connection points: 2
#     Edge 32, Type (0, 1), BuildingBlock: AJUNOK_clean_linker_0, # of connection points: 2
#     Edge 33, Type (0, 1), BuildingBlock: AJUNOK_clean_linker_0, # of connection points: 2
#     Edge 34, Type (0, 1), BuildingBlock: AJUNOK_clean_linker_0, # of connection points: 2
#     Edge 35, Type (0, 1), BuildingBlock: AJUNOK_clean_linker_0, # of connection points: 2
# Relax obj value: 0.106
# Max RMSD: 0.184
# Mean RMSD: 0.144
data_MOF--net-pry--node1-VOLQOD_clean_sbu_1--node2-INOVEN_clean_linker_0--edge1-AJUNOK_clean_linker_0
_symmetry_space_group_name_H-M    P1
_symmetry_Int_Tables_number       1
_symmetry_cell_setting            triclinic
loop_
_symmetry_equiv_pos_as_xyz
'x, y, z'
_cell_length_a     26.762852
_cell_length_b     27.333559
_cell_length_c     28.630329
_cell_angle_alpha  90.5954
_cell_angle_beta   91.06861
_cell_angle_gamma 96.070354
loop_
_atom_site_label
_atom_site_type_symbol
_atom_site_fract_x
_atom_site_fract_y
_atom_site_fract_z
_atom_type_partial_charge
H0 H 0.08494 0.18766 0.21354 0.0
H1 H 0.1862 0.07602 0.20968 0.0
H2 H 0.19065 0.18652 0.10262 0.0
N3 N 0.11361 0.23268 0.13686 0.0
N4 N 0.12834 0.2534 0.10019 0.0
C5 C 0.11464 0.17067 0.1964 0.0
C6 C 0.13335 0.12954 0.2163 0.0
C7 C 0.13409 0.19061 0.15489 0.0
C8 C 0.17385 0.16956 0.13338 0.0
C9 C 0.19319 0.12793 0.15274 0.0
C10 C 0.1719 0.10782 0.19402 0.0
H11 H 0.38765 0.86078 0.61194 0.0
H12 H 0.46681 0.85208 0.74301 0.0
H13 H 0.37239 0.96851 0.71887 0.0
N14 N 0.33984 0.93498 0.63301 0.0
N15 N 0.32055 0.97358 0.64136 0.0
C16 C 0.39847 0.87597 0.64626 0.0
C17 C 0.42957 0.85136 0.67562 0.0
C18 C 0.37803 0.91793 0.66142 0.0
C19 C 0.39011 0.93715 0.70639 0.0
C20 C 0.42208 0.91373 0.7365 0.0
C21 C 0.44254 0.87103 0.72037 0.0
H22 H 0.53425 0.3665 0.93255 0.0
H23 H 0.66461 0.3552 0.02078 0.0
H24 H 0.66113 0.47537 0.92584 0.0
N25 N 0.57179 0.44312 0.88625 0.0
N26 N 0.59307 0.47854 0.8647 0.0
C27 C 0.57097 0.38138 0.9459 0.0
C28 C 0.59627 0.35565 0.97949 0.0
C29 C 0.59415 0.42426 0.92646 0.0
C30 C 0.64231 0.44316 0.94228 0.0
C31 C 0.66799 0.4187 0.97653 0.0
C32 C 0.64447 0.37511 0.99539 0.0
H33 H 0.82685 0.57902 0.39761 0.0
H34 H 0.83106 0.70716 0.4873 0.0
H35 H 0.94272 0.6992 0.3834 0.0
N36 N 0.9013 0.61409 0.34404 0.0
N37 N 0.93341 0.63641 0.31881 0.0
C38 C 0.84527 0.61413 0.40993 0.0
C39 C 0.82508 0.63927 0.44712 0.0
C40 C 0.88731 0.63562 0.38645 0.0
C41 C 0.91074 0.68153 0.40172 0.0
C42 C 0.89052 0.70697 0.43805 0.0
C43 C 0.84786 0.68595 0.46072 0.0
H44 H 0.86969 0.97063 0.82866 0.0
H45 H 0.97693 0.86331 0.82842 0.0
H46 H 0.87444 0.87037 0.94196 0.0
N47 N 0.82743 0.94482 0.9068 0.0
N48 N 0.81764 0.94383 0.94921 0.0
C49 C 0.88786 0.9418 0.84567 0.0
C50 C 0.92765 0.92135 0.82404 0.0
C51 C 0.86971 0.92472 0.88848 0.0
C52 C 0.89006 0.88511 0.90973 0.0
C53 C 0.9283 0.86232 0.888 0.0
C54 C 0.94763 0.88099 0.8454 0.0
H55 H 0.56092 0.1576 0.36605 0.0
H56 H 0.68156 0.06597 0.36247 0.0
H57 H 0.67616 0.17311 0.47333 0.0
N58 N 0.59118 0.2089 0.44014 0.0
N59 N 0.60094 0.22841 0.4793 0.0
C60 C 0.59425 0.14502 0.38201 0.0
C61 C 0.61822 0.10819 0.35998 0.0
C62 C 0.61429 0.16805 0.42308 0.0
C63 C 0.65928 0.15401 0.44266 0.0
C64 C 0.68435 0.11768 0.42038 0.0
C65 C 0.66284 0.09429 0.37966 0.0
H66 H 0.46653 0.67757 0.1767 0.0
H67 H 0.35357 0.69551 0.07156 0.0
H68 H 0.33117 0.578 0.16986 0.0
N69 N 0.41695 0.60523 0.21968 0.0
N70 N 0.38554 0.58989 0.24909 0.0
C71 C 0.43184 0.66394 0.15852 0.0
C72 C 0.4138 0.69078 0.12171 0.0
C73 C 0.40214 0.62366 0.17629 0.0
C74 C 0.35527 0.60807 0.15514 0.0
C75 C 0.33868 0.63298 0.11613 0.0
C76 C 0.36831 0.67394 0.09922 0.0
H77 H 0.02179 0.3813 0.63536 0.0
H78 H 0.15194 0.36667 0.55229 0.0
H79 H 0.14502 0.49531 0.63756 0.0
N80 N 0.05628 0.46405 0.67609 0.0
N81 N 0.07959 0.49809 0.69941 0.0
C82 C 0.05694 0.39699 0.62083 0.0
C83 C 0.08342 0.36893 0.59056 0.0
C84 C 0.07859 0.44276 0.6375 0.0
C85 C 0.12667 0.46128 0.62271 0.0
C86 C 0.1535 0.43338 0.59279 0.0
C87 C 0.13087 0.38835 0.57522 0.0
O88 O 0.98926 0.13681 0.56876 0.0
Zn89 Zn 0.96194 0.0658 0.55774 0.0
O90 O 0.00729 0.0341 0.51628 0.0
Zn91 Zn 0.9732 0.01675 0.45688 0.0
Zn92 Zn 0.0677 0.07738 0.50343 0.0
Zn93 Zn 0.02752 0.97551 0.54604 0.0
O94 O 0.9566 0.94357 0.45232 0.0
O95 O 0.00057 0.91511 0.5108 0.0
O96 O 0.8933 0.06918 0.52648 0.0
O97 O 0.90787 0.04676 0.45356 0.0
O98 O 0.01491 0.03966 0.40091 0.0
O99 O 0.07975 0.08495 0.43427 0.0
O100 O 0.12926 0.0544 0.53367 0.0
O101 O 0.95587 0.03126 0.62108 0.0
O102 O 0.10231 0.97802 0.55367 0.0
O103 O 0.00031 0.96795 0.61075 0.0
C104 C 0.02887 0.16188 0.55476 0.0
C105 C 0.97108 0.90799 0.47551 0.0
C106 C 0.05611 0.06735 0.3978 0.0
C107 C 0.87961 0.06397 0.4836 0.0
C108 C 0.1374 0.01295 0.55026 0.0
C109 C 0.97341 0.99258 0.63627 0.0
O110 O 0.06096 0.14319 0.5299 0.0
O111 O 0.49347 0.12919 0.00198 0.0
Zn112 Zn 0.45909 0.06014 0.00866 0.0
O113 O 0.50201 0.02338 0.04935 0.0
Zn114 Zn 0.51995 0.96722 0.0142 0.0
Zn115 Zn 0.56456 0.06226 0.06935 0.0
Zn116 Zn 0.46604 0.00155 0.10538 0.0
O117 O 0.5004 0.90513 0.047 0.0
O118 O 0.45662 0.92763 0.10726 0.0
O119 O 0.44675 0.02761 0.94327 0.0
O120 O 0.48588 0.96061 0.95216 0.0
O121 O 0.59316 0.9713 0.00211 0.0
O122 O 0.62668 0.03689 0.04231 0.0
O123 O 0.57392 0.06466 0.13918 0.0
O124 O 0.39184 0.06747 0.04007 0.0
O125 O 0.50381 0.02447 0.16471 0.0
O126 O 0.39926 0.02905 0.10751 0.0
C127 C 0.53222 0.15237 0.02175 0.0
C128 C 0.47423 0.89453 0.08272 0.0
C129 C 0.63111 0.00011 0.01563 0.0
C130 C 0.4593 0.98675 0.92765 0.0
C131 C 0.54641 0.04873 0.17266 0.0
C132 C 0.37452 0.0541 0.07979 0.0
O133 O 0.56139 0.13129 0.04872 0.0
O134 O 0.55742 0.55583 0.65528 0.0
Zn135 Zn 0.54722 0.58388 0.59201 0.0
O136 O 0.49875 0.53911 0.55587 0.0
Zn137 Zn 0.52874 0.51717 0.49949 0.0
Zn138 Zn 0.4762 0.48071 0.59172 0.0
Zn139 Zn 0.4421 0.57442 0.53886 0.0
O140 O 0.48974 0.53255 0.44252 0.0
O141 O 0.43418 0.58024 0.46933 0.0
O142 O 0.61389 0.59419 0.55932 0.0
O143 O 0.59807 0.55019 0.494 0.0
O144 O 0.53487 0.44485 0.4993 0.0
O145 O 0.50435 0.41916 0.5673 0.0
O146 O 0.40027 0.46891 0.59044 0.0
O147 O 0.52117 0.64973 0.60571 0.0
O148 O 0.37842 0.53678 0.5576 0.0
O149 O 0.44586 0.64036 0.57125 0.0
C150 C 0.53419 0.52074 0.67768 0.0
C151 C 0.45399 0.55892 0.4357 0.0
C152 C 0.52551 0.41095 0.52893 0.0
C153 C 0.62768 0.57846 0.52002 0.0
C154 C 0.36666 0.49534 0.5763 0.0
C155 C 0.47898 0.66551 0.5966 0.0
O156 O 0.50034 0.49077 0.65802 0.0
O157 O 0.97096 0.53829 0.11662 0.0
Zn158 Zn 0.97566 0.50637 0.05401 0.0
O159 O 0.00656 0.5542 0.01055 0.0
Zn160 Zn 0.95873 0.56683 0.9615 0.0
Zn161 Zn 0.02777 0.61703 0.04156 0.0
Zn162 Zn 0.06433 0.52662 0.98497 0.0
O163 O 0.98321 0.54584 0.89936 0.0
O164 O 0.06171 0.53026 0.91545 0.0
O165 O 0.90504 0.48283 0.03337 0.0
O166 O 0.89071 0.53137 0.97365 0.0
O167 O 0.95236 0.63915 0.95428 0.0
O168 O 0.00881 0.6763 0.00411 0.0
O169 O 0.1022 0.62288 0.05323 0.0
O170 O 0.01385 0.44688 0.06118 0.0
O171 O 0.12814 0.56301 0.00983 0.0
O172 O 0.06935 0.45616 0.00481 0.0
C173 C 0.97915 0.58247 0.13157 0.0
C174 C 0.02627 0.53591 0.88633 0.0
C175 C 0.97626 0.67828 0.9712 0.0
C176 C 0.87588 0.49787 0.00233 0.0
C177 C 0.13711 0.59904 0.03826 0.0
C178 C 0.04887 0.43086 0.03779 0.0
O179 O -0.00193 0.61701 0.10561 0.0
C180 C 0.1249 0.14128 0.30224 0.0
C181 C 0.11459 0.11164 0.26213 0.0
C182 C 0.10655 0.12616 0.34595 0.0
C183 C 0.07624 0.08121 0.3511 0.0
H184 H 0.14739 0.1765 0.29976 0.0
H185 H 0.1154 0.15045 0.37579 0.0
S186 S 0.03894 0.99011 0.25633 0.0
N187 N 0.07325 0.0351 0.22998 0.0
N188 N 0.03751 0.00689 0.31187 0.0
C189 C 0.06573 0.0512 0.31105 0.0
C190 C 0.08527 0.06632 0.26666 0.0
C191 C 0.44031 0.9829 0.79554 0.0
C192 C 0.43034 0.93201 0.78572 0.0
C193 C 0.44728 0.00095 0.84169 0.0
C194 C 0.44494 0.96873 0.8797 0.0
H195 H 0.44363 0.00897 0.76724 0.0
H196 H 0.45635 0.04013 0.84749 0.0
S197 S 0.41393 0.83315 0.87381 0.0
N198 N 0.41358 0.85042 0.81875 0.0
N199 N 0.42833 0.88404 0.90491 0.0
C200 C 0.43355 0.91804 0.87052 0.0
C201 C 0.42592 0.89975 0.82375 0.0
C202 C 0.53194 0.46741 0.79924 0.0
C203 C 0.57419 0.49348 0.82126 0.0
C204 C 0.51865 0.47749 0.75319 0.0
C205 C 0.54709 0.51388 0.72751 0.0
H206 H 0.51003 0.4379 0.81699 0.0
H207 H 0.48648 0.45567 0.73737 0.0
S208 S 0.65906 0.59433 0.77173 0.0
N209 N 0.64256 0.55827 0.81599 0.0
N210 N 0.61792 0.57802 0.7292 0.0
C211 C 0.58814 0.54161 0.75016 0.0
C212 C 0.60151 0.53116 0.7971 0.0
C213 C 0.97918 0.64991 0.24768 0.0
C214 C 0.94594 0.61908 0.2742 0.0
C215 C 0.98974 0.63775 0.20165 0.0
C216 C 0.96754 0.59386 0.18054 0.0
H217 H 0.99632 0.68442 0.26254 0.0
H218 H 0.01547 0.66307 0.18254 0.0
S219 S 0.87846 0.49927 0.23601 0.0
N220 N 0.89133 0.542 0.27689 0.0
N221 N 0.91128 0.51866 0.19028 0.0
C222 C 0.93484 0.56191 0.20719 0.0
C223 C 0.9239 0.57457 0.25411 0.0
C224 C 0.27669 0.09461 0.16232 0.0
C225 C 0.23801 0.10763 0.13239 0.0
C226 C 0.31982 0.07655 0.14482 0.0
C227 C 0.32684 0.07126 0.09647 0.0
H228 H 0.27425 0.0993 0.19979 0.0
H229 H 0.34854 0.06779 0.16962 0.0
S230 S 0.23588 0.09701 0.00284 0.0
N231 N 0.20845 0.11108 0.05168 0.0
N232 N 0.29053 0.07884 0.0188 0.0
C233 C 0.28847 0.08376 0.06597 0.0
C234 C 0.24396 0.10153 0.08387 0.0
C235 C 0.24968 0.94911 0.58716 0.0
C236 C 0.27852 0.9854 0.61442 0.0
C237 C 0.20485 0.959 0.56519 0.0
C238 C 0.1877 0.00565 0.56891 0.0
H239 H 0.26067 0.91222 0.58424 0.0
H240 H 0.18293 0.92959 0.54588 0.0
S241 S 0.25065 0.11344 0.63453 0.0
N242 N 0.28768 0.06953 0.64309 0.0
N243 N 0.20377 0.08896 0.60055 0.0
C244 C 0.21718 0.04278 0.59444 0.0
C245 C 0.26245 0.03234 0.61759 0.0
C246 C 0.73446 0.48809 0.99415 0.0
C247 C 0.72093 0.43709 0.98865 0.0
C248 C 0.78481 0.50745 0.99895 0.0
C249 C 0.8233 0.47643 -0.00023 0.0
H250 H 0.70594 0.51342 0.9936 0.0
H251 H 0.79372 0.54698 0.00189 0.0
S252 S 0.80903 0.34073 0.98733 0.0
N253 N 0.75105 0.3561 0.9837 0.0
N254 N 0.84554 0.39277 0.9958 0.0
C255 C 0.81063 0.42544 0.99623 0.0
C256 C 0.75942 0.40565 0.99004 0.0
C257 C 0.73571 0.6042 0.43747 0.0
C258 C 0.77641 0.6204 0.46741 0.0
C259 C 0.68799 0.59063 0.45503 0.0
C260 C 0.6789 0.5931 0.50323 0.0
H261 H 0.74034 0.60336 0.39997 0.0
H262 H 0.65774 0.57904 0.43038 0.0
S263 S 0.77383 0.62946 0.59672 0.0
N264 N 0.80552 0.63532 0.54779 0.0
N265 N 0.71523 0.61059 0.58092 0.0
C266 C 0.71945 0.60841 0.53373 0.0
C267 C 0.76832 0.62184 0.5158 0.0
C268 C 0.06771 0.31547 0.10683 0.0
C269 C 0.10714 0.29582 0.08355 0.0
C270 C 0.04848 0.35829 0.091 0.0
C271 C 0.06787 0.38343 0.05137 0.0
H272 H 0.05185 0.29806 0.13778 0.0
H273 H 0.01867 0.37215 0.11065 0.0
S274 S 0.17001 0.34507 0.97741 0.0
N275 N 0.16377 0.30314 0.01862 0.0
N276 N 0.12813 0.38371 0.98849 0.0
C277 C 0.10669 0.36333 0.02735 0.0
C278 C 0.12611 0.3196 0.04357 0.0
C279 C 0.55529 0.27201 0.95735 0.0
C280 C 0.57549 0.30527 0.99253 0.0
C281 C 0.53954 0.22292 0.96742 0.0
C282 C 0.54448 0.20506 0.0128 0.0
H283 H 0.55321 0.28345 0.92132 0.0
H284 H 0.52536 0.19835 0.93914 0.0
S285 S 0.5895 0.27757 0.11837 0.0
N286 N 0.59472 0.31761 0.07547 0.0
N287 N 0.56723 0.2245 0.09398 0.0
C288 C 0.56313 0.23794 0.0486 0.0
C289 C 0.57819 0.28824 0.03856 0.0
C290 C 0.95886 0.76915 0.46687 0.0
C291 C 0.9103 0.75819 0.44783 0.0
C292 C 0.97861 0.81798 0.47512 0.0
C293 C 0.95073 0.8572 0.46357 0.0
H294 H 0.98143 0.7398 0.47575 0.0
H295 H 0.01599 0.82505 0.49055 0.0
S296 S 0.82201 0.84678 0.41135 0.0
N297 N 0.83499 0.78936 0.41678 0.0
N298 N 0.87218 0.88147 0.43158 0.0
C299 C 0.90235 0.84644 0.44363 0.0
C300 C 0.88206 0.79675 0.43599 0.0
C301 C 0.49293 0.79298 0.65477 0.0
C302 C 0.4427 0.80231 0.66025 0.0
C303 C 0.50465 0.74852 0.63442 0.0
C304 C 0.4665 0.7122 0.61855 0.0
H305 H 0.5232 0.82073 0.66494 0.0
H306 H 0.54381 0.74306 0.63015 0.0
S307 S 0.32907 0.71705 0.63066 0.0
N308 N 0.35482 0.77011 0.65245 0.0
N309 N 0.37638 0.68741 0.61388 0.0
C310 C 0.41617 0.72068 0.62564 0.0
C311 C 0.40443 0.76545 0.64661 0.0
C312 C 0.94989 0.90764 0.7401 0.0
C313 C 0.9445 0.94038 0.77749 0.0
C314 C 0.95947 0.92491 0.69471 0.0
C315 C 0.9633 0.97556 0.68468 0.0
H316 H 0.94506 0.86829 0.74558 0.0
H317 H 0.96269 0.89822 0.66697 0.0
S318 S 0.95872 0.07691 0.77103 0.0
N319 N 0.94922 0.02632 0.80208 0.0
N320 N 0.96517 0.05836 0.71661 0.0
C321 C 0.95955 0.00874 0.7219 0.0
C322 C 0.95076 0.99128 0.76825 0.0
C323 C 0.63224 0.09164 0.27558 0.0
C324 C 0.5997 0.08847 0.31364 0.0
C325 C 0.61478 0.07789 0.23042 0.0
C326 C 0.56414 0.05997 0.22151 0.0
H327 H 0.67121 0.10639 0.28048 0.0
H328 H 0.64123 0.08197 0.20218 0.0
S329 S 0.46458 0.04151 0.31034 0.0
N330 N 0.51527 0.06405 0.34034 0.0
N331 N 0.48215 0.03779 0.25554 0.0
C332 C 0.53155 0.05509 0.25973 0.0
C333 C 0.54937 0.06955 0.3057 0.0
C334 C 0.45146 0.56891 0.30417 0.0
C335 C 0.40116 0.57653 0.29427 0.0
C336 C 0.46794 0.5624 0.35009 0.0
C337 C 0.435 0.56423 0.38762 0.0
H338 H 0.47843 0.56891 0.27645 0.0
H339 H 0.50711 0.55732 0.35633 0.0
S340 S 0.29908 0.57976 0.37906 0.0
N341 N 0.31821 0.58258 0.32451 0.0
N342 N 0.34913 0.57122 0.4114 0.0
C343 C 0.38435 0.57039 0.3779 0.0
C344 C 0.36748 0.57612 0.331 0.0
C345 C 0.09686 0.53865 0.77365 0.0
C346 C 0.06154 0.5149 0.74214 0.0
C347 C 0.08467 0.54637 0.82014 0.0
C348 C 0.03619 0.5316 0.83624 0.0
H349 H 0.13518 0.54845 0.76288 0.0
H350 H 0.11377 0.563 0.8439 0.0
S351 S 0.9277 0.47415 0.76552 0.0
N352 N 0.97454 0.48079 0.72857 0.0
N353 N 0.95106 0.4966 0.81607 0.0
C354 C -0.00077 0.51112 0.80416 0.0
C355 C 0.01199 0.50239 0.75691 0.0
C356 C 0.73059 0.96187 0.93538 0.0
C357 C 0.77279 0.96114 0.96536 0.0
C358 C 0.68526 0.97565 0.95199 0.0
C359 C 0.68077 0.99023 0.99882 0.0
H360 H 0.7321 0.9503 0.89919 0.0
H361 H 0.65327 0.97449 0.92807 0.0
S362 S 0.78058 0.99566 0.09075 0.0
N363 N 0.80753 0.97614 0.04355 0.0
N364 N 0.72244 0.00395 0.0747 0.0
C365 C 0.723 0.99098 0.0288 0.0
C366 C 0.76893 0.97577 0.01206 0.0
C367 C 0.74372 0.09467 0.48391 0.0
C368 C 0.73488 0.10646 0.43695 0.0
C369 C 0.79075 0.08144 0.49905 0.0
C370 C 0.83048 0.07935 0.46769 0.0
H371 H 0.71379 0.09464 0.50887 0.0
H372 H 0.79565 0.07185 0.53534 0.0
S373 S 0.82826 0.11327 0.34237 0.0
N374 N 0.77115 0.11997 0.36037 0.0
N375 N 0.85876 0.09443 0.38829 0.0
C376 C 0.82242 0.0927 0.42099 0.0
C377 C 0.77488 0.10645 0.40578 0.0
C378 C 0.27879 0.60648 0.05087 0.0
C379 C 0.28714 0.62209 0.09747 0.0
C380 C 0.23002 0.59966 0.03163 0.0
C381 C 0.18837 0.60961 0.05808 0.0
H382 H 0.31016 0.59952 0.02928 0.0
H383 H 0.22491 0.58686 0.99574 0.0
S384 S 0.19135 0.65228 0.18175 0.0
N385 N 0.25076 0.64769 0.16958 0.0
N386 N 0.15898 0.63576 0.13344 0.0
C387 C 0.19657 0.62582 0.10467 0.0
C388 C 0.24605 0.63181 0.1244 0.0
C389 C 0.22477 0.49442 0.57063 0.0
C390 C 0.20774 0.4474 0.58651 0.0
C391 C 0.27619 0.50934 0.5674 0.0
C392 C 0.31257 0.47794 0.58042 0.0
H393 H 0.19812 0.51988 0.56077 0.0
H394 H 0.28733 0.54606 0.55485 0.0
S395 S 0.2865 0.3513 0.62608 0.0
N396 N 0.23047 0.36977 0.61671 0.0
N397 N 0.32728 0.3975 0.6104 0.0
C398 C 0.29578 0.43069 0.59655 0.0
C399 C 0.24334 0.4155 0.59962 0.0
C400 C 0.90751 0.77422 0.90852 0.0
C401 C 0.94314 0.81582 0.90783 0.0
C402 C 0.9187 0.73031 0.92925 0.0
C403 C 0.96574 0.72634 0.95104 0.0
H404 H 0.87052 0.7757 0.89288 0.0
H405 H 0.88989 0.69932 0.92858 0.0
S406 S 0.07212 0.82521 0.95869 0.0
N407 N 0.02738 0.85067 0.93026 0.0
N408 N 0.04849 0.76836 0.97014 0.0
C409 C 0.00173 0.76793 0.95077 0.0
C410 C 0.99046 0.81255 0.92887 0.0
C411 C 0.44963 0.75639 0.06866 0.0
C412 C 0.43572 0.74149 0.11369 0.0
C413 C 0.46349 0.80601 0.05932 0.0
C414 C 0.46285 0.84233 0.09456 0.0
H415 H 0.44858 0.72966 0.04035 0.0
H416 H 0.47306 0.8161 0.02384 0.0
S417 S 0.43018 0.8214 0.21858 0.0
N418 N 0.42297 0.76609 0.19411 0.0
N419 N 0.44896 0.85957 0.17657 0.0
C420 C 0.45002 0.8276 0.13999 0.0
C421 C 0.43649 0.77706 0.14957 0.0
C422 C 0.10195 0.28186 0.58876 0.0
C423 C 0.06681 0.31617 0.58238 0.0
C424 C 0.0886 0.2318 0.58101 0.0
C425 C 0.03934 0.21394 0.56766 0.0
H426 H 0.14029 0.2937 0.59984 0.0
H427 H 0.1172 0.20683 0.58526 0.0
S428 S 0.93266 0.28757 0.54748 0.0
N429 N 0.98031 0.32858 0.56233 0.0
N430 N 0.95476 0.23339 0.54921 0.0
C431 C 0.00318 0.24723 0.56269 0.0
C432 C 0.01702 0.29865 0.56979 0.0
C433 C 0.55786 0.30088 0.45878 0.0
C434 C 0.57897 0.27158 0.49254 0.0
C435 C 0.53959 0.34522 0.47129 0.0
C436 C 0.54083 0.36167 0.51805 0.0
H437 H 0.55672 0.29028 0.4222 0.0
H438 H 0.52482 0.36709 0.44395 0.0
S439 S 0.59105 0.2977 0.61953 0.0
N440 N 0.59964 0.2616 0.57434 0.0
N441 N 0.56393 0.34459 0.59837 0.0
C442 C 0.56047 0.33205 0.5523 0.0
C443 C 0.58 0.28721 0.53934 0.0
loop_
_geom_bond_atom_site_label_1
_geom_bond_atom_site_label_2
_geom_bond_distance
_geom_bond_site_symmetry_2
_ccdc_geom_bond_type
H0 C5 0.929 . S
H1 C10 0.931 . S
H2 C8 0.930 . S
N3 N4 1.234 . S
N3 C7 1.453 . S
N4 N3 1.234 . S
C5 H0 0.929 . S
C5 C6 1.373 . S
C5 C7 1.368 . S
C6 C5 1.373 . S
C6 C10 1.397 . S
C7 N3 1.453 . S
C7 C5 1.368 . S
C7 C8 1.373 . S
C8 H2 0.930 . S
C8 C7 1.373 . S
C8 C9 1.371 . S
C9 C8 1.371 . S
C9 C10 1.383 . S
C10 H1 0.931 . S
C10 C6 1.397 . S
C10 C9 1.383 . S
H11 C16 0.929 . S
H12 C21 0.931 . S
H13 C19 0.930 . S
N14 N15 1.234 . S
N14 C18 1.453 . S
N15 N14 1.234 . S
C16 H11 0.929 . S
C16 C17 1.373 . S
C16 C18 1.368 . S
C17 C16 1.373 . S
C17 C21 1.397 . S
C18 N14 1.453 . S
C18 C16 1.368 . S
C18 C19 1.373 . S
C19 H13 0.930 . S
C19 C18 1.373 . S
C19 C20 1.371 . S
C20 C19 1.371 . S
C20 C21 1.383 . S
C21 H12 0.931 . S
C21 C17 1.397 . S
C21 C20 1.383 . S
H22 C27 0.929 . S
H23 C32 0.931 . S
H24 C30 0.930 . S
N25 N26 1.234 . S
N25 C29 1.453 . S
N26 N25 1.234 . S
C27 H22 0.929 . S
C27 C28 1.373 . S
C27 C29 1.368 . S
C28 C27 1.373 . S
C28 C32 1.397 . S
C29 N25 1.453 . S
C29 C27 1.368 . S
C29 C30 1.373 . S
C30 H24 0.930 . S
C30 C29 1.373 . S
C30 C31 1.371 . S
C31 C30 1.371 . S
C31 C32 1.383 . S
C32 H23 0.931 . S
C32 C28 1.397 . S
C32 C31 1.383 . S
H33 C38 0.929 . S
H34 C43 0.931 . S
H35 C41 0.930 . S
N36 N37 1.234 . S
N36 C40 1.453 . S
N37 N36 1.234 . S
C38 H33 0.929 . S
C38 C39 1.373 . S
C38 C40 1.368 . S
C39 C38 1.373 . S
C39 C43 1.397 . S
C40 N36 1.453 . S
C40 C38 1.368 . S
C40 C41 1.373 . S
C41 H35 0.930 . S
C41 C40 1.373 . S
C41 C42 1.371 . S
C42 C41 1.371 . S
C42 C43 1.383 . S
C43 H34 0.931 . S
C43 C39 1.397 . S
C43 C42 1.383 . S
H44 C49 0.929 . S
H45 C54 0.931 . S
H46 C52 0.930 . S
N47 N48 1.234 1_545 S
N47 C51 1.453 1_545 S
N48 N47 1.234 1_565 S
C49 H44 0.929 . S
C49 C50 1.373 1_545 S
C49 C51 1.368 1_545 S
C50 C49 1.373 1_565 S
C50 C54 1.397 . S
C51 N47 1.453 1_565 S
C51 C49 1.368 1_565 S
C51 C52 1.373 . S
C52 H46 0.930 . S
C52 C51 1.373 . S
C52 C53 1.371 . S
C53 C52 1.371 . S
C53 C54 1.383 . S
C54 H45 0.931 . S
C54 C50 1.397 . S
C54 C53 1.383 . S
H55 C60 0.929 . S
H56 C65 0.931 . S
H57 C63 0.930 . S
N58 N59 1.234 . S
N58 C62 1.453 . S
N59 N58 1.234 . S
C60 H55 0.929 . S
C60 C61 1.373 . S
C60 C62 1.368 . S
C61 C60 1.373 . S
C61 C65 1.397 . S
C62 N58 1.453 . S
C62 C60 1.368 . S
C62 C63 1.373 . S
C63 H57 0.930 . S
C63 C62 1.373 . S
C63 C64 1.371 . S
C64 C63 1.371 . S
C64 C65 1.383 . S
C65 H56 0.931 . S
C65 C61 1.397 . S
C65 C64 1.383 . S
H66 C71 0.929 . S
H67 C76 0.931 . S
H68 C74 0.930 . S
N69 N70 1.234 . S
N69 C73 1.453 . S
N70 N69 1.234 . S
C71 H66 0.929 . S
C71 C72 1.373 . S
C71 C73 1.368 . S
C72 C71 1.373 . S
C72 C76 1.397 . S
C73 N69 1.453 . S
C73 C71 1.368 . S
C73 C74 1.373 . S
C74 H68 0.930 . S
C74 C73 1.373 . S
C74 C75 1.371 . S
C75 C74 1.371 . S
C75 C76 1.383 . S
C76 H67 0.931 . S
C76 C72 1.397 . S
C76 C75 1.383 . S
H77 C82 0.929 . S
H78 C87 0.931 . S
H79 C85 0.930 . S
N80 N81 1.234 . S
N80 C84 1.453 . S
N81 N80 1.234 . S
C82 H77 0.929 . S
C82 C83 1.373 . S
C82 C84 1.368 . S
C83 C82 1.373 . S
C83 C87 1.397 . S
C84 N80 1.453 . S
C84 C82 1.368 . S
C84 C85 1.373 . S
C85 H79 0.930 . S
C85 C84 1.373 . S
C85 C86 1.371 . S
C86 C85 1.371 . S
C86 C87 1.383 . S
C87 H78 0.931 . S
C87 C83 1.397 . S
C87 C86 1.383 . S
O88 Zn89 1.953 . S
O88 C104 1.225 1_655 S
Zn89 O88 1.953 . S
Zn89 O90 1.949 1_655 S
Zn89 O96 1.919 . S
Zn89 O101 1.924 . S
O90 Zn89 1.949 1_455 S
O90 Zn91 1.923 1_455 S
O90 Zn92 1.950 . S
O90 Zn93 1.945 1_545 S
Zn91 O90 1.923 1_655 S
Zn91 O94 1.933 1_545 S
Zn91 O97 1.941 . S
Zn91 O98 1.965 1_655 S
Zn92 O90 1.950 . S
Zn92 O99 1.938 . S
Zn92 O100 1.906 . S
Zn92 O110 1.953 . S
Zn93 O90 1.945 1_565 S
Zn93 O95 1.932 1_455 S
Zn93 O102 1.977 . S
Zn93 O103 1.910 1_455 S
O94 Zn91 1.933 1_565 S
O94 C105 1.226 . S
O95 Zn93 1.932 1_655 S
O95 C105 1.307 . S
O96 Zn89 1.919 . S
O96 C107 1.253 . S
O97 Zn91 1.941 . S
O97 C107 1.283 . S
O98 Zn91 1.965 1_455 S
O98 C106 1.303 . S
O99 Zn92 1.938 . S
O99 C106 1.247 . S
O100 Zn92 1.906 . S
O100 C108 1.304 1_545 S
O101 Zn89 1.924 . S
O101 C109 1.311 . S
O102 Zn93 1.977 . S
O102 C108 1.272 . S
O103 Zn93 1.910 1_655 S
O103 C109 1.231 1_565 S
C104 O88 1.225 1_455 S
C104 O110 1.298 . S
C105 O94 1.226 . S
C105 O95 1.307 . S
C106 O98 1.303 . S
C106 O99 1.247 . S
C107 O96 1.253 . S
C107 O97 1.283 . S
C108 O100 1.304 1_565 S
C108 O102 1.272 . S
C109 O101 1.311 . S
C109 O103 1.231 1_545 S
O110 Zn92 1.953 . S
O110 C104 1.298 . S
O111 Zn112 1.953 1_556 S
O111 C127 1.225 1_556 S
Zn112 O111 1.953 1_554 S
Zn112 O113 1.949 . S
Zn112 O119 1.919 1_554 S
Zn112 O124 1.924 . S
O113 Zn112 1.949 . S
O113 Zn114 1.923 1_545 S
O113 Zn115 1.950 . S
O113 Zn116 1.945 . S
Zn114 O113 1.923 1_565 S
Zn114 O117 1.933 . S
Zn114 O120 1.941 1_554 S
Zn114 O121 1.965 . S
Zn115 O113 1.950 . S
Zn115 O122 1.938 . S
Zn115 O123 1.906 . S
Zn115 O133 1.953 . S
Zn116 O113 1.945 . S
Zn116 O118 1.932 1_545 S
Zn116 O125 1.977 . S
Zn116 O126 1.910 . S
O117 Zn114 1.933 . S
O117 C128 1.226 . S
O118 Zn116 1.932 1_565 S
O118 C128 1.307 . S
O119 Zn112 1.919 1_556 S
O119 C130 1.253 1_545 S
O120 Zn114 1.941 1_556 S
O120 C130 1.283 . S
O121 Zn114 1.965 . S
O121 C129 1.303 1_565 S
O122 Zn115 1.938 . S
O122 C129 1.247 . S
O123 Zn115 1.906 . S
O123 C131 1.304 . S
O124 Zn112 1.924 . S
O124 C132 1.311 . S
O125 Zn116 1.977 . S
O125 C131 1.272 . S
O126 Zn116 1.910 . S
O126 C132 1.231 . S
C127 O111 1.225 1_554 S
C127 O133 1.298 . S
C128 O117 1.226 . S
C128 O118 1.307 . S
C129 O121 1.303 1_545 S
C129 O122 1.247 . S
C130 O119 1.253 1_565 S
C130 O120 1.283 . S
C131 O123 1.304 . S
C131 O125 1.272 . S
C132 O124 1.311 . S
C132 O126 1.231 . S
O133 Zn115 1.953 . S
O133 C127 1.298 . S
O134 Zn135 1.953 . S
O134 C150 1.225 . S
Zn135 O134 1.953 . S
Zn135 O136 1.949 . S
Zn135 O142 1.919 . S
Zn135 O147 1.924 . S
O136 Zn135 1.949 . S
O136 Zn137 1.923 . S
O136 Zn138 1.950 . S
O136 Zn139 1.945 . S
Zn137 O136 1.923 . S
Zn137 O140 1.933 . S
Zn137 O143 1.941 . S
Zn137 O144 1.965 . S
Zn138 O136 1.950 . S
Zn138 O145 1.938 . S
Zn138 O146 1.906 . S
Zn138 O156 1.953 . S
Zn139 O136 1.945 . S
Zn139 O141 1.932 . S
Zn139 O148 1.977 . S
Zn139 O149 1.910 . S
O140 Zn137 1.933 . S
O140 C151 1.226 . S
O141 Zn139 1.932 . S
O141 C151 1.307 . S
O142 Zn135 1.919 . S
O142 C153 1.253 . S
O143 Zn137 1.941 . S
O143 C153 1.283 . S
O144 Zn137 1.965 . S
O144 C152 1.303 . S
O145 Zn138 1.938 . S
O145 C152 1.247 . S
O146 Zn138 1.906 . S
O146 C154 1.304 . S
O147 Zn135 1.924 . S
O147 C155 1.311 . S
O148 Zn139 1.977 . S
O148 C154 1.272 . S
O149 Zn139 1.910 . S
O149 C155 1.231 . S
C150 O134 1.225 . S
C150 O156 1.298 . S
C151 O140 1.226 . S
C151 O141 1.307 . S
C152 O144 1.303 . S
C152 O145 1.247 . S
C153 O142 1.253 . S
C153 O143 1.283 . S
C154 O146 1.304 . S
C154 O148 1.272 . S
C155 O147 1.311 . S
C155 O149 1.231 . S
O156 Zn138 1.953 . S
O156 C150 1.298 . S
O157 Zn158 1.953 . S
O157 C173 1.225 . S
Zn158 O157 1.953 . S
Zn158 O159 1.949 1_655 S
Zn158 O165 1.919 . S
Zn158 O170 1.924 . S
O159 Zn158 1.949 1_455 S
O159 Zn160 1.923 1_454 S
O159 Zn161 1.950 . S
O159 Zn162 1.945 1_554 S
Zn160 O159 1.923 1_656 S
Zn160 O163 1.933 1_655 S
Zn160 O166 1.941 . S
Zn160 O167 1.965 . S
Zn161 O159 1.950 . S
Zn161 O168 1.938 . S
Zn161 O169 1.906 . S
Zn161 O179 1.953 . S
Zn162 O159 1.945 1_556 S
Zn162 O164 1.932 . S
Zn162 O171 1.977 1_556 S
Zn162 O172 1.910 1_556 S
O163 Zn160 1.933 1_455 S
O163 C174 1.226 . S
O164 Zn162 1.932 . S
O164 C174 1.307 . S
O165 Zn158 1.919 . S
O165 C176 1.253 1_554 S
O166 Zn160 1.941 . S
O166 C176 1.283 . S
O167 Zn160 1.965 . S
O167 C175 1.303 . S
O168 Zn161 1.938 . S
O168 C175 1.247 1_454 S
O169 Zn161 1.906 . S
O169 C177 1.304 . S
O170 Zn158 1.924 . S
O170 C178 1.311 1_655 S
O171 Zn162 1.977 1_554 S
O171 C177 1.272 . S
O172 Zn162 1.910 1_554 S
O172 C178 1.231 . S
C173 O157 1.225 . S
C173 O179 1.298 1_655 S
C174 O163 1.226 . S
C174 O164 1.307 . S
C175 O167 1.303 . S
C175 O168 1.247 1_656 S
C176 O165 1.253 1_556 S
C176 O166 1.283 . S
C177 O169 1.304 . S
C177 O171 1.272 . S
C178 O170 1.311 1_455 S
C178 O172 1.231 . S
O179 Zn161 1.953 . S
O179 C173 1.298 1_455 S
C180 C181 1.369 . S
C180 C182 1.419 . S
C180 H184 0.930 . S
C181 C180 1.369 . S
C181 C190 1.429 . S
C182 C180 1.419 . S
C182 C183 1.363 . S
C182 H185 0.929 . S
C183 C182 1.363 . S
C183 C189 1.428 . S
H184 C180 0.930 . S
H185 C182 0.929 . S
S186 N187 1.613 1_565 S
S186 N188 1.610 1_565 S
N187 S186 1.613 1_545 S
N187 C190 1.350 . S
N188 S186 1.610 1_545 S
N188 C189 1.351 . S
C189 C183 1.428 . S
C189 N188 1.351 . S
C189 C190 1.434 . S
C190 C181 1.429 . S
C190 N187 1.350 . S
C190 C189 1.434 . S
C191 C192 1.369 . S
C191 C193 1.419 . S
C191 H195 0.930 . S
C192 C191 1.369 . S
C192 C201 1.429 . S
C193 C191 1.419 . S
C193 C194 1.363 . S
C193 H196 0.929 1_565 S
C194 C193 1.363 . S
C194 C200 1.428 . S
H195 C191 0.930 . S
H196 C193 0.929 1_545 S
S197 N198 1.613 . S
S197 N199 1.610 . S
N198 S197 1.613 . S
N198 C201 1.350 . S
N199 S197 1.610 . S
N199 C200 1.351 . S
C200 C194 1.428 . S
C200 N199 1.351 . S
C200 C201 1.434 . S
C201 C192 1.429 . S
C201 N198 1.350 . S
C201 C200 1.434 . S
C202 C203 1.369 . S
C202 C204 1.419 . S
C202 H206 0.930 . S
C203 C202 1.369 . S
C203 C212 1.429 . S
C204 C202 1.419 . S
C204 C205 1.363 . S
C204 H207 0.929 . S
C205 C204 1.363 . S
C205 C211 1.428 . S
H206 C202 0.930 . S
H207 C204 0.929 . S
S208 N209 1.613 . S
S208 N210 1.610 . S
N209 S208 1.613 . S
N209 C212 1.350 . S
N210 S208 1.610 . S
N210 C211 1.351 . S
C211 C205 1.428 . S
C211 N210 1.351 . S
C211 C212 1.434 . S
C212 C203 1.429 . S
C212 N209 1.350 . S
C212 C211 1.434 . S
C213 C214 1.369 . S
C213 C215 1.419 . S
C213 H217 0.930 . S
C214 C213 1.369 . S
C214 C223 1.429 . S
C215 C213 1.419 . S
C215 C216 1.363 . S
C215 H218 0.929 1_655 S
C216 C215 1.363 . S
C216 C222 1.428 . S
H217 C213 0.930 . S
H218 C215 0.929 1_455 S
S219 N220 1.613 . S
S219 N221 1.610 . S
N220 S219 1.613 . S
N220 C223 1.350 . S
N221 S219 1.610 . S
N221 C222 1.351 . S
C222 C216 1.428 . S
C222 N221 1.351 . S
C222 C223 1.434 . S
C223 C214 1.429 . S
C223 N220 1.350 . S
C223 C222 1.434 . S
C224 C225 1.369 . S
C224 C226 1.419 . S
C224 H228 0.930 . S
C225 C224 1.369 . S
C225 C234 1.429 . S
C226 C224 1.419 . S
C226 C227 1.363 . S
C226 H229 0.929 . S
C227 C226 1.363 . S
C227 C233 1.428 . S
H228 C224 0.930 . S
H229 C226 0.929 . S
S230 N231 1.613 . S
S230 N232 1.610 . S
N231 S230 1.613 . S
N231 C234 1.350 . S
N232 S230 1.610 . S
N232 C233 1.351 . S
C233 C227 1.428 . S
C233 N232 1.351 . S
C233 C234 1.434 . S
C234 C225 1.429 . S
C234 N231 1.350 . S
C234 C233 1.434 . S
C235 C236 1.369 . S
C235 C237 1.419 . S
C235 H239 0.930 . S
C236 C235 1.369 . S
C236 C245 1.429 . S
C237 C235 1.419 . S
C237 C238 1.363 . S
C237 H240 0.929 . S
C238 C237 1.363 . S
C238 C244 1.428 . S
H239 C235 0.930 . S
H240 C237 0.929 . S
S241 N242 1.613 . S
S241 N243 1.610 . S
N242 S241 1.613 . S
N242 C245 1.350 . S
N243 S241 1.610 . S
N243 C244 1.351 . S
C244 C238 1.428 . S
C244 N243 1.351 . S
C244 C245 1.434 . S
C245 C236 1.429 . S
C245 N242 1.350 . S
C245 C244 1.434 . S
C246 C247 1.369 . S
C246 C248 1.419 . S
C246 H250 0.930 . S
C247 C246 1.369 . S
C247 C256 1.429 . S
C248 C246 1.419 . S
C248 C249 1.363 . S
C248 H251 0.929 . S
C249 C248 1.363 . S
C249 C255 1.428 . S
H250 C246 0.930 . S
H251 C248 0.929 . S
S252 N253 1.613 . S
S252 N254 1.610 . S
N253 S252 1.613 . S
N253 C256 1.350 . S
N254 S252 1.610 . S
N254 C255 1.351 . S
C255 C249 1.428 . S
C255 N254 1.351 . S
C255 C256 1.434 . S
C256 C247 1.429 . S
C256 N253 1.350 . S
C256 C255 1.434 . S
C257 C258 1.369 . S
C257 C259 1.419 . S
C257 H261 0.930 . S
C258 C257 1.369 . S
C258 C267 1.429 . S
C259 C257 1.419 . S
C259 C260 1.363 . S
C259 H262 0.929 . S
C260 C259 1.363 . S
C260 C266 1.428 . S
H261 C257 0.930 . S
H262 C259 0.929 . S
S263 N264 1.613 . S
S263 N265 1.610 . S
N264 S263 1.613 . S
N264 C267 1.350 . S
N265 S263 1.610 . S
N265 C266 1.351 . S
C266 C260 1.428 . S
C266 N265 1.351 . S
C266 C267 1.434 . S
C267 C258 1.429 . S
C267 N264 1.350 . S
C267 C266 1.434 . S
C268 C269 1.369 . S
C268 C270 1.419 . S
C268 H272 0.930 . S
C269 C268 1.369 . S
C269 C278 1.429 . S
C270 C268 1.419 . S
C270 C271 1.363 . S
C270 H273 0.929 1_455 S
C271 C270 1.363 . S
C271 C277 1.428 . S
H272 C268 0.930 . S
H273 C270 0.929 1_655 S
S274 N275 1.613 . S
S274 N276 1.610 . S
N275 S274 1.613 . S
N275 C278 1.350 . S
N276 S274 1.610 . S
N276 C277 1.351 . S
C277 C271 1.428 . S
C277 N276 1.351 . S
C277 C278 1.434 . S
C278 C269 1.429 . S
C278 N275 1.350 . S
C278 C277 1.434 . S
C279 C280 1.369 . S
C279 C281 1.419 . S
C279 H283 0.930 . S
C280 C279 1.369 . S
C280 C289 1.429 1_556 S
C281 C279 1.419 . S
C281 C282 1.378 . S
C281 H284 0.929 . S
C282 C281 1.378 . S
C282 C288 1.418 1_556 S
H283 C279 0.930 . S
H284 C281 0.929 . S
S285 N286 1.613 . S
S285 N287 1.610 . S
N286 S285 1.613 . S
N286 C289 1.350 . S
N287 S285 1.610 . S
N287 C288 1.351 . S
C288 C282 1.418 1_554 S
C288 N287 1.351 . S
C288 C289 1.434 . S
C289 C280 1.429 1_554 S
C289 N286 1.350 . S
C289 C288 1.434 . S
C290 C291 1.369 . S
C290 C292 1.419 . S
C290 H294 0.930 . S
C291 C290 1.369 . S
C291 C300 1.429 . S
C292 C290 1.419 . S
C292 C293 1.363 . S
C292 H295 0.929 . S
C293 C292 1.363 . S
C293 C299 1.428 . S
H294 C290 0.930 . S
H295 C292 0.929 . S
S296 N297 1.613 . S
S296 N298 1.610 . S
N297 S296 1.613 . S
N297 C300 1.350 . S
N298 S296 1.610 . S
N298 C299 1.351 . S
C299 C293 1.428 . S
C299 N298 1.351 . S
C299 C300 1.434 . S
C300 C291 1.429 . S
C300 N297 1.350 . S
C300 C299 1.434 . S
C301 C302 1.369 . S
C301 C303 1.419 . S
C301 H305 0.930 . S
C302 C301 1.369 . S
C302 C311 1.429 . S
C303 C301 1.419 . S
C303 C304 1.363 . S
C303 H306 0.929 . S
C304 C303 1.363 . S
C304 C310 1.428 . S
H305 C301 0.930 . S
H306 C303 0.929 . S
S307 N308 1.613 . S
S307 N309 1.610 . S
N308 S307 1.613 . S
N308 C311 1.350 . S
N309 S307 1.610 . S
N309 C310 1.351 . S
C310 C304 1.428 . S
C310 N309 1.351 . S
C310 C311 1.434 . S
C311 C302 1.429 . S
C311 N308 1.350 . S
C311 C310 1.434 . S
C312 C313 1.369 . S
C312 C314 1.419 . S
C312 H316 0.930 . S
C313 C312 1.369 . S
C313 C322 1.429 1_565 S
C314 C312 1.419 . S
C314 C315 1.363 1_565 S
C314 H317 0.929 . S
C315 C314 1.363 1_545 S
C315 C321 1.428 . S
H316 C312 0.930 . S
H317 C314 0.929 . S
S318 N319 1.613 . S
S318 N320 1.610 . S
N319 S318 1.613 . S
N319 C322 1.350 1_455 S
N320 S318 1.610 . S
N320 C321 1.351 1_455 S
C321 C315 1.428 . S
C321 N320 1.351 1_655 S
C321 C322 1.434 . S
C322 C313 1.429 1_545 S
C322 N319 1.350 1_655 S
C322 C321 1.434 . S
C323 C324 1.369 . S
C323 C325 1.419 . S
C323 H327 0.930 . S
C324 C323 1.369 . S
C324 C333 1.429 . S
C325 C323 1.419 . S
C325 C326 1.363 . S
C325 H328 0.929 . S
C326 C325 1.363 . S
C326 C332 1.428 . S
H327 C323 0.930 . S
H328 C325 0.929 . S
S329 N330 1.613 . S
S329 N331 1.610 . S
N330 S329 1.613 . S
N330 C333 1.350 1_565 S
N331 S329 1.610 . S
N331 C332 1.351 1_565 S
C332 C326 1.428 . S
C332 N331 1.351 1_545 S
C332 C333 1.434 . S
C333 C324 1.429 . S
C333 N330 1.350 1_545 S
C333 C332 1.434 . S
C334 C335 1.369 . S
C334 C336 1.419 . S
C334 H338 0.930 . S
C335 C334 1.369 . S
C335 C344 1.429 . S
C336 C334 1.419 . S
C336 C337 1.363 . S
C336 H339 0.929 . S
C337 C336 1.363 . S
C337 C343 1.428 . S
H338 C334 0.930 . S
H339 C336 0.929 . S
S340 N341 1.613 . S
S340 N342 1.610 . S
N341 S340 1.613 . S
N341 C344 1.350 . S
N342 S340 1.610 . S
N342 C343 1.351 . S
C343 C337 1.428 . S
C343 N342 1.351 . S
C343 C344 1.434 . S
C344 C335 1.429 . S
C344 N341 1.350 . S
C344 C343 1.434 . S
C345 C346 1.369 . S
C345 C347 1.419 . S
C345 H349 0.930 . S
C346 C345 1.369 . S
C346 C355 1.429 . S
C347 C345 1.419 . S
C347 C348 1.363 . S
C347 H350 0.929 . S
C348 C347 1.363 . S
C348 C354 1.428 . S
H349 C345 0.930 . S
H350 C347 0.929 . S
S351 N352 1.613 . S
S351 N353 1.610 . S
N352 S351 1.613 . S
N352 C355 1.350 1_655 S
N353 S351 1.610 . S
N353 C354 1.351 1_655 S
C354 C348 1.428 . S
C354 N353 1.351 1_455 S
C354 C355 1.434 . S
C355 C346 1.429 . S
C355 N352 1.350 1_455 S
C355 C354 1.434 . S
C356 C357 1.369 1_565 S
C356 C358 1.419 . S
C356 H360 0.930 . S
C357 C356 1.369 1_545 S
C357 C366 1.429 1_556 S
C358 C356 1.419 . S
C358 C359 1.363 1_566 S
C358 H361 0.929 . S
C359 C358 1.363 1_544 S
C359 C365 1.428 . S
H360 C356 0.930 . S
H361 C358 0.929 . S
S362 N363 1.613 . S
S362 N364 1.610 . S
N363 S362 1.613 . S
N363 C366 1.350 . S
N364 S362 1.610 . S
N364 C365 1.351 . S
C365 C359 1.428 . S
C365 N364 1.351 . S
C365 C366 1.434 . S
C366 C357 1.429 1_554 S
C366 N363 1.350 . S
C366 C365 1.434 . S
C367 C368 1.369 . S
C367 C369 1.419 . S
C367 H371 0.930 . S
C368 C367 1.369 . S
C368 C377 1.429 . S
C369 C367 1.419 . S
C369 C370 1.363 . S
C369 H372 0.929 . S
C370 C369 1.363 . S
C370 C376 1.428 . S
H371 C367 0.930 . S
H372 C369 0.929 . S
S373 N374 1.613 1_565 S
S373 N375 1.610 1_565 S
N374 S373 1.613 1_545 S
N374 C377 1.350 . S
N375 S373 1.610 1_545 S
N375 C376 1.351 . S
C376 C370 1.428 . S
C376 N375 1.351 . S
C376 C377 1.434 . S
C377 C368 1.429 . S
C377 N374 1.350 . S
C377 C376 1.434 . S
C378 C379 1.369 . S
C378 C380 1.419 . S
C378 H382 0.930 . S
C379 C378 1.369 . S
C379 C388 1.429 . S
C380 C378 1.419 . S
C380 C381 1.363 . S
C380 H383 0.929 1_554 S
C381 C380 1.363 . S
C381 C387 1.428 . S
H382 C378 0.930 . S
H383 C380 0.929 1_556 S
S384 N385 1.613 . S
S384 N386 1.610 . S
N385 S384 1.613 . S
N385 C388 1.350 . S
N386 S384 1.610 . S
N386 C387 1.351 . S
C387 C381 1.428 . S
C387 N386 1.351 . S
C387 C388 1.434 . S
C388 C379 1.429 . S
C388 N385 1.350 . S
C388 C387 1.434 . S
C389 C390 1.369 . S
C389 C391 1.419 . S
C389 H393 0.930 . S
C390 C389 1.369 . S
C390 C399 1.429 . S
C391 C389 1.419 . S
C391 C392 1.363 . S
C391 H394 0.929 . S
C392 C391 1.363 . S
C392 C398 1.428 . S
H393 C389 0.930 . S
H394 C391 0.929 . S
S395 N396 1.613 . S
S395 N397 1.610 . S
N396 S395 1.613 . S
N396 C399 1.350 . S
N397 S395 1.610 . S
N397 C398 1.351 . S
C398 C392 1.428 . S
C398 N397 1.351 . S
C398 C399 1.434 . S
C399 C390 1.429 . S
C399 N396 1.350 . S
C399 C398 1.434 . S
C400 C401 1.369 . S
C400 C402 1.419 . S
C400 H404 0.930 1_556 S
C401 C400 1.369 . S
C401 C410 1.429 . S
C402 C400 1.419 . S
C402 C403 1.365 . S
C402 H405 0.927 1_556 S
C403 C402 1.365 . S
C403 C409 1.428 1_655 S
H404 C400 0.930 1_554 S
H405 C402 0.927 1_554 S
S406 N407 1.613 . S
S406 N408 1.610 . S
N407 S406 1.613 . S
N407 C410 1.350 1_455 S
N408 S406 1.610 . S
N408 C409 1.351 . S
C409 C403 1.428 1_455 S
C409 N408 1.351 . S
C409 C410 1.434 1_455 S
C410 C401 1.429 . S
C410 N407 1.350 1_655 S
C410 C409 1.434 1_655 S
C411 C412 1.369 . S
C411 C413 1.419 . S
C411 H415 0.930 . S
C412 C411 1.369 . S
C412 C421 1.429 . S
C413 C411 1.419 . S
C413 C414 1.363 . S
C413 H416 0.929 . S
C414 C413 1.363 . S
C414 C420 1.428 . S
H415 C411 0.930 . S
H416 C413 0.929 . S
S417 N418 1.613 . S
S417 N419 1.610 . S
N418 S417 1.613 . S
N418 C421 1.350 . S
N419 S417 1.610 . S
N419 C420 1.351 . S
C420 C414 1.428 . S
C420 N419 1.351 . S
C420 C421 1.434 . S
C421 C412 1.429 . S
C421 N418 1.350 . S
C421 C420 1.434 . S
C422 C423 1.369 . S
C422 C424 1.419 . S
C422 H426 0.930 . S
C423 C422 1.369 . S
C423 C432 1.429 . S
C424 C422 1.419 . S
C424 C425 1.363 . S
C424 H427 0.929 . S
C425 C424 1.363 . S
C425 C431 1.428 . S
H426 C422 0.930 . S
H427 C424 0.929 . S
S428 N429 1.613 . S
S428 N430 1.610 . S
N429 S428 1.613 . S
N429 C432 1.350 1_655 S
N430 S428 1.610 . S
N430 C431 1.351 1_655 S
C431 C425 1.428 . S
C431 N430 1.351 1_455 S
C431 C432 1.434 . S
C432 C423 1.429 . S
C432 N429 1.350 1_455 S
C432 C431 1.434 . S
C433 C434 1.369 . S
C433 C435 1.419 . S
C433 H437 0.930 . S
C434 C433 1.369 . S
C434 C443 1.429 . S
C435 C433 1.419 . S
C435 C436 1.363 . S
C435 H438 0.929 . S
C436 C435 1.363 . S
C436 C442 1.428 . S
H437 C433 0.930 . S
H438 C435 0.929 . S
S439 N440 1.613 . S
S439 N441 1.610 . S
N440 S439 1.613 . S
N440 C443 1.350 . S
N441 S439 1.610 . S
N441 C442 1.351 . S
C442 C436 1.428 . S
C442 N441 1.351 . S
C442 C443 1.434 . S
C443 C434 1.429 . S
C443 N440 1.350 . S
C443 C442 1.434 . S
C181 C6 1.727 . S
C183 C106 1.684 . S
C192 C20 1.854 . S
C194 C130 1.793 . S
C205 C150 1.164 . S
C203 N26 1.146 . S
C214 N37 1.357 . S
C216 C173 1.382 . S
C227 C132 1.958 . S
C225 C9 1.995 . S
C238 C108 1.427 . S
C236 N15 1.511 . S
C249 C176 1.505 . S
C247 C31 1.565 . S
C260 C153 1.433 . S
C258 C39 1.476 . S
C269 N4 1.528 . S
C271 C178 1.474 . S
C282 C127 1.668 1_556 S
C280 C28 1.648 . S
C291 C42 1.403 . S
C293 C105 1.416 . S
C302 C17 1.597 . S
C304 C155 1.557 . S
C315 C109 1.862 . S
C313 C50 1.849 . S
C324 C61 1.642 . S
C326 C131 1.673 . S
C335 N70 1.561 . S
C337 C151 1.602 . S
C346 N81 1.433 . S
C348 C174 1.475 . S
C357 N48 1.416 1_545 S
C359 C129 1.415 . S
C370 C107 1.831 . S
C368 C64 1.811 . S
C381 C177 1.403 . S
C379 C75 1.472 . S
C392 C154 1.414 . S
C390 C86 1.429 . S
C401 C53 1.957 . S
C403 C175 1.921 . S
C414 C128 1.343 . S
C412 C72 1.320 . S
C425 C104 1.609 . S
C423 C83 1.588 . S
C434 N59 1.689 . S
C436 C152 1.678 . S
