# Generated by pormake.
# Topology csq, (4,8)-cn, num edge types: 1
# Building blocks:
#     Node 0, Type 0, BuildingBlock: MIFKUJ_clean_linker_1, # of connection points: 4
#     Node 1, Type 0, BuildingBlock: MIFKUJ_clean_linker_1, # of connection points: 4
#     Node 2, Type 0, BuildingBlock: MIFKUJ_clean_linker_1, # of connection points: 4
#     Node 3, Type 0, BuildingBlock: MIFKUJ_clean_linker_1, # of connection points: 4
#     Node 4, Type 0, BuildingBlock: MIFKUJ_clean_linker_1, # of connection points: 4
#     Node 5, Type 0, BuildingBlock: MIFKUJ_clean_linker_1, # of connection points: 4
#     Node 6, Type 1, BuildingBlock: TAGTUT_clean_sbu_3, # of connection points: 8
#     Node 7, Type 1, BuildingBlock: TAGTUT_clean_sbu_3, # of connection points: 8
#     Node 8, Type 1, BuildingBlock: TAGTUT_clean_sbu_3, # of connection points: 8
#     Edge 9, Type (0, 1), BuildingBlock: KIFKEQ_clean_linker_1, # of connection points: 2
#     Edge 10, Type (0, 1), BuildingBlock: KIFKEQ_clean_linker_1, # of connection points: 2
#     Edge 11, Type (0, 1), BuildingBlock: KIFKEQ_clean_linker_1, # of connection points: 2
#     Edge 12, Type (0, 1), BuildingBlock: KIFKEQ_clean_linker_1, # of connection points: 2
#     Edge 13, Type (0, 1), BuildingBlock: KIFKEQ_clean_linker_1, # of connection points: 2
#     Edge 14, Type (0, 1), BuildingBlock: KIFKEQ_clean_linker_1, # of connection points: 2
#     Edge 15, Type (0, 1), BuildingBlock: KIFKEQ_clean_linker_1, # of connection points: 2
#     Edge 16, Type (0, 1), BuildingBlock: KIFKEQ_clean_linker_1, # of connection points: 2
#     Edge 17, Type (0, 1), BuildingBlock: KIFKEQ_clean_linker_1, # of connection points: 2
#     Edge 18, Type (0, 1), BuildingBlock: KIFKEQ_clean_linker_1, # of connection points: 2
#     Edge 19, Type (0, 1), BuildingBlock: KIFKEQ_clean_linker_1, # of connection points: 2
#     Edge 20, Type (0, 1), BuildingBlock: KIFKEQ_clean_linker_1, # of connection points: 2
#     Edge 21, Type (0, 1), BuildingBlock: KIFKEQ_clean_linker_1, # of connection points: 2
#     Edge 22, Type (0, 1), BuildingBlock: KIFKEQ_clean_linker_1, # of connection points: 2
#     Edge 23, Type (0, 1), BuildingBlock: KIFKEQ_clean_linker_1, # of connection points: 2
#     Edge 24, Type (0, 1), BuildingBlock: KIFKEQ_clean_linker_1, # of connection points: 2
#     Edge 25, Type (0, 1), BuildingBlock: KIFKEQ_clean_linker_1, # of connection points: 2
#     Edge 26, Type (0, 1), BuildingBlock: KIFKEQ_clean_linker_1, # of connection points: 2
#     Edge 27, Type (0, 1), BuildingBlock: KIFKEQ_clean_linker_1, # of connection points: 2
#     Edge 28, Type (0, 1), BuildingBlock: KIFKEQ_clean_linker_1, # of connection points: 2
#     Edge 29, Type (0, 1), BuildingBlock: KIFKEQ_clean_linker_1, # of connection points: 2
#     Edge 30, Type (0, 1), BuildingBlock: KIFKEQ_clean_linker_1, # of connection points: 2
#     Edge 31, Type (0, 1), BuildingBlock: KIFKEQ_clean_linker_1, # of connection points: 2
#     Edge 32, Type (0, 1), BuildingBlock: KIFKEQ_clean_linker_1, # of connection points: 2
# Relax obj value: 0.028
# Max RMSD: 0.110
# Mean RMSD: 0.043
data_MOF--net-csq--node1-TAGTUT_clean_sbu_3--node2-MIFKUJ_clean_linker_1--edge1-KIFKEQ_clean_linker_1
_symmetry_space_group_name_H-M    P1
_symmetry_Int_Tables_number       1
_symmetry_cell_setting            triclinic
loop_
_symmetry_equiv_pos_as_xyz
'x, y, z'
_cell_length_a     63.794217
_cell_length_b     63.048559
_cell_length_c     21.735921
_cell_angle_alpha  91.965882
_cell_angle_beta   92.488832
_cell_angle_gamma 119.94602
loop_
_atom_site_label
_atom_site_type_symbol
_atom_site_fract_x
_atom_site_fract_y
_atom_site_fract_z
_atom_type_partial_charge
H0 H 0.2703 0.4666 0.28293 0.0
H1 H 0.30587 0.46713 0.3317 0.0
H2 H 0.35277 0.53106 0.23558 0.0
H3 H 0.31699 0.53035 0.18626 0.0
H4 H 0.25341 0.50144 0.26943 0.0
H5 H 0.28338 0.45574 0.1536 0.0
H6 H 0.31753 0.45451 0.11091 0.0
H7 H 0.32682 0.5112 0.98995 0.0
H8 H 0.29339 0.5132 0.03556 0.0
H9 H 0.21053 0.51388 0.08821 0.0
H10 H 0.17324 0.50281 0.02473 0.0
H11 H 0.15594 0.42727 0.01025 0.0
H12 H 0.19364 0.4385 0.07213 0.0
H13 H 0.24346 0.47638 0.04611 0.0
H14 H 0.23407 0.52939 0.25782 0.0
H15 H 0.20326 0.53121 0.31669 0.0
H16 H 0.15073 0.45762 0.24495 0.0
H17 H 0.1821 0.45526 0.19067 0.0
C18 C 0.29112 0.49839 0.23107 0.0
C19 C 0.28824 0.4811 0.27365 0.0
C20 C 0.30849 0.48125 0.30079 0.0
C21 C 0.33189 0.49891 0.28643 0.0
C22 C 0.33484 0.51726 0.24709 0.0
C23 C 0.31452 0.51693 0.21926 0.0
C24 C 0.26977 0.49455 0.19254 0.0
C25 C 0.25126 0.49632 0.22042 0.0
C26 C 0.26703 0.48737 0.12904 0.0
C27 C 0.28604 0.48478 0.09829 0.0
C28 C 0.29284 0.46796 0.11804 0.0
C29 C 0.3123 0.46717 0.09321 0.0
C30 C 0.32512 0.48289 0.04718 0.0
C31 C 0.31774 0.49921 0.02622 0.0
C32 C 0.2984 0.50013 0.05156 0.0
C33 C 0.2047 0.47698 0.08456 0.0
C34 C 0.19875 0.49499 0.07107 0.0
C35 C 0.17757 0.48869 0.03502 0.0
C36 C 0.16193 0.46424 0.0131 0.0
C37 C 0.1678 0.4462 0.02702 0.0
C38 C 0.18926 0.4526 0.0619 0.0
C39 C 0.22698 0.48346 0.12282 0.0
C40 C 0.24569 0.48205 0.09478 0.0
C41 C 0.22978 0.49088 0.18633 0.0
C42 C 0.21042 0.49234 0.21887 0.0
C43 C 0.21591 0.51363 0.25487 0.0
C44 C 0.19813 0.51474 0.28804 0.0
C45 C 0.17434 0.49459 0.28571 0.0
C46 C 0.16885 0.47341 0.2488 0.0
C47 C 0.18674 0.47218 0.21655 0.0
H48 H 0.77053 0.29544 0.01075 0.0
H49 H 0.79695 0.32711 0.94436 0.0
H50 H 0.8566 0.31711 0.00605 0.0
H51 H 0.82977 0.28469 0.07027 0.0
H52 H 0.75714 0.24866 0.99964 0.0
H53 H 0.79946 0.31294 0.16377 0.0
H54 H 0.83374 0.34419 0.23051 0.0
H55 H 0.85396 0.29048 0.27787 0.0
H56 H 0.81998 0.25948 0.21018 0.0
H57 H 0.75707 0.19472 0.2119 0.0
H58 H 0.72743 0.15845 0.26127 0.0
H59 H 0.67017 0.17084 0.19128 0.0
H60 H 0.7 0.2078 0.14616 0.0
H61 H 0.77248 0.24248 0.22225 0.0
H62 H 0.73635 0.18042 0.05947 0.0
H63 H 0.70183 0.14544 0.00268 0.0
H64 H 0.67229 0.19163 0.95395 0.0
H65 H 0.70687 0.22665 0.01187 0.0
C66 C 0.79816 0.28776 0.04596 0.0
C67 C 0.78935 0.30018 0.01027 0.0
C68 C 0.80453 0.31842 0.97257 0.0
C69 C 0.82891 0.32464 0.96959 0.0
C70 C 0.83784 0.31256 0.0065 0.0
C71 C 0.8226 0.29423 0.04403 0.0
C72 C 0.78122 0.26673 0.08089 0.0
C73 C 0.76038 0.24765 0.04859 0.0
C74 C 0.78587 0.26461 0.14411 0.0
C75 C 0.8073 0.28395 0.18168 0.0
C76 C 0.81146 0.308 0.18794 0.0
C77 C 0.83088 0.32574 0.22661 0.0
C78 C 0.84646 0.31973 0.25967 0.0
C79 C 0.84239 0.2957 0.25266 0.0
C80 C 0.82293 0.27797 0.21424 0.0
C81 C 0.73074 0.20382 0.17462 0.0
C82 C 0.73816 0.18979 0.20813 0.0
C83 C 0.72112 0.16884 0.2356 0.0
C84 C 0.69628 0.16148 0.22991 0.0
C85 C 0.68908 0.17598 0.19743 0.0
C86 C 0.70614 0.19704 0.17085 0.0
C87 C 0.74841 0.22493 0.14117 0.0
C88 C 0.76933 0.24377 0.17342 0.0
C89 C 0.74426 0.22667 0.07762 0.0
C90 C 0.72405 0.20603 0.03997 0.0
C91 C 0.72245 0.18301 0.03645 0.0
C92 C 0.70279 0.16309 0.00389 0.0
C93 C 0.68438 0.16584 0.97408 0.0
C94 C 0.68611 0.18898 0.97712 0.0
C95 C 0.70592 0.20899 0.00951 0.0
H96 H 0.57732 0.75482 0.95782 0.0
H97 H 0.58308 0.72937 0.88051 0.0
H98 H 0.51059 0.66988 0.9026 0.0
H99 H 0.50474 0.6956 0.97861 0.0
H100 H 0.54405 0.76903 0.94694 0.0
H101 H 0.56169 0.72071 0.08788 0.0
H102 H 0.55766 0.68612 0.14446 0.0
H103 H 0.48566 0.66884 0.18891 0.0
H104 H 0.48946 0.70276 0.13044 0.0
H105 H 0.4891 0.77024 0.14617 0.0
H106 H 0.48794 0.79696 0.22835 0.0
H107 H 0.56551 0.84487 0.22378 0.0
H108 H 0.56596 0.81891 0.13882 0.0
H109 H 0.52061 0.74928 0.16085 0.0
H110 H 0.50159 0.79584 0.03213 0.0
H111 H 0.50144 0.82907 0.97858 0.0
H112 H 0.57001 0.84743 0.90602 0.0
H113 H 0.57062 0.81457 0.96177 0.0
C114 C 0.54069 0.72697 0.97426 0.0
C115 C 0.56273 0.73624 0.94609 0.0
C116 C 0.566 0.72173 0.90203 0.0
C117 C 0.5472 0.69777 0.88512 0.0
C118 C 0.52524 0.68846 0.91393 0.0
C119 C 0.522 0.70296 0.95805 0.0
C120 C 0.53666 0.74319 0.01662 0.0
C121 C 0.53943 0.76503 0.99423 0.0
C122 C 0.52908 0.73697 0.07687 0.0
C123 C 0.52583 0.71432 0.10452 0.0
C124 C 0.54481 0.70909 0.10847 0.0
C125 C 0.54259 0.68948 0.14161 0.0
C126 C 0.52139 0.67474 0.1718 0.0
C127 C 0.50213 0.67955 0.16584 0.0
C128 C 0.50435 0.69909 0.13268 0.0
C129 C 0.52754 0.79287 0.13619 0.0
C130 C 0.50569 0.78682 0.16228 0.0
C131 C 0.50518 0.80194 0.20988 0.0
C132 C 0.52668 0.82304 0.23347 0.0
C133 C 0.5485 0.8291 0.20635 0.0
C134 C 0.54885 0.81426 0.15779 0.0
C135 C 0.52876 0.77542 0.09175 0.0
C136 C 0.52536 0.75334 0.11363 0.0
C137 C 0.53533 0.7812 0.03072 0.0
C138 C 0.53635 0.80286 0.00228 0.0
C139 C 0.51703 0.80743 0.00648 0.0
C140 C 0.51684 0.82634 0.97529 0.0
C141 C 0.53574 0.84087 0.93817 0.0
C142 C 0.55514 0.83642 0.93399 0.0
C143 C 0.5555 0.81769 0.96601 0.0
H144 H 0.81099 0.4968 0.05703 0.0
H145 H 0.84998 0.49972 0.0843 0.0
H146 H 0.87538 0.57091 0.17728 0.0
H147 H 0.83658 0.56817 0.14814 0.0
H148 H 0.78888 0.53551 0.17027 0.0
H149 H 0.78305 0.49411 0.92442 0.0
H150 H 0.81206 0.49339 0.85524 0.0
H151 H 0.86698 0.56492 0.93377 0.0
H152 H 0.83768 0.56592 1.00019 0.0
H153 H 0.74623 0.55779 0.96569 0.0
H154 H 0.70712 0.55271 0.9284 0.0
H155 H 0.66995 0.48585 0.02292 0.0
H156 H 0.70928 0.49119 0.06087 0.0
H157 H 0.76415 0.525 0.9463 0.0
H158 H 0.74746 0.56612 0.10834 0.0
H159 H 0.72019 0.56895 0.17935 0.0
H160 H 0.7161 0.50789 0.27373 0.0
H161 H 0.7428 0.50466 0.20105 0.0
C162 C 0.82101 0.53232 0.10043 0.0
C163 C 0.82498 0.51299 0.08343 0.0
C164 C 0.84722 0.51468 0.09903 0.0
C165 C 0.86582 0.53566 0.13231 0.0
C166 C 0.86156 0.55474 0.15049 0.0
C167 C 0.83931 0.55305 0.1348 0.0
C168 C 0.79841 0.53162 0.07831 0.0
C169 C 0.78341 0.53314 0.12141 0.0
C170 C 0.79176 0.52937 0.01447 0.0
C171 C 0.80828 0.52997 0.96773 0.0
C172 C 0.80122 0.5098 0.9257 0.0
C173 C 0.81792 0.50929 0.88683 0.0
C174 C 0.84195 0.529 0.88927 0.0
C175 C 0.84862 0.54952 0.93004 0.0
C176 C 0.83191 0.55007 0.96842 0.0
C177 C 0.73055 0.52488 0.01591 0.0
C178 C 0.72966 0.54208 0.97844 0.0
C179 C 0.70737 0.53927 0.95771 0.0
C180 C 0.6856 0.51898 0.97329 0.0
C181 C 0.68651 0.50163 0.01044 0.0
C182 C 0.70887 0.50468 0.03204 0.0
C183 C 0.75422 0.52813 0.03838 0.0
C184 C 0.76952 0.52723 0.9952 0.0
C185 C 0.76152 0.53182 0.10206 0.0
C186 C 0.74677 0.53488 0.14871 0.0
C187 C 0.74069 0.55335 0.14437 0.0
C188 C 0.72533 0.55514 0.18547 0.0
C189 C 0.71586 0.53856 0.23202 0.0
C190 C 0.72282 0.52071 0.23783 0.0
C191 C 0.73818 0.51894 0.19662 0.0
H192 H 0.23883 0.83548 0.00955 0.0
H193 H 0.2634 0.8686 0.94323 0.0
H194 H 0.31588 0.84439 0.94107 0.0
H195 H 0.2914 0.8115 0.00769 0.0
H196 H 0.21911 0.78361 0.98555 0.0
H197 H 0.27588 0.8497 0.12831 0.0
H198 H 0.3145 0.88054 0.18027 0.0
H199 H 0.33242 0.82424 0.21622 0.0
H200 H 0.29412 0.79358 0.16174 0.0
H201 H 0.22783 0.72952 0.18443 0.0
H202 H 0.20375 0.70104 0.26011 0.0
H203 H 0.15407 0.729 0.24973 0.0
H204 H 0.17748 0.75616 0.17124 0.0
H205 H 0.24973 0.78072 0.19691 0.0
H206 H 0.19638 0.71491 0.06397 0.0
H207 H 0.16153 0.6815 0.00484 0.0
H208 H 0.13998 0.73238 0.94107 0.0
H209 H 0.17468 0.76591 0.00208 0.0
C210 C 0.26343 0.8212 0.01372 0.0
C211 C 0.2556 0.83731 0.99455 0.0
C212 C 0.26963 0.85621 0.95694 0.0
C213 C 0.29144 0.85895 0.93692 0.0
C214 C 0.299 0.84251 0.95533 0.0
C215 C 0.28516 0.82386 0.99366 0.0
C216 C 0.24877 0.80154 0.05455 0.0
C217 C 0.2255 0.78316 0.03229 0.0
C218 C 0.2579 0.80031 0.11394 0.0
C219 C 0.28217 0.81935 0.14078 0.0
C220 C 0.28837 0.84407 0.14595 0.0
C221 C 0.31035 0.86164 0.17629 0.0
C222 C 0.32644 0.85479 0.20281 0.0
C223 C 0.32055 0.83015 0.1958 0.0
C224 C 0.29858 0.81258 0.16518 0.0
C225 C 0.20429 0.74474 0.17185 0.0
C226 C 0.21156 0.72923 0.1981 0.0
C227 C 0.19787 0.71315 0.24201 0.0
C228 C 0.1769 0.71266 0.26181 0.0
C229 C 0.16975 0.72835 0.23512 0.0
C230 C 0.18318 0.74403 0.19027 0.0
C231 C 0.21967 0.76299 0.12861 0.0
C232 C 0.24315 0.78111 0.15033 0.0
C233 C 0.21094 0.76358 0.06807 0.0
C234 C 0.18803 0.74295 0.03847 0.0
C235 C 0.18377 0.71886 0.03913 0.0
C236 C 0.16391 0.69975 0.00483 0.0
C237 C 0.14809 0.70438 0.96831 0.0
C238 C 0.15203 0.72837 0.96847 0.0
C239 C 0.17177 0.74748 0.00348 0.0
H240 H 0.53099 0.2368 0.08517 0.0
H241 H 0.54049 0.21081 0.01919 0.0
H242 H 0.47172 0.14776 0.05296 0.0
H243 H 0.46218 0.17377 0.11805 0.0
H244 H 0.49376 0.24428 0.05852 0.0
H245 H 0.5208 0.21625 0.2269 0.0
H246 H 0.52427 0.18678 0.29027 0.0
H247 H 0.4483 0.15345 0.32372 0.0
H248 H 0.44497 0.18313 0.26027 0.0
H249 H 0.4289 0.24051 0.24417 0.0
H250 H 0.42181 0.26716 0.31501 0.0
H251 H 0.49243 0.32791 0.28368 0.0
H252 H 0.49946 0.30138 0.21355 0.0
H253 H 0.46587 0.23145 0.27049 0.0
H254 H 0.43966 0.25861 0.08784 0.0
H255 H 0.43824 0.28583 0.01237 0.0
H256 H 0.51648 0.32349 0.01207 0.0
H257 H 0.51746 0.29539 0.0849 0.0
C258 C 0.49589 0.20718 0.10638 0.0
C259 C 0.51817 0.2173 0.07909 0.0
C260 C 0.52363 0.20247 0.04177 0.0
C261 C 0.50672 0.17739 0.03068 0.0
C262 C 0.48493 0.16712 0.06034 0.0
C263 C 0.47956 0.1819 0.09788 0.0
C264 C 0.48858 0.22329 0.13836 0.0
C265 C 0.48799 0.24172 0.10526 0.0
C266 C 0.48045 0.21944 0.19863 0.0
C267 C 0.48251 0.20163 0.23782 0.0
C268 C 0.50483 0.20249 0.24747 0.0
C269 C 0.50681 0.18567 0.28389 0.0
C270 C 0.48652 0.16766 0.31178 0.0
C271 C 0.46432 0.16723 0.30341 0.0
C272 C 0.46236 0.18408 0.26685 0.0
C273 C 0.46462 0.26906 0.2233 0.0
C274 C 0.44259 0.25971 0.25164 0.0
C275 C 0.43858 0.27485 0.29207 0.0
C276 C 0.45675 0.29938 0.30536 0.0
C277 C 0.4783 0.30892 0.27481 0.0
C278 C 0.48219 0.2939 0.23409 0.0
C279 C 0.47092 0.25235 0.19045 0.0
C280 C 0.47142 0.23384 0.22355 0.0
C281 C 0.47932 0.25635 0.13051 0.0
C282 C 0.47866 0.27499 0.09192 0.0
C283 C 0.45648 0.27295 0.07196 0.0
C284 C 0.45574 0.2886 0.02876 0.0
C285 C 0.47723 0.3068 0.00517 0.0
C286 C 0.49948 0.30934 0.02757 0.0
C287 C 0.50014 0.29347 0.0699 0.0
C288 C 0.04688 0.49295 0.55102 0.0
C289 C 0.02539 0.45915 0.76869 0.0
C290 C 0.95535 0.45129 0.72239 0.0
Mg291 Mg 0.02699 0.52168 0.46913 0.0
Mg292 Mg 0.00846 0.55668 0.53457 0.0
O293 O 0.00476 0.52536 0.5261 0.0
Mg294 Mg 0.00969 0.51004 0.6002 0.0
O295 O 0.01509 0.4927 0.66901 0.0
Mg296 Mg -0.00011 0.4585 0.62926 0.0
Mg297 Mg 0.00615 0.49517 0.74838 0.0
C298 C 0.97268 0.52998 0.64016 0.0
O299 O 0.03377 0.5467 0.65888 0.0
O300 O 0.00934 0.5337 0.39208 0.0
O301 O 0.02255 0.53475 0.75486 0.0
O302 O 0.05752 0.56215 0.48691 0.0
O303 O 0.99687 0.55713 0.44089 0.0
O304 O 0.04628 0.58393 0.54548 0.0
O305 O 0.98512 0.47232 0.54993 0.0
O306 O 0.99673 0.48162 0.45432 0.0
C307 C 0.98365 0.46609 0.49246 0.0
C308 C -0.00086 0.54688 0.39165 0.0
O309 O 0.97815 0.51286 0.64214 0.0
O310 O 0.01777 0.45 0.713 0.0
O311 O 0.98344 0.54845 0.60681 0.0
O312 O 0.96429 0.44408 0.68039 0.0
O313 O 0.02306 0.47681 0.79168 0.0
O314 O 0.96791 0.47216 0.75155 0.0
O315 O 0.04097 0.50962 0.55293 0.0
O316 O 0.03488 0.47311 0.57846 0.0
C317 C 0.06226 0.58224 0.51578 0.0
C318 C 0.03345 0.55148 0.71691 0.0
C319 C 0.50093 0.03298 0.50796 0.0
C320 C 0.57062 0.01894 0.44281 0.0
C321 C 0.52761 0.94739 0.51866 0.0
Mg322 Mg 0.46664 0.01276 0.6212 0.0
Mg323 Mg 0.48345 0.99568 0.74532 0.0
O324 O 0.47749 0.99089 0.65955 0.0
Mg325 Mg 0.50538 0.99812 0.60879 0.0
O326 O 0.53169 0.0057 0.55257 0.0
Mg327 Mg 0.51146 0.98862 0.47416 0.0
Mg328 Mg 0.55717 -0.0001 0.57365 0.0
C329 C 0.50599 0.96187 0.71587 0.0
O330 O 0.53511 0.02477 0.68176 0.0
O331 O 0.43331 0.9939 0.68189 0.0
O332 O 0.56641 0.01845 0.66537 0.0
O333 O 0.48738 0.04439 0.69659 0.0
O334 O 0.44698 0.98388 0.76708 0.0
O335 O 0.50522 0.03389 0.77014 0.0
O336 O 0.47776 0.97211 0.53202 0.0
O337 O 0.44902 0.98224 0.54439 0.0
C338 C 0.45726 0.97015 0.51543 0.0
C339 C 0.4301 0.98464 0.73491 0.0
O340 O 0.50902 0.96759 0.65919 0.0
O341 O 0.54788 0.00891 0.42623 0.0
O342 O 0.49821 0.9717 0.75466 0.0
O343 O 0.51604 0.95501 0.48533 0.0
O344 O 0.57831 0.01785 0.49746 0.0
O345 O 0.54388 0.96131 0.56039 0.0
O346 O 0.50044 0.02821 0.56497 0.0
O347 O 0.50602 0.0214 0.46724 0.0
C348 C 0.50149 0.04983 0.7454 0.0
C349 C 0.55631 0.02808 0.69691 0.0
C350 C 0.52667 0.54779 0.69578 0.0
C351 C 0.45081 0.47549 0.79819 0.0
C352 C 0.4798 0.43171 0.72769 0.0
Mg353 Mg 0.55257 0.54447 0.57333 0.0
Mg354 Mg 0.52105 0.50191 0.46329 0.0
O355 O 0.53195 0.50867 0.54692 0.0
Mg356 Mg 0.50734 0.49797 0.61 0.0
O357 O 0.48435 0.48882 0.67668 0.0
Mg358 Mg 0.50682 0.49378 0.75026 0.0
Mg359 Mg 0.45607 0.45785 0.6667 0.0
C360 C 0.48749 0.44959 0.51534 0.0
O361 O 0.47714 0.49597 0.5447 0.0
O362 O 0.57945 0.54483 0.50204 0.0
O363 O 0.44399 0.46275 0.57555 0.0
O364 O 0.5352 0.55755 0.4985 0.0
O365 O 0.55628 0.51401 0.43089 0.0
O366 O 0.50961 0.52676 0.43238 0.0
O367 O 0.53542 0.49896 0.68067 0.0
O368 O 0.56845 0.53146 0.64963 0.0
C369 C 0.55824 0.5144 0.68697 0.0
C370 C 0.577 0.53151 0.45287 0.0
O371 O 0.49258 0.45814 0.57197 0.0
O372 O 0.47408 0.48759 0.80915 0.0
O373 O 0.49483 0.46329 0.4695 0.0
O374 O 0.4947 0.45279 0.75373 0.0
O375 O 0.4406 0.46325 0.7468 0.0
O376 O 0.46375 0.42893 0.68606 0.0
O377 O 0.52297 0.53814 0.64075 0.0
O378 O 0.52039 0.53465 0.74265 0.0
C379 C 0.51974 0.54922 0.45186 0.0
C380 C 0.45444 0.47981 0.53807 0.0
H381 H 0.13831 0.4569 0.34372 0.0
H382 H 0.16783 0.53383 0.31396 0.0
H383 H 0.10798 0.4577 0.40513 0.0
H384 H 0.13858 0.5351 0.38008 0.0
H385 H 0.06682 0.52235 0.45457 0.0
H386 H 0.09745 0.5233 0.38932 0.0
H387 H 0.10382 0.4713 0.50196 0.0
H388 H 0.0725 0.46946 0.56456 0.0
C389 C 0.13836 0.47403 0.35002 0.0
C390 C 0.15563 0.49528 0.3234 0.0
C391 C 0.12115 0.47461 0.38648 0.0
C392 C 0.1209 0.49655 0.39854 0.0
C393 C 0.13803 0.51781 0.37161 0.0
C394 C 0.15509 0.51715 0.33431 0.0
C395 C 0.07481 0.51118 0.46531 0.0
C396 C 0.06694 0.49555 0.51416 0.0
C397 C 0.0925 0.5118 0.42807 0.0
C398 C 0.10295 0.49707 0.43955 0.0
C399 C 0.09571 0.4823 0.49022 0.0
C400 C 0.07783 0.48138 0.52658 0.0
H401 H 0.69559 0.11765 0.23823 0.0
H402 H 0.65511 0.15363 0.28378 0.0
H403 H 0.66509 0.08046 0.2826 0.0
H404 H 0.62435 0.11621 0.32537 0.0
H405 H 0.56263 0.03919 0.34164 0.0
H406 H 0.59311 0.07202 0.28483 0.0
H407 H 0.6499 0.06885 0.39209 0.0
H408 H 0.6195 0.0361 0.44945 0.0
C409 C 0.68032 0.11774 0.2578 0.0
C410 C 0.67787 0.13874 0.25718 0.0
C411 C 0.66277 0.09636 0.28273 0.0
C412 C 0.64225 0.0954 0.30666 0.0
C413 C 0.63975 0.11629 0.30601 0.0
C414 C 0.65741 0.13773 0.28202 0.0
C415 C 0.58157 0.04506 0.35224 0.0
C416 C 0.58863 0.03515 0.40048 0.0
C417 C 0.599 0.06399 0.32 0.0
C418 C 0.62383 0.07314 0.33465 0.0
C419 C 0.63087 0.06211 0.37984 0.0
C420 C 0.61345 0.0434 0.41273 0.0
H421 H 0.55703 0.67665 0.25073 0.0
H422 H 0.48209 0.6291 0.18548 0.0
H423 H 0.5543 0.6459 0.31957 0.0
H424 H 0.47902 0.59874 0.25669 0.0
H425 H 0.49303 0.53985 0.3416 0.0
H426 H 0.49232 0.56967 0.27442 0.0
H427 H 0.53656 0.62794 0.41282 0.0
H428 H 0.53782 0.59826 0.47929 0.0
C429 C 0.53998 0.65958 0.25075 0.0
C430 C 0.51982 0.6554 0.21224 0.0
C431 C 0.53829 0.64207 0.29111 0.0
C432 C 0.51635 0.61988 0.29434 0.0
C433 C 0.49623 0.61554 0.25533 0.0
C434 C 0.49794 0.63307 0.21483 0.0
C435 C 0.50236 0.55898 0.3581 0.0
C436 C 0.51577 0.56664 0.4156 0.0
C437 C 0.5019 0.57612 0.31953 0.0
C438 C 0.51476 0.60132 0.33762 0.0
C439 C 0.52699 0.60877 0.39663 0.0
C440 C 0.52752 0.59168 0.43506 0.0
H441 H 0.87319 0.49978 0.17673 0.0
H442 H 0.91139 0.57528 0.12869 0.0
H443 H 0.91097 0.50408 0.22017 0.0
H444 H 0.94937 0.57961 0.17238 0.0
H445 H 0.98984 0.58303 0.3628 0.0
H446 H 0.96153 0.58095 0.28136 0.0
H447 H 0.9526 0.51208 0.2083 0.0
H448 H 0.98095 0.51407 0.29093 0.0
C449 C 0.88978 0.51711 0.17392 0.0
C450 C 0.88928 0.53732 0.15033 0.0
C451 C 0.91149 0.51955 0.19854 0.0
C452 C 0.93313 0.54225 0.20006 0.0
C453 C 0.93291 0.56199 0.17254 0.0
C454 C 0.91117 0.55955 0.14793 0.0
C455 C 0.98233 0.56776 0.32843 0.0
C456 C 0.9872 0.54848 0.33383 0.0
C457 C 0.96625 0.56666 0.28135 0.0
C458 C 0.95458 0.54617 0.2389 0.0
C459 C 0.96111 0.52793 0.24095 0.0
C460 C 0.97744 0.52915 0.28795 0.0
H461 H 0.32938 0.88896 0.28769 0.0
H462 H 0.37242 0.86103 0.20803 0.0
H463 H 0.364 0.91773 0.35527 0.0
H464 H 0.40751 0.89021 0.27639 0.0
H465 H 0.45123 0.92604 0.47056 0.0
H466 H 0.42156 0.89864 0.3877 0.0
H467 H 0.40279 0.95423 0.35025 0.0
H468 H 0.4315 0.98089 0.43367 0.0
C469 C 0.34641 0.88929 0.28376 0.0
C470 C 0.3482 0.87291 0.24193 0.0
C471 C 0.36631 0.90581 0.32261 0.0
C472 C 0.38864 0.90649 0.32067 0.0
C473 C 0.39053 0.89006 0.27907 0.0
C474 C 0.37047 0.87341 0.23998 0.0
C475 C 0.44098 0.9324 0.44375 0.0
C476 C 0.44313 0.95524 0.45924 0.0
C477 C 0.42407 0.91681 0.3963 0.0
C478 C 0.4094 0.92406 0.36349 0.0
C479 C 0.41324 0.94779 0.37592 0.0
C480 C 0.42974 0.9631 0.42354 0.0
H481 H 0.41871 0.30749 0.31555 0.0
H482 H 0.48861 0.32632 0.40156 0.0
H483 H 0.41773 0.33871 0.38381 0.0
H484 H 0.4879 0.35755 0.46876 0.0
H485 H 0.48528 0.41334 0.5856 0.0
H486 H 0.46978 0.37048 0.54996 0.0
H487 H 0.44338 0.38334 0.3768 0.0
H488 H 0.45853 0.42569 0.41241 0.0
C489 C 0.43355 0.31791 0.35005 0.0
C490 C 0.45398 0.31501 0.35259 0.0
C491 C 0.43301 0.33573 0.38901 0.0
C492 C 0.45281 0.35069 0.43129 0.0
C493 C 0.47225 0.3462 0.43718 0.0
C494 C 0.47285 0.32859 0.39807 0.0
C495 C 0.47549 0.40672 0.54075 0.0
C496 C 0.47364 0.42289 0.50102 0.0
C497 C 0.46667 0.38226 0.52033 0.0
C498 C 0.45568 0.37367 0.46027 0.0
C499 C 0.45164 0.3893 0.42338 0.0
C500 C 0.46061 0.41368 0.44348 0.0
H501 H 0.52549 0.87547 0.98099 0.0
H502 H 0.54354 0.84974 0.81612 0.0
H503 H 0.51982 0.90461 0.92239 0.0
H504 H 0.53727 0.87869 0.75651 0.0
H505 H 0.54142 0.95088 0.68648 0.0
H506 H 0.55091 0.92222 0.73811 0.0
H507 H 0.48925 0.90056 0.84758 0.0
H508 H 0.48038 0.92923 0.79789 0.0
C509 C 0.52823 0.87607 0.93209 0.0
C510 C 0.53466 0.86013 0.90303 0.0
C511 C 0.52489 0.8927 0.89834 0.0
C512 C 0.52757 0.89364 0.83436 0.0
C513 C 0.53508 0.87846 0.80566 0.0
C514 C 0.53865 0.86188 0.83975 0.0
C515 C 0.52982 0.9397 0.72103 0.0
C516 C 0.51041 0.94253 0.73887 0.0
C517 C 0.53525 0.92335 0.75068 0.0
C518 C 0.52121 0.90956 0.79822 0.0
C519 C 0.50097 0.91148 0.81287 0.0
C520 C 0.49577 0.92782 0.78398 0.0
H521 H 0.67047 0.55232 0.97765 0.0
H522 H 0.64826 0.47827 0.91166 0.0
H523 H 0.63534 0.54962 0.92057 0.0
H524 H 0.61337 0.47569 0.85301 0.0
H525 H 0.5477 0.47722 0.76472 0.0
H526 H 0.57466 0.47656 0.84786 0.0
H527 H 0.62968 0.54985 0.80984 0.0
H528 H 0.60308 0.55067 0.72871 0.0
C529 C 0.65783 0.53535 0.95155 0.0
C530 C 0.6622 0.51566 0.94809 0.0
C531 C 0.63776 0.53379 0.91886 0.0
C532 C 0.62187 0.51261 0.88133 0.0
C533 C 0.62522 0.4922 0.88171 0.0
C534 C 0.64522 0.4937 0.91503 0.0
C535 C 0.56545 0.49324 0.77487 0.0
C536 C 0.57333 0.5139 0.73981 0.0
C537 C 0.58088 0.49284 0.82223 0.0
C538 C 0.60423 0.51322 0.83567 0.0
C539 C 0.61167 0.53402 0.8016 0.0
C540 C 0.59646 0.53436 0.7544 0.0
H541 H 0.13571 0.70486 0.84641 0.0
H542 H 0.1161 0.65839 0.99984 0.0
H543 H 0.10524 0.67024 0.77852 0.0
H544 H 0.0862 0.6239 0.93235 0.0
H545 H 0.02242 0.5699 0.81656 0.0
H546 H 0.04761 0.60936 0.8729 0.0
H547 H 0.10002 0.63038 0.73482 0.0
H548 H 0.07432 0.59073 0.67725 0.0
C549 C 0.12464 0.68734 0.86573 0.0
C550 C 0.12825 0.68424 0.92833 0.0
C551 C 0.1074 0.66753 0.82681 0.0
C552 C 0.09331 0.64439 0.85008 0.0
C553 C 0.09652 0.64157 0.91311 0.0
C554 C 0.11379 0.66125 0.95173 0.0
C555 C 0.03914 0.58307 0.79764 0.0
C556 C 0.04671 0.57707 0.74328 0.0
C557 C 0.05358 0.60565 0.83002 0.0
C558 C 0.07605 0.62271 0.80911 0.0
C559 C 0.08278 0.61755 0.7521 0.0
C560 C 0.06814 0.59487 0.71921 0.0
H561 H 0.5474 0.17361 0.01854 0.0
H562 H 0.47504 0.14764 0.9374 0.0
H563 H 0.55289 0.14763 0.94159 0.0
H564 H 0.48032 0.12174 0.86173 0.0
H565 H 0.49702 0.0884 0.70796 0.0
H566 H 0.50392 0.12401 0.77208 0.0
H567 H 0.53418 0.10191 0.92137 0.0
H568 H 0.52768 0.06644 0.85712 0.0
C569 C 0.53279 0.16248 0.98404 0.0
C570 C 0.5107 0.16234 0.98419 0.0
C571 C 0.53591 0.14766 0.94022 0.0
C572 C 0.51712 0.13286 0.8954 0.0
C573 C 0.4953 0.13327 0.89496 0.0
C574 C 0.49212 0.1478 0.93887 0.0
C575 C 0.50568 0.0914 0.75392 0.0
C576 C 0.5111 0.07417 0.77812 0.0
C577 C 0.50958 0.11178 0.79064 0.0
C578 C 0.51899 0.11533 0.85214 0.0
C579 C 0.52681 0.09958 0.87419 0.0
C580 C 0.52292 0.07916 0.83742 0.0
H581 H 0.36797 0.5212 0.01309 0.0
H582 H 0.32914 0.44233 0.02044 0.0
H583 H 0.40012 0.51904 0.96139 0.0
H584 H 0.36179 0.44036 0.972 0.0
H585 H 0.40266 0.44352 0.80183 0.0
H586 H 0.37446 0.44554 0.86904 0.0
H587 H 0.4333 0.50971 0.96857 0.0
H588 H 0.46191 0.508 0.89935 0.0
C589 C 0.36634 0.50342 0.00411 0.0
C590 C 0.34574 0.4819 0.02026 0.0
C591 C 0.38498 0.50223 0.97535 0.0
C592 C 0.38348 0.47951 0.96214 0.0
C593 C 0.36338 0.45814 0.98066 0.0
C594 C 0.34473 0.4593 0.00907 0.0
C595 C 0.40977 0.45802 0.83824 0.0
C596 C 0.4346 0.47573 0.8448 0.0
C597 C 0.39353 0.45903 0.87731 0.0
C598 C 0.40156 0.47776 0.92438 0.0
C599 C 0.42651 0.49515 0.93238 0.0
C600 C 0.44292 0.49408 0.89311 0.0
H601 H 0.83098 0.36794 0.94314 0.0
H602 H 0.86255 0.32309 0.89843 0.0
H603 H 0.85695 0.39802 0.87295 0.0
H604 H 0.88929 0.35363 0.83091 0.0
H605 H 0.92509 0.40311 0.68235 0.0
H606 H 0.89134 0.37217 0.73523 0.0
H607 H 0.89882 0.42819 0.8692 0.0
H608 H 0.93195 0.45914 0.81544 0.0
C609 C 0.84338 0.36443 0.9182 0.0
C610 C 0.84475 0.34312 0.92683 0.0
C611 C 0.85843 0.38179 0.87831 0.0
C612 C 0.87523 0.3783 0.84608 0.0
C613 C 0.87633 0.35681 0.85411 0.0
C614 C 0.86127 0.33945 0.8938 0.0
C615 C 0.91916 0.40893 0.72219 0.0
C616 C 0.93158 0.43359 0.74521 0.0
C617 C 0.89994 0.39113 0.75293 0.0
C618 C 0.8927 0.39756 0.8074 0.0
C619 C 0.90384 0.4225 0.82745 0.0
C620 C 0.92298 0.4403 0.79662 0.0
H621 H 0.87762 0.56646 0.83042 0.0
H622 H 0.8479 0.48961 0.86109 0.0
H623 H 0.90897 0.56583 0.77246 0.0
H624 H 0.87852 0.4886 0.79954 0.0
H625 H 0.95337 0.5036 0.74141 0.0
H626 H 0.9212 0.50244 0.80088 0.0
H627 H 0.91428 0.55108 0.67676 0.0
H628 H 0.94666 0.55273 0.61905 0.0
C629 C 0.8777 0.54937 0.82463 0.0
C630 C 0.86022 0.5281 0.85064 0.0
C631 C 0.89554 0.54892 0.7906 0.0
C632 C 0.89625 0.52712 0.78094 0.0
C633 C 0.87867 0.50577 0.80653 0.0
C634 C 0.86088 0.50626 0.84105 0.0
C635 C 0.94487 0.51391 0.72684 0.0
C636 C 0.95272 0.52837 0.67582 0.0
C637 C 0.92637 0.51321 0.76075 0.0
C638 C 0.91525 0.52686 0.744 0.0
C639 C 0.92279 0.54082 0.69203 0.0
C640 C 0.94135 0.54168 0.65869 0.0
H641 H 0.30613 0.90746 0.95727 0.0
H642 H 0.31161 0.85639 0.83093 0.0
H643 H 0.33566 0.94171 0.90144 0.0
H644 H 0.34104 0.89054 0.77513 0.0
H645 H 0.3867 0.95596 0.66915 0.0
H646 H 0.3483 0.92719 0.71172 0.0
H647 H 0.38067 0.95592 0.89604 0.0
H648 H 0.41889 0.98421 0.85374 0.0
C649 C 0.31325 0.90357 0.91676 0.0
C650 C 0.30682 0.87935 0.89866 0.0
C651 C 0.33015 0.92313 0.88497 0.0
C652 C 0.3406 0.91876 0.83399 0.0
C653 C 0.33307 0.89444 0.81382 0.0
C654 C 0.31646 0.87493 0.8461 0.0
C655 C 0.38528 0.95663 0.71859 0.0
C656 C 0.40571 0.97215 0.75829 0.0
C657 C 0.36342 0.94008 0.74291 0.0
C658 C 0.3616 0.93924 0.80715 0.0
C659 C 0.38148 0.95627 0.84638 0.0
C660 C 0.40338 0.9724 0.8222 0.0
H661 H 0.50641 0.32437 0.90832 0.0
H662 H 0.44634 0.32527 0.9908 0.0
H663 H 0.50671 0.35201 0.83228 0.0
H664 H 0.44611 0.35206 0.91274 0.0
H665 H 0.44109 0.38536 0.73257 0.0
H666 H 0.43946 0.35265 0.79363 0.0
H667 H 0.51632 0.39691 0.84215 0.0
H668 H 0.51792 0.42965 0.78219 0.0
C669 C 0.49329 0.33044 0.91054 0.0
C670 C 0.47654 0.32271 0.95659 0.0
C671 C 0.49335 0.34611 0.86645 0.0
C672 C 0.4764 0.35411 0.86649 0.0
C673 C 0.45917 0.34588 0.91109 0.0
C674 C 0.45933 0.3305 0.95584 0.0
C675 C 0.45773 0.38783 0.755 0.0
C676 C 0.47962 0.41009 0.75277 0.0
C677 C 0.45674 0.36922 0.79041 0.0
C678 C 0.47772 0.37235 0.82303 0.0
C679 C 0.49988 0.39395 0.81735 0.0
C680 C 0.50078 0.4127 0.78305 0.0
H681 H 0.15871 0.48033 0.90131 0.0
H682 H 0.11536 0.43385 0.04033 0.0
H683 H 0.12183 0.47196 0.84077 0.0
H684 H 0.07826 0.42587 0.98035 0.0
H685 H 0.03314 0.46258 0.89394 0.0
H686 H 0.06392 0.45779 0.95244 0.0
H687 H 0.08233 0.43432 0.78455 0.0
H688 H 0.05131 0.43872 0.72587 0.0
C689 C 0.14121 0.46814 0.91839 0.0
C690 C 0.13965 0.45774 0.97515 0.0
C691 C 0.12018 0.46321 0.88374 0.0
C692 C 0.0973 0.44817 0.90593 0.0
C693 C 0.09573 0.43743 0.96234 0.0
C694 C 0.11682 0.44196 0.99644 0.0
C695 C 0.0433 0.45576 0.86976 0.0
C696 C 0.04001 0.45127 0.8053 0.0
C697 C 0.0608 0.45291 0.90327 0.0
C698 C 0.07553 0.4459 0.87272 0.0
C699 C 0.07121 0.43986 0.80892 0.0
C700 C 0.0534 0.44228 0.77551 0.0
H701 H 0.63601 0.15075 0.97572 0.0
H702 H 0.68628 0.13322 0.893 0.0
H703 H 0.60211 0.11522 0.91816 0.0
H704 H 0.65279 0.09823 0.83498 0.0
H705 H 0.59058 0.02656 0.77201 0.0
H706 H 0.61937 0.05845 0.84736 0.0
H707 H 0.58434 0.101 0.81386 0.0
H708 H 0.5551 0.06864 0.73971 0.0
C709 C 0.63978 0.13936 0.94498 0.0
C710 C 0.66373 0.14462 0.93899 0.0
C711 C 0.62041 0.11904 0.91214 0.0
C712 C 0.6247 0.1037 0.87254 0.0
C713 C 0.64873 0.10921 0.86636 0.0
C714 C 0.66798 0.12935 0.89934 0.0
C715 C 0.5888 0.04254 0.78164 0.0
C716 C 0.57079 0.04527 0.74972 0.0
C717 C 0.60537 0.06088 0.82447 0.0
C718 C 0.60454 0.08255 0.83552 0.0
C719 C 0.58548 0.08454 0.80658 0.0
C720 C 0.5687 0.06599 0.76413 0.0
H721 H 0.5153 0.66807 0.79062 0.0
H722 H 0.58674 0.69216 0.87574 0.0
H723 H 0.51762 0.63666 0.72793 0.0
H724 H 0.5894 0.66121 0.81145 0.0
H725 H 0.52483 0.58066 0.61971 0.0
H726 H 0.53674 0.62331 0.64926 0.0
H727 H 0.56593 0.6171 0.8266 0.0
H728 H 0.55419 0.575 0.79724 0.0
C729 C 0.53171 0.66697 0.79489 0.0
C730 C 0.55057 0.6821 0.83909 0.0
C731 C 0.53322 0.64926 0.75824 0.0
C732 C 0.55361 0.64635 0.76527 0.0
C733 C 0.57338 0.66294 0.80556 0.0
C734 C 0.57187 0.68067 0.84222 0.0
C735 C 0.53441 0.58875 0.66424 0.0
C736 C 0.53813 0.57451 0.70687 0.0
C737 C 0.54117 0.61306 0.68115 0.0
C738 C 0.55205 0.62343 0.74041 0.0
C739 C 0.55777 0.60976 0.78046 0.0
C740 C 0.55077 0.58552 0.76395 0.0
H741 H 0.46696 0.14903 0.4213 0.0
H742 H 0.50998 0.14317 0.28072 0.0
H743 H 0.46845 0.11604 0.4746 0.0
H744 H 0.51194 0.11098 0.33438 0.0
H745 H 0.48519 0.03529 0.39231 0.0
H746 H 0.4807 0.068 0.3504 0.0
H747 H 0.4987 0.10572 0.53111 0.0
H748 H 0.50308 0.07238 0.57402 0.0
C749 C 0.47679 0.14079 0.40195 0.0
C750 C 0.4883 0.14867 0.34665 0.0
C751 C 0.47781 0.1221 0.43276 0.0
C752 C 0.49011 0.1108 0.40834 0.0
C753 C 0.50203 0.11911 0.3539 0.0
C754 C 0.50112 0.13775 0.32345 0.0
C755 C 0.48808 0.05044 0.4235 0.0
C756 C 0.495 0.05149 0.48632 0.0
C757 C 0.48555 0.06923 0.39932 0.0
C758 C 0.48993 0.0897 0.43713 0.0
C759 C 0.49535 0.09018 0.50086 0.0
C760 C 0.49785 0.07115 0.52537 0.0
H761 H 0.33806 0.45953 0.27544 0.0
H762 H 0.37295 0.53452 0.35039 0.0
H763 H 0.37075 0.45492 0.32312 0.0
H764 H 0.40536 0.52981 0.40028 0.0
H765 H 0.40799 0.44594 0.49839 0.0
H766 H 0.38096 0.45128 0.42719 0.0
H767 H 0.43933 0.52332 0.39164 0.0
H768 H 0.46619 0.5184 0.46554 0.0
C769 C 0.35284 0.47502 0.30214 0.0
C770 C 0.35293 0.49723 0.31036 0.0
C771 C 0.37152 0.47241 0.32946 0.0
C772 C 0.39047 0.49187 0.36628 0.0
C773 C 0.39115 0.51453 0.37177 0.0
C774 C 0.37257 0.51722 0.34367 0.0
C775 C 0.41518 0.46283 0.47497 0.0
C776 C 0.43923 0.4818 0.48798 0.0
C777 C 0.39972 0.46581 0.43356 0.0
C778 C 0.40795 0.48778 0.4038 0.0
C779 C 0.43235 0.5063 0.41442 0.0
C780 C 0.44783 0.50336 0.45623 0.0
H781 H 0.89306 0.32865 0.27141 0.0
H782 H 0.84588 0.35301 0.34247 0.0
H783 H 0.92703 0.36065 0.33689 0.0
H784 H 0.87997 0.38538 0.40678 0.0
H785 H 0.98298 0.44368 0.38278 0.0
H786 H 0.9501 0.40566 0.33363 0.0
H787 H 0.90981 0.39379 0.49594 0.0
H788 H 0.94288 0.43223 0.54543 0.0
C789 C 0.8899 0.34068 0.30148 0.0
C790 C 0.86685 0.33847 0.30142 0.0
C791 C 0.90936 0.35907 0.33871 0.0
C792 C 0.90616 0.37553 0.3769 0.0
C793 C 0.88294 0.3728 0.37836 0.0
C794 C 0.86351 0.3545 0.34088 0.0
C795 C 0.96729 0.43281 0.40848 0.0
C796 C 0.9654 0.4411 0.46771 0.0
C797 C 0.9485 0.41091 0.38041 0.0
C798 C 0.9273 0.39683 0.41073 0.0
C799 C 0.92586 0.40445 0.47125 0.0
C800 C 0.94484 0.42633 0.4997 0.0
H801 H 0.49819 0.80831 0.3326 0.0
H802 H 0.5546 0.87296 0.25509 0.0
H803 H 0.49693 0.83421 0.41699 0.0
H804 H 0.55427 0.89821 0.34162 0.0
H805 H 0.56184 0.93378 0.52963 0.0
H806 H 0.56127 0.89977 0.47058 0.0
H807 H 0.48689 0.87308 0.40605 0.0
H808 H 0.48751 0.90741 0.4637 0.0
C809 C 0.51036 0.82792 0.33339 0.0
C810 C 0.52645 0.83848 0.28652 0.0
C811 C 0.5098 0.84262 0.38221 0.0
C812 C 0.52576 0.86799 0.38591 0.0
C813 C 0.54216 0.87854 0.34021 0.0
C814 C 0.54235 0.86401 0.29073 0.0
C815 C 0.54508 0.92015 0.50479 0.0
C816 C 0.52481 0.92336 0.50043 0.0
C817 C 0.54483 0.90081 0.47088 0.0
C818 C 0.52412 0.88413 0.43365 0.0
C819 C 0.50301 0.88575 0.43472 0.0
C820 C 0.50341 0.90538 0.46753 0.0
H821 H 0.67443 0.4992 0.26575 0.0
H822 H 0.71543 0.57838 0.28634 0.0
H823 H 0.64245 0.49922 0.32261 0.0
H824 H 0.68286 0.57838 0.34203 0.0
H825 H 0.62536 0.56246 0.48933 0.0
H826 H 0.66048 0.5653 0.44009 0.0
H827 H 0.61252 0.51198 0.29608 0.0
H828 H 0.57777 0.50897 0.34458 0.0
C829 C 0.67679 0.51662 0.28315 0.0
C830 C 0.69747 0.53879 0.27133 0.0
C831 C 0.65831 0.51664 0.31512 0.0
C832 C 0.66001 0.53882 0.33608 0.0
C833 C 0.68107 0.56101 0.32647 0.0
C834 C 0.69959 0.561 0.29416 0.0
C835 C 0.62237 0.55151 0.4469 0.0
C836 C 0.59869 0.53531 0.42136 0.0
C837 C 0.64247 0.55316 0.41874 0.0
C838 C 0.63919 0.53854 0.36482 0.0
C839 C 0.6156 0.52304 0.33837 0.0
C840 C 0.59565 0.52146 0.36615 0.0
H841 H 0.19343 0.69763 0.36138 0.0
H842 H 0.12759 0.68935 0.27179 0.0
H843 H 0.16947 0.66878 0.43669 0.0
H844 H 0.10419 0.6619 0.34932 0.0
H845 H 0.07068 0.62921 0.52377 0.0
H846 H 0.10132 0.66366 0.47141 0.0
H847 H 0.13479 0.62111 0.42257 0.0
H848 H 0.10389 0.58635 0.47388 0.0
C849 C 0.17394 0.68979 0.35751 0.0
C850 C 0.16256 0.69591 0.30986 0.0
C851 C 0.16031 0.67348 0.40119 0.0
C852 C 0.13508 0.6634 0.39915 0.0
C853 C 0.12371 0.66982 0.35262 0.0
C854 C 0.13721 0.68567 0.30824 0.0
C855 C 0.08503 0.62742 0.50379 0.0
C856 C 0.08466 0.6049 0.50231 0.0
C857 C 0.10244 0.6471 0.4734 0.0
C858 C 0.12012 0.64484 0.44224 0.0
C859 C 0.12131 0.62328 0.44624 0.0
C860 C 0.10363 0.60341 0.47566 0.0
loop_
_geom_bond_atom_site_label_1
_geom_bond_atom_site_label_2
_geom_bond_distance
_geom_bond_site_symmetry_2
_ccdc_geom_bond_type
H0 C19 0.949 . S
H1 C20 0.950 . S
H2 C22 0.950 . S
H3 C23 0.950 . S
H4 C25 0.950 . S
H5 C28 0.950 . S
H6 C29 0.950 . S
H7 C31 0.951 . S
H8 C32 0.949 . S
H9 C34 0.949 . S
H10 C35 0.950 . S
H11 C37 0.950 . S
H12 C38 0.950 . S
H13 C40 0.950 . S
H14 C43 0.950 . S
H15 C44 0.950 . S
H16 C46 0.951 . S
H17 C47 0.949 . S
C18 C19 1.376 . S
C18 C23 1.386 . S
C18 C24 1.483 . S
C19 H0 0.949 . S
C19 C18 1.376 . S
C19 C20 1.397 . S
C20 H1 0.950 . S
C20 C19 1.397 . S
C20 C21 1.391 . S
C21 C20 1.391 . S
C21 C22 1.405 . S
C22 H2 0.950 . S
C22 C21 1.405 . S
C22 C23 1.367 . S
C23 H3 0.950 . S
C23 C18 1.386 . S
C23 C22 1.367 . S
C24 C18 1.483 . S
C24 C25 1.382 . S
C24 C26 1.403 . S
C25 H4 0.950 . S
C25 C24 1.382 . S
C25 C41 1.411 . S
C26 C24 1.403 . S
C26 C27 1.489 . S
C26 C40 1.411 . S
C27 C26 1.489 . S
C27 C28 1.383 . S
C27 C32 1.382 . S
C28 H5 0.950 . S
C28 C27 1.383 . S
C28 C29 1.395 . S
C29 H6 0.950 . S
C29 C28 1.395 . S
C29 C30 1.288 . S
C30 C29 1.288 . S
C30 C31 1.392 . S
C31 H7 0.951 . S
C31 C30 1.392 . S
C31 C32 1.392 . S
C32 H8 0.949 . S
C32 C27 1.382 . S
C32 C31 1.392 . S
C33 C34 1.376 . S
C33 C38 1.386 . S
C33 C39 1.483 . S
C34 H9 0.949 . S
C34 C33 1.376 . S
C34 C35 1.397 . S
C35 H10 0.950 . S
C35 C34 1.397 . S
C35 C36 1.391 . S
C36 C35 1.391 . S
C36 C37 1.405 . S
C37 H11 0.950 . S
C37 C36 1.405 . S
C37 C38 1.367 . S
C38 H12 0.950 . S
C38 C33 1.386 . S
C38 C37 1.367 . S
C39 C33 1.483 . S
C39 C40 1.382 . S
C39 C41 1.403 . S
C40 H13 0.950 . S
C40 C26 1.411 . S
C40 C39 1.382 . S
C41 C25 1.411 . S
C41 C39 1.403 . S
C41 C42 1.489 . S
C42 C41 1.489 . S
C42 C43 1.383 . S
C42 C47 1.382 . S
C43 H14 0.950 . S
C43 C42 1.383 . S
C43 C44 1.395 . S
C44 H15 0.950 . S
C44 C43 1.395 . S
C44 C45 1.288 . S
C45 C44 1.288 . S
C45 C46 1.392 . S
C46 H16 0.951 . S
C46 C45 1.392 . S
C46 C47 1.392 . S
C47 H17 0.949 . S
C47 C42 1.382 . S
C47 C46 1.392 . S
H48 C67 0.949 . S
H49 C68 0.950 . S
H50 C70 0.949 . S
H51 C71 0.950 . S
H52 C73 0.950 1_556 S
H53 C76 0.950 . S
H54 C77 0.950 . S
H55 C79 0.951 . S
H56 C80 0.949 . S
H57 C82 0.949 . S
H58 C83 0.950 . S
H59 C85 0.950 . S
H60 C86 0.950 . S
H61 C88 0.950 . S
H62 C91 0.950 . S
H63 C92 0.950 . S
H64 C94 0.951 . S
H65 C95 0.949 . S
C66 C67 1.376 1_554 S
C66 C71 1.386 . S
C66 C72 1.483 . S
C67 H48 0.949 . S
C67 C66 1.376 1_556 S
C67 C68 1.397 . S
C68 H49 0.950 . S
C68 C67 1.397 . S
C68 C69 1.391 . S
C69 C68 1.391 . S
C69 C70 1.402 1_556 S
C70 H50 0.949 . S
C70 C69 1.402 1_554 S
C70 C71 1.371 . S
C71 H51 0.950 . S
C71 C66 1.386 . S
C71 C70 1.371 . S
C72 C66 1.483 . S
C72 C73 1.382 . S
C72 C74 1.403 . S
C73 H52 0.950 1_554 S
C73 C72 1.382 . S
C73 C89 1.411 . S
C74 C72 1.403 . S
C74 C75 1.489 . S
C74 C88 1.411 . S
C75 C74 1.489 . S
C75 C76 1.383 . S
C75 C80 1.382 . S
C76 H53 0.950 . S
C76 C75 1.383 . S
C76 C77 1.395 . S
C77 H54 0.950 . S
C77 C76 1.395 . S
C77 C78 1.288 . S
C78 C77 1.288 . S
C78 C79 1.392 . S
C79 H55 0.951 . S
C79 C78 1.392 . S
C79 C80 1.392 . S
C80 H56 0.949 . S
C80 C75 1.382 . S
C80 C79 1.392 . S
C81 C82 1.376 . S
C81 C86 1.386 . S
C81 C87 1.483 . S
C82 H57 0.949 . S
C82 C81 1.376 . S
C82 C83 1.397 . S
C83 H58 0.950 . S
C83 C82 1.397 . S
C83 C84 1.391 . S
C84 C83 1.391 . S
C84 C85 1.405 . S
C85 H59 0.950 . S
C85 C84 1.405 . S
C85 C86 1.367 . S
C86 H60 0.950 . S
C86 C81 1.386 . S
C86 C85 1.367 . S
C87 C81 1.483 . S
C87 C88 1.382 . S
C87 C89 1.403 . S
C88 H61 0.950 . S
C88 C74 1.411 . S
C88 C87 1.382 . S
C89 C73 1.411 . S
C89 C87 1.403 . S
C89 C90 1.489 . S
C90 C89 1.489 . S
C90 C91 1.383 . S
C90 C95 1.382 1_554 S
C91 H62 0.950 . S
C91 C90 1.383 . S
C91 C92 1.395 1_554 S
C92 H63 0.950 . S
C92 C91 1.395 1_556 S
C92 C93 1.288 . S
C93 C92 1.288 . S
C93 C94 1.392 . S
C94 H64 0.951 . S
C94 C93 1.392 . S
C94 C95 1.392 . S
C95 H65 0.949 . S
C95 C90 1.382 1_556 S
C95 C94 1.392 . S
H96 C115 0.949 . S
H97 C116 0.950 . S
H98 C118 0.950 . S
H99 C119 0.950 . S
H100 C121 0.950 . S
H101 C124 0.950 . S
H102 C125 0.950 . S
H103 C127 0.951 . S
H104 C128 0.949 . S
H105 C130 0.949 . S
H106 C131 0.950 . S
H107 C133 0.950 . S
H108 C134 0.950 . S
H109 C136 0.950 . S
H110 C139 0.950 . S
H111 C140 0.950 . S
H112 C142 0.951 . S
H113 C143 0.949 . S
C114 C115 1.376 . S
C114 C119 1.386 . S
C114 C120 1.483 1_556 S
C115 H96 0.949 . S
C115 C114 1.376 . S
C115 C116 1.397 . S
C116 H97 0.950 . S
C116 C115 1.397 . S
C116 C117 1.391 . S
C117 C116 1.391 . S
C117 C118 1.405 . S
C118 H98 0.950 . S
C118 C117 1.405 . S
C118 C119 1.367 . S
C119 H99 0.950 . S
C119 C114 1.386 . S
C119 C118 1.367 . S
C120 C114 1.483 1_554 S
C120 C121 1.382 1_554 S
C120 C122 1.403 . S
C121 H100 0.950 . S
C121 C120 1.382 1_556 S
C121 C137 1.411 1_556 S
C122 C120 1.403 . S
C122 C123 1.489 . S
C122 C136 1.411 . S
C123 C122 1.489 . S
C123 C124 1.383 . S
C123 C128 1.382 . S
C124 H101 0.950 . S
C124 C123 1.383 . S
C124 C125 1.395 . S
C125 H102 0.950 . S
C125 C124 1.395 . S
C125 C126 1.288 . S
C126 C125 1.288 . S
C126 C127 1.392 . S
C127 H103 0.951 . S
C127 C126 1.392 . S
C127 C128 1.392 . S
C128 H104 0.949 . S
C128 C123 1.382 . S
C128 C127 1.392 . S
C129 C130 1.376 . S
C129 C134 1.386 . S
C129 C135 1.483 . S
C130 H105 0.949 . S
C130 C129 1.376 . S
C130 C131 1.397 . S
C131 H106 0.950 . S
C131 C130 1.397 . S
C131 C132 1.391 . S
C132 C131 1.391 . S
C132 C133 1.405 . S
C133 H107 0.950 . S
C133 C132 1.405 . S
C133 C134 1.367 . S
C134 H108 0.950 . S
C134 C129 1.386 . S
C134 C133 1.367 . S
C135 C129 1.483 . S
C135 C136 1.382 . S
C135 C137 1.403 . S
C136 H109 0.950 . S
C136 C122 1.411 . S
C136 C135 1.382 . S
C137 C121 1.411 1_554 S
C137 C135 1.403 . S
C137 C138 1.489 1_554 S
C138 C137 1.489 1_556 S
C138 C139 1.383 . S
C138 C143 1.382 . S
C139 H110 0.950 . S
C139 C138 1.383 . S
C139 C140 1.395 . S
C140 H111 0.950 . S
C140 C139 1.395 . S
C140 C141 1.288 . S
C141 C140 1.288 . S
C141 C142 1.392 . S
C142 H112 0.951 . S
C142 C141 1.392 . S
C142 C143 1.392 . S
C143 H113 0.949 . S
C143 C138 1.382 . S
C143 C142 1.392 . S
H144 C163 0.949 . S
H145 C164 0.950 . S
H146 C166 0.950 . S
H147 C167 0.950 . S
H148 C169 0.950 . S
H149 C172 0.950 . S
H150 C173 0.950 . S
H151 C175 0.951 . S
H152 C176 0.949 . S
H153 C178 0.949 . S
H154 C179 0.950 . S
H155 C181 0.950 . S
H156 C182 0.950 . S
H157 C184 0.950 . S
H158 C187 0.950 . S
H159 C188 0.950 . S
H160 C190 0.951 . S
H161 C191 0.949 . S
C162 C163 1.376 . S
C162 C167 1.386 . S
C162 C168 1.483 . S
C163 H144 0.949 . S
C163 C162 1.376 . S
C163 C164 1.397 . S
C164 H145 0.950 . S
C164 C163 1.397 . S
C164 C165 1.391 . S
C165 C164 1.391 . S
C165 C166 1.405 . S
C166 H146 0.950 . S
C166 C165 1.405 . S
C166 C167 1.367 . S
C167 H147 0.950 . S
C167 C162 1.386 . S
C167 C166 1.367 . S
C168 C162 1.483 . S
C168 C169 1.382 . S
C168 C170 1.403 1_554 S
C169 H148 0.950 . S
C169 C168 1.382 . S
C169 C185 1.411 . S
C170 C168 1.403 1_556 S
C170 C171 1.489 . S
C170 C184 1.411 . S
C171 C170 1.489 . S
C171 C172 1.383 . S
C171 C176 1.382 . S
C172 H149 0.950 . S
C172 C171 1.383 . S
C172 C173 1.395 . S
C173 H150 0.950 . S
C173 C172 1.395 . S
C173 C174 1.288 . S
C174 C173 1.288 . S
C174 C175 1.392 . S
C175 H151 0.951 . S
C175 C174 1.392 . S
C175 C176 1.392 . S
C176 H152 0.949 . S
C176 C171 1.382 . S
C176 C175 1.392 . S
C177 C178 1.376 . S
C177 C182 1.386 . S
C177 C183 1.483 . S
C178 H153 0.949 . S
C178 C177 1.376 . S
C178 C179 1.397 . S
C179 H154 0.950 . S
C179 C178 1.397 . S
C179 C180 1.391 . S
C180 C179 1.391 . S
C180 C181 1.405 . S
C181 H155 0.950 . S
C181 C180 1.405 . S
C181 C182 1.367 . S
C182 H156 0.950 . S
C182 C177 1.386 . S
C182 C181 1.367 . S
C183 C177 1.483 . S
C183 C184 1.382 . S
C183 C185 1.403 1_556 S
C184 H157 0.950 . S
C184 C170 1.411 . S
C184 C183 1.382 . S
C185 C169 1.411 . S
C185 C183 1.403 1_554 S
C185 C186 1.489 . S
C186 C185 1.489 . S
C186 C187 1.383 . S
C186 C191 1.382 . S
C187 H158 0.950 . S
C187 C186 1.383 . S
C187 C188 1.395 . S
C188 H159 0.950 . S
C188 C187 1.395 . S
C188 C189 1.288 . S
C189 C188 1.288 . S
C189 C190 1.392 . S
C190 H160 0.951 . S
C190 C189 1.392 . S
C190 C191 1.392 . S
C191 H161 0.949 . S
C191 C186 1.382 . S
C191 C190 1.392 . S
H192 C211 0.949 . S
H193 C212 0.950 . S
H194 C214 0.950 . S
H195 C215 0.950 . S
H196 C217 0.950 . S
H197 C220 0.950 . S
H198 C221 0.950 . S
H199 C223 0.951 . S
H200 C224 0.949 . S
H201 C226 0.949 . S
H202 C227 0.950 . S
H203 C229 0.950 . S
H204 C230 0.950 . S
H205 C232 0.950 . S
H206 C235 0.950 . S
H207 C236 0.952 . S
H208 C238 0.951 . S
H209 C239 0.949 . S
C210 C211 1.376 . S
C210 C215 1.386 . S
C210 C216 1.483 . S
C211 H192 0.949 . S
C211 C210 1.376 . S
C211 C212 1.397 1_554 S
C212 H193 0.950 . S
C212 C211 1.397 1_556 S
C212 C213 1.391 . S
C213 C212 1.391 . S
C213 C214 1.405 1_556 S
C214 H194 0.950 . S
C214 C213 1.405 1_554 S
C214 C215 1.367 . S
C215 H195 0.950 . S
C215 C210 1.386 . S
C215 C214 1.367 . S
C216 C210 1.483 . S
C216 C217 1.382 . S
C216 C218 1.403 . S
C217 H196 0.950 . S
C217 C216 1.382 . S
C217 C233 1.411 . S
C218 C216 1.403 . S
C218 C219 1.489 . S
C218 C232 1.411 . S
C219 C218 1.489 . S
C219 C220 1.383 . S
C219 C224 1.382 . S
C220 H197 0.950 . S
C220 C219 1.383 . S
C220 C221 1.395 . S
C221 H198 0.950 . S
C221 C220 1.395 . S
C221 C222 1.288 . S
C222 C221 1.288 . S
C222 C223 1.392 . S
C223 H199 0.951 . S
C223 C222 1.392 . S
C223 C224 1.392 . S
C224 H200 0.949 . S
C224 C219 1.382 . S
C224 C223 1.392 . S
C225 C226 1.376 . S
C225 C230 1.386 . S
C225 C231 1.483 . S
C226 H201 0.949 . S
C226 C225 1.376 . S
C226 C227 1.397 . S
C227 H202 0.950 . S
C227 C226 1.397 . S
C227 C228 1.391 . S
C228 C227 1.391 . S
C228 C229 1.405 . S
C229 H203 0.950 . S
C229 C228 1.405 . S
C229 C230 1.367 . S
C230 H204 0.950 . S
C230 C225 1.386 . S
C230 C229 1.367 . S
C231 C225 1.483 . S
C231 C232 1.382 . S
C231 C233 1.403 . S
C232 H205 0.950 . S
C232 C218 1.411 . S
C232 C231 1.382 . S
C233 C217 1.411 . S
C233 C231 1.403 . S
C233 C234 1.489 . S
C234 C233 1.489 . S
C234 C235 1.383 . S
C234 C239 1.382 1_554 S
C235 H206 0.950 . S
C235 C234 1.383 . S
C235 C236 1.401 . S
C236 H207 0.952 . S
C236 C235 1.401 . S
C236 C237 1.280 1_554 S
C237 C236 1.280 1_556 S
C237 C238 1.392 . S
C238 H208 0.951 . S
C238 C237 1.392 . S
C238 C239 1.392 . S
C239 H209 0.949 . S
C239 C234 1.382 1_556 S
C239 C238 1.392 . S
H240 C259 0.949 . S
H241 C260 0.950 . S
H242 C262 0.950 . S
H243 C263 0.950 . S
H244 C265 0.950 . S
H245 C268 0.950 . S
H246 C269 0.950 . S
H247 C271 0.951 . S
H248 C272 0.949 . S
H249 C274 0.949 . S
H250 C275 0.950 . S
H251 C277 0.950 . S
H252 C278 0.950 . S
H253 C280 0.950 . S
H254 C283 0.950 . S
H255 C284 0.950 . S
H256 C286 0.951 . S
H257 C287 0.949 . S
C258 C259 1.376 . S
C258 C263 1.386 . S
C258 C264 1.483 . S
C259 H240 0.949 . S
C259 C258 1.376 . S
C259 C260 1.397 . S
C260 H241 0.950 . S
C260 C259 1.397 . S
C260 C261 1.391 . S
C261 C260 1.391 . S
C261 C262 1.405 . S
C262 H242 0.950 . S
C262 C261 1.405 . S
C262 C263 1.367 . S
C263 H243 0.950 . S
C263 C258 1.386 . S
C263 C262 1.367 . S
C264 C258 1.483 . S
C264 C265 1.382 . S
C264 C266 1.403 . S
C265 H244 0.950 . S
C265 C264 1.382 . S
C265 C281 1.411 . S
C266 C264 1.403 . S
C266 C267 1.489 . S
C266 C280 1.411 . S
C267 C266 1.489 . S
C267 C268 1.383 . S
C267 C272 1.382 . S
C268 H245 0.950 . S
C268 C267 1.383 . S
C268 C269 1.395 . S
C269 H246 0.950 . S
C269 C268 1.395 . S
C269 C270 1.288 . S
C270 C269 1.288 . S
C270 C271 1.392 . S
C271 H247 0.951 . S
C271 C270 1.392 . S
C271 C272 1.392 . S
C272 H248 0.949 . S
C272 C267 1.382 . S
C272 C271 1.392 . S
C273 C274 1.376 . S
C273 C278 1.386 . S
C273 C279 1.483 . S
C274 H249 0.949 . S
C274 C273 1.376 . S
C274 C275 1.397 . S
C275 H250 0.950 . S
C275 C274 1.397 . S
C275 C276 1.391 . S
C276 C275 1.391 . S
C276 C277 1.405 . S
C277 H251 0.950 . S
C277 C276 1.405 . S
C277 C278 1.367 . S
C278 H252 0.950 . S
C278 C273 1.386 . S
C278 C277 1.367 . S
C279 C273 1.483 . S
C279 C280 1.382 . S
C279 C281 1.403 . S
C280 H253 0.950 . S
C280 C266 1.411 . S
C280 C279 1.382 . S
C281 C265 1.411 . S
C281 C279 1.403 . S
C281 C282 1.489 . S
C282 C281 1.489 . S
C282 C283 1.383 . S
C282 C287 1.382 . S
C283 H254 0.950 . S
C283 C282 1.383 . S
C283 C284 1.395 . S
C284 H255 0.950 . S
C284 C283 1.395 . S
C284 C285 1.288 . S
C285 C284 1.288 . S
C285 C286 1.392 . S
C286 H256 0.951 . S
C286 C285 1.392 . S
C286 C287 1.392 . S
C287 H257 0.949 . S
C287 C282 1.382 . S
C287 C286 1.392 . S
C288 O315 1.312 . S
C288 O316 1.208 . S
C289 O310 1.331 . S
C289 O313 1.244 . S
C290 O312 1.264 . S
C290 O314 1.273 . S
Mg291 O293 1.919 1_455 S
Mg291 O300 2.081 1_455 S
Mg291 O302 2.023 . S
Mg291 O306 2.031 1_455 S
Mg291 O315 2.291 . S
Mg292 O293 1.983 . S
Mg292 O303 1.941 . S
Mg292 O304 1.957 1_655 S
Mg292 O311 1.985 . S
O293 Mg291 1.919 1_655 S
O293 Mg292 1.983 . S
O293 Mg294 1.897 1_655 S
Mg294 O293 1.897 1_455 S
Mg294 O295 1.915 . S
Mg294 O299 2.013 . S
Mg294 O305 2.114 1_455 S
Mg294 O309 2.013 1_455 S
Mg294 O315 2.114 . S
O295 Mg294 1.915 . S
O295 Mg296 1.936 . S
O295 Mg297 1.963 . S
Mg296 O295 1.936 . S
Mg296 O305 2.291 1_455 S
Mg296 O310 2.081 . S
Mg296 O312 2.023 1_455 S
Mg296 O316 2.031 . S
Mg297 O295 1.963 . S
Mg297 O301 1.986 . S
Mg297 O313 1.942 . S
Mg297 O314 1.955 1_455 S
C298 O309 1.191 . S
C298 O311 1.307 . S
O299 Mg294 2.013 . S
O299 C318 1.191 . S
O300 Mg291 2.081 1_655 S
O300 C308 1.331 . S
O301 Mg297 1.986 . S
O301 C318 1.307 . S
O302 Mg291 2.023 . S
O302 C317 1.264 . S
O303 Mg292 1.941 . S
O303 C308 1.244 . S
O304 Mg292 1.957 1_455 S
O304 C317 1.273 . S
O305 Mg294 2.114 1_655 S
O305 Mg296 2.291 1_655 S
O305 C307 1.312 . S
O306 Mg291 2.031 1_655 S
O306 C307 1.208 . S
C307 O305 1.312 . S
C307 O306 1.208 . S
C308 O300 1.331 . S
C308 O303 1.244 . S
O309 Mg294 2.013 1_655 S
O309 C298 1.191 . S
O310 C289 1.331 . S
O310 Mg296 2.081 . S
O311 Mg292 1.985 . S
O311 C298 1.307 . S
O312 C290 1.264 . S
O312 Mg296 2.023 1_655 S
O313 C289 1.244 . S
O313 Mg297 1.942 . S
O314 C290 1.273 . S
O314 Mg297 1.955 1_655 S
O315 C288 1.312 . S
O315 Mg291 2.291 . S
O315 Mg294 2.114 . S
O316 C288 1.208 . S
O316 Mg296 2.031 . S
C317 O302 1.264 . S
C317 O304 1.273 . S
C318 O299 1.191 . S
C318 O301 1.307 . S
C319 O346 1.312 . S
C319 O347 1.208 . S
C320 O341 1.331 . S
C320 O344 1.244 . S
C321 O343 1.264 . S
C321 O345 1.273 . S
Mg322 O324 1.936 1_545 S
Mg322 O331 2.081 1_545 S
Mg322 O333 2.023 . S
Mg322 O337 2.031 1_545 S
Mg322 O346 2.291 . S
Mg323 O324 1.963 . S
Mg323 O334 1.942 . S
Mg323 O335 1.955 1_565 S
Mg323 O342 1.986 . S
O324 Mg322 1.936 1_565 S
O324 Mg323 1.963 . S
O324 Mg325 1.915 1_565 S
Mg325 O324 1.915 1_545 S
Mg325 O326 1.915 . S
Mg325 O330 2.013 . S
Mg325 O336 2.114 1_545 S
Mg325 O340 2.013 1_545 S
Mg325 O346 2.114 . S
O326 Mg325 1.915 . S
O326 Mg327 1.936 . S
O326 Mg328 1.963 . S
Mg327 O326 1.936 . S
Mg327 O336 2.291 1_545 S
Mg327 O341 2.081 . S
Mg327 O343 2.023 1_545 S
Mg327 O347 2.031 . S
Mg328 O326 1.963 . S
Mg328 O332 1.986 . S
Mg328 O344 1.942 . S
Mg328 O345 1.955 1_545 S
C329 O340 1.191 . S
C329 O342 1.307 . S
O330 Mg325 2.013 . S
O330 C349 1.191 . S
O331 Mg322 2.081 1_565 S
O331 C339 1.331 . S
O332 Mg328 1.986 . S
O332 C349 1.307 . S
O333 Mg322 2.023 . S
O333 C348 1.264 . S
O334 Mg323 1.942 . S
O334 C339 1.244 . S
O335 Mg323 1.955 1_545 S
O335 C348 1.273 . S
O336 Mg325 2.114 1_565 S
O336 Mg327 2.291 1_565 S
O336 C338 1.312 . S
O337 Mg322 2.031 1_565 S
O337 C338 1.208 . S
C338 O336 1.312 . S
C338 O337 1.208 . S
C339 O331 1.331 . S
C339 O334 1.244 . S
O340 Mg325 2.013 1_565 S
O340 C329 1.191 . S
O341 C320 1.331 . S
O341 Mg327 2.081 . S
O342 Mg323 1.986 . S
O342 C329 1.307 . S
O343 C321 1.264 . S
O343 Mg327 2.023 1_565 S
O344 C320 1.244 . S
O344 Mg328 1.942 . S
O345 C321 1.273 . S
O345 Mg328 1.955 1_565 S
O346 C319 1.312 . S
O346 Mg322 2.291 . S
O346 Mg325 2.114 . S
O347 C319 1.208 . S
O347 Mg327 2.031 . S
C348 O333 1.264 . S
C348 O335 1.273 . S
C349 O330 1.191 . S
C349 O332 1.307 . S
C350 O377 1.312 . S
C350 O378 1.208 . S
C351 O372 1.331 . S
C351 O375 1.244 . S
C352 O374 1.264 . S
C352 O376 1.273 . S
Mg353 O355 1.936 . S
Mg353 O362 2.081 . S
Mg353 O364 2.023 . S
Mg353 O368 2.031 . S
Mg353 O377 2.291 . S
Mg354 O355 1.963 . S
Mg354 O365 1.942 . S
Mg354 O366 1.955 . S
Mg354 O373 1.986 . S
O355 Mg353 1.936 . S
O355 Mg354 1.963 . S
O355 Mg356 1.915 . S
Mg356 O355 1.915 . S
Mg356 O357 1.915 . S
Mg356 O361 2.013 . S
Mg356 O367 2.114 . S
Mg356 O371 2.013 . S
Mg356 O377 2.114 . S
O357 Mg356 1.915 . S
O357 Mg358 1.936 . S
O357 Mg359 1.963 . S
Mg358 O357 1.936 . S
Mg358 O367 2.291 . S
Mg358 O372 2.081 . S
Mg358 O374 2.023 . S
Mg358 O378 2.031 . S
Mg359 O357 1.963 . S
Mg359 O363 1.986 . S
Mg359 O375 1.942 . S
Mg359 O376 1.955 . S
C360 O371 1.191 . S
C360 O373 1.307 . S
O361 Mg356 2.013 . S
O361 C380 1.191 . S
O362 Mg353 2.081 . S
O362 C370 1.331 . S
O363 Mg359 1.986 . S
O363 C380 1.307 . S
O364 Mg353 2.023 . S
O364 C379 1.264 . S
O365 Mg354 1.942 . S
O365 C370 1.244 . S
O366 Mg354 1.955 . S
O366 C379 1.273 . S
O367 Mg356 2.114 . S
O367 Mg358 2.291 . S
O367 C369 1.312 . S
O368 Mg353 2.031 . S
O368 C369 1.208 . S
C369 O367 1.312 . S
C369 O368 1.208 . S
C370 O362 1.331 . S
C370 O365 1.244 . S
O371 Mg356 2.013 . S
O371 C360 1.191 . S
O372 C351 1.331 . S
O372 Mg358 2.081 . S
O373 Mg354 1.986 . S
O373 C360 1.307 . S
O374 C352 1.264 . S
O374 Mg358 2.023 . S
O375 C351 1.244 . S
O375 Mg359 1.942 . S
O376 C352 1.273 . S
O376 Mg359 1.955 . S
O377 C350 1.312 . S
O377 Mg353 2.291 . S
O377 Mg356 2.114 . S
O378 C350 1.208 . S
O378 Mg358 2.031 . S
C379 O364 1.264 . S
C379 O366 1.273 . S
C380 O361 1.191 . S
C380 O363 1.307 . S
H381 C389 0.950 . S
H382 C394 0.950 . S
H383 C391 0.950 . S
H384 C393 0.950 . S
H385 C395 0.950 . S
H386 C397 0.950 . S
H387 C399 0.950 . S
H388 C400 0.950 . S
C389 H381 0.950 . S
C389 C390 1.386 . S
C389 C391 1.391 . S
C390 C389 1.386 . S
C390 C394 1.393 . S
C391 H383 0.950 . S
C391 C389 1.391 . S
C391 C392 1.400 . S
C392 C391 1.400 . S
C392 C393 1.398 . S
C392 C398 1.491 . S
C393 H384 0.950 . S
C393 C392 1.398 . S
C393 C394 1.391 . S
C394 H382 0.950 . S
C394 C390 1.393 . S
C394 C393 1.391 . S
C395 H385 0.950 . S
C395 C396 1.386 . S
C395 C397 1.391 . S
C396 C395 1.386 . S
C396 C400 1.393 . S
C397 H386 0.950 . S
C397 C395 1.391 . S
C397 C398 1.400 . S
C398 C392 1.491 . S
C398 C397 1.400 . S
C398 C399 1.398 . S
C399 H387 0.950 . S
C399 C398 1.398 . S
C399 C400 1.391 . S
C400 H388 0.950 . S
C400 C396 1.393 . S
C400 C399 1.391 . S
H401 C409 0.950 . S
H402 C414 0.950 . S
H403 C411 0.950 . S
H404 C413 0.950 . S
H405 C415 0.950 . S
H406 C417 0.950 . S
H407 C419 0.950 . S
H408 C420 0.950 . S
C409 H401 0.950 . S
C409 C410 1.386 . S
C409 C411 1.391 . S
C410 C409 1.386 . S
C410 C414 1.393 . S
C411 H403 0.950 . S
C411 C409 1.391 . S
C411 C412 1.400 . S
C412 C411 1.400 . S
C412 C413 1.398 . S
C412 C418 1.491 . S
C413 H404 0.950 . S
C413 C412 1.398 . S
C413 C414 1.391 . S
C414 H402 0.950 . S
C414 C410 1.393 . S
C414 C413 1.391 . S
C415 H405 0.950 . S
C415 C416 1.386 . S
C415 C417 1.391 . S
C416 C415 1.386 . S
C416 C420 1.393 . S
C417 H406 0.950 . S
C417 C415 1.391 . S
C417 C418 1.400 . S
C418 C412 1.491 . S
C418 C417 1.400 . S
C418 C419 1.398 . S
C419 H407 0.950 . S
C419 C418 1.398 . S
C419 C420 1.391 . S
C420 H408 0.950 . S
C420 C416 1.393 . S
C420 C419 1.391 . S
H421 C429 0.950 . S
H422 C434 0.950 . S
H423 C431 0.950 . S
H424 C433 0.950 . S
H425 C435 0.950 . S
H426 C437 0.950 . S
H427 C439 0.950 . S
H428 C440 0.950 . S
C429 H421 0.950 . S
C429 C430 1.386 . S
C429 C431 1.391 . S
C430 C429 1.386 . S
C430 C434 1.393 . S
C431 H423 0.950 . S
C431 C429 1.391 . S
C431 C432 1.400 . S
C432 C431 1.400 . S
C432 C433 1.398 . S
C432 C438 1.491 . S
C433 H424 0.950 . S
C433 C432 1.398 . S
C433 C434 1.391 . S
C434 H422 0.950 . S
C434 C430 1.393 . S
C434 C433 1.391 . S
C435 H425 0.950 . S
C435 C436 1.386 . S
C435 C437 1.391 . S
C436 C435 1.386 . S
C436 C440 1.393 . S
C437 H426 0.950 . S
C437 C435 1.391 . S
C437 C438 1.400 . S
C438 C432 1.491 . S
C438 C437 1.400 . S
C438 C439 1.398 . S
C439 H427 0.950 . S
C439 C438 1.398 . S
C439 C440 1.391 . S
C440 H428 0.950 . S
C440 C436 1.393 . S
C440 C439 1.391 . S
H441 C449 0.950 . S
H442 C454 0.950 . S
H443 C451 0.950 . S
H444 C453 0.950 . S
H445 C455 0.950 . S
H446 C457 0.950 . S
H447 C459 0.950 . S
H448 C460 0.950 . S
C449 H441 0.950 . S
C449 C450 1.386 . S
C449 C451 1.391 . S
C450 C449 1.386 . S
C450 C454 1.393 . S
C451 H443 0.950 . S
C451 C449 1.391 . S
C451 C452 1.400 . S
C452 C451 1.400 . S
C452 C453 1.398 . S
C452 C458 1.491 . S
C453 H444 0.950 . S
C453 C452 1.398 . S
C453 C454 1.391 . S
C454 H442 0.950 . S
C454 C450 1.393 . S
C454 C453 1.391 . S
C455 H445 0.950 . S
C455 C456 1.386 . S
C455 C457 1.391 . S
C456 C455 1.386 . S
C456 C460 1.393 . S
C457 H446 0.950 . S
C457 C455 1.391 . S
C457 C458 1.400 . S
C458 C452 1.491 . S
C458 C457 1.400 . S
C458 C459 1.398 . S
C459 H447 0.950 . S
C459 C458 1.398 . S
C459 C460 1.391 . S
C460 H448 0.950 . S
C460 C456 1.393 . S
C460 C459 1.391 . S
H461 C469 0.950 . S
H462 C474 0.950 . S
H463 C471 0.950 . S
H464 C473 0.950 . S
H465 C475 0.950 . S
H466 C477 0.950 . S
H467 C479 0.950 . S
H468 C480 0.950 . S
C469 H461 0.950 . S
C469 C470 1.386 . S
C469 C471 1.391 . S
C470 C469 1.386 . S
C470 C474 1.393 . S
C471 H463 0.950 . S
C471 C469 1.391 . S
C471 C472 1.400 . S
C472 C471 1.400 . S
C472 C473 1.398 . S
C472 C478 1.491 . S
C473 H464 0.950 . S
C473 C472 1.398 . S
C473 C474 1.391 . S
C474 H462 0.950 . S
C474 C470 1.393 . S
C474 C473 1.391 . S
C475 H465 0.950 . S
C475 C476 1.386 . S
C475 C477 1.391 . S
C476 C475 1.386 . S
C476 C480 1.393 . S
C477 H466 0.950 . S
C477 C475 1.391 . S
C477 C478 1.400 . S
C478 C472 1.491 . S
C478 C477 1.400 . S
C478 C479 1.398 . S
C479 H467 0.950 . S
C479 C478 1.398 . S
C479 C480 1.391 . S
C480 H468 0.950 . S
C480 C476 1.393 . S
C480 C479 1.391 . S
H481 C489 0.950 . S
H482 C494 0.950 . S
H483 C491 0.950 . S
H484 C493 0.950 . S
H485 C495 0.950 . S
H486 C497 0.950 . S
H487 C499 0.950 . S
H488 C500 0.950 . S
C489 H481 0.950 . S
C489 C490 1.386 . S
C489 C491 1.391 . S
C490 C489 1.386 . S
C490 C494 1.393 . S
C491 H483 0.950 . S
C491 C489 1.391 . S
C491 C492 1.400 . S
C492 C491 1.400 . S
C492 C493 1.398 . S
C492 C498 1.491 . S
C493 H484 0.950 . S
C493 C492 1.398 . S
C493 C494 1.391 . S
C494 H482 0.950 . S
C494 C490 1.393 . S
C494 C493 1.391 . S
C495 H485 0.950 . S
C495 C496 1.386 . S
C495 C497 1.391 . S
C496 C495 1.386 . S
C496 C500 1.393 . S
C497 H486 0.950 . S
C497 C495 1.391 . S
C497 C498 1.400 . S
C498 C492 1.491 . S
C498 C497 1.400 . S
C498 C499 1.398 . S
C499 H487 0.950 . S
C499 C498 1.398 . S
C499 C500 1.391 . S
C500 H488 0.950 . S
C500 C496 1.393 . S
C500 C499 1.391 . S
H501 C509 0.950 . S
H502 C514 0.950 . S
H503 C511 0.950 . S
H504 C513 0.950 . S
H505 C515 0.950 . S
H506 C517 0.950 . S
H507 C519 0.950 . S
H508 C520 0.950 . S
C509 H501 0.950 . S
C509 C510 1.386 . S
C509 C511 1.391 . S
C510 C509 1.386 . S
C510 C514 1.393 . S
C511 H503 0.950 . S
C511 C509 1.391 . S
C511 C512 1.400 . S
C512 C511 1.400 . S
C512 C513 1.398 . S
C512 C518 1.491 . S
C513 H504 0.950 . S
C513 C512 1.398 . S
C513 C514 1.391 . S
C514 H502 0.950 . S
C514 C510 1.393 . S
C514 C513 1.391 . S
C515 H505 0.950 . S
C515 C516 1.386 . S
C515 C517 1.391 . S
C516 C515 1.386 . S
C516 C520 1.393 . S
C517 H506 0.950 . S
C517 C515 1.391 . S
C517 C518 1.400 . S
C518 C512 1.491 . S
C518 C517 1.400 . S
C518 C519 1.398 . S
C519 H507 0.950 . S
C519 C518 1.398 . S
C519 C520 1.391 . S
C520 H508 0.950 . S
C520 C516 1.393 . S
C520 C519 1.391 . S
H521 C529 0.950 . S
H522 C534 0.950 . S
H523 C531 0.950 . S
H524 C533 0.950 . S
H525 C535 0.950 . S
H526 C537 0.950 . S
H527 C539 0.950 . S
H528 C540 0.950 . S
C529 H521 0.950 . S
C529 C530 1.386 . S
C529 C531 1.391 . S
C530 C529 1.386 . S
C530 C534 1.393 . S
C531 H523 0.950 . S
C531 C529 1.391 . S
C531 C532 1.400 . S
C532 C531 1.400 . S
C532 C533 1.398 . S
C532 C538 1.491 . S
C533 H524 0.950 . S
C533 C532 1.398 . S
C533 C534 1.391 . S
C534 H522 0.950 . S
C534 C530 1.393 . S
C534 C533 1.391 . S
C535 H525 0.950 . S
C535 C536 1.386 . S
C535 C537 1.391 . S
C536 C535 1.386 . S
C536 C540 1.393 . S
C537 H526 0.950 . S
C537 C535 1.391 . S
C537 C538 1.400 . S
C538 C532 1.491 . S
C538 C537 1.400 . S
C538 C539 1.398 . S
C539 H527 0.950 . S
C539 C538 1.398 . S
C539 C540 1.391 . S
C540 H528 0.950 . S
C540 C536 1.393 . S
C540 C539 1.391 . S
H541 C549 0.950 . S
H542 C554 0.950 . S
H543 C551 0.950 . S
H544 C553 0.950 . S
H545 C555 0.950 . S
H546 C557 0.950 . S
H547 C559 0.950 . S
H548 C560 0.950 . S
C549 H541 0.950 . S
C549 C550 1.386 . S
C549 C551 1.391 . S
C550 C549 1.386 . S
C550 C554 1.393 . S
C551 H543 0.950 . S
C551 C549 1.391 . S
C551 C552 1.400 . S
C552 C551 1.400 . S
C552 C553 1.398 . S
C552 C558 1.491 . S
C553 H544 0.950 . S
C553 C552 1.398 . S
C553 C554 1.391 . S
C554 H542 0.950 . S
C554 C550 1.393 . S
C554 C553 1.391 . S
C555 H545 0.950 . S
C555 C556 1.386 . S
C555 C557 1.391 . S
C556 C555 1.386 . S
C556 C560 1.393 . S
C557 H546 0.950 . S
C557 C555 1.391 . S
C557 C558 1.400 . S
C558 C552 1.491 . S
C558 C557 1.400 . S
C558 C559 1.398 . S
C559 H547 0.950 . S
C559 C558 1.398 . S
C559 C560 1.391 . S
C560 H548 0.950 . S
C560 C556 1.393 . S
C560 C559 1.391 . S
H561 C569 0.950 . S
H562 C574 0.950 . S
H563 C571 0.950 . S
H564 C573 0.950 . S
H565 C575 0.950 . S
H566 C577 0.950 . S
H567 C579 0.950 . S
H568 C580 0.950 . S
C569 H561 0.950 . S
C569 C570 1.386 1_554 S
C569 C571 1.391 1_554 S
C570 C569 1.386 1_556 S
C570 C574 1.393 . S
C571 H563 0.950 . S
C571 C569 1.391 1_556 S
C571 C572 1.400 . S
C572 C571 1.400 . S
C572 C573 1.398 . S
C572 C578 1.491 . S
C573 H564 0.950 . S
C573 C572 1.398 . S
C573 C574 1.391 . S
C574 H562 0.950 . S
C574 C570 1.393 . S
C574 C573 1.391 . S
C575 H565 0.950 . S
C575 C576 1.386 . S
C575 C577 1.391 . S
C576 C575 1.386 . S
C576 C580 1.393 . S
C577 H566 0.950 . S
C577 C575 1.391 . S
C577 C578 1.400 . S
C578 C572 1.491 . S
C578 C577 1.400 . S
C578 C579 1.398 . S
C579 H567 0.950 . S
C579 C578 1.398 . S
C579 C580 1.391 . S
C580 H568 0.950 . S
C580 C576 1.393 . S
C580 C579 1.391 . S
H581 C589 0.950 1_554 S
H582 C594 0.950 . S
H583 C591 0.950 . S
H584 C593 0.950 . S
H585 C595 0.950 . S
H586 C597 0.950 . S
H587 C599 0.950 . S
H588 C600 0.950 . S
C589 H581 0.950 1_556 S
C589 C590 1.386 . S
C589 C591 1.391 . S
C590 C589 1.386 . S
C590 C594 1.393 . S
C591 H583 0.950 . S
C591 C589 1.391 . S
C591 C592 1.400 . S
C592 C591 1.400 . S
C592 C593 1.398 . S
C592 C598 1.491 . S
C593 H584 0.950 . S
C593 C592 1.398 . S
C593 C594 1.391 . S
C594 H582 0.950 . S
C594 C590 1.393 . S
C594 C593 1.391 . S
C595 H585 0.950 . S
C595 C596 1.386 . S
C595 C597 1.391 . S
C596 C595 1.386 . S
C596 C600 1.393 . S
C597 H586 0.950 . S
C597 C595 1.391 . S
C597 C598 1.400 . S
C598 C592 1.491 . S
C598 C597 1.400 . S
C598 C599 1.398 . S
C599 H587 0.950 . S
C599 C598 1.398 . S
C599 C600 1.391 . S
C600 H588 0.950 . S
C600 C596 1.393 . S
C600 C599 1.391 . S
H601 C609 0.950 . S
H602 C614 0.950 . S
H603 C611 0.950 . S
H604 C613 0.950 . S
H605 C615 0.950 . S
H606 C617 0.950 . S
H607 C619 0.950 . S
H608 C620 0.950 . S
C609 H601 0.950 . S
C609 C610 1.386 . S
C609 C611 1.391 . S
C610 C609 1.386 . S
C610 C614 1.393 . S
C611 H603 0.950 . S
C611 C609 1.391 . S
C611 C612 1.400 . S
C612 C611 1.400 . S
C612 C613 1.398 . S
C612 C618 1.491 . S
C613 H604 0.950 . S
C613 C612 1.398 . S
C613 C614 1.391 . S
C614 H602 0.950 . S
C614 C610 1.393 . S
C614 C613 1.391 . S
C615 H605 0.950 . S
C615 C616 1.386 . S
C615 C617 1.391 . S
C616 C615 1.386 . S
C616 C620 1.393 . S
C617 H606 0.950 . S
C617 C615 1.391 . S
C617 C618 1.400 . S
C618 C612 1.491 . S
C618 C617 1.400 . S
C618 C619 1.398 . S
C619 H607 0.950 . S
C619 C618 1.398 . S
C619 C620 1.391 . S
C620 H608 0.950 . S
C620 C616 1.393 . S
C620 C619 1.391 . S
H621 C629 0.950 . S
H622 C634 0.950 . S
H623 C631 0.950 . S
H624 C633 0.950 . S
H625 C635 0.950 . S
H626 C637 0.950 . S
H627 C639 0.950 . S
H628 C640 0.950 . S
C629 H621 0.950 . S
C629 C630 1.386 . S
C629 C631 1.391 . S
C630 C629 1.386 . S
C630 C634 1.393 . S
C631 H623 0.950 . S
C631 C629 1.391 . S
C631 C632 1.400 . S
C632 C631 1.400 . S
C632 C633 1.398 . S
C632 C638 1.491 . S
C633 H624 0.950 . S
C633 C632 1.398 . S
C633 C634 1.391 . S
C634 H622 0.950 . S
C634 C630 1.393 . S
C634 C633 1.391 . S
C635 H625 0.950 . S
C635 C636 1.386 . S
C635 C637 1.391 . S
C636 C635 1.386 . S
C636 C640 1.393 . S
C637 H626 0.950 . S
C637 C635 1.391 . S
C637 C638 1.400 . S
C638 C632 1.491 . S
C638 C637 1.400 . S
C638 C639 1.398 . S
C639 H627 0.950 . S
C639 C638 1.398 . S
C639 C640 1.391 . S
C640 H628 0.950 . S
C640 C636 1.393 . S
C640 C639 1.391 . S
H641 C649 0.950 . S
H642 C654 0.950 . S
H643 C651 0.950 . S
H644 C653 0.950 . S
H645 C655 0.950 . S
H646 C657 0.950 . S
H647 C659 0.950 . S
H648 C660 0.950 . S
C649 H641 0.950 . S
C649 C650 1.386 . S
C649 C651 1.391 . S
C650 C649 1.386 . S
C650 C654 1.393 . S
C651 H643 0.950 . S
C651 C649 1.391 . S
C651 C652 1.400 . S
C652 C651 1.400 . S
C652 C653 1.398 . S
C652 C658 1.491 . S
C653 H644 0.950 . S
C653 C652 1.398 . S
C653 C654 1.391 . S
C654 H642 0.950 . S
C654 C650 1.393 . S
C654 C653 1.391 . S
C655 H645 0.950 . S
C655 C656 1.386 . S
C655 C657 1.391 . S
C656 C655 1.386 . S
C656 C660 1.393 . S
C657 H646 0.950 . S
C657 C655 1.391 . S
C657 C658 1.400 . S
C658 C652 1.491 . S
C658 C657 1.400 . S
C658 C659 1.398 . S
C659 H647 0.950 . S
C659 C658 1.398 . S
C659 C660 1.391 . S
C660 H648 0.950 . S
C660 C656 1.393 . S
C660 C659 1.391 . S
H661 C669 0.950 . S
H662 C674 0.950 . S
H663 C671 0.950 . S
H664 C673 0.950 . S
H665 C675 0.950 . S
H666 C677 0.950 . S
H667 C679 0.950 . S
H668 C680 0.950 . S
C669 H661 0.950 . S
C669 C670 1.386 . S
C669 C671 1.391 . S
C670 C669 1.386 . S
C670 C674 1.393 . S
C671 H663 0.950 . S
C671 C669 1.391 . S
C671 C672 1.400 . S
C672 C671 1.400 . S
C672 C673 1.398 . S
C672 C678 1.491 . S
C673 H664 0.950 . S
C673 C672 1.398 . S
C673 C674 1.391 . S
C674 H662 0.950 . S
C674 C670 1.393 . S
C674 C673 1.391 . S
C675 H665 0.950 . S
C675 C676 1.386 . S
C675 C677 1.391 . S
C676 C675 1.386 . S
C676 C680 1.393 . S
C677 H666 0.950 . S
C677 C675 1.391 . S
C677 C678 1.400 . S
C678 C672 1.491 . S
C678 C677 1.400 . S
C678 C679 1.398 . S
C679 H667 0.950 . S
C679 C678 1.398 . S
C679 C680 1.391 . S
C680 H668 0.950 . S
C680 C676 1.393 . S
C680 C679 1.391 . S
H681 C689 0.950 . S
H682 C694 0.956 . S
H683 C691 0.950 . S
H684 C693 0.950 . S
H685 C695 0.950 . S
H686 C697 0.950 . S
H687 C699 0.950 . S
H688 C700 0.950 . S
C689 H681 0.950 . S
C689 C690 1.386 . S
C689 C691 1.391 . S
C690 C689 1.386 . S
C690 C694 1.393 1_556 S
C691 H683 0.950 . S
C691 C689 1.391 . S
C691 C692 1.400 . S
C692 C691 1.400 . S
C692 C693 1.398 . S
C692 C698 1.491 . S
C693 H684 0.950 . S
C693 C692 1.398 . S
C693 C694 1.384 1_556 S
C694 H682 0.956 . S
C694 C690 1.393 1_554 S
C694 C693 1.384 1_554 S
C695 H685 0.950 . S
C695 C696 1.386 . S
C695 C697 1.391 . S
C696 C695 1.386 . S
C696 C700 1.393 . S
C697 H686 0.950 . S
C697 C695 1.391 . S
C697 C698 1.400 . S
C698 C692 1.491 . S
C698 C697 1.400 . S
C698 C699 1.398 . S
C699 H687 0.950 . S
C699 C698 1.398 . S
C699 C700 1.391 . S
C700 H688 0.950 . S
C700 C696 1.393 . S
C700 C699 1.391 . S
H701 C709 0.950 . S
H702 C714 0.950 . S
H703 C711 0.950 . S
H704 C713 0.950 . S
H705 C715 0.950 . S
H706 C717 0.950 . S
H707 C719 0.950 . S
H708 C720 0.950 . S
C709 H701 0.950 . S
C709 C710 1.386 . S
C709 C711 1.391 . S
C710 C709 1.386 . S
C710 C714 1.393 . S
C711 H703 0.950 . S
C711 C709 1.391 . S
C711 C712 1.400 . S
C712 C711 1.400 . S
C712 C713 1.398 . S
C712 C718 1.491 . S
C713 H704 0.950 . S
C713 C712 1.398 . S
C713 C714 1.391 . S
C714 H702 0.950 . S
C714 C710 1.393 . S
C714 C713 1.391 . S
C715 H705 0.950 . S
C715 C716 1.386 . S
C715 C717 1.391 . S
C716 C715 1.386 . S
C716 C720 1.393 . S
C717 H706 0.950 . S
C717 C715 1.391 . S
C717 C718 1.400 . S
C718 C712 1.491 . S
C718 C717 1.400 . S
C718 C719 1.398 . S
C719 H707 0.950 . S
C719 C718 1.398 . S
C719 C720 1.391 . S
C720 H708 0.950 . S
C720 C716 1.393 . S
C720 C719 1.391 . S
H721 C729 0.950 . S
H722 C734 0.950 . S
H723 C731 0.950 . S
H724 C733 0.950 . S
H725 C735 0.950 . S
H726 C737 0.950 . S
H727 C739 0.950 . S
H728 C740 0.950 . S
C729 H721 0.950 . S
C729 C730 1.386 . S
C729 C731 1.391 . S
C730 C729 1.386 . S
C730 C734 1.393 . S
C731 H723 0.950 . S
C731 C729 1.391 . S
C731 C732 1.400 . S
C732 C731 1.400 . S
C732 C733 1.398 . S
C732 C738 1.491 . S
C733 H724 0.950 . S
C733 C732 1.398 . S
C733 C734 1.391 . S
C734 H722 0.950 . S
C734 C730 1.393 . S
C734 C733 1.391 . S
C735 H725 0.950 . S
C735 C736 1.386 . S
C735 C737 1.391 . S
C736 C735 1.386 . S
C736 C740 1.393 . S
C737 H726 0.950 . S
C737 C735 1.391 . S
C737 C738 1.400 . S
C738 C732 1.491 . S
C738 C737 1.400 . S
C738 C739 1.398 . S
C739 H727 0.950 . S
C739 C738 1.398 . S
C739 C740 1.391 . S
C740 H728 0.950 . S
C740 C736 1.393 . S
C740 C739 1.391 . S
H741 C749 0.950 . S
H742 C754 0.950 . S
H743 C751 0.950 . S
H744 C753 0.950 . S
H745 C755 0.950 . S
H746 C757 0.950 . S
H747 C759 0.950 . S
H748 C760 0.950 . S
C749 H741 0.950 . S
C749 C750 1.386 . S
C749 C751 1.391 . S
C750 C749 1.386 . S
C750 C754 1.393 . S
C751 H743 0.950 . S
C751 C749 1.391 . S
C751 C752 1.400 . S
C752 C751 1.400 . S
C752 C753 1.398 . S
C752 C758 1.491 . S
C753 H744 0.950 . S
C753 C752 1.398 . S
C753 C754 1.391 . S
C754 H742 0.950 . S
C754 C750 1.393 . S
C754 C753 1.391 . S
C755 H745 0.950 . S
C755 C756 1.386 . S
C755 C757 1.391 . S
C756 C755 1.386 . S
C756 C760 1.393 . S
C757 H746 0.950 . S
C757 C755 1.391 . S
C757 C758 1.400 . S
C758 C752 1.491 . S
C758 C757 1.400 . S
C758 C759 1.398 . S
C759 H747 0.950 . S
C759 C758 1.398 . S
C759 C760 1.391 . S
C760 H748 0.950 . S
C760 C756 1.393 . S
C760 C759 1.391 . S
H761 C769 0.950 . S
H762 C774 0.950 . S
H763 C771 0.950 . S
H764 C773 0.950 . S
H765 C775 0.950 . S
H766 C777 0.950 . S
H767 C779 0.950 . S
H768 C780 0.950 . S
C769 H761 0.950 . S
C769 C770 1.386 . S
C769 C771 1.391 . S
C770 C769 1.386 . S
C770 C774 1.393 . S
C771 H763 0.950 . S
C771 C769 1.391 . S
C771 C772 1.400 . S
C772 C771 1.400 . S
C772 C773 1.398 . S
C772 C778 1.491 . S
C773 H764 0.950 . S
C773 C772 1.398 . S
C773 C774 1.391 . S
C774 H762 0.950 . S
C774 C770 1.393 . S
C774 C773 1.391 . S
C775 H765 0.950 . S
C775 C776 1.386 . S
C775 C777 1.391 . S
C776 C775 1.386 . S
C776 C780 1.393 . S
C777 H766 0.950 . S
C777 C775 1.391 . S
C777 C778 1.400 . S
C778 C772 1.491 . S
C778 C777 1.400 . S
C778 C779 1.398 . S
C779 H767 0.950 . S
C779 C778 1.398 . S
C779 C780 1.391 . S
C780 H768 0.950 . S
C780 C776 1.393 . S
C780 C779 1.391 . S
H781 C789 0.950 . S
H782 C794 0.950 . S
H783 C791 0.950 . S
H784 C793 0.950 . S
H785 C795 0.950 . S
H786 C797 0.950 . S
H787 C799 0.950 . S
H788 C800 0.950 . S
C789 H781 0.950 . S
C789 C790 1.386 . S
C789 C791 1.391 . S
C790 C789 1.386 . S
C790 C794 1.393 . S
C791 H783 0.950 . S
C791 C789 1.391 . S
C791 C792 1.400 . S
C792 C791 1.400 . S
C792 C793 1.398 . S
C792 C798 1.491 . S
C793 H784 0.950 . S
C793 C792 1.398 . S
C793 C794 1.391 . S
C794 H782 0.950 . S
C794 C790 1.393 . S
C794 C793 1.391 . S
C795 H785 0.950 . S
C795 C796 1.386 . S
C795 C797 1.391 . S
C796 C795 1.386 . S
C796 C800 1.393 . S
C797 H786 0.950 . S
C797 C795 1.391 . S
C797 C798 1.400 . S
C798 C792 1.491 . S
C798 C797 1.400 . S
C798 C799 1.398 . S
C799 H787 0.950 . S
C799 C798 1.398 . S
C799 C800 1.391 . S
C800 H788 0.950 . S
C800 C796 1.393 . S
C800 C799 1.391 . S
H801 C809 0.950 . S
H802 C814 0.950 . S
H803 C811 0.950 . S
H804 C813 0.950 . S
H805 C815 0.950 . S
H806 C817 0.950 . S
H807 C819 0.950 . S
H808 C820 0.950 . S
C809 H801 0.950 . S
C809 C810 1.386 . S
C809 C811 1.391 . S
C810 C809 1.386 . S
C810 C814 1.393 . S
C811 H803 0.950 . S
C811 C809 1.391 . S
C811 C812 1.400 . S
C812 C811 1.400 . S
C812 C813 1.398 . S
C812 C818 1.491 . S
C813 H804 0.950 . S
C813 C812 1.398 . S
C813 C814 1.391 . S
C814 H802 0.950 . S
C814 C810 1.393 . S
C814 C813 1.391 . S
C815 H805 0.950 . S
C815 C816 1.386 . S
C815 C817 1.391 . S
C816 C815 1.386 . S
C816 C820 1.393 . S
C817 H806 0.950 . S
C817 C815 1.391 . S
C817 C818 1.400 . S
C818 C812 1.491 . S
C818 C817 1.400 . S
C818 C819 1.398 . S
C819 H807 0.950 . S
C819 C818 1.398 . S
C819 C820 1.391 . S
C820 H808 0.950 . S
C820 C816 1.393 . S
C820 C819 1.391 . S
H821 C829 0.950 . S
H822 C834 0.950 . S
H823 C831 0.950 . S
H824 C833 0.950 . S
H825 C835 0.950 . S
H826 C837 0.950 . S
H827 C839 0.950 . S
H828 C840 0.950 . S
C829 H821 0.950 . S
C829 C830 1.386 . S
C829 C831 1.391 . S
C830 C829 1.386 . S
C830 C834 1.393 . S
C831 H823 0.950 . S
C831 C829 1.391 . S
C831 C832 1.400 . S
C832 C831 1.400 . S
C832 C833 1.398 . S
C832 C838 1.491 . S
C833 H824 0.950 . S
C833 C832 1.398 . S
C833 C834 1.391 . S
C834 H822 0.950 . S
C834 C830 1.393 . S
C834 C833 1.391 . S
C835 H825 0.950 . S
C835 C836 1.386 . S
C835 C837 1.391 . S
C836 C835 1.386 . S
C836 C840 1.393 . S
C837 H826 0.950 . S
C837 C835 1.391 . S
C837 C838 1.400 . S
C838 C832 1.491 . S
C838 C837 1.400 . S
C838 C839 1.398 . S
C839 H827 0.950 . S
C839 C838 1.398 . S
C839 C840 1.391 . S
C840 H828 0.950 . S
C840 C836 1.393 . S
C840 C839 1.391 . S
H841 C849 0.950 . S
H842 C854 0.950 . S
H843 C851 0.950 . S
H844 C853 0.950 . S
H845 C855 0.950 . S
H846 C857 0.950 . S
H847 C859 0.950 . S
H848 C860 0.950 . S
C849 H841 0.950 . S
C849 C850 1.386 . S
C849 C851 1.391 . S
C850 C849 1.386 . S
C850 C854 1.393 . S
C851 H843 0.950 . S
C851 C849 1.391 . S
C851 C852 1.400 . S
C852 C851 1.400 . S
C852 C853 1.398 . S
C852 C858 1.491 . S
C853 H844 0.950 . S
C853 C852 1.398 . S
C853 C854 1.391 . S
C854 H842 0.950 . S
C854 C850 1.393 . S
C854 C853 1.391 . S
C855 H845 0.950 . S
C855 C856 1.386 . S
C855 C857 1.391 . S
C856 C855 1.386 . S
C856 C860 1.393 . S
C857 H846 0.950 . S
C857 C855 1.391 . S
C857 C858 1.400 . S
C858 C852 1.491 . S
C858 C857 1.400 . S
C858 C859 1.398 . S
C859 H847 0.950 . S
C859 C858 1.398 . S
C859 C860 1.391 . S
C860 H848 0.950 . S
C860 C856 1.393 . S
C860 C859 1.391 . S
C390 C45 1.815 . S
C396 C288 1.692 . S
C410 C84 1.608 . S
C416 C320 1.569 . S
C436 C379 1.918 . S
C430 C126 1.940 . S
C456 C308 1.458 . S
C450 C165 1.486 . S
C470 C222 1.654 . S
C476 C338 1.590 . S
C496 C360 1.264 . S
C490 C276 1.275 . S
C516 C329 1.711 . S
C510 C141 1.744 . S
C530 C180 1.355 . S
C536 C369 1.298 . S
C556 C318 1.596 . S
C550 C237 1.641 . S
C570 C261 1.567 1_556 S
C576 C348 1.542 . S
C590 C30 1.874 1_556 S
C596 C351 1.857 . S
C616 C290 1.653 . S
C610 C69 1.667 . S
C636 C298 1.660 . S
C630 C174 1.724 . S
C656 C339 1.559 . S
C650 C213 1.587 . S
C676 C352 1.941 . S
C670 C285 1.967 1_556 S
C696 C289 1.501 . S
C690 C36 1.522 1_556 S
C716 C349 1.559 . S
C710 C93 1.578 . S
C730 C117 1.290 . S
C736 C350 1.233 . S
C756 C319 1.647 . S
C750 C270 1.728 . S
C776 C380 1.238 . S
C770 C21 1.285 . S
C796 C307 1.571 . S
C790 C78 1.646 . S
C816 C321 1.573 . S
C810 C132 1.608 . S
C830 C189 1.869 . S
C836 C370 1.846 . S
C850 C228 1.684 . S
C856 C317 1.658 . S
