# Generated by pormake.
# Topology eea, (3,6)-cn, num edge types: 1
# Building blocks:
#     Node 0, Type 0, BuildingBlock: BETDAH_clean_linker_0, # of connection points: 3
#     Node 1, Type 0, BuildingBlock: BETDAH_clean_linker_0, # of connection points: 3
#     Node 2, Type 0, BuildingBlock: BETDAH_clean_linker_0, # of connection points: 3
#     Node 3, Type 0, BuildingBlock: BETDAH_clean_linker_0, # of connection points: 3
#     Node 4, Type 0, BuildingBlock: BETDAH_clean_linker_0, # of connection points: 3
#     Node 5, Type 0, BuildingBlock: BETDAH_clean_linker_0, # of connection points: 3
#     Node 6, Type 0, BuildingBlock: BETDAH_clean_linker_0, # of connection points: 3
#     Node 7, Type 0, BuildingBlock: BETDAH_clean_linker_0, # of connection points: 3
#     Node 8, Type 0, BuildingBlock: BETDAH_clean_linker_0, # of connection points: 3
#     Node 9, Type 0, BuildingBlock: BETDAH_clean_linker_0, # of connection points: 3
#     Node 10, Type 0, BuildingBlock: BETDAH_clean_linker_0, # of connection points: 3
#     Node 11, Type 0, BuildingBlock: BETDAH_clean_linker_0, # of connection points: 3
#     Node 12, Type 0, BuildingBlock: BETDAH_clean_linker_0, # of connection points: 3
#     Node 13, Type 0, BuildingBlock: BETDAH_clean_linker_0, # of connection points: 3
#     Node 14, Type 0, BuildingBlock: BETDAH_clean_linker_0, # of connection points: 3
#     Node 15, Type 0, BuildingBlock: BETDAH_clean_linker_0, # of connection points: 3
#     Node 16, Type 0, BuildingBlock: BETDAH_clean_linker_0, # of connection points: 3
#     Node 17, Type 0, BuildingBlock: BETDAH_clean_linker_0, # of connection points: 3
#     Node 18, Type 1, BuildingBlock: KUMBUR_clean_sbu_0, # of connection points: 6
#     Node 19, Type 1, BuildingBlock: KUMBUR_clean_sbu_0, # of connection points: 6
#     Node 20, Type 1, BuildingBlock: KUMBUR_clean_sbu_0, # of connection points: 6
#     Node 21, Type 1, BuildingBlock: KUMBUR_clean_sbu_0, # of connection points: 6
#     Node 22, Type 1, BuildingBlock: KUMBUR_clean_sbu_0, # of connection points: 6
#     Node 23, Type 1, BuildingBlock: KUMBUR_clean_sbu_0, # of connection points: 6
#     Node 24, Type 1, BuildingBlock: KUMBUR_clean_sbu_0, # of connection points: 6
#     Node 25, Type 1, BuildingBlock: KUMBUR_clean_sbu_0, # of connection points: 6
#     Node 26, Type 1, BuildingBlock: KUMBUR_clean_sbu_0, # of connection points: 6
#     Edge 27, Type (0, 1), BuildingBlock: XIVTED_clean_linker_0, # of connection points: 2
#     Edge 28, Type (0, 1), BuildingBlock: XIVTED_clean_linker_0, # of connection points: 2
#     Edge 29, Type (0, 1), BuildingBlock: XIVTED_clean_linker_0, # of connection points: 2
#     Edge 30, Type (0, 1), BuildingBlock: XIVTED_clean_linker_0, # of connection points: 2
#     Edge 31, Type (0, 1), BuildingBlock: XIVTED_clean_linker_0, # of connection points: 2
#     Edge 32, Type (0, 1), BuildingBlock: XIVTED_clean_linker_0, # of connection points: 2
#     Edge 33, Type (0, 1), BuildingBlock: XIVTED_clean_linker_0, # of connection points: 2
#     Edge 34, Type (0, 1), BuildingBlock: XIVTED_clean_linker_0, # of connection points: 2
#     Edge 35, Type (0, 1), BuildingBlock: XIVTED_clean_linker_0, # of connection points: 2
#     Edge 36, Type (0, 1), BuildingBlock: XIVTED_clean_linker_0, # of connection points: 2
#     Edge 37, Type (0, 1), BuildingBlock: XIVTED_clean_linker_0, # of connection points: 2
#     Edge 38, Type (0, 1), BuildingBlock: XIVTED_clean_linker_0, # of connection points: 2
#     Edge 39, Type (0, 1), BuildingBlock: XIVTED_clean_linker_0, # of connection points: 2
#     Edge 40, Type (0, 1), BuildingBlock: XIVTED_clean_linker_0, # of connection points: 2
#     Edge 41, Type (0, 1), BuildingBlock: XIVTED_clean_linker_0, # of connection points: 2
#     Edge 42, Type (0, 1), BuildingBlock: XIVTED_clean_linker_0, # of connection points: 2
#     Edge 43, Type (0, 1), BuildingBlock: XIVTED_clean_linker_0, # of connection points: 2
#     Edge 44, Type (0, 1), BuildingBlock: XIVTED_clean_linker_0, # of connection points: 2
#     Edge 45, Type (0, 1), BuildingBlock: XIVTED_clean_linker_0, # of connection points: 2
#     Edge 46, Type (0, 1), BuildingBlock: XIVTED_clean_linker_0, # of connection points: 2
#     Edge 47, Type (0, 1), BuildingBlock: XIVTED_clean_linker_0, # of connection points: 2
#     Edge 48, Type (0, 1), BuildingBlock: XIVTED_clean_linker_0, # of connection points: 2
#     Edge 49, Type (0, 1), BuildingBlock: XIVTED_clean_linker_0, # of connection points: 2
#     Edge 50, Type (0, 1), BuildingBlock: XIVTED_clean_linker_0, # of connection points: 2
#     Edge 51, Type (0, 1), BuildingBlock: XIVTED_clean_linker_0, # of connection points: 2
#     Edge 52, Type (0, 1), BuildingBlock: XIVTED_clean_linker_0, # of connection points: 2
#     Edge 53, Type (0, 1), BuildingBlock: XIVTED_clean_linker_0, # of connection points: 2
#     Edge 54, Type (0, 1), BuildingBlock: XIVTED_clean_linker_0, # of connection points: 2
#     Edge 55, Type (0, 1), BuildingBlock: XIVTED_clean_linker_0, # of connection points: 2
#     Edge 56, Type (0, 1), BuildingBlock: XIVTED_clean_linker_0, # of connection points: 2
#     Edge 57, Type (0, 1), BuildingBlock: XIVTED_clean_linker_0, # of connection points: 2
#     Edge 58, Type (0, 1), BuildingBlock: XIVTED_clean_linker_0, # of connection points: 2
#     Edge 59, Type (0, 1), BuildingBlock: XIVTED_clean_linker_0, # of connection points: 2
#     Edge 60, Type (0, 1), BuildingBlock: XIVTED_clean_linker_0, # of connection points: 2
#     Edge 61, Type (0, 1), BuildingBlock: XIVTED_clean_linker_0, # of connection points: 2
#     Edge 62, Type (0, 1), BuildingBlock: XIVTED_clean_linker_0, # of connection points: 2
#     Edge 63, Type (0, 1), BuildingBlock: XIVTED_clean_linker_0, # of connection points: 2
#     Edge 64, Type (0, 1), BuildingBlock: XIVTED_clean_linker_0, # of connection points: 2
#     Edge 65, Type (0, 1), BuildingBlock: XIVTED_clean_linker_0, # of connection points: 2
#     Edge 66, Type (0, 1), BuildingBlock: XIVTED_clean_linker_0, # of connection points: 2
#     Edge 67, Type (0, 1), BuildingBlock: XIVTED_clean_linker_0, # of connection points: 2
#     Edge 68, Type (0, 1), BuildingBlock: XIVTED_clean_linker_0, # of connection points: 2
#     Edge 69, Type (0, 1), BuildingBlock: XIVTED_clean_linker_0, # of connection points: 2
#     Edge 70, Type (0, 1), BuildingBlock: XIVTED_clean_linker_0, # of connection points: 2
#     Edge 71, Type (0, 1), BuildingBlock: XIVTED_clean_linker_0, # of connection points: 2
#     Edge 72, Type (0, 1), BuildingBlock: XIVTED_clean_linker_0, # of connection points: 2
#     Edge 73, Type (0, 1), BuildingBlock: XIVTED_clean_linker_0, # of connection points: 2
#     Edge 74, Type (0, 1), BuildingBlock: XIVTED_clean_linker_0, # of connection points: 2
#     Edge 75, Type (0, 1), BuildingBlock: XIVTED_clean_linker_0, # of connection points: 2
#     Edge 76, Type (0, 1), BuildingBlock: XIVTED_clean_linker_0, # of connection points: 2
#     Edge 77, Type (0, 1), BuildingBlock: XIVTED_clean_linker_0, # of connection points: 2
#     Edge 78, Type (0, 1), BuildingBlock: XIVTED_clean_linker_0, # of connection points: 2
#     Edge 79, Type (0, 1), BuildingBlock: XIVTED_clean_linker_0, # of connection points: 2
#     Edge 80, Type (0, 1), BuildingBlock: XIVTED_clean_linker_0, # of connection points: 2
# Relax obj value: 0.023
# Max RMSD: 0.163
# Mean RMSD: 0.118
data_MOF--net-eea--node1-KUMBUR_clean_sbu_0--node2-BETDAH_clean_linker_0--edge1-XIVTED_clean_linker_0
_symmetry_space_group_name_H-M    P1
_symmetry_Int_Tables_number       1
_symmetry_cell_setting            triclinic
loop_
_symmetry_equiv_pos_as_xyz
'x, y, z'
_cell_length_a     54.832481
_cell_length_b     56.098272
_cell_length_c     66.67234
_cell_angle_alpha  89.996254
_cell_angle_beta   90.118381
_cell_angle_gamma 119.88798
loop_
_atom_site_label
_atom_site_type_symbol
_atom_site_fract_x
_atom_site_fract_y
_atom_site_fract_z
_atom_type_partial_charge
H0 H 0.25689 0.07513 0.43783 0.0
H1 H 0.2772 0.15901 0.42836 0.0
H2 H 0.24041 0.10025 0.38078 0.0
C3 C 0.25684 0.09074 0.42829 0.0
C4 C 0.24673 0.08401 0.40853 0.0
C5 C 0.26799 0.11771 0.43566 0.0
C6 C 0.26802 0.13796 0.42317 0.0
C7 C 0.25823 0.13148 0.40334 0.0
C8 C 0.2478 0.10474 0.39614 0.0
N9 N 0.26154 0.15211 0.38965 0.0
C10 C 0.24975 0.16869 0.39256 0.0
H11 H 0.94542 0.18387 0.43634 0.0
H12 H 0.87358 0.10259 0.42954 0.0
H13 H 0.93718 0.13566 0.38398 0.0
C14 C 0.93369 0.16514 0.42769 0.0
C15 C 0.94459 0.16238 0.40931 0.0
C16 C 0.90814 0.14365 0.43525 0.0
C17 C 0.89344 0.1191 0.42409 0.0
C18 C 0.90404 0.11637 0.40554 0.0
C19 C 0.92945 0.13792 0.3984 0.0
N20 N 0.88974 0.09271 0.3932 0.0
C21 C 0.86552 0.06834 0.39809 0.0
H22 H 0.83086 0.76418 0.43831 0.0
H23 H 0.91585 0.77944 0.43251 0.0
H24 H 0.88258 0.81313 0.38956 0.0
C25 C 0.85056 0.7731 0.43019 0.0
C26 C 0.85373 0.78873 0.41293 0.0
C27 C 0.87269 0.76949 0.43749 0.0
C28 C 0.89867 0.78206 0.42716 0.0
C29 C 0.90214 0.79786 0.40979 0.0
C30 C 0.87974 0.80116 0.40301 0.0
N31 N 0.92763 0.81126 0.39861 0.0
C32 C 0.9511 0.80788 0.40019 0.0
H33 H 0.07143 0.24223 0.59678 0.0
H34 H 0.1412 0.22757 0.60323 0.0
H35 H 0.07542 0.19682 0.64737 0.0
C36 C 0.08231 0.23381 0.60521 0.0
C37 C 0.07021 0.21929 0.62304 0.0
C38 C 0.10786 0.23693 0.59781 0.0
C39 C 0.12148 0.22517 0.60861 0.0
C40 C 0.10967 0.21068 0.62657 0.0
C41 C 0.08413 0.20776 0.63345 0.0
N42 N 0.12235 0.19859 0.63837 0.0
C43 C 0.14864 0.20077 0.63577 0.0
H44 H 0.76611 0.83496 0.59291 0.0
H45 H 0.75904 0.90563 0.60964 0.0
H46 H 0.78819 0.8685 0.65245 0.0
C47 C 0.76862 0.85033 0.60382 0.0
C48 C 0.77905 0.8499 0.62302 0.0
C49 C 0.761 0.87019 0.59878 0.0
C50 C 0.76451 0.89004 0.61323 0.0
C51 C 0.77434 0.88927 0.63256 0.0
C52 C 0.78116 0.86911 0.63735 0.0
N53 N 0.77654 0.90767 0.64792 0.0
C54 C 0.78294 0.93457 0.64463 0.0
H55 H 0.17394 0.93109 0.59388 0.0
H56 H 0.09032 0.86162 0.59964 0.0
H57 H 0.12174 0.92578 0.64375 0.0
C58 C 0.15423 0.92054 0.60195 0.0
C59 C 0.15101 0.93166 0.61999 0.0
C60 C 0.13236 0.89555 0.59428 0.0
C61 C 0.10725 0.88088 0.60534 0.0
C62 C 0.10379 0.89196 0.62336 0.0
C63 C 0.12537 0.91728 0.63024 0.0
N64 N 0.07882 0.87916 0.63498 0.0
C65 C 0.05627 0.85267 0.63278 0.0
H66 H 0.92245 0.40669 0.7717 0.0
H67 H 0.94561 0.49119 0.762 0.0
H68 H 0.90172 0.4316 0.71603 0.0
C69 C 0.9221 0.42228 0.76232 0.0
C70 C 0.90986 0.41525 0.7431 0.0
C71 C 0.93485 0.4495 0.76942 0.0
C72 C 0.93502 0.46993 0.75711 0.0
C73 C 0.92332 0.46327 0.73781 0.0
C74 C 0.91071 0.43614 0.73097 0.0
N75 N 0.92722 0.4841 0.72414 0.0
C76 C 0.91347 0.49907 0.72601 0.0
H77 H 0.60682 0.51518 0.77098 0.0
H78 H 0.53499 0.43472 0.76067 0.0
H79 H 0.59956 0.47186 0.71613 0.0
C80 C 0.59541 0.49707 0.76167 0.0
C81 C 0.60665 0.49593 0.74299 0.0
C82 C 0.56947 0.4751 0.76828 0.0
C83 C 0.55484 0.45185 0.7558 0.0
C84 C 0.56583 0.45082 0.73698 0.0
C85 C 0.59152 0.47278 0.73078 0.0
N86 N 0.55161 0.42844 0.72353 0.0
C87 C 0.52824 0.40327 0.72808 0.0
H88 H 0.50061 0.10246 0.77463 0.0
H89 H 0.58264 0.11211 0.76385 0.0
H90 H 0.54384 0.13829 0.71952 0.0
C91 C 0.51887 0.1092 0.7651 0.0
C92 C 0.51938 0.12082 0.74632 0.0
C93 C 0.54156 0.10604 0.7717 0.0
C94 C 0.56512 0.11451 0.75902 0.0
C95 C 0.56598 0.12644 0.74019 0.0
C96 C 0.54316 0.12949 0.73413 0.0
N97 N 0.58895 0.13558 0.7266 0.0
C98 C 0.61411 0.13542 0.72924 0.0
H99 H 0.7384 0.57246 0.92825 0.0
H100 H 0.80994 0.56118 0.93783 0.0
H101 H 0.74507 0.53441 0.98235 0.0
C102 C 0.74968 0.56517 0.9374 0.0
C103 C 0.73828 0.55277 0.95602 0.0
C104 C 0.77551 0.56833 0.93053 0.0
C105 C 0.79019 0.55907 0.94284 0.0
C106 C 0.77907 0.54673 0.96154 0.0
C107 C 0.75325 0.54363 0.96784 0.0
N108 N 0.79287 0.53717 0.97471 0.0
C109 C 0.81841 0.53786 0.97171 0.0
H110 H 0.43164 0.16534 0.92555 0.0
H111 H 0.42442 0.2365 0.93994 0.0
H112 H 0.45739 0.20372 0.98351 0.0
C113 C 0.43444 0.18127 0.93604 0.0
C114 C 0.44627 0.18255 0.95501 0.0
C115 C 0.42636 0.20056 0.93045 0.0
C116 C 0.43097 0.22179 0.9439 0.0
C117 C 0.44219 0.22274 0.96305 0.0
C118 C 0.44943 0.20306 0.96849 0.0
N119 N 0.4448 0.242 0.97782 0.0
C120 C 0.45111 0.26872 0.97384 0.0
H121 H 0.83494 0.26731 0.9245 0.0
H122 H 0.76231 0.18879 0.93829 0.0
H123 H 0.79716 0.25242 0.98289 0.0
C124 C 0.81866 0.25386 0.93486 0.0
C125 C 0.81815 0.26342 0.95424 0.0
C126 C 0.79869 0.22694 0.92887 0.0
C127 C 0.77773 0.20957 0.94261 0.0
C128 C 0.77717 0.21906 0.96208 0.0
C129 C 0.79744 0.24569 0.96769 0.0
N130 N 0.75757 0.2024 0.97695 0.0
C131 C 0.73187 0.17873 0.97369 0.0
H132 H 0.58824 0.74 0.10654 0.0
H133 H 0.60838 0.82367 0.09622 0.0
H134 H 0.57082 0.76393 0.04933 0.0
C135 C 0.58801 0.7554 0.09686 0.0
C136 C 0.57761 0.74829 0.0772 0.0
C137 C 0.59928 0.78252 0.10393 0.0
C138 C 0.5991 0.80251 0.09127 0.0
C139 C 0.58898 0.79561 0.07154 0.0
C140 C 0.57844 0.76874 0.06463 0.0
N141 N 0.59214 0.81598 0.05766 0.0
C142 C 0.57976 0.8321 0.06023 0.0
H143 H 0.27458 0.84771 0.10482 0.0
H144 H 0.20291 0.76703 0.09493 0.0
H145 H 0.26676 0.80436 0.04988 0.0
C146 C 0.26312 0.82958 0.09554 0.0
C147 C 0.27411 0.82851 0.07673 0.0
C148 C 0.23737 0.80752 0.10233 0.0
C149 C 0.22263 0.78421 0.08992 0.0
C150 C 0.23338 0.78319 0.07099 0.0
C151 C 0.25892 0.80527 0.06461 0.0
N152 N 0.21909 0.76072 0.05761 0.0
C153 C 0.19578 0.73549 0.06218 0.0
H154 H 0.16896 0.43635 0.10691 0.0
H155 H 0.25125 0.44655 0.09631 0.0
H156 H 0.21265 0.47301 0.05208 0.0
C157 C 0.18731 0.44328 0.09745 0.0
C158 C 0.18796 0.45517 0.07876 0.0
C159 C 0.21 0.44011 0.10406 0.0
C160 C 0.23369 0.44887 0.09147 0.0
C161 C 0.23467 0.46099 0.07272 0.0
C162 C 0.21185 0.46404 0.06664 0.0
N163 N 0.25782 0.47037 0.05927 0.0
C164 C 0.28292 0.47013 0.06208 0.0
H165 H 0.40487 0.90889 0.2629 0.0
H166 H 0.47534 0.89541 0.27003 0.0
H167 H 0.40975 0.86516 0.31428 0.0
C168 C 0.41598 0.9009 0.27154 0.0
C169 C 0.40407 0.88676 0.28953 0.0
C170 C 0.44161 0.9041 0.26422 0.0
C171 C 0.45554 0.89292 0.27533 0.0
C172 C 0.44395 0.87887 0.29346 0.0
C173 C 0.41831 0.87579 0.30024 0.0
N174 N 0.45698 0.86737 0.30555 0.0
C175 C 0.48339 0.86981 0.30301 0.0
H176 H 0.083 0.49239 0.26379 0.0
H177 H 0.08889 0.57077 0.27539 0.0
H178 H 0.11775 0.53503 0.3194 0.0
C179 C 0.08937 0.51013 0.27337 0.0
C180 C 0.10124 0.511 0.29228 0.0
C181 C 0.08476 0.53158 0.26702 0.0
C182 C 0.0922 0.55407 0.27997 0.0
C183 C 0.10364 0.55481 0.29899 0.0
C184 C 0.10811 0.53348 0.3049 0.0
N185 N 0.11032 0.57617 0.313 0.0
C186 C 0.11615 0.60254 0.30827 0.0
H187 H 0.50892 0.59781 0.26215 0.0
H188 H 0.42145 0.53498 0.25951 0.0
H189 H 0.44854 0.60176 0.30103 0.0
C190 C 0.4876 0.58912 0.26762 0.0
C191 C 0.48184 0.60254 0.28319 0.0
C192 C 0.46602 0.56497 0.25866 0.0
C193 C 0.43834 0.55353 0.26612 0.0
C194 C 0.43234 0.56677 0.28167 0.0
C195 C 0.4539 0.59132 0.2897 0.0
N196 N 0.40456 0.55747 0.28854 0.0
C197 C 0.38411 0.53016 0.29155 0.0
Tb198 Tb 0.48946 0.9835 0.99276 0.0
C199 C 0.54962 0.08148 0.05057 0.0
C200 C 0.59846 0.0935 0.04935 0.0
C201 C 0.58622 0.12881 0.05622 0.0
C202 C 0.56963 0.07392 0.04761 0.0
C203 C 0.55754 0.10887 0.05536 0.0
C204 C 0.60668 0.12113 0.05319 0.0
C205 C 0.50834 0.09419 0.05979 0.0
N206 N 0.52224 0.06153 0.04981 0.0
C207 C 0.50159 0.06729 0.05506 0.0
C208 C 0.53643 0.11517 0.0597 0.0
Tb209 Tb 0.51302 0.01824 0.04108 0.0
N210 N 0.56072 0.047 0.04417 0.0
C211 C 0.57974 0.03795 0.04389 0.0
C212 C 0.61806 0.08456 0.04781 0.0
C213 C 0.60861 0.05659 0.04539 0.0
H214 H 0.47979 0.05131 0.05507 0.0
H215 H 0.62355 0.04934 0.04458 0.0
H216 H 0.62873 0.13655 0.05439 0.0
H217 H 0.49187 0.09874 0.06348 0.0
H218 H 0.57299 0.01649 0.04188 0.0
H219 H 0.37865 0.95152 0.98973 0.0
H220 H 0.64042 0.09894 0.04899 0.0
H221 H 0.52323 0.95121 0.97816 0.0
H222 H 0.42907 0.98461 0.9927 0.0
H223 H 0.51158 0.90423 0.96879 0.0
H224 H 0.59279 0.15004 0.05969 0.0
H225 H 0.36225 0.90222 0.98418 0.0
H226 H 0.3744 0.86515 0.97774 0.0
H227 H 0.54162 0.13597 0.06345 0.0
H228 H 0.41067 0.85223 0.97192 0.0
N229 N 0.4418 0.95452 0.98949 0.0
C230 C 0.42256 0.96328 0.99023 0.0
C231 C 0.38456 0.9167 0.98551 0.0
C232 C 0.40437 0.90808 0.98354 0.0
C233 C 0.39375 0.94451 0.98858 0.0
C234 C 0.43313 0.92777 0.9855 0.0
H235 H 0.46194 0.86678 0.96823 0.0
N236 N 0.48065 0.94056 0.98341 0.0
C237 C 0.49497 0.90849 0.97266 0.0
C238 C 0.45334 0.92052 0.98231 0.0
C239 C 0.50148 0.93516 0.97795 0.0
C240 C 0.46695 0.8874 0.97241 0.0
C241 C 0.44565 0.89335 0.97697 0.0
O242 O 0.51248 0.9941 0.96577 0.0
O243 O 0.52261 0.01609 0.01005 0.0
O244 O 0.51 0.04694 0.02031 0.0
O245 O 0.47812 0.0157 0.99711 0.0
O246 O 0.53424 0.99686 0.9895 0.0
O247 O 0.4752 0.99727 0.96837 0.0
O248 O 0.49123 0.00967 0.06857 0.0
O249 O 0.47985 0.98565 0.02384 0.0
O250 O 0.49247 0.95462 0.01322 0.0
O251 O 0.52377 0.9855 0.03694 0.0
O252 O 0.46829 0.00483 0.04449 0.0
O253 O 0.52662 0.00351 0.06522 0.0
C254 C 0.54378 0.01639 1.00246 0.0
C255 C 0.48728 0.98923 0.93592 0.0
C256 C 0.49239 0.99686 0.89954 0.0
C257 C 0.49894 0.00706 0.91937 0.0
C258 C 0.47377 0.96857 0.89667 0.0
C259 C 0.46872 0.96119 0.93259 0.0
C260 C 0.46202 0.95098 0.91306 0.0
C261 C 0.49165 0.04047 1.00543 0.0
C262 C 0.49529 3e-05 0.95651 0.0
C263 C 0.41704 0.8733 0.97582 0.0
C264 C 0.3964 0.88065 0.97913 0.0
C265 C 0.4587 0.98529 0.03154 0.0
C266 C 0.51777 0.01429 0.09776 0.0
C267 C 0.50609 0.99783 0.115 0.0
C268 C 0.51497 0.00909 0.13439 0.0
C269 C 0.53597 0.0369 0.13613 0.0
C270 C 0.53866 0.04189 0.10001 0.0
C271 C 0.54771 0.05306 0.11909 0.0
C272 C 0.51055 0.9609 0.02826 0.0
C273 C 0.50781 0.00266 0.07755 0.0
H274 H 0.51346 0.02872 0.92194 0.0
H275 H 0.46791 0.96005 0.8817 0.0
H276 H 0.45949 0.94721 0.94505 0.0
H277 H 0.44764 0.92929 0.9106 0.0
H278 H 0.48979 0.97652 0.11331 0.0
H279 H 0.54355 0.04614 0.15074 0.0
H280 H 0.54796 0.05481 0.08705 0.0
H281 H 0.56389 0.07439 0.12068 0.0
Tb282 Tb 0.02478 0.50231 0.99633 0.0
C283 C 0.91942 0.46308 0.04864 0.0
C284 C 0.90603 0.49787 0.04495 0.0
C285 C 0.8703 0.45055 0.05172 0.0
C286 C 0.9267 0.48991 0.04488 0.0
C287 C 0.89125 0.44311 0.05254 0.0
C288 C 0.87769 0.47792 0.04792 0.0
C289 C 0.90704 0.41068 0.05936 0.0
N290 N 0.94034 0.45689 0.04945 0.0
C291 C 0.93469 0.43129 0.05547 0.0
C292 C 0.88515 0.41652 0.05766 0.0
Tb293 Tb 0.98488 0.49168 0.04214 0.0
N294 N 0.95431 0.5085 0.04228 0.0
C295 C 0.96289 0.53593 0.04121 0.0
C296 C 0.91458 0.52573 0.04266 0.0
C297 C 0.94319 0.54488 0.04109 0.0
H298 H 0.95137 0.42645 0.0567 0.0
H299 H 0.95011 0.56655 0.0397 0.0
H300 H 0.86145 0.48356 0.04782 0.0
H301 H 0.90262 0.39031 0.06365 0.0
H302 H 0.98484 0.55109 0.03985 0.0
H303 H 0.0583 0.42644 0.99847 0.0
H304 H 0.89937 0.53271 0.04256 0.0
H305 H 0.05941 0.56795 0.98297 0.0
H306 H 0.02396 0.44237 0.99791 0.0
H307 H 0.10869 0.6041 0.97745 0.0
H308 H 0.84848 0.43547 0.05449 0.0
H309 H 0.10924 0.46 0.99685 0.0
H310 H 0.14775 0.50918 0.9929 0.0
H311 H 0.86377 0.40056 0.06076 0.0
H312 H 0.16153 0.55767 0.98711 0.0
N313 N 0.05489 0.48494 0.99637 0.0
C314 C 0.04601 0.45742 0.99706 0.0
C315 C 0.09421 0.46719 0.99655 0.0
C316 C 0.10314 0.49519 0.99472 0.0
C317 C 0.06549 0.4482 0.99741 0.0
C318 C 0.08269 0.50343 0.99452 0.0
H319 H 0.14705 0.59324 0.98102 0.0
N320 N 0.06976 0.53702 0.9901 0.0
C321 C 0.10385 0.58348 0.9814 0.0
C322 C 0.09042 0.5305 0.99124 0.0
C323 C 0.07593 0.56291 0.98446 0.0
C324 C 0.12545 0.5773 0.98348 0.0
C325 C 0.11884 0.55041 0.98814 0.0
O326 O 0.02016 0.51507 0.96758 0.0
O327 O 0.98947 0.50203 0.01076 0.0
O328 O 0.9576 0.45951 0.02098 0.0
O329 O 0.99137 0.45897 0.99996 0.0
O330 O 0.00989 0.53146 0.98973 0.0
O331 O 0.01307 0.47413 0.97248 0.0
O332 O 0.99122 0.48016 0.07089 0.0
O333 O 0.01987 0.4916 0.02758 0.0
O334 O 0.05184 0.53343 0.01798 0.0
O335 O 0.0181 0.5352 0.03814 0.0
O336 O 0.99968 0.4625 0.04882 0.0
O337 O 0.99709 0.52056 0.06555 0.0
C338 C 0.98887 0.52149 1.00177 0.0
C339 C 0.02996 0.49398 0.94068 0.0
C340 C 0.03042 0.49103 0.90413 0.0
C341 C 0.01616 0.48932 0.9221 0.0
C342 C 0.0588 0.49779 0.90507 0.0
C343 C 0.05818 0.50055 0.94125 0.0
C344 C 0.07252 0.50251 0.92353 0.0
C345 C 0.96536 0.44764 0.00715 0.0
C346 C 0.01458 0.4919 0.95924 0.0
C347 C 0.13953 0.54265 0.98926 0.0
C348 C 0.13168 0.51505 0.99255 0.0
C349 C 0.02049 0.47217 0.0366 0.0
C350 C 0.98306 0.50205 0.09807 0.0
C351 C 0.99843 0.50733 0.11599 0.0
C352 C 0.98569 0.50576 0.13466 0.0
C353 C 0.95723 0.49883 0.135 0.0
C354 C 0.95478 0.49526 0.09876 0.0
C355 C 0.94197 0.49367 0.11716 0.0
C356 C 0.04425 0.5459 0.03135 0.0
C357 C 0.99694 0.50354 0.0789 0.0
H358 H 0.99422 0.48388 0.9217 0.0
H359 H 0.07049 0.49964 0.89153 0.0
H360 H 0.06913 0.5041 0.95532 0.0
H361 H 0.09435 0.50769 0.9241 0.0
H362 H 0.0204 0.51292 0.11532 0.0
H363 H 0.94658 0.49697 0.14906 0.0
H364 H 0.94263 0.49118 0.08515 0.0
H365 H 0.92008 0.48829 0.11761 0.0
Tb366 Tb 0.52397 0.50509 0.03864 0.0
C367 C 0.46206 0.54281 0.98091 0.0
C368 C 0.41323 0.50857 0.98542 0.0
C369 C 0.4258 0.55505 0.97567 0.0
C370 C 0.44201 0.51653 0.98597 0.0
C371 C 0.45426 0.56221 0.97502 0.0
C372 C 0.40528 0.52823 0.9809 0.0
C373 C 0.50263 0.59275 0.9658 0.0
N374 N 0.48913 0.54857 0.98012 0.0
C375 C 0.50922 0.57268 0.97175 0.0
C376 C 0.47511 0.58771 0.96781 0.0
Tb377 Tb 0.49852 0.51509 0.99079 0.0
N378 N 0.45068 0.49818 0.98975 0.0
C379 C 0.43123 0.4708 0.9913 0.0
C380 C 0.39336 0.48092 0.98853 0.0
C381 C 0.40241 0.46187 0.99108 0.0
H382 H 0.53059 0.57689 0.97021 0.0
H383 H 0.38721 0.44028 0.99296 0.0
H384 H 0.38329 0.52262 0.98066 0.0
H385 H 0.5188 0.6121 0.95971 0.0
H386 H 0.43764 0.45568 0.99342 0.0
H387 H 0.63409 0.58333 0.03916 0.0
H388 H 0.37103 0.47394 0.9883 0.0
H389 H 0.4925 0.44002 0.05321 0.0
H390 H 0.58325 0.56603 0.03773 0.0
H391 H 0.50598 0.40513 0.06119 0.0
H392 H 0.41936 0.56976 0.97145 0.0
H393 H 0.65204 0.55097 0.04321 0.0
H394 H 0.6416 0.5024 0.04878 0.0
H395 H 0.47002 0.6032 0.96309 0.0
H396 H 0.60667 0.45376 0.05481 0.0
N397 N 0.5719 0.52383 0.04045 0.0
C398 C 0.59049 0.55149 0.03959 0.0
C399 C 0.62957 0.54316 0.0426 0.0
C400 C 0.61046 0.51506 0.04462 0.0
C401 C 0.61951 0.56149 0.04037 0.0
C402 C 0.58145 0.50601 0.04361 0.0
H403 H 0.55598 0.41733 0.05978 0.0
N404 N 0.53438 0.47145 0.04675 0.0
C405 C 0.52194 0.42575 0.05708 0.0
C406 C 0.56196 0.47879 0.04686 0.0
C407 C 0.51439 0.44559 0.0526 0.0
C408 C 0.55018 0.43269 0.05621 0.0
C409 C 0.57067 0.45963 0.05139 0.0
O410 O 0.50302 0.492 0.06633 0.0
O411 O 0.49023 0.50593 0.0224 0.0
O412 O 0.5054 0.55006 0.00926 0.0
O413 O 0.53364 0.54802 0.03504 0.0
O414 O 0.47924 0.47536 0.04297 0.0
O415 O 0.53928 0.53229 0.06324 0.0
O416 O 0.51912 0.52452 0.96282 0.0
O417 O 0.53249 0.51528 0.00737 0.0
O418 O 0.52049 0.47319 0.01812 0.0
O419 O 0.48681 0.47187 0.99612 0.0
O420 O 0.54334 0.54449 0.98594 0.0
O421 O 0.482 0.4855 0.96777 0.0
C422 C 0.46929 0.48604 0.0307 0.0
C423 C 0.53059 0.51145 0.09531 0.0
C424 C 0.52933 0.51385 0.132 0.0
C425 C 0.5204 0.51739 0.11289 0.0
C426 C 0.5484 0.50393 0.13306 0.0
C427 C 0.54985 0.50203 0.09685 0.0
C428 C 0.5586 0.49821 0.11563 0.0
C429 C 0.52235 0.56062 0.02498 0.0
C430 C 0.5205 0.51465 0.07553 0.0
C431 C 0.59951 0.46821 0.05156 0.0
C432 C 0.61939 0.4959 0.04815 0.0
C433 C 0.5535 0.53495 0.99899 0.0
C434 C 0.48996 0.5033 0.93486 0.0
C435 C 0.50138 0.49842 0.91752 0.0
C436 C 0.49148 0.50008 0.89831 0.0
C437 C 0.47011 0.50697 0.89684 0.0
C438 C 0.46856 0.50992 0.93299 0.0
C439 C 0.45877 0.51181 0.91407 0.0
C440 C 0.50111 0.46085 1.00404 0.0
C441 C 0.50063 0.50142 0.95472 0.0
H442 H 0.50584 0.52509 0.11162 0.0
H443 H 0.55529 0.5003 0.14739 0.0
H444 H 0.55806 0.49752 0.0836 0.0
H445 H 0.5733 0.49068 0.11668 0.0
H446 H 0.51766 0.49293 0.91904 0.0
H447 H 0.46233 0.50895 0.88236 0.0
H448 H 0.45937 0.51356 0.94611 0.0
H449 H 0.44235 0.51708 0.91274 0.0
Tb450 Tb 0.16099 0.32135 0.32655 0.0
C451 C 0.21488 0.41774 0.38677 0.0
C452 C 0.26447 0.43333 0.38382 0.0
C453 C 0.24917 0.46557 0.3935 0.0
C454 C 0.2361 0.41237 0.38233 0.0
C455 C 0.22106 0.44416 0.39304 0.0
C456 C 0.27087 0.46016 0.38884 0.0
C457 C 0.17166 0.42542 0.40009 0.0
N458 N 0.18817 0.39638 0.38639 0.0
C459 C 0.16666 0.3996 0.39368 0.0
C460 C 0.19892 0.44793 0.39942 0.0
Tb461 Tb 0.18161 0.35486 0.37538 0.0
N462 N 0.22889 0.38607 0.37801 0.0
C463 C 0.24934 0.37893 0.37668 0.0
C464 C 0.28545 0.42642 0.381 0.0
C465 C 0.27782 0.399 0.37777 0.0
H466 H 0.14547 0.38244 0.39418 0.0
H467 H 0.29386 0.39327 0.37607 0.0
H468 H 0.29253 0.47663 0.38984 0.0
H469 H 0.15447 0.42794 0.40545 0.0
H470 H 0.24401 0.35792 0.3741 0.0
H471 H 0.04955 0.28567 0.32061 0.0
H472 H 0.30751 0.4419 0.38194 0.0
H473 H 0.1975 0.2914 0.31323 0.0
H474 H 0.09946 0.32015 0.32453 0.0
H475 H 0.18803 0.24492 0.30411 0.0
H476 H 0.25438 0.48612 0.39804 0.0
H477 H 0.03516 0.23673 0.31549 0.0
H478 H 0.04942 0.20097 0.31002 0.0
H479 H 0.20277 0.46789 0.40443 0.0
H480 H 0.0872 0.18983 0.30537 0.0
N481 N 0.11379 0.29115 0.32239 0.0
C482 C 0.09379 0.29897 0.32231 0.0
C483 C 0.05724 0.25181 0.31727 0.0
C484 C 0.07788 0.24418 0.31607 0.0
C485 C 0.06529 0.27942 0.32009 0.0
C486 C 0.10629 0.26462 0.31859 0.0
H487 H 0.13903 0.20621 0.30281 0.0
N488 N 0.15433 0.27907 0.31759 0.0
C489 C 0.17075 0.24838 0.30753 0.0
C490 C 0.12736 0.25834 0.31605 0.0
C491 C 0.17604 0.27472 0.31266 0.0
C492 C 0.14308 0.22657 0.30686 0.0
C493 C 0.12091 0.23148 0.31084 0.0
O494 O 0.18457 0.33187 0.29982 0.0
O495 O 0.19225 0.35498 0.34421 0.0
O496 O 0.17462 0.38265 0.35615 0.0
O497 O 0.14801 0.35246 0.33022 0.0
O498 O 0.20644 0.33748 0.32413 0.0
O499 O 0.14663 0.33407 0.30164 0.0
O500 O 0.15892 0.34218 0.40255 0.0
O501 O 0.1498 0.32199 0.35743 0.0
O502 O 0.16435 0.29284 0.34718 0.0
O503 O 0.19532 0.3244 0.37052 0.0
O504 O 0.13648 0.33953 0.37826 0.0
O505 O 0.19726 0.34129 0.39899 0.0
C506 C 0.21444 0.35727 0.33678 0.0
C507 C 0.15974 0.32602 0.26957 0.0
C508 C 0.1644 0.33353 0.23316 0.0
C509 C 0.1705 0.3439 0.25297 0.0
C510 C 0.14715 0.305 0.23037 0.0
C511 C 0.14255 0.29774 0.2663 0.0
C512 C 0.13631 0.28733 0.24681 0.0
C513 C 0.15818 0.37617 0.34003 0.0
C514 C 0.16716 0.33712 0.29013 0.0
C515 C 0.09263 0.21069 0.30918 0.0
C516 C 0.07113 0.21702 0.31183 0.0
C517 C 0.128 0.32069 0.36481 0.0
C518 C 0.18598 0.3487 0.43177 0.0
C519 C 0.17413 0.33166 0.44873 0.0
C520 C 0.18204 0.34251 0.46832 0.0
C521 C 0.2022 0.37053 0.47055 0.0
C522 C 0.20603 0.3765 0.43453 0.0
C523 C 0.21407 0.38729 0.45379 0.0
C524 C 0.1827 0.29969 0.36206 0.0
C525 C 0.17726 0.33745 0.41132 0.0
H526 H 0.18396 0.36577 0.25549 0.0
H527 H 0.14164 0.29632 0.21543 0.0
H528 H 0.134 0.2837 0.27879 0.0
H529 H 0.12298 0.26545 0.24441 0.0
H530 H 0.1585 0.31019 0.44665 0.0
H531 H 0.20909 0.37949 0.48531 0.0
H532 H 0.21555 0.38985 0.42179 0.0
H533 H 0.22962 0.40877 0.45576 0.0
Tb534 Tb 0.69084 0.83749 0.33029 0.0
C535 C 0.5867 0.79757 0.38447 0.0
C536 C 0.57252 0.83174 0.38033 0.0
C537 C 0.53761 0.78467 0.38862 0.0
C538 C 0.59344 0.8241 0.38009 0.0
C539 C 0.55886 0.77763 0.38932 0.0
C540 C 0.54444 0.81171 0.3841 0.0
C541 C 0.57569 0.74625 0.397 0.0
N542 N 0.60791 0.79181 0.3852 0.0
C543 C 0.60298 0.76679 0.39207 0.0
C544 C 0.55345 0.75156 0.39535 0.0
Tb545 Tb 0.6519 0.82652 0.37657 0.0
N546 N 0.62085 0.8428 0.37684 0.0
C547 C 0.62905 0.8701 0.3753 0.0
C548 C 0.58063 0.85939 0.37746 0.0
C549 C 0.60909 0.87872 0.37525 0.0
H550 H 0.61992 0.76233 0.39331 0.0
H551 H 0.61569 0.90027 0.37345 0.0
H552 H 0.52801 0.81709 0.38414 0.0
H553 H 0.57184 0.72632 0.40203 0.0
H554 H 0.65089 0.88539 0.37349 0.0
H555 H 0.72374 0.76113 0.33068 0.0
H556 H 0.56523 0.86612 0.37746 0.0
H557 H 0.72567 0.90332 0.31748 0.0
H558 H 0.68958 0.77731 0.33071 0.0
H559 H 0.77505 0.93944 0.31214 0.0
H560 H 0.51602 0.76959 0.39209 0.0
H561 H 0.77473 0.79454 0.32929 0.0
H562 H 0.81344 0.84375 0.32595 0.0
H563 H 0.53235 0.73565 0.39924 0.0
H564 H 0.82748 0.89243 0.32086 0.0
N565 N 0.7207 0.81986 0.32975 0.0
C566 C 0.71167 0.7923 0.32999 0.0
C567 C 0.75979 0.80185 0.32926 0.0
C568 C 0.76887 0.82992 0.3279 0.0
C569 C 0.73103 0.78294 0.32999 0.0
C570 C 0.74854 0.83831 0.32802 0.0
H571 H 0.81324 0.9283 0.31538 0.0
N572 N 0.73586 0.87219 0.32424 0.0
C573 C 0.77011 0.91874 0.31587 0.0
C574 C 0.75643 0.86551 0.32516 0.0
C575 C 0.74215 0.8982 0.31883 0.0
C576 C 0.79162 0.91239 0.31778 0.0
C577 C 0.78488 0.88538 0.32213 0.0
O578 O 0.68644 0.8511 0.30181 0.0
O579 O 0.65544 0.83657 0.34511 0.0
O580 O 0.62422 0.79324 0.35622 0.0
O581 O 0.6572 0.79413 0.33352 0.0
O582 O 0.67565 0.86653 0.32437 0.0
O583 O 0.67913 0.80995 0.30604 0.0
O584 O 0.6603 0.81622 0.40513 0.0
O585 O 0.68655 0.82654 0.36143 0.0
O586 O 0.71822 0.86828 0.35203 0.0
O587 O 0.68473 0.87015 0.3723 0.0
O588 O 0.66694 0.79744 0.38276 0.0
O589 O 0.66419 0.8558 0.39972 0.0
C590 C 0.65453 0.85601 0.33634 0.0
C591 C 0.69622 0.83058 0.2745 0.0
C592 C 0.69647 0.827 0.23801 0.0
C593 C 0.68214 0.82502 0.25599 0.0
C594 C 0.72519 0.83498 0.23885 0.0
C595 C 0.72479 0.83834 0.27498 0.0
C596 C 0.73919 0.84061 0.25724 0.0
C597 C 0.63162 0.78209 0.34158 0.0
C598 C 0.68078 0.82811 0.2931 0.0
C599 C 0.80545 0.87744 0.32296 0.0
C600 C 0.79745 0.84973 0.32585 0.0
C601 C 0.68735 0.80705 0.3702 0.0
C602 C 0.65219 0.83784 0.4325 0.0
C603 C 0.66849 0.84436 0.45006 0.0
C604 C 0.65636 0.84266 0.469 0.0
C605 C 0.62753 0.83428 0.46998 0.0
C606 C 0.62359 0.8297 0.43383 0.0
C607 C 0.61135 0.82793 0.4525 0.0
C608 C 0.71085 0.8808 0.3655 0.0
C609 C 0.66545 0.83947 0.41304 0.0
H610 H 0.65995 0.81865 0.25565 0.0
H611 H 0.7369 0.83705 0.22528 0.0
H612 H 0.73596 0.84259 0.28898 0.0
H613 H 0.76128 0.84671 0.25774 0.0
H614 H 0.6907 0.85104 0.44887 0.0
H615 H 0.61732 0.83222 0.48427 0.0
H616 H 0.61074 0.82472 0.42051 0.0
H617 H 0.58921 0.82147 0.45345 0.0
Tb618 Tb 0.18878 0.83855 0.37164 0.0
C619 C 0.12881 0.87784 0.31353 0.0
C620 C 0.07982 0.84395 0.3178 0.0
C621 C 0.09296 0.89059 0.30811 0.0
C622 C 0.10852 0.85161 0.31847 0.0
C623 C 0.12135 0.89748 0.30761 0.0
C624 C 0.07219 0.86382 0.31324 0.0
C625 C 0.16992 0.92775 0.29873 0.0
N626 N 0.1558 0.88335 0.31289 0.0
C627 C 0.17618 0.90747 0.30471 0.0
C628 C 0.14246 0.92294 0.30055 0.0
Tb629 Tb 0.16463 0.84952 0.3236 0.0
N630 N 0.11688 0.83305 0.32231 0.0
C631 C 0.09722 0.80574 0.32385 0.0
C632 C 0.05971 0.81636 0.32089 0.0
C633 C 0.06846 0.79709 0.32353 0.0
H634 H 0.19751 0.91149 0.30333 0.0
H635 H 0.05308 0.77555 0.32541 0.0
H636 H 0.05027 0.85844 0.3129 0.0
H637 H 0.1863 0.94708 0.29278 0.0
H638 H 0.1034 0.79046 0.32602 0.0
H639 H 0.29928 0.91564 0.37372 0.0
H640 H 0.03744 0.8096 0.32057 0.0
H641 H 0.15596 0.7732 0.38559 0.0
H642 H 0.24863 0.89904 0.3714 0.0
H643 H 0.16848 0.73775 0.39397 0.0
H644 H 0.08677 0.90547 0.30387 0.0
H645 H 0.31638 0.88269 0.37838 0.0
H646 H 0.30501 0.83388 0.38409 0.0
H647 H 0.13763 0.93861 0.29581 0.0
H648 H 0.26936 0.78535 0.38967 0.0
N649 N 0.23656 0.85666 0.37419 0.0
C650 C 0.2555 0.88424 0.3735 0.0
C651 C 0.29399 0.87519 0.37736 0.0
C652 C 0.2745 0.84716 0.3792 0.0
C653 C 0.28441 0.89384 0.37479 0.0
C654 C 0.24561 0.83851 0.37767 0.0
H655 H 0.21834 0.74935 0.39367 0.0
N656 N 0.19826 0.80438 0.38002 0.0
C657 C 0.18479 0.75836 0.39017 0.0
C658 C 0.22572 0.81136 0.3807 0.0
C659 C 0.17779 0.77852 0.38546 0.0
C660 C 0.21295 0.76496 0.38993 0.0
C661 C 0.23389 0.79186 0.38548 0.0
O662 O 0.16676 0.82539 0.39891 0.0
O663 O 0.15564 0.84012 0.35511 0.0
O664 O 0.1718 0.88456 0.34214 0.0
O665 O 0.19923 0.88172 0.36817 0.0
O666 O 0.14384 0.80906 0.37531 0.0
O667 O 0.20385 0.8653 0.39649 0.0
O668 O 0.18547 0.85901 0.29571 0.0
O669 O 0.19807 0.84917 0.3405 0.0
O670 O 0.18568 0.80696 0.35103 0.0
O671 O 0.1525 0.80613 0.32877 0.0
O672 O 0.20963 0.8786 0.31914 0.0
O673 O 0.14827 0.82001 0.30052 0.0
C674 C 0.13435 0.82026 0.36311 0.0
C675 C 0.19306 0.84403 0.42846 0.0
C676 C 0.18845 0.84477 0.46495 0.0
C677 C 0.18125 0.84911 0.44551 0.0
C678 C 0.20772 0.83527 0.46699 0.0
C679 C 0.21236 0.83477 0.43088 0.0
C680 C 0.2196 0.8304 0.45006 0.0
C681 C 0.18845 0.89473 0.35806 0.0
C682 C 0.18428 0.84776 0.40838 0.0
C683 C 0.26262 0.80006 0.38621 0.0
C684 C 0.28291 0.82768 0.38304 0.0
C685 C 0.21934 0.8688 0.33233 0.0
C686 C 0.15657 0.83778 0.26761 0.0
C687 C 0.16757 0.83211 0.25037 0.0
C688 C 0.15765 0.83354 0.23112 0.0
C689 C 0.13673 0.84102 0.22948 0.0
C690 C 0.13562 0.84499 0.26557 0.0
C691 C 0.12585 0.84667 0.24659 0.0
C692 C 0.16653 0.79488 0.33678 0.0
C693 C 0.16705 0.83592 0.28755 0.0
H694 H 0.16614 0.85606 0.44359 0.0
H695 H 0.21402 0.83206 0.4817 0.0
H696 H 0.22177 0.83088 0.418 0.0
H697 H 0.23454 0.82325 0.45183 0.0
H698 H 0.1835 0.82618 0.25202 0.0
H699 H 0.12897 0.84282 0.21494 0.0
H700 H 0.12675 0.84922 0.27861 0.0
H701 H 0.10976 0.85239 0.24513 0.0
Tb702 Tb 0.8226 0.64987 0.659 0.0
C703 C 0.8814 0.74814 0.71699 0.0
C704 C 0.93045 0.76102 0.71529 0.0
C705 C 0.91747 0.79569 0.7226 0.0
C706 C 0.90171 0.74107 0.71376 0.0
C707 C 0.88891 0.7754 0.72189 0.0
C708 C 0.93824 0.78851 0.71928 0.0
C709 C 0.83958 0.75992 0.72662 0.0
N710 N 0.85416 0.72787 0.71631 0.0
C711 C 0.83325 0.73317 0.72176 0.0
C712 C 0.86752 0.78121 0.72645 0.0
Tb713 Tb 0.84556 0.68488 0.70727 0.0
N714 N 0.8932 0.71427 0.71013 0.0
C715 C 0.91262 0.70573 0.7094 0.0
C716 C 0.95041 0.7526 0.71333 0.0
C717 C 0.94141 0.72475 0.71067 0.0
H718 H 0.81157 0.71696 0.72184 0.0
H719 H 0.95664 0.7179 0.70952 0.0
H720 H 0.9602 0.8042 0.72032 0.0
H721 H 0.8229 0.76409 0.73047 0.0
H722 H 0.90626 0.68439 0.7072 0.0
H723 H 0.71152 0.61658 0.65532 0.0
H724 H 0.9727 0.76727 0.71433 0.0
H725 H 0.85709 0.61813 0.64497 0.0
H726 H 0.76185 0.65021 0.65815 0.0
H727 H 0.84607 0.57109 0.63621 0.0
H728 H 0.92371 0.81682 0.72616 0.0
H729 H 0.69572 0.56723 0.65069 0.0
H730 H 0.70851 0.53042 0.64517 0.0
H731 H 0.87239 0.8019 0.73029 0.0
H732 H 0.74523 0.51797 0.63986 0.0
N733 N 0.77505 0.62039 0.65581 0.0
C734 C 0.75557 0.62886 0.6561 0.0
C735 C 0.71798 0.58195 0.65198 0.0
C736 C 0.73805 0.5736 0.65044 0.0
C737 C 0.72683 0.60978 0.65452 0.0
C738 C 0.76672 0.59359 0.65232 0.0
H739 H 0.79666 0.53312 0.63613 0.0
N740 N 0.8144 0.60692 0.65035 0.0
C741 C 0.82929 0.57513 0.64001 0.0
C742 C 0.78718 0.58659 0.64946 0.0
C743 C 0.83545 0.60181 0.64495 0.0
C744 C 0.80139 0.55374 0.64004 0.0
C745 C 0.77985 0.5594 0.64448 0.0
O746 O 0.84529 0.65958 0.63189 0.0
O747 O 0.85518 0.68291 0.67623 0.0
O748 O 0.8415 0.71309 0.68671 0.0
O749 O 0.81089 0.68198 0.66278 0.0
O750 O 0.86772 0.66446 0.65576 0.0
O751 O 0.8081 0.66293 0.63431 0.0
O752 O 0.82353 0.67553 0.73469 0.0
O753 O 0.81268 0.65204 0.69 0.0
O754 O 0.82601 0.62143 0.67972 0.0
O755 O 0.8573 0.65288 0.70309 0.0
O756 O 0.80079 0.67118 0.71048 0.0
O757 O 0.8595 0.67032 0.73132 0.0
C758 C 0.87675 0.6841 0.66862 0.0
C759 C 0.81928 0.65309 0.60217 0.0
C760 C 0.82038 0.65869 0.56558 0.0
C761 C 0.82843 0.67013 0.58502 0.0
C762 C 0.80352 0.62993 0.56375 0.0
C763 C 0.80222 0.62462 0.59979 0.0
C764 C 0.79452 0.61314 0.5807 0.0
C765 C 0.82363 0.70656 0.6715 0.0
C766 C 0.82792 0.6651 0.62242 0.0
C767 C 0.75133 0.53906 0.64348 0.0
C768 C 0.73043 0.54614 0.64649 0.0
C769 C 0.79143 0.65167 0.69753 0.0
C770 C 0.84976 0.67977 0.76399 0.0
C771 C 0.8392 0.66223 0.78081 0.0
C772 C 0.84836 0.67247 0.80042 0.0
C773 C 0.868 0.70064 0.80277 0.0
C774 C 0.86937 0.70765 0.76684 0.0
C775 C 0.87835 0.71798 0.78613 0.0
C776 C 0.84427 0.62813 0.69467 0.0
C777 C 0.8403 0.66873 0.74359 0.0
H778 H 0.84135 0.69219 0.58685 0.0
H779 H 0.7974 0.62028 0.54913 0.0
H780 H 0.79493 0.61123 0.61267 0.0
H781 H 0.78152 0.59109 0.57901 0.0
H782 H 0.82424 0.6406 0.77856 0.0
H783 H 0.87514 0.70944 0.81754 0.0
H784 H 0.87774 0.72142 0.75418 0.0
H785 H 0.89341 0.73959 0.78821 0.0
Tb786 Tb 0.35729 0.17037 0.6628 0.0
C787 C 0.25285 0.12994 0.71679 0.0
C788 C 0.23809 0.1636 0.71215 0.0
C789 C 0.20361 0.11654 0.72082 0.0
C790 C 0.25926 0.15628 0.71209 0.0
C791 C 0.22513 0.10987 0.72178 0.0
C792 C 0.21009 0.14338 0.71597 0.0
C793 C 0.2426 0.07924 0.73027 0.0
N794 N 0.27432 0.12456 0.71779 0.0
C795 C 0.26976 0.09988 0.72513 0.0
C796 C 0.22009 0.0841 0.72829 0.0
Tb797 Tb 0.3181 0.15945 0.70897 0.0
N798 N 0.28662 0.1752 0.70891 0.0
C799 C 0.29452 0.20243 0.70735 0.0
C800 C 0.2459 0.19116 0.70915 0.0
C801 C 0.27431 0.21073 0.7071 0.0
H802 H 0.2869 0.09574 0.72663 0.0
H803 H 0.28068 0.23222 0.70524 0.0
H804 H 0.19348 0.14851 0.71586 0.0
H805 H 0.23905 0.05957 0.73568 0.0
H806 H 0.31632 0.2179 0.70564 0.0
H807 H 0.39046 0.09422 0.66416 0.0
H808 H 0.2303 0.19764 0.70901 0.0
H809 H 0.39199 0.2361 0.64973 0.0
H810 H 0.35621 0.11029 0.66397 0.0
H811 H 0.44131 0.27222 0.64421 0.0
H812 H 0.1821 0.10134 0.72438 0.0
H813 H 0.44141 0.12767 0.66236 0.0
H814 H 0.48 0.17685 0.65856 0.0
H815 H 0.1991 0.06812 0.73231 0.0
H816 H 0.49392 0.22543 0.65316 0.0
N817 N 0.38725 0.15284 0.66253 0.0
C818 C 0.37828 0.1253 0.66309 0.0
C819 C 0.42643 0.13494 0.66225 0.0
C820 C 0.43544 0.16297 0.6606 0.0
C821 C 0.3977 0.116 0.66322 0.0
C822 C 0.41506 0.1713 0.66064 0.0
H823 H 0.47957 0.26119 0.6475 0.0
N824 N 0.40228 0.20508 0.65665 0.0
C825 C 0.43643 0.25156 0.64805 0.0
C826 C 0.42288 0.19846 0.65762 0.0
C827 C 0.40849 0.23102 0.65112 0.0
C828 C 0.45798 0.24528 0.64998 0.0
C829 C 0.4513 0.21832 0.65447 0.0
O830 O 0.35273 0.18367 0.63422 0.0
O831 O 0.32171 0.16935 0.67744 0.0
O832 O 0.29063 0.12587 0.68877 0.0
O833 O 0.32383 0.12705 0.66612 0.0
O834 O 0.34213 0.19934 0.65669 0.0
O835 O 0.34588 0.14273 0.63864 0.0
O836 O 0.32711 0.14981 0.73758 0.0
O837 O 0.35298 0.15966 0.694 0.0
O838 O 0.38441 0.20141 0.68444 0.0
O839 O 0.35064 0.20308 0.70454 0.0
O840 O 0.33342 0.13065 0.71538 0.0
O841 O 0.32958 0.18873 0.73205 0.0
C842 C 0.32092 0.18881 0.66858 0.0
C843 C 0.36277 0.16321 0.60701 0.0
C844 C 0.36316 0.15983 0.5705 0.0
C845 C 0.34878 0.15784 0.58847 0.0
C846 C 0.39183 0.16764 0.5714 0.0
C847 C 0.39128 0.17078 0.60753 0.0
C848 C 0.40574 0.17308 0.58981 0.0
C849 C 0.29825 0.11487 0.67415 0.0
C850 C 0.3473 0.1607 0.62561 0.0
C851 C 0.47191 0.21045 0.65534 0.0
C852 C 0.46399 0.18279 0.65841 0.0
C853 C 0.35393 0.14033 0.7029 0.0
C854 C 0.31755 0.17052 0.76481 0.0
C855 C 0.33298 0.17523 0.78265 0.0
C856 C 0.31996 0.1721 0.80141 0.0
C857 C 0.29133 0.16441 0.80202 0.0
C858 C 0.28908 0.1631 0.76574 0.0
C859 C 0.27608 0.16009 0.78428 0.0
C860 C 0.37679 0.21385 0.6978 0.0
C861 C 0.33135 0.17278 0.74546 0.0
H862 H 0.32662 0.15161 0.58808 0.0
H863 H 0.40359 0.16973 0.55784 0.0
H864 H 0.40238 0.17485 0.62156 0.0
H865 H 0.42779 0.17903 0.59036 0.0
H866 H 0.35493 0.18075 0.78194 0.0
H867 H 0.28081 0.16201 0.81623 0.0
H868 H 0.27692 0.15959 0.75221 0.0
H869 H 0.25409 0.15431 0.7849 0.0
Tb870 Tb 0.85507 0.17246 0.70478 0.0
C871 C 0.79595 0.21082 0.645 0.0
C872 C 0.74676 0.17694 0.6485 0.0
C873 C 0.76031 0.22348 0.63823 0.0
C874 C 0.77542 0.18459 0.64985 0.0
C875 C 0.78872 0.23042 0.63851 0.0
C876 C 0.73934 0.19676 0.64327 0.0
C877 C 0.83774 0.26092 0.63092 0.0
N878 N 0.82302 0.21645 0.64521 0.0
C879 C 0.84383 0.24078 0.63758 0.0
C880 C 0.81013 0.25591 0.63173 0.0
Tb881 Tb 0.83115 0.18235 0.65635 0.0
N882 N 0.78356 0.166 0.65428 0.0
C883 C 0.76383 0.13872 0.65581 0.0
C884 C 0.72651 0.14938 0.65158 0.0
C885 C 0.73511 0.13011 0.65488 0.0
H886 H 0.86528 0.24502 0.63696 0.0
H887 H 0.71964 0.1086 0.65675 0.0
H888 H 0.71745 0.19138 0.64237 0.0
H889 H 0.85438 0.28033 0.62527 0.0
H890 H 0.76997 0.12348 0.65843 0.0
H891 H 0.96511 0.2509 0.7068 0.0
H892 H 0.70426 0.14264 0.65076 0.0
H893 H 0.82325 0.10754 0.71972 0.0
H894 H 0.91434 0.23348 0.70436 0.0
H895 H 0.83653 0.07286 0.72881 0.0
H896 H 0.7543 0.23833 0.63352 0.0
H897 H 0.98302 0.21868 0.71197 0.0
H898 H 0.97248 0.17024 0.71829 0.0
H899 H 0.80547 0.27151 0.62654 0.0
H900 H 0.93742 0.12166 0.72438 0.0
N901 N 0.90296 0.19132 0.70755 0.0
C902 C 0.92154 0.21898 0.70667 0.0
C903 C 0.96056 0.21082 0.71089 0.0
C904 C 0.94144 0.18273 0.71297 0.0
C905 C 0.95053 0.22906 0.70803 0.0
C906 C 0.91245 0.1736 0.71134 0.0
H907 H 0.88661 0.08519 0.72864 0.0
N908 N 0.86533 0.13904 0.71392 0.0
C909 C 0.85261 0.09346 0.72476 0.0
C910 C 0.8929 0.14643 0.71466 0.0
C911 C 0.84517 0.1132 0.71966 0.0
C912 C 0.88089 0.10047 0.7246 0.0
C913 C 0.90151 0.12738 0.71983 0.0
O914 O 0.83307 0.1597 0.73213 0.0
O915 O 0.82161 0.17277 0.68779 0.0
O916 O 0.83557 0.21619 0.67521 0.0
O917 O 0.86501 0.21538 0.7004 0.0
O918 O 0.81033 0.14231 0.70843 0.0
O919 O 0.86935 0.2 0.72916 0.0
O920 O 0.85273 0.19166 0.62877 0.0
O921 O 0.86459 0.18251 0.67361 0.0
O922 O 0.85226 0.14049 0.68469 0.0
O923 O 0.81943 0.13907 0.66174 0.0
O924 O 0.87611 0.21193 0.65231 0.0
O925 O 0.81486 0.15303 0.63312 0.0
C926 C 0.80051 0.15269 0.69579 0.0
C927 C 0.85947 0.17978 0.76145 0.0
C928 C 0.85491 0.18072 0.79794 0.0
C929 C 0.84684 0.1839 0.77846 0.0
C930 C 0.87591 0.17342 0.80003 0.0
C931 C 0.88041 0.17265 0.76394 0.0
C932 C 0.88854 0.16947 0.78315 0.0
C933 C 0.85256 0.22727 0.69086 0.0
C934 C 0.85014 0.18253 0.74128 0.0
C935 C 0.93035 0.13602 0.72062 0.0
C936 C 0.9503 0.16368 0.71717 0.0
C937 C 0.88585 0.20228 0.66557 0.0
C938 C 0.82439 0.17136 0.60027 0.0
C939 C 0.83726 0.16802 0.58306 0.0
C940 C 0.82879 0.17125 0.56374 0.0
C941 C 0.80713 0.17767 0.56195 0.0
C942 C 0.80271 0.17754 0.59806 0.0
C943 C 0.79417 0.18069 0.579 0.0
C944 C 0.83337 0.12807 0.67032 0.0
C945 C 0.83412 0.16884 0.62037 0.0
H946 H 0.8305 0.18922 0.7765 0.0
H947 H 0.88295 0.17121 0.81475 0.0
H948 H 0.89048 0.16956 0.7511 0.0
H949 H 0.90477 0.16402 0.78496 0.0
H950 H 0.85414 0.16339 0.58474 0.0
H951 H 0.79993 0.18 0.54733 0.0
H952 H 0.79234 0.17989 0.61102 0.0
H953 H 0.77742 0.18546 0.57743 0.0
H954 H 0.29221 0.8837 0.07827 0.0
H955 H 0.44296 0.93033 0.03023 0.0
H956 H 0.31741 0.82606 0.05824 0.0
H957 H 0.41107 0.98558 0.04085 0.0
H958 H 0.39719 0.89161 0.03985 0.0
H959 H 0.3362 0.92136 0.0651 0.0
C960 C 0.30709 0.87899 0.07122 0.0
C961 C 0.30115 0.85171 0.06939 0.0
C962 C 0.40008 0.91217 0.03984 0.0
C963 C 0.35147 0.89468 0.05407 0.0
C964 C 0.42614 0.93423 0.03415 0.0
C965 C 0.43055 0.96109 0.03437 0.0
C966 C 0.3786 0.91716 0.04625 0.0
C967 C 0.40833 0.96509 0.04028 0.0
C968 C 0.3321 0.90047 0.06353 0.0
C969 C 0.32104 0.84678 0.05983 0.0
N970 N 0.38338 0.94342 0.04607 0.0
N971 N 0.34534 0.86805 0.0526 0.0
H972 H 0.18883 0.49927 0.05989 0.0
H973 H 0.0213 0.42577 0.04649 0.0
H974 H 0.13147 0.41762 0.0815 0.0
H975 H 0.0764 0.51272 0.0382 0.0
H976 H 0.06198 0.42124 0.05614 0.0
H977 H 0.14856 0.50337 0.04843 0.0
C978 C 0.16779 0.48215 0.06217 0.0
C979 C 0.16361 0.45808 0.07177 0.0
C980 C 0.06525 0.4413 0.05203 0.0
C981 C 0.11731 0.46271 0.05871 0.0
C982 C 0.04205 0.44386 0.04646 0.0
C983 C 0.04557 0.46949 0.0409 0.0
C984 C 0.09225 0.46465 0.0523 0.0
C985 C 0.07281 0.49242 0.04164 0.0
C986 C 0.1448 0.48458 0.05572 0.0
C987 C 0.13577 0.4367 0.07445 0.0
N988 N 0.09511 0.48944 0.04711 0.0
N989 N 0.11377 0.43949 0.06792 0.0
H990 H 0.54714 0.69915 0.09716 0.0
H991 H 0.53377 0.60602 1.00287 0.0
H992 H 0.58487 0.73265 0.03964 0.0
H993 H 0.52647 0.57744 0.06372 0.0
H994 H 0.54508 0.6513 0.0154 0.0
H995 H 0.53253 0.65304 0.08448 0.0
C996 C 0.55242 0.6969 0.0819 0.0
C997 C 0.56737 0.71996 0.0695 0.0
C998 C 0.54087 0.63507 0.02601 0.0
C999 C 0.55015 0.66717 0.05483 0.0
C1000 C 0.53408 0.60915 0.01884 0.0
C1001 C 0.52887 0.58794 0.03224 0.0
C1002 C 0.54218 0.63969 0.04678 0.0
C1003 C 0.53047 0.59336 0.05289 0.0
C1004 C 0.54395 0.67055 0.07468 0.0
C1005 C 0.57302 0.71558 0.0497 0.0
N1006 N 0.53688 0.61872 0.05956 0.0
N1007 N 0.56438 0.68973 0.04299 0.0
H1008 H 0.80995 0.29992 0.97644 0.0
H1009 H 0.97354 0.41311 0.98247 0.0
H1010 H 0.87515 0.29103 0.94724 0.0
H1011 H 0.90821 0.42058 0.0129 0.0
H1012 H 0.93784 0.36901 0.96874 0.0
H1013 H 0.84561 0.34478 0.98911 0.0
C1014 C 0.83179 0.30741 0.97269 0.0
C1015 C 0.83955 0.29157 0.96083 0.0
C1016 C 0.93132 0.38027 0.97846 0.0
C1017 C 0.88059 0.34313 0.97524 0.0
C1018 C 0.95172 0.40549 0.98634 0.0
C1019 C 0.94395 0.42057 0.99904 0.0
C1020 C 0.90287 0.36999 0.98322 0.0
C1021 C 0.91528 0.40959 1.00342 0.0
C1022 C 0.85215 0.33309 0.97988 0.0
C1023 C 0.86815 0.30259 0.95617 0.0
N1024 N 0.89583 0.385 0.99554 0.0
N1025 N 0.88763 0.32762 0.96345 0.0
H1026 H 0.69458 0.50836 0.97496 0.0
H1027 H 0.6015 0.58125 0.9892 0.0
H1028 H 0.71964 0.59013 0.95399 0.0
H1029 H 0.56896 0.49483 0.99955 0.0
H1030 H 0.64678 0.58593 0.97967 0.0
H1031 H 0.65044 0.50406 0.98725 0.0
C1032 C 0.69089 0.52548 0.97298 0.0
C1033 C 0.71099 0.54966 0.96333 0.0
C1034 C 0.62987 0.56596 0.98422 0.0
C1035 C 0.66025 0.54478 0.9774 0.0
C1036 C 0.60406 0.56332 0.98976 0.0
C1037 C 0.58162 0.53777 0.99566 0.0
C1038 C 0.63335 0.54278 0.98431 0.0
C1039 C 0.58589 0.51507 0.99568 0.0
C1040 C 0.66559 0.52293 0.97994 0.0
C1041 C 0.70474 0.57097 0.96106 0.0
N1042 N 0.61124 0.51811 0.99013 0.0
N1043 N 0.68007 0.56805 0.96807 0.0
H1044 H 0.49306 0.1917 0.97618 0.0
H1045 H 0.44973 0.03299 0.97952 0.0
H1046 H 0.4183 0.12686 0.94815 0.0
H1047 H 0.51922 0.096 0.01341 0.0
H1048 H 0.43965 0.0676 0.96643 0.0
H1049 H 0.50466 0.15748 0.98837 0.0
C1050 C 0.47906 0.17025 0.97259 0.0
C1051 C 0.45455 0.16213 0.96122 0.0
C1052 C 0.45706 0.07389 0.97677 0.0
C1053 C 0.46788 0.12287 0.975 0.0
C1054 C 0.46288 0.0541 0.98429 0.0
C1055 C 0.48527 0.06151 0.99775 0.0
C1056 C 0.4738 0.10143 0.98263 0.0
C1057 C 0.50155 0.08927 1.00327 0.0
C1058 C 0.48576 0.15074 0.97951 0.0
C1059 C 0.43753 0.13412 0.9567 0.0
N1060 N 0.4955 0.10824 0.99567 0.0
N1061 N 0.44447 0.1155 0.96366 0.0
H1062 H 0.68348 0.17937 0.97808 0.0
H1063 H 0.59212 0.0164 0.99503 0.0
H1064 H 0.71757 0.12505 0.9738 0.0
H1065 H 0.55883 0.07111 1.00208 0.0
H1066 H 0.63805 0.05582 0.98676 0.0
H1067 H 0.63715 0.13982 0.98569 0.0
C1068 C 0.68095 0.15895 0.97837 0.0
C1069 C 0.70399 0.15517 0.97505 0.0
C1070 C 0.6208 0.0593 0.99029 0.0
C1071 C 0.65152 0.11005 0.98418 0.0
C1072 C 0.59467 0.03683 0.99509 0.0
C1073 C 0.57193 0.04064 0.99973 0.0
C1074 C 0.62412 0.08578 0.98975 0.0
C1075 C 0.57603 0.06738 0.99916 0.0
C1076 C 0.65464 0.13644 0.98289 0.0
C1077 C 0.70005 0.12857 0.976 0.0
N1078 N 0.60165 0.08896 0.99427 0.0
N1079 N 0.67427 0.10697 0.98053 0.0
H1080 H 0.81999 0.49097 0.97629 0.0
H1081 H 0.98762 0.56786 0.99211 0.0
H1082 H 0.87325 0.57874 0.97183 0.0
H1083 H 0.93312 0.48076 1.00021 0.0
H1084 H 0.94653 0.57221 0.9833 0.0
H1085 H 0.86152 0.48661 0.98338 0.0
C1086 C 0.84058 0.50929 0.97646 0.0
C1087 C 0.84338 0.5352 0.97321 0.0
C1088 C 0.94349 0.55215 0.98712 0.0
C1089 C 0.891 0.53053 0.98168 0.0
C1090 C 0.96693 0.54969 0.99219 0.0
C1091 C 0.96369 0.52407 0.99751 0.0
C1092 C 0.91655 0.52869 0.98695 0.0
C1093 C 0.93652 0.50105 0.99688 0.0
C1094 C 0.86426 0.50683 0.98066 0.0
C1095 C 0.87035 0.55836 0.97399 0.0
N1096 N 0.91403 0.50392 0.99178 0.0
N1097 N 0.89314 0.5555 0.97817 0.0
H1098 H 0.50273 0.30977 0.98267 0.0
H1099 H 0.45576 0.42388 0.98194 0.0
H1100 H 0.41967 0.29256 0.96572 0.0
H1101 H 0.53181 0.43512 0.01007 0.0
H1102 H 0.44484 0.37791 0.97137 0.0
H1103 H 0.51656 0.35814 0.98779 0.0
C1104 C 0.48762 0.31644 0.97968 0.0
C1105 C 0.46018 0.29757 0.97371 0.0
C1106 C 0.46392 0.39047 0.97983 0.0
C1107 C 0.47547 0.35238 0.97983 0.0
C1108 C 0.47021 0.41673 0.98588 0.0
C1109 C 0.49457 0.43326 0.99716 0.0
C1110 C 0.48224 0.38073 0.98495 0.0
C1111 C 0.51256 0.42294 1.0017 0.0
C1112 C 0.4954 0.34391 0.98272 0.0
C1113 C 0.44111 0.30679 0.97022 0.0
N1114 N 0.506 0.39731 0.99561 0.0
N1115 N 0.44908 0.33365 0.97344 0.0
H1116 H 0.13989 0.71763 0.06533 0.0
H1117 H 0.101 0.5673 0.02998 0.0
H1118 H 0.20031 0.69027 0.05963 0.0
H1119 H 0.03766 0.58615 0.04997 0.0
H1120 H 0.13737 0.61258 0.04093 0.0
H1121 H 0.10166 0.66988 0.06061 0.0
C1122 C 0.14496 0.70139 0.06351 0.0
C1123 C 0.17301 0.70751 0.06296 0.0
C1124 C 0.11555 0.60683 0.04308 0.0
C1125 C 0.12993 0.65347 0.05708 0.0
C1126 C 0.09471 0.58098 0.03669 0.0
C1127 C 0.0662 0.573 0.03887 0.0
C1128 C 0.10797 0.62511 0.05158 0.0
C1129 C 0.05939 0.59151 0.04796 0.0
C1130 C 0.12326 0.67426 0.06074 0.0
C1131 C 0.1788 0.68613 0.06026 0.0
N1132 N 0.08015 0.61686 0.05381 0.0
N1133 N 0.15745 0.66006 0.05723 0.0
H1134 H 0.33171 0.51707 0.05576 0.0
H1135 H 0.42106 0.44027 0.04122 0.0
H1136 H 0.2967 0.42975 0.06285 0.0
H1137 H 0.45505 0.52687 0.03064 0.0
H1138 H 0.37588 0.43629 0.05017 0.0
H1139 H 0.37756 0.52153 0.04799 0.0
C1140 C 0.3339 0.4989 0.05602 0.0
C1141 C 0.31065 0.47307 0.06021 0.0
C1142 C 0.39311 0.45617 0.04579 0.0
C1143 C 0.36281 0.47784 0.05096 0.0
C1144 C 0.41888 0.45842 0.04063 0.0
C1145 C 0.4416 0.48378 0.03472 0.0
C1146 C 0.39006 0.47959 0.0454 0.0
C1147 C 0.43786 0.50679 0.03461 0.0
C1148 C 0.35998 0.50141 0.05143 0.0
C1149 C 0.3143 0.45008 0.05996 0.0
N1150 N 0.41258 0.50413 0.03982 0.0
N1151 N 0.33988 0.45299 0.05539 0.0
H1152 H 0.5976 0.88153 0.07783 0.0
H1153 H 0.48534 0.90625 0.01788 0.0
H1154 H 0.53277 0.82053 0.04 0.0
H1155 H 0.55166 0.96772 0.05485 0.0
H1156 H 0.49959 0.87315 0.0281 0.0
H1157 H 0.57799 0.91194 0.07228 0.0
C1158 C 0.57894 0.87448 0.06862 0.0
C1159 C 0.56657 0.84871 0.05938 0.0
C1160 C 0.51096 0.89387 0.03401 0.0
C1161 C 0.54439 0.88319 0.05263 0.0
C1162 C 0.50293 0.91285 0.02808 0.0
C1163 C 0.51767 0.94002 0.03515 0.0
C1164 C 0.53382 0.90208 0.0472 0.0
C1165 C 0.53983 0.94713 0.04878 0.0
C1166 C 0.56782 0.89179 0.06536 0.0
C1167 C 0.54268 0.84036 0.04742 0.0
N1168 N 0.54732 0.92835 0.05424 0.0
N1169 N 0.53242 0.85766 0.04425 0.0
H1170 H 0.98786 0.15878 0.39163 0.0
H1171 H 0.07956 0.32059 0.37084 0.0
H1172 H 0.96246 0.21754 0.40824 0.0
H1173 H 0.11282 0.26577 0.3643 0.0
H1174 H 0.03395 0.28153 0.3799 0.0
H1175 H 0.0314 0.19628 0.37759 0.0
C1176 C 0.9914 0.17956 0.39227 0.0
C1177 C 0.97149 0.18503 0.4012 0.0
C1178 C 0.05106 0.27789 0.37625 0.0
C1179 C 0.02128 0.22801 0.38513 0.0
C1180 C 0.07701 0.30015 0.37095 0.0
C1181 C 0.09977 0.29628 0.36654 0.0
C1182 C 0.04786 0.25151 0.37746 0.0
C1183 C 0.09561 0.26951 0.3672 0.0
C1184 C 0.01629 0.20094 0.3843 0.0
C1185 C 0.97734 0.21239 0.40176 0.0
N1186 N 0.07013 0.24809 0.37266 0.0
N1187 N 1.00163 0.2328 0.39382 0.0
H1188 H 0.855 0.83504 0.39757 0.0
H1189 H 0.68826 0.76033 0.37855 0.0
H1190 H 0.79772 0.74955 0.4106 0.0
H1191 H 0.7432 0.84765 0.37227 0.0
H1192 H 0.72886 0.75552 0.3878 0.0
H1193 H 0.81524 0.83956 0.38552 0.0
C1194 C 0.83412 0.81716 0.39781 0.0
C1195 C 0.8298 0.79188 0.40526 0.0
C1196 C 0.73215 0.77574 0.3842 0.0
C1197 C 0.78403 0.79702 0.39157 0.0
C1198 C 0.70898 0.77845 0.37887 0.0
C1199 C 0.71248 0.80428 0.37402 0.0
C1200 C 0.7591 0.79914 0.38507 0.0
C1201 C 0.73966 0.82723 0.37518 0.0
C1202 C 0.81139 0.81982 0.39102 0.0
C1203 C 0.80212 0.76956 0.40534 0.0
N1204 N 0.76193 0.82412 0.38053 0.0
N1205 N 0.7804 0.77266 0.39863 0.0
H1206 H 0.25417 0.0689 0.3708 0.0
H1207 H 0.19285 0.91116 0.39689 0.0
H1208 H 0.21603 0.03455 0.42806 0.0
H1209 H 0.2003 0.94059 0.33627 0.0
H1210 H 0.20543 0.95702 0.40924 0.0
H1211 H 0.23807 0.02258 0.35829 0.0
C1212 C 0.24214 0.05168 0.38072 0.0
C1213 C 0.23643 0.05579 0.40056 0.0
C1214 C 0.20405 0.95334 0.39323 0.0
C1215 C 0.21862 0.00264 0.38639 0.0
C1216 C 0.19704 0.92728 0.38618 0.0
C1217 C 0.19526 0.92208 0.3655 0.0
C1218 C 0.20987 0.97445 0.37947 0.0
C1219 C 0.20079 0.94356 0.35226 0.0
C1220 C 0.23311 0.02522 0.37356 0.0
C1221 C 0.22136 0.03253 0.41278 0.0
N1222 N 0.20808 0.96891 0.35946 0.0
N1223 N 0.21314 0.00697 0.40553 0.0
H1224 H 0.48694 0.62021 0.32238 0.0
H1225 H 0.63739 0.75322 0.31044 0.0
H1226 H 0.52916 0.64461 0.26512 0.0
H1227 H 0.57658 0.7493 0.35332 0.0
H1228 H 0.60149 0.70935 0.2964 0.0
H1229 H 0.52321 0.66358 0.33671 0.0
C1230 C 0.50365 0.63461 0.31272 0.0
C1231 C 0.50463 0.62853 0.29235 0.0
C1232 C 0.59613 0.7181 0.30897 0.0
C1233 C 0.54683 0.67801 0.30904 0.0
C1234 C 0.61662 0.74313 0.31707 0.0
C1235 C 0.6102 0.755 0.33333 0.0
C1236 C 0.56911 0.70452 0.31735 0.0
C1237 C 0.58276 0.74083 0.34111 0.0
C1238 C 0.52445 0.65932 0.32102 0.0
C1239 C 0.52751 0.64793 0.28091 0.0
N1240 N 0.5633 0.71627 0.33314 0.0
N1241 N 0.54771 0.67169 0.28942 0.0
H1242 H 0.35951 0.8414 0.30707 0.0
H1243 H 0.26767 0.91523 0.3235 0.0
H1244 H 0.38666 0.92508 0.28984 0.0
H1245 H 0.23466 0.82857 0.33305 0.0
H1246 H 0.31309 0.91996 0.31441 0.0
H1247 H 0.3155 0.83705 0.31968 0.0
C1248 C 0.35634 0.85893 0.30601 0.0
C1249 C 0.37696 0.88365 0.29726 0.0
C1250 C 0.29606 0.89992 0.3187 0.0
C1251 C 0.32634 0.8787 0.31168 0.0
C1252 C 0.27016 0.89725 0.32398 0.0
C1253 C 0.24752 0.87161 0.32948 0.0
C1254 C 0.29942 0.87667 0.31858 0.0
C1255 C 0.25172 0.84886 0.32945 0.0
C1256 C 0.33109 0.85636 0.31315 0.0
C1257 C 0.37135 0.90549 0.29615 0.0
N1258 N 0.27715 0.85192 0.32409 0.0
N1259 N 0.3467 0.90251 0.30327 0.0
H1260 H 0.09742 0.49058 0.3304 0.0
H1261 H 0.13304 0.37464 0.30413 0.0
H1262 H 0.11831 0.4808 0.2696 0.0
H1263 H 0.16504 0.42334 0.358 0.0
H1264 H 0.11831 0.40659 0.29201 0.0
H1265 H 0.11226 0.45843 0.34172 0.0
C1266 C 0.10519 0.48183 0.31938 0.0
C1267 C 0.10711 0.48898 0.29898 0.0
C1268 C 0.1285 0.41013 0.30651 0.0
C1269 C 0.12311 0.45134 0.31194 0.0
C1270 C 0.13687 0.39189 0.31354 0.0
C1271 C 0.14995 0.39597 0.33239 0.0
C1272 C 0.13264 0.43225 0.31858 0.0
C1273 C 0.15457 0.41898 0.34366 0.0
C1274 C 0.11352 0.46339 0.32591 0.0
C1275 C 0.11628 0.47591 0.28542 0.0
N1276 N 0.1456 0.43609 0.3367 0.0
N1277 N 0.12391 0.45765 0.29214 0.0
H1278 H 0.37989 0.47969 0.2942 0.0
H1279 H 0.22268 0.40982 0.3379 0.0
H1280 H 0.33439 0.52293 0.30365 0.0
H1281 H 0.26506 0.36422 0.32543 0.0
H1282 H 0.26477 0.45203 0.32762 0.0
H1283 H 0.33911 0.43739 0.30696 0.0
C1284 C 0.36118 0.48012 0.29883 0.0
C1285 C 0.36013 0.5045 0.29775 0.0
C1286 C 0.26502 0.43285 0.32726 0.0
C1287 C 0.31385 0.45674 0.31257 0.0
C1288 C 0.24102 0.40876 0.33334 0.0
C1289 C 0.24057 0.38356 0.33286 0.0
C1290 C 0.28864 0.43172 0.32033 0.0
C1291 C 0.26472 0.38333 0.3262 0.0
C1292 C 0.33801 0.45611 0.30619 0.0
C1293 C 0.33574 0.50433 0.30412 0.0
N1294 N 0.28776 0.40701 0.32018 0.0
N1295 N 0.31357 0.48084 0.31126 0.0
H1296 H 0.53758 0.91215 0.30329 0.0
H1297 H 0.59923 0.81424 0.33562 0.0
H1298 H 0.48701 0.82419 0.30861 0.0
H1299 H 0.65161 0.90116 0.32527 0.0
H1300 H 0.55788 0.81767 0.32639 0.0
H1301 H 0.57972 0.90891 0.31123 0.0
C1302 C 0.53549 0.89214 0.3058 0.0
C1303 C 0.509 0.86836 0.30504 0.0
C1304 C 0.57838 0.83606 0.32618 0.0
C1305 C 0.55677 0.86443 0.3146 0.0
C1306 C 0.602 0.83412 0.33166 0.0
C1307 C 0.62884 0.8576 0.33176 0.0
C1308 C 0.58157 0.86163 0.32049 0.0
C1309 C 0.63122 0.88265 0.32572 0.0
C1310 C 0.55946 0.89027 0.31047 0.0
C1311 C 0.50721 0.84295 0.30881 0.0
N1312 N 0.60793 0.88406 0.32046 0.0
N1313 N 0.53071 0.84165 0.31349 0.0
H1314 H 0.16812 0.64395 0.31544 0.0
H1315 H 0.12111 0.75799 0.31468 0.0
H1316 H 0.08418 0.62591 0.30043 0.0
H1317 H 0.1971 0.76907 0.34282 0.0
H1318 H 0.11 0.71188 0.30423 0.0
H1319 H 0.18203 0.69244 0.31988 0.0
C1320 C 0.15282 0.65046 0.3127 0.0
C1321 C 0.12512 0.63133 0.3075 0.0
C1322 C 0.12912 0.72446 0.31266 0.0
C1323 C 0.14051 0.68627 0.31287 0.0
C1324 C 0.13551 0.75079 0.31863 0.0
C1325 C 0.15991 0.76729 0.32988 0.0
C1326 C 0.14739 0.71468 0.31781 0.0
C1327 C 0.17785 0.75692 0.33445 0.0
C1328 C 0.16065 0.67799 0.31537 0.0
C1329 C 0.10582 0.64035 0.30433 0.0
N1330 N 0.17119 0.73125 0.32843 0.0
N1331 N 0.11385 0.66729 0.30718 0.0
H1332 H 0.80988 0.05248 0.39953 0.0
H1333 H 0.76745 0.90132 0.36446 0.0
H1334 H 0.86796 0.02194 0.39697 0.0
H1335 H 0.70496 0.92152 0.38413 0.0
H1336 H 0.80428 0.94611 0.37587 0.0
H1337 H 0.77065 0.0053 0.39428 0.0
C1338 C 0.8142 0.03567 0.39833 0.0
C1339 C 0.84192 0.04074 0.39881 0.0
C1340 C 0.78254 0.94077 0.37785 0.0
C1341 C 0.79773 0.98735 0.39228 0.0
C1342 C 0.76144 0.9152 0.3712 0.0
C1343 C 0.73304 0.90772 0.37318 0.0
C1344 C 0.77536 0.95931 0.3864 0.0
C1345 C 0.7266 0.92649 0.38228 0.0
C1346 C 0.79193 0.00886 0.39525 0.0
C1347 C 0.84673 0.01863 0.39683 0.0
N1348 N 0.74764 0.95159 0.38839 0.0
N1349 N 0.82489 0.99292 0.39345 0.0
H1350 H 0.96181 0.76534 0.39902 0.0
H1351 H 0.12182 0.86221 0.36297 0.0
H1352 H 1.00085 0.85325 0.39317 0.0
H1353 H 0.08547 0.77546 0.37428 0.0
H1354 H 0.07722 0.85914 0.37275 0.0
H1355 H 0.00662 0.7683 0.38955 0.0
C1356 C 0.97999 0.78528 0.39605 0.0
C1357 C 0.97792 0.80913 0.39713 0.0
C1358 C 0.07892 0.84072 0.37302 0.0
C1359 C 0.02894 0.81274 0.38582 0.0
C1360 C 0.10432 0.84245 0.36725 0.0
C1361 C 0.10713 0.81892 0.36741 0.0
C1362 C 0.05621 0.81533 0.37922 0.0
C1363 C 0.08403 0.79401 0.37371 0.0
C1364 C 0.0055 0.787 0.39051 0.0
C1365 C 1.00182 0.83443 0.39274 0.0
N1366 N 0.05957 0.79283 0.37928 0.0
N1367 N 0.02629 0.83559 0.38723 0.0
H1368 H 0.1996 0.1553 0.3765 0.0
H1369 H 0.22586 0.30843 0.38726 0.0
H1370 H 0.27159 0.22075 0.40635 0.0
H1371 H 0.1575 0.24467 0.35304 0.0
H1372 H 0.23998 0.27536 0.3975 0.0
H1373 H 0.1808 0.18634 0.37108 0.0
C1374 C 0.21114 0.17616 0.3822 0.0
C1375 C 0.23696 0.18568 0.39193 0.0
C1376 C 0.22187 0.26857 0.38777 0.0
C1377 C 0.21607 0.22131 0.38557 0.0
C1378 C 0.21375 0.28747 0.38189 0.0
C1379 C 0.1907 0.27946 0.36897 0.0
C1380 C 0.2068 0.2414 0.38075 0.0
C1381 C 0.17574 0.25192 0.36268 0.0
C1382 C 0.20054 0.19388 0.37903 0.0
C1383 C 0.25145 0.21279 0.39888 0.0
N1384 N 0.18414 0.23392 0.36855 0.0
N1385 N 0.24086 0.22978 0.39546 0.0
H1386 H 0.62493 0.55114 0.74413 0.0
H1387 H 0.77598 0.59679 0.69708 0.0
H1388 H 0.65008 0.49302 0.72521 0.0
H1389 H 0.74363 0.65202 0.70587 0.0
H1390 H 0.73017 0.55822 0.7069 0.0
H1391 H 0.66905 0.5885 0.73085 0.0
C1392 C 0.63985 0.54628 0.73732 0.0
C1393 C 0.63385 0.51896 0.7358 0.0
C1394 C 0.73298 0.57873 0.70643 0.0
C1395 C 0.68428 0.56155 0.72036 0.0
C1396 C 0.75904 0.60068 0.70063 0.0
C1397 C 0.76331 0.62748 0.70029 0.0
C1398 C 0.71139 0.58381 0.7124 0.0
C1399 C 0.74098 0.63156 0.70574 0.0
C1400 C 0.66491 0.56757 0.72956 0.0
C1401 C 0.65378 0.5138 0.72655 0.0
N1402 N 0.71604 0.61001 0.71166 0.0
N1403 N 0.67813 0.53488 0.71924 0.0
H1404 H 0.46311 0.08284 0.74891 0.0
H1405 H 0.40969 0.18135 0.70421 0.0
H1406 H 0.51984 0.1648 0.72757 0.0
H1407 H 0.35547 0.09433 0.71291 0.0
H1408 H 0.45019 0.17655 0.71371 0.0
H1409 H 0.42333 0.08751 0.73733 0.0
C1410 C 0.46722 0.10189 0.74189 0.0
C1411 C 0.49494 0.12349 0.7393 0.0
C1412 C 0.42949 0.15844 0.71334 0.0
C1413 C 0.44931 0.12896 0.72585 0.0
C1414 C 0.40636 0.16114 0.70771 0.0
C1415 C 0.37927 0.13802 0.70706 0.0
C1416 C 0.42542 0.13253 0.71893 0.0
C1417 C 0.3761 0.11256 0.71279 0.0
C1418 C 0.44447 0.10447 0.73513 0.0
C1419 C 0.49889 0.14753 0.72977 0.0
N1420 N 0.39883 0.11048 0.71845 0.0
N1421 N 0.47638 0.14967 0.7235 0.0
H1422 H 0.8826 0.36653 0.76424 0.0
H1423 H 0.84056 0.26444 0.67285 0.0
H1424 H 0.90919 0.39793 0.70419 0.0
H1425 H 0.87631 0.25159 0.7267 0.0
H1426 H 0.85236 0.31003 0.68528 0.0
H1427 H 0.86678 0.32018 0.75165 0.0
C1428 C 0.8852 0.36388 0.74846 0.0
C1429 C 0.89772 0.38655 0.73538 0.0
C1430 C 0.85753 0.29707 0.69428 0.0
C1431 C 0.87836 0.33328 0.72088 0.0
C1432 C 0.851 0.27114 0.68716 0.0
C1433 C 0.85816 0.25436 0.69841 0.0
C1434 C 0.87032 0.30577 0.71311 0.0
C1435 C 0.87081 0.26391 0.71728 0.0
C1436 C 0.8759 0.33735 0.74132 0.0
C1437 C 0.8994 0.38133 0.71491 0.0
N1438 N 0.87636 0.28893 0.72409 0.0
N1439 N 0.88977 0.35524 0.70828 0.0
H1440 H 0.16416 0.94732 0.65955 0.0
H1441 H 0.30351 0.08771 0.64165 0.0
H1442 H 0.19092 0.9772 0.59923 0.0
H1443 H 0.24445 0.08007 0.68744 0.0
H1444 H 0.26828 0.04306 0.62817 0.0
H1445 H 0.19965 0.99195 0.67251 0.0
C1446 C 0.17725 0.96316 0.64894 0.0
C1447 C 0.17399 0.95831 0.62812 0.0
C1448 C 0.26324 0.05122 0.64125 0.0
C1449 C 0.21558 0.00917 0.64316 0.0
C1450 C 0.28331 0.07665 0.64904 0.0
C1451 C 0.27719 0.08763 0.66601 0.0
C1452 C 0.23712 0.03636 0.65074 0.0
C1453 C 0.25046 0.07228 0.67471 0.0
C1454 C 0.19765 0.98858 0.65645 0.0
C1455 C 0.19263 0.9796 0.61535 0.0
N1456 N 0.23151 0.04729 0.66713 0.0
N1457 N 0.21271 0.00406 0.62308 0.0
H1458 H 0.02528 0.17393 0.64026 0.0
H1459 H 0.93418 0.24858 0.65641 0.0
H1460 H 0.05348 0.25811 0.62387 0.0
H1461 H 0.90115 0.16207 0.66675 0.0
H1462 H 0.97957 0.25314 0.64749 0.0
H1463 H 0.9814 0.16987 0.65287 0.0
C1464 C 0.02238 0.19163 0.63939 0.0
C1465 C 0.04324 0.2164 0.63086 0.0
C1466 C 0.96255 0.23317 0.65191 0.0
C1467 C 0.99276 0.21179 0.64525 0.0
C1468 C 0.93666 0.2306 0.65709 0.0
C1469 C 0.91401 0.20505 0.66275 0.0
C1470 C 0.96587 0.2099 0.65206 0.0
C1471 C 0.9182 0.18229 0.66299 0.0
C1472 C 0.99721 0.18923 0.64653 0.0
C1473 C 0.03796 0.23847 0.62999 0.0
N1474 N 0.9436 0.18525 0.65771 0.0
N1475 N 0.01337 0.23564 0.63707 0.0
H1476 H 0.82517 0.85811 0.64446 0.0
H1477 H 0.78248 0.69943 0.64483 0.0
H1478 H 0.7517 0.79465 0.61427 0.0
H1479 H 0.85061 0.76175 0.6801 0.0
H1480 H 0.77264 0.73437 0.63183 0.0
H1481 H 0.83661 0.82349 0.6558 0.0
C1482 C 0.81143 0.83686 0.64021 0.0
C1483 C 0.78728 0.82923 0.62854 0.0
C1484 C 0.7897 0.7404 0.64244 0.0
C1485 C 0.8004 0.78946 0.64139 0.0
C1486 C 0.79537 0.72044 0.6499 0.0
C1487 C 0.81729 0.72758 0.66375 0.0
C1488 C 0.80614 0.76778 0.64877 0.0
C1489 C 0.83328 0.7552 0.66967 0.0
C1490 C 0.81802 0.81711 0.64666 0.0
C1491 C 0.77059 0.80148 0.62314 0.0
N1492 N 0.82738 0.77429 0.66214 0.0
N1493 N 0.77739 0.78257 0.62969 0.0
H1494 H 0.04933 0.80138 0.63639 0.0
H1495 H 0.88791 0.73759 0.66851 0.0
H1496 H 0.0049 0.84664 0.63626 0.0
H1497 H 0.92671 0.68793 0.65943 0.0
H1498 H 0.93186 0.77832 0.65911 0.0
H1499 H 0.0055 0.75966 0.646 0.0
C1500 C 0.03015 0.80229 0.63801 0.0
C1501 C 0.03032 0.8271 0.63527 0.0
C1502 C 0.93089 0.75857 0.65928 0.0
C1503 C 0.98068 0.78014 0.64679 0.0
C1504 C 0.90583 0.73532 0.66492 0.0
C1505 C 0.90388 0.70944 0.6652 0.0
C1506 C 0.9541 0.75591 0.65362 0.0
C1507 C 0.92757 0.70764 0.65965 0.0
C1508 C 0.00526 0.77865 0.64364 0.0
C1509 C 0.00532 0.82765 0.63797 0.0
N1510 N 0.95175 0.73056 0.65412 0.0
N1511 N 0.98151 0.80454 0.64368 0.0
H1512 H 0.15139 0.15459 0.64068 0.0
H1513 H 0.31876 0.23439 0.65794 0.0
H1514 H 0.20313 0.24258 0.63658 0.0
H1515 H 0.26542 0.14739 0.66737 0.0
H1516 H 0.27726 0.23769 0.64853 0.0
H1517 H 0.19333 0.15128 0.64853 0.0
C1518 C 0.17175 0.17319 0.6411 0.0
C1519 C 0.17399 0.19885 0.63772 0.0
C1520 C 0.27455 0.21788 0.65276 0.0
C1521 C 0.22207 0.19537 0.64706 0.0
C1522 C 0.29823 0.21601 0.65817 0.0
C1523 C 0.29544 0.19073 0.66396 0.0
C1524 C 0.24783 0.19415 0.65275 0.0
C1525 C 0.26846 0.16742 0.66357 0.0
C1526 C 0.19566 0.17133 0.64573 0.0
C1527 C 0.20067 0.22238 0.63883 0.0
N1528 N 0.24573 0.16971 0.65812 0.0
N1529 N 0.22369 0.22009 0.64342 0.0
H1530 H 0.83396 0.97555 0.65486 0.0
H1531 H 0.78836 0.0905 0.6482 0.0
H1532 H 0.75208 0.9585 0.63484 0.0
H1533 H 0.86375 0.10241 0.67782 0.0
H1534 H 0.77722 0.04395 0.63903 0.0
H1535 H 0.84788 0.0241 0.6589 0.0
C1536 C 0.81911 0.98227 0.65104 0.0
C1537 C 0.79198 0.96341 0.64449 0.0
C1538 C 0.79621 0.05679 0.64751 0.0
C1539 C 0.80739 0.01846 0.6493 0.0
C1540 C 0.80262 0.08338 0.65273 0.0
C1541 C 0.82684 0.10026 0.66403 0.0
C1542 C 0.81427 0.04709 0.6535 0.0
C1543 C 0.84461 0.08997 0.6694 0.0
C1544 C 0.82695 0.00986 0.65344 0.0
C1545 C 0.77326 0.97272 0.63986 0.0
N1546 N 0.83792 0.06404 0.66413 0.0
N1547 N 0.78128 -0.0003 0.64245 0.0
H1548 H 0.4724 0.38569 0.73084 0.0
H1549 H 0.43349 0.23511 0.69668 0.0
H1550 H 0.53264 0.35796 0.7264 0.0
H1551 H 0.37007 0.25411 0.71622 0.0
H1552 H 0.46981 0.28036 0.70768 0.0
H1553 H 0.43411 0.33793 0.72641 0.0
C1554 C 0.47741 0.36937 0.72937 0.0
C1555 C 0.50542 0.37537 0.72905 0.0
C1556 C 0.44798 0.27465 0.70972 0.0
C1557 C 0.4623 0.32133 0.72352 0.0
C1558 C 0.42718 0.24883 0.70331 0.0
C1559 C 0.39868 0.24092 0.70535 0.0
C1560 C 0.44036 0.29297 0.71809 0.0
C1561 C 0.39181 0.25944 0.71432 0.0
C1562 C 0.45567 0.34223 0.72677 0.0
C1563 C 0.51115 0.35389 0.72682 0.0
N1564 N 0.41254 0.28479 0.72019 0.0
N1565 N 0.48978 0.32782 0.72393 0.0
H1566 H 0.66265 0.18254 0.72273 0.0
H1567 H 0.75239 0.10661 0.70584 0.0
H1568 H 0.62811 0.09519 0.72907 0.0
H1569 H 0.78562 0.19313 0.69533 0.0
H1570 H 0.70714 0.10225 0.71504 0.0
H1571 H 0.70834 0.18727 0.71399 0.0
C1572 C 0.66492 0.16442 0.72263 0.0
C1573 C 0.64185 0.13851 0.72691 0.0
C1574 C 0.7242 0.12218 0.71059 0.0
C1575 C 0.6938 0.14358 0.7165 0.0
C1576 C 0.75001 0.12465 0.70528 0.0
C1577 C 0.77261 0.15013 0.69942 0.0
C1578 C 0.72096 0.14549 0.71042 0.0
C1579 C 0.76858 0.17297 0.6993 0.0
C1580 C 0.6909 0.16708 0.71747 0.0
C1581 C 0.64558 0.11558 0.72615 0.0
N1582 N 0.74327 0.17011 0.70471 0.0
N1583 N 0.67106 0.11864 0.72103 0.0
H1584 H 0.86546 0.48582 0.70638 0.0
H1585 H 0.88585 0.63611 0.72117 0.0
H1586 H 0.9311 0.54908 0.74238 0.0
H1587 H 0.81975 0.57328 0.68486 0.0
H1588 H 0.89993 0.60312 0.73143 0.0
H1589 H 0.84558 0.51596 0.70072 0.0
C1590 C 0.87533 0.50596 0.71335 0.0
C1591 C 0.89973 0.51517 0.72489 0.0
C1592 C 0.88232 0.5965 0.72123 0.0
C1593 C 0.87764 0.54979 0.71831 0.0
C1594 C 0.87423 0.61537 0.71531 0.0
C1595 C 0.8519 0.60768 0.70175 0.0
C1596 C 0.86803 0.56963 0.71356 0.0
C1597 C 0.83751 0.58035 0.69494 0.0
C1598 C 0.86412 0.52317 0.71007 0.0
C1599 C 0.91211 0.54137 0.73346 0.0
N1600 N 0.84595 0.56236 0.7008 0.0
N1601 N 0.90102 0.55789 0.7299 0.0
H1602 H 0.46495 0.89054 0.23262 0.0
H1603 H 0.49744 0.02396 0.16808 0.0
H1604 H 0.44519 0.95235 0.25189 0.0
H1605 H 0.50421 0.95655 0.14321 0.0
H1606 H 0.48024 0.99848 0.19938 0.0
H1607 H 0.48197 0.91504 0.20058 0.0
C1608 C 0.46438 0.90934 0.2302 0.0
C1609 C 0.45348 0.91929 0.24501 0.0
C1610 C 0.48537 0.98912 0.18711 0.0
C1611 C 0.4728 0.94738 0.20831 0.0
C1612 C 0.49529 0.00374 0.1692 0.0
C1613 C 0.50246 0.99249 0.15296 0.0
C1614 C 0.48269 0.96298 0.18905 0.0
C1615 C 0.49881 0.96598 0.15528 0.0
C1616 C 0.47389 0.9232 0.21184 0.0
C1617 C 0.45304 0.94365 0.24089 0.0
N1618 N 0.48939 0.95221 0.17301 0.0
N1619 N 0.46255 0.95679 0.22304 0.0
H1620 H 0.04524 0.54628 0.25738 0.0
H1621 H 0.02488 0.4907 0.14452 0.0
H1622 H 0.094 0.51308 0.23122 0.0
H1623 H 0.98345 0.5328 0.16842 0.0
H1624 H 0.05044 0.49879 0.17611 0.0
H1625 H 0.02255 0.54173 0.22493 0.0
C1626 C 0.05141 0.53828 0.24479 0.0
C1627 C 0.07156 0.52998 0.24713 0.0
C1628 C 0.03582 0.50634 0.17443 0.0
C1629 C 0.04523 0.52429 0.2099 0.0
C1630 C 0.0213 0.50186 0.15632 0.0
C1631 C 1.00187 0.51103 0.15373 0.0
C1632 C 0.03087 0.52001 0.19018 0.0
C1633 C 0.99784 0.52495 0.16978 0.0
C1634 C 0.03829 0.53553 0.22626 0.0
C1635 C 0.07828 0.51934 0.23027 0.0
N1636 N 0.01212 0.52893 0.1873 0.0
N1637 N 0.06509 0.51672 0.21243 0.0
H1638 H 0.43509 0.54446 0.22395 0.0
H1639 H 0.55908 0.53716 0.16657 0.0
H1640 H 0.51212 0.55888 0.25226 0.0
H1641 H 0.47648 0.50607 0.14062 0.0
H1642 H 0.54216 0.54644 0.19765 0.0
H1643 H 0.44924 0.53054 0.19325 0.0
C1644 C 0.45476 0.54432 0.22385 0.0
C1645 C 0.47253 0.55313 0.24075 0.0
C1646 C 0.52765 0.53749 0.18521 0.0
C1647 C 0.48913 0.53777 0.20545 0.0
C1648 C 0.53729 0.53205 0.16739 0.0
C1649 C 0.51918 0.52053 0.15085 0.0
C1650 C 0.49966 0.53167 0.18664 0.0
C1651 C 0.49134 0.51516 0.15284 0.0
C1652 C 0.46293 0.53657 0.20624 0.0
C1653 C 0.49796 0.55281 0.23955 0.0
N1654 N 0.48245 0.52078 0.17038 0.0
N1655 N 0.50554 0.54551 0.22222 0.0
H1656 H 0.97001 0.43249 0.78438 0.0
H1657 H 0.9938 0.50769 0.89064 0.0
H1658 H 0.93341 0.48277 0.79923 0.0
H1659 H 0.03361 0.46132 0.87275 0.0
H1660 H 0.97052 0.49829 0.85782 0.0
H1661 H 0.99276 0.44259 0.81711 0.0
C1662 C 0.96663 0.44556 0.79461 0.0
C1663 C 0.94951 0.45656 0.78913 0.0
C1664 C 0.98439 0.49023 0.86109 0.0
C1665 C 0.97587 0.46853 0.82674 0.0
C1666 C 0.99754 0.49544 0.87986 0.0
C1667 C 0.01578 0.48536 0.88444 0.0
C1668 C 0.98939 0.47471 0.84685 0.0
C1669 C 0.02008 0.46986 0.8698 0.0
C1670 C 0.97978 0.45147 0.81328 0.0
C1671 C 0.94647 0.47392 0.80284 0.0
N1672 N 0.00699 0.46501 0.85173 0.0
N1673 N 0.95942 0.47927 0.82107 0.0
H1674 H 0.51435 0.45821 0.77736 0.0
H1675 H 0.54662 0.51554 0.89008 0.0
H1676 H 0.59711 0.49605 0.80408 0.0
H1677 H 0.46332 0.47244 0.86427 0.0
H1678 H 0.5655 0.50786 0.85907 0.0
H1679 H 0.49529 0.46249 0.80934 0.0
C1680 C 0.52852 0.46719 0.78998 0.0
C1681 C 0.55745 0.47682 0.78792 0.0
C1682 C 0.54308 0.50002 0.86022 0.0
C1683 C 0.53571 0.48218 0.82467 0.0
C1684 C 0.53224 0.50426 0.87798 0.0
C1685 C 0.5033 0.49477 0.87982 0.0
C1686 C 0.52489 0.48618 0.8441 0.0
C1687 C 0.48581 0.4806 0.86347 0.0
C1688 C 0.51761 0.46979 0.80825 0.0
C1689 C 0.57476 0.48871 0.80481 0.0
N1690 N 0.49687 0.47682 0.84633 0.0
N1691 N 0.56365 0.49112 0.82242 0.0
H1692 H 0.52571 0.1182 0.80745 0.0
H1693 H 0.51351 0.98761 0.86492 0.0
H1694 H 0.55287 0.06484 0.78168 0.0
H1695 H 0.49864 0.04819 0.89343 0.0
H1696 H 0.52935 0.01619 0.83477 0.0
H1697 H 0.51734 0.09382 0.83934 0.0
C1698 C 0.5301 0.10143 0.80855 0.0
C1699 C 0.53981 0.09343 0.79177 0.0
C1700 C 0.52284 0.02337 0.84765 0.0
C1701 C 0.53007 0.06518 0.82838 0.0
C1702 C 0.51364 0.00698 0.86487 0.0
C1703 C 0.50446 0.01535 0.88175 0.0
C1704 C 0.52268 0.04833 0.8471 0.0
C1705 C 0.5056 0.04091 0.88086 0.0
C1706 C 0.52537 0.08755 0.8268 0.0
C1707 C 0.54547 0.07178 0.7942 0.0
N1708 N 0.51423 0.05632 0.8638 0.0
N1709 N 0.54022 0.05822 0.81206 0.0
H1710 H 0.11231 0.28592 0.58679 0.0
H1711 H 0.17222 0.29004 0.47619 0.0
H1712 H 0.13082 0.22406 0.56553 0.0
H1713 H 0.16339 0.35565 0.50232 0.0
H1714 H 0.15465 0.26392 0.50759 0.0
H1715 H 0.12912 0.31036 0.5551 0.0
C1716 C 0.1199 0.27743 0.57542 0.0
C1717 C 0.11997 0.25276 0.57887 0.0
C1718 C 0.15655 0.28403 0.50641 0.0
C1719 C 0.13944 0.28087 0.54223 0.0
C1720 C 0.16636 0.29885 0.48843 0.0
C1721 C 0.16949 0.32521 0.48661 0.0
C1722 C 0.14955 0.29551 0.52263 0.0
C1723 C 0.16176 0.33564 0.50308 0.0
C1724 C 0.1296 0.29148 0.55729 0.0
C1725 C 0.13052 0.24307 0.56361 0.0
N1726 N 0.15222 0.32083 0.52028 0.0
N1727 N 0.13967 0.25704 0.54593 0.0
H1728 H 0.77489 0.85835 0.56186 0.0
H1729 H 0.65358 0.86935 0.50276 0.0
H1730 H 0.71752 0.87965 0.59015 0.0
H1731 H 0.69847 0.83117 0.47799 0.0
H1732 H 0.68052 0.87822 0.53377 0.0
H1733 H 0.75092 0.85342 0.52989 0.0
C1734 C 0.75728 0.862 0.5614 0.0
C1735 C 0.74815 0.86925 0.57885 0.0
C1736 C 0.68452 0.86796 0.52153 0.0
C1737 C 0.72081 0.86396 0.54213 0.0
C1738 C 0.66901 0.86273 0.50382 0.0
C1739 C 0.67353 0.84927 0.48769 0.0
C1740 C 0.70486 0.85983 0.52318 0.0
C1741 C 0.69438 0.84182 0.48988 0.0
C1742 C 0.74367 0.85928 0.54309 0.0
C1743 C 0.72557 0.87432 0.57713 0.0
N1744 N 0.70918 0.84713 0.50729 0.0
N1745 N 0.71265 0.87148 0.55915 0.0
H1746 H 0.12199 0.84379 0.58382 0.0
H1747 H 0.18078 0.8888 0.47184 0.0
H1748 H 0.15138 0.92488 0.55964 0.0
H1749 H 0.16885 0.81419 0.49947 0.0
H1750 H 0.16348 0.89938 0.50241 0.0
H1751 H 0.1325 0.82968 0.55154 0.0
C1752 C 0.13034 0.8585 0.57165 0.0
C1753 C 0.13609 0.88561 0.57446 0.0
C1754 C 0.16453 0.88062 0.50177 0.0
C1755 C 0.14815 0.8697 0.53759 0.0
C1756 C 0.17425 0.87448 0.48425 0.0
C1757 C 0.17645 0.85064 0.48308 0.0
C1758 C 0.15675 0.86274 0.51829 0.0
C1759 C 0.16792 0.83301 0.49979 0.0
C1760 C 0.13649 0.85051 0.55329 0.0
C1761 C 0.14702 0.90389 0.55822 0.0
N1762 N 0.1585 0.83942 0.5167 0.0
N1763 N 0.15274 0.89564 0.54055 0.0
H1764 H 0.59567 0.81531 0.13325 0.0
H1765 H 0.70063 0.79706 0.20729 0.0
H1766 H 0.63526 0.76726 0.11983 0.0
H1767 H 0.65831 0.84147 0.22411 0.0
H1768 H 0.67718 0.787 0.17482 0.0
H1769 H 0.61895 0.82649 0.16621 0.0
C1770 C 0.60927 0.80717 0.13722 0.0
C1771 C 0.61328 0.79008 0.12387 0.0
C1772 C 0.67294 0.79895 0.18556 0.0
C1773 C 0.63987 0.8027 0.1614 0.0
C1774 C 0.68648 0.80483 0.2041 0.0
C1775 C 0.68157 0.82028 0.2184 0.0
C1776 C 0.65431 0.80861 0.18116 0.0
C1777 C 0.66256 0.82933 0.21356 0.0
C1778 C 0.62243 0.81344 0.15604 0.0
C1779 C 0.63108 0.78004 0.12978 0.0
N1780 N 0.64968 0.82345 0.1953 0.0
N1781 N 0.64365 0.78649 0.14805 0.0
H1782 H 0.2656 0.82839 0.13792 0.0
H1783 H 0.12864 0.80499 0.19761 0.0
H1784 H 0.18241 0.79074 0.11196 0.0
H1785 H 0.21244 0.84788 0.2226 0.0
H1786 H 0.1477 0.79711 0.16688 0.0
H1787 H 0.24629 0.83325 0.16968 0.0
C1788 C 0.24328 0.82118 0.13886 0.0
C1789 C 0.22567 0.80927 0.12212 0.0
C1790 C 0.16194 0.80819 0.17909 0.0
C1791 C 0.20333 0.81454 0.15863 0.0
C1792 C 0.15109 0.81284 0.19664 0.0
C1793 C 0.16896 0.82736 0.21273 0.0
C1794 C 0.19097 0.81809 0.17749 0.0
C1795 C 0.1978 0.83644 0.21069 0.0
C1796 C 0.23224 0.82384 0.15706 0.0
C1797 C 0.1968 0.79981 0.12444 0.0
N1798 N 0.2079 0.83178 0.19338 0.0
N1799 N 0.18659 0.80275 0.14228 0.0
H1800 H 0.22348 0.40033 0.11381 0.0
H1801 H 0.16764 0.38363 0.22724 0.0
H1802 H 0.19221 0.45026 0.13984 0.0
H1803 H 0.18622 0.32576 0.19829 0.0
H1804 H 0.18241 0.41181 0.19678 0.0
H1805 H 0.21591 0.37645 0.14601 0.0
C1806 C 0.21537 0.40652 0.12635 0.0
C1807 C 0.20825 0.42719 0.12402 0.0
C1808 C 0.18339 0.39301 0.19713 0.0
C1809 C 0.19933 0.3998 0.16095 0.0
C1810 C 0.17513 0.37699 0.21458 0.0
C1811 C 0.17544 0.35211 0.21534 0.0
C1812 C 0.19227 0.38427 0.18027 0.0
C1813 C 0.18515 0.34451 0.19833 0.0
C1814 C 0.21086 0.39274 0.14471 0.0
C1815 C 0.19759 0.43417 0.14082 0.0
N1816 N 0.19307 0.36043 0.18154 0.0
N1817 N 0.19338 0.42048 0.15848 0.0
H1818 H 0.83055 0.60488 0.92039 0.0
H1819 H 0.79434 0.63067 0.80836 0.0
H1820 H 0.74695 0.56232 0.89509 0.0
H1821 H 0.87774 0.67274 0.834 0.0
H1822 H 0.77694 0.60356 0.83919 0.0
H1823 H 0.8485 0.628 0.88824 0.0
C1824 C 0.81596 0.60016 0.90806 0.0
C1825 C 0.78709 0.58165 0.91064 0.0
C1826 C 0.79908 0.61866 0.83804 0.0
C1827 C 0.80759 0.60846 0.87361 0.0
C1828 C 0.80908 0.63406 0.82035 0.0
C1829 C 0.83757 0.65429 0.81852 0.0
C1830 C 0.81765 0.62339 0.8541 0.0
C1831 C 0.85552 0.65782 0.83476 0.0
C1832 C 0.82623 0.61354 0.88968 0.0
C1833 C 0.76927 0.57675 0.89404 0.0
N1834 N 0.84529 0.64267 0.8518 0.0
N1835 N 0.77975 0.59009 0.87633 0.0
H1836 H 0.43592 0.23999 0.90214 0.0
H1837 H 0.30414 0.13882 0.83435 0.0
H1838 H 0.38276 0.15369 0.91489 0.0
H1839 H 0.37209 0.21493 0.8115 0.0
H1840 H 0.33031 0.14616 0.86564 0.0
H1841 H 0.41046 0.23347 0.87038 0.0
C1842 C 0.41889 0.21972 0.89826 0.0
C1843 C 0.41153 0.19731 0.91109 0.0
C1844 C 0.33955 0.16125 0.85378 0.0
C1845 C 0.38228 0.18976 0.87501 0.0
C1846 C 0.32455 0.15714 0.83597 0.0
C1847 C 0.33596 0.17631 0.82033 0.0
C1848 C 0.36604 0.1849 0.85613 0.0
C1849 C 0.36264 0.19955 0.82315 0.0
C1850 C 0.40449 0.21598 0.88013 0.0
C1851 C 0.38936 0.17145 0.90532 0.0
N1852 N 0.37673 0.2033 0.84076 0.0
N1853 N 0.37545 0.16842 0.88779 0.0
H1854 H 0.79462 0.1776 0.91877 0.0
H1855 H 0.84224 0.22169 0.80469 0.0
H1856 H 0.80861 0.25384 0.89284 0.0
H1857 H 0.83822 0.1505 0.83272 0.0
H1858 H 0.82404 0.23071 0.83554 0.0
H1859 H 0.80432 0.1642 0.88608 0.0
C1860 C 0.79929 0.19134 0.90614 0.0
C1861 C 0.80103 0.217 0.90862 0.0
C1862 C 0.827 0.21302 0.83491 0.0
C1863 C 0.81251 0.20194 0.87116 0.0
C1864 C 0.83723 0.20776 0.81723 0.0
C1865 C 0.842 0.18541 0.81611 0.0
C1866 C 0.82132 0.19575 0.85162 0.0
C1867 C 0.83535 0.16824 0.83298 0.0
C1868 C 0.80505 0.18377 0.8875 0.0
C1869 C 0.80746 0.23406 0.89171 0.0
N1870 N 0.82548 0.17381 0.85001 0.0
N1871 N 0.8131 0.22631 0.87377 0.0
H1872 H 0.26394 0.14999 0.4652 0.0
H1873 H 0.36728 0.12993 0.53973 0.0
H1874 H 0.30356 0.10199 0.45169 0.0
H1875 H 0.3253 0.17468 0.55651 0.0
H1876 H 0.34424 0.12036 0.50712 0.0
H1877 H 0.28659 0.16048 0.49839 0.0
C1878 C 0.27741 0.14172 0.4692 0.0
C1879 C 0.28161 0.12484 0.45574 0.0
C1880 C 0.33999 0.13228 0.51789 0.0
C1881 C 0.30748 0.13667 0.49354 0.0
C1882 C 0.35329 0.13787 0.53651 0.0
C1883 C 0.34838 0.15329 0.55084 0.0
C1884 C 0.32159 0.14219 0.51342 0.0
C1885 C 0.32955 0.16256 0.54594 0.0
C1886 C 0.29021 0.14759 0.48814 0.0
C1887 C 0.29923 0.11461 0.4617 0.0
N1888 N 0.31691 0.15696 0.5276 0.0
N1889 N 0.31145 0.12067 0.4801 0.0
H1890 H 0.88462 0.10682 0.46633 0.0
H1891 H 0.84681 0.20453 0.53072 0.0
H1892 H 0.9056 0.18868 0.44823 0.0
H1893 H 0.84141 0.1307 0.55482 0.0
H1894 H 0.86644 0.19782 0.49979 0.0
H1895 H 0.8664 0.11369 0.49809 0.0
C1896 C 0.8853 0.12619 0.469 0.0
C1897 C 0.89673 0.14723 0.45459 0.0
C1898 C 0.86109 0.18311 0.51184 0.0
C1899 C 0.87597 0.15525 0.49091 0.0
C1900 C 0.84977 0.18688 0.52949 0.0
C1901 C 0.84233 0.16809 0.54536 0.0
C1902 C 0.86482 0.1602 0.50986 0.0
C1903 C 0.847 0.14578 0.54301 0.0
C1904 C 0.87507 0.13016 0.48718 0.0
C1905 C 0.89731 0.172 0.45896 0.0
N1906 N 0.85774 0.14234 0.52554 0.0
N1907 N 0.88701 0.17527 0.47665 0.0
H1908 H 0.90753 0.78015 0.47044 0.0
H1909 H 0.78836 0.65266 0.53239 0.0
H1910 H 0.82659 0.72016 0.44676 0.0
H1911 H 0.87158 0.70476 0.55644 0.0
H1912 H 0.80261 0.67873 0.50134 0.0
H1913 H 0.89597 0.75388 0.50199 0.0
C1914 C 0.88751 0.76133 0.47176 0.0
C1915 C 0.8679 0.75255 0.45595 0.0
C1916 C 0.81789 0.68455 0.51333 0.0
C1917 C 0.85438 0.72264 0.49207 0.0
C1918 C 0.80975 0.66954 0.53114 0.0
C1919 C 0.82885 0.67618 0.54709 0.0
C1920 C 0.84542 0.70669 0.51123 0.0
C1921 C 0.85608 0.69888 0.54461 0.0
C1922 C 0.88084 0.74646 0.48983 0.0
C1923 C 0.8422 0.72807 0.45861 0.0
N1924 N 0.86359 0.71326 0.52701 0.0
N1925 N 0.8362 0.71419 0.47626 0.0
loop_
_geom_bond_atom_site_label_1
_geom_bond_atom_site_label_2
_geom_bond_distance
_geom_bond_site_symmetry_2
_ccdc_geom_bond_type
H0 C3 0.929 . S
H1 C6 0.929 . S
H2 C8 0.930 . S
C3 H0 0.929 . S
C3 C4 1.398 . S
C3 C5 1.396 . S
C4 C3 1.398 . S
C4 C8 1.407 . S
C5 C3 1.396 . S
C5 C6 1.394 . S
C6 H1 0.929 . S
C6 C5 1.394 . S
C6 C7 1.382 . S
C7 C6 1.382 . S
C7 C8 1.392 . S
C7 N9 1.420 . S
C8 H2 0.930 . S
C8 C4 1.407 . S
C8 C7 1.392 . S
N9 C7 1.420 . S
N9 C10 1.244 . S
C10 N9 1.244 . S
H11 C14 0.929 . S
H12 C17 0.929 . S
H13 C19 0.930 . S
C14 H11 0.929 . S
C14 C15 1.398 . S
C14 C16 1.396 . S
C15 C14 1.398 . S
C15 C19 1.407 . S
C16 C14 1.396 . S
C16 C17 1.394 . S
C17 H12 0.929 . S
C17 C16 1.394 . S
C17 C18 1.382 . S
C18 C17 1.382 . S
C18 C19 1.392 . S
C18 N20 1.420 . S
C19 H13 0.930 . S
C19 C15 1.407 . S
C19 C18 1.392 . S
N20 C18 1.420 . S
N20 C21 1.244 . S
C21 N20 1.244 . S
H22 C25 0.929 . S
H23 C28 0.929 . S
H24 C30 0.930 . S
C25 H22 0.929 . S
C25 C26 1.398 . S
C25 C27 1.396 . S
C26 C25 1.398 . S
C26 C30 1.407 . S
C27 C25 1.396 . S
C27 C28 1.394 . S
C28 H23 0.929 . S
C28 C27 1.394 . S
C28 C29 1.382 . S
C29 C28 1.382 . S
C29 C30 1.392 . S
C29 N31 1.420 . S
C30 H24 0.930 . S
C30 C26 1.407 . S
C30 C29 1.392 . S
N31 C29 1.420 . S
N31 C32 1.244 . S
C32 N31 1.244 . S
H33 C36 0.929 . S
H34 C39 0.929 . S
H35 C41 0.930 . S
C36 H33 0.929 . S
C36 C37 1.398 . S
C36 C38 1.396 . S
C37 C36 1.398 . S
C37 C41 1.407 . S
C38 C36 1.396 . S
C38 C39 1.394 . S
C39 H34 0.929 . S
C39 C38 1.394 . S
C39 C40 1.382 . S
C40 C39 1.382 . S
C40 C41 1.392 . S
C40 N42 1.420 . S
C41 H35 0.930 . S
C41 C37 1.407 . S
C41 C40 1.392 . S
N42 C40 1.420 . S
N42 C43 1.244 . S
C43 N42 1.244 . S
H44 C47 0.929 . S
H45 C50 0.929 . S
H46 C52 0.930 . S
C47 H44 0.929 . S
C47 C48 1.398 . S
C47 C49 1.396 . S
C48 C47 1.398 . S
C48 C52 1.407 . S
C49 C47 1.396 . S
C49 C50 1.394 . S
C50 H45 0.929 . S
C50 C49 1.394 . S
C50 C51 1.382 . S
C51 C50 1.382 . S
C51 C52 1.392 . S
C51 N53 1.420 . S
C52 H46 0.930 . S
C52 C48 1.407 . S
C52 C51 1.392 . S
N53 C51 1.420 . S
N53 C54 1.244 . S
C54 N53 1.244 . S
H55 C58 0.929 . S
H56 C61 0.929 . S
H57 C63 0.930 . S
C58 H55 0.929 . S
C58 C59 1.398 . S
C58 C60 1.396 . S
C59 C58 1.398 . S
C59 C63 1.407 . S
C60 C58 1.396 . S
C60 C61 1.394 . S
C61 H56 0.929 . S
C61 C60 1.394 . S
C61 C62 1.382 . S
C62 C61 1.382 . S
C62 C63 1.392 . S
C62 N64 1.420 . S
C63 H57 0.930 . S
C63 C59 1.407 . S
C63 C62 1.392 . S
N64 C62 1.420 . S
N64 C65 1.244 . S
C65 N64 1.244 . S
H66 C69 0.929 . S
H67 C72 0.929 . S
H68 C74 0.930 . S
C69 H66 0.929 . S
C69 C70 1.398 . S
C69 C71 1.396 . S
C70 C69 1.398 . S
C70 C74 1.407 . S
C71 C69 1.396 . S
C71 C72 1.394 . S
C72 H67 0.929 . S
C72 C71 1.394 . S
C72 C73 1.382 . S
C73 C72 1.382 . S
C73 C74 1.392 . S
C73 N75 1.420 . S
C74 H68 0.930 . S
C74 C70 1.407 . S
C74 C73 1.392 . S
N75 C73 1.420 . S
N75 C76 1.244 . S
C76 N75 1.244 . S
H77 C80 0.929 . S
H78 C83 0.929 . S
H79 C85 0.930 . S
C80 H77 0.929 . S
C80 C81 1.398 . S
C80 C82 1.396 . S
C81 C80 1.398 . S
C81 C85 1.407 . S
C82 C80 1.396 . S
C82 C83 1.394 . S
C83 H78 0.929 . S
C83 C82 1.394 . S
C83 C84 1.382 . S
C84 C83 1.382 . S
C84 C85 1.392 . S
C84 N86 1.420 . S
C85 H79 0.930 . S
C85 C81 1.407 . S
C85 C84 1.392 . S
N86 C84 1.420 . S
N86 C87 1.244 . S
C87 N86 1.244 . S
H88 C91 0.929 . S
H89 C94 0.929 . S
H90 C96 0.930 . S
C91 H88 0.929 . S
C91 C92 1.398 . S
C91 C93 1.396 . S
C92 C91 1.398 . S
C92 C96 1.407 . S
C93 C91 1.396 . S
C93 C94 1.394 . S
C94 H89 0.929 . S
C94 C93 1.394 . S
C94 C95 1.382 . S
C95 C94 1.382 . S
C95 C96 1.392 . S
C95 N97 1.420 . S
C96 H90 0.930 . S
C96 C92 1.407 . S
C96 C95 1.392 . S
N97 C95 1.420 . S
N97 C98 1.244 . S
C98 N97 1.244 . S
H99 C102 0.929 . S
H100 C105 0.929 . S
H101 C107 0.930 . S
C102 H99 0.929 . S
C102 C103 1.398 . S
C102 C104 1.396 . S
C103 C102 1.398 . S
C103 C107 1.407 . S
C104 C102 1.396 . S
C104 C105 1.394 . S
C105 H100 0.929 . S
C105 C104 1.394 . S
C105 C106 1.382 . S
C106 C105 1.382 . S
C106 C107 1.392 . S
C106 N108 1.420 . S
C107 H101 0.930 . S
C107 C103 1.407 . S
C107 C106 1.392 . S
N108 C106 1.420 . S
N108 C109 1.244 . S
C109 N108 1.244 . S
H110 C113 0.929 . S
H111 C116 0.929 . S
H112 C118 0.930 . S
C113 H110 0.929 . S
C113 C114 1.398 . S
C113 C115 1.396 . S
C114 C113 1.398 . S
C114 C118 1.407 . S
C115 C113 1.396 . S
C115 C116 1.394 . S
C116 H111 0.929 . S
C116 C115 1.394 . S
C116 C117 1.382 . S
C117 C116 1.382 . S
C117 C118 1.392 . S
C117 N119 1.420 . S
C118 H112 0.930 . S
C118 C114 1.407 . S
C118 C117 1.392 . S
N119 C117 1.420 . S
N119 C120 1.244 . S
C120 N119 1.244 . S
H121 C124 0.929 . S
H122 C127 0.929 . S
H123 C129 0.930 . S
C124 H121 0.929 . S
C124 C125 1.398 . S
C124 C126 1.396 . S
C125 C124 1.398 . S
C125 C129 1.407 . S
C126 C124 1.396 . S
C126 C127 1.394 . S
C127 H122 0.929 . S
C127 C126 1.394 . S
C127 C128 1.382 . S
C128 C127 1.382 . S
C128 C129 1.392 . S
C128 N130 1.420 . S
C129 H123 0.930 . S
C129 C125 1.407 . S
C129 C128 1.392 . S
N130 C128 1.420 . S
N130 C131 1.244 . S
C131 N130 1.244 . S
H132 C135 0.929 . S
H133 C138 0.929 . S
H134 C140 0.930 . S
C135 H132 0.929 . S
C135 C136 1.398 . S
C135 C137 1.396 . S
C136 C135 1.398 . S
C136 C140 1.407 . S
C137 C135 1.396 . S
C137 C138 1.394 . S
C138 H133 0.929 . S
C138 C137 1.394 . S
C138 C139 1.382 . S
C139 C138 1.382 . S
C139 C140 1.392 . S
C139 N141 1.420 . S
C140 H134 0.930 . S
C140 C136 1.407 . S
C140 C139 1.392 . S
N141 C139 1.420 . S
N141 C142 1.244 . S
C142 N141 1.244 . S
H143 C146 0.929 . S
H144 C149 0.929 . S
H145 C151 0.930 . S
C146 H143 0.929 . S
C146 C147 1.398 . S
C146 C148 1.396 . S
C147 C146 1.398 . S
C147 C151 1.407 . S
C148 C146 1.396 . S
C148 C149 1.394 . S
C149 H144 0.929 . S
C149 C148 1.394 . S
C149 C150 1.382 . S
C150 C149 1.382 . S
C150 C151 1.392 . S
C150 N152 1.420 . S
C151 H145 0.930 . S
C151 C147 1.407 . S
C151 C150 1.392 . S
N152 C150 1.420 . S
N152 C153 1.244 . S
C153 N152 1.244 . S
H154 C157 0.929 . S
H155 C160 0.929 . S
H156 C162 0.930 . S
C157 H154 0.929 . S
C157 C158 1.398 . S
C157 C159 1.396 . S
C158 C157 1.398 . S
C158 C162 1.407 . S
C159 C157 1.396 . S
C159 C160 1.394 . S
C160 H155 0.929 . S
C160 C159 1.394 . S
C160 C161 1.382 . S
C161 C160 1.382 . S
C161 C162 1.392 . S
C161 N163 1.420 . S
C162 H156 0.930 . S
C162 C158 1.407 . S
C162 C161 1.392 . S
N163 C161 1.420 . S
N163 C164 1.244 . S
C164 N163 1.244 . S
H165 C168 0.929 . S
H166 C171 0.929 . S
H167 C173 0.930 . S
C168 H165 0.929 . S
C168 C169 1.398 . S
C168 C170 1.396 . S
C169 C168 1.398 . S
C169 C173 1.407 . S
C170 C168 1.396 . S
C170 C171 1.394 . S
C171 H166 0.929 . S
C171 C170 1.394 . S
C171 C172 1.382 . S
C172 C171 1.382 . S
C172 C173 1.392 . S
C172 N174 1.420 . S
C173 H167 0.930 . S
C173 C169 1.407 . S
C173 C172 1.392 . S
N174 C172 1.420 . S
N174 C175 1.244 . S
C175 N174 1.244 . S
H176 C179 0.929 . S
H177 C182 0.929 . S
H178 C184 0.930 . S
C179 H176 0.929 . S
C179 C180 1.398 . S
C179 C181 1.396 . S
C180 C179 1.398 . S
C180 C184 1.407 . S
C181 C179 1.396 . S
C181 C182 1.394 . S
C182 H177 0.929 . S
C182 C181 1.394 . S
C182 C183 1.382 . S
C183 C182 1.382 . S
C183 C184 1.392 . S
C183 N185 1.420 . S
C184 H178 0.930 . S
C184 C180 1.407 . S
C184 C183 1.392 . S
N185 C183 1.420 . S
N185 C186 1.244 . S
C186 N185 1.244 . S
H187 C190 0.929 . S
H188 C193 0.929 . S
H189 C195 0.930 . S
C190 H187 0.929 . S
C190 C191 1.398 . S
C190 C192 1.396 . S
C191 C190 1.398 . S
C191 C195 1.407 . S
C192 C190 1.396 . S
C192 C193 1.394 . S
C193 H188 0.929 . S
C193 C192 1.394 . S
C193 C194 1.382 . S
C194 C193 1.382 . S
C194 C195 1.392 . S
C194 N196 1.420 . S
C195 H189 0.930 . S
C195 C191 1.407 . S
C195 C194 1.392 . S
N196 C194 1.420 . S
N196 C197 1.244 . S
C197 N196 1.244 . S
Tb198 N229 2.660 . S
Tb198 N236 2.600 . S
Tb198 O242 2.546 . S
Tb198 O243 2.610 1_566 S
Tb198 O245 2.320 1_565 S
Tb198 O246 2.552 1_565 S
Tb198 O247 2.413 1_565 S
Tb198 O249 2.362 1_556 S
Tb198 O250 2.418 . S
Tb198 C262 2.832 1_565 S
C199 C202 1.432 . S
C199 C203 1.414 . S
C199 N206 1.359 . S
C200 C202 1.417 . S
C200 C204 1.432 . S
C200 C212 1.410 . S
C201 C203 1.444 . S
C201 C204 1.317 . S
C201 H224 0.929 . S
C202 C199 1.432 . S
C202 C200 1.417 . S
C202 N210 1.360 . S
C203 C199 1.414 . S
C203 C201 1.444 . S
C203 C208 1.385 . S
C204 C200 1.432 . S
C204 C201 1.317 . S
C204 H216 0.930 . S
C205 C207 1.392 . S
C205 C208 1.370 . S
C205 H217 0.931 . S
N206 C199 1.359 . S
N206 C207 1.327 . S
N206 Tb209 2.600 . S
C207 C205 1.392 . S
C207 N206 1.327 . S
C207 H214 0.930 . S
C208 C203 1.385 . S
C208 C205 1.370 . S
C208 H227 0.930 . S
Tb209 N206 2.600 . S
Tb209 N210 2.660 . S
Tb209 O243 2.362 . S
Tb209 O244 2.421 . S
Tb209 O248 2.546 . S
Tb209 O249 2.610 1_545 S
Tb209 O251 2.320 1_545 S
Tb209 O252 2.552 1_545 S
Tb209 O253 2.413 1_545 S
Tb209 C273 2.833 . S
N210 C202 1.360 . S
N210 Tb209 2.660 . S
N210 C211 1.305 . S
C211 N210 1.305 . S
C211 C213 1.407 . S
C211 H218 0.930 . S
C212 C200 1.410 . S
C212 C213 1.345 . S
C212 H220 0.930 . S
C213 C211 1.407 . S
C213 C212 1.345 . S
C213 H215 0.930 . S
H214 C207 0.930 . S
H215 C213 0.930 . S
H216 C204 0.930 . S
H217 C205 0.931 . S
H218 C211 0.930 . S
H219 C233 0.930 . S
H220 C212 0.930 . S
H221 C239 0.930 . S
H222 C230 0.930 . S
H223 C237 0.931 . S
H224 C201 0.929 . S
H225 C231 0.930 . S
H226 C264 0.930 . S
H227 C208 0.930 . S
H228 C263 0.929 . S
N229 Tb198 2.660 . S
N229 C230 1.305 . S
N229 C234 1.360 . S
C230 H222 0.930 . S
C230 N229 1.305 . S
C230 C233 1.407 . S
C231 H225 0.930 . S
C231 C232 1.410 . S
C231 C233 1.345 . S
C232 C231 1.410 . S
C232 C234 1.417 . S
C232 C264 1.432 . S
C233 H219 0.930 . S
C233 C230 1.407 . S
C233 C231 1.345 . S
C234 N229 1.360 . S
C234 C232 1.417 . S
C234 C238 1.432 . S
H235 C240 0.930 . S
N236 Tb198 2.600 . S
N236 C238 1.359 . S
N236 C239 1.327 . S
C237 H223 0.931 . S
C237 C239 1.392 . S
C237 C240 1.370 . S
C238 C234 1.432 . S
C238 N236 1.359 . S
C238 C241 1.414 . S
C239 H221 0.930 . S
C239 N236 1.327 . S
C239 C237 1.392 . S
C240 H235 0.930 . S
C240 C237 1.370 . S
C240 C241 1.385 . S
C241 C238 1.414 . S
C241 C240 1.385 . S
C241 C263 1.444 . S
O242 Tb198 2.546 . S
O242 C262 1.242 1_565 S
O243 Tb198 2.610 1_544 S
O243 Tb209 2.362 . S
O243 C254 1.283 1_554 S
O244 Tb209 2.421 . S
O244 C261 1.262 . S
O245 Tb198 2.320 1_545 S
O245 C261 1.260 1_556 S
O246 Tb198 2.552 1_545 S
O246 C254 1.243 . S
O247 Tb198 2.413 1_545 S
O247 C262 1.264 . S
O248 Tb209 2.546 . S
O248 C273 1.251 . S
O249 Tb198 2.362 1_554 S
O249 Tb209 2.610 1_565 S
O249 C265 1.283 . S
O250 Tb198 2.418 . S
O250 C272 1.268 1_556 S
O251 Tb209 2.320 1_565 S
O251 C272 1.260 . S
O252 Tb209 2.552 1_565 S
O252 C265 1.243 . S
O253 Tb209 2.413 1_565 S
O253 C273 1.256 1_565 S
C254 O243 1.283 1_556 S
C254 O246 1.243 . S
C255 C257 1.382 . S
C255 C259 1.393 1_545 S
C255 C262 1.501 . S
C256 C257 1.400 . S
C256 C258 1.384 . S
C257 C255 1.382 . S
C257 C256 1.400 . S
C257 H274 0.930 . S
C258 C256 1.384 . S
C258 C260 1.392 1_545 S
C258 H275 0.931 . S
C259 C255 1.393 1_565 S
C259 C260 1.401 . S
C259 H276 0.930 . S
C260 C258 1.392 1_565 S
C260 C259 1.401 . S
C260 H277 0.930 . S
C261 O244 1.262 . S
C261 O245 1.260 1_554 S
C262 Tb198 2.832 1_545 S
C262 O242 1.242 1_545 S
C262 O247 1.264 . S
C262 C255 1.501 . S
C263 H228 0.929 . S
C263 C241 1.444 . S
C263 C264 1.317 . S
C264 H226 0.930 . S
C264 C232 1.432 . S
C264 C263 1.317 . S
C265 O249 1.283 . S
C265 O252 1.243 . S
C266 C267 1.382 1_545 S
C266 C270 1.393 . S
C266 C273 1.500 . S
C267 C266 1.382 1_565 S
C267 C268 1.400 . S
C267 H278 0.930 . S
C268 C267 1.400 . S
C268 C269 1.384 . S
C269 C268 1.384 . S
C269 C271 1.392 1_565 S
C269 H279 0.931 . S
C270 C266 1.393 . S
C270 C271 1.401 . S
C270 H280 0.930 . S
C271 C269 1.392 1_545 S
C271 C270 1.401 . S
C271 H281 0.930 . S
C272 O250 1.268 1_554 S
C272 O251 1.260 . S
C273 Tb209 2.833 . S
C273 O248 1.251 . S
C273 O253 1.256 1_545 S
C273 C266 1.500 . S
H274 C257 0.930 . S
H275 C258 0.931 . S
H276 C259 0.930 . S
H277 C260 0.930 . S
H278 C267 0.930 . S
H279 C269 0.931 . S
H280 C270 0.930 . S
H281 C271 0.930 . S
Tb282 N313 2.660 . S
Tb282 N320 2.600 . S
Tb282 O326 2.546 . S
Tb282 O327 2.610 1_456 S
Tb282 O329 2.320 1_455 S
Tb282 O330 2.552 1_455 S
Tb282 O331 2.415 . S
Tb282 O333 2.362 1_556 S
Tb282 O334 2.391 1_556 S
Tb282 C346 2.833 . S
C283 C286 1.432 . S
C283 C287 1.414 . S
C283 N290 1.359 . S
C284 C286 1.417 . S
C284 C288 1.432 . S
C284 C296 1.410 . S
C285 C287 1.444 . S
C285 C288 1.317 . S
C285 H308 0.929 . S
C286 C283 1.432 . S
C286 C284 1.417 . S
C286 N294 1.360 . S
C287 C283 1.414 . S
C287 C285 1.444 . S
C287 C292 1.385 . S
C288 C284 1.432 . S
C288 C285 1.317 . S
C288 H300 0.930 . S
C289 C291 1.392 . S
C289 C292 1.370 . S
C289 H301 0.931 . S
N290 C283 1.359 . S
N290 C291 1.327 . S
N290 Tb293 2.600 . S
C291 C289 1.392 . S
C291 N290 1.327 . S
C291 H298 0.930 . S
C292 C287 1.385 . S
C292 C289 1.370 . S
C292 H311 0.930 . S
Tb293 N290 2.600 . S
Tb293 N294 2.660 . S
Tb293 O327 2.362 . S
Tb293 O328 2.421 . S
Tb293 O332 2.546 . S
Tb293 O333 2.610 1_655 S
Tb293 O335 2.320 1_655 S
Tb293 O336 2.552 1_655 S
Tb293 O337 2.413 1_655 S
Tb293 C357 2.833 . S
N294 C286 1.360 . S
N294 Tb293 2.660 . S
N294 C295 1.305 . S
C295 N294 1.305 . S
C295 C297 1.407 . S
C295 H302 0.930 . S
C296 C284 1.410 . S
C296 C297 1.345 . S
C296 H304 0.930 . S
C297 C295 1.407 . S
C297 C296 1.345 . S
C297 H299 0.930 . S
H298 C291 0.930 . S
H299 C297 0.930 . S
H300 C288 0.930 . S
H301 C289 0.931 . S
H302 C295 0.930 . S
H303 C317 0.930 . S
H304 C296 0.930 . S
H305 C323 0.930 . S
H306 C314 0.930 . S
H307 C321 0.931 . S
H308 C285 0.929 . S
H309 C315 0.930 . S
H310 C348 0.930 . S
H311 C292 0.930 . S
H312 C347 0.929 . S
N313 Tb282 2.660 . S
N313 C314 1.305 . S
N313 C318 1.360 . S
C314 H306 0.930 . S
C314 N313 1.305 . S
C314 C317 1.407 . S
C315 H309 0.930 . S
C315 C316 1.410 . S
C315 C317 1.345 . S
C316 C315 1.410 . S
C316 C318 1.417 . S
C316 C348 1.432 . S
C317 H303 0.930 . S
C317 C314 1.407 . S
C317 C315 1.345 . S
C318 N313 1.360 . S
C318 C316 1.417 . S
C318 C322 1.432 . S
H319 C324 0.930 . S
N320 Tb282 2.600 . S
N320 C322 1.359 . S
N320 C323 1.327 . S
C321 H307 0.931 . S
C321 C323 1.392 . S
C321 C324 1.370 . S
C322 C318 1.432 . S
C322 N320 1.359 . S
C322 C325 1.414 . S
C323 H305 0.930 . S
C323 N320 1.327 . S
C323 C321 1.392 . S
C324 H319 0.930 . S
C324 C321 1.370 . S
C324 C325 1.385 . S
C325 C322 1.414 . S
C325 C324 1.385 . S
C325 C347 1.444 . S
O326 Tb282 2.546 . S
O326 C346 1.251 . S
O327 Tb282 2.610 1_654 S
O327 Tb293 2.362 . S
O327 C338 1.283 1_554 S
O328 Tb293 2.421 . S
O328 C345 1.262 . S
O329 Tb282 2.320 1_655 S
O329 C345 1.260 1_556 S
O330 Tb282 2.552 1_655 S
O330 C338 1.243 . S
O331 Tb282 2.415 . S
O331 C346 1.255 . S
O332 Tb293 2.546 . S
O332 C357 1.251 . S
O333 Tb282 2.362 1_554 S
O333 Tb293 2.610 1_455 S
O333 C349 1.283 . S
O334 Tb282 2.391 1_554 S
O334 C356 1.321 . S
O335 Tb293 2.320 1_455 S
O335 C356 1.260 . S
O336 Tb293 2.552 1_455 S
O336 C349 1.243 . S
O337 Tb293 2.413 1_455 S
O337 C357 1.256 1_455 S
C338 O327 1.283 1_556 S
C338 O330 1.243 . S
C339 C341 1.382 1_455 S
C339 C343 1.393 . S
C339 C346 1.500 . S
C340 C341 1.400 . S
C340 C342 1.384 . S
C341 C339 1.382 1_655 S
C341 C340 1.400 . S
C341 H358 0.930 . S
C342 C340 1.384 . S
C342 C344 1.392 1_655 S
C342 H359 0.931 . S
C343 C339 1.393 . S
C343 C344 1.401 . S
C343 H360 0.930 . S
C344 C342 1.392 1_455 S
C344 C343 1.401 . S
C344 H361 0.930 . S
C345 O328 1.262 . S
C345 O329 1.260 1_554 S
C346 Tb282 2.833 . S
C346 O326 1.251 . S
C346 O331 1.255 . S
C346 C339 1.500 . S
C347 H312 0.929 . S
C347 C325 1.444 . S
C347 C348 1.317 . S
C348 H310 0.930 . S
C348 C316 1.432 . S
C348 C347 1.317 . S
C349 O333 1.283 . S
C349 O336 1.243 . S
C350 C351 1.382 . S
C350 C354 1.393 1_455 S
C350 C357 1.500 1_455 S
C351 C350 1.382 . S
C351 C352 1.400 . S
C351 H362 0.930 . S
C352 C351 1.400 . S
C352 C353 1.384 . S
C353 C352 1.384 . S
C353 C355 1.392 1_455 S
C353 H363 0.931 . S
C354 C350 1.393 1_655 S
C354 C355 1.401 . S
C354 H364 0.930 . S
C355 C353 1.392 1_655 S
C355 C354 1.401 . S
C355 H365 0.930 . S
C356 O334 1.321 . S
C356 O335 1.260 . S
C357 Tb293 2.833 . S
C357 O332 1.251 . S
C357 O337 1.256 1_655 S
C357 C350 1.500 1_655 S
H358 C341 0.930 . S
H359 C342 0.931 . S
H360 C343 0.930 . S
H361 C344 0.930 . S
H362 C351 0.930 . S
H363 C353 0.931 . S
H364 C354 0.930 . S
H365 C355 0.930 . S
Tb366 N397 2.660 . S
Tb366 N404 2.600 . S
Tb366 O410 2.546 . S
Tb366 O411 2.610 . S
Tb366 O413 2.320 . S
Tb366 O414 2.552 . S
Tb366 O415 2.413 . S
Tb366 O417 2.362 . S
Tb366 O418 2.421 . S
Tb366 C430 2.833 . S
C367 C370 1.432 . S
C367 C371 1.414 . S
C367 N374 1.359 . S
C368 C370 1.417 . S
C368 C372 1.432 . S
C368 C380 1.410 . S
C369 C371 1.444 . S
C369 C372 1.317 . S
C369 H392 0.929 . S
C370 C367 1.432 . S
C370 C368 1.417 . S
C370 N378 1.360 . S
C371 C367 1.414 . S
C371 C369 1.444 . S
C371 C376 1.385 . S
C372 C368 1.432 . S
C372 C369 1.317 . S
C372 H384 0.930 . S
C373 C375 1.392 . S
C373 C376 1.370 . S
C373 H385 0.931 . S
N374 C367 1.359 . S
N374 C375 1.327 . S
N374 Tb377 2.600 . S
C375 C373 1.392 . S
C375 N374 1.327 . S
C375 H382 0.930 . S
C376 C371 1.385 . S
C376 C373 1.370 . S
C376 H395 0.930 . S
Tb377 N374 2.600 . S
Tb377 N378 2.660 . S
Tb377 O411 2.362 1_556 S
Tb377 O412 2.421 1_556 S
Tb377 O416 2.546 . S
Tb377 O417 2.610 1_556 S
Tb377 O419 2.320 . S
Tb377 O420 2.552 . S
Tb377 O421 2.413 . S
Tb377 C441 2.833 . S
N378 C370 1.360 . S
N378 Tb377 2.660 . S
N378 C379 1.305 . S
C379 N378 1.305 . S
C379 C381 1.407 . S
C379 H386 0.930 . S
C380 C368 1.410 . S
C380 C381 1.345 . S
C380 H388 0.930 . S
C381 C379 1.407 . S
C381 C380 1.345 . S
C381 H383 0.930 . S
H382 C375 0.930 . S
H383 C381 0.930 . S
H384 C372 0.930 . S
H385 C373 0.931 . S
H386 C379 0.930 . S
H387 C401 0.930 . S
H388 C380 0.930 . S
H389 C407 0.930 . S
H390 C398 0.930 . S
H391 C405 0.931 . S
H392 C369 0.929 . S
H393 C399 0.930 . S
H394 C432 0.930 . S
H395 C376 0.930 . S
H396 C431 0.929 . S
N397 Tb366 2.660 . S
N397 C398 1.305 . S
N397 C402 1.360 . S
C398 H390 0.930 . S
C398 N397 1.305 . S
C398 C401 1.407 . S
C399 H393 0.930 . S
C399 C400 1.410 . S
C399 C401 1.345 . S
C400 C399 1.410 . S
C400 C402 1.417 . S
C400 C432 1.432 . S
C401 H387 0.930 . S
C401 C398 1.407 . S
C401 C399 1.345 . S
C402 N397 1.360 . S
C402 C400 1.417 . S
C402 C406 1.432 . S
H403 C408 0.930 . S
N404 Tb366 2.600 . S
N404 C406 1.359 . S
N404 C407 1.327 . S
C405 H391 0.931 . S
C405 C407 1.392 . S
C405 C408 1.370 . S
C406 C402 1.432 . S
C406 N404 1.359 . S
C406 C409 1.414 . S
C407 H389 0.930 . S
C407 N404 1.327 . S
C407 C405 1.392 . S
C408 H403 0.930 . S
C408 C405 1.370 . S
C408 C409 1.385 . S
C409 C406 1.414 . S
C409 C408 1.385 . S
C409 C431 1.444 . S
O410 Tb366 2.546 . S
O410 C430 1.251 . S
O411 Tb366 2.610 . S
O411 Tb377 2.362 1_554 S
O411 C422 1.283 . S
O412 Tb377 2.421 1_554 S
O412 C429 1.262 . S
O413 Tb366 2.320 . S
O413 C429 1.260 . S
O414 Tb366 2.552 . S
O414 C422 1.243 . S
O415 Tb366 2.413 . S
O415 C430 1.256 . S
O416 Tb377 2.546 . S
O416 C441 1.251 . S
O417 Tb366 2.362 . S
O417 Tb377 2.610 1_554 S
O417 C433 1.283 1_554 S
O418 Tb366 2.421 . S
O418 C440 1.262 . S
O419 Tb377 2.320 . S
O419 C440 1.260 1_556 S
O420 Tb377 2.552 . S
O420 C433 1.243 . S
O421 Tb377 2.413 . S
O421 C441 1.256 . S
C422 O411 1.283 . S
C422 O414 1.243 . S
C423 C425 1.382 . S
C423 C427 1.393 . S
C423 C430 1.500 . S
C424 C425 1.400 . S
C424 C426 1.384 . S
C425 C423 1.382 . S
C425 C424 1.400 . S
C425 H442 0.930 . S
C426 C424 1.384 . S
C426 C428 1.392 . S
C426 H443 0.931 . S
C427 C423 1.393 . S
C427 C428 1.401 . S
C427 H444 0.930 . S
C428 C426 1.392 . S
C428 C427 1.401 . S
C428 H445 0.930 . S
C429 O412 1.262 . S
C429 O413 1.260 . S
C430 Tb366 2.833 . S
C430 O410 1.251 . S
C430 O415 1.256 . S
C430 C423 1.500 . S
C431 H396 0.929 . S
C431 C409 1.444 . S
C431 C432 1.317 . S
C432 H394 0.930 . S
C432 C400 1.432 . S
C432 C431 1.317 . S
C433 O417 1.283 1_556 S
C433 O420 1.243 . S
C434 C435 1.382 . S
C434 C438 1.393 . S
C434 C441 1.500 . S
C435 C434 1.382 . S
C435 C436 1.400 . S
C435 H446 0.930 . S
C436 C435 1.400 . S
C436 C437 1.384 . S
C437 C436 1.384 . S
C437 C439 1.392 . S
C437 H447 0.931 . S
C438 C434 1.393 . S
C438 C439 1.401 . S
C438 H448 0.930 . S
C439 C437 1.392 . S
C439 C438 1.401 . S
C439 H449 0.930 . S
C440 O418 1.262 . S
C440 O419 1.260 1_554 S
C441 Tb377 2.833 . S
C441 O416 1.251 . S
C441 O421 1.256 . S
C441 C434 1.500 . S
H442 C425 0.930 . S
H443 C426 0.931 . S
H444 C427 0.930 . S
H445 C428 0.930 . S
H446 C435 0.930 . S
H447 C437 0.931 . S
H448 C438 0.930 . S
H449 C439 0.930 . S
Tb450 N481 2.660 . S
Tb450 N488 2.600 . S
Tb450 O494 2.546 . S
Tb450 O495 2.610 . S
Tb450 O497 2.320 . S
Tb450 O498 2.552 . S
Tb450 O499 2.413 . S
Tb450 O501 2.362 . S
Tb450 O502 2.421 . S
Tb450 C514 2.833 . S
C451 C454 1.432 . S
C451 C455 1.414 . S
C451 N458 1.359 . S
C452 C454 1.417 . S
C452 C456 1.432 . S
C452 C464 1.410 . S
C453 C455 1.444 . S
C453 C456 1.317 . S
C453 H476 0.929 . S
C454 C451 1.432 . S
C454 C452 1.417 . S
C454 N462 1.360 . S
C455 C451 1.414 . S
C455 C453 1.444 . S
C455 C460 1.385 . S
C456 C452 1.432 . S
C456 C453 1.317 . S
C456 H468 0.930 . S
C457 C459 1.392 . S
C457 C460 1.370 . S
C457 H469 0.931 . S
N458 C451 1.359 . S
N458 C459 1.327 . S
N458 Tb461 2.600 . S
C459 C457 1.392 . S
C459 N458 1.327 . S
C459 H466 0.930 . S
C460 C455 1.385 . S
C460 C457 1.370 . S
C460 H479 0.930 . S
Tb461 N458 2.600 . S
Tb461 N462 2.660 . S
Tb461 O495 2.362 . S
Tb461 O496 2.421 . S
Tb461 O500 2.546 . S
Tb461 O501 2.610 . S
Tb461 O503 2.320 . S
Tb461 O504 2.552 . S
Tb461 O505 2.413 . S
Tb461 C525 2.833 . S
N462 C454 1.360 . S
N462 Tb461 2.660 . S
N462 C463 1.305 . S
C463 N462 1.305 . S
C463 C465 1.407 . S
C463 H470 0.930 . S
C464 C452 1.410 . S
C464 C465 1.345 . S
C464 H472 0.930 . S
C465 C463 1.407 . S
C465 C464 1.345 . S
C465 H467 0.930 . S
H466 C459 0.930 . S
H467 C465 0.930 . S
H468 C456 0.930 . S
H469 C457 0.931 . S
H470 C463 0.930 . S
H471 C485 0.930 . S
H472 C464 0.930 . S
H473 C491 0.930 . S
H474 C482 0.930 . S
H475 C489 0.931 . S
H476 C453 0.929 . S
H477 C483 0.951 . S
H478 C516 0.930 . S
H479 C460 0.930 . S
H480 C515 0.929 . S
N481 Tb450 2.660 . S
N481 C482 1.305 . S
N481 C486 1.360 . S
C482 H474 0.930 . S
C482 N481 1.305 . S
C482 C485 1.407 . S
C483 H477 0.951 . S
C483 C484 1.410 . S
C483 C485 1.345 . S
C484 C483 1.410 . S
C484 C486 1.417 . S
C484 C516 1.432 . S
C485 H471 0.930 . S
C485 C482 1.407 . S
C485 C483 1.345 . S
C486 N481 1.360 . S
C486 C484 1.417 . S
C486 C490 1.432 . S
H487 C492 0.930 . S
N488 Tb450 2.600 . S
N488 C490 1.359 . S
N488 C491 1.327 . S
C489 H475 0.931 . S
C489 C491 1.392 . S
C489 C492 1.370 . S
C490 C486 1.432 . S
C490 N488 1.359 . S
C490 C493 1.414 . S
C491 H473 0.930 . S
C491 N488 1.327 . S
C491 C489 1.392 . S
C492 H487 0.930 . S
C492 C489 1.370 . S
C492 C493 1.385 . S
C493 C490 1.414 . S
C493 C492 1.385 . S
C493 C515 1.444 . S
O494 Tb450 2.546 . S
O494 C514 1.251 . S
O495 Tb450 2.610 . S
O495 Tb461 2.362 . S
O495 C506 1.283 . S
O496 Tb461 2.421 . S
O496 C513 1.262 . S
O497 Tb450 2.320 . S
O497 C513 1.260 . S
O498 Tb450 2.552 . S
O498 C506 1.243 . S
O499 Tb450 2.413 . S
O499 C514 1.256 . S
O500 Tb461 2.546 . S
O500 C525 1.251 . S
O501 Tb450 2.362 . S
O501 Tb461 2.610 . S
O501 C517 1.283 . S
O502 Tb450 2.421 . S
O502 C524 1.262 . S
O503 Tb461 2.320 . S
O503 C524 1.260 . S
O504 Tb461 2.552 . S
O504 C517 1.243 . S
O505 Tb461 2.413 . S
O505 C525 1.256 . S
C506 O495 1.283 . S
C506 O498 1.243 . S
C507 C509 1.382 . S
C507 C511 1.393 . S
C507 C514 1.500 . S
C508 C509 1.400 . S
C508 C510 1.384 . S
C509 C507 1.382 . S
C509 C508 1.400 . S
C509 H526 0.930 . S
C510 C508 1.384 . S
C510 C512 1.392 . S
C510 H527 0.931 . S
C511 C507 1.393 . S
C511 C512 1.401 . S
C511 H528 0.930 . S
C512 C510 1.392 . S
C512 C511 1.401 . S
C512 H529 0.930 . S
C513 O496 1.262 . S
C513 O497 1.260 . S
C514 Tb450 2.833 . S
C514 O494 1.251 . S
C514 O499 1.256 . S
C514 C507 1.500 . S
C515 H480 0.929 . S
C515 C493 1.444 . S
C515 C516 1.317 . S
C516 H478 0.930 . S
C516 C484 1.432 . S
C516 C515 1.317 . S
C517 O501 1.283 . S
C517 O504 1.243 . S
C518 C519 1.382 . S
C518 C522 1.393 . S
C518 C525 1.500 . S
C519 C518 1.382 . S
C519 C520 1.400 . S
C519 H530 0.930 . S
C520 C519 1.400 . S
C520 C521 1.384 . S
C521 C520 1.384 . S
C521 C523 1.392 . S
C521 H531 0.931 . S
C522 C518 1.393 . S
C522 C523 1.401 . S
C522 H532 0.930 . S
C523 C521 1.392 . S
C523 C522 1.401 . S
C523 H533 0.930 . S
C524 O502 1.262 . S
C524 O503 1.260 . S
C525 Tb461 2.833 . S
C525 O500 1.251 . S
C525 O505 1.256 . S
C525 C518 1.500 . S
H526 C509 0.930 . S
H527 C510 0.931 . S
H528 C511 0.930 . S
H529 C512 0.930 . S
H530 C519 0.930 . S
H531 C521 0.931 . S
H532 C522 0.930 . S
H533 C523 0.930 . S
Tb534 N565 2.660 . S
Tb534 N572 2.600 . S
Tb534 O578 2.546 . S
Tb534 O579 2.610 . S
Tb534 O581 2.320 . S
Tb534 O582 2.552 . S
Tb534 O583 2.413 . S
Tb534 O585 2.362 . S
Tb534 O586 2.421 . S
Tb534 C598 2.833 . S
C535 C538 1.432 . S
C535 C539 1.414 . S
C535 N542 1.359 . S
C536 C538 1.417 . S
C536 C540 1.432 . S
C536 C548 1.410 . S
C537 C539 1.444 . S
C537 C540 1.317 . S
C537 H560 0.929 . S
C538 C535 1.432 . S
C538 C536 1.417 . S
C538 N546 1.360 . S
C539 C535 1.414 . S
C539 C537 1.444 . S
C539 C544 1.385 . S
C540 C536 1.432 . S
C540 C537 1.317 . S
C540 H552 0.930 . S
C541 C543 1.392 . S
C541 C544 1.370 . S
C541 H553 0.931 . S
N542 C535 1.359 . S
N542 C543 1.327 . S
N542 Tb545 2.600 . S
C543 C541 1.392 . S
C543 N542 1.327 . S
C543 H550 0.930 . S
C544 C539 1.385 . S
C544 C541 1.370 . S
C544 H563 0.930 . S
Tb545 N542 2.600 . S
Tb545 N546 2.660 . S
Tb545 O579 2.362 . S
Tb545 O580 2.421 . S
Tb545 O584 2.546 . S
Tb545 O585 2.610 . S
Tb545 O587 2.320 . S
Tb545 O588 2.552 . S
Tb545 O589 2.413 . S
Tb545 C609 2.833 . S
N546 C538 1.360 . S
N546 Tb545 2.660 . S
N546 C547 1.305 . S
C547 N546 1.305 . S
C547 C549 1.407 . S
C547 H554 0.930 . S
C548 C536 1.410 . S
C548 C549 1.345 . S
C548 H556 0.930 . S
C549 C547 1.407 . S
C549 C548 1.345 . S
C549 H551 0.930 . S
H550 C543 0.930 . S
H551 C549 0.930 . S
H552 C540 0.930 . S
H553 C541 0.931 . S
H554 C547 0.930 . S
H555 C569 0.930 . S
H556 C548 0.930 . S
H557 C575 0.930 . S
H558 C566 0.930 . S
H559 C573 0.931 . S
H560 C537 0.929 . S
H561 C567 0.930 . S
H562 C600 0.930 . S
H563 C544 0.930 . S
H564 C599 0.929 . S
N565 Tb534 2.660 . S
N565 C566 1.305 . S
N565 C570 1.360 . S
C566 H558 0.930 . S
C566 N565 1.305 . S
C566 C569 1.407 . S
C567 H561 0.930 . S
C567 C568 1.410 . S
C567 C569 1.345 . S
C568 C567 1.410 . S
C568 C570 1.417 . S
C568 C600 1.432 . S
C569 H555 0.930 . S
C569 C566 1.407 . S
C569 C567 1.345 . S
C570 N565 1.360 . S
C570 C568 1.417 . S
C570 C574 1.432 . S
H571 C576 0.930 . S
N572 Tb534 2.600 . S
N572 C574 1.359 . S
N572 C575 1.327 . S
C573 H559 0.931 . S
C573 C575 1.392 . S
C573 C576 1.370 . S
C574 C570 1.432 . S
C574 N572 1.359 . S
C574 C577 1.414 . S
C575 H557 0.930 . S
C575 N572 1.327 . S
C575 C573 1.392 . S
C576 H571 0.930 . S
C576 C573 1.370 . S
C576 C577 1.385 . S
C577 C574 1.414 . S
C577 C576 1.385 . S
C577 C599 1.444 . S
O578 Tb534 2.546 . S
O578 C598 1.251 . S
O579 Tb534 2.610 . S
O579 Tb545 2.362 . S
O579 C590 1.283 . S
O580 Tb545 2.421 . S
O580 C597 1.262 . S
O581 Tb534 2.320 . S
O581 C597 1.260 . S
O582 Tb534 2.552 . S
O582 C590 1.243 . S
O583 Tb534 2.413 . S
O583 C598 1.256 . S
O584 Tb545 2.546 . S
O584 C609 1.251 . S
O585 Tb534 2.362 . S
O585 Tb545 2.610 . S
O585 C601 1.283 . S
O586 Tb534 2.421 . S
O586 C608 1.262 . S
O587 Tb545 2.320 . S
O587 C608 1.260 . S
O588 Tb545 2.552 . S
O588 C601 1.243 . S
O589 Tb545 2.413 . S
O589 C609 1.256 . S
C590 O579 1.283 . S
C590 O582 1.243 . S
C591 C593 1.382 . S
C591 C595 1.393 . S
C591 C598 1.500 . S
C592 C593 1.400 . S
C592 C594 1.384 . S
C593 C591 1.382 . S
C593 C592 1.400 . S
C593 H610 0.930 . S
C594 C592 1.384 . S
C594 C596 1.392 . S
C594 H611 0.931 . S
C595 C591 1.393 . S
C595 C596 1.401 . S
C595 H612 0.930 . S
C596 C594 1.392 . S
C596 C595 1.401 . S
C596 H613 0.930 . S
C597 O580 1.262 . S
C597 O581 1.260 . S
C598 Tb534 2.833 . S
C598 O578 1.251 . S
C598 O583 1.256 . S
C598 C591 1.500 . S
C599 H564 0.929 . S
C599 C577 1.444 . S
C599 C600 1.317 . S
C600 H562 0.930 . S
C600 C568 1.432 . S
C600 C599 1.317 . S
C601 O585 1.283 . S
C601 O588 1.243 . S
C602 C603 1.382 . S
C602 C606 1.393 . S
C602 C609 1.500 . S
C603 C602 1.382 . S
C603 C604 1.400 . S
C603 H614 0.930 . S
C604 C603 1.400 . S
C604 C605 1.384 . S
C605 C604 1.384 . S
C605 C607 1.392 . S
C605 H615 0.931 . S
C606 C602 1.393 . S
C606 C607 1.401 . S
C606 H616 0.930 . S
C607 C605 1.392 . S
C607 C606 1.401 . S
C607 H617 0.930 . S
C608 O586 1.262 . S
C608 O587 1.260 . S
C609 Tb545 2.833 . S
C609 O584 1.251 . S
C609 O589 1.256 . S
C609 C602 1.500 . S
H610 C593 0.930 . S
H611 C594 0.931 . S
H612 C595 0.930 . S
H613 C596 0.930 . S
H614 C603 0.930 . S
H615 C605 0.931 . S
H616 C606 0.930 . S
H617 C607 0.930 . S
Tb618 N649 2.660 . S
Tb618 N656 2.600 . S
Tb618 O662 2.546 . S
Tb618 O663 2.610 . S
Tb618 O665 2.320 . S
Tb618 O666 2.552 . S
Tb618 O667 2.413 . S
Tb618 O669 2.362 . S
Tb618 O670 2.421 . S
Tb618 C682 2.833 . S
C619 C622 1.432 . S
C619 C623 1.414 . S
C619 N626 1.359 . S
C620 C622 1.417 . S
C620 C624 1.432 . S
C620 C632 1.410 . S
C621 C623 1.444 . S
C621 C624 1.317 . S
C621 H644 0.929 . S
C622 C619 1.432 . S
C622 C620 1.417 . S
C622 N630 1.360 . S
C623 C619 1.414 . S
C623 C621 1.444 . S
C623 C628 1.385 . S
C624 C620 1.432 . S
C624 C621 1.317 . S
C624 H636 0.930 . S
C625 C627 1.392 . S
C625 C628 1.370 . S
C625 H637 0.931 . S
N626 C619 1.359 . S
N626 C627 1.327 . S
N626 Tb629 2.600 . S
C627 C625 1.392 . S
C627 N626 1.327 . S
C627 H634 0.930 . S
C628 C623 1.385 . S
C628 C625 1.370 . S
C628 H647 0.930 . S
Tb629 N626 2.600 . S
Tb629 N630 2.660 . S
Tb629 O663 2.362 . S
Tb629 O664 2.421 . S
Tb629 O668 2.546 . S
Tb629 O669 2.610 . S
Tb629 O671 2.320 . S
Tb629 O672 2.552 . S
Tb629 O673 2.413 . S
Tb629 C693 2.833 . S
N630 C622 1.360 . S
N630 Tb629 2.660 . S
N630 C631 1.305 . S
C631 N630 1.305 . S
C631 C633 1.407 . S
C631 H638 0.930 . S
C632 C620 1.410 . S
C632 C633 1.345 . S
C632 H640 0.930 . S
C633 C631 1.407 . S
C633 C632 1.345 . S
C633 H635 0.930 . S
H634 C627 0.930 . S
H635 C633 0.930 . S
H636 C624 0.930 . S
H637 C625 0.931 . S
H638 C631 0.930 . S
H639 C653 0.930 . S
H640 C632 0.930 . S
H641 C659 0.930 . S
H642 C650 0.930 . S
H643 C657 0.931 . S
H644 C621 0.929 . S
H645 C651 0.930 . S
H646 C684 0.930 . S
H647 C628 0.930 . S
H648 C683 0.929 . S
N649 Tb618 2.660 . S
N649 C650 1.305 . S
N649 C654 1.360 . S
C650 H642 0.930 . S
C650 N649 1.305 . S
C650 C653 1.407 . S
C651 H645 0.930 . S
C651 C652 1.410 . S
C651 C653 1.345 . S
C652 C651 1.410 . S
C652 C654 1.417 . S
C652 C684 1.432 . S
C653 H639 0.930 . S
C653 C650 1.407 . S
C653 C651 1.345 . S
C654 N649 1.360 . S
C654 C652 1.417 . S
C654 C658 1.432 . S
H655 C660 0.930 . S
N656 Tb618 2.600 . S
N656 C658 1.359 . S
N656 C659 1.327 . S
C657 H643 0.931 . S
C657 C659 1.392 . S
C657 C660 1.370 . S
C658 C654 1.432 . S
C658 N656 1.359 . S
C658 C661 1.414 . S
C659 H641 0.930 . S
C659 N656 1.327 . S
C659 C657 1.392 . S
C660 H655 0.930 . S
C660 C657 1.370 . S
C660 C661 1.385 . S
C661 C658 1.414 . S
C661 C660 1.385 . S
C661 C683 1.444 . S
O662 Tb618 2.546 . S
O662 C682 1.251 . S
O663 Tb618 2.610 . S
O663 Tb629 2.362 . S
O663 C674 1.283 . S
O664 Tb629 2.421 . S
O664 C681 1.262 . S
O665 Tb618 2.320 . S
O665 C681 1.260 . S
O666 Tb618 2.552 . S
O666 C674 1.243 . S
O667 Tb618 2.413 . S
O667 C682 1.256 . S
O668 Tb629 2.546 . S
O668 C693 1.251 . S
O669 Tb618 2.362 . S
O669 Tb629 2.610 . S
O669 C685 1.283 . S
O670 Tb618 2.421 . S
O670 C692 1.262 . S
O671 Tb629 2.320 . S
O671 C692 1.260 . S
O672 Tb629 2.552 . S
O672 C685 1.243 . S
O673 Tb629 2.413 . S
O673 C693 1.256 . S
C674 O663 1.283 . S
C674 O666 1.243 . S
C675 C677 1.382 . S
C675 C679 1.393 . S
C675 C682 1.500 . S
C676 C677 1.400 . S
C676 C678 1.384 . S
C677 C675 1.382 . S
C677 C676 1.400 . S
C677 H694 0.930 . S
C678 C676 1.384 . S
C678 C680 1.392 . S
C678 H695 0.931 . S
C679 C675 1.393 . S
C679 C680 1.401 . S
C679 H696 0.930 . S
C680 C678 1.392 . S
C680 C679 1.401 . S
C680 H697 0.930 . S
C681 O664 1.262 . S
C681 O665 1.260 . S
C682 Tb618 2.833 . S
C682 O662 1.251 . S
C682 O667 1.256 . S
C682 C675 1.500 . S
C683 H648 0.929 . S
C683 C661 1.444 . S
C683 C684 1.317 . S
C684 H646 0.930 . S
C684 C652 1.432 . S
C684 C683 1.317 . S
C685 O669 1.283 . S
C685 O672 1.243 . S
C686 C687 1.382 . S
C686 C690 1.393 . S
C686 C693 1.500 . S
C687 C686 1.382 . S
C687 C688 1.400 . S
C687 H698 0.930 . S
C688 C687 1.400 . S
C688 C689 1.384 . S
C689 C688 1.384 . S
C689 C691 1.392 . S
C689 H699 0.931 . S
C690 C686 1.393 . S
C690 C691 1.401 . S
C690 H700 0.930 . S
C691 C689 1.392 . S
C691 C690 1.401 . S
C691 H701 0.930 . S
C692 O670 1.262 . S
C692 O671 1.260 . S
C693 Tb629 2.833 . S
C693 O668 1.251 . S
C693 O673 1.256 . S
C693 C686 1.500 . S
H694 C677 0.930 . S
H695 C678 0.931 . S
H696 C679 0.930 . S
H697 C680 0.930 . S
H698 C687 0.930 . S
H699 C689 0.931 . S
H700 C690 0.930 . S
H701 C691 0.930 . S
Tb702 N733 2.660 . S
Tb702 N740 2.600 . S
Tb702 O746 2.546 . S
Tb702 O747 2.610 . S
Tb702 O749 2.320 . S
Tb702 O750 2.552 . S
Tb702 O751 2.413 . S
Tb702 O753 2.362 . S
Tb702 O754 2.421 . S
Tb702 C766 2.833 . S
C703 C706 1.432 . S
C703 C707 1.414 . S
C703 N710 1.359 . S
C704 C706 1.417 . S
C704 C708 1.432 . S
C704 C716 1.410 . S
C705 C707 1.444 . S
C705 C708 1.317 . S
C705 H728 0.929 . S
C706 C703 1.432 . S
C706 C704 1.417 . S
C706 N714 1.360 . S
C707 C703 1.414 . S
C707 C705 1.444 . S
C707 C712 1.385 . S
C708 C704 1.432 . S
C708 C705 1.317 . S
C708 H720 0.930 . S
C709 C711 1.392 . S
C709 C712 1.370 . S
C709 H721 0.931 . S
N710 C703 1.359 . S
N710 C711 1.327 . S
N710 Tb713 2.600 . S
C711 C709 1.392 . S
C711 N710 1.327 . S
C711 H718 0.930 . S
C712 C707 1.385 . S
C712 C709 1.370 . S
C712 H731 0.930 . S
Tb713 N710 2.600 . S
Tb713 N714 2.660 . S
Tb713 O747 2.362 . S
Tb713 O748 2.421 . S
Tb713 O752 2.546 . S
Tb713 O753 2.610 . S
Tb713 O755 2.320 . S
Tb713 O756 2.552 . S
Tb713 O757 2.413 . S
Tb713 C777 2.833 . S
N714 C706 1.360 . S
N714 Tb713 2.660 . S
N714 C715 1.305 . S
C715 N714 1.305 . S
C715 C717 1.407 . S
C715 H722 0.930 . S
C716 C704 1.410 . S
C716 C717 1.345 . S
C716 H724 0.930 . S
C717 C715 1.407 . S
C717 C716 1.345 . S
C717 H719 0.930 . S
H718 C711 0.930 . S
H719 C717 0.930 . S
H720 C708 0.930 . S
H721 C709 0.931 . S
H722 C715 0.930 . S
H723 C737 0.930 . S
H724 C716 0.930 . S
H725 C743 0.930 . S
H726 C734 0.930 . S
H727 C741 0.931 . S
H728 C705 0.929 . S
H729 C735 0.930 . S
H730 C768 0.930 . S
H731 C712 0.930 . S
H732 C767 0.929 . S
N733 Tb702 2.660 . S
N733 C734 1.305 . S
N733 C738 1.360 . S
C734 H726 0.930 . S
C734 N733 1.305 . S
C734 C737 1.407 . S
C735 H729 0.930 . S
C735 C736 1.410 . S
C735 C737 1.345 . S
C736 C735 1.410 . S
C736 C738 1.417 . S
C736 C768 1.432 . S
C737 H723 0.930 . S
C737 C734 1.407 . S
C737 C735 1.345 . S
C738 N733 1.360 . S
C738 C736 1.417 . S
C738 C742 1.432 . S
H739 C744 0.930 . S
N740 Tb702 2.600 . S
N740 C742 1.359 . S
N740 C743 1.327 . S
C741 H727 0.931 . S
C741 C743 1.392 . S
C741 C744 1.370 . S
C742 C738 1.432 . S
C742 N740 1.359 . S
C742 C745 1.414 . S
C743 H725 0.930 . S
C743 N740 1.327 . S
C743 C741 1.392 . S
C744 H739 0.930 . S
C744 C741 1.370 . S
C744 C745 1.385 . S
C745 C742 1.414 . S
C745 C744 1.385 . S
C745 C767 1.444 . S
O746 Tb702 2.546 . S
O746 C766 1.251 . S
O747 Tb702 2.610 . S
O747 Tb713 2.362 . S
O747 C758 1.283 . S
O748 Tb713 2.421 . S
O748 C765 1.262 . S
O749 Tb702 2.320 . S
O749 C765 1.260 . S
O750 Tb702 2.552 . S
O750 C758 1.243 . S
O751 Tb702 2.413 . S
O751 C766 1.256 . S
O752 Tb713 2.546 . S
O752 C777 1.251 . S
O753 Tb702 2.362 . S
O753 Tb713 2.610 . S
O753 C769 1.283 . S
O754 Tb702 2.421 . S
O754 C776 1.262 . S
O755 Tb713 2.320 . S
O755 C776 1.260 . S
O756 Tb713 2.552 . S
O756 C769 1.243 . S
O757 Tb713 2.413 . S
O757 C777 1.256 . S
C758 O747 1.283 . S
C758 O750 1.243 . S
C759 C761 1.382 . S
C759 C763 1.393 . S
C759 C766 1.500 . S
C760 C761 1.400 . S
C760 C762 1.384 . S
C761 C759 1.382 . S
C761 C760 1.400 . S
C761 H778 0.930 . S
C762 C760 1.384 . S
C762 C764 1.392 . S
C762 H779 0.931 . S
C763 C759 1.393 . S
C763 C764 1.401 . S
C763 H780 0.930 . S
C764 C762 1.392 . S
C764 C763 1.401 . S
C764 H781 0.930 . S
C765 O748 1.262 . S
C765 O749 1.260 . S
C766 Tb702 2.833 . S
C766 O746 1.251 . S
C766 O751 1.256 . S
C766 C759 1.500 . S
C767 H732 0.929 . S
C767 C745 1.444 . S
C767 C768 1.317 . S
C768 H730 0.930 . S
C768 C736 1.432 . S
C768 C767 1.317 . S
C769 O753 1.283 . S
C769 O756 1.243 . S
C770 C771 1.382 . S
C770 C774 1.393 . S
C770 C777 1.500 . S
C771 C770 1.382 . S
C771 C772 1.400 . S
C771 H782 0.930 . S
C772 C771 1.400 . S
C772 C773 1.384 . S
C773 C772 1.384 . S
C773 C775 1.392 . S
C773 H783 0.931 . S
C774 C770 1.393 . S
C774 C775 1.401 . S
C774 H784 0.930 . S
C775 C773 1.392 . S
C775 C774 1.401 . S
C775 H785 0.930 . S
C776 O754 1.262 . S
C776 O755 1.260 . S
C777 Tb713 2.833 . S
C777 O752 1.251 . S
C777 O757 1.256 . S
C777 C770 1.500 . S
H778 C761 0.930 . S
H779 C762 0.931 . S
H780 C763 0.930 . S
H781 C764 0.930 . S
H782 C771 0.930 . S
H783 C773 0.931 . S
H784 C774 0.930 . S
H785 C775 0.930 . S
Tb786 N817 2.660 . S
Tb786 N824 2.600 . S
Tb786 O830 2.546 . S
Tb786 O831 2.610 . S
Tb786 O833 2.320 . S
Tb786 O834 2.552 . S
Tb786 O835 2.413 . S
Tb786 O837 2.362 . S
Tb786 O838 2.421 . S
Tb786 C850 2.833 . S
C787 C790 1.432 . S
C787 C791 1.414 . S
C787 N794 1.359 . S
C788 C790 1.417 . S
C788 C792 1.432 . S
C788 C800 1.410 . S
C789 C791 1.444 . S
C789 C792 1.317 . S
C789 H812 0.929 . S
C790 C787 1.432 . S
C790 C788 1.417 . S
C790 N798 1.360 . S
C791 C787 1.414 . S
C791 C789 1.444 . S
C791 C796 1.385 . S
C792 C788 1.432 . S
C792 C789 1.317 . S
C792 H804 0.930 . S
C793 C795 1.392 . S
C793 C796 1.370 . S
C793 H805 0.931 . S
N794 C787 1.359 . S
N794 C795 1.327 . S
N794 Tb797 2.600 . S
C795 C793 1.392 . S
C795 N794 1.327 . S
C795 H802 0.930 . S
C796 C791 1.385 . S
C796 C793 1.370 . S
C796 H815 0.930 . S
Tb797 N794 2.600 . S
Tb797 N798 2.660 . S
Tb797 O831 2.362 . S
Tb797 O832 2.421 . S
Tb797 O836 2.546 . S
Tb797 O837 2.610 . S
Tb797 O839 2.320 . S
Tb797 O840 2.552 . S
Tb797 O841 2.413 . S
Tb797 C861 2.833 . S
N798 C790 1.360 . S
N798 Tb797 2.660 . S
N798 C799 1.305 . S
C799 N798 1.305 . S
C799 C801 1.407 . S
C799 H806 0.930 . S
C800 C788 1.410 . S
C800 C801 1.345 . S
C800 H808 0.930 . S
C801 C799 1.407 . S
C801 C800 1.345 . S
C801 H803 0.930 . S
H802 C795 0.930 . S
H803 C801 0.930 . S
H804 C792 0.930 . S
H805 C793 0.931 . S
H806 C799 0.930 . S
H807 C821 0.930 . S
H808 C800 0.930 . S
H809 C827 0.930 . S
H810 C818 0.930 . S
H811 C825 0.931 . S
H812 C789 0.929 . S
H813 C819 0.930 . S
H814 C852 0.930 . S
H815 C796 0.930 . S
H816 C851 0.929 . S
N817 Tb786 2.660 . S
N817 C818 1.305 . S
N817 C822 1.360 . S
C818 H810 0.930 . S
C818 N817 1.305 . S
C818 C821 1.407 . S
C819 H813 0.930 . S
C819 C820 1.410 . S
C819 C821 1.345 . S
C820 C819 1.410 . S
C820 C822 1.417 . S
C820 C852 1.432 . S
C821 H807 0.930 . S
C821 C818 1.407 . S
C821 C819 1.345 . S
C822 N817 1.360 . S
C822 C820 1.417 . S
C822 C826 1.432 . S
H823 C828 0.930 . S
N824 Tb786 2.600 . S
N824 C826 1.359 . S
N824 C827 1.327 . S
C825 H811 0.931 . S
C825 C827 1.392 . S
C825 C828 1.370 . S
C826 C822 1.432 . S
C826 N824 1.359 . S
C826 C829 1.414 . S
C827 H809 0.930 . S
C827 N824 1.327 . S
C827 C825 1.392 . S
C828 H823 0.930 . S
C828 C825 1.370 . S
C828 C829 1.385 . S
C829 C826 1.414 . S
C829 C828 1.385 . S
C829 C851 1.444 . S
O830 Tb786 2.546 . S
O830 C850 1.251 . S
O831 Tb786 2.610 . S
O831 Tb797 2.362 . S
O831 C842 1.283 . S
O832 Tb797 2.421 . S
O832 C849 1.262 . S
O833 Tb786 2.320 . S
O833 C849 1.260 . S
O834 Tb786 2.552 . S
O834 C842 1.243 . S
O835 Tb786 2.413 . S
O835 C850 1.256 . S
O836 Tb797 2.546 . S
O836 C861 1.251 . S
O837 Tb786 2.362 . S
O837 Tb797 2.610 . S
O837 C853 1.283 . S
O838 Tb786 2.421 . S
O838 C860 1.262 . S
O839 Tb797 2.320 . S
O839 C860 1.260 . S
O840 Tb797 2.552 . S
O840 C853 1.243 . S
O841 Tb797 2.413 . S
O841 C861 1.256 . S
C842 O831 1.283 . S
C842 O834 1.243 . S
C843 C845 1.382 . S
C843 C847 1.393 . S
C843 C850 1.500 . S
C844 C845 1.400 . S
C844 C846 1.384 . S
C845 C843 1.382 . S
C845 C844 1.400 . S
C845 H862 0.930 . S
C846 C844 1.384 . S
C846 C848 1.392 . S
C846 H863 0.931 . S
C847 C843 1.393 . S
C847 C848 1.401 . S
C847 H864 0.930 . S
C848 C846 1.392 . S
C848 C847 1.401 . S
C848 H865 0.930 . S
C849 O832 1.262 . S
C849 O833 1.260 . S
C850 Tb786 2.833 . S
C850 O830 1.251 . S
C850 O835 1.256 . S
C850 C843 1.500 . S
C851 H816 0.929 . S
C851 C829 1.444 . S
C851 C852 1.317 . S
C852 H814 0.930 . S
C852 C820 1.432 . S
C852 C851 1.317 . S
C853 O837 1.283 . S
C853 O840 1.243 . S
C854 C855 1.382 . S
C854 C858 1.393 . S
C854 C861 1.500 . S
C855 C854 1.382 . S
C855 C856 1.400 . S
C855 H866 0.930 . S
C856 C855 1.400 . S
C856 C857 1.384 . S
C857 C856 1.384 . S
C857 C859 1.392 . S
C857 H867 0.931 . S
C858 C854 1.393 . S
C858 C859 1.401 . S
C858 H868 0.930 . S
C859 C857 1.392 . S
C859 C858 1.401 . S
C859 H869 0.930 . S
C860 O838 1.262 . S
C860 O839 1.260 . S
C861 Tb797 2.833 . S
C861 O836 1.251 . S
C861 O841 1.256 . S
C861 C854 1.500 . S
H862 C845 0.930 . S
H863 C846 0.931 . S
H864 C847 0.930 . S
H865 C848 0.930 . S
H866 C855 0.930 . S
H867 C857 0.931 . S
H868 C858 0.930 . S
H869 C859 0.930 . S
Tb870 N901 2.660 . S
Tb870 N908 2.600 . S
Tb870 O914 2.546 . S
Tb870 O915 2.610 . S
Tb870 O917 2.320 . S
Tb870 O918 2.552 . S
Tb870 O919 2.413 . S
Tb870 O921 2.362 . S
Tb870 O922 2.421 . S
Tb870 C934 2.833 . S
C871 C874 1.432 . S
C871 C875 1.414 . S
C871 N878 1.359 . S
C872 C874 1.417 . S
C872 C876 1.432 . S
C872 C884 1.410 . S
C873 C875 1.444 . S
C873 C876 1.317 . S
C873 H896 0.929 . S
C874 C871 1.432 . S
C874 C872 1.417 . S
C874 N882 1.360 . S
C875 C871 1.414 . S
C875 C873 1.444 . S
C875 C880 1.385 . S
C876 C872 1.432 . S
C876 C873 1.317 . S
C876 H888 0.930 . S
C877 C879 1.392 . S
C877 C880 1.370 . S
C877 H889 0.931 . S
N878 C871 1.359 . S
N878 C879 1.327 . S
N878 Tb881 2.600 . S
C879 C877 1.392 . S
C879 N878 1.327 . S
C879 H886 0.930 . S
C880 C875 1.385 . S
C880 C877 1.370 . S
C880 H899 0.930 . S
Tb881 N878 2.600 . S
Tb881 N882 2.660 . S
Tb881 O915 2.362 . S
Tb881 O916 2.421 . S
Tb881 O920 2.546 . S
Tb881 O921 2.610 . S
Tb881 O923 2.320 . S
Tb881 O924 2.552 . S
Tb881 O925 2.413 . S
Tb881 C945 2.833 . S
N882 C874 1.360 . S
N882 Tb881 2.660 . S
N882 C883 1.305 . S
C883 N882 1.305 . S
C883 C885 1.407 . S
C883 H890 0.930 . S
C884 C872 1.410 . S
C884 C885 1.345 . S
C884 H892 0.930 . S
C885 C883 1.407 . S
C885 C884 1.345 . S
C885 H887 0.930 . S
H886 C879 0.930 . S
H887 C885 0.930 . S
H888 C876 0.930 . S
H889 C877 0.931 . S
H890 C883 0.930 . S
H891 C905 0.930 . S
H892 C884 0.930 . S
H893 C911 0.930 . S
H894 C902 0.930 . S
H895 C909 0.931 . S
H896 C873 0.929 . S
H897 C903 0.930 1_455 S
H898 C936 0.930 1_455 S
H899 C880 0.930 . S
H900 C935 0.929 . S
N901 Tb870 2.660 . S
N901 C902 1.305 . S
N901 C906 1.360 . S
C902 H894 0.930 . S
C902 N901 1.305 . S
C902 C905 1.407 . S
C903 H897 0.930 1_655 S
C903 C904 1.410 . S
C903 C905 1.345 . S
C904 C903 1.410 . S
C904 C906 1.417 . S
C904 C936 1.432 . S
C905 H891 0.930 . S
C905 C902 1.407 . S
C905 C903 1.345 . S
C906 N901 1.360 . S
C906 C904 1.417 . S
C906 C910 1.432 . S
H907 C912 0.930 . S
N908 Tb870 2.600 . S
N908 C910 1.359 . S
N908 C911 1.327 . S
C909 H895 0.931 . S
C909 C911 1.392 . S
C909 C912 1.370 . S
C910 C906 1.432 . S
C910 N908 1.359 . S
C910 C913 1.414 . S
C911 H893 0.930 . S
C911 N908 1.327 . S
C911 C909 1.392 . S
C912 H907 0.930 . S
C912 C909 1.370 . S
C912 C913 1.385 . S
C913 C910 1.414 . S
C913 C912 1.385 . S
C913 C935 1.444 . S
O914 Tb870 2.546 . S
O914 C934 1.251 . S
O915 Tb870 2.610 . S
O915 Tb881 2.362 . S
O915 C926 1.283 . S
O916 Tb881 2.421 . S
O916 C933 1.262 . S
O917 Tb870 2.320 . S
O917 C933 1.260 . S
O918 Tb870 2.552 . S
O918 C926 1.243 . S
O919 Tb870 2.413 . S
O919 C934 1.256 . S
O920 Tb881 2.546 . S
O920 C945 1.251 . S
O921 Tb870 2.362 . S
O921 Tb881 2.610 . S
O921 C937 1.283 . S
O922 Tb870 2.421 . S
O922 C944 1.262 . S
O923 Tb881 2.320 . S
O923 C944 1.260 . S
O924 Tb881 2.552 . S
O924 C937 1.243 . S
O925 Tb881 2.413 . S
O925 C945 1.256 . S
C926 O915 1.283 . S
C926 O918 1.243 . S
C927 C929 1.382 . S
C927 C931 1.393 . S
C927 C934 1.500 . S
C928 C929 1.400 . S
C928 C930 1.384 . S
C929 C927 1.382 . S
C929 C928 1.400 . S
C929 H946 0.930 . S
C930 C928 1.384 . S
C930 C932 1.392 . S
C930 H947 0.931 . S
C931 C927 1.393 . S
C931 C932 1.401 . S
C931 H948 0.930 . S
C932 C930 1.392 . S
C932 C931 1.401 . S
C932 H949 0.930 . S
C933 O916 1.262 . S
C933 O917 1.260 . S
C934 Tb870 2.833 . S
C934 O914 1.251 . S
C934 O919 1.256 . S
C934 C927 1.500 . S
C935 H900 0.929 . S
C935 C913 1.444 . S
C935 C936 1.317 . S
C936 H898 0.930 1_655 S
C936 C904 1.432 . S
C936 C935 1.317 . S
C937 O921 1.283 . S
C937 O924 1.243 . S
C938 C939 1.382 . S
C938 C942 1.393 . S
C938 C945 1.500 . S
C939 C938 1.382 . S
C939 C940 1.400 . S
C939 H950 0.930 . S
C940 C939 1.400 . S
C940 C941 1.384 . S
C941 C940 1.384 . S
C941 C943 1.392 . S
C941 H951 0.931 . S
C942 C938 1.393 . S
C942 C943 1.401 . S
C942 H952 0.930 . S
C943 C941 1.392 . S
C943 C942 1.401 . S
C943 H953 0.930 . S
C944 O922 1.262 . S
C944 O923 1.260 . S
C945 Tb881 2.833 . S
C945 O920 1.251 . S
C945 O925 1.256 . S
C945 C938 1.500 . S
H946 C929 0.930 . S
H947 C930 0.931 . S
H948 C931 0.930 . S
H949 C932 0.930 . S
H950 C939 0.930 . S
H951 C941 0.931 . S
H952 C942 0.930 . S
H953 C943 0.930 . S
H954 C960 0.930 . S
H955 C964 0.930 . S
H956 C969 0.929 . S
H957 C967 0.929 . S
H958 C962 0.929 . S
H959 C968 0.929 . S
C960 H954 0.930 . S
C960 C961 1.367 . S
C960 C968 1.378 . S
C961 C960 1.367 . S
C961 C969 1.433 . S
C962 H958 0.929 . S
C962 C964 1.378 . S
C962 C966 1.350 . S
C963 C966 1.463 . S
C963 C968 1.350 . S
C963 N971 1.427 . S
C964 H955 0.930 . S
C964 C962 1.378 . S
C964 C965 1.367 . S
C965 C964 1.367 . S
C965 C967 1.433 . S
C966 C962 1.350 . S
C966 C963 1.463 . S
C966 N970 1.427 . S
C967 H957 0.929 . S
C967 C965 1.433 . S
C967 N970 1.384 . S
C968 H959 0.929 . S
C968 C960 1.378 . S
C968 C963 1.350 . S
C969 H956 0.929 . S
C969 C961 1.433 . S
C969 N971 1.384 . S
N970 C966 1.427 . S
N970 C967 1.384 . S
N971 C963 1.427 . S
N971 C969 1.384 . S
H972 C978 0.930 . S
H973 C982 0.930 . S
H974 C987 0.929 . S
H975 C985 0.929 . S
H976 C980 0.929 . S
H977 C986 0.929 . S
C978 H972 0.930 . S
C978 C979 1.367 . S
C978 C986 1.378 . S
C979 C978 1.367 . S
C979 C987 1.433 . S
C980 H976 0.929 . S
C980 C982 1.378 . S
C980 C984 1.350 . S
C981 C984 1.463 . S
C981 C986 1.350 . S
C981 N989 1.427 . S
C982 H973 0.930 . S
C982 C980 1.378 . S
C982 C983 1.367 . S
C983 C982 1.367 . S
C983 C985 1.433 . S
C984 C980 1.350 . S
C984 C981 1.463 . S
C984 N988 1.427 . S
C985 H975 0.929 . S
C985 C983 1.433 . S
C985 N988 1.384 . S
C986 H977 0.929 . S
C986 C978 1.378 . S
C986 C981 1.350 . S
C987 H974 0.929 . S
C987 C979 1.433 . S
C987 N989 1.384 . S
N988 C984 1.427 . S
N988 C985 1.384 . S
N989 C981 1.427 . S
N989 C987 1.384 . S
H990 C996 0.930 . S
H991 C1000 0.930 . S
H992 C1005 0.929 . S
H993 C1003 0.929 . S
H994 C998 0.929 . S
H995 C1004 0.929 . S
C996 H990 0.930 . S
C996 C997 1.367 . S
C996 C1004 1.378 . S
C997 C996 1.367 . S
C997 C1005 1.433 . S
C998 H994 0.929 . S
C998 C1000 1.378 . S
C998 C1002 1.350 . S
C999 C1002 1.463 . S
C999 C1004 1.350 . S
C999 N1007 1.427 . S
C1000 H991 0.930 . S
C1000 C998 1.378 . S
C1000 C1001 1.367 . S
C1001 C1000 1.367 . S
C1001 C1003 1.433 . S
C1002 C998 1.350 . S
C1002 C999 1.463 . S
C1002 N1006 1.427 . S
C1003 H993 0.929 . S
C1003 C1001 1.433 . S
C1003 N1006 1.384 . S
C1004 H995 0.929 . S
C1004 C996 1.378 . S
C1004 C999 1.350 . S
C1005 H992 0.929 . S
C1005 C997 1.433 . S
C1005 N1007 1.384 . S
N1006 C1002 1.427 . S
N1006 C1003 1.384 . S
N1007 C999 1.427 . S
N1007 C1005 1.384 . S
H1008 C1014 0.930 . S
H1009 C1018 0.930 . S
H1010 C1023 0.929 . S
H1011 C1021 0.929 . S
H1012 C1016 0.929 . S
H1013 C1022 0.929 1_554 S
C1014 H1008 0.930 . S
C1014 C1015 1.367 . S
C1014 C1022 1.378 . S
C1015 C1014 1.367 . S
C1015 C1023 1.433 . S
C1016 H1012 0.929 . S
C1016 C1018 1.378 . S
C1016 C1020 1.350 . S
C1017 C1020 1.463 . S
C1017 C1022 1.350 . S
C1017 N1025 1.427 . S
C1018 H1009 0.930 . S
C1018 C1016 1.378 . S
C1018 C1019 1.367 . S
C1019 C1018 1.367 . S
C1019 C1021 1.433 1_556 S
C1020 C1016 1.350 . S
C1020 C1017 1.463 . S
C1020 N1024 1.427 1_556 S
C1021 H1011 0.929 . S
C1021 C1019 1.433 1_554 S
C1021 N1024 1.384 . S
C1022 H1013 0.929 1_556 S
C1022 C1014 1.378 . S
C1022 C1017 1.350 . S
C1023 H1010 0.929 . S
C1023 C1015 1.433 . S
C1023 N1025 1.384 . S
N1024 C1020 1.427 1_554 S
N1024 C1021 1.384 . S
N1025 C1017 1.427 . S
N1025 C1023 1.384 . S
H1026 C1032 0.930 . S
H1027 C1036 0.930 . S
H1028 C1041 0.929 . S
H1029 C1039 0.929 . S
H1030 C1034 0.929 . S
H1031 C1040 0.929 . S
C1032 H1026 0.930 . S
C1032 C1033 1.367 . S
C1032 C1040 1.378 . S
C1033 C1032 1.367 . S
C1033 C1041 1.433 . S
C1034 H1030 0.929 . S
C1034 C1036 1.378 . S
C1034 C1038 1.350 . S
C1035 C1038 1.463 . S
C1035 C1040 1.350 . S
C1035 N1043 1.427 . S
C1036 H1027 0.930 . S
C1036 C1034 1.378 . S
C1036 C1037 1.367 . S
C1037 C1036 1.367 . S
C1037 C1039 1.433 . S
C1038 C1034 1.350 . S
C1038 C1035 1.463 . S
C1038 N1042 1.427 . S
C1039 H1029 0.929 . S
C1039 C1037 1.433 . S
C1039 N1042 1.384 . S
C1040 H1031 0.929 . S
C1040 C1032 1.378 . S
C1040 C1035 1.350 . S
C1041 H1028 0.929 . S
C1041 C1033 1.433 . S
C1041 N1043 1.384 . S
N1042 C1038 1.427 . S
N1042 C1039 1.384 . S
N1043 C1035 1.427 . S
N1043 C1041 1.384 . S
H1044 C1050 0.930 . S
H1045 C1054 0.930 . S
H1046 C1059 0.929 . S
H1047 C1057 0.929 . S
H1048 C1052 0.929 . S
H1049 C1058 0.929 1_554 S
C1050 H1044 0.930 . S
C1050 C1051 1.367 . S
C1050 C1058 1.378 . S
C1051 C1050 1.367 . S
C1051 C1059 1.433 . S
C1052 H1048 0.929 . S
C1052 C1054 1.378 . S
C1052 C1056 1.350 . S
C1053 C1056 1.463 . S
C1053 C1058 1.350 . S
C1053 N1061 1.427 . S
C1054 H1045 0.930 . S
C1054 C1052 1.378 . S
C1054 C1055 1.367 . S
C1055 C1054 1.367 . S
C1055 C1057 1.433 1_556 S
C1056 C1052 1.350 . S
C1056 C1053 1.463 . S
C1056 N1060 1.427 1_556 S
C1057 H1047 0.929 . S
C1057 C1055 1.433 1_554 S
C1057 N1060 1.384 . S
C1058 H1049 0.929 1_556 S
C1058 C1050 1.378 . S
C1058 C1053 1.350 . S
C1059 H1046 0.929 . S
C1059 C1051 1.433 . S
C1059 N1061 1.384 . S
N1060 C1056 1.427 1_554 S
N1060 C1057 1.384 . S
N1061 C1053 1.427 . S
N1061 C1059 1.384 . S
H1062 C1068 0.930 . S
H1063 C1072 0.930 . S
H1064 C1077 0.929 . S
H1065 C1075 0.929 . S
H1066 C1070 0.929 . S
H1067 C1076 0.929 . S
C1068 H1062 0.930 . S
C1068 C1069 1.367 . S
C1068 C1076 1.378 . S
C1069 C1068 1.367 . S
C1069 C1077 1.433 . S
C1070 H1066 0.929 . S
C1070 C1072 1.378 . S
C1070 C1074 1.350 1_554 S
C1071 C1074 1.463 . S
C1071 C1076 1.350 . S
C1071 N1079 1.427 . S
C1072 H1063 0.930 . S
C1072 C1070 1.378 . S
C1072 C1073 1.367 1_554 S
C1073 C1072 1.367 1_556 S
C1073 C1075 1.433 . S
C1074 C1070 1.350 1_556 S
C1074 C1071 1.463 . S
C1074 N1078 1.427 . S
C1075 H1065 0.929 . S
C1075 C1073 1.433 . S
C1075 N1078 1.384 . S
C1076 H1067 0.929 . S
C1076 C1068 1.378 . S
C1076 C1071 1.350 . S
C1077 H1064 0.929 . S
C1077 C1069 1.433 . S
C1077 N1079 1.384 . S
N1078 C1074 1.427 . S
N1078 C1075 1.384 . S
N1079 C1071 1.427 . S
N1079 C1077 1.384 . S
H1080 C1086 0.930 . S
H1081 C1090 0.930 . S
H1082 C1095 0.929 . S
H1083 C1093 0.929 . S
H1084 C1088 0.929 . S
H1085 C1094 0.929 1_554 S
C1086 H1080 0.930 . S
C1086 C1087 1.367 . S
C1086 C1094 1.378 . S
C1087 C1086 1.367 . S
C1087 C1095 1.433 . S
C1088 H1084 0.929 . S
C1088 C1090 1.378 . S
C1088 C1092 1.350 . S
C1089 C1092 1.463 . S
C1089 C1094 1.350 . S
C1089 N1097 1.427 . S
C1090 H1081 0.930 . S
C1090 C1088 1.378 . S
C1090 C1091 1.367 . S
C1091 C1090 1.367 . S
C1091 C1093 1.433 1_556 S
C1092 C1088 1.350 . S
C1092 C1089 1.463 . S
C1092 N1096 1.427 1_556 S
C1093 H1083 0.929 . S
C1093 C1091 1.433 1_554 S
C1093 N1096 1.384 . S
C1094 H1085 0.929 1_556 S
C1094 C1086 1.378 . S
C1094 C1089 1.350 . S
C1095 H1082 0.929 . S
C1095 C1087 1.433 . S
C1095 N1097 1.384 . S
N1096 C1092 1.427 1_554 S
N1096 C1093 1.384 . S
N1097 C1089 1.427 . S
N1097 C1095 1.384 . S
H1098 C1104 0.930 . S
H1099 C1108 0.930 . S
H1100 C1113 0.929 . S
H1101 C1111 0.929 . S
H1102 C1106 0.929 . S
H1103 C1112 0.929 . S
C1104 H1098 0.930 . S
C1104 C1105 1.367 . S
C1104 C1112 1.378 . S
C1105 C1104 1.367 . S
C1105 C1113 1.433 . S
C1106 H1102 0.929 . S
C1106 C1108 1.378 . S
C1106 C1110 1.350 . S
C1107 C1110 1.463 . S
C1107 C1112 1.350 . S
C1107 N1115 1.427 . S
C1108 H1099 0.930 . S
C1108 C1106 1.378 . S
C1108 C1109 1.367 . S
C1109 C1108 1.367 . S
C1109 C1111 1.433 1_556 S
C1110 C1106 1.350 . S
C1110 C1107 1.463 . S
C1110 N1114 1.441 . S
C1111 H1101 0.929 . S
C1111 C1109 1.433 1_554 S
C1111 N1114 1.378 1_554 S
C1112 H1103 0.929 . S
C1112 C1104 1.378 . S
C1112 C1107 1.350 . S
C1113 H1100 0.929 . S
C1113 C1105 1.433 . S
C1113 N1115 1.384 . S
N1114 C1110 1.441 . S
N1114 C1111 1.378 1_556 S
N1115 C1107 1.427 . S
N1115 C1113 1.384 . S
H1116 C1122 0.930 . S
H1117 C1126 0.930 . S
H1118 C1131 0.929 . S
H1119 C1129 0.929 . S
H1120 C1124 0.929 . S
H1121 C1130 0.929 . S
C1122 H1116 0.930 . S
C1122 C1123 1.367 . S
C1122 C1130 1.378 . S
C1123 C1122 1.367 . S
C1123 C1131 1.433 . S
C1124 H1120 0.929 . S
C1124 C1126 1.378 . S
C1124 C1128 1.350 . S
C1125 C1128 1.463 . S
C1125 C1130 1.350 . S
C1125 N1133 1.427 . S
C1126 H1117 0.930 . S
C1126 C1124 1.378 . S
C1126 C1127 1.367 . S
C1127 C1126 1.367 . S
C1127 C1129 1.433 . S
C1128 C1124 1.350 . S
C1128 C1125 1.463 . S
C1128 N1132 1.427 . S
C1129 H1119 0.929 . S
C1129 C1127 1.433 . S
C1129 N1132 1.384 . S
C1130 H1121 0.929 . S
C1130 C1122 1.378 . S
C1130 C1125 1.350 . S
C1131 H1118 0.929 . S
C1131 C1123 1.433 . S
C1131 N1133 1.384 . S
N1132 C1128 1.427 . S
N1132 C1129 1.384 . S
N1133 C1125 1.427 . S
N1133 C1131 1.384 . S
H1134 C1140 0.930 . S
H1135 C1144 0.930 . S
H1136 C1149 0.929 . S
H1137 C1147 0.929 . S
H1138 C1142 0.929 . S
H1139 C1148 0.929 . S
C1140 H1134 0.930 . S
C1140 C1141 1.367 . S
C1140 C1148 1.378 . S
C1141 C1140 1.367 . S
C1141 C1149 1.433 . S
C1142 H1138 0.929 . S
C1142 C1144 1.378 . S
C1142 C1146 1.350 . S
C1143 C1146 1.463 . S
C1143 C1148 1.350 . S
C1143 N1151 1.427 . S
C1144 H1135 0.930 . S
C1144 C1142 1.378 . S
C1144 C1145 1.367 . S
C1145 C1144 1.367 . S
C1145 C1147 1.433 . S
C1146 C1142 1.350 . S
C1146 C1143 1.463 . S
C1146 N1150 1.427 . S
C1147 H1137 0.929 . S
C1147 C1145 1.433 . S
C1147 N1150 1.384 . S
C1148 H1139 0.929 . S
C1148 C1140 1.378 . S
C1148 C1143 1.350 . S
C1149 H1136 0.929 . S
C1149 C1141 1.433 . S
C1149 N1151 1.384 . S
N1150 C1146 1.427 . S
N1150 C1147 1.384 . S
N1151 C1143 1.427 . S
N1151 C1149 1.384 . S
H1152 C1158 0.930 . S
H1153 C1162 0.930 . S
H1154 C1167 0.929 . S
H1155 C1165 0.929 . S
H1156 C1160 0.929 . S
H1157 C1166 0.929 . S
C1158 H1152 0.930 . S
C1158 C1159 1.367 . S
C1158 C1166 1.378 . S
C1159 C1158 1.367 . S
C1159 C1167 1.433 . S
C1160 H1156 0.929 . S
C1160 C1162 1.378 . S
C1160 C1164 1.350 . S
C1161 C1164 1.463 . S
C1161 C1166 1.350 . S
C1161 N1169 1.427 . S
C1162 H1153 0.930 . S
C1162 C1160 1.378 . S
C1162 C1163 1.367 . S
C1163 C1162 1.367 . S
C1163 C1165 1.433 . S
C1164 C1160 1.350 . S
C1164 C1161 1.463 . S
C1164 N1168 1.427 . S
C1165 H1155 0.929 . S
C1165 C1163 1.433 . S
C1165 N1168 1.384 . S
C1166 H1157 0.929 . S
C1166 C1158 1.378 . S
C1166 C1161 1.350 . S
C1167 H1154 0.929 . S
C1167 C1159 1.433 . S
C1167 N1169 1.384 . S
N1168 C1164 1.427 . S
N1168 C1165 1.384 . S
N1169 C1161 1.427 . S
N1169 C1167 1.384 . S
H1170 C1176 0.930 . S
H1171 C1180 0.930 . S
H1172 C1185 0.929 . S
H1173 C1183 0.929 . S
H1174 C1178 0.928 . S
H1175 C1184 0.929 1_455 S
C1176 H1170 0.930 . S
C1176 C1177 1.367 . S
C1176 C1184 1.378 . S
C1177 C1176 1.367 . S
C1177 C1185 1.433 . S
C1178 H1174 0.928 . S
C1178 C1180 1.378 . S
C1178 C1182 1.350 . S
C1179 C1182 1.463 1_655 S
C1179 C1184 1.350 . S
C1179 N1187 1.427 . S
C1180 H1171 0.930 . S
C1180 C1178 1.378 . S
C1180 C1181 1.367 . S
C1181 C1180 1.367 . S
C1181 C1183 1.433 . S
C1182 C1178 1.350 . S
C1182 C1179 1.463 1_455 S
C1182 N1186 1.427 . S
C1183 H1173 0.929 . S
C1183 C1181 1.433 . S
C1183 N1186 1.384 . S
C1184 H1175 0.929 1_655 S
C1184 C1176 1.378 . S
C1184 C1179 1.350 . S
C1185 H1172 0.929 . S
C1185 C1177 1.433 . S
C1185 N1187 1.384 . S
N1186 C1182 1.427 . S
N1186 C1183 1.384 . S
N1187 C1179 1.427 . S
N1187 C1185 1.384 . S
H1188 C1194 0.930 . S
H1189 C1198 0.930 . S
H1190 C1203 0.929 . S
H1191 C1201 0.929 . S
H1192 C1196 0.929 . S
H1193 C1202 0.929 . S
C1194 H1188 0.930 . S
C1194 C1195 1.367 . S
C1194 C1202 1.378 . S
C1195 C1194 1.367 . S
C1195 C1203 1.433 . S
C1196 H1192 0.929 . S
C1196 C1198 1.378 . S
C1196 C1200 1.350 . S
C1197 C1200 1.463 . S
C1197 C1202 1.350 . S
C1197 N1205 1.427 . S
C1198 H1189 0.930 . S
C1198 C1196 1.378 . S
C1198 C1199 1.367 . S
C1199 C1198 1.367 . S
C1199 C1201 1.433 . S
C1200 C1196 1.350 . S
C1200 C1197 1.463 . S
C1200 N1204 1.427 . S
C1201 H1191 0.929 . S
C1201 C1199 1.433 . S
C1201 N1204 1.384 . S
C1202 H1193 0.929 . S
C1202 C1194 1.378 . S
C1202 C1197 1.350 . S
C1203 H1190 0.929 . S
C1203 C1195 1.433 . S
C1203 N1205 1.384 . S
N1204 C1200 1.427 . S
N1204 C1201 1.384 . S
N1205 C1197 1.427 . S
N1205 C1203 1.384 . S
H1206 C1212 0.930 . S
H1207 C1216 0.930 . S
H1208 C1221 0.929 . S
H1209 C1219 0.929 . S
H1210 C1214 0.929 . S
H1211 C1220 0.929 . S
C1212 H1206 0.930 . S
C1212 C1213 1.367 . S
C1212 C1220 1.378 . S
C1213 C1212 1.367 . S
C1213 C1221 1.433 . S
C1214 H1210 0.929 . S
C1214 C1216 1.378 . S
C1214 C1218 1.350 . S
C1215 C1218 1.463 1_545 S
C1215 C1220 1.350 . S
C1215 N1223 1.427 . S
C1216 H1207 0.930 . S
C1216 C1214 1.378 . S
C1216 C1217 1.367 . S
C1217 C1216 1.367 . S
C1217 C1219 1.433 . S
C1218 C1214 1.350 . S
C1218 C1215 1.463 1_565 S
C1218 N1222 1.427 . S
C1219 H1209 0.929 . S
C1219 C1217 1.433 . S
C1219 N1222 1.384 . S
C1220 H1211 0.929 . S
C1220 C1212 1.378 . S
C1220 C1215 1.350 . S
C1221 H1208 0.929 . S
C1221 C1213 1.433 . S
C1221 N1223 1.384 . S
N1222 C1218 1.427 . S
N1222 C1219 1.384 . S
N1223 C1215 1.427 . S
N1223 C1221 1.384 . S
H1224 C1230 0.930 . S
H1225 C1234 0.930 . S
H1226 C1239 0.929 . S
H1227 C1237 0.929 . S
H1228 C1232 0.929 . S
H1229 C1238 0.929 . S
C1230 H1224 0.930 . S
C1230 C1231 1.367 . S
C1230 C1238 1.378 . S
C1231 C1230 1.367 . S
C1231 C1239 1.433 . S
C1232 H1228 0.929 . S
C1232 C1234 1.378 . S
C1232 C1236 1.350 . S
C1233 C1236 1.463 . S
C1233 C1238 1.350 . S
C1233 N1241 1.427 . S
C1234 H1225 0.930 . S
C1234 C1232 1.378 . S
C1234 C1235 1.367 . S
C1235 C1234 1.367 . S
C1235 C1237 1.433 . S
C1236 C1232 1.350 . S
C1236 C1233 1.463 . S
C1236 N1240 1.427 . S
C1237 H1227 0.929 . S
C1237 C1235 1.433 . S
C1237 N1240 1.384 . S
C1238 H1229 0.929 . S
C1238 C1230 1.378 . S
C1238 C1233 1.350 . S
C1239 H1226 0.929 . S
C1239 C1231 1.433 . S
C1239 N1241 1.384 . S
N1240 C1236 1.427 . S
N1240 C1237 1.384 . S
N1241 C1233 1.427 . S
N1241 C1239 1.384 . S
H1242 C1248 0.930 . S
H1243 C1252 0.930 . S
H1244 C1257 0.929 . S
H1245 C1255 0.929 . S
H1246 C1250 0.929 . S
H1247 C1256 0.929 . S
C1248 H1242 0.930 . S
C1248 C1249 1.367 . S
C1248 C1256 1.378 . S
C1249 C1248 1.367 . S
C1249 C1257 1.433 . S
C1250 H1246 0.929 . S
C1250 C1252 1.378 . S
C1250 C1254 1.350 . S
C1251 C1254 1.463 . S
C1251 C1256 1.350 . S
C1251 N1259 1.427 . S
C1252 H1243 0.930 . S
C1252 C1250 1.378 . S
C1252 C1253 1.367 . S
C1253 C1252 1.367 . S
C1253 C1255 1.433 . S
C1254 C1250 1.350 . S
C1254 C1251 1.463 . S
C1254 N1258 1.427 . S
C1255 H1245 0.929 . S
C1255 C1253 1.433 . S
C1255 N1258 1.384 . S
C1256 H1247 0.929 . S
C1256 C1248 1.378 . S
C1256 C1251 1.350 . S
C1257 H1244 0.929 . S
C1257 C1249 1.433 . S
C1257 N1259 1.384 . S
N1258 C1254 1.427 . S
N1258 C1255 1.384 . S
N1259 C1251 1.427 . S
N1259 C1257 1.384 . S
H1260 C1266 0.930 . S
H1261 C1270 0.930 . S
H1262 C1275 0.929 . S
H1263 C1273 0.929 . S
H1264 C1268 0.929 . S
H1265 C1274 0.929 . S
C1266 H1260 0.930 . S
C1266 C1267 1.367 . S
C1266 C1274 1.378 . S
C1267 C1266 1.367 . S
C1267 C1275 1.433 . S
C1268 H1264 0.929 . S
C1268 C1270 1.378 . S
C1268 C1272 1.350 . S
C1269 C1272 1.463 . S
C1269 C1274 1.350 . S
C1269 N1277 1.427 . S
C1270 H1261 0.930 . S
C1270 C1268 1.378 . S
C1270 C1271 1.367 . S
C1271 C1270 1.367 . S
C1271 C1273 1.433 . S
C1272 C1268 1.350 . S
C1272 C1269 1.463 . S
C1272 N1276 1.427 . S
C1273 H1263 0.929 . S
C1273 C1271 1.433 . S
C1273 N1276 1.384 . S
C1274 H1265 0.929 . S
C1274 C1266 1.378 . S
C1274 C1269 1.350 . S
C1275 H1262 0.929 . S
C1275 C1267 1.433 . S
C1275 N1277 1.384 . S
N1276 C1272 1.427 . S
N1276 C1273 1.384 . S
N1277 C1269 1.427 . S
N1277 C1275 1.384 . S
H1278 C1284 0.930 . S
H1279 C1288 0.930 . S
H1280 C1293 0.929 . S
H1281 C1291 0.929 . S
H1282 C1286 0.929 . S
H1283 C1292 0.929 . S
C1284 H1278 0.930 . S
C1284 C1285 1.367 . S
C1284 C1292 1.378 . S
C1285 C1284 1.367 . S
C1285 C1293 1.433 . S
C1286 H1282 0.929 . S
C1286 C1288 1.378 . S
C1286 C1290 1.350 . S
C1287 C1290 1.463 . S
C1287 C1292 1.350 . S
C1287 N1295 1.427 . S
C1288 H1279 0.930 . S
C1288 C1286 1.378 . S
C1288 C1289 1.367 . S
C1289 C1288 1.367 . S
C1289 C1291 1.433 . S
C1290 C1286 1.350 . S
C1290 C1287 1.463 . S
C1290 N1294 1.427 . S
C1291 H1281 0.929 . S
C1291 C1289 1.433 . S
C1291 N1294 1.384 . S
C1292 H1283 0.929 . S
C1292 C1284 1.378 . S
C1292 C1287 1.350 . S
C1293 H1280 0.929 . S
C1293 C1285 1.433 . S
C1293 N1295 1.384 . S
N1294 C1290 1.427 . S
N1294 C1291 1.384 . S
N1295 C1287 1.427 . S
N1295 C1293 1.384 . S
H1296 C1302 0.930 . S
H1297 C1306 0.930 . S
H1298 C1311 0.929 . S
H1299 C1309 0.929 . S
H1300 C1304 0.929 . S
H1301 C1310 0.929 . S
C1302 H1296 0.930 . S
C1302 C1303 1.367 . S
C1302 C1310 1.378 . S
C1303 C1302 1.367 . S
C1303 C1311 1.433 . S
C1304 H1300 0.929 . S
C1304 C1306 1.378 . S
C1304 C1308 1.350 . S
C1305 C1308 1.463 . S
C1305 C1310 1.350 . S
C1305 N1313 1.427 . S
C1306 H1297 0.930 . S
C1306 C1304 1.378 . S
C1306 C1307 1.367 . S
C1307 C1306 1.367 . S
C1307 C1309 1.433 . S
C1308 C1304 1.350 . S
C1308 C1305 1.463 . S
C1308 N1312 1.427 . S
C1309 H1299 0.929 . S
C1309 C1307 1.433 . S
C1309 N1312 1.384 . S
C1310 H1301 0.929 . S
C1310 C1302 1.378 . S
C1310 C1305 1.350 . S
C1311 H1298 0.929 . S
C1311 C1303 1.433 . S
C1311 N1313 1.384 . S
N1312 C1308 1.427 . S
N1312 C1309 1.384 . S
N1313 C1305 1.427 . S
N1313 C1311 1.384 . S
H1314 C1320 0.930 . S
H1315 C1324 0.930 . S
H1316 C1329 0.929 . S
H1317 C1327 0.929 . S
H1318 C1322 0.929 . S
H1319 C1328 0.929 . S
C1320 H1314 0.930 . S
C1320 C1321 1.367 . S
C1320 C1328 1.378 . S
C1321 C1320 1.367 . S
C1321 C1329 1.433 . S
C1322 H1318 0.929 . S
C1322 C1324 1.378 . S
C1322 C1326 1.350 . S
C1323 C1326 1.463 . S
C1323 C1328 1.350 . S
C1323 N1331 1.427 . S
C1324 H1315 0.930 . S
C1324 C1322 1.378 . S
C1324 C1325 1.367 . S
C1325 C1324 1.367 . S
C1325 C1327 1.433 . S
C1326 C1322 1.350 . S
C1326 C1323 1.463 . S
C1326 N1330 1.427 . S
C1327 H1317 0.929 . S
C1327 C1325 1.433 . S
C1327 N1330 1.384 . S
C1328 H1319 0.929 . S
C1328 C1320 1.378 . S
C1328 C1323 1.350 . S
C1329 H1316 0.929 . S
C1329 C1321 1.433 . S
C1329 N1331 1.384 . S
N1330 C1326 1.427 . S
N1330 C1327 1.384 . S
N1331 C1323 1.427 . S
N1331 C1329 1.384 . S
H1332 C1338 0.930 . S
H1333 C1342 0.930 . S
H1334 C1347 0.929 . S
H1335 C1345 0.929 . S
H1336 C1340 0.929 . S
H1337 C1346 0.929 . S
C1338 H1332 0.930 . S
C1338 C1339 1.364 . S
C1338 C1346 1.381 1_545 S
C1339 C1338 1.364 . S
C1339 C1347 1.433 . S
C1340 H1336 0.929 . S
C1340 C1342 1.378 . S
C1340 C1344 1.350 . S
C1341 C1344 1.463 . S
C1341 C1346 1.350 . S
C1341 N1349 1.427 . S
C1342 H1333 0.930 . S
C1342 C1340 1.378 . S
C1342 C1343 1.367 . S
C1343 C1342 1.367 . S
C1343 C1345 1.433 . S
C1344 C1340 1.350 . S
C1344 C1341 1.463 . S
C1344 N1348 1.427 . S
C1345 H1335 0.929 . S
C1345 C1343 1.433 . S
C1345 N1348 1.384 . S
C1346 H1337 0.929 . S
C1346 C1338 1.381 1_565 S
C1346 C1341 1.350 . S
C1347 H1334 0.929 . S
C1347 C1339 1.433 . S
C1347 N1349 1.384 1_545 S
N1348 C1344 1.427 . S
N1348 C1345 1.384 . S
N1349 C1341 1.427 . S
N1349 C1347 1.384 1_565 S
H1350 C1356 0.930 1_655 S
H1351 C1360 0.930 . S
H1352 C1365 0.929 . S
H1353 C1363 0.929 . S
H1354 C1358 0.929 . S
H1355 C1364 0.929 . S
C1356 H1350 0.930 1_455 S
C1356 C1357 1.367 1_455 S
C1356 C1364 1.378 . S
C1357 C1356 1.367 1_655 S
C1357 C1365 1.433 1_655 S
C1358 H1354 0.929 . S
C1358 C1360 1.378 . S
C1358 C1362 1.350 . S
C1359 C1362 1.463 . S
C1359 C1364 1.350 . S
C1359 N1367 1.427 . S
C1360 H1351 0.930 . S
C1360 C1358 1.378 . S
C1360 C1361 1.367 . S
C1361 C1360 1.367 . S
C1361 C1363 1.433 . S
C1362 C1358 1.350 . S
C1362 C1359 1.463 . S
C1362 N1366 1.427 . S
C1363 H1353 0.929 . S
C1363 C1361 1.433 . S
C1363 N1366 1.384 . S
C1364 H1355 0.929 . S
C1364 C1356 1.378 . S
C1364 C1359 1.350 . S
C1365 H1352 0.929 . S
C1365 C1357 1.433 1_455 S
C1365 N1367 1.384 . S
N1366 C1362 1.427 . S
N1366 C1363 1.384 . S
N1367 C1359 1.427 . S
N1367 C1365 1.384 . S
H1368 C1374 0.930 . S
H1369 C1378 0.930 . S
H1370 C1383 0.929 . S
H1371 C1381 0.929 . S
H1372 C1376 0.929 . S
H1373 C1382 0.929 . S
C1374 H1368 0.930 . S
C1374 C1375 1.367 . S
C1374 C1382 1.378 . S
C1375 C1374 1.367 . S
C1375 C1383 1.433 . S
C1376 H1372 0.929 . S
C1376 C1378 1.378 . S
C1376 C1380 1.350 . S
C1377 C1380 1.463 . S
C1377 C1382 1.350 . S
C1377 N1385 1.427 . S
C1378 H1369 0.930 . S
C1378 C1376 1.378 . S
C1378 C1379 1.367 . S
C1379 C1378 1.367 . S
C1379 C1381 1.433 . S
C1380 C1376 1.350 . S
C1380 C1377 1.463 . S
C1380 N1384 1.427 . S
C1381 H1371 0.929 . S
C1381 C1379 1.433 . S
C1381 N1384 1.384 . S
C1382 H1373 0.929 . S
C1382 C1374 1.378 . S
C1382 C1377 1.350 . S
C1383 H1370 0.929 . S
C1383 C1375 1.433 . S
C1383 N1385 1.384 . S
N1384 C1380 1.427 . S
N1384 C1381 1.384 . S
N1385 C1377 1.427 . S
N1385 C1383 1.384 . S
H1386 C1392 0.930 . S
H1387 C1396 0.930 . S
H1388 C1401 0.929 . S
H1389 C1399 0.929 . S
H1390 C1394 0.929 . S
H1391 C1400 0.929 . S
C1392 H1386 0.930 . S
C1392 C1393 1.367 . S
C1392 C1400 1.378 . S
C1393 C1392 1.367 . S
C1393 C1401 1.433 . S
C1394 H1390 0.929 . S
C1394 C1396 1.378 . S
C1394 C1398 1.350 . S
C1395 C1398 1.463 . S
C1395 C1400 1.350 . S
C1395 N1403 1.427 . S
C1396 H1387 0.930 . S
C1396 C1394 1.378 . S
C1396 C1397 1.367 . S
C1397 C1396 1.367 . S
C1397 C1399 1.433 . S
C1398 C1394 1.350 . S
C1398 C1395 1.463 . S
C1398 N1402 1.427 . S
C1399 H1389 0.929 . S
C1399 C1397 1.433 . S
C1399 N1402 1.384 . S
C1400 H1391 0.929 . S
C1400 C1392 1.378 . S
C1400 C1395 1.350 . S
C1401 H1388 0.929 . S
C1401 C1393 1.433 . S
C1401 N1403 1.384 . S
N1402 C1398 1.427 . S
N1402 C1399 1.384 . S
N1403 C1395 1.427 . S
N1403 C1401 1.384 . S
H1404 C1410 0.930 . S
H1405 C1414 0.930 . S
H1406 C1419 0.929 . S
H1407 C1417 0.929 . S
H1408 C1412 0.929 . S
H1409 C1418 0.929 . S
C1410 H1404 0.930 . S
C1410 C1411 1.367 . S
C1410 C1418 1.378 . S
C1411 C1410 1.367 . S
C1411 C1419 1.433 . S
C1412 H1408 0.929 . S
C1412 C1414 1.378 . S
C1412 C1416 1.350 . S
C1413 C1416 1.463 . S
C1413 C1418 1.350 . S
C1413 N1421 1.427 . S
C1414 H1405 0.930 . S
C1414 C1412 1.378 . S
C1414 C1415 1.367 . S
C1415 C1414 1.367 . S
C1415 C1417 1.433 . S
C1416 C1412 1.350 . S
C1416 C1413 1.463 . S
C1416 N1420 1.427 . S
C1417 H1407 0.929 . S
C1417 C1415 1.433 . S
C1417 N1420 1.384 . S
C1418 H1409 0.929 . S
C1418 C1410 1.378 . S
C1418 C1413 1.350 . S
C1419 H1406 0.929 . S
C1419 C1411 1.433 . S
C1419 N1421 1.384 . S
N1420 C1416 1.427 . S
N1420 C1417 1.384 . S
N1421 C1413 1.427 . S
N1421 C1419 1.384 . S
H1422 C1428 0.930 . S
H1423 C1432 0.930 . S
H1424 C1437 0.929 . S
H1425 C1435 0.929 . S
H1426 C1430 0.929 . S
H1427 C1436 0.929 . S
C1428 H1422 0.930 . S
C1428 C1429 1.367 . S
C1428 C1436 1.378 . S
C1429 C1428 1.367 . S
C1429 C1437 1.433 . S
C1430 H1426 0.929 . S
C1430 C1432 1.378 . S
C1430 C1434 1.350 . S
C1431 C1434 1.463 . S
C1431 C1436 1.350 . S
C1431 N1439 1.427 . S
C1432 H1423 0.930 . S
C1432 C1430 1.378 . S
C1432 C1433 1.367 . S
C1433 C1432 1.367 . S
C1433 C1435 1.433 . S
C1434 C1430 1.350 . S
C1434 C1431 1.463 . S
C1434 N1438 1.427 . S
C1435 H1425 0.929 . S
C1435 C1433 1.433 . S
C1435 N1438 1.384 . S
C1436 H1427 0.929 . S
C1436 C1428 1.378 . S
C1436 C1431 1.350 . S
C1437 H1424 0.929 . S
C1437 C1429 1.433 . S
C1437 N1439 1.384 . S
N1438 C1434 1.427 . S
N1438 C1435 1.384 . S
N1439 C1431 1.427 . S
N1439 C1437 1.384 . S
H1440 C1446 0.930 . S
H1441 C1450 0.930 . S
H1442 C1455 0.929 . S
H1443 C1453 0.929 . S
H1444 C1448 0.929 . S
H1445 C1454 0.929 . S
C1446 H1440 0.930 . S
C1446 C1447 1.367 . S
C1446 C1454 1.378 . S
C1447 C1446 1.367 . S
C1447 C1455 1.433 . S
C1448 H1444 0.929 . S
C1448 C1450 1.378 . S
C1448 C1452 1.350 . S
C1449 C1452 1.463 1_565 S
C1449 C1454 1.350 . S
C1449 N1457 1.427 . S
C1450 H1441 0.930 . S
C1450 C1448 1.378 . S
C1450 C1451 1.367 . S
C1451 C1450 1.367 . S
C1451 C1453 1.433 . S
C1452 C1448 1.350 . S
C1452 C1449 1.463 1_545 S
C1452 N1456 1.427 . S
C1453 H1443 0.929 . S
C1453 C1451 1.433 . S
C1453 N1456 1.384 . S
C1454 H1445 0.929 . S
C1454 C1446 1.378 . S
C1454 C1449 1.350 . S
C1455 H1442 0.929 . S
C1455 C1447 1.433 . S
C1455 N1457 1.384 . S
N1456 C1452 1.427 . S
N1456 C1453 1.384 . S
N1457 C1449 1.427 . S
N1457 C1455 1.384 . S
H1458 C1464 0.930 . S
H1459 C1468 0.930 . S
H1460 C1473 0.929 . S
H1461 C1471 0.929 . S
H1462 C1466 0.929 1_455 S
H1463 C1472 0.929 1_655 S
C1464 H1458 0.930 . S
C1464 C1465 1.367 . S
C1464 C1472 1.378 . S
C1465 C1464 1.367 . S
C1465 C1473 1.433 . S
C1466 H1462 0.929 1_655 S
C1466 C1468 1.378 . S
C1466 C1470 1.350 . S
C1467 C1470 1.463 1_455 S
C1467 C1472 1.350 . S
C1467 N1475 1.427 . S
C1468 H1459 0.930 . S
C1468 C1466 1.378 . S
C1468 C1469 1.367 . S
C1469 C1468 1.367 . S
C1469 C1471 1.433 . S
C1470 C1466 1.350 . S
C1470 C1467 1.463 1_655 S
C1470 N1474 1.427 . S
C1471 H1461 0.929 . S
C1471 C1469 1.433 . S
C1471 N1474 1.384 . S
C1472 H1463 0.929 1_455 S
C1472 C1464 1.378 . S
C1472 C1467 1.350 . S
C1473 H1460 0.929 . S
C1473 C1465 1.433 . S
C1473 N1475 1.384 . S
N1474 C1470 1.427 . S
N1474 C1471 1.384 . S
N1475 C1467 1.427 . S
N1475 C1473 1.384 . S
H1476 C1482 0.930 . S
H1477 C1486 0.930 . S
H1478 C1491 0.929 . S
H1479 C1489 0.929 . S
H1480 C1484 0.929 . S
H1481 C1490 0.929 . S
C1482 H1476 0.930 . S
C1482 C1483 1.367 . S
C1482 C1490 1.378 . S
C1483 C1482 1.367 . S
C1483 C1491 1.433 . S
C1484 H1480 0.929 . S
C1484 C1486 1.378 . S
C1484 C1488 1.350 . S
C1485 C1488 1.463 . S
C1485 C1490 1.350 . S
C1485 N1493 1.427 . S
C1486 H1477 0.930 . S
C1486 C1484 1.378 . S
C1486 C1487 1.367 . S
C1487 C1486 1.367 . S
C1487 C1489 1.433 . S
C1488 C1484 1.350 . S
C1488 C1485 1.463 . S
C1488 N1492 1.427 . S
C1489 H1479 0.929 . S
C1489 C1487 1.433 . S
C1489 N1492 1.384 . S
C1490 H1481 0.929 . S
C1490 C1482 1.378 . S
C1490 C1485 1.350 . S
C1491 H1478 0.929 . S
C1491 C1483 1.433 . S
C1491 N1493 1.384 . S
N1492 C1488 1.427 . S
N1492 C1489 1.384 . S
N1493 C1485 1.427 . S
N1493 C1491 1.384 . S
H1494 C1500 0.930 . S
H1495 C1504 0.930 . S
H1496 C1509 0.929 1_455 S
H1497 C1507 0.929 . S
H1498 C1502 0.929 . S
H1499 C1508 0.929 . S
C1500 H1494 0.930 . S
C1500 C1501 1.367 . S
C1500 C1508 1.378 1_455 S
C1501 C1500 1.367 . S
C1501 C1509 1.433 1_455 S
C1502 H1498 0.929 . S
C1502 C1504 1.378 . S
C1502 C1506 1.350 . S
C1503 C1506 1.463 . S
C1503 C1508 1.350 . S
C1503 N1511 1.427 . S
C1504 H1495 0.930 . S
C1504 C1502 1.378 . S
C1504 C1505 1.367 . S
C1505 C1504 1.367 . S
C1505 C1507 1.433 . S
C1506 C1502 1.350 . S
C1506 C1503 1.463 . S
C1506 N1510 1.427 . S
C1507 H1497 0.929 . S
C1507 C1505 1.433 . S
C1507 N1510 1.384 . S
C1508 H1499 0.929 . S
C1508 C1500 1.378 1_655 S
C1508 C1503 1.350 . S
C1509 H1496 0.929 1_655 S
C1509 C1501 1.433 1_655 S
C1509 N1511 1.384 . S
N1510 C1506 1.427 . S
N1510 C1507 1.384 . S
N1511 C1503 1.427 . S
N1511 C1509 1.384 . S
H1512 C1518 0.930 . S
H1513 C1522 0.930 . S
H1514 C1527 0.929 . S
H1515 C1525 0.929 . S
H1516 C1520 0.929 . S
H1517 C1526 0.929 . S
C1518 H1512 0.930 . S
C1518 C1519 1.367 . S
C1518 C1526 1.378 . S
C1519 C1518 1.367 . S
C1519 C1527 1.433 . S
C1520 H1516 0.929 . S
C1520 C1522 1.378 . S
C1520 C1524 1.350 . S
C1521 C1524 1.463 . S
C1521 C1526 1.350 . S
C1521 N1529 1.427 . S
C1522 H1513 0.930 . S
C1522 C1520 1.378 . S
C1522 C1523 1.367 . S
C1523 C1522 1.367 . S
C1523 C1525 1.433 . S
C1524 C1520 1.350 . S
C1524 C1521 1.463 . S
C1524 N1528 1.427 . S
C1525 H1515 0.929 . S
C1525 C1523 1.433 . S
C1525 N1528 1.384 . S
C1526 H1517 0.929 . S
C1526 C1518 1.378 . S
C1526 C1521 1.350 . S
C1527 H1514 0.929 . S
C1527 C1519 1.433 . S
C1527 N1529 1.384 . S
N1528 C1524 1.427 . S
N1528 C1525 1.384 . S
N1529 C1521 1.427 . S
N1529 C1527 1.384 . S
H1530 C1536 0.930 . S
H1531 C1540 0.930 . S
H1532 C1545 0.929 . S
H1533 C1543 0.929 . S
H1534 C1538 0.929 . S
H1535 C1544 0.929 . S
C1536 H1530 0.930 . S
C1536 C1537 1.367 1_545 S
C1536 C1544 1.378 . S
C1537 C1536 1.367 1_565 S
C1537 C1545 1.433 . S
C1538 H1534 0.929 . S
C1538 C1540 1.378 . S
C1538 C1542 1.350 . S
C1539 C1542 1.463 . S
C1539 C1544 1.350 . S
C1539 N1547 1.427 . S
C1540 H1531 0.930 . S
C1540 C1538 1.378 . S
C1540 C1541 1.367 . S
C1541 C1540 1.367 . S
C1541 C1543 1.433 . S
C1542 C1538 1.350 . S
C1542 C1539 1.463 . S
C1542 N1546 1.427 . S
C1543 H1533 0.929 . S
C1543 C1541 1.433 . S
C1543 N1546 1.384 . S
C1544 H1535 0.929 . S
C1544 C1536 1.378 . S
C1544 C1539 1.350 . S
C1545 H1532 0.929 . S
C1545 C1537 1.433 . S
C1545 N1547 1.384 1_565 S
N1546 C1542 1.427 . S
N1546 C1543 1.384 . S
N1547 C1539 1.427 . S
N1547 C1545 1.384 1_545 S
H1548 C1554 0.930 . S
H1549 C1558 0.930 . S
H1550 C1563 0.929 . S
H1551 C1561 0.929 . S
H1552 C1556 0.929 . S
H1553 C1562 0.929 . S
C1554 H1548 0.930 . S
C1554 C1555 1.367 . S
C1554 C1562 1.378 . S
C1555 C1554 1.367 . S
C1555 C1563 1.433 . S
C1556 H1552 0.929 . S
C1556 C1558 1.378 . S
C1556 C1560 1.350 . S
C1557 C1560 1.463 . S
C1557 C1562 1.350 . S
C1557 N1565 1.427 . S
C1558 H1549 0.930 . S
C1558 C1556 1.378 . S
C1558 C1559 1.367 . S
C1559 C1558 1.367 . S
C1559 C1561 1.433 . S
C1560 C1556 1.350 . S
C1560 C1557 1.463 . S
C1560 N1564 1.427 . S
C1561 H1551 0.929 . S
C1561 C1559 1.433 . S
C1561 N1564 1.384 . S
C1562 H1553 0.929 . S
C1562 C1554 1.378 . S
C1562 C1557 1.350 . S
C1563 H1550 0.929 . S
C1563 C1555 1.433 . S
C1563 N1565 1.384 . S
N1564 C1560 1.427 . S
N1564 C1561 1.384 . S
N1565 C1557 1.427 . S
N1565 C1563 1.384 . S
H1566 C1572 0.930 . S
H1567 C1576 0.930 . S
H1568 C1581 0.929 . S
H1569 C1579 0.929 . S
H1570 C1574 0.929 . S
H1571 C1580 0.929 . S
C1572 H1566 0.930 . S
C1572 C1573 1.367 . S
C1572 C1580 1.378 . S
C1573 C1572 1.367 . S
C1573 C1581 1.433 . S
C1574 H1570 0.929 . S
C1574 C1576 1.378 . S
C1574 C1578 1.350 . S
C1575 C1578 1.463 . S
C1575 C1580 1.350 . S
C1575 N1583 1.427 . S
C1576 H1567 0.930 . S
C1576 C1574 1.378 . S
C1576 C1577 1.367 . S
C1577 C1576 1.367 . S
C1577 C1579 1.433 . S
C1578 C1574 1.350 . S
C1578 C1575 1.463 . S
C1578 N1582 1.427 . S
C1579 H1569 0.929 . S
C1579 C1577 1.433 . S
C1579 N1582 1.384 . S
C1580 H1571 0.929 . S
C1580 C1572 1.378 . S
C1580 C1575 1.350 . S
C1581 H1568 0.929 . S
C1581 C1573 1.433 . S
C1581 N1583 1.384 . S
N1582 C1578 1.427 . S
N1582 C1579 1.384 . S
N1583 C1575 1.427 . S
N1583 C1581 1.384 . S
H1584 C1590 0.930 . S
H1585 C1594 0.930 . S
H1586 C1599 0.929 . S
H1587 C1597 0.929 . S
H1588 C1592 0.929 . S
H1589 C1598 0.929 . S
C1590 H1584 0.930 . S
C1590 C1591 1.367 . S
C1590 C1598 1.378 . S
C1591 C1590 1.367 . S
C1591 C1599 1.433 . S
C1592 H1588 0.929 . S
C1592 C1594 1.378 . S
C1592 C1596 1.350 . S
C1593 C1596 1.463 . S
C1593 C1598 1.350 . S
C1593 N1601 1.427 . S
C1594 H1585 0.930 . S
C1594 C1592 1.378 . S
C1594 C1595 1.367 . S
C1595 C1594 1.367 . S
C1595 C1597 1.433 . S
C1596 C1592 1.350 . S
C1596 C1593 1.463 . S
C1596 N1600 1.427 . S
C1597 H1587 0.929 . S
C1597 C1595 1.433 . S
C1597 N1600 1.384 . S
C1598 H1589 0.929 . S
C1598 C1590 1.378 . S
C1598 C1593 1.350 . S
C1599 H1586 0.929 . S
C1599 C1591 1.433 . S
C1599 N1601 1.384 . S
N1600 C1596 1.427 . S
N1600 C1597 1.384 . S
N1601 C1593 1.427 . S
N1601 C1599 1.384 . S
H1602 C1608 0.930 . S
H1603 C1612 0.930 . S
H1604 C1617 0.929 . S
H1605 C1615 0.929 . S
H1606 C1610 0.929 . S
H1607 C1616 0.929 . S
C1608 H1602 0.930 . S
C1608 C1609 1.367 . S
C1608 C1616 1.378 . S
C1609 C1608 1.367 . S
C1609 C1617 1.433 . S
C1610 H1606 0.929 . S
C1610 C1612 1.378 . S
C1610 C1614 1.350 . S
C1611 C1614 1.463 . S
C1611 C1616 1.350 . S
C1611 N1619 1.427 . S
C1612 H1603 0.930 . S
C1612 C1610 1.378 . S
C1612 C1613 1.367 . S
C1613 C1612 1.367 . S
C1613 C1615 1.433 . S
C1614 C1610 1.350 . S
C1614 C1611 1.463 . S
C1614 N1618 1.427 . S
C1615 H1605 0.929 . S
C1615 C1613 1.433 . S
C1615 N1618 1.384 . S
C1616 H1607 0.929 . S
C1616 C1608 1.378 . S
C1616 C1611 1.350 . S
C1617 H1604 0.929 . S
C1617 C1609 1.433 . S
C1617 N1619 1.384 . S
N1618 C1614 1.427 . S
N1618 C1615 1.384 . S
N1619 C1611 1.427 . S
N1619 C1617 1.384 . S
H1620 C1626 0.930 . S
H1621 C1630 0.930 . S
H1622 C1635 0.929 . S
H1623 C1633 0.929 . S
H1624 C1628 0.929 . S
H1625 C1634 0.929 . S
C1626 H1620 0.930 . S
C1626 C1627 1.367 . S
C1626 C1634 1.378 . S
C1627 C1626 1.367 . S
C1627 C1635 1.433 . S
C1628 H1624 0.929 . S
C1628 C1630 1.378 . S
C1628 C1632 1.350 . S
C1629 C1632 1.463 . S
C1629 C1634 1.350 . S
C1629 N1637 1.427 . S
C1630 H1621 0.930 . S
C1630 C1628 1.378 . S
C1630 C1631 1.367 . S
C1631 C1630 1.367 . S
C1631 C1633 1.433 . S
C1632 C1628 1.350 . S
C1632 C1629 1.463 . S
C1632 N1636 1.427 . S
C1633 H1623 0.929 . S
C1633 C1631 1.433 . S
C1633 N1636 1.384 . S
C1634 H1625 0.929 . S
C1634 C1626 1.378 . S
C1634 C1629 1.350 . S
C1635 H1622 0.929 . S
C1635 C1627 1.433 . S
C1635 N1637 1.384 . S
N1636 C1632 1.427 . S
N1636 C1633 1.384 . S
N1637 C1629 1.427 . S
N1637 C1635 1.384 . S
H1638 C1644 0.930 . S
H1639 C1648 0.930 . S
H1640 C1653 0.929 . S
H1641 C1651 0.929 . S
H1642 C1646 0.929 . S
H1643 C1652 0.929 . S
C1644 H1638 0.930 . S
C1644 C1645 1.367 . S
C1644 C1652 1.378 . S
C1645 C1644 1.367 . S
C1645 C1653 1.433 . S
C1646 H1642 0.929 . S
C1646 C1648 1.378 . S
C1646 C1650 1.350 . S
C1647 C1650 1.463 . S
C1647 C1652 1.350 . S
C1647 N1655 1.427 . S
C1648 H1639 0.930 . S
C1648 C1646 1.378 . S
C1648 C1649 1.367 . S
C1649 C1648 1.367 . S
C1649 C1651 1.433 . S
C1650 C1646 1.350 . S
C1650 C1647 1.463 . S
C1650 N1654 1.427 . S
C1651 H1641 0.929 . S
C1651 C1649 1.433 . S
C1651 N1654 1.384 . S
C1652 H1643 0.929 . S
C1652 C1644 1.378 . S
C1652 C1647 1.350 . S
C1653 H1640 0.929 . S
C1653 C1645 1.433 . S
C1653 N1655 1.384 . S
N1654 C1650 1.427 . S
N1654 C1651 1.384 . S
N1655 C1647 1.427 . S
N1655 C1653 1.384 . S
H1656 C1662 0.930 . S
H1657 C1666 0.930 . S
H1658 C1671 0.929 . S
H1659 C1669 0.929 . S
H1660 C1664 0.929 . S
H1661 C1670 0.929 . S
C1662 H1656 0.930 . S
C1662 C1663 1.367 . S
C1662 C1670 1.378 . S
C1663 C1662 1.367 . S
C1663 C1671 1.433 . S
C1664 H1660 0.929 . S
C1664 C1666 1.378 . S
C1664 C1668 1.350 . S
C1665 C1668 1.463 . S
C1665 C1670 1.350 . S
C1665 N1673 1.427 . S
C1666 H1657 0.930 . S
C1666 C1664 1.378 . S
C1666 C1667 1.367 . S
C1667 C1666 1.367 . S
C1667 C1669 1.433 . S
C1668 C1664 1.350 . S
C1668 C1665 1.463 . S
C1668 N1672 1.427 . S
C1669 H1659 0.929 . S
C1669 C1667 1.433 . S
C1669 N1672 1.384 . S
C1670 H1661 0.929 . S
C1670 C1662 1.378 . S
C1670 C1665 1.350 . S
C1671 H1658 0.929 . S
C1671 C1663 1.433 . S
C1671 N1673 1.384 . S
N1672 C1668 1.427 . S
N1672 C1669 1.384 . S
N1673 C1665 1.427 . S
N1673 C1671 1.384 . S
H1674 C1680 0.930 . S
H1675 C1684 0.930 . S
H1676 C1689 0.929 . S
H1677 C1687 0.929 . S
H1678 C1682 0.929 . S
H1679 C1688 0.929 . S
C1680 H1674 0.930 . S
C1680 C1681 1.367 . S
C1680 C1688 1.378 . S
C1681 C1680 1.367 . S
C1681 C1689 1.433 . S
C1682 H1678 0.929 . S
C1682 C1684 1.378 . S
C1682 C1686 1.350 . S
C1683 C1686 1.463 . S
C1683 C1688 1.350 . S
C1683 N1691 1.427 . S
C1684 H1675 0.930 . S
C1684 C1682 1.378 . S
C1684 C1685 1.367 . S
C1685 C1684 1.367 . S
C1685 C1687 1.433 . S
C1686 C1682 1.350 . S
C1686 C1683 1.463 . S
C1686 N1690 1.427 . S
C1687 H1677 0.929 . S
C1687 C1685 1.433 . S
C1687 N1690 1.384 . S
C1688 H1679 0.929 . S
C1688 C1680 1.378 . S
C1688 C1683 1.350 . S
C1689 H1676 0.929 . S
C1689 C1681 1.433 . S
C1689 N1691 1.384 . S
N1690 C1686 1.427 . S
N1690 C1687 1.384 . S
N1691 C1683 1.427 . S
N1691 C1689 1.384 . S
H1692 C1698 0.930 . S
H1693 C1702 0.930 . S
H1694 C1707 0.929 . S
H1695 C1705 0.929 . S
H1696 C1700 0.929 . S
H1697 C1706 0.929 . S
C1698 H1692 0.930 . S
C1698 C1699 1.367 . S
C1698 C1706 1.378 . S
C1699 C1698 1.367 . S
C1699 C1707 1.433 . S
C1700 H1696 0.929 . S
C1700 C1702 1.378 . S
C1700 C1704 1.350 . S
C1701 C1704 1.463 . S
C1701 C1706 1.350 . S
C1701 N1709 1.427 . S
C1702 H1693 0.930 . S
C1702 C1700 1.378 . S
C1702 C1703 1.367 . S
C1703 C1702 1.367 . S
C1703 C1705 1.433 . S
C1704 C1700 1.350 . S
C1704 C1701 1.463 . S
C1704 N1708 1.427 . S
C1705 H1695 0.929 . S
C1705 C1703 1.433 . S
C1705 N1708 1.384 . S
C1706 H1697 0.929 . S
C1706 C1698 1.378 . S
C1706 C1701 1.350 . S
C1707 H1694 0.929 . S
C1707 C1699 1.433 . S
C1707 N1709 1.384 . S
N1708 C1704 1.427 . S
N1708 C1705 1.384 . S
N1709 C1701 1.427 . S
N1709 C1707 1.384 . S
H1710 C1716 0.930 . S
H1711 C1720 0.930 . S
H1712 C1725 0.929 . S
H1713 C1723 0.929 . S
H1714 C1718 0.929 . S
H1715 C1724 0.929 . S
C1716 H1710 0.930 . S
C1716 C1717 1.367 . S
C1716 C1724 1.378 . S
C1717 C1716 1.367 . S
C1717 C1725 1.433 . S
C1718 H1714 0.929 . S
C1718 C1720 1.378 . S
C1718 C1722 1.350 . S
C1719 C1722 1.463 . S
C1719 C1724 1.350 . S
C1719 N1727 1.427 . S
C1720 H1711 0.930 . S
C1720 C1718 1.378 . S
C1720 C1721 1.367 . S
C1721 C1720 1.367 . S
C1721 C1723 1.433 . S
C1722 C1718 1.350 . S
C1722 C1719 1.463 . S
C1722 N1726 1.427 . S
C1723 H1713 0.929 . S
C1723 C1721 1.433 . S
C1723 N1726 1.384 . S
C1724 H1715 0.929 . S
C1724 C1716 1.378 . S
C1724 C1719 1.350 . S
C1725 H1712 0.929 . S
C1725 C1717 1.433 . S
C1725 N1727 1.384 . S
N1726 C1722 1.427 . S
N1726 C1723 1.384 . S
N1727 C1719 1.427 . S
N1727 C1725 1.384 . S
H1728 C1734 0.930 . S
H1729 C1738 0.930 . S
H1730 C1743 0.929 . S
H1731 C1741 0.929 . S
H1732 C1736 0.929 . S
H1733 C1742 0.929 . S
C1734 H1728 0.930 . S
C1734 C1735 1.367 . S
C1734 C1742 1.378 . S
C1735 C1734 1.367 . S
C1735 C1743 1.433 . S
C1736 H1732 0.929 . S
C1736 C1738 1.378 . S
C1736 C1740 1.350 . S
C1737 C1740 1.463 . S
C1737 C1742 1.350 . S
C1737 N1745 1.427 . S
C1738 H1729 0.930 . S
C1738 C1736 1.378 . S
C1738 C1739 1.367 . S
C1739 C1738 1.367 . S
C1739 C1741 1.433 . S
C1740 C1736 1.350 . S
C1740 C1737 1.463 . S
C1740 N1744 1.427 . S
C1741 H1731 0.929 . S
C1741 C1739 1.433 . S
C1741 N1744 1.384 . S
C1742 H1733 0.929 . S
C1742 C1734 1.378 . S
C1742 C1737 1.350 . S
C1743 H1730 0.929 . S
C1743 C1735 1.433 . S
C1743 N1745 1.384 . S
N1744 C1740 1.427 . S
N1744 C1741 1.384 . S
N1745 C1737 1.427 . S
N1745 C1743 1.384 . S
H1746 C1752 0.930 . S
H1747 C1756 0.930 . S
H1748 C1761 0.929 . S
H1749 C1759 0.929 . S
H1750 C1754 0.929 . S
H1751 C1760 0.929 . S
C1752 H1746 0.930 . S
C1752 C1753 1.367 . S
C1752 C1760 1.378 . S
C1753 C1752 1.367 . S
C1753 C1761 1.433 . S
C1754 H1750 0.929 . S
C1754 C1756 1.378 . S
C1754 C1758 1.350 . S
C1755 C1758 1.463 . S
C1755 C1760 1.350 . S
C1755 N1763 1.427 . S
C1756 H1747 0.930 . S
C1756 C1754 1.378 . S
C1756 C1757 1.367 . S
C1757 C1756 1.367 . S
C1757 C1759 1.433 . S
C1758 C1754 1.350 . S
C1758 C1755 1.463 . S
C1758 N1762 1.427 . S
C1759 H1749 0.929 . S
C1759 C1757 1.433 . S
C1759 N1762 1.384 . S
C1760 H1751 0.929 . S
C1760 C1752 1.378 . S
C1760 C1755 1.350 . S
C1761 H1748 0.929 . S
C1761 C1753 1.433 . S
C1761 N1763 1.384 . S
N1762 C1758 1.427 . S
N1762 C1759 1.384 . S
N1763 C1755 1.427 . S
N1763 C1761 1.384 . S
H1764 C1770 0.930 . S
H1765 C1774 0.930 . S
H1766 C1779 0.929 . S
H1767 C1777 0.929 . S
H1768 C1772 0.929 . S
H1769 C1778 0.929 . S
C1770 H1764 0.930 . S
C1770 C1771 1.367 . S
C1770 C1778 1.378 . S
C1771 C1770 1.367 . S
C1771 C1779 1.433 . S
C1772 H1768 0.929 . S
C1772 C1774 1.378 . S
C1772 C1776 1.350 . S
C1773 C1776 1.463 . S
C1773 C1778 1.350 . S
C1773 N1781 1.427 . S
C1774 H1765 0.930 . S
C1774 C1772 1.378 . S
C1774 C1775 1.367 . S
C1775 C1774 1.367 . S
C1775 C1777 1.433 . S
C1776 C1772 1.350 . S
C1776 C1773 1.463 . S
C1776 N1780 1.427 . S
C1777 H1767 0.929 . S
C1777 C1775 1.433 . S
C1777 N1780 1.384 . S
C1778 H1769 0.929 . S
C1778 C1770 1.378 . S
C1778 C1773 1.350 . S
C1779 H1766 0.929 . S
C1779 C1771 1.433 . S
C1779 N1781 1.384 . S
N1780 C1776 1.427 . S
N1780 C1777 1.384 . S
N1781 C1773 1.427 . S
N1781 C1779 1.384 . S
H1782 C1788 0.930 . S
H1783 C1792 0.930 . S
H1784 C1797 0.929 . S
H1785 C1795 0.929 . S
H1786 C1790 0.929 . S
H1787 C1796 0.929 . S
C1788 H1782 0.930 . S
C1788 C1789 1.367 . S
C1788 C1796 1.378 . S
C1789 C1788 1.367 . S
C1789 C1797 1.433 . S
C1790 H1786 0.929 . S
C1790 C1792 1.378 . S
C1790 C1794 1.350 . S
C1791 C1794 1.463 . S
C1791 C1796 1.350 . S
C1791 N1799 1.427 . S
C1792 H1783 0.930 . S
C1792 C1790 1.378 . S
C1792 C1793 1.367 . S
C1793 C1792 1.367 . S
C1793 C1795 1.433 . S
C1794 C1790 1.350 . S
C1794 C1791 1.463 . S
C1794 N1798 1.427 . S
C1795 H1785 0.929 . S
C1795 C1793 1.433 . S
C1795 N1798 1.384 . S
C1796 H1787 0.929 . S
C1796 C1788 1.378 . S
C1796 C1791 1.350 . S
C1797 H1784 0.929 . S
C1797 C1789 1.433 . S
C1797 N1799 1.384 . S
N1798 C1794 1.427 . S
N1798 C1795 1.384 . S
N1799 C1791 1.427 . S
N1799 C1797 1.384 . S
H1800 C1806 0.930 . S
H1801 C1810 0.930 . S
H1802 C1815 0.929 . S
H1803 C1813 0.929 . S
H1804 C1808 0.929 . S
H1805 C1814 0.929 . S
C1806 H1800 0.930 . S
C1806 C1807 1.367 . S
C1806 C1814 1.378 . S
C1807 C1806 1.367 . S
C1807 C1815 1.433 . S
C1808 H1804 0.929 . S
C1808 C1810 1.378 . S
C1808 C1812 1.350 . S
C1809 C1812 1.463 . S
C1809 C1814 1.350 . S
C1809 N1817 1.427 . S
C1810 H1801 0.930 . S
C1810 C1808 1.378 . S
C1810 C1811 1.367 . S
C1811 C1810 1.367 . S
C1811 C1813 1.433 . S
C1812 C1808 1.350 . S
C1812 C1809 1.463 . S
C1812 N1816 1.427 . S
C1813 H1803 0.929 . S
C1813 C1811 1.433 . S
C1813 N1816 1.384 . S
C1814 H1805 0.929 . S
C1814 C1806 1.378 . S
C1814 C1809 1.350 . S
C1815 H1802 0.929 . S
C1815 C1807 1.433 . S
C1815 N1817 1.384 . S
N1816 C1812 1.427 . S
N1816 C1813 1.384 . S
N1817 C1809 1.427 . S
N1817 C1815 1.384 . S
H1818 C1824 0.930 . S
H1819 C1828 0.930 . S
H1820 C1833 0.929 . S
H1821 C1831 0.929 . S
H1822 C1826 0.929 . S
H1823 C1832 0.929 . S
C1824 H1818 0.930 . S
C1824 C1825 1.367 . S
C1824 C1832 1.378 . S
C1825 C1824 1.367 . S
C1825 C1833 1.433 . S
C1826 H1822 0.929 . S
C1826 C1828 1.378 . S
C1826 C1830 1.350 . S
C1827 C1830 1.463 . S
C1827 C1832 1.350 . S
C1827 N1835 1.427 . S
C1828 H1819 0.930 . S
C1828 C1826 1.378 . S
C1828 C1829 1.367 . S
C1829 C1828 1.367 . S
C1829 C1831 1.433 . S
C1830 C1826 1.350 . S
C1830 C1827 1.463 . S
C1830 N1834 1.427 . S
C1831 H1821 0.929 . S
C1831 C1829 1.433 . S
C1831 N1834 1.384 . S
C1832 H1823 0.929 . S
C1832 C1824 1.378 . S
C1832 C1827 1.350 . S
C1833 H1820 0.929 . S
C1833 C1825 1.433 . S
C1833 N1835 1.384 . S
N1834 C1830 1.427 . S
N1834 C1831 1.384 . S
N1835 C1827 1.427 . S
N1835 C1833 1.384 . S
H1836 C1842 0.930 . S
H1837 C1846 0.930 . S
H1838 C1851 0.929 . S
H1839 C1849 0.929 . S
H1840 C1844 0.929 . S
H1841 C1850 0.929 . S
C1842 H1836 0.930 . S
C1842 C1843 1.367 . S
C1842 C1850 1.378 . S
C1843 C1842 1.367 . S
C1843 C1851 1.433 . S
C1844 H1840 0.929 . S
C1844 C1846 1.378 . S
C1844 C1848 1.350 . S
C1845 C1848 1.463 . S
C1845 C1850 1.350 . S
C1845 N1853 1.427 . S
C1846 H1837 0.930 . S
C1846 C1844 1.378 . S
C1846 C1847 1.367 . S
C1847 C1846 1.367 . S
C1847 C1849 1.433 . S
C1848 C1844 1.350 . S
C1848 C1845 1.463 . S
C1848 N1852 1.427 . S
C1849 H1839 0.929 . S
C1849 C1847 1.433 . S
C1849 N1852 1.384 . S
C1850 H1841 0.929 . S
C1850 C1842 1.378 . S
C1850 C1845 1.350 . S
C1851 H1838 0.929 . S
C1851 C1843 1.433 . S
C1851 N1853 1.384 . S
N1852 C1848 1.427 . S
N1852 C1849 1.384 . S
N1853 C1845 1.427 . S
N1853 C1851 1.384 . S
H1854 C1860 0.930 . S
H1855 C1864 0.930 . S
H1856 C1869 0.929 . S
H1857 C1867 0.929 . S
H1858 C1862 0.929 . S
H1859 C1868 0.929 . S
C1860 H1854 0.930 . S
C1860 C1861 1.367 . S
C1860 C1868 1.378 . S
C1861 C1860 1.367 . S
C1861 C1869 1.433 . S
C1862 H1858 0.929 . S
C1862 C1864 1.378 . S
C1862 C1866 1.350 . S
C1863 C1866 1.463 . S
C1863 C1868 1.350 . S
C1863 N1871 1.427 . S
C1864 H1855 0.930 . S
C1864 C1862 1.378 . S
C1864 C1865 1.367 . S
C1865 C1864 1.367 . S
C1865 C1867 1.433 . S
C1866 C1862 1.350 . S
C1866 C1863 1.463 . S
C1866 N1870 1.427 . S
C1867 H1857 0.929 . S
C1867 C1865 1.433 . S
C1867 N1870 1.384 . S
C1868 H1859 0.929 . S
C1868 C1860 1.378 . S
C1868 C1863 1.350 . S
C1869 H1856 0.929 . S
C1869 C1861 1.433 . S
C1869 N1871 1.384 . S
N1870 C1866 1.427 . S
N1870 C1867 1.384 . S
N1871 C1863 1.427 . S
N1871 C1869 1.384 . S
H1872 C1878 0.930 . S
H1873 C1882 0.930 . S
H1874 C1887 0.929 . S
H1875 C1885 0.929 . S
H1876 C1880 0.929 . S
H1877 C1886 0.929 . S
C1878 H1872 0.930 . S
C1878 C1879 1.367 . S
C1878 C1886 1.378 . S
C1879 C1878 1.367 . S
C1879 C1887 1.433 . S
C1880 H1876 0.929 . S
C1880 C1882 1.378 . S
C1880 C1884 1.350 . S
C1881 C1884 1.463 . S
C1881 C1886 1.350 . S
C1881 N1889 1.427 . S
C1882 H1873 0.930 . S
C1882 C1880 1.378 . S
C1882 C1883 1.367 . S
C1883 C1882 1.367 . S
C1883 C1885 1.433 . S
C1884 C1880 1.350 . S
C1884 C1881 1.463 . S
C1884 N1888 1.427 . S
C1885 H1875 0.929 . S
C1885 C1883 1.433 . S
C1885 N1888 1.384 . S
C1886 H1877 0.929 . S
C1886 C1878 1.378 . S
C1886 C1881 1.350 . S
C1887 H1874 0.929 . S
C1887 C1879 1.433 . S
C1887 N1889 1.384 . S
N1888 C1884 1.427 . S
N1888 C1885 1.384 . S
N1889 C1881 1.427 . S
N1889 C1887 1.384 . S
H1890 C1896 0.930 . S
H1891 C1900 0.930 . S
H1892 C1905 0.929 . S
H1893 C1903 0.929 . S
H1894 C1898 0.929 . S
H1895 C1904 0.929 . S
C1896 H1890 0.930 . S
C1896 C1897 1.367 . S
C1896 C1904 1.378 . S
C1897 C1896 1.367 . S
C1897 C1905 1.433 . S
C1898 H1894 0.929 . S
C1898 C1900 1.378 . S
C1898 C1902 1.350 . S
C1899 C1902 1.463 . S
C1899 C1904 1.350 . S
C1899 N1907 1.427 . S
C1900 H1891 0.930 . S
C1900 C1898 1.378 . S
C1900 C1901 1.367 . S
C1901 C1900 1.367 . S
C1901 C1903 1.433 . S
C1902 C1898 1.350 . S
C1902 C1899 1.463 . S
C1902 N1906 1.427 . S
C1903 H1893 0.929 . S
C1903 C1901 1.433 . S
C1903 N1906 1.384 . S
C1904 H1895 0.929 . S
C1904 C1896 1.378 . S
C1904 C1899 1.350 . S
C1905 H1892 0.929 . S
C1905 C1897 1.433 . S
C1905 N1907 1.384 . S
N1906 C1902 1.427 . S
N1906 C1903 1.384 . S
N1907 C1899 1.427 . S
N1907 C1905 1.384 . S
H1908 C1914 0.930 . S
H1909 C1918 0.930 . S
H1910 C1923 0.929 . S
H1911 C1921 0.929 . S
H1912 C1916 0.929 . S
H1913 C1922 0.929 . S
C1914 H1908 0.930 . S
C1914 C1915 1.367 . S
C1914 C1922 1.378 . S
C1915 C1914 1.367 . S
C1915 C1923 1.433 . S
C1916 H1912 0.929 . S
C1916 C1918 1.378 . S
C1916 C1920 1.350 . S
C1917 C1920 1.463 . S
C1917 C1922 1.350 . S
C1917 N1925 1.427 . S
C1918 H1909 0.930 . S
C1918 C1916 1.378 . S
C1918 C1919 1.367 . S
C1919 C1918 1.367 . S
C1919 C1921 1.433 . S
C1920 C1916 1.350 . S
C1920 C1917 1.463 . S
C1920 N1924 1.427 . S
C1921 H1911 0.929 . S
C1921 C1919 1.433 . S
C1921 N1924 1.384 . S
C1922 H1913 0.929 . S
C1922 C1914 1.378 . S
C1922 C1917 1.350 . S
C1923 H1910 0.929 . S
C1923 C1915 1.433 . S
C1923 N1925 1.384 . S
N1924 C1920 1.427 . S
N1924 C1921 1.384 . S
N1925 C1917 1.427 . S
N1925 C1923 1.384 . S
C961 C147 1.453 . S
C965 C265 1.389 . S
C979 C158 1.478 . S
C983 C349 1.428 . S
C997 C136 1.446 . S
C1001 C429 1.439 . S
C1015 C125 1.432 . S
C1019 C345 1.425 1_556 S
C1037 C433 1.376 . S
C1033 C103 1.438 . S
C1051 C114 1.409 . S
C1055 C261 1.400 1_556 S
C1073 C254 1.447 . S
C1069 C131 1.498 . S
C1091 C338 1.460 . S
C1087 C109 1.529 . S
C1105 C120 1.520 . S
C1109 C440 1.477 1_556 S
C1123 C153 1.486 . S
C1127 C356 1.455 . S
C1141 C164 1.475 . S
C1145 C422 1.414 . S
C1163 C272 1.425 . S
C1159 C142 1.467 . S
C1181 C517 1.396 . S
C1177 C15 1.453 . S
C1195 C26 1.479 . S
C1199 C601 1.427 . S
C1213 C4 1.447 . S
C1217 C681 1.445 . S
C1231 C191 1.428 . S
C1235 C597 1.428 . S
C1249 C169 1.439 . S
C1253 C685 1.370 . S
C1267 C180 1.409 . S
C1271 C513 1.402 . S
C1285 C197 1.504 . S
C1289 C506 1.446 . S
C1303 C175 1.527 . S
C1307 C590 1.471 . S
C1325 C692 1.479 . S
C1321 C186 1.521 . S
C1339 C21 1.485 . S
C1343 C608 1.449 . S
C1361 C674 1.420 . S
C1357 C32 1.477 . S
C1375 C10 1.470 . S
C1379 C524 1.426 . S
C1397 C769 1.387 . S
C1393 C81 1.454 . S
C1411 C92 1.475 . S
C1415 C853 1.431 . S
C1433 C933 1.441 . S
C1429 C70 1.445 . S
C1451 C849 1.428 . S
C1447 C59 1.430 . S
C1469 C937 1.376 . S
C1465 C37 1.438 . S
C1483 C48 1.409 . S
C1487 C765 1.398 . S
C1501 C65 1.501 . S
C1505 C758 1.450 . S
C1519 C43 1.527 . S
C1523 C842 1.461 . S
C1541 C944 1.474 . S
C1537 C54 1.516 . S
C1555 C87 1.487 . S
C1559 C860 1.455 . S
C1573 C98 1.479 . S
C1577 C926 1.407 . S
C1591 C76 1.474 . S
C1595 C776 1.438 . S
C1609 C170 1.560 . S
C1613 C268 1.433 . S
C1631 C352 1.481 . S
C1627 C181 1.614 . S
C1645 C192 1.568 . S
C1649 C424 1.387 . S
C1663 C71 1.584 . S
C1667 C340 1.396 . S
C1681 C82 1.576 . S
C1685 C436 1.451 . S
C1703 C256 1.352 . S
C1699 C93 1.524 . S
C1717 C38 1.553 . S
C1721 C520 1.444 . S
C1735 C49 1.617 . S
C1739 C604 1.459 . S
C1753 C60 1.566 . S
C1757 C676 1.395 . S
C1771 C137 1.590 . S
C1775 C592 1.397 . S
C1793 C688 1.429 . S
C1789 C148 1.579 . S
C1807 C159 1.528 . S
C1811 C508 1.374 . S
C1825 C104 1.555 . S
C1829 C772 1.447 . S
C1843 C115 1.620 . S
C1847 C856 1.465 . S
C1865 C928 1.395 . S
C1861 C126 1.565 . S
C1879 C5 1.590 . S
C1883 C844 1.396 . S
C1897 C16 1.580 . S
C1901 C940 1.437 . S
C1915 C27 1.528 . S
C1919 C760 1.350 . S
