# Generated by pormake.
# Topology ptr, (4,4)-cn, num edge types: 1
# Building blocks:
#     Node 0, Type 0, BuildingBlock: CEKHIL_clean_sbu_0, # of connection points: 4
#     Node 1, Type 0, BuildingBlock: CEKHIL_clean_sbu_0, # of connection points: 4
#     Node 2, Type 0, BuildingBlock: CEKHIL_clean_sbu_0, # of connection points: 4
#     Node 3, Type 0, BuildingBlock: CEKHIL_clean_sbu_0, # of connection points: 4
#     Node 4, Type 0, BuildingBlock: CEKHIL_clean_sbu_0, # of connection points: 4
#     Node 5, Type 0, BuildingBlock: CEKHIL_clean_sbu_0, # of connection points: 4
#     Node 6, Type 0, BuildingBlock: CEKHIL_clean_sbu_0, # of connection points: 4
#     Node 7, Type 0, BuildingBlock: CEKHIL_clean_sbu_0, # of connection points: 4
#     Node 8, Type 0, BuildingBlock: CEKHIL_clean_sbu_0, # of connection points: 4
#     Node 9, Type 0, BuildingBlock: CEKHIL_clean_sbu_0, # of connection points: 4
#     Node 10, Type 0, BuildingBlock: CEKHIL_clean_sbu_0, # of connection points: 4
#     Node 11, Type 0, BuildingBlock: CEKHIL_clean_sbu_0, # of connection points: 4
#     Node 12, Type 0, BuildingBlock: CEKHIL_clean_sbu_0, # of connection points: 4
#     Node 13, Type 0, BuildingBlock: CEKHIL_clean_sbu_0, # of connection points: 4
#     Node 14, Type 0, BuildingBlock: CEKHIL_clean_sbu_0, # of connection points: 4
#     Node 15, Type 0, BuildingBlock: CEKHIL_clean_sbu_0, # of connection points: 4
#     Node 16, Type 0, BuildingBlock: CEKHIL_clean_sbu_0, # of connection points: 4
#     Node 17, Type 0, BuildingBlock: CEKHIL_clean_sbu_0, # of connection points: 4
#     Node 18, Type 1, BuildingBlock: MUDLON_clean_linker_0, # of connection points: 4
#     Node 19, Type 1, BuildingBlock: MUDLON_clean_linker_0, # of connection points: 4
#     Node 20, Type 1, BuildingBlock: MUDLON_clean_linker_0, # of connection points: 4
#     Node 21, Type 1, BuildingBlock: MUDLON_clean_linker_0, # of connection points: 4
#     Node 22, Type 1, BuildingBlock: MUDLON_clean_linker_0, # of connection points: 4
#     Node 23, Type 1, BuildingBlock: MUDLON_clean_linker_0, # of connection points: 4
#     Node 24, Type 1, BuildingBlock: MUDLON_clean_linker_0, # of connection points: 4
#     Node 25, Type 1, BuildingBlock: MUDLON_clean_linker_0, # of connection points: 4
#     Node 26, Type 1, BuildingBlock: MUDLON_clean_linker_0, # of connection points: 4
#     Node 27, Type 1, BuildingBlock: MUDLON_clean_linker_0, # of connection points: 4
#     Node 28, Type 1, BuildingBlock: MUDLON_clean_linker_0, # of connection points: 4
#     Node 29, Type 1, BuildingBlock: MUDLON_clean_linker_0, # of connection points: 4
#     Node 30, Type 1, BuildingBlock: MUDLON_clean_linker_0, # of connection points: 4
#     Node 31, Type 1, BuildingBlock: MUDLON_clean_linker_0, # of connection points: 4
#     Node 32, Type 1, BuildingBlock: MUDLON_clean_linker_0, # of connection points: 4
#     Node 33, Type 1, BuildingBlock: MUDLON_clean_linker_0, # of connection points: 4
#     Node 34, Type 1, BuildingBlock: MUDLON_clean_linker_0, # of connection points: 4
#     Node 35, Type 1, BuildingBlock: MUDLON_clean_linker_0, # of connection points: 4
#     Edge 36, Type (0, 1), BuildingBlock: TEMPAE_clean_linker_10, # of connection points: 2
#     Edge 37, Type (0, 1), BuildingBlock: TEMPAE_clean_linker_10, # of connection points: 2
#     Edge 38, Type (0, 1), BuildingBlock: TEMPAE_clean_linker_10, # of connection points: 2
#     Edge 39, Type (0, 1), BuildingBlock: TEMPAE_clean_linker_10, # of connection points: 2
#     Edge 40, Type (0, 1), BuildingBlock: TEMPAE_clean_linker_10, # of connection points: 2
#     Edge 41, Type (0, 1), BuildingBlock: TEMPAE_clean_linker_10, # of connection points: 2
#     Edge 42, Type (0, 1), BuildingBlock: TEMPAE_clean_linker_10, # of connection points: 2
#     Edge 43, Type (0, 1), BuildingBlock: TEMPAE_clean_linker_10, # of connection points: 2
#     Edge 44, Type (0, 1), BuildingBlock: TEMPAE_clean_linker_10, # of connection points: 2
#     Edge 45, Type (0, 1), BuildingBlock: TEMPAE_clean_linker_10, # of connection points: 2
#     Edge 46, Type (0, 1), BuildingBlock: TEMPAE_clean_linker_10, # of connection points: 2
#     Edge 47, Type (0, 1), BuildingBlock: TEMPAE_clean_linker_10, # of connection points: 2
#     Edge 48, Type (0, 1), BuildingBlock: TEMPAE_clean_linker_10, # of connection points: 2
#     Edge 49, Type (0, 1), BuildingBlock: TEMPAE_clean_linker_10, # of connection points: 2
#     Edge 50, Type (0, 1), BuildingBlock: TEMPAE_clean_linker_10, # of connection points: 2
#     Edge 51, Type (0, 1), BuildingBlock: TEMPAE_clean_linker_10, # of connection points: 2
#     Edge 52, Type (0, 1), BuildingBlock: TEMPAE_clean_linker_10, # of connection points: 2
#     Edge 53, Type (0, 1), BuildingBlock: TEMPAE_clean_linker_10, # of connection points: 2
#     Edge 54, Type (0, 1), BuildingBlock: TEMPAE_clean_linker_10, # of connection points: 2
#     Edge 55, Type (0, 1), BuildingBlock: TEMPAE_clean_linker_10, # of connection points: 2
#     Edge 56, Type (0, 1), BuildingBlock: TEMPAE_clean_linker_10, # of connection points: 2
#     Edge 57, Type (0, 1), BuildingBlock: TEMPAE_clean_linker_10, # of connection points: 2
#     Edge 58, Type (0, 1), BuildingBlock: TEMPAE_clean_linker_10, # of connection points: 2
#     Edge 59, Type (0, 1), BuildingBlock: TEMPAE_clean_linker_10, # of connection points: 2
#     Edge 60, Type (0, 1), BuildingBlock: TEMPAE_clean_linker_10, # of connection points: 2
#     Edge 61, Type (0, 1), BuildingBlock: TEMPAE_clean_linker_10, # of connection points: 2
#     Edge 62, Type (0, 1), BuildingBlock: TEMPAE_clean_linker_10, # of connection points: 2
#     Edge 63, Type (0, 1), BuildingBlock: TEMPAE_clean_linker_10, # of connection points: 2
#     Edge 64, Type (0, 1), BuildingBlock: TEMPAE_clean_linker_10, # of connection points: 2
#     Edge 65, Type (0, 1), BuildingBlock: TEMPAE_clean_linker_10, # of connection points: 2
#     Edge 66, Type (0, 1), BuildingBlock: TEMPAE_clean_linker_10, # of connection points: 2
#     Edge 67, Type (0, 1), BuildingBlock: TEMPAE_clean_linker_10, # of connection points: 2
#     Edge 68, Type (0, 1), BuildingBlock: TEMPAE_clean_linker_10, # of connection points: 2
#     Edge 69, Type (0, 1), BuildingBlock: TEMPAE_clean_linker_10, # of connection points: 2
#     Edge 70, Type (0, 1), BuildingBlock: TEMPAE_clean_linker_10, # of connection points: 2
#     Edge 71, Type (0, 1), BuildingBlock: TEMPAE_clean_linker_10, # of connection points: 2
#     Edge 72, Type (0, 1), BuildingBlock: TEMPAE_clean_linker_10, # of connection points: 2
#     Edge 73, Type (0, 1), BuildingBlock: TEMPAE_clean_linker_10, # of connection points: 2
#     Edge 74, Type (0, 1), BuildingBlock: TEMPAE_clean_linker_10, # of connection points: 2
#     Edge 75, Type (0, 1), BuildingBlock: TEMPAE_clean_linker_10, # of connection points: 2
#     Edge 76, Type (0, 1), BuildingBlock: TEMPAE_clean_linker_10, # of connection points: 2
#     Edge 77, Type (0, 1), BuildingBlock: TEMPAE_clean_linker_10, # of connection points: 2
#     Edge 78, Type (0, 1), BuildingBlock: TEMPAE_clean_linker_10, # of connection points: 2
#     Edge 79, Type (0, 1), BuildingBlock: TEMPAE_clean_linker_10, # of connection points: 2
#     Edge 80, Type (0, 1), BuildingBlock: TEMPAE_clean_linker_10, # of connection points: 2
#     Edge 81, Type (0, 1), BuildingBlock: TEMPAE_clean_linker_10, # of connection points: 2
#     Edge 82, Type (0, 1), BuildingBlock: TEMPAE_clean_linker_10, # of connection points: 2
#     Edge 83, Type (0, 1), BuildingBlock: TEMPAE_clean_linker_10, # of connection points: 2
#     Edge 84, Type (0, 1), BuildingBlock: TEMPAE_clean_linker_10, # of connection points: 2
#     Edge 85, Type (0, 1), BuildingBlock: TEMPAE_clean_linker_10, # of connection points: 2
#     Edge 86, Type (0, 1), BuildingBlock: TEMPAE_clean_linker_10, # of connection points: 2
#     Edge 87, Type (0, 1), BuildingBlock: TEMPAE_clean_linker_10, # of connection points: 2
#     Edge 88, Type (0, 1), BuildingBlock: TEMPAE_clean_linker_10, # of connection points: 2
#     Edge 89, Type (0, 1), BuildingBlock: TEMPAE_clean_linker_10, # of connection points: 2
#     Edge 90, Type (0, 1), BuildingBlock: TEMPAE_clean_linker_10, # of connection points: 2
#     Edge 91, Type (0, 1), BuildingBlock: TEMPAE_clean_linker_10, # of connection points: 2
#     Edge 92, Type (0, 1), BuildingBlock: TEMPAE_clean_linker_10, # of connection points: 2
#     Edge 93, Type (0, 1), BuildingBlock: TEMPAE_clean_linker_10, # of connection points: 2
#     Edge 94, Type (0, 1), BuildingBlock: TEMPAE_clean_linker_10, # of connection points: 2
#     Edge 95, Type (0, 1), BuildingBlock: TEMPAE_clean_linker_10, # of connection points: 2
#     Edge 96, Type (0, 1), BuildingBlock: TEMPAE_clean_linker_10, # of connection points: 2
#     Edge 97, Type (0, 1), BuildingBlock: TEMPAE_clean_linker_10, # of connection points: 2
#     Edge 98, Type (0, 1), BuildingBlock: TEMPAE_clean_linker_10, # of connection points: 2
#     Edge 99, Type (0, 1), BuildingBlock: TEMPAE_clean_linker_10, # of connection points: 2
#     Edge 100, Type (0, 1), BuildingBlock: TEMPAE_clean_linker_10, # of connection points: 2
#     Edge 101, Type (0, 1), BuildingBlock: TEMPAE_clean_linker_10, # of connection points: 2
#     Edge 102, Type (0, 1), BuildingBlock: TEMPAE_clean_linker_10, # of connection points: 2
#     Edge 103, Type (0, 1), BuildingBlock: TEMPAE_clean_linker_10, # of connection points: 2
#     Edge 104, Type (0, 1), BuildingBlock: TEMPAE_clean_linker_10, # of connection points: 2
#     Edge 105, Type (0, 1), BuildingBlock: TEMPAE_clean_linker_10, # of connection points: 2
#     Edge 106, Type (0, 1), BuildingBlock: TEMPAE_clean_linker_10, # of connection points: 2
#     Edge 107, Type (0, 1), BuildingBlock: TEMPAE_clean_linker_10, # of connection points: 2
# Relax obj value: 0.033
# Max RMSD: 0.098
# Mean RMSD: 0.064
data_MOF--net-ptr--node1-CEKHIL_clean_sbu_0--node2-MUDLON_clean_linker_0--edge1-TEMPAE_clean_linker_10
_symmetry_space_group_name_H-M    P1
_symmetry_Int_Tables_number       1
_symmetry_cell_setting            triclinic
loop_
_symmetry_equiv_pos_as_xyz
'x, y, z'
_cell_length_a     106.28155
_cell_length_b     105.25546
_cell_length_c     64.780955
_cell_angle_alpha  90.876836
_cell_angle_beta   89.550483
_cell_angle_gamma 120.89683
loop_
_atom_site_label
_atom_site_type_symbol
_atom_site_fract_x
_atom_site_fract_y
_atom_site_fract_z
_atom_type_partial_charge
Co0 Co 0.00171 0.3568 0.01441 0.0
O1 O 0.00879 0.34768 0.03278 0.0
O2 O 0.02293 0.36793 0.01491 0.0
C3 C 0.98514 0.33559 0.99834 0.0
O4 O 0.9986 0.36906 0.99329 0.0
Co5 Co 0.96946 0.34926 0.01574 0.0
O6 O 0.97467 0.36139 0.99051 0.0
C7 C 0.99006 0.3682 0.04836 0.0
C8 C 0.02192 0.35803 0.02768 0.0
C9 C 0.98795 0.36953 0.98475 0.0
O10 O 1.00086 0.36914 0.03792 0.0
O11 O 0.97664 0.35974 0.04306 0.0
O12 O 0.99882 0.34247 0.99275 0.0
O13 O 0.98215 0.34111 0.01426 0.0
Co14 Co 0.64915 0.64723 0.01379 0.0
O15 O 0.66357 0.65581 0.99215 0.0
O16 O 0.65873 0.636 0.01005 0.0
C17 C 0.65569 0.66876 0.03039 0.0
O18 O 0.63577 0.63533 0.0374 0.0
Co19 Co 0.62471 0.65462 0.02045 0.0
O20 O 0.62016 0.64291 0.04604 0.0
C21 C 0.62298 0.63555 0.98531 0.0
C22 C 0.66649 0.6455 0.99592 0.0
C23 C 0.62567 0.63482 0.04904 0.0
O24 O 0.63362 0.63457 0.99284 0.0
O25 O 0.61877 0.64404 0.99299 0.0
O26 O 0.66286 0.662 0.03349 0.0
O27 O 0.64557 0.66289 0.01647 0.0
Co28 Co 0.35468 0.99963 0.0093 0.0
O29 O 0.34711 0.00774 0.99008 0.0
O30 O 0.36615 0.02111 0.01056 0.0
C31 C 0.33281 0.98283 0.02282 0.0
O32 O 0.36516 0.99498 0.03157 0.0
Co33 Co 0.3459 0.96658 0.00471 0.0
O34 O 0.35602 0.97037 0.03165 0.0
C35 C 0.36736 0.98864 0.97616 0.0
C36 C 0.35725 0.02073 0.99655 0.0
C37 C 0.36426 0.98331 0.03927 0.0
O38 O 0.368 0.99918 0.98727 0.0
O39 O 0.35835 0.9749 0.97938 0.0
O40 O 0.33952 0.99651 0.02924 0.0
O41 O 0.33878 0.98013 0.00725 0.0
Co42 Co 1.00022 0.6487 0.00765 0.0
O43 O 0.9934 0.65768 0.98864 0.0
O44 O 0.97898 0.63801 0.0074 0.0
C45 C 0.0172 0.67001 0.02299 0.0
O46 O 0.00326 0.63672 0.0294 0.0
Co47 Co 0.03225 0.6555 0.00589 0.0
O48 O 0.02743 0.64585 0.03319 0.0
C49 C 0.01072 0.63487 0.97527 0.0
C50 C 0.98021 0.64766 0.99399 0.0
C51 C 0.0142 0.6374 0.0389 0.0
O52 O 1.00046 0.63558 0.98489 0.0
O53 O 0.02426 0.6427 0.98041 0.0
O54 O 0.00354 0.66361 0.02856 0.0
O55 O 0.01992 0.66407 0.00729 0.0
Co56 Co 0.35419 0.35222 0.0133 0.0
O57 O 0.3384 0.34173 0.03258 0.0
O58 O 0.34338 0.36229 0.01662 0.0
C59 C 0.34996 0.3319 0.99533 0.0
O60 O 0.36883 0.36575 0.99166 0.0
Co61 Co 0.38018 0.34684 0.00942 0.0
O62 O 0.38389 0.35746 0.98307 0.0
C63 C 0.38007 0.36616 0.04296 0.0
C64 C 0.33498 0.35171 0.02914 0.0
C65 C 0.37881 0.36592 0.98008 0.0
O66 O 0.36791 0.36448 0.03639 0.0
O67 O 0.38642 0.35977 0.03484 0.0
O68 O 0.34238 0.33815 0.99161 0.0
O69 O 0.35905 0.33746 0.01058 0.0
Co70 Co 0.64458 0.9999 0.01269 0.0
O71 O 0.65371 0.99347 0.03211 0.0
O72 O 0.6342 0.97849 0.01328 0.0
C73 C 0.66558 0.01708 0.99747 0.0
O74 O 0.63251 0.00226 0.99045 0.0
Co75 Co 0.65082 0.03213 0.01362 0.0
O76 O 0.63826 0.02599 0.98865 0.0
C77 C 0.63218 0.01125 0.04565 0.0
C78 C 0.64386 0.98002 0.02683 0.0
C79 C 0.63117 0.01258 0.9823 0.0
O80 O 0.63161 0.00045 0.03522 0.0
O81 O 0.64044 0.02483 0.04069 0.0
O82 O 0.65943 0.00321 0.99205 0.0
O83 O 0.65955 0.01989 0.01286 0.0
Co84 Co 0.66423 0.68719 0.34668 0.0
O85 O 0.67094 0.67757 0.36475 0.0
O86 O 0.68546 0.69808 0.34762 0.0
C87 C 0.64758 0.66641 0.32991 0.0
O88 O 0.66153 0.69996 0.32598 0.0
Co89 Co 0.63213 0.68013 0.34786 0.0
O90 O 0.63785 0.69349 0.32388 0.0
C91 C 0.65256 0.69825 0.38105 0.0
C92 C 0.68418 0.68793 0.36014 0.0
C93 C 0.65116 0.70121 0.31806 0.0
O94 O 0.66338 0.69926 0.37058 0.0
O95 O 0.63916 0.68995 0.37557 0.0
O96 O 0.66129 0.6732 0.32445 0.0
O97 O 0.64458 0.6717 0.34607 0.0
Co98 Co 0.31352 0.98306 0.34995 0.0
O99 O 0.32982 0.99274 0.33126 0.0
O100 O 0.32339 0.97197 0.34779 0.0
C101 C 0.31829 0.00373 0.36743 0.0
O102 O 0.2981 0.97028 0.37115 0.0
Co103 Co 0.28863 0.99025 0.35057 0.0
O104 O 0.28106 0.9768 0.37451 0.0
C105 C 0.29001 0.972 0.31676 0.0
C106 C 0.33237 0.98221 0.33525 0.0
C107 C 0.28656 0.96904 0.37971 0.0
O108 O 0.30002 0.97108 0.32651 0.0
O109 O 0.28511 0.98029 0.3228 0.0
O110 O 0.32526 0.99697 0.37186 0.0
O111 O 0.30964 0.99853 0.35166 0.0
Co112 Co 0.02453 0.33427 0.34451 0.0
O113 O 0.0159 0.34133 0.32519 0.0
O114 O 0.03562 0.35568 0.34405 0.0
C115 C 0.00321 0.31771 0.35965 0.0
O116 O 0.03634 0.33128 0.36644 0.0
Co117 Co 0.01681 0.30152 0.34461 0.0
O118 O 0.02668 0.30696 0.37198 0.0
C119 C 0.03612 0.32184 0.31216 0.0
C120 C 0.0261 0.35461 0.33059 0.0
C121 C 0.03545 0.3205 0.37674 0.0
O122 O 0.03704 0.33302 0.32197 0.0
O123 O 0.02765 0.30839 0.31766 0.0
O124 O 0.00992 0.33157 0.36525 0.0
O125 O 0.00901 0.31455 0.34434 0.0
Co126 Co 0.66505 0.97944 0.34009 0.0
O127 O 0.65775 0.98676 0.31915 0.0
O128 O 0.64404 0.96675 0.33773 0.0
C129 C 0.67947 0.00152 0.35578 0.0
O130 O 0.66835 0.96873 0.36352 0.0
Co131 Co 0.6981 0.98988 0.34369 0.0
O132 O 0.6924 0.97974 0.37061 0.0
C133 C 0.68007 0.96836 0.31096 0.0
C134 C 0.64478 0.97582 0.32371 0.0
C135 C 0.67905 0.97034 0.37471 0.0
O136 O 0.66837 0.96729 0.31873 0.0
O137 O 0.69296 0.97747 0.31783 0.0
O138 O 0.66553 0.99391 0.35982 0.0
O139 O 0.68398 0.99617 0.34142 0.0
Co140 Co 0.0199 0.68662 0.35031 0.0
O141 O 0.00447 0.67828 0.37059 0.0
O142 O 0.00974 0.69745 0.35087 0.0
C143 C 0.01483 0.66499 0.33536 0.0
O144 O 0.0345 0.69807 0.32751 0.0
Co145 Co 0.04495 0.67951 0.34961 0.0
O146 O 0.0502 0.68994 0.32281 0.0
C147 C 0.04424 0.6992 0.38195 0.0
C148 C 0.00147 0.68824 0.365 0.0
C149 C 0.045 0.69798 0.3176 0.0
O150 O 0.03426 0.70008 0.37205 0.0
O151 O 0.04877 0.69045 0.37667 0.0
O152 O 0.00743 0.67119 0.33029 0.0
O153 O 0.02398 0.67131 0.35036 0.0
Co154 Co 0.31064 0.33608 0.34829 0.0
O155 O 0.31733 0.32743 0.3681 0.0
O156 O 0.29893 0.31469 0.34629 0.0
C157 C 0.33303 0.35276 0.33604 0.0
O158 O 0.30091 0.34109 0.32529 0.0
Co159 Co 0.31974 0.36922 0.35194 0.0
O160 O 0.31046 0.36572 0.32445 0.0
C161 C 0.29702 0.34728 0.37975 0.0
C162 C 0.30724 0.31466 0.36089 0.0
C163 C 0.30216 0.35275 0.31703 0.0
O164 O 0.29694 0.33663 0.36958 0.0
O165 O 0.30604 0.36097 0.37603 0.0
O166 O 0.32628 0.33915 0.32929 0.0
O167 O 0.32669 0.35548 0.3511 0.0
Co168 Co 0.33738 0.02552 0.67956 0.0
O169 O 0.34375 0.01649 0.69924 0.0
O170 O 0.35848 0.03714 0.68251 0.0
C171 C 0.32215 0.00434 0.66224 0.0
O172 O 0.33511 0.03786 0.65763 0.0
Co173 Co 0.3049 0.01712 0.67644 0.0
O174 O 0.3113 0.02902 0.6509 0.0
C175 C 0.32322 0.03581 0.71116 0.0
C176 C 0.35702 0.02718 0.69553 0.0
C177 C 0.32485 0.03781 0.64711 0.0
O178 O 0.33475 0.03724 0.7023 0.0
O179 O 0.31022 0.02721 0.70427 0.0
O180 O 0.33611 0.01158 0.65824 0.0
O181 O 0.31806 0.00953 0.67736 0.0
Co182 Co 0.97927 0.3168 0.67829 0.0
O183 O 0.99421 0.32566 0.65739 0.0
O184 O 0.98969 0.30628 0.67599 0.0
C185 C 0.98459 0.33828 0.69396 0.0
O186 O 0.96549 0.30485 0.70167 0.0
Co187 Co 0.95388 0.32311 0.68232 0.0
O188 O 0.94907 0.31177 0.70819 0.0
C189 C 0.95272 0.30243 0.64988 0.0
C190 C 0.9976 0.3158 0.66194 0.0
C191 C 0.95489 0.30413 0.71235 0.0
O192 O 0.96451 0.30342 0.65686 0.0
O193 O 0.94731 0.30999 0.65714 0.0
O194 O 0.99207 0.33202 0.69819 0.0
O195 O 0.9749 0.33198 0.67954 0.0
Co196 Co 0.69413 0.67169 0.67935 0.0
O197 O 0.68414 0.67619 0.6586 0.0
O198 O 0.70348 0.69283 0.67643 0.0
C199 C 0.67349 0.65479 0.69554 0.0
O200 O 0.70716 0.67189 0.70242 0.0
Co201 Co 0.69029 0.64091 0.68541 0.0
O202 O 0.6991 0.64877 0.71295 0.0
C203 C 0.70928 0.66006 0.65171 0.0
C204 C 0.69348 0.69004 0.66275 0.0
C205 C 0.7071 0.66272 0.71535 0.0
O206 O 0.70721 0.67057 0.6576 0.0
O207 O 0.70322 0.64736 0.66027 0.0
O208 O 0.67926 0.66884 0.69955 0.0
O209 O 0.67993 0.65141 0.68134 0.0
Co210 Co 0.33578 0.31496 0.6754 0.0
O211 O 0.32919 0.32398 0.65597 0.0
O212 O 0.3147 0.3033 0.67279 0.0
C213 C 0.35118 0.33605 0.69274 0.0
O214 O 0.3381 0.30253 0.69716 0.0
Co215 Co 0.36826 0.32325 0.67874 0.0
O216 O 0.36186 0.31162 0.70449 0.0
C217 C 0.34987 0.30435 0.64402 0.0
C218 C 0.31597 0.31323 0.65989 0.0
C219 C 0.3483 0.3027 0.70798 0.0
O220 O 0.33834 0.30333 0.65239 0.0
O221 O 0.36279 0.31261 0.65136 0.0
O222 O 0.33724 0.32893 0.6969 0.0
O223 O 0.35511 0.33082 0.67752 0.0
Co224 Co 0.68834 0.0232 0.67982 0.0
O225 O 0.6736 0.01673 0.70097 0.0
O226 O 0.67891 0.03476 0.67899 0.0
C227 C 0.68186 0.00043 0.66767 0.0
O228 O 0.70247 0.03265 0.65564 0.0
Co229 Co 0.71224 0.01447 0.68071 0.0
O230 O 0.71701 0.02301 0.65275 0.0
C231 C 0.71456 0.038 0.70884 0.0
C232 C 0.67095 0.02667 0.69425 0.0
C233 C 0.71238 0.03123 0.64614 0.0
O234 O 0.70356 0.03763 0.70001 0.0
O235 O 0.71892 0.02899 0.70431 0.0
O236 O 0.67486 0.00685 0.66171 0.0
O237 O 0.6915 0.00732 0.68197 0.0
Co238 Co 0.97527 0.66674 0.67695 0.0
O239 O 0.98387 0.65905 0.69527 0.0
O240 O 0.96451 0.64535 0.67544 0.0
C241 C 0.99656 0.68436 0.66311 0.0
O242 O 0.96366 0.67039 0.65549 0.0
Co243 Co 0.98185 0.6989 0.68094 0.0
O244 O 0.96966 0.69421 0.65571 0.0
C245 C 0.96294 0.67682 0.7115 0.0
C246 C 0.97382 0.64597 0.68893 0.0
C247 C 0.96255 0.68109 0.64829 0.0
O248 O 0.96211 0.6664 0.69986 0.0
O249 O 0.97149 0.69059 0.70778 0.0
O250 O 0.99022 0.67082 0.65614 0.0
O251 O 0.99052 0.6866 0.67901 0.0
H252 H 0.24713 0.37485 0.15855 0.0
N253 N 0.22234 0.35403 0.14156 0.0
H254 H 0.25926 0.37276 0.18919 0.0
H255 H 0.20994 0.3313 0.16965 0.0
H256 H 0.22194 0.32924 0.20027 0.0
H257 H 0.22273 0.32839 0.13648 0.0
H258 H 0.23896 0.32501 0.11294 0.0
H259 H 0.2364 0.37067 0.10926 0.0
H260 H 0.25223 0.36703 0.08508 0.0
H261 H 0.21285 0.37277 0.13918 0.0
H262 H 0.19802 0.32626 0.13802 0.0
H263 H 0.18772 0.36709 0.13469 0.0
H264 H 0.17268 0.32027 0.13552 0.0
H265 H 0.09121 0.3264 0.13606 0.0
H266 H 0.07961 0.32722 0.16765 0.0
H267 H 0.11508 0.32955 0.20282 0.0
H268 H 0.12644 0.32784 0.17121 0.0
H269 H 0.10135 0.31416 0.09806 0.0
H270 H 0.09039 0.3236 0.0744 0.0
H271 H 0.11609 0.36711 0.10238 0.0
H272 H 0.12627 0.35733 0.12665 0.0
H273 H 0.14065 0.35307 0.14862 0.0
H274 H 0.16587 0.35899 0.15086 0.0
H275 H 0.15464 0.31937 0.11533 0.0
N276 N 0.11758 0.32809 0.13104 0.0
H277 H 0.12909 0.31305 0.11459 0.0
C278 C 0.22761 0.35337 0.16175 0.0
C279 C 0.24143 0.36502 0.16787 0.0
C280 C 0.2484 0.36373 0.1852 0.0
C281 C 0.2416 0.35076 0.19691 0.0
C282 C 0.2274 0.33937 0.19151 0.0
C283 C 0.2205 0.3406 0.17398 0.0
C284 C 0.22859 0.34995 0.1248 0.0
C285 C 0.22883 0.33672 0.12501 0.0
C286 C 0.23809 0.33478 0.11158 0.0
C287 C 0.24684 0.34582 0.0974 0.0
C288 C 0.2455 0.35836 0.09586 0.0
C289 C 0.2365 0.36044 0.10959 0.0
C290 C 0.20726 0.35 0.13942 0.0
C291 C 0.20407 0.3613 0.13835 0.0
C292 C 0.18964 0.35798 0.13596 0.0
C293 C 0.17797 0.34317 0.13502 0.0
C294 C 0.18128 0.33181 0.13593 0.0
C295 C 0.1958 0.33519 0.13777 0.0
C296 C 0.11068 0.32851 0.15051 0.0
C297 C 0.09689 0.32749 0.15036 0.0
C298 C 0.09013 0.32795 0.16862 0.0
C299 C 0.09668 0.3291 0.18782 0.0
C300 C 0.10985 0.329 0.18829 0.0
C301 C 0.11657 0.32835 0.16994 0.0
C302 C 0.11457 0.33495 0.11414 0.0
C303 C 0.10493 0.32583 0.0986 0.0
C304 C 0.09871 0.33129 0.08507 0.0
C305 C 0.10216 0.3461 0.08668 0.0
C306 C 0.11293 0.35558 0.101 0.0
C307 C 0.11899 0.35005 0.11472 0.0
C308 C 0.13288 0.33242 0.13172 0.0
C309 C 0.14361 0.34568 0.14124 0.0
C310 C 0.15814 0.34909 0.1424 0.0
C311 C 0.16246 0.33965 0.13338 0.0
C312 C 0.15177 0.32673 0.12303 0.0
C313 C 0.13716 0.32314 0.12238 0.0
H314 H 0.7056 0.79552 0.17345 0.0
N315 N 0.68735 0.79782 0.1482 0.0
H316 H 0.69936 0.78156 0.20568 0.0
H317 H 0.66133 0.78659 0.16902 0.0
H318 H 0.65487 0.77208 0.20073 0.0
H319 H 0.66005 0.77459 0.13768 0.0
H320 H 0.65486 0.75396 0.11492 0.0
H321 H 0.70612 0.79544 0.12345 0.0
H322 H 0.70101 0.77439 0.10089 0.0
H323 H 0.70617 0.82588 0.15746 0.0
H324 H 0.66353 0.79743 0.13049 0.0
H325 H 0.70356 0.84729 0.15211 0.0
H326 H 0.66115 0.81877 0.12402 0.0
H327 H 0.69941 0.9132 0.14514 0.0
H328 H 0.69889 0.92591 0.17688 0.0
H329 H 0.65644 0.88835 0.19185 0.0
H330 H 0.65705 0.87578 0.16022 0.0
H331 H 0.64918 0.87639 0.12529 0.0
H332 H 0.63855 0.8864 0.1019 0.0
H333 H 0.68157 0.91566 0.07643 0.0
H334 H 0.69196 0.90535 0.0996 0.0
H335 H 0.70192 0.88501 0.12436 0.0
H336 H 0.70378 0.8629 0.12671 0.0
H337 H 0.65732 0.83681 0.13972 0.0
N338 N 0.67849 0.8872 0.13059 0.0
H339 H 0.6555 0.85883 0.13594 0.0
C340 C 0.68393 0.79192 0.16875 0.0
C341 C 0.69463 0.79079 0.17968 0.0
C342 C 0.69105 0.78282 0.19799 0.0
C343 C 0.67662 0.77567 0.20546 0.0
C344 C 0.66605 0.77743 0.19512 0.0
C345 C 0.66973 0.78567 0.17702 0.0
C346 C 0.68356 0.78673 0.13222 0.0
C347 C 0.66907 0.77495 0.12935 0.0
C348 C 0.6661 0.76299 0.11647 0.0
C349 C 0.67754 0.76242 0.10633 0.0
C350 C 0.69193 0.77453 0.10838 0.0
C351 C 0.69488 0.78656 0.12123 0.0
C352 C 0.68522 0.81005 0.14423 0.0
C353 C 0.69632 0.82429 0.15014 0.0
C354 C 0.69484 0.83653 0.14688 0.0
C355 C 0.6822 0.83486 0.13735 0.0
C356 C 0.67099 0.82051 0.13154 0.0
C357 C 0.67241 0.80822 0.13508 0.0
C358 C 0.67839 0.89355 0.15037 0.0
C359 C 0.69011 0.90766 0.15546 0.0
C360 C 0.68973 0.91492 0.17345 0.0
C361 C 0.67758 0.90813 0.18676 0.0
C362 C 0.66599 0.89379 0.18196 0.0
C363 C 0.66635 0.88658 0.16384 0.0
C364 C 0.6714 0.89017 0.11413 0.0
C365 C 0.65623 0.88459 0.11421 0.0
C366 C 0.65019 0.89044 0.10095 0.0
C367 C 0.65922 0.90196 0.08743 0.0
C368 C 0.67423 0.9067 0.08643 0.0
C369 C 0.68022 0.90084 0.09966 0.0
C370 C 0.67868 0.87363 0.13026 0.0
C371 C 0.69213 0.87444 0.12742 0.0
C372 C 0.69317 0.86181 0.12903 0.0
C373 C 0.68076 0.84804 0.13384 0.0
C374 C 0.66712 0.84716 0.13593 0.0
C375 C 0.66607 0.85983 0.134 0.0
H376 H 0.1256 0.78524 0.17206 0.0
N377 N 0.11173 0.7949 0.14685 0.0
H378 H 0.11499 0.76994 0.20272 0.0
H379 H 0.08711 0.78865 0.16585 0.0
H380 H 0.07647 0.77349 0.19658 0.0
H381 H 0.09283 0.79256 0.11844 0.0
H382 H 0.07986 0.77244 0.0933 0.0
H383 H 0.11828 0.77348 0.1374 0.0
H384 H 0.10605 0.75384 0.11162 0.0
H385 H 0.13818 0.79711 0.13788 0.0
H386 H 0.11768 0.8223 0.15308 0.0
H387 H 0.16183 0.81994 0.13467 0.0
H388 H 0.1414 0.84522 0.15084 0.0
H389 H 0.2289 0.88569 0.15667 0.0
H390 H 0.24303 0.89657 0.18818 0.0
H391 H 0.21669 0.91594 0.20263 0.0
H392 H 0.20277 0.90535 0.17055 0.0
H393 H 0.21513 0.91484 0.12062 0.0
H394 H 0.23475 0.92681 0.09491 0.0
H395 H 0.24194 0.89008 0.09744 0.0
H396 H 0.22177 0.87778 0.12238 0.0
H397 H 0.20404 0.86379 0.1529 0.0
H398 H 0.18087 0.84015 0.15384 0.0
H399 H 0.15893 0.86075 0.12627 0.0
N400 N 0.20763 0.89042 0.14127 0.0
H401 H 0.18203 0.88447 0.12641 0.0
C402 C 0.10709 0.78807 0.16671 0.0
C403 C 0.11502 0.78297 0.17755 0.0
C404 C 0.10894 0.77424 0.19507 0.0
C405 C 0.09483 0.77039 0.20188 0.0
C406 C 0.08727 0.77609 0.19151 0.0
C407 C 0.09336 0.78485 0.17412 0.0
C408 C 0.10658 0.78464 0.12965 0.0
C409 C 0.09597 0.78431 0.11662 0.0
C410 C 0.08862 0.77281 0.10223 0.0
C411 C 0.09183 0.76142 0.10051 0.0
C412 C 0.10312 0.76228 0.11277 0.0
C413 C 0.11033 0.77369 0.12733 0.0
C414 C 0.12606 0.80802 0.14546 0.0
C415 C 0.13872 0.80752 0.14058 0.0
C416 C 0.15233 0.82065 0.13891 0.0
C417 C 0.15355 0.83449 0.14227 0.0
C418 C 0.14087 0.83483 0.1476 0.0
C419 C 0.12731 0.82175 0.14909 0.0
C420 C 0.21488 0.89495 0.16103 0.0
C421 C 0.22606 0.8922 0.16653 0.0
C422 C 0.23414 0.8984 0.18459 0.0
C423 C 0.23098 0.90714 0.19769 0.0
C424 C 0.21928 0.90917 0.1928 0.0
C425 C 0.21137 0.90318 0.17454 0.0
C426 C 0.21716 0.89559 0.12358 0.0
C427 C 0.22063 0.90917 0.11511 0.0
C428 C 0.2318 0.91597 0.10051 0.0
C429 C 0.23984 0.90936 0.09442 0.0
C430 C 0.23588 0.89536 0.10203 0.0
C431 C 0.22442 0.88838 0.11628 0.0
C432 C 0.19466 0.87595 0.13988 0.0
C433 C 0.19426 0.86321 0.14702 0.0
C434 C 0.18098 0.84964 0.14741 0.0
C435 C 0.16794 0.84855 0.14043 0.0
C436 C 0.16864 0.86122 0.13231 0.0
C437 C 0.18184 0.87476 0.13215 0.0
H438 H 0.34078 0.21378 0.84764 0.0
N439 N 0.31792 0.20448 0.87489 0.0
H440 H 0.34426 0.22814 0.81648 0.0
H441 H 0.29809 0.20841 0.85643 0.0
H442 H 0.30143 0.22265 0.82522 0.0
H443 H 0.30167 0.20688 0.90419 0.0
H444 H 0.30872 0.22807 0.92734 0.0
H445 H 0.34582 0.22796 0.88063 0.0
H446 H 0.35314 0.24877 0.90427 0.0
H447 H 0.34376 0.2052 0.88265 0.0
H448 H 0.29734 0.17616 0.87314 0.0
H449 H 0.34635 0.18394 0.88944 0.0
H450 H 0.29988 0.15473 0.87902 0.0
H451 H 0.34943 0.11772 0.8758 0.0
H452 H 0.35102 0.10632 0.84353 0.0
H453 H 0.30454 0.08718 0.83404 0.0
H454 H 0.30289 0.09827 0.86684 0.0
H455 H 0.30918 0.09013 0.91634 0.0
H456 H 0.3188 0.08003 0.94118 0.0
H457 H 0.36199 0.11875 0.93457 0.0
H458 H 0.35212 0.12886 0.90978 0.0
H459 H 0.34641 0.14018 0.87824 0.0
H460 H 0.34561 0.16279 0.8739 0.0
H461 H 0.30414 0.14265 0.90626 0.0
N462 N 0.32431 0.11404 0.89374 0.0
H463 H 0.30478 0.11989 0.90957 0.0
C464 C 0.31913 0.21004 0.85436 0.0
C465 C 0.33199 0.21533 0.84256 0.0
C466 C 0.33397 0.22354 0.82475 0.0
C467 C 0.32319 0.22667 0.81861 0.0
C468 C 0.31 0.22058 0.82976 0.0
C469 C 0.30801 0.21234 0.84742 0.0
C470 C 0.32317 0.21573 0.89083 0.0
C471 C 0.31299 0.21586 0.90453 0.0
C472 C 0.31707 0.22797 0.91775 0.0
C473 C 0.33149 0.2402 0.91754 0.0
C474 C 0.34189 0.23966 0.90458 0.0
C475 C 0.33776 0.22761 0.89124 0.0
C476 C 0.32024 0.19227 0.87762 0.0
C477 C 0.33411 0.19427 0.88189 0.0
C478 C 0.33561 0.18204 0.88567 0.0
C479 C 0.3233 0.16759 0.88508 0.0
C480 C 0.30955 0.16569 0.88018 0.0
C481 C 0.30807 0.17789 0.87658 0.0
C482 C 0.32592 0.10859 0.87394 0.0
C483 C 0.33955 0.11106 0.8669 0.0
C484 C 0.34048 0.10458 0.84842 0.0
C485 C 0.32789 0.09584 0.83644 0.0
C486 C 0.31441 0.09393 0.84301 0.0
C487 C 0.31344 0.10019 0.86168 0.0
C488 C 0.32991 0.11012 0.91114 0.0
C489 C 0.32062 0.09662 0.92074 0.0
C490 C 0.32616 0.0909 0.93495 0.0
C491 C 0.34119 0.09856 0.93975 0.0
C492 C 0.35038 0.11255 0.93102 0.0
C493 C 0.34476 0.11835 0.91693 0.0
C494 C 0.3255 0.12828 0.89399 0.0
C495 C 0.33724 0.1407 0.88455 0.0
C496 C 0.33678 0.15366 0.88217 0.0
C497 C 0.32466 0.15447 0.88936 0.0
C498 C 0.31344 0.1423 0.89997 0.0
C499 C 0.31384 0.12935 0.90214 0.0
H500 H 0.78566 0.12777 0.8637 0.0
N501 N 0.79491 0.11309 0.88797 0.0
H502 H 0.77093 0.11795 0.83213 0.0
H503 H 0.78849 0.0885 0.86769 0.0
H504 H 0.77405 0.07871 0.83604 0.0
H505 H 0.79074 0.09256 0.91479 0.0
H506 H 0.76982 0.07937 0.93797 0.0
H507 H 0.77571 0.12212 0.89863 0.0
H508 H 0.75507 0.10939 0.92226 0.0
H509 H 0.79999 0.14101 0.89643 0.0
H510 H 0.82088 0.11609 0.88204 0.0
H511 H 0.82387 0.16391 0.89703 0.0
H512 H 0.84475 0.13891 0.88172 0.0
H513 H 0.88817 0.22716 0.87023 0.0
H514 H 0.89816 0.24248 0.83982 0.0
H515 H 0.91723 0.21671 0.81992 0.0
H516 H 0.90731 0.20137 0.85085 0.0
H517 H 0.91978 0.21514 0.89873 0.0
H518 H 0.9327 0.23546 0.9237 0.0
H519 H 0.89402 0.23879 0.93017 0.0
H520 H 0.88112 0.21834 0.90536 0.0
H521 H 0.86714 0.20267 0.87174 0.0
H522 H 0.84304 0.18042 0.87457 0.0
H523 H 0.86272 0.15783 0.90292 0.0
N524 N 0.89356 0.20551 0.88244 0.0
H525 H 0.88692 0.18 0.89903 0.0
C526 C 0.78809 0.10877 0.86799 0.0
C527 C 0.7833 0.11715 0.85759 0.0
C528 C 0.77491 0.11154 0.83957 0.0
C529 C 0.77115 0.09747 0.83184 0.0
C530 C 0.77651 0.08945 0.84188 0.0
C531 C 0.78488 0.09506 0.85978 0.0
C532 C 0.78487 0.10833 0.90509 0.0
C533 C 0.78324 0.09657 0.91692 0.0
C534 C 0.77126 0.08905 0.93014 0.0
C535 C 0.76065 0.09321 0.93179 0.0
C536 C 0.76291 0.10574 0.92107 0.0
C537 C 0.77487 0.1132 0.90776 0.0
C538 C 0.80871 0.1268 0.88942 0.0
C539 C 0.80971 0.14043 0.8935 0.0
C540 C 0.8234 0.15357 0.89364 0.0
C541 C 0.8363 0.15331 0.88949 0.0
C542 C 0.83515 0.13958 0.88544 0.0
C543 C 0.82152 0.12651 0.88548 0.0
C544 C 0.8971 0.21311 0.86297 0.0
C545 C 0.8943 0.22459 0.85931 0.0
C546 C 0.90008 0.23342 0.84193 0.0
C547 C 0.90861 0.23088 0.82772 0.0
C548 C 0.91067 0.21887 0.83067 0.0
C549 C 0.90501 0.21012 0.84824 0.0
C550 C 0.89959 0.2153 0.90008 0.0
C551 C 0.91398 0.21998 0.90602 0.0
C552 C 0.92132 0.23157 0.92026 0.0
C553 C 0.91439 0.23878 0.92871 0.0
C554 C 0.89965 0.23351 0.92371 0.0
C555 C 0.89226 0.22179 0.90961 0.0
C556 C 0.87895 0.19291 0.8848 0.0
C557 C 0.86634 0.19296 0.87846 0.0
C558 C 0.85247 0.18021 0.88031 0.0
C559 C 0.8509 0.16723 0.88879 0.0
C560 C 0.86351 0.16747 0.89585 0.0
C561 C 0.87735 0.18014 0.89377 0.0
H562 H 0.77942 0.70043 0.88458 0.0
N563 N 0.79757 0.69037 0.89053 0.0
H564 H 0.76663 0.6993 0.8532 0.0
H565 H 0.80449 0.68519 0.8507 0.0
H566 H 0.79266 0.68525 0.81913 0.0
H567 H 0.77245 0.66398 0.88209 0.0
H568 H 0.75076 0.65221 0.90373 0.0
H569 H 0.79639 0.69561 0.93063 0.0
H570 H 0.77519 0.68296 0.95342 0.0
H571 H 0.82479 0.70963 0.90223 0.0
H572 H 0.79718 0.66491 0.87994 0.0
H573 H 0.84565 0.70598 0.90341 0.0
H574 H 0.81815 0.66131 0.87969 0.0
H575 H 0.90654 0.6975 0.86542 0.0
H576 H 0.91583 0.69387 0.8324 0.0
H577 H 0.8813 0.64792 0.83146 0.0
H578 H 0.87161 0.65184 0.86401 0.0
H579 H 0.87366 0.64842 0.89873 0.0
H580 H 0.88503 0.63989 0.92308 0.0
H581 H 0.91745 0.68532 0.93807 0.0
H582 H 0.90581 0.69374 0.91384 0.0
H583 H 0.88354 0.70145 0.88136 0.0
H584 H 0.86219 0.70428 0.88205 0.0
H585 H 0.83492 0.65823 0.89869 0.0
N586 N 0.88442 0.67717 0.88747 0.0
H587 H 0.85628 0.65539 0.89647 0.0
C588 C 0.79246 0.69221 0.87063 0.0
C589 C 0.7824 0.69712 0.87033 0.0
C590 C 0.77517 0.69661 0.85218 0.0
C591 C 0.77827 0.69181 0.83346 0.0
C592 C 0.78944 0.68836 0.83333 0.0
C593 C 0.79635 0.68841 0.85165 0.0
C594 C 0.78588 0.68105 0.90456 0.0
C595 C 0.77316 0.6681 0.89772 0.0
C596 C 0.76073 0.66126 0.9103 0.0
C597 C 0.76094 0.66685 0.93029 0.0
C598 C 0.77432 0.67871 0.93784 0.0
C599 C 0.78656 0.68586 0.92498 0.0
C600 C 0.80957 0.68768 0.89073 0.0
C601 C 0.82333 0.69907 0.89736 0.0
C602 C 0.83525 0.69695 0.89785 0.0
C603 C 0.83373 0.6834 0.89134 0.0
C604 C 0.81978 0.67185 0.88503 0.0
C605 C 0.80777 0.6739 0.88498 0.0
C606 C 0.88859 0.67493 0.86722 0.0
C607 C 0.90084 0.68674 0.85786 0.0
C608 C 0.9061 0.68465 0.83909 0.0
C609 C 0.89928 0.6706 0.82958 0.0
C610 C 0.88675 0.65882 0.83866 0.0
C611 C 0.88128 0.66102 0.85724 0.0
C612 C 0.88892 0.67179 0.90447 0.0
C613 C 0.88294 0.65656 0.90763 0.0
C614 C 0.88954 0.65168 0.92148 0.0
C615 C 0.90223 0.66191 0.93237 0.0
C616 C 0.9076 0.67713 0.93012 0.0
C617 C 0.901 0.68198 0.91627 0.0
C618 C 0.87156 0.67833 0.88914 0.0
C619 C 0.87293 0.69201 0.88521 0.0
C620 C 0.86069 0.6936 0.8858 0.0
C621 C 0.84674 0.68153 0.89069 0.0
C622 C 0.84541 0.66776 0.89466 0.0
C623 C 0.85768 0.66613 0.89367 0.0
H624 H 0.75086 0.64062 0.47554 0.0
N625 N 0.77867 0.65562 0.46365 0.0
H626 H 0.74041 0.64304 0.50782 0.0
H627 H 0.79405 0.67374 0.49636 0.0
H628 H 0.78395 0.6753 0.52962 0.0
H629 H 0.78727 0.68486 0.46136 0.0
H630 H 0.77686 0.69533 0.4383 0.0
H631 H 0.76228 0.64255 0.43056 0.0
H632 H 0.75146 0.65268 0.40786 0.0
H633 H 0.78351 0.63526 0.4786 0.0
H634 H 0.80551 0.67767 0.44881 0.0
H635 H 0.80655 0.6357 0.48062 0.0
H636 H 0.8284 0.67771 0.44923 0.0
H637 H 0.87683 0.63526 0.49032 0.0
H638 H 0.8898 0.63827 0.52299 0.0
H639 H 0.89454 0.68117 0.53225 0.0
H640 H 0.88123 0.67798 0.50023 0.0
H641 H 0.89753 0.683 0.47124 0.0
H642 H 0.91818 0.6908 0.44838 0.0
H643 H 0.89293 0.6508 0.4117 0.0
H644 H 0.87285 0.64232 0.43645 0.0
H645 H 0.84593 0.63249 0.46632 0.0
H646 H 0.8233 0.63275 0.46231 0.0
H647 H 0.84781 0.68053 0.46876 0.0
N648 N 0.87275 0.65529 0.47194 0.0
H649 H 0.87051 0.68006 0.47077 0.0
C650 C 0.7732 0.65677 0.48363 0.0
C651 C 0.75811 0.64818 0.48736 0.0
C652 C 0.75219 0.64951 0.50597 0.0
C653 C 0.76129 0.65924 0.52167 0.0
C654 C 0.77651 0.66782 0.51792 0.0
C655 C 0.78237 0.66679 0.49897 0.0
C656 C 0.77553 0.66291 0.44756 0.0
C657 C 0.77986 0.67795 0.44922 0.0
C658 C 0.77376 0.68386 0.43618 0.0
C659 C 0.76316 0.67481 0.42137 0.0
C660 C 0.75969 0.66005 0.41888 0.0
C661 C 0.76585 0.6542 0.43184 0.0
C662 C 0.79261 0.65629 0.46347 0.0
C663 C 0.7933 0.64456 0.47217 0.0
C664 C 0.80652 0.6448 0.4731 0.0
C665 C 0.81947 0.65666 0.46485 0.0
C666 C 0.81877 0.66845 0.45601 0.0
C667 C 0.80554 0.66836 0.45553 0.0
C668 C 0.8781 0.65636 0.49269 0.0
C669 C 0.8803 0.64511 0.49972 0.0
C670 C 0.8877 0.64684 0.51827 0.0
C671 C 0.89318 0.65998 0.5299 0.0
C672 C 0.8904 0.67096 0.52343 0.0
C673 C 0.88275 0.6691 0.50512 0.0
C674 C 0.88379 0.66173 0.45606 0.0
C675 C 0.8964 0.67583 0.45839 0.0
C676 C 0.90825 0.68043 0.44492 0.0
C677 C 0.90756 0.67132 0.42825 0.0
C678 C 0.89425 0.6579 0.42478 0.0
C679 C 0.88261 0.65309 0.43872 0.0
C680 C 0.85979 0.65616 0.46938 0.0
C681 C 0.84635 0.64299 0.46676 0.0
C682 C 0.8334 0.6432 0.46469 0.0
C683 C 0.83353 0.65665 0.46567 0.0
C684 C 0.84716 0.66994 0.46784 0.0
C685 C 0.86019 0.66971 0.46939 0.0
H686 H 0.3749 0.13135 0.49797 0.0
N687 N 0.35524 0.13579 0.47986 0.0
H688 H 0.3715 0.11713 0.52921 0.0
H689 H 0.33282 0.12725 0.50757 0.0
H690 H 0.32925 0.11288 0.53883 0.0
H691 H 0.32707 0.11269 0.47502 0.0
H692 H 0.31913 0.09098 0.4529 0.0
H693 H 0.37097 0.13204 0.45099 0.0
H694 H 0.36331 0.10999 0.42941 0.0
H695 H 0.3721 0.16325 0.49385 0.0
H696 H 0.33187 0.13554 0.46037 0.0
H697 H 0.36913 0.18449 0.48899 0.0
H698 H 0.32929 0.15675 0.45453 0.0
H699 H 0.36465 0.25283 0.4711 0.0
H700 H 0.36441 0.26565 0.50288 0.0
H701 H 0.32732 0.22496 0.52485 0.0
H702 H 0.32775 0.21228 0.49335 0.0
H703 H 0.3181 0.21988 0.46293 0.0
H704 H 0.30754 0.22973 0.43976 0.0
H705 H 0.34329 0.24173 0.39692 0.0
H706 H 0.35457 0.23323 0.42154 0.0
H707 H 0.36976 0.22273 0.4585 0.0
H708 H 0.37135 0.20062 0.46284 0.0
H709 H 0.32416 0.17436 0.46904 0.0
N710 N 0.34607 0.22487 0.46018 0.0
H711 H 0.32274 0.19656 0.46342 0.0
C712 C 0.35415 0.13032 0.50045 0.0
C713 C 0.36511 0.12771 0.50717 0.0
C714 C 0.36308 0.11947 0.52486 0.0
C715 C 0.35002 0.11373 0.53626 0.0
C716 C 0.33944 0.11721 0.53036 0.0
C717 C 0.34145 0.12541 0.51252 0.0
C718 C 0.34964 0.1241 0.46447 0.0
C719 C 0.33496 0.11239 0.46468 0.0
C720 C 0.33047 0.09988 0.45219 0.0
C721 C 0.34061 0.09863 0.43956 0.0
C722 C 0.35515 0.11062 0.43874 0.0
C723 C 0.35957 0.12324 0.45106 0.0
C724 C 0.35237 0.14773 0.4775 0.0
C725 C 0.36264 0.16173 0.48545 0.0
C726 C 0.36099 0.1739 0.48243 0.0
C727 C 0.34908 0.17244 0.47103 0.0
C728 C 0.33855 0.15831 0.46349 0.0
C729 C 0.3401 0.14607 0.46678 0.0
C730 C 0.34636 0.23162 0.47985 0.0
C731 C 0.35662 0.24668 0.48293 0.0
C732 C 0.35636 0.25398 0.50097 0.0
C733 C 0.34578 0.24632 0.51631 0.0
C734 C 0.3357 0.23113 0.51342 0.0
C735 C 0.33595 0.22384 0.49536 0.0
C736 C 0.33747 0.22636 0.44432 0.0
C737 C 0.32363 0.22452 0.4485 0.0
C738 C 0.31747 0.23006 0.43496 0.0
C739 C 0.32475 0.23707 0.41658 0.0
C740 C 0.33765 0.23707 0.4113 0.0
C741 C 0.34403 0.23197 0.42518 0.0
C742 C 0.34621 0.21129 0.46082 0.0
C743 C 0.35977 0.21214 0.46051 0.0
C744 C 0.36064 0.1995 0.46328 0.0
C745 C 0.34791 0.18568 0.46675 0.0
C746 C 0.3342 0.18477 0.46636 0.0
C747 C 0.33335 0.19746 0.46328 0.0
H748 H 0.7857 0.08973 0.48233 0.0
N749 N 0.7909 0.11585 0.46993 0.0
H750 H 0.77219 0.07631 0.51313 0.0
H751 H 0.78295 0.12748 0.50243 0.0
H752 H 0.76957 0.11418 0.5332 0.0
H753 H 0.76508 0.11575 0.47055 0.0
H754 H 0.74403 0.10044 0.44806 0.0
H755 H 0.79158 0.10377 0.43399 0.0
H756 H 0.7707 0.08899 0.41087 0.0
H757 H 0.81908 0.12509 0.46589 0.0
H758 H 0.7889 0.14078 0.47095 0.0
H759 H 0.83961 0.15054 0.46384 0.0
H760 H 0.80936 0.16635 0.47039 0.0
H761 H 0.89568 0.21856 0.48848 0.0
H762 H 0.9084 0.23036 0.52054 0.0
H763 H 0.88108 0.24937 0.52872 0.0
H764 H 0.86796 0.2371 0.49666 0.0
H765 H 0.88085 0.2458 0.45043 0.0
H766 H 0.90158 0.25957 0.42711 0.0
H767 H 0.91109 0.22433 0.42939 0.0
H768 H 0.89026 0.21061 0.45271 0.0
H769 H 0.87396 0.19674 0.48459 0.0
H770 H 0.85361 0.17149 0.484 0.0
H771 H 0.82766 0.18522 0.45039 0.0
N772 N 0.87388 0.22127 0.47031 0.0
H773 H 0.84802 0.21088 0.45233 0.0
C774 C 0.78547 0.10962 0.49003 0.0
C775 C 0.78251 0.09525 0.49363 0.0
C776 C 0.77466 0.08756 0.51107 0.0
C777 C 0.76969 0.09416 0.52539 0.0
C778 C 0.77331 0.10885 0.52242 0.0
C779 C 0.78105 0.1165 0.50481 0.0
C780 C 0.77983 0.11062 0.45412 0.0
C781 C 0.76653 0.11027 0.45729 0.0
C782 C 0.75453 0.10156 0.44445 0.0
C783 C 0.75582 0.09355 0.42791 0.0
C784 C 0.76952 0.09517 0.42349 0.0
C785 C 0.78141 0.10359 0.43662 0.0
C786 C 0.80257 0.13107 0.46892 0.0
C787 C 0.81695 0.1341 0.46682 0.0
C788 C 0.82866 0.14867 0.46581 0.0
C789 C 0.82625 0.16062 0.4672 0.0
C790 C 0.8117 0.1575 0.46904 0.0
C791 C 0.79996 0.14286 0.46967 0.0
C792 C 0.8806 0.22673 0.49028 0.0
C793 C 0.89205 0.22487 0.49735 0.0
C794 C 0.89941 0.23168 0.51568 0.0
C795 C 0.89571 0.24075 0.52702 0.0
C796 C 0.88415 0.24244 0.52017 0.0
C797 C 0.87661 0.2354 0.502 0.0
C798 C 0.88405 0.22728 0.45338 0.0
C799 C 0.88715 0.24088 0.44538 0.0
C800 C 0.899 0.24871 0.43208 0.0
C801 C 0.90805 0.24309 0.42659 0.0
C802 C 0.90441 0.22901 0.4336 0.0
C803 C 0.89246 0.22113 0.44682 0.0
C804 C 0.86248 0.20589 0.46879 0.0
C805 C 0.86396 0.19448 0.47719 0.0
C806 C 0.85224 0.17986 0.47661 0.0
C807 C 0.83886 0.17619 0.46722 0.0
C808 C 0.83763 0.18759 0.45818 0.0
C809 C 0.8493 0.20225 0.45907 0.0
H810 H 0.03688 0.56757 0.17278 0.0
N811 N 0.02005 0.55673 0.20597 0.0
H812 H 0.03152 0.57687 0.14164 0.0
H813 H 0.99306 0.55207 0.195 0.0
H814 H 0.98768 0.56135 0.1641 0.0
H815 H 0.9965 0.55012 0.23069 0.0
H816 H 0.99455 0.56732 0.25439 0.0
H817 H 0.0417 0.58281 0.2189 0.0
H818 H 0.04019 0.59982 0.24349 0.0
H819 H 0.03926 0.54968 0.2187 0.0
H820 H 0.99354 0.53064 0.20392 0.0
H821 H 0.03494 0.52509 0.22647 0.0
H822 H 0.98918 0.50598 0.2108 0.0
H823 H 0.0237 0.45415 0.21028 0.0
H824 H 0.02426 0.44163 0.17867 0.0
H825 H 0.97894 0.4275 0.16713 0.0
H826 H 0.97835 0.43997 0.19917 0.0
H827 H 0.98231 0.43005 0.24847 0.0
H828 H 0.98971 0.41765 0.27293 0.0
H829 H 0.03459 0.45371 0.26867 0.0
H830 H 0.02706 0.4661 0.24431 0.0
H831 H 0.02515 0.47791 0.21279 0.0
H832 H 0.02985 0.50295 0.20901 0.0
H833 H 0.98794 0.48977 0.23716 0.0
N834 N 0.99968 0.45394 0.22683 0.0
H835 H 0.98311 0.46448 0.24014 0.0
C836 C 0.01549 0.55921 0.18628 0.0
C837 C 0.02599 0.5658 0.17066 0.0
C838 C 0.0229 0.5711 0.15292 0.0
C839 C 0.00922 0.56996 0.15056 0.0
C840 C 0.99837 0.56252 0.16563 0.0
C841 C 0.00144 0.55713 0.1833 0.0
C842 C 0.01923 0.56534 0.22282 0.0
C843 C 0.00609 0.5609 0.23353 0.0
C844 C 0.00503 0.57074 0.2472 0.0
C845 C 0.01714 0.58508 0.25057 0.0
C846 C 0.03052 0.58903 0.24083 0.0
C847 C 0.03149 0.57928 0.227 0.0
C848 C 0.01682 0.54201 0.21052 0.0
C849 C 0.0283 0.54015 0.21704 0.0
C850 C 0.02581 0.52608 0.22135 0.0
C851 C 0.01172 0.51349 0.21913 0.0
C852 C 1.00014 0.51542 0.21292 0.0
C853 C 0.00264 0.52955 0.20875 0.0
C854 C 1.00085 0.44784 0.20729 0.0
C855 C 0.01387 0.44844 0.20104 0.0
C856 C 0.0142 0.44126 0.18293 0.0
C857 C 0.00163 0.43353 0.17056 0.0
C858 C 0.98881 0.43346 0.17635 0.0
C859 C 0.98844 0.44051 0.19461 0.0
C860 C 0.00407 0.4489 0.24443 0.0
C861 C 0.99366 0.43549 0.25334 0.0
C862 C 0.99792 0.42844 0.26732 0.0
C863 C 0.01277 0.43465 0.27257 0.0
C864 C 0.0231 0.4486 0.26471 0.0
C865 C 0.01878 0.45573 0.25086 0.0
C866 C 0.00367 0.46925 0.22665 0.0
C867 C 0.01701 0.48039 0.21832 0.0
C868 C 0.01972 0.49479 0.21626 0.0
C869 C 0.00923 0.4984 0.22263 0.0
C870 C 0.99615 0.48734 0.23171 0.0
C871 C 0.99342 0.47293 0.23364 0.0
H872 H 0.58688 0.54342 0.20133 0.0
N873 N 0.56 0.53445 0.2148 0.0
H874 H 0.59871 0.55799 0.17049 0.0
H875 H 0.54588 0.53885 0.18263 0.0
H876 H 0.5576 0.55343 0.15212 0.0
H877 H 0.55742 0.55904 0.21273 0.0
H878 H 0.56931 0.58046 0.23549 0.0
H879 H 0.57082 0.53545 0.25206 0.0
H880 H 0.58148 0.55634 0.27635 0.0
H881 H 0.55436 0.50706 0.2188 0.0
H882 H 0.53335 0.53268 0.21492 0.0
H883 H 0.53053 0.48445 0.2221 0.0
H884 H 0.50931 0.51003 0.21666 0.0
H885 H 0.44891 0.41241 0.21219 0.0
H886 H 0.43422 0.40111 0.18133 0.0
H887 H 0.44427 0.44435 0.16104 0.0
H888 H 0.45795 0.4553 0.19298 0.0
H889 H 0.44305 0.45035 0.22931 0.0
H890 H 0.42268 0.44054 0.25384 0.0
H891 H 0.43783 0.41324 0.28019 0.0
H892 H 0.45846 0.42368 0.25623 0.0
H893 H 0.48664 0.44482 0.20667 0.0
H894 H 0.51005 0.46784 0.20356 0.0
H895 H 0.49235 0.49089 0.23749 0.0
N896 N 0.46219 0.44054 0.2241 0.0
H897 H 0.46873 0.46806 0.23924 0.0
C898 C 0.56553 0.54001 0.19443 0.0
C899 C 0.58034 0.5452 0.1903 0.0
C900 C 0.5871 0.55364 0.17282 0.0
C901 C 0.57912 0.55702 0.15904 0.0
C902 C 0.56402 0.55094 0.16239 0.0
C903 C 0.55728 0.54254 0.17993 0.0
C904 C 0.5637 0.54579 0.23035 0.0
C905 C 0.56261 0.55831 0.2266 0.0
C906 C 0.56931 0.57059 0.2399 0.0
C907 C 0.57679 0.57043 0.25767 0.0
C908 C 0.57642 0.55721 0.26244 0.0
C909 C 0.57012 0.54512 0.24876 0.0
C910 C 0.54562 0.52145 0.21627 0.0
C911 C 0.54452 0.50772 0.21834 0.0
C912 C 0.53085 0.4948 0.22004 0.0
C913 C 0.51785 0.49528 0.21935 0.0
C914 C 0.51901 0.50916 0.21744 0.0
C915 C 0.53276 0.52215 0.21615 0.0
C916 C 0.4547 0.43465 0.20473 0.0
C917 C 0.44798 0.41941 0.20098 0.0
C918 C 0.43967 0.41301 0.1832 0.0
C919 C 0.43814 0.42179 0.1684 0.0
C920 C 0.44502 0.43717 0.17213 0.0
C921 C 0.45305 0.44352 0.19026 0.0
C922 C 0.45232 0.43778 0.24111 0.0
C923 C 0.44227 0.4427 0.24092 0.0
C924 C 0.43051 0.4369 0.25477 0.0
C925 C 0.42844 0.42591 0.26882 0.0
C926 C 0.43911 0.4218 0.26981 0.0
C927 C 0.45094 0.42773 0.25613 0.0
C928 C 0.47589 0.45453 0.22326 0.0
C929 C 0.48782 0.45487 0.21338 0.0
C930 C 0.50127 0.46807 0.2118 0.0
C931 C 0.50326 0.48132 0.22049 0.0
C932 C 0.49124 0.481 0.23037 0.0
C933 C 0.47766 0.4678 0.23157 0.0
H934 H 0.54371 0.97537 0.20212 0.0
N935 N 0.54408 0.99945 0.2199 0.0
H936 H 0.55668 0.97537 0.17098 0.0
H937 H 0.55793 0.02135 0.19313 0.0
H938 H 0.57082 0.02131 0.1615 0.0
H939 H 0.56806 0.01702 0.24148 0.0
H940 H 0.58076 0.00955 0.26527 0.0
H941 H 0.53255 0.97176 0.23624 0.0
H942 H 0.54526 0.96412 0.25993 0.0
H943 H 0.52087 0.97593 0.1997 0.0
H944 H 0.53252 0.01248 0.24171 0.0
H945 H 0.49577 0.97038 0.19904 0.0
H946 H 0.507 0.00631 0.24246 0.0
H947 H 0.41494 0.95565 0.19629 0.0
H948 H 0.40382 0.95967 0.16603 0.0
H949 H 0.44202 0.00326 0.15922 0.0
H950 H 0.45303 0.99925 0.18945 0.0
H951 H 0.4401 0.0008 0.22307 0.0
H952 H 0.42448 0.0038 0.24822 0.0
H953 H 0.40986 0.96025 0.27166 0.0
H954 H 0.42512 0.95701 0.24588 0.0
H955 H 0.44879 0.95585 0.21298 0.0
H956 H 0.4738 0.96087 0.2162 0.0
H957 H 0.48943 0.00763 0.22335 0.0
N958 N 0.4397 0.975 0.21493 0.0
H959 H 0.46425 0.00222 0.22177 0.0
C960 C 0.54999 0.99849 0.20017 0.0
C961 C 0.5495 0.98546 0.19341 0.0
C962 C 0.55693 0.98544 0.17557 0.0
C963 C 0.56484 0.99836 0.16397 0.0
C964 C 0.56474 0.01118 0.17013 0.0
C965 C 0.55742 0.01123 0.18814 0.0
C966 C 0.54948 0.99499 0.237 0.0
C967 C 0.56283 0.00553 0.24597 0.0
C968 C 0.57004 0.00123 0.25955 0.0
C969 C 0.56405 0.98622 0.26432 0.0
C970 C 0.55019 0.97574 0.25635 0.0
C971 C 0.54289 0.9801 0.2429 0.0
C972 C 0.52874 0.9949 0.22048 0.0
C973 C 0.51804 0.98271 0.20899 0.0
C974 C 0.50352 0.97941 0.20883 0.0
C975 C 0.49922 0.98793 0.22058 0.0
C976 C 0.50988 0.99971 0.23275 0.0
C977 C 0.52446 0.00318 0.23256 0.0
C978 C 0.43483 0.97701 0.19515 0.0
C979 C 0.42103 0.96594 0.188 0.0
C980 C 0.41464 0.96833 0.1709 0.0
C981 C 0.422 0.98185 0.16046 0.0
C982 C 0.43613 0.99272 0.16697 0.0
C983 C 0.44247 0.99038 0.18427 0.0
C984 C 0.43356 0.97853 0.23242 0.0
C985 C 0.43382 0.99201 0.23387 0.0
C986 C 0.42491 0.99374 0.24823 0.0
C987 C 0.41599 0.98221 0.26168 0.0
C988 C 0.41673 0.96929 0.26146 0.0
C989 C 0.42541 0.96745 0.24682 0.0
C990 C 0.45468 0.97863 0.21675 0.0
C991 C 0.45767 0.96716 0.21532 0.0
C992 C 0.47202 0.9701 0.21699 0.0
C993 C 0.48381 0.98471 0.2198 0.0
C994 C 0.48071 0.99621 0.22145 0.0
C995 C 0.46629 0.99318 0.22022 0.0
H996 H 0.42396 0.97474 0.81244 0.0
N997 N 0.45077 0.99434 0.79988 0.0
H998 H 0.41193 0.97522 0.84448 0.0
H999 H 0.46355 0.01441 0.83147 0.0
H1000 H 0.45174 0.01486 0.86397 0.0
H1001 H 0.45956 0.0237 0.79822 0.0
H1002 H 0.44927 0.0345 0.77563 0.0
H1003 H 0.4343 0.98168 0.76676 0.0
H1004 H 0.42363 0.99218 0.74444 0.0
H1005 H 0.45562 0.9739 0.81446 0.0
H1006 H 0.47779 0.01692 0.78632 0.0
H1007 H 0.47864 0.97429 0.81618 0.0
H1008 H 0.5007 0.01696 0.78659 0.0
H1009 H 0.54775 0.97178 0.82031 0.0
H1010 H 0.56024 0.9727 0.85262 0.0
H1011 H 0.56654 0.01577 0.86663 0.0
H1012 H 0.55369 0.01464 0.83494 0.0
H1013 H 0.56946 0.02067 0.80538 0.0
H1014 H 0.58971 0.02939 0.78147 0.0
H1015 H 0.56366 0.991 0.74224 0.0
H1016 H 0.54396 0.98159 0.76774 0.0
H1017 H 0.51747 0.97078 0.79857 0.0
H1018 H 0.49501 0.97155 0.79614 0.0
H1019 H 0.52005 0.01902 0.80613 0.0
N1020 N 0.54445 0.99312 0.80471 0.0
H1021 H 0.54259 0.01813 0.80676 0.0
C1022 C 0.44459 0.99444 0.81969 0.0
C1023 C 0.4301 0.98341 0.82376 0.0
C1024 C 0.42329 0.9837 0.84211 0.0
C1025 C 0.4309 0.99505 0.85685 0.0
C1026 C 0.44555 0.00604 0.85285 0.0
C1027 C 0.45234 0.00576 0.83439 0.0
C1028 C 0.44768 0.00185 0.78409 0.0
C1029 C 0.45209 0.0169 0.78608 0.0
C1030 C 0.44608 0.02302 0.77328 0.0
C1031 C 0.43548 0.01417 0.75837 0.0
C1032 C 0.43188 0.99939 0.75555 0.0
C1033 C 0.43794 0.99333 0.76829 0.0
C1034 C 0.46481 0.99526 0.8002 0.0
C1035 C 0.46545 0.98337 0.80844 0.0
C1036 C 0.47865 0.98357 0.80919 0.0
C1037 C 0.49162 0.99557 0.80123 0.0
C1038 C 0.49102 0.00758 0.79307 0.0
C1039 C 0.47779 0.00751 0.79273 0.0
C1040 C 0.54985 0.99312 0.82508 0.0
C1041 C 0.5515 0.98124 0.83063 0.0
C1042 C 0.55862 0.98177 0.84899 0.0
C1043 C 0.56438 0.99435 0.86188 0.0
C1044 C 0.5622 0.00599 0.85681 0.0
C1045 C 0.55483 0.00532 0.83869 0.0
C1046 C 0.55535 1.00012 0.78877 0.0
C1047 C 0.56807 0.01406 0.79173 0.0
C1048 C 0.57967 0.01919 0.7777 0.0
C1049 C 0.57862 0.01077 0.75996 0.0
C1050 C 0.56522 0.99755 0.75607 0.0
C1051 C 0.55382 0.99221 0.77047 0.0
C1052 C 0.53158 0.99429 0.80331 0.0
C1053 C 0.51805 0.98133 0.80017 0.0
C1054 C 0.50521 0.98182 0.79899 0.0
C1055 C 0.50556 0.99533 0.80138 0.0
C1056 C 0.51927 0.00841 0.80415 0.0
C1057 C 0.53219 0.00792 0.80487 0.0
H1058 H 0.95857 0.52788 0.83942 0.0
N1059 N 0.97346 0.53344 0.80423 0.0
H1060 H 0.96446 0.54447 0.86949 0.0
H1061 H 0.99838 0.56068 0.8097 0.0
H1062 H 0.0044 0.57704 0.83954 0.0
H1063 H 0.99448 0.55025 0.77558 0.0
H1064 H 0.99257 0.56619 0.75039 0.0
H1065 H 0.94905 0.53189 0.7918 0.0
H1066 H 0.94677 0.54722 0.76587 0.0
H1067 H 0.95803 0.50436 0.79862 0.0
H1068 H 0.00239 0.54096 0.80505 0.0
H1069 H 0.96691 0.48704 0.79878 0.0
H1070 H 0.01128 0.52384 0.80634 0.0
H1071 H 0.98596 0.43847 0.82633 0.0
H1072 H 0.98339 0.4242 0.8568 0.0
H1073 H 0.02721 0.45721 0.87593 0.0
H1074 H 0.02979 0.47165 0.84503 0.0
H1075 H 0.0307 0.45837 0.79735 0.0
H1076 H 0.02624 0.43862 0.77265 0.0
H1077 H 0.9812 0.42733 0.7667 0.0
H1078 H 0.98573 0.44708 0.79124 0.0
H1079 H 0.98461 0.4603 0.82754 0.0
H1080 H 0.97612 0.47745 0.82304 0.0
H1081 H 0.01548 0.5065 0.78881 0.0
N1082 N 0.01091 0.46378 0.81378 0.0
H1083 H 0.02431 0.48944 0.79432 0.0
C1084 C 0.97794 0.54296 0.82229 0.0
C1085 C 0.96865 0.53855 0.83951 0.0
C1086 C 0.97205 0.54801 0.85664 0.0
C1087 C 0.98483 0.56211 0.85678 0.0
C1088 C 0.99434 0.56635 0.83974 0.0
C1089 C 0.99094 0.5569 0.82267 0.0
C1090 C 0.97193 0.54006 0.78585 0.0
C1091 C 0.98398 0.54932 0.7733 0.0
C1092 C 0.98283 0.5584 0.75878 0.0
C1093 C 0.96958 0.55823 0.75641 0.0
C1094 C 0.95724 0.54792 0.76767 0.0
C1095 C 0.95845 0.53902 0.78231 0.0
C1096 C 0.97943 0.5239 0.80207 0.0
C1097 C 0.96969 0.50864 0.79996 0.0
C1098 C 0.97479 0.49878 0.8003 0.0
C1099 C 0.98981 0.50399 0.80297 0.0
C1100 C 0.99966 0.51938 0.80415 0.0
C1101 C 0.99454 0.52925 0.80358 0.0
C1102 C 0.00818 0.45623 0.83325 0.0
C1103 C 0.995 0.44285 0.83709 0.0
C1104 C 0.99354 0.4346 0.85451 0.0
C1105 C 0.00517 0.43948 0.86856 0.0
C1106 C 0.01806 0.45319 0.86535 0.0
C1107 C 0.01954 0.46145 0.84777 0.0
C1108 C 0.0086 0.45419 0.79624 0.0
C1109 C 0.01999 0.4519 0.79023 0.0
C1110 C 0.01742 0.44063 0.77617 0.0
C1111 C 0.00333 0.43136 0.76797 0.0
C1112 C 0.99212 0.43422 0.773 0.0
C1113 C 0.99474 0.44558 0.78693 0.0
C1114 C 0.00533 0.47365 0.81153 0.0
C1115 C 0.99156 0.47035 0.81923 0.0
C1116 C 0.98658 0.48017 0.81638 0.0
C1117 C 0.99507 0.4934 0.80549 0.0
C1118 C 0.00873 0.49656 0.79755 0.0
C1119 C 0.01378 0.4868 0.80061 0.0
H1120 H 0.4688 0.44421 0.84822 0.0
N1121 N 0.46161 0.45385 0.81536 0.0
H1122 H 0.45438 0.43428 0.87978 0.0
H1123 H 0.43825 0.45658 0.82711 0.0
H1124 H 0.42383 0.44674 0.85853 0.0
H1125 H 0.44309 0.45788 0.79093 0.0
H1126 H 0.42387 0.43891 0.7687 0.0
H1127 H 0.45907 0.42853 0.80324 0.0
H1128 H 0.44042 0.40978 0.78031 0.0
H1129 H 0.48832 0.46254 0.8017 0.0
H1130 H 0.45966 0.47885 0.81768 0.0
H1131 H 0.50828 0.48783 0.79534 0.0
H1132 H 0.47967 0.50419 0.81244 0.0
H1133 H 0.56689 0.55792 0.8183 0.0
H1134 H 0.57987 0.56856 0.85055 0.0
H1135 H 0.54824 0.581 0.86744 0.0
H1136 H 0.53524 0.57043 0.83469 0.0
H1137 H 0.55086 0.58434 0.78637 0.0
H1138 H 0.57158 0.59832 0.76301 0.0
H1139 H 0.57888 0.56159 0.76023 0.0
H1140 H 0.55805 0.5476 0.7833 0.0
H1141 H 0.54441 0.53439 0.81496 0.0
H1142 H 0.5242 0.50894 0.8153 0.0
H1143 H 0.49578 0.52252 0.78877 0.0
N1144 N 0.54301 0.55877 0.80397 0.0
H1145 H 0.51613 0.54827 0.78937 0.0
C1146 C 0.45463 0.45105 0.83528 0.0
C1147 C 0.45924 0.44519 0.8507 0.0
C1148 C 0.45099 0.43954 0.8687 0.0
C1149 C 0.4379 0.43962 0.87152 0.0
C1150 C 0.43379 0.44639 0.85665 0.0
C1151 C 0.44209 0.4521 0.8387 0.0
C1152 C 0.45235 0.44446 0.79891 0.0
C1153 C 0.44265 0.44747 0.78845 0.0
C1154 C 0.43171 0.43663 0.77569 0.0
C1155 C 0.43041 0.4227 0.77309 0.0
C1156 C 0.44085 0.42022 0.78244 0.0
C1157 C 0.45163 0.43097 0.7953 0.0
C1158 C 0.47262 0.46882 0.81046 0.0
C1159 C 0.48637 0.47162 0.80381 0.0
C1160 C 0.49777 0.48608 0.80036 0.0
C1161 C 0.49569 0.49812 0.80367 0.0
C1162 C 0.48168 0.49522 0.80958 0.0
C1163 C 0.47021 0.48069 0.8128 0.0
C1164 C 0.55011 0.56355 0.82386 0.0
C1165 C 0.56261 0.56284 0.82884 0.0
C1166 C 0.57008 0.56894 0.84732 0.0
C1167 C 0.56511 0.57569 0.86136 0.0
C1168 C 0.55225 0.57579 0.85688 0.0
C1169 C 0.54486 0.56982 0.83823 0.0
C1170 C 0.55293 0.56501 0.78673 0.0
C1171 C 0.55663 0.57914 0.78016 0.0
C1172 C 0.56848 0.5871 0.76686 0.0
C1173 C 0.57693 0.58109 0.76004 0.0
C1174 C 0.57263 0.56653 0.76548 0.0
C1175 C 0.56065 0.5585 0.77858 0.0
C1176 C 0.53174 0.54334 0.80233 0.0
C1177 C 0.5339 0.53197 0.80912 0.0
C1178 C 0.52228 0.51731 0.80913 0.0
C1179 C 0.50828 0.51361 0.80214 0.0
C1180 C 0.50632 0.52496 0.79461 0.0
C1181 C 0.51795 0.53965 0.79476 0.0
H1182 H 0.6986 0.89874 0.50962 0.0
N1183 N 0.68135 0.88786 0.54238 0.0
H1184 H 0.69391 0.90857 0.47847 0.0
H1185 H 0.65485 0.8843 0.53117 0.0
H1186 H 0.65009 0.89403 0.5002 0.0
H1187 H 0.65799 0.88224 0.5669 0.0
H1188 H 0.657 0.89988 0.59088 0.0
H1189 H 0.70382 0.91313 0.55601 0.0
H1190 H 0.70322 0.93054 0.58081 0.0
H1191 H 0.69989 0.87976 0.5544 0.0
H1192 H 0.65435 0.86238 0.5401 0.0
H1193 H 0.6948 0.85471 0.56074 0.0
H1194 H 0.64921 0.83727 0.54548 0.0
H1195 H 0.68318 0.78473 0.54163 0.0
H1196 H 0.68449 0.77241 0.51033 0.0
H1197 H 0.63917 0.75746 0.49719 0.0
H1198 H 0.63783 0.76979 0.52892 0.0
H1199 H 0.64149 0.75908 0.57768 0.0
H1200 H 0.64926 0.74657 0.60142 0.0
H1201 H 0.69353 0.78401 0.59955 0.0
H1202 H 0.68567 0.7965 0.57597 0.0
H1203 H 0.68409 0.80791 0.54353 0.0
H1204 H 0.68918 0.83313 0.54141 0.0
H1205 H 0.64749 0.81988 0.57035 0.0
N1206 N 0.65859 0.78379 0.55738 0.0
H1207 H 0.64223 0.79435 0.57165 0.0
C1208 C 0.67718 0.89086 0.52276 0.0
C1209 C 0.68786 0.89733 0.50735 0.0
C1210 C 0.68515 0.90292 0.48959 0.0
C1211 C 0.67166 0.90218 0.487 0.0
C1212 C 0.66064 0.89491 0.50191 0.0
C1213 C 0.66335 0.88925 0.51961 0.0
C1214 C 0.68097 0.89655 0.55944 0.0
C1215 C 0.66791 0.89271 0.57 0.0
C1216 C 0.6674 0.90278 0.58383 0.0
C1217 C 0.67997 0.91677 0.58746 0.0
C1218 C 0.69324 0.92005 0.57794 0.0
C1219 C 0.69367 0.91008 0.56398 0.0
C1220 C 0.67761 0.87293 0.54652 0.0
C1221 C 0.6888 0.87049 0.55257 0.0
C1222 C 0.68587 0.85617 0.55605 0.0
C1223 C 0.67162 0.84391 0.5534 0.0
C1224 C 0.66029 0.84643 0.54784 0.0
C1225 C 0.66324 0.86082 0.54454 0.0
C1226 C 0.66027 0.77806 0.53781 0.0
C1227 C 0.67351 0.77894 0.53207 0.0
C1228 C 0.67427 0.77185 0.51415 0.0
C1229 C 0.66191 0.7639 0.50146 0.0
C1230 C 0.64889 0.76359 0.50667 0.0
C1231 C 0.64809 0.77058 0.52475 0.0
C1232 C 0.66294 0.77863 0.5749 0.0
C1233 C 0.65276 0.76478 0.58296 0.0
C1234 C 0.65722 0.75766 0.5965 0.0
C1235 C 0.67204 0.76426 0.60212 0.0
C1236 C 0.68207 0.77861 0.59525 0.0
C1237 C 0.67755 0.7858 0.58185 0.0
C1238 C 0.66264 0.79914 0.55762 0.0
C1239 C 0.67604 0.81036 0.54951 0.0
C1240 C 0.679 0.82488 0.54845 0.0
C1241 C 0.66873 0.82858 0.55563 0.0
C1242 C 0.65555 0.8174 0.56434 0.0
C1243 C 0.65256 0.80285 0.56527 0.0
H1244 H 0.24786 0.8759 0.52481 0.0
N1245 N 0.22616 0.87196 0.54959 0.0
H1246 H 0.25559 0.88992 0.49257 0.0
H1247 H 0.21074 0.88192 0.52859 0.0
H1248 H 0.21882 0.89655 0.49691 0.0
H1249 H 0.22009 0.89361 0.56044 0.0
H1250 H 0.23493 0.91491 0.58265 0.0
H1251 H 0.24777 0.87599 0.5743 0.0
H1252 H 0.26303 0.89766 0.59634 0.0
H1253 H 0.21746 0.8449 0.5361 0.0
H1254 H 0.20212 0.86997 0.56991 0.0
H1255 H 0.19334 0.82272 0.53913 0.0
H1256 H 0.17826 0.84773 0.57404 0.0
H1257 H 0.12354 0.75532 0.53718 0.0
H1258 H 0.11068 0.74495 0.50427 0.0
H1259 H 0.10538 0.78262 0.49739 0.0
H1260 H 0.11872 0.79325 0.52966 0.0
H1261 H 0.10447 0.78408 0.55969 0.0
H1262 H 0.08349 0.77069 0.58197 0.0
H1263 H 0.10651 0.7532 0.61495 0.0
H1264 H 0.12681 0.76534 0.59061 0.0
H1265 H 0.15355 0.78214 0.56123 0.0
H1266 H 0.17754 0.80483 0.56213 0.0
H1267 H 0.15653 0.8306 0.55671 0.0
N1268 N 0.12767 0.77958 0.55661 0.0
H1269 H 0.13254 0.80775 0.55745 0.0
C1270 C 0.22891 0.87808 0.52919 0.0
C1271 C 0.24127 0.88004 0.51847 0.0
C1272 C 0.24565 0.88802 0.50015 0.0
C1273 C 0.23783 0.89435 0.4925 0.0
C1274 C 0.22504 0.89181 0.50268 0.0
C1275 C 0.22047 0.88353 0.52075 0.0
C1276 C 0.23275 0.88304 0.56575 0.0
C1277 C 0.22914 0.89409 0.56862 0.0
C1278 C 0.23778 0.90642 0.58119 0.0
C1279 C 0.2503 0.9081 0.591 0.0
C1280 C 0.25341 0.89666 0.58909 0.0
C1281 C 0.2447 0.88427 0.57656 0.0
C1282 C 0.2118 0.85913 0.55283 0.0
C1283 C 0.20895 0.84557 0.54445 0.0
C1284 C 0.19514 0.83286 0.54638 0.0
C1285 C 0.1838 0.83331 0.55708 0.0
C1286 C 0.18665 0.84694 0.56553 0.0
C1287 C 0.20045 0.85975 0.5633 0.0
C1288 C 0.12198 0.77494 0.536 0.0
C1289 C 0.11992 0.76149 0.52829 0.0
C1290 C 0.1126 0.75561 0.50961 0.0
C1291 C 0.10704 0.76301 0.49855 0.0
C1292 C 0.10957 0.77675 0.50579 0.0
C1293 C 0.11719 0.7828 0.52424 0.0
C1294 C 0.11702 0.77522 0.57294 0.0
C1295 C 0.10505 0.77737 0.57165 0.0
C1296 C 0.09302 0.76978 0.58478 0.0
C1297 C 0.09293 0.76036 0.60009 0.0
C1298 C 0.10575 0.75972 0.60281 0.0
C1299 C 0.11754 0.76689 0.58916 0.0
C1300 C 0.14137 0.79328 0.55884 0.0
C1301 C 0.15419 0.79274 0.56052 0.0
C1302 C 0.16788 0.80573 0.56078 0.0
C1303 C 0.16907 0.81962 0.55897 0.0
C1304 C 0.15609 0.82015 0.55815 0.0
C1305 C 0.14234 0.80708 0.55828 0.0
H1306 H 0.20283 0.31815 0.53006 0.0
N1307 N 0.21621 0.34 0.5594 0.0
H1308 H 0.21413 0.31602 0.49795 0.0
H1309 H 0.2419 0.35989 0.54393 0.0
H1310 H 0.25322 0.35795 0.51194 0.0
H1311 H 0.23421 0.35473 0.59035 0.0
H1312 H 0.24654 0.34592 0.61253 0.0
H1313 H 0.20792 0.31095 0.56411 0.0
H1314 H 0.21987 0.30188 0.5866 0.0
H1315 H 0.1885 0.31594 0.56447 0.0
H1316 H 0.21303 0.36314 0.55599 0.0
H1317 H 0.16565 0.31626 0.5652 0.0
H1318 H 0.19032 0.36358 0.55571 0.0
H1319 H 0.10437 0.31852 0.53528 0.0
H1320 H 0.09162 0.31547 0.50289 0.0
H1321 H 0.11798 0.36259 0.4929 0.0
H1322 H 0.13067 0.36558 0.52571 0.0
H1323 H 0.11709 0.36231 0.57203 0.0
H1324 H 0.09662 0.35503 0.59588 0.0
H1325 H 0.08821 0.31026 0.59525 0.0
H1326 H 0.10886 0.31774 0.57146 0.0
H1327 H 0.1275 0.32115 0.54097 0.0
H1328 H 0.1494 0.31941 0.5438 0.0
H1329 H 0.17127 0.36138 0.5767 0.0
N1330 N 0.12483 0.34483 0.55331 0.0
H1331 H 0.14953 0.36337 0.57269 0.0
C1332 C 0.2216 0.33923 0.53928 0.0
C1333 C 0.21374 0.32695 0.52601 0.0
C1334 C 0.2202 0.32574 0.50772 0.0
C1335 C 0.23462 0.33672 0.50263 0.0
C1336 C 0.24219 0.34919 0.51565 0.0
C1337 C 0.23572 0.35041 0.53377 0.0
C1338 C 0.22017 0.33356 0.57566 0.0
C1339 C 0.23069 0.34308 0.59002 0.0
C1340 C 0.23772 0.33799 0.60267 0.0
C1341 C 0.23432 0.32321 0.60118 0.0
C1342 C 0.22291 0.31338 0.58789 0.0
C1343 C 0.21592 0.31851 0.57519 0.0
C1344 C 0.20249 0.33961 0.56044 0.0
C1345 C 0.18898 0.32638 0.56283 0.0
C1346 C 0.17589 0.32658 0.56306 0.0
C1347 C 0.17608 0.33996 0.56066 0.0
C1348 C 0.18969 0.35311 0.55813 0.0
C1349 C 0.2027 0.3529 0.55812 0.0
C1350 C 0.11856 0.34235 0.53293 0.0
C1351 C 0.10766 0.32818 0.52601 0.0
C1352 C 0.10036 0.32644 0.5074 0.0
C1353 C 0.10374 0.3388 0.49538 0.0
C1354 C 0.11502 0.35288 0.50195 0.0
C1355 C 0.12236 0.3546 0.52055 0.0
C1356 C 0.11441 0.34059 0.56991 0.0
C1357 C 0.11104 0.35103 0.57747 0.0
C1358 C 0.09938 0.34684 0.59111 0.0
C1359 C 0.09076 0.33204 0.59734 0.0
C1360 C 0.09458 0.32171 0.59053 0.0
C1361 C 0.10638 0.32597 0.577 0.0
C1362 C 0.137 0.34263 0.55622 0.0
C1363 C 0.13698 0.33 0.54872 0.0
C1364 C 0.14953 0.32894 0.55056 0.0
C1365 C 0.16225 0.34035 0.56022 0.0
C1366 C 0.16187 0.35256 0.56864 0.0
C1367 C 0.14943 0.35369 0.56654 0.0
C1368 C 0.00667 0.39096 0.06928 0.0
C1369 C 0.99315 0.37775 0.06691 0.0
C1370 C 0.00918 0.40064 0.08601 0.0
C1371 C 0.99798 0.39687 0.10084 0.0
C1372 C 0.9845 0.38331 0.09888 0.0
C1373 C 0.98222 0.37398 0.08187 0.0
C1374 C 0.02363 0.41509 0.08749 0.0
C1375 C 0.97239 0.37875 0.11459 0.0
C1376 C 0.00681 0.41514 0.15393 0.0
C1377 C 0.00165 0.42495 0.15225 0.0
C1378 C 0.00603 0.40617 0.13716 0.0
C1379 C 1.0001 0.40719 0.1182 0.0
C1380 C 0.99532 0.41744 0.11622 0.0
C1381 C 0.99603 0.42612 0.13335 0.0
C1382 C 0.01103 0.39522 0.13997 0.0
C1383 C 0.98913 0.419 0.09615 0.0
H1384 H 0.01514 0.39398 0.05772 0.0
H1385 H 0.97179 0.36371 0.08025 0.0
H1386 H 0.02172 0.42448 0.08641 0.0
H1387 H 0.02883 0.41609 0.10267 0.0
H1388 H 0.03138 0.41615 0.0751 0.0
H1389 H 0.96286 0.36751 0.11137 0.0
H1390 H 0.97657 0.37891 0.13029 0.0
H1391 H 0.96855 0.38676 0.11468 0.0
H1392 H 0.01102 0.41412 0.16862 0.0
H1393 H 0.99217 0.4338 0.132 0.0
H1394 H 0.01906 0.39667 0.12781 0.0
H1395 H 0.00152 0.38378 0.13834 0.0
H1396 H 0.01614 0.3964 0.15531 0.0
H1397 H 0.99686 0.42094 0.0833 0.0
H1398 H 0.98693 0.42824 0.09672 0.0
H1399 H 0.97873 0.40858 0.09255 0.0
C1400 C 0.60917 0.62327 0.07961 0.0
C1401 C 0.61967 0.62378 0.06582 0.0
C1402 C 0.60286 0.61237 0.09481 0.0
C1403 C 0.6071 0.60166 0.09622 0.0
C1404 C 0.6178 0.6022 0.08255 0.0
C1405 C 0.62399 0.61327 0.06757 0.0
C1406 C 0.59156 0.61221 0.10925 0.0
C1407 C 0.62258 0.59096 0.08357 0.0
C1408 C 0.59984 0.58123 0.14675 0.0
C1409 C 0.58674 0.56793 0.14242 0.0
C1410 C 0.60667 0.59223 0.13178 0.0
C1411 C 0.60027 0.58986 0.11197 0.0
C1412 C 0.5872 0.57635 0.10735 0.0
C1413 C 0.58056 0.56556 0.12266 0.0
C1414 C 0.62055 0.60652 0.13734 0.0
C1415 C 0.58013 0.57338 0.08633 0.0
H1416 H 0.60578 0.63135 0.07845 0.0
H1417 H 0.63206 0.6135 0.057 0.0
H1418 H 0.58099 0.60162 0.10741 0.0
H1419 H 0.5951 0.61293 0.1255 0.0
H1420 H 0.58969 0.62149 0.1064 0.0
H1421 H 0.63115 0.59301 0.07197 0.0
H1422 H 0.62693 0.59116 0.09916 0.0
H1423 H 0.61302 0.57967 0.08094 0.0
H1424 H 0.60453 0.58325 0.1621 0.0
H1425 H 0.57049 0.55526 0.11922 0.0
H1426 H 0.61867 0.61592 0.13617 0.0
H1427 H 0.62942 0.60858 0.12631 0.0
H1428 H 0.62437 0.60643 0.15322 0.0
H1429 H 0.5769 0.58165 0.08317 0.0
H1430 H 0.57024 0.56213 0.08501 0.0
H1431 H 0.58807 0.57455 0.0742 0.0
C1432 C 0.38114 0.99813 0.06861 0.0
C1433 C 0.37347 0.9848 0.05733 0.0
C1434 C 0.38983 0.9994 0.08571 0.0
C1435 C 0.39095 0.98709 0.09151 0.0
C1436 C 0.38337 0.97369 0.08004 0.0
C1437 C 0.37471 0.9727 0.06321 0.0
C1438 C 0.39767 0.01382 0.09771 0.0
C1439 C 0.38433 0.96032 0.08562 0.0
C1440 C 0.42185 0.99026 0.12448 0.0
C1441 C 0.41464 0.98469 0.1433 0.0
C1442 C 0.41449 0.99183 0.10768 0.0
C1443 C 0.39963 0.98786 0.10989 0.0
C1444 C 0.39258 0.98299 0.12922 0.0
C1445 C 0.40014 0.98139 0.14565 0.0
C1446 C 0.42237 0.99699 0.08729 0.0
C1447 C 0.37682 0.97883 0.13231 0.0
H1448 H 0.38026 0.00754 0.06422 0.0
H1449 H 0.36896 0.96237 0.05456 0.0
H1450 H 0.39371 0.01201 0.11391 0.0
H1451 H 0.4096 0.01802 0.09818 0.0
H1452 H 0.39596 0.02246 0.09094 0.0
H1453 H 0.37811 0.95087 0.07474 0.0
H1454 H 0.39595 0.96323 0.08568 0.0
H1455 H 0.37995 0.95667 0.1014 0.0
H1456 H 0.43306 0.99282 0.12265 0.0
H1457 H 0.39464 0.97736 0.16034 0.0
H1458 H 0.42096 0.00592 0.08096 0.0
H1459 H 0.41754 0.98766 0.07597 0.0
H1460 H 0.43427 0.00113 0.08868 0.0
H1461 H 0.3751 0.9877 0.12657 0.0
H1462 H 0.37347 0.97681 0.14879 0.0
H1463 H 0.36952 0.96861 0.12328 0.0
C1464 C 0.39218 0.99551 0.96394 0.0
C1465 C 0.37802 0.99238 0.95944 0.0
C1466 C 0.40195 0.99722 0.94802 0.0
C1467 C 0.39739 0.99589 0.92721 0.0
C1468 C 0.38324 0.99336 0.92268 0.0
C1469 C 0.37364 0.99146 0.93893 0.0
C1470 C 0.41686 0.99975 0.95346 0.0
C1471 C 0.37804 0.99205 0.90071 0.0
C1472 C 0.425 0.00897 0.88324 0.0
C1473 C 0.4233 0.99555 0.87595 0.0
C1474 C 0.41693 0.00934 0.90029 0.0
C1475 C 0.4069 0.99597 0.91018 0.0
C1476 C 0.40546 0.98246 0.90327 0.0
C1477 C 0.41371 0.98243 0.88631 0.0
C1478 C 0.4188 0.02396 0.9073 0.0
C1479 C 0.39493 0.96797 0.91347 0.0
H1480 H 0.39541 0.99605 0.97993 0.0
H1481 H 0.36261 0.98896 0.93562 0.0
H1482 H 0.41752 0.98994 0.94869 0.0
H1483 H 0.42556 0.00939 0.945 0.0
H1484 H 0.41916 0.0017 0.97028 0.0
H1485 H 0.36725 0.99131 0.89983 0.0
H1486 H 0.38615 0.00173 0.89168 0.0
H1487 H 0.37705 0.98201 0.89326 0.0
H1488 H 0.43227 0.01913 0.87521 0.0
H1489 H 0.41255 0.97206 0.88101 0.0
H1490 H 0.4212 0.02569 0.92408 0.0
H1491 H 0.40844 0.02386 0.90478 0.0
H1492 H 0.42776 0.03346 0.89889 0.0
H1493 H 0.39728 0.96871 0.93024 0.0
H1494 H 0.39552 0.95853 0.90672 0.0
H1495 H 0.38354 0.9656 0.9118 0.0
C1496 C 0.00517 0.3876 0.95862 0.0
C1497 C 0.99127 0.38023 0.96793 0.0
C1498 C 0.00838 0.39776 0.9427 0.0
C1499 C 0.99747 0.4007 0.93608 0.0
C1500 C 0.98349 0.39343 0.94556 0.0
C1501 C 0.98054 0.38325 0.96128 0.0
C1502 C 0.02336 0.40518 0.93279 0.0
C1503 C 0.9716 0.39634 0.93901 0.0
C1504 C 0.00789 0.43554 0.90601 0.0
C1505 C 0.00398 0.42985 0.88586 0.0
C1506 C 0.0061 0.42624 0.92252 0.0
C1507 C 1.00042 0.41094 0.91869 0.0
C1508 C 0.99688 0.40526 0.89827 0.0
C1509 C 0.99866 0.41476 0.88213 0.0
C1510 C 0.0099 0.43267 0.94412 0.0
C1511 C 0.99096 0.38907 0.89349 0.0
H1512 H 0.01353 0.38534 0.9636 0.0
H1513 H 0.9698 0.37771 0.96845 0.0
H1514 H 0.0223 0.40221 0.91613 0.0
H1515 H 0.02857 0.41739 0.93394 0.0
H1516 H 0.03073 0.40195 0.94004 0.0
H1517 H 0.9615 0.3902 0.94846 0.0
H1518 H 0.97559 0.40835 0.94031 0.0
H1519 H 0.96873 0.39306 0.92258 0.0
H1520 H 0.01197 0.44719 0.90893 0.0
H1521 H 0.99588 0.41038 0.8665 0.0
H1522 H 0.01772 0.43003 0.95129 0.0
H1523 H 0.99987 0.42762 0.95381 0.0
H1524 H 0.01483 0.44488 0.94438 0.0
H1525 H 0.9985 0.38565 0.89956 0.0
H1526 H 0.98947 0.38657 0.87666 0.0
H1527 H 0.98022 0.38224 0.90125 0.0
C1528 C 0.60709 0.63052 0.95447 0.0
C1529 C 0.615 0.62634 0.96707 0.0
C1530 C 0.59918 0.62185 0.93737 0.0
C1531 C 0.59895 0.60853 0.93294 0.0
C1532 C 0.60689 0.60421 0.9456 0.0
C1533 C 0.61495 0.61326 0.96243 0.0
C1534 C 0.5911 0.62698 0.924 0.0
C1535 C 0.60672 0.58996 0.94149 0.0
C1536 C 0.56717 0.58091 0.89941 0.0
C1537 C 0.57386 0.58338 0.87999 0.0
C1538 C 0.57534 0.58862 0.91697 0.0
C1539 C 0.59047 0.59924 0.91492 0.0
C1540 C 0.59729 0.60163 0.89536 0.0
C1541 C 0.58891 0.59359 0.87815 0.0
C1542 C 0.56775 0.58561 0.93765 0.0
C1543 C 0.61332 0.61304 0.89246 0.0
H1544 H 0.60719 0.64068 0.95786 0.0
H1545 H 0.62096 0.60992 0.97219 0.0
H1546 H 0.59494 0.62807 0.90779 0.0
H1547 H 0.57919 0.61865 0.92404 0.0
H1548 H 0.59266 0.63779 0.92929 0.0
H1549 H 0.61335 0.58812 0.95291 0.0
H1550 H 0.59528 0.58046 0.94195 0.0
H1551 H 0.61105 0.59008 0.92582 0.0
H1552 H 0.55555 0.57292 0.90084 0.0
H1553 H 0.59405 0.59563 0.86307 0.0
H1554 H 0.56777 0.59563 0.94325 0.0
H1555 H 0.57375 0.58304 0.94921 0.0
H1556 H 0.55622 0.57625 0.93689 0.0
H1557 H 0.61527 0.62423 0.89628 0.0
H1558 H 0.6171 0.6131 0.8764 0.0
H1559 H 0.62014 0.61093 0.90313 0.0
C1560 C 0.99226 0.61657 0.95006 0.0
C1561 C 0.00666 0.62423 0.95773 0.0
C1562 C 0.98824 0.60628 0.93374 0.0
C1563 C 0.99885 0.60352 0.92494 0.0
C1564 C 0.01339 0.61118 0.93258 0.0
C1565 C 0.01713 0.62147 0.94882 0.0
C1566 C 0.97265 0.59837 0.92589 0.0
C1567 C 0.025 0.6085 0.9236 0.0
C1568 C 0.98632 0.56773 0.89477 0.0
C1569 C 0.98811 0.57259 0.87434 0.0
C1570 C 0.98965 0.57766 0.91142 0.0
C1571 C 0.99484 0.59276 0.90751 0.0
C1572 C 0.9965 0.59768 0.88692 0.0
C1573 C 0.99311 0.58754 0.8706 0.0
C1574 C 0.9878 0.57202 0.93319 0.0
C1575 C 0.00193 0.61369 0.88213 0.0
H1576 H 0.98408 0.61863 0.95678 0.0
H1577 H 0.02827 0.62725 0.95466 0.0
H1578 H 0.97253 0.60069 0.90927 0.0
H1579 H 0.96767 0.58623 0.92733 0.0
H1580 H 0.96571 0.60177 0.93442 0.0
H1581 H 0.03576 0.61525 0.93144 0.0
H1582 H 0.02149 0.59664 0.92491 0.0
H1583 H 0.02646 0.61117 0.90693 0.0
H1584 H 0.98257 0.55622 0.89774 0.0
H1585 H 0.99427 0.5913 0.85483 0.0
H1586 H 0.98031 0.57454 0.94195 0.0
H1587 H 0.99853 0.57775 0.94126 0.0
H1588 H 0.98334 0.5599 0.9336 0.0
H1589 H 0.99468 0.61715 0.88949 0.0
H1590 H 0.00235 0.61566 0.86528 0.0
H1591 H 0.01307 0.62087 0.88863 0.0
C1592 C 0.39404 0.37548 0.94822 0.0
C1593 C 0.38552 0.37704 0.96354 0.0
C1594 C 0.40155 0.38645 0.93345 0.0
C1595 C 0.40062 0.3994 0.93406 0.0
C1596 C 0.39172 0.40089 0.94909 0.0
C1597 C 0.3842 0.38965 0.96363 0.0
C1598 C 0.41078 0.38433 0.91747 0.0
C1599 C 0.39049 0.41455 0.95021 0.0
C1600 C 0.43325 0.43184 0.90851 0.0
C1601 C 0.42782 0.43114 0.88862 0.0
C1602 C 0.42421 0.42217 0.92393 0.0
C1603 C 0.40944 0.41147 0.91926 0.0
C1604 C 0.40367 0.41129 0.89958 0.0
C1605 C 0.41293 0.42115 0.88449 0.0
C1606 C 0.43071 0.42283 0.94484 0.0
C1607 C 0.388 0.40003 0.89396 0.0
H1608 H 0.39501 0.36571 0.9479 0.0
H1609 H 0.37767 0.39097 0.97545 0.0
H1610 H 0.40745 0.38544 0.90172 0.0
H1611 H 0.42247 0.39305 0.91945 0.0
H1612 H 0.40982 0.37335 0.91856 0.0
H1613 H 0.38238 0.4136 0.96195 0.0
H1614 H 0.40133 0.42434 0.95416 0.0
H1615 H 0.38726 0.41665 0.93498 0.0
H1616 H 0.44471 0.43967 0.91182 0.0
H1617 H 0.4087 0.42044 0.86908 0.0
H1618 H 0.43163 0.41288 0.94682 0.0
H1619 H 0.42347 0.4228 0.9573 0.0
H1620 H 0.44179 0.43283 0.94678 0.0
H1621 H 0.38672 0.38891 0.89256 0.0
H1622 H 0.38469 0.4026 0.87911 0.0
H1623 H 0.3804 0.39946 0.90624 0.0
C1624 C 0.61293 0.01613 0.96328 0.0
C1625 C 0.62071 0.00874 0.96512 0.0
C1626 C 0.60305 0.01281 0.94701 0.0
C1627 C 0.60123 0.00217 0.93183 0.0
C1628 C 0.60902 0.99462 0.93366 0.0
C1629 C 0.61851 0.99784 0.95049 0.0
C1630 C 0.59467 0.02081 0.94593 0.0
C1631 C 0.60766 0.98349 0.9175 0.0
C1632 C 0.56794 0.98644 0.89649 0.0
C1633 C 0.57371 0.99593 0.87964 0.0
C1634 C 0.57679 0.98827 0.91363 0.0
C1635 C 0.59179 0.99958 0.91353 0.0
C1636 C 0.5977 0.0089 0.89621 0.0
C1637 C 0.58852 0.00707 0.87958 0.0
C1638 C 0.57002 0.97835 0.93201 0.0
C1639 C 0.61369 0.02087 0.89529 0.0
H1640 H 0.61448 0.02442 0.97474 0.0
H1641 H 0.62456 0.99217 0.95186 0.0
H1642 H 0.5981 0.02789 0.93207 0.0
H1643 H 0.58275 0.01271 0.94442 0.0
H1644 H 0.59649 0.02791 0.95978 0.0
H1645 H 0.61416 0.97831 0.92146 0.0
H1646 H 0.59602 0.97464 0.91559 0.0
H1647 H 0.6115 0.98902 0.90238 0.0
H1648 H 0.55645 0.97785 0.89643 0.0
H1649 H 0.59295 0.01428 0.86637 0.0
H1650 H 0.57097 0.98513 0.94584 0.0
H1651 H 0.576 0.97256 0.93542 0.0
H1652 H 0.55826 0.96994 0.9295 0.0
H1653 H 0.61616 0.02929 0.90757 0.0
H1654 H 0.61674 0.02651 0.88015 0.0
H1655 H 0.62069 0.01609 0.89812 0.0
C1656 C 0.62589 0.01891 0.07893 0.0
C1657 C 0.62242 0.00798 0.0637 0.0
C1658 C 0.61633 0.01651 0.0954 0.0
C1659 C 0.60283 0.00293 0.09652 0.0
C1660 C 0.59935 0.99173 0.08143 0.0
C1661 C 0.60926 0.99434 0.06527 0.0
C1662 C 0.62058 0.02863 0.11143 0.0
C1663 C 0.58498 0.97717 0.08202 0.0
C1664 C 0.58354 0.99348 0.14842 0.0
C1665 C 0.57386 0.9987 0.14621 0.0
C1666 C 0.59283 0.99449 0.13222 0.0
C1667 C 0.59227 0.0007 0.11327 0.0
C1668 C 0.58221 0.0056 0.11076 0.0
C1669 C 0.57321 0.00466 0.12735 0.0
C1670 C 0.60358 0.98938 0.13562 0.0
C1671 C 0.58117 0.0121 0.09068 0.0
H1672 H 0.63611 0.02943 0.07793 0.0
H1673 H 0.60648 0.98589 0.05348 0.0
H1674 H 0.61271 0.03258 0.11108 0.0
H1675 H 0.62005 0.02426 0.1271 0.0
H1676 H 0.6318 0.03823 0.10891 0.0
H1677 H 0.58414 0.96943 0.06951 0.0
H1678 H 0.58366 0.97177 0.09709 0.0
H1679 H 0.57575 0.97917 0.08045 0.0
H1680 H 0.58418 0.98902 0.1631 0.0
H1681 H 0.56564 0.00859 0.12559 0.0
H1682 H 0.61495 0.99897 0.13462 0.0
H1683 H 0.60234 0.98133 0.12339 0.0
H1684 H 0.60211 0.98413 0.15089 0.0
H1685 H 0.5916 0.02259 0.08775 0.0
H1686 H 0.57208 0.01442 0.09076 0.0
H1687 H 0.57945 0.00441 0.07765 0.0
C1688 C 0.99797 0.61402 0.0582 0.0
C1689 C 0.01144 0.62733 0.05632 0.0
C1690 C 0.99588 0.60373 0.07343 0.0
C1691 C 0.00745 0.60695 0.08722 0.0
C1692 C 0.02084 0.62064 0.08589 0.0
C1693 C 0.02269 0.6306 0.0704 0.0
C1694 C 0.98149 0.58921 0.07431 0.0
C1695 C 0.03336 0.62462 0.10055 0.0
C1696 C 0.00128 0.5871 0.13802 0.0
C1697 C 0.00688 0.57785 0.1336 0.0
C1698 C 1.00077 0.59618 0.12281 0.0
C1699 C 0.0059 0.59592 0.10267 0.0
C1700 C 0.01085 0.58603 0.09785 0.0
C1701 C 0.01137 0.57718 0.11342 0.0
C1702 C 0.99554 0.60666 0.12862 0.0
C1703 C 0.01621 0.58527 0.07648 0.0
H1704 H 0.98925 0.61139 0.04731 0.0
H1705 H 0.03308 0.64093 0.06917 0.0
H1706 H 0.98333 0.57996 0.07065 0.0
H1707 H 0.97683 0.58739 0.09011 0.0
H1708 H 0.97331 0.58874 0.06327 0.0
H1709 H 0.04275 0.63603 0.09815 0.0
H1710 H 0.02959 0.62371 0.11676 0.0
H1711 H 0.03728 0.61674 0.0984 0.0
H1712 H 0.99796 0.5878 0.15366 0.0
H1713 H 0.01558 0.56994 0.10993 0.0
H1714 H 0.98739 0.60583 0.11727 0.0
H1715 H 0.00495 0.61822 0.12838 0.0
H1716 H 0.99053 0.60444 0.14425 0.0
H1717 H 0.00807 0.58392 0.06471 0.0
H1718 H 0.0183 0.576 0.07471 0.0
H1719 H 0.02654 0.59579 0.07322 0.0
C1720 C 0.40185 0.38788 0.05852 0.0
C1721 C 0.38738 0.37617 0.06059 0.0
C1722 C 0.40963 0.3967 0.0756 0.0
C1723 C 0.40293 0.39329 0.09531 0.0
C1724 C 0.38811 0.38173 0.09733 0.0
C1725 C 0.38041 0.37343 0.07979 0.0
C1726 C 0.42522 0.40924 0.07267 0.0
C1727 C 0.38071 0.37751 0.11815 0.0
C1728 C 0.42898 0.40244 0.14021 0.0
C1729 C 0.42931 0.4148 0.14933 0.0
C1730 C 0.42019 0.3952 0.12296 0.0
C1731 C 0.41191 0.40075 0.11399 0.0
C1732 C 0.41247 0.41346 0.12264 0.0
C1733 C 0.42098 0.4202 0.14038 0.0
C1734 C 0.41975 0.38155 0.11436 0.0
C1735 C 0.40411 0.41994 0.11312 0.0
H1736 H 0.40713 0.39 0.04353 0.0
H1737 H 0.36922 0.36428 0.08127 0.0
H1738 H 0.42696 0.41942 0.08066 0.0
H1739 H 0.43289 0.4063 0.07958 0.0
H1740 H 0.42807 0.41172 0.0561 0.0
H1741 H 0.36884 0.3691 0.11687 0.0
H1742 H 0.38604 0.37293 0.12772 0.0
H1743 H 0.38197 0.3874 0.12643 0.0
H1744 H 0.43564 0.39836 0.14651 0.0
H1745 H 0.42094 0.4296 0.14736 0.0
H1746 H 0.42428 0.38364 0.09847 0.0
H1747 H 0.40825 0.37219 0.11344 0.0
H1748 H 0.42613 0.37813 0.12391 0.0
H1749 H 0.40725 0.42252 0.09667 0.0
H1750 H 0.40616 0.43021 0.12124 0.0
H1751 H 0.39217 0.41175 0.11351 0.0
C1752 C 0.64456 0.70376 0.41459 0.0
C1753 C 0.65556 0.70766 0.39971 0.0
C1754 C 0.64661 0.71315 0.43142 0.0
C1755 C 0.65991 0.72688 0.43328 0.0
C1756 C 0.67123 0.73074 0.41863 0.0
C1757 C 0.66896 0.72101 0.40206 0.0
C1758 C 0.63437 0.7085 0.44695 0.0
C1759 C 0.68551 0.74536 0.42004 0.0
C1760 C 0.65684 0.75603 0.46433 0.0
C1761 C 0.66236 0.75525 0.48353 0.0
C1762 C 0.65653 0.74727 0.44757 0.0
C1763 C 0.66166 0.73735 0.45022 0.0
C1764 C 0.66751 0.73674 0.46947 0.0
C1765 C 0.66786 0.74577 0.48588 0.0
C1766 C 0.65039 0.74837 0.42718 0.0
C1767 C 0.67287 0.72616 0.47298 0.0
H1768 H 0.63423 0.69339 0.41297 0.0
H1769 H 0.67748 0.72413 0.39055 0.0
H1770 H 0.63854 0.70905 0.46279 0.0
H1771 H 0.6302 0.71623 0.44651 0.0
H1772 H 0.62507 0.69709 0.44394 0.0
H1773 H 0.69348 0.74638 0.40802 0.0
H1774 H 0.68339 0.75457 0.41824 0.0
H1775 H 0.69056 0.74674 0.43545 0.0
H1776 H 0.65271 0.76347 0.46247 0.0
H1777 H 0.67199 0.74504 0.50079 0.0
H1778 H 0.64016 0.73776 0.42363 0.0
H1779 H 0.65828 0.75034 0.41456 0.0
H1780 H 0.64789 0.7574 0.42722 0.0
H1781 H 0.66355 0.71459 0.4716 0.0
H1782 H 0.67795 0.72771 0.48845 0.0
H1783 H 0.68103 0.72761 0.46104 0.0
C1784 C 0.26387 0.95074 0.39827 0.0
C1785 C 0.27912 0.95786 0.39591 0.0
C1786 C 0.25658 0.93987 0.41329 0.0
C1787 C 0.2648 0.93635 0.42663 0.0
C1788 C 0.28023 0.9436 0.42444 0.0
C1789 C 0.28719 0.95413 0.40889 0.0
C1790 C 0.24008 0.9321 0.41481 0.0
C1791 C 0.28941 0.94041 0.43872 0.0
C1792 C 0.24788 0.91954 0.47832 0.0
C1793 C 0.24383 0.90474 0.47515 0.0
C1794 C 0.25476 0.92996 0.46266 0.0
C1795 C 0.2573 0.92534 0.44323 0.0
C1796 C 0.25287 0.91028 0.43981 0.0
C1797 C 0.24637 0.90017 0.45596 0.0
C1798 C 0.25964 0.94597 0.46709 0.0
C1799 C 0.25508 0.90487 0.41914 0.0
H1800 H 0.25758 0.95348 0.38808 0.0
H1801 H 0.299 0.95968 0.40715 0.0
H1802 H 0.23525 0.91994 0.41345 0.0
H1803 H 0.23687 0.93439 0.43013 0.0
H1804 H 0.23525 0.93565 0.40266 0.0
H1805 H 0.3013 0.94715 0.43513 0.0
H1806 H 0.2877 0.94272 0.45495 0.0
H1807 H 0.28596 0.92853 0.43764 0.0
H1808 H 0.24607 0.92305 0.49332 0.0
H1809 H 0.24323 0.88869 0.45363 0.0
H1810 H 0.25435 0.9498 0.45613 0.0
H1811 H 0.27166 0.953 0.46483 0.0
H1812 H 0.25694 0.94775 0.48307 0.0
H1813 H 0.24997 0.9079 0.40676 0.0
H1814 H 0.25031 0.89269 0.41868 0.0
H1815 H 0.26695 0.91033 0.41563 0.0
C1816 C 0.04059 0.31705 0.41302 0.0
C1817 C 0.0457 0.32394 0.39396 0.0
C1818 C 0.05034 0.32007 0.42941 0.0
C1819 C 0.06558 0.32975 0.42632 0.0
C1820 C 0.07078 0.3366 0.40696 0.0
C1821 C 0.06072 0.33382 0.39111 0.0
C1822 C 0.04434 0.31292 0.45001 0.0
C1823 C 0.08697 0.34662 0.40288 0.0
C1824 C 0.0897 0.3468 0.47367 0.0
C1825 C 0.09484 0.33708 0.47682 0.0
C1826 C 0.08034 0.34467 0.45713 0.0
C1827 C 0.07608 0.33258 0.44333 0.0
C1828 C 0.08153 0.32295 0.44611 0.0
C1829 C 0.0908 0.32528 0.46287 0.0
C1830 C 0.07466 0.3551 0.45479 0.0
C1831 C 0.0774 0.31006 0.43153 0.0
H1832 H 0.02893 0.30947 0.41516 0.0
H1833 H 0.06463 0.339 0.37623 0.0
H1834 H 0.04864 0.30562 0.4539 0.0
H1835 H 0.04802 0.32153 0.46234 0.0
H1836 H 0.03216 0.30622 0.45014 0.0
H1837 H 0.08921 0.35093 0.38689 0.0
H1838 H 0.09168 0.35615 0.41386 0.0
H1839 H 0.09276 0.34051 0.40538 0.0
H1840 H 0.09261 0.3558 0.48457 0.0
H1841 H 0.09487 0.31784 0.46511 0.0
H1842 H 0.06254 0.34888 0.45636 0.0
H1843 H 0.07728 0.36002 0.43919 0.0
H1844 H 0.07937 0.36422 0.46647 0.0
H1845 H 0.06541 0.30214 0.43227 0.0
H1846 H 0.08316 0.30406 0.43523 0.0
H1847 H 0.08005 0.31401 0.41541 0.0
C1848 C 0.0404 0.31422 0.27751 0.0
C1849 C 0.04551 0.32448 0.29392 0.0
C1850 C 0.04937 0.31607 0.26047 0.0
C1851 C 0.06394 0.32826 0.26011 0.0
C1852 C 0.06914 0.33872 0.2766 0.0
C1853 C 0.05977 0.33681 0.29322 0.0
C1854 C 0.04327 0.3049 0.24293 0.0
C1855 C 0.08471 0.35166 0.27696 0.0
C1856 C 0.08923 0.32237 0.22485 0.0
C1857 C 0.08946 0.32999 0.20713 0.0
C1858 C 0.08154 0.32231 0.2426 0.0
C1859 C 0.07368 0.32984 0.24251 0.0
C1860 C 0.07424 0.33794 0.22495 0.0
C1861 C 0.08224 0.33804 0.20758 0.0
C1862 C 0.08138 0.31375 0.26118 0.0
C1863 C 0.0659 0.346 0.22418 0.0
H1864 H 0.02933 0.30475 0.27797 0.0
H1865 H 0.06377 0.34467 0.30601 0.0
H1866 H 0.0445 0.31061 0.22813 0.0
H1867 H 0.04952 0.29913 0.24151 0.0
H1868 H 0.0315 0.29647 0.24514 0.0
H1869 H 0.08696 0.35897 0.2907 0.0
H1870 H 0.09245 0.34754 0.27701 0.0
H1871 H 0.087 0.35835 0.26286 0.0
H1872 H 0.09465 0.31602 0.22467 0.0
H1873 H 0.08265 0.34427 0.19417 0.0
H1874 H 0.07023 0.30398 0.26329 0.0
H1875 H 0.08409 0.32071 0.27537 0.0
H1876 H 0.08926 0.30983 0.25961 0.0
H1877 H 0.05396 0.33788 0.22504 0.0
H1878 H 0.06815 0.35247 0.20982 0.0
H1879 H 0.06877 0.35363 0.23763 0.0
C1880 C 0.66663 0.71614 0.2884 0.0
C1881 C 0.65488 0.71236 0.30189 0.0
C1882 C 0.67016 0.72662 0.27287 0.0
C1883 C 0.66199 0.73377 0.2712 0.0
C1884 C 0.6503 0.7302 0.28506 0.0
C1885 C 0.64676 0.71939 0.30006 0.0
C1886 C 0.68246 0.72986 0.25805 0.0
C1887 C 0.64158 0.73785 0.2841 0.0
C1888 C 0.67971 0.76992 0.24175 0.0
C1889 C 0.67235 0.76528 0.22281 0.0
C1890 C 0.67623 0.75984 0.25785 0.0
C1891 C 0.66544 0.74473 0.25463 0.0
C1892 C 0.65801 0.74003 0.23547 0.0
C1893 C 0.66144 0.75041 0.21987 0.0
C1894 C 0.68415 0.76533 0.27822 0.0
C1895 C 0.64669 0.72397 0.23126 0.0
H1896 H 0.67288 0.71066 0.28972 0.0
H1897 H 0.63778 0.71662 0.31062 0.0
H1898 H 0.67823 0.72746 0.24198 0.0
H1899 H 0.69103 0.74176 0.25892 0.0
H1900 H 0.68762 0.72321 0.26129 0.0
H1901 H 0.63327 0.73429 0.29659 0.0
H1902 H 0.64905 0.75003 0.28532 0.0
H1903 H 0.63589 0.73548 0.26902 0.0
H1904 H 0.68816 0.78144 0.24395 0.0
H1905 H 0.65592 0.74682 0.20507 0.0
H1906 H 0.69057 0.75994 0.2813 0.0
H1907 H 0.67609 0.7623 0.29096 0.0
H1908 H 0.69172 0.77753 0.27855 0.0
H1909 H 0.65169 0.71704 0.23312 0.0
H1910 H 0.64202 0.72212 0.21546 0.0
H1911 H 0.6376 0.72008 0.24259 0.0
C1912 C 0.28299 0.94911 0.29578 0.0
C1913 C 0.28316 0.96246 0.29834 0.0
C1914 C 0.27517 0.93928 0.27947 0.0
C1915 C 0.2676 0.94304 0.26525 0.0
C1916 C 0.26825 0.95677 0.26729 0.0
C1917 C 0.27591 0.96625 0.2839 0.0
C1918 C 0.27458 0.92465 0.27791 0.0
C1919 C 0.26056 0.96132 0.25219 0.0
C1920 C 0.25568 0.92418 0.21275 0.0
C1921 C 0.24052 0.91505 0.21558 0.0
C1922 C 0.26476 0.93302 0.229 0.0
C1923 C 0.25852 0.93249 0.24858 0.0
C1924 C 0.2433 0.92272 0.25175 0.0
C1925 C 0.23444 0.91424 0.23511 0.0
C1926 C 0.28088 0.94345 0.22492 0.0
C1927 C 0.23629 0.92163 0.27252 0.0
H1928 H 0.2885 0.94608 0.30697 0.0
H1929 H 0.27612 0.97661 0.28568 0.0
H1930 H 0.26314 0.91546 0.28027 0.0
H1931 H 0.27797 0.92314 0.26227 0.0
H1932 H 0.28172 0.92375 0.2895 0.0
H1933 H 0.2629 0.97275 0.25522 0.0
H1934 H 0.26398 0.96067 0.23617 0.0
H1935 H 0.24854 0.9536 0.25312 0.0
H1936 H 0.26035 0.9249 0.19757 0.0
H1937 H 0.22272 0.90708 0.23728 0.0
H1938 H 0.28762 0.9421 0.23668 0.0
H1939 H 0.2834 0.95506 0.2261 0.0
H1940 H 0.28422 0.94166 0.20937 0.0
H1941 H 0.24243 0.91984 0.2848 0.0
H1942 H 0.22466 0.91248 0.27294 0.0
H1943 H 0.23672 0.93217 0.2762 0.0
C1944 C 0.66544 0.95033 0.28252 0.0
C1945 C 0.67872 0.95861 0.29327 0.0
C1946 C 0.6643 0.94144 0.26539 0.0
C1947 C 0.67671 0.94075 0.25897 0.0
C1948 C 0.69004 0.94884 0.26999 0.0
C1949 C 0.6909 0.95769 0.28692 0.0
C1950 C 0.64993 0.93301 0.25393 0.0
C1951 C 0.70349 0.94831 0.26371 0.0
C1952 C 0.67252 0.9093 0.2244 0.0
C1953 C 0.67681 0.91624 0.2052 0.0
C1954 C 0.67214 0.91704 0.24201 0.0
C1955 C 0.67601 0.93202 0.24028 0.0
C1956 C 0.68001 0.93896 0.22083 0.0
C1957 C 0.68041 0.931 0.20354 0.0
C1958 C 0.66795 0.90932 0.26254 0.0
C1959 C 0.6841 0.95488 0.21832 0.0
H1960 H 0.65597 0.95097 0.28727 0.0
H1961 H 0.70119 0.96392 0.29519 0.0
H1962 H 0.65141 0.93694 0.2378 0.0
H1963 H 0.64621 0.92105 0.2532 0.0
H1964 H 0.64118 0.93433 0.26128 0.0
H1965 H 0.71285 0.9548 0.2744 0.0
H1966 H 0.70095 0.93669 0.26326 0.0
H1967 H 0.70694 0.95278 0.24794 0.0
H1968 H 0.66981 0.89791 0.22574 0.0
H1969 H 0.68348 0.93631 0.18864 0.0
H1970 H 0.65883 0.91012 0.26959 0.0
H1971 H 0.67739 0.91486 0.27331 0.0
H1972 H 0.66455 0.89745 0.26109 0.0
H1973 H 0.6752 0.95647 0.22432 0.0
H1974 H 0.68623 0.9584 0.20196 0.0
H1975 H 0.6941 0.96225 0.22747 0.0
C1976 C 0.06015 0.70578 0.28533 0.0
C1977 C 0.05188 0.70822 0.30011 0.0
C1978 C 0.06717 0.71573 0.26915 0.0
C1979 C 0.0661 0.72856 0.26792 0.0
C1980 C 0.05775 0.73108 0.28277 0.0
C1981 C 0.05064 0.72082 0.29858 0.0
C1982 C 0.07575 0.71252 0.25337 0.0
C1983 C 0.05648 0.74472 0.2821 0.0
C1984 C 0.0951 0.76119 0.2373 0.0
C1985 C 0.08759 0.75976 0.21892 0.0
C1986 C 0.08823 0.75112 0.25343 0.0
C1987 C 0.07358 0.73928 0.25097 0.0
C1988 C 0.06601 0.73772 0.23235 0.0
C1989 C 0.07309 0.748 0.21659 0.0
C1990 C 0.09659 0.75323 0.27315 0.0
C1991 C 0.05046 0.72514 0.22904 0.0
H1992 H 0.06109 0.69602 0.28635 0.0
H1993 H 0.04437 0.72287 0.31003 0.0
H1994 H 0.07141 0.71202 0.23767 0.0
H1995 H 0.0874 0.72159 0.25349 0.0
H1996 H 0.07528 0.70191 0.25629 0.0
H1997 H 0.04972 0.74514 0.29496 0.0
H1998 H 0.06755 0.75481 0.28294 0.0
H1999 H 0.05151 0.74502 0.26727 0.0
H2000 H 0.10627 0.77031 0.23917 0.0
H2001 H 0.06733 0.74672 0.20226 0.0
H2002 H 0.0973 0.74326 0.27612 0.0
H2003 H 0.09068 0.7546 0.28639 0.0
H2004 H 0.10788 0.76303 0.27264 0.0
H2005 H 0.04987 0.71438 0.23079 0.0
H2006 H 0.0462 0.72538 0.21353 0.0
H2007 H 0.04315 0.72567 0.2409 0.0
C2008 C 0.28492 0.33756 0.28823 0.0
C2009 C 0.29304 0.35115 0.29879 0.0
C2010 C 0.276 0.33604 0.27131 0.0
C2011 C 0.27508 0.34836 0.26499 0.0
C2012 C 0.28322 0.36207 0.2756 0.0
C2013 C 0.29213 0.36331 0.29225 0.0
C2014 C 0.2676 0.3213 0.26018 0.0
C2015 C 0.28248 0.37546 0.26943 0.0
C2016 C 0.26406 0.35212 0.21097 0.0
C2017 C 0.24966 0.34893 0.21407 0.0
C2018 C 0.27221 0.3512 0.22719 0.0
C2019 C 0.26585 0.34718 0.24707 0.0
C2020 C 0.25112 0.34345 0.25013 0.0
C2021 C 0.24316 0.34428 0.23352 0.0
C2022 C 0.28779 0.35506 0.22321 0.0
C2023 C 0.24401 0.33923 0.27113 0.0
H2024 H 0.28556 0.3281 0.29313 0.0
H2025 H 0.29825 0.37385 0.30032 0.0
H2026 H 0.25568 0.31719 0.26074 0.0
H2027 H 0.27083 0.32261 0.24367 0.0
H2028 H 0.26954 0.31281 0.26696 0.0
H2029 H 0.28927 0.38524 0.27956 0.0
H2030 H 0.28632 0.37846 0.25329 0.0
H2031 H 0.27097 0.37288 0.27005 0.0
H2032 H 0.269 0.35544 0.19581 0.0
H2033 H 0.23202 0.3418 0.23592 0.0
H2034 H 0.28957 0.34629 0.22919 0.0
H2035 H 0.29548 0.3655 0.23152 0.0
H2036 H 0.2906 0.35653 0.20652 0.0
H2037 H 0.24528 0.33029 0.27772 0.0
H2038 H 0.23215 0.33546 0.27058 0.0
H2039 H 0.24953 0.34892 0.2818 0.0
C2040 C 0.28423 0.35495 0.40506 0.0
C2041 C 0.2862 0.34374 0.39657 0.0
C2042 C 0.27458 0.35214 0.42152 0.0
C2043 C 0.26668 0.33775 0.42986 0.0
C2044 C 0.26828 0.32625 0.42108 0.0
C2045 C 0.278 0.32937 0.40447 0.0
C2046 C 0.27314 0.36471 0.43038 0.0
C2047 C 0.26004 0.31079 0.4296 0.0
C2048 C 0.25649 0.33814 0.48582 0.0
C2049 C 0.24208 0.33516 0.48417 0.0
C2050 C 0.26435 0.33819 0.46834 0.0
C2051 C 0.25763 0.33521 0.44867 0.0
C2052 C 0.24281 0.33143 0.44701 0.0
C2053 C 0.23518 0.33142 0.46483 0.0
C2054 C 0.28008 0.34216 0.47082 0.0
C2055 C 0.23529 0.32819 0.4263 0.0
H2056 H 0.29036 0.36606 0.39894 0.0
H2057 H 0.27942 0.32063 0.39801 0.0
H2058 H 0.26146 0.36156 0.43073 0.0
H2059 H 0.2772 0.36706 0.44653 0.0
H2060 H 0.27942 0.37503 0.42138 0.0
H2061 H 0.26158 0.30284 0.42003 0.0
H2062 H 0.2639 0.31088 0.4455 0.0
H2063 H 0.24815 0.30678 0.43058 0.0
H2064 H 0.26175 0.34074 0.50083 0.0
H2065 H 0.22403 0.32911 0.46352 0.0
H2066 H 0.28748 0.35307 0.46373 0.0
H2067 H 0.28194 0.3339 0.4627 0.0
H2068 H 0.28321 0.34276 0.48729 0.0
H2069 H 0.24011 0.33852 0.41727 0.0
H2070 H 0.22331 0.32369 0.42786 0.0
H2071 H 0.23702 0.32015 0.41734 0.0
C2072 C 0.66247 0.94684 0.3936 0.0
C2073 C 0.67594 0.9602 0.39219 0.0
C2074 C 0.66004 0.93651 0.40893 0.0
C2075 C 0.67131 0.9397 0.42327 0.0
C2076 C 0.68471 0.9534 0.4224 0.0
C2077 C 0.68688 0.96345 0.40685 0.0
C2078 C 0.64563 0.922 0.40938 0.0
C2079 C 0.69693 0.95731 0.43759 0.0
C2080 C 0.66414 0.91956 0.474 0.0
C2081 C 0.66971 0.91024 0.4699 0.0
C2082 C 0.66396 0.92875 0.45869 0.0
C2083 C 0.66945 0.92858 0.43878 0.0
C2084 C 0.6744 0.91865 0.43425 0.0
C2085 C 0.67454 0.90965 0.4499 0.0
C2086 C 0.65866 0.93922 0.46416 0.0
C2087 C 0.68018 0.91802 0.41313 0.0
H2088 H 0.65397 0.94421 0.38232 0.0
H2089 H 0.69727 0.9738 0.40602 0.0
H2090 H 0.64752 0.91275 0.40595 0.0
H2091 H 0.64067 0.92012 0.42499 0.0
H2092 H 0.63767 0.92158 0.39797 0.0
H2093 H 0.70639 0.96872 0.43544 0.0
H2094 H 0.69284 0.95636 0.45363 0.0
H2095 H 0.70086 0.94942 0.43578 0.0
H2096 H 0.66056 0.9202 0.4895 0.0
H2097 H 0.67871 0.90235 0.44662 0.0
H2098 H 0.65076 0.93849 0.45243 0.0
H2099 H 0.66808 0.95077 0.46424 0.0
H2100 H 0.65332 0.9369 0.47957 0.0
H2101 H 0.67225 0.91671 0.40102 0.0
H2102 H 0.68232 0.90877 0.41157 0.0
H2103 H 0.69055 0.92857 0.4102 0.0
C2104 C 0.05529 0.70389 0.41689 0.0
C2105 C 0.05146 0.70915 0.39976 0.0
C2106 C 0.06356 0.71346 0.43309 0.0
C2107 C 0.06851 0.72874 0.43179 0.0
C2108 C 0.06436 0.73405 0.41474 0.0
C2109 C 0.05567 0.72411 0.39901 0.0
C2110 C 0.06738 0.70727 0.45131 0.0
C2111 C 0.06969 0.75031 0.41262 0.0
C2112 C 0.08263 0.75101 0.4816 0.0
C2113 C 0.09756 0.75576 0.48047 0.0
C2114 C 0.07304 0.74257 0.46554 0.0
C2115 C 0.07866 0.73913 0.44782 0.0
C2116 C 0.0939 0.74457 0.44624 0.0
C2117 C 0.10316 0.75265 0.46277 0.0
C2118 C 0.05684 0.73669 0.46804 0.0
C2119 C 0.10036 0.74142 0.42739 0.0
H2120 H 0.05193 0.69228 0.4175 0.0
H2121 H 0.05282 0.72818 0.38563 0.0
H2122 H 0.07935 0.71163 0.4515 0.0
H2123 H 0.06456 0.71083 0.46596 0.0
H2124 H 0.06156 0.69498 0.45083 0.0
H2125 H 0.06469 0.75251 0.39918 0.0
H2126 H 0.06719 0.75464 0.4268 0.0
H2127 H 0.08179 0.75659 0.4107 0.0
H2128 H 0.07836 0.75336 0.49547 0.0
H2129 H 0.11475 0.75639 0.46202 0.0
H2130 H 0.05092 0.72445 0.46933 0.0
H2131 H 0.05243 0.73926 0.45429 0.0
H2132 H 0.0544 0.74133 0.48198 0.0
H2133 H 0.09657 0.72945 0.42655 0.0
H2134 H 0.11254 0.74779 0.42761 0.0
H2135 H 0.09655 0.74417 0.41316 0.0
C2136 C 0.3134 0.03998 0.74403 0.0
C2137 C 0.32496 0.0448 0.72987 0.0
C2138 C 0.31458 0.04859 0.76146 0.0
C2139 C 0.32752 0.06249 0.76459 0.0
C2140 C 0.33928 0.0674 0.7504 0.0
C2141 C 0.33792 0.05841 0.73331 0.0
C2142 C 0.30192 0.04282 0.77648 0.0
C2143 C 0.35314 0.08228 0.75305 0.0
C2144 C 0.32299 0.08942 0.79893 0.0
C2145 C 0.32866 0.0881 0.81768 0.0
C2146 C 0.32306 0.08156 0.78128 0.0
C2147 C 0.32861 0.0719 0.78262 0.0
C2148 C 0.33449 0.07067 0.80151 0.0
C2149 C 0.33458 0.07891 0.81878 0.0
C2150 C 0.31696 0.08337 0.7613 0.0
C2151 C 0.34023 0.06027 0.80367 0.0
H2152 H 0.30341 0.02941 0.74155 0.0
H2153 H 0.34684 0.06223 0.72231 0.0
H2154 H 0.30576 0.04259 0.79227 0.0
H2155 H 0.29748 0.05033 0.77698 0.0
H2156 H 0.29289 0.0315 0.77228 0.0
H2157 H 0.3613 0.08443 0.74072 0.0
H2158 H 0.35048 0.09119 0.75286 0.0
H2159 H 0.35822 0.08296 0.76823 0.0
H2160 H 0.31851 0.09662 0.7981 0.0
H2161 H 0.33883 0.07781 0.83338 0.0
H2162 H 0.30697 0.07278 0.75692 0.0
H2163 H 0.32505 0.08621 0.74867 0.0
H2164 H 0.31408 0.09212 0.76246 0.0
H2165 H 0.33121 0.0487 0.80088 0.0
H2166 H 0.34491 0.061 0.81922 0.0
H2167 H 0.34882 0.06275 0.79193 0.0
C2168 C 0.9566 0.28754 0.73813 0.0
C2169 C 0.94867 0.29346 0.72949 0.0
C2170 C 0.95061 0.27716 0.75407 0.0
C2171 C 0.93628 0.27243 0.76128 0.0
C2172 C 0.92819 0.27828 0.75252 0.0
C2173 C 0.93452 0.2888 0.73687 0.0
C2174 C 0.95966 0.27135 0.76329 0.0
C2175 C 0.9128 0.27337 0.75963 0.0
C2176 C 0.91491 0.23622 0.79026 0.0
C2177 C 0.91605 0.24135 0.81064 0.0
C2178 C 0.92159 0.24621 0.774 0.0
C2179 C 0.9298 0.26163 0.77835 0.0
C2180 C 0.93131 0.26679 0.799 0.0
C2181 C 0.92433 0.25659 0.81487 0.0
C2182 C 0.91958 0.24031 0.75213 0.0
C2183 C 0.94016 0.28311 0.80432 0.0
H2184 H 0.96755 0.29111 0.73256 0.0
H2185 H 0.92824 0.29319 0.73015 0.0
H2186 H 0.96116 0.27394 0.78008 0.0
H2187 H 0.95385 0.25913 0.76155 0.0
H2188 H 0.97063 0.27616 0.75596 0.0
H2189 H 0.90781 0.27865 0.75079 0.0
H2190 H 0.90572 0.26117 0.75795 0.0
H2191 H 0.91288 0.27616 0.77623 0.0
H2192 H 0.90848 0.22443 0.787 0.0
H2193 H 0.9254 0.26053 0.83069 0.0
H2194 H 0.9304 0.24431 0.74473 0.0
H2195 H 0.91374 0.24452 0.74294 0.0
H2196 H 0.91323 0.22801 0.75141 0.0
H2197 H 0.95142 0.28803 0.79797 0.0
H2198 H 0.94092 0.28524 0.82125 0.0
H2199 H 0.93509 0.28892 0.79717 0.0
C2200 C 0.732 0.68022 0.72939 0.0
C2201 C 0.71763 0.66853 0.73261 0.0
C2202 C 0.74252 0.68506 0.74516 0.0
C2203 C 0.7384 0.67838 0.76478 0.0
C2204 C 0.72371 0.66698 0.76833 0.0
C2205 C 0.71356 0.66199 0.75205 0.0
C2206 C 0.75817 0.69687 0.74056 0.0
C2207 C 0.71877 0.6599 0.78922 0.0
C2208 C 0.76608 0.67776 0.80073 0.0
C2209 C 0.76918 0.68939 0.81466 0.0
C2210 C 0.7566 0.67452 0.78394 0.0
C2211 C 0.74956 0.68272 0.78133 0.0
C2212 C 0.75276 0.6946 0.79502 0.0
C2213 C 0.76273 0.69797 0.81125 0.0
C2214 C 0.75381 0.66202 0.76931 0.0
C2215 C 0.74524 0.70341 0.79299 0.0
H2216 H 0.73516 0.68517 0.71426 0.0
H2217 H 0.7024 0.65301 0.75454 0.0
H2218 H 0.76204 0.70617 0.75183 0.0
H2219 H 0.7654 0.69221 0.74214 0.0
H2220 H 0.75947 0.70132 0.72474 0.0
H2221 H 0.70672 0.65215 0.78991 0.0
H2222 H 0.72429 0.65368 0.79285 0.0
H2223 H 0.72192 0.66855 0.80139 0.0
H2224 H 0.77066 0.6708 0.80323 0.0
H2225 H 0.76525 0.70722 0.82147 0.0
H2226 H 0.7552 0.66575 0.75308 0.0
H2227 H 0.74235 0.65274 0.77105 0.0
H2228 H 0.76129 0.65779 0.77217 0.0
H2229 H 0.74712 0.70825 0.77739 0.0
H2230 H 0.74913 0.71249 0.80467 0.0
H2231 H 0.73323 0.69596 0.79485 0.0
C2232 C 0.71656 0.66778 0.61533 0.0
C2233 C 0.71878 0.66244 0.63376 0.0
C2234 C 0.72424 0.66826 0.59734 0.0
C2235 C 0.73475 0.6638 0.5981 0.0
C2236 C 0.73764 0.65926 0.61706 0.0
C2237 C 0.72938 0.65833 0.63458 0.0
C2238 C 0.72052 0.67272 0.57731 0.0
C2239 C 0.74913 0.65495 0.61871 0.0
C2240 C 0.74225 0.64804 0.54968 0.0
C2241 C 0.75484 0.66043 0.54169 0.0
C2242 C 0.73552 0.64909 0.56779 0.0
C2243 C 0.74183 0.66271 0.57879 0.0
C2244 C 0.75479 0.67514 0.57133 0.0
C2245 C 0.76099 0.67393 0.55269 0.0
C2246 C 0.72153 0.63562 0.57502 0.0
C2247 C 0.7621 0.68972 0.583 0.0
H2248 H 0.70825 0.67082 0.61474 0.0
H2249 H 0.73113 0.65429 0.64894 0.0
H2250 H 0.73057 0.68166 0.56993 0.0
H2251 H 0.71563 0.66312 0.56643 0.0
H2252 H 0.71263 0.67658 0.57953 0.0
H2253 H 0.75132 0.65352 0.63499 0.0
H2254 H 0.74543 0.64438 0.61022 0.0
H2255 H 0.75954 0.66348 0.61153 0.0
H2256 H 0.73758 0.63742 0.54181 0.0
H2257 H 0.77056 0.68367 0.54667 0.0
H2258 H 0.71278 0.63833 0.57694 0.0
H2259 H 0.72329 0.63217 0.59029 0.0
H2260 H 0.7176 0.6261 0.56408 0.0
H2261 H 0.75474 0.69428 0.58356 0.0
H2262 H 0.77265 0.69804 0.57584 0.0
H2263 H 0.76423 0.68803 0.59918 0.0
C2264 C 0.31846 0.04739 0.61617 0.0
C2265 C 0.32894 0.04888 0.63059 0.0
C2266 C 0.32202 0.05805 0.60092 0.0
C2267 C 0.33636 0.07062 0.6002 0.0
C2268 C 0.347 0.07219 0.61467 0.0
C2269 C 0.34319 0.06126 0.6296 0.0
C2270 C 0.31044 0.05587 0.58556 0.0
C2271 C 0.36238 0.08548 0.61447 0.0
C2272 C 0.34933 0.09127 0.54969 0.0
C2273 C 0.34695 0.10308 0.55305 0.0
C2274 C 0.346 0.08068 0.56493 0.0
C2275 C 0.34026 0.08199 0.5841 0.0
C2276 C 0.338 0.09399 0.5877 0.0
C2277 C 0.34128 0.10435 0.57205 0.0
C2278 C 0.34838 0.06796 0.56038 0.0
C2279 C 0.33207 0.09584 0.60805 0.0
H2280 H 0.30744 0.03784 0.61673 0.0
H2281 H 0.35134 0.06257 0.64075 0.0
H2282 H 0.30851 0.06527 0.58667 0.0
H2283 H 0.31425 0.0557 0.56962 0.0
H2284 H 0.29985 0.04542 0.58807 0.0
H2285 H 0.36931 0.08514 0.62694 0.0
H2286 H 0.36768 0.08608 0.5994 0.0
H2287 H 0.36202 0.09578 0.61631 0.0
H2288 H 0.35348 0.09011 0.53488 0.0
H2289 H 0.3395 0.1135 0.5747 0.0
H2290 H 0.33781 0.05731 0.56146 0.0
H2291 H 0.35588 0.06774 0.57201 0.0
H2292 H 0.35309 0.06865 0.54478 0.0
H2293 H 0.32096 0.08614 0.61073 0.0
H2294 H 0.33138 0.10603 0.60863 0.0
H2295 H 0.33916 0.09633 0.62089 0.0
C2296 C 0.9295 0.28542 0.63132 0.0
C2297 C 0.94476 0.29198 0.63274 0.0
C2298 C 0.92171 0.27616 0.61461 0.0
C2299 C 0.9294 0.27366 0.59868 0.0
C2300 C 0.94477 0.27997 0.60024 0.0
C2301 C 0.95228 0.28895 0.61743 0.0
C2302 C 0.90527 0.26937 0.61375 0.0
C2303 C 0.95336 0.27773 0.58338 0.0
C2304 C 0.90698 0.24181 0.56124 0.0
C2305 C 0.90445 0.24909 0.54532 0.0
C2306 C 0.91527 0.24968 0.57864 0.0
C2307 C 0.92137 0.26521 0.57987 0.0
C2308 C 0.91911 0.27263 0.56356 0.0
C2309 C 0.91055 0.26444 0.54656 0.0
C2310 C 0.91722 0.24137 0.5959 0.0
C2311 C 0.92562 0.2892 0.56415 0.0
H2312 H 0.92363 0.28758 0.64329 0.0
H2313 H 0.96408 0.29405 0.61849 0.0
H2314 H 0.90237 0.27405 0.60066 0.0
H2315 H 0.8998 0.25724 0.61105 0.0
H2316 H 0.90083 0.27142 0.62818 0.0
H2317 H 0.9651 0.28266 0.58749 0.0
H2318 H 0.9486 0.26576 0.58005 0.0
H2319 H 0.95265 0.28289 0.56896 0.0
H2320 H 0.90223 0.22991 0.56023 0.0
H2321 H 0.90876 0.27008 0.53407 0.0
H2322 H 0.91211 0.24258 0.61023 0.0
H2323 H 0.92904 0.2461 0.59918 0.0
H2324 H 0.91221 0.22938 0.59223 0.0
H2325 H 0.92084 0.29228 0.57719 0.0
H2326 H 0.9236 0.29337 0.54964 0.0
H2327 H 0.93763 0.2949 0.56678 0.0
C2328 C 0.3345 0.28618 0.61606 0.0
C2329 C 0.34827 0.29544 0.62517 0.0
C2330 C 0.33306 0.27768 0.59831 0.0
C2331 C 0.34567 0.27846 0.5895 0.0
C2332 C 0.35957 0.28776 0.59861 0.0
C2333 C 0.3607 0.29612 0.61627 0.0
C2334 C 0.31806 0.26788 0.58896 0.0
C2335 C 0.37329 0.2889 0.58968 0.0
C2336 C 0.34295 0.24787 0.55456 0.0
C2337 C 0.34508 0.25424 0.53503 0.0
C2338 C 0.34264 0.25544 0.57241 0.0
C2339 C 0.3445 0.2697 0.57065 0.0
C2340 C 0.3463 0.27603 0.55093 0.0
C2341 C 0.34657 0.26822 0.53336 0.0
C2342 C 0.34075 0.24836 0.59319 0.0
C2343 C 0.34829 0.29119 0.54843 0.0
H2344 H 0.32483 0.28556 0.62278 0.0
H2345 H 0.3714 0.30319 0.62312 0.0
H2346 H 0.31798 0.27112 0.57277 0.0
H2347 H 0.31538 0.2562 0.58858 0.0
H2348 H 0.30934 0.26849 0.59768 0.0
H2349 H 0.38326 0.29659 0.5987 0.0
H2350 H 0.37217 0.27782 0.58926 0.0
H2351 H 0.37487 0.29283 0.57354 0.0
H2352 H 0.34188 0.23711 0.55595 0.0
H2353 H 0.34794 0.27307 0.51827 0.0
H2354 H 0.33165 0.24827 0.60183 0.0
H2355 H 0.35087 0.25495 0.60247 0.0
H2356 H 0.33844 0.23682 0.5918 0.0
H2357 H 0.33918 0.2917 0.5561 0.0
H2358 H 0.3487 0.29417 0.53196 0.0
H2359 H 0.35862 0.29964 0.55602 0.0
C2360 C 0.71461 0.04899 0.61875 0.0
C2361 C 0.71951 0.04016 0.62749 0.0
C2362 C 0.7219 0.05806 0.60178 0.0
C2363 C 0.73444 0.0584 0.59351 0.0
C2364 C 0.73933 0.0494 0.6021 0.0
C2365 C 0.73178 0.04037 0.61886 0.0
C2366 C 0.71628 0.06737 0.59282 0.0
C2367 C 0.75269 0.04948 0.59377 0.0
C2368 C 0.74815 0.07117 0.53916 0.0
C2369 C 0.76017 0.08543 0.5428 0.0
C2370 C 0.73927 0.06248 0.55544 0.0
C2371 C 0.74261 0.06814 0.5759 0.0
C2372 C 0.75451 0.0827 0.57961 0.0
C2373 C 0.76311 0.09122 0.56297 0.0
C2374 C 0.72657 0.0471 0.55081 0.0
C2375 C 0.7585 0.08907 0.60123 0.0
H2376 H 0.70514 0.0489 0.62523 0.0
H2377 H 0.73572 0.03364 0.62545 0.0
H2378 H 0.72477 0.07927 0.59431 0.0
H2379 H 0.714 0.06484 0.57611 0.0
H2380 H 0.70612 0.0655 0.60059 0.0
H2381 H 0.75507 0.04184 0.60223 0.0
H2382 H 0.7511 0.04619 0.57721 0.0
H2383 H 0.76242 0.06083 0.59488 0.0
H2384 H 0.74569 0.06678 0.5235 0.0
H2385 H 0.77241 0.10224 0.5658 0.0
H2386 H 0.71638 0.04556 0.55802 0.0
H2387 H 0.72872 0.03877 0.55753 0.0
H2388 H 0.72468 0.04484 0.53396 0.0
H2389 H 0.74879 0.08818 0.60914 0.0
H2390 H 0.76746 0.10087 0.60138 0.0
H2391 H 0.76207 0.08262 0.61031 0.0
C2392 C 0.94511 0.68587 0.62912 0.0
C2393 C 0.9523 0.6779 0.631 0.0
C2394 C 0.935 0.68265 0.61316 0.0
C2395 C 0.93234 0.67148 0.59839 0.0
C2396 C 0.9397 0.66351 0.60009 0.0
C2397 C 0.94944 0.66668 0.61655 0.0
C2398 C 0.92711 0.69115 0.61215 0.0
C2399 C 0.93745 0.6518 0.58434 0.0
C2400 C 0.89777 0.65443 0.5655 0.0
C2401 C 0.90299 0.66287 0.5476 0.0
C2402 C 0.90717 0.65722 0.58232 0.0
C2403 C 0.92216 0.66843 0.58085 0.0
C2404 C 0.92747 0.6768 0.56258 0.0
C2405 C 0.91776 0.67403 0.54627 0.0
C2406 C 0.90104 0.6483 0.60171 0.0
C2407 C 0.94343 0.68858 0.56019 0.0
H2408 H 0.94716 0.69444 0.6404 0.0
H2409 H 0.95504 0.66055 0.6179 0.0
H2410 H 0.92996 0.69748 0.59761 0.0
H2411 H 0.91508 0.68335 0.61205 0.0
H2412 H 0.92992 0.69901 0.62535 0.0
H2413 H 0.94413 0.64672 0.58776 0.0
H2414 H 0.92573 0.64292 0.58383 0.0
H2415 H 0.94042 0.65672 0.56875 0.0
H2416 H 0.88631 0.6458 0.56642 0.0
H2417 H 0.92174 0.68042 0.53226 0.0
H2418 H 0.90309 0.65582 0.6151 0.0
H2419 H 0.90668 0.64213 0.60491 0.0
H2420 H 0.88907 0.64026 0.60056 0.0
H2421 H 0.94656 0.69738 0.57211 0.0
H2422 H 0.94586 0.69376 0.54474 0.0
H2423 H 0.95041 0.68372 0.56255 0.0
C2424 C 0.95777 0.68198 0.74717 0.0
C2425 C 0.95302 0.67298 0.72941 0.0
C2426 C 0.9481 0.67961 0.76347 0.0
C2427 C 0.9332 0.66823 0.7617 0.0
C2428 C 0.92844 0.6588 0.74406 0.0
C2429 C 0.93848 0.66118 0.72818 0.0
C2430 C 0.95372 0.68967 0.78227 0.0
C2431 C 0.91259 0.64674 0.74144 0.0
C2432 C 0.91128 0.65855 0.81149 0.0
C2433 C 0.90595 0.66825 0.81095 0.0
C2434 C 0.9197 0.65792 0.79513 0.0
C2435 C 0.92256 0.66701 0.77774 0.0
C2436 C 0.9164 0.67615 0.77665 0.0
C2437 C 0.90832 0.6768 0.79342 0.0
C2438 C 0.92631 0.64826 0.79706 0.0
C2439 C 0.91892 0.68577 0.75819 0.0
H2440 H 0.96905 0.69103 0.74819 0.0
H2441 H 0.93478 0.65429 0.71435 0.0
H2442 H 0.94875 0.69671 0.78298 0.0
H2443 H 0.9505 0.68302 0.79655 0.0
H2444 H 0.96584 0.697 0.78211 0.0
H2445 H 0.91092 0.63956 0.72775 0.0
H2446 H 0.90861 0.63974 0.75537 0.0
H2447 H 0.90575 0.65182 0.73961 0.0
H2448 H 0.90954 0.65206 0.8252 0.0
H2449 H 0.90413 0.68427 0.79307 0.0
H2450 H 0.93835 0.65537 0.79907 0.0
H2451 H 0.92437 0.64154 0.78281 0.0
H2452 H 0.92177 0.64072 0.81043 0.0
H2453 H 0.93058 0.69479 0.75772 0.0
H2454 H 0.91196 0.69082 0.75866 0.0
H2455 H 0.9166 0.6792 0.74368 0.0
C2456 C 0.33 0.27903 0.72506 0.0
C2457 C 0.34415 0.2916 0.72447 0.0
C2458 C 0.32616 0.26808 0.73996 0.0
C2459 C 0.33666 0.26983 0.75481 0.0
C2460 C 0.35087 0.28259 0.75452 0.0
C2461 C 0.35447 0.29328 0.7393 0.0
C2462 C 0.31092 0.25456 0.73969 0.0
C2463 C 0.36229 0.28497 0.77031 0.0
C2464 C 0.32333 0.24881 0.80501 0.0
C2465 C 0.32614 0.23729 0.80182 0.0
C2466 C 0.3266 0.25941 0.7898 0.0
C2467 C 0.33274 0.25839 0.77083 0.0
C2468 C 0.33543 0.24666 0.76738 0.0
C2469 C 0.33219 0.2363 0.78299 0.0
C2470 C 0.32375 0.27184 0.79418 0.0
C2471 C 0.34181 0.24513 0.74724 0.0
H2472 H 0.32197 0.27758 0.7136 0.0
H2473 H 0.3654 0.30299 0.73905 0.0
H2474 H 0.31158 0.24442 0.73788 0.0
H2475 H 0.30534 0.25371 0.75459 0.0
H2476 H 0.30409 0.25481 0.727 0.0
H2477 H 0.37277 0.29559 0.76814 0.0
H2478 H 0.35814 0.2849 0.7861 0.0
H2479 H 0.36453 0.27578 0.76932 0.0
H2480 H 0.31888 0.24976 0.81968 0.0
H2481 H 0.33431 0.22736 0.78046 0.0
H2482 H 0.31636 0.27193 0.78227 0.0
H2483 H 0.33419 0.28264 0.79346 0.0
H2484 H 0.31871 0.27091 0.8096 0.0
H2485 H 0.33484 0.24456 0.73417 0.0
H2486 H 0.34277 0.23511 0.74673 0.0
H2487 H 0.35285 0.25501 0.7449 0.0
C2488 C 0.73667 0.05235 0.73101 0.0
C2489 C 0.72266 0.04922 0.72522 0.0
C2490 C 0.74415 0.06192 0.74758 0.0
C2491 C 0.73745 0.06853 0.75877 0.0
C2492 C 0.72361 0.06601 0.75245 0.0
C2493 C 0.71636 0.05639 0.73568 0.0
C2494 C 0.75895 0.0644 0.7537 0.0
C2495 C 0.71618 0.07293 0.76397 0.0
C2496 C 0.75001 0.0759 0.8143 0.0
C2497 C 0.7613 0.09078 0.81376 0.0
C2498 C 0.74153 0.06879 0.79678 0.0
C2499 C 0.74439 0.07675 0.77823 0.0
C2500 C 0.75516 0.09203 0.77792 0.0
C2501 C 0.76353 0.09889 0.79574 0.0
C2502 C 0.7301 0.0525 0.79782 0.0
C2503 C 0.75844 0.10091 0.75847 0.0
H2504 H 0.74174 0.04708 0.72281 0.0
H2505 H 0.70556 0.05407 0.73125 0.0
H2506 H 0.76709 0.07642 0.75501 0.0
H2507 H 0.75813 0.0595 0.76905 0.0
H2508 H 0.76312 0.05935 0.74245 0.0
H2509 H 0.70644 0.07148 0.75557 0.0
H2510 H 0.71257 0.06776 0.77934 0.0
H2511 H 0.72394 0.08493 0.76662 0.0
H2512 H 0.74802 0.0697 0.82838 0.0
H2513 H 0.77223 0.11041 0.79529 0.0
H2514 H 0.73366 0.04607 0.78826 0.0
H2515 H 0.71952 0.05037 0.79147 0.0
H2516 H 0.72826 0.0483 0.81385 0.0
H2517 H 0.76424 0.09757 0.74735 0.0
H2518 H 0.76543 0.113 0.76154 0.0
H2519 H 0.74813 0.09867 0.75098 0.0
C2520 C 0.04917 0.36907 0.02982 0.0
C2521 C 0.03497 0.35802 0.0355 0.0
C2522 C 0.06151 0.36873 0.03674 0.0
C2523 C 0.05955 0.35705 0.04953 0.0
C2524 C 0.04522 0.34591 0.05532 0.0
C2525 C 0.03314 0.34656 0.04828 0.0
C2526 C 0.07663 0.38084 0.03039 0.0
C2527 C 0.04264 0.33326 0.06893 0.0
C2528 C 0.0879 0.34567 0.05554 0.0
C2529 C 0.0932 0.35099 0.07552 0.0
C2530 C 0.07749 0.34824 0.04635 0.0
C2531 C 0.07236 0.35644 0.05732 0.0
C2532 C 0.07837 0.36266 0.07689 0.0
C2533 C 0.08862 0.35978 0.08579 0.0
C2534 C 0.07134 0.34142 0.02545 0.0
C2535 C 0.07327 0.37155 0.08905 0.0
H2536 H 0.05066 0.37794 0.01992 0.0
H2537 H 0.0222 0.33796 0.0527 0.0
H2538 H 0.08328 0.38659 0.0443 0.0
H2539 H 0.08233 0.37599 0.02194 0.0
H2540 H 0.0763 0.38915 0.0204 0.0
H2541 H 0.0308 0.32539 0.07179 0.0
H2542 H 0.04743 0.32708 0.06167 0.0
H2543 H 0.04818 0.33762 0.08402 0.0
H2544 H 0.09154 0.33909 0.04732 0.0
H2545 H 0.09241 0.36377 0.10135 0.0
H2546 H 0.07142 0.34975 0.01507 0.0
H2547 H 0.05975 0.33238 0.02717 0.0
H2548 H 0.07757 0.33677 0.01798 0.0
H2549 H 0.07316 0.38 0.07916 0.0
H2550 H 0.08033 0.3772 0.10269 0.0
H2551 H 0.06189 0.3641 0.09451 0.0
C2552 C 0.6707 0.68915 0.05574 0.0
C2553 C 0.659 0.68243 0.04173 0.0
C2554 C 0.67415 0.70236 0.06613 0.0
C2555 C 0.66565 0.70895 0.06245 0.0
C2556 C 0.6538 0.70218 0.04836 0.0
C2557 C 0.65063 0.68902 0.03816 0.0
C2558 C 0.68687 0.70926 0.08105 0.0
C2559 C 0.64444 0.70883 0.04412 0.0
C2560 C 0.66495 0.73483 0.10322 0.0
C2561 C 0.67453 0.7488 0.09486 0.0
C2562 C 0.66202 0.7218 0.09288 0.0
C2563 C 0.6689 0.72273 0.07371 0.0
C2564 C 0.67866 0.73678 0.06521 0.0
C2565 C 0.68137 0.74966 0.0759 0.0
C2566 C 0.65157 0.70703 0.10247 0.0
C2567 C 0.68618 0.73819 0.04478 0.0
H2568 H 0.67724 0.68413 0.0585 0.0
H2569 H 0.64158 0.68389 0.02733 0.0
H2570 H 0.69496 0.72071 0.07629 0.0
H2571 H 0.68296 0.70999 0.0967 0.0
H2572 H 0.69251 0.70285 0.08198 0.0
H2573 H 0.63573 0.70228 0.03255 0.0
H2574 H 0.63918 0.70951 0.05862 0.0
H2575 H 0.65138 0.72028 0.0384 0.0
H2576 H 0.65986 0.73407 0.11808 0.0
H2577 H 0.68871 0.76041 0.0693 0.0
H2578 H 0.65722 0.70077 0.10495 0.0
H2579 H 0.64225 0.7003 0.09187 0.0
H2580 H 0.64715 0.70823 0.1175 0.0
H2581 H 0.69261 0.73259 0.04545 0.0
H2582 H 0.69365 0.74992 0.04046 0.0
H2583 H 0.67786 0.7326 0.03242 0.0
C2584 C 0.31143 0.97511 0.04626 0.0
C2585 C 0.31926 0.97119 0.0327 0.0
C2586 C 0.29839 0.96425 0.05549 0.0
C2587 C 0.29315 0.9491 0.05126 0.0
C2588 C 0.30108 0.94507 0.03771 0.0
C2589 C 0.31401 0.95618 0.02846 0.0
C2590 C 0.29019 0.969 0.06974 0.0
C2591 C 0.29591 0.92903 0.03302 0.0
C2592 C 0.26693 0.92215 0.0909 0.0
C2593 C 0.25332 0.91791 0.08209 0.0
C2594 C 0.28002 0.93203 0.08079 0.0
C2595 C 0.27942 0.93753 0.06123 0.0
C2596 C 0.26566 0.9327 0.05186 0.0
C2597 C 0.25273 0.92309 0.06257 0.0
C2598 C 0.29446 0.93712 0.09146 0.0
C2599 C 0.26458 0.93812 0.03088 0.0
H2600 H 0.31542 0.9867 0.04949 0.0
H2601 H 0.32006 0.95311 0.01804 0.0
H2602 H 0.27891 0.96467 0.06385 0.0
H2603 H 0.28918 0.96428 0.08528 0.0
H2604 H 0.2957 0.98123 0.07132 0.0
H2605 H 0.30332 0.92774 0.02213 0.0
H2606 H 0.29521 0.9232 0.0475 0.0
H2607 H 0.28474 0.92346 0.02625 0.0
H2608 H 0.26731 0.91827 0.10617 0.0
H2609 H 0.24215 0.91979 0.05586 0.0
H2610 H 0.29989 0.94913 0.09511 0.0
H2611 H 0.30192 0.93552 0.08113 0.0
H2612 H 0.29306 0.9311 0.10604 0.0
H2613 H 0.26871 0.95016 0.03176 0.0
H2614 H 0.25314 0.93233 0.02499 0.0
H2615 H 0.27155 0.93649 0.01959 0.0
C2616 C 0.349 0.03304 0.97218 0.0
C2617 C 0.35793 0.03423 0.9888 0.0
C2618 C 0.34834 0.04528 0.96551 0.0
C2619 C 0.3568 0.05912 0.97574 0.0
C2620 C 0.36622 0.06056 0.99212 0.0
C2621 C 0.36669 0.04807 0.99847 0.0
C2622 C 0.33823 0.04326 0.94786 0.0
C2623 C 0.37543 0.07515 0.00333 0.0
C2624 C 0.35941 0.0905 0.94443 0.0
C2625 C 0.34726 0.09105 0.95188 0.0
C2626 C 0.36342 0.08094 0.95313 0.0
C2627 C 0.35508 0.07174 0.96965 0.0
C2628 C 0.34357 0.07314 0.97829 0.0
C2629 C 0.33979 0.08277 0.96928 0.0
C2630 C 0.37581 0.07983 0.94351 0.0
C2631 C 0.33447 0.06363 0.99602 0.0
H2632 H 0.34227 0.02242 0.96452 0.0
H2633 H 0.37361 0.04905 0.01134 0.0
H2634 H 0.32956 0.04539 0.95338 0.0
H2635 H 0.34442 0.05134 0.93555 0.0
H2636 H 0.33286 0.03192 0.94101 0.0
H2637 H 0.3831 0.07476 0.0145 0.0
H2638 H 0.38185 0.08409 0.99214 0.0
H2639 H 0.36819 0.07812 0.01184 0.0
H2640 H 0.36519 0.09679 0.9309 0.0
H2641 H 0.33052 0.08333 0.97527 0.0
H2642 H 0.37121 0.06947 0.93417 0.0
H2643 H 0.38288 0.07934 0.95558 0.0
H2644 H 0.38269 0.08932 0.93328 0.0
H2645 H 0.32743 0.05203 0.9905 0.0
H2646 H 0.3273 0.06745 0.00271 0.0
H2647 H 0.34162 0.06363 0.00838 0.0
C2648 C 0.97724 0.31661 0.97006 0.0
C2649 C 0.97386 0.3218 0.98806 0.0
C2650 C 0.96686 0.30311 0.96081 0.0
C2651 C 0.95282 0.29456 0.9699 0.0
C2652 C 0.94928 0.29986 0.98791 0.0
C2653 C 0.95983 0.31346 0.99672 0.0
C2654 C 0.97098 0.2979 0.94146 0.0
C2655 C 0.93446 0.29102 0.9981 0.0
C2656 C 0.92266 0.26532 0.9358 0.0
C2657 C 0.92302 0.25262 0.94095 0.0
C2658 C 0.93207 0.279 0.94545 0.0
C2659 C 0.94197 0.27995 0.96072 0.0
C2660 C 0.94198 0.26704 0.96656 0.0
C2661 C 0.93255 0.25353 0.95651 0.0
C2662 C 0.93182 0.29254 0.93869 0.0
C2663 C 0.95224 0.26758 0.983 0.0
H2664 H 0.98806 0.32304 0.96328 0.0
H2665 H 0.95716 0.31742 0.01067 0.0
H2666 H 0.97054 0.28733 0.94442 0.0
H2667 H 0.963 0.29573 0.92898 0.0
H2668 H 0.98215 0.3061 0.93591 0.0
H2669 H 0.93332 0.29685 0.01177 0.0
H2670 H 0.92564 0.28867 0.98693 0.0
H2671 H 0.93272 0.28019 0.0031 0.0
H2672 H 0.91545 0.26469 0.92357 0.0
H2673 H 0.93277 0.2437 0.96059 0.0
H2674 H 0.94244 0.30044 0.93135 0.0
H2675 H 0.93044 0.29828 0.95223 0.0
H2676 H 0.92287 0.28977 0.9275 0.0
H2677 H 0.96376 0.27452 0.97774 0.0
H2678 H 0.9502 0.25641 0.9867 0.0
H2679 H 0.95106 0.27278 0.99734 0.0
C2680 C 0.68333 0.65122 0.96599 0.0
C2681 C 0.6789 0.6454 0.98577 0.0
C2682 C 0.69607 0.65269 0.95705 0.0
C2683 C 0.70482 0.64873 0.9685 0.0
C2684 C 0.70012 0.64241 0.98825 0.0
C2685 C 0.68706 0.64061 0.99654 0.0
C2686 C 0.70048 0.65907 0.93568 0.0
C2687 C 0.70934 0.63845 0.00119 0.0
C2688 C 0.73521 0.64684 0.93986 0.0
C2689 C 0.74703 0.66146 0.94218 0.0
C2690 C 0.72144 0.64239 0.94864 0.0
C2691 C 0.71955 0.65265 0.96061 0.0
C2692 C 0.73161 0.6671 0.96409 0.0
C2693 C 0.74507 0.6714 0.95457 0.0
C2694 C 0.70876 0.62695 0.9443 0.0
C2695 C 0.73015 0.67828 0.97721 0.0
H2696 H 0.67694 0.65482 0.95761 0.0
H2697 H 0.68368 0.63621 0.01193 0.0
H2698 H 0.71033 0.67034 0.9367 0.0
H2699 H 0.7034 0.65219 0.92596 0.0
H2700 H 0.69162 0.65983 0.92788 0.0
H2701 H 0.70346 0.63226 0.01524 0.0
H2702 H 0.71272 0.63169 0.99209 0.0
H2703 H 0.7195 0.64874 0.00605 0.0
H2704 H 0.73658 0.63891 0.93078 0.0
H2705 H 0.75386 0.6828 0.95625 0.0
H2706 H 0.70041 0.62759 0.93491 0.0
H2707 H 0.70338 0.62139 0.9589 0.0
H2708 H 0.71223 0.62 0.93582 0.0
H2709 H 0.72303 0.68151 0.96925 0.0
H2710 H 0.74092 0.68844 0.9803 0.0
H2711 H 0.7249 0.67337 0.99219 0.0
C2712 C 0.9694 0.65817 0.9707 0.0
C2713 C 0.96734 0.64777 0.98563 0.0
C2714 C 0.95758 0.65908 0.96317 0.0
C2715 C 0.94329 0.64935 0.97075 0.0
C2716 C 0.94106 0.63866 0.98562 0.0
C2717 C 0.95314 0.63798 0.9929 0.0
C2718 C 0.96043 0.6706 0.94722 0.0
C2719 C 0.92597 0.62809 0.994 0.0
C2720 C 0.91758 0.66383 0.96288 0.0
C2721 C 0.91083 0.65692 0.94414 0.0
C2722 C 0.92753 0.66077 0.97245 0.0
C2723 C 0.93082 0.65059 0.96302 0.0
C2724 C 0.92339 0.64294 0.94477 0.0
C2725 C 0.9135 0.6462 0.93555 0.0
C2726 C 0.93515 0.66909 0.99199 0.0
C2727 C 0.92661 0.63202 0.93421 0.0
H2728 H 0.98034 0.66575 0.96496 0.0
H2729 H 0.95148 0.62993 0.00446 0.0
H2730 H 0.95382 0.66518 0.93317 0.0
H2731 H 0.95703 0.67829 0.95334 0.0
H2732 H 0.97217 0.67718 0.94272 0.0
H2733 H 0.92602 0.62019 0.00512 0.0
H2734 H 0.92153 0.6344 0.00188 0.0
H2735 H 0.91837 0.62172 0.98116 0.0
H2736 H 0.91541 0.67197 0.96974 0.0
H2737 H 0.90848 0.64093 0.92095 0.0
H2738 H 0.94687 0.6771 0.98862 0.0
H2739 H 0.9348 0.66136 0.00374 0.0
H2740 H 0.93016 0.67528 0.99863 0.0
H2741 H 0.93776 0.63806 0.92735 0.0
H2742 H 0.91862 0.62565 0.92173 0.0
H2743 H 0.92646 0.62413 0.94551 0.0
C2744 C 0.35774 0.31384 0.98614 0.0
C2745 C 0.34808 0.31902 0.9833 0.0
C2746 C 0.35573 0.30122 0.97552 0.0
C2747 C 0.34369 0.29352 0.96192 0.0
C2748 C 0.33398 0.29878 0.95883 0.0
C2749 C 0.33634 0.31154 0.96949 0.0
C2750 C 0.36643 0.29605 0.97898 0.0
C2751 C 0.32096 0.29081 0.94453 0.0
C2752 C 0.34418 0.26783 0.92065 0.0
C2753 C 0.33535 0.25388 0.92955 0.0
C2754 C 0.34722 0.28084 0.93118 0.0
C2755 C 0.34116 0.27988 0.95101 0.0
C2756 C 0.3324 0.26588 0.96023 0.0
C2757 C 0.32966 0.25305 0.94943 0.0
C2758 C 0.35669 0.29558 0.92091 0.0
C2759 C 0.32572 0.26444 0.98135 0.0
H2760 H 0.36686 0.31962 0.99675 0.0
H2761 H 0.32882 0.31548 0.9673 0.0
H2762 H 0.36061 0.28476 0.98552 0.0
H2763 H 0.37126 0.29539 0.96405 0.0
H2764 H 0.37546 0.30352 0.98963 0.0
H2765 H 0.31452 0.29641 0.94372 0.0
H2766 H 0.32469 0.2901 0.92874 0.0
H2767 H 0.31364 0.27931 0.94985 0.0
H2768 H 0.34841 0.26859 0.90516 0.0
H2769 H 0.32298 0.24233 0.95651 0.0
H2770 H 0.36595 0.30312 0.93116 0.0
H2771 H 0.35017 0.30091 0.91816 0.0
H2772 H 0.3612 0.29447 0.90591 0.0
H2773 H 0.33444 0.271 0.99287 0.0
H2774 H 0.31936 0.25276 0.98648 0.0
H2775 H 0.31832 0.26897 0.9812 0.0
C2776 C 0.68617 0.02522 0.97229 0.0
C2777 C 0.67901 0.02883 0.98746 0.0
C2778 C 0.69938 0.03619 0.96351 0.0
C2779 C 0.70551 0.05114 0.97 0.0
C2780 C 0.69819 0.05488 0.98504 0.0
C2781 C 0.68503 0.04367 0.99363 0.0
C2782 C 0.70688 0.03177 0.9475 0.0
C2783 C 0.70432 0.0707 0.99221 0.0
C2784 C 0.7464 0.07668 0.96128 0.0
C2785 C 0.74661 0.08358 0.94281 0.0
C2786 C 0.73309 0.06631 0.97053 0.0
C2787 C 0.71968 0.06281 0.96114 0.0
C2788 C 0.7198 0.07008 0.94289 0.0
C2789 C 0.73325 0.08032 0.9339 0.0
C2790 C 0.73339 0.05879 0.99003 0.0
C2791 C 0.70573 0.06669 0.93247 0.0
H2792 H 0.68158 0.01376 0.96749 0.0
H2793 H 0.67953 0.04654 0.00533 0.0
H2794 H 0.70839 0.03788 0.93301 0.0
H2795 H 0.71794 0.03479 0.95304 0.0
H2796 H 0.70058 0.01971 0.94395 0.0
H2797 H 0.6971 0.07181 0.00366 0.0
H2798 H 0.71526 0.07498 -0.00068 0.0
H2799 H 0.70585 0.07782 0.97884 0.0
H2800 H 0.75665 0.07925 0.96838 0.0
H2801 H 0.73327 0.08537 0.91944 0.0
H2802 H 0.72824 0.04671 0.98711 0.0
H2803 H 0.72691 0.06029 0.00232 0.0
H2804 H 0.74471 0.06315 0.9958 0.0
H2805 H 0.69976 0.05503 0.9269 0.0
H2806 H 0.70771 0.074 0.91913 0.0
H2807 H 0.69847 0.06797 0.94364 0.0
C2808 C 0.65551 0.96954 0.04861 0.0
C2809 C 0.64413 0.96718 0.03534 0.0
C2810 C 0.65645 0.95764 0.05617 0.0
C2811 C 0.64569 0.94298 0.05044 0.0
C2812 C 0.63402 0.94048 0.0373 0.0
C2813 C 0.6334 0.95263 0.02984 0.0
C2814 C 0.66909 0.96081 0.07012 0.0
C2815 C 0.62229 0.92499 0.03101 0.0
C2816 C 0.65859 0.91566 0.05639 0.0
C2817 C 0.65356 0.91028 0.07629 0.0
C2818 C 0.65539 0.92569 0.04723 0.0
C2819 C 0.64689 0.9304 0.0582 0.0
C2820 C 0.64096 0.92425 0.07768 0.0
C2821 C 0.6444 0.91431 0.08652 0.0
C2822 C 0.66189 0.93194 0.02639 0.0
C2823 C 0.63177 0.9289 0.08983 0.0
H2824 H 0.66386 0.98074 0.05292 0.0
H2825 H 0.62456 0.95073 0.0196 0.0
H2826 H 0.66488 0.95517 0.08509 0.0
H2827 H 0.6756 0.95636 0.063 0.0
H2828 H 0.6765 0.97284 0.07319 0.0
H2829 H 0.61373 0.92489 0.02116 0.0
H2830 H 0.62729 0.91949 0.02241 0.0
H2831 H 0.61696 0.9183 0.04493 0.0
H2832 H 0.66548 0.91243 0.04824 0.0
H2833 H 0.64058 0.91037 0.10199 0.0
H2834 H 0.67051 0.94379 0.02821 0.0
H2835 H 0.65338 0.93138 0.01597 0.0
H2836 H 0.66687 0.92599 0.01892 0.0
H2837 H 0.63884 0.94046 0.09552 0.0
H2838 H 0.62638 0.92169 0.10332 0.0
H2839 H 0.62321 0.92866 0.07987 0.0
C2840 C 0.04362 0.6891 0.02862 0.0
C2841 C 0.02884 0.68328 0.03382 0.0
C2842 C 0.05473 0.70185 0.03859 0.0
C2843 C 0.05093 0.70898 0.05399 0.0
C2844 C 0.03602 0.70314 0.05929 0.0
C2845 C 0.02516 0.69032 0.04919 0.0
C2846 C 0.07053 0.70767 0.03272 0.0
C2847 C 0.03153 0.71048 0.07557 0.0
C2848 C 0.07828 0.73392 0.09472 0.0
C2849 C 0.08253 0.74808 0.08744 0.0
C2850 C 0.06844 0.72112 0.08357 0.0
C2851 C 0.06251 0.72246 0.06483 0.0
C2852 C 0.06703 0.73668 0.05707 0.0
C2853 C 0.07705 0.74932 0.06841 0.0
C2854 C 0.06397 0.70614 0.09228 0.0
C2855 C 0.06089 0.73854 0.03715 0.0
H2856 H 0.04652 0.68367 0.01676 0.0
H2857 H 0.01374 0.68589 0.05323 0.0
H2858 H 0.07558 0.71919 0.02715 0.0
H2859 H 0.07684 0.70796 0.04646 0.0
H2860 H 0.07165 0.7008 0.02048 0.0
H2861 H 0.01945 0.70465 0.07767 0.0
H2862 H 0.03664 0.71078 0.09057 0.0
H2863 H 0.0355 0.72211 0.07128 0.0
H2864 H 0.08221 0.73278 0.10955 0.0
H2865 H 0.08043 0.76019 0.0625 0.0
H2866 H 0.06526 0.69918 0.08042 0.0
H2867 H 0.05222 0.70034 0.09669 0.0
H2868 H 0.07051 0.70701 0.10608 0.0
H2869 H 0.0625 0.73233 0.02444 0.0
H2870 H 0.06608 0.75034 0.03271 0.0
H2871 H 0.04891 0.73387 0.0388 0.0
C2872 C 0.32086 0.36331 0.04174 0.0
C2873 C 0.32175 0.35062 0.03839 0.0
C2874 C 0.30834 0.36231 0.05082 0.0
C2875 C 0.2963 0.34823 0.05603 0.0
C2876 C 0.29701 0.33535 0.05212 0.0
C2877 C 0.30983 0.33673 0.04364 0.0
C2878 C 0.30813 0.37632 0.05527 0.0
C2879 C 0.28426 0.32013 0.05696 0.0
C2880 C 0.2702 0.34594 0.09803 0.0
C2881 C 0.25884 0.34539 0.08649 0.0
C2882 C 0.28248 0.34695 0.08828 0.0
C2883 C 0.28322 0.34702 0.06645 0.0
C2884 C 0.27156 0.34607 0.05471 0.0
C2885 C 0.25957 0.34551 0.06492 0.0
C2886 C 0.29483 0.34829 0.10136 0.0
C2887 C 0.27178 0.34571 0.03141 0.0
H2888 H 0.3301 0.37406 0.03772 0.0
H2889 H 0.31044 0.32688 0.0408 0.0
H2890 H 0.29871 0.3759 0.04735 0.0
H2891 H 0.30668 0.37733 0.07208 0.0
H2892 H 0.31837 0.38639 0.05023 0.0
H2893 H 0.28622 0.31119 0.05171 0.0
H2894 H 0.28223 0.31911 0.07384 0.0
H2895 H 0.27415 0.31842 0.04946 0.0
H2896 H 0.26966 0.34608 0.11475 0.0
H2897 H 0.25076 0.34514 0.0561 0.0
H2898 H 0.30517 0.35869 0.09767 0.0
H2899 H 0.29661 0.33899 0.09786 0.0
H2900 H 0.29263 0.3483 0.11815 0.0
H2901 H 0.28114 0.3562 0.0256 0.0
H2902 H 0.26151 0.34414 0.02461 0.0
H2903 H 0.27337 0.3366 0.02587 0.0
C2904 C 0.71139 0.69921 0.3641 0.0
C2905 C 0.69706 0.68778 0.36843 0.0
C2906 C 0.72358 0.69885 0.37166 0.0
C2907 C 0.72134 0.68673 0.3837 0.0
C2908 C 0.70688 0.6752 0.38812 0.0
C2909 C 0.69495 0.67589 0.38049 0.0
C2910 C 0.73884 0.71139 0.36678 0.0
C2911 C 0.704 0.66205 0.40085 0.0
C2912 C 0.74984 0.67556 0.38991 0.0
C2913 C 0.75445 0.68006 0.41035 0.0
C2914 C 0.73964 0.67838 0.38058 0.0
C2915 C 0.73399 0.68597 0.3919 0.0
C2916 C 0.7393 0.69137 0.41204 0.0
C2917 C 0.74941 0.6883 0.42104 0.0
C2918 C 0.73426 0.67245 0.35906 0.0
C2919 C 0.73362 0.69958 0.4246 0.0
H2920 H 0.7131 0.70844 0.35479 0.0
H2921 H 0.68392 0.66699 0.38387 0.0
H2922 H 0.7449 0.71657 0.38131 0.0
H2923 H 0.745 0.70707 0.35828 0.0
H2924 H 0.73873 0.72006 0.35735 0.0
H2925 H 0.6921 0.65397 0.40277 0.0
H2926 H 0.70917 0.65629 0.39343 0.0
H2927 H 0.70899 0.66584 0.41638 0.0
H2928 H 0.75385 0.66941 0.3814 0.0
H2929 H 0.75272 0.69168 0.43692 0.0
H2930 H 0.73462 0.68118 0.34927 0.0
H2931 H 0.72267 0.66327 0.35977 0.0
H2932 H 0.74084 0.66821 0.35152 0.0
H2933 H 0.73371 0.70839 0.41532 0.0
H2934 H 0.74018 0.70468 0.43883 0.0
H2935 H 0.72209 0.69179 0.42916 0.0
C2936 C 0.31155 0.02276 0.37532 0.0
C2937 C 0.32067 0.01703 0.37885 0.0
C2938 C 0.31414 0.03584 0.38522 0.0
C2939 C 0.32625 0.04343 0.39875 0.0
C2940 C 0.3354 0.03759 0.40255 0.0
C2941 C 0.33244 0.02439 0.39265 0.0
C2942 C 0.30401 0.0416 0.38106 0.0
C2943 C 0.34848 0.04544 0.41677 0.0
C2944 C 0.34189 0.08449 0.4088 0.0
C2945 C 0.33633 0.08448 0.42851 0.0
C2946 C 0.33863 0.07119 0.39887 0.0
C2947 C 0.32945 0.05756 0.40879 0.0
C2948 C 0.32354 0.05744 0.42848 0.0
C2949 C 0.32714 0.07089 0.43815 0.0
C2950 C 0.34519 0.07174 0.3779 0.0
C2951 C 0.31362 0.04311 0.43947 0.0
H2952 H 0.30241 0.01707 0.36473 0.0
H2953 H 0.33955 0.02001 0.39535 0.0
H2954 H 0.29942 0.04298 0.39579 0.0
H2955 H 0.31024 0.05266 0.37388 0.0
H2956 H 0.2948 0.03411 0.37068 0.0
H2957 H 0.35442 0.03937 0.41822 0.0
H2958 H 0.35622 0.05669 0.4109 0.0
H2959 H 0.34492 0.04682 0.43236 0.0
H2960 H 0.34885 0.0949 0.40113 0.0
H2961 H 0.32301 0.07075 0.45355 0.0
H2962 H 0.33635 0.06522 0.36651 0.0
H2963 H 0.35208 0.06664 0.37862 0.0
H2964 H 0.35204 0.08324 0.37222 0.0
H2965 H 0.30419 0.0356 0.42946 0.0
H2966 H 0.30935 0.0449 0.45426 0.0
H2967 H 0.31969 0.03739 0.44278 0.0
C2968 C 0.98247 0.2916 0.36218 0.0
C2969 C 0.98969 0.30621 0.3698 0.0
C2970 C 0.96925 0.28064 0.37092 0.0
C2971 C 0.96315 0.28437 0.38775 0.0
C2972 C 0.97053 0.29904 0.39577 0.0
C2973 C 0.98371 0.30981 0.38665 0.0
C2974 C 0.96171 0.26512 0.36194 0.0
C2975 C 0.96439 0.3034 0.4138 0.0
C2976 C 0.9223 0.26102 0.39852 0.0
C2977 C 0.92194 0.25255 0.41526 0.0
C2978 C 0.93562 0.2712 0.38914 0.0
C2979 C 0.9489 0.27299 0.39675 0.0
C2980 C 0.94857 0.26419 0.41327 0.0
C2981 C 0.93509 0.25405 0.42231 0.0
C2982 C 0.93551 0.28028 0.3714 0.0
C2983 C 0.96251 0.2658 0.42184 0.0
H2984 H 0.98703 0.28874 0.34914 0.0
H2985 H 0.98927 0.32107 0.39262 0.0
H2986 H 0.96 0.25709 0.37412 0.0
H2987 H 0.95073 0.26208 0.35601 0.0
H2988 H 0.96808 0.26395 0.34915 0.0
H2989 H 0.97168 0.31516 0.41857 0.0
H2990 H 0.95351 0.30169 0.40967 0.0
H2991 H 0.96276 0.29627 0.4272 0.0
H2992 H 0.91214 0.2598 0.39292 0.0
H2993 H 0.93491 0.2477 0.43544 0.0
H2994 H 0.94118 0.27894 0.35783 0.0
H2995 H 0.94158 0.2922 0.37581 0.0
H2996 H 0.92421 0.27712 0.36677 0.0
H2997 H 0.96889 0.2644 0.40932 0.0
H2998 H 0.96032 0.25763 0.43407 0.0
H2999 H 0.96947 0.27711 0.42844 0.0
C3000 C 0.01693 0.36614 0.30619 0.0
C3001 C 0.02627 0.36777 0.32248 0.0
C3002 C 0.01614 0.37822 0.29909 0.0
C3003 C 0.02482 0.39231 0.30862 0.0
C3004 C 0.03448 0.39411 0.32484 0.0
C3005 C 0.03514 0.38181 0.33154 0.0
C3006 C 0.0058 0.37585 0.2816 0.0
C3007 C 0.04385 0.40893 0.33542 0.0
C3008 C 0.02905 0.42417 0.27663 0.0
C3009 C 0.0175 0.42573 0.28416 0.0
C3010 C 0.0321 0.41387 0.28519 0.0
C3011 C 0.02343 0.40496 0.30172 0.0
C3012 C 0.01234 0.40714 0.31021 0.0
C3013 C 0.00947 0.41746 0.30127 0.0
C3014 C 0.04398 0.41185 0.27564 0.0
C3015 C 0.00296 0.39799 0.328 0.0
H3016 H 0.01008 0.35533 0.29907 0.0
H3017 H 0.04235 0.38313 0.34419 0.0
H3018 H 0.99734 0.37832 0.287 0.0
H3019 H 0.01189 0.38355 0.26884 0.0
H3020 H 1.0002 0.36433 0.27539 0.0
H3021 H 0.05121 0.40863 0.34723 0.0
H3022 H 0.05063 0.41747 0.3239 0.0
H3023 H 0.03673 0.41246 0.34303 0.0
H3024 H 0.03519 0.4304 0.26326 0.0
H3025 H 1.00063 0.41874 0.30726 0.0
H3026 H 0.0389 0.40105 0.26729 0.0
H3027 H 0.05119 0.41166 0.28776 0.0
H3028 H 0.05083 0.42075 0.26456 0.0
H3029 H 0.99574 0.38635 0.32276 0.0
H3030 H 0.99596 0.40216 0.33427 0.0
H3031 H 0.00993 0.39795 0.34063 0.0
C3032 C 0.6377 0.65039 0.29838 0.0
C3033 C 0.63626 0.65289 0.31931 0.0
C3034 C 0.62721 0.63724 0.28845 0.0
C3035 C 0.61533 0.62617 0.29996 0.0
C3036 C 0.61382 0.62872 0.3211 0.0
C3037 C 0.62418 0.64217 0.33044 0.0
C3038 C 0.62894 0.63512 0.26572 0.0
C3039 C 0.6016 0.61701 0.33406 0.0
C3040 C 0.58226 0.5953 0.27166 0.0
C3041 C 0.58598 0.58429 0.27003 0.0
C3042 C 0.59172 0.60902 0.28127 0.0
C3043 C 0.60497 0.61162 0.29016 0.0
C3044 C 0.60851 0.60037 0.2894 0.0
C3045 C 0.59914 0.587 0.27905 0.0
C3046 C 0.58772 0.62087 0.2814 0.0
C3047 C 0.62236 0.60256 0.29919 0.0
H3048 H 0.64699 0.65875 0.28976 0.0
H3049 H 0.62314 0.64407 0.3467 0.0
H3050 H 0.63122 0.62603 0.26346 0.0
H3051 H 0.6186 0.63187 0.2574 0.0
H3052 H 0.638 0.64529 0.25862 0.0
H3053 H 0.60172 0.6209 0.35014 0.0
H3054 H 0.5908 0.61354 0.32707 0.0
H3055 H 0.60263 0.60705 0.33457 0.0
H3056 H 0.57203 0.59332 0.26521 0.0
H3057 H 0.60244 0.57886 0.27757 0.0
H3058 H 0.59636 0.63082 0.27337 0.0
H3059 H 0.58715 0.6243 0.29748 0.0
H3060 H 0.57705 0.61713 0.27372 0.0
H3061 H 0.63207 0.61134 0.29098 0.0
H3062 H 0.62287 0.59229 0.2988 0.0
H3063 H 0.62311 0.60627 0.3155 0.0
C3064 C 0.34479 0.96885 0.32267 0.0
C3065 C 0.34511 0.98217 0.32618 0.0
C3066 C 0.35664 0.96875 0.31309 0.0
C3067 C 0.36923 0.98233 0.30751 0.0
C3068 C 0.36979 0.99584 0.31178 0.0
C3069 C 0.35762 0.99558 0.32077 0.0
C3070 C 0.35549 0.95411 0.30828 0.0
C3071 C 0.38315 0.01056 0.30655 0.0
C3072 C 0.4044 0.98248 0.29532 0.0
C3073 C 0.40447 0.98278 0.27374 0.0
C3074 C 0.39307 0.98252 0.30663 0.0
C3075 C 0.38141 0.9824 0.29596 0.0
C3076 C 0.38142 0.98252 0.27411 0.0
C3077 C 0.39306 0.98289 0.26328 0.0
C3078 C 0.39362 0.98279 0.32991 0.0
C3079 C 0.36905 0.98207 0.26215 0.0
H3080 H 0.33508 0.95848 0.3268 0.0
H3081 H 0.35794 0.00591 0.32373 0.0
H3082 H 0.35597 0.95275 0.29132 0.0
H3083 H 0.36488 0.95383 0.31511 0.0
H3084 H 0.34515 0.94457 0.31418 0.0
H3085 H 0.38234 0.02006 0.31252 0.0
H3086 H 0.39315 0.01132 0.31307 0.0
H3087 H 0.38458 0.01155 0.28956 0.0
H3088 H 0.41326 0.98234 0.3033 0.0
H3089 H 0.39309 0.98292 0.24653 0.0
H3090 H 0.38386 0.97278 0.33609 0.0
H3091 H 0.39331 0.99254 0.33601 0.0
H3092 H 0.40363 0.98326 0.33582 0.0
H3093 H 0.35845 0.97222 0.2666 0.0
H3094 H 0.37047 0.98166 0.24519 0.0
H3095 H 0.36834 0.992 0.26595 0.0
C3096 C 0.61758 0.96505 0.3229 0.0
C3097 C 0.63149 0.97455 0.31447 0.0
C3098 C 0.60515 0.96505 0.31565 0.0
C3099 C 0.60669 0.97468 0.29953 0.0
C3100 C 0.62061 0.98383 0.29043 0.0
C3101 C 0.63284 0.98369 0.29806 0.0
C3102 C 0.59048 0.95515 0.32573 0.0
C3103 C 0.6227 0.99415 0.27305 0.0
C3104 C 0.5748 0.97008 0.2676 0.0
C3105 C 0.57305 0.98153 0.27562 0.0
C3106 C 0.5852 0.96716 0.27594 0.0
C3107 C 0.594 0.97587 0.29273 0.0
C3108 C 0.59163 0.98683 0.3017 0.0
C3109 C 0.58121 0.98956 0.29298 0.0
C3110 C 0.58742 0.9554 0.26593 0.0
C3111 C 0.60067 0.99625 0.31976 0.0
H3112 H 0.61648 0.95799 0.33562 0.0
H3113 H 0.64354 0.99099 0.2914 0.0
H3114 H 0.58687 0.96205 0.334 0.0
H3115 H 0.58206 0.94853 0.31388 0.0
H3116 H 0.5909 0.94749 0.33693 0.0
H3117 H 0.63407 0.99991 0.26689 0.0
H3118 H 0.61502 0.98791 0.26023 0.0
H3119 H 0.62017 0.00262 0.2786 0.0
H3120 H 0.56864 0.96394 0.25404 0.0
H3121 H 0.57977 0.99832 0.29934 0.0
H3122 H 0.5879 0.94817 0.27777 0.0
H3123 H 0.59803 0.96076 0.25756 0.0
H3124 H 0.57855 0.9484 0.25478 0.0
H3125 H 0.6008 0.98918 0.33218 0.0
H3126 H 0.59646 0.0032 0.32624 0.0
H3127 H 0.61218 0.00365 0.31474 0.0
C3128 C 0.02403 0.64792 0.32747 0.0
C3129 C 0.01392 0.6524 0.32361 0.0
C3130 C 0.02382 0.63644 0.31596 0.0
C3131 C 0.0131 0.62909 0.3004 0.0
C3132 C 0.0026 0.63327 0.29679 0.0
C3133 C 0.0032 0.64497 0.30837 0.0
C3134 C 0.03532 0.63243 0.32009 0.0
C3135 C 0.99089 0.62555 0.2805 0.0
C3136 C 0.02277 0.61101 0.25704 0.0
C3137 C 0.01573 0.59619 0.26327 0.0
C3138 C 0.02184 0.62176 0.26886 0.0
C3139 C 0.01344 0.61758 0.28722 0.0
C3140 C 0.00597 0.6026 0.29336 0.0
C3141 C 0.00727 0.59209 0.28138 0.0
C3142 C 0.03004 0.63765 0.26184 0.0
C3143 C 0.99679 0.59772 0.31275 0.0
H3144 H 0.03233 0.65359 0.33927 0.0
H3145 H 0.9953 0.64833 0.30542 0.0
H3146 H 0.03003 0.62049 0.32364 0.0
H3147 H 0.04214 0.63444 0.30609 0.0
H3148 H 0.04264 0.63894 0.33314 0.0
H3149 H 0.98298 0.62948 0.28051 0.0
H3150 H 0.99604 0.62748 0.26501 0.0
H3151 H 0.98476 0.61342 0.28298 0.0
H3152 H 0.029 0.61425 0.2428 0.0
H3153 H 0.00186 0.5807 0.2864 0.0
H3154 H 0.03813 0.6448 0.27378 0.0
H3155 H 0.02233 0.64168 0.25984 0.0
H3156 H 0.03595 0.63904 0.24705 0.0
H3157 H 0.00388 0.60309 0.32643 0.0
H3158 H 0.99094 0.58553 0.3147 0.0
H3159 H 0.9886 0.60126 0.31246 0.0
C3160 C 0.3525 0.37935 0.33193 0.0
C3161 C 0.34692 0.36439 0.32688 0.0
C3162 C 0.36573 0.39049 0.32338 0.0
C3163 C 0.37365 0.38652 0.30972 0.0
C3164 C 0.36809 0.37141 0.30467 0.0
C3165 C 0.35473 0.36054 0.3132 0.0
C3166 C 0.3712 0.40649 0.32885 0.0
C3167 C 0.37628 0.36672 0.29031 0.0
C3168 C 0.40106 0.41343 0.27116 0.0
C3169 C 0.4145 0.41751 0.28062 0.0
C3170 C 0.38768 0.40389 0.28091 0.0
C3171 C 0.38769 0.3981 0.30046 0.0
C3172 C 0.40116 0.40261 0.31048 0.0
C3173 C 0.4144 0.41234 0.30051 0.0
C3174 C 0.37354 0.39949 0.26982 0.0
C3175 C 0.40161 0.39662 0.33132 0.0
H3176 H 0.34647 0.38239 0.34245 0.0
H3177 H 0.3505 0.34898 0.30933 0.0
H3178 H 0.38219 0.41161 0.3361 0.0
H3179 H 0.3724 0.41276 0.31463 0.0
H3180 H 0.3637 0.40773 0.33961 0.0
H3181 H 0.37061 0.3545 0.28829 0.0
H3182 H 0.37754 0.37174 0.27494 0.0
H3183 H 0.38746 0.37076 0.2964 0.0
H3184 H 0.40094 0.41712 0.25569 0.0
H3185 H 0.4247 0.41562 0.3081 0.0
H3186 H 0.36593 0.40081 0.28022 0.0
H3187 H 0.36804 0.38763 0.26518 0.0
H3188 H 0.37537 0.40615 0.25577 0.0
H3189 H 0.39463 0.3983 0.34251 0.0
H3190 H 0.41292 0.40195 0.33763 0.0
H3191 H 0.39714 0.38452 0.32998 0.0
C3192 C 0.30978 0.30011 0.38867 0.0
C3193 C 0.30611 0.30091 0.36823 0.0
C3194 C 0.31069 0.288 0.39537 0.0
C3195 C 0.30836 0.27667 0.38107 0.0
C3196 C 0.3041 0.27716 0.36056 0.0
C3197 C 0.30282 0.28922 0.35445 0.0
C3198 C 0.31486 0.28771 0.41752 0.0
C3199 C 0.30188 0.26552 0.34473 0.0
C3200 C 0.33053 0.25915 0.39511 0.0
C3201 C 0.31999 0.24591 0.4045 0.0
C3202 C 0.32666 0.26872 0.38619 0.0
C3203 C 0.31195 0.2653 0.38719 0.0
C3204 C 0.30111 0.25173 0.39579 0.0
C3205 C 0.30522 0.2421 0.40405 0.0
C3206 C 0.33853 0.28292 0.3767 0.0
C3207 C 0.28533 0.24777 0.3974 0.0
H3208 H 0.31222 0.30912 0.39936 0.0
H3209 H 0.30011 0.28992 0.33857 0.0
H3210 H 0.30739 0.27671 0.42431 0.0
H3211 H 0.32613 0.28964 0.41813 0.0
H3212 H 0.31449 0.29632 0.42721 0.0
H3213 H 0.29685 0.26646 0.3303 0.0
H3214 H 0.31264 0.26676 0.34084 0.0
H3215 H 0.29484 0.25425 0.35099 0.0
H3216 H 0.34201 0.26252 0.39557 0.0
H3217 H 0.29687 0.23178 0.41072 0.0
H3218 H 0.34066 0.29245 0.38676 0.0
H3219 H 0.33498 0.28459 0.36143 0.0
H3220 H 0.34897 0.28303 0.37469 0.0
H3221 H 0.2845 0.25533 0.40871 0.0
H3222 H 0.27799 0.23619 0.40248 0.0
H3223 H 0.28137 0.24925 0.38235 0.0
C3224 C 0.70422 0.01935 0.36978 0.0
C3225 C 0.6896 0.01537 0.36687 0.0
C3226 C 0.7141 0.03258 0.38003 0.0
C3227 C 0.70937 0.0423 0.38684 0.0
C3228 C 0.69463 0.03841 0.38368 0.0
C3229 C 0.68483 0.02482 0.37403 0.0
C3230 C 0.72959 0.03609 0.3837 0.0
C3231 C 0.68932 0.04869 0.39018 0.0
C3232 C 0.73247 0.06946 0.42907 0.0
C3233 C 0.74262 0.08163 0.41753 0.0
C3234 C 0.72121 0.05675 0.41933 0.0
C3235 C 0.71989 0.05639 0.39757 0.0
C3236 C 0.72958 0.06905 0.38598 0.0
C3237 C 0.74105 0.08146 0.3961 0.0
C3238 C 0.71139 0.04336 0.4322 0.0
C3239 C 0.72824 0.06924 0.36283 0.0
H3240 H 0.70788 0.012 0.36433 0.0
H3241 H 0.67353 0.02178 0.37156 0.0
H3242 H 0.73747 0.04639 0.37559 0.0
H3243 H 0.73221 0.03803 0.40041 0.0
H3244 H 0.73132 0.02704 0.37823 0.0
H3245 H 0.67762 0.04418 0.38615 0.0
H3246 H 0.69064 0.05074 0.40709 0.0
H3247 H 0.69605 0.05956 0.38262 0.0
H3248 H 0.73389 0.06958 0.44565 0.0
H3249 H 0.74897 0.0909 0.38725 0.0
H3250 H 0.71355 0.03435 0.42836 0.0
H3251 H 0.69969 0.03916 0.42867 0.0
H3252 H 0.71317 0.04581 0.44902 0.0
H3253 H 0.73156 0.0618 0.35552 0.0
H3254 H 0.73526 0.08053 0.35652 0.0
H3255 H 0.71669 0.06506 0.35838 0.0
C3256 C 0.97931 0.69024 0.36044 0.0
C3257 C 0.98867 0.68839 0.37352 0.0
C3258 C 0.96606 0.68848 0.36786 0.0
C3259 C 0.96242 0.68536 0.389 0.0
C3260 C 0.9723 0.68433 0.40246 0.0
C3261 C 0.98517 0.68554 0.39445 0.0
C3262 C 0.95558 0.68909 0.35287 0.0
C3263 C 0.96909 0.68154 0.42523 0.0
C3264 C 0.93226 0.68995 0.41328 0.0
C3265 C 0.921 0.67514 0.41587 0.0
C3266 C 0.94574 0.69351 0.40428 0.0
C3267 C 0.94784 0.68202 0.39685 0.0
C3268 C 0.93625 0.66713 0.39813 0.0
C3269 C 0.92314 0.66386 0.40796 0.0
C3270 C 0.95797 0.70951 0.40363 0.0
C3271 C 0.93786 0.65456 0.3898 0.0
H3272 H 0.98199 0.69227 0.34418 0.0
H3273 H 0.99248 0.68419 0.40453 0.0
H3274 H 0.94562 0.67793 0.35134 0.0
H3275 H 0.95201 0.6967 0.35868 0.0
H3276 H 0.96052 0.69275 0.33732 0.0
H3277 H 0.97864 0.68279 0.43393 0.0
H3278 H 0.96597 0.68931 0.43189 0.0
H3279 H 0.9597 0.67015 0.4275 0.0
H3280 H 0.93073 0.69885 0.4187 0.0
H3281 H 0.91481 0.65236 0.41008 0.0
H3282 H 0.9623 0.71256 0.38772 0.0
H3283 H 0.96716 0.7111 0.41352 0.0
H3284 H 0.95437 0.7172 0.40911 0.0
H3285 H 0.94235 0.65695 0.37388 0.0
H3286 H 0.92727 0.64385 0.38959 0.0
H3287 H 0.9457 0.65331 0.39951 0.0
C3288 C 0.36763 0.01561 0.71719 0.0
C3289 C 0.3698 0.02744 0.70494 0.0
C3290 C 0.37953 0.01508 0.7253 0.0
C3291 C 0.394 0.02671 0.7212 0.0
C3292 C 0.39629 0.03886 0.70921 0.0
C3293 C 0.38414 0.03906 0.70113 0.0
C3294 C 0.3766 0.0019 0.73799 0.0
C3295 C 0.41155 0.05154 0.70472 0.0
C3296 C 0.42188 0.02782 0.75844 0.0
C3297 C 0.4269 0.01965 0.74752 0.0
C3298 C 0.41185 0.03105 0.74956 0.0
C3299 C 0.40661 0.02588 0.72933 0.0
C3300 C 0.41228 0.01839 0.71779 0.0
C3301 C 0.4224 0.01542 0.72699 0.0
C3302 C 0.40616 0.03916 0.76234 0.0
C3303 C 0.40698 0.01271 0.69615 0.0
H3304 H 0.35659 0.00658 0.72019 0.0
H3305 H 0.38589 0.04824 0.69169 0.0
H3306 H 0.38173 0.99611 0.7305 0.0
H3307 H 0.3816 0.00564 0.75351 0.0
H3308 H 0.3647 0.99384 0.7399 0.0
H3309 H 0.41146 0.06043 0.69585 0.0
H3310 H 0.4176 0.05635 0.71937 0.0
H3311 H 0.41772 0.04743 0.69576 0.0
H3312 H 0.42512 0.031 0.77439 0.0
H3313 H 0.42642 0.00933 0.71832 0.0
H3314 H 0.39465 0.03132 0.76693 0.0
H3315 H 0.40619 0.04801 0.7532 0.0
H3316 H 0.41276 0.0442 0.77655 0.0
H3317 H 0.39536 0.00358 0.69668 0.0
H3318 H 0.41354 0.00849 0.68851 0.0
H3319 H 0.40745 0.02158 0.68656 0.0
C3320 C 0.99626 0.35743 0.72198 0.0
C3321 C 0.98706 0.35186 0.70469 0.0
C3322 C 0.99883 0.37046 0.73204 0.0
C3323 C 0.99217 0.37816 0.72445 0.0
C3324 C 0.98291 0.3726 0.70695 0.0
C3325 C 0.98039 0.35946 0.69735 0.0
C3326 C 0.00863 0.37597 0.75083 0.0
C3327 C 0.97571 0.38056 0.69831 0.0
C3328 C 0.98794 0.40418 0.76111 0.0
C3329 C 1.00004 0.41795 0.75583 0.0
C3330 C 0.98521 0.39115 0.75094 0.0
C3331 C 0.99474 0.39194 0.73498 0.0
C3332 C 0.00681 0.40586 0.72928 0.0
C3333 C 0.00938 0.41871 0.73989 0.0
C3334 C 0.97232 0.37651 0.75762 0.0
C3335 C 0.01709 0.40714 0.71213 0.0
H3336 H 0.0014 0.35157 0.72773 0.0
H3337 H 0.97332 0.35523 0.68393 0.0
H3338 H 0.01809 0.38725 0.74807 0.0
H3339 H 0.00251 0.37676 0.76426 0.0
H3340 H 0.01286 0.36862 0.75488 0.0
H3341 H 0.96899 0.37489 0.6844 0.0
H3342 H 0.96855 0.38136 0.71017 0.0
H3343 H 0.98419 0.39204 0.69417 0.0
H3344 H 0.98084 0.40354 0.77367 0.0
H3345 H 0.0187 0.42936 0.73575 0.0
H3346 H 0.97626 0.36924 0.76323 0.0
H3347 H 0.96498 0.37075 0.74429 0.0
H3348 H 0.96583 0.37783 0.77009 0.0
H3349 H 0.02257 0.40094 0.71616 0.0
H3350 H 0.02566 0.41883 0.70911 0.0
H3351 H 0.01082 0.40212 0.69769 0.0
C3352 C 0.65377 0.64712 0.7221 0.0
C3353 C 0.65984 0.64338 0.70552 0.0
C3354 C 0.64037 0.63653 0.7309 0.0
C3355 C 0.6328 0.6219 0.72274 0.0
C3356 C 0.63898 0.61802 0.70616 0.0
C3357 C 0.65247 0.62878 0.69783 0.0
C3358 C 0.63423 0.64103 0.74877 0.0
C3359 C 0.63119 0.60257 0.69694 0.0
C3360 C 0.60388 0.59157 0.75638 0.0
C3361 C 0.59099 0.59056 0.74916 0.0
C3362 C 0.61756 0.6016 0.74777 0.0
C3363 C 0.61833 0.61072 0.73139 0.0
C3364 C 0.60529 0.60943 0.72362 0.0
C3365 C 0.59177 0.59943 0.73272 0.0
C3366 C 0.63122 0.60278 0.75664 0.0
C3367 C 0.60565 0.61881 0.70596 0.0
H3368 H 0.65944 0.65838 0.72813 0.0
H3369 H 0.65709 0.62583 0.68497 0.0
H3370 H 0.62357 0.63974 0.74433 0.0
H3371 H 0.63214 0.63369 0.76209 0.0
H3372 H 0.64172 0.65268 0.75381 0.0
H3373 H 0.63758 0.60129 0.68427 0.0
H3374 H 0.62911 0.59436 0.70903 0.0
H3375 H 0.62037 0.59988 0.69077 0.0
H3376 H 0.60333 0.58489 0.76932 0.0
H3377 H 0.5818 0.59862 0.72709 0.0
H3378 H 0.6384 0.61404 0.76324 0.0
H3379 H 0.63754 0.60112 0.74428 0.0
H3380 H 0.6287 0.59455 0.76892 0.0
H3381 H 0.61189 0.63068 0.71058 0.0
H3382 H 0.59448 0.61594 0.70107 0.0
H3383 H 0.61138 0.61742 0.69251 0.0
C3384 C 0.69997 0.71646 0.66154 0.0
C3385 C 0.69211 0.70201 0.65341 0.0
C3386 C 0.6978 0.72764 0.65399 0.0
C3387 C 0.68766 0.72428 0.63779 0.0
C3388 C 0.68003 0.70981 0.62911 0.0
C3389 C 0.68229 0.69883 0.63711 0.0
C3390 C 0.70606 0.74291 0.66371 0.0
C3391 C 0.66927 0.70586 0.61163 0.0
C3392 C 0.66935 0.74674 0.62995 0.0
C3393 C 0.67717 0.75546 0.61305 0.0
C3394 C 0.67303 0.73695 0.63869 0.0
C3395 C 0.6847 0.73576 0.63017 0.0
C3396 C 0.69295 0.74491 0.61357 0.0
C3397 C 0.68912 0.75469 0.60526 0.0
C3398 C 0.66409 0.7275 0.65657 0.0
C3399 C 0.70539 0.74387 0.60395 0.0
H3400 H 0.70753 0.71897 0.67421 0.0
H3401 H 0.67623 0.68769 0.63072 0.0
H3402 H 0.71217 0.75132 0.65173 0.0
H3403 H 0.6982 0.74561 0.67092 0.0
H3404 H 0.71393 0.74386 0.67569 0.0
H3405 H 0.66473 0.69429 0.606 0.0
H3406 H 0.66005 0.70721 0.61679 0.0
H3407 H 0.67467 0.71345 0.59852 0.0
H3408 H 0.66016 0.74738 0.63607 0.0
H3409 H 0.69506 0.76125 0.592 0.0
H3410 H 0.6714 0.72857 0.66944 0.0
H3411 H 0.65795 0.71569 0.65167 0.0
H3412 H 0.65612 0.73057 0.66239 0.0
H3413 H 0.71327 0.74498 0.61598 0.0
H3414 H 0.71138 0.75249 0.59215 0.0
H3415 H 0.70101 0.73283 0.5965 0.0
C3416 C 0.2966 0.98366 0.65542 0.0
C3417 C 0.31164 0.99059 0.65108 0.0
C3418 C 0.28651 0.97022 0.64576 0.0
C3419 C 0.29158 0.96353 0.6315 0.0
C3420 C 0.30674 0.97054 0.62692 0.0
C3421 C 0.3166 0.98403 0.63674 0.0
C3422 C 0.27042 0.96315 0.65091 0.0
C3423 C 0.31255 0.96372 0.6118 0.0
C3424 C 0.26718 0.92227 0.62051 0.0
C3425 C 0.26065 0.92223 0.60177 0.0
C3426 C 0.2773 0.93564 0.63037 0.0
C3427 C 0.28098 0.94927 0.62122 0.0
C3428 C 0.27442 0.94928 0.60231 0.0
C3429 C 0.26437 0.93578 0.59281 0.0
C3430 C 0.28406 0.9352 0.65055 0.0
C3431 C 0.27808 0.96358 0.59205 0.0
H3432 H 0.2927 0.98869 0.66648 0.0
H3433 H 0.32821 0.98932 0.63339 0.0
H3434 H 0.26405 0.96169 0.63668 0.0
H3435 H 0.26628 0.95199 0.65737 0.0
H3436 H 0.26825 0.96984 0.66224 0.0
H3437 H 0.32463 0.9706 0.6099 0.0
H3438 H 0.30972 0.95259 0.61711 0.0
H3439 H 0.30732 0.96223 0.59649 0.0
H3440 H 0.26429 0.91184 0.62756 0.0
H3441 H 0.25961 0.93584 0.5781 0.0
H3442 H 0.28142 0.94094 0.66282 0.0
H3443 H 0.29618 0.94117 0.64909 0.0
H3444 H 0.28014 0.9237 0.65554 0.0
H3445 H 0.27551 0.97033 0.60263 0.0
H3446 H 0.27194 0.96167 0.57742 0.0
H3447 H 0.28999 0.97018 0.58866 0.0
C3448 C 0.01634 0.30813 0.66107 0.0
C3449 C 0.0104 0.31605 0.65239 0.0
C3450 C 0.02926 0.30936 0.65317 0.0
C3451 C 0.03628 0.31857 0.63604 0.0
C3452 C 0.03005 0.3262 0.62682 0.0
C3453 C 0.01724 0.32491 0.63518 0.0
C3454 C 0.03565 0.30116 0.66349 0.0
C3455 C 0.0371 0.33599 0.60837 0.0
C3456 C 0.07702 0.33598 0.62588 0.0
C3457 C 0.07711 0.32732 0.60929 0.0
C3458 C 0.06384 0.33281 0.63542 0.0
C3459 C 0.05042 0.32074 0.62808 0.0
C3460 C 0.0505 0.31154 0.61198 0.0
C3461 C 0.06386 0.31492 0.6028 0.0
C3462 C 0.06423 0.34278 0.65272 0.0
C3463 C 0.03642 0.29862 0.60366 0.0
H3464 H 0.01113 0.30132 0.67444 0.0
H3465 H 0.01266 0.33099 0.62834 0.0
H3466 H 0.03742 0.29432 0.65199 0.0
H3467 H 0.0465 0.30922 0.6702 0.0
H3468 H 0.02847 0.29386 0.67599 0.0
H3469 H 0.03048 0.34056 0.60239 0.0
H3470 H 0.04811 0.34536 0.61266 0.0
H3471 H 0.03864 0.32966 0.59576 0.0
H3472 H 0.08727 0.34548 0.63107 0.0
H3473 H 0.06385 0.30829 0.58983 0.0
H3474 H 0.05782 0.3361 0.66613 0.0
H3475 H 0.05909 0.34906 0.64749 0.0
H3476 H 0.07559 0.35082 0.65789 0.0
H3477 H 0.02952 0.29151 0.61645 0.0
H3478 H 0.03844 0.29172 0.59254 0.0
H3479 H 0.03007 0.30279 0.5957 0.0
C3480 C 0.30483 0.32423 0.63804 0.0
C3481 C 0.30299 0.31281 0.65092 0.0
C3482 C 0.29269 0.32458 0.63042 0.0
C3483 C 0.27835 0.31321 0.63575 0.0
C3484 C 0.2764 0.30148 0.6484 0.0
C3485 C 0.28876 0.30143 0.65587 0.0
C3486 C 0.29524 0.33727 0.61694 0.0
C3487 C 0.26128 0.28911 0.65427 0.0
C3488 C 0.24947 0.32401 0.63132 0.0
C3489 C 0.24385 0.31867 0.61148 0.0
C3490 C 0.26026 0.32173 0.63982 0.0
C3491 C 0.26549 0.31385 0.62826 0.0
C3492 C 0.25927 0.30772 0.60875 0.0
C3493 C 0.24857 0.31024 0.60056 0.0
C3494 C 0.26658 0.32841 0.66073 0.0
C3495 C 0.2645 0.29919 0.59598 0.0
H3496 H 0.31578 0.33306 0.63413 0.0
H3497 H 0.28727 0.29257 0.66581 0.0
H3498 H 0.28957 0.33298 0.60191 0.0
H3499 H 0.29055 0.34348 0.62443 0.0
H3500 H 0.30707 0.3451 0.61395 0.0
H3501 H 0.26162 0.28053 0.6636 0.0
H3502 H 0.25554 0.29367 0.66329 0.0
H3503 H 0.25467 0.28377 0.64018 0.0
H3504 H 0.24573 0.33035 0.63997 0.0
H3505 H 0.24447 0.30624 0.58512 0.0
H3506 H 0.27819 0.33737 0.65895 0.0
H3507 H 0.26644 0.31995 0.67089 0.0
H3508 H 0.26048 0.33311 0.66847 0.0
H3509 H 0.27585 0.30684 0.59058 0.0
H3510 H 0.25743 0.29373 0.58227 0.0
H3511 H 0.26475 0.29062 0.60543 0.0
C3512 C 0.66914 0.97937 0.64243 0.0
C3513 C 0.68008 0.98699 0.65735 0.0
C3514 C 0.6679 0.96703 0.63183 0.0
C3515 C 0.67795 0.96237 0.6361 0.0
C3516 C 0.68877 0.96981 0.65151 0.0
C3517 C 0.68965 0.98197 0.66203 0.0
C3518 C 0.65609 0.95925 0.61567 0.0
C3519 C 0.69979 0.96527 0.65635 0.0
C3520 C 0.67071 0.92462 0.61809 0.0
C3521 C 0.67917 0.92828 0.60001 0.0
C3522 C 0.66994 0.93555 0.62983 0.0
C3523 C 0.67792 0.95047 0.62341 0.0
C3524 C 0.68635 0.9542 0.6051 0.0
C3525 C 0.68677 0.94306 0.59357 0.0
C3526 C 0.66073 0.93116 0.64919 0.0
C3527 C 0.69506 0.96999 0.59777 0.0
H3528 H 0.66165 0.98314 0.63887 0.0
H3529 H 0.69809 0.98777 0.67361 0.0
H3530 H 0.66119 0.96087 0.60018 0.0
H3531 H 0.64976 0.94716 0.61848 0.0
H3532 H 0.64839 0.96342 0.61544 0.0
H3533 H 0.70702 0.97171 0.66952 0.0
H3534 H 0.69408 0.95333 0.66007 0.0
H3535 H 0.70675 0.96696 0.64261 0.0
H3536 H 0.66485 0.91326 0.62323 0.0
H3537 H 0.69302 0.94596 0.57934 0.0
H3538 H 0.65277 0.93499 0.64852 0.0
H3539 H 0.66784 0.93662 0.66283 0.0
H3540 H 0.65461 0.919 0.6515 0.0
H3541 H 0.68766 0.97437 0.59531 0.0
H3542 H 0.70102 0.97103 0.58314 0.0
H3543 H 0.70315 0.9771 0.60973 0.0
C3544 C 0.01313 0.69663 0.63316 0.0
C3545 C 0.01034 0.69632 0.65435 0.0
C3546 C 0.0264 0.70785 0.62482 0.0
C3547 C 0.03732 0.7186 0.63816 0.0
C3548 C 0.03452 0.71826 0.6596 0.0
C3549 C 0.02093 0.70728 0.66738 0.0
C3550 C 0.02877 0.70814 0.60179 0.0
C3551 C 0.04607 0.72914 0.67442 0.0
C3552 C 0.07617 0.73617 0.61766 0.0
C3553 C 0.07917 0.75026 0.6117 0.0
C3554 C 0.06285 0.72604 0.62703 0.0
C3555 C 0.0519 0.72975 0.62976 0.0
C3556 C 0.05479 0.74391 0.62402 0.0
C3557 C 0.06848 0.7541 0.6155 0.0
C3558 C 0.06038 0.7112 0.63357 0.0
C3559 C 0.04325 0.74815 0.62624 0.0
H3560 H 0.00485 0.6882 0.6231 0.0
H3561 H 0.01878 0.70693 0.68382 0.0
H3562 H 0.03226 0.71929 0.59576 0.0
H3563 H 0.03767 0.70588 0.5983 0.0
H3564 H 0.01873 0.69982 0.59342 0.0
H3565 H 0.04205 0.72752 0.69061 0.0
H3566 H 0.05582 0.7279 0.67374 0.0
H3567 H 0.04973 0.74066 0.66995 0.0
H3568 H 0.08403 0.73275 0.61448 0.0
H3569 H 0.07066 0.765 0.61154 0.0
H3570 H 0.05181 0.70228 0.62373 0.0
H3571 H 0.05642 0.70894 0.64976 0.0
H3572 H 0.07051 0.71062 0.63234 0.0
H3573 H 0.0334 0.74033 0.61711 0.0
H3574 H 0.04719 0.75958 0.62094 0.0
H3575 H 0.03975 0.7473 0.64258 0.0
C3576 C 0.98352 0.63372 0.71109 0.0
C3577 C 0.97306 0.63247 0.69686 0.0
C3578 C 0.98282 0.62111 0.71926 0.0
C3579 C 0.97136 0.60687 0.71308 0.0
C3580 C 0.96091 0.60552 0.69842 0.0
C3581 C 0.96188 0.61835 0.69046 0.0
C3582 C 0.99418 0.62303 0.73487 0.0
C3583 C 0.94852 0.59053 0.6915 0.0
C3584 C 0.97661 0.57464 0.72532 0.0
C3585 C 0.96903 0.56976 0.74409 0.0
C3586 C 0.97712 0.58644 0.71467 0.0
C3587 C 0.96987 0.5935 0.72299 0.0
C3588 C 0.96186 0.58835 0.7416 0.0
C3589 C 0.96159 0.57662 0.75193 0.0
C3590 C 0.98576 0.59163 0.69485 0.0
C3591 C 0.954 0.5956 0.75103 0.0
H3592 H 0.99223 0.64459 0.71605 0.0
H3593 H 0.95378 0.6173 0.67942 0.0
H3594 H 0.98881 0.61842 0.7499 0.0
H3595 H 0.99952 0.61682 0.72976 0.0
H3596 H 0.00279 0.63484 0.73729 0.0
H3597 H 0.94179 0.59134 0.67914 0.0
H3598 H 0.95291 0.58359 0.68574 0.0
H3599 H 0.94129 0.58472 0.70481 0.0
H3600 H 0.98228 0.56933 0.71906 0.0
H3601 H 0.95596 0.57317 0.76662 0.0
H3602 H 0.9952 0.60307 0.69702 0.0
H3603 H 0.97884 0.59197 0.68239 0.0
H3604 H 0.98999 0.58439 0.68975 0.0
H3605 H 0.96211 0.60717 0.75566 0.0
H3606 H 0.94747 0.58964 0.76483 0.0
H3607 H 0.94657 0.59605 0.73953 0.0
C3608 C 0.37707 0.3547 0.70159 0.0
C3609 C 0.36207 0.34905 0.70486 0.0
C3610 C 0.38769 0.36704 0.71275 0.0
C3611 C 0.38321 0.37404 0.72739 0.0
C3612 C 0.36807 0.36853 0.73061 0.0
C3613 C 0.35765 0.35601 0.71938 0.0
C3614 C 0.40371 0.37246 0.70905 0.0
C3615 C 0.36291 0.37582 0.74596 0.0
C3616 C 0.41087 0.396 0.76941 0.0
C3617 C 0.41781 0.41045 0.7617 0.0
C3618 C 0.39933 0.38413 0.75866 0.0
C3619 C 0.39445 0.38676 0.73984 0.0
C3620 C 0.40103 0.40138 0.7323 0.0
C3621 C 0.41268 0.41306 0.7433 0.0
C3622 C 0.39265 0.3687 0.76718 0.0
C3623 C 0.39603 0.40461 0.71236 0.0
H3624 H 0.38057 0.34939 0.69039 0.0
H3625 H 0.34607 0.35173 0.72185 0.0
H3626 H 0.40956 0.38422 0.70435 0.0
H3627 H 0.40886 0.37186 0.72356 0.0
H3628 H 0.40536 0.36587 0.69692 0.0
H3629 H 0.35078 0.37053 0.74606 0.0
H3630 H 0.36659 0.37524 0.76171 0.0
H3631 H 0.36784 0.38771 0.7423 0.0
H3632 H 0.41448 0.39394 0.7839 0.0
H3633 H 0.418 0.42417 0.73722 0.0
H3634 H 0.39457 0.36164 0.75627 0.0
H3635 H 0.38061 0.36359 0.76881 0.0
H3636 H 0.3973 0.36862 0.78244 0.0
H3637 H 0.39855 0.39938 0.69925 0.0
H3638 H 0.40142 0.41668 0.7095 0.0
H3639 H 0.38397 0.39979 0.71257 0.0
C3640 C 0.65537 0.02523 0.72394 0.0
C3641 C 0.65878 0.02793 0.70296 0.0
C3642 C 0.64276 0.02447 0.73212 0.0
C3643 C 0.63305 0.02591 0.71881 0.0
C3644 C 0.63674 0.02917 0.69771 0.0
C3645 C 0.64972 0.03036 0.69008 0.0
C3646 C 0.63948 0.02144 0.75484 0.0
C3647 C 0.62651 0.03038 0.68292 0.0
C3648 C 0.59386 0.00395 0.73778 0.0
C3649 C 0.59182 0.01499 0.74684 0.0
C3650 C 0.60687 0.00751 0.72744 0.0
C3651 C 0.61845 0.02244 0.72669 0.0
C3652 C 0.61637 0.03372 0.7351 0.0
C3653 C 0.60301 0.02989 0.74475 0.0
C3654 C 0.60849 0.99515 0.7182 0.0
C3655 C 0.62854 0.04975 0.73491 0.0
H3656 H 0.66247 0.02346 0.73391 0.0
H3657 H 0.65232 0.03231 0.67379 0.0
H3658 H 0.63643 0.0292 0.76176 0.0
H3659 H 0.63001 0.01005 0.75686 0.0
H3660 H 0.64896 0.02249 0.76347 0.0
H3661 H 0.63174 0.03471 0.66769 0.0
H3662 H 0.61662 0.01927 0.68049 0.0
H3663 H 0.62277 0.0377 0.6894 0.0
H3664 H 0.58556 0.99239 0.73948 0.0
H3665 H 0.60153 0.0386 0.75113 0.0
H3666 H 0.61636 0.99369 0.72751 0.0
H3667 H 0.61292 0.99792 0.70228 0.0
H3668 H 0.5979 0.98444 0.71771 0.0
H3669 H 0.63757 0.05127 0.74512 0.0
H3670 H 0.62478 0.05731 0.74033 0.0
H3671 H 0.63316 0.05301 0.71916 0.0
loop_
_geom_bond_atom_site_label_1
_geom_bond_atom_site_label_2
_geom_bond_distance
_geom_bond_site_symmetry_2
_ccdc_geom_bond_type
Co0 O1 2.216 . S
Co0 O2 2.091 . S
Co0 O4 2.004 1_554 S
Co0 O10 2.021 . S
Co0 O12 2.137 1_454 S
Co0 O13 2.244 1_455 S
O1 Co0 2.216 . S
O1 C8 1.247 . S
O2 Co0 2.091 . S
O2 C8 1.261 . S
C3 O12 1.250 . S
C3 O13 1.266 1_556 S
O4 Co0 2.004 1_556 S
O4 C9 1.211 1_455 S
Co5 O6 2.061 1_554 S
Co5 O11 2.052 . S
Co5 O13 2.135 . S
O6 Co5 2.061 1_556 S
O6 C9 1.282 . S
C7 O10 1.238 1_655 S
C7 O11 1.241 . S
C8 O1 1.247 . S
C8 O2 1.261 . S
C9 O4 1.211 1_655 S
C9 O6 1.282 . S
O10 Co0 2.021 . S
O10 C7 1.238 1_455 S
O11 Co5 2.052 . S
O11 C7 1.241 . S
O12 Co0 2.137 1_656 S
O12 C3 1.250 . S
O13 Co0 2.244 1_655 S
O13 C3 1.266 1_554 S
O13 Co5 2.135 . S
Co14 O15 2.216 1_554 S
Co14 O16 2.091 . S
Co14 O18 2.004 . S
Co14 O24 2.021 1_554 S
Co14 O26 2.137 . S
Co14 O27 2.244 . S
O15 Co14 2.216 1_556 S
O15 C22 1.264 . S
O16 Co14 2.091 . S
O16 C22 1.224 1_554 S
C17 O26 1.247 . S
C17 O27 1.272 . S
O18 Co14 2.004 . S
O18 C23 1.259 . S
Co19 O20 2.061 . S
Co19 O25 2.052 1_554 S
Co19 O27 2.135 . S
O20 Co19 2.061 . S
O20 C23 1.235 . S
C21 O24 1.238 . S
C21 O25 1.241 . S
C22 O15 1.264 . S
C22 O16 1.224 1_556 S
C23 O18 1.259 . S
C23 O20 1.235 . S
O24 Co14 2.021 1_556 S
O24 C21 1.238 . S
O25 Co19 2.052 1_556 S
O25 C21 1.241 . S
O26 Co14 2.137 . S
O26 C17 1.247 . S
O27 Co14 2.244 . S
O27 C17 1.272 . S
O27 Co19 2.135 . S
Co28 O29 2.216 1_554 S
Co28 O30 2.091 . S
Co28 O32 2.004 . S
Co28 O38 2.021 1_554 S
Co28 O40 2.137 1_545 S
Co28 O41 2.244 1_545 S
O29 Co28 2.216 1_556 S
O29 C36 1.234 1_556 S
O30 Co28 2.091 . S
O30 C36 1.290 . S
C31 O40 1.247 . S
C31 O41 1.272 . S
O32 Co28 2.004 . S
O32 C37 1.259 . S
Co33 O34 2.061 . S
Co33 O39 2.052 1_554 S
Co33 O41 2.135 . S
O34 Co33 2.061 . S
O34 C37 1.235 1_565 S
C35 O38 1.192 1_565 S
C35 O39 1.287 . S
C36 O29 1.234 1_554 S
C36 O30 1.290 . S
C37 O32 1.259 . S
C37 O34 1.235 1_545 S
O38 Co28 2.021 1_556 S
O38 C35 1.192 1_545 S
O39 Co33 2.052 1_556 S
O39 C35 1.287 . S
O40 Co28 2.137 1_565 S
O40 C31 1.247 . S
O41 Co28 2.244 1_565 S
O41 C31 1.272 . S
O41 Co33 2.135 . S
Co42 O43 2.216 1_554 S
Co42 O44 2.091 . S
Co42 O46 2.004 . S
Co42 O52 2.021 1_554 S
Co42 O54 2.137 1_655 S
Co42 O55 2.244 1_655 S
O43 Co42 2.216 1_556 S
O43 C50 1.247 . S
O44 Co42 2.091 . S
O44 C50 1.261 1_554 S
C45 O54 1.247 . S
C45 O55 1.272 . S
O46 Co42 2.004 . S
O46 C51 1.259 1_655 S
Co47 O48 2.061 . S
Co47 O53 2.052 1_554 S
Co47 O55 2.135 . S
O48 Co47 2.061 . S
O48 C51 1.235 . S
C49 O52 1.238 1_455 S
C49 O53 1.241 . S
C50 O43 1.247 . S
C50 O44 1.261 1_556 S
C51 O46 1.259 1_455 S
C51 O48 1.235 . S
O52 Co42 2.021 1_556 S
O52 C49 1.238 1_655 S
O53 Co47 2.052 1_556 S
O53 C49 1.241 . S
O54 Co42 2.137 1_455 S
O54 C45 1.247 . S
O55 Co42 2.244 1_455 S
O55 C45 1.272 . S
O55 Co47 2.135 . S
Co56 O57 2.216 . S
Co56 O58 2.091 . S
Co56 O60 2.004 1_554 S
Co56 O66 2.021 . S
Co56 O68 2.137 1_554 S
Co56 O69 2.244 . S
O57 Co56 2.216 . S
O57 C64 1.247 . S
O58 Co56 2.091 . S
O58 C64 1.261 . S
C59 O68 1.247 . S
C59 O69 1.272 1_556 S
O60 Co56 2.004 1_556 S
O60 C65 1.259 . S
Co61 O62 2.061 1_554 S
Co61 O67 2.052 . S
Co61 O69 2.135 . S
O62 Co61 2.061 1_556 S
O62 C65 1.235 . S
C63 O66 1.238 . S
C63 O67 1.241 . S
C64 O57 1.247 . S
C64 O58 1.261 . S
C65 O60 1.259 . S
C65 O62 1.235 . S
O66 Co56 2.021 . S
O66 C63 1.238 . S
O67 Co61 2.052 . S
O67 C63 1.241 . S
O68 Co56 2.137 1_556 S
O68 C59 1.247 . S
O69 Co56 2.244 . S
O69 C59 1.272 1_554 S
O69 Co61 2.135 . S
Co70 O71 2.216 . S
Co70 O72 2.091 . S
Co70 O74 2.004 1_554 S
Co70 O80 2.021 . S
Co70 O82 2.137 1_564 S
Co70 O83 2.244 1_565 S
O71 Co70 2.216 . S
O71 C78 1.247 . S
O72 Co70 2.091 . S
O72 C78 1.261 . S
C73 O82 1.247 . S
C73 O83 1.272 1_556 S
O74 Co70 2.004 1_556 S
O74 C79 1.259 1_565 S
Co75 O76 2.061 1_554 S
Co75 O81 2.052 . S
Co75 O83 2.135 . S
O76 Co75 2.061 1_556 S
O76 C79 1.235 . S
C77 O80 1.238 1_545 S
C77 O81 1.241 . S
C78 O71 1.247 . S
C78 O72 1.261 . S
C79 O74 1.259 1_545 S
C79 O76 1.235 . S
O80 Co70 2.021 . S
O80 C77 1.238 1_565 S
O81 Co75 2.052 . S
O81 C77 1.241 . S
O82 Co70 2.137 1_546 S
O82 C73 1.247 . S
O83 Co70 2.244 1_545 S
O83 C73 1.272 1_554 S
O83 Co75 2.135 . S
Co84 O85 2.216 . S
Co84 O86 2.091 . S
Co84 O88 2.004 . S
Co84 O94 2.021 . S
Co84 O96 2.137 . S
Co84 O97 2.244 . S
O85 Co84 2.216 . S
O85 C92 1.247 . S
O86 Co84 2.091 . S
O86 C92 1.261 . S
C87 O96 1.247 . S
C87 O97 1.272 . S
O88 Co84 2.004 . S
O88 C93 1.259 . S
Co89 O90 2.061 . S
Co89 O95 2.052 . S
Co89 O97 2.135 . S
O90 Co89 2.061 . S
O90 C93 1.235 . S
C91 O94 1.238 . S
C91 O95 1.241 . S
C92 O85 1.247 . S
C92 O86 1.261 . S
C93 O88 1.259 . S
C93 O90 1.235 . S
O94 Co84 2.021 . S
O94 C91 1.238 . S
O95 Co89 2.052 . S
O95 C91 1.241 . S
O96 Co84 2.137 . S
O96 C87 1.247 . S
O97 Co84 2.244 . S
O97 C87 1.272 . S
O97 Co89 2.135 . S
Co98 O99 2.216 . S
Co98 O100 2.091 . S
Co98 O102 2.004 . S
Co98 O108 2.021 . S
Co98 O110 2.137 . S
Co98 O111 2.244 . S
O99 Co98 2.216 . S
O99 C106 1.247 . S
O100 Co98 2.091 . S
O100 C106 1.261 . S
C101 O110 1.275 . S
C101 O111 1.281 . S
O102 Co98 2.004 . S
O102 C107 1.259 . S
Co103 O104 2.061 . S
Co103 O109 2.052 . S
Co103 O111 2.135 . S
O104 Co103 2.061 . S
O104 C107 1.235 . S
C105 O108 1.238 . S
C105 O109 1.241 . S
C106 O99 1.247 . S
C106 O100 1.261 . S
C107 O102 1.259 . S
C107 O104 1.235 . S
O108 Co98 2.021 . S
O108 C105 1.238 . S
O109 Co103 2.052 . S
O109 C105 1.241 . S
O110 Co98 2.137 . S
O110 C101 1.275 . S
O111 Co98 2.244 . S
O111 C101 1.281 . S
O111 Co103 2.135 . S
Co112 O113 2.216 . S
Co112 O114 2.091 . S
Co112 O116 2.004 . S
Co112 O122 2.021 . S
Co112 O124 2.137 . S
Co112 O125 2.244 . S
O113 Co112 2.216 . S
O113 C120 1.247 . S
O114 Co112 2.091 . S
O114 C120 1.261 . S
C115 O124 1.247 . S
C115 O125 1.272 . S
O116 Co112 2.004 . S
O116 C121 1.259 . S
Co117 O118 2.061 . S
Co117 O123 2.052 . S
Co117 O125 2.135 . S
O118 Co117 2.061 . S
O118 C121 1.235 . S
C119 O122 1.238 . S
C119 O123 1.241 . S
C120 O113 1.247 . S
C120 O114 1.261 . S
C121 O116 1.259 . S
C121 O118 1.235 . S
O122 Co112 2.021 . S
O122 C119 1.238 . S
O123 Co117 2.052 . S
O123 C119 1.241 . S
O124 Co112 2.137 . S
O124 C115 1.247 . S
O125 Co112 2.244 . S
O125 C115 1.272 . S
O125 Co117 2.135 . S
Co126 O127 2.216 . S
Co126 O128 2.091 . S
Co126 O130 2.004 . S
Co126 O136 2.021 . S
Co126 O138 2.137 . S
Co126 O139 2.244 . S
O127 Co126 2.216 . S
O127 C134 1.247 . S
O128 Co126 2.091 . S
O128 C134 1.261 . S
C129 O138 1.244 . S
C129 O139 1.280 . S
O130 Co126 2.004 . S
O130 C135 1.259 . S
Co131 O132 2.061 . S
Co131 O137 2.052 . S
Co131 O139 2.135 . S
O132 Co131 2.061 . S
O132 C135 1.235 . S
C133 O136 1.238 . S
C133 O137 1.241 . S
C134 O127 1.247 . S
C134 O128 1.261 . S
C135 O130 1.259 . S
C135 O132 1.235 . S
O136 Co126 2.021 . S
O136 C133 1.238 . S
O137 Co131 2.052 . S
O137 C133 1.241 . S
O138 Co126 2.137 . S
O138 C129 1.244 . S
O139 Co126 2.244 . S
O139 C129 1.280 . S
O139 Co131 2.135 . S
Co140 O141 2.216 . S
Co140 O142 2.119 . S
Co140 O144 2.004 . S
Co140 O150 2.021 . S
Co140 O152 2.137 . S
Co140 O153 2.244 . S
O141 Co140 2.216 . S
O141 C148 1.247 1_455 S
O142 Co140 2.119 . S
O142 C148 1.262 1_455 S
C143 O152 1.247 . S
C143 O153 1.272 . S
O144 Co140 2.004 . S
O144 C149 1.259 . S
Co145 O146 2.061 . S
Co145 O151 2.052 . S
Co145 O153 2.135 . S
O146 Co145 2.061 . S
O146 C149 1.235 . S
C147 O150 1.238 . S
C147 O151 1.241 . S
C148 O141 1.247 1_655 S
C148 O142 1.262 1_655 S
C149 O144 1.259 . S
C149 O146 1.235 . S
O150 Co140 2.021 . S
O150 C147 1.238 . S
O151 Co145 2.052 . S
O151 C147 1.241 . S
O152 Co140 2.137 . S
O152 C143 1.247 . S
O153 Co140 2.244 . S
O153 C143 1.272 . S
O153 Co145 2.135 . S
Co154 O155 2.216 . S
Co154 O156 2.091 . S
Co154 O158 2.004 . S
Co154 O164 2.021 . S
Co154 O166 2.137 . S
Co154 O167 2.244 . S
O155 Co154 2.216 . S
O155 C162 1.247 . S
O156 Co154 2.091 . S
O156 C162 1.261 . S
C157 O166 1.247 . S
C157 O167 1.272 . S
O158 Co154 2.004 . S
O158 C163 1.259 . S
Co159 O160 2.061 . S
Co159 O165 2.052 . S
Co159 O167 2.135 . S
O160 Co159 2.061 . S
O160 C163 1.235 . S
C161 O164 1.238 . S
C161 O165 1.241 . S
C162 O155 1.247 . S
C162 O156 1.261 . S
C163 O158 1.259 . S
C163 O160 1.235 . S
O164 Co154 2.021 . S
O164 C161 1.238 . S
O165 Co159 2.052 . S
O165 C161 1.241 . S
O166 Co154 2.137 . S
O166 C157 1.247 . S
O167 Co154 2.244 . S
O167 C157 1.272 . S
O167 Co159 2.135 . S
Co168 O169 2.216 . S
Co168 O170 2.091 . S
Co168 O172 2.004 . S
Co168 O178 2.021 . S
Co168 O180 2.137 . S
Co168 O181 2.244 . S
O169 Co168 2.216 . S
O169 C176 1.247 . S
O170 Co168 2.091 . S
O170 C176 1.261 . S
C171 O180 1.247 . S
C171 O181 1.272 . S
O172 Co168 2.004 . S
O172 C177 1.259 . S
Co173 O174 2.061 . S
Co173 O179 2.052 . S
Co173 O181 2.135 . S
O174 Co173 2.061 . S
O174 C177 1.235 . S
C175 O178 1.238 . S
C175 O179 1.241 . S
C176 O169 1.247 . S
C176 O170 1.261 . S
C177 O172 1.259 . S
C177 O174 1.235 . S
O178 Co168 2.021 . S
O178 C175 1.238 . S
O179 Co173 2.052 . S
O179 C175 1.241 . S
O180 Co168 2.137 . S
O180 C171 1.247 . S
O181 Co168 2.244 . S
O181 C171 1.272 . S
O181 Co173 2.135 . S
Co182 O183 2.216 . S
Co182 O184 2.108 . S
Co182 O186 2.004 . S
Co182 O192 2.021 . S
Co182 O194 2.137 . S
Co182 O195 2.244 . S
O183 Co182 2.216 . S
O183 C190 1.247 1_655 S
O184 Co182 2.108 . S
O184 C190 1.262 1_655 S
C185 O194 1.247 . S
C185 O195 1.272 . S
O186 Co182 2.004 . S
O186 C191 1.259 . S
Co187 O188 2.061 . S
Co187 O193 2.052 . S
Co187 O195 2.135 . S
O188 Co187 2.061 . S
O188 C191 1.235 . S
C189 O192 1.238 . S
C189 O193 1.241 . S
C190 O183 1.247 1_455 S
C190 O184 1.262 1_455 S
C191 O186 1.259 . S
C191 O188 1.235 . S
O192 Co182 2.021 . S
O192 C189 1.238 . S
O193 Co187 2.052 . S
O193 C189 1.241 . S
O194 Co182 2.137 . S
O194 C185 1.247 . S
O195 Co182 2.244 . S
O195 C185 1.272 . S
O195 Co187 2.135 . S
Co196 O197 2.216 . S
Co196 O198 2.091 . S
Co196 O200 2.004 . S
Co196 O206 2.021 . S
Co196 O208 2.137 . S
Co196 O209 2.244 . S
O197 Co196 2.216 . S
O197 C204 1.247 . S
O198 Co196 2.091 . S
O198 C204 1.261 . S
C199 O208 1.247 . S
C199 O209 1.272 . S
O200 Co196 2.004 . S
O200 C205 1.259 . S
Co201 O202 2.061 . S
Co201 O207 2.052 . S
Co201 O209 2.135 . S
O202 Co201 2.061 . S
O202 C205 1.235 . S
C203 O206 1.238 . S
C203 O207 1.241 . S
C204 O197 1.247 . S
C204 O198 1.261 . S
C205 O200 1.259 . S
C205 O202 1.235 . S
O206 Co196 2.021 . S
O206 C203 1.238 . S
O207 Co201 2.052 . S
O207 C203 1.241 . S
O208 Co196 2.137 . S
O208 C199 1.247 . S
O209 Co196 2.244 . S
O209 C199 1.272 . S
O209 Co201 2.135 . S
Co210 O211 2.216 . S
Co210 O212 2.091 . S
Co210 O214 2.004 . S
Co210 O220 2.021 . S
Co210 O222 2.137 . S
Co210 O223 2.244 . S
O211 Co210 2.216 . S
O211 C218 1.247 . S
O212 Co210 2.091 . S
O212 C218 1.261 . S
C213 O222 1.247 . S
C213 O223 1.272 . S
O214 Co210 2.004 . S
O214 C219 1.259 . S
Co215 O216 2.061 . S
Co215 O221 2.052 . S
Co215 O223 2.135 . S
O216 Co215 2.061 . S
O216 C219 1.235 . S
C217 O220 1.238 . S
C217 O221 1.241 . S
C218 O211 1.247 . S
C218 O212 1.261 . S
C219 O214 1.259 . S
C219 O216 1.235 . S
O220 Co210 2.021 . S
O220 C217 1.238 . S
O221 Co215 2.052 . S
O221 C217 1.241 . S
O222 Co210 2.137 . S
O222 C213 1.247 . S
O223 Co210 2.244 . S
O223 C213 1.272 . S
O223 Co215 2.135 . S
Co224 O225 2.216 . S
Co224 O226 2.091 . S
Co224 O228 2.004 . S
Co224 O234 2.021 . S
Co224 O236 2.137 . S
Co224 O237 2.244 . S
O225 Co224 2.216 . S
O225 C232 1.247 . S
O226 Co224 2.091 . S
O226 C232 1.261 . S
C227 O236 1.247 . S
C227 O237 1.272 . S
O228 Co224 2.004 . S
O228 C233 1.259 . S
Co229 O230 2.061 . S
Co229 O235 2.052 . S
Co229 O237 2.135 . S
O230 Co229 2.061 . S
O230 C233 1.235 . S
C231 O234 1.238 . S
C231 O235 1.241 . S
C232 O225 1.247 . S
C232 O226 1.261 . S
C233 O228 1.259 . S
C233 O230 1.235 . S
O234 Co224 2.021 . S
O234 C231 1.238 . S
O235 Co229 2.052 . S
O235 C231 1.241 . S
O236 Co224 2.137 . S
O236 C227 1.247 . S
O237 Co224 2.244 . S
O237 C227 1.272 . S
O237 Co229 2.135 . S
Co238 O239 2.216 . S
Co238 O240 2.091 . S
Co238 O242 2.004 . S
Co238 O248 2.021 . S
Co238 O250 2.137 . S
Co238 O251 2.244 . S
O239 Co238 2.216 . S
O239 C246 1.247 . S
O240 Co238 2.091 . S
O240 C246 1.261 . S
C241 O250 1.247 . S
C241 O251 1.272 . S
O242 Co238 2.004 . S
O242 C247 1.259 . S
Co243 O244 2.061 . S
Co243 O249 2.052 . S
Co243 O251 2.135 . S
O244 Co243 2.061 . S
O244 C247 1.235 . S
C245 O248 1.238 . S
C245 O249 1.241 . S
C246 O239 1.247 . S
C246 O240 1.261 . S
C247 O242 1.259 . S
C247 O244 1.235 . S
O248 Co238 2.021 . S
O248 C245 1.238 . S
O249 Co243 2.052 . S
O249 C245 1.241 . S
O250 Co238 2.137 . S
O250 C241 1.247 . S
O251 Co238 2.244 . S
O251 C241 1.272 . S
O251 Co243 2.135 . S
H252 C279 0.929 . S
N253 C278 1.433 . S
N253 C284 1.435 . S
N253 C290 1.423 . S
H254 C280 0.930 . S
H255 C283 0.931 . S
H256 C282 0.929 . S
H257 C285 0.930 . S
H258 C286 0.932 . S
H259 C289 0.929 . S
H260 C288 0.931 . S
H261 C291 0.929 . S
H262 C295 0.932 . S
H263 C292 0.931 . S
H264 C294 0.929 . S
H265 C297 0.929 . S
H266 C298 0.930 . S
H267 C300 0.929 . S
H268 C301 0.931 . S
H269 C303 0.930 . S
H270 C304 0.932 . S
H271 C306 0.931 . S
H272 C307 0.929 . S
H273 C309 0.929 . S
H274 C310 0.931 . S
H275 C312 0.929 . S
N276 C296 1.433 . S
N276 C302 1.435 . S
N276 C308 1.423 . S
H277 C313 0.932 . S
C278 N253 1.433 . S
C278 C279 1.363 . S
C278 C283 1.370 . S
C279 H252 0.929 . S
C279 C278 1.363 . S
C279 C280 1.385 . S
C280 H254 0.930 . S
C280 C279 1.385 . S
C280 C281 1.357 . S
C281 C280 1.357 . S
C281 C282 1.406 . S
C282 H256 0.929 . S
C282 C281 1.406 . S
C282 C283 1.391 . S
C283 H255 0.931 . S
C283 C278 1.370 . S
C283 C282 1.391 . S
C284 N253 1.435 . S
C284 C285 1.358 . S
C284 C289 1.371 . S
C285 H257 0.930 . S
C285 C284 1.358 . S
C285 C286 1.405 . S
C286 H258 0.932 . S
C286 C285 1.405 . S
C286 C287 1.383 . S
C287 C286 1.383 . S
C287 C288 1.393 . S
C288 H260 0.931 . S
C288 C287 1.393 . S
C288 C289 1.382 . S
C289 H259 0.929 . S
C289 C284 1.371 . S
C289 C288 1.382 . S
C290 N253 1.423 . S
C290 C291 1.362 . S
C290 C295 1.388 . S
C291 H261 0.929 . S
C291 C290 1.362 . S
C291 C292 1.376 . S
C292 H263 0.931 . S
C292 C291 1.376 . S
C292 C293 1.396 . S
C293 C292 1.396 . S
C293 C294 1.348 . S
C293 C311 1.472 . S
C294 H264 0.929 . S
C294 C293 1.348 . S
C294 C295 1.443 . S
C295 H262 0.932 . S
C295 C290 1.388 . S
C295 C294 1.443 . S
C296 N276 1.433 . S
C296 C297 1.363 . S
C296 C301 1.370 . S
C297 H265 0.929 . S
C297 C296 1.363 . S
C297 C298 1.385 . S
C298 H266 0.930 . S
C298 C297 1.385 . S
C298 C299 1.357 . S
C299 C298 1.357 . S
C299 C300 1.406 . S
C300 H267 0.929 . S
C300 C299 1.406 . S
C300 C301 1.391 . S
C301 H268 0.931 . S
C301 C296 1.370 . S
C301 C300 1.391 . S
C302 N276 1.435 . S
C302 C303 1.358 . S
C302 C307 1.371 . S
C303 H269 0.930 . S
C303 C302 1.358 . S
C303 C304 1.405 . S
C304 H270 0.932 . S
C304 C303 1.405 . S
C304 C305 1.383 . S
C305 C304 1.383 . S
C305 C306 1.393 . S
C306 H271 0.931 . S
C306 C305 1.393 . S
C306 C307 1.382 . S
C307 H272 0.929 . S
C307 C302 1.371 . S
C307 C306 1.382 . S
C308 N276 1.423 . S
C308 C309 1.362 . S
C308 C313 1.388 . S
C309 H273 0.929 . S
C309 C308 1.362 . S
C309 C310 1.376 . S
C310 H274 0.931 . S
C310 C309 1.376 . S
C310 C311 1.396 . S
C311 C293 1.472 . S
C311 C310 1.396 . S
C311 C312 1.348 . S
C312 H275 0.929 . S
C312 C311 1.348 . S
C312 C313 1.443 . S
C313 H277 0.932 . S
C313 C308 1.388 . S
C313 C312 1.443 . S
H314 C341 0.929 . S
N315 C340 1.433 . S
N315 C346 1.435 . S
N315 C352 1.423 . S
H316 C342 0.930 . S
H317 C345 0.931 . S
H318 C344 0.929 . S
H319 C347 0.930 . S
H320 C348 0.932 . S
H321 C351 0.929 . S
H322 C350 0.931 . S
H323 C353 0.929 . S
H324 C357 0.932 . S
H325 C354 0.931 . S
H326 C356 0.929 . S
H327 C359 0.929 . S
H328 C360 0.930 . S
H329 C362 0.929 . S
H330 C363 0.931 . S
H331 C365 0.930 . S
H332 C366 0.932 . S
H333 C368 0.931 . S
H334 C369 0.929 . S
H335 C371 0.929 . S
H336 C372 0.931 . S
H337 C374 0.929 . S
N338 C358 1.433 . S
N338 C364 1.435 . S
N338 C370 1.423 . S
H339 C375 0.932 . S
C340 N315 1.433 . S
C340 C341 1.363 . S
C340 C345 1.370 . S
C341 H314 0.929 . S
C341 C340 1.363 . S
C341 C342 1.385 . S
C342 H316 0.930 . S
C342 C341 1.385 . S
C342 C343 1.357 . S
C343 C342 1.357 . S
C343 C344 1.406 . S
C344 H318 0.929 . S
C344 C343 1.406 . S
C344 C345 1.391 . S
C345 H317 0.931 . S
C345 C340 1.370 . S
C345 C344 1.391 . S
C346 N315 1.435 . S
C346 C347 1.358 . S
C346 C351 1.371 . S
C347 H319 0.930 . S
C347 C346 1.358 . S
C347 C348 1.405 . S
C348 H320 0.932 . S
C348 C347 1.405 . S
C348 C349 1.383 . S
C349 C348 1.383 . S
C349 C350 1.393 . S
C350 H322 0.931 . S
C350 C349 1.393 . S
C350 C351 1.382 . S
C351 H321 0.929 . S
C351 C346 1.371 . S
C351 C350 1.382 . S
C352 N315 1.423 . S
C352 C353 1.362 . S
C352 C357 1.388 . S
C353 H323 0.929 . S
C353 C352 1.362 . S
C353 C354 1.376 . S
C354 H325 0.931 . S
C354 C353 1.376 . S
C354 C355 1.396 . S
C355 C354 1.396 . S
C355 C356 1.348 . S
C355 C373 1.472 . S
C356 H326 0.929 . S
C356 C355 1.348 . S
C356 C357 1.443 . S
C357 H324 0.932 . S
C357 C352 1.388 . S
C357 C356 1.443 . S
C358 N338 1.433 . S
C358 C359 1.363 . S
C358 C363 1.370 . S
C359 H327 0.929 . S
C359 C358 1.363 . S
C359 C360 1.385 . S
C360 H328 0.930 . S
C360 C359 1.385 . S
C360 C361 1.357 . S
C361 C360 1.357 . S
C361 C362 1.406 . S
C362 H329 0.929 . S
C362 C361 1.406 . S
C362 C363 1.391 . S
C363 H330 0.931 . S
C363 C358 1.370 . S
C363 C362 1.391 . S
C364 N338 1.435 . S
C364 C365 1.358 . S
C364 C369 1.371 . S
C365 H331 0.930 . S
C365 C364 1.358 . S
C365 C366 1.405 . S
C366 H332 0.932 . S
C366 C365 1.405 . S
C366 C367 1.383 . S
C367 C366 1.383 . S
C367 C368 1.393 . S
C368 H333 0.931 . S
C368 C367 1.393 . S
C368 C369 1.382 . S
C369 H334 0.929 . S
C369 C364 1.371 . S
C369 C368 1.382 . S
C370 N338 1.423 . S
C370 C371 1.362 . S
C370 C375 1.388 . S
C371 H335 0.929 . S
C371 C370 1.362 . S
C371 C372 1.376 . S
C372 H336 0.931 . S
C372 C371 1.376 . S
C372 C373 1.396 . S
C373 C355 1.472 . S
C373 C372 1.396 . S
C373 C374 1.348 . S
C374 H337 0.929 . S
C374 C373 1.348 . S
C374 C375 1.443 . S
C375 H339 0.932 . S
C375 C370 1.388 . S
C375 C374 1.443 . S
H376 C403 0.929 . S
N377 C402 1.433 . S
N377 C408 1.435 . S
N377 C414 1.423 . S
H378 C404 0.930 . S
H379 C407 0.931 . S
H380 C406 0.929 . S
H381 C409 0.930 . S
H382 C410 0.932 . S
H383 C413 0.929 . S
H384 C412 0.931 . S
H385 C415 0.929 . S
H386 C419 0.932 . S
H387 C416 0.931 . S
H388 C418 0.929 . S
H389 C421 0.929 . S
H390 C422 0.930 . S
H391 C424 0.929 . S
H392 C425 0.931 . S
H393 C427 0.930 . S
H394 C428 0.932 . S
H395 C430 0.931 . S
H396 C431 0.929 . S
H397 C433 0.929 . S
H398 C434 0.931 . S
H399 C436 0.929 . S
N400 C420 1.433 . S
N400 C426 1.435 . S
N400 C432 1.423 . S
H401 C437 0.932 . S
C402 N377 1.433 . S
C402 C403 1.363 . S
C402 C407 1.370 . S
C403 H376 0.929 . S
C403 C402 1.363 . S
C403 C404 1.385 . S
C404 H378 0.930 . S
C404 C403 1.385 . S
C404 C405 1.357 . S
C405 C404 1.357 . S
C405 C406 1.406 . S
C406 H380 0.929 . S
C406 C405 1.406 . S
C406 C407 1.391 . S
C407 H379 0.931 . S
C407 C402 1.370 . S
C407 C406 1.391 . S
C408 N377 1.435 . S
C408 C409 1.358 . S
C408 C413 1.371 . S
C409 H381 0.930 . S
C409 C408 1.358 . S
C409 C410 1.405 . S
C410 H382 0.932 . S
C410 C409 1.405 . S
C410 C411 1.383 . S
C411 C410 1.383 . S
C411 C412 1.393 . S
C412 H384 0.931 . S
C412 C411 1.393 . S
C412 C413 1.382 . S
C413 H383 0.929 . S
C413 C408 1.371 . S
C413 C412 1.382 . S
C414 N377 1.423 . S
C414 C415 1.362 . S
C414 C419 1.388 . S
C415 H385 0.929 . S
C415 C414 1.362 . S
C415 C416 1.376 . S
C416 H387 0.931 . S
C416 C415 1.376 . S
C416 C417 1.396 . S
C417 C416 1.396 . S
C417 C418 1.348 . S
C417 C435 1.472 . S
C418 H388 0.929 . S
C418 C417 1.348 . S
C418 C419 1.443 . S
C419 H386 0.932 . S
C419 C414 1.388 . S
C419 C418 1.443 . S
C420 N400 1.433 . S
C420 C421 1.363 . S
C420 C425 1.370 . S
C421 H389 0.929 . S
C421 C420 1.363 . S
C421 C422 1.385 . S
C422 H390 0.930 . S
C422 C421 1.385 . S
C422 C423 1.357 . S
C423 C422 1.357 . S
C423 C424 1.406 . S
C424 H391 0.929 . S
C424 C423 1.406 . S
C424 C425 1.391 . S
C425 H392 0.931 . S
C425 C420 1.370 . S
C425 C424 1.391 . S
C426 N400 1.435 . S
C426 C427 1.358 . S
C426 C431 1.371 . S
C427 H393 0.930 . S
C427 C426 1.358 . S
C427 C428 1.405 . S
C428 H394 0.932 . S
C428 C427 1.405 . S
C428 C429 1.383 . S
C429 C428 1.383 . S
C429 C430 1.393 . S
C430 H395 0.931 . S
C430 C429 1.393 . S
C430 C431 1.382 . S
C431 H396 0.929 . S
C431 C426 1.371 . S
C431 C430 1.382 . S
C432 N400 1.423 . S
C432 C433 1.362 . S
C432 C437 1.388 . S
C433 H397 0.929 . S
C433 C432 1.362 . S
C433 C434 1.376 . S
C434 H398 0.931 . S
C434 C433 1.376 . S
C434 C435 1.396 . S
C435 C417 1.472 . S
C435 C434 1.396 . S
C435 C436 1.348 . S
C436 H399 0.929 . S
C436 C435 1.348 . S
C436 C437 1.443 . S
C437 H401 0.932 . S
C437 C432 1.388 . S
C437 C436 1.443 . S
H438 C465 0.929 . S
N439 C464 1.433 . S
N439 C470 1.435 . S
N439 C476 1.423 . S
H440 C466 0.930 . S
H441 C469 0.931 . S
H442 C468 0.929 . S
H443 C471 0.930 . S
H444 C472 0.932 . S
H445 C475 0.929 . S
H446 C474 0.931 . S
H447 C477 0.929 . S
H448 C481 0.932 . S
H449 C478 0.931 . S
H450 C480 0.929 . S
H451 C483 0.929 . S
H452 C484 0.930 . S
H453 C486 0.929 . S
H454 C487 0.931 . S
H455 C489 0.930 . S
H456 C490 0.932 . S
H457 C492 0.931 . S
H458 C493 0.929 . S
H459 C495 0.929 . S
H460 C496 0.931 . S
H461 C498 0.929 . S
N462 C482 1.433 . S
N462 C488 1.435 . S
N462 C494 1.423 . S
H463 C499 0.932 . S
C464 N439 1.433 . S
C464 C465 1.363 . S
C464 C469 1.370 . S
C465 H438 0.929 . S
C465 C464 1.363 . S
C465 C466 1.385 . S
C466 H440 0.930 . S
C466 C465 1.385 . S
C466 C467 1.357 . S
C467 C466 1.357 . S
C467 C468 1.406 . S
C468 H442 0.929 . S
C468 C467 1.406 . S
C468 C469 1.391 . S
C469 H441 0.931 . S
C469 C464 1.370 . S
C469 C468 1.391 . S
C470 N439 1.435 . S
C470 C471 1.358 . S
C470 C475 1.371 . S
C471 H443 0.930 . S
C471 C470 1.358 . S
C471 C472 1.405 . S
C472 H444 0.932 . S
C472 C471 1.405 . S
C472 C473 1.383 . S
C473 C472 1.383 . S
C473 C474 1.393 . S
C474 H446 0.931 . S
C474 C473 1.393 . S
C474 C475 1.382 . S
C475 H445 0.929 . S
C475 C470 1.371 . S
C475 C474 1.382 . S
C476 N439 1.423 . S
C476 C477 1.362 . S
C476 C481 1.388 . S
C477 H447 0.929 . S
C477 C476 1.362 . S
C477 C478 1.376 . S
C478 H449 0.931 . S
C478 C477 1.376 . S
C478 C479 1.396 . S
C479 C478 1.396 . S
C479 C480 1.348 . S
C479 C497 1.472 . S
C480 H450 0.929 . S
C480 C479 1.348 . S
C480 C481 1.443 . S
C481 H448 0.932 . S
C481 C476 1.388 . S
C481 C480 1.443 . S
C482 N462 1.433 . S
C482 C483 1.363 . S
C482 C487 1.370 . S
C483 H451 0.929 . S
C483 C482 1.363 . S
C483 C484 1.385 . S
C484 H452 0.930 . S
C484 C483 1.385 . S
C484 C485 1.357 . S
C485 C484 1.357 . S
C485 C486 1.406 . S
C486 H453 0.929 . S
C486 C485 1.406 . S
C486 C487 1.391 . S
C487 H454 0.931 . S
C487 C482 1.370 . S
C487 C486 1.391 . S
C488 N462 1.435 . S
C488 C489 1.358 . S
C488 C493 1.371 . S
C489 H455 0.930 . S
C489 C488 1.358 . S
C489 C490 1.405 . S
C490 H456 0.932 . S
C490 C489 1.405 . S
C490 C491 1.383 . S
C491 C490 1.383 . S
C491 C492 1.393 . S
C492 H457 0.931 . S
C492 C491 1.393 . S
C492 C493 1.382 . S
C493 H458 0.929 . S
C493 C488 1.371 . S
C493 C492 1.382 . S
C494 N462 1.423 . S
C494 C495 1.362 . S
C494 C499 1.388 . S
C495 H459 0.929 . S
C495 C494 1.362 . S
C495 C496 1.376 . S
C496 H460 0.931 . S
C496 C495 1.376 . S
C496 C497 1.396 . S
C497 C479 1.472 . S
C497 C496 1.396 . S
C497 C498 1.348 . S
C498 H461 0.929 . S
C498 C497 1.348 . S
C498 C499 1.443 . S
C499 H463 0.932 . S
C499 C494 1.388 . S
C499 C498 1.443 . S
H500 C527 0.929 . S
N501 C526 1.433 . S
N501 C532 1.435 . S
N501 C538 1.423 . S
H502 C528 0.930 . S
H503 C531 0.931 . S
H504 C530 0.929 . S
H505 C533 0.930 . S
H506 C534 0.932 . S
H507 C537 0.929 . S
H508 C536 0.931 . S
H509 C539 0.929 . S
H510 C543 0.932 . S
H511 C540 0.931 . S
H512 C542 0.929 . S
H513 C545 0.929 . S
H514 C546 0.930 . S
H515 C548 0.929 . S
H516 C549 0.931 . S
H517 C551 0.930 . S
H518 C552 0.932 . S
H519 C554 0.931 . S
H520 C555 0.929 . S
H521 C557 0.929 . S
H522 C558 0.931 . S
H523 C560 0.929 . S
N524 C544 1.433 . S
N524 C550 1.435 . S
N524 C556 1.423 . S
H525 C561 0.932 . S
C526 N501 1.433 . S
C526 C527 1.363 . S
C526 C531 1.370 . S
C527 H500 0.929 . S
C527 C526 1.363 . S
C527 C528 1.385 . S
C528 H502 0.930 . S
C528 C527 1.385 . S
C528 C529 1.357 . S
C529 C528 1.357 . S
C529 C530 1.406 . S
C530 H504 0.929 . S
C530 C529 1.406 . S
C530 C531 1.391 . S
C531 H503 0.931 . S
C531 C526 1.370 . S
C531 C530 1.391 . S
C532 N501 1.435 . S
C532 C533 1.358 . S
C532 C537 1.371 . S
C533 H505 0.930 . S
C533 C532 1.358 . S
C533 C534 1.405 . S
C534 H506 0.932 . S
C534 C533 1.405 . S
C534 C535 1.383 . S
C535 C534 1.383 . S
C535 C536 1.393 . S
C536 H508 0.931 . S
C536 C535 1.393 . S
C536 C537 1.382 . S
C537 H507 0.929 . S
C537 C532 1.371 . S
C537 C536 1.382 . S
C538 N501 1.423 . S
C538 C539 1.362 . S
C538 C543 1.388 . S
C539 H509 0.929 . S
C539 C538 1.362 . S
C539 C540 1.376 . S
C540 H511 0.931 . S
C540 C539 1.376 . S
C540 C541 1.396 . S
C541 C540 1.396 . S
C541 C542 1.348 . S
C541 C559 1.472 . S
C542 H512 0.929 . S
C542 C541 1.348 . S
C542 C543 1.443 . S
C543 H510 0.932 . S
C543 C538 1.388 . S
C543 C542 1.443 . S
C544 N524 1.433 . S
C544 C545 1.363 . S
C544 C549 1.370 . S
C545 H513 0.929 . S
C545 C544 1.363 . S
C545 C546 1.385 . S
C546 H514 0.930 . S
C546 C545 1.385 . S
C546 C547 1.357 . S
C547 C546 1.357 . S
C547 C548 1.406 . S
C548 H515 0.929 . S
C548 C547 1.406 . S
C548 C549 1.391 . S
C549 H516 0.931 . S
C549 C544 1.370 . S
C549 C548 1.391 . S
C550 N524 1.435 . S
C550 C551 1.358 . S
C550 C555 1.371 . S
C551 H517 0.930 . S
C551 C550 1.358 . S
C551 C552 1.405 . S
C552 H518 0.932 . S
C552 C551 1.405 . S
C552 C553 1.383 . S
C553 C552 1.383 . S
C553 C554 1.393 . S
C554 H519 0.931 . S
C554 C553 1.393 . S
C554 C555 1.382 . S
C555 H520 0.929 . S
C555 C550 1.371 . S
C555 C554 1.382 . S
C556 N524 1.423 . S
C556 C557 1.362 . S
C556 C561 1.388 . S
C557 H521 0.929 . S
C557 C556 1.362 . S
C557 C558 1.376 . S
C558 H522 0.931 . S
C558 C557 1.376 . S
C558 C559 1.396 . S
C559 C541 1.472 . S
C559 C558 1.396 . S
C559 C560 1.348 . S
C560 H523 0.929 . S
C560 C559 1.348 . S
C560 C561 1.443 . S
C561 H525 0.932 . S
C561 C556 1.388 . S
C561 C560 1.443 . S
H562 C589 0.929 . S
N563 C588 1.433 . S
N563 C594 1.435 . S
N563 C600 1.423 . S
H564 C590 0.930 . S
H565 C593 0.931 . S
H566 C592 0.929 . S
H567 C595 0.930 . S
H568 C596 0.932 . S
H569 C599 0.929 . S
H570 C598 0.931 . S
H571 C601 0.929 . S
H572 C605 0.932 . S
H573 C602 0.931 . S
H574 C604 0.929 . S
H575 C607 0.929 . S
H576 C608 0.930 . S
H577 C610 0.929 . S
H578 C611 0.931 . S
H579 C613 0.930 . S
H580 C614 0.932 . S
H581 C616 0.931 . S
H582 C617 0.929 . S
H583 C619 0.929 . S
H584 C620 0.931 . S
H585 C622 0.929 . S
N586 C606 1.433 . S
N586 C612 1.435 . S
N586 C618 1.423 . S
H587 C623 0.932 . S
C588 N563 1.433 . S
C588 C589 1.363 . S
C588 C593 1.370 . S
C589 H562 0.929 . S
C589 C588 1.363 . S
C589 C590 1.385 . S
C590 H564 0.930 . S
C590 C589 1.385 . S
C590 C591 1.357 . S
C591 C590 1.357 . S
C591 C592 1.406 . S
C592 H566 0.929 . S
C592 C591 1.406 . S
C592 C593 1.391 . S
C593 H565 0.931 . S
C593 C588 1.370 . S
C593 C592 1.391 . S
C594 N563 1.435 . S
C594 C595 1.358 . S
C594 C599 1.371 . S
C595 H567 0.930 . S
C595 C594 1.358 . S
C595 C596 1.405 . S
C596 H568 0.932 . S
C596 C595 1.405 . S
C596 C597 1.383 . S
C597 C596 1.383 . S
C597 C598 1.393 . S
C598 H570 0.931 . S
C598 C597 1.393 . S
C598 C599 1.382 . S
C599 H569 0.929 . S
C599 C594 1.371 . S
C599 C598 1.382 . S
C600 N563 1.423 . S
C600 C601 1.362 . S
C600 C605 1.388 . S
C601 H571 0.929 . S
C601 C600 1.362 . S
C601 C602 1.376 . S
C602 H573 0.931 . S
C602 C601 1.376 . S
C602 C603 1.396 . S
C603 C602 1.396 . S
C603 C604 1.348 . S
C603 C621 1.472 . S
C604 H574 0.929 . S
C604 C603 1.348 . S
C604 C605 1.443 . S
C605 H572 0.932 . S
C605 C600 1.388 . S
C605 C604 1.443 . S
C606 N586 1.433 . S
C606 C607 1.363 . S
C606 C611 1.370 . S
C607 H575 0.929 . S
C607 C606 1.363 . S
C607 C608 1.385 . S
C608 H576 0.930 . S
C608 C607 1.385 . S
C608 C609 1.357 . S
C609 C608 1.357 . S
C609 C610 1.406 . S
C610 H577 0.929 . S
C610 C609 1.406 . S
C610 C611 1.391 . S
C611 H578 0.931 . S
C611 C606 1.370 . S
C611 C610 1.391 . S
C612 N586 1.435 . S
C612 C613 1.358 . S
C612 C617 1.371 . S
C613 H579 0.930 . S
C613 C612 1.358 . S
C613 C614 1.405 . S
C614 H580 0.932 . S
C614 C613 1.405 . S
C614 C615 1.383 . S
C615 C614 1.383 . S
C615 C616 1.393 . S
C616 H581 0.931 . S
C616 C615 1.393 . S
C616 C617 1.382 . S
C617 H582 0.929 . S
C617 C612 1.371 . S
C617 C616 1.382 . S
C618 N586 1.423 . S
C618 C619 1.362 . S
C618 C623 1.388 . S
C619 H583 0.929 . S
C619 C618 1.362 . S
C619 C620 1.376 . S
C620 H584 0.931 . S
C620 C619 1.376 . S
C620 C621 1.396 . S
C621 C603 1.472 . S
C621 C620 1.396 . S
C621 C622 1.348 . S
C622 H585 0.929 . S
C622 C621 1.348 . S
C622 C623 1.443 . S
C623 H587 0.932 . S
C623 C618 1.388 . S
C623 C622 1.443 . S
H624 C651 0.929 . S
N625 C650 1.433 . S
N625 C656 1.435 . S
N625 C662 1.423 . S
H626 C652 0.930 . S
H627 C655 0.931 . S
H628 C654 0.929 . S
H629 C657 0.930 . S
H630 C658 0.932 . S
H631 C661 0.929 . S
H632 C660 0.931 . S
H633 C663 0.929 . S
H634 C667 0.932 . S
H635 C664 0.931 . S
H636 C666 0.929 . S
H637 C669 0.929 . S
H638 C670 0.930 . S
H639 C672 0.929 . S
H640 C673 0.931 . S
H641 C675 0.930 . S
H642 C676 0.932 . S
H643 C678 0.931 . S
H644 C679 0.929 . S
H645 C681 0.929 . S
H646 C682 0.931 . S
H647 C684 0.929 . S
N648 C668 1.433 . S
N648 C674 1.435 . S
N648 C680 1.423 . S
H649 C685 0.932 . S
C650 N625 1.433 . S
C650 C651 1.363 . S
C650 C655 1.370 . S
C651 H624 0.929 . S
C651 C650 1.363 . S
C651 C652 1.385 . S
C652 H626 0.930 . S
C652 C651 1.385 . S
C652 C653 1.357 . S
C653 C652 1.357 . S
C653 C654 1.406 . S
C654 H628 0.929 . S
C654 C653 1.406 . S
C654 C655 1.391 . S
C655 H627 0.931 . S
C655 C650 1.370 . S
C655 C654 1.391 . S
C656 N625 1.435 . S
C656 C657 1.358 . S
C656 C661 1.371 . S
C657 H629 0.930 . S
C657 C656 1.358 . S
C657 C658 1.405 . S
C658 H630 0.932 . S
C658 C657 1.405 . S
C658 C659 1.383 . S
C659 C658 1.383 . S
C659 C660 1.393 . S
C660 H632 0.931 . S
C660 C659 1.393 . S
C660 C661 1.382 . S
C661 H631 0.929 . S
C661 C656 1.371 . S
C661 C660 1.382 . S
C662 N625 1.423 . S
C662 C663 1.362 . S
C662 C667 1.388 . S
C663 H633 0.929 . S
C663 C662 1.362 . S
C663 C664 1.376 . S
C664 H635 0.931 . S
C664 C663 1.376 . S
C664 C665 1.396 . S
C665 C664 1.396 . S
C665 C666 1.348 . S
C665 C683 1.472 . S
C666 H636 0.929 . S
C666 C665 1.348 . S
C666 C667 1.443 . S
C667 H634 0.932 . S
C667 C662 1.388 . S
C667 C666 1.443 . S
C668 N648 1.433 . S
C668 C669 1.363 . S
C668 C673 1.370 . S
C669 H637 0.929 . S
C669 C668 1.363 . S
C669 C670 1.385 . S
C670 H638 0.930 . S
C670 C669 1.385 . S
C670 C671 1.357 . S
C671 C670 1.357 . S
C671 C672 1.406 . S
C672 H639 0.929 . S
C672 C671 1.406 . S
C672 C673 1.391 . S
C673 H640 0.931 . S
C673 C668 1.370 . S
C673 C672 1.391 . S
C674 N648 1.435 . S
C674 C675 1.358 . S
C674 C679 1.371 . S
C675 H641 0.930 . S
C675 C674 1.358 . S
C675 C676 1.405 . S
C676 H642 0.932 . S
C676 C675 1.405 . S
C676 C677 1.383 . S
C677 C676 1.383 . S
C677 C678 1.393 . S
C678 H643 0.931 . S
C678 C677 1.393 . S
C678 C679 1.382 . S
C679 H644 0.929 . S
C679 C674 1.371 . S
C679 C678 1.382 . S
C680 N648 1.423 . S
C680 C681 1.362 . S
C680 C685 1.388 . S
C681 H645 0.929 . S
C681 C680 1.362 . S
C681 C682 1.376 . S
C682 H646 0.931 . S
C682 C681 1.376 . S
C682 C683 1.396 . S
C683 C665 1.472 . S
C683 C682 1.396 . S
C683 C684 1.348 . S
C684 H647 0.929 . S
C684 C683 1.348 . S
C684 C685 1.443 . S
C685 H649 0.932 . S
C685 C680 1.388 . S
C685 C684 1.443 . S
H686 C713 0.929 . S
N687 C712 1.433 . S
N687 C718 1.435 . S
N687 C724 1.423 . S
H688 C714 0.930 . S
H689 C717 0.931 . S
H690 C716 0.929 . S
H691 C719 0.930 . S
H692 C720 0.932 . S
H693 C723 0.929 . S
H694 C722 0.931 . S
H695 C725 0.929 . S
H696 C729 0.932 . S
H697 C726 0.931 . S
H698 C728 0.929 . S
H699 C731 0.929 . S
H700 C732 0.930 . S
H701 C734 0.929 . S
H702 C735 0.931 . S
H703 C737 0.930 . S
H704 C738 0.932 . S
H705 C740 0.931 . S
H706 C741 0.929 . S
H707 C743 0.929 . S
H708 C744 0.931 . S
H709 C746 0.929 . S
N710 C730 1.433 . S
N710 C736 1.435 . S
N710 C742 1.423 . S
H711 C747 0.932 . S
C712 N687 1.433 . S
C712 C713 1.363 . S
C712 C717 1.370 . S
C713 H686 0.929 . S
C713 C712 1.363 . S
C713 C714 1.385 . S
C714 H688 0.930 . S
C714 C713 1.385 . S
C714 C715 1.357 . S
C715 C714 1.357 . S
C715 C716 1.406 . S
C716 H690 0.929 . S
C716 C715 1.406 . S
C716 C717 1.391 . S
C717 H689 0.931 . S
C717 C712 1.370 . S
C717 C716 1.391 . S
C718 N687 1.435 . S
C718 C719 1.358 . S
C718 C723 1.371 . S
C719 H691 0.930 . S
C719 C718 1.358 . S
C719 C720 1.405 . S
C720 H692 0.932 . S
C720 C719 1.405 . S
C720 C721 1.383 . S
C721 C720 1.383 . S
C721 C722 1.393 . S
C722 H694 0.931 . S
C722 C721 1.393 . S
C722 C723 1.382 . S
C723 H693 0.929 . S
C723 C718 1.371 . S
C723 C722 1.382 . S
C724 N687 1.423 . S
C724 C725 1.362 . S
C724 C729 1.388 . S
C725 H695 0.929 . S
C725 C724 1.362 . S
C725 C726 1.376 . S
C726 H697 0.931 . S
C726 C725 1.376 . S
C726 C727 1.396 . S
C727 C726 1.396 . S
C727 C728 1.348 . S
C727 C745 1.472 . S
C728 H698 0.929 . S
C728 C727 1.348 . S
C728 C729 1.443 . S
C729 H696 0.932 . S
C729 C724 1.388 . S
C729 C728 1.443 . S
C730 N710 1.433 . S
C730 C731 1.363 . S
C730 C735 1.370 . S
C731 H699 0.929 . S
C731 C730 1.363 . S
C731 C732 1.385 . S
C732 H700 0.930 . S
C732 C731 1.385 . S
C732 C733 1.357 . S
C733 C732 1.357 . S
C733 C734 1.406 . S
C734 H701 0.929 . S
C734 C733 1.406 . S
C734 C735 1.391 . S
C735 H702 0.931 . S
C735 C730 1.370 . S
C735 C734 1.391 . S
C736 N710 1.435 . S
C736 C737 1.358 . S
C736 C741 1.371 . S
C737 H703 0.930 . S
C737 C736 1.358 . S
C737 C738 1.405 . S
C738 H704 0.932 . S
C738 C737 1.405 . S
C738 C739 1.383 . S
C739 C738 1.383 . S
C739 C740 1.393 . S
C740 H705 0.931 . S
C740 C739 1.393 . S
C740 C741 1.382 . S
C741 H706 0.929 . S
C741 C736 1.371 . S
C741 C740 1.382 . S
C742 N710 1.423 . S
C742 C743 1.362 . S
C742 C747 1.388 . S
C743 H707 0.929 . S
C743 C742 1.362 . S
C743 C744 1.376 . S
C744 H708 0.931 . S
C744 C743 1.376 . S
C744 C745 1.396 . S
C745 C727 1.472 . S
C745 C744 1.396 . S
C745 C746 1.348 . S
C746 H709 0.929 . S
C746 C745 1.348 . S
C746 C747 1.443 . S
C747 H711 0.932 . S
C747 C742 1.388 . S
C747 C746 1.443 . S
H748 C775 0.929 . S
N749 C774 1.433 . S
N749 C780 1.435 . S
N749 C786 1.423 . S
H750 C776 0.930 . S
H751 C779 0.931 . S
H752 C778 0.929 . S
H753 C781 0.930 . S
H754 C782 0.932 . S
H755 C785 0.929 . S
H756 C784 0.931 . S
H757 C787 0.929 . S
H758 C791 0.932 . S
H759 C788 0.931 . S
H760 C790 0.929 . S
H761 C793 0.929 . S
H762 C794 0.930 . S
H763 C796 0.929 . S
H764 C797 0.931 . S
H765 C799 0.930 . S
H766 C800 0.932 . S
H767 C802 0.931 . S
H768 C803 0.929 . S
H769 C805 0.929 . S
H770 C806 0.931 . S
H771 C808 0.929 . S
N772 C792 1.433 . S
N772 C798 1.435 . S
N772 C804 1.423 . S
H773 C809 0.932 . S
C774 N749 1.433 . S
C774 C775 1.363 . S
C774 C779 1.370 . S
C775 H748 0.929 . S
C775 C774 1.363 . S
C775 C776 1.385 . S
C776 H750 0.930 . S
C776 C775 1.385 . S
C776 C777 1.357 . S
C777 C776 1.357 . S
C777 C778 1.406 . S
C778 H752 0.929 . S
C778 C777 1.406 . S
C778 C779 1.391 . S
C779 H751 0.931 . S
C779 C774 1.370 . S
C779 C778 1.391 . S
C780 N749 1.435 . S
C780 C781 1.358 . S
C780 C785 1.371 . S
C781 H753 0.930 . S
C781 C780 1.358 . S
C781 C782 1.405 . S
C782 H754 0.932 . S
C782 C781 1.405 . S
C782 C783 1.383 . S
C783 C782 1.383 . S
C783 C784 1.393 . S
C784 H756 0.931 . S
C784 C783 1.393 . S
C784 C785 1.382 . S
C785 H755 0.929 . S
C785 C780 1.371 . S
C785 C784 1.382 . S
C786 N749 1.423 . S
C786 C787 1.362 . S
C786 C791 1.388 . S
C787 H757 0.929 . S
C787 C786 1.362 . S
C787 C788 1.376 . S
C788 H759 0.931 . S
C788 C787 1.376 . S
C788 C789 1.396 . S
C789 C788 1.396 . S
C789 C790 1.348 . S
C789 C807 1.472 . S
C790 H760 0.929 . S
C790 C789 1.348 . S
C790 C791 1.443 . S
C791 H758 0.932 . S
C791 C786 1.388 . S
C791 C790 1.443 . S
C792 N772 1.433 . S
C792 C793 1.363 . S
C792 C797 1.370 . S
C793 H761 0.929 . S
C793 C792 1.363 . S
C793 C794 1.385 . S
C794 H762 0.930 . S
C794 C793 1.385 . S
C794 C795 1.357 . S
C795 C794 1.357 . S
C795 C796 1.406 . S
C796 H763 0.929 . S
C796 C795 1.406 . S
C796 C797 1.391 . S
C797 H764 0.931 . S
C797 C792 1.370 . S
C797 C796 1.391 . S
C798 N772 1.435 . S
C798 C799 1.358 . S
C798 C803 1.371 . S
C799 H765 0.930 . S
C799 C798 1.358 . S
C799 C800 1.405 . S
C800 H766 0.932 . S
C800 C799 1.405 . S
C800 C801 1.383 . S
C801 C800 1.383 . S
C801 C802 1.393 . S
C802 H767 0.931 . S
C802 C801 1.393 . S
C802 C803 1.382 . S
C803 H768 0.929 . S
C803 C798 1.371 . S
C803 C802 1.382 . S
C804 N772 1.423 . S
C804 C805 1.362 . S
C804 C809 1.388 . S
C805 H769 0.929 . S
C805 C804 1.362 . S
C805 C806 1.376 . S
C806 H770 0.931 . S
C806 C805 1.376 . S
C806 C807 1.396 . S
C807 C789 1.472 . S
C807 C806 1.396 . S
C807 C808 1.348 . S
C808 H771 0.929 . S
C808 C807 1.348 . S
C808 C809 1.443 . S
C809 H773 0.932 . S
C809 C804 1.388 . S
C809 C808 1.443 . S
H810 C837 0.929 . S
N811 C836 1.433 . S
N811 C842 1.435 . S
N811 C848 1.423 . S
H812 C838 0.930 . S
H813 C841 0.931 . S
H814 C840 0.929 . S
H815 C843 0.930 . S
H816 C844 0.932 . S
H817 C847 0.929 . S
H818 C846 0.931 . S
H819 C849 0.929 . S
H820 C853 0.932 1_655 S
H821 C850 0.931 . S
H822 C852 0.936 . S
H823 C855 0.929 . S
H824 C856 0.930 . S
H825 C858 0.929 . S
H826 C859 0.931 . S
H827 C861 0.930 . S
H828 C862 0.932 . S
H829 C864 0.931 . S
H830 C865 0.929 . S
H831 C867 0.929 . S
H832 C868 0.931 . S
H833 C870 0.978 . S
N834 C854 1.433 . S
N834 C860 1.435 . S
N834 C866 1.423 . S
H835 C871 0.932 1_655 S
C836 N811 1.433 . S
C836 C837 1.363 . S
C836 C841 1.370 1_455 S
C837 H810 0.929 . S
C837 C836 1.363 . S
C837 C838 1.385 . S
C838 H812 0.930 . S
C838 C837 1.385 . S
C838 C839 1.357 1_455 S
C839 C838 1.357 1_655 S
C839 C840 1.406 . S
C840 H814 0.929 . S
C840 C839 1.406 . S
C840 C841 1.391 . S
C841 H813 0.931 . S
C841 C836 1.370 1_655 S
C841 C840 1.391 . S
C842 N811 1.435 . S
C842 C843 1.358 1_455 S
C842 C847 1.371 . S
C843 H815 0.930 . S
C843 C842 1.358 1_655 S
C843 C844 1.405 . S
C844 H816 0.932 . S
C844 C843 1.405 . S
C844 C845 1.383 1_655 S
C845 C844 1.383 1_455 S
C845 C846 1.393 . S
C846 H818 0.931 . S
C846 C845 1.393 . S
C846 C847 1.382 . S
C847 H817 0.929 . S
C847 C842 1.371 . S
C847 C846 1.382 . S
C848 N811 1.423 . S
C848 C849 1.362 . S
C848 C853 1.388 . S
C849 H819 0.929 . S
C849 C848 1.362 . S
C849 C850 1.376 . S
C850 H821 0.931 . S
C850 C849 1.376 . S
C850 C851 1.396 . S
C851 C850 1.396 . S
C851 C852 1.348 . S
C851 C869 1.472 . S
C852 H822 0.936 . S
C852 C851 1.348 . S
C852 C853 1.443 . S
C853 H820 0.932 1_455 S
C853 C848 1.388 . S
C853 C852 1.443 . S
C854 N834 1.433 . S
C854 C855 1.363 . S
C854 C859 1.370 1_455 S
C855 H823 0.929 . S
C855 C854 1.363 . S
C855 C856 1.385 . S
C856 H824 0.930 . S
C856 C855 1.385 . S
C856 C857 1.357 1_455 S
C857 C856 1.357 1_655 S
C857 C858 1.406 . S
C858 H825 0.929 . S
C858 C857 1.406 . S
C858 C859 1.391 . S
C859 H826 0.931 . S
C859 C854 1.370 1_655 S
C859 C858 1.391 . S
C860 N834 1.435 . S
C860 C861 1.358 1_455 S
C860 C865 1.371 . S
C861 H827 0.930 . S
C861 C860 1.358 1_655 S
C861 C862 1.405 . S
C862 H828 0.932 . S
C862 C861 1.405 . S
C862 C863 1.383 1_655 S
C863 C862 1.383 1_455 S
C863 C864 1.393 . S
C864 H829 0.931 . S
C864 C863 1.393 . S
C864 C865 1.382 . S
C865 H830 0.929 . S
C865 C860 1.371 . S
C865 C864 1.382 . S
C866 N834 1.423 . S
C866 C867 1.362 . S
C866 C871 1.388 . S
C867 H831 0.929 . S
C867 C866 1.362 . S
C867 C868 1.376 . S
C868 H832 0.931 . S
C868 C867 1.376 . S
C868 C869 1.396 . S
C869 C851 1.472 . S
C869 C868 1.396 . S
C869 C870 1.348 . S
C870 H833 0.978 . S
C870 C869 1.348 . S
C870 C871 1.443 . S
C871 H835 0.932 1_455 S
C871 C866 1.388 . S
C871 C870 1.443 . S
H872 C899 0.929 . S
N873 C898 1.433 . S
N873 C904 1.435 . S
N873 C910 1.423 . S
H874 C900 0.930 . S
H875 C903 0.931 . S
H876 C902 0.929 . S
H877 C905 0.930 . S
H878 C906 0.932 . S
H879 C909 0.929 . S
H880 C908 0.931 . S
H881 C911 0.929 . S
H882 C915 0.932 . S
H883 C912 0.931 . S
H884 C914 0.929 . S
H885 C917 0.929 . S
H886 C918 0.930 . S
H887 C920 0.929 . S
H888 C921 0.931 . S
H889 C923 0.930 . S
H890 C924 0.932 . S
H891 C926 0.931 . S
H892 C927 0.929 . S
H893 C929 0.929 . S
H894 C930 0.931 . S
H895 C932 0.929 . S
N896 C916 1.433 . S
N896 C922 1.435 . S
N896 C928 1.423 . S
H897 C933 0.932 . S
C898 N873 1.433 . S
C898 C899 1.363 . S
C898 C903 1.370 . S
C899 H872 0.929 . S
C899 C898 1.363 . S
C899 C900 1.385 . S
C900 H874 0.930 . S
C900 C899 1.385 . S
C900 C901 1.357 . S
C901 C900 1.357 . S
C901 C902 1.406 . S
C902 H876 0.929 . S
C902 C901 1.406 . S
C902 C903 1.391 . S
C903 H875 0.931 . S
C903 C898 1.370 . S
C903 C902 1.391 . S
C904 N873 1.435 . S
C904 C905 1.358 . S
C904 C909 1.371 . S
C905 H877 0.930 . S
C905 C904 1.358 . S
C905 C906 1.405 . S
C906 H878 0.932 . S
C906 C905 1.405 . S
C906 C907 1.383 . S
C907 C906 1.383 . S
C907 C908 1.393 . S
C908 H880 0.931 . S
C908 C907 1.393 . S
C908 C909 1.382 . S
C909 H879 0.929 . S
C909 C904 1.371 . S
C909 C908 1.382 . S
C910 N873 1.423 . S
C910 C911 1.362 . S
C910 C915 1.388 . S
C911 H881 0.929 . S
C911 C910 1.362 . S
C911 C912 1.376 . S
C912 H883 0.931 . S
C912 C911 1.376 . S
C912 C913 1.396 . S
C913 C912 1.396 . S
C913 C914 1.348 . S
C913 C931 1.472 . S
C914 H884 0.929 . S
C914 C913 1.348 . S
C914 C915 1.443 . S
C915 H882 0.932 . S
C915 C910 1.388 . S
C915 C914 1.443 . S
C916 N896 1.433 . S
C916 C917 1.363 . S
C916 C921 1.370 . S
C917 H885 0.929 . S
C917 C916 1.363 . S
C917 C918 1.385 . S
C918 H886 0.930 . S
C918 C917 1.385 . S
C918 C919 1.357 . S
C919 C918 1.357 . S
C919 C920 1.406 . S
C920 H887 0.929 . S
C920 C919 1.406 . S
C920 C921 1.391 . S
C921 H888 0.931 . S
C921 C916 1.370 . S
C921 C920 1.391 . S
C922 N896 1.435 . S
C922 C923 1.358 . S
C922 C927 1.371 . S
C923 H889 0.930 . S
C923 C922 1.358 . S
C923 C924 1.405 . S
C924 H890 0.932 . S
C924 C923 1.405 . S
C924 C925 1.383 . S
C925 C924 1.383 . S
C925 C926 1.393 . S
C926 H891 0.931 . S
C926 C925 1.393 . S
C926 C927 1.382 . S
C927 H892 0.929 . S
C927 C922 1.371 . S
C927 C926 1.382 . S
C928 N896 1.423 . S
C928 C929 1.362 . S
C928 C933 1.388 . S
C929 H893 0.929 . S
C929 C928 1.362 . S
C929 C930 1.376 . S
C930 H894 0.931 . S
C930 C929 1.376 . S
C930 C931 1.396 . S
C931 C913 1.472 . S
C931 C930 1.396 . S
C931 C932 1.348 . S
C932 H895 0.929 . S
C932 C931 1.348 . S
C932 C933 1.443 . S
C933 H897 0.932 . S
C933 C928 1.388 . S
C933 C932 1.443 . S
H934 C961 0.929 . S
N935 C960 1.433 . S
N935 C966 1.435 . S
N935 C972 1.423 . S
H936 C962 0.930 . S
H937 C965 0.931 . S
H938 C964 0.929 . S
H939 C967 0.930 . S
H940 C968 0.932 . S
H941 C971 0.929 . S
H942 C970 0.931 . S
H943 C973 0.929 . S
H944 C977 0.932 1_545 S
H945 C974 0.931 . S
H946 C976 0.983 . S
H947 C979 0.929 . S
H948 C980 0.930 . S
H949 C982 0.929 . S
H950 C983 0.931 . S
H951 C985 0.930 . S
H952 C986 0.932 . S
H953 C988 0.931 . S
H954 C989 0.929 . S
H955 C991 0.929 . S
H956 C992 0.931 . S
H957 C994 0.937 . S
N958 C978 1.433 . S
N958 C984 1.435 . S
N958 C990 1.423 . S
H959 C995 0.932 1_545 S
C960 N935 1.433 . S
C960 C961 1.363 . S
C960 C965 1.370 1_565 S
C961 H934 0.929 . S
C961 C960 1.363 . S
C961 C962 1.385 . S
C962 H936 0.930 . S
C962 C961 1.385 . S
C962 C963 1.357 1_565 S
C963 C962 1.357 1_545 S
C963 C964 1.406 . S
C964 H938 0.929 . S
C964 C963 1.406 . S
C964 C965 1.391 . S
C965 H937 0.931 . S
C965 C960 1.370 1_545 S
C965 C964 1.391 . S
C966 N935 1.435 . S
C966 C967 1.358 1_565 S
C966 C971 1.371 . S
C967 H939 0.930 . S
C967 C966 1.358 1_545 S
C967 C968 1.405 . S
C968 H940 0.932 . S
C968 C967 1.405 . S
C968 C969 1.383 1_545 S
C969 C968 1.383 1_565 S
C969 C970 1.393 . S
C970 H942 0.931 . S
C970 C969 1.393 . S
C970 C971 1.382 . S
C971 H941 0.929 . S
C971 C966 1.371 . S
C971 C970 1.382 . S
C972 N935 1.423 . S
C972 C973 1.362 . S
C972 C977 1.388 . S
C973 H943 0.929 . S
C973 C972 1.362 . S
C973 C974 1.376 . S
C974 H945 0.931 . S
C974 C973 1.376 . S
C974 C975 1.396 . S
C975 C974 1.396 . S
C975 C976 1.348 . S
C975 C993 1.472 . S
C976 H946 0.983 . S
C976 C975 1.348 . S
C976 C977 1.443 . S
C977 H944 0.932 1_565 S
C977 C972 1.388 . S
C977 C976 1.443 . S
C978 N958 1.433 . S
C978 C979 1.363 . S
C978 C983 1.370 1_565 S
C979 H947 0.929 . S
C979 C978 1.363 . S
C979 C980 1.385 . S
C980 H948 0.930 . S
C980 C979 1.385 . S
C980 C981 1.357 1_565 S
C981 C980 1.357 1_545 S
C981 C982 1.406 . S
C982 H949 0.929 . S
C982 C981 1.406 . S
C982 C983 1.391 . S
C983 H950 0.931 . S
C983 C978 1.370 1_545 S
C983 C982 1.391 . S
C984 N958 1.435 . S
C984 C985 1.358 1_565 S
C984 C989 1.371 . S
C985 H951 0.930 . S
C985 C984 1.358 1_545 S
C985 C986 1.405 . S
C986 H952 0.932 . S
C986 C985 1.405 . S
C986 C987 1.383 1_545 S
C987 C986 1.383 1_565 S
C987 C988 1.393 . S
C988 H953 0.931 . S
C988 C987 1.393 . S
C988 C989 1.382 . S
C989 H954 0.929 . S
C989 C984 1.371 . S
C989 C988 1.382 . S
C990 N958 1.423 . S
C990 C991 1.362 . S
C990 C995 1.388 . S
C991 H955 0.929 . S
C991 C990 1.362 . S
C991 C992 1.376 . S
C992 H956 0.931 . S
C992 C991 1.376 . S
C992 C993 1.396 . S
C993 C975 1.472 . S
C993 C992 1.396 . S
C993 C994 1.348 . S
C994 H957 0.937 . S
C994 C993 1.348 . S
C994 C995 1.443 . S
C995 H959 0.932 1_565 S
C995 C990 1.388 . S
C995 C994 1.443 . S
H996 C1023 0.929 . S
N997 C1022 1.433 . S
N997 C1028 1.435 . S
N997 C1034 1.423 . S
H998 C1024 0.930 . S
H999 C1027 0.931 . S
H1000 C1026 0.929 . S
H1001 C1029 0.930 . S
H1002 C1030 0.932 . S
H1003 C1033 0.929 . S
H1004 C1032 0.931 . S
H1005 C1035 0.929 . S
H1006 C1039 0.932 . S
H1007 C1036 0.931 . S
H1008 C1038 0.918 1_545 S
H1009 C1041 0.929 . S
H1010 C1042 0.930 . S
H1011 C1044 0.929 . S
H1012 C1045 0.990 . S
H1013 C1047 0.930 . S
H1014 C1048 0.932 . S
H1015 C1050 0.931 . S
H1016 C1051 0.929 . S
H1017 C1053 0.929 . S
H1018 C1054 0.931 . S
H1019 C1056 0.875 1_545 S
N1020 C1040 1.433 . S
N1020 C1046 1.435 . S
N1020 C1052 1.423 . S
H1021 C1057 0.957 . S
C1022 N997 1.433 . S
C1022 C1023 1.363 . S
C1022 C1027 1.370 1_565 S
C1023 H996 0.929 . S
C1023 C1022 1.363 . S
C1023 C1024 1.385 . S
C1024 H998 0.930 . S
C1024 C1023 1.385 . S
C1024 C1025 1.357 . S
C1025 C1024 1.357 . S
C1025 C1026 1.406 1_565 S
C1026 H1000 0.929 . S
C1026 C1025 1.406 1_545 S
C1026 C1027 1.391 . S
C1027 H999 0.931 . S
C1027 C1022 1.370 1_545 S
C1027 C1026 1.391 . S
C1028 N997 1.435 . S
C1028 C1029 1.358 1_565 S
C1028 C1033 1.371 . S
C1029 H1001 0.930 . S
C1029 C1028 1.358 1_545 S
C1029 C1030 1.405 . S
C1030 H1002 0.932 . S
C1030 C1029 1.405 . S
C1030 C1031 1.383 . S
C1031 C1030 1.383 . S
C1031 C1032 1.393 1_545 S
C1032 H1004 0.931 . S
C1032 C1031 1.393 1_565 S
C1032 C1033 1.382 . S
C1033 H1003 0.929 . S
C1033 C1028 1.371 . S
C1033 C1032 1.382 . S
C1034 N997 1.423 . S
C1034 C1035 1.362 . S
C1034 C1039 1.388 1_565 S
C1035 H1005 0.929 . S
C1035 C1034 1.362 . S
C1035 C1036 1.376 . S
C1036 H1007 0.931 . S
C1036 C1035 1.376 . S
C1036 C1037 1.396 . S
C1037 C1036 1.396 . S
C1037 C1038 1.398 . S
C1037 C1055 1.472 . S
C1038 H1008 0.918 1_565 S
C1038 C1037 1.398 . S
C1038 C1039 1.407 1_565 S
C1039 H1006 0.932 . S
C1039 C1034 1.388 1_545 S
C1039 C1038 1.407 1_545 S
C1040 N1020 1.433 . S
C1040 C1041 1.363 . S
C1040 C1045 1.325 1_565 S
C1041 H1009 0.929 . S
C1041 C1040 1.363 . S
C1041 C1042 1.385 . S
C1042 H1010 0.930 . S
C1042 C1041 1.385 . S
C1042 C1043 1.357 . S
C1043 C1042 1.357 . S
C1043 C1044 1.406 1_565 S
C1044 H1011 0.929 . S
C1044 C1043 1.406 1_545 S
C1044 C1045 1.381 . S
C1045 H1012 0.990 . S
C1045 C1040 1.325 1_545 S
C1045 C1044 1.381 . S
C1046 N1020 1.435 . S
C1046 C1047 1.358 1_565 S
C1046 C1051 1.371 . S
C1047 H1013 0.930 . S
C1047 C1046 1.358 1_545 S
C1047 C1048 1.405 . S
C1048 H1014 0.932 . S
C1048 C1047 1.405 . S
C1048 C1049 1.383 . S
C1049 C1048 1.383 . S
C1049 C1050 1.393 1_545 S
C1050 H1015 0.931 . S
C1050 C1049 1.393 1_565 S
C1050 C1051 1.382 . S
C1051 H1016 0.929 . S
C1051 C1046 1.371 . S
C1051 C1050 1.382 . S
C1052 N1020 1.423 . S
C1052 C1053 1.362 . S
C1052 C1057 1.337 1_565 S
C1053 H1017 0.929 . S
C1053 C1052 1.362 . S
C1053 C1054 1.376 . S
C1054 H1018 0.931 . S
C1054 C1053 1.376 . S
C1054 C1055 1.396 . S
C1055 C1037 1.472 . S
C1055 C1054 1.396 . S
C1055 C1056 1.370 . S
C1056 H1019 0.875 1_565 S
C1056 C1055 1.370 . S
C1056 C1057 1.510 1_565 S
C1057 H1021 0.957 . S
C1057 C1052 1.337 1_545 S
C1057 C1056 1.510 1_545 S
H1058 C1085 0.929 . S
N1059 C1084 1.433 . S
N1059 C1090 1.435 . S
N1059 C1096 1.423 . S
H1060 C1086 0.930 . S
H1061 C1089 0.931 . S
H1062 C1088 0.929 . S
H1063 C1091 0.930 . S
H1064 C1092 0.932 . S
H1065 C1095 0.929 . S
H1066 C1094 0.931 . S
H1067 C1097 0.929 . S
H1068 C1101 0.932 1_455 S
H1069 C1098 0.931 . S
H1070 C1100 0.984 . S
H1071 C1103 0.929 . S
H1072 C1104 0.930 . S
H1073 C1106 0.929 . S
H1074 C1107 0.931 . S
H1075 C1109 0.930 . S
H1076 C1110 0.932 . S
H1077 C1112 0.931 . S
H1078 C1113 0.929 . S
H1079 C1115 0.929 . S
H1080 C1116 0.931 . S
H1081 C1118 0.938 . S
N1082 C1102 1.433 . S
N1082 C1108 1.435 . S
N1082 C1114 1.423 . S
H1083 C1119 0.932 1_455 S
C1084 N1059 1.433 . S
C1084 C1085 1.363 . S
C1084 C1089 1.370 1_655 S
C1085 H1058 0.929 . S
C1085 C1084 1.363 . S
C1085 C1086 1.385 . S
C1086 H1060 0.930 . S
C1086 C1085 1.385 . S
C1086 C1087 1.357 1_655 S
C1087 C1086 1.357 1_455 S
C1087 C1088 1.406 . S
C1088 H1062 0.929 . S
C1088 C1087 1.406 . S
C1088 C1089 1.391 . S
C1089 H1061 0.931 . S
C1089 C1084 1.370 1_455 S
C1089 C1088 1.391 . S
C1090 N1059 1.435 . S
C1090 C1091 1.358 1_655 S
C1090 C1095 1.371 . S
C1091 H1063 0.930 . S
C1091 C1090 1.358 1_455 S
C1091 C1092 1.405 . S
C1092 H1064 0.932 . S
C1092 C1091 1.405 . S
C1092 C1093 1.383 1_455 S
C1093 C1092 1.383 1_655 S
C1093 C1094 1.393 . S
C1094 H1066 0.931 . S
C1094 C1093 1.393 . S
C1094 C1095 1.382 . S
C1095 H1065 0.929 . S
C1095 C1090 1.371 . S
C1095 C1094 1.382 . S
C1096 N1059 1.423 . S
C1096 C1097 1.362 . S
C1096 C1101 1.388 . S
C1097 H1067 0.929 . S
C1097 C1096 1.362 . S
C1097 C1098 1.376 . S
C1098 H1069 0.931 . S
C1098 C1097 1.376 . S
C1098 C1099 1.396 . S
C1099 C1098 1.396 . S
C1099 C1100 1.348 . S
C1099 C1117 1.472 . S
C1100 H1070 0.984 . S
C1100 C1099 1.348 . S
C1100 C1101 1.443 . S
C1101 H1068 0.932 1_655 S
C1101 C1096 1.388 . S
C1101 C1100 1.443 . S
C1102 N1082 1.433 . S
C1102 C1103 1.363 . S
C1102 C1107 1.370 1_655 S
C1103 H1071 0.929 . S
C1103 C1102 1.363 . S
C1103 C1104 1.385 . S
C1104 H1072 0.930 . S
C1104 C1103 1.385 . S
C1104 C1105 1.357 1_655 S
C1105 C1104 1.357 1_455 S
C1105 C1106 1.406 . S
C1106 H1073 0.929 . S
C1106 C1105 1.406 . S
C1106 C1107 1.391 . S
C1107 H1074 0.931 . S
C1107 C1102 1.370 1_455 S
C1107 C1106 1.391 . S
C1108 N1082 1.435 . S
C1108 C1109 1.358 1_655 S
C1108 C1113 1.371 . S
C1109 H1075 0.930 . S
C1109 C1108 1.358 1_455 S
C1109 C1110 1.405 . S
C1110 H1076 0.932 . S
C1110 C1109 1.405 . S
C1110 C1111 1.383 1_455 S
C1111 C1110 1.383 1_655 S
C1111 C1112 1.393 . S
C1112 H1077 0.931 . S
C1112 C1111 1.393 . S
C1112 C1113 1.382 . S
C1113 H1078 0.929 . S
C1113 C1108 1.371 . S
C1113 C1112 1.382 . S
C1114 N1082 1.423 . S
C1114 C1115 1.362 . S
C1114 C1119 1.388 . S
C1115 H1079 0.929 . S
C1115 C1114 1.362 . S
C1115 C1116 1.376 . S
C1116 H1080 0.931 . S
C1116 C1115 1.376 . S
C1116 C1117 1.396 . S
C1117 C1099 1.472 . S
C1117 C1116 1.396 . S
C1117 C1118 1.348 . S
C1118 H1081 0.938 . S
C1118 C1117 1.348 . S
C1118 C1119 1.443 . S
C1119 H1083 0.932 1_655 S
C1119 C1114 1.388 . S
C1119 C1118 1.443 . S
H1120 C1147 0.929 . S
N1121 C1146 1.433 . S
N1121 C1152 1.435 . S
N1121 C1158 1.423 . S
H1122 C1148 0.930 . S
H1123 C1151 0.931 . S
H1124 C1150 0.929 . S
H1125 C1153 0.930 . S
H1126 C1154 0.932 . S
H1127 C1157 0.929 . S
H1128 C1156 0.931 . S
H1129 C1159 0.929 . S
H1130 C1163 0.932 . S
H1131 C1160 0.931 . S
H1132 C1162 0.929 . S
H1133 C1165 0.929 . S
H1134 C1166 0.930 . S
H1135 C1168 0.929 . S
H1136 C1169 0.931 . S
H1137 C1171 0.930 . S
H1138 C1172 0.932 . S
H1139 C1174 0.931 . S
H1140 C1175 0.929 . S
H1141 C1177 0.929 . S
H1142 C1178 0.931 . S
H1143 C1180 0.929 . S
N1144 C1164 1.433 . S
N1144 C1170 1.435 . S
N1144 C1176 1.423 . S
H1145 C1181 0.932 . S
C1146 N1121 1.433 . S
C1146 C1147 1.363 . S
C1146 C1151 1.370 . S
C1147 H1120 0.929 . S
C1147 C1146 1.363 . S
C1147 C1148 1.385 . S
C1148 H1122 0.930 . S
C1148 C1147 1.385 . S
C1148 C1149 1.357 . S
C1149 C1148 1.357 . S
C1149 C1150 1.406 . S
C1150 H1124 0.929 . S
C1150 C1149 1.406 . S
C1150 C1151 1.391 . S
C1151 H1123 0.931 . S
C1151 C1146 1.370 . S
C1151 C1150 1.391 . S
C1152 N1121 1.435 . S
C1152 C1153 1.358 . S
C1152 C1157 1.371 . S
C1153 H1125 0.930 . S
C1153 C1152 1.358 . S
C1153 C1154 1.405 . S
C1154 H1126 0.932 . S
C1154 C1153 1.405 . S
C1154 C1155 1.383 . S
C1155 C1154 1.383 . S
C1155 C1156 1.393 . S
C1156 H1128 0.931 . S
C1156 C1155 1.393 . S
C1156 C1157 1.382 . S
C1157 H1127 0.929 . S
C1157 C1152 1.371 . S
C1157 C1156 1.382 . S
C1158 N1121 1.423 . S
C1158 C1159 1.362 . S
C1158 C1163 1.388 . S
C1159 H1129 0.929 . S
C1159 C1158 1.362 . S
C1159 C1160 1.376 . S
C1160 H1131 0.931 . S
C1160 C1159 1.376 . S
C1160 C1161 1.396 . S
C1161 C1160 1.396 . S
C1161 C1162 1.348 . S
C1161 C1179 1.472 . S
C1162 H1132 0.929 . S
C1162 C1161 1.348 . S
C1162 C1163 1.443 . S
C1163 H1130 0.932 . S
C1163 C1158 1.388 . S
C1163 C1162 1.443 . S
C1164 N1144 1.433 . S
C1164 C1165 1.363 . S
C1164 C1169 1.370 . S
C1165 H1133 0.929 . S
C1165 C1164 1.363 . S
C1165 C1166 1.385 . S
C1166 H1134 0.930 . S
C1166 C1165 1.385 . S
C1166 C1167 1.357 . S
C1167 C1166 1.357 . S
C1167 C1168 1.406 . S
C1168 H1135 0.929 . S
C1168 C1167 1.406 . S
C1168 C1169 1.391 . S
C1169 H1136 0.931 . S
C1169 C1164 1.370 . S
C1169 C1168 1.391 . S
C1170 N1144 1.435 . S
C1170 C1171 1.358 . S
C1170 C1175 1.371 . S
C1171 H1137 0.930 . S
C1171 C1170 1.358 . S
C1171 C1172 1.405 . S
C1172 H1138 0.932 . S
C1172 C1171 1.405 . S
C1172 C1173 1.383 . S
C1173 C1172 1.383 . S
C1173 C1174 1.393 . S
C1174 H1139 0.931 . S
C1174 C1173 1.393 . S
C1174 C1175 1.382 . S
C1175 H1140 0.929 . S
C1175 C1170 1.371 . S
C1175 C1174 1.382 . S
C1176 N1144 1.423 . S
C1176 C1177 1.362 . S
C1176 C1181 1.388 . S
C1177 H1141 0.929 . S
C1177 C1176 1.362 . S
C1177 C1178 1.376 . S
C1178 H1142 0.931 . S
C1178 C1177 1.376 . S
C1178 C1179 1.396 . S
C1179 C1161 1.472 . S
C1179 C1178 1.396 . S
C1179 C1180 1.348 . S
C1180 H1143 0.929 . S
C1180 C1179 1.348 . S
C1180 C1181 1.443 . S
C1181 H1145 0.932 . S
C1181 C1176 1.388 . S
C1181 C1180 1.443 . S
H1182 C1209 0.929 . S
N1183 C1208 1.433 . S
N1183 C1214 1.435 . S
N1183 C1220 1.423 . S
H1184 C1210 0.930 . S
H1185 C1213 0.931 . S
H1186 C1212 0.929 . S
H1187 C1215 0.930 . S
H1188 C1216 0.932 . S
H1189 C1219 0.929 . S
H1190 C1218 0.931 . S
H1191 C1221 0.929 . S
H1192 C1225 0.932 . S
H1193 C1222 0.931 . S
H1194 C1224 0.929 . S
H1195 C1227 0.929 . S
H1196 C1228 0.930 . S
H1197 C1230 0.929 . S
H1198 C1231 0.931 . S
H1199 C1233 0.930 . S
H1200 C1234 0.932 . S
H1201 C1236 0.931 . S
H1202 C1237 0.929 . S
H1203 C1239 0.929 . S
H1204 C1240 0.931 . S
H1205 C1242 0.929 . S
N1206 C1226 1.433 . S
N1206 C1232 1.435 . S
N1206 C1238 1.423 . S
H1207 C1243 0.932 . S
C1208 N1183 1.433 . S
C1208 C1209 1.363 . S
C1208 C1213 1.370 . S
C1209 H1182 0.929 . S
C1209 C1208 1.363 . S
C1209 C1210 1.385 . S
C1210 H1184 0.930 . S
C1210 C1209 1.385 . S
C1210 C1211 1.357 . S
C1211 C1210 1.357 . S
C1211 C1212 1.406 . S
C1212 H1186 0.929 . S
C1212 C1211 1.406 . S
C1212 C1213 1.391 . S
C1213 H1185 0.931 . S
C1213 C1208 1.370 . S
C1213 C1212 1.391 . S
C1214 N1183 1.435 . S
C1214 C1215 1.358 . S
C1214 C1219 1.371 . S
C1215 H1187 0.930 . S
C1215 C1214 1.358 . S
C1215 C1216 1.405 . S
C1216 H1188 0.932 . S
C1216 C1215 1.405 . S
C1216 C1217 1.383 . S
C1217 C1216 1.383 . S
C1217 C1218 1.393 . S
C1218 H1190 0.931 . S
C1218 C1217 1.393 . S
C1218 C1219 1.382 . S
C1219 H1189 0.929 . S
C1219 C1214 1.371 . S
C1219 C1218 1.382 . S
C1220 N1183 1.423 . S
C1220 C1221 1.362 . S
C1220 C1225 1.388 . S
C1221 H1191 0.929 . S
C1221 C1220 1.362 . S
C1221 C1222 1.376 . S
C1222 H1193 0.931 . S
C1222 C1221 1.376 . S
C1222 C1223 1.396 . S
C1223 C1222 1.396 . S
C1223 C1224 1.348 . S
C1223 C1241 1.472 . S
C1224 H1194 0.929 . S
C1224 C1223 1.348 . S
C1224 C1225 1.443 . S
C1225 H1192 0.932 . S
C1225 C1220 1.388 . S
C1225 C1224 1.443 . S
C1226 N1206 1.433 . S
C1226 C1227 1.363 . S
C1226 C1231 1.370 . S
C1227 H1195 0.929 . S
C1227 C1226 1.363 . S
C1227 C1228 1.385 . S
C1228 H1196 0.930 . S
C1228 C1227 1.385 . S
C1228 C1229 1.357 . S
C1229 C1228 1.357 . S
C1229 C1230 1.406 . S
C1230 H1197 0.929 . S
C1230 C1229 1.406 . S
C1230 C1231 1.391 . S
C1231 H1198 0.931 . S
C1231 C1226 1.370 . S
C1231 C1230 1.391 . S
C1232 N1206 1.435 . S
C1232 C1233 1.358 . S
C1232 C1237 1.371 . S
C1233 H1199 0.930 . S
C1233 C1232 1.358 . S
C1233 C1234 1.405 . S
C1234 H1200 0.932 . S
C1234 C1233 1.405 . S
C1234 C1235 1.383 . S
C1235 C1234 1.383 . S
C1235 C1236 1.393 . S
C1236 H1201 0.931 . S
C1236 C1235 1.393 . S
C1236 C1237 1.382 . S
C1237 H1202 0.929 . S
C1237 C1232 1.371 . S
C1237 C1236 1.382 . S
C1238 N1206 1.423 . S
C1238 C1239 1.362 . S
C1238 C1243 1.388 . S
C1239 H1203 0.929 . S
C1239 C1238 1.362 . S
C1239 C1240 1.376 . S
C1240 H1204 0.931 . S
C1240 C1239 1.376 . S
C1240 C1241 1.396 . S
C1241 C1223 1.472 . S
C1241 C1240 1.396 . S
C1241 C1242 1.348 . S
C1242 H1205 0.929 . S
C1242 C1241 1.348 . S
C1242 C1243 1.443 . S
C1243 H1207 0.932 . S
C1243 C1238 1.388 . S
C1243 C1242 1.443 . S
H1244 C1271 0.929 . S
N1245 C1270 1.433 . S
N1245 C1276 1.435 . S
N1245 C1282 1.423 . S
H1246 C1272 0.930 . S
H1247 C1275 0.931 . S
H1248 C1274 0.929 . S
H1249 C1277 0.930 . S
H1250 C1278 0.932 . S
H1251 C1281 0.929 . S
H1252 C1280 0.931 . S
H1253 C1283 0.929 . S
H1254 C1287 0.932 . S
H1255 C1284 0.931 . S
H1256 C1286 0.929 . S
H1257 C1289 0.929 . S
H1258 C1290 0.930 . S
H1259 C1292 0.929 . S
H1260 C1293 0.931 . S
H1261 C1295 0.930 . S
H1262 C1296 0.932 . S
H1263 C1298 0.931 . S
H1264 C1299 0.929 . S
H1265 C1301 0.929 . S
H1266 C1302 0.931 . S
H1267 C1304 0.929 . S
N1268 C1288 1.433 . S
N1268 C1294 1.435 . S
N1268 C1300 1.423 . S
H1269 C1305 0.932 . S
C1270 N1245 1.433 . S
C1270 C1271 1.363 . S
C1270 C1275 1.370 . S
C1271 H1244 0.929 . S
C1271 C1270 1.363 . S
C1271 C1272 1.385 . S
C1272 H1246 0.930 . S
C1272 C1271 1.385 . S
C1272 C1273 1.357 . S
C1273 C1272 1.357 . S
C1273 C1274 1.406 . S
C1274 H1248 0.929 . S
C1274 C1273 1.406 . S
C1274 C1275 1.391 . S
C1275 H1247 0.931 . S
C1275 C1270 1.370 . S
C1275 C1274 1.391 . S
C1276 N1245 1.435 . S
C1276 C1277 1.358 . S
C1276 C1281 1.371 . S
C1277 H1249 0.930 . S
C1277 C1276 1.358 . S
C1277 C1278 1.405 . S
C1278 H1250 0.932 . S
C1278 C1277 1.405 . S
C1278 C1279 1.383 . S
C1279 C1278 1.383 . S
C1279 C1280 1.393 . S
C1280 H1252 0.931 . S
C1280 C1279 1.393 . S
C1280 C1281 1.382 . S
C1281 H1251 0.929 . S
C1281 C1276 1.371 . S
C1281 C1280 1.382 . S
C1282 N1245 1.423 . S
C1282 C1283 1.362 . S
C1282 C1287 1.388 . S
C1283 H1253 0.929 . S
C1283 C1282 1.362 . S
C1283 C1284 1.376 . S
C1284 H1255 0.931 . S
C1284 C1283 1.376 . S
C1284 C1285 1.396 . S
C1285 C1284 1.396 . S
C1285 C1286 1.348 . S
C1285 C1303 1.472 . S
C1286 H1256 0.929 . S
C1286 C1285 1.348 . S
C1286 C1287 1.443 . S
C1287 H1254 0.932 . S
C1287 C1282 1.388 . S
C1287 C1286 1.443 . S
C1288 N1268 1.433 . S
C1288 C1289 1.363 . S
C1288 C1293 1.370 . S
C1289 H1257 0.929 . S
C1289 C1288 1.363 . S
C1289 C1290 1.385 . S
C1290 H1258 0.930 . S
C1290 C1289 1.385 . S
C1290 C1291 1.357 . S
C1291 C1290 1.357 . S
C1291 C1292 1.406 . S
C1292 H1259 0.929 . S
C1292 C1291 1.406 . S
C1292 C1293 1.391 . S
C1293 H1260 0.931 . S
C1293 C1288 1.370 . S
C1293 C1292 1.391 . S
C1294 N1268 1.435 . S
C1294 C1295 1.358 . S
C1294 C1299 1.371 . S
C1295 H1261 0.930 . S
C1295 C1294 1.358 . S
C1295 C1296 1.405 . S
C1296 H1262 0.932 . S
C1296 C1295 1.405 . S
C1296 C1297 1.383 . S
C1297 C1296 1.383 . S
C1297 C1298 1.393 . S
C1298 H1263 0.931 . S
C1298 C1297 1.393 . S
C1298 C1299 1.382 . S
C1299 H1264 0.929 . S
C1299 C1294 1.371 . S
C1299 C1298 1.382 . S
C1300 N1268 1.423 . S
C1300 C1301 1.362 . S
C1300 C1305 1.388 . S
C1301 H1265 0.929 . S
C1301 C1300 1.362 . S
C1301 C1302 1.376 . S
C1302 H1266 0.931 . S
C1302 C1301 1.376 . S
C1302 C1303 1.396 . S
C1303 C1285 1.472 . S
C1303 C1302 1.396 . S
C1303 C1304 1.348 . S
C1304 H1267 0.929 . S
C1304 C1303 1.348 . S
C1304 C1305 1.443 . S
C1305 H1269 0.932 . S
C1305 C1300 1.388 . S
C1305 C1304 1.443 . S
H1306 C1333 0.929 . S
N1307 C1332 1.433 . S
N1307 C1338 1.435 . S
N1307 C1344 1.423 . S
H1308 C1334 0.930 . S
H1309 C1337 0.931 . S
H1310 C1336 0.929 . S
H1311 C1339 0.930 . S
H1312 C1340 0.932 . S
H1313 C1343 0.929 . S
H1314 C1342 0.931 . S
H1315 C1345 0.929 . S
H1316 C1349 0.932 . S
H1317 C1346 0.931 . S
H1318 C1348 0.929 . S
H1319 C1351 0.929 . S
H1320 C1352 0.930 . S
H1321 C1354 0.929 . S
H1322 C1355 0.931 . S
H1323 C1357 0.930 . S
H1324 C1358 0.932 . S
H1325 C1360 0.931 . S
H1326 C1361 0.929 . S
H1327 C1363 0.929 . S
H1328 C1364 0.931 . S
H1329 C1366 0.929 . S
N1330 C1350 1.433 . S
N1330 C1356 1.435 . S
N1330 C1362 1.423 . S
H1331 C1367 0.932 . S
C1332 N1307 1.433 . S
C1332 C1333 1.363 . S
C1332 C1337 1.370 . S
C1333 H1306 0.929 . S
C1333 C1332 1.363 . S
C1333 C1334 1.385 . S
C1334 H1308 0.930 . S
C1334 C1333 1.385 . S
C1334 C1335 1.357 . S
C1335 C1334 1.357 . S
C1335 C1336 1.406 . S
C1336 H1310 0.929 . S
C1336 C1335 1.406 . S
C1336 C1337 1.391 . S
C1337 H1309 0.931 . S
C1337 C1332 1.370 . S
C1337 C1336 1.391 . S
C1338 N1307 1.435 . S
C1338 C1339 1.358 . S
C1338 C1343 1.371 . S
C1339 H1311 0.930 . S
C1339 C1338 1.358 . S
C1339 C1340 1.405 . S
C1340 H1312 0.932 . S
C1340 C1339 1.405 . S
C1340 C1341 1.383 . S
C1341 C1340 1.383 . S
C1341 C1342 1.393 . S
C1342 H1314 0.931 . S
C1342 C1341 1.393 . S
C1342 C1343 1.382 . S
C1343 H1313 0.929 . S
C1343 C1338 1.371 . S
C1343 C1342 1.382 . S
C1344 N1307 1.423 . S
C1344 C1345 1.362 . S
C1344 C1349 1.388 . S
C1345 H1315 0.929 . S
C1345 C1344 1.362 . S
C1345 C1346 1.376 . S
C1346 H1317 0.931 . S
C1346 C1345 1.376 . S
C1346 C1347 1.396 . S
C1347 C1346 1.396 . S
C1347 C1348 1.348 . S
C1347 C1365 1.472 . S
C1348 H1318 0.929 . S
C1348 C1347 1.348 . S
C1348 C1349 1.443 . S
C1349 H1316 0.932 . S
C1349 C1344 1.388 . S
C1349 C1348 1.443 . S
C1350 N1330 1.433 . S
C1350 C1351 1.363 . S
C1350 C1355 1.370 . S
C1351 H1319 0.929 . S
C1351 C1350 1.363 . S
C1351 C1352 1.385 . S
C1352 H1320 0.930 . S
C1352 C1351 1.385 . S
C1352 C1353 1.357 . S
C1353 C1352 1.357 . S
C1353 C1354 1.406 . S
C1354 H1321 0.929 . S
C1354 C1353 1.406 . S
C1354 C1355 1.391 . S
C1355 H1322 0.931 . S
C1355 C1350 1.370 . S
C1355 C1354 1.391 . S
C1356 N1330 1.435 . S
C1356 C1357 1.358 . S
C1356 C1361 1.371 . S
C1357 H1323 0.930 . S
C1357 C1356 1.358 . S
C1357 C1358 1.405 . S
C1358 H1324 0.932 . S
C1358 C1357 1.405 . S
C1358 C1359 1.383 . S
C1359 C1358 1.383 . S
C1359 C1360 1.393 . S
C1360 H1325 0.931 . S
C1360 C1359 1.393 . S
C1360 C1361 1.382 . S
C1361 H1326 0.929 . S
C1361 C1356 1.371 . S
C1361 C1360 1.382 . S
C1362 N1330 1.423 . S
C1362 C1363 1.362 . S
C1362 C1367 1.388 . S
C1363 H1327 0.929 . S
C1363 C1362 1.362 . S
C1363 C1364 1.376 . S
C1364 H1328 0.931 . S
C1364 C1363 1.376 . S
C1364 C1365 1.396 . S
C1365 C1347 1.472 . S
C1365 C1364 1.396 . S
C1365 C1366 1.348 . S
C1366 H1329 0.929 . S
C1366 C1365 1.348 . S
C1366 C1367 1.443 . S
C1367 H1331 0.932 . S
C1367 C1362 1.388 . S
C1367 C1366 1.443 . S
C1368 C1369 1.391 1_455 S
C1368 C1370 1.394 . S
C1368 H1384 0.931 . S
C1369 C1368 1.391 1_655 S
C1369 C1373 1.376 . S
C1370 C1368 1.394 . S
C1370 C1371 1.369 1_455 S
C1370 C1374 1.531 . S
C1371 C1370 1.369 1_655 S
C1371 C1372 1.410 . S
C1371 C1379 1.503 . S
C1372 C1371 1.410 . S
C1372 C1373 1.392 . S
C1372 C1375 1.511 . S
C1373 C1369 1.376 . S
C1373 C1372 1.392 . S
C1373 H1385 0.929 . S
C1374 C1370 1.531 . S
C1374 H1386 0.960 . S
C1374 H1387 0.962 . S
C1374 H1388 0.960 . S
C1375 C1372 1.511 . S
C1375 H1389 0.961 . S
C1375 H1390 0.961 . S
C1375 H1391 0.961 . S
C1376 C1377 1.370 1_455 S
C1376 C1378 1.363 . S
C1376 H1392 0.931 . S
C1377 C1376 1.370 1_655 S
C1377 C1381 1.408 . S
C1378 C1376 1.363 . S
C1378 C1379 1.370 1_455 S
C1378 C1382 1.524 . S
C1379 C1371 1.503 . S
C1379 C1378 1.370 1_655 S
C1379 C1380 1.403 . S
C1380 C1379 1.403 . S
C1380 C1381 1.404 . S
C1380 C1383 1.539 . S
C1381 C1377 1.408 . S
C1381 C1380 1.404 . S
C1381 H1393 0.930 . S
C1382 C1378 1.524 . S
C1382 H1394 0.956 . S
C1382 H1395 0.961 . S
C1382 H1396 0.961 . S
C1383 C1380 1.539 . S
C1383 H1397 0.958 . S
C1383 H1398 0.961 . S
C1383 H1399 0.960 . S
H1384 C1368 0.931 . S
H1385 C1373 0.929 . S
H1386 C1374 0.960 . S
H1387 C1374 0.962 . S
H1388 C1374 0.960 . S
H1389 C1375 0.961 . S
H1390 C1375 0.961 . S
H1391 C1375 0.961 . S
H1392 C1376 0.931 . S
H1393 C1381 0.930 . S
H1394 C1382 0.956 . S
H1395 C1382 0.961 . S
H1396 C1382 0.961 . S
H1397 C1383 0.958 . S
H1398 C1383 0.961 . S
H1399 C1383 0.960 . S
C1400 C1401 1.391 . S
C1400 C1402 1.394 . S
C1400 H1416 0.931 . S
C1401 C1400 1.391 . S
C1401 C1405 1.376 . S
C1402 C1400 1.394 . S
C1402 C1403 1.369 . S
C1402 C1406 1.531 . S
C1403 C1402 1.369 . S
C1403 C1404 1.410 . S
C1403 C1411 1.503 . S
C1404 C1403 1.410 . S
C1404 C1405 1.392 . S
C1404 C1407 1.511 . S
C1405 C1401 1.376 . S
C1405 C1404 1.392 . S
C1405 H1417 0.929 . S
C1406 C1402 1.531 . S
C1406 H1418 0.960 . S
C1406 H1419 0.962 . S
C1406 H1420 0.960 . S
C1407 C1404 1.511 . S
C1407 H1421 0.961 . S
C1407 H1422 0.961 . S
C1407 H1423 0.961 . S
C1408 C1409 1.370 . S
C1408 C1410 1.363 . S
C1408 H1424 0.931 . S
C1409 C1408 1.370 . S
C1409 C1413 1.408 . S
C1410 C1408 1.363 . S
C1410 C1411 1.370 . S
C1410 C1414 1.524 . S
C1411 C1403 1.503 . S
C1411 C1410 1.370 . S
C1411 C1412 1.403 . S
C1412 C1411 1.403 . S
C1412 C1413 1.404 . S
C1412 C1415 1.539 . S
C1413 C1409 1.408 . S
C1413 C1412 1.404 . S
C1413 H1425 0.930 . S
C1414 C1410 1.524 . S
C1414 H1426 0.956 . S
C1414 H1427 0.961 . S
C1414 H1428 0.961 . S
C1415 C1412 1.539 . S
C1415 H1429 0.958 . S
C1415 H1430 0.961 . S
C1415 H1431 0.960 . S
H1416 C1400 0.931 . S
H1417 C1405 0.929 . S
H1418 C1406 0.960 . S
H1419 C1406 0.962 . S
H1420 C1406 0.960 . S
H1421 C1407 0.961 . S
H1422 C1407 0.961 . S
H1423 C1407 0.961 . S
H1424 C1408 0.931 . S
H1425 C1413 0.930 . S
H1426 C1414 0.956 . S
H1427 C1414 0.961 . S
H1428 C1414 0.961 . S
H1429 C1415 0.958 . S
H1430 C1415 0.961 . S
H1431 C1415 0.960 . S
C1432 C1433 1.391 . S
C1432 C1434 1.394 . S
C1432 H1448 0.931 . S
C1433 C1432 1.391 . S
C1433 C1437 1.376 1_545 S
C1434 C1432 1.394 . S
C1434 C1435 1.369 . S
C1434 C1438 1.531 . S
C1435 C1434 1.369 . S
C1435 C1436 1.410 1_545 S
C1435 C1443 1.503 . S
C1436 C1435 1.410 1_565 S
C1436 C1437 1.392 . S
C1436 C1439 1.511 . S
C1437 C1433 1.376 1_565 S
C1437 C1436 1.392 . S
C1437 H1449 0.929 . S
C1438 C1434 1.531 . S
C1438 H1450 0.960 . S
C1438 H1451 0.962 . S
C1438 H1452 0.960 . S
C1439 C1436 1.511 . S
C1439 H1453 0.961 . S
C1439 H1454 0.961 . S
C1439 H1455 0.961 . S
C1440 C1441 1.370 . S
C1440 C1442 1.363 . S
C1440 H1456 0.931 . S
C1441 C1440 1.370 . S
C1441 C1445 1.408 . S
C1442 C1440 1.363 . S
C1442 C1443 1.370 . S
C1442 C1446 1.524 . S
C1443 C1435 1.503 . S
C1443 C1442 1.370 . S
C1443 C1444 1.403 . S
C1444 C1443 1.403 . S
C1444 C1445 1.404 . S
C1444 C1447 1.539 1_545 S
C1445 C1441 1.408 . S
C1445 C1444 1.404 . S
C1445 H1457 0.930 . S
C1446 C1442 1.524 . S
C1446 H1458 0.956 . S
C1446 H1459 0.961 . S
C1446 H1460 0.961 . S
C1447 C1444 1.539 1_565 S
C1447 H1461 0.958 1_565 S
C1447 H1462 0.961 . S
C1447 H1463 0.960 . S
H1448 C1432 0.931 . S
H1449 C1437 0.929 . S
H1450 C1438 0.960 . S
H1451 C1438 0.962 . S
H1452 C1438 0.960 . S
H1453 C1439 0.961 . S
H1454 C1439 0.961 . S
H1455 C1439 0.961 . S
H1456 C1440 0.931 . S
H1457 C1445 0.930 . S
H1458 C1446 0.956 . S
H1459 C1446 0.961 . S
H1460 C1446 0.961 . S
H1461 C1447 0.958 1_545 S
H1462 C1447 0.961 . S
H1463 C1447 0.960 . S
C1464 C1465 1.409 . S
C1464 C1466 1.394 . S
C1464 H1480 0.931 . S
C1465 C1464 1.409 . S
C1465 C1469 1.369 1_565 S
C1466 C1464 1.394 . S
C1466 C1467 1.369 . S
C1466 C1470 1.531 . S
C1467 C1466 1.369 . S
C1467 C1468 1.390 1_565 S
C1467 C1475 1.503 . S
C1468 C1467 1.390 1_545 S
C1468 C1469 1.404 . S
C1468 C1471 1.519 . S
C1469 C1465 1.369 1_545 S
C1469 C1468 1.404 . S
C1469 H1481 0.929 . S
C1470 C1466 1.531 . S
C1470 H1482 0.960 . S
C1470 H1483 0.962 . S
C1470 H1484 0.960 . S
C1471 C1468 1.519 . S
C1471 H1485 0.961 . S
C1471 H1486 0.961 . S
C1471 H1487 0.961 1_545 S
C1472 C1473 1.370 1_545 S
C1472 C1474 1.363 . S
C1472 H1488 0.931 . S
C1473 C1472 1.370 1_565 S
C1473 C1477 1.408 . S
C1474 C1472 1.363 . S
C1474 C1475 1.370 1_545 S
C1474 C1478 1.524 . S
C1475 C1467 1.503 . S
C1475 C1474 1.370 1_565 S
C1475 C1476 1.403 . S
C1476 C1475 1.403 . S
C1476 C1477 1.404 . S
C1476 C1479 1.539 . S
C1477 C1473 1.408 . S
C1477 C1476 1.404 . S
C1477 H1489 0.930 . S
C1478 C1474 1.524 . S
C1478 H1490 0.956 . S
C1478 H1491 0.961 . S
C1478 H1492 0.961 . S
C1479 C1476 1.539 . S
C1479 H1493 0.958 . S
C1479 H1494 0.961 . S
C1479 H1495 0.960 . S
H1480 C1464 0.931 . S
H1481 C1469 0.929 . S
H1482 C1470 0.960 . S
H1483 C1470 0.962 . S
H1484 C1470 0.960 . S
H1485 C1471 0.961 . S
H1486 C1471 0.961 . S
H1487 C1471 0.961 1_565 S
H1488 C1472 0.931 . S
H1489 C1477 0.930 . S
H1490 C1478 0.956 . S
H1491 C1478 0.961 . S
H1492 C1478 0.961 . S
H1493 C1479 0.958 . S
H1494 C1479 0.961 . S
H1495 C1479 0.960 . S
C1496 C1497 1.391 . S
C1496 C1498 1.394 . S
C1496 H1512 0.931 . S
C1497 C1496 1.391 . S
C1497 C1501 1.376 1_455 S
C1498 C1496 1.394 . S
C1498 C1499 1.369 . S
C1498 C1502 1.531 . S
C1499 C1498 1.369 . S
C1499 C1500 1.410 1_455 S
C1499 C1507 1.503 . S
C1500 C1499 1.410 1_655 S
C1500 C1501 1.392 . S
C1500 C1503 1.511 . S
C1501 C1497 1.376 1_655 S
C1501 C1500 1.392 . S
C1501 H1513 0.929 . S
C1502 C1498 1.531 . S
C1502 H1514 0.960 . S
C1502 H1515 0.962 . S
C1502 H1516 0.960 . S
C1503 C1500 1.511 . S
C1503 H1517 0.961 . S
C1503 H1518 0.961 . S
C1503 H1519 0.961 . S
C1504 C1505 1.370 . S
C1504 C1506 1.363 . S
C1504 H1520 0.931 . S
C1505 C1504 1.370 . S
C1505 C1509 1.408 1_455 S
C1506 C1504 1.363 . S
C1506 C1507 1.370 . S
C1506 C1510 1.524 . S
C1507 C1499 1.503 . S
C1507 C1506 1.370 . S
C1507 C1508 1.403 1_455 S
C1508 C1507 1.403 1_655 S
C1508 C1509 1.404 . S
C1508 C1511 1.539 . S
C1509 C1505 1.408 1_655 S
C1509 C1508 1.404 . S
C1509 H1521 0.930 . S
C1510 C1506 1.524 . S
C1510 H1522 0.956 . S
C1510 H1523 0.961 . S
C1510 H1524 0.961 . S
C1511 C1508 1.539 . S
C1511 H1525 0.958 . S
C1511 H1526 0.961 . S
C1511 H1527 0.960 . S
H1512 C1496 0.931 . S
H1513 C1501 0.929 . S
H1514 C1502 0.960 . S
H1515 C1502 0.962 . S
H1516 C1502 0.960 . S
H1517 C1503 0.961 . S
H1518 C1503 0.961 . S
H1519 C1503 0.961 . S
H1520 C1504 0.931 . S
H1521 C1509 0.930 . S
H1522 C1510 0.956 . S
H1523 C1510 0.961 . S
H1524 C1510 0.961 . S
H1525 C1511 0.958 . S
H1526 C1511 0.961 . S
H1527 C1511 0.960 . S
C1528 C1529 1.391 . S
C1528 C1530 1.394 . S
C1528 H1544 0.931 . S
C1529 C1528 1.391 . S
C1529 C1533 1.376 . S
C1530 C1528 1.394 . S
C1530 C1531 1.369 . S
C1530 C1534 1.531 . S
C1531 C1530 1.369 . S
C1531 C1532 1.410 . S
C1531 C1539 1.503 . S
C1532 C1531 1.410 . S
C1532 C1533 1.392 . S
C1532 C1535 1.511 . S
C1533 C1529 1.376 . S
C1533 C1532 1.392 . S
C1533 H1545 0.929 . S
C1534 C1530 1.531 . S
C1534 H1546 0.960 . S
C1534 H1547 0.962 . S
C1534 H1548 0.960 . S
C1535 C1532 1.511 . S
C1535 H1549 0.961 . S
C1535 H1550 0.961 . S
C1535 H1551 0.961 . S
C1536 C1537 1.370 . S
C1536 C1538 1.363 . S
C1536 H1552 0.931 . S
C1537 C1536 1.370 . S
C1537 C1541 1.408 . S
C1538 C1536 1.363 . S
C1538 C1539 1.370 . S
C1538 C1542 1.524 . S
C1539 C1531 1.503 . S
C1539 C1538 1.370 . S
C1539 C1540 1.403 . S
C1540 C1539 1.403 . S
C1540 C1541 1.404 . S
C1540 C1543 1.539 . S
C1541 C1537 1.408 . S
C1541 C1540 1.404 . S
C1541 H1553 0.930 . S
C1542 C1538 1.524 . S
C1542 H1554 0.956 . S
C1542 H1555 0.961 . S
C1542 H1556 0.961 . S
C1543 C1540 1.539 . S
C1543 H1557 0.958 . S
C1543 H1558 0.961 . S
C1543 H1559 0.960 . S
H1544 C1528 0.931 . S
H1545 C1533 0.929 . S
H1546 C1534 0.960 . S
H1547 C1534 0.962 . S
H1548 C1534 0.960 . S
H1549 C1535 0.961 . S
H1550 C1535 0.961 . S
H1551 C1535 0.961 . S
H1552 C1536 0.931 . S
H1553 C1541 0.930 . S
H1554 C1542 0.956 . S
H1555 C1542 0.961 . S
H1556 C1542 0.961 . S
H1557 C1543 0.958 . S
H1558 C1543 0.961 . S
H1559 C1543 0.960 . S
C1560 C1561 1.391 1_655 S
C1560 C1562 1.394 . S
C1560 H1576 0.931 . S
C1561 C1560 1.391 1_455 S
C1561 C1565 1.376 . S
C1562 C1560 1.394 . S
C1562 C1563 1.369 1_655 S
C1562 C1566 1.531 . S
C1563 C1562 1.369 1_455 S
C1563 C1564 1.410 . S
C1563 C1571 1.503 . S
C1564 C1563 1.410 . S
C1564 C1565 1.392 . S
C1564 C1567 1.511 . S
C1565 C1561 1.376 . S
C1565 C1564 1.392 . S
C1565 H1577 0.929 . S
C1566 C1562 1.531 . S
C1566 H1578 0.960 . S
C1566 H1579 0.962 . S
C1566 H1580 0.960 . S
C1567 C1564 1.511 . S
C1567 H1581 0.961 . S
C1567 H1582 0.961 . S
C1567 H1583 0.961 . S
C1568 C1569 1.370 1_655 S
C1568 C1570 1.363 . S
C1568 H1584 0.931 . S
C1569 C1568 1.370 1_455 S
C1569 C1573 1.408 . S
C1570 C1568 1.363 . S
C1570 C1571 1.370 1_655 S
C1570 C1574 1.524 . S
C1571 C1563 1.503 . S
C1571 C1570 1.370 1_455 S
C1571 C1572 1.403 . S
C1572 C1571 1.403 . S
C1572 C1573 1.404 . S
C1572 C1575 1.539 . S
C1573 C1569 1.408 . S
C1573 C1572 1.404 . S
C1573 H1585 0.930 . S
C1574 C1570 1.524 . S
C1574 H1586 0.956 . S
C1574 H1587 0.961 . S
C1574 H1588 0.961 . S
C1575 C1572 1.539 . S
C1575 H1589 0.958 . S
C1575 H1590 0.961 . S
C1575 H1591 0.960 . S
H1576 C1560 0.931 . S
H1577 C1565 0.929 . S
H1578 C1566 0.960 . S
H1579 C1566 0.962 . S
H1580 C1566 0.960 . S
H1581 C1567 0.961 . S
H1582 C1567 0.961 . S
H1583 C1567 0.961 . S
H1584 C1568 0.931 . S
H1585 C1573 0.930 . S
H1586 C1574 0.956 . S
H1587 C1574 0.961 . S
H1588 C1574 0.961 . S
H1589 C1575 0.958 . S
H1590 C1575 0.961 . S
H1591 C1575 0.960 . S
C1592 C1593 1.391 . S
C1592 C1594 1.394 . S
C1592 H1608 0.931 . S
C1593 C1592 1.391 . S
C1593 C1597 1.376 . S
C1594 C1592 1.394 . S
C1594 C1595 1.369 . S
C1594 C1598 1.531 . S
C1595 C1594 1.369 . S
C1595 C1596 1.410 . S
C1595 C1603 1.503 . S
C1596 C1595 1.410 . S
C1596 C1597 1.392 . S
C1596 C1599 1.511 . S
C1597 C1593 1.376 . S
C1597 C1596 1.392 . S
C1597 H1609 0.929 . S
C1598 C1594 1.531 . S
C1598 H1610 0.960 . S
C1598 H1611 0.962 . S
C1598 H1612 0.960 . S
C1599 C1596 1.511 . S
C1599 H1613 0.961 . S
C1599 H1614 0.961 . S
C1599 H1615 0.961 . S
C1600 C1601 1.370 . S
C1600 C1602 1.363 . S
C1600 H1616 0.931 . S
C1601 C1600 1.370 . S
C1601 C1605 1.408 . S
C1602 C1600 1.363 . S
C1602 C1603 1.370 . S
C1602 C1606 1.524 . S
C1603 C1595 1.503 . S
C1603 C1602 1.370 . S
C1603 C1604 1.403 . S
C1604 C1603 1.403 . S
C1604 C1605 1.404 . S
C1604 C1607 1.539 . S
C1605 C1601 1.408 . S
C1605 C1604 1.404 . S
C1605 H1617 0.930 . S
C1606 C1602 1.524 . S
C1606 H1618 0.956 . S
C1606 H1619 0.961 . S
C1606 H1620 0.961 . S
C1607 C1604 1.539 . S
C1607 H1621 0.958 . S
C1607 H1622 0.961 . S
C1607 H1623 0.960 . S
H1608 C1592 0.931 . S
H1609 C1597 0.929 . S
H1610 C1598 0.960 . S
H1611 C1598 0.962 . S
H1612 C1598 0.960 . S
H1613 C1599 0.961 . S
H1614 C1599 0.961 . S
H1615 C1599 0.961 . S
H1616 C1600 0.931 . S
H1617 C1605 0.930 . S
H1618 C1606 0.956 . S
H1619 C1606 0.961 . S
H1620 C1606 0.961 . S
H1621 C1607 0.958 . S
H1622 C1607 0.961 . S
H1623 C1607 0.960 . S
C1624 C1625 1.379 . S
C1624 C1626 1.383 . S
C1624 H1640 0.931 . S
C1625 C1624 1.379 . S
C1625 C1629 1.382 . S
C1626 C1624 1.383 . S
C1626 C1627 1.372 . S
C1626 C1630 1.528 . S
C1627 C1626 1.372 . S
C1627 C1628 1.377 . S
C1627 C1635 1.557 1_545 S
C1628 C1627 1.377 . S
C1628 C1629 1.419 . S
C1628 C1631 1.511 . S
C1629 C1625 1.382 . S
C1629 C1628 1.419 . S
C1629 H1641 0.935 . S
C1630 C1626 1.528 . S
C1630 H1642 0.994 . S
C1630 H1643 0.932 1_545 S
C1630 H1644 0.981 . S
C1631 C1628 1.511 . S
C1631 H1645 0.961 1_545 S
C1631 H1646 0.961 1_545 S
C1631 H1647 0.961 . S
C1632 C1633 1.370 . S
C1632 C1634 1.363 . S
C1632 H1648 0.931 . S
C1633 C1632 1.370 . S
C1633 C1637 1.408 1_565 S
C1634 C1632 1.363 . S
C1634 C1635 1.427 . S
C1634 C1638 1.524 . S
C1635 C1627 1.557 1_565 S
C1635 C1634 1.427 . S
C1635 C1636 1.322 1_565 S
C1636 C1635 1.322 1_545 S
C1636 C1637 1.404 . S
C1636 C1639 1.539 . S
C1637 C1633 1.408 1_545 S
C1637 C1636 1.404 . S
C1637 H1649 0.930 . S
C1638 C1634 1.524 . S
C1638 H1650 0.956 . S
C1638 H1651 0.961 . S
C1638 H1652 0.961 . S
C1639 C1636 1.539 . S
C1639 H1653 0.958 . S
C1639 H1654 0.961 . S
C1639 H1655 0.960 . S
H1640 C1624 0.931 . S
H1641 C1629 0.935 . S
H1642 C1630 0.994 . S
H1643 C1630 0.932 1_565 S
H1644 C1630 0.981 . S
H1645 C1631 0.961 1_565 S
H1646 C1631 0.961 1_565 S
H1647 C1631 0.961 . S
H1648 C1632 0.931 . S
H1649 C1637 0.930 . S
H1650 C1638 0.956 . S
H1651 C1638 0.961 . S
H1652 C1638 0.961 . S
H1653 C1639 0.958 . S
H1654 C1639 0.961 . S
H1655 C1639 0.960 . S
C1656 C1657 1.391 . S
C1656 C1658 1.394 . S
C1656 H1672 0.931 . S
C1657 C1656 1.391 . S
C1657 C1661 1.376 1_545 S
C1658 C1656 1.394 . S
C1658 C1659 1.369 . S
C1658 C1662 1.531 . S
C1659 C1658 1.369 . S
C1659 C1660 1.410 1_545 S
C1659 C1667 1.503 . S
C1660 C1659 1.410 1_565 S
C1660 C1661 1.392 . S
C1660 C1663 1.511 . S
C1661 C1657 1.376 1_565 S
C1661 C1660 1.392 . S
C1661 H1673 0.929 . S
C1662 C1658 1.531 . S
C1662 H1674 0.960 . S
C1662 H1675 0.962 . S
C1662 H1676 0.960 . S
C1663 C1660 1.511 . S
C1663 H1677 0.961 . S
C1663 H1678 0.961 . S
C1663 H1679 0.961 . S
C1664 C1665 1.370 . S
C1664 C1666 1.363 . S
C1664 H1680 0.945 . S
C1665 C1664 1.370 . S
C1665 C1669 1.408 . S
C1666 C1664 1.363 . S
C1666 C1667 1.370 . S
C1666 C1670 1.524 1_545 S
C1667 C1659 1.503 . S
C1667 C1666 1.370 . S
C1667 C1668 1.403 . S
C1668 C1667 1.403 . S
C1668 C1669 1.404 . S
C1668 C1671 1.539 . S
C1669 C1665 1.408 . S
C1669 C1668 1.404 . S
C1669 H1681 0.930 . S
C1670 C1666 1.524 1_565 S
C1670 H1682 0.956 1_565 S
C1670 H1683 0.961 . S
C1670 H1684 0.961 . S
C1671 C1668 1.539 . S
C1671 H1685 0.958 . S
C1671 H1686 0.961 . S
C1671 H1687 0.960 . S
H1672 C1656 0.931 . S
H1673 C1661 0.929 . S
H1674 C1662 0.960 . S
H1675 C1662 0.962 . S
H1676 C1662 0.960 . S
H1677 C1663 0.961 . S
H1678 C1663 0.961 . S
H1679 C1663 0.961 . S
H1680 C1664 0.945 . S
H1681 C1669 0.930 . S
H1682 C1670 0.956 1_545 S
H1683 C1670 0.961 . S
H1684 C1670 0.961 . S
H1685 C1671 0.958 . S
H1686 C1671 0.961 . S
H1687 C1671 0.960 . S
C1688 C1689 1.391 . S
C1688 C1690 1.394 . S
C1688 H1704 0.931 . S
C1689 C1688 1.391 . S
C1689 C1693 1.376 1_655 S
C1690 C1688 1.394 . S
C1690 C1691 1.369 . S
C1690 C1694 1.531 . S
C1691 C1690 1.369 . S
C1691 C1692 1.410 1_655 S
C1691 C1699 1.503 . S
C1692 C1691 1.410 1_455 S
C1692 C1693 1.392 . S
C1692 C1695 1.511 . S
C1693 C1689 1.376 1_455 S
C1693 C1692 1.392 . S
C1693 H1705 0.929 . S
C1694 C1690 1.531 . S
C1694 H1706 0.960 . S
C1694 H1707 0.962 . S
C1694 H1708 0.960 . S
C1695 C1692 1.511 . S
C1695 H1709 0.961 . S
C1695 H1710 0.961 . S
C1695 H1711 0.961 . S
C1696 C1697 1.370 . S
C1696 C1698 1.363 . S
C1696 H1712 0.931 . S
C1697 C1696 1.370 . S
C1697 C1701 1.408 . S
C1698 C1696 1.363 . S
C1698 C1699 1.370 . S
C1698 C1702 1.524 . S
C1699 C1691 1.503 . S
C1699 C1698 1.370 . S
C1699 C1700 1.403 . S
C1700 C1699 1.403 . S
C1700 C1701 1.404 . S
C1700 C1703 1.539 1_655 S
C1701 C1697 1.408 . S
C1701 C1700 1.404 . S
C1701 H1713 0.952 . S
C1702 C1698 1.524 . S
C1702 H1714 0.956 . S
C1702 H1715 0.960 1_655 S
C1702 H1716 0.961 . S
C1703 C1700 1.539 1_455 S
C1703 H1717 0.958 1_455 S
C1703 H1718 0.961 . S
C1703 H1719 0.960 . S
H1704 C1688 0.931 . S
H1705 C1693 0.929 . S
H1706 C1694 0.960 . S
H1707 C1694 0.962 . S
H1708 C1694 0.960 . S
H1709 C1695 0.961 . S
H1710 C1695 0.961 . S
H1711 C1695 0.961 . S
H1712 C1696 0.931 . S
H1713 C1701 0.952 . S
H1714 C1702 0.956 . S
H1715 C1702 0.960 1_455 S
H1716 C1702 0.961 . S
H1717 C1703 0.958 1_655 S
H1718 C1703 0.961 . S
H1719 C1703 0.960 . S
C1720 C1721 1.391 . S
C1720 C1722 1.394 . S
C1720 H1736 0.931 . S
C1721 C1720 1.391 . S
C1721 C1725 1.376 . S
C1722 C1720 1.394 . S
C1722 C1723 1.369 . S
C1722 C1726 1.531 . S
C1723 C1722 1.369 . S
C1723 C1724 1.410 . S
C1723 C1731 1.503 . S
C1724 C1723 1.410 . S
C1724 C1725 1.392 . S
C1724 C1727 1.511 . S
C1725 C1721 1.376 . S
C1725 C1724 1.392 . S
C1725 H1737 0.929 . S
C1726 C1722 1.531 . S
C1726 H1738 0.960 . S
C1726 H1739 0.962 . S
C1726 H1740 0.960 . S
C1727 C1724 1.511 . S
C1727 H1741 0.961 . S
C1727 H1742 0.961 . S
C1727 H1743 0.961 . S
C1728 C1729 1.370 . S
C1728 C1730 1.363 . S
C1728 H1744 0.931 . S
C1729 C1728 1.370 . S
C1729 C1733 1.408 . S
C1730 C1728 1.363 . S
C1730 C1731 1.370 . S
C1730 C1734 1.524 . S
C1731 C1723 1.503 . S
C1731 C1730 1.370 . S
C1731 C1732 1.403 . S
C1732 C1731 1.403 . S
C1732 C1733 1.404 . S
C1732 C1735 1.539 . S
C1733 C1729 1.408 . S
C1733 C1732 1.404 . S
C1733 H1745 0.930 . S
C1734 C1730 1.524 . S
C1734 H1746 0.956 . S
C1734 H1747 0.961 . S
C1734 H1748 0.961 . S
C1735 C1732 1.539 . S
C1735 H1749 0.958 . S
C1735 H1750 0.961 . S
C1735 H1751 0.960 . S
H1736 C1720 0.931 . S
H1737 C1725 0.929 . S
H1738 C1726 0.960 . S
H1739 C1726 0.962 . S
H1740 C1726 0.960 . S
H1741 C1727 0.961 . S
H1742 C1727 0.961 . S
H1743 C1727 0.961 . S
H1744 C1728 0.931 . S
H1745 C1733 0.930 . S
H1746 C1734 0.956 . S
H1747 C1734 0.961 . S
H1748 C1734 0.961 . S
H1749 C1735 0.958 . S
H1750 C1735 0.961 . S
H1751 C1735 0.960 . S
C1752 C1753 1.391 . S
C1752 C1754 1.394 . S
C1752 H1768 0.931 . S
C1753 C1752 1.391 . S
C1753 C1757 1.376 . S
C1754 C1752 1.394 . S
C1754 C1755 1.369 . S
C1754 C1758 1.531 . S
C1755 C1754 1.369 . S
C1755 C1756 1.410 . S
C1755 C1763 1.503 . S
C1756 C1755 1.410 . S
C1756 C1757 1.392 . S
C1756 C1759 1.511 . S
C1757 C1753 1.376 . S
C1757 C1756 1.392 . S
C1757 H1769 0.929 . S
C1758 C1754 1.531 . S
C1758 H1770 0.960 . S
C1758 H1771 0.962 . S
C1758 H1772 0.960 . S
C1759 C1756 1.511 . S
C1759 H1773 0.961 . S
C1759 H1774 0.961 . S
C1759 H1775 0.961 . S
C1760 C1761 1.370 . S
C1760 C1762 1.363 . S
C1760 H1776 0.931 . S
C1761 C1760 1.370 . S
C1761 C1765 1.408 . S
C1762 C1760 1.363 . S
C1762 C1763 1.370 . S
C1762 C1766 1.524 . S
C1763 C1755 1.503 . S
C1763 C1762 1.370 . S
C1763 C1764 1.403 . S
C1764 C1763 1.403 . S
C1764 C1765 1.404 . S
C1764 C1767 1.539 . S
C1765 C1761 1.408 . S
C1765 C1764 1.404 . S
C1765 H1777 0.930 . S
C1766 C1762 1.524 . S
C1766 H1778 0.956 . S
C1766 H1779 0.961 . S
C1766 H1780 0.961 . S
C1767 C1764 1.539 . S
C1767 H1781 0.958 . S
C1767 H1782 0.961 . S
C1767 H1783 0.960 . S
H1768 C1752 0.931 . S
H1769 C1757 0.929 . S
H1770 C1758 0.960 . S
H1771 C1758 0.962 . S
H1772 C1758 0.960 . S
H1773 C1759 0.961 . S
H1774 C1759 0.961 . S
H1775 C1759 0.961 . S
H1776 C1760 0.931 . S
H1777 C1765 0.930 . S
H1778 C1766 0.956 . S
H1779 C1766 0.961 . S
H1780 C1766 0.961 . S
H1781 C1767 0.958 . S
H1782 C1767 0.961 . S
H1783 C1767 0.960 . S
C1784 C1785 1.391 . S
C1784 C1786 1.394 . S
C1784 H1800 0.931 . S
C1785 C1784 1.391 . S
C1785 C1789 1.376 . S
C1786 C1784 1.394 . S
C1786 C1787 1.369 . S
C1786 C1790 1.531 . S
C1787 C1786 1.369 . S
C1787 C1788 1.410 . S
C1787 C1795 1.503 . S
C1788 C1787 1.410 . S
C1788 C1789 1.392 . S
C1788 C1791 1.511 . S
C1789 C1785 1.376 . S
C1789 C1788 1.392 . S
C1789 H1801 0.929 . S
C1790 C1786 1.531 . S
C1790 H1802 0.960 . S
C1790 H1803 0.962 . S
C1790 H1804 0.960 . S
C1791 C1788 1.511 . S
C1791 H1805 0.961 . S
C1791 H1806 0.961 . S
C1791 H1807 0.961 . S
C1792 C1793 1.370 . S
C1792 C1794 1.363 . S
C1792 H1808 0.931 . S
C1793 C1792 1.370 . S
C1793 C1797 1.408 . S
C1794 C1792 1.363 . S
C1794 C1795 1.370 . S
C1794 C1798 1.524 . S
C1795 C1787 1.503 . S
C1795 C1794 1.370 . S
C1795 C1796 1.403 . S
C1796 C1795 1.403 . S
C1796 C1797 1.404 . S
C1796 C1799 1.539 . S
C1797 C1793 1.408 . S
C1797 C1796 1.404 . S
C1797 H1809 0.930 . S
C1798 C1794 1.524 . S
C1798 H1810 0.956 . S
C1798 H1811 0.961 . S
C1798 H1812 0.961 . S
C1799 C1796 1.539 . S
C1799 H1813 0.958 . S
C1799 H1814 0.961 . S
C1799 H1815 0.960 . S
H1800 C1784 0.931 . S
H1801 C1789 0.929 . S
H1802 C1790 0.960 . S
H1803 C1790 0.962 . S
H1804 C1790 0.960 . S
H1805 C1791 0.961 . S
H1806 C1791 0.961 . S
H1807 C1791 0.961 . S
H1808 C1792 0.931 . S
H1809 C1797 0.930 . S
H1810 C1798 0.956 . S
H1811 C1798 0.961 . S
H1812 C1798 0.961 . S
H1813 C1799 0.958 . S
H1814 C1799 0.961 . S
H1815 C1799 0.960 . S
C1816 C1817 1.391 . S
C1816 C1818 1.394 . S
C1816 H1832 0.931 . S
C1817 C1816 1.391 . S
C1817 C1821 1.376 . S
C1818 C1816 1.394 . S
C1818 C1819 1.369 . S
C1818 C1822 1.531 . S
C1819 C1818 1.369 . S
C1819 C1820 1.410 . S
C1819 C1827 1.503 . S
C1820 C1819 1.410 . S
C1820 C1821 1.392 . S
C1820 C1823 1.511 . S
C1821 C1817 1.376 . S
C1821 C1820 1.392 . S
C1821 H1833 0.929 . S
C1822 C1818 1.531 . S
C1822 H1834 0.960 . S
C1822 H1835 0.962 . S
C1822 H1836 0.960 . S
C1823 C1820 1.511 . S
C1823 H1837 0.961 . S
C1823 H1838 0.961 . S
C1823 H1839 0.961 . S
C1824 C1825 1.370 . S
C1824 C1826 1.363 . S
C1824 H1840 0.931 . S
C1825 C1824 1.370 . S
C1825 C1829 1.408 . S
C1826 C1824 1.363 . S
C1826 C1827 1.370 . S
C1826 C1830 1.524 . S
C1827 C1819 1.503 . S
C1827 C1826 1.370 . S
C1827 C1828 1.403 . S
C1828 C1827 1.403 . S
C1828 C1829 1.404 . S
C1828 C1831 1.539 . S
C1829 C1825 1.408 . S
C1829 C1828 1.404 . S
C1829 H1841 0.930 . S
C1830 C1826 1.524 . S
C1830 H1842 0.956 . S
C1830 H1843 0.961 . S
C1830 H1844 0.961 . S
C1831 C1828 1.539 . S
C1831 H1845 0.958 . S
C1831 H1846 0.961 . S
C1831 H1847 0.960 . S
H1832 C1816 0.931 . S
H1833 C1821 0.929 . S
H1834 C1822 0.960 . S
H1835 C1822 0.962 . S
H1836 C1822 0.960 . S
H1837 C1823 0.961 . S
H1838 C1823 0.961 . S
H1839 C1823 0.961 . S
H1840 C1824 0.931 . S
H1841 C1829 0.930 . S
H1842 C1830 0.956 . S
H1843 C1830 0.961 . S
H1844 C1830 0.961 . S
H1845 C1831 0.958 . S
H1846 C1831 0.961 . S
H1847 C1831 0.960 . S
C1848 C1849 1.391 . S
C1848 C1850 1.394 . S
C1848 H1864 0.931 . S
C1849 C1848 1.391 . S
C1849 C1853 1.376 . S
C1850 C1848 1.394 . S
C1850 C1851 1.369 . S
C1850 C1854 1.531 . S
C1851 C1850 1.369 . S
C1851 C1852 1.410 . S
C1851 C1859 1.503 . S
C1852 C1851 1.410 . S
C1852 C1853 1.392 . S
C1852 C1855 1.511 . S
C1853 C1849 1.376 . S
C1853 C1852 1.392 . S
C1853 H1865 0.929 . S
C1854 C1850 1.531 . S
C1854 H1866 0.960 . S
C1854 H1867 0.962 . S
C1854 H1868 0.960 . S
C1855 C1852 1.511 . S
C1855 H1869 0.961 . S
C1855 H1870 0.961 . S
C1855 H1871 0.961 . S
C1856 C1857 1.370 . S
C1856 C1858 1.363 . S
C1856 H1872 0.931 . S
C1857 C1856 1.370 . S
C1857 C1861 1.408 . S
C1858 C1856 1.363 . S
C1858 C1859 1.370 . S
C1858 C1862 1.524 . S
C1859 C1851 1.503 . S
C1859 C1858 1.370 . S
C1859 C1860 1.403 . S
C1860 C1859 1.403 . S
C1860 C1861 1.404 . S
C1860 C1863 1.539 . S
C1861 C1857 1.408 . S
C1861 C1860 1.404 . S
C1861 H1873 0.930 . S
C1862 C1858 1.524 . S
C1862 H1874 0.956 . S
C1862 H1875 0.961 . S
C1862 H1876 0.961 . S
C1863 C1860 1.539 . S
C1863 H1877 0.958 . S
C1863 H1878 0.961 . S
C1863 H1879 0.960 . S
H1864 C1848 0.931 . S
H1865 C1853 0.929 . S
H1866 C1854 0.960 . S
H1867 C1854 0.962 . S
H1868 C1854 0.960 . S
H1869 C1855 0.961 . S
H1870 C1855 0.961 . S
H1871 C1855 0.961 . S
H1872 C1856 0.931 . S
H1873 C1861 0.930 . S
H1874 C1862 0.956 . S
H1875 C1862 0.961 . S
H1876 C1862 0.961 . S
H1877 C1863 0.958 . S
H1878 C1863 0.961 . S
H1879 C1863 0.960 . S
C1880 C1881 1.391 . S
C1880 C1882 1.394 . S
C1880 H1896 0.931 . S
C1881 C1880 1.391 . S
C1881 C1885 1.376 . S
C1882 C1880 1.394 . S
C1882 C1883 1.369 . S
C1882 C1886 1.531 . S
C1883 C1882 1.369 . S
C1883 C1884 1.410 . S
C1883 C1891 1.503 . S
C1884 C1883 1.410 . S
C1884 C1885 1.392 . S
C1884 C1887 1.511 . S
C1885 C1881 1.376 . S
C1885 C1884 1.392 . S
C1885 H1897 0.929 . S
C1886 C1882 1.531 . S
C1886 H1898 0.960 . S
C1886 H1899 0.962 . S
C1886 H1900 0.960 . S
C1887 C1884 1.511 . S
C1887 H1901 0.961 . S
C1887 H1902 0.961 . S
C1887 H1903 0.961 . S
C1888 C1889 1.370 . S
C1888 C1890 1.363 . S
C1888 H1904 0.931 . S
C1889 C1888 1.370 . S
C1889 C1893 1.408 . S
C1890 C1888 1.363 . S
C1890 C1891 1.370 . S
C1890 C1894 1.524 . S
C1891 C1883 1.503 . S
C1891 C1890 1.370 . S
C1891 C1892 1.403 . S
C1892 C1891 1.403 . S
C1892 C1893 1.404 . S
C1892 C1895 1.539 . S
C1893 C1889 1.408 . S
C1893 C1892 1.404 . S
C1893 H1905 0.930 . S
C1894 C1890 1.524 . S
C1894 H1906 0.956 . S
C1894 H1907 0.961 . S
C1894 H1908 0.961 . S
C1895 C1892 1.539 . S
C1895 H1909 0.958 . S
C1895 H1910 0.961 . S
C1895 H1911 0.960 . S
H1896 C1880 0.931 . S
H1897 C1885 0.929 . S
H1898 C1886 0.960 . S
H1899 C1886 0.962 . S
H1900 C1886 0.960 . S
H1901 C1887 0.961 . S
H1902 C1887 0.961 . S
H1903 C1887 0.961 . S
H1904 C1888 0.931 . S
H1905 C1893 0.930 . S
H1906 C1894 0.956 . S
H1907 C1894 0.961 . S
H1908 C1894 0.961 . S
H1909 C1895 0.958 . S
H1910 C1895 0.961 . S
H1911 C1895 0.960 . S
C1912 C1913 1.391 . S
C1912 C1914 1.394 . S
C1912 H1928 0.931 . S
C1913 C1912 1.391 . S
C1913 C1917 1.376 . S
C1914 C1912 1.394 . S
C1914 C1915 1.369 . S
C1914 C1918 1.531 . S
C1915 C1914 1.369 . S
C1915 C1916 1.410 . S
C1915 C1923 1.503 . S
C1916 C1915 1.410 . S
C1916 C1917 1.392 . S
C1916 C1919 1.511 . S
C1917 C1913 1.376 . S
C1917 C1916 1.392 . S
C1917 H1929 0.929 . S
C1918 C1914 1.531 . S
C1918 H1930 0.960 . S
C1918 H1931 0.962 . S
C1918 H1932 0.960 . S
C1919 C1916 1.511 . S
C1919 H1933 0.961 . S
C1919 H1934 0.961 . S
C1919 H1935 0.961 . S
C1920 C1921 1.370 . S
C1920 C1922 1.363 . S
C1920 H1936 0.931 . S
C1921 C1920 1.370 . S
C1921 C1925 1.408 . S
C1922 C1920 1.363 . S
C1922 C1923 1.370 . S
C1922 C1926 1.524 . S
C1923 C1915 1.503 . S
C1923 C1922 1.370 . S
C1923 C1924 1.403 . S
C1924 C1923 1.403 . S
C1924 C1925 1.404 . S
C1924 C1927 1.539 . S
C1925 C1921 1.408 . S
C1925 C1924 1.404 . S
C1925 H1937 0.930 . S
C1926 C1922 1.524 . S
C1926 H1938 0.956 . S
C1926 H1939 0.961 . S
C1926 H1940 0.961 . S
C1927 C1924 1.539 . S
C1927 H1941 0.958 . S
C1927 H1942 0.961 . S
C1927 H1943 0.960 . S
H1928 C1912 0.931 . S
H1929 C1917 0.929 . S
H1930 C1918 0.960 . S
H1931 C1918 0.962 . S
H1932 C1918 0.960 . S
H1933 C1919 0.961 . S
H1934 C1919 0.961 . S
H1935 C1919 0.961 . S
H1936 C1920 0.931 . S
H1937 C1925 0.930 . S
H1938 C1926 0.956 . S
H1939 C1926 0.961 . S
H1940 C1926 0.961 . S
H1941 C1927 0.958 . S
H1942 C1927 0.961 . S
H1943 C1927 0.960 . S
C1944 C1945 1.391 . S
C1944 C1946 1.394 . S
C1944 H1960 0.931 . S
C1945 C1944 1.391 . S
C1945 C1949 1.376 . S
C1946 C1944 1.394 . S
C1946 C1947 1.369 . S
C1946 C1950 1.531 . S
C1947 C1946 1.369 . S
C1947 C1948 1.410 . S
C1947 C1955 1.503 . S
C1948 C1947 1.410 . S
C1948 C1949 1.392 . S
C1948 C1951 1.511 . S
C1949 C1945 1.376 . S
C1949 C1948 1.392 . S
C1949 H1961 0.929 . S
C1950 C1946 1.531 . S
C1950 H1962 0.960 . S
C1950 H1963 0.962 . S
C1950 H1964 0.960 . S
C1951 C1948 1.511 . S
C1951 H1965 0.961 . S
C1951 H1966 0.961 . S
C1951 H1967 0.961 . S
C1952 C1953 1.370 . S
C1952 C1954 1.363 . S
C1952 H1968 0.931 . S
C1953 C1952 1.370 . S
C1953 C1957 1.408 . S
C1954 C1952 1.363 . S
C1954 C1955 1.370 . S
C1954 C1958 1.524 . S
C1955 C1947 1.503 . S
C1955 C1954 1.370 . S
C1955 C1956 1.403 . S
C1956 C1955 1.403 . S
C1956 C1957 1.404 . S
C1956 C1959 1.539 . S
C1957 C1953 1.408 . S
C1957 C1956 1.404 . S
C1957 H1969 0.930 . S
C1958 C1954 1.524 . S
C1958 H1970 0.956 . S
C1958 H1971 0.961 . S
C1958 H1972 0.961 . S
C1959 C1956 1.539 . S
C1959 H1973 0.958 . S
C1959 H1974 0.961 . S
C1959 H1975 0.960 . S
H1960 C1944 0.931 . S
H1961 C1949 0.929 . S
H1962 C1950 0.960 . S
H1963 C1950 0.962 . S
H1964 C1950 0.960 . S
H1965 C1951 0.961 . S
H1966 C1951 0.961 . S
H1967 C1951 0.961 . S
H1968 C1952 0.931 . S
H1969 C1957 0.930 . S
H1970 C1958 0.956 . S
H1971 C1958 0.961 . S
H1972 C1958 0.961 . S
H1973 C1959 0.958 . S
H1974 C1959 0.961 . S
H1975 C1959 0.960 . S
C1976 C1977 1.391 . S
C1976 C1978 1.394 . S
C1976 H1992 0.931 . S
C1977 C1976 1.391 . S
C1977 C1981 1.376 . S
C1978 C1976 1.394 . S
C1978 C1979 1.369 . S
C1978 C1982 1.531 . S
C1979 C1978 1.369 . S
C1979 C1980 1.410 . S
C1979 C1987 1.503 . S
C1980 C1979 1.410 . S
C1980 C1981 1.392 . S
C1980 C1983 1.511 . S
C1981 C1977 1.376 . S
C1981 C1980 1.392 . S
C1981 H1993 0.929 . S
C1982 C1978 1.531 . S
C1982 H1994 0.960 . S
C1982 H1995 0.962 . S
C1982 H1996 0.960 . S
C1983 C1980 1.511 . S
C1983 H1997 0.961 . S
C1983 H1998 0.961 . S
C1983 H1999 0.961 . S
C1984 C1985 1.370 . S
C1984 C1986 1.363 . S
C1984 H2000 0.931 . S
C1985 C1984 1.370 . S
C1985 C1989 1.408 . S
C1986 C1984 1.363 . S
C1986 C1987 1.370 . S
C1986 C1990 1.524 . S
C1987 C1979 1.503 . S
C1987 C1986 1.370 . S
C1987 C1988 1.403 . S
C1988 C1987 1.403 . S
C1988 C1989 1.404 . S
C1988 C1991 1.539 . S
C1989 C1985 1.408 . S
C1989 C1988 1.404 . S
C1989 H2001 0.930 . S
C1990 C1986 1.524 . S
C1990 H2002 0.956 . S
C1990 H2003 0.961 . S
C1990 H2004 0.961 . S
C1991 C1988 1.539 . S
C1991 H2005 0.958 . S
C1991 H2006 0.961 . S
C1991 H2007 0.960 . S
H1992 C1976 0.931 . S
H1993 C1981 0.929 . S
H1994 C1982 0.960 . S
H1995 C1982 0.962 . S
H1996 C1982 0.960 . S
H1997 C1983 0.961 . S
H1998 C1983 0.961 . S
H1999 C1983 0.961 . S
H2000 C1984 0.931 . S
H2001 C1989 0.930 . S
H2002 C1990 0.956 . S
H2003 C1990 0.961 . S
H2004 C1990 0.961 . S
H2005 C1991 0.958 . S
H2006 C1991 0.961 . S
H2007 C1991 0.960 . S
C2008 C2009 1.391 . S
C2008 C2010 1.394 . S
C2008 H2024 0.931 . S
C2009 C2008 1.391 . S
C2009 C2013 1.376 . S
C2010 C2008 1.394 . S
C2010 C2011 1.369 . S
C2010 C2014 1.531 . S
C2011 C2010 1.369 . S
C2011 C2012 1.410 . S
C2011 C2019 1.503 . S
C2012 C2011 1.410 . S
C2012 C2013 1.392 . S
C2012 C2015 1.511 . S
C2013 C2009 1.376 . S
C2013 C2012 1.392 . S
C2013 H2025 0.929 . S
C2014 C2010 1.531 . S
C2014 H2026 0.960 . S
C2014 H2027 0.962 . S
C2014 H2028 0.960 . S
C2015 C2012 1.511 . S
C2015 H2029 0.961 . S
C2015 H2030 0.961 . S
C2015 H2031 0.961 . S
C2016 C2017 1.370 . S
C2016 C2018 1.363 . S
C2016 H2032 0.931 . S
C2017 C2016 1.370 . S
C2017 C2021 1.408 . S
C2018 C2016 1.363 . S
C2018 C2019 1.370 . S
C2018 C2022 1.524 . S
C2019 C2011 1.503 . S
C2019 C2018 1.370 . S
C2019 C2020 1.403 . S
C2020 C2019 1.403 . S
C2020 C2021 1.404 . S
C2020 C2023 1.539 . S
C2021 C2017 1.408 . S
C2021 C2020 1.404 . S
C2021 H2033 0.930 . S
C2022 C2018 1.524 . S
C2022 H2034 0.956 . S
C2022 H2035 0.961 . S
C2022 H2036 0.961 . S
C2023 C2020 1.539 . S
C2023 H2037 0.958 . S
C2023 H2038 0.961 . S
C2023 H2039 0.960 . S
H2024 C2008 0.931 . S
H2025 C2013 0.929 . S
H2026 C2014 0.960 . S
H2027 C2014 0.962 . S
H2028 C2014 0.960 . S
H2029 C2015 0.961 . S
H2030 C2015 0.961 . S
H2031 C2015 0.961 . S
H2032 C2016 0.931 . S
H2033 C2021 0.930 . S
H2034 C2022 0.956 . S
H2035 C2022 0.961 . S
H2036 C2022 0.961 . S
H2037 C2023 0.958 . S
H2038 C2023 0.961 . S
H2039 C2023 0.960 . S
C2040 C2041 1.391 . S
C2040 C2042 1.394 . S
C2040 H2056 0.931 . S
C2041 C2040 1.391 . S
C2041 C2045 1.376 . S
C2042 C2040 1.394 . S
C2042 C2043 1.369 . S
C2042 C2046 1.531 . S
C2043 C2042 1.369 . S
C2043 C2044 1.410 . S
C2043 C2051 1.503 . S
C2044 C2043 1.410 . S
C2044 C2045 1.392 . S
C2044 C2047 1.511 . S
C2045 C2041 1.376 . S
C2045 C2044 1.392 . S
C2045 H2057 0.929 . S
C2046 C2042 1.531 . S
C2046 H2058 0.960 . S
C2046 H2059 0.962 . S
C2046 H2060 0.960 . S
C2047 C2044 1.511 . S
C2047 H2061 0.961 . S
C2047 H2062 0.961 . S
C2047 H2063 0.961 . S
C2048 C2049 1.370 . S
C2048 C2050 1.363 . S
C2048 H2064 0.931 . S
C2049 C2048 1.370 . S
C2049 C2053 1.408 . S
C2050 C2048 1.363 . S
C2050 C2051 1.370 . S
C2050 C2054 1.524 . S
C2051 C2043 1.503 . S
C2051 C2050 1.370 . S
C2051 C2052 1.403 . S
C2052 C2051 1.403 . S
C2052 C2053 1.404 . S
C2052 C2055 1.539 . S
C2053 C2049 1.408 . S
C2053 C2052 1.404 . S
C2053 H2065 0.930 . S
C2054 C2050 1.524 . S
C2054 H2066 0.956 . S
C2054 H2067 0.961 . S
C2054 H2068 0.961 . S
C2055 C2052 1.539 . S
C2055 H2069 0.958 . S
C2055 H2070 0.961 . S
C2055 H2071 0.960 . S
H2056 C2040 0.931 . S
H2057 C2045 0.929 . S
H2058 C2046 0.960 . S
H2059 C2046 0.962 . S
H2060 C2046 0.960 . S
H2061 C2047 0.961 . S
H2062 C2047 0.961 . S
H2063 C2047 0.961 . S
H2064 C2048 0.931 . S
H2065 C2053 0.930 . S
H2066 C2054 0.956 . S
H2067 C2054 0.961 . S
H2068 C2054 0.961 . S
H2069 C2055 0.958 . S
H2070 C2055 0.961 . S
H2071 C2055 0.960 . S
C2072 C2073 1.391 . S
C2072 C2074 1.394 . S
C2072 H2088 0.931 . S
C2073 C2072 1.391 . S
C2073 C2077 1.376 . S
C2074 C2072 1.394 . S
C2074 C2075 1.369 . S
C2074 C2078 1.531 . S
C2075 C2074 1.369 . S
C2075 C2076 1.410 . S
C2075 C2083 1.503 . S
C2076 C2075 1.410 . S
C2076 C2077 1.392 . S
C2076 C2079 1.511 . S
C2077 C2073 1.376 . S
C2077 C2076 1.392 . S
C2077 H2089 0.929 . S
C2078 C2074 1.531 . S
C2078 H2090 0.960 . S
C2078 H2091 0.962 . S
C2078 H2092 0.960 . S
C2079 C2076 1.511 . S
C2079 H2093 0.961 . S
C2079 H2094 0.961 . S
C2079 H2095 0.961 . S
C2080 C2081 1.370 . S
C2080 C2082 1.363 . S
C2080 H2096 0.931 . S
C2081 C2080 1.370 . S
C2081 C2085 1.408 . S
C2082 C2080 1.363 . S
C2082 C2083 1.370 . S
C2082 C2086 1.524 . S
C2083 C2075 1.503 . S
C2083 C2082 1.370 . S
C2083 C2084 1.403 . S
C2084 C2083 1.403 . S
C2084 C2085 1.404 . S
C2084 C2087 1.539 . S
C2085 C2081 1.408 . S
C2085 C2084 1.404 . S
C2085 H2097 0.930 . S
C2086 C2082 1.524 . S
C2086 H2098 0.956 . S
C2086 H2099 0.961 . S
C2086 H2100 0.961 . S
C2087 C2084 1.539 . S
C2087 H2101 0.958 . S
C2087 H2102 0.961 . S
C2087 H2103 0.960 . S
H2088 C2072 0.931 . S
H2089 C2077 0.929 . S
H2090 C2078 0.960 . S
H2091 C2078 0.962 . S
H2092 C2078 0.960 . S
H2093 C2079 0.961 . S
H2094 C2079 0.961 . S
H2095 C2079 0.961 . S
H2096 C2080 0.931 . S
H2097 C2085 0.930 . S
H2098 C2086 0.956 . S
H2099 C2086 0.961 . S
H2100 C2086 0.961 . S
H2101 C2087 0.958 . S
H2102 C2087 0.961 . S
H2103 C2087 0.960 . S
C2104 C2105 1.391 . S
C2104 C2106 1.394 . S
C2104 H2120 0.931 . S
C2105 C2104 1.391 . S
C2105 C2109 1.376 . S
C2106 C2104 1.394 . S
C2106 C2107 1.369 . S
C2106 C2110 1.531 . S
C2107 C2106 1.369 . S
C2107 C2108 1.410 . S
C2107 C2115 1.503 . S
C2108 C2107 1.410 . S
C2108 C2109 1.392 . S
C2108 C2111 1.511 . S
C2109 C2105 1.376 . S
C2109 C2108 1.392 . S
C2109 H2121 0.929 . S
C2110 C2106 1.531 . S
C2110 H2122 0.960 . S
C2110 H2123 0.962 . S
C2110 H2124 0.960 . S
C2111 C2108 1.511 . S
C2111 H2125 0.961 . S
C2111 H2126 0.961 . S
C2111 H2127 0.961 . S
C2112 C2113 1.370 . S
C2112 C2114 1.363 . S
C2112 H2128 0.931 . S
C2113 C2112 1.370 . S
C2113 C2117 1.408 . S
C2114 C2112 1.363 . S
C2114 C2115 1.370 . S
C2114 C2118 1.524 . S
C2115 C2107 1.503 . S
C2115 C2114 1.370 . S
C2115 C2116 1.403 . S
C2116 C2115 1.403 . S
C2116 C2117 1.404 . S
C2116 C2119 1.539 . S
C2117 C2113 1.408 . S
C2117 C2116 1.404 . S
C2117 H2129 0.930 . S
C2118 C2114 1.524 . S
C2118 H2130 0.956 . S
C2118 H2131 0.961 . S
C2118 H2132 0.961 . S
C2119 C2116 1.539 . S
C2119 H2133 0.958 . S
C2119 H2134 0.961 . S
C2119 H2135 0.960 . S
H2120 C2104 0.931 . S
H2121 C2109 0.929 . S
H2122 C2110 0.960 . S
H2123 C2110 0.962 . S
H2124 C2110 0.960 . S
H2125 C2111 0.961 . S
H2126 C2111 0.961 . S
H2127 C2111 0.961 . S
H2128 C2112 0.931 . S
H2129 C2117 0.930 . S
H2130 C2118 0.956 . S
H2131 C2118 0.961 . S
H2132 C2118 0.961 . S
H2133 C2119 0.958 . S
H2134 C2119 0.961 . S
H2135 C2119 0.960 . S
C2136 C2137 1.391 . S
C2136 C2138 1.394 . S
C2136 H2152 0.931 . S
C2137 C2136 1.391 . S
C2137 C2141 1.376 . S
C2138 C2136 1.394 . S
C2138 C2139 1.369 . S
C2138 C2142 1.531 . S
C2139 C2138 1.369 . S
C2139 C2140 1.410 . S
C2139 C2147 1.503 . S
C2140 C2139 1.410 . S
C2140 C2141 1.392 . S
C2140 C2143 1.511 . S
C2141 C2137 1.376 . S
C2141 C2140 1.392 . S
C2141 H2153 0.929 . S
C2142 C2138 1.531 . S
C2142 H2154 0.960 . S
C2142 H2155 0.962 . S
C2142 H2156 0.960 . S
C2143 C2140 1.511 . S
C2143 H2157 0.961 . S
C2143 H2158 0.961 . S
C2143 H2159 0.961 . S
C2144 C2145 1.370 . S
C2144 C2146 1.363 . S
C2144 H2160 0.931 . S
C2145 C2144 1.370 . S
C2145 C2149 1.408 . S
C2146 C2144 1.363 . S
C2146 C2147 1.370 . S
C2146 C2150 1.524 . S
C2147 C2139 1.503 . S
C2147 C2146 1.370 . S
C2147 C2148 1.403 . S
C2148 C2147 1.403 . S
C2148 C2149 1.404 . S
C2148 C2151 1.539 . S
C2149 C2145 1.408 . S
C2149 C2148 1.404 . S
C2149 H2161 0.930 . S
C2150 C2146 1.524 . S
C2150 H2162 0.956 . S
C2150 H2163 0.961 . S
C2150 H2164 0.961 . S
C2151 C2148 1.539 . S
C2151 H2165 0.958 . S
C2151 H2166 0.961 . S
C2151 H2167 0.960 . S
H2152 C2136 0.931 . S
H2153 C2141 0.929 . S
H2154 C2142 0.960 . S
H2155 C2142 0.962 . S
H2156 C2142 0.960 . S
H2157 C2143 0.961 . S
H2158 C2143 0.961 . S
H2159 C2143 0.961 . S
H2160 C2144 0.931 . S
H2161 C2149 0.930 . S
H2162 C2150 0.956 . S
H2163 C2150 0.961 . S
H2164 C2150 0.961 . S
H2165 C2151 0.958 . S
H2166 C2151 0.961 . S
H2167 C2151 0.960 . S
C2168 C2169 1.391 . S
C2168 C2170 1.394 . S
C2168 H2184 0.931 . S
C2169 C2168 1.391 . S
C2169 C2173 1.376 . S
C2170 C2168 1.394 . S
C2170 C2171 1.369 . S
C2170 C2174 1.531 . S
C2171 C2170 1.369 . S
C2171 C2172 1.410 . S
C2171 C2179 1.503 . S
C2172 C2171 1.410 . S
C2172 C2173 1.392 . S
C2172 C2175 1.511 . S
C2173 C2169 1.376 . S
C2173 C2172 1.392 . S
C2173 H2185 0.929 . S
C2174 C2170 1.531 . S
C2174 H2186 0.960 . S
C2174 H2187 0.962 . S
C2174 H2188 0.960 . S
C2175 C2172 1.511 . S
C2175 H2189 0.961 . S
C2175 H2190 0.961 . S
C2175 H2191 0.961 . S
C2176 C2177 1.370 . S
C2176 C2178 1.363 . S
C2176 H2192 0.931 . S
C2177 C2176 1.370 . S
C2177 C2181 1.408 . S
C2178 C2176 1.363 . S
C2178 C2179 1.370 . S
C2178 C2182 1.524 . S
C2179 C2171 1.503 . S
C2179 C2178 1.370 . S
C2179 C2180 1.403 . S
C2180 C2179 1.403 . S
C2180 C2181 1.404 . S
C2180 C2183 1.539 . S
C2181 C2177 1.408 . S
C2181 C2180 1.404 . S
C2181 H2193 0.930 . S
C2182 C2178 1.524 . S
C2182 H2194 0.956 . S
C2182 H2195 0.961 . S
C2182 H2196 0.961 . S
C2183 C2180 1.539 . S
C2183 H2197 0.958 . S
C2183 H2198 0.961 . S
C2183 H2199 0.960 . S
H2184 C2168 0.931 . S
H2185 C2173 0.929 . S
H2186 C2174 0.960 . S
H2187 C2174 0.962 . S
H2188 C2174 0.960 . S
H2189 C2175 0.961 . S
H2190 C2175 0.961 . S
H2191 C2175 0.961 . S
H2192 C2176 0.931 . S
H2193 C2181 0.930 . S
H2194 C2182 0.956 . S
H2195 C2182 0.961 . S
H2196 C2182 0.961 . S
H2197 C2183 0.958 . S
H2198 C2183 0.961 . S
H2199 C2183 0.960 . S
C2200 C2201 1.391 . S
C2200 C2202 1.394 . S
C2200 H2216 0.931 . S
C2201 C2200 1.391 . S
C2201 C2205 1.376 . S
C2202 C2200 1.394 . S
C2202 C2203 1.369 . S
C2202 C2206 1.531 . S
C2203 C2202 1.369 . S
C2203 C2204 1.410 . S
C2203 C2211 1.503 . S
C2204 C2203 1.410 . S
C2204 C2205 1.392 . S
C2204 C2207 1.511 . S
C2205 C2201 1.376 . S
C2205 C2204 1.392 . S
C2205 H2217 0.929 . S
C2206 C2202 1.531 . S
C2206 H2218 0.960 . S
C2206 H2219 0.962 . S
C2206 H2220 0.960 . S
C2207 C2204 1.511 . S
C2207 H2221 0.961 . S
C2207 H2222 0.961 . S
C2207 H2223 0.961 . S
C2208 C2209 1.370 . S
C2208 C2210 1.363 . S
C2208 H2224 0.931 . S
C2209 C2208 1.370 . S
C2209 C2213 1.408 . S
C2210 C2208 1.363 . S
C2210 C2211 1.370 . S
C2210 C2214 1.524 . S
C2211 C2203 1.503 . S
C2211 C2210 1.370 . S
C2211 C2212 1.403 . S
C2212 C2211 1.403 . S
C2212 C2213 1.404 . S
C2212 C2215 1.539 . S
C2213 C2209 1.408 . S
C2213 C2212 1.404 . S
C2213 H2225 0.930 . S
C2214 C2210 1.524 . S
C2214 H2226 0.956 . S
C2214 H2227 0.961 . S
C2214 H2228 0.961 . S
C2215 C2212 1.539 . S
C2215 H2229 0.958 . S
C2215 H2230 0.961 . S
C2215 H2231 0.960 . S
H2216 C2200 0.931 . S
H2217 C2205 0.929 . S
H2218 C2206 0.960 . S
H2219 C2206 0.962 . S
H2220 C2206 0.960 . S
H2221 C2207 0.961 . S
H2222 C2207 0.961 . S
H2223 C2207 0.961 . S
H2224 C2208 0.931 . S
H2225 C2213 0.930 . S
H2226 C2214 0.956 . S
H2227 C2214 0.961 . S
H2228 C2214 0.961 . S
H2229 C2215 0.958 . S
H2230 C2215 0.961 . S
H2231 C2215 0.960 . S
C2232 C2233 1.391 . S
C2232 C2234 1.394 . S
C2232 H2248 0.931 . S
C2233 C2232 1.391 . S
C2233 C2237 1.376 . S
C2234 C2232 1.394 . S
C2234 C2235 1.369 . S
C2234 C2238 1.531 . S
C2235 C2234 1.369 . S
C2235 C2236 1.410 . S
C2235 C2243 1.503 . S
C2236 C2235 1.410 . S
C2236 C2237 1.392 . S
C2236 C2239 1.511 . S
C2237 C2233 1.376 . S
C2237 C2236 1.392 . S
C2237 H2249 0.929 . S
C2238 C2234 1.531 . S
C2238 H2250 0.960 . S
C2238 H2251 0.962 . S
C2238 H2252 0.960 . S
C2239 C2236 1.511 . S
C2239 H2253 0.961 . S
C2239 H2254 0.961 . S
C2239 H2255 0.961 . S
C2240 C2241 1.370 . S
C2240 C2242 1.363 . S
C2240 H2256 0.931 . S
C2241 C2240 1.370 . S
C2241 C2245 1.408 . S
C2242 C2240 1.363 . S
C2242 C2243 1.370 . S
C2242 C2246 1.524 . S
C2243 C2235 1.503 . S
C2243 C2242 1.370 . S
C2243 C2244 1.403 . S
C2244 C2243 1.403 . S
C2244 C2245 1.404 . S
C2244 C2247 1.539 . S
C2245 C2241 1.408 . S
C2245 C2244 1.404 . S
C2245 H2257 0.930 . S
C2246 C2242 1.524 . S
C2246 H2258 0.956 . S
C2246 H2259 0.961 . S
C2246 H2260 0.961 . S
C2247 C2244 1.539 . S
C2247 H2261 0.958 . S
C2247 H2262 0.961 . S
C2247 H2263 0.960 . S
H2248 C2232 0.931 . S
H2249 C2237 0.929 . S
H2250 C2238 0.960 . S
H2251 C2238 0.962 . S
H2252 C2238 0.960 . S
H2253 C2239 0.961 . S
H2254 C2239 0.961 . S
H2255 C2239 0.961 . S
H2256 C2240 0.931 . S
H2257 C2245 0.930 . S
H2258 C2246 0.956 . S
H2259 C2246 0.961 . S
H2260 C2246 0.961 . S
H2261 C2247 0.958 . S
H2262 C2247 0.961 . S
H2263 C2247 0.960 . S
C2264 C2265 1.391 . S
C2264 C2266 1.394 . S
C2264 H2280 0.931 . S
C2265 C2264 1.391 . S
C2265 C2269 1.376 . S
C2266 C2264 1.394 . S
C2266 C2267 1.369 . S
C2266 C2270 1.531 . S
C2267 C2266 1.369 . S
C2267 C2268 1.410 . S
C2267 C2275 1.503 . S
C2268 C2267 1.410 . S
C2268 C2269 1.392 . S
C2268 C2271 1.511 . S
C2269 C2265 1.376 . S
C2269 C2268 1.392 . S
C2269 H2281 0.929 . S
C2270 C2266 1.531 . S
C2270 H2282 0.960 . S
C2270 H2283 0.962 . S
C2270 H2284 0.960 . S
C2271 C2268 1.511 . S
C2271 H2285 0.961 . S
C2271 H2286 0.961 . S
C2271 H2287 0.961 . S
C2272 C2273 1.370 . S
C2272 C2274 1.363 . S
C2272 H2288 0.931 . S
C2273 C2272 1.370 . S
C2273 C2277 1.408 . S
C2274 C2272 1.363 . S
C2274 C2275 1.370 . S
C2274 C2278 1.524 . S
C2275 C2267 1.503 . S
C2275 C2274 1.370 . S
C2275 C2276 1.403 . S
C2276 C2275 1.403 . S
C2276 C2277 1.404 . S
C2276 C2279 1.539 . S
C2277 C2273 1.408 . S
C2277 C2276 1.404 . S
C2277 H2289 0.930 . S
C2278 C2274 1.524 . S
C2278 H2290 0.956 . S
C2278 H2291 0.961 . S
C2278 H2292 0.961 . S
C2279 C2276 1.539 . S
C2279 H2293 0.958 . S
C2279 H2294 0.961 . S
C2279 H2295 0.960 . S
H2280 C2264 0.931 . S
H2281 C2269 0.929 . S
H2282 C2270 0.960 . S
H2283 C2270 0.962 . S
H2284 C2270 0.960 . S
H2285 C2271 0.961 . S
H2286 C2271 0.961 . S
H2287 C2271 0.961 . S
H2288 C2272 0.931 . S
H2289 C2277 0.930 . S
H2290 C2278 0.956 . S
H2291 C2278 0.961 . S
H2292 C2278 0.961 . S
H2293 C2279 0.958 . S
H2294 C2279 0.961 . S
H2295 C2279 0.960 . S
C2296 C2297 1.391 . S
C2296 C2298 1.394 . S
C2296 H2312 0.931 . S
C2297 C2296 1.391 . S
C2297 C2301 1.376 . S
C2298 C2296 1.394 . S
C2298 C2299 1.369 . S
C2298 C2302 1.531 . S
C2299 C2298 1.369 . S
C2299 C2300 1.410 . S
C2299 C2307 1.503 . S
C2300 C2299 1.410 . S
C2300 C2301 1.392 . S
C2300 C2303 1.511 . S
C2301 C2297 1.376 . S
C2301 C2300 1.392 . S
C2301 H2313 0.929 . S
C2302 C2298 1.531 . S
C2302 H2314 0.960 . S
C2302 H2315 0.962 . S
C2302 H2316 0.960 . S
C2303 C2300 1.511 . S
C2303 H2317 0.961 . S
C2303 H2318 0.961 . S
C2303 H2319 0.961 . S
C2304 C2305 1.370 . S
C2304 C2306 1.363 . S
C2304 H2320 0.931 . S
C2305 C2304 1.370 . S
C2305 C2309 1.408 . S
C2306 C2304 1.363 . S
C2306 C2307 1.370 . S
C2306 C2310 1.524 . S
C2307 C2299 1.503 . S
C2307 C2306 1.370 . S
C2307 C2308 1.403 . S
C2308 C2307 1.403 . S
C2308 C2309 1.404 . S
C2308 C2311 1.539 . S
C2309 C2305 1.408 . S
C2309 C2308 1.404 . S
C2309 H2321 0.930 . S
C2310 C2306 1.524 . S
C2310 H2322 0.956 . S
C2310 H2323 0.961 . S
C2310 H2324 0.961 . S
C2311 C2308 1.539 . S
C2311 H2325 0.958 . S
C2311 H2326 0.961 . S
C2311 H2327 0.960 . S
H2312 C2296 0.931 . S
H2313 C2301 0.929 . S
H2314 C2302 0.960 . S
H2315 C2302 0.962 . S
H2316 C2302 0.960 . S
H2317 C2303 0.961 . S
H2318 C2303 0.961 . S
H2319 C2303 0.961 . S
H2320 C2304 0.931 . S
H2321 C2309 0.930 . S
H2322 C2310 0.956 . S
H2323 C2310 0.961 . S
H2324 C2310 0.961 . S
H2325 C2311 0.958 . S
H2326 C2311 0.961 . S
H2327 C2311 0.960 . S
C2328 C2329 1.391 . S
C2328 C2330 1.394 . S
C2328 H2344 0.931 . S
C2329 C2328 1.391 . S
C2329 C2333 1.376 . S
C2330 C2328 1.394 . S
C2330 C2331 1.369 . S
C2330 C2334 1.531 . S
C2331 C2330 1.369 . S
C2331 C2332 1.410 . S
C2331 C2339 1.503 . S
C2332 C2331 1.410 . S
C2332 C2333 1.392 . S
C2332 C2335 1.511 . S
C2333 C2329 1.376 . S
C2333 C2332 1.392 . S
C2333 H2345 0.929 . S
C2334 C2330 1.531 . S
C2334 H2346 0.960 . S
C2334 H2347 0.962 . S
C2334 H2348 0.960 . S
C2335 C2332 1.511 . S
C2335 H2349 0.961 . S
C2335 H2350 0.961 . S
C2335 H2351 0.961 . S
C2336 C2337 1.370 . S
C2336 C2338 1.363 . S
C2336 H2352 0.931 . S
C2337 C2336 1.370 . S
C2337 C2341 1.408 . S
C2338 C2336 1.363 . S
C2338 C2339 1.370 . S
C2338 C2342 1.524 . S
C2339 C2331 1.503 . S
C2339 C2338 1.370 . S
C2339 C2340 1.403 . S
C2340 C2339 1.403 . S
C2340 C2341 1.404 . S
C2340 C2343 1.539 . S
C2341 C2337 1.408 . S
C2341 C2340 1.404 . S
C2341 H2353 0.930 . S
C2342 C2338 1.524 . S
C2342 H2354 0.956 . S
C2342 H2355 0.961 . S
C2342 H2356 0.961 . S
C2343 C2340 1.539 . S
C2343 H2357 0.958 . S
C2343 H2358 0.961 . S
C2343 H2359 0.960 . S
H2344 C2328 0.931 . S
H2345 C2333 0.929 . S
H2346 C2334 0.960 . S
H2347 C2334 0.962 . S
H2348 C2334 0.960 . S
H2349 C2335 0.961 . S
H2350 C2335 0.961 . S
H2351 C2335 0.961 . S
H2352 C2336 0.931 . S
H2353 C2341 0.930 . S
H2354 C2342 0.956 . S
H2355 C2342 0.961 . S
H2356 C2342 0.961 . S
H2357 C2343 0.958 . S
H2358 C2343 0.961 . S
H2359 C2343 0.960 . S
C2360 C2361 1.391 . S
C2360 C2362 1.394 . S
C2360 H2376 0.931 . S
C2361 C2360 1.391 . S
C2361 C2365 1.376 . S
C2362 C2360 1.394 . S
C2362 C2363 1.369 . S
C2362 C2366 1.531 . S
C2363 C2362 1.369 . S
C2363 C2364 1.410 . S
C2363 C2371 1.503 . S
C2364 C2363 1.410 . S
C2364 C2365 1.392 . S
C2364 C2367 1.511 . S
C2365 C2361 1.376 . S
C2365 C2364 1.392 . S
C2365 H2377 0.929 . S
C2366 C2362 1.531 . S
C2366 H2378 0.960 . S
C2366 H2379 0.962 . S
C2366 H2380 0.960 . S
C2367 C2364 1.511 . S
C2367 H2381 0.961 . S
C2367 H2382 0.961 . S
C2367 H2383 0.961 . S
C2368 C2369 1.370 . S
C2368 C2370 1.363 . S
C2368 H2384 0.931 . S
C2369 C2368 1.370 . S
C2369 C2373 1.408 . S
C2370 C2368 1.363 . S
C2370 C2371 1.370 . S
C2370 C2374 1.524 . S
C2371 C2363 1.503 . S
C2371 C2370 1.370 . S
C2371 C2372 1.403 . S
C2372 C2371 1.403 . S
C2372 C2373 1.404 . S
C2372 C2375 1.539 . S
C2373 C2369 1.408 . S
C2373 C2372 1.404 . S
C2373 H2385 0.930 . S
C2374 C2370 1.524 . S
C2374 H2386 0.956 . S
C2374 H2387 0.961 . S
C2374 H2388 0.961 . S
C2375 C2372 1.539 . S
C2375 H2389 0.958 . S
C2375 H2390 0.961 . S
C2375 H2391 0.960 . S
H2376 C2360 0.931 . S
H2377 C2365 0.929 . S
H2378 C2366 0.960 . S
H2379 C2366 0.962 . S
H2380 C2366 0.960 . S
H2381 C2367 0.961 . S
H2382 C2367 0.961 . S
H2383 C2367 0.961 . S
H2384 C2368 0.931 . S
H2385 C2373 0.930 . S
H2386 C2374 0.956 . S
H2387 C2374 0.961 . S
H2388 C2374 0.961 . S
H2389 C2375 0.958 . S
H2390 C2375 0.961 . S
H2391 C2375 0.960 . S
C2392 C2393 1.391 . S
C2392 C2394 1.394 . S
C2392 H2408 0.931 . S
C2393 C2392 1.391 . S
C2393 C2397 1.376 . S
C2394 C2392 1.394 . S
C2394 C2395 1.369 . S
C2394 C2398 1.531 . S
C2395 C2394 1.369 . S
C2395 C2396 1.410 . S
C2395 C2403 1.503 . S
C2396 C2395 1.410 . S
C2396 C2397 1.392 . S
C2396 C2399 1.511 . S
C2397 C2393 1.376 . S
C2397 C2396 1.392 . S
C2397 H2409 0.929 . S
C2398 C2394 1.531 . S
C2398 H2410 0.960 . S
C2398 H2411 0.962 . S
C2398 H2412 0.960 . S
C2399 C2396 1.511 . S
C2399 H2413 0.961 . S
C2399 H2414 0.961 . S
C2399 H2415 0.961 . S
C2400 C2401 1.370 . S
C2400 C2402 1.363 . S
C2400 H2416 0.931 . S
C2401 C2400 1.370 . S
C2401 C2405 1.408 . S
C2402 C2400 1.363 . S
C2402 C2403 1.370 . S
C2402 C2406 1.524 . S
C2403 C2395 1.503 . S
C2403 C2402 1.370 . S
C2403 C2404 1.403 . S
C2404 C2403 1.403 . S
C2404 C2405 1.404 . S
C2404 C2407 1.539 . S
C2405 C2401 1.408 . S
C2405 C2404 1.404 . S
C2405 H2417 0.930 . S
C2406 C2402 1.524 . S
C2406 H2418 0.956 . S
C2406 H2419 0.961 . S
C2406 H2420 0.961 . S
C2407 C2404 1.539 . S
C2407 H2421 0.958 . S
C2407 H2422 0.961 . S
C2407 H2423 0.960 . S
H2408 C2392 0.931 . S
H2409 C2397 0.929 . S
H2410 C2398 0.960 . S
H2411 C2398 0.962 . S
H2412 C2398 0.960 . S
H2413 C2399 0.961 . S
H2414 C2399 0.961 . S
H2415 C2399 0.961 . S
H2416 C2400 0.931 . S
H2417 C2405 0.930 . S
H2418 C2406 0.956 . S
H2419 C2406 0.961 . S
H2420 C2406 0.961 . S
H2421 C2407 0.958 . S
H2422 C2407 0.961 . S
H2423 C2407 0.960 . S
C2424 C2425 1.391 . S
C2424 C2426 1.394 . S
C2424 H2440 0.931 . S
C2425 C2424 1.391 . S
C2425 C2429 1.376 . S
C2426 C2424 1.394 . S
C2426 C2427 1.369 . S
C2426 C2430 1.531 . S
C2427 C2426 1.369 . S
C2427 C2428 1.410 . S
C2427 C2435 1.503 . S
C2428 C2427 1.410 . S
C2428 C2429 1.392 . S
C2428 C2431 1.511 . S
C2429 C2425 1.376 . S
C2429 C2428 1.392 . S
C2429 H2441 0.929 . S
C2430 C2426 1.531 . S
C2430 H2442 0.960 . S
C2430 H2443 0.962 . S
C2430 H2444 0.960 . S
C2431 C2428 1.511 . S
C2431 H2445 0.961 . S
C2431 H2446 0.961 . S
C2431 H2447 0.961 . S
C2432 C2433 1.370 . S
C2432 C2434 1.363 . S
C2432 H2448 0.931 . S
C2433 C2432 1.370 . S
C2433 C2437 1.408 . S
C2434 C2432 1.363 . S
C2434 C2435 1.370 . S
C2434 C2438 1.524 . S
C2435 C2427 1.503 . S
C2435 C2434 1.370 . S
C2435 C2436 1.403 . S
C2436 C2435 1.403 . S
C2436 C2437 1.404 . S
C2436 C2439 1.539 . S
C2437 C2433 1.408 . S
C2437 C2436 1.404 . S
C2437 H2449 0.930 . S
C2438 C2434 1.524 . S
C2438 H2450 0.956 . S
C2438 H2451 0.961 . S
C2438 H2452 0.961 . S
C2439 C2436 1.539 . S
C2439 H2453 0.958 . S
C2439 H2454 0.961 . S
C2439 H2455 0.960 . S
H2440 C2424 0.931 . S
H2441 C2429 0.929 . S
H2442 C2430 0.960 . S
H2443 C2430 0.962 . S
H2444 C2430 0.960 . S
H2445 C2431 0.961 . S
H2446 C2431 0.961 . S
H2447 C2431 0.961 . S
H2448 C2432 0.931 . S
H2449 C2437 0.930 . S
H2450 C2438 0.956 . S
H2451 C2438 0.961 . S
H2452 C2438 0.961 . S
H2453 C2439 0.958 . S
H2454 C2439 0.961 . S
H2455 C2439 0.960 . S
C2456 C2457 1.391 . S
C2456 C2458 1.394 . S
C2456 H2472 0.931 . S
C2457 C2456 1.391 . S
C2457 C2461 1.376 . S
C2458 C2456 1.394 . S
C2458 C2459 1.369 . S
C2458 C2462 1.531 . S
C2459 C2458 1.369 . S
C2459 C2460 1.410 . S
C2459 C2467 1.503 . S
C2460 C2459 1.410 . S
C2460 C2461 1.392 . S
C2460 C2463 1.511 . S
C2461 C2457 1.376 . S
C2461 C2460 1.392 . S
C2461 H2473 0.929 . S
C2462 C2458 1.531 . S
C2462 H2474 0.960 . S
C2462 H2475 0.962 . S
C2462 H2476 0.960 . S
C2463 C2460 1.511 . S
C2463 H2477 0.961 . S
C2463 H2478 0.961 . S
C2463 H2479 0.961 . S
C2464 C2465 1.370 . S
C2464 C2466 1.363 . S
C2464 H2480 0.931 . S
C2465 C2464 1.370 . S
C2465 C2469 1.408 . S
C2466 C2464 1.363 . S
C2466 C2467 1.370 . S
C2466 C2470 1.524 . S
C2467 C2459 1.503 . S
C2467 C2466 1.370 . S
C2467 C2468 1.403 . S
C2468 C2467 1.403 . S
C2468 C2469 1.404 . S
C2468 C2471 1.539 . S
C2469 C2465 1.408 . S
C2469 C2468 1.404 . S
C2469 H2481 0.930 . S
C2470 C2466 1.524 . S
C2470 H2482 0.956 . S
C2470 H2483 0.961 . S
C2470 H2484 0.961 . S
C2471 C2468 1.539 . S
C2471 H2485 0.958 . S
C2471 H2486 0.961 . S
C2471 H2487 0.960 . S
H2472 C2456 0.931 . S
H2473 C2461 0.929 . S
H2474 C2462 0.960 . S
H2475 C2462 0.962 . S
H2476 C2462 0.960 . S
H2477 C2463 0.961 . S
H2478 C2463 0.961 . S
H2479 C2463 0.961 . S
H2480 C2464 0.931 . S
H2481 C2469 0.930 . S
H2482 C2470 0.956 . S
H2483 C2470 0.961 . S
H2484 C2470 0.961 . S
H2485 C2471 0.958 . S
H2486 C2471 0.961 . S
H2487 C2471 0.960 . S
C2488 C2489 1.391 . S
C2488 C2490 1.394 . S
C2488 H2504 0.931 . S
C2489 C2488 1.391 . S
C2489 C2493 1.376 . S
C2490 C2488 1.394 . S
C2490 C2491 1.369 . S
C2490 C2494 1.531 . S
C2491 C2490 1.369 . S
C2491 C2492 1.410 . S
C2491 C2499 1.503 . S
C2492 C2491 1.410 . S
C2492 C2493 1.392 . S
C2492 C2495 1.511 . S
C2493 C2489 1.376 . S
C2493 C2492 1.392 . S
C2493 H2505 0.929 . S
C2494 C2490 1.531 . S
C2494 H2506 0.960 . S
C2494 H2507 0.962 . S
C2494 H2508 0.960 . S
C2495 C2492 1.511 . S
C2495 H2509 0.961 . S
C2495 H2510 0.961 . S
C2495 H2511 0.961 . S
C2496 C2497 1.370 . S
C2496 C2498 1.363 . S
C2496 H2512 0.931 . S
C2497 C2496 1.370 . S
C2497 C2501 1.408 . S
C2498 C2496 1.363 . S
C2498 C2499 1.370 . S
C2498 C2502 1.524 . S
C2499 C2491 1.503 . S
C2499 C2498 1.370 . S
C2499 C2500 1.403 . S
C2500 C2499 1.403 . S
C2500 C2501 1.404 . S
C2500 C2503 1.539 . S
C2501 C2497 1.408 . S
C2501 C2500 1.404 . S
C2501 H2513 0.930 . S
C2502 C2498 1.524 . S
C2502 H2514 0.956 . S
C2502 H2515 0.961 . S
C2502 H2516 0.961 . S
C2503 C2500 1.539 . S
C2503 H2517 0.958 . S
C2503 H2518 0.961 . S
C2503 H2519 0.960 . S
H2504 C2488 0.931 . S
H2505 C2493 0.929 . S
H2506 C2494 0.960 . S
H2507 C2494 0.962 . S
H2508 C2494 0.960 . S
H2509 C2495 0.961 . S
H2510 C2495 0.961 . S
H2511 C2495 0.961 . S
H2512 C2496 0.931 . S
H2513 C2501 0.930 . S
H2514 C2502 0.956 . S
H2515 C2502 0.961 . S
H2516 C2502 0.961 . S
H2517 C2503 0.958 . S
H2518 C2503 0.961 . S
H2519 C2503 0.960 . S
C2520 C2521 1.391 . S
C2520 C2522 1.394 . S
C2520 H2536 0.931 . S
C2521 C2520 1.391 . S
C2521 C2525 1.376 . S
C2522 C2520 1.394 . S
C2522 C2523 1.369 . S
C2522 C2526 1.531 . S
C2523 C2522 1.369 . S
C2523 C2524 1.410 . S
C2523 C2531 1.503 . S
C2524 C2523 1.410 . S
C2524 C2525 1.392 . S
C2524 C2527 1.511 . S
C2525 C2521 1.376 . S
C2525 C2524 1.392 . S
C2525 H2537 0.929 . S
C2526 C2522 1.531 . S
C2526 H2538 0.960 . S
C2526 H2539 0.962 . S
C2526 H2540 0.960 . S
C2527 C2524 1.511 . S
C2527 H2541 0.961 . S
C2527 H2542 0.961 . S
C2527 H2543 0.961 . S
C2528 C2529 1.370 . S
C2528 C2530 1.363 . S
C2528 H2544 0.931 . S
C2529 C2528 1.370 . S
C2529 C2533 1.408 . S
C2530 C2528 1.363 . S
C2530 C2531 1.370 . S
C2530 C2534 1.524 . S
C2531 C2523 1.503 . S
C2531 C2530 1.370 . S
C2531 C2532 1.403 . S
C2532 C2531 1.403 . S
C2532 C2533 1.404 . S
C2532 C2535 1.539 . S
C2533 C2529 1.408 . S
C2533 C2532 1.404 . S
C2533 H2545 0.930 . S
C2534 C2530 1.524 . S
C2534 H2546 0.956 . S
C2534 H2547 0.961 . S
C2534 H2548 0.961 . S
C2535 C2532 1.539 . S
C2535 H2549 0.958 . S
C2535 H2550 0.961 . S
C2535 H2551 0.960 . S
H2536 C2520 0.931 . S
H2537 C2525 0.929 . S
H2538 C2526 0.960 . S
H2539 C2526 0.962 . S
H2540 C2526 0.960 . S
H2541 C2527 0.961 . S
H2542 C2527 0.961 . S
H2543 C2527 0.961 . S
H2544 C2528 0.931 . S
H2545 C2533 0.930 . S
H2546 C2534 0.956 . S
H2547 C2534 0.961 . S
H2548 C2534 0.961 . S
H2549 C2535 0.958 . S
H2550 C2535 0.961 . S
H2551 C2535 0.960 . S
C2552 C2553 1.391 . S
C2552 C2554 1.394 . S
C2552 H2568 0.931 . S
C2553 C2552 1.391 . S
C2553 C2557 1.376 . S
C2554 C2552 1.394 . S
C2554 C2555 1.369 . S
C2554 C2558 1.531 . S
C2555 C2554 1.369 . S
C2555 C2556 1.410 . S
C2555 C2563 1.503 . S
C2556 C2555 1.410 . S
C2556 C2557 1.392 . S
C2556 C2559 1.511 . S
C2557 C2553 1.376 . S
C2557 C2556 1.392 . S
C2557 H2569 0.929 . S
C2558 C2554 1.531 . S
C2558 H2570 0.960 . S
C2558 H2571 0.962 . S
C2558 H2572 0.960 . S
C2559 C2556 1.511 . S
C2559 H2573 0.961 . S
C2559 H2574 0.961 . S
C2559 H2575 0.961 . S
C2560 C2561 1.370 . S
C2560 C2562 1.363 . S
C2560 H2576 0.931 . S
C2561 C2560 1.370 . S
C2561 C2565 1.408 . S
C2562 C2560 1.363 . S
C2562 C2563 1.370 . S
C2562 C2566 1.524 . S
C2563 C2555 1.503 . S
C2563 C2562 1.370 . S
C2563 C2564 1.403 . S
C2564 C2563 1.403 . S
C2564 C2565 1.404 . S
C2564 C2567 1.539 . S
C2565 C2561 1.408 . S
C2565 C2564 1.404 . S
C2565 H2577 0.930 . S
C2566 C2562 1.524 . S
C2566 H2578 0.956 . S
C2566 H2579 0.961 . S
C2566 H2580 0.961 . S
C2567 C2564 1.539 . S
C2567 H2581 0.958 . S
C2567 H2582 0.961 . S
C2567 H2583 0.960 . S
H2568 C2552 0.931 . S
H2569 C2557 0.929 . S
H2570 C2558 0.960 . S
H2571 C2558 0.962 . S
H2572 C2558 0.960 . S
H2573 C2559 0.961 . S
H2574 C2559 0.961 . S
H2575 C2559 0.961 . S
H2576 C2560 0.931 . S
H2577 C2565 0.930 . S
H2578 C2566 0.956 . S
H2579 C2566 0.961 . S
H2580 C2566 0.961 . S
H2581 C2567 0.958 . S
H2582 C2567 0.961 . S
H2583 C2567 0.960 . S
C2584 C2585 1.391 . S
C2584 C2586 1.394 . S
C2584 H2600 0.931 . S
C2585 C2584 1.391 . S
C2585 C2589 1.376 . S
C2586 C2584 1.394 . S
C2586 C2587 1.369 . S
C2586 C2590 1.531 . S
C2587 C2586 1.369 . S
C2587 C2588 1.410 . S
C2587 C2595 1.503 . S
C2588 C2587 1.410 . S
C2588 C2589 1.392 . S
C2588 C2591 1.511 . S
C2589 C2585 1.376 . S
C2589 C2588 1.392 . S
C2589 H2601 0.929 . S
C2590 C2586 1.531 . S
C2590 H2602 0.960 . S
C2590 H2603 0.962 . S
C2590 H2604 0.960 . S
C2591 C2588 1.511 . S
C2591 H2605 0.961 . S
C2591 H2606 0.961 . S
C2591 H2607 0.961 . S
C2592 C2593 1.370 . S
C2592 C2594 1.363 . S
C2592 H2608 0.931 . S
C2593 C2592 1.370 . S
C2593 C2597 1.408 . S
C2594 C2592 1.363 . S
C2594 C2595 1.370 . S
C2594 C2598 1.524 . S
C2595 C2587 1.503 . S
C2595 C2594 1.370 . S
C2595 C2596 1.403 . S
C2596 C2595 1.403 . S
C2596 C2597 1.404 . S
C2596 C2599 1.539 . S
C2597 C2593 1.408 . S
C2597 C2596 1.404 . S
C2597 H2609 0.930 . S
C2598 C2594 1.524 . S
C2598 H2610 0.956 . S
C2598 H2611 0.961 . S
C2598 H2612 0.961 . S
C2599 C2596 1.539 . S
C2599 H2613 0.958 . S
C2599 H2614 0.961 . S
C2599 H2615 0.960 . S
H2600 C2584 0.931 . S
H2601 C2589 0.929 . S
H2602 C2590 0.960 . S
H2603 C2590 0.962 . S
H2604 C2590 0.960 . S
H2605 C2591 0.961 . S
H2606 C2591 0.961 . S
H2607 C2591 0.961 . S
H2608 C2592 0.931 . S
H2609 C2597 0.930 . S
H2610 C2598 0.956 . S
H2611 C2598 0.961 . S
H2612 C2598 0.961 . S
H2613 C2599 0.958 . S
H2614 C2599 0.961 . S
H2615 C2599 0.960 . S
C2616 C2617 1.391 . S
C2616 C2618 1.394 . S
C2616 H2632 0.931 . S
C2617 C2616 1.391 . S
C2617 C2621 1.376 . S
C2618 C2616 1.394 . S
C2618 C2619 1.369 . S
C2618 C2622 1.531 . S
C2619 C2618 1.369 . S
C2619 C2620 1.410 . S
C2619 C2627 1.503 . S
C2620 C2619 1.410 . S
C2620 C2621 1.392 . S
C2620 C2623 1.511 . S
C2621 C2617 1.376 . S
C2621 C2620 1.392 . S
C2621 H2633 0.929 . S
C2622 C2618 1.531 . S
C2622 H2634 0.960 . S
C2622 H2635 0.962 . S
C2622 H2636 0.960 . S
C2623 C2620 1.511 . S
C2623 H2637 0.961 . S
C2623 H2638 0.961 . S
C2623 H2639 0.961 . S
C2624 C2625 1.370 . S
C2624 C2626 1.363 . S
C2624 H2640 0.931 . S
C2625 C2624 1.370 . S
C2625 C2629 1.408 . S
C2626 C2624 1.363 . S
C2626 C2627 1.370 . S
C2626 C2630 1.524 . S
C2627 C2619 1.503 . S
C2627 C2626 1.370 . S
C2627 C2628 1.403 . S
C2628 C2627 1.403 . S
C2628 C2629 1.404 . S
C2628 C2631 1.539 1_556 S
C2629 C2625 1.408 . S
C2629 C2628 1.404 . S
C2629 H2641 0.930 . S
C2630 C2626 1.524 . S
C2630 H2642 0.956 . S
C2630 H2643 0.961 . S
C2630 H2644 0.961 . S
C2631 C2628 1.539 1_554 S
C2631 H2645 0.958 . S
C2631 H2646 0.961 . S
C2631 H2647 0.960 . S
H2632 C2616 0.931 . S
H2633 C2621 0.929 . S
H2634 C2622 0.960 . S
H2635 C2622 0.962 . S
H2636 C2622 0.960 . S
H2637 C2623 0.961 . S
H2638 C2623 0.961 . S
H2639 C2623 0.961 . S
H2640 C2624 0.931 . S
H2641 C2629 0.930 . S
H2642 C2630 0.956 . S
H2643 C2630 0.961 . S
H2644 C2630 0.961 . S
H2645 C2631 0.958 . S
H2646 C2631 0.961 . S
H2647 C2631 0.960 . S
C2648 C2649 1.391 . S
C2648 C2650 1.394 . S
C2648 H2664 0.931 . S
C2649 C2648 1.391 . S
C2649 C2653 1.376 1_556 S
C2650 C2648 1.394 . S
C2650 C2651 1.369 . S
C2650 C2654 1.531 . S
C2651 C2650 1.369 . S
C2651 C2652 1.410 . S
C2651 C2659 1.503 . S
C2652 C2651 1.410 . S
C2652 C2653 1.392 1_556 S
C2652 C2655 1.511 1_556 S
C2653 C2649 1.376 1_554 S
C2653 C2652 1.392 1_554 S
C2653 H2665 0.929 . S
C2654 C2650 1.531 . S
C2654 H2666 0.960 . S
C2654 H2667 0.962 . S
C2654 H2668 0.960 . S
C2655 C2652 1.511 1_554 S
C2655 H2669 0.961 . S
C2655 H2670 0.961 . S
C2655 H2671 0.961 . S
C2656 C2657 1.370 . S
C2656 C2658 1.363 . S
C2656 H2672 0.931 . S
C2657 C2656 1.370 . S
C2657 C2661 1.408 . S
C2658 C2656 1.363 . S
C2658 C2659 1.370 . S
C2658 C2662 1.524 . S
C2659 C2651 1.503 . S
C2659 C2658 1.370 . S
C2659 C2660 1.403 . S
C2660 C2659 1.403 . S
C2660 C2661 1.404 . S
C2660 C2663 1.539 . S
C2661 C2657 1.408 . S
C2661 C2660 1.404 . S
C2661 H2673 0.930 . S
C2662 C2658 1.524 . S
C2662 H2674 0.956 . S
C2662 H2675 0.961 . S
C2662 H2676 0.961 . S
C2663 C2660 1.539 . S
C2663 H2677 0.958 . S
C2663 H2678 0.961 . S
C2663 H2679 0.960 . S
H2664 C2648 0.931 . S
H2665 C2653 0.929 . S
H2666 C2654 0.960 . S
H2667 C2654 0.962 . S
H2668 C2654 0.960 . S
H2669 C2655 0.961 . S
H2670 C2655 0.961 . S
H2671 C2655 0.961 . S
H2672 C2656 0.931 . S
H2673 C2661 0.930 . S
H2674 C2662 0.956 . S
H2675 C2662 0.961 . S
H2676 C2662 0.961 . S
H2677 C2663 0.958 . S
H2678 C2663 0.961 . S
H2679 C2663 0.960 . S
C2680 C2681 1.391 . S
C2680 C2682 1.394 . S
C2680 H2696 0.931 . S
C2681 C2680 1.391 . S
C2681 C2685 1.376 . S
C2682 C2680 1.394 . S
C2682 C2683 1.369 . S
C2682 C2686 1.531 . S
C2683 C2682 1.369 . S
C2683 C2684 1.410 . S
C2683 C2691 1.503 . S
C2684 C2683 1.410 . S
C2684 C2685 1.392 . S
C2684 C2687 1.511 1_556 S
C2685 C2681 1.376 . S
C2685 C2684 1.392 . S
C2685 H2697 0.929 1_556 S
C2686 C2682 1.531 . S
C2686 H2698 0.960 . S
C2686 H2699 0.962 . S
C2686 H2700 0.960 . S
C2687 C2684 1.511 1_554 S
C2687 H2701 0.961 . S
C2687 H2702 0.961 . S
C2687 H2703 0.961 1_554 S
C2688 C2689 1.370 . S
C2688 C2690 1.363 . S
C2688 H2704 0.931 . S
C2689 C2688 1.370 . S
C2689 C2693 1.408 . S
C2690 C2688 1.363 . S
C2690 C2691 1.370 . S
C2690 C2694 1.524 . S
C2691 C2683 1.503 . S
C2691 C2690 1.370 . S
C2691 C2692 1.403 . S
C2692 C2691 1.403 . S
C2692 C2693 1.404 . S
C2692 C2695 1.539 . S
C2693 C2689 1.408 . S
C2693 C2692 1.404 . S
C2693 H2705 0.930 . S
C2694 C2690 1.524 . S
C2694 H2706 0.956 . S
C2694 H2707 0.964 1_556 S
C2694 H2708 0.961 . S
C2695 C2692 1.539 . S
C2695 H2709 0.958 . S
C2695 H2710 0.961 . S
C2695 H2711 0.960 . S
H2696 C2680 0.931 . S
H2697 C2685 0.929 1_554 S
H2698 C2686 0.960 . S
H2699 C2686 0.962 . S
H2700 C2686 0.960 . S
H2701 C2687 0.961 . S
H2702 C2687 0.961 . S
H2703 C2687 0.961 1_556 S
H2704 C2688 0.931 . S
H2705 C2693 0.930 . S
H2706 C2694 0.956 . S
H2707 C2694 0.964 1_554 S
H2708 C2694 0.961 . S
H2709 C2695 0.958 . S
H2710 C2695 0.961 . S
H2711 C2695 0.960 . S
C2712 C2713 1.391 . S
C2712 C2714 1.394 . S
C2712 H2728 0.931 . S
C2713 C2712 1.391 . S
C2713 C2717 1.376 . S
C2714 C2712 1.394 . S
C2714 C2715 1.369 . S
C2714 C2718 1.531 . S
C2715 C2714 1.369 . S
C2715 C2716 1.410 . S
C2715 C2723 1.503 . S
C2716 C2715 1.410 . S
C2716 C2717 1.392 . S
C2716 C2719 1.511 . S
C2717 C2713 1.376 . S
C2717 C2716 1.392 . S
C2717 H2729 0.929 . S
C2718 C2714 1.531 . S
C2718 H2730 0.960 . S
C2718 H2731 0.962 . S
C2718 H2732 0.960 . S
C2719 C2716 1.511 . S
C2719 H2733 0.961 . S
C2719 H2734 0.961 . S
C2719 H2735 0.961 . S
C2720 C2721 1.370 . S
C2720 C2722 1.363 . S
C2720 H2736 0.931 . S
C2721 C2720 1.370 . S
C2721 C2725 1.408 . S
C2722 C2720 1.363 . S
C2722 C2723 1.370 . S
C2722 C2726 1.524 . S
C2723 C2715 1.503 . S
C2723 C2722 1.370 . S
C2723 C2724 1.403 . S
C2724 C2723 1.403 . S
C2724 C2725 1.404 . S
C2724 C2727 1.539 . S
C2725 C2721 1.408 . S
C2725 C2724 1.404 . S
C2725 H2737 0.930 . S
C2726 C2722 1.524 . S
C2726 H2738 0.956 . S
C2726 H2739 0.961 1_556 S
C2726 H2740 0.961 1_556 S
C2727 C2724 1.539 . S
C2727 H2741 0.958 . S
C2727 H2742 0.961 . S
C2727 H2743 0.960 . S
H2728 C2712 0.931 . S
H2729 C2717 0.929 . S
H2730 C2718 0.960 . S
H2731 C2718 0.962 . S
H2732 C2718 0.960 . S
H2733 C2719 0.961 . S
H2734 C2719 0.961 . S
H2735 C2719 0.961 . S
H2736 C2720 0.931 . S
H2737 C2725 0.930 . S
H2738 C2726 0.956 . S
H2739 C2726 0.961 1_554 S
H2740 C2726 0.961 1_554 S
H2741 C2727 0.958 . S
H2742 C2727 0.961 . S
H2743 C2727 0.960 . S
C2744 C2745 1.410 . S
C2744 C2746 1.406 . S
C2744 H2760 0.901 1_556 S
C2745 C2744 1.410 . S
C2745 C2749 1.376 . S
C2746 C2744 1.406 . S
C2746 C2747 1.369 . S
C2746 C2750 1.531 1_556 S
C2747 C2746 1.369 . S
C2747 C2748 1.410 . S
C2747 C2755 1.503 . S
C2748 C2747 1.410 . S
C2748 C2749 1.392 . S
C2748 C2751 1.511 . S
C2749 C2745 1.376 . S
C2749 C2748 1.392 . S
C2749 H2761 0.929 . S
C2750 C2746 1.531 1_554 S
C2750 H2762 0.960 . S
C2750 H2763 0.962 1_554 S
C2750 H2764 0.960 . S
C2751 C2748 1.511 . S
C2751 H2765 0.961 . S
C2751 H2766 0.961 . S
C2751 H2767 0.961 . S
C2752 C2753 1.370 . S
C2752 C2754 1.363 . S
C2752 H2768 0.931 . S
C2753 C2752 1.370 . S
C2753 C2757 1.408 . S
C2754 C2752 1.363 . S
C2754 C2755 1.370 . S
C2754 C2758 1.524 . S
C2755 C2747 1.503 . S
C2755 C2754 1.370 . S
C2755 C2756 1.403 . S
C2756 C2755 1.403 . S
C2756 C2757 1.404 . S
C2756 C2759 1.539 . S
C2757 C2753 1.408 . S
C2757 C2756 1.404 . S
C2757 H2769 0.930 . S
C2758 C2754 1.524 . S
C2758 H2770 0.956 . S
C2758 H2771 0.961 . S
C2758 H2772 0.961 . S
C2759 C2756 1.539 . S
C2759 H2773 0.958 1_556 S
C2759 H2774 0.961 . S
C2759 H2775 0.960 . S
H2760 C2744 0.901 1_554 S
H2761 C2749 0.929 . S
H2762 C2750 0.960 . S
H2763 C2750 0.962 1_556 S
H2764 C2750 0.960 . S
H2765 C2751 0.961 . S
H2766 C2751 0.961 . S
H2767 C2751 0.961 . S
H2768 C2752 0.931 . S
H2769 C2757 0.930 . S
H2770 C2758 0.956 . S
H2771 C2758 0.961 . S
H2772 C2758 0.961 . S
H2773 C2759 0.958 1_554 S
H2774 C2759 0.961 . S
H2775 C2759 0.960 . S
C2776 C2777 1.391 . S
C2776 C2778 1.394 . S
C2776 H2792 0.931 . S
C2777 C2776 1.391 . S
C2777 C2781 1.376 . S
C2778 C2776 1.394 . S
C2778 C2779 1.369 . S
C2778 C2782 1.531 . S
C2779 C2778 1.369 . S
C2779 C2780 1.410 . S
C2779 C2787 1.503 . S
C2780 C2779 1.410 . S
C2780 C2781 1.392 . S
C2780 C2783 1.511 . S
C2781 C2777 1.376 . S
C2781 C2780 1.392 . S
C2781 H2793 0.929 . S
C2782 C2778 1.531 . S
C2782 H2794 0.960 . S
C2782 H2795 0.962 . S
C2782 H2796 0.960 . S
C2783 C2780 1.511 . S
C2783 H2797 0.961 . S
C2783 H2798 0.961 . S
C2783 H2799 0.961 . S
C2784 C2785 1.370 . S
C2784 C2786 1.363 . S
C2784 H2800 0.931 . S
C2785 C2784 1.370 . S
C2785 C2789 1.408 . S
C2786 C2784 1.363 . S
C2786 C2787 1.370 . S
C2786 C2790 1.524 1_556 S
C2787 C2779 1.503 . S
C2787 C2786 1.370 . S
C2787 C2788 1.403 . S
C2788 C2787 1.403 . S
C2788 C2789 1.404 . S
C2788 C2791 1.539 . S
C2789 C2785 1.408 . S
C2789 C2788 1.404 . S
C2789 H2801 0.930 . S
C2790 C2786 1.524 1_554 S
C2790 H2802 0.956 . S
C2790 H2803 0.961 . S
C2790 H2804 0.961 . S
C2791 C2788 1.539 . S
C2791 H2805 0.958 . S
C2791 H2806 0.961 . S
C2791 H2807 0.960 . S
H2792 C2776 0.931 . S
H2793 C2781 0.929 . S
H2794 C2782 0.960 . S
H2795 C2782 0.962 . S
H2796 C2782 0.960 . S
H2797 C2783 0.961 . S
H2798 C2783 0.961 . S
H2799 C2783 0.961 . S
H2800 C2784 0.931 . S
H2801 C2789 0.930 . S
H2802 C2790 0.956 . S
H2803 C2790 0.961 . S
H2804 C2790 0.961 . S
H2805 C2791 0.958 . S
H2806 C2791 0.961 . S
H2807 C2791 0.960 . S
C2808 C2809 1.391 . S
C2808 C2810 1.394 . S
C2808 H2824 0.931 . S
C2809 C2808 1.391 . S
C2809 C2813 1.376 . S
C2810 C2808 1.394 . S
C2810 C2811 1.369 . S
C2810 C2814 1.531 . S
C2811 C2810 1.369 . S
C2811 C2812 1.410 . S
C2811 C2819 1.503 . S
C2812 C2811 1.410 . S
C2812 C2813 1.392 . S
C2812 C2815 1.511 . S
C2813 C2809 1.376 . S
C2813 C2812 1.392 . S
C2813 H2825 0.929 . S
C2814 C2810 1.531 . S
C2814 H2826 0.960 . S
C2814 H2827 0.962 . S
C2814 H2828 0.960 . S
C2815 C2812 1.511 . S
C2815 H2829 0.961 . S
C2815 H2830 0.961 . S
C2815 H2831 0.961 . S
C2816 C2817 1.370 . S
C2816 C2818 1.363 . S
C2816 H2832 0.931 . S
C2817 C2816 1.370 . S
C2817 C2821 1.408 . S
C2818 C2816 1.363 . S
C2818 C2819 1.370 . S
C2818 C2822 1.524 . S
C2819 C2811 1.503 . S
C2819 C2818 1.370 . S
C2819 C2820 1.403 . S
C2820 C2819 1.403 . S
C2820 C2821 1.404 . S
C2820 C2823 1.539 . S
C2821 C2817 1.408 . S
C2821 C2820 1.404 . S
C2821 H2833 0.930 . S
C2822 C2818 1.524 . S
C2822 H2834 0.956 . S
C2822 H2835 0.961 . S
C2822 H2836 0.961 . S
C2823 C2820 1.539 . S
C2823 H2837 0.958 . S
C2823 H2838 0.961 . S
C2823 H2839 0.960 . S
H2824 C2808 0.931 . S
H2825 C2813 0.929 . S
H2826 C2814 0.960 . S
H2827 C2814 0.962 . S
H2828 C2814 0.960 . S
H2829 C2815 0.961 . S
H2830 C2815 0.961 . S
H2831 C2815 0.961 . S
H2832 C2816 0.931 . S
H2833 C2821 0.930 . S
H2834 C2822 0.956 . S
H2835 C2822 0.961 . S
H2836 C2822 0.961 . S
H2837 C2823 0.958 . S
H2838 C2823 0.961 . S
H2839 C2823 0.960 . S
C2840 C2841 1.391 . S
C2840 C2842 1.394 . S
C2840 H2856 0.931 . S
C2841 C2840 1.391 . S
C2841 C2845 1.376 . S
C2842 C2840 1.394 . S
C2842 C2843 1.369 . S
C2842 C2846 1.531 . S
C2843 C2842 1.369 . S
C2843 C2844 1.410 . S
C2843 C2851 1.503 . S
C2844 C2843 1.410 . S
C2844 C2845 1.392 . S
C2844 C2847 1.511 . S
C2845 C2841 1.376 . S
C2845 C2844 1.392 . S
C2845 H2857 0.929 . S
C2846 C2842 1.531 . S
C2846 H2858 0.960 . S
C2846 H2859 0.962 . S
C2846 H2860 0.958 1_554 S
C2847 C2844 1.511 . S
C2847 H2861 0.961 . S
C2847 H2862 0.961 . S
C2847 H2863 0.961 . S
C2848 C2849 1.370 . S
C2848 C2850 1.363 . S
C2848 H2864 0.931 . S
C2849 C2848 1.370 . S
C2849 C2853 1.408 . S
C2850 C2848 1.363 . S
C2850 C2851 1.370 . S
C2850 C2854 1.524 . S
C2851 C2843 1.503 . S
C2851 C2850 1.370 . S
C2851 C2852 1.403 . S
C2852 C2851 1.403 . S
C2852 C2853 1.404 . S
C2852 C2855 1.539 . S
C2853 C2849 1.408 . S
C2853 C2852 1.404 . S
C2853 H2865 0.930 . S
C2854 C2850 1.524 . S
C2854 H2866 0.956 . S
C2854 H2867 0.961 . S
C2854 H2868 0.961 . S
C2855 C2852 1.539 . S
C2855 H2869 0.958 . S
C2855 H2870 0.961 . S
C2855 H2871 0.960 . S
H2856 C2840 0.931 . S
H2857 C2845 0.929 . S
H2858 C2846 0.960 . S
H2859 C2846 0.962 . S
H2860 C2846 0.958 1_556 S
H2861 C2847 0.961 . S
H2862 C2847 0.961 . S
H2863 C2847 0.961 . S
H2864 C2848 0.931 . S
H2865 C2853 0.930 . S
H2866 C2854 0.956 . S
H2867 C2854 0.961 . S
H2868 C2854 0.961 . S
H2869 C2855 0.958 . S
H2870 C2855 0.961 . S
H2871 C2855 0.960 . S
C2872 C2873 1.391 . S
C2872 C2874 1.394 . S
C2872 H2888 0.931 . S
C2873 C2872 1.391 . S
C2873 C2877 1.376 . S
C2874 C2872 1.394 . S
C2874 C2875 1.369 . S
C2874 C2878 1.531 . S
C2875 C2874 1.369 . S
C2875 C2876 1.410 . S
C2875 C2883 1.503 . S
C2876 C2875 1.410 . S
C2876 C2877 1.392 . S
C2876 C2879 1.511 . S
C2877 C2873 1.376 . S
C2877 C2876 1.392 . S
C2877 H2889 0.929 . S
C2878 C2874 1.531 . S
C2878 H2890 0.960 . S
C2878 H2891 0.962 . S
C2878 H2892 0.960 . S
C2879 C2876 1.511 . S
C2879 H2893 0.961 . S
C2879 H2894 0.961 . S
C2879 H2895 0.961 . S
C2880 C2881 1.370 . S
C2880 C2882 1.363 . S
C2880 H2896 0.931 . S
C2881 C2880 1.370 . S
C2881 C2885 1.408 . S
C2882 C2880 1.363 . S
C2882 C2883 1.370 . S
C2882 C2886 1.524 . S
C2883 C2875 1.503 . S
C2883 C2882 1.370 . S
C2883 C2884 1.403 . S
C2884 C2883 1.403 . S
C2884 C2885 1.404 . S
C2884 C2887 1.539 . S
C2885 C2881 1.408 . S
C2885 C2884 1.404 . S
C2885 H2897 0.930 . S
C2886 C2882 1.524 . S
C2886 H2898 0.956 . S
C2886 H2899 0.961 . S
C2886 H2900 0.961 . S
C2887 C2884 1.539 . S
C2887 H2901 0.958 . S
C2887 H2902 0.961 . S
C2887 H2903 0.960 . S
H2888 C2872 0.931 . S
H2889 C2877 0.929 . S
H2890 C2878 0.960 . S
H2891 C2878 0.962 . S
H2892 C2878 0.960 . S
H2893 C2879 0.961 . S
H2894 C2879 0.961 . S
H2895 C2879 0.961 . S
H2896 C2880 0.931 . S
H2897 C2885 0.930 . S
H2898 C2886 0.956 . S
H2899 C2886 0.961 . S
H2900 C2886 0.961 . S
H2901 C2887 0.958 . S
H2902 C2887 0.961 . S
H2903 C2887 0.960 . S
C2904 C2905 1.391 . S
C2904 C2906 1.394 . S
C2904 H2920 0.931 . S
C2905 C2904 1.391 . S
C2905 C2909 1.376 . S
C2906 C2904 1.394 . S
C2906 C2907 1.369 . S
C2906 C2910 1.531 . S
C2907 C2906 1.369 . S
C2907 C2908 1.410 . S
C2907 C2915 1.503 . S
C2908 C2907 1.410 . S
C2908 C2909 1.392 . S
C2908 C2911 1.511 . S
C2909 C2905 1.376 . S
C2909 C2908 1.392 . S
C2909 H2921 0.929 . S
C2910 C2906 1.531 . S
C2910 H2922 0.960 . S
C2910 H2923 0.962 . S
C2910 H2924 0.960 . S
C2911 C2908 1.511 . S
C2911 H2925 0.961 . S
C2911 H2926 0.961 . S
C2911 H2927 0.961 . S
C2912 C2913 1.370 . S
C2912 C2914 1.363 . S
C2912 H2928 0.931 . S
C2913 C2912 1.370 . S
C2913 C2917 1.408 . S
C2914 C2912 1.363 . S
C2914 C2915 1.370 . S
C2914 C2918 1.524 . S
C2915 C2907 1.503 . S
C2915 C2914 1.370 . S
C2915 C2916 1.403 . S
C2916 C2915 1.403 . S
C2916 C2917 1.404 . S
C2916 C2919 1.539 . S
C2917 C2913 1.408 . S
C2917 C2916 1.404 . S
C2917 H2929 0.930 . S
C2918 C2914 1.524 . S
C2918 H2930 0.956 . S
C2918 H2931 0.961 . S
C2918 H2932 0.961 . S
C2919 C2916 1.539 . S
C2919 H2933 0.958 . S
C2919 H2934 0.961 . S
C2919 H2935 0.960 . S
H2920 C2904 0.931 . S
H2921 C2909 0.929 . S
H2922 C2910 0.960 . S
H2923 C2910 0.962 . S
H2924 C2910 0.960 . S
H2925 C2911 0.961 . S
H2926 C2911 0.961 . S
H2927 C2911 0.961 . S
H2928 C2912 0.931 . S
H2929 C2917 0.930 . S
H2930 C2918 0.956 . S
H2931 C2918 0.961 . S
H2932 C2918 0.961 . S
H2933 C2919 0.958 . S
H2934 C2919 0.961 . S
H2935 C2919 0.960 . S
C2936 C2937 1.391 . S
C2936 C2938 1.394 . S
C2936 H2952 0.931 . S
C2937 C2936 1.391 . S
C2937 C2941 1.376 . S
C2938 C2936 1.394 . S
C2938 C2939 1.369 . S
C2938 C2942 1.531 . S
C2939 C2938 1.369 . S
C2939 C2940 1.410 . S
C2939 C2947 1.503 . S
C2940 C2939 1.410 . S
C2940 C2941 1.392 . S
C2940 C2943 1.511 . S
C2941 C2937 1.376 . S
C2941 C2940 1.392 . S
C2941 H2953 0.929 . S
C2942 C2938 1.531 . S
C2942 H2954 0.960 . S
C2942 H2955 0.962 . S
C2942 H2956 0.960 . S
C2943 C2940 1.511 . S
C2943 H2957 0.961 . S
C2943 H2958 0.961 . S
C2943 H2959 0.961 . S
C2944 C2945 1.370 . S
C2944 C2946 1.363 . S
C2944 H2960 0.931 . S
C2945 C2944 1.370 . S
C2945 C2949 1.408 . S
C2946 C2944 1.363 . S
C2946 C2947 1.370 . S
C2946 C2950 1.524 . S
C2947 C2939 1.503 . S
C2947 C2946 1.370 . S
C2947 C2948 1.403 . S
C2948 C2947 1.403 . S
C2948 C2949 1.404 . S
C2948 C2951 1.539 . S
C2949 C2945 1.408 . S
C2949 C2948 1.404 . S
C2949 H2961 0.930 . S
C2950 C2946 1.524 . S
C2950 H2962 0.956 . S
C2950 H2963 0.961 . S
C2950 H2964 0.961 . S
C2951 C2948 1.539 . S
C2951 H2965 0.958 . S
C2951 H2966 0.961 . S
C2951 H2967 0.960 . S
H2952 C2936 0.931 . S
H2953 C2941 0.929 . S
H2954 C2942 0.960 . S
H2955 C2942 0.962 . S
H2956 C2942 0.960 . S
H2957 C2943 0.961 . S
H2958 C2943 0.961 . S
H2959 C2943 0.961 . S
H2960 C2944 0.931 . S
H2961 C2949 0.930 . S
H2962 C2950 0.956 . S
H2963 C2950 0.961 . S
H2964 C2950 0.961 . S
H2965 C2951 0.958 . S
H2966 C2951 0.961 . S
H2967 C2951 0.960 . S
C2968 C2969 1.391 . S
C2968 C2970 1.394 . S
C2968 H2984 0.931 . S
C2969 C2968 1.391 . S
C2969 C2973 1.376 . S
C2970 C2968 1.394 . S
C2970 C2971 1.369 . S
C2970 C2974 1.531 . S
C2971 C2970 1.369 . S
C2971 C2972 1.410 . S
C2971 C2979 1.503 . S
C2972 C2971 1.410 . S
C2972 C2973 1.392 . S
C2972 C2975 1.511 . S
C2973 C2969 1.376 . S
C2973 C2972 1.392 . S
C2973 H2985 0.929 . S
C2974 C2970 1.531 . S
C2974 H2986 0.960 . S
C2974 H2987 0.962 . S
C2974 H2988 0.960 . S
C2975 C2972 1.511 . S
C2975 H2989 0.961 . S
C2975 H2990 0.961 . S
C2975 H2991 0.961 . S
C2976 C2977 1.370 . S
C2976 C2978 1.363 . S
C2976 H2992 0.931 . S
C2977 C2976 1.370 . S
C2977 C2981 1.408 . S
C2978 C2976 1.363 . S
C2978 C2979 1.370 . S
C2978 C2982 1.524 . S
C2979 C2971 1.503 . S
C2979 C2978 1.370 . S
C2979 C2980 1.403 . S
C2980 C2979 1.403 . S
C2980 C2981 1.404 . S
C2980 C2983 1.539 . S
C2981 C2977 1.408 . S
C2981 C2980 1.404 . S
C2981 H2993 0.930 . S
C2982 C2978 1.524 . S
C2982 H2994 0.956 . S
C2982 H2995 0.961 . S
C2982 H2996 0.961 . S
C2983 C2980 1.539 . S
C2983 H2997 0.958 . S
C2983 H2998 0.961 . S
C2983 H2999 0.960 . S
H2984 C2968 0.931 . S
H2985 C2973 0.929 . S
H2986 C2974 0.960 . S
H2987 C2974 0.962 . S
H2988 C2974 0.960 . S
H2989 C2975 0.961 . S
H2990 C2975 0.961 . S
H2991 C2975 0.961 . S
H2992 C2976 0.931 . S
H2993 C2981 0.930 . S
H2994 C2982 0.956 . S
H2995 C2982 0.961 . S
H2996 C2982 0.961 . S
H2997 C2983 0.958 . S
H2998 C2983 0.961 . S
H2999 C2983 0.960 . S
C3000 C3001 1.391 . S
C3000 C3002 1.394 . S
C3000 H3016 0.931 . S
C3001 C3000 1.391 . S
C3001 C3005 1.376 . S
C3002 C3000 1.394 . S
C3002 C3003 1.369 . S
C3002 C3006 1.531 . S
C3003 C3002 1.369 . S
C3003 C3004 1.410 . S
C3003 C3011 1.503 . S
C3004 C3003 1.410 . S
C3004 C3005 1.392 . S
C3004 C3007 1.511 . S
C3005 C3001 1.376 . S
C3005 C3004 1.392 . S
C3005 H3017 0.929 . S
C3006 C3002 1.531 . S
C3006 H3018 0.960 . S
C3006 H3019 0.962 . S
C3006 H3020 0.960 . S
C3007 C3004 1.511 . S
C3007 H3021 0.961 . S
C3007 H3022 0.961 . S
C3007 H3023 0.961 1_455 S
C3008 C3009 1.370 . S
C3008 C3010 1.363 . S
C3008 H3024 0.931 . S
C3009 C3008 1.370 . S
C3009 C3013 1.408 1_455 S
C3010 C3008 1.363 . S
C3010 C3011 1.370 . S
C3010 C3014 1.524 . S
C3011 C3003 1.503 . S
C3011 C3010 1.370 . S
C3011 C3012 1.403 1_455 S
C3012 C3011 1.403 1_655 S
C3012 C3013 1.404 . S
C3012 C3015 1.539 . S
C3013 C3009 1.408 1_655 S
C3013 C3012 1.404 . S
C3013 H3025 0.930 . S
C3014 C3010 1.524 . S
C3014 H3026 0.956 . S
C3014 H3027 0.961 . S
C3014 H3028 0.961 . S
C3015 C3012 1.539 . S
C3015 H3029 0.958 . S
C3015 H3030 0.961 . S
C3015 H3031 0.960 . S
H3016 C3000 0.931 . S
H3017 C3005 0.929 . S
H3018 C3006 0.960 . S
H3019 C3006 0.962 . S
H3020 C3006 0.960 . S
H3021 C3007 0.961 . S
H3022 C3007 0.961 . S
H3023 C3007 0.961 1_655 S
H3024 C3008 0.931 . S
H3025 C3013 0.930 . S
H3026 C3014 0.956 . S
H3027 C3014 0.961 . S
H3028 C3014 0.961 . S
H3029 C3015 0.958 . S
H3030 C3015 0.961 . S
H3031 C3015 0.960 . S
C3032 C3033 1.391 . S
C3032 C3034 1.394 . S
C3032 H3048 0.931 . S
C3033 C3032 1.391 . S
C3033 C3037 1.376 . S
C3034 C3032 1.394 . S
C3034 C3035 1.369 . S
C3034 C3038 1.531 . S
C3035 C3034 1.369 . S
C3035 C3036 1.410 . S
C3035 C3043 1.503 . S
C3036 C3035 1.410 . S
C3036 C3037 1.392 . S
C3036 C3039 1.511 . S
C3037 C3033 1.376 . S
C3037 C3036 1.392 . S
C3037 H3049 0.929 . S
C3038 C3034 1.531 . S
C3038 H3050 0.960 . S
C3038 H3051 0.962 . S
C3038 H3052 0.960 . S
C3039 C3036 1.511 . S
C3039 H3053 0.961 . S
C3039 H3054 0.961 . S
C3039 H3055 0.961 . S
C3040 C3041 1.370 . S
C3040 C3042 1.363 . S
C3040 H3056 0.931 . S
C3041 C3040 1.370 . S
C3041 C3045 1.408 . S
C3042 C3040 1.363 . S
C3042 C3043 1.370 . S
C3042 C3046 1.524 . S
C3043 C3035 1.503 . S
C3043 C3042 1.370 . S
C3043 C3044 1.403 . S
C3044 C3043 1.403 . S
C3044 C3045 1.404 . S
C3044 C3047 1.539 . S
C3045 C3041 1.408 . S
C3045 C3044 1.404 . S
C3045 H3057 0.930 . S
C3046 C3042 1.524 . S
C3046 H3058 0.956 . S
C3046 H3059 0.961 . S
C3046 H3060 0.961 . S
C3047 C3044 1.539 . S
C3047 H3061 0.958 . S
C3047 H3062 0.961 . S
C3047 H3063 0.960 . S
H3048 C3032 0.931 . S
H3049 C3037 0.929 . S
H3050 C3038 0.960 . S
H3051 C3038 0.962 . S
H3052 C3038 0.960 . S
H3053 C3039 0.961 . S
H3054 C3039 0.961 . S
H3055 C3039 0.961 . S
H3056 C3040 0.931 . S
H3057 C3045 0.930 . S
H3058 C3046 0.956 . S
H3059 C3046 0.961 . S
H3060 C3046 0.961 . S
H3061 C3047 0.958 . S
H3062 C3047 0.961 . S
H3063 C3047 0.960 . S
C3064 C3065 1.391 . S
C3064 C3066 1.394 . S
C3064 H3080 0.931 . S
C3065 C3064 1.391 . S
C3065 C3069 1.376 . S
C3066 C3064 1.394 . S
C3066 C3067 1.369 . S
C3066 C3070 1.531 . S
C3067 C3066 1.369 . S
C3067 C3068 1.410 1_565 S
C3067 C3075 1.503 . S
C3068 C3067 1.410 1_545 S
C3068 C3069 1.392 1_545 S
C3068 C3071 1.511 . S
C3069 C3065 1.376 . S
C3069 C3068 1.392 1_565 S
C3069 H3081 0.929 1_565 S
C3070 C3066 1.531 . S
C3070 H3082 0.960 . S
C3070 H3083 0.962 . S
C3070 H3084 0.960 . S
C3071 C3068 1.511 . S
C3071 H3085 0.961 . S
C3071 H3086 0.961 . S
C3071 H3087 0.961 . S
C3072 C3073 1.370 . S
C3072 C3074 1.363 . S
C3072 H3088 0.931 . S
C3073 C3072 1.370 . S
C3073 C3077 1.407 . S
C3074 C3072 1.363 . S
C3074 C3075 1.370 . S
C3074 C3078 1.524 . S
C3075 C3067 1.503 . S
C3075 C3074 1.370 . S
C3075 C3076 1.403 . S
C3076 C3075 1.403 . S
C3076 C3077 1.404 . S
C3076 C3079 1.539 1_565 S
C3077 C3073 1.407 . S
C3077 C3076 1.404 . S
C3077 H3089 0.930 1_565 S
C3078 C3074 1.524 . S
C3078 H3090 0.956 . S
C3078 H3091 0.961 . S
C3078 H3092 0.961 . S
C3079 C3076 1.539 1_545 S
C3079 H3093 0.958 1_545 S
C3079 H3094 0.961 . S
C3079 H3095 0.960 . S
H3080 C3064 0.931 . S
H3081 C3069 0.929 1_545 S
H3082 C3070 0.960 . S
H3083 C3070 0.962 . S
H3084 C3070 0.960 . S
H3085 C3071 0.961 . S
H3086 C3071 0.961 . S
H3087 C3071 0.961 . S
H3088 C3072 0.931 . S
H3089 C3077 0.930 1_545 S
H3090 C3078 0.956 . S
H3091 C3078 0.961 . S
H3092 C3078 0.961 . S
H3093 C3079 0.958 1_565 S
H3094 C3079 0.961 . S
H3095 C3079 0.960 . S
C3096 C3097 1.391 . S
C3096 C3098 1.394 . S
C3096 H3112 0.931 . S
C3097 C3096 1.391 . S
C3097 C3101 1.376 . S
C3098 C3096 1.394 . S
C3098 C3099 1.369 . S
C3098 C3102 1.531 . S
C3099 C3098 1.369 . S
C3099 C3100 1.414 . S
C3099 C3107 1.503 . S
C3100 C3099 1.414 . S
C3100 C3101 1.405 . S
C3100 C3103 1.495 1_565 S
C3101 C3097 1.376 . S
C3101 C3100 1.405 . S
C3101 H3113 0.929 1_565 S
C3102 C3098 1.531 . S
C3102 H3114 0.960 . S
C3102 H3115 0.962 . S
C3102 H3116 0.960 . S
C3103 C3100 1.495 1_545 S
C3103 H3117 0.961 . S
C3103 H3118 0.961 . S
C3103 H3119 0.961 . S
C3104 C3105 1.370 . S
C3104 C3106 1.363 . S
C3104 H3120 0.931 . S
C3105 C3104 1.370 . S
C3105 C3109 1.409 . S
C3106 C3104 1.363 . S
C3106 C3107 1.370 . S
C3106 C3110 1.524 . S
C3107 C3099 1.503 . S
C3107 C3106 1.370 . S
C3107 C3108 1.403 . S
C3108 C3107 1.403 . S
C3108 C3109 1.404 . S
C3108 C3111 1.539 1_565 S
C3109 C3105 1.409 . S
C3109 C3108 1.404 . S
C3109 H3121 0.929 1_565 S
C3110 C3106 1.524 . S
C3110 H3122 0.956 . S
C3110 H3123 0.961 . S
C3110 H3124 0.961 . S
C3111 C3108 1.539 1_545 S
C3111 H3125 0.933 1_545 S
C3111 H3126 0.961 . S
C3111 H3127 0.960 . S
H3112 C3096 0.931 . S
H3113 C3101 0.929 1_545 S
H3114 C3102 0.960 . S
H3115 C3102 0.962 . S
H3116 C3102 0.960 . S
H3117 C3103 0.961 . S
H3118 C3103 0.961 . S
H3119 C3103 0.961 . S
H3120 C3104 0.931 . S
H3121 C3109 0.929 1_545 S
H3122 C3110 0.956 . S
H3123 C3110 0.961 . S
H3124 C3110 0.961 . S
H3125 C3111 0.933 1_565 S
H3126 C3111 0.961 . S
H3127 C3111 0.960 . S
C3128 C3129 1.391 . S
C3128 C3130 1.394 . S
C3128 H3144 0.931 . S
C3129 C3128 1.391 . S
C3129 C3133 1.376 . S
C3130 C3128 1.394 . S
C3130 C3131 1.369 . S
C3130 C3134 1.531 . S
C3131 C3130 1.369 . S
C3131 C3132 1.410 . S
C3131 C3139 1.503 . S
C3132 C3131 1.410 . S
C3132 C3133 1.392 . S
C3132 C3135 1.511 . S
C3133 C3129 1.376 . S
C3133 C3132 1.392 . S
C3133 H3145 0.929 . S
C3134 C3130 1.531 . S
C3134 H3146 0.958 . S
C3134 H3147 0.962 . S
C3134 H3148 0.960 . S
C3135 C3132 1.511 . S
C3135 H3149 0.961 . S
C3135 H3150 0.961 . S
C3135 H3151 0.942 1_455 S
C3136 C3137 1.370 . S
C3136 C3138 1.363 . S
C3136 H3152 0.931 . S
C3137 C3136 1.370 . S
C3137 C3141 1.408 1_455 S
C3138 C3136 1.363 . S
C3138 C3139 1.370 . S
C3138 C3142 1.524 . S
C3139 C3131 1.503 . S
C3139 C3138 1.370 . S
C3139 C3140 1.403 1_455 S
C3140 C3139 1.403 1_655 S
C3140 C3141 1.404 . S
C3140 C3143 1.539 . S
C3141 C3137 1.408 1_655 S
C3141 C3140 1.404 . S
C3141 H3153 0.930 . S
C3142 C3138 1.524 . S
C3142 H3154 0.956 . S
C3142 H3155 0.961 . S
C3142 H3156 0.961 . S
C3143 C3140 1.539 . S
C3143 H3157 0.958 . S
C3143 H3158 0.961 . S
C3143 H3159 0.960 . S
H3144 C3128 0.931 . S
H3145 C3133 0.929 . S
H3146 C3134 0.958 . S
H3147 C3134 0.962 . S
H3148 C3134 0.960 . S
H3149 C3135 0.961 . S
H3150 C3135 0.961 . S
H3151 C3135 0.942 1_655 S
H3152 C3136 0.931 . S
H3153 C3141 0.930 . S
H3154 C3142 0.956 . S
H3155 C3142 0.961 . S
H3156 C3142 0.961 . S
H3157 C3143 0.958 . S
H3158 C3143 0.961 . S
H3159 C3143 0.960 . S
C3160 C3161 1.391 . S
C3160 C3162 1.394 . S
C3160 H3176 0.931 . S
C3161 C3160 1.391 . S
C3161 C3165 1.376 . S
C3162 C3160 1.394 . S
C3162 C3163 1.369 . S
C3162 C3166 1.531 . S
C3163 C3162 1.369 . S
C3163 C3164 1.410 . S
C3163 C3171 1.503 . S
C3164 C3163 1.410 . S
C3164 C3165 1.392 . S
C3164 C3167 1.511 . S
C3165 C3161 1.376 . S
C3165 C3164 1.392 . S
C3165 H3177 0.929 . S
C3166 C3162 1.531 . S
C3166 H3178 0.960 . S
C3166 H3179 0.962 . S
C3166 H3180 0.960 . S
C3167 C3164 1.511 . S
C3167 H3181 0.961 . S
C3167 H3182 0.961 . S
C3167 H3183 0.961 . S
C3168 C3169 1.370 . S
C3168 C3170 1.363 . S
C3168 H3184 0.931 . S
C3169 C3168 1.370 . S
C3169 C3173 1.408 . S
C3170 C3168 1.363 . S
C3170 C3171 1.370 . S
C3170 C3174 1.524 . S
C3171 C3163 1.503 . S
C3171 C3170 1.370 . S
C3171 C3172 1.403 . S
C3172 C3171 1.403 . S
C3172 C3173 1.404 . S
C3172 C3175 1.539 . S
C3173 C3169 1.408 . S
C3173 C3172 1.404 . S
C3173 H3185 0.930 . S
C3174 C3170 1.524 . S
C3174 H3186 0.956 . S
C3174 H3187 0.961 . S
C3174 H3188 0.961 . S
C3175 C3172 1.539 . S
C3175 H3189 0.958 . S
C3175 H3190 0.961 . S
C3175 H3191 0.960 . S
H3176 C3160 0.931 . S
H3177 C3165 0.929 . S
H3178 C3166 0.960 . S
H3179 C3166 0.962 . S
H3180 C3166 0.960 . S
H3181 C3167 0.961 . S
H3182 C3167 0.961 . S
H3183 C3167 0.961 . S
H3184 C3168 0.931 . S
H3185 C3173 0.930 . S
H3186 C3174 0.956 . S
H3187 C3174 0.961 . S
H3188 C3174 0.961 . S
H3189 C3175 0.958 . S
H3190 C3175 0.961 . S
H3191 C3175 0.960 . S
C3192 C3193 1.391 . S
C3192 C3194 1.394 . S
C3192 H3208 0.931 . S
C3193 C3192 1.391 . S
C3193 C3197 1.376 . S
C3194 C3192 1.394 . S
C3194 C3195 1.369 . S
C3194 C3198 1.531 . S
C3195 C3194 1.369 . S
C3195 C3196 1.410 . S
C3195 C3203 1.503 . S
C3196 C3195 1.410 . S
C3196 C3197 1.392 . S
C3196 C3199 1.511 . S
C3197 C3193 1.376 . S
C3197 C3196 1.392 . S
C3197 H3209 0.929 . S
C3198 C3194 1.531 . S
C3198 H3210 0.960 . S
C3198 H3211 0.962 . S
C3198 H3212 0.960 . S
C3199 C3196 1.511 . S
C3199 H3213 0.961 . S
C3199 H3214 0.961 . S
C3199 H3215 0.961 . S
C3200 C3201 1.370 . S
C3200 C3202 1.363 . S
C3200 H3216 0.931 . S
C3201 C3200 1.370 . S
C3201 C3205 1.408 . S
C3202 C3200 1.363 . S
C3202 C3203 1.370 . S
C3202 C3206 1.524 . S
C3203 C3195 1.503 . S
C3203 C3202 1.370 . S
C3203 C3204 1.403 . S
C3204 C3203 1.403 . S
C3204 C3205 1.404 . S
C3204 C3207 1.539 . S
C3205 C3201 1.408 . S
C3205 C3204 1.404 . S
C3205 H3217 0.930 . S
C3206 C3202 1.524 . S
C3206 H3218 0.956 . S
C3206 H3219 0.961 . S
C3206 H3220 0.961 . S
C3207 C3204 1.539 . S
C3207 H3221 0.958 . S
C3207 H3222 0.961 . S
C3207 H3223 0.960 . S
H3208 C3192 0.931 . S
H3209 C3197 0.929 . S
H3210 C3198 0.960 . S
H3211 C3198 0.962 . S
H3212 C3198 0.960 . S
H3213 C3199 0.961 . S
H3214 C3199 0.961 . S
H3215 C3199 0.961 . S
H3216 C3200 0.931 . S
H3217 C3205 0.930 . S
H3218 C3206 0.956 . S
H3219 C3206 0.961 . S
H3220 C3206 0.961 . S
H3221 C3207 0.958 . S
H3222 C3207 0.961 . S
H3223 C3207 0.960 . S
C3224 C3225 1.391 . S
C3224 C3226 1.394 . S
C3224 H3240 0.931 . S
C3225 C3224 1.391 . S
C3225 C3229 1.376 . S
C3226 C3224 1.394 . S
C3226 C3227 1.369 . S
C3226 C3230 1.531 . S
C3227 C3226 1.369 . S
C3227 C3228 1.410 . S
C3227 C3235 1.503 . S
C3228 C3227 1.410 . S
C3228 C3229 1.392 . S
C3228 C3231 1.511 . S
C3229 C3225 1.376 . S
C3229 C3228 1.392 . S
C3229 H3241 0.929 . S
C3230 C3226 1.531 . S
C3230 H3242 0.960 . S
C3230 H3243 0.962 . S
C3230 H3244 0.960 . S
C3231 C3228 1.511 . S
C3231 H3245 0.961 . S
C3231 H3246 0.961 . S
C3231 H3247 0.961 . S
C3232 C3233 1.370 . S
C3232 C3234 1.363 . S
C3232 H3248 0.931 . S
C3233 C3232 1.370 . S
C3233 C3237 1.408 . S
C3234 C3232 1.363 . S
C3234 C3235 1.370 . S
C3234 C3238 1.524 . S
C3235 C3227 1.503 . S
C3235 C3234 1.370 . S
C3235 C3236 1.403 . S
C3236 C3235 1.403 . S
C3236 C3237 1.404 . S
C3236 C3239 1.539 . S
C3237 C3233 1.408 . S
C3237 C3236 1.404 . S
C3237 H3249 0.930 . S
C3238 C3234 1.524 . S
C3238 H3250 0.956 . S
C3238 H3251 0.961 . S
C3238 H3252 0.961 . S
C3239 C3236 1.539 . S
C3239 H3253 0.958 . S
C3239 H3254 0.961 . S
C3239 H3255 0.960 . S
H3240 C3224 0.931 . S
H3241 C3229 0.929 . S
H3242 C3230 0.960 . S
H3243 C3230 0.962 . S
H3244 C3230 0.960 . S
H3245 C3231 0.961 . S
H3246 C3231 0.961 . S
H3247 C3231 0.961 . S
H3248 C3232 0.931 . S
H3249 C3237 0.930 . S
H3250 C3238 0.956 . S
H3251 C3238 0.961 . S
H3252 C3238 0.961 . S
H3253 C3239 0.958 . S
H3254 C3239 0.961 . S
H3255 C3239 0.960 . S
C3256 C3257 1.391 . S
C3256 C3258 1.394 . S
C3256 H3272 0.931 . S
C3257 C3256 1.391 . S
C3257 C3261 1.376 . S
C3258 C3256 1.394 . S
C3258 C3259 1.369 . S
C3258 C3262 1.531 . S
C3259 C3258 1.369 . S
C3259 C3260 1.410 . S
C3259 C3267 1.503 . S
C3260 C3259 1.410 . S
C3260 C3261 1.392 . S
C3260 C3263 1.511 . S
C3261 C3257 1.376 . S
C3261 C3260 1.392 . S
C3261 H3273 0.929 . S
C3262 C3258 1.531 . S
C3262 H3274 0.960 . S
C3262 H3275 0.962 . S
C3262 H3276 0.960 . S
C3263 C3260 1.511 . S
C3263 H3277 0.961 . S
C3263 H3278 0.961 . S
C3263 H3279 0.961 . S
C3264 C3265 1.370 . S
C3264 C3266 1.363 . S
C3264 H3280 0.931 . S
C3265 C3264 1.370 . S
C3265 C3269 1.408 . S
C3266 C3264 1.363 . S
C3266 C3267 1.370 . S
C3266 C3270 1.524 . S
C3267 C3259 1.503 . S
C3267 C3266 1.370 . S
C3267 C3268 1.403 . S
C3268 C3267 1.403 . S
C3268 C3269 1.404 . S
C3268 C3271 1.539 . S
C3269 C3265 1.408 . S
C3269 C3268 1.404 . S
C3269 H3281 0.930 . S
C3270 C3266 1.524 . S
C3270 H3282 0.956 . S
C3270 H3283 0.961 . S
C3270 H3284 0.961 . S
C3271 C3268 1.539 . S
C3271 H3285 0.958 . S
C3271 H3286 0.961 . S
C3271 H3287 0.960 . S
H3272 C3256 0.931 . S
H3273 C3261 0.929 . S
H3274 C3262 0.960 . S
H3275 C3262 0.962 . S
H3276 C3262 0.960 . S
H3277 C3263 0.961 . S
H3278 C3263 0.961 . S
H3279 C3263 0.961 . S
H3280 C3264 0.931 . S
H3281 C3269 0.930 . S
H3282 C3270 0.956 . S
H3283 C3270 0.961 . S
H3284 C3270 0.961 . S
H3285 C3271 0.958 . S
H3286 C3271 0.961 . S
H3287 C3271 0.960 . S
C3288 C3289 1.391 . S
C3288 C3290 1.394 . S
C3288 H3304 0.931 1_545 S
C3289 C3288 1.391 . S
C3289 C3293 1.376 . S
C3290 C3288 1.394 . S
C3290 C3291 1.369 . S
C3290 C3294 1.531 1_545 S
C3291 C3290 1.369 . S
C3291 C3292 1.410 . S
C3291 C3299 1.503 . S
C3292 C3291 1.410 . S
C3292 C3293 1.392 . S
C3292 C3295 1.511 . S
C3293 C3289 1.376 . S
C3293 C3292 1.392 . S
C3293 H3305 0.929 . S
C3294 C3290 1.531 1_565 S
C3294 H3306 0.960 . S
C3294 H3307 0.962 . S
C3294 H3308 0.960 . S
C3295 C3292 1.511 . S
C3295 H3309 0.961 . S
C3295 H3310 0.961 . S
C3295 H3311 0.961 . S
C3296 C3297 1.370 . S
C3296 C3298 1.363 . S
C3296 H3312 0.931 . S
C3297 C3296 1.370 . S
C3297 C3301 1.408 1_545 S
C3298 C3296 1.363 . S
C3298 C3299 1.370 . S
C3298 C3302 1.524 . S
C3299 C3291 1.503 . S
C3299 C3298 1.370 . S
C3299 C3300 1.398 1_545 S
C3300 C3299 1.398 1_565 S
C3300 C3301 1.407 . S
C3300 C3303 1.541 . S
C3301 C3297 1.408 1_565 S
C3301 C3300 1.407 . S
C3301 H3313 0.930 . S
C3302 C3298 1.524 . S
C3302 H3314 0.956 . S
C3302 H3315 0.961 . S
C3302 H3316 0.961 . S
C3303 C3300 1.541 . S
C3303 H3317 0.958 . S
C3303 H3318 0.961 . S
C3303 H3319 0.960 . S
H3304 C3288 0.931 1_565 S
H3305 C3293 0.929 . S
H3306 C3294 0.960 . S
H3307 C3294 0.962 . S
H3308 C3294 0.960 . S
H3309 C3295 0.961 . S
H3310 C3295 0.961 . S
H3311 C3295 0.961 . S
H3312 C3296 0.931 . S
H3313 C3301 0.930 . S
H3314 C3302 0.956 . S
H3315 C3302 0.961 . S
H3316 C3302 0.961 . S
H3317 C3303 0.958 . S
H3318 C3303 0.961 . S
H3319 C3303 0.960 . S
C3320 C3321 1.391 . S
C3320 C3322 1.392 . S
C3320 H3336 0.931 1_655 S
C3321 C3320 1.391 . S
C3321 C3325 1.376 . S
C3322 C3320 1.392 . S
C3322 C3323 1.372 . S
C3322 C3326 1.528 1_655 S
C3323 C3322 1.372 . S
C3323 C3324 1.410 . S
C3323 C3331 1.503 . S
C3324 C3323 1.410 . S
C3324 C3325 1.392 . S
C3324 C3327 1.511 . S
C3325 C3321 1.376 . S
C3325 C3324 1.392 . S
C3325 H3337 0.929 . S
C3326 C3322 1.528 1_455 S
C3326 H3338 0.960 . S
C3326 H3339 0.962 . S
C3326 H3340 0.960 . S
C3327 C3324 1.511 . S
C3327 H3341 0.961 . S
C3327 H3342 0.961 . S
C3327 H3343 0.961 . S
C3328 C3329 1.370 . S
C3328 C3330 1.363 . S
C3328 H3344 0.931 . S
C3329 C3328 1.370 . S
C3329 C3333 1.410 1_655 S
C3330 C3328 1.363 . S
C3330 C3331 1.370 . S
C3330 C3334 1.524 . S
C3331 C3323 1.503 . S
C3331 C3330 1.370 . S
C3331 C3332 1.403 . S
C3332 C3331 1.403 . S
C3332 C3333 1.402 1_655 S
C3332 C3335 1.539 1_655 S
C3333 C3329 1.410 1_455 S
C3333 C3332 1.402 1_455 S
C3333 H3345 0.930 . S
C3334 C3330 1.524 . S
C3334 H3346 0.956 . S
C3334 H3347 0.961 . S
C3334 H3348 0.961 . S
C3335 C3332 1.539 1_455 S
C3335 H3349 0.958 . S
C3335 H3350 0.961 . S
C3335 H3351 0.960 1_455 S
H3336 C3320 0.931 1_455 S
H3337 C3325 0.929 . S
H3338 C3326 0.960 . S
H3339 C3326 0.962 . S
H3340 C3326 0.960 . S
H3341 C3327 0.961 . S
H3342 C3327 0.961 . S
H3343 C3327 0.961 . S
H3344 C3328 0.931 . S
H3345 C3333 0.930 . S
H3346 C3334 0.956 . S
H3347 C3334 0.961 . S
H3348 C3334 0.961 . S
H3349 C3335 0.958 . S
H3350 C3335 0.961 . S
H3351 C3335 0.960 1_655 S
C3352 C3353 1.391 . S
C3352 C3354 1.394 . S
C3352 H3368 0.931 . S
C3353 C3352 1.391 . S
C3353 C3357 1.376 . S
C3354 C3352 1.394 . S
C3354 C3355 1.369 . S
C3354 C3358 1.531 . S
C3355 C3354 1.369 . S
C3355 C3356 1.410 . S
C3355 C3363 1.503 . S
C3356 C3355 1.410 . S
C3356 C3357 1.392 . S
C3356 C3359 1.511 . S
C3357 C3353 1.376 . S
C3357 C3356 1.392 . S
C3357 H3369 0.929 . S
C3358 C3354 1.531 . S
C3358 H3370 0.960 . S
C3358 H3371 0.962 . S
C3358 H3372 0.960 . S
C3359 C3356 1.511 . S
C3359 H3373 0.961 . S
C3359 H3374 0.961 . S
C3359 H3375 0.961 . S
C3360 C3361 1.370 . S
C3360 C3362 1.363 . S
C3360 H3376 0.931 . S
C3361 C3360 1.370 . S
C3361 C3365 1.408 . S
C3362 C3360 1.363 . S
C3362 C3363 1.370 . S
C3362 C3366 1.524 . S
C3363 C3355 1.503 . S
C3363 C3362 1.370 . S
C3363 C3364 1.403 . S
C3364 C3363 1.403 . S
C3364 C3365 1.404 . S
C3364 C3367 1.539 . S
C3365 C3361 1.408 . S
C3365 C3364 1.404 . S
C3365 H3377 0.930 . S
C3366 C3362 1.524 . S
C3366 H3378 0.956 . S
C3366 H3379 0.961 . S
C3366 H3380 0.961 . S
C3367 C3364 1.539 . S
C3367 H3381 0.958 . S
C3367 H3382 0.961 . S
C3367 H3383 0.960 . S
H3368 C3352 0.931 . S
H3369 C3357 0.929 . S
H3370 C3358 0.960 . S
H3371 C3358 0.962 . S
H3372 C3358 0.960 . S
H3373 C3359 0.961 . S
H3374 C3359 0.961 . S
H3375 C3359 0.961 . S
H3376 C3360 0.931 . S
H3377 C3365 0.930 . S
H3378 C3366 0.956 . S
H3379 C3366 0.961 . S
H3380 C3366 0.961 . S
H3381 C3367 0.958 . S
H3382 C3367 0.961 . S
H3383 C3367 0.960 . S
C3384 C3385 1.391 . S
C3384 C3386 1.394 . S
C3384 H3400 0.931 . S
C3385 C3384 1.391 . S
C3385 C3389 1.376 . S
C3386 C3384 1.394 . S
C3386 C3387 1.369 . S
C3386 C3390 1.531 . S
C3387 C3386 1.369 . S
C3387 C3388 1.410 . S
C3387 C3395 1.503 . S
C3388 C3387 1.410 . S
C3388 C3389 1.392 . S
C3388 C3391 1.511 . S
C3389 C3385 1.376 . S
C3389 C3388 1.392 . S
C3389 H3401 0.929 . S
C3390 C3386 1.531 . S
C3390 H3402 0.960 . S
C3390 H3403 0.962 . S
C3390 H3404 0.960 . S
C3391 C3388 1.511 . S
C3391 H3405 0.961 . S
C3391 H3406 0.961 . S
C3391 H3407 0.961 . S
C3392 C3393 1.370 . S
C3392 C3394 1.363 . S
C3392 H3408 0.931 . S
C3393 C3392 1.370 . S
C3393 C3397 1.408 . S
C3394 C3392 1.363 . S
C3394 C3395 1.370 . S
C3394 C3398 1.524 . S
C3395 C3387 1.503 . S
C3395 C3394 1.370 . S
C3395 C3396 1.403 . S
C3396 C3395 1.403 . S
C3396 C3397 1.404 . S
C3396 C3399 1.539 . S
C3397 C3393 1.408 . S
C3397 C3396 1.404 . S
C3397 H3409 0.930 . S
C3398 C3394 1.524 . S
C3398 H3410 0.956 . S
C3398 H3411 0.961 . S
C3398 H3412 0.961 . S
C3399 C3396 1.539 . S
C3399 H3413 0.958 . S
C3399 H3414 0.961 . S
C3399 H3415 0.960 . S
H3400 C3384 0.931 . S
H3401 C3389 0.929 . S
H3402 C3390 0.960 . S
H3403 C3390 0.962 . S
H3404 C3390 0.960 . S
H3405 C3391 0.961 . S
H3406 C3391 0.961 . S
H3407 C3391 0.961 . S
H3408 C3392 0.931 . S
H3409 C3397 0.930 . S
H3410 C3398 0.956 . S
H3411 C3398 0.961 . S
H3412 C3398 0.961 . S
H3413 C3399 0.958 . S
H3414 C3399 0.961 . S
H3415 C3399 0.960 . S
C3416 C3417 1.391 . S
C3416 C3418 1.394 . S
C3416 H3432 0.931 . S
C3417 C3416 1.391 . S
C3417 C3421 1.376 . S
C3418 C3416 1.394 . S
C3418 C3419 1.369 . S
C3418 C3422 1.531 . S
C3419 C3418 1.369 . S
C3419 C3420 1.410 . S
C3419 C3427 1.503 . S
C3420 C3419 1.410 . S
C3420 C3421 1.392 . S
C3420 C3423 1.511 . S
C3421 C3417 1.376 . S
C3421 C3420 1.392 . S
C3421 H3433 0.929 . S
C3422 C3418 1.531 . S
C3422 H3434 0.960 . S
C3422 H3435 0.962 . S
C3422 H3436 0.960 . S
C3423 C3420 1.511 . S
C3423 H3437 0.961 . S
C3423 H3438 0.961 . S
C3423 H3439 0.961 . S
C3424 C3425 1.370 . S
C3424 C3426 1.363 . S
C3424 H3440 0.931 . S
C3425 C3424 1.370 . S
C3425 C3429 1.408 . S
C3426 C3424 1.363 . S
C3426 C3427 1.370 . S
C3426 C3430 1.524 . S
C3427 C3419 1.503 . S
C3427 C3426 1.370 . S
C3427 C3428 1.403 . S
C3428 C3427 1.403 . S
C3428 C3429 1.404 . S
C3428 C3431 1.539 . S
C3429 C3425 1.408 . S
C3429 C3428 1.404 . S
C3429 H3441 0.930 . S
C3430 C3426 1.524 . S
C3430 H3442 0.956 . S
C3430 H3443 0.961 . S
C3430 H3444 0.961 . S
C3431 C3428 1.539 . S
C3431 H3445 0.958 . S
C3431 H3446 0.961 . S
C3431 H3447 0.960 . S
H3432 C3416 0.931 . S
H3433 C3421 0.929 . S
H3434 C3422 0.960 . S
H3435 C3422 0.962 . S
H3436 C3422 0.960 . S
H3437 C3423 0.961 . S
H3438 C3423 0.961 . S
H3439 C3423 0.961 . S
H3440 C3424 0.931 . S
H3441 C3429 0.930 . S
H3442 C3430 0.956 . S
H3443 C3430 0.961 . S
H3444 C3430 0.961 . S
H3445 C3431 0.958 . S
H3446 C3431 0.961 . S
H3447 C3431 0.960 . S
C3448 C3449 1.391 . S
C3448 C3450 1.394 . S
C3448 H3464 0.931 . S
C3449 C3448 1.391 . S
C3449 C3453 1.376 . S
C3450 C3448 1.394 . S
C3450 C3451 1.369 . S
C3450 C3454 1.531 . S
C3451 C3450 1.369 . S
C3451 C3452 1.410 . S
C3451 C3459 1.503 . S
C3452 C3451 1.410 . S
C3452 C3453 1.392 . S
C3452 C3455 1.511 . S
C3453 C3449 1.376 . S
C3453 C3452 1.392 . S
C3453 H3465 0.929 . S
C3454 C3450 1.531 . S
C3454 H3466 0.960 . S
C3454 H3467 0.962 . S
C3454 H3468 0.960 . S
C3455 C3452 1.511 . S
C3455 H3469 0.961 . S
C3455 H3470 0.961 . S
C3455 H3471 0.961 . S
C3456 C3457 1.370 . S
C3456 C3458 1.363 . S
C3456 H3472 0.931 . S
C3457 C3456 1.370 . S
C3457 C3461 1.408 . S
C3458 C3456 1.363 . S
C3458 C3459 1.370 . S
C3458 C3462 1.524 . S
C3459 C3451 1.503 . S
C3459 C3458 1.370 . S
C3459 C3460 1.403 . S
C3460 C3459 1.403 . S
C3460 C3461 1.404 . S
C3460 C3463 1.539 . S
C3461 C3457 1.408 . S
C3461 C3460 1.404 . S
C3461 H3473 0.930 . S
C3462 C3458 1.524 . S
C3462 H3474 0.956 . S
C3462 H3475 0.961 . S
C3462 H3476 0.961 . S
C3463 C3460 1.539 . S
C3463 H3477 0.958 . S
C3463 H3478 0.961 . S
C3463 H3479 0.960 . S
H3464 C3448 0.931 . S
H3465 C3453 0.929 . S
H3466 C3454 0.960 . S
H3467 C3454 0.962 . S
H3468 C3454 0.960 . S
H3469 C3455 0.961 . S
H3470 C3455 0.961 . S
H3471 C3455 0.961 . S
H3472 C3456 0.931 . S
H3473 C3461 0.930 . S
H3474 C3462 0.956 . S
H3475 C3462 0.961 . S
H3476 C3462 0.961 . S
H3477 C3463 0.958 . S
H3478 C3463 0.961 . S
H3479 C3463 0.960 . S
C3480 C3481 1.391 . S
C3480 C3482 1.394 . S
C3480 H3496 0.931 . S
C3481 C3480 1.391 . S
C3481 C3485 1.376 . S
C3482 C3480 1.394 . S
C3482 C3483 1.369 . S
C3482 C3486 1.531 . S
C3483 C3482 1.369 . S
C3483 C3484 1.410 . S
C3483 C3491 1.503 . S
C3484 C3483 1.410 . S
C3484 C3485 1.392 . S
C3484 C3487 1.511 . S
C3485 C3481 1.376 . S
C3485 C3484 1.392 . S
C3485 H3497 0.929 . S
C3486 C3482 1.531 . S
C3486 H3498 0.960 . S
C3486 H3499 0.962 . S
C3486 H3500 0.960 . S
C3487 C3484 1.511 . S
C3487 H3501 0.961 . S
C3487 H3502 0.961 . S
C3487 H3503 0.961 . S
C3488 C3489 1.370 . S
C3488 C3490 1.363 . S
C3488 H3504 0.931 . S
C3489 C3488 1.370 . S
C3489 C3493 1.408 . S
C3490 C3488 1.363 . S
C3490 C3491 1.370 . S
C3490 C3494 1.524 . S
C3491 C3483 1.503 . S
C3491 C3490 1.370 . S
C3491 C3492 1.403 . S
C3492 C3491 1.403 . S
C3492 C3493 1.404 . S
C3492 C3495 1.539 . S
C3493 C3489 1.408 . S
C3493 C3492 1.404 . S
C3493 H3505 0.930 . S
C3494 C3490 1.524 . S
C3494 H3506 0.956 . S
C3494 H3507 0.961 . S
C3494 H3508 0.961 . S
C3495 C3492 1.539 . S
C3495 H3509 0.958 . S
C3495 H3510 0.961 . S
C3495 H3511 0.960 . S
H3496 C3480 0.931 . S
H3497 C3485 0.929 . S
H3498 C3486 0.960 . S
H3499 C3486 0.962 . S
H3500 C3486 0.960 . S
H3501 C3487 0.961 . S
H3502 C3487 0.961 . S
H3503 C3487 0.961 . S
H3504 C3488 0.931 . S
H3505 C3493 0.930 . S
H3506 C3494 0.956 . S
H3507 C3494 0.961 . S
H3508 C3494 0.961 . S
H3509 C3495 0.958 . S
H3510 C3495 0.961 . S
H3511 C3495 0.960 . S
C3512 C3513 1.391 . S
C3512 C3514 1.394 . S
C3512 H3528 0.931 . S
C3513 C3512 1.391 . S
C3513 C3517 1.376 . S
C3514 C3512 1.394 . S
C3514 C3515 1.369 . S
C3514 C3518 1.531 . S
C3515 C3514 1.369 . S
C3515 C3516 1.410 . S
C3515 C3523 1.503 . S
C3516 C3515 1.410 . S
C3516 C3517 1.392 . S
C3516 C3519 1.511 . S
C3517 C3513 1.376 . S
C3517 C3516 1.392 . S
C3517 H3529 0.929 . S
C3518 C3514 1.531 . S
C3518 H3530 0.960 . S
C3518 H3531 0.962 . S
C3518 H3532 0.960 . S
C3519 C3516 1.511 . S
C3519 H3533 0.961 . S
C3519 H3534 0.961 . S
C3519 H3535 0.961 . S
C3520 C3521 1.370 . S
C3520 C3522 1.363 . S
C3520 H3536 0.931 . S
C3521 C3520 1.370 . S
C3521 C3525 1.408 . S
C3522 C3520 1.363 . S
C3522 C3523 1.370 . S
C3522 C3526 1.524 . S
C3523 C3515 1.503 . S
C3523 C3522 1.370 . S
C3523 C3524 1.403 . S
C3524 C3523 1.403 . S
C3524 C3525 1.404 . S
C3524 C3527 1.539 . S
C3525 C3521 1.408 . S
C3525 C3524 1.404 . S
C3525 H3537 0.930 . S
C3526 C3522 1.524 . S
C3526 H3538 0.956 . S
C3526 H3539 0.961 . S
C3526 H3540 0.961 . S
C3527 C3524 1.539 . S
C3527 H3541 0.958 . S
C3527 H3542 0.961 . S
C3527 H3543 0.960 . S
H3528 C3512 0.931 . S
H3529 C3517 0.929 . S
H3530 C3518 0.960 . S
H3531 C3518 0.962 . S
H3532 C3518 0.960 . S
H3533 C3519 0.961 . S
H3534 C3519 0.961 . S
H3535 C3519 0.961 . S
H3536 C3520 0.931 . S
H3537 C3525 0.930 . S
H3538 C3526 0.956 . S
H3539 C3526 0.961 . S
H3540 C3526 0.961 . S
H3541 C3527 0.958 . S
H3542 C3527 0.961 . S
H3543 C3527 0.960 . S
C3544 C3545 1.391 . S
C3544 C3546 1.394 . S
C3544 H3560 0.931 . S
C3545 C3544 1.391 . S
C3545 C3549 1.376 . S
C3546 C3544 1.394 . S
C3546 C3547 1.369 . S
C3546 C3550 1.531 . S
C3547 C3546 1.369 . S
C3547 C3548 1.410 . S
C3547 C3555 1.503 . S
C3548 C3547 1.410 . S
C3548 C3549 1.392 . S
C3548 C3551 1.511 . S
C3549 C3545 1.376 . S
C3549 C3548 1.392 . S
C3549 H3561 0.929 . S
C3550 C3546 1.531 . S
C3550 H3562 0.960 . S
C3550 H3563 0.962 . S
C3550 H3564 0.960 . S
C3551 C3548 1.511 . S
C3551 H3565 0.961 . S
C3551 H3566 0.961 . S
C3551 H3567 0.961 . S
C3552 C3553 1.370 . S
C3552 C3554 1.363 . S
C3552 H3568 0.931 . S
C3553 C3552 1.370 . S
C3553 C3557 1.408 . S
C3554 C3552 1.363 . S
C3554 C3555 1.370 . S
C3554 C3558 1.524 . S
C3555 C3547 1.503 . S
C3555 C3554 1.370 . S
C3555 C3556 1.403 . S
C3556 C3555 1.403 . S
C3556 C3557 1.404 . S
C3556 C3559 1.539 . S
C3557 C3553 1.408 . S
C3557 C3556 1.404 . S
C3557 H3569 0.930 . S
C3558 C3554 1.524 . S
C3558 H3570 0.956 . S
C3558 H3571 0.961 . S
C3558 H3572 0.961 . S
C3559 C3556 1.539 . S
C3559 H3573 0.958 . S
C3559 H3574 0.961 . S
C3559 H3575 0.960 . S
H3560 C3544 0.931 . S
H3561 C3549 0.929 . S
H3562 C3550 0.960 . S
H3563 C3550 0.962 . S
H3564 C3550 0.960 . S
H3565 C3551 0.961 . S
H3566 C3551 0.961 . S
H3567 C3551 0.961 . S
H3568 C3552 0.931 . S
H3569 C3557 0.930 . S
H3570 C3558 0.956 . S
H3571 C3558 0.961 . S
H3572 C3558 0.961 . S
H3573 C3559 0.958 . S
H3574 C3559 0.961 . S
H3575 C3559 0.960 . S
C3576 C3577 1.391 . S
C3576 C3578 1.394 . S
C3576 H3592 0.931 . S
C3577 C3576 1.391 . S
C3577 C3581 1.376 . S
C3578 C3576 1.394 . S
C3578 C3579 1.369 . S
C3578 C3582 1.531 . S
C3579 C3578 1.369 . S
C3579 C3580 1.410 . S
C3579 C3587 1.503 . S
C3580 C3579 1.410 . S
C3580 C3581 1.392 . S
C3580 C3583 1.511 . S
C3581 C3577 1.376 . S
C3581 C3580 1.392 . S
C3581 H3593 0.929 . S
C3582 C3578 1.531 . S
C3582 H3594 0.960 . S
C3582 H3595 0.962 . S
C3582 H3596 0.960 . S
C3583 C3580 1.511 . S
C3583 H3597 0.961 . S
C3583 H3598 0.961 . S
C3583 H3599 0.961 . S
C3584 C3585 1.370 1_455 S
C3584 C3586 1.355 1_455 S
C3584 H3600 0.931 . S
C3585 C3584 1.370 1_655 S
C3585 C3589 1.408 . S
C3586 C3584 1.355 1_655 S
C3586 C3587 1.383 . S
C3586 C3590 1.520 1_655 S
C3587 C3579 1.503 . S
C3587 C3586 1.383 . S
C3587 C3588 1.403 . S
C3588 C3587 1.403 . S
C3588 C3589 1.404 . S
C3588 C3591 1.539 . S
C3589 C3585 1.408 . S
C3589 C3588 1.404 . S
C3589 H3601 0.930 . S
C3590 C3586 1.520 1_455 S
C3590 H3602 0.956 . S
C3590 H3603 0.961 . S
C3590 H3604 0.961 . S
C3591 C3588 1.539 . S
C3591 H3605 0.958 . S
C3591 H3606 0.961 . S
C3591 H3607 0.960 . S
H3592 C3576 0.931 . S
H3593 C3581 0.929 . S
H3594 C3582 0.960 . S
H3595 C3582 0.962 . S
H3596 C3582 0.960 . S
H3597 C3583 0.961 . S
H3598 C3583 0.961 . S
H3599 C3583 0.961 . S
H3600 C3584 0.931 . S
H3601 C3589 0.930 . S
H3602 C3590 0.956 . S
H3603 C3590 0.961 . S
H3604 C3590 0.961 . S
H3605 C3591 0.958 . S
H3606 C3591 0.961 . S
H3607 C3591 0.960 . S
C3608 C3609 1.391 . S
C3608 C3610 1.394 . S
C3608 H3624 0.931 . S
C3609 C3608 1.391 . S
C3609 C3613 1.376 . S
C3610 C3608 1.394 . S
C3610 C3611 1.369 . S
C3610 C3614 1.531 . S
C3611 C3610 1.369 . S
C3611 C3612 1.410 . S
C3611 C3619 1.503 . S
C3612 C3611 1.410 . S
C3612 C3613 1.392 . S
C3612 C3615 1.511 . S
C3613 C3609 1.376 . S
C3613 C3612 1.392 . S
C3613 H3625 0.929 . S
C3614 C3610 1.531 . S
C3614 H3626 0.960 . S
C3614 H3627 0.962 . S
C3614 H3628 0.960 . S
C3615 C3612 1.511 . S
C3615 H3629 0.961 . S
C3615 H3630 0.961 . S
C3615 H3631 0.961 . S
C3616 C3617 1.370 . S
C3616 C3618 1.363 . S
C3616 H3632 0.931 . S
C3617 C3616 1.370 . S
C3617 C3621 1.408 . S
C3618 C3616 1.363 . S
C3618 C3619 1.370 . S
C3618 C3622 1.524 . S
C3619 C3611 1.503 . S
C3619 C3618 1.370 . S
C3619 C3620 1.403 . S
C3620 C3619 1.403 . S
C3620 C3621 1.404 . S
C3620 C3623 1.539 . S
C3621 C3617 1.408 . S
C3621 C3620 1.404 . S
C3621 H3633 0.930 . S
C3622 C3618 1.524 . S
C3622 H3634 0.956 . S
C3622 H3635 0.961 . S
C3622 H3636 0.961 . S
C3623 C3620 1.539 . S
C3623 H3637 0.958 . S
C3623 H3638 0.961 . S
C3623 H3639 0.960 . S
H3624 C3608 0.931 . S
H3625 C3613 0.929 . S
H3626 C3614 0.960 . S
H3627 C3614 0.962 . S
H3628 C3614 0.960 . S
H3629 C3615 0.961 . S
H3630 C3615 0.961 . S
H3631 C3615 0.961 . S
H3632 C3616 0.931 . S
H3633 C3621 0.930 . S
H3634 C3622 0.956 . S
H3635 C3622 0.961 . S
H3636 C3622 0.961 . S
H3637 C3623 0.958 . S
H3638 C3623 0.961 . S
H3639 C3623 0.960 . S
C3640 C3641 1.391 . S
C3640 C3642 1.394 . S
C3640 H3656 0.931 . S
C3641 C3640 1.391 . S
C3641 C3645 1.376 . S
C3642 C3640 1.394 . S
C3642 C3643 1.369 . S
C3642 C3646 1.531 . S
C3643 C3642 1.369 . S
C3643 C3644 1.410 . S
C3643 C3651 1.503 . S
C3644 C3643 1.410 . S
C3644 C3645 1.392 . S
C3644 C3647 1.511 . S
C3645 C3641 1.376 . S
C3645 C3644 1.392 . S
C3645 H3657 0.929 . S
C3646 C3642 1.531 . S
C3646 H3658 0.960 . S
C3646 H3659 0.962 1_545 S
C3646 H3660 0.960 . S
C3647 C3644 1.511 . S
C3647 H3661 0.961 . S
C3647 H3662 0.961 . S
C3647 H3663 0.961 . S
C3648 C3649 1.370 1_565 S
C3648 C3650 1.347 . S
C3648 H3664 0.931 . S
C3649 C3648 1.370 1_545 S
C3649 C3653 1.408 . S
C3650 C3648 1.347 . S
C3650 C3651 1.334 1_565 S
C3650 C3654 1.581 . S
C3651 C3643 1.503 . S
C3651 C3650 1.334 1_545 S
C3651 C3652 1.403 . S
C3652 C3651 1.403 . S
C3652 C3653 1.404 . S
C3652 C3655 1.539 . S
C3653 C3649 1.408 . S
C3653 C3652 1.404 . S
C3653 H3665 0.930 . S
C3654 C3650 1.581 . S
C3654 H3666 0.956 . S
C3654 H3667 0.961 . S
C3654 H3668 0.961 . S
C3655 C3652 1.539 . S
C3655 H3669 0.958 . S
C3655 H3670 0.961 . S
C3655 H3671 0.960 . S
H3656 C3640 0.931 . S
H3657 C3645 0.929 . S
H3658 C3646 0.960 . S
H3659 C3646 0.962 1_565 S
H3660 C3646 0.960 . S
H3661 C3647 0.961 . S
H3662 C3647 0.961 . S
H3663 C3647 0.961 . S
H3664 C3648 0.931 . S
H3665 C3653 0.930 . S
H3666 C3654 0.956 . S
H3667 C3654 0.961 . S
H3668 C3654 0.961 . S
H3669 C3655 0.958 . S
H3670 C3655 0.961 . S
H3671 C3655 0.960 . S
C1369 C7 1.523 . S
C1377 C857 1.537 . S
C1401 C23 1.617 . S
C1409 C901 1.601 . S
C1441 C981 1.518 . S
C1433 C37 1.578 . S
C1465 C35 1.558 . S
C1473 C1025 1.548 . S
C1497 C9 1.592 1_455 S
C1505 C1105 1.528 . S
C1529 C21 1.621 . S
C1537 C1167 1.561 . S
C1561 C49 1.536 . S
C1569 C1087 1.520 . S
C1601 C1149 1.559 . S
C1593 C65 1.632 . S
C1633 C1043 1.564 . S
C1625 C79 1.582 . S
C1657 C77 1.523 . S
C1665 C963 1.528 . S
C1697 C839 1.553 . S
C1689 C51 1.580 1_655 S
C1721 C63 1.612 . S
C1729 C919 1.603 . S
C1753 C91 1.652 . S
C1761 C1229 1.607 . S
C1785 C107 1.666 . S
C1793 C1273 1.637 . S
C1825 C1353 1.597 . S
C1817 C121 1.686 . S
C1849 C119 1.667 . S
C1857 C299 1.596 . S
C1881 C93 1.680 . S
C1889 C343 1.648 . S
C1913 C105 1.615 . S
C1921 C423 1.615 . S
C1945 C133 1.622 . S
C1953 C361 1.596 . S
C1977 C149 1.664 . S
C1985 C405 1.605 . S
C2017 C281 1.618 . S
C2009 C163 1.677 . S
C2049 C1335 1.654 . S
C2041 C161 1.670 . S
C2081 C1211 1.604 . S
C2073 C135 1.666 . S
C2113 C1291 1.667 . S
C2105 C147 1.621 . S
C2137 C175 1.617 . S
C2145 C485 1.565 . S
C2169 C191 1.648 . S
C2177 C547 1.574 . S
C2201 C205 1.691 . S
C2209 C591 1.636 . S
C2233 C203 1.702 . S
C2241 C653 1.686 . S
C2273 C715 1.659 . S
C2265 C177 1.677 . S
C2305 C795 1.634 . S
C2297 C189 1.626 . S
C2337 C733 1.647 . S
C2329 C217 1.663 . S
C2369 C777 1.611 . S
C2361 C233 1.662 . S
C2393 C247 1.679 . S
C2401 C671 1.640 . S
C2433 C609 1.653 . S
C2425 C245 1.612 . S
C2457 C219 1.673 . S
C2465 C467 1.616 . S
C2497 C529 1.595 . S
C2489 C231 1.656 . S
C2529 C305 1.493 . S
C2521 C8 1.584 . S
C2553 C17 1.539 . S
C2561 C349 1.492 . S
C2593 C429 1.509 . S
C2585 C31 1.584 . S
C2625 C491 1.530 . S
C2617 C36 1.571 1_556 S
C2657 C553 1.488 . S
C2649 C3 1.551 . S
C2689 C597 1.484 . S
C2681 C22 1.569 . S
C2713 C50 1.588 . S
C2721 C615 1.525 . S
C2745 C59 1.524 . S
C2753 C473 1.471 . S
C2777 C73 1.553 . S
C2785 C535 1.471 . S
C2809 C78 1.612 . S
C2817 C367 1.548 . S
C2849 C411 1.488 . S
C2841 C45 1.543 . S
C2873 C64 1.541 . S
C2881 C287 1.486 . S
C2913 C659 1.507 . S
C2905 C92 1.583 . S
C2937 C101 1.569 1_545 S
C2945 C721 1.536 . S
C2969 C115 1.624 1_655 S
C2977 C801 1.531 . S
C3009 C863 1.441 . S
C3001 C120 1.493 . S
C3033 C87 1.550 . S
C3041 C907 1.496 . S
C3065 C106 1.459 . S
C3073 C987 1.390 . S
C3097 C134 1.462 . S
C3105 C969 1.421 . S
C3129 C143 1.475 . S
C3137 C845 1.421 . S
C3169 C925 1.525 . S
C3161 C157 1.566 . S
C3193 C162 1.587 . S
C3201 C739 1.536 . S
C3225 C129 1.610 1_545 S
C3233 C783 1.551 . S
C3265 C677 1.542 . S
C3257 C148 1.608 . S
C3297 C1031 1.444 . S
C3289 C176 1.470 . S
C3321 C185 1.475 . S
C3329 C1111 1.432 . S
C3353 C199 1.567 . S
C3361 C1173 1.508 . S
C3393 C1235 1.492 . S
C3385 C204 1.580 . S
C3425 C1279 1.544 . S
C3417 C171 1.610 1_565 S
C3449 C190 1.614 . S
C3457 C1359 1.520 . S
C3481 C218 1.585 . S
C3489 C1341 1.501 . S
C3513 C227 1.601 1_565 S
C3521 C1217 1.514 . S
C3553 C1297 1.542 . S
C3545 C241 1.613 1_455 S
C3585 C1093 1.427 . S
C3577 C246 1.483 . S
C3617 C1155 1.504 . S
C3609 C213 1.560 . S
C3641 C232 1.466 . S
C3649 C1049 1.417 . S
