# Generated by pormake.
# Topology ptr, (4,4)-cn, num edge types: 1
# Building blocks:
#     Node 0, Type 0, BuildingBlock: TATPOV_clean_sbu_0, # of connection points: 4
#     Node 1, Type 0, BuildingBlock: TATPOV_clean_sbu_0, # of connection points: 4
#     Node 2, Type 0, BuildingBlock: TATPOV_clean_sbu_0, # of connection points: 4
#     Node 3, Type 0, BuildingBlock: TATPOV_clean_sbu_0, # of connection points: 4
#     Node 4, Type 0, BuildingBlock: TATPOV_clean_sbu_0, # of connection points: 4
#     Node 5, Type 0, BuildingBlock: TATPOV_clean_sbu_0, # of connection points: 4
#     Node 6, Type 0, BuildingBlock: TATPOV_clean_sbu_0, # of connection points: 4
#     Node 7, Type 0, BuildingBlock: TATPOV_clean_sbu_0, # of connection points: 4
#     Node 8, Type 0, BuildingBlock: TATPOV_clean_sbu_0, # of connection points: 4
#     Node 9, Type 0, BuildingBlock: TATPOV_clean_sbu_0, # of connection points: 4
#     Node 10, Type 0, BuildingBlock: TATPOV_clean_sbu_0, # of connection points: 4
#     Node 11, Type 0, BuildingBlock: TATPOV_clean_sbu_0, # of connection points: 4
#     Node 12, Type 0, BuildingBlock: TATPOV_clean_sbu_0, # of connection points: 4
#     Node 13, Type 0, BuildingBlock: TATPOV_clean_sbu_0, # of connection points: 4
#     Node 14, Type 0, BuildingBlock: TATPOV_clean_sbu_0, # of connection points: 4
#     Node 15, Type 0, BuildingBlock: TATPOV_clean_sbu_0, # of connection points: 4
#     Node 16, Type 0, BuildingBlock: TATPOV_clean_sbu_0, # of connection points: 4
#     Node 17, Type 0, BuildingBlock: TATPOV_clean_sbu_0, # of connection points: 4
#     Node 18, Type 1, BuildingBlock: KUFVIS_clean_linker_0, # of connection points: 4
#     Node 19, Type 1, BuildingBlock: KUFVIS_clean_linker_0, # of connection points: 4
#     Node 20, Type 1, BuildingBlock: KUFVIS_clean_linker_0, # of connection points: 4
#     Node 21, Type 1, BuildingBlock: KUFVIS_clean_linker_0, # of connection points: 4
#     Node 22, Type 1, BuildingBlock: KUFVIS_clean_linker_0, # of connection points: 4
#     Node 23, Type 1, BuildingBlock: KUFVIS_clean_linker_0, # of connection points: 4
#     Node 24, Type 1, BuildingBlock: KUFVIS_clean_linker_0, # of connection points: 4
#     Node 25, Type 1, BuildingBlock: KUFVIS_clean_linker_0, # of connection points: 4
#     Node 26, Type 1, BuildingBlock: KUFVIS_clean_linker_0, # of connection points: 4
#     Node 27, Type 1, BuildingBlock: KUFVIS_clean_linker_0, # of connection points: 4
#     Node 28, Type 1, BuildingBlock: KUFVIS_clean_linker_0, # of connection points: 4
#     Node 29, Type 1, BuildingBlock: KUFVIS_clean_linker_0, # of connection points: 4
#     Node 30, Type 1, BuildingBlock: KUFVIS_clean_linker_0, # of connection points: 4
#     Node 31, Type 1, BuildingBlock: KUFVIS_clean_linker_0, # of connection points: 4
#     Node 32, Type 1, BuildingBlock: KUFVIS_clean_linker_0, # of connection points: 4
#     Node 33, Type 1, BuildingBlock: KUFVIS_clean_linker_0, # of connection points: 4
#     Node 34, Type 1, BuildingBlock: KUFVIS_clean_linker_0, # of connection points: 4
#     Node 35, Type 1, BuildingBlock: KUFVIS_clean_linker_0, # of connection points: 4
#     Edge 36, Type (0, 1), BuildingBlock: CIFDUS_clean_linker_0, # of connection points: 2
#     Edge 37, Type (0, 1), BuildingBlock: CIFDUS_clean_linker_0, # of connection points: 2
#     Edge 38, Type (0, 1), BuildingBlock: CIFDUS_clean_linker_0, # of connection points: 2
#     Edge 39, Type (0, 1), BuildingBlock: CIFDUS_clean_linker_0, # of connection points: 2
#     Edge 40, Type (0, 1), BuildingBlock: CIFDUS_clean_linker_0, # of connection points: 2
#     Edge 41, Type (0, 1), BuildingBlock: CIFDUS_clean_linker_0, # of connection points: 2
#     Edge 42, Type (0, 1), BuildingBlock: CIFDUS_clean_linker_0, # of connection points: 2
#     Edge 43, Type (0, 1), BuildingBlock: CIFDUS_clean_linker_0, # of connection points: 2
#     Edge 44, Type (0, 1), BuildingBlock: CIFDUS_clean_linker_0, # of connection points: 2
#     Edge 45, Type (0, 1), BuildingBlock: CIFDUS_clean_linker_0, # of connection points: 2
#     Edge 46, Type (0, 1), BuildingBlock: CIFDUS_clean_linker_0, # of connection points: 2
#     Edge 47, Type (0, 1), BuildingBlock: CIFDUS_clean_linker_0, # of connection points: 2
#     Edge 48, Type (0, 1), BuildingBlock: CIFDUS_clean_linker_0, # of connection points: 2
#     Edge 49, Type (0, 1), BuildingBlock: CIFDUS_clean_linker_0, # of connection points: 2
#     Edge 50, Type (0, 1), BuildingBlock: CIFDUS_clean_linker_0, # of connection points: 2
#     Edge 51, Type (0, 1), BuildingBlock: CIFDUS_clean_linker_0, # of connection points: 2
#     Edge 52, Type (0, 1), BuildingBlock: CIFDUS_clean_linker_0, # of connection points: 2
#     Edge 53, Type (0, 1), BuildingBlock: CIFDUS_clean_linker_0, # of connection points: 2
#     Edge 54, Type (0, 1), BuildingBlock: CIFDUS_clean_linker_0, # of connection points: 2
#     Edge 55, Type (0, 1), BuildingBlock: CIFDUS_clean_linker_0, # of connection points: 2
#     Edge 56, Type (0, 1), BuildingBlock: CIFDUS_clean_linker_0, # of connection points: 2
#     Edge 57, Type (0, 1), BuildingBlock: CIFDUS_clean_linker_0, # of connection points: 2
#     Edge 58, Type (0, 1), BuildingBlock: CIFDUS_clean_linker_0, # of connection points: 2
#     Edge 59, Type (0, 1), BuildingBlock: CIFDUS_clean_linker_0, # of connection points: 2
#     Edge 60, Type (0, 1), BuildingBlock: CIFDUS_clean_linker_0, # of connection points: 2
#     Edge 61, Type (0, 1), BuildingBlock: CIFDUS_clean_linker_0, # of connection points: 2
#     Edge 62, Type (0, 1), BuildingBlock: CIFDUS_clean_linker_0, # of connection points: 2
#     Edge 63, Type (0, 1), BuildingBlock: CIFDUS_clean_linker_0, # of connection points: 2
#     Edge 64, Type (0, 1), BuildingBlock: CIFDUS_clean_linker_0, # of connection points: 2
#     Edge 65, Type (0, 1), BuildingBlock: CIFDUS_clean_linker_0, # of connection points: 2
#     Edge 66, Type (0, 1), BuildingBlock: CIFDUS_clean_linker_0, # of connection points: 2
#     Edge 67, Type (0, 1), BuildingBlock: CIFDUS_clean_linker_0, # of connection points: 2
#     Edge 68, Type (0, 1), BuildingBlock: CIFDUS_clean_linker_0, # of connection points: 2
#     Edge 69, Type (0, 1), BuildingBlock: CIFDUS_clean_linker_0, # of connection points: 2
#     Edge 70, Type (0, 1), BuildingBlock: CIFDUS_clean_linker_0, # of connection points: 2
#     Edge 71, Type (0, 1), BuildingBlock: CIFDUS_clean_linker_0, # of connection points: 2
#     Edge 72, Type (0, 1), BuildingBlock: CIFDUS_clean_linker_0, # of connection points: 2
#     Edge 73, Type (0, 1), BuildingBlock: CIFDUS_clean_linker_0, # of connection points: 2
#     Edge 74, Type (0, 1), BuildingBlock: CIFDUS_clean_linker_0, # of connection points: 2
#     Edge 75, Type (0, 1), BuildingBlock: CIFDUS_clean_linker_0, # of connection points: 2
#     Edge 76, Type (0, 1), BuildingBlock: CIFDUS_clean_linker_0, # of connection points: 2
#     Edge 77, Type (0, 1), BuildingBlock: CIFDUS_clean_linker_0, # of connection points: 2
#     Edge 78, Type (0, 1), BuildingBlock: CIFDUS_clean_linker_0, # of connection points: 2
#     Edge 79, Type (0, 1), BuildingBlock: CIFDUS_clean_linker_0, # of connection points: 2
#     Edge 80, Type (0, 1), BuildingBlock: CIFDUS_clean_linker_0, # of connection points: 2
#     Edge 81, Type (0, 1), BuildingBlock: CIFDUS_clean_linker_0, # of connection points: 2
#     Edge 82, Type (0, 1), BuildingBlock: CIFDUS_clean_linker_0, # of connection points: 2
#     Edge 83, Type (0, 1), BuildingBlock: CIFDUS_clean_linker_0, # of connection points: 2
#     Edge 84, Type (0, 1), BuildingBlock: CIFDUS_clean_linker_0, # of connection points: 2
#     Edge 85, Type (0, 1), BuildingBlock: CIFDUS_clean_linker_0, # of connection points: 2
#     Edge 86, Type (0, 1), BuildingBlock: CIFDUS_clean_linker_0, # of connection points: 2
#     Edge 87, Type (0, 1), BuildingBlock: CIFDUS_clean_linker_0, # of connection points: 2
#     Edge 88, Type (0, 1), BuildingBlock: CIFDUS_clean_linker_0, # of connection points: 2
#     Edge 89, Type (0, 1), BuildingBlock: CIFDUS_clean_linker_0, # of connection points: 2
#     Edge 90, Type (0, 1), BuildingBlock: CIFDUS_clean_linker_0, # of connection points: 2
#     Edge 91, Type (0, 1), BuildingBlock: CIFDUS_clean_linker_0, # of connection points: 2
#     Edge 92, Type (0, 1), BuildingBlock: CIFDUS_clean_linker_0, # of connection points: 2
#     Edge 93, Type (0, 1), BuildingBlock: CIFDUS_clean_linker_0, # of connection points: 2
#     Edge 94, Type (0, 1), BuildingBlock: CIFDUS_clean_linker_0, # of connection points: 2
#     Edge 95, Type (0, 1), BuildingBlock: CIFDUS_clean_linker_0, # of connection points: 2
#     Edge 96, Type (0, 1), BuildingBlock: CIFDUS_clean_linker_0, # of connection points: 2
#     Edge 97, Type (0, 1), BuildingBlock: CIFDUS_clean_linker_0, # of connection points: 2
#     Edge 98, Type (0, 1), BuildingBlock: CIFDUS_clean_linker_0, # of connection points: 2
#     Edge 99, Type (0, 1), BuildingBlock: CIFDUS_clean_linker_0, # of connection points: 2
#     Edge 100, Type (0, 1), BuildingBlock: CIFDUS_clean_linker_0, # of connection points: 2
#     Edge 101, Type (0, 1), BuildingBlock: CIFDUS_clean_linker_0, # of connection points: 2
#     Edge 102, Type (0, 1), BuildingBlock: CIFDUS_clean_linker_0, # of connection points: 2
#     Edge 103, Type (0, 1), BuildingBlock: CIFDUS_clean_linker_0, # of connection points: 2
#     Edge 104, Type (0, 1), BuildingBlock: CIFDUS_clean_linker_0, # of connection points: 2
#     Edge 105, Type (0, 1), BuildingBlock: CIFDUS_clean_linker_0, # of connection points: 2
#     Edge 106, Type (0, 1), BuildingBlock: CIFDUS_clean_linker_0, # of connection points: 2
#     Edge 107, Type (0, 1), BuildingBlock: CIFDUS_clean_linker_0, # of connection points: 2
# Relax obj value: 0.070
# Max RMSD: 0.193
# Mean RMSD: 0.120
data_MOF--net-ptr--node1-TATPOV_clean_sbu_0--node2-KUFVIS_clean_linker_0--edge1-CIFDUS_clean_linker_0
_symmetry_space_group_name_H-M    P1
_symmetry_Int_Tables_number       1
_symmetry_cell_setting            triclinic
loop_
_symmetry_equiv_pos_as_xyz
'x, y, z'
_cell_length_a     68.181708
_cell_length_b     68.731381
_cell_length_c     42.91869
_cell_angle_alpha  89.376684
_cell_angle_beta   91.836414
_cell_angle_gamma 121.13458
loop_
_atom_site_label
_atom_site_type_symbol
_atom_site_fract_x
_atom_site_fract_y
_atom_site_fract_z
_atom_type_partial_charge
Zn0 Zn 0.95751 0.37128 0.0148 0.0
Zn1 Zn 1.00099 0.37795 0.01468 0.0
O2 O 0.98007 0.34334 0.01212 0.0
O3 O 0.94497 0.33708 0.01288 0.0
O4 O 0.03328 0.38355 0.01837 0.0
O5 O 0.96496 0.38834 0.056 0.0
O6 O 0.99947 0.39322 0.05459 0.0
C7 C 0.95844 0.32956 0.01153 0.0
C8 C 0.98482 0.3972 0.962 0.0
O9 O 1.00003 0.39389 0.97461 0.0
O10 O 0.96561 0.38951 0.97457 0.0
C11 C 0.04091 0.37233 0.00531 0.0
O12 O 0.02729 0.35545 -0.01362 0.0
C13 C 0.98489 0.39633 0.06801 0.0
Zn14 Zn 0.67369 0.61262 0.00597 0.0
Zn15 Zn 0.6764 0.65201 0.0099 0.0
O16 O 0.7109 0.66095 0.00617 0.0
O17 O 0.70748 0.62733 0.00426 0.0
O18 O 0.6771 0.68213 0.01382 0.0
O19 O 0.65887 0.60216 0.04651 0.0
O20 O 0.66057 0.63488 0.05066 0.0
C21 C 0.72006 0.64876 0.00479 0.0
C22 C 0.64734 0.61733 0.95749 0.0
O23 O 0.65515 0.63666 0.97063 0.0
O24 O 0.65336 0.60382 0.96778 0.0
C25 C 0.65793 0.68105 0.01555 0.0
O26 O 0.63906 0.66094 0.01422 0.0
C27 C 0.65468 0.61525 0.06147 0.0
Zn28 Zn 0.37777 0.96171 -0.01 0.0
Zn29 Zn 0.38244 1.00277 -0.0052 0.0
O30 O 0.3473 0.97977 -0.00267 0.0
O31 O 0.34359 0.94621 -0.00792 0.0
O32 O 0.38517 0.03379 -0.00397 0.0
O33 O 0.39263 0.9695 0.94873 0.0
O34 O 0.39639 1.00321 0.95239 0.0
C35 C 0.33459 0.95815 -0.00453 0.0
C36 C 0.40663 0.98772 0.0425 0.0
O37 O 0.40229 1.00273 0.03257 0.0
O38 O 0.39774 0.96869 0.02868 0.0
C39 C 0.37215 0.03759 0.01222 0.0
O40 O 0.35706 0.02129 0.02986 0.0
C41 C 0.39936 0.98899 0.93753 0.0
Zn42 Zn 0.08474 0.66665 -0.01292 0.0
Zn43 Zn 0.04391 0.66415 -0.0077 0.0
O44 O 0.06884 0.69859 -0.00772 0.0
O45 O 0.10158 0.70071 0.98396 0.0
O46 O 1.01353 0.66351 -0.00656 0.0
O47 O 0.0726 0.64631 0.94913 0.0
O48 O 0.0402 0.64588 0.95235 0.0
C49 C 0.09046 0.71047 -0.0115 0.0
C50 C 0.06138 0.64537 0.04385 0.0
O51 O 0.04528 0.6477 0.03212 0.0
O52 O 0.07998 0.65278 0.02985 0.0
C53 C 1.01169 0.67917 0.00608 0.0
O54 O 0.02978 0.69612 0.02017 0.0
C55 C 0.05254 0.63978 0.9387 0.0
Zn56 Zn 0.37043 0.4069 0.00276 0.0
Zn57 Zn 0.37111 0.36818 -0.00142 0.0
O58 O 0.33678 0.35804 0.00331 0.0
O59 O 0.33619 0.38974 0.00452 0.0
O60 O 0.37093 0.33831 -0.00504 0.0
O61 O 0.38522 0.41712 0.96187 0.0
O62 O 0.38604 0.38562 0.9578 0.0
C63 C 0.32563 0.36825 0.00468 0.0
C64 C 0.3986 0.40311 0.05082 0.0
O65 O 0.39221 0.38424 0.03719 0.0
O66 O 0.39108 0.41558 0.04115 0.0
C67 C 0.35421 0.31915 0.00334 0.0
O68 O 0.33624 0.31821 0.01523 0.0
C69 C 0.39061 0.40488 0.94697 0.0
Zn70 Zn 0.66212 0.05572 0.98174 0.0
Zn71 Zn 0.65837 0.01507 0.98209 0.0
O72 O 0.69361 0.03767 0.98378 0.0
O73 O 0.69619 0.07094 -0.01459 0.0
O74 O 0.65434 0.98352 0.9836 0.0
O75 O 0.64466 0.04876 0.02047 0.0
O76 O 0.64229 0.01557 0.02202 0.0
C77 C 0.70574 0.0593 -0.01406 0.0
C78 C 0.63681 0.02923 0.92852 0.0
O79 O 0.64077 1.0147 0.9414 0.0
O80 O 0.64487 0.04867 0.94078 0.0
C81 C 0.66892 0.9781 0.97647 0.0
O82 O 0.68896 0.99385 0.96633 0.0
C83 C 0.63804 0.02995 0.03376 0.0
Zn84 Zn 0.64317 0.71451 0.34172 0.0
Zn85 Zn 0.68412 0.7168 0.34244 0.0
O86 O 0.65958 0.68257 0.34019 0.0
O87 O 0.62616 0.68025 0.33718 0.0
O88 O 0.71391 0.71706 0.34442 0.0
O89 O 0.65096 0.72874 0.38467 0.0
O90 O 0.68568 0.73404 0.3824 0.0
C91 C 0.63776 0.67062 0.33774 0.0
C92 C 0.67283 0.74027 0.29065 0.0
O93 O 0.68602 0.73403 0.30257 0.0
O94 O 0.65408 0.73471 0.3033 0.0
C95 C 0.71707 0.70382 0.32765 0.0
O96 O 0.70074 0.68993 0.30792 0.0
C97 C 0.67096 0.73664 0.39637 0.0
Zn98 Zn 0.33731 0.94654 0.32399 0.0
Zn99 Zn 0.33261 0.98284 0.32989 0.0
O100 O 0.36717 0.99497 0.32666 0.0
O101 O 0.37167 0.96554 0.32726 0.0
O102 O 0.3341 1.01279 0.33529 0.0
O103 O 0.31931 0.93354 0.36266 0.0
O104 O 0.31743 0.96429 0.36917 0.0
C105 C 0.38025 0.98683 0.32693 0.0
C106 C 0.31102 0.95163 0.27352 0.0
O107 O 0.31316 0.968 0.28996 0.0
O108 O 0.32071 0.94086 0.28211 0.0
C109 C 0.31939 0.01878 0.33122 0.0
O110 O 0.29826 1.00365 0.32237 0.0
C111 C 0.31303 0.94475 0.37836 0.0
Zn112 Zn 0.06189 0.32897 0.35424 0.0
Zn113 Zn 0.06175 0.36785 0.34882 0.0
O114 O 0.02771 0.34269 0.35447 0.0
O115 O 0.02783 0.31085 0.3596 0.0
O116 O 0.06033 0.39656 0.34291 0.0
O117 O 0.074 0.33264 0.31168 0.0
O118 O 0.07521 0.36521 0.30745 0.0
C119 C 1.01693 0.32118 0.35817 0.0
C120 C 0.09115 0.36289 0.40017 0.0
O121 O 0.08344 0.3746 0.38751 0.0
O122 O 0.08453 0.3431 0.39019 0.0
C123 C 0.04658 0.39989 0.35812 0.0
O124 O 0.03373 0.38485 0.37892 0.0
C125 C 0.07876 0.35022 0.29616 0.0
Zn126 Zn 0.7377 0.98831 0.30851 0.0
Zn127 Zn 0.70046 0.9916 0.31184 0.0
O128 O 0.72749 0.02531 0.31429 0.0
O129 O 0.758 0.02228 0.31196 0.0
O130 O 0.67194 0.99375 0.31186 0.0
O131 O 0.72786 0.97355 0.2664 0.0
O132 O 0.69583 0.97377 0.27066 0.0
C133 C 0.74927 0.03457 0.31423 0.0
C134 C 0.71017 0.9655 0.36187 0.0
O135 O 0.69808 0.97353 0.35147 0.0
O136 O 0.72761 0.96902 0.34737 0.0
C137 C 0.65239 0.97561 0.30935 0.0
O138 O 0.65135 0.956 0.30793 0.0
C139 C 0.70825 0.96838 0.25577 0.0
Zn140 Zn 0.04084 0.76537 0.33295 0.0
Zn141 Zn 0.03763 0.72533 0.32291 0.0
O142 O 1.00422 0.71793 0.32759 0.0
O143 O 1.00671 0.75105 0.33092 0.0
O144 O 0.03209 0.69384 0.31369 0.0
O145 O 0.05852 0.77786 0.29401 0.0
O146 O 0.05408 0.7444 0.28414 0.0
C147 C 0.99459 0.7296 0.32947 0.0
C148 C 0.06354 0.75366 0.38081 0.0
O149 O 0.05804 0.73667 0.36316 0.0
O150 O 0.05728 0.76763 0.3739 0.0
C151 C 0.04106 0.68331 0.32641 0.0
O152 O 0.05701 0.69339 0.34843 0.0
C153 C 0.06152 0.76502 0.27643 0.0
Zn154 Zn 0.33044 0.3943 0.33266 0.0
Zn155 Zn 0.32905 0.35479 0.33001 0.0
O156 O 0.36402 0.37841 0.3285 0.0
O157 O 0.36475 0.41068 0.33277 0.0
O158 O 0.32535 0.32352 0.3304 0.0
O159 O 0.31449 0.3861 0.37301 0.0
O160 O 0.31407 0.35391 0.3716 0.0
C161 C 0.37528 0.40009 0.33056 0.0
C162 C 0.30434 0.36766 0.27962 0.0
O163 O 0.30985 0.35383 0.29096 0.0
O164 O 0.31148 0.38663 0.29287 0.0
C165 C 0.33997 0.31762 0.32619 0.0
O166 O 0.3611 0.33314 0.31955 0.0
C167 C 0.30923 0.36724 0.3852 0.0
Zn168 Zn 0.29537 0.04262 0.67219 0.0
Zn169 Zn 0.33375 0.04147 0.66708 0.0
O170 O 0.30639 1.0084 0.66013 0.0
O171 O 0.27469 1.0092 0.66336 0.0
O172 O 0.36066 0.03643 0.6652 0.0
O173 O 0.30449 0.05457 0.71584 0.0
O174 O 0.33701 0.05546 0.71102 0.0
C175 C 0.28452 0.99814 0.65909 0.0
C176 C 0.32501 0.07183 0.62356 0.0
O177 O 0.33772 0.06388 0.63148 0.0
O178 O 0.30647 0.06528 0.63735 0.0
C179 C 0.38215 0.05076 0.66615 0.0
O180 O 0.38951 0.07256 0.66809 0.0
C181 C 0.32394 0.05946 0.72694 0.0
Zn182 Zn 0.99369 0.27268 0.66988 0.0
Zn183 Zn 0.99217 0.3107 0.67372 0.0
O184 O 0.02653 0.32258 0.6654 0.0
O185 O 0.02736 0.291 0.66312 0.0
O186 O 0.98917 0.33861 0.67847 0.0
O187 O 0.98232 0.26349 0.71269 0.0
O188 O 0.98154 0.29508 0.7167 0.0
C189 C 0.0377 0.31247 0.66229 0.0
C190 C 0.96189 0.27304 0.62528 0.0
O191 O 0.96878 0.29253 0.63735 0.0
O192 O 0.97045 0.26143 0.63474 0.0
C193 C 1.0036 0.35957 0.67372 0.0
O194 O 0.02406 0.36567 0.66396 0.0
C195 C 0.97847 0.27657 0.72829 0.0
Zn196 Zn 0.71563 0.6473 0.67737 0.0
Zn197 Zn 0.71855 0.68788 0.67714 0.0
O198 O 0.68478 0.66377 0.68442 0.0
O199 O 0.68127 0.63025 0.68046 0.0
O200 O 0.7157 0.71588 0.67422 0.0
O201 O 0.73004 0.65379 0.63592 0.0
O202 O 0.73059 0.68621 0.63407 0.0
C203 C 0.67229 0.64216 0.68422 0.0
C204 C 0.74599 0.6782 0.72613 0.0
O205 O 0.74103 0.69227 0.71404 0.0
O206 O 0.73664 0.65814 0.71537 0.0
C207 C 0.72885 0.73678 0.68132 0.0
O208 O 0.74948 0.7439 0.6932 0.0
C209 C 0.73452 0.67179 0.62177 0.0
Zn210 Zn 0.40135 0.31188 0.6658 0.0
Zn211 Zn 0.36026 0.30841 0.66691 0.0
O212 O 0.38525 0.3426 0.66599 0.0
O213 O 0.41903 0.346 0.6639 0.0
O214 O 0.33101 0.30982 0.66556 0.0
O215 O 0.39114 0.29246 0.62749 0.0
O216 O 0.35705 0.28871 0.62839 0.0
C217 C 0.40701 0.35511 0.66493 0.0
C218 C 0.3756 0.28923 0.72061 0.0
O219 O 0.36044 0.29283 0.70838 0.0
O220 O 0.3943 0.296 0.70714 0.0
C221 C 0.33048 0.32545 0.68053 0.0
O222 O 0.34816 0.33917 0.69862 0.0
C223 C 0.37095 0.28395 0.61625 0.0
Zn224 Zn 0.71308 0.09109 0.66744 0.0
Zn225 Zn 0.71069 0.05287 0.65518 0.0
O226 O 0.67608 0.04411 0.65404 0.0
O227 O 0.67948 0.07739 0.66128 0.0
O228 O 0.7102 0.02348 0.64627 0.0
O229 O 0.73337 0.1068 0.63229 0.0
O230 O 0.73069 0.07454 0.61976 0.0
C231 C 0.66695 0.05629 0.65599 0.0
C232 C 0.73352 0.07945 0.71645 0.0
O233 O 0.72794 0.06271 0.69822 0.0
O234 O 0.72794 0.09389 0.70928 0.0
C235 C 0.69449 1.00388 0.65488 0.0
O236 O 0.67703 1.00192 0.66979 0.0
C237 C 0.73855 0.09563 0.61467 0.0
Zn238 Zn 1.00136 0.73233 0.65987 0.0
Zn239 Zn 0.99912 0.69302 0.6666 0.0
O240 O 0.03372 0.7176 0.66253 0.0
O241 O 0.0354 0.75035 0.65869 0.0
O242 O 1.00113 0.66462 0.67184 0.0
O243 O 0.98642 0.72851 0.70011 0.0
O244 O 0.9838 0.69541 0.70656 0.0
C245 C 0.04545 0.73922 0.66023 0.0
C246 C 0.97336 0.70005 0.61209 0.0
O247 O 0.97867 0.68711 0.62684 0.0
O248 O 0.98147 0.72034 0.62117 0.0
C249 C 0.98555 0.64369 0.66967 0.0
O250 O 0.96418 0.638 0.66393 0.0
C251 C 0.98013 0.71079 0.71607 0.0
H252 H 0.24381 0.3481 0.10844 0.0
H253 H 0.18647 0.34302 0.05632 0.0
H254 H 0.19624 0.35935 0.15491 0.0
H255 H 0.15904 0.33946 0.15445 0.0
H256 H 0.1115 0.35536 0.11263 0.0
H257 H 0.16548 0.36024 0.0578 0.0
C258 C 0.22782 0.34797 0.10785 0.0
C259 C 0.22066 0.35294 0.13511 0.0
C260 C 0.21592 0.34489 0.07935 0.0
C261 C 0.19569 0.34575 0.07838 0.0
C262 C 0.18763 0.35009 0.10589 0.0
C263 C 0.20095 0.3545 0.13383 0.0
C264 C 0.16569 0.35035 0.10623 0.0
C265 C 0.1536 0.34517 0.1342 0.0
C266 C 0.13473 0.34783 0.13691 0.0
C267 C 0.12664 0.35408 0.11081 0.0
C268 C 0.13727 0.35804 0.08215 0.0
C269 C 0.15692 0.35633 0.07979 0.0
H270 H 0.66808 0.90485 0.08365 0.0
H271 H 0.67645 0.85362 0.0408 0.0
H272 H 0.66682 0.85344 0.14058 0.0
H273 H 0.68444 0.83645 0.14559 0.0
H274 H 0.67752 0.77512 0.11264 0.0
H275 H 0.66969 0.81848 0.04735 0.0
C276 C 0.66887 0.8895 0.0857 0.0
C277 C 0.66854 0.88072 0.11512 0.0
C278 C 0.67092 0.8794 0.0589 0.0
C279 C 0.67354 0.86035 0.06163 0.0
C280 C 0.67249 0.85046 0.09131 0.0
C281 C 0.66883 0.86055 0.11758 0.0
C282 C 0.6756 0.83022 0.09582 0.0
C283 C 0.68047 0.82508 0.12613 0.0
C284 C 0.6801 0.80491 0.13254 0.0
C285 C 0.67773 0.79077 0.10791 0.0
C286 C 0.67485 0.79603 0.07719 0.0
C287 C 0.6732 0.81543 0.07105 0.0
H288 H 0.2477 0.93651 0.10613 0.0
H289 H 0.18977 0.88827 0.05021 0.0
H290 H 0.19142 0.88087 0.15064 0.0
H291 H 0.15445 0.86459 0.14575 0.0
H292 H 0.10438 0.80371 0.09869 0.0
H293 H 0.16562 0.85068 0.05181 0.0
C294 C 0.23046 0.92174 0.10448 0.0
C295 C 0.22016 0.90998 0.13151 0.0
C296 C 0.2198 0.91376 0.0752 0.0
C297 C 0.19778 0.89412 0.07306 0.0
C298 C 0.18655 0.88222 0.10031 0.0
C299 C 0.19838 0.89031 0.12945 0.0
C300 C 0.16318 0.86092 0.09874 0.0
C301 C 0.14911 0.85409 0.125 0.0
C302 C 0.12846 0.8331 0.1255 0.0
C303 C 0.12051 0.81983 0.09844 0.0
C304 C 0.13352 0.82637 0.07159 0.0
C305 C 0.15513 0.84659 0.07203 0.0
H306 H 0.35924 0.10896 0.90706 0.0
H307 H 0.38324 0.17223 0.95536 0.0
H308 H 0.34778 0.1591 0.86547 0.0
H309 H 0.37541 0.19528 0.85876 0.0
H310 H 0.37646 0.25209 0.89996 0.0
H311 H 0.36724 0.19681 0.95824 0.0
C312 C 0.36095 0.12555 0.90808 0.0
C313 C 0.35289 0.13279 0.88301 0.0
C314 C 0.37136 0.13935 0.93441 0.0
C315 C 0.37428 0.16123 0.93552 0.0
C316 C 0.36615 0.16892 0.91028 0.0
C317 C 0.35471 0.15399 0.88476 0.0
C318 C 0.3704 0.19266 0.90875 0.0
C319 C 0.37411 0.20341 0.8794 0.0
C320 C 0.37552 0.22437 0.876 0.0
C321 C 0.37486 0.23559 0.90241 0.0
C322 C 0.37249 0.22611 0.93205 0.0
C323 C 0.36994 0.20446 0.93538 0.0
H324 H 0.79564 0.0947 0.88555 0.0
H325 H 0.85131 0.14239 0.94565 0.0
H326 H 0.84729 0.15813 0.84885 0.0
H327 H 0.88617 0.17335 0.85578 0.0
H328 H 0.92306 0.23885 0.90016 0.0
H329 H 0.86769 0.183 0.94699 0.0
C330 C 0.81212 0.11032 0.88848 0.0
C331 C 0.82063 0.1254 0.86359 0.0
C332 C 0.82288 0.11638 0.91815 0.0
C333 C 0.8433 0.13754 0.92259 0.0
C334 C 0.85285 0.15253 0.89731 0.0
C335 C 0.84105 0.14631 0.86809 0.0
C336 C 0.8742 0.17535 0.90083 0.0
C337 C 0.88886 0.18427 0.87547 0.0
C338 C 0.9059 0.20736 0.87421 0.0
C339 C 0.91033 0.22085 0.90073 0.0
C340 C 0.8974 0.21191 0.92754 0.0
C341 C 0.8788 0.18931 0.92725 0.0
H342 H 0.80923 0.69794 0.89252 0.0
H343 H 0.85997 0.69341 0.94852 0.0
H344 H 0.85234 0.67912 0.84932 0.0
H345 H 0.88837 0.69209 0.85128 0.0
H346 H 0.92865 0.66903 0.89769 0.0
H347 H 0.87932 0.67519 0.94959 0.0
C348 C 0.8239 0.69578 0.89413 0.0
C349 C 0.83059 0.68966 0.86743 0.0
C350 C 0.83396 0.69657 0.92341 0.0
C351 C 0.85226 0.69251 0.92577 0.0
C352 C 0.86014 0.68715 0.89884 0.0
C353 C 0.84829 0.68495 0.87005 0.0
C354 C 0.88003 0.68316 0.89999 0.0
C355 C 0.89195 0.6856 0.87238 0.0
C356 C 0.90866 0.67961 0.87124 0.0
C357 C 0.915 0.67275 0.89834 0.0
C358 C 0.9051 0.67192 0.92669 0.0
C359 C 0.88733 0.67674 0.92763 0.0
H360 H 0.90811 0.67129 0.44348 0.0
H361 H 0.85377 0.67169 0.39057 0.0
H362 H 0.86046 0.68229 0.49037 0.0
H363 H 0.82257 0.66461 0.48613 0.0
H364 H 0.78994 0.69947 0.44936 0.0
H365 H 0.83735 0.69323 0.39376 0.0
C366 C 0.89231 0.6715 0.44286 0.0
C367 C 0.88487 0.67595 0.47031 0.0
C368 C 0.88144 0.67038 0.41406 0.0
C369 C 0.86186 0.67235 0.41297 0.0
C370 C 0.85338 0.67584 0.44065 0.0
C371 C 0.86545 0.67798 0.46904 0.0
C372 C 0.83345 0.67943 0.44063 0.0
C373 C 0.82049 0.67434 0.46775 0.0
C374 C 0.80537 0.68218 0.4719 0.0
C375 C 0.8014 0.6931 0.44695 0.0
C376 C 0.81195 0.69598 0.41843 0.0
C377 C 0.82832 0.68958 0.41533 0.0
H378 H 0.32681 0.2339 0.4367 0.0
H379 H 0.33984 0.18916 0.38413 0.0
H380 H 0.32698 0.17876 0.48292 0.0
H381 H 0.35229 0.16845 0.48135 0.0
H382 H 0.34511 0.10897 0.43947 0.0
H383 H 0.32555 0.14986 0.38643 0.0
C384 C 0.32771 0.21861 0.43555 0.0
C385 C 0.32693 0.20725 0.463 0.0
C386 C 0.33186 0.21192 0.40699 0.0
C387 C 0.3354 0.19344 0.40595 0.0
C388 C 0.33377 0.18108 0.43338 0.0
C389 C 0.32878 0.18793 0.46152 0.0
C390 C 0.33832 0.16186 0.43371 0.0
C391 C 0.34723 0.15732 0.46125 0.0
C392 C 0.34911 0.13799 0.46383 0.0
C393 C 0.34421 0.12424 0.43758 0.0
C394 C 0.33632 0.12875 0.40947 0.0
C395 C 0.33284 0.14724 0.40769 0.0
H396 H 0.91438 0.26426 0.45013 0.0
H397 H 0.87295 0.20546 0.39265 0.0
H398 H 0.85336 0.20905 0.48659 0.0
H399 H 0.83999 0.1731 0.48611 0.0
H400 H 0.78709 0.11786 0.43274 0.0
H401 H 0.83543 0.17862 0.38566 0.0
C402 C 0.89857 0.24809 0.44638 0.0
C403 C 0.8844 0.23767 0.47148 0.0
C404 C 0.89432 0.2368 0.41773 0.0
C405 C 0.87523 0.21456 0.41417 0.0
C406 C 0.85994 0.20393 0.43882 0.0
C407 C 0.86457 0.21623 0.46711 0.0
C408 C 0.84021 0.17968 0.43629 0.0
C409 C 0.8317 0.16653 0.46359 0.0
C410 C 0.81233 0.14456 0.46252 0.0
C411 C 0.80209 0.13489 0.43373 0.0
C412 C 0.81061 0.14692 0.4061 0.0
C413 C 0.82953 0.16936 0.40723 0.0
H414 H 1.01732 0.45636 0.24101 0.0
H415 H 0.04309 0.52265 0.28065 0.0
H416 H 1.00535 0.50402 0.19215 0.0
H417 H 0.03254 0.54018 0.18212 0.0
H418 H 0.03735 0.60004 0.21864 0.0
H419 H 0.02623 0.54621 0.28125 0.0
C420 C 1.01898 0.47293 0.23981 0.0
C421 C 1.01053 0.47865 0.21346 0.0
C422 C 0.03035 0.48849 0.26419 0.0
C423 C 0.03335 0.51034 0.26236 0.0
C424 C 0.02438 0.51634 0.23625 0.0
C425 C 1.01245 0.49996 0.21237 0.0
C426 C 0.0286 0.53992 0.23229 0.0
C427 C 0.0319 0.54933 0.20206 0.0
C428 C 0.03494 0.57086 0.19718 0.0
C429 C 0.03505 0.58337 0.22257 0.0
C430 C 0.03192 0.5747 0.25284 0.0
C431 C 0.02896 0.55302 0.25786 0.0
H432 H 0.46286 0.43609 0.21574 0.0
H433 H 0.51737 0.48631 0.27445 0.0
H434 H 0.5149 0.49793 0.1755 0.0
H435 H 0.55327 0.51482 0.18281 0.0
H436 H 0.59757 0.57674 0.23253 0.0
H437 H 0.53514 0.52596 0.27385 0.0
C438 C 0.47912 0.452 0.21814 0.0
C439 C 0.48819 0.46575 0.19202 0.0
C440 C 0.4893 0.45941 0.24786 0.0
C441 C 0.50959 0.48073 0.25138 0.0
C442 C 0.5196 0.49468 0.22519 0.0
C443 C 0.50832 0.4871 0.19569 0.0
C444 C 0.5415 0.51722 0.22819 0.0
C445 C 0.55691 0.52521 0.20345 0.0
C446 C 0.57677 0.54688 0.20458 0.0
C447 C 0.58208 0.56006 0.23151 0.0
C448 C 0.56745 0.55251 0.25674 0.0
C449 C 0.5469 0.53126 0.25486 0.0
H450 H 0.46745 0.02906 0.22148 0.0
H451 H 0.52215 0.02716 0.27089 0.0
H452 H 0.51455 0.01995 0.17034 0.0
H453 H 0.55124 0.03554 0.17185 0.0
H454 H 0.59595 0.0153 0.21208 0.0
H455 H 0.54199 1.01023 0.26657 0.0
C456 C 0.48318 0.02872 0.22129 0.0
C457 C 0.49082 0.02603 0.19284 0.0
C458 C 0.49389 0.02823 0.24949 0.0
C459 C 0.51377 0.02687 0.24893 0.0
C460 C 0.52223 0.02463 0.22038 0.0
C461 C 0.50987 0.02341 0.19254 0.0
C462 C 0.54325 0.02276 0.21919 0.0
C463 C 0.55577 0.02854 0.19153 0.0
C464 C 0.57409 0.02502 0.18847 0.0
C465 C 0.58123 0.01728 0.21398 0.0
C466 C 0.5701 1.01259 0.24224 0.0
C467 C 0.55089 1.01491 0.24485 0.0
H468 H 0.57837 1.01137 0.75717 0.0
H469 H 0.52257 1.0079 0.7027 0.0
H470 H 0.5294 0.02172 0.80186 0.0
H471 H 0.49121 0.99696 0.79752 0.0
H472 H 0.44371 1.01407 0.75843 0.0
H473 H 0.50322 0.02929 0.70724 0.0
C474 C 0.56254 1.01154 0.75596 0.0
C475 C 0.55476 0.01615 0.78292 0.0
C476 C 0.55133 1.00888 0.727 0.0
C477 C 0.53132 1.01016 0.72507 0.0
C478 C 0.52256 1.0139 0.75237 0.0
C479 C 0.53505 0.01769 0.7809 0.0
C480 C 0.50018 1.01319 0.75227 0.0
C481 C 0.48626 1.00418 0.7785 0.0
C482 C 0.46639 1.00514 0.78122 0.0
C483 C 0.4593 1.01359 0.75651 0.0
C484 C 0.47208 0.02182 0.72956 0.0
C485 C 0.49284 0.02204 0.72753 0.0
H486 H 1.01512 0.57927 0.76915 0.0
H487 H 0.98871 0.51506 0.72227 0.0
H488 H 0.02119 0.52681 0.81413 0.0
H489 H 0.99027 0.49075 0.81903 0.0
H490 H 0.9897 0.43324 0.78123 0.0
H491 H 1.00633 0.49053 0.72229 0.0
C492 C 1.01242 0.56226 0.76867 0.0
C493 C 1.01887 0.5544 0.79476 0.0
C494 C 1.00201 0.54851 0.74225 0.0
C495 C 0.99764 0.52606 0.74213 0.0
C496 C 1.00444 0.51785 0.7682 0.0
C497 C 1.01564 0.53257 0.79399 0.0
C498 C 0.99888 0.49373 0.77023 0.0
C499 C 0.99243 0.48249 0.79919 0.0
C500 C 0.98976 0.46106 0.80337 0.0
C501 C 0.99185 0.4499 0.7779 0.0
C502 C 0.99722 0.46003 0.74844 0.0
C503 C 1.00117 0.48223 0.74466 0.0
H504 H 0.58411 0.58371 0.7924 0.0
H505 H 0.52828 0.53482 0.73434 0.0
H506 H 0.52866 0.5251 0.83415 0.0
H507 H 0.49095 0.50719 0.82651 0.0
H508 H 0.4456 0.44644 0.77506 0.0
H509 H 0.5086 0.49656 0.73479 0.0
C510 C 0.5672 0.56855 0.79022 0.0
C511 C 0.55696 0.5559 0.81684 0.0
C512 C 0.55718 0.56078 0.76052 0.0
C513 C 0.53594 0.54041 0.75745 0.0
C514 C 0.52495 0.52735 0.78395 0.0
C515 C 0.53597 0.53522 0.81355 0.0
C516 C 0.5026 0.50518 0.7808 0.0
C517 C 0.48714 0.49713 0.80552 0.0
C518 C 0.46699 0.47567 0.80389 0.0
C519 C 0.4613 0.46293 0.77644 0.0
C520 C 0.47596 0.47061 0.75125 0.0
C521 C 0.49685 0.49144 0.75375 0.0
H522 H 0.71371 0.80013 0.56886 0.0
H523 H 0.71578 0.857 0.61265 0.0
H524 H 0.71635 0.85188 0.5117 0.0
H525 H 0.70287 0.87238 0.50761 0.0
H526 H 0.71088 0.93379 0.54185 0.0
H527 H 0.71865 0.88985 0.6059 0.0
C528 C 0.71411 0.8161 0.56701 0.0
C529 C 0.7138 0.8246 0.53766 0.0
C530 C 0.71567 0.82813 0.59395 0.0
C531 C 0.71545 0.84854 0.59142 0.0
C532 C 0.71444 0.85735 0.56158 0.0
C533 C 0.71517 0.84553 0.53503 0.0
C534 C 0.71235 0.87825 0.55731 0.0
C535 C 0.70732 0.88366 0.52724 0.0
C536 C 0.70778 0.90394 0.52125 0.0
C537 C 0.71062 0.91807 0.54615 0.0
C538 C 0.71372 0.91257 0.57663 0.0
C539 C 0.7152 0.89306 0.58227 0.0
H540 H 0.13086 0.76409 0.54598 0.0
H541 H 0.18751 0.81516 0.60096 0.0
H542 H 0.18289 0.82358 0.50137 0.0
H543 H 0.22087 0.8415 0.50606 0.0
H544 H 0.26734 0.90378 0.55365 0.0
H545 H 0.20686 0.8538 0.59924 0.0
C546 C 0.14732 0.77987 0.54733 0.0
C547 C 0.15607 0.7926 0.52032 0.0
C548 C 0.15829 0.78815 0.57642 0.0
C549 C 0.17921 0.80899 0.57829 0.0
C550 C 0.18898 0.82181 0.55114 0.0
C551 C 0.17689 0.81344 0.52225 0.0
C552 C 0.21111 0.84427 0.55275 0.0
C553 C 0.2254 0.85199 0.52676 0.0
C554 C 0.24514 0.87371 0.5266 0.0
C555 C 0.25186 0.88708 0.55355 0.0
C556 C 0.2384 0.8798 0.57989 0.0
C557 C 0.21774 0.85866 0.57932 0.0
H558 H 0.13933 0.36481 0.56463 0.0
H559 H 0.17897 0.34261 0.61614 0.0
H560 H 0.20324 0.37957 0.52975 0.0
H561 H 0.21459 0.35706 0.52067 0.0
H562 H 0.26241 0.34243 0.56389 0.0
H563 H 0.21364 0.34621 0.62046 0.0
C564 C 0.15522 0.36491 0.56775 0.0
C565 C 0.17055 0.37239 0.5435 0.0
C566 C 0.1588 0.35533 0.59477 0.0
C567 C 0.17751 0.35185 0.59656 0.0
C568 C 0.19358 0.35964 0.5725 0.0
C569 C 0.19064 0.37168 0.54754 0.0
C570 C 0.21215 0.35384 0.57119 0.0
C571 C 0.22159 0.35439 0.54209 0.0
C572 C 0.24027 0.35145 0.53953 0.0
C573 C 0.2481 0.34504 0.56573 0.0
C574 C 0.23798 0.34233 0.59456 0.0
C575 C 0.22048 0.34737 0.59768 0.0
H576 H 0.96312 0.41561 0.0948 0.0
H577 H 0.02236 0.40861 0.10588 0.0
H578 H 0.03507 0.43309 0.15191 0.0
H579 H 0.03016 0.45736 0.18798 0.0
H580 H 0.97167 0.46544 0.17709 0.0
H581 H 0.95801 0.43988 0.13167 0.0
C582 C 0.97871 0.41929 0.10745 0.0
C583 C 0.99174 0.41022 0.09691 0.0
C584 C 0.98615 0.43371 0.13372 0.0
C585 C 1.01202 0.41536 0.1134 0.0
C586 C 1.01933 0.42938 0.13973 0.0
C587 C 1.01425 0.4533 0.17592 0.0
C588 C 1.00181 0.46308 0.18605 0.0
C589 C 1.00662 0.43875 0.14994 0.0
C590 C 0.98156 0.45814 0.16969 0.0
C591 C 0.97372 0.44348 0.14383 0.0
H592 H 0.63863 0.57381 0.08727 0.0
H593 H 0.64079 0.63714 0.10024 0.0
H594 H 0.61684 0.62139 0.14582 0.0
H595 H 0.59433 0.58921 0.18065 0.0
H596 H 0.59226 0.52602 0.16713 0.0
H597 H 0.61689 0.54211 0.12235 0.0
C598 C 0.63403 0.58431 0.10009 0.0
C599 C 0.64154 0.60668 0.09032 0.0
C600 C 0.62009 0.57508 0.12586 0.0
C601 C 0.63531 0.61992 0.10727 0.0
C602 C 0.62155 0.61089 0.13324 0.0
C603 C 0.59948 0.57904 0.1681 0.0
C604 C 0.59156 0.55646 0.17725 0.0
C605 C 0.61372 0.58844 0.14256 0.0
C606 C 0.59797 0.54334 0.16038 0.0
C607 C 0.61215 0.55259 0.13494 0.0
H608 H 0.4269 0.02475 0.08178 0.0
H609 H 0.42292 0.96109 0.06348 0.0
H610 H 0.44972 0.96815 0.10668 0.0
H611 H 0.47355 0.99165 0.15078 0.0
H612 H 0.47683 0.05453 0.1711 0.0
H613 H 0.45128 0.04864 0.12605 0.0
C614 C 0.43191 1.01245 0.08725 0.0
C615 C 0.42277 0.9924 0.06936 0.0
C616 C 0.44733 0.0165 0.11246 0.0
C617 C 0.42949 0.97663 0.07686 0.0
C618 C 0.44493 0.98066 0.10156 0.0
C619 C 0.46895 1.00423 0.14498 0.0
C620 C 0.47719 0.02358 0.16394 0.0
C621 C 0.4539 1.00047 0.11957 0.0
C622 C 0.47071 0.03952 0.15668 0.0
C623 C 0.45607 0.03613 0.13102 0.0
H624 H 0.41328 0.96476 0.90535 0.0
H625 H 0.41263 0.02727 0.90271 0.0
H626 H 0.43317 0.03756 0.8539 0.0
H627 H 0.45175 0.02902 0.81256 0.0
H628 H 0.45273 0.96676 0.81567 0.0
H629 H 0.43174 0.95622 0.86416 0.0
C630 C 0.41751 0.98061 0.89409 0.0
C631 C 0.41135 0.9952 0.90765 0.0
C632 C 0.42946 0.98649 0.86628 0.0
C633 C 0.41716 0.01573 0.8928 0.0
C634 C 0.4289 0.02163 0.86491 0.0
C635 C 0.44716 1.01303 0.82373 0.0
C636 C 0.45363 0.99859 0.81053 0.0
C637 C 0.43517 1.00715 0.85152 0.0
C638 C 0.44802 0.97818 0.82551 0.0
C639 C 0.43596 0.97212 0.85311 0.0
H640 H 0.96104 0.41537 0.9356 0.0
H641 H 1.01891 0.40732 0.92165 0.0
H642 H 0.02564 0.42671 0.87168 0.0
H643 H 1.01459 0.44512 0.8314 0.0
H644 H 0.95746 0.45415 0.84542 0.0
H645 H 0.95102 0.43537 0.89618 0.0
C646 C 0.97514 0.41786 0.92164 0.0
C647 C 0.98936 0.40975 0.93227 0.0
C648 C 0.97903 0.4292 0.89302 0.0
C649 C 1.00771 0.41337 0.91406 0.0
C650 C 1.01154 0.42442 0.88544 0.0
C651 C 1.00069 0.4429 0.84559 0.0
C652 C 0.98633 0.45072 0.83468 0.0
C653 C 0.99722 0.43224 0.87462 0.0
C654 C 0.96869 0.44822 0.85344 0.0
C655 C 0.96498 0.43743 0.88233 0.0
H656 H 0.61907 0.57416 0.93736 0.0
H657 H 0.63646 0.64314 0.91966 0.0
H658 H 0.60826 0.62983 0.87612 0.0
H659 H 0.58007 0.59869 0.84167 0.0
H660 H 0.56346 0.52997 0.8597 0.0
H661 H 0.58952 0.54306 0.90526 0.0
C662 C 0.61679 0.58636 0.92397 0.0
C663 C 0.63014 0.60968 0.93142 0.0
C664 C 0.60048 0.57858 0.89931 0.0
C665 C 0.62655 0.62514 0.91423 0.0
C666 C 0.61041 0.61752 0.8894 0.0
C667 C 0.58205 0.58657 0.85575 0.0
C668 C 0.56987 0.56338 0.84721 0.0
C669 C 0.59746 0.5943 0.88155 0.0
C670 C 0.57236 0.54784 0.86591 0.0
C671 C 0.58748 0.55536 0.89175 0.0
H672 H 0.07014 0.61638 0.91263 0.0
H673 H 1.01384 0.62815 0.90353 0.0
H674 H 0.9983 0.60231 0.85876 0.0
H675 H 1.00079 0.57661 0.82216 0.0
H676 H 0.05668 0.56436 0.83127 0.0
H677 H 0.07214 0.58991 0.87661 0.0
C678 C 0.05451 0.61338 0.9008 0.0
C679 C 0.04326 0.62434 0.91131 0.0
C680 C 0.04554 0.59831 0.87529 0.0
C681 C 0.02287 0.62001 0.89591 0.0
C682 C 1.01397 0.60522 0.87033 0.0
C683 C 1.01644 0.57963 0.834 0.0
C684 C 0.02774 0.56882 0.82325 0.0
C685 C 0.02519 0.59433 0.85982 0.0
C686 C 0.04768 0.57245 0.83919 0.0
C687 C 0.05656 0.58715 0.86495 0.0
H688 H 0.40641 0.4468 0.92279 0.0
H689 H 0.4044 0.38387 0.90652 0.0
H690 H 0.4278 0.40039 0.86064 0.0
H691 H 0.44969 0.43304 0.82634 0.0
H692 H 0.45186 0.49593 0.84315 0.0
H693 H 0.42771 0.4791 0.88829 0.0
C694 C 0.41091 0.43656 0.90917 0.0
C695 C 0.40359 0.41407 0.9181 0.0
C696 C 0.42455 0.44623 0.88319 0.0
C697 C 0.40975 0.40118 0.90017 0.0
C698 C 0.42317 0.41064 0.874 0.0
C699 C 0.44466 0.44299 0.83969 0.0
C700 C 0.45243 0.46567 0.83135 0.0
C701 C 0.43078 0.43319 0.86547 0.0
C702 C 0.44621 0.47851 0.84924 0.0
C703 C 0.43233 0.46885 0.8749 0.0
H704 H 0.61656 0.05168 0.90572 0.0
H705 H 0.62223 0.99301 0.88863 0.0
H706 H 0.59641 0.98321 0.84281 0.0
H707 H 0.57271 0.99174 0.8073 0.0
H708 H 0.56716 0.05036 0.82505 0.0
H709 H 0.59212 0.05947 0.87149 0.0
C710 C 0.61228 0.03678 0.89192 0.0
C711 C 0.62154 0.02323 0.90041 0.0
C712 C 0.59726 0.03113 0.86598 0.0
C713 C 0.61546 1.0038 0.88253 0.0
C714 C 0.60067 0.99817 0.85638 0.0
C715 C 0.57697 1.0065 0.82138 0.0
C716 C 0.56814 0.02039 0.8127 0.0
C717 C 0.59152 1.01176 0.84786 0.0
C718 C 0.57351 0.03926 0.8314 0.0
C719 C 0.58795 0.04459 0.85778 0.0
H720 H 0.62517 0.05649 0.06176 0.0
H721 H 0.6225 0.99253 0.07131 0.0
H722 H 0.60211 0.98531 0.11997 0.0
H723 H 0.58536 0.9974 0.15975 0.0
H724 H 0.5887 0.06161 0.15007 0.0
H725 H 0.60838 0.06839 0.10097 0.0
C726 C 0.62016 0.04093 0.0744 0.0
C727 C 0.62542 0.02509 0.06295 0.0
C728 C 0.60853 0.03693 0.10219 0.0
C729 C 0.61868 1.00501 0.07963 0.0
C730 C 0.60704 1.00088 0.10743 0.0
C731 C 0.59055 1.01295 0.14696 0.0
C732 C 0.58568 0.02904 0.15849 0.0
C733 C 0.60197 0.01678 0.11894 0.0
C734 C 0.5921 0.04891 0.14149 0.0
C735 C 0.60344 0.05283 0.11356 0.0
H736 H 0.02685 0.60406 0.06217 0.0
H737 H 0.09129 0.66215 0.09276 0.0
H738 H 0.08926 0.64384 0.1427 0.0
H739 H 0.06914 0.6114 0.17766 0.0
H740 H 1.00595 0.55207 0.14657 0.0
H741 H 1.00765 0.57039 0.09648 0.0
C742 C 0.04026 0.61267 0.07999 0.0
C743 C 0.059 0.63448 0.07427 0.0
C744 C 0.03937 0.60167 0.10821 0.0
C745 C 0.07664 0.6454 0.09699 0.0
C746 C 0.07553 0.63492 0.12541 0.0
C747 C 0.05588 0.60247 0.15974 0.0
C748 C 0.03745 0.58052 0.16559 0.0
C749 C 0.05704 0.61305 0.13121 0.0
C750 C 1.02039 0.56894 0.1423 0.0
C751 C 0.02126 0.57948 0.11386 0.0
H752 H 0.42379 0.44613 0.07343 0.0
H753 H 0.41254 0.37875 0.0863 0.0
H754 H 0.44093 0.39275 0.1295 0.0
H755 H 0.46774 0.42384 0.16487 0.0
H756 H 0.47839 0.49097 0.15201 0.0
H757 H 0.45192 0.47746 0.10683 0.0
C758 C 0.42747 0.43444 0.08571 0.0
C759 C 0.41581 0.41134 0.07692 0.0
C760 C 0.44391 0.44263 0.11023 0.0
C761 C 0.42113 0.39657 0.09273 0.0
C762 C 0.4374 0.40457 0.11738 0.0
C763 C 0.46436 0.43553 0.15202 0.0
C764 C 0.47497 0.45837 0.16188 0.0
C765 C 0.44874 0.42753 0.12647 0.0
C766 C 0.47069 0.4734 0.14475 0.0
C767 C 0.45534 0.46561 0.11913 0.0
H768 H 0.71 0.77653 0.41085 0.0
H769 H 0.64514 0.7256 0.44739 0.0
H770 H 0.65342 0.7479 0.49519 0.0
H771 H 0.67819 0.78265 0.52546 0.0
H772 H 0.7414 0.83548 0.48753 0.0
H773 H 0.73477 0.81188 0.44122 0.0
C774 C 0.6979 0.77027 0.42953 0.0
C775 C 0.67711 0.74943 0.42593 0.0
C776 C 0.7024 0.78364 0.45643 0.0
C777 C 0.66126 0.74161 0.44985 0.0
C778 C 0.66597 0.75435 0.47708 0.0
C779 C 0.69055 0.78886 0.50708 0.0
C780 C 0.71028 0.81059 0.50975 0.0
C781 C 0.68632 0.77549 0.48044 0.0
C782 C 0.72608 0.81875 0.48576 0.0
C783 C 0.72231 0.80526 0.45943 0.0
H784 H 0.29896 0.90277 0.40149 0.0
H785 H 0.29839 0.96416 0.41987 0.0
H786 H 0.27724 0.94733 0.46726 0.0
H787 H 0.25881 0.91524 0.50309 0.0
H788 H 0.25941 0.85393 0.48502 0.0
H789 H 0.28049 0.87065 0.43734 0.0
C790 C 0.29427 0.91254 0.41584 0.0
C791 C 0.30032 0.93474 0.40716 0.0
C792 C 0.28207 0.90275 0.44294 0.0
C793 C 0.29398 0.94706 0.42601 0.0
C794 C 0.28189 0.93746 0.45309 0.0
C795 C 0.26379 0.90563 0.48888 0.0
C796 C 0.25781 0.88349 0.49765 0.0
C797 C 0.27589 0.91535 0.46175 0.0
C798 C 0.26381 0.87098 0.47866 0.0
C799 C 0.27591 0.88057 0.45154 0.0
H800 H 0.12628 0.35624 0.40957 0.0
H801 H 0.09429 0.38999 0.44899 0.0
H802 H 0.11916 0.39945 0.49602 0.0
H803 H 0.14648 0.39353 0.52817 0.0
H804 H 0.17704 0.35847 0.48764 0.0
H805 H 0.15702 0.35505 0.43844 0.0
C806 C 0.12497 0.36593 0.42832 0.0
C807 C 0.10825 0.37204 0.42624 0.0
C808 C 0.13919 0.3712 0.45503 0.0
C809 C 0.10699 0.38501 0.45026 0.0
C810 C 0.12114 0.39032 0.47714 0.0
C811 C 0.14903 0.38545 0.50843 0.0
C812 C 0.16309 0.37602 0.51199 0.0
C813 C 0.1368 0.38283 0.48017 0.0
C814 C 0.16656 0.36609 0.48583 0.0
C815 C 0.15483 0.3638 0.45765 0.0
H816 H 0.08987 0.32219 0.26837 0.0
H817 H 0.09035 0.38476 0.25432 0.0
H818 H 0.10748 0.38929 0.2035 0.0
H819 H 0.12285 0.37571 0.16363 0.0
H820 H 0.12223 0.31317 0.17825 0.0
H821 H 0.10472 0.3085 0.22871 0.0
C822 C 0.09364 0.33684 0.25425 0.0
C823 C 0.08881 0.35312 0.26517 0.0
C824 C 0.10353 0.33937 0.22529 0.0
C825 C 0.09389 0.37198 0.2465 0.0
C826 C 0.10368 0.37458 0.21746 0.0
C827 C 0.11867 0.36095 0.17777 0.0
C828 C 0.12378 0.34477 0.16728 0.0
C829 C 0.10861 0.35839 0.20669 0.0
C830 C 0.11864 0.32593 0.18599 0.0
C831 C 0.10855 0.32322 0.21473 0.0
H832 H 0.65589 0.76581 0.26819 0.0
H833 H 0.70384 0.7448 0.24795 0.0
H834 H 0.71187 0.7646 0.19803 0.0
H835 H 0.70325 0.78577 0.15866 0.0
H836 H 0.65516 0.8065 0.17947 0.0
H837 H 0.64962 0.78938 0.2309 0.0
C838 C 0.66817 0.76563 0.25292 0.0
C839 C 0.67901 0.75361 0.26156 0.0
C840 C 0.67277 0.7771 0.22441 0.0
C841 C 0.69518 0.75387 0.24177 0.0
C842 C 0.69975 0.76515 0.2132 0.0
C843 C 0.69171 0.78666 0.17459 0.0
C844 C 0.67957 0.7973 0.16519 0.0
C845 C 0.68836 0.77651 0.20406 0.0
C846 C 0.6649 0.79862 0.18622 0.0
C847 C 0.66154 0.78864 0.21554 0.0
H848 H 0.26994 0.9485 0.26257 0.0
H849 H 0.32035 0.9382 0.22 0.0
H850 H 0.29642 0.92411 0.17244 0.0
H851 H 0.26111 0.9143 0.14322 0.0
H852 H 0.20919 0.92202 0.18592 0.0
H853 H 0.23347 0.93714 0.23354 0.0
C854 C 0.27568 0.94336 0.2427 0.0
C855 C 0.29692 0.94458 0.24448 0.0
C856 C 0.26146 0.93455 0.21577 0.0
C857 C 0.30408 0.93746 0.21897 0.0
C858 C 0.2904 0.92935 0.19187 0.0
C859 C 0.25515 0.91927 0.16305 0.0
C860 C 0.23359 0.91725 0.16125 0.0
C861 C 0.26904 0.9277 0.1901 0.0
C862 C 0.22577 0.92341 0.18703 0.0
C863 C 0.23969 0.93217 0.21406 0.0
H864 H 0.67244 0.92548 0.24542 0.0
H865 H 0.72729 0.98359 0.20016 0.0
H866 H 0.71855 0.96178 0.15178 0.0
H867 H 0.69786 0.92555 0.12413 0.0
H868 H 0.64441 0.86621 0.16934 0.0
H869 H 0.6502 0.88893 0.21625 0.0
C870 C 0.68204 0.93337 0.22465 0.0
C871 C 0.70023 0.95611 0.22591 0.0
C872 C 0.67746 0.92041 0.19726 0.0
C873 C 0.71306 0.96616 0.19936 0.0
C874 C 0.70817 0.95367 0.17186 0.0
C875 C 0.68714 0.91764 0.14401 0.0
C876 C 0.67063 0.89426 0.14319 0.0
C877 C 0.69077 0.93068 0.17078 0.0
C878 C 0.6573 0.88415 0.16946 0.0
C879 C 0.66056 0.89716 0.1962 0.0
H880 H 0.07859 0.80772 0.25392 0.0
H881 H 0.07186 0.7432 0.23268 0.0
H882 H 0.09194 0.75875 0.18417 0.0
H883 H 0.11161 0.79065 0.14821 0.0
H884 H 0.11797 0.85499 0.16904 0.0
H885 H 0.09799 0.83952 0.21776 0.0
C886 C 0.08147 0.79699 0.23873 0.0
C887 C 0.07369 0.77427 0.24698 0.0
C888 C 0.093 0.80602 0.21092 0.0
C889 C 0.07763 0.7607 0.22695 0.0
C890 C 0.08911 0.76958 0.1992 0.0
C891 C 0.10836 0.80122 0.16321 0.0
C892 C 0.11607 0.82389 0.1549 0.0
C893 C 0.09683 0.79219 0.19098 0.0
C894 C 0.11227 0.83753 0.17497 0.0
C895 C 0.10079 0.82866 0.20273 0.0
H896 H 0.28356 0.38974 0.257 0.0
H897 H 0.28983 0.33143 0.23984 0.0
H898 H 0.26381 0.3213 0.19426 0.0
H899 H 0.23959 0.3293 0.15906 0.0
H900 H 0.23366 0.38774 0.17655 0.0
H901 H 0.25893 0.39726 0.2227 0.0
C902 C 0.27934 0.37484 0.24328 0.0
C903 C 0.2888 0.36146 0.25174 0.0
C904 C 0.26425 0.36902 0.21735 0.0
C905 C 0.28288 0.34207 0.23383 0.0
C906 C 0.26797 0.33626 0.20779 0.0
C907 C 0.24386 0.34413 0.17299 0.0
C908 C 0.23474 0.35779 0.16437 0.0
C909 C 0.25861 0.34965 0.19931 0.0
C910 C 0.24018 0.37678 0.18287 0.0
C911 C 0.25479 0.38235 0.2091 0.0
H912 H 0.29259 0.38982 0.41489 0.0
H913 H 0.29769 0.32986 0.42167 0.0
H914 H 0.27654 0.31939 0.47011 0.0
H915 H 0.25642 0.32742 0.51041 0.0
H916 H 0.25192 0.38769 0.50232 0.0
H917 H 0.27281 0.3977 0.45417 0.0
C918 C 0.28918 0.37446 0.42692 0.0
C919 C 0.2968 0.3607 0.41471 0.0
C920 C 0.27696 0.36851 0.4544 0.0
C921 C 0.29205 0.34079 0.43059 0.0
C922 C 0.27994 0.33479 0.45826 0.0
C923 C 0.26011 0.34276 0.4981 0.0
C924 C 0.25249 0.3567 0.5098 0.0
C925 C 0.2723 0.34854 0.47037 0.0
C926 C 0.25724 0.37646 0.49352 0.0
C927 C 0.26933 0.3823 0.46611 0.0
H928 H 0.72645 0.93922 0.38326 0.0
H929 H 0.68131 0.96302 0.40693 0.0
H930 H 0.67517 0.94463 0.45783 0.0
H931 H 0.68478 0.9239 0.49687 0.0
H932 H 0.73058 0.90101 0.47249 0.0
H933 H 0.73392 0.91658 0.42042 0.0
C934 C 0.71516 0.94032 0.39945 0.0
C935 C 0.7046 0.95272 0.39146 0.0
C936 C 0.71178 0.92981 0.42856 0.0
C937 C 0.68974 0.95365 0.41256 0.0
C938 C 0.68627 0.94319 0.44169 0.0
C939 C 0.69541 0.92226 0.48009 0.0
C940 C 0.70746 0.91135 0.48865 0.0
C941 C 0.69755 0.93158 0.45017 0.0
C942 C 0.7209 0.90907 0.46647 0.0
C943 C 0.723 0.91815 0.43673 0.0
H944 H 0.10691 0.7618 0.38688 0.0
H945 H 0.05087 0.75542 0.43887 0.0
H946 H 0.07455 0.76644 0.48687 0.0
H947 H 0.11158 0.77979 0.51336 0.0
H948 H 0.16889 0.78881 0.46177 0.0
H949 H 0.14459 0.77534 0.41402 0.0
C950 C 0.09991 0.76247 0.40891 0.0
C951 C 0.07718 0.75749 0.40974 0.0
C952 C 0.11394 0.76967 0.4362 0.0
C953 C 0.06828 0.75895 0.43802 0.0
C954 C 0.08183 0.76537 0.46533 0.0
C955 C 0.11869 0.77859 0.4917 0.0
C956 C 0.14189 0.78505 0.49104 0.0
C957 C 0.10474 0.77107 0.46459 0.0
C958 C 0.15106 0.78395 0.46274 0.0
C959 C 0.13715 0.77614 0.43555 0.0
H960 H 0.3035 0.07701 0.76025 0.0
H961 H 0.36227 0.06895 0.76206 0.0
H962 H 0.376 0.09045 0.81104 0.0
H963 H 0.37192 0.11263 0.85224 0.0
H964 H 0.31369 0.12149 0.84931 0.0
H965 H 0.29919 0.09868 0.80147 0.0
C966 C 0.31924 0.07976 0.77141 0.0
C967 C 0.33181 0.07129 0.7575 0.0
C968 C 0.32719 0.09242 0.79919 0.0
C969 C 0.35226 0.07524 0.77224 0.0
C970 C 0.36012 0.08756 0.80021 0.0
C971 C 0.35592 0.10935 0.84128 0.0
C972 C 0.34381 0.11864 0.85431 0.0
C973 C 0.34781 0.09637 0.81373 0.0
C974 C 0.32336 0.11463 0.83959 0.0
C975 C 0.31504 0.10153 0.81235 0.0
H976 H 0.93641 0.24173 0.73713 0.0
H977 H 0.99725 0.29286 0.78622 0.0
H978 H 0.98066 0.2751 0.83626 0.0
H979 H 0.94942 0.24387 0.86519 0.0
H980 H 0.8871 0.19517 0.81511 0.0
H981 H 0.90411 0.21263 0.76618 0.0
C982 C 0.94581 0.24912 0.75892 0.0
C983 C 0.96779 0.26852 0.75842 0.0
C984 C 0.93616 0.23892 0.78722 0.0
C985 C 0.9801 0.27804 0.78643 0.0
C986 C 0.97071 0.26777 0.81486 0.0
C987 C 0.93936 0.23718 0.84372 0.0
C988 C 0.91704 0.21784 0.84422 0.0
C989 C 0.94882 0.24802 0.81547 0.0
C990 C 0.90458 0.20942 0.81578 0.0
C991 C 0.91414 0.21965 0.78763 0.0
H992 H 0.76569 0.65494 0.74754 0.0
H993 H 0.76524 0.71666 0.76301 0.0
H994 H 0.79279 0.72649 0.80686 0.0
H995 H 0.81572 0.71659 0.84199 0.0
H996 H 0.81499 0.65426 0.82632 0.0
H997 H 0.78956 0.64594 0.78075 0.0
C998 C 0.77154 0.67058 0.76045 0.0
C999 C 0.76316 0.68491 0.75219 0.0
C1000 C 0.78734 0.6761 0.7854 0.0
C1001 C 0.77129 0.70526 0.76895 0.0
C1002 C 0.78705 0.71088 0.794 0.0
C1003 C 0.81005 0.70122 0.82851 0.0
C1004 C 0.8173 0.68608 0.83763 0.0
C1005 C 0.79501 0.69629 0.80261 0.0
C1006 C 0.81002 0.6664 0.81966 0.0
C1007 C 0.79525 0.66149 0.79377 0.0
H1008 H 0.7748 0.67574 0.61124 0.0
H1009 H 0.71824 0.67672 0.56533 0.0
H1010 H 0.7345 0.6786 0.51432 0.0
H1011 H 0.76376 0.67792 0.48342 0.0
H1012 H 0.82305 0.68226 0.53044 0.0
H1013 H 0.80618 0.67929 0.58045 0.0
C1014 C 0.76628 0.67669 0.58998 0.0
C1015 C 0.74551 0.67616 0.59165 0.0
C1016 C 0.7759 0.67814 0.56108 0.0
C1017 C 0.73442 0.67737 0.5643 0.0
C1018 C 0.74361 0.67824 0.53528 0.0
C1019 C 0.77339 0.67875 0.50444 0.0
C1020 C 0.79469 0.68006 0.50262 0.0
C1021 C 0.76424 0.67839 0.53342 0.0
C1022 C 0.80634 0.68048 0.53058 0.0
C1023 C 0.79688 0.67916 0.55941 0.0
H1024 H 0.35558 0.08209 0.57693 0.0
H1025 H 0.3083 0.0996 0.61333 0.0
H1026 H 0.31437 0.12429 0.56921 0.0
H1027 H 0.32925 0.13734 0.51755 0.0
H1028 H 0.3756 0.1195 0.47913 0.0
H1029 H 0.37393 0.0988 0.52675 0.0
C1030 C 0.34688 0.09157 0.57536 0.0
C1031 C 0.33122 0.08865 0.59819 0.0
C1032 C 0.35016 0.10562 0.54945 0.0
C1033 C 0.32015 0.10115 0.59587 0.0
C1034 C 0.32363 0.11538 0.57065 0.0
C1035 C 0.33957 0.12954 0.5199 0.0
C1036 C 0.35243 0.1299 0.49474 0.0
C1037 C 0.33809 0.11726 0.54691 0.0
C1038 C 0.36537 0.11931 0.49807 0.0
C1039 C 0.36437 0.10741 0.52526 0.0
H1040 H 0.94714 0.2949 0.58561 0.0
H1041 H 0.93471 0.22847 0.61047 0.0
H1042 H 0.90626 0.21125 0.56823 0.0
H1043 H 0.88836 0.2153 0.52065 0.0
H1044 H 0.90211 0.28146 0.49249 0.0
H1045 H 0.92607 0.29843 0.53976 0.0
C1046 C 0.93799 0.27665 0.58194 0.0
C1047 C 0.94336 0.26309 0.60089 0.0
C1048 C 0.9218 0.26675 0.557 0.0
C1049 C 0.93127 0.23942 0.59591 0.0
C1050 C 0.91487 0.22948 0.57182 0.0
C1051 C 0.89594 0.23331 0.52538 0.0
C1052 C 0.89339 0.24708 0.50323 0.0
C1053 C 0.91043 0.24301 0.55176 0.0
C1054 C 0.90378 0.2705 0.50932 0.0
C1055 C 0.91765 0.28022 0.53619 0.0
H1056 H 0.33371 0.26891 0.57583 0.0
H1057 H 0.39171 0.26151 0.59851 0.0
H1058 H 0.38123 0.23491 0.55561 0.0
H1059 H 0.35759 0.21583 0.50953 0.0
H1060 H 0.3009 0.2243 0.48351 0.0
H1061 H 0.30864 0.24809 0.52991 0.0
C1062 C 0.34394 0.26137 0.57141 0.0
C1063 C 0.36361 0.26743 0.59021 0.0
C1064 C 0.33802 0.24619 0.54615 0.0
C1065 C 0.37668 0.25746 0.5842 0.0
C1066 C 0.37066 0.24211 0.55972 0.0
C1067 C 0.34654 0.22239 0.51443 0.0
C1068 C 0.32858 0.21815 0.49339 0.0
C1069 C 0.35159 0.23659 0.54034 0.0
C1070 C 0.31478 0.22728 0.49956 0.0
C1071 C 0.31929 0.24096 0.52595 0.0
H1072 H 0.75276 0.07817 0.56929 0.0
H1073 H 0.75977 0.14073 0.60226 0.0
H1074 H 0.78488 0.16146 0.56 0.0
H1075 H 0.80309 0.16185 0.51202 0.0
H1076 H 0.796 0.09986 0.47721 0.0
H1077 H 0.7729 0.079 0.52185 0.0
C1078 C 0.75984 0.09633 0.56724 0.0
C1079 C 0.75415 0.10774 0.58884 0.0
C1080 C 0.77433 0.10833 0.54257 0.0
C1081 C 0.76361 0.13136 0.5859 0.0
C1082 C 0.77808 0.14334 0.56175 0.0
C1083 C 0.79693 0.14387 0.51457 0.0
C1084 C 0.80126 0.13242 0.49148 0.0
C1085 C 0.78336 0.13199 0.53981 0.0
C1086 C 0.79277 0.10902 0.49472 0.0
C1087 C 0.77953 0.09709 0.52017 0.0
H1088 H 0.95035 0.71917 0.58812 0.0
H1089 H 0.95852 0.66148 0.57656 0.0
H1090 H 0.93095 0.64823 0.53218 0.0
H1091 H 0.90521 0.65382 0.49596 0.0
H1092 H 0.89775 0.71186 0.50901 0.0
H1093 H 0.92412 0.72396 0.55397 0.0
C1094 C 0.94623 0.70371 0.57589 0.0
C1095 C 0.9567 0.69148 0.58538 0.0
C1096 C 0.93031 0.69615 0.55087 0.0
C1097 C 0.95078 0.67127 0.56959 0.0
C1098 C 0.93503 0.6637 0.54426 0.0
C1099 C 0.90931 0.66904 0.5088 0.0
C1100 C 0.89937 0.68181 0.49927 0.0
C1101 C 0.92477 0.6761 0.5346 0.0
C1102 C 0.90476 0.70146 0.51617 0.0
C1103 C 0.92004 0.70854 0.54171 0.0
H1104 H 0.9593 0.67369 0.75422 0.0
H1105 H 0.97313 0.74219 0.74298 0.0
H1106 H 0.95155 0.73821 0.7889 0.0
H1107 H 0.92883 0.71561 0.8326 0.0
H1108 H 0.9151 0.64742 0.84516 0.0
H1109 H 0.93644 0.65093 0.79851 0.0
C1110 C 0.95767 0.68775 0.76192 0.0
C1111 C 0.96783 0.70816 0.74507 0.0
C1112 C 0.94512 0.68541 0.78854 0.0
C1113 C 0.96549 0.72622 0.75538 0.0
C1114 C 0.95309 0.72401 0.78168 0.0
C1115 C 0.9303 0.70145 0.82485 0.0
C1116 C 0.92036 0.68129 0.84203 0.0
C1117 C 0.94276 0.70368 0.79835 0.0
C1118 C 0.9227 0.66316 0.83218 0.0
C1119 C 0.93489 0.66515 0.80558 0.0
H1120 H 0.39863 0.26958 0.74337 0.0
H1121 H 0.34356 0.28056 0.76432 0.0
H1122 H 0.33837 0.26091 0.81409 0.0
H1123 H 0.35026 0.24149 0.85208 0.0
H1124 H 0.40495 0.23021 0.83029 0.0
H1125 H 0.40939 0.24898 0.78004 0.0
C1126 C 0.38548 0.26774 0.7588 0.0
C1127 C 0.37164 0.27673 0.75029 0.0
C1128 C 0.38252 0.25633 0.78711 0.0
C1129 C 0.35446 0.27384 0.77035 0.0
C1130 C 0.35153 0.26265 0.79881 0.0
C1131 C 0.36317 0.2432 0.83629 0.0
C1132 C 0.37739 0.23465 0.84488 0.0
C1133 C 0.36558 0.25398 0.80749 0.0
C1134 C 0.39377 0.23658 0.82408 0.0
C1135 C 0.39637 0.2474 0.79547 0.0
H1136 H 0.75775 0.11878 0.74874 0.0
H1137 H 0.74367 0.04994 0.74625 0.0
H1138 H 0.77023 0.05831 0.79096 0.0
H1139 H 0.79746 0.08544 0.83075 0.0
H1140 H 0.81124 0.15423 0.83176 0.0
H1141 H 0.78515 0.14572 0.78701 0.0
C1142 C 0.76029 0.10548 0.75806 0.0
C1143 C 0.74853 0.08368 0.74439 0.0
C1144 C 0.77582 0.11053 0.78317 0.0
C1145 C 0.7524 0.06682 0.75648 0.0
C1146 C 0.76763 0.07163 0.78195 0.0
C1147 C 0.79478 0.09856 0.82105 0.0
C1148 C 0.80643 0.12049 0.83447 0.0
C1149 C 0.77948 0.09347 0.79543 0.0
C1150 C 0.80289 0.13736 0.82156 0.0
C1151 C 0.78776 0.13243 0.79618 0.0
H1152 H 0.06003 0.34706 -0.00907 0.0
H1153 H 0.07385 0.40732 0.04082 0.0
H1154 H 0.10888 0.41123 0.06361 0.0
H1155 H 0.13171 0.3939 0.07644 0.0
H1156 H 0.11691 0.33242 0.02985 0.0
H1157 H 0.08678 0.33303 -0.00217 0.0
C1158 C 0.07093 0.3613 0.0063 0.0
C1159 C 0.064 0.3766 0.01463 0.0
C1160 C 0.09097 0.36324 0.01988 0.0
C1161 C 0.07849 0.39506 0.03438 0.0
C1162 C 0.0986 0.39735 0.04742 0.0
C1163 C 0.12248 0.38119 0.05833 0.0
C1164 C 0.12644 0.36316 0.0554 0.0
C1165 C 0.10451 0.38107 0.0413 0.0
C1166 C 0.1143 0.3466 0.0322 0.0
C1167 C 0.09681 0.34675 0.01432 0.0
H1168 H 0.69198 0.72612 0.01189 0.0
H1169 H 0.62051 0.6823 0.03253 0.0
H1170 H 0.61821 0.71508 0.0475 0.0
H1171 H 0.63763 0.75559 0.06152 0.0
H1172 H 0.70896 0.79969 0.04206 0.0
H1173 H 0.71005 0.76779 0.019 0.0
C1174 C 0.67585 0.72379 0.01932 0.0
C1175 C 0.65657 0.70164 0.02153 0.0
C1176 C 0.67455 0.74288 0.02786 0.0
C1177 C 0.63573 0.69903 0.03082 0.0
C1178 C 0.63434 0.71782 0.03939 0.0
C1179 C 0.65309 0.75835 0.05087 0.0
C1180 C 0.67306 0.78 0.05287 0.0
C1181 C 0.65375 0.73976 0.03875 0.0
C1182 C 0.69323 0.78329 0.04 0.0
C1183 C 0.69395 0.76494 0.02737 0.0
H1184 H 0.30907 0.97724 0.00862 0.0
H1185 H 0.30344 0.9127 -0.0085 0.0
H1186 H 0.26382 0.8927 0.00738 0.0
H1187 H 0.23368 0.89352 0.03584 0.0
H1188 H 0.23979 0.95768 0.0559 0.0
H1189 H 0.27572 0.97776 0.02811 0.0
C1190 C 0.29904 0.95882 0.00776 0.0
C1191 C 0.30948 0.94655 -0.00032 0.0
C1192 C 0.2762 0.94729 0.01739 0.0
C1193 C 0.29607 0.92265 -0.00175 0.0
C1194 C 0.27332 0.91112 0.00727 0.0
C1195 C 0.24231 0.91179 0.03272 0.0
C1196 C 0.23423 0.92415 0.04785 0.0
C1197 C 0.26354 0.92324 0.01819 0.0
C1198 C 0.24571 0.94786 0.04418 0.0
C1199 C 0.26645 0.95935 0.02878 0.0
H1200 H 0.40501 0.07781 -0.01271 0.0
H1201 H 0.33817 0.04519 0.02748 0.0
H1202 H 0.33423 0.07743 0.01299 0.0
H1203 H 0.3469 0.11159 0.9809 0.0
H1204 H 0.41321 0.14397 0.93993 0.0
H1205 H 0.42065 0.11573 0.96355 0.0
C1206 C 0.38977 0.07795 -0.00664 0.0
C1207 C 0.37173 0.05886 0.00789 0.0
C1208 C 0.38759 0.09664 0.98496 0.0
C1209 C 0.35225 0.0595 0.01605 0.0
C1210 C 0.34995 0.07796 0.00774 0.0
C1211 C 0.36343 0.11309 0.97858 0.0
C1212 C 0.37964 0.12997 0.95914 0.0
C1213 C 0.36715 0.09625 -0.00877 0.0
C1214 C 0.40074 0.13142 0.95542 0.0
C1215 C 0.40477 0.11498 0.96841 0.0
H1216 H 0.91356 0.29588 0.00281 0.0
H1217 H 0.9824 0.30798 0.00633 0.0
H1218 H 0.96823 0.26983 -0.01376 0.0
H1219 H 0.9376 0.23591 0.9593 0.0
H1220 H 0.8692 0.22431 0.95288 0.0
H1221 H 0.88167 0.259 0.98329 0.0
C1222 C 0.92542 0.29003 -0.00019 0.0
C1223 C 0.94911 0.30503 0.00547 0.0
C1224 C 0.9172 0.26813 -0.01237 0.0
C1225 C 0.96415 0.297 0.00176 0.0
C1226 C 0.95607 0.27515 -0.00978 0.0
C1227 C 0.92531 0.24064 0.96554 0.0
C1228 C 0.90259 0.22776 0.95386 0.0
C1229 C 0.93282 0.26097 0.98188 0.0
C1230 C 0.88673 0.23392 0.96188 0.0
C1231 C 0.89395 0.25392 0.97887 0.0
H1232 H 0.75271 0.69212 -0.01259 0.0
H1233 H 0.74395 0.62772 0.01591 0.0
H1234 H 0.78255 0.6399 0.00043 0.0
H1235 H 0.81506 0.66516 0.9684 0.0
H1236 H 0.82384 0.72898 0.93789 0.0
H1237 H 0.78973 0.72123 0.96552 0.0
C1238 C 0.75949 0.68103 -0.00901 0.0
C1239 C 0.74514 0.65879 0.00188 0.0
C1240 C 0.78183 0.68803 0.98155 0.0
C1241 C 0.75434 0.64472 0.00675 0.0
C1242 C 0.77652 0.65168 -0.00202 0.0
C1243 C 0.81019 0.67788 0.96918 0.0
C1244 C 0.82173 0.69743 0.95086 0.0
C1245 C 0.78996 0.6728 0.98388 0.0
C1246 C 0.81513 0.71374 0.95185 0.0
C1247 C 0.79538 0.70912 0.9672 0.0
H1248 H 0.96844 0.6442 -0.0094 0.0
H1249 H 1.00713 0.71613 0.01089 0.0
H1250 H 0.97419 0.71924 -0.00488 0.0
H1251 H 0.93699 0.70282 0.96664 0.0
H1252 H 0.89855 0.63125 0.94544 0.0
H1253 H 0.92818 0.62646 0.97159 0.0
C1254 C 0.96951 0.66047 -0.00791 0.0
C1255 C 0.99042 0.67997 0.0013 0.0
C1256 C 0.95039 0.66216 0.98304 0.0
C1257 C 0.99137 0.70085 0.00361 0.0
C1258 C 0.9725 0.70268 -0.00543 0.0
C1259 C 0.93455 0.686 0.96934 0.0
C1260 C 0.91553 0.66738 0.95446 0.0
C1261 C 0.9522 0.68361 0.98318 0.0
C1262 C 0.91283 0.64573 0.95729 0.0
C1263 C 0.93004 0.64311 0.97164 0.0
H1264 H 0.39068 0.3132 -0.00116 0.0
H1265 H 0.31678 0.27698 -0.00615 0.0
H1266 H 0.31561 0.2425 0.97744 0.0
H1267 H 0.33579 0.22439 0.95697 0.0
H1268 H 0.4095 0.26031 0.96221 0.0
H1269 H 0.41062 0.29276 -0.01294 0.0
C1270 C 0.37434 0.29766 -0.00547 0.0
C1271 C 0.35387 0.29779 -0.00302 0.0
C1272 C 0.37376 0.27772 -0.01454 0.0
C1273 C 0.3328 0.27742 -0.00809 0.0
C1274 C 0.3321 0.25765 0.98251 0.0
C1275 C 0.35199 0.23888 0.96506 0.0
C1276 C 0.37252 0.23987 0.95829 0.0
C1277 C 0.35248 0.25776 0.97838 0.0
C1278 C 0.39349 0.259 0.96791 0.0
C1279 C 0.39413 0.27773 0.98153 0.0
H1280 H 0.7334 0.04303 0.97109 0.0
H1281 H 0.7351 0.1031 0.0037 0.0
H1282 H 0.77589 0.12599 -0.00569 0.0
H1283 H 0.80794 0.13032 0.96491 0.0
H1284 H 0.80575 0.07115 0.9283 0.0
H1285 H 0.76894 0.04647 0.95246 0.0
C1286 C 0.74285 0.061 0.97691 0.0
C1287 C 0.73108 0.07147 -0.01298 0.0
C1288 C 0.76634 0.07429 0.9707 0.0
C1289 C 0.74362 0.09472 -0.00503 0.0
C1290 C 0.76701 0.10786 -0.01027 0.0
C1291 C 0.79999 0.11198 0.96371 0.0
C1292 C 0.80921 0.10252 0.94451 0.0
C1293 C 0.7782 0.09807 0.9759 0.0
C1294 C 0.7988 0.07874 0.94296 0.0
C1295 C 0.77754 0.06467 0.95625 0.0
H1296 H 0.69907 0.96299 0.97732 0.0
H1297 H 0.62791 0.94059 -0.00979 0.0
H1298 H 0.62086 0.904 0.00898 0.0
H1299 H 0.63637 0.88152 0.03095 0.0
H1300 H 0.70801 0.9051 0.02327 0.0
H1301 H 0.71327 0.93743 -0.00798 0.0
C1302 C 0.68191 0.94994 0.98363 0.0
C1303 C 0.66414 0.95476 0.98292 0.0
C1304 C 0.67806 0.929 -0.0048 0.0
C1305 C 0.642 0.93755 -0.00898 0.0
C1306 C 0.63792 0.91655 0.00169 0.0
C1307 C 0.65286 0.89315 0.02102 0.0
C1308 C 0.67175 0.89092 0.02918 0.0
C1309 C 0.65599 0.91245 0.00506 0.0
C1310 C 0.69316 0.90627 0.01684 0.0
C1311 C 0.69624 0.92504 -0.00043 0.0
H1312 H 0.07299 0.7381 -0.00563 0.0
H1313 H 0.13677 0.73896 -0.0045 0.0
H1314 H 0.15709 0.7776 0.01614 0.0
H1315 H 0.15542 0.80823 0.04286 0.0
H1316 H 0.09171 0.80727 0.04212 0.0
H1317 H 0.07289 0.772 0.01178 0.0
C1318 C 0.09141 0.74691 -0.00152 0.0
C1319 C 0.10318 0.73539 -0.00593 0.0
C1320 C 0.10305 0.76916 0.01066 0.0
C1321 C 0.12715 0.74725 -0.00097 0.0
C1322 C 0.13884 0.76939 0.01097 0.0
C1323 C 0.13768 0.80076 0.03496 0.0
C1324 C 0.12487 0.81011 0.04502 0.0
C1325 C 0.12681 0.78014 0.01815 0.0
C1326 C 0.10183 0.8002 0.03482 0.0
C1327 C 0.09102 0.77994 0.0177 0.0
H1328 H 0.2956 0.38199 -0.00902 0.0
H1329 H 0.29964 0.32598 0.02988 0.0
H1330 H 0.2611 0.30961 0.04989 0.0
H1331 H 0.23071 0.31619 0.06621 0.0
H1332 H 0.22815 0.3736 0.03017 0.0
H1333 H 0.26101 0.3839 -0.00205 0.0
C1334 C 0.28782 0.36591 0.00321 0.0
C1335 C 0.30066 0.35551 0.0097 0.0
C1336 C 0.26586 0.35686 0.01513 0.0
C1337 C 0.29021 0.33444 0.0249 0.0
C1338 C 0.2682 0.32513 0.03646 0.0
C1339 C 0.23678 0.33035 0.0502 0.0
C1340 C 0.22736 0.34438 0.05089 0.0
C1341 C 0.25642 0.33684 0.03311 0.0
C1342 C 0.23513 0.36258 0.03002 0.0
C1343 C 0.2542 0.3687 0.01204 0.0
H1344 H 0.75778 0.735 0.35515 0.0
H1345 H 0.72204 0.668 0.31363 0.0
H1346 H 0.75244 0.66161 0.33237 0.0
H1347 H 0.78509 0.67234 0.36905 0.0
H1348 H 0.8199 0.7387 0.4119 0.0
H1349 H 0.79457 0.74845 0.38333 0.0
C1350 C 0.75688 0.71917 0.3497 0.0
C1351 C 0.73745 0.70181 0.33368 0.0
C1352 C 0.77436 0.71555 0.36073 0.0
C1353 C 0.73671 0.68157 0.32622 0.0
C1354 C 0.75407 0.67786 0.337 0.0
C1355 C 0.78777 0.68929 0.37085 0.0
C1356 C 0.80428 0.70484 0.39234 0.0
C1357 C 0.77248 0.69437 0.35537 0.0
C1358 C 0.80742 0.72663 0.39513 0.0
C1359 C 0.79269 0.73203 0.37922 0.0
H1360 H 0.29177 0.03657 0.33798 0.0
H1361 H 0.36267 0.05478 0.34014 0.0
H1362 H 0.37453 0.09279 0.3583 0.0
H1363 H 0.36454 0.11881 0.38106 0.0
H1364 H 0.29397 0.10064 0.38259 0.0
H1365 H 0.28224 0.06513 0.35455 0.0
C1366 C 0.30983 0.04898 0.34195 0.0
C1367 C 0.32624 0.04261 0.33828 0.0
C1368 C 0.31661 0.07091 0.35296 0.0
C1369 C 0.3496 0.059 0.34331 0.0
C1370 C 0.35645 0.08083 0.35361 0.0
C1371 C 0.34669 0.10741 0.37418 0.0
C1372 C 0.33013 0.11224 0.38371 0.0
C1373 C 0.34008 0.0867 0.35951 0.0
C1374 C 0.30702 0.09735 0.37508 0.0
C1375 C 0.30031 0.07689 0.35953 0.0
H1376 H 0.9885 0.27527 0.3567 0.0
H1377 H 0.98872 0.33775 0.36776 0.0
H1378 H 0.94823 0.31611 0.38059 0.0
H1379 H 0.91477 0.27996 0.39628 0.0
H1380 H 0.9155 0.21785 0.38855 0.0
H1381 H 0.95323 0.23869 0.36544 0.0
C1382 C 0.97965 0.28418 0.36159 0.0
C1383 C 0.99178 0.30814 0.36197 0.0
C1384 C 0.95646 0.27165 0.36928 0.0
C1385 C 0.9799 0.31936 0.3677 0.0
C1386 C 0.95673 0.30699 0.37502 0.0
C1387 C 0.92296 0.27093 0.38865 0.0
C1388 C 0.91252 0.24747 0.39442 0.0
C1389 C 0.9451 0.2832 0.3769 0.0
C1390 C 0.92311 0.23586 0.38423 0.0
C1391 C 0.94487 0.24786 0.3715 0.0
H1392 H 0.0752 0.43898 0.32705 0.0
H1393 H 1.00938 0.40309 0.37013 0.0
H1394 H 1.00023 0.4308 0.34969 0.0
H1395 H 1.00845 0.46161 0.31277 0.0
H1396 H 0.07392 0.49749 0.26947 0.0
H1397 H 0.08602 0.47398 0.29743 0.0
C1398 C 0.05901 0.43746 0.33236 0.0
C1399 C 0.04284 0.41873 0.3496 0.0
C1400 C 0.05385 0.45357 0.32061 0.0
C1401 C 0.02209 0.4172 0.35673 0.0
C1402 C 1.0168 0.43305 0.34501 0.0
C1403 C 0.02573 0.46492 0.31069 0.0
C1404 C 0.04043 0.48139 0.28953 0.0
C1405 C 0.03224 0.45087 0.3261 0.0
C1406 C 0.06257 0.48522 0.28621 0.0
C1407 C 0.0693 0.4715 0.30176 0.0
H1408 H 0.59198 0.64056 0.32776 0.0
H1409 H 0.65732 0.64459 0.33552 0.0
H1410 H 0.63938 0.60534 0.31758 0.0
H1411 H 0.60686 0.57258 0.29117 0.0
H1412 H 0.5423 0.56942 0.27953 0.0
H1413 H 0.55789 0.60518 0.30859 0.0
C1414 C 0.60224 0.63274 0.3261 0.0
C1415 C 0.62609 0.64572 0.33238 0.0
C1416 C 0.59189 0.61025 0.3151 0.0
C1417 C 0.63902 0.63517 0.33044 0.0
C1418 C 0.62877 0.61269 0.32017 0.0
C1419 C 0.59601 0.57938 0.29599 0.0
C1420 C 0.57357 0.56858 0.2831 0.0
C1421 C 0.60545 0.60042 0.31125 0.0
C1422 C 0.55957 0.57739 0.28942 0.0
C1423 C 0.56863 0.59802 0.30559 0.0
H1424 H 0.41333 0.97629 0.33548 0.0
H1425 H 0.40325 0.03142 0.3094 0.0
H1426 H 0.44214 0.05294 0.29026 0.0
H1427 H 0.47493 0.05191 0.2702 0.0
H1428 H 0.48341 0.99536 0.29272 0.0
H1429 H 0.44993 0.97916 0.32527 0.0
C1430 C 0.41982 0.99323 0.32625 0.0
C1431 C 0.40519 1.00193 0.32293 0.0
C1432 C 0.442 1.00528 0.31463 0.0
C1433 C 0.41402 0.02414 0.31171 0.0
C1434 C 0.43626 0.03645 0.30068 0.0
C1435 C 0.4699 0.03649 0.28324 0.0
C1436 C 0.48121 0.02454 0.27847 0.0
C1437 C 0.44987 0.02662 0.30043 0.0
C1438 C 0.47491 1.00482 0.29586 0.0
C1439 C 0.4555 0.99534 0.31407 0.0
H1440 H 0.64619 1.01099 0.32108 0.0
H1441 H 0.61143 0.94256 0.28427 0.0
H1442 H 0.57934 0.94631 0.26594 0.0
H1443 H 0.56461 0.97137 0.25217 0.0
H1444 H 0.59939 0.03984 0.28795 0.0
H1445 H 0.62758 0.0336 0.31576 0.0
C1446 C 0.6314 0.99677 0.30955 0.0
C1447 C 0.63146 0.97672 0.30343 0.0
C1448 C 0.61293 0.99904 0.299 0.0
C1449 C 0.61198 0.95829 0.28899 0.0
C1450 C 0.59359 0.96041 0.27844 0.0
C1451 C 0.57773 0.98448 0.26734 0.0
C1452 C 0.5799 1.00593 0.26838 0.0
C1453 C 0.59428 0.98098 0.28226 0.0
C1454 C 0.59722 0.02307 0.28739 0.0
C1455 C 0.61355 0.01962 0.30279 0.0
H1456 H 0.06137 0.65837 0.3394 0.0
H1457 H 1.00396 0.65551 0.28932 0.0
H1458 H 0.99323 0.61868 0.26746 0.0
H1459 H 1.00285 0.5898 0.25707 0.0
H1460 H 0.06164 0.59336 0.30314 0.0
H1461 H 0.06864 0.62679 0.33299 0.0
C1462 C 0.04636 0.64955 0.32401 0.0
C1463 C 0.03373 0.65995 0.31566 0.0
C1464 C 0.04043 0.62836 0.31098 0.0
C1465 C 1.01424 0.64817 0.2958 0.0
C1466 C 1.00799 0.62701 0.28335 0.0
C1467 C 1.01675 0.59749 0.27443 0.0
C1468 C 0.03169 0.58918 0.27802 0.0
C1469 C 0.0213 0.61727 0.29009 0.0
C1470 C 0.04976 0.59931 0.30032 0.0
C1471 C 0.05396 0.61864 0.31695 0.0
H1472 H 0.4036 0.38547 0.31188 0.0
H1473 H 0.40381 0.44517 0.3427 0.0
H1474 H 0.44316 0.46925 0.32677 0.0
H1475 H 0.47387 0.47386 0.29372 0.0
H1476 H 0.47316 0.41469 0.26019 0.0
H1477 H 0.43828 0.38997 0.28848 0.0
C1478 C 0.41246 0.40367 0.31584 0.0
C1479 C 0.40051 0.41352 0.32755 0.0
C1480 C 0.43509 0.41761 0.30602 0.0
C1481 C 0.41237 0.43714 0.33296 0.0
C1482 C 0.43495 0.451 0.32392 0.0
C1483 C 0.46669 0.45562 0.29392 0.0
C1484 C 0.47581 0.44605 0.2747 0.0
C1485 C 0.44604 0.44153 0.30893 0.0
C1486 C 0.4663 0.42237 0.27485 0.0
C1487 C 0.44617 0.40823 0.29062 0.0
H1488 H 0.36797 0.29991 0.32933 0.0
H1489 H 0.29752 0.28164 0.33814 0.0
H1490 H 0.28772 0.24444 0.35779 0.0
H1491 H 0.30034 0.21981 0.38074 0.0
H1492 H 0.3708 0.23826 0.37491 0.0
H1493 H 0.37928 0.2722 0.34494 0.0
C1494 C 0.35039 0.28763 0.33497 0.0
C1495 C 0.33364 0.29383 0.33286 0.0
C1496 C 0.34486 0.26622 0.34679 0.0
C1497 C 0.31089 0.27756 0.34 0.0
C1498 C 0.30521 0.25621 0.35123 0.0
C1499 C 0.31732 0.23083 0.37177 0.0
C1500 C 0.33492 0.22662 0.37987 0.0
C1501 C 0.32221 0.25071 0.35584 0.0
C1502 C 0.35694 0.24105 0.36855 0.0
C1503 C 0.36185 0.26065 0.35188 0.0
H1504 H 0.7377 0.0662 0.32793 0.0
H1505 H 0.79598 0.05877 0.31423 0.0
H1506 H 0.82167 0.09682 0.3349 0.0
H1507 H 0.82666 0.12868 0.36665 0.0
H1508 H 0.76856 0.13554 0.38274 0.0
H1509 H 0.74396 0.10189 0.35051 0.0
C1510 C 0.75605 0.0731 0.32876 0.0
C1511 C 0.76475 0.05932 0.32029 0.0
C1512 C 0.77086 0.09504 0.34116 0.0
C1513 C 0.78866 0.06873 0.32116 0.0
C1514 C 0.80346 0.09058 0.33299 0.0
C1515 C 0.80889 0.12344 0.36168 0.0
C1516 C 0.7994 0.13454 0.37678 0.0
C1517 C 0.79467 0.10345 0.34439 0.0
C1518 C 0.77623 0.12737 0.3709 0.0
C1519 C 0.76209 0.10789 0.35295 0.0
H1520 H 0.96413 0.68498 0.34216 0.0
H1521 H 0.96861 0.74916 0.32512 0.0
H1522 H 0.92963 0.73345 0.34244 0.0
H1523 H 0.89815 0.70455 0.37301 0.0
H1524 H 0.89483 0.64156 0.39412 0.0
H1525 H 0.92886 0.65325 0.36363 0.0
C1526 C 0.95637 0.69534 0.34148 0.0
C1527 C 0.96951 0.71839 0.33318 0.0
C1528 C 0.93406 0.68636 0.3523 0.0
C1529 C 0.95909 0.73151 0.33209 0.0
C1530 C 0.93674 0.72253 0.34196 0.0
C1531 C 0.90424 0.69296 0.36959 0.0
C1532 C 0.89419 0.67234 0.38582 0.0
C1533 C 0.92454 0.70038 0.35361 0.0
C1534 C 0.90235 0.65751 0.38167 0.0
C1535 C 0.92201 0.66437 0.36468 0.0
H1536 H 0.4288 0.07566 0.67672 0.0
H1537 H 0.3723 1.00711 0.66048 0.0
H1538 H 0.39746 0.99241 0.67155 0.0
H1539 H 0.43359 0.99837 0.69428 0.0
H1540 H 0.48957 0.06623 0.71396 0.0
H1541 H 0.46699 0.08192 0.69206 0.0
C1542 C 0.42208 0.05755 0.67506 0.0
C1543 C 0.39851 0.04252 0.66836 0.0
C1544 C 0.43666 0.04907 0.68194 0.0
C1545 C 0.39022 0.0191 0.66606 0.0
C1546 C 0.40463 1.01063 0.67232 0.0
C1547 C 0.44116 0.01662 0.69241 0.0
C1548 C 0.46323 0.03115 0.70541 0.0
C1549 C 0.42764 0.02536 0.68136 0.0
C1550 C 0.47277 0.05476 0.70356 0.0
C1551 C 0.45966 0.06368 0.6916 0.0
H1552 H 0.03169 0.40609 0.67473 0.0
H1553 H 0.96205 0.35224 0.69018 0.0
H1554 H 0.95284 0.37982 0.7088 0.0
H1555 H 0.96567 0.41824 0.72734 0.0
H1556 H 0.03551 0.47208 0.71532 0.0
H1557 H 0.04334 0.44581 0.68775 0.0
C1558 C 1.01442 0.40042 0.68175 0.0
C1559 C 0.99771 0.37699 0.68149 0.0
C1560 C 1.00923 0.41645 0.69293 0.0
C1561 C 0.97537 0.37005 0.6905 0.0
C1562 C 0.97004 0.38584 0.70111 0.0
C1563 C 0.9824 0.42435 0.71775 0.0
C1564 C 0.99999 0.44703 0.72329 0.0
C1565 C 0.98697 0.40895 0.70329 0.0
C1566 C 0.02164 0.45478 0.71099 0.0
C1567 C 0.02618 0.43964 0.69569 0.0
H1568 H 0.63936 0.59784 0.67451 0.0
H1569 H 0.64992 0.66136 0.70938 0.0
H1570 H 0.61149 0.64158 0.73018 0.0
H1571 H 0.57835 0.60562 0.74707 0.0
H1572 H 0.56865 0.54207 0.71444 0.0
H1573 H 0.60274 0.56246 0.68306 0.0
C1574 C 0.63309 0.60741 0.68617 0.0
C1575 C 0.64769 0.63093 0.69116 0.0
C1576 C 0.61107 0.59589 0.6984 0.0
C1577 C 0.63915 0.64319 0.70563 0.0
C1578 C 0.61717 0.63189 0.71758 0.0
C1579 C 0.58329 0.59632 0.73213 0.0
C1580 C 0.57132 0.57246 0.73333 0.0
C1581 C 0.60344 0.60815 0.71532 0.0
C1582 C 0.57762 0.56046 0.71381 0.0
C1583 C 0.59733 0.57213 0.69628 0.0
H1584 H 0.75461 0.78346 0.68029 0.0
H1585 H 0.68576 0.72662 0.66437 0.0
H1586 H 0.67388 0.75201 0.64309 0.0
H1587 H 0.68463 0.78882 0.62017 0.0
H1588 H 0.75375 0.84526 0.63194 0.0
H1589 H 0.76371 0.82202 0.66478 0.0
C1590 C 0.73691 0.7767 0.67275 0.0
C1591 C 0.72127 0.75305 0.67331 0.0
C1592 C 0.73019 0.79143 0.65989 0.0
C1593 C 0.69833 0.74465 0.66367 0.0
C1594 C 0.69145 0.75919 0.65156 0.0
C1595 C 0.70155 0.79628 0.63124 0.0
C1596 C 0.71842 0.81868 0.62381 0.0
C1597 C 0.70742 0.78242 0.6484 0.0
C1598 C 0.74041 0.82816 0.63774 0.0
C1599 C 0.74621 0.81469 0.65596 0.0
H1600 H 0.2981 0.96713 0.65898 0.0
H1601 H 0.23946 0.97409 0.64019 0.0
H1602 H 0.21785 0.93544 0.61936 0.0
H1603 H 0.21772 0.90192 0.59919 0.0
H1604 H 0.27658 0.8954 0.6168 0.0
H1605 H 0.29571 0.93117 0.64617 0.0
C1606 C 0.28049 0.96008 0.65073 0.0
C1607 C 0.2706 0.97367 0.65061 0.0
C1608 C 0.26812 0.9378 0.63869 0.0
C1609 C 0.24761 0.96412 0.64031 0.0
C1610 C 0.2352 0.94198 0.62835 0.0
C1611 C 0.23431 0.90791 0.61064 0.0
C1612 C 0.24573 0.8961 0.60611 0.0
C1613 C 0.24551 0.92892 0.62651 0.0
C1614 C 0.26744 0.90419 0.62038 0.0
C1615 C 0.27849 0.92478 0.63676 0.0
H1616 H 0.06588 0.29561 0.65957 0.0
H1617 H 0.06572 0.35826 0.65251 0.0
H1618 H 0.10574 0.37826 0.6372 0.0
H1619 H 0.13868 0.37667 0.61906 0.0
H1620 H 0.13732 0.31324 0.62166 0.0
H1621 H 0.10033 0.295 0.64688 0.0
C1622 C 0.07461 0.3137 0.65498 0.0
C1623 C 0.06263 0.32533 0.65658 0.0
C1624 C 0.09742 0.32495 0.64566 0.0
C1625 C 0.0744 0.34884 0.65109 0.0
C1626 C 0.09729 0.36028 0.64236 0.0
C1627 C 0.13047 0.35896 0.6258 0.0
C1628 C 0.14056 0.34623 0.61814 0.0
C1629 C 0.10869 0.34833 0.63863 0.0
C1630 C 0.13 0.32343 0.62739 0.0
C1631 C 0.10867 0.31292 0.64136 0.0
H1632 H 0.287 0.29688 0.65715 0.0
H1633 H 0.33288 0.36584 0.68865 0.0
H1634 H 0.30556 0.37652 0.67017 0.0
H1635 H 0.27143 0.36763 0.63751 0.0
H1636 H 0.22551 0.29886 0.60621 0.0
H1637 H 0.2495 0.28657 0.63286 0.0
C1638 C 0.29082 0.31414 0.66044 0.0
C1639 C 0.31213 0.3306 0.67377 0.0
C1640 C 0.2749 0.32019 0.6499 0.0
C1641 C 0.31668 0.35282 0.6783 0.0
C1642 C 0.30106 0.359 0.66767 0.0
C1643 C 0.26616 0.34979 0.63789 0.0
C1644 C 0.24662 0.33409 0.62038 0.0
C1645 C 0.28044 0.34301 0.65253 0.0
C1646 C 0.24025 0.31111 0.62016 0.0
C1647 C 0.25419 0.30418 0.63493 0.0
H1648 H 0.73179 1.00146 0.63982 0.0
H1649 H 0.65887 0.95994 0.65223 0.0
H1650 H 0.65914 0.92645 0.63449 0.0
H1651 H 0.67929 0.90999 0.60908 0.0
H1652 H 0.75196 0.95137 0.5962 0.0
H1653 H 0.75283 0.98366 0.6213 0.0
C1654 C 0.716 0.98504 0.63891 0.0
C1655 C 0.69527 0.98332 0.64682 0.0
C1656 C 0.71631 0.96574 0.6289 0.0
C1657 C 0.67504 0.96182 0.64605 0.0
C1658 C 0.67517 0.94262 0.63592 0.0
C1659 C 0.69544 0.9258 0.6131 0.0
C1660 C 0.71562 0.92825 0.60146 0.0
C1661 C 0.6956 0.94447 0.6266 0.0
C1662 C 0.73636 0.949 0.60576 0.0
C1663 C 0.73675 0.96755 0.61959 0.0
H1664 H 0.07194 0.72154 0.64603 0.0
H1665 H 0.0755 0.78468 0.6665 0.0
H1666 H 0.11495 0.80606 0.6498 0.0
H1667 H 0.14478 0.80678 0.61882 0.0
H1668 H 0.14022 0.74399 0.59417 0.0
H1669 H 0.10541 0.72257 0.62407 0.0
C1670 C 0.08155 0.73995 0.64758 0.0
C1671 C 0.07059 0.75149 0.65666 0.0
C1672 C 0.10413 0.75225 0.6371 0.0
C1673 C 0.08335 0.77536 0.65887 0.0
C1674 C 0.10596 0.78765 0.64938 0.0
C1675 C 0.13677 0.78851 0.62133 0.0
C1676 C 0.14483 0.77691 0.60425 0.0
C1677 C 0.11609 0.7763 0.63695 0.0
C1678 C 0.13422 0.75321 0.60725 0.0
C1679 C 0.11413 0.74096 0.62391 0.0
H1680 H 0.95679 0.59796 0.67944 0.0
H1681 H 0.02825 0.64969 0.67172 0.0
H1682 H 0.03932 0.62229 0.68622 0.0
H1683 H 0.02922 0.58561 0.70883 0.0
H1684 H 0.95841 0.53457 0.72131 0.0
H1685 H 0.94649 0.55918 0.69602 0.0
C1686 C 0.97476 0.60314 0.68047 0.0
C1687 C 0.99166 0.62602 0.67503 0.0
C1688 C 0.98112 0.58729 0.68947 0.0
C1689 C 1.01487 0.63235 0.6763 0.0
C1690 C 0.02125 0.61664 0.68447 0.0
C1691 C 1.01115 0.57956 0.70481 0.0
C1692 C 0.9947 0.55833 0.71675 0.0
C1693 C 1.00459 0.59431 0.69208 0.0
C1694 C 0.97135 0.55071 0.71188 0.0
C1695 C 0.96459 0.56499 0.69798 0.0
H1696 H 0.45273 0.38584 0.67272 0.0
H1697 H 0.38666 0.38036 0.6686 0.0
H1698 H 0.404 0.41892 0.68913 0.0
H1699 H 0.43615 0.45079 0.71754 0.0
H1700 H 0.50143 0.45508 0.7255 0.0
H1701 H 0.48645 0.42081 0.69329 0.0
C1702 C 0.44219 0.39325 0.67559 0.0
C1703 C 0.41832 0.37999 0.66983 0.0
C1704 C 0.45216 0.41523 0.68828 0.0
C1705 C 0.405 0.39001 0.67332 0.0
C1706 C 0.4149 0.41207 0.68513 0.0
C1707 C 0.44725 0.44455 0.71136 0.0
C1708 C 0.46971 0.45515 0.72414 0.0
C1709 C 0.43821 0.42435 0.69411 0.0
C1710 C 0.48409 0.44718 0.71586 0.0
C1711 C 0.47542 0.42742 0.6978 0.0
H1712 H 0.63293 1.01243 0.66816 0.0
H1713 H 0.64434 0.0781 0.64128 0.0
H1714 H 0.60499 0.06605 0.65284 0.0
H1715 H 0.5711 0.04056 0.68265 0.0
H1716 H 0.56002 0.97571 0.71221 0.0
H1717 H 0.59471 0.98318 0.6865 0.0
C1718 C 0.62656 0.0238 0.66388 0.0
C1719 C 0.64176 0.04634 0.65481 0.0
C1720 C 0.60385 0.01691 0.67126 0.0
C1721 C 0.63317 0.06082 0.64907 0.0
C1722 C 0.61061 0.05396 0.65564 0.0
C1723 C 0.57561 0.02757 0.68188 0.0
C1724 C 0.56323 1.00776 0.69946 0.0
C1725 C 0.59623 0.03254 0.66847 0.0
C1726 C 0.56933 0.99109 0.69867 0.0
C1727 C 0.58943 0.99556 0.68448 0.0
loop_
_geom_bond_atom_site_label_1
_geom_bond_atom_site_label_2
_geom_bond_distance
_geom_bond_site_symmetry_2
_ccdc_geom_bond_type
Zn0 O3 2.031 1_554 S
Zn0 O5 2.049 . S
Zn0 O10 2.067 1_554 S
Zn1 O2 1.962 1_455 S
Zn1 O4 1.986 . S
Zn1 O6 1.996 1_455 S
Zn1 O9 1.943 1_554 S
O2 Zn1 1.962 1_655 S
O2 C7 1.254 1_554 S
O3 Zn0 2.031 1_556 S
O3 C7 1.269 . S
O4 Zn1 1.986 . S
O4 C11 1.262 . S
O5 Zn0 2.049 . S
O5 C13 1.260 . S
O6 Zn1 1.996 1_655 S
O6 C13 1.257 . S
C7 O2 1.254 1_556 S
C7 O3 1.269 . S
C8 O9 1.249 . S
C8 O10 1.270 1_455 S
O9 Zn1 1.943 1_556 S
O9 C8 1.249 . S
O10 Zn0 2.067 1_556 S
O10 C8 1.270 1_655 S
C11 O4 1.262 . S
C11 O12 1.232 . S
O12 C11 1.232 . S
C13 O5 1.260 . S
C13 O6 1.257 . S
Zn14 O17 2.031 1_554 S
Zn14 O19 2.049 . S
Zn14 O24 2.067 1_554 S
Zn15 O16 1.962 . S
Zn15 O18 1.986 . S
Zn15 O20 1.996 . S
Zn15 O23 1.943 1_554 S
O16 Zn15 1.962 . S
O16 C21 1.254 1_554 S
O17 Zn14 2.031 1_556 S
O17 C21 1.269 . S
O18 Zn15 1.986 . S
O18 C25 1.262 . S
O19 Zn14 2.049 . S
O19 C27 1.260 . S
O20 Zn15 1.996 . S
O20 C27 1.257 . S
C21 O16 1.254 1_556 S
C21 O17 1.269 . S
C22 O23 1.249 . S
C22 O24 1.270 . S
O23 Zn15 1.943 1_556 S
O23 C22 1.249 . S
O24 Zn14 2.067 1_556 S
O24 C22 1.270 . S
C25 O18 1.262 . S
C25 O26 1.232 . S
O26 C25 1.232 . S
C27 O19 1.260 . S
C27 O20 1.257 . S
Zn28 O31 2.031 . S
Zn28 O33 2.049 1_554 S
Zn28 O38 2.067 . S
Zn29 O30 1.962 1_545 S
Zn29 O32 1.986 1_554 S
Zn29 O34 1.996 1_544 S
Zn29 O37 1.943 . S
O30 Zn29 1.962 1_565 S
O30 C35 1.254 . S
O31 Zn28 2.031 . S
O31 C35 1.269 . S
O32 Zn29 1.986 1_556 S
O32 C39 1.262 . S
O33 Zn28 2.049 1_556 S
O33 C41 1.260 . S
O34 Zn29 1.996 1_566 S
O34 C41 1.257 . S
C35 O30 1.254 . S
C35 O31 1.269 . S
C36 O37 1.249 . S
C36 O38 1.270 1_545 S
O37 Zn29 1.943 . S
O37 C36 1.249 . S
O38 Zn28 2.067 . S
O38 C36 1.270 1_565 S
C39 O32 1.262 . S
C39 O40 1.232 1_556 S
O40 C39 1.232 1_554 S
C41 O33 1.260 . S
C41 O34 1.257 . S
Zn42 O45 2.031 . S
Zn42 O47 2.049 1_554 S
Zn42 O52 2.067 . S
Zn43 O44 1.962 1_655 S
Zn43 O46 1.986 1_554 S
Zn43 O48 1.996 1_654 S
Zn43 O51 1.943 . S
O44 Zn43 1.962 1_455 S
O44 C49 1.254 . S
O45 Zn42 2.031 . S
O45 C49 1.269 . S
O46 Zn43 1.986 1_556 S
O46 C53 1.262 . S
O47 Zn42 2.049 1_556 S
O47 C55 1.260 . S
O48 Zn43 1.996 1_456 S
O48 C55 1.257 . S
C49 O44 1.254 . S
C49 O45 1.269 . S
C50 O51 1.249 . S
C50 O52 1.270 1_655 S
O51 Zn43 1.943 . S
O51 C50 1.249 . S
O52 Zn42 2.067 . S
O52 C50 1.270 1_455 S
C53 O46 1.262 . S
C53 O54 1.232 1_556 S
O54 C53 1.232 1_554 S
C55 O47 1.260 . S
C55 O48 1.257 . S
Zn56 O59 2.031 . S
Zn56 O61 2.049 1_554 S
Zn56 O66 2.067 . S
Zn57 O58 1.962 . S
Zn57 O60 1.986 1_554 S
Zn57 O62 1.996 1_554 S
Zn57 O65 1.943 . S
O58 Zn57 1.962 . S
O58 C63 1.254 . S
O59 Zn56 2.031 . S
O59 C63 1.269 . S
O60 Zn57 1.986 1_556 S
O60 C67 1.262 . S
O61 Zn56 2.049 1_556 S
O61 C69 1.260 . S
O62 Zn57 1.996 1_556 S
O62 C69 1.257 . S
C63 O58 1.254 . S
C63 O59 1.269 . S
C64 O65 1.249 . S
C64 O66 1.270 . S
O65 Zn57 1.943 . S
O65 C64 1.249 . S
O66 Zn56 2.067 . S
O66 C64 1.270 . S
C67 O60 1.262 . S
C67 O68 1.232 1_556 S
O68 C67 1.232 1_554 S
C69 O61 1.260 . S
C69 O62 1.257 . S
Zn70 O73 2.031 1_554 S
Zn70 O75 2.049 . S
Zn70 O80 2.067 1_554 S
Zn71 O72 1.962 1_565 S
Zn71 O74 1.986 . S
Zn71 O76 1.996 1_565 S
Zn71 O79 1.943 1_554 S
O72 Zn71 1.962 1_545 S
O72 C77 1.253 1_554 S
O73 Zn70 2.031 1_556 S
O73 C77 1.270 . S
O74 Zn71 1.986 . S
O74 C81 1.262 . S
O75 Zn70 2.049 . S
O75 C83 1.260 . S
O76 Zn71 1.996 1_545 S
O76 C83 1.257 . S
C77 O72 1.253 1_556 S
C77 O73 1.270 . S
C78 O79 1.249 . S
C78 O80 1.270 1_565 S
O79 Zn71 1.943 1_556 S
O79 C78 1.249 . S
O80 Zn70 2.067 1_556 S
O80 C78 1.270 1_545 S
C81 O74 1.262 . S
C81 O82 1.232 . S
O82 C81 1.232 . S
C83 O75 1.260 . S
C83 O76 1.257 . S
Zn84 O87 2.031 . S
Zn84 O89 2.049 . S
Zn84 O94 2.067 . S
Zn85 O86 1.962 . S
Zn85 O88 1.986 . S
Zn85 O90 1.996 . S
Zn85 O93 1.943 . S
O86 Zn85 1.962 . S
O86 C91 1.254 . S
O87 Zn84 2.031 . S
O87 C91 1.269 . S
O88 Zn85 1.986 . S
O88 C95 1.262 . S
O89 Zn84 2.049 . S
O89 C97 1.260 . S
O90 Zn85 1.996 . S
O90 C97 1.257 . S
C91 O86 1.254 . S
C91 O87 1.269 . S
C92 O93 1.249 . S
C92 O94 1.270 . S
O93 Zn85 1.943 . S
O93 C92 1.249 . S
O94 Zn84 2.067 . S
O94 C92 1.270 . S
C95 O88 1.262 . S
C95 O96 1.232 . S
O96 C95 1.232 . S
C97 O89 1.260 . S
C97 O90 1.257 . S
Zn98 O101 2.031 . S
Zn98 O103 2.049 . S
Zn98 O108 2.067 . S
Zn99 O100 1.962 . S
Zn99 O102 1.986 1_565 S
Zn99 O104 1.996 . S
Zn99 O107 1.943 . S
O100 Zn99 1.962 . S
O100 C105 1.254 . S
O101 Zn98 2.031 . S
O101 C105 1.269 . S
O102 Zn99 1.986 1_545 S
O102 C109 1.262 . S
O103 Zn98 2.049 . S
O103 C111 1.260 . S
O104 Zn99 1.996 . S
O104 C111 1.257 . S
C105 O100 1.254 . S
C105 O101 1.269 . S
C106 O107 1.249 . S
C106 O108 1.270 . S
O107 Zn99 1.943 . S
O107 C106 1.249 . S
O108 Zn98 2.067 . S
O108 C106 1.270 . S
C109 O102 1.262 . S
C109 O110 1.232 . S
O110 C109 1.232 . S
C111 O103 1.260 . S
C111 O104 1.257 . S
Zn112 O115 2.075 . S
Zn112 O117 2.049 . S
Zn112 O122 2.067 . S
Zn113 O114 1.962 1_455 S
Zn113 O116 1.986 . S
Zn113 O118 1.996 . S
Zn113 O121 1.943 . S
O114 Zn113 1.962 1_655 S
O114 C119 1.254 . S
O115 Zn112 2.075 . S
O115 C119 1.222 1_455 S
O116 Zn113 1.986 . S
O116 C123 1.262 . S
O117 Zn112 2.049 . S
O117 C125 1.260 . S
O118 Zn113 1.996 . S
O118 C125 1.257 . S
C119 O114 1.254 . S
C119 O115 1.222 1_655 S
C120 O121 1.249 . S
C120 O122 1.270 . S
O121 Zn113 1.943 . S
O121 C120 1.249 . S
O122 Zn112 2.067 . S
O122 C120 1.270 . S
C123 O116 1.262 . S
C123 O124 1.232 . S
O124 C123 1.232 . S
C125 O117 1.260 . S
C125 O118 1.257 . S
Zn126 O129 1.978 1_565 S
Zn126 O131 2.049 . S
Zn126 O136 2.067 . S
Zn127 O128 1.962 1_565 S
Zn127 O130 1.986 . S
Zn127 O132 1.996 . S
Zn127 O135 1.943 . S
O128 Zn127 1.962 1_545 S
O128 C133 1.254 . S
O129 Zn126 1.978 1_545 S
O129 C133 1.329 . S
O130 Zn127 1.986 . S
O130 C137 1.262 . S
O131 Zn126 2.049 . S
O131 C139 1.260 . S
O132 Zn127 1.996 . S
O132 C139 1.257 . S
C133 O128 1.254 . S
C133 O129 1.329 . S
C134 O135 1.249 . S
C134 O136 1.270 . S
O135 Zn127 1.943 . S
O135 C134 1.249 . S
O136 Zn126 2.067 . S
O136 C134 1.270 . S
C137 O130 1.262 . S
C137 O138 1.232 . S
O138 C137 1.232 . S
C139 O131 1.260 . S
C139 O132 1.257 . S
Zn140 O143 2.031 1_455 S
Zn140 O145 2.049 . S
Zn140 O150 2.067 . S
Zn141 O142 1.962 1_455 S
Zn141 O144 1.986 . S
Zn141 O146 1.996 . S
Zn141 O149 1.943 . S
O142 Zn141 1.962 1_655 S
O142 C147 1.254 . S
O143 Zn140 2.031 1_655 S
O143 C147 1.269 . S
O144 Zn141 1.986 . S
O144 C151 1.262 . S
O145 Zn140 2.049 . S
O145 C153 1.260 . S
O146 Zn141 1.996 . S
O146 C153 1.257 . S
C147 O142 1.254 . S
C147 O143 1.269 . S
C148 O149 1.249 . S
C148 O150 1.270 . S
O149 Zn141 1.943 . S
O149 C148 1.249 . S
O150 Zn140 2.067 . S
O150 C148 1.270 . S
C151 O144 1.262 . S
C151 O152 1.232 . S
O152 C151 1.232 . S
C153 O145 1.260 . S
C153 O146 1.257 . S
Zn154 O157 2.031 . S
Zn154 O159 2.049 . S
Zn154 O164 2.067 . S
Zn155 O156 1.962 . S
Zn155 O158 1.986 . S
Zn155 O160 1.996 . S
Zn155 O163 1.943 . S
O156 Zn155 1.962 . S
O156 C161 1.254 . S
O157 Zn154 2.031 . S
O157 C161 1.269 . S
O158 Zn155 1.986 . S
O158 C165 1.262 . S
O159 Zn154 2.049 . S
O159 C167 1.260 . S
O160 Zn155 1.996 . S
O160 C167 1.257 . S
C161 O156 1.254 . S
C161 O157 1.269 . S
C162 O163 1.249 . S
C162 O164 1.270 . S
O163 Zn155 1.943 . S
O163 C162 1.249 . S
O164 Zn154 2.067 . S
O164 C162 1.270 . S
C165 O158 1.262 . S
C165 O166 1.232 . S
O166 C165 1.232 . S
C167 O159 1.260 . S
C167 O160 1.257 . S
Zn168 O171 2.031 . S
Zn168 O173 2.049 . S
Zn168 O178 2.067 . S
Zn169 O170 1.962 1_545 S
Zn169 O172 1.986 . S
Zn169 O174 1.996 . S
Zn169 O177 1.943 . S
O170 Zn169 1.962 1_565 S
O170 C175 1.254 . S
O171 Zn168 2.031 . S
O171 C175 1.269 1_545 S
O172 Zn169 1.986 . S
O172 C179 1.262 . S
O173 Zn168 2.049 . S
O173 C181 1.260 . S
O174 Zn169 1.996 . S
O174 C181 1.257 . S
C175 O170 1.254 . S
C175 O171 1.269 1_565 S
C176 O177 1.249 . S
C176 O178 1.270 . S
O177 Zn169 1.943 . S
O177 C176 1.249 . S
O178 Zn168 2.067 . S
O178 C176 1.270 . S
C179 O172 1.262 . S
C179 O180 1.232 . S
O180 C179 1.232 . S
C181 O173 1.260 . S
C181 O174 1.257 . S
Zn182 O185 2.031 1_655 S
Zn182 O187 2.049 . S
Zn182 O192 2.067 . S
Zn183 O184 1.962 1_655 S
Zn183 O186 1.986 . S
Zn183 O188 1.996 . S
Zn183 O191 1.943 . S
O184 Zn183 1.962 1_455 S
O184 C189 1.254 . S
O185 Zn182 2.031 1_455 S
O185 C189 1.269 . S
O186 Zn183 1.986 . S
O186 C193 1.262 . S
O187 Zn182 2.049 . S
O187 C195 1.260 . S
O188 Zn183 1.996 . S
O188 C195 1.257 . S
C189 O184 1.254 . S
C189 O185 1.269 . S
C190 O191 1.249 . S
C190 O192 1.270 . S
O191 Zn183 1.943 . S
O191 C190 1.249 . S
O192 Zn182 2.067 . S
O192 C190 1.270 . S
C193 O186 1.262 . S
C193 O194 1.232 . S
O194 C193 1.232 . S
C195 O187 1.260 . S
C195 O188 1.257 . S
Zn196 O199 2.031 . S
Zn196 O201 2.049 . S
Zn196 O206 2.067 . S
Zn197 O198 1.962 . S
Zn197 O200 1.986 . S
Zn197 O202 1.996 . S
Zn197 O205 1.943 . S
O198 Zn197 1.962 . S
O198 C203 1.254 . S
O199 Zn196 2.031 . S
O199 C203 1.269 . S
O200 Zn197 1.986 . S
O200 C207 1.262 . S
O201 Zn196 2.049 . S
O201 C209 1.260 . S
O202 Zn197 1.996 . S
O202 C209 1.257 . S
C203 O198 1.254 . S
C203 O199 1.269 . S
C204 O205 1.249 . S
C204 O206 1.270 . S
O205 Zn197 1.943 . S
O205 C204 1.249 . S
O206 Zn196 2.067 . S
O206 C204 1.270 . S
C207 O200 1.262 . S
C207 O208 1.232 . S
O208 C207 1.232 . S
C209 O201 1.260 . S
C209 O202 1.257 . S
Zn210 O213 2.031 . S
Zn210 O215 2.049 . S
Zn210 O220 2.067 . S
Zn211 O212 1.962 . S
Zn211 O214 1.986 . S
Zn211 O216 1.996 . S
Zn211 O219 1.943 . S
O212 Zn211 1.962 . S
O212 C217 1.254 . S
O213 Zn210 2.031 . S
O213 C217 1.269 . S
O214 Zn211 1.986 . S
O214 C221 1.262 . S
O215 Zn210 2.049 . S
O215 C223 1.260 . S
O216 Zn211 1.996 . S
O216 C223 1.257 . S
C217 O212 1.254 . S
C217 O213 1.269 . S
C218 O219 1.249 . S
C218 O220 1.270 . S
O219 Zn211 1.943 . S
O219 C218 1.249 . S
O220 Zn210 2.067 . S
O220 C218 1.270 . S
C221 O214 1.262 . S
C221 O222 1.232 . S
O222 C221 1.232 . S
C223 O215 1.260 . S
C223 O216 1.257 . S
Zn224 O227 2.031 . S
Zn224 O229 2.049 . S
Zn224 O234 2.067 . S
Zn225 O226 1.962 . S
Zn225 O228 1.986 1_545 S
Zn225 O230 1.996 . S
Zn225 O233 1.943 . S
O226 Zn225 1.962 . S
O226 C231 1.254 . S
O227 Zn224 2.031 . S
O227 C231 1.269 . S
O228 Zn225 1.986 1_565 S
O228 C235 1.262 . S
O229 Zn224 2.049 . S
O229 C237 1.260 . S
O230 Zn225 1.996 . S
O230 C237 1.257 . S
C231 O226 1.254 . S
C231 O227 1.269 . S
C232 O233 1.249 . S
C232 O234 1.270 . S
O233 Zn225 1.943 . S
O233 C232 1.249 . S
O234 Zn224 2.067 . S
O234 C232 1.270 . S
C235 O228 1.262 . S
C235 O236 1.232 . S
O236 C235 1.232 . S
C237 O229 1.260 . S
C237 O230 1.257 . S
Zn238 O241 2.026 . S
Zn238 O243 2.049 . S
Zn238 O248 2.067 . S
Zn239 O240 1.962 1_655 S
Zn239 O242 1.986 . S
Zn239 O244 1.996 . S
Zn239 O247 1.943 . S
O240 Zn239 1.962 1_455 S
O240 C245 1.254 . S
O241 Zn238 2.026 . S
O241 C245 1.275 1_655 S
O242 Zn239 1.986 . S
O242 C249 1.262 . S
O243 Zn238 2.049 . S
O243 C251 1.260 . S
O244 Zn239 1.996 . S
O244 C251 1.257 . S
C245 O240 1.254 . S
C245 O241 1.275 1_455 S
C246 O247 1.249 . S
C246 O248 1.270 . S
O247 Zn239 1.943 . S
O247 C246 1.249 . S
O248 Zn238 2.067 . S
O248 C246 1.270 . S
C249 O242 1.262 . S
C249 O250 1.232 . S
O250 C249 1.232 . S
C251 O243 1.260 . S
C251 O244 1.257 . S
H252 C258 0.930 . S
H253 C261 0.931 . S
H254 C263 0.931 . S
H255 C265 0.930 . S
H256 C267 0.930 . S
H257 C269 0.931 . S
C258 H252 0.930 . S
C258 C259 1.380 . S
C258 C260 1.394 . S
C259 C258 1.380 . S
C259 C263 1.382 . S
C260 C258 1.394 . S
C260 C261 1.400 . S
C261 H253 0.931 . S
C261 C260 1.400 . S
C261 C262 1.375 . S
C262 C261 1.375 . S
C262 C263 1.415 . S
C262 C264 1.501 . S
C263 H254 0.931 . S
C263 C259 1.382 . S
C263 C262 1.415 . S
C264 C262 1.501 . S
C264 C265 1.384 . S
C264 C269 1.408 . S
C265 H255 0.930 . S
C265 C264 1.384 . S
C265 C266 1.389 . S
C266 C265 1.389 . S
C266 C267 1.405 . S
C267 H256 0.930 . S
C267 C266 1.405 . S
C267 C268 1.364 . S
C268 C267 1.364 . S
C268 C269 1.400 . S
C269 H257 0.931 . S
C269 C264 1.408 . S
C269 C268 1.400 . S
H270 C276 0.930 . S
H271 C279 0.931 . S
H272 C281 0.931 . S
H273 C283 0.930 . S
H274 C285 0.930 . S
H275 C287 0.931 . S
C276 H270 0.930 . S
C276 C277 1.380 . S
C276 C278 1.394 . S
C277 C276 1.380 . S
C277 C281 1.382 . S
C278 C276 1.394 . S
C278 C279 1.400 . S
C279 H271 0.931 . S
C279 C278 1.400 . S
C279 C280 1.375 . S
C280 C279 1.375 . S
C280 C281 1.415 . S
C280 C282 1.501 . S
C281 H272 0.931 . S
C281 C277 1.382 . S
C281 C280 1.415 . S
C282 C280 1.501 . S
C282 C283 1.384 . S
C282 C287 1.408 . S
C283 H273 0.930 . S
C283 C282 1.384 . S
C283 C284 1.389 . S
C284 C283 1.389 . S
C284 C285 1.405 . S
C285 H274 0.930 . S
C285 C284 1.405 . S
C285 C286 1.364 . S
C286 C285 1.364 . S
C286 C287 1.400 . S
C287 H275 0.931 . S
C287 C282 1.408 . S
C287 C286 1.400 . S
H288 C294 0.930 . S
H289 C297 0.931 . S
H290 C299 0.931 . S
H291 C301 0.930 . S
H292 C303 0.930 . S
H293 C305 0.931 . S
C294 H288 0.930 . S
C294 C295 1.380 . S
C294 C296 1.394 . S
C295 C294 1.380 . S
C295 C299 1.382 . S
C296 C294 1.394 . S
C296 C297 1.400 . S
C297 H289 0.931 . S
C297 C296 1.400 . S
C297 C298 1.375 . S
C298 C297 1.375 . S
C298 C299 1.415 . S
C298 C300 1.501 . S
C299 H290 0.931 . S
C299 C295 1.382 . S
C299 C298 1.415 . S
C300 C298 1.501 . S
C300 C301 1.384 . S
C300 C305 1.408 . S
C301 H291 0.930 . S
C301 C300 1.384 . S
C301 C302 1.389 . S
C302 C301 1.389 . S
C302 C303 1.405 . S
C303 H292 0.930 . S
C303 C302 1.405 . S
C303 C304 1.364 . S
C304 C303 1.364 . S
C304 C305 1.400 . S
C305 H293 0.931 . S
C305 C300 1.408 . S
C305 C304 1.400 . S
H306 C312 0.930 . S
H307 C315 0.931 . S
H308 C317 0.931 . S
H309 C319 0.930 . S
H310 C321 0.930 . S
H311 C323 0.931 . S
C312 H306 0.930 . S
C312 C313 1.380 . S
C312 C314 1.394 . S
C313 C312 1.380 . S
C313 C317 1.382 . S
C314 C312 1.394 . S
C314 C315 1.400 . S
C315 H307 0.931 . S
C315 C314 1.400 . S
C315 C316 1.375 . S
C316 C315 1.375 . S
C316 C317 1.415 . S
C316 C318 1.501 . S
C317 H308 0.931 . S
C317 C313 1.382 . S
C317 C316 1.415 . S
C318 C316 1.501 . S
C318 C319 1.384 . S
C318 C323 1.408 . S
C319 H309 0.930 . S
C319 C318 1.384 . S
C319 C320 1.389 . S
C320 C319 1.389 . S
C320 C321 1.405 . S
C321 H310 0.930 . S
C321 C320 1.405 . S
C321 C322 1.364 . S
C322 C321 1.364 . S
C322 C323 1.400 . S
C323 H311 0.931 . S
C323 C318 1.408 . S
C323 C322 1.400 . S
H324 C330 0.930 . S
H325 C333 0.931 . S
H326 C335 0.931 . S
H327 C337 0.930 . S
H328 C339 0.930 . S
H329 C341 0.931 . S
C330 H324 0.930 . S
C330 C331 1.380 . S
C330 C332 1.394 . S
C331 C330 1.380 . S
C331 C335 1.382 . S
C332 C330 1.394 . S
C332 C333 1.400 . S
C333 H325 0.931 . S
C333 C332 1.400 . S
C333 C334 1.375 . S
C334 C333 1.375 . S
C334 C335 1.415 . S
C334 C336 1.501 . S
C335 H326 0.931 . S
C335 C331 1.382 . S
C335 C334 1.415 . S
C336 C334 1.501 . S
C336 C337 1.384 . S
C336 C341 1.408 . S
C337 H327 0.930 . S
C337 C336 1.384 . S
C337 C338 1.389 . S
C338 C337 1.389 . S
C338 C339 1.405 . S
C339 H328 0.930 . S
C339 C338 1.405 . S
C339 C340 1.364 . S
C340 C339 1.364 . S
C340 C341 1.400 . S
C341 H329 0.931 . S
C341 C336 1.408 . S
C341 C340 1.400 . S
H342 C348 0.930 . S
H343 C351 0.931 . S
H344 C353 0.931 . S
H345 C355 0.930 . S
H346 C357 0.930 . S
H347 C359 0.931 . S
C348 H342 0.930 . S
C348 C349 1.380 . S
C348 C350 1.394 . S
C349 C348 1.380 . S
C349 C353 1.382 . S
C350 C348 1.394 . S
C350 C351 1.400 . S
C351 H343 0.931 . S
C351 C350 1.400 . S
C351 C352 1.375 . S
C352 C351 1.375 . S
C352 C353 1.415 . S
C352 C354 1.501 . S
C353 H344 0.931 . S
C353 C349 1.382 . S
C353 C352 1.415 . S
C354 C352 1.501 . S
C354 C355 1.384 . S
C354 C359 1.408 . S
C355 H345 0.930 . S
C355 C354 1.384 . S
C355 C356 1.389 . S
C356 C355 1.389 . S
C356 C357 1.405 . S
C357 H346 0.930 . S
C357 C356 1.405 . S
C357 C358 1.364 . S
C358 C357 1.364 . S
C358 C359 1.400 . S
C359 H347 0.931 . S
C359 C354 1.408 . S
C359 C358 1.400 . S
H360 C366 0.930 . S
H361 C369 0.931 . S
H362 C371 0.931 . S
H363 C373 0.930 . S
H364 C375 0.930 . S
H365 C377 0.931 . S
C366 H360 0.930 . S
C366 C367 1.380 . S
C366 C368 1.394 . S
C367 C366 1.380 . S
C367 C371 1.382 . S
C368 C366 1.394 . S
C368 C369 1.400 . S
C369 H361 0.931 . S
C369 C368 1.400 . S
C369 C370 1.375 . S
C370 C369 1.375 . S
C370 C371 1.415 . S
C370 C372 1.501 . S
C371 H362 0.931 . S
C371 C367 1.382 . S
C371 C370 1.415 . S
C372 C370 1.501 . S
C372 C373 1.384 . S
C372 C377 1.408 . S
C373 H363 0.930 . S
C373 C372 1.384 . S
C373 C374 1.389 . S
C374 C373 1.389 . S
C374 C375 1.405 . S
C375 H364 0.930 . S
C375 C374 1.405 . S
C375 C376 1.364 . S
C376 C375 1.364 . S
C376 C377 1.400 . S
C377 H365 0.931 . S
C377 C372 1.408 . S
C377 C376 1.400 . S
H378 C384 0.930 . S
H379 C387 0.931 . S
H380 C389 0.931 . S
H381 C391 0.930 . S
H382 C393 0.930 . S
H383 C395 0.931 . S
C384 H378 0.930 . S
C384 C385 1.380 . S
C384 C386 1.394 . S
C385 C384 1.380 . S
C385 C389 1.382 . S
C386 C384 1.394 . S
C386 C387 1.400 . S
C387 H379 0.931 . S
C387 C386 1.400 . S
C387 C388 1.375 . S
C388 C387 1.375 . S
C388 C389 1.415 . S
C388 C390 1.501 . S
C389 H380 0.931 . S
C389 C385 1.382 . S
C389 C388 1.415 . S
C390 C388 1.501 . S
C390 C391 1.384 . S
C390 C395 1.408 . S
C391 H381 0.930 . S
C391 C390 1.384 . S
C391 C392 1.389 . S
C392 C391 1.389 . S
C392 C393 1.405 . S
C393 H382 0.930 . S
C393 C392 1.405 . S
C393 C394 1.364 . S
C394 C393 1.364 . S
C394 C395 1.400 . S
C395 H383 0.931 . S
C395 C390 1.408 . S
C395 C394 1.400 . S
H396 C402 0.930 . S
H397 C405 0.931 . S
H398 C407 0.931 . S
H399 C409 0.930 . S
H400 C411 0.930 . S
H401 C413 0.931 . S
C402 H396 0.930 . S
C402 C403 1.380 . S
C402 C404 1.394 . S
C403 C402 1.380 . S
C403 C407 1.382 . S
C404 C402 1.394 . S
C404 C405 1.400 . S
C405 H397 0.931 . S
C405 C404 1.400 . S
C405 C406 1.375 . S
C406 C405 1.375 . S
C406 C407 1.415 . S
C406 C408 1.501 . S
C407 H398 0.931 . S
C407 C403 1.382 . S
C407 C406 1.415 . S
C408 C406 1.501 . S
C408 C409 1.384 . S
C408 C413 1.408 . S
C409 H399 0.930 . S
C409 C408 1.384 . S
C409 C410 1.389 . S
C410 C409 1.389 . S
C410 C411 1.405 . S
C411 H400 0.930 . S
C411 C410 1.405 . S
C411 C412 1.364 . S
C412 C411 1.364 . S
C412 C413 1.400 . S
C413 H401 0.931 . S
C413 C408 1.408 . S
C413 C412 1.400 . S
H414 C420 0.928 . S
H415 C423 0.931 . S
H416 C425 0.931 . S
H417 C427 0.930 . S
H418 C429 0.930 . S
H419 C431 0.941 . S
C420 H414 0.928 . S
C420 C421 1.381 . S
C420 C422 1.394 1_655 S
C421 C420 1.381 . S
C421 C425 1.382 . S
C422 C420 1.394 1_455 S
C422 C423 1.400 . S
C423 H415 0.931 . S
C423 C422 1.400 . S
C423 C424 1.375 . S
C424 C423 1.375 . S
C424 C425 1.415 1_455 S
C424 C426 1.501 . S
C425 H416 0.931 . S
C425 C421 1.382 . S
C425 C424 1.415 1_655 S
C426 C424 1.501 . S
C426 C427 1.384 . S
C426 C431 1.422 . S
C427 H417 0.930 . S
C427 C426 1.384 . S
C427 C428 1.389 . S
C428 C427 1.389 . S
C428 C429 1.405 . S
C429 H418 0.930 . S
C429 C428 1.405 . S
C429 C430 1.360 . S
C430 C429 1.360 . S
C430 C431 1.389 . S
C431 H419 0.941 . S
C431 C426 1.422 . S
C431 C430 1.389 . S
H432 C438 0.930 . S
H433 C441 0.931 . S
H434 C443 0.931 . S
H435 C445 0.930 . S
H436 C447 0.930 . S
H437 C449 0.931 . S
C438 H432 0.930 . S
C438 C439 1.380 . S
C438 C440 1.394 . S
C439 C438 1.380 . S
C439 C443 1.382 . S
C440 C438 1.394 . S
C440 C441 1.400 . S
C441 H433 0.931 . S
C441 C440 1.400 . S
C441 C442 1.375 . S
C442 C441 1.375 . S
C442 C443 1.415 . S
C442 C444 1.501 . S
C443 H434 0.931 . S
C443 C439 1.382 . S
C443 C442 1.415 . S
C444 C442 1.501 . S
C444 C445 1.384 . S
C444 C449 1.408 . S
C445 H435 0.930 . S
C445 C444 1.384 . S
C445 C446 1.389 . S
C446 C445 1.389 . S
C446 C447 1.405 . S
C447 H436 0.930 . S
C447 C446 1.405 . S
C447 C448 1.364 . S
C448 C447 1.364 . S
C448 C449 1.400 . S
C449 H437 0.931 . S
C449 C444 1.408 . S
C449 C448 1.400 . S
H450 C456 0.930 . S
H451 C459 0.931 . S
H452 C461 0.931 . S
H453 C463 0.930 . S
H454 C465 0.930 . S
H455 C467 0.937 . S
C456 H450 0.930 . S
C456 C457 1.380 . S
C456 C458 1.394 1_545 S
C457 C456 1.380 . S
C457 C461 1.382 . S
C458 C456 1.394 1_565 S
C458 C459 1.400 . S
C459 H451 0.931 . S
C459 C458 1.400 . S
C459 C460 1.375 . S
C460 C459 1.375 . S
C460 C461 1.415 1_565 S
C460 C462 1.501 . S
C461 H452 0.931 . S
C461 C457 1.382 . S
C461 C460 1.415 1_545 S
C462 C460 1.501 . S
C462 C463 1.384 . S
C462 C467 1.408 . S
C463 H453 0.930 . S
C463 C462 1.384 . S
C463 C464 1.389 . S
C464 C463 1.389 . S
C464 C465 1.405 . S
C465 H454 0.930 . S
C465 C464 1.405 . S
C465 C466 1.364 . S
C466 C465 1.364 . S
C466 C467 1.400 . S
C467 H455 0.937 . S
C467 C462 1.408 . S
C467 C466 1.400 . S
H468 C474 0.932 . S
H469 C477 0.931 . S
H470 C479 0.923 . S
H471 C481 0.930 . S
H472 C483 0.912 . S
H473 C485 0.931 . S
C474 H468 0.932 . S
C474 C475 1.379 1_545 S
C474 C476 1.393 1_545 S
C475 C474 1.379 1_565 S
C475 C479 1.402 . S
C476 C474 1.393 1_565 S
C476 C477 1.400 . S
C477 H469 0.931 . S
C477 C476 1.400 . S
C477 C478 1.375 . S
C478 C477 1.375 . S
C478 C479 1.406 . S
C478 C480 1.501 . S
C479 H470 0.923 . S
C479 C475 1.402 . S
C479 C478 1.406 . S
C480 C478 1.501 . S
C480 C481 1.384 . S
C480 C485 1.408 1_565 S
C481 H471 0.930 . S
C481 C480 1.384 . S
C481 C482 1.389 . S
C482 C481 1.389 . S
C482 C483 1.419 . S
C483 H472 0.912 . S
C483 C482 1.419 . S
C483 C484 1.369 1_565 S
C484 C483 1.369 1_545 S
C484 C485 1.400 . S
C485 H473 0.931 . S
C485 C480 1.408 1_545 S
C485 C484 1.400 . S
H486 C492 0.930 . S
H487 C495 0.931 . S
H488 C497 0.934 . S
H489 C499 0.930 . S
H490 C501 0.930 . S
H491 C503 0.931 . S
C492 H486 0.930 . S
C492 C493 1.390 . S
C492 C494 1.387 1_655 S
C493 C492 1.390 . S
C493 C497 1.354 1_655 S
C494 C492 1.387 1_455 S
C494 C495 1.413 . S
C495 H487 0.931 . S
C495 C494 1.413 . S
C495 C496 1.375 . S
C496 C495 1.375 . S
C496 C497 1.421 . S
C496 C498 1.501 . S
C497 H488 0.934 . S
C497 C493 1.354 1_455 S
C497 C496 1.421 . S
C498 C496 1.501 . S
C498 C499 1.384 . S
C498 C503 1.408 1_455 S
C499 H489 0.930 . S
C499 C498 1.384 . S
C499 C500 1.389 . S
C500 C499 1.389 . S
C500 C501 1.405 . S
C501 H490 0.930 . S
C501 C500 1.405 . S
C501 C502 1.364 1_455 S
C502 C501 1.364 1_655 S
C502 C503 1.400 . S
C503 H491 0.931 . S
C503 C498 1.408 1_655 S
C503 C502 1.400 . S
H504 C510 0.930 . S
H505 C513 0.931 . S
H506 C515 0.931 . S
H507 C517 0.930 . S
H508 C519 0.930 . S
H509 C521 0.931 . S
C510 H504 0.930 . S
C510 C511 1.380 . S
C510 C512 1.394 . S
C511 C510 1.380 . S
C511 C515 1.382 . S
C512 C510 1.394 . S
C512 C513 1.400 . S
C513 H505 0.931 . S
C513 C512 1.400 . S
C513 C514 1.375 . S
C514 C513 1.375 . S
C514 C515 1.415 . S
C514 C516 1.501 . S
C515 H506 0.931 . S
C515 C511 1.382 . S
C515 C514 1.415 . S
C516 C514 1.501 . S
C516 C517 1.384 . S
C516 C521 1.408 . S
C517 H507 0.930 . S
C517 C516 1.384 . S
C517 C518 1.389 . S
C518 C517 1.389 . S
C518 C519 1.405 . S
C519 H508 0.930 . S
C519 C518 1.405 . S
C519 C520 1.364 . S
C520 C519 1.364 . S
C520 C521 1.400 . S
C521 H509 0.931 . S
C521 C516 1.408 . S
C521 C520 1.400 . S
H522 C528 0.930 . S
H523 C531 0.931 . S
H524 C533 0.931 . S
H525 C535 0.930 . S
H526 C537 0.930 . S
H527 C539 0.931 . S
C528 H522 0.930 . S
C528 C529 1.380 . S
C528 C530 1.394 . S
C529 C528 1.380 . S
C529 C533 1.382 . S
C530 C528 1.394 . S
C530 C531 1.400 . S
C531 H523 0.931 . S
C531 C530 1.400 . S
C531 C532 1.375 . S
C532 C531 1.375 . S
C532 C533 1.415 . S
C532 C534 1.501 . S
C533 H524 0.931 . S
C533 C529 1.382 . S
C533 C532 1.415 . S
C534 C532 1.501 . S
C534 C535 1.384 . S
C534 C539 1.408 . S
C535 H525 0.930 . S
C535 C534 1.384 . S
C535 C536 1.389 . S
C536 C535 1.389 . S
C536 C537 1.405 . S
C537 H526 0.930 . S
C537 C536 1.405 . S
C537 C538 1.364 . S
C538 C537 1.364 . S
C538 C539 1.400 . S
C539 H527 0.931 . S
C539 C534 1.408 . S
C539 C538 1.400 . S
H540 C546 0.930 . S
H541 C549 0.931 . S
H542 C551 0.931 . S
H543 C553 0.930 . S
H544 C555 0.930 . S
H545 C557 0.931 . S
C546 H540 0.930 . S
C546 C547 1.380 . S
C546 C548 1.394 . S
C547 C546 1.380 . S
C547 C551 1.382 . S
C548 C546 1.394 . S
C548 C549 1.400 . S
C549 H541 0.931 . S
C549 C548 1.400 . S
C549 C550 1.375 . S
C550 C549 1.375 . S
C550 C551 1.415 . S
C550 C552 1.501 . S
C551 H542 0.931 . S
C551 C547 1.382 . S
C551 C550 1.415 . S
C552 C550 1.501 . S
C552 C553 1.384 . S
C552 C557 1.408 . S
C553 H543 0.930 . S
C553 C552 1.384 . S
C553 C554 1.389 . S
C554 C553 1.389 . S
C554 C555 1.405 . S
C555 H544 0.930 . S
C555 C554 1.405 . S
C555 C556 1.364 . S
C556 C555 1.364 . S
C556 C557 1.400 . S
C557 H545 0.931 . S
C557 C552 1.408 . S
C557 C556 1.400 . S
H558 C564 0.930 . S
H559 C567 0.931 . S
H560 C569 0.931 . S
H561 C571 0.930 . S
H562 C573 0.930 . S
H563 C575 0.931 . S
C564 H558 0.930 . S
C564 C565 1.380 . S
C564 C566 1.394 . S
C565 C564 1.380 . S
C565 C569 1.382 . S
C566 C564 1.394 . S
C566 C567 1.400 . S
C567 H559 0.931 . S
C567 C566 1.400 . S
C567 C568 1.375 . S
C568 C567 1.375 . S
C568 C569 1.415 . S
C568 C570 1.501 . S
C569 H560 0.931 . S
C569 C565 1.382 . S
C569 C568 1.415 . S
C570 C568 1.501 . S
C570 C571 1.384 . S
C570 C575 1.408 . S
C571 H561 0.930 . S
C571 C570 1.384 . S
C571 C572 1.389 . S
C572 C571 1.389 . S
C572 C573 1.405 . S
C573 H562 0.930 . S
C573 C572 1.405 . S
C573 C574 1.364 . S
C574 C573 1.364 . S
C574 C575 1.400 . S
C575 H563 0.931 . S
C575 C570 1.408 . S
C575 C574 1.400 . S
H576 C582 0.930 . S
H577 C585 0.930 . S
H578 C586 0.930 . S
H579 C587 0.930 . S
H580 C590 0.930 . S
H581 C591 0.930 . S
C582 H576 0.930 . S
C582 C583 1.355 . S
C582 C584 1.415 . S
C583 C582 1.355 . S
C583 C585 1.419 1_655 S
C584 C582 1.415 . S
C584 C589 1.425 1_655 S
C584 C591 1.409 . S
C585 H577 0.930 . S
C585 C583 1.419 1_455 S
C585 C586 1.362 . S
C586 H578 0.930 . S
C586 C585 1.362 . S
C586 C589 1.409 . S
C587 H579 0.930 . S
C587 C588 1.355 1_455 S
C587 C589 1.415 . S
C588 C587 1.355 1_655 S
C588 C590 1.419 . S
C589 C584 1.425 1_455 S
C589 C586 1.409 . S
C589 C587 1.415 . S
C590 H580 0.930 . S
C590 C588 1.419 . S
C590 C591 1.362 . S
C591 H581 0.930 . S
C591 C584 1.409 . S
C591 C590 1.362 . S
H592 C598 0.930 . S
H593 C601 0.930 . S
H594 C602 0.930 . S
H595 C603 0.930 . S
H596 C606 0.930 . S
H597 C607 0.930 . S
C598 H592 0.930 . S
C598 C599 1.355 . S
C598 C600 1.415 . S
C599 C598 1.355 . S
C599 C601 1.419 . S
C600 C598 1.415 . S
C600 C605 1.425 . S
C600 C607 1.409 . S
C601 H593 0.930 . S
C601 C599 1.419 . S
C601 C602 1.362 . S
C602 H594 0.930 . S
C602 C601 1.362 . S
C602 C605 1.409 . S
C603 H595 0.930 . S
C603 C604 1.355 . S
C603 C605 1.415 . S
C604 C603 1.355 . S
C604 C606 1.419 . S
C605 C600 1.425 . S
C605 C602 1.409 . S
C605 C603 1.415 . S
C606 H596 0.930 . S
C606 C604 1.419 . S
C606 C607 1.362 . S
C607 H597 0.930 . S
C607 C600 1.409 . S
C607 C606 1.362 . S
H608 C614 0.930 . S
H609 C617 0.934 . S
H610 C618 0.930 . S
H611 C619 0.930 1_565 S
H612 C622 0.930 . S
H613 C623 0.930 . S
C614 H608 0.930 . S
C614 C615 1.355 . S
C614 C616 1.415 . S
C615 C614 1.355 . S
C615 C617 1.406 1_545 S
C616 C614 1.415 . S
C616 C621 1.425 . S
C616 C623 1.409 . S
C617 H609 0.934 . S
C617 C615 1.406 1_565 S
C617 C618 1.371 . S
C618 H610 0.930 . S
C618 C617 1.371 . S
C618 C621 1.409 1_565 S
C619 H611 0.930 1_545 S
C619 C620 1.354 . S
C619 C621 1.414 . S
C620 C619 1.354 . S
C620 C622 1.419 . S
C621 C616 1.425 . S
C621 C618 1.409 1_545 S
C621 C619 1.414 . S
C622 H612 0.930 . S
C622 C620 1.419 . S
C622 C623 1.362 . S
C623 H613 0.930 . S
C623 C616 1.409 . S
C623 C622 1.362 . S
H624 C630 0.930 . S
H625 C633 0.930 . S
H626 C634 0.930 . S
H627 C635 0.930 . S
H628 C638 0.930 . S
H629 C639 0.930 . S
C630 H624 0.930 . S
C630 C631 1.355 . S
C630 C632 1.415 . S
C631 C630 1.355 . S
C631 C633 1.419 1_565 S
C632 C630 1.415 . S
C632 C637 1.424 1_565 S
C632 C639 1.409 . S
C633 H625 0.930 . S
C633 C631 1.419 1_545 S
C633 C634 1.362 . S
C634 H626 0.930 . S
C634 C633 1.362 . S
C634 C637 1.412 . S
C635 H627 0.930 . S
C635 C636 1.355 1_545 S
C635 C637 1.414 . S
C636 C635 1.355 1_565 S
C636 C638 1.419 . S
C637 C632 1.424 1_545 S
C637 C634 1.412 . S
C637 C635 1.414 . S
C638 H628 0.930 . S
C638 C636 1.419 . S
C638 C639 1.362 . S
C639 H629 0.930 . S
C639 C632 1.409 . S
C639 C638 1.362 . S
H640 C646 0.930 . S
H641 C649 0.930 . S
H642 C650 0.930 . S
H643 C651 0.930 . S
H644 C654 0.930 . S
H645 C655 0.930 . S
C646 H640 0.930 . S
C646 C647 1.355 1_655 S
C646 C648 1.413 . S
C647 C646 1.355 1_455 S
C647 C649 1.419 . S
C648 C646 1.413 . S
C648 C653 1.425 1_655 S
C648 C655 1.411 . S
C649 H641 0.930 . S
C649 C647 1.419 . S
C649 C650 1.362 . S
C650 H642 0.930 . S
C650 C649 1.362 . S
C650 C653 1.409 . S
C651 H643 0.930 . S
C651 C652 1.355 . S
C651 C653 1.415 . S
C652 C651 1.355 . S
C652 C654 1.419 1_455 S
C653 C648 1.425 1_455 S
C653 C650 1.409 . S
C653 C651 1.415 . S
C654 H644 0.930 . S
C654 C652 1.419 1_655 S
C654 C655 1.362 . S
C655 H645 0.930 . S
C655 C648 1.411 . S
C655 C654 1.362 . S
H656 C662 0.930 . S
H657 C665 0.930 . S
H658 C666 0.930 . S
H659 C667 0.930 . S
H660 C670 0.930 . S
H661 C671 0.930 . S
C662 H656 0.930 . S
C662 C663 1.355 . S
C662 C664 1.415 . S
C663 C662 1.355 . S
C663 C665 1.419 . S
C664 C662 1.415 . S
C664 C669 1.425 . S
C664 C671 1.409 . S
C665 H657 0.930 . S
C665 C663 1.419 . S
C665 C666 1.362 . S
C666 H658 0.930 . S
C666 C665 1.362 . S
C666 C669 1.409 . S
C667 H659 0.930 . S
C667 C668 1.355 . S
C667 C669 1.415 . S
C668 C667 1.355 . S
C668 C670 1.419 . S
C669 C664 1.425 . S
C669 C666 1.409 . S
C669 C667 1.415 . S
C670 H660 0.930 . S
C670 C668 1.419 . S
C670 C671 1.362 . S
C671 H661 0.930 . S
C671 C664 1.409 . S
C671 C670 1.362 . S
H672 C678 0.930 . S
H673 C681 0.930 . S
H674 C682 0.930 . S
H675 C683 0.930 . S
H676 C686 0.930 . S
H677 C687 0.930 . S
C678 H672 0.930 . S
C678 C679 1.355 . S
C678 C680 1.415 . S
C679 C678 1.355 . S
C679 C681 1.419 1_455 S
C680 C678 1.415 . S
C680 C685 1.424 . S
C680 C687 1.409 . S
C681 H673 0.930 . S
C681 C679 1.419 1_655 S
C681 C682 1.362 . S
C682 H674 0.930 . S
C682 C681 1.362 . S
C682 C685 1.406 1_655 S
C683 H675 0.930 . S
C683 C684 1.355 1_655 S
C683 C685 1.419 1_655 S
C684 C683 1.355 1_455 S
C684 C686 1.419 . S
C685 C680 1.424 . S
C685 C682 1.406 1_455 S
C685 C683 1.419 1_455 S
C686 H676 0.930 . S
C686 C684 1.419 . S
C686 C687 1.362 . S
C687 H677 0.930 . S
C687 C680 1.409 . S
C687 C686 1.362 . S
H688 C694 0.930 . S
H689 C697 0.930 . S
H690 C698 0.930 . S
H691 C699 0.930 . S
H692 C702 0.930 . S
H693 C703 0.930 . S
C694 H688 0.930 . S
C694 C695 1.355 . S
C694 C696 1.415 . S
C695 C694 1.355 . S
C695 C697 1.419 . S
C696 C694 1.415 . S
C696 C701 1.425 . S
C696 C703 1.409 . S
C697 H689 0.930 . S
C697 C695 1.419 . S
C697 C698 1.362 . S
C698 H690 0.930 . S
C698 C697 1.362 . S
C698 C701 1.409 . S
C699 H691 0.930 . S
C699 C700 1.355 . S
C699 C701 1.415 . S
C700 C699 1.355 . S
C700 C702 1.419 . S
C701 C696 1.425 . S
C701 C698 1.409 . S
C701 C699 1.415 . S
C702 H692 0.930 . S
C702 C700 1.419 . S
C702 C703 1.362 . S
C703 H693 0.930 . S
C703 C696 1.409 . S
C703 C702 1.362 . S
H704 C710 0.923 . S
H705 C713 0.930 . S
H706 C714 0.930 . S
H707 C715 0.930 . S
H708 C718 0.930 . S
H709 C719 0.924 . S
C710 H704 0.923 . S
C710 C711 1.355 . S
C710 C712 1.415 . S
C711 C710 1.355 . S
C711 C713 1.419 . S
C712 C710 1.415 . S
C712 C717 1.425 . S
C712 C719 1.407 1_565 S
C713 H705 0.930 . S
C713 C711 1.419 . S
C713 C714 1.362 . S
C714 H706 0.930 . S
C714 C713 1.362 . S
C714 C717 1.409 . S
C715 H707 0.930 . S
C715 C716 1.355 . S
C715 C717 1.415 . S
C716 C715 1.355 . S
C716 C718 1.419 1_565 S
C717 C712 1.425 . S
C717 C714 1.409 . S
C717 C715 1.415 . S
C718 H708 0.930 . S
C718 C716 1.419 1_545 S
C718 C719 1.370 . S
C719 H709 0.924 . S
C719 C712 1.407 1_545 S
C719 C718 1.370 . S
H720 C726 0.930 . S
H721 C729 0.930 . S
H722 C730 0.913 . S
H723 C731 0.916 . S
H724 C734 0.930 . S
H725 C735 0.930 . S
C726 H720 0.930 . S
C726 C727 1.355 . S
C726 C728 1.415 . S
C727 C726 1.355 . S
C727 C729 1.419 . S
C728 C726 1.415 . S
C728 C733 1.425 . S
C728 C735 1.409 . S
C729 H721 0.930 . S
C729 C727 1.419 . S
C729 C730 1.362 . S
C730 H722 0.913 . S
C730 C729 1.362 . S
C730 C733 1.409 . S
C731 H723 0.916 . S
C731 C732 1.355 . S
C731 C733 1.415 . S
C732 C731 1.355 . S
C732 C734 1.419 . S
C733 C728 1.425 . S
C733 C730 1.409 . S
C733 C731 1.415 . S
C734 H724 0.930 . S
C734 C732 1.419 . S
C734 C735 1.362 . S
C735 H725 0.930 . S
C735 C728 1.409 . S
C735 C734 1.362 . S
H736 C742 0.930 . S
H737 C745 0.930 . S
H738 C746 0.930 . S
H739 C747 0.930 . S
H740 C750 0.930 . S
H741 C751 0.930 . S
C742 H736 0.930 . S
C742 C743 1.355 . S
C742 C744 1.415 . S
C743 C742 1.355 . S
C743 C745 1.419 1_655 S
C744 C742 1.415 . S
C744 C749 1.425 1_655 S
C744 C751 1.409 . S
C745 H737 0.930 . S
C745 C743 1.419 1_455 S
C745 C746 1.362 . S
C746 H738 0.930 . S
C746 C745 1.362 . S
C746 C749 1.409 . S
C747 H739 0.930 . S
C747 C748 1.355 1_455 S
C747 C749 1.415 . S
C748 C747 1.355 1_655 S
C748 C750 1.419 . S
C749 C744 1.425 1_455 S
C749 C746 1.409 . S
C749 C747 1.415 . S
C750 H740 0.930 . S
C750 C748 1.419 . S
C750 C751 1.362 . S
C751 H741 0.930 . S
C751 C744 1.409 . S
C751 C750 1.362 . S
H752 C758 0.930 . S
H753 C761 0.930 . S
H754 C762 0.930 . S
H755 C763 0.930 . S
H756 C766 0.930 . S
H757 C767 0.930 . S
C758 H752 0.930 . S
C758 C759 1.355 . S
C758 C760 1.415 . S
C759 C758 1.355 . S
C759 C761 1.419 . S
C760 C758 1.415 . S
C760 C765 1.425 . S
C760 C767 1.409 . S
C761 H753 0.930 . S
C761 C759 1.419 . S
C761 C762 1.362 . S
C762 H754 0.930 . S
C762 C761 1.362 . S
C762 C765 1.409 . S
C763 H755 0.930 . S
C763 C764 1.355 . S
C763 C765 1.415 . S
C764 C763 1.355 . S
C764 C766 1.419 . S
C765 C760 1.425 . S
C765 C762 1.409 . S
C765 C763 1.415 . S
C766 H756 0.930 . S
C766 C764 1.419 . S
C766 C767 1.362 . S
C767 H757 0.930 . S
C767 C760 1.409 . S
C767 C766 1.362 . S
H768 C774 0.930 . S
H769 C777 0.930 . S
H770 C778 0.930 . S
H771 C779 0.930 . S
H772 C782 0.930 . S
H773 C783 0.930 . S
C774 H768 0.930 . S
C774 C775 1.355 . S
C774 C776 1.415 . S
C775 C774 1.355 . S
C775 C777 1.419 . S
C776 C774 1.415 . S
C776 C781 1.425 . S
C776 C783 1.409 . S
C777 H769 0.930 . S
C777 C775 1.419 . S
C777 C778 1.362 . S
C778 H770 0.930 . S
C778 C777 1.362 . S
C778 C781 1.409 . S
C779 H771 0.930 . S
C779 C780 1.355 . S
C779 C781 1.415 . S
C780 C779 1.355 . S
C780 C782 1.419 . S
C781 C776 1.425 . S
C781 C778 1.409 . S
C781 C779 1.415 . S
C782 H772 0.930 . S
C782 C780 1.419 . S
C782 C783 1.362 . S
C783 H773 0.930 . S
C783 C776 1.409 . S
C783 C782 1.362 . S
H784 C790 0.930 . S
H785 C793 0.930 . S
H786 C794 0.930 . S
H787 C795 0.930 . S
H788 C798 0.930 . S
H789 C799 0.930 . S
C790 H784 0.930 . S
C790 C791 1.355 . S
C790 C792 1.415 . S
C791 C790 1.355 . S
C791 C793 1.419 . S
C792 C790 1.415 . S
C792 C797 1.425 . S
C792 C799 1.409 . S
C793 H785 0.930 . S
C793 C791 1.419 . S
C793 C794 1.362 . S
C794 H786 0.930 . S
C794 C793 1.362 . S
C794 C797 1.409 . S
C795 H787 0.930 . S
C795 C796 1.355 . S
C795 C797 1.415 . S
C796 C795 1.355 . S
C796 C798 1.419 . S
C797 C792 1.425 . S
C797 C794 1.409 . S
C797 C795 1.415 . S
C798 H788 0.930 . S
C798 C796 1.419 . S
C798 C799 1.362 . S
C799 H789 0.930 . S
C799 C792 1.409 . S
C799 C798 1.362 . S
H800 C806 0.930 . S
H801 C809 0.930 . S
H802 C810 0.930 . S
H803 C811 0.930 . S
H804 C814 0.930 . S
H805 C815 0.930 . S
C806 H800 0.930 . S
C806 C807 1.355 . S
C806 C808 1.415 . S
C807 C806 1.355 . S
C807 C809 1.419 . S
C808 C806 1.415 . S
C808 C813 1.425 . S
C808 C815 1.409 . S
C809 H801 0.930 . S
C809 C807 1.419 . S
C809 C810 1.362 . S
C810 H802 0.930 . S
C810 C809 1.362 . S
C810 C813 1.409 . S
C811 H803 0.930 . S
C811 C812 1.355 . S
C811 C813 1.415 . S
C812 C811 1.355 . S
C812 C814 1.419 . S
C813 C808 1.425 . S
C813 C810 1.409 . S
C813 C811 1.415 . S
C814 H804 0.930 . S
C814 C812 1.419 . S
C814 C815 1.362 . S
C815 H805 0.930 . S
C815 C808 1.409 . S
C815 C814 1.362 . S
H816 C822 0.930 . S
H817 C825 0.930 . S
H818 C826 0.930 . S
H819 C827 0.930 . S
H820 C830 0.930 . S
H821 C831 0.930 . S
C822 H816 0.930 . S
C822 C823 1.355 . S
C822 C824 1.415 . S
C823 C822 1.355 . S
C823 C825 1.419 . S
C824 C822 1.415 . S
C824 C829 1.425 . S
C824 C831 1.409 . S
C825 H817 0.930 . S
C825 C823 1.419 . S
C825 C826 1.362 . S
C826 H818 0.930 . S
C826 C825 1.362 . S
C826 C829 1.409 . S
C827 H819 0.930 . S
C827 C828 1.355 . S
C827 C829 1.415 . S
C828 C827 1.355 . S
C828 C830 1.419 . S
C829 C824 1.425 . S
C829 C826 1.409 . S
C829 C827 1.415 . S
C830 H820 0.930 . S
C830 C828 1.419 . S
C830 C831 1.362 . S
C831 H821 0.930 . S
C831 C824 1.409 . S
C831 C830 1.362 . S
H832 C838 0.930 . S
H833 C841 0.930 . S
H834 C842 0.930 . S
H835 C843 0.930 . S
H836 C846 0.930 . S
H837 C847 0.930 . S
C838 H832 0.930 . S
C838 C839 1.355 . S
C838 C840 1.415 . S
C839 C838 1.355 . S
C839 C841 1.419 . S
C840 C838 1.415 . S
C840 C845 1.425 . S
C840 C847 1.409 . S
C841 H833 0.930 . S
C841 C839 1.419 . S
C841 C842 1.362 . S
C842 H834 0.930 . S
C842 C841 1.362 . S
C842 C845 1.409 . S
C843 H835 0.930 . S
C843 C844 1.355 . S
C843 C845 1.415 . S
C844 C843 1.355 . S
C844 C846 1.419 . S
C845 C840 1.425 . S
C845 C842 1.409 . S
C845 C843 1.415 . S
C846 H836 0.930 . S
C846 C844 1.419 . S
C846 C847 1.362 . S
C847 H837 0.930 . S
C847 C840 1.409 . S
C847 C846 1.362 . S
H848 C854 0.930 . S
H849 C857 0.930 . S
H850 C858 0.930 . S
H851 C859 0.930 . S
H852 C862 0.930 . S
H853 C863 0.930 . S
C854 H848 0.930 . S
C854 C855 1.355 . S
C854 C856 1.415 . S
C855 C854 1.355 . S
C855 C857 1.419 . S
C856 C854 1.415 . S
C856 C861 1.425 . S
C856 C863 1.409 . S
C857 H849 0.930 . S
C857 C855 1.419 . S
C857 C858 1.362 . S
C858 H850 0.930 . S
C858 C857 1.362 . S
C858 C861 1.409 . S
C859 H851 0.930 . S
C859 C860 1.355 . S
C859 C861 1.415 . S
C860 C859 1.355 . S
C860 C862 1.419 . S
C861 C856 1.425 . S
C861 C858 1.409 . S
C861 C859 1.415 . S
C862 H852 0.930 . S
C862 C860 1.419 . S
C862 C863 1.362 . S
C863 H853 0.930 . S
C863 C856 1.409 . S
C863 C862 1.362 . S
H864 C870 0.930 . S
H865 C873 0.930 . S
H866 C874 0.930 . S
H867 C875 0.930 . S
H868 C878 0.930 . S
H869 C879 0.930 . S
C870 H864 0.930 . S
C870 C871 1.355 . S
C870 C872 1.415 . S
C871 C870 1.355 . S
C871 C873 1.419 . S
C872 C870 1.415 . S
C872 C877 1.425 . S
C872 C879 1.409 . S
C873 H865 0.930 . S
C873 C871 1.419 . S
C873 C874 1.362 . S
C874 H866 0.930 . S
C874 C873 1.362 . S
C874 C877 1.409 . S
C875 H867 0.930 . S
C875 C876 1.355 . S
C875 C877 1.415 . S
C876 C875 1.355 . S
C876 C878 1.419 . S
C877 C872 1.425 . S
C877 C874 1.409 . S
C877 C875 1.415 . S
C878 H868 0.930 . S
C878 C876 1.419 . S
C878 C879 1.362 . S
C879 H869 0.930 . S
C879 C872 1.409 . S
C879 C878 1.362 . S
H880 C886 0.930 . S
H881 C889 0.930 . S
H882 C890 0.930 . S
H883 C891 0.930 . S
H884 C894 0.930 . S
H885 C895 0.930 . S
C886 H880 0.930 . S
C886 C887 1.355 . S
C886 C888 1.415 . S
C887 C886 1.355 . S
C887 C889 1.419 . S
C888 C886 1.415 . S
C888 C893 1.425 . S
C888 C895 1.409 . S
C889 H881 0.930 . S
C889 C887 1.419 . S
C889 C890 1.362 . S
C890 H882 0.930 . S
C890 C889 1.362 . S
C890 C893 1.409 . S
C891 H883 0.930 . S
C891 C892 1.355 . S
C891 C893 1.415 . S
C892 C891 1.355 . S
C892 C894 1.419 . S
C893 C888 1.425 . S
C893 C890 1.409 . S
C893 C891 1.415 . S
C894 H884 0.930 . S
C894 C892 1.419 . S
C894 C895 1.362 . S
C895 H885 0.930 . S
C895 C888 1.409 . S
C895 C894 1.362 . S
H896 C902 0.930 . S
H897 C905 0.930 . S
H898 C906 0.930 . S
H899 C907 0.930 . S
H900 C910 0.930 . S
H901 C911 0.930 . S
C902 H896 0.930 . S
C902 C903 1.355 . S
C902 C904 1.415 . S
C903 C902 1.355 . S
C903 C905 1.419 . S
C904 C902 1.415 . S
C904 C909 1.425 . S
C904 C911 1.409 . S
C905 H897 0.930 . S
C905 C903 1.419 . S
C905 C906 1.362 . S
C906 H898 0.930 . S
C906 C905 1.362 . S
C906 C909 1.409 . S
C907 H899 0.930 . S
C907 C908 1.355 . S
C907 C909 1.415 . S
C908 C907 1.355 . S
C908 C910 1.419 . S
C909 C904 1.425 . S
C909 C906 1.409 . S
C909 C907 1.415 . S
C910 H900 0.930 . S
C910 C908 1.419 . S
C910 C911 1.362 . S
C911 H901 0.930 . S
C911 C904 1.409 . S
C911 C910 1.362 . S
H912 C918 0.930 . S
H913 C921 0.930 . S
H914 C922 0.930 . S
H915 C923 0.930 . S
H916 C926 0.930 . S
H917 C927 0.930 . S
C918 H912 0.930 . S
C918 C919 1.355 . S
C918 C920 1.415 . S
C919 C918 1.355 . S
C919 C921 1.419 . S
C920 C918 1.415 . S
C920 C925 1.425 . S
C920 C927 1.409 . S
C921 H913 0.930 . S
C921 C919 1.419 . S
C921 C922 1.362 . S
C922 H914 0.930 . S
C922 C921 1.362 . S
C922 C925 1.409 . S
C923 H915 0.930 . S
C923 C924 1.355 . S
C923 C925 1.415 . S
C924 C923 1.355 . S
C924 C926 1.419 . S
C925 C920 1.425 . S
C925 C922 1.409 . S
C925 C923 1.415 . S
C926 H916 0.930 . S
C926 C924 1.419 . S
C926 C927 1.362 . S
C927 H917 0.930 . S
C927 C920 1.409 . S
C927 C926 1.362 . S
H928 C934 0.930 . S
H929 C937 0.930 . S
H930 C938 0.930 . S
H931 C939 0.930 . S
H932 C942 0.930 . S
H933 C943 0.930 . S
C934 H928 0.930 . S
C934 C935 1.355 . S
C934 C936 1.415 . S
C935 C934 1.355 . S
C935 C937 1.419 . S
C936 C934 1.415 . S
C936 C941 1.425 . S
C936 C943 1.409 . S
C937 H929 0.930 . S
C937 C935 1.419 . S
C937 C938 1.362 . S
C938 H930 0.930 . S
C938 C937 1.362 . S
C938 C941 1.409 . S
C939 H931 0.930 . S
C939 C940 1.355 . S
C939 C941 1.415 . S
C940 C939 1.355 . S
C940 C942 1.419 . S
C941 C936 1.425 . S
C941 C938 1.409 . S
C941 C939 1.415 . S
C942 H932 0.930 . S
C942 C940 1.419 . S
C942 C943 1.362 . S
C943 H933 0.930 . S
C943 C936 1.409 . S
C943 C942 1.362 . S
H944 C950 0.930 . S
H945 C953 0.930 . S
H946 C954 0.930 . S
H947 C955 0.930 . S
H948 C958 0.930 . S
H949 C959 0.930 . S
C950 H944 0.930 . S
C950 C951 1.355 . S
C950 C952 1.415 . S
C951 C950 1.355 . S
C951 C953 1.419 . S
C952 C950 1.415 . S
C952 C957 1.425 . S
C952 C959 1.409 . S
C953 H945 0.930 . S
C953 C951 1.419 . S
C953 C954 1.362 . S
C954 H946 0.930 . S
C954 C953 1.362 . S
C954 C957 1.409 . S
C955 H947 0.930 . S
C955 C956 1.355 . S
C955 C957 1.415 . S
C956 C955 1.355 . S
C956 C958 1.419 . S
C957 C952 1.425 . S
C957 C954 1.409 . S
C957 C955 1.415 . S
C958 H948 0.930 . S
C958 C956 1.419 . S
C958 C959 1.362 . S
C959 H949 0.930 . S
C959 C952 1.409 . S
C959 C958 1.362 . S
H960 C966 0.930 . S
H961 C969 0.930 . S
H962 C970 0.930 . S
H963 C971 0.930 . S
H964 C974 0.930 . S
H965 C975 0.930 . S
C966 H960 0.930 . S
C966 C967 1.355 . S
C966 C968 1.415 . S
C967 C966 1.355 . S
C967 C969 1.419 . S
C968 C966 1.415 . S
C968 C973 1.425 . S
C968 C975 1.409 . S
C969 H961 0.930 . S
C969 C967 1.419 . S
C969 C970 1.362 . S
C970 H962 0.930 . S
C970 C969 1.362 . S
C970 C973 1.409 . S
C971 H963 0.930 . S
C971 C972 1.355 . S
C971 C973 1.415 . S
C972 C971 1.355 . S
C972 C974 1.419 . S
C973 C968 1.425 . S
C973 C970 1.409 . S
C973 C971 1.415 . S
C974 H964 0.930 . S
C974 C972 1.419 . S
C974 C975 1.362 . S
C975 H965 0.930 . S
C975 C968 1.409 . S
C975 C974 1.362 . S
H976 C982 0.930 . S
H977 C985 0.930 . S
H978 C986 0.930 . S
H979 C987 0.930 . S
H980 C990 0.930 . S
H981 C991 0.930 . S
C982 H976 0.930 . S
C982 C983 1.355 . S
C982 C984 1.415 . S
C983 C982 1.355 . S
C983 C985 1.419 . S
C984 C982 1.415 . S
C984 C989 1.425 . S
C984 C991 1.409 . S
C985 H977 0.930 . S
C985 C983 1.419 . S
C985 C986 1.362 . S
C986 H978 0.930 . S
C986 C985 1.362 . S
C986 C989 1.409 . S
C987 H979 0.930 . S
C987 C988 1.355 . S
C987 C989 1.415 . S
C988 C987 1.355 . S
C988 C990 1.419 . S
C989 C984 1.425 . S
C989 C986 1.409 . S
C989 C987 1.415 . S
C990 H980 0.930 . S
C990 C988 1.419 . S
C990 C991 1.362 . S
C991 H981 0.930 . S
C991 C984 1.409 . S
C991 C990 1.362 . S
H992 C998 0.930 . S
H993 C1001 0.930 . S
H994 C1002 0.930 . S
H995 C1003 0.930 . S
H996 C1006 0.930 . S
H997 C1007 0.930 . S
C998 H992 0.930 . S
C998 C999 1.355 . S
C998 C1000 1.415 . S
C999 C998 1.355 . S
C999 C1001 1.419 . S
C1000 C998 1.415 . S
C1000 C1005 1.425 . S
C1000 C1007 1.409 . S
C1001 H993 0.930 . S
C1001 C999 1.419 . S
C1001 C1002 1.362 . S
C1002 H994 0.930 . S
C1002 C1001 1.362 . S
C1002 C1005 1.409 . S
C1003 H995 0.930 . S
C1003 C1004 1.355 . S
C1003 C1005 1.415 . S
C1004 C1003 1.355 . S
C1004 C1006 1.419 . S
C1005 C1000 1.425 . S
C1005 C1002 1.409 . S
C1005 C1003 1.415 . S
C1006 H996 0.930 . S
C1006 C1004 1.419 . S
C1006 C1007 1.362 . S
C1007 H997 0.930 . S
C1007 C1000 1.409 . S
C1007 C1006 1.362 . S
H1008 C1014 0.930 . S
H1009 C1017 0.930 . S
H1010 C1018 0.930 . S
H1011 C1019 0.930 . S
H1012 C1022 0.930 . S
H1013 C1023 0.930 . S
C1014 H1008 0.930 . S
C1014 C1015 1.355 . S
C1014 C1016 1.415 . S
C1015 C1014 1.355 . S
C1015 C1017 1.419 . S
C1016 C1014 1.415 . S
C1016 C1021 1.425 . S
C1016 C1023 1.409 . S
C1017 H1009 0.930 . S
C1017 C1015 1.419 . S
C1017 C1018 1.362 . S
C1018 H1010 0.930 . S
C1018 C1017 1.362 . S
C1018 C1021 1.409 . S
C1019 H1011 0.930 . S
C1019 C1020 1.355 . S
C1019 C1021 1.415 . S
C1020 C1019 1.355 . S
C1020 C1022 1.419 . S
C1021 C1016 1.425 . S
C1021 C1018 1.409 . S
C1021 C1019 1.415 . S
C1022 H1012 0.930 . S
C1022 C1020 1.419 . S
C1022 C1023 1.362 . S
C1023 H1013 0.930 . S
C1023 C1016 1.409 . S
C1023 C1022 1.362 . S
H1024 C1030 0.930 . S
H1025 C1033 0.930 . S
H1026 C1034 0.930 . S
H1027 C1035 0.930 . S
H1028 C1038 0.930 . S
H1029 C1039 0.930 . S
C1030 H1024 0.930 . S
C1030 C1031 1.355 . S
C1030 C1032 1.415 . S
C1031 C1030 1.355 . S
C1031 C1033 1.419 . S
C1032 C1030 1.415 . S
C1032 C1037 1.425 . S
C1032 C1039 1.409 . S
C1033 H1025 0.930 . S
C1033 C1031 1.419 . S
C1033 C1034 1.362 . S
C1034 H1026 0.930 . S
C1034 C1033 1.362 . S
C1034 C1037 1.409 . S
C1035 H1027 0.930 . S
C1035 C1036 1.355 . S
C1035 C1037 1.415 . S
C1036 C1035 1.355 . S
C1036 C1038 1.419 . S
C1037 C1032 1.425 . S
C1037 C1034 1.409 . S
C1037 C1035 1.415 . S
C1038 H1028 0.930 . S
C1038 C1036 1.419 . S
C1038 C1039 1.362 . S
C1039 H1029 0.930 . S
C1039 C1032 1.409 . S
C1039 C1038 1.362 . S
H1040 C1046 0.930 . S
H1041 C1049 0.930 . S
H1042 C1050 0.930 . S
H1043 C1051 0.930 . S
H1044 C1054 0.930 . S
H1045 C1055 0.930 . S
C1046 H1040 0.930 . S
C1046 C1047 1.355 . S
C1046 C1048 1.415 . S
C1047 C1046 1.355 . S
C1047 C1049 1.419 . S
C1048 C1046 1.415 . S
C1048 C1053 1.425 . S
C1048 C1055 1.409 . S
C1049 H1041 0.930 . S
C1049 C1047 1.419 . S
C1049 C1050 1.362 . S
C1050 H1042 0.930 . S
C1050 C1049 1.362 . S
C1050 C1053 1.409 . S
C1051 H1043 0.930 . S
C1051 C1052 1.355 . S
C1051 C1053 1.415 . S
C1052 C1051 1.355 . S
C1052 C1054 1.419 . S
C1053 C1048 1.425 . S
C1053 C1050 1.409 . S
C1053 C1051 1.415 . S
C1054 H1044 0.930 . S
C1054 C1052 1.419 . S
C1054 C1055 1.362 . S
C1055 H1045 0.930 . S
C1055 C1048 1.409 . S
C1055 C1054 1.362 . S
H1056 C1062 0.930 . S
H1057 C1065 0.930 . S
H1058 C1066 0.930 . S
H1059 C1067 0.930 . S
H1060 C1070 0.930 . S
H1061 C1071 0.930 . S
C1062 H1056 0.930 . S
C1062 C1063 1.355 . S
C1062 C1064 1.415 . S
C1063 C1062 1.355 . S
C1063 C1065 1.419 . S
C1064 C1062 1.415 . S
C1064 C1069 1.425 . S
C1064 C1071 1.409 . S
C1065 H1057 0.930 . S
C1065 C1063 1.419 . S
C1065 C1066 1.362 . S
C1066 H1058 0.930 . S
C1066 C1065 1.362 . S
C1066 C1069 1.409 . S
C1067 H1059 0.930 . S
C1067 C1068 1.355 . S
C1067 C1069 1.415 . S
C1068 C1067 1.355 . S
C1068 C1070 1.419 . S
C1069 C1064 1.425 . S
C1069 C1066 1.409 . S
C1069 C1067 1.415 . S
C1070 H1060 0.930 . S
C1070 C1068 1.419 . S
C1070 C1071 1.362 . S
C1071 H1061 0.930 . S
C1071 C1064 1.409 . S
C1071 C1070 1.362 . S
H1072 C1078 0.930 . S
H1073 C1081 0.930 . S
H1074 C1082 0.930 . S
H1075 C1083 0.930 . S
H1076 C1086 0.930 . S
H1077 C1087 0.930 . S
C1078 H1072 0.930 . S
C1078 C1079 1.355 . S
C1078 C1080 1.415 . S
C1079 C1078 1.355 . S
C1079 C1081 1.419 . S
C1080 C1078 1.415 . S
C1080 C1085 1.425 . S
C1080 C1087 1.409 . S
C1081 H1073 0.930 . S
C1081 C1079 1.419 . S
C1081 C1082 1.362 . S
C1082 H1074 0.930 . S
C1082 C1081 1.362 . S
C1082 C1085 1.409 . S
C1083 H1075 0.930 . S
C1083 C1084 1.355 . S
C1083 C1085 1.415 . S
C1084 C1083 1.355 . S
C1084 C1086 1.419 . S
C1085 C1080 1.425 . S
C1085 C1082 1.409 . S
C1085 C1083 1.415 . S
C1086 H1076 0.930 . S
C1086 C1084 1.419 . S
C1086 C1087 1.362 . S
C1087 H1077 0.930 . S
C1087 C1080 1.409 . S
C1087 C1086 1.362 . S
H1088 C1094 0.930 . S
H1089 C1097 0.930 . S
H1090 C1098 0.930 . S
H1091 C1099 0.930 . S
H1092 C1102 0.930 . S
H1093 C1103 0.930 . S
C1094 H1088 0.930 . S
C1094 C1095 1.355 . S
C1094 C1096 1.415 . S
C1095 C1094 1.355 . S
C1095 C1097 1.419 . S
C1096 C1094 1.415 . S
C1096 C1101 1.425 . S
C1096 C1103 1.409 . S
C1097 H1089 0.930 . S
C1097 C1095 1.419 . S
C1097 C1098 1.362 . S
C1098 H1090 0.930 . S
C1098 C1097 1.362 . S
C1098 C1101 1.409 . S
C1099 H1091 0.930 . S
C1099 C1100 1.355 . S
C1099 C1101 1.415 . S
C1100 C1099 1.355 . S
C1100 C1102 1.419 . S
C1101 C1096 1.425 . S
C1101 C1098 1.409 . S
C1101 C1099 1.415 . S
C1102 H1092 0.930 . S
C1102 C1100 1.419 . S
C1102 C1103 1.362 . S
C1103 H1093 0.930 . S
C1103 C1096 1.409 . S
C1103 C1102 1.362 . S
H1104 C1110 0.930 . S
H1105 C1113 0.930 . S
H1106 C1114 0.930 . S
H1107 C1115 0.930 . S
H1108 C1118 0.930 . S
H1109 C1119 0.930 . S
C1110 H1104 0.930 . S
C1110 C1111 1.355 . S
C1110 C1112 1.415 . S
C1111 C1110 1.355 . S
C1111 C1113 1.419 . S
C1112 C1110 1.415 . S
C1112 C1117 1.425 . S
C1112 C1119 1.409 . S
C1113 H1105 0.930 . S
C1113 C1111 1.419 . S
C1113 C1114 1.362 . S
C1114 H1106 0.930 . S
C1114 C1113 1.362 . S
C1114 C1117 1.409 . S
C1115 H1107 0.930 . S
C1115 C1116 1.355 . S
C1115 C1117 1.415 . S
C1116 C1115 1.355 . S
C1116 C1118 1.419 . S
C1117 C1112 1.425 . S
C1117 C1114 1.409 . S
C1117 C1115 1.415 . S
C1118 H1108 0.930 . S
C1118 C1116 1.419 . S
C1118 C1119 1.362 . S
C1119 H1109 0.930 . S
C1119 C1112 1.409 . S
C1119 C1118 1.362 . S
H1120 C1126 0.930 . S
H1121 C1129 0.930 . S
H1122 C1130 0.930 . S
H1123 C1131 0.930 . S
H1124 C1134 0.930 . S
H1125 C1135 0.930 . S
C1126 H1120 0.930 . S
C1126 C1127 1.355 . S
C1126 C1128 1.415 . S
C1127 C1126 1.355 . S
C1127 C1129 1.419 . S
C1128 C1126 1.415 . S
C1128 C1133 1.425 . S
C1128 C1135 1.409 . S
C1129 H1121 0.930 . S
C1129 C1127 1.419 . S
C1129 C1130 1.362 . S
C1130 H1122 0.930 . S
C1130 C1129 1.362 . S
C1130 C1133 1.409 . S
C1131 H1123 0.930 . S
C1131 C1132 1.355 . S
C1131 C1133 1.415 . S
C1132 C1131 1.355 . S
C1132 C1134 1.419 . S
C1133 C1128 1.425 . S
C1133 C1130 1.409 . S
C1133 C1131 1.415 . S
C1134 H1124 0.930 . S
C1134 C1132 1.419 . S
C1134 C1135 1.362 . S
C1135 H1125 0.930 . S
C1135 C1128 1.409 . S
C1135 C1134 1.362 . S
H1136 C1142 0.930 . S
H1137 C1145 0.930 . S
H1138 C1146 0.930 . S
H1139 C1147 0.930 . S
H1140 C1150 0.930 . S
H1141 C1151 0.930 . S
C1142 H1136 0.930 . S
C1142 C1143 1.355 . S
C1142 C1144 1.415 . S
C1143 C1142 1.355 . S
C1143 C1145 1.419 . S
C1144 C1142 1.415 . S
C1144 C1149 1.425 . S
C1144 C1151 1.409 . S
C1145 H1137 0.930 . S
C1145 C1143 1.419 . S
C1145 C1146 1.362 . S
C1146 H1138 0.930 . S
C1146 C1145 1.362 . S
C1146 C1149 1.409 . S
C1147 H1139 0.930 . S
C1147 C1148 1.355 . S
C1147 C1149 1.415 . S
C1148 C1147 1.355 . S
C1148 C1150 1.419 . S
C1149 C1144 1.425 . S
C1149 C1146 1.409 . S
C1149 C1147 1.415 . S
C1150 H1140 0.930 . S
C1150 C1148 1.419 . S
C1150 C1151 1.362 . S
C1151 H1141 0.930 . S
C1151 C1144 1.409 . S
C1151 C1150 1.362 . S
H1152 C1158 0.930 . S
H1153 C1161 0.930 . S
H1154 C1162 0.930 . S
H1155 C1163 0.930 . S
H1156 C1166 0.930 . S
H1157 C1167 0.930 . S
C1158 H1152 0.930 . S
C1158 C1159 1.355 . S
C1158 C1160 1.415 . S
C1159 C1158 1.355 . S
C1159 C1161 1.419 . S
C1160 C1158 1.415 . S
C1160 C1165 1.425 . S
C1160 C1167 1.409 . S
C1161 H1153 0.930 . S
C1161 C1159 1.419 . S
C1161 C1162 1.362 . S
C1162 H1154 0.930 . S
C1162 C1161 1.362 . S
C1162 C1165 1.409 . S
C1163 H1155 0.930 . S
C1163 C1164 1.355 . S
C1163 C1165 1.415 . S
C1164 C1163 1.355 . S
C1164 C1166 1.419 . S
C1165 C1160 1.425 . S
C1165 C1162 1.409 . S
C1165 C1163 1.415 . S
C1166 H1156 0.930 . S
C1166 C1164 1.419 . S
C1166 C1167 1.362 . S
C1167 H1157 0.930 . S
C1167 C1160 1.409 . S
C1167 C1166 1.362 . S
H1168 C1174 0.930 . S
H1169 C1177 0.930 . S
H1170 C1178 0.930 . S
H1171 C1179 0.930 . S
H1172 C1182 0.930 . S
H1173 C1183 0.930 . S
C1174 H1168 0.930 . S
C1174 C1175 1.355 . S
C1174 C1176 1.415 . S
C1175 C1174 1.355 . S
C1175 C1177 1.419 . S
C1176 C1174 1.415 . S
C1176 C1181 1.425 . S
C1176 C1183 1.409 . S
C1177 H1169 0.930 . S
C1177 C1175 1.419 . S
C1177 C1178 1.362 . S
C1178 H1170 0.930 . S
C1178 C1177 1.362 . S
C1178 C1181 1.409 . S
C1179 H1171 0.930 . S
C1179 C1180 1.355 . S
C1179 C1181 1.415 . S
C1180 C1179 1.355 . S
C1180 C1182 1.419 . S
C1181 C1176 1.425 . S
C1181 C1178 1.409 . S
C1181 C1179 1.415 . S
C1182 H1172 0.930 . S
C1182 C1180 1.419 . S
C1182 C1183 1.362 . S
C1183 H1173 0.930 . S
C1183 C1176 1.409 . S
C1183 C1182 1.362 . S
H1184 C1190 0.930 . S
H1185 C1193 0.930 . S
H1186 C1194 0.930 . S
H1187 C1195 0.930 . S
H1188 C1198 0.930 . S
H1189 C1199 0.930 . S
C1190 H1184 0.930 . S
C1190 C1191 1.355 . S
C1190 C1192 1.415 . S
C1191 C1190 1.355 . S
C1191 C1193 1.419 . S
C1192 C1190 1.415 . S
C1192 C1197 1.425 . S
C1192 C1199 1.409 . S
C1193 H1185 0.930 . S
C1193 C1191 1.419 . S
C1193 C1194 1.362 . S
C1194 H1186 0.930 . S
C1194 C1193 1.362 . S
C1194 C1197 1.409 . S
C1195 H1187 0.930 . S
C1195 C1196 1.355 . S
C1195 C1197 1.415 . S
C1196 C1195 1.355 . S
C1196 C1198 1.419 . S
C1197 C1192 1.425 . S
C1197 C1194 1.409 . S
C1197 C1195 1.415 . S
C1198 H1188 0.930 . S
C1198 C1196 1.419 . S
C1198 C1199 1.362 . S
C1199 H1189 0.930 . S
C1199 C1192 1.409 . S
C1199 C1198 1.362 . S
H1200 C1206 0.930 . S
H1201 C1209 0.930 1_554 S
H1202 C1210 0.930 . S
H1203 C1211 0.930 . S
H1204 C1214 0.930 . S
H1205 C1215 0.930 . S
C1206 H1200 0.930 . S
C1206 C1207 1.355 . S
C1206 C1208 1.415 . S
C1207 C1206 1.355 . S
C1207 C1209 1.419 . S
C1208 C1206 1.415 . S
C1208 C1213 1.425 . S
C1208 C1215 1.409 . S
C1209 H1201 0.930 1_556 S
C1209 C1207 1.419 . S
C1209 C1210 1.362 . S
C1210 H1202 0.930 . S
C1210 C1209 1.362 . S
C1210 C1213 1.409 . S
C1211 H1203 0.930 . S
C1211 C1212 1.355 . S
C1211 C1213 1.415 . S
C1212 C1211 1.355 . S
C1212 C1214 1.419 . S
C1213 C1208 1.425 . S
C1213 C1210 1.409 . S
C1213 C1211 1.415 . S
C1214 H1204 0.930 . S
C1214 C1212 1.419 . S
C1214 C1215 1.362 . S
C1215 H1205 0.930 . S
C1215 C1208 1.409 . S
C1215 C1214 1.362 . S
H1216 C1222 0.930 . S
H1217 C1225 0.930 . S
H1218 C1226 0.930 . S
H1219 C1227 0.930 . S
H1220 C1230 0.930 . S
H1221 C1231 0.930 . S
C1222 H1216 0.930 . S
C1222 C1223 1.355 . S
C1222 C1224 1.415 . S
C1223 C1222 1.355 . S
C1223 C1225 1.419 1_556 S
C1224 C1222 1.415 . S
C1224 C1229 1.425 . S
C1224 C1231 1.409 . S
C1225 H1217 0.930 . S
C1225 C1223 1.419 1_554 S
C1225 C1226 1.362 . S
C1226 H1218 0.930 . S
C1226 C1225 1.362 . S
C1226 C1229 1.409 1_554 S
C1227 H1219 0.930 . S
C1227 C1228 1.355 . S
C1227 C1229 1.415 . S
C1228 C1227 1.355 . S
C1228 C1230 1.419 . S
C1229 C1224 1.425 . S
C1229 C1226 1.409 1_556 S
C1229 C1227 1.415 . S
C1230 H1220 0.930 . S
C1230 C1228 1.419 . S
C1230 C1231 1.362 . S
C1231 H1221 0.930 . S
C1231 C1224 1.409 . S
C1231 C1230 1.362 . S
H1232 C1238 0.930 . S
H1233 C1241 0.930 . S
H1234 C1242 0.930 . S
H1235 C1243 0.930 . S
H1236 C1246 0.930 . S
H1237 C1247 0.930 . S
C1238 H1232 0.930 . S
C1238 C1239 1.355 . S
C1238 C1240 1.415 . S
C1239 C1238 1.355 . S
C1239 C1241 1.419 . S
C1240 C1238 1.415 . S
C1240 C1245 1.425 . S
C1240 C1247 1.409 . S
C1241 H1233 0.930 . S
C1241 C1239 1.419 . S
C1241 C1242 1.362 . S
C1242 H1234 0.930 . S
C1242 C1241 1.362 . S
C1242 C1245 1.409 . S
C1243 H1235 0.930 . S
C1243 C1244 1.355 . S
C1243 C1245 1.415 . S
C1244 C1243 1.355 . S
C1244 C1246 1.419 . S
C1245 C1240 1.425 . S
C1245 C1242 1.409 . S
C1245 C1243 1.415 . S
C1246 H1236 0.930 . S
C1246 C1244 1.419 . S
C1246 C1247 1.362 . S
C1247 H1237 0.930 . S
C1247 C1240 1.409 . S
C1247 C1246 1.362 . S
H1248 C1254 0.930 . S
H1249 C1257 0.930 . S
H1250 C1258 0.932 . S
H1251 C1259 0.930 . S
H1252 C1262 0.930 . S
H1253 C1263 0.930 . S
C1254 H1248 0.930 . S
C1254 C1255 1.355 . S
C1254 C1256 1.415 . S
C1255 C1254 1.355 . S
C1255 C1257 1.419 1_556 S
C1256 C1254 1.415 . S
C1256 C1261 1.425 . S
C1256 C1263 1.409 . S
C1257 H1249 0.930 . S
C1257 C1255 1.419 1_554 S
C1257 C1258 1.363 . S
C1258 H1250 0.932 . S
C1258 C1257 1.363 . S
C1258 C1261 1.407 1_554 S
C1259 H1251 0.930 . S
C1259 C1260 1.355 . S
C1259 C1261 1.415 . S
C1260 C1259 1.355 . S
C1260 C1262 1.419 . S
C1261 C1256 1.425 . S
C1261 C1258 1.407 1_556 S
C1261 C1259 1.415 . S
C1262 H1252 0.930 . S
C1262 C1260 1.419 . S
C1262 C1263 1.362 . S
C1263 H1253 0.930 . S
C1263 C1256 1.409 . S
C1263 C1262 1.362 . S
H1264 C1270 0.930 . S
H1265 C1273 0.930 . S
H1266 C1274 0.930 . S
H1267 C1275 0.930 . S
H1268 C1278 0.930 . S
H1269 C1279 0.930 . S
C1270 H1264 0.930 . S
C1270 C1271 1.355 . S
C1270 C1272 1.415 . S
C1271 C1270 1.355 . S
C1271 C1273 1.419 . S
C1272 C1270 1.415 . S
C1272 C1277 1.425 . S
C1272 C1279 1.409 . S
C1273 H1265 0.930 . S
C1273 C1271 1.419 . S
C1273 C1274 1.362 . S
C1274 H1266 0.930 . S
C1274 C1273 1.362 . S
C1274 C1277 1.409 . S
C1275 H1267 0.930 . S
C1275 C1276 1.355 . S
C1275 C1277 1.415 . S
C1276 C1275 1.355 . S
C1276 C1278 1.419 . S
C1277 C1272 1.425 . S
C1277 C1274 1.409 . S
C1277 C1275 1.415 . S
C1278 H1268 0.930 . S
C1278 C1276 1.419 . S
C1278 C1279 1.362 . S
C1279 H1269 0.930 . S
C1279 C1272 1.409 . S
C1279 C1278 1.362 . S
H1280 C1286 0.930 . S
H1281 C1289 0.930 . S
H1282 C1290 0.930 . S
H1283 C1291 0.930 . S
H1284 C1294 0.930 . S
H1285 C1295 0.930 . S
C1286 H1280 0.930 . S
C1286 C1287 1.355 . S
C1286 C1288 1.415 . S
C1287 C1286 1.355 . S
C1287 C1289 1.419 . S
C1288 C1286 1.415 . S
C1288 C1293 1.425 . S
C1288 C1295 1.409 . S
C1289 H1281 0.930 . S
C1289 C1287 1.419 . S
C1289 C1290 1.362 . S
C1290 H1282 0.930 . S
C1290 C1289 1.362 . S
C1290 C1293 1.409 . S
C1291 H1283 0.930 . S
C1291 C1292 1.355 . S
C1291 C1293 1.415 . S
C1292 C1291 1.355 . S
C1292 C1294 1.419 . S
C1293 C1288 1.425 . S
C1293 C1290 1.409 . S
C1293 C1291 1.415 . S
C1294 H1284 0.930 . S
C1294 C1292 1.419 . S
C1294 C1295 1.362 . S
C1295 H1285 0.930 . S
C1295 C1288 1.409 . S
C1295 C1294 1.362 . S
H1296 C1302 0.930 . S
H1297 C1305 0.930 . S
H1298 C1306 0.930 . S
H1299 C1307 0.930 . S
H1300 C1310 0.930 . S
H1301 C1311 0.930 . S
C1302 H1296 0.930 . S
C1302 C1303 1.355 . S
C1302 C1304 1.415 . S
C1303 C1302 1.355 . S
C1303 C1305 1.419 . S
C1304 C1302 1.415 . S
C1304 C1309 1.425 . S
C1304 C1311 1.409 . S
C1305 H1297 0.930 . S
C1305 C1303 1.419 . S
C1305 C1306 1.362 . S
C1306 H1298 0.930 . S
C1306 C1305 1.362 . S
C1306 C1309 1.409 . S
C1307 H1299 0.930 . S
C1307 C1308 1.355 . S
C1307 C1309 1.415 . S
C1308 C1307 1.355 . S
C1308 C1310 1.419 . S
C1309 C1304 1.425 . S
C1309 C1306 1.409 . S
C1309 C1307 1.415 . S
C1310 H1300 0.930 . S
C1310 C1308 1.419 . S
C1310 C1311 1.362 . S
C1311 H1301 0.930 . S
C1311 C1304 1.409 . S
C1311 C1310 1.362 . S
H1312 C1318 0.930 . S
H1313 C1321 0.930 . S
H1314 C1322 0.930 . S
H1315 C1323 0.930 . S
H1316 C1326 0.930 . S
H1317 C1327 0.930 . S
C1318 H1312 0.930 . S
C1318 C1319 1.355 . S
C1318 C1320 1.415 . S
C1319 C1318 1.355 . S
C1319 C1321 1.419 . S
C1320 C1318 1.415 . S
C1320 C1325 1.425 . S
C1320 C1327 1.409 . S
C1321 H1313 0.930 . S
C1321 C1319 1.419 . S
C1321 C1322 1.362 . S
C1322 H1314 0.930 . S
C1322 C1321 1.362 . S
C1322 C1325 1.409 . S
C1323 H1315 0.930 . S
C1323 C1324 1.355 . S
C1323 C1325 1.415 . S
C1324 C1323 1.355 . S
C1324 C1326 1.419 . S
C1325 C1320 1.425 . S
C1325 C1322 1.409 . S
C1325 C1323 1.415 . S
C1326 H1316 0.930 . S
C1326 C1324 1.419 . S
C1326 C1327 1.362 . S
C1327 H1317 0.930 . S
C1327 C1320 1.409 . S
C1327 C1326 1.362 . S
H1328 C1334 0.930 . S
H1329 C1337 0.930 . S
H1330 C1338 0.930 . S
H1331 C1339 0.930 . S
H1332 C1342 0.930 . S
H1333 C1343 0.930 . S
C1334 H1328 0.930 . S
C1334 C1335 1.355 . S
C1334 C1336 1.415 . S
C1335 C1334 1.355 . S
C1335 C1337 1.419 . S
C1336 C1334 1.415 . S
C1336 C1341 1.425 . S
C1336 C1343 1.409 . S
C1337 H1329 0.930 . S
C1337 C1335 1.419 . S
C1337 C1338 1.362 . S
C1338 H1330 0.930 . S
C1338 C1337 1.362 . S
C1338 C1341 1.409 . S
C1339 H1331 0.930 . S
C1339 C1340 1.355 . S
C1339 C1341 1.415 . S
C1340 C1339 1.355 . S
C1340 C1342 1.419 . S
C1341 C1336 1.425 . S
C1341 C1338 1.409 . S
C1341 C1339 1.415 . S
C1342 H1332 0.930 . S
C1342 C1340 1.419 . S
C1342 C1343 1.362 . S
C1343 H1333 0.930 . S
C1343 C1336 1.409 . S
C1343 C1342 1.362 . S
H1344 C1350 0.930 . S
H1345 C1353 0.930 . S
H1346 C1354 0.930 . S
H1347 C1355 0.930 . S
H1348 C1358 0.930 . S
H1349 C1359 0.930 . S
C1350 H1344 0.930 . S
C1350 C1351 1.355 . S
C1350 C1352 1.415 . S
C1351 C1350 1.355 . S
C1351 C1353 1.419 . S
C1352 C1350 1.415 . S
C1352 C1357 1.425 . S
C1352 C1359 1.409 . S
C1353 H1345 0.930 . S
C1353 C1351 1.419 . S
C1353 C1354 1.362 . S
C1354 H1346 0.930 . S
C1354 C1353 1.362 . S
C1354 C1357 1.409 . S
C1355 H1347 0.930 . S
C1355 C1356 1.355 . S
C1355 C1357 1.415 . S
C1356 C1355 1.355 . S
C1356 C1358 1.419 . S
C1357 C1352 1.425 . S
C1357 C1354 1.409 . S
C1357 C1355 1.415 . S
C1358 H1348 0.930 . S
C1358 C1356 1.419 . S
C1358 C1359 1.362 . S
C1359 H1349 0.930 . S
C1359 C1352 1.409 . S
C1359 C1358 1.362 . S
H1360 C1366 0.930 . S
H1361 C1369 0.930 . S
H1362 C1370 0.930 . S
H1363 C1371 0.930 . S
H1364 C1374 0.930 . S
H1365 C1375 0.930 . S
C1366 H1360 0.930 . S
C1366 C1367 1.355 . S
C1366 C1368 1.415 . S
C1367 C1366 1.355 . S
C1367 C1369 1.419 . S
C1368 C1366 1.415 . S
C1368 C1373 1.425 . S
C1368 C1375 1.409 . S
C1369 H1361 0.930 . S
C1369 C1367 1.419 . S
C1369 C1370 1.362 . S
C1370 H1362 0.930 . S
C1370 C1369 1.362 . S
C1370 C1373 1.409 . S
C1371 H1363 0.930 . S
C1371 C1372 1.355 . S
C1371 C1373 1.415 . S
C1372 C1371 1.355 . S
C1372 C1374 1.419 . S
C1373 C1368 1.425 . S
C1373 C1370 1.409 . S
C1373 C1371 1.415 . S
C1374 H1364 0.930 . S
C1374 C1372 1.419 . S
C1374 C1375 1.362 . S
C1375 H1365 0.930 . S
C1375 C1368 1.409 . S
C1375 C1374 1.362 . S
H1376 C1382 0.930 . S
H1377 C1385 0.930 . S
H1378 C1386 0.930 . S
H1379 C1387 0.930 . S
H1380 C1390 0.930 . S
H1381 C1391 0.930 . S
C1382 H1376 0.930 . S
C1382 C1383 1.355 . S
C1382 C1384 1.415 . S
C1383 C1382 1.355 . S
C1383 C1385 1.419 . S
C1384 C1382 1.415 . S
C1384 C1389 1.425 . S
C1384 C1391 1.409 . S
C1385 H1377 0.930 . S
C1385 C1383 1.419 . S
C1385 C1386 1.362 . S
C1386 H1378 0.930 . S
C1386 C1385 1.362 . S
C1386 C1389 1.409 . S
C1387 H1379 0.930 . S
C1387 C1388 1.355 . S
C1387 C1389 1.415 . S
C1388 C1387 1.355 . S
C1388 C1390 1.419 . S
C1389 C1384 1.425 . S
C1389 C1386 1.409 . S
C1389 C1387 1.415 . S
C1390 H1380 0.930 . S
C1390 C1388 1.419 . S
C1390 C1391 1.362 . S
C1391 H1381 0.930 . S
C1391 C1384 1.409 . S
C1391 C1390 1.362 . S
H1392 C1398 0.930 . S
H1393 C1401 0.930 . S
H1394 C1402 0.930 . S
H1395 C1403 0.930 . S
H1396 C1406 0.930 . S
H1397 C1407 0.930 . S
C1398 H1392 0.930 . S
C1398 C1399 1.355 . S
C1398 C1400 1.415 . S
C1399 C1398 1.355 . S
C1399 C1401 1.419 1_455 S
C1400 C1398 1.415 . S
C1400 C1405 1.411 1_455 S
C1400 C1407 1.409 . S
C1401 H1393 0.930 . S
C1401 C1399 1.419 1_655 S
C1401 C1402 1.362 . S
C1402 H1394 0.930 . S
C1402 C1401 1.362 . S
C1402 C1405 1.413 . S
C1403 H1395 0.930 . S
C1403 C1404 1.355 1_655 S
C1403 C1405 1.425 . S
C1404 C1403 1.355 1_455 S
C1404 C1406 1.419 . S
C1405 C1400 1.411 1_655 S
C1405 C1402 1.413 . S
C1405 C1403 1.425 . S
C1406 H1396 0.930 . S
C1406 C1404 1.419 . S
C1406 C1407 1.362 . S
C1407 H1397 0.930 . S
C1407 C1400 1.409 . S
C1407 C1406 1.362 . S
H1408 C1414 0.930 . S
H1409 C1417 0.930 . S
H1410 C1418 0.930 . S
H1411 C1419 0.930 . S
H1412 C1422 0.930 . S
H1413 C1423 0.930 . S
C1414 H1408 0.930 . S
C1414 C1415 1.355 . S
C1414 C1416 1.415 . S
C1415 C1414 1.355 . S
C1415 C1417 1.419 . S
C1416 C1414 1.415 . S
C1416 C1421 1.425 . S
C1416 C1423 1.409 . S
C1417 H1409 0.930 . S
C1417 C1415 1.419 . S
C1417 C1418 1.362 . S
C1418 H1410 0.930 . S
C1418 C1417 1.362 . S
C1418 C1421 1.409 . S
C1419 H1411 0.930 . S
C1419 C1420 1.355 . S
C1419 C1421 1.415 . S
C1420 C1419 1.355 . S
C1420 C1422 1.419 . S
C1421 C1416 1.425 . S
C1421 C1418 1.409 . S
C1421 C1419 1.415 . S
C1422 H1412 0.930 . S
C1422 C1420 1.419 . S
C1422 C1423 1.362 . S
C1423 H1413 0.930 . S
C1423 C1416 1.409 . S
C1423 C1422 1.362 . S
H1424 C1430 0.930 . S
H1425 C1433 0.930 . S
H1426 C1434 0.930 . S
H1427 C1435 0.930 . S
H1428 C1438 0.930 . S
H1429 C1439 0.930 . S
C1430 H1424 0.930 . S
C1430 C1431 1.355 . S
C1430 C1432 1.415 . S
C1431 C1430 1.355 . S
C1431 C1433 1.419 1_565 S
C1432 C1430 1.415 . S
C1432 C1437 1.425 1_565 S
C1432 C1439 1.409 . S
C1433 H1425 0.930 . S
C1433 C1431 1.419 1_545 S
C1433 C1434 1.362 . S
C1434 H1426 0.930 . S
C1434 C1433 1.362 . S
C1434 C1437 1.409 . S
C1435 H1427 0.930 . S
C1435 C1436 1.355 1_545 S
C1435 C1437 1.415 . S
C1436 C1435 1.355 1_565 S
C1436 C1438 1.419 . S
C1437 C1432 1.425 1_545 S
C1437 C1434 1.409 . S
C1437 C1435 1.415 . S
C1438 H1428 0.930 . S
C1438 C1436 1.419 . S
C1438 C1439 1.362 . S
C1439 H1429 0.930 . S
C1439 C1432 1.409 . S
C1439 C1438 1.362 . S
H1440 C1446 0.930 . S
H1441 C1449 0.930 . S
H1442 C1450 0.930 . S
H1443 C1451 0.930 . S
H1444 C1454 0.920 1_545 S
H1445 C1455 0.930 . S
C1446 H1440 0.930 . S
C1446 C1447 1.355 . S
C1446 C1448 1.415 . S
C1447 C1446 1.355 . S
C1447 C1449 1.419 . S
C1448 C1446 1.415 . S
C1448 C1453 1.425 . S
C1448 C1455 1.409 . S
C1449 H1441 0.930 . S
C1449 C1447 1.419 . S
C1449 C1450 1.362 . S
C1450 H1442 0.930 . S
C1450 C1449 1.362 . S
C1450 C1453 1.409 . S
C1451 H1443 0.930 . S
C1451 C1452 1.355 . S
C1451 C1453 1.415 . S
C1452 C1451 1.355 . S
C1452 C1454 1.410 . S
C1453 C1448 1.425 . S
C1453 C1450 1.409 . S
C1453 C1451 1.415 . S
C1454 H1444 0.920 1_565 S
C1454 C1452 1.410 . S
C1454 C1455 1.382 . S
C1455 H1445 0.930 . S
C1455 C1448 1.409 . S
C1455 C1454 1.382 . S
H1456 C1462 0.930 . S
H1457 C1465 0.930 . S
H1458 C1466 0.930 . S
H1459 C1467 0.930 . S
H1460 C1470 0.930 . S
H1461 C1471 0.930 . S
C1462 H1456 0.930 . S
C1462 C1463 1.355 . S
C1462 C1464 1.415 . S
C1463 C1462 1.355 . S
C1463 C1465 1.419 1_455 S
C1464 C1462 1.415 . S
C1464 C1469 1.425 1_455 S
C1464 C1471 1.409 . S
C1465 H1457 0.930 . S
C1465 C1463 1.419 1_655 S
C1465 C1466 1.362 . S
C1466 H1458 0.930 . S
C1466 C1465 1.362 . S
C1466 C1469 1.409 . S
C1467 H1459 0.930 . S
C1467 C1468 1.355 1_655 S
C1467 C1469 1.415 . S
C1468 C1467 1.355 1_455 S
C1468 C1470 1.419 . S
C1469 C1464 1.425 1_655 S
C1469 C1466 1.409 . S
C1469 C1467 1.415 . S
C1470 H1460 0.930 . S
C1470 C1468 1.419 . S
C1470 C1471 1.362 . S
C1471 H1461 0.930 . S
C1471 C1464 1.409 . S
C1471 C1470 1.362 . S
H1472 C1478 0.930 . S
H1473 C1481 0.930 . S
H1474 C1482 0.930 . S
H1475 C1483 0.930 . S
H1476 C1486 0.930 . S
H1477 C1487 0.930 . S
C1478 H1472 0.930 . S
C1478 C1479 1.355 . S
C1478 C1480 1.415 . S
C1479 C1478 1.355 . S
C1479 C1481 1.419 . S
C1480 C1478 1.415 . S
C1480 C1485 1.425 . S
C1480 C1487 1.409 . S
C1481 H1473 0.930 . S
C1481 C1479 1.419 . S
C1481 C1482 1.362 . S
C1482 H1474 0.930 . S
C1482 C1481 1.362 . S
C1482 C1485 1.409 . S
C1483 H1475 0.930 . S
C1483 C1484 1.355 . S
C1483 C1485 1.415 . S
C1484 C1483 1.355 . S
C1484 C1486 1.419 . S
C1485 C1480 1.425 . S
C1485 C1482 1.409 . S
C1485 C1483 1.415 . S
C1486 H1476 0.930 . S
C1486 C1484 1.419 . S
C1486 C1487 1.362 . S
C1487 H1477 0.930 . S
C1487 C1480 1.409 . S
C1487 C1486 1.362 . S
H1488 C1494 0.930 . S
H1489 C1497 0.930 . S
H1490 C1498 0.930 . S
H1491 C1499 0.930 . S
H1492 C1502 0.930 . S
H1493 C1503 0.930 . S
C1494 H1488 0.930 . S
C1494 C1495 1.355 . S
C1494 C1496 1.415 . S
C1495 C1494 1.355 . S
C1495 C1497 1.419 . S
C1496 C1494 1.415 . S
C1496 C1501 1.425 . S
C1496 C1503 1.409 . S
C1497 H1489 0.930 . S
C1497 C1495 1.419 . S
C1497 C1498 1.362 . S
C1498 H1490 0.930 . S
C1498 C1497 1.362 . S
C1498 C1501 1.409 . S
C1499 H1491 0.930 . S
C1499 C1500 1.355 . S
C1499 C1501 1.415 . S
C1500 C1499 1.355 . S
C1500 C1502 1.419 . S
C1501 C1496 1.425 . S
C1501 C1498 1.409 . S
C1501 C1499 1.415 . S
C1502 H1492 0.930 . S
C1502 C1500 1.419 . S
C1502 C1503 1.362 . S
C1503 H1493 0.930 . S
C1503 C1496 1.409 . S
C1503 C1502 1.362 . S
H1504 C1510 0.930 . S
H1505 C1513 0.930 . S
H1506 C1514 0.930 . S
H1507 C1515 0.930 . S
H1508 C1518 0.930 . S
H1509 C1519 0.930 . S
C1510 H1504 0.930 . S
C1510 C1511 1.355 . S
C1510 C1512 1.415 . S
C1511 C1510 1.355 . S
C1511 C1513 1.419 . S
C1512 C1510 1.415 . S
C1512 C1517 1.425 . S
C1512 C1519 1.409 . S
C1513 H1505 0.930 . S
C1513 C1511 1.419 . S
C1513 C1514 1.362 . S
C1514 H1506 0.930 . S
C1514 C1513 1.362 . S
C1514 C1517 1.409 . S
C1515 H1507 0.930 . S
C1515 C1516 1.355 . S
C1515 C1517 1.415 . S
C1516 C1515 1.355 . S
C1516 C1518 1.419 . S
C1517 C1512 1.425 . S
C1517 C1514 1.409 . S
C1517 C1515 1.415 . S
C1518 H1508 0.930 . S
C1518 C1516 1.419 . S
C1518 C1519 1.362 . S
C1519 H1509 0.930 . S
C1519 C1512 1.409 . S
C1519 C1518 1.362 . S
H1520 C1526 0.930 . S
H1521 C1529 0.930 . S
H1522 C1530 0.930 . S
H1523 C1531 0.930 . S
H1524 C1534 0.930 . S
H1525 C1535 0.930 . S
C1526 H1520 0.930 . S
C1526 C1527 1.355 . S
C1526 C1528 1.415 . S
C1527 C1526 1.355 . S
C1527 C1529 1.419 . S
C1528 C1526 1.415 . S
C1528 C1533 1.425 . S
C1528 C1535 1.409 . S
C1529 H1521 0.930 . S
C1529 C1527 1.419 . S
C1529 C1530 1.362 . S
C1530 H1522 0.930 . S
C1530 C1529 1.362 . S
C1530 C1533 1.409 . S
C1531 H1523 0.930 . S
C1531 C1532 1.355 . S
C1531 C1533 1.415 . S
C1532 C1531 1.355 . S
C1532 C1534 1.419 . S
C1533 C1528 1.425 . S
C1533 C1530 1.409 . S
C1533 C1531 1.415 . S
C1534 H1524 0.930 . S
C1534 C1532 1.419 . S
C1534 C1535 1.362 . S
C1535 H1525 0.930 . S
C1535 C1528 1.409 . S
C1535 C1534 1.362 . S
H1536 C1542 0.930 . S
H1537 C1545 0.930 . S
H1538 C1546 0.930 . S
H1539 C1547 0.930 . S
H1540 C1550 0.930 . S
H1541 C1551 0.930 . S
C1542 H1536 0.930 . S
C1542 C1543 1.355 . S
C1542 C1544 1.415 . S
C1543 C1542 1.355 . S
C1543 C1545 1.419 1_545 S
C1544 C1542 1.415 . S
C1544 C1549 1.425 . S
C1544 C1551 1.409 . S
C1545 H1537 0.930 . S
C1545 C1543 1.419 1_565 S
C1545 C1546 1.362 . S
C1546 H1538 0.930 . S
C1546 C1545 1.362 . S
C1546 C1549 1.409 1_565 S
C1547 H1539 0.930 . S
C1547 C1548 1.355 1_565 S
C1547 C1549 1.415 1_565 S
C1548 C1547 1.355 1_545 S
C1548 C1550 1.419 . S
C1549 C1544 1.425 . S
C1549 C1546 1.409 1_545 S
C1549 C1547 1.415 1_545 S
C1550 H1540 0.930 . S
C1550 C1548 1.419 . S
C1550 C1551 1.362 . S
C1551 H1541 0.930 . S
C1551 C1544 1.409 . S
C1551 C1550 1.362 . S
H1552 C1558 0.930 1_455 S
H1553 C1561 0.930 . S
H1554 C1562 0.930 . S
H1555 C1563 0.930 . S
H1556 C1566 0.930 . S
H1557 C1567 0.930 . S
C1558 H1552 0.930 1_655 S
C1558 C1559 1.355 . S
C1558 C1560 1.415 . S
C1559 C1558 1.355 . S
C1559 C1561 1.419 . S
C1560 C1558 1.415 . S
C1560 C1565 1.425 . S
C1560 C1567 1.409 1_655 S
C1561 H1553 0.930 . S
C1561 C1559 1.419 . S
C1561 C1562 1.362 . S
C1562 H1554 0.930 . S
C1562 C1561 1.362 . S
C1562 C1565 1.409 . S
C1563 H1555 0.930 . S
C1563 C1564 1.355 . S
C1563 C1565 1.415 . S
C1564 C1563 1.355 . S
C1564 C1566 1.419 1_655 S
C1565 C1560 1.425 . S
C1565 C1562 1.409 . S
C1565 C1563 1.415 . S
C1566 H1556 0.930 . S
C1566 C1564 1.419 1_455 S
C1566 C1567 1.362 . S
C1567 H1557 0.930 . S
C1567 C1560 1.409 1_455 S
C1567 C1566 1.362 . S
H1568 C1574 0.930 . S
H1569 C1577 0.930 . S
H1570 C1578 0.930 . S
H1571 C1579 0.930 . S
H1572 C1582 0.930 . S
H1573 C1583 0.930 . S
C1574 H1568 0.930 . S
C1574 C1575 1.355 . S
C1574 C1576 1.415 . S
C1575 C1574 1.355 . S
C1575 C1577 1.419 . S
C1576 C1574 1.415 . S
C1576 C1581 1.425 . S
C1576 C1583 1.409 . S
C1577 H1569 0.930 . S
C1577 C1575 1.419 . S
C1577 C1578 1.362 . S
C1578 H1570 0.930 . S
C1578 C1577 1.362 . S
C1578 C1581 1.409 . S
C1579 H1571 0.930 . S
C1579 C1580 1.355 . S
C1579 C1581 1.415 . S
C1580 C1579 1.355 . S
C1580 C1582 1.419 . S
C1581 C1576 1.425 . S
C1581 C1578 1.409 . S
C1581 C1579 1.415 . S
C1582 H1572 0.930 . S
C1582 C1580 1.419 . S
C1582 C1583 1.362 . S
C1583 H1573 0.930 . S
C1583 C1576 1.409 . S
C1583 C1582 1.362 . S
H1584 C1590 0.930 . S
H1585 C1593 0.930 . S
H1586 C1594 0.930 . S
H1587 C1595 0.930 . S
H1588 C1598 0.930 . S
H1589 C1599 0.930 . S
C1590 H1584 0.930 . S
C1590 C1591 1.355 . S
C1590 C1592 1.415 . S
C1591 C1590 1.355 . S
C1591 C1593 1.419 . S
C1592 C1590 1.415 . S
C1592 C1597 1.425 . S
C1592 C1599 1.409 . S
C1593 H1585 0.930 . S
C1593 C1591 1.419 . S
C1593 C1594 1.362 . S
C1594 H1586 0.930 . S
C1594 C1593 1.362 . S
C1594 C1597 1.409 . S
C1595 H1587 0.930 . S
C1595 C1596 1.355 . S
C1595 C1597 1.415 . S
C1596 C1595 1.355 . S
C1596 C1598 1.419 . S
C1597 C1592 1.425 . S
C1597 C1594 1.409 . S
C1597 C1595 1.415 . S
C1598 H1588 0.930 . S
C1598 C1596 1.419 . S
C1598 C1599 1.362 . S
C1599 H1589 0.930 . S
C1599 C1592 1.409 . S
C1599 C1598 1.362 . S
H1600 C1606 0.930 . S
H1601 C1609 0.930 . S
H1602 C1610 0.930 . S
H1603 C1611 0.930 . S
H1604 C1614 0.930 . S
H1605 C1615 0.930 . S
C1606 H1600 0.930 . S
C1606 C1607 1.355 . S
C1606 C1608 1.415 . S
C1607 C1606 1.355 . S
C1607 C1609 1.419 . S
C1608 C1606 1.415 . S
C1608 C1613 1.425 . S
C1608 C1615 1.409 . S
C1609 H1601 0.930 . S
C1609 C1607 1.419 . S
C1609 C1610 1.362 . S
C1610 H1602 0.930 . S
C1610 C1609 1.362 . S
C1610 C1613 1.409 . S
C1611 H1603 0.930 . S
C1611 C1612 1.355 . S
C1611 C1613 1.415 . S
C1612 C1611 1.355 . S
C1612 C1614 1.419 . S
C1613 C1608 1.425 . S
C1613 C1610 1.409 . S
C1613 C1611 1.415 . S
C1614 H1604 0.930 . S
C1614 C1612 1.419 . S
C1614 C1615 1.362 . S
C1615 H1605 0.930 . S
C1615 C1608 1.409 . S
C1615 C1614 1.362 . S
H1616 C1622 0.930 . S
H1617 C1625 0.930 . S
H1618 C1626 0.930 . S
H1619 C1627 0.930 . S
H1620 C1630 0.930 . S
H1621 C1631 0.930 . S
C1622 H1616 0.930 . S
C1622 C1623 1.355 . S
C1622 C1624 1.415 . S
C1623 C1622 1.355 . S
C1623 C1625 1.419 . S
C1624 C1622 1.415 . S
C1624 C1629 1.425 . S
C1624 C1631 1.409 . S
C1625 H1617 0.930 . S
C1625 C1623 1.419 . S
C1625 C1626 1.362 . S
C1626 H1618 0.930 . S
C1626 C1625 1.362 . S
C1626 C1629 1.409 . S
C1627 H1619 0.930 . S
C1627 C1628 1.355 . S
C1627 C1629 1.415 . S
C1628 C1627 1.355 . S
C1628 C1630 1.419 . S
C1629 C1624 1.425 . S
C1629 C1626 1.409 . S
C1629 C1627 1.415 . S
C1630 H1620 0.930 . S
C1630 C1628 1.419 . S
C1630 C1631 1.362 . S
C1631 H1621 0.930 . S
C1631 C1624 1.409 . S
C1631 C1630 1.362 . S
H1632 C1638 0.930 . S
H1633 C1641 0.930 . S
H1634 C1642 0.930 . S
H1635 C1643 0.930 . S
H1636 C1646 0.930 . S
H1637 C1647 0.930 . S
C1638 H1632 0.930 . S
C1638 C1639 1.355 . S
C1638 C1640 1.415 . S
C1639 C1638 1.355 . S
C1639 C1641 1.419 . S
C1640 C1638 1.415 . S
C1640 C1645 1.425 . S
C1640 C1647 1.409 . S
C1641 H1633 0.930 . S
C1641 C1639 1.419 . S
C1641 C1642 1.362 . S
C1642 H1634 0.930 . S
C1642 C1641 1.362 . S
C1642 C1645 1.409 . S
C1643 H1635 0.930 . S
C1643 C1644 1.355 . S
C1643 C1645 1.415 . S
C1644 C1643 1.355 . S
C1644 C1646 1.419 . S
C1645 C1640 1.425 . S
C1645 C1642 1.409 . S
C1645 C1643 1.415 . S
C1646 H1636 0.930 . S
C1646 C1644 1.419 . S
C1646 C1647 1.362 . S
C1647 H1637 0.930 . S
C1647 C1640 1.409 . S
C1647 C1646 1.362 . S
H1648 C1654 0.930 . S
H1649 C1657 0.930 . S
H1650 C1658 0.930 . S
H1651 C1659 0.930 . S
H1652 C1662 0.930 . S
H1653 C1663 0.930 . S
C1654 H1648 0.930 . S
C1654 C1655 1.355 . S
C1654 C1656 1.415 . S
C1655 C1654 1.355 . S
C1655 C1657 1.419 . S
C1656 C1654 1.415 . S
C1656 C1661 1.425 . S
C1656 C1663 1.409 . S
C1657 H1649 0.930 . S
C1657 C1655 1.419 . S
C1657 C1658 1.362 . S
C1658 H1650 0.930 . S
C1658 C1657 1.362 . S
C1658 C1661 1.409 . S
C1659 H1651 0.930 . S
C1659 C1660 1.355 . S
C1659 C1661 1.415 . S
C1660 C1659 1.355 . S
C1660 C1662 1.419 . S
C1661 C1656 1.425 . S
C1661 C1658 1.409 . S
C1661 C1659 1.415 . S
C1662 H1652 0.930 . S
C1662 C1660 1.419 . S
C1662 C1663 1.362 . S
C1663 H1653 0.930 . S
C1663 C1656 1.409 . S
C1663 C1662 1.362 . S
H1664 C1670 0.930 . S
H1665 C1673 0.930 . S
H1666 C1674 0.930 . S
H1667 C1675 0.930 . S
H1668 C1678 0.930 . S
H1669 C1679 0.930 . S
C1670 H1664 0.930 . S
C1670 C1671 1.355 . S
C1670 C1672 1.415 . S
C1671 C1670 1.355 . S
C1671 C1673 1.419 . S
C1672 C1670 1.415 . S
C1672 C1677 1.425 . S
C1672 C1679 1.409 . S
C1673 H1665 0.930 . S
C1673 C1671 1.419 . S
C1673 C1674 1.362 . S
C1674 H1666 0.930 . S
C1674 C1673 1.362 . S
C1674 C1677 1.409 . S
C1675 H1667 0.930 . S
C1675 C1676 1.355 . S
C1675 C1677 1.415 . S
C1676 C1675 1.355 . S
C1676 C1678 1.419 . S
C1677 C1672 1.425 . S
C1677 C1674 1.409 . S
C1677 C1675 1.415 . S
C1678 H1668 0.930 . S
C1678 C1676 1.419 . S
C1678 C1679 1.362 . S
C1679 H1669 0.930 . S
C1679 C1672 1.409 . S
C1679 C1678 1.362 . S
H1680 C1686 0.930 . S
H1681 C1689 0.930 1_455 S
H1682 C1690 0.930 . S
H1683 C1691 0.930 . S
H1684 C1694 0.930 . S
H1685 C1695 0.930 . S
C1686 H1680 0.930 . S
C1686 C1687 1.355 . S
C1686 C1688 1.415 . S
C1687 C1686 1.355 . S
C1687 C1689 1.419 . S
C1688 C1686 1.415 . S
C1688 C1693 1.425 . S
C1688 C1695 1.409 . S
C1689 H1681 0.930 1_655 S
C1689 C1687 1.419 . S
C1689 C1690 1.362 1_655 S
C1690 H1682 0.930 . S
C1690 C1689 1.362 1_455 S
C1690 C1693 1.409 1_455 S
C1691 H1683 0.930 . S
C1691 C1692 1.355 1_455 S
C1691 C1693 1.415 1_455 S
C1692 C1691 1.355 1_655 S
C1692 C1694 1.419 . S
C1693 C1688 1.425 . S
C1693 C1690 1.409 1_655 S
C1693 C1691 1.415 1_655 S
C1694 H1684 0.930 . S
C1694 C1692 1.419 . S
C1694 C1695 1.362 . S
C1695 H1685 0.930 . S
C1695 C1688 1.409 . S
C1695 C1694 1.362 . S
H1696 C1702 0.930 . S
H1697 C1705 0.930 . S
H1698 C1706 0.930 . S
H1699 C1707 0.930 . S
H1700 C1710 0.930 . S
H1701 C1711 0.930 . S
C1702 H1696 0.930 . S
C1702 C1703 1.355 . S
C1702 C1704 1.415 . S
C1703 C1702 1.355 . S
C1703 C1705 1.419 . S
C1704 C1702 1.415 . S
C1704 C1709 1.425 . S
C1704 C1711 1.409 . S
C1705 H1697 0.930 . S
C1705 C1703 1.419 . S
C1705 C1706 1.362 . S
C1706 H1698 0.930 . S
C1706 C1705 1.362 . S
C1706 C1709 1.409 . S
C1707 H1699 0.930 . S
C1707 C1708 1.355 . S
C1707 C1709 1.415 . S
C1708 C1707 1.355 . S
C1708 C1710 1.419 . S
C1709 C1704 1.425 . S
C1709 C1706 1.409 . S
C1709 C1707 1.415 . S
C1710 H1700 0.930 . S
C1710 C1708 1.419 . S
C1710 C1711 1.362 . S
C1711 H1701 0.930 . S
C1711 C1704 1.409 . S
C1711 C1710 1.362 . S
H1712 C1718 0.930 . S
H1713 C1721 0.930 . S
H1714 C1722 0.930 . S
H1715 C1723 0.930 . S
H1716 C1726 0.930 . S
H1717 C1727 0.957 . S
C1718 H1712 0.930 . S
C1718 C1719 1.355 . S
C1718 C1720 1.415 . S
C1719 C1718 1.355 . S
C1719 C1721 1.419 . S
C1720 C1718 1.415 . S
C1720 C1725 1.425 . S
C1720 C1727 1.407 1_545 S
C1721 H1713 0.930 . S
C1721 C1719 1.419 . S
C1721 C1722 1.362 . S
C1722 H1714 0.930 . S
C1722 C1721 1.362 . S
C1722 C1725 1.409 . S
C1723 H1715 0.930 . S
C1723 C1724 1.360 . S
C1723 C1725 1.415 . S
C1724 C1723 1.360 . S
C1724 C1726 1.395 1_545 S
C1725 C1720 1.425 . S
C1725 C1722 1.409 . S
C1725 C1723 1.415 . S
C1726 H1716 0.930 . S
C1726 C1724 1.395 1_565 S
C1726 C1727 1.341 . S
C1727 H1717 0.957 . S
C1727 C1720 1.407 1_565 S
C1727 C1726 1.341 . S
C583 C13 1.470 . S
C588 C421 1.528 . S
C599 C27 1.439 . S
C604 C446 1.478 . S
C620 C457 1.517 . S
C615 C36 1.419 . S
C631 C41 1.503 . S
C636 C482 1.550 . S
C647 C8 1.541 . S
C652 C500 1.611 . S
C663 C22 1.492 . S
C668 C511 1.554 . S
C679 C55 1.482 . S
C684 C493 1.526 1_455 S
C700 C518 1.474 . S
C695 C69 1.443 . S
C716 C475 1.521 . S
C711 C78 1.416 . S
C727 C83 1.444 . S
C732 C464 1.498 1_545 S
C748 C428 1.638 1_655 S
C743 C50 1.537 . S
C759 C64 1.405 . S
C764 C439 1.498 . S
C775 C97 1.505 . S
C780 C529 1.585 . S
C791 C111 1.456 . S
C796 C554 1.503 . S
C812 C565 1.569 . S
C807 C120 1.552 . S
C823 C125 1.429 . S
C828 C266 1.526 . S
C839 C92 1.652 . S
C844 C284 1.682 . S
C855 C106 1.444 . S
C860 C295 1.546 . S
C871 C139 1.439 . S
C876 C277 1.543 . S
C887 C153 1.396 . S
C892 C302 1.448 . S
C908 C259 1.582 . S
C903 C162 1.532 . S
C924 C572 1.574 . S
C919 C167 1.496 . S
C940 C536 1.634 . S
C935 C134 1.598 . S
C956 C547 1.541 . S
C951 C148 1.445 . S
C967 C181 1.455 . S
C972 C313 1.539 . S
C983 C195 1.378 . S
C988 C338 1.467 . S
C999 C204 1.504 . S
C1004 C349 1.545 . S
C1015 C209 1.491 . S
C1020 C374 1.582 . S
C1036 C392 1.658 . S
C1031 C176 1.579 . S
C1052 C403 1.533 . S
C1047 C190 1.446 . S
C1068 C385 1.550 . S
C1063 C223 1.470 . S
C1084 C410 1.452 . S
C1079 C237 1.381 . S
C1095 C246 1.481 . S
C1100 C367 1.540 . S
C1116 C356 1.510 . S
C1111 C251 1.442 . S
C1127 C218 1.588 . S
C1132 C320 1.631 . S
C1148 C331 1.538 . S
C1143 C232 1.474 . S
C1164 C268 1.336 . S
C1159 C11 1.422 . S
C1175 C25 1.322 . S
C1180 C286 1.250 . S
C1196 C296 1.340 . S
C1191 C35 1.375 . S
C1212 C314 1.286 . S
C1207 C39 1.374 . S
C1228 C340 1.351 . S
C1223 C7 1.471 . S
C1244 C350 1.311 . S
C1239 C21 1.361 . S
C1255 C53 1.419 . S
C1260 C358 1.320 . S
C1271 C67 1.310 . S
C1276 C322 1.261 . S
C1287 C77 1.400 . S
C1292 C332 1.335 . S
C1303 C81 1.457 . S
C1308 C278 1.384 . S
C1324 C304 1.405 . S
C1319 C49 1.496 . S
C1335 C63 1.408 . S
C1340 C260 1.300 . S
C1356 C376 1.279 . S
C1351 C95 1.394 . S
C1367 C109 1.318 . S
C1372 C394 1.320 . S
C1383 C119 1.432 . S
C1388 C404 1.386 . S
C1404 C422 1.250 . S
C1399 C123 1.323 . S
C1415 C91 1.462 . S
C1420 C448 1.351 . S
C1431 C105 1.346 . S
C1436 C458 1.271 . S
C1447 C137 1.376 . S
C1452 C466 1.244 . S
C1463 C151 1.258 . S
C1468 C430 1.240 . S
C1484 C440 1.315 . S
C1479 C161 1.404 . S
C1495 C165 1.444 . S
C1500 C386 1.390 . S
C1511 C133 1.509 . S
C1516 C412 1.410 . S
C1532 C368 1.335 . S
C1527 C147 1.441 . S
C1548 C484 1.332 . S
C1543 C179 1.357 . S
C1559 C193 1.254 . S
C1564 C502 1.252 . S
C1575 C203 1.388 . S
C1580 C512 1.289 . S
C1596 C530 1.338 . S
C1591 C207 1.362 . S
C1612 C556 1.388 . S
C1607 C175 1.479 . S
C1623 C189 1.415 . S
C1628 C566 1.300 . S
C1639 C221 1.404 . S
C1644 C574 1.314 . S
C1655 C235 1.346 . S
C1660 C538 1.269 . S
C1676 C548 1.386 . S
C1671 C245 1.437 . S
C1692 C494 1.312 1_655 S
C1687 C249 1.333 . S
C1708 C520 1.362 . S
C1703 C217 1.493 . S
C1719 C231 1.361 . S
C1724 C476 1.264 1_545 S
