# Generated by pormake.
# Topology zzz, (3,6)-cn, num edge types: 1
# Building blocks:
#     Node 0, Type 0, BuildingBlock: PAMTOO_clean_linker_0, # of connection points: 3
#     Node 1, Type 0, BuildingBlock: PAMTOO_clean_linker_0, # of connection points: 3
#     Node 2, Type 0, BuildingBlock: PAMTOO_clean_linker_0, # of connection points: 3
#     Node 3, Type 0, BuildingBlock: PAMTOO_clean_linker_0, # of connection points: 3
#     Node 4, Type 0, BuildingBlock: PAMTOO_clean_linker_0, # of connection points: 3
#     Node 5, Type 0, BuildingBlock: PAMTOO_clean_linker_0, # of connection points: 3
#     Node 6, Type 0, BuildingBlock: PAMTOO_clean_linker_0, # of connection points: 3
#     Node 7, Type 0, BuildingBlock: PAMTOO_clean_linker_0, # of connection points: 3
#     Node 8, Type 1, BuildingBlock: GEDQOX_clean_sbu_0, # of connection points: 6
#     Node 9, Type 1, BuildingBlock: GEDQOX_clean_sbu_0, # of connection points: 6
#     Node 10, Type 1, BuildingBlock: GEDQOX_clean_sbu_0, # of connection points: 6
#     Node 11, Type 1, BuildingBlock: GEDQOX_clean_sbu_0, # of connection points: 6
#     Edge 12, Type (0, 1), BuildingBlock: CIFDUS_clean_linker_0, # of connection points: 2
#     Edge 13, Type (0, 1), BuildingBlock: CIFDUS_clean_linker_0, # of connection points: 2
#     Edge 14, Type (0, 1), BuildingBlock: CIFDUS_clean_linker_0, # of connection points: 2
#     Edge 15, Type (0, 1), BuildingBlock: CIFDUS_clean_linker_0, # of connection points: 2
#     Edge 16, Type (0, 1), BuildingBlock: CIFDUS_clean_linker_0, # of connection points: 2
#     Edge 17, Type (0, 1), BuildingBlock: CIFDUS_clean_linker_0, # of connection points: 2
#     Edge 18, Type (0, 1), BuildingBlock: CIFDUS_clean_linker_0, # of connection points: 2
#     Edge 19, Type (0, 1), BuildingBlock: CIFDUS_clean_linker_0, # of connection points: 2
#     Edge 20, Type (0, 1), BuildingBlock: CIFDUS_clean_linker_0, # of connection points: 2
#     Edge 21, Type (0, 1), BuildingBlock: CIFDUS_clean_linker_0, # of connection points: 2
#     Edge 22, Type (0, 1), BuildingBlock: CIFDUS_clean_linker_0, # of connection points: 2
#     Edge 23, Type (0, 1), BuildingBlock: CIFDUS_clean_linker_0, # of connection points: 2
#     Edge 24, Type (0, 1), BuildingBlock: CIFDUS_clean_linker_0, # of connection points: 2
#     Edge 25, Type (0, 1), BuildingBlock: CIFDUS_clean_linker_0, # of connection points: 2
#     Edge 26, Type (0, 1), BuildingBlock: CIFDUS_clean_linker_0, # of connection points: 2
#     Edge 27, Type (0, 1), BuildingBlock: CIFDUS_clean_linker_0, # of connection points: 2
#     Edge 28, Type (0, 1), BuildingBlock: CIFDUS_clean_linker_0, # of connection points: 2
#     Edge 29, Type (0, 1), BuildingBlock: CIFDUS_clean_linker_0, # of connection points: 2
#     Edge 30, Type (0, 1), BuildingBlock: CIFDUS_clean_linker_0, # of connection points: 2
#     Edge 31, Type (0, 1), BuildingBlock: CIFDUS_clean_linker_0, # of connection points: 2
#     Edge 32, Type (0, 1), BuildingBlock: CIFDUS_clean_linker_0, # of connection points: 2
#     Edge 33, Type (0, 1), BuildingBlock: CIFDUS_clean_linker_0, # of connection points: 2
#     Edge 34, Type (0, 1), BuildingBlock: CIFDUS_clean_linker_0, # of connection points: 2
#     Edge 35, Type (0, 1), BuildingBlock: CIFDUS_clean_linker_0, # of connection points: 2
# Relax obj value: 0.133
# Max RMSD: 0.207
# Mean RMSD: 0.081
data_MOF--net-zzz--node1-GEDQOX_clean_sbu_0--node2-PAMTOO_clean_linker_0--edge1-CIFDUS_clean_linker_0
_symmetry_space_group_name_H-M    P1
_symmetry_Int_Tables_number       1
_symmetry_cell_setting            triclinic
loop_
_symmetry_equiv_pos_as_xyz
'x, y, z'
_cell_length_a     48.012929
_cell_length_b     46.576137
_cell_length_c     15.767914
_cell_angle_alpha  78.309274
_cell_angle_beta   89.410063
_cell_angle_gamma 100.85496
loop_
_atom_site_label
_atom_site_type_symbol
_atom_site_fract_x
_atom_site_fract_y
_atom_site_fract_z
_atom_type_partial_charge
H0 H 0.85383 0.54496 0.22201 0.0
H1 H 0.79091 0.5385 0.031 0.0
H2 H 0.77358 0.5694 0.26253 0.0
H3 H 0.73168 0.51605 0.19088 0.0
C4 C 0.73014 0.53195 0.12871 0.0
O5 O 0.75236 0.55632 0.11813 0.0
H6 H 0.73191 0.51978 0.07567 0.0
C7 C 0.83263 0.54664 0.20105 0.0
C8 C 0.81474 0.55757 0.25189 0.0
C9 C 0.82448 0.5396 0.12159 0.0
C10 C 0.79752 0.54356 0.09268 0.0
C11 C 0.77878 0.55358 0.14456 0.0
C12 C 0.78765 0.56099 0.22368 0.0
H13 H 0.04944 0.83894 0.35452 0.0
H14 H 0.0479 0.78865 0.15347 0.0
H15 H 0.03502 0.74332 0.42276 0.0
H16 H 0.01426 0.73418 0.16857 0.0
C17 C 0.02134 0.71984 0.2264 0.0
O18 O 0.04385 0.73651 0.26064 0.0
H19 H 1.0032 0.7123 0.27527 0.0
C20 C 0.04659 0.81768 0.33424 0.0
C21 C 0.04081 0.79166 0.39808 0.0
C22 C 0.0472 0.81715 0.24596 0.0
C23 C 0.0463 0.78956 0.22139 0.0
C24 C 0.04259 0.76276 0.28497 0.0
C25 C 0.03886 0.76379 0.37377 0.0
H26 H 0.70341 0.02141 0.17916 0.0
H27 H 0.7764 0.04446 0.00079 0.0
H28 H 0.78337 1.00118 0.26656 0.0
H29 H 0.81441 1.00115 0.02104 0.0
C30 C 0.82214 1.00273 0.08654 0.0
O31 O 0.8112 0.02457 0.11572 0.0
H32 H 0.81489 0.98073 0.13134 0.0
C33 C 0.72574 0.02187 0.16581 0.0
C34 C 0.74173 1.00959 0.23215 0.0
C35 C 0.73798 0.03458 0.08254 0.0
C36 C 0.76669 0.03466 0.06501 0.0
C37 C 0.78311 0.02267 0.13145 0.0
C38 C 0.77063 1.0102 0.21527 0.0
H39 H 0.50369 0.73689 0.49646 0.0
H40 H 0.51108 0.82352 0.32898 0.0
H41 H 0.56877 0.80966 0.53394 0.0
H42 H 0.55382 0.87774 0.48653 0.0
C43 C 0.54346 0.87273 0.42704 0.0
O44 O 0.55376 0.84941 0.40375 0.0
H45 H 0.5202 0.86626 0.44357 0.0
C46 C 0.51337 0.76044 0.47971 0.0
C47 C 0.53672 0.77092 0.52503 0.0
C48 C 0.50399 0.77902 0.40871 0.0
C49 C 0.51778 0.80899 0.38443 0.0
C50 C 0.54066 0.82036 0.43034 0.0
C51 C 0.55048 0.80119 0.50028 0.0
H52 H 0.2108 0.55088 0.58279 0.0
H53 H 0.27367 0.581 0.75456 0.0
H54 H 0.29325 0.52821 0.57469 0.0
H55 H 0.31516 0.51375 0.74438 0.0
C56 C 0.32237 0.53646 0.75779 0.0
O57 O 0.31379 0.5576 0.69383 0.0
H58 H 0.31253 0.53721 0.82129 0.0
C59 C 0.23217 0.55257 0.60575 0.0
C60 C 0.25096 0.5379 0.57123 0.0
C61 C 0.23992 0.56819 0.67159 0.0
C62 C 0.26732 0.56911 0.70338 0.0
C63 C 0.28677 0.55502 0.66758 0.0
C64 C 0.27843 0.53925 0.60174 0.0
H65 H 0.03403 0.23795 0.52901 0.0
H66 H 0.01636 0.2928 0.70397 0.0
H67 H 0.05273 0.33346 0.44592 0.0
H68 H 0.07441 0.36507 0.60498 0.0
C69 C 0.05362 0.35858 0.64228 0.0
O70 O 0.03355 0.34401 0.59454 0.0
H71 H 0.05634 0.34301 0.70388 0.0
C72 C 0.03333 0.25983 0.54198 0.0
C73 C 0.04372 0.28497 0.47743 0.0
C74 C 0.02345 0.26212 0.62353 0.0
C75 C 0.02391 0.29066 0.641 0.0
C76 C 0.03442 0.31661 0.57734 0.0
C77 C 0.04463 0.31369 0.49524 0.0
H78 H 0.36027 0.05006 0.57279 0.0
H79 H 0.29622 0.02762 0.78103 0.0
H80 H 0.28263 0.08312 0.53679 0.0
H81 H 0.26466 0.10029 0.69603 0.0
C82 C 0.25425 0.0778 0.73322 0.0
O83 O 0.2598 0.05591 0.69169 0.0
H84 H 0.26307 0.07445 0.79868 0.0
C85 C 0.33929 0.05087 0.59748 0.0
C86 C 0.32256 0.06795 0.54499 0.0
C87 C 0.33022 0.03631 0.68261 0.0
C88 C 0.30353 0.03862 0.71516 0.0
C89 C 0.28614 0.05512 0.66206 0.0
C90 C 0.29583 0.07004 0.57712 0.0
H91 H 0.55466 0.36399 0.3716 0.0
H92 H 0.54477 0.27228 0.50313 0.0
H93 H 0.52332 0.29393 0.23572 0.0
H94 H 0.56684 0.24217 0.37298 0.0
C95 C 0.54455 0.23094 0.36638 0.0
O96 O 0.52576 0.24979 0.37176 0.0
H97 H 0.54376 0.22541 0.30101 0.0
C98 C 0.5493 0.34041 0.36975 0.0
C99 C 0.53877 0.33186 0.29435 0.0
C100 C 0.55169 0.31917 0.44439 0.0
C101 C 0.54379 0.28876 0.44443 0.0
C102 C 0.53419 0.27948 0.36886 0.0
C103 C 0.53173 0.30107 0.29315 0.0
Nd104 Nd 0.03054 0.02696 0.83909 0.0
Nd105 Nd 0.04982 0.05752 0.00228 0.0
C106 C 0.00862 0.98916 0.74045 0.0
C107 C 0.01069 0.95931 0.72226 0.0
C108 C 0.98704 0.93572 0.74087 0.0
C109 C 0.98744 0.90828 0.71744 0.0
C110 C 0.01148 0.90357 0.67411 0.0
C111 C 0.03555 0.92688 0.65814 0.0
C112 C 0.03515 0.95439 0.6817 0.0
C113 C 0.08676 0.05421 0.8371 0.0
C114 C 0.0489 0.98636 0.02147 0.0
C115 C 0.07769 0.09402 0.09509 0.0
C116 C 0.07218 0.12045 0.1278 0.0
C117 C 0.09277 0.14699 0.11426 0.0
C118 C 0.08762 0.1722 0.14363 0.0
C119 C 0.06167 0.17154 0.18733 0.0
C120 C 0.04121 0.14475 0.20118 0.0
C121 C 0.04632 0.1197 0.17155 0.0
C122 C 0.99135 0.04071 0.00536 0.0
C123 C 0.02359 0.09498 0.83132 0.0
O124 O 0.99705 0.98968 0.8156 0.0
O125 O 0.02989 1.01157 0.71442 0.0
O126 O 0.07216 0.05417 0.76804 0.0
O127 O 0.07185 0.03917 0.90345 0.0
O128 O 0.03922 0.98783 0.94283 0.0
O129 O 0.05591 1.00981 0.05804 0.0
O130 O 0.08219 0.09775 0.01097 0.0
O131 O 0.06196 0.06786 0.1297 0.0
O132 O 1.00467 0.05269 0.06471 0.0
O133 O 0.00935 0.0381 0.95048 0.0
O134 O 0.04207 0.09543 0.89288 0.0
O135 O 0.01285 0.07019 0.80424 0.0
H136 H 0.96786 0.93871 0.77194 0.0
H137 H 0.96861 0.89086 0.73211 0.0
H138 H 0.05436 0.92436 0.62411 0.0
H139 H 0.05379 0.97202 0.66607 0.0
H140 H 0.11287 0.14829 0.08043 0.0
H141 H 0.10384 0.19234 0.13088 0.0
H142 H 0.0212 0.1429 0.23605 0.0
H143 H 0.02991 0.0997 0.18305 0.0
Nd144 Nd 0.53792 0.02993 0.84069 0.0
Nd145 Nd 0.53223 0.07073 0.95785 0.0
C146 C 0.55429 0.99057 0.76058 0.0
C147 C 0.58078 0.98857 0.71542 0.0
C148 C 0.60731 0.99548 0.75105 0.0
C149 C 0.6324 0.99657 0.70355 0.0
C150 C 0.63145 0.99039 0.61985 0.0
C151 C 0.60482 0.98221 0.58585 0.0
C152 C 0.57975 0.98142 0.6331 0.0
C153 C 0.53322 0.08647 0.75347 0.0
C154 C 0.59562 0.06912 0.90694 0.0
C155 C 0.51552 0.11029 0.03605 0.0
C156 C 0.48803 0.11254 0.07455 0.0
C157 C 0.46275 0.10648 0.03161 0.0
C158 C 0.43644 0.10412 0.07398 0.0
C159 C 0.43491 0.10815 0.15971 0.0
C160 C 0.46028 0.11607 0.20062 0.0
C161 C 0.4866 0.11811 0.15849 0.0
C162 C 0.53851 1.01479 0.04443 0.0
C163 C 0.47436 0.03137 0.89477 0.0
O164 O 0.55464 0.98843 0.84456 0.0
O165 O 0.54109 1.01139 0.72248 0.0
O166 O 0.52056 0.06195 0.73241 0.0
O167 O 0.54817 0.08073 0.818 0.0
O168 O 0.58407 0.04493 0.87874 0.0
O169 O 0.57976 0.08654 0.93082 0.0
O170 O 0.51748 0.11341 0.95171 0.0
O171 O 0.52716 0.08849 0.07649 0.0
O172 O 0.55099 0.0396 0.06431 0.0
O173 O 0.5227 0.01982 0.98139 0.0
O174 O 0.48615 0.0555 0.92247 0.0
O175 O 0.49003 1.01424 0.86806 0.0
H176 H 0.60868 1.00062 0.81494 0.0
H177 H 0.65257 1.00262 0.73183 0.0
H178 H 0.60336 0.97763 0.5212 0.0
H179 H 0.55954 0.97602 0.60431 0.0
H180 H 0.46321 0.10244 0.96642 0.0
H181 H 0.41724 0.09823 0.04066 0.0
H182 H 0.45978 0.11902 0.26699 0.0
H183 H 0.50581 0.12283 0.19283 0.0
Nd184 Nd 0.51616 0.56085 0.02029 0.0
Nd185 Nd 0.54535 0.54887 0.86693 0.0
C186 C 0.4815 0.57993 0.11725 0.0
C187 C 0.47641 0.60987 0.11873 0.0
C188 C 0.44953 0.61381 0.14361 0.0
C189 C 0.44491 0.6424 0.14619 0.0
C190 C 0.46723 0.66742 0.12446 0.0
C191 C 0.49373 0.66331 0.09517 0.0
C192 C 0.4982 0.63487 0.09186 0.0
C193 C 0.57382 0.56461 0.03422 0.0
C194 C 0.53783 0.61655 0.85084 0.0
C195 C 0.57646 0.52763 0.76464 0.0
C196 C 0.57433 0.49691 0.75285 0.0
C197 C 0.59214 0.49015 0.69205 0.0
C198 C 0.58835 0.46104 0.67751 0.0
C199 C 0.56686 0.43827 0.72443 0.0
C200 C 0.55002 0.44506 0.78814 0.0
C201 C 0.55342 0.47416 0.80105 0.0
C202 C 0.48746 0.54389 0.85554 0.0
C203 C 0.52289 0.4932 0.03809 0.0
O204 O 0.4738 0.57021 0.04733 0.0
O205 O 0.50629 0.57451 0.14201 0.0
O206 O 0.55534 0.55344 0.09887 0.0
O207 O 0.56186 0.57481 0.96672 0.0
O208 O 0.51983 0.60484 0.91836 0.0
O209 O 0.55436 0.60031 0.82294 0.0
O210 O 0.58413 0.53207 0.84097 0.0
O211 O 0.55498 0.54004 0.738 0.0
O212 O 0.50548 0.55562 0.79033 0.0
O213 O 0.50008 0.5341 0.92174 0.0
O214 O 0.54108 0.50412 0.97035 0.0
O215 O 0.50722 0.51025 0.06521 0.0
H216 H 0.43227 0.59474 0.16237 0.0
H217 H 0.42412 0.64477 0.16766 0.0
H218 H 0.51164 0.68177 0.07915 0.0
H219 H 0.51895 0.63234 0.07042 0.0
H220 H 0.60831 0.50752 0.65401 0.0
H221 H 0.60138 0.45676 0.62681 0.0
H222 H 0.53355 0.42809 0.82622 0.0
H223 H 0.53905 0.479 0.84693 0.0
Nd224 Nd 0.02686 0.56185 0.83955 0.0
Nd225 Nd 0.04057 0.51637 0.01941 0.0
C226 C 1.00555 0.60202 0.73117 0.0
C227 C 0.98146 0.59793 0.67411 0.0
C228 C 0.95967 0.61425 0.67491 0.0
C229 C 0.93477 0.60726 0.6312 0.0
C230 C 0.93118 0.58366 0.58651 0.0
C231 C 0.95355 0.56819 0.58324 0.0
C232 C 0.97828 0.57512 0.62676 0.0
C233 C 0.02775 0.50428 0.81369 0.0
C234 C 0.97455 0.51837 0.97635 0.0
C235 C 0.06201 0.47459 0.121 0.0
C236 C 0.08977 0.47597 0.16196 0.0
C237 C 0.11533 0.4868 0.11126 0.0
C238 C 0.14121 0.49241 0.15037 0.0
C239 C 0.14222 0.48716 0.24109 0.0
C240 C 0.11691 0.47461 0.29187 0.0
C241 C 0.09092 0.46914 0.25262 0.0
C242 C 0.04049 0.57398 0.04529 0.0
C243 C 0.0929 0.5628 0.89103 0.0
O244 O 0.99852 0.5948 0.81435 0.0
O245 O 0.02846 0.59261 0.71146 0.0
O246 O 0.02432 0.52638 0.75236 0.0
O247 O 0.03013 0.51405 0.88281 0.0
O248 O 0.98344 0.54142 0.91126 0.0
O249 O 0.99195 0.50298 0.02248 0.0
O250 O 0.06282 0.47833 0.03628 0.0
O251 O 0.04418 0.48892 0.15041 0.0
O252 O 0.04446 0.55191 0.10615 0.0
O253 O 0.03704 0.56428 0.97616 0.0
O254 O 0.08412 0.53878 0.95302 0.0
O255 O 0.07533 0.57753 0.8433 0.0
H256 H 0.96149 0.6317 0.71185 0.0
H257 H 0.91794 0.61956 0.63511 0.0
H258 H 0.95179 0.55032 0.54787 0.0
H259 H 0.99454 0.56193 0.62539 0.0
H260 H 0.11534 0.49211 0.04115 0.0
H261 H 0.16036 0.50178 0.1095 0.0
H262 H 0.11696 0.47055 0.36198 0.0
H263 H 0.07158 0.46075 0.29319 0.0
H264 H 0.21873 0.06395 0.87945 0.0
H265 H 0.21921 0.08885 0.60086 0.0
H266 H 0.16771 0.08587 0.60825 0.0
H267 H 0.12238 0.07424 0.69373 0.0
H268 H 0.12167 0.04876 0.97254 0.0
H269 H 0.17343 0.05437 0.96564 0.0
C270 C 0.20751 0.06882 0.82053 0.0
C271 C 0.22262 0.0765 0.73959 0.0
C272 C 0.17792 0.06707 0.82545 0.0
C273 C 0.2079 0.08282 0.6637 0.0
C274 C 0.17853 0.08115 0.66799 0.0
C275 C 0.13359 0.07022 0.75305 0.0
C276 C 0.11821 0.06098 0.83352 0.0
C277 C 0.16328 0.07308 0.74844 0.0
C278 C 0.13303 0.05585 0.90979 0.0
C279 C 0.16261 0.05894 0.90584 0.0
H280 H 0.56544 0.21853 0.52853 0.0
H281 H 0.50638 0.17985 0.35961 0.0
H282 H 0.49651 0.13238 0.46577 0.0
H283 H 0.50681 0.10092 0.60307 0.0
H284 H 0.5662 0.13932 0.77203 0.0
H285 H 0.57376 0.18768 0.67017 0.0
C286 C 0.55031 0.1997 0.51542 0.0
C287 C 0.53699 0.20251 0.4357 0.0
C288 C 0.54494 0.17236 0.57668 0.0
C289 C 0.51712 0.17811 0.41999 0.0
C290 C 0.51153 0.15096 0.48066 0.0
C291 C 0.52128 0.11992 0.61789 0.0
C292 C 0.53609 0.11639 0.69489 0.0
C293 C 0.52565 0.14765 0.55862 0.0
C294 C 0.55462 0.14134 0.7132 0.0
C295 C 0.55898 0.16902 0.65482 0.0
H296 H 0.35327 0.52126 0.8978 0.0
H297 H 0.36339 0.56193 0.62543 0.0
H298 H 0.41499 0.56818 0.63219 0.0
H299 H 0.45745 0.56159 0.71533 0.0
H300 H 0.4472 0.51893 0.98634 0.0
H301 H 0.39567 0.51406 0.98053 0.0
C302 C 0.36684 0.53182 0.84023 0.0
C303 C 0.35447 0.54197 0.76194 0.0
C304 C 0.39653 0.53487 0.84432 0.0
C305 C 0.37229 0.5547 0.68713 0.0
C306 C 0.40184 0.55812 0.69085 0.0
C307 C 0.44392 0.55124 0.7731 0.0
C308 C 0.45618 0.54075 0.85128 0.0
C309 C 0.41422 0.54826 0.76904 0.0
C310 C 0.43834 0.5273 0.92546 0.0
C311 C 0.40885 0.52449 0.92215 0.0
H312 H 0.04597 0.37305 0.80154 0.0
H313 H 0.04393 0.40785 0.52723 0.0
H314 H 0.03552 0.45536 0.55619 0.0
H315 H 0.03058 0.48775 0.65898 0.0
H316 H 0.03157 0.45312 0.93352 0.0
H317 H 0.0388 0.40504 0.90542 0.0
C318 C 0.04332 0.39091 0.74816 0.0
C319 C 0.0453 0.38671 0.66203 0.0
C320 C 0.03872 0.41837 0.7655 0.0
C321 C 0.04216 0.4103 0.59383 0.0
C322 C 0.03752 0.43754 0.61049 0.0
C323 C 0.03235 0.46969 0.71289 0.0
C324 C 0.03124 0.47441 0.79855 0.0
C325 C 0.03606 0.44197 0.69595 0.0
C326 C 0.03323 0.45054 0.86721 0.0
C327 C 0.03708 0.4229 0.85095 0.0
H328 H 0.85991 1.00302 0.95397 0.0
H329 H 0.85593 0.018 0.21448 0.0
H330 H 0.90776 0.03067 0.21221 0.0
H331 H 0.95398 0.03835 0.13568 0.0
H332 H 0.95894 0.0224 0.87657 0.0
H333 H 0.90691 1.00909 0.87848 0.0
C334 C 0.87047 1.00916 0.00998 0.0
C335 C 0.85417 1.01024 0.08371 0.0
C336 C 0.90035 0.01614 0.00841 0.0
C337 C 0.86807 0.01758 0.15659 0.0
C338 C 0.89765 0.02473 0.15535 0.0
C339 C 0.94368 0.03188 0.07964 0.0
C340 C 0.96018 0.03137 0.00601 0.0
C341 C 0.91396 0.02425 0.08152 0.0
C342 C 0.94662 0.02282 0.93406 0.0
C343 C 0.91691 0.01533 0.93514 0.0
H344 H 0.51486 0.88356 0.27747 0.0
H345 H 0.58381 0.92389 0.41407 0.0
H346 H 0.58917 0.97064 0.3061 0.0
H347 H 0.57221 1.00124 0.17816 0.0
H348 H 0.50344 0.96135 0.03992 0.0
H349 H 0.50009 0.91342 0.14231 0.0
C350 C 0.53125 0.90253 0.28274 0.0
C351 C 0.54874 0.90034 0.3542 0.0
C352 C 0.53406 0.92953 0.22041 0.0
C353 C 0.56999 0.92503 0.36011 0.0
C354 C 0.57299 0.95182 0.29847 0.0
C355 C 0.55659 0.98201 0.17008 0.0
C356 C 0.5379 0.985 0.10186 0.0
C357 C 0.55481 0.95453 0.22926 0.0
C358 C 0.518 0.95974 0.09193 0.0
C359 C 0.51605 0.93232 0.15065 0.0
H360 H 0.70382 0.55827 0.98832 0.0
H361 H 0.6921 0.52598 0.26486 0.0
H362 H 0.64325 0.53418 0.26063 0.0
H363 H 0.60267 0.54706 0.17701 0.0
H364 H 0.6143 0.58068 0.90085 0.0
H365 H 0.6641 0.57545 0.90594 0.0
C366 C 0.69063 0.55348 0.04763 0.0
C367 C 0.70148 0.54126 0.12668 0.0
C368 C 0.66239 0.55815 0.0446 0.0
C369 C 0.68422 0.53524 0.2032 0.0
C370 C 0.65623 0.53981 0.20074 0.0
C371 C 0.61616 0.55346 0.11802 0.0
C372 C 0.60463 0.56386 0.03845 0.0
C373 C 0.64488 0.55066 0.12163 0.0
C374 C 0.62252 0.57233 0.9628 0.0
C375 C 0.65104 0.56937 0.96571 0.0
H376 H 0.0186 0.70308 0.06748 0.0
H377 H 0.04102 0.6742 0.33075 0.0
H378 H 0.04959 0.62739 0.29717 0.0
H379 H 0.0487 0.59366 0.19509 0.0
H380 H 0.02651 0.62194 0.93136 0.0
H381 H 0.01988 0.66987 0.96255 0.0
C382 C 0.02573 0.68669 0.11717 0.0
C383 C 0.02944 0.69234 0.20165 0.0
C384 C 0.0304 0.65959 0.09732 0.0
C385 C 0.03833 0.67062 0.26531 0.0
C386 C 0.04308 0.64378 0.24611 0.0
C387 C 0.04252 0.61035 0.14412 0.0
C388 C 0.03784 0.604 0.06094 0.0
C389 C 0.03888 0.63785 0.1627 0.0
C390 C 0.03003 0.62604 0.99588 0.0
C391 C 0.02628 0.65349 0.01387 0.0
H392 H 0.98995 0.21002 0.60607 0.0
H393 H 0.04113 0.25087 0.78908 0.0
H394 H 0.04276 0.20143 0.87619 0.0
H395 H 0.03725 0.14758 0.88462 0.0
H396 H 0.99027 0.10691 0.69285 0.0
H397 H 0.97997 0.15544 0.62345 0.0
C398 C 1.00091 0.20805 0.66621 0.0
C399 C 0.01586 0.23404 0.69032 0.0
C400 C 1.00337 0.17965 0.71245 0.0
C401 C 0.02945 0.23128 0.76911 0.0
C402 C 0.03082 0.20298 0.81802 0.0
C403 C 0.02461 0.14916 0.82785 0.0
C404 C 0.01513 0.12366 0.7927 0.0
C405 C 0.01918 0.17715 0.7876 0.0
C406 C 0.99824 0.12618 0.72041 0.0
C407 C 0.99225 0.15392 0.68091 0.0
H408 H 0.34949 0.04743 0.83586 0.0
H409 H 0.35776 0.99374 0.64784 0.0
H410 H 0.40234 0.98306 0.70758 0.0
H411 H 0.44324 0.99763 0.79311 0.0
H412 H 0.43523 0.05205 0.97961 0.0
H413 H 0.3864 0.05359 0.94162 0.0
C414 C 0.36049 0.0324 0.81049 0.0
C415 C 0.35062 0.02166 0.7371 0.0
C416 C 0.38661 0.02719 0.84336 0.0
C417 C 0.36514 1.00239 0.70415 0.0
C418 C 0.39076 0.99652 0.73774 0.0
C419 C 0.43057 1.00914 0.82704 0.0
C420 C 0.44319 0.02565 0.88675 0.0
C421 C 0.40246 1.01015 0.80421 0.0
C422 C 0.42634 0.04013 0.93095 0.0
C423 C 0.39832 0.04089 0.90961 0.0
H424 H 0.51594 0.33051 0.55758 0.0
H425 H 0.60457 0.3344 0.50097 0.0
H426 H 0.6176 0.36903 0.59874 0.0
H427 H 0.60334 0.40524 0.67616 0.0
H428 H 0.5141 0.40502 0.71577 0.0
H429 H 0.5017 0.36154 0.65137 0.0
C430 C 0.53804 0.33802 0.56997 0.0
C431 C 0.55934 0.33 0.52365 0.0
C432 C 0.54521 0.35909 0.62189 0.0
C433 C 0.58797 0.34016 0.53757 0.0
C434 C 0.59534 0.36023 0.59231 0.0
C435 C 0.5812 0.39546 0.67152 0.0
C436 C 0.55978 0.40872 0.69978 0.0
C437 C 0.57411 0.37108 0.6309 0.0
C438 C 0.53114 0.3953 0.69527 0.0
C439 C 0.52394 0.3705 0.65764 0.0
H440 H 0.22094 0.55776 0.84005 0.0
H441 H 0.20827 0.60621 0.58477 0.0
H442 H 0.16204 0.61312 0.634 0.0
H443 H 0.12164 0.59659 0.74181 0.0
H444 H 0.13458 0.54806 0.99733 0.0
H445 H 0.18403 0.5503 0.95644 0.0
C446 C 0.20855 0.57087 0.79632 0.0
C447 C 0.21778 0.58111 0.70878 0.0
C448 C 0.18159 0.57407 0.82455 0.0
C449 C 0.20143 0.59792 0.65246 0.0
C450 C 0.17487 0.60164 0.68036 0.0
C451 C 0.13546 0.58724 0.78922 0.0
C452 C 0.12407 0.57129 0.87151 0.0
C453 C 0.16408 0.58844 0.76508 0.0
C454 C 0.14248 0.55961 0.93246 0.0
C455 C 0.1709 0.56096 0.9093 0.0
H456 H 0.01936 0.86074 0.26622 0.0
H457 H 0.07543 0.83868 0.08397 0.0
H458 H 0.08062 0.88959 0.9957 0.0
H459 H 0.07148 0.9416 0.97734 0.0
H460 H 0.02331 0.96383 0.17892 0.0
H461 H 0.01439 0.91181 0.25692 0.0
C462 C 0.03341 0.86703 0.20837 0.0
C463 C 0.04771 0.84602 0.18348 0.0
C464 C 0.03833 0.89664 0.16316 0.0
C465 C 0.06426 0.85432 0.10517 0.0
C466 C 0.06756 0.88356 0.05546 0.0
C467 C 0.05953 0.93496 0.03923 0.0
C468 C 0.04829 0.95634 0.07343 0.0
C469 C 0.05527 0.90512 0.08519 0.0
C470 C 0.03259 0.94776 0.15281 0.0
C471 C 0.02719 0.91803 0.19659 0.0
H472 H 0.71119 0.08012 0.0848 0.0
H473 H 0.72264 1.01514 0.93504 0.0
H474 H 0.6808 0.0243 0.85376 0.0
H475 H 0.63639 0.04372 0.84659 0.0
H476 H 0.62392 0.10644 0.00403 0.0
H477 H 0.67105 0.10595 0.05939 0.0
C478 C 0.70501 0.06881 0.03216 0.0
C479 C 0.71964 0.04691 0.01586 0.0
C480 C 0.68049 0.07343 0.98834 0.0
C481 C 0.71166 0.03221 0.948 0.0
C482 C 0.68757 0.0372 0.90244 0.0
C483 C 0.64412 0.05756 0.89207 0.0
C484 C 0.62628 0.07432 0.92313 0.0
C485 C 0.67102 0.0566 0.92537 0.0
C486 C 0.63701 0.09298 0.97985 0.0
C487 C 0.66394 0.09262 0.01196 0.0
H488 H 0.50723 0.78682 0.23343 0.0
H489 H 0.45413 0.73945 0.45972 0.0
H490 H 0.43183 0.70232 0.37964 0.0
H491 H 0.43808 0.67691 0.26189 0.0
H492 H 0.49108 0.72402 0.03468 0.0
H493 H 0.50234 0.76812 0.09835 0.0
C494 C 0.48985 0.76919 0.26407 0.0
C495 C 0.48308 0.76514 0.35319 0.0
C496 C 0.47769 0.74747 0.21831 0.0
C497 C 0.46027 0.74242 0.39171 0.0
C498 C 0.44763 0.72111 0.3461 0.0
C499 C 0.45106 0.69715 0.22414 0.0
C500 C 0.46484 0.69663 0.14542 0.0
C501 C 0.45777 0.72226 0.2616 0.0
C502 C 0.48124 0.72337 0.09734 0.0
C503 C 0.48767 0.74865 0.13361 0.0
H504 H 0.8559 0.49715 0.17407 0.0
H505 H 0.84195 0.56285 0.95173 0.0
H506 H 0.88614 0.55859 0.88049 0.0
H507 H 0.93224 0.54277 0.89306 0.0
H508 H 0.94743 0.4795 0.12065 0.0
H509 H 0.89924 0.47616 0.17795 0.0
C510 C 0.86223 0.50999 0.10907 0.0
C511 C 0.84587 0.53058 0.06862 0.0
C512 C 0.88818 0.50832 0.07031 0.0
C513 C 0.85408 0.54681 0.9841 0.0
C514 C 0.87955 0.54464 0.94392 0.0
C515 C 0.92496 0.52785 0.95465 0.0
C516 C 0.9438 0.51185 0.00321 0.0
C517 C 0.89738 0.52652 0.98821 0.0
C518 C 0.93364 0.49231 0.08212 0.0
C519 C 0.90605 0.49045 0.11514 0.0
H520 H 0.01175 0.26477 0.35442 0.0
H521 H 0.09831 0.28685 0.42447 0.0
H522 H 0.11254 0.25475 0.33321 0.0
H523 H 0.09847 0.21326 0.25596 0.0
H524 H 0.01117 0.19084 0.18925 0.0
H525 H 0.99916 0.22963 0.25743 0.0
C526 C 0.03398 0.26377 0.34594 0.0
C527 C 0.05402 0.27868 0.39496 0.0
C528 C 0.04168 0.24405 0.29684 0.0
C529 C 0.08261 0.27633 0.3857 0.0
C530 C 0.0906 0.25736 0.33499 0.0
C531 C 0.07694 0.21723 0.25443 0.0
C532 C 0.05566 0.19827 0.21914 0.0
C533 C 0.07006 0.23995 0.29372 0.0
C534 C 0.0279 0.20411 0.2183 0.0
C535 C 0.021 0.22661 0.25663 0.0
H536 H 0.32718 0.04566 0.40203 0.0
H537 H 0.34818 0.12621 0.50107 0.0
H538 H 0.38378 0.148 0.38164 0.0
H539 H 0.41436 0.14019 0.26471 0.0
H540 H 0.39366 0.05877 0.16857 0.0
H541 H 0.35232 0.04141 0.26982 0.0
C542 C 0.33871 0.06848 0.39487 0.0
C543 C 0.335 0.08453 0.4591 0.0
C544 C 0.35965 0.08039 0.32766 0.0
C545 C 0.35041 0.11379 0.45107 0.0
C546 C 0.37105 0.12601 0.38364 0.0
C547 C 0.40045 0.11891 0.26503 0.0
C548 C 0.40725 0.10064 0.21001 0.0
C549 C 0.37676 0.10893 0.32402 0.0
C550 C 0.38888 0.07328 0.21011 0.0
C551 C 0.3653 0.06325 0.26836 0.0
H552 H 0.50141 0.36781 0.29842 0.0
H553 H 0.56621 0.35185 0.13322 0.0
H554 H 0.56619 0.40019 0.03484 0.0
H555 H 0.55136 0.4497 0.00597 0.0
H556 H 0.48737 0.46477 0.17771 0.0
H557 H 0.48365 0.41446 0.26307 0.0
C558 C 0.51492 0.37456 0.2394 0.0
C559 C 0.53353 0.35615 0.22249 0.0
C560 C 0.51543 0.40268 0.18532 0.0
C561 C 0.55131 0.36535 0.14672 0.0
C562 C 0.55157 0.39322 0.09128 0.0
C563 C 0.53643 0.4419 0.06159 0.0
C564 C 0.51993 0.46144 0.08549 0.0
C565 C 0.53435 0.41255 0.11145 0.0
C566 C 0.50059 0.45064 0.1577 0.0
C567 C 0.49834 0.4217 0.20678 0.0
H568 H 0.24388 0.55996 0.40352 0.0
H569 H 0.23117 0.47819 0.59625 0.0
H570 H 0.19745 0.45346 0.50547 0.0
H571 H 0.16591 0.45803 0.38232 0.0
H572 H 0.1781 0.54086 0.19247 0.0
H573 H 0.2178 0.56212 0.26995 0.0
C574 C 0.23463 0.53636 0.42353 0.0
C575 C 0.24015 0.52071 0.50549 0.0
C576 C 0.21462 0.52272 0.37235 0.0
C577 C 0.2276 0.49039 0.53241 0.0
C578 C 0.20798 0.47644 0.48115 0.0
C579 C 0.17756 0.48057 0.35743 0.0
C580 C 0.16885 0.49791 0.2822 0.0
C581 C 0.20036 0.49282 0.40283 0.0
C582 C 0.18439 0.52696 0.24996 0.0
C583 C 0.20705 0.53923 0.29448 0.0
H584 H 0.99195 0.79997 0.46439 0.0
H585 H 0.07914 0.79901 0.52198 0.0
H586 H 0.07728 0.83303 0.62087 0.0
H587 H 0.05346 0.8705 0.66832 0.0
H588 H 0.96713 0.87362 0.5993 0.0
H589 H 0.96606 0.83174 0.52825 0.0
C590 C 0.01001 0.80583 0.50258 0.0
C591 C 0.03549 0.79643 0.48688 0.0
C592 C 0.00928 0.82698 0.55478 0.0
C593 C 0.05905 0.80516 0.53452 0.0
C594 C 0.05818 0.82533 0.58936 0.0
C595 C 0.03431 0.86184 0.63849 0.0
C596 C 0.01047 0.87562 0.6392 0.0
C597 C 0.03389 0.8377 0.59616 0.0
C598 C 0.98576 0.86359 0.60099 0.0
C599 C 0.98513 0.83957 0.55974 0.0
H600 H 0.74012 0.03708 0.3666 0.0
H601 H 0.70848 0.95492 0.28398 0.0
H602 H 0.67242 0.93997 0.40381 0.0
H603 H 0.64582 0.95379 0.51876 0.0
H604 H 0.67654 0.03704 0.59783 0.0
H605 H 0.71716 0.0479 0.49411 0.0
C606 C 0.72602 0.01539 0.37734 0.0
C607 C 0.72711 0.99682 0.318 0.0
C608 C 0.70481 1.00746 0.44468 0.0
C609 C 0.70828 0.96918 0.33033 0.0
C610 C 0.68745 0.96086 0.39802 0.0
C611 C 0.66161 0.97413 0.51389 0.0
C612 C 0.65799 0.9947 0.56533 0.0
C613 C 0.68481 0.98038 0.45345 0.0
C614 C 0.67885 0.02076 0.55928 0.0
C615 C 0.70203 0.02708 0.49961 0.0
H616 H 0.51057 0.74269 0.68004 0.0
H617 H 0.58383 0.74653 0.51581 0.0
H618 H 0.59188 0.69916 0.6038 0.0
H619 H 0.57439 0.65343 0.71833 0.0
H620 H 0.50082 0.65124 0.8815 0.0
H621 H 0.49676 0.70069 0.80393 0.0
C622 C 0.52891 0.73367 0.6656 0.0
C623 C 0.54687 0.74838 0.59249 0.0
C624 C 0.53297 0.70615 0.71533 0.0
C625 C 0.57013 0.73605 0.57303 0.0
C626 C 0.57443 0.70867 0.6226 0.0
C627 C 0.55765 0.66389 0.73737 0.0
C628 C 0.53775 0.64808 0.80536 0.0
C629 C 0.55541 0.69295 0.69237 0.0
C630 C 0.5164 0.66239 0.82935 0.0
C631 C 0.51399 0.69089 0.78493 0.0
H632 H 0.83091 0.52222 0.39172 0.0
H633 H 0.82705 0.61386 0.28364 0.0
H634 H 0.86141 0.63061 0.38612 0.0
H635 H 0.89853 0.6191 0.48877 0.0
H636 H 0.90273 0.5269 0.59214 0.0
H637 H 0.86252 0.51046 0.50913 0.0
C638 C 0.83681 0.54578 0.39313 0.0
C639 C 0.82645 0.5668 0.33088 0.0
C640 C 0.85734 0.55516 0.44959 0.0
C641 C 0.83445 0.5973 0.33201 0.0
C642 C 0.85446 0.60686 0.38962 0.0
C643 C 0.89025 0.59543 0.4945 0.0
C644 C 0.90416 0.5743 0.54493 0.0
C645 C 0.86702 0.58603 0.446 0.0
C646 C 0.89304 0.54368 0.55179 0.0
C647 C 0.86988 0.53421 0.50483 0.0
loop_
_geom_bond_atom_site_label_1
_geom_bond_atom_site_label_2
_geom_bond_distance
_geom_bond_site_symmetry_2
_ccdc_geom_bond_type
H0 C7 0.929 . S
H1 C10 0.930 . S
H2 C12 0.929 . S
H3 C4 0.969 . S
C4 H3 0.969 . S
C4 O5 1.550 1_556 S
C4 H6 0.973 . S
O5 C4 1.550 1_554 S
O5 C11 1.412 . S
H6 C4 0.973 . S
C7 H0 0.929 . S
C7 C8 1.400 . S
C7 C9 1.364 1_554 S
C8 C7 1.400 . S
C8 C12 1.377 . S
C9 C7 1.364 1_556 S
C9 C10 1.374 . S
C10 H1 0.930 . S
C10 C9 1.374 . S
C10 C11 1.383 1_556 S
C11 O5 1.412 . S
C11 C10 1.383 1_554 S
C11 C12 1.394 . S
C12 H2 0.929 . S
C12 C8 1.377 . S
C12 C11 1.394 . S
H13 C20 0.929 . S
H14 C23 0.930 1_556 S
H15 C25 0.929 . S
H16 C17 0.969 1_455 S
C17 H16 0.969 1_655 S
C17 O18 1.550 . S
C17 H19 0.973 1_554 S
O18 C17 1.550 . S
O18 C24 1.412 . S
H19 C17 0.973 1_556 S
C20 H13 0.929 . S
C20 C21 1.400 . S
C20 C22 1.364 . S
C21 C20 1.400 . S
C21 C25 1.377 . S
C22 C20 1.364 . S
C22 C23 1.374 . S
C23 H14 0.930 1_554 S
C23 C22 1.374 . S
C23 C24 1.383 . S
C24 O18 1.412 . S
C24 C23 1.383 . S
C24 C25 1.394 . S
C25 H15 0.929 . S
C25 C21 1.377 . S
C25 C24 1.394 . S
H26 C33 0.929 . S
H27 C36 0.930 1_556 S
H28 C38 0.929 . S
H29 C30 0.969 . S
C30 H29 0.969 . S
C30 O31 1.550 1_556 S
C30 H32 0.973 . S
O31 C30 1.550 1_554 S
O31 C37 1.412 . S
H32 C30 0.973 . S
C33 H26 0.929 . S
C33 C34 1.400 . S
C33 C35 1.364 . S
C34 C33 1.400 . S
C34 C38 1.377 . S
C35 C33 1.364 . S
C35 C36 1.374 . S
C36 H27 0.930 1_554 S
C36 C35 1.374 . S
C36 C37 1.383 . S
C37 O31 1.412 . S
C37 C36 1.383 . S
C37 C38 1.394 . S
C38 H28 0.929 . S
C38 C34 1.377 . S
C38 C37 1.394 . S
H39 C46 0.929 . S
H40 C49 0.930 . S
H41 C51 0.929 . S
H42 C43 0.969 . S
C43 H42 0.969 . S
C43 O44 1.550 . S
C43 H45 0.973 . S
O44 C43 1.550 . S
O44 C50 1.412 . S
H45 C43 0.973 . S
C46 H39 0.929 . S
C46 C47 1.400 . S
C46 C48 1.364 . S
C47 C46 1.400 . S
C47 C51 1.377 . S
C48 C46 1.364 . S
C48 C49 1.374 . S
C49 H40 0.930 . S
C49 C48 1.374 . S
C49 C50 1.383 . S
C50 O44 1.412 . S
C50 C49 1.383 . S
C50 C51 1.394 . S
C51 H41 0.929 . S
C51 C47 1.377 . S
C51 C50 1.394 . S
H52 C59 0.929 . S
H53 C62 0.930 . S
H54 C64 0.929 . S
H55 C56 0.969 . S
C56 H55 0.969 . S
C56 O57 1.550 . S
C56 H58 0.973 . S
O57 C56 1.550 . S
O57 C63 1.412 . S
H58 C56 0.973 . S
C59 H52 0.929 . S
C59 C60 1.400 . S
C59 C61 1.364 . S
C60 C59 1.400 . S
C60 C64 1.377 . S
C61 C59 1.364 . S
C61 C62 1.374 . S
C62 H53 0.930 . S
C62 C61 1.374 . S
C62 C63 1.383 . S
C63 O57 1.412 . S
C63 C62 1.383 . S
C63 C64 1.394 . S
C64 H54 0.929 . S
C64 C60 1.377 . S
C64 C63 1.394 . S
H65 C72 0.929 . S
H66 C75 0.930 . S
H67 C77 0.929 . S
H68 C69 0.969 . S
C69 H68 0.969 . S
C69 O70 1.550 . S
C69 H71 0.973 . S
O70 C69 1.550 . S
O70 C76 1.412 . S
H71 C69 0.973 . S
C72 H65 0.929 . S
C72 C73 1.400 . S
C72 C74 1.364 . S
C73 C72 1.400 . S
C73 C77 1.377 . S
C74 C72 1.364 . S
C74 C75 1.374 . S
C75 H66 0.930 . S
C75 C74 1.374 . S
C75 C76 1.383 . S
C76 O70 1.412 . S
C76 C75 1.383 . S
C76 C77 1.394 . S
C77 H67 0.929 . S
C77 C73 1.377 . S
C77 C76 1.394 . S
H78 C85 0.929 . S
H79 C88 0.930 . S
H80 C90 0.929 . S
H81 C82 0.969 . S
C82 H81 0.969 . S
C82 O83 1.550 . S
C82 H84 0.973 . S
O83 C82 1.550 . S
O83 C89 1.412 . S
H84 C82 0.973 . S
C85 H78 0.929 . S
C85 C86 1.400 . S
C85 C87 1.364 . S
C86 C85 1.400 . S
C86 C90 1.377 . S
C87 C85 1.364 . S
C87 C88 1.374 . S
C88 H79 0.930 . S
C88 C87 1.374 . S
C88 C89 1.383 . S
C89 O83 1.412 . S
C89 C88 1.383 . S
C89 C90 1.394 . S
C90 H80 0.929 . S
C90 C86 1.377 . S
C90 C89 1.394 . S
H91 C98 0.929 . S
H92 C101 0.930 . S
H93 C103 0.929 . S
H94 C95 0.969 . S
C95 H94 0.969 . S
C95 O96 1.550 . S
C95 H97 0.973 . S
O96 C95 1.550 . S
O96 C102 1.412 . S
H97 C95 0.973 . S
C98 H91 0.929 . S
C98 C99 1.400 . S
C98 C100 1.364 . S
C99 C98 1.400 . S
C99 C103 1.377 . S
C100 C98 1.364 . S
C100 C101 1.374 . S
C101 H92 0.930 . S
C101 C100 1.374 . S
C101 C102 1.383 . S
C102 O96 1.412 . S
C102 C101 1.383 . S
C102 C103 1.394 . S
C103 H93 0.929 . S
C103 C99 1.377 . S
C103 C102 1.394 . S
Nd104 C106 2.836 1_545 S
Nd104 O124 2.500 1_445 S
Nd104 O125 2.492 1_545 S
Nd104 O126 2.487 . S
Nd104 O127 2.682 . S
Nd104 O128 2.410 1_545 S
Nd104 O133 2.414 1_455 S
Nd104 O135 2.424 . S
Nd105 C115 2.836 . S
Nd105 O127 2.414 1_554 S
Nd105 O129 2.424 1_545 S
Nd105 O130 2.500 . S
Nd105 O131 2.492 . S
Nd105 O132 2.487 1_455 S
Nd105 O133 2.682 1_454 S
Nd105 O134 2.410 1_554 S
C106 Nd104 2.836 1_565 S
C106 C107 1.498 . S
C106 O124 1.258 1_455 S
C106 O125 1.239 . S
C107 C106 1.498 . S
C107 C108 1.366 1_455 S
C107 C112 1.407 . S
C108 C107 1.366 1_655 S
C108 C109 1.392 . S
C108 H136 0.930 . S
C109 C108 1.392 . S
C109 C110 1.398 . S
C109 H137 0.929 . S
C110 C109 1.398 . S
C110 C111 1.352 1_655 S
C111 C110 1.352 1_455 S
C111 C112 1.384 . S
C111 H138 0.930 . S
C112 C107 1.407 . S
C112 C111 1.384 . S
C112 H139 0.929 . S
C113 O126 1.241 . S
C113 O127 1.273 . S
C114 O128 1.251 . S
C114 O129 1.268 1_556 S
C115 Nd105 2.836 . S
C115 C116 1.498 . S
C115 O130 1.258 . S
C115 O131 1.239 . S
C116 C115 1.498 . S
C116 C117 1.366 . S
C116 C121 1.407 . S
C117 C116 1.366 . S
C117 C118 1.392 . S
C117 H140 0.930 . S
C118 C117 1.392 . S
C118 C119 1.398 . S
C118 H141 0.929 . S
C119 C118 1.398 . S
C119 C120 1.352 . S
C120 C119 1.352 . S
C120 C121 1.384 . S
C120 H142 0.930 . S
C121 C116 1.407 . S
C121 C120 1.384 . S
C121 H143 0.929 . S
C122 O132 1.241 1_556 S
C122 O133 1.273 . S
C123 O134 1.251 . S
C123 O135 1.268 . S
O124 Nd104 2.500 1_665 S
O124 C106 1.258 1_655 S
O125 Nd104 2.492 1_565 S
O125 C106 1.239 . S
O126 Nd104 2.487 . S
O126 C113 1.241 . S
O127 Nd104 2.682 . S
O127 Nd105 2.414 1_556 S
O127 C113 1.273 . S
O128 Nd104 2.410 1_565 S
O128 C114 1.251 . S
O129 Nd105 2.424 1_565 S
O129 C114 1.268 1_554 S
O130 Nd105 2.500 . S
O130 C115 1.258 . S
O131 Nd105 2.492 . S
O131 C115 1.239 . S
O132 Nd105 2.487 1_655 S
O132 C122 1.241 1_554 S
O133 Nd104 2.414 1_655 S
O133 Nd105 2.682 1_656 S
O133 C122 1.273 . S
O134 Nd105 2.410 1_556 S
O134 C123 1.251 . S
O135 Nd104 2.424 . S
O135 C123 1.268 . S
H136 C108 0.930 . S
H137 C109 0.929 . S
H138 C111 0.930 . S
H139 C112 0.929 . S
H140 C117 0.930 . S
H141 C118 0.929 . S
H142 C120 0.930 . S
H143 C121 0.929 . S
Nd144 C146 2.836 1_545 S
Nd144 O164 2.500 1_545 S
Nd144 O165 2.492 . S
Nd144 O166 2.487 . S
Nd144 O167 2.682 . S
Nd144 O168 2.410 . S
Nd144 O173 2.414 1_545 S
Nd144 O175 2.424 . S
Nd145 C155 2.836 . S
Nd145 O167 2.414 1_554 S
Nd145 O169 2.424 1_554 S
Nd145 O170 2.500 . S
Nd145 O171 2.492 . S
Nd145 O172 2.487 1_545 S
Nd145 O173 2.682 1_544 S
Nd145 O174 2.410 1_554 S
C146 Nd144 2.836 1_565 S
C146 C147 1.498 . S
C146 O164 1.258 . S
C146 O165 1.239 1_565 S
C147 C146 1.498 . S
C147 C148 1.366 . S
C147 C152 1.407 . S
C148 C147 1.366 . S
C148 C149 1.392 . S
C148 H176 0.930 . S
C149 C148 1.392 . S
C149 C150 1.398 . S
C149 H177 0.929 . S
C150 C149 1.398 . S
C150 C151 1.352 . S
C151 C150 1.352 . S
C151 C152 1.384 . S
C151 H178 0.930 . S
C152 C147 1.407 . S
C152 C151 1.384 . S
C152 H179 0.929 1_565 S
C153 O166 1.241 . S
C153 O167 1.273 . S
C154 O168 1.251 . S
C154 O169 1.268 . S
C155 Nd145 2.836 . S
C155 C156 1.498 . S
C155 O170 1.258 . S
C155 O171 1.239 . S
C156 C155 1.498 . S
C156 C157 1.366 . S
C156 C161 1.407 . S
C157 C156 1.366 . S
C157 C158 1.392 . S
C157 H180 0.930 . S
C158 C157 1.392 . S
C158 C159 1.398 . S
C158 H181 0.929 . S
C159 C158 1.398 . S
C159 C160 1.352 . S
C160 C159 1.352 . S
C160 C161 1.384 . S
C160 H182 0.930 . S
C161 C156 1.407 . S
C161 C160 1.384 . S
C161 H183 0.929 . S
C162 O172 1.241 . S
C162 O173 1.273 1_554 S
C163 O174 1.251 . S
C163 O175 1.268 . S
O164 Nd144 2.500 1_565 S
O164 C146 1.258 . S
O165 Nd144 2.492 . S
O165 C146 1.239 1_545 S
O166 Nd144 2.487 . S
O166 C153 1.241 . S
O167 Nd144 2.682 . S
O167 Nd145 2.414 1_556 S
O167 C153 1.273 . S
O168 Nd144 2.410 . S
O168 C154 1.251 . S
O169 Nd145 2.424 1_556 S
O169 C154 1.268 . S
O170 Nd145 2.500 . S
O170 C155 1.258 . S
O171 Nd145 2.492 . S
O171 C155 1.239 . S
O172 Nd145 2.487 1_565 S
O172 C162 1.241 . S
O173 Nd144 2.414 1_565 S
O173 Nd145 2.682 1_566 S
O173 C162 1.273 1_556 S
O174 Nd145 2.410 1_556 S
O174 C163 1.251 . S
O175 Nd144 2.424 . S
O175 C163 1.268 . S
H176 C148 0.930 . S
H177 C149 0.929 . S
H178 C151 0.930 . S
H179 C152 0.929 1_545 S
H180 C157 0.930 . S
H181 C158 0.929 . S
H182 C160 0.930 . S
H183 C161 0.929 . S
Nd184 C186 2.836 . S
Nd184 O204 2.500 . S
Nd184 O205 2.492 . S
Nd184 O206 2.487 . S
Nd184 O207 2.682 1_554 S
Nd184 O208 2.410 1_554 S
Nd184 O213 2.414 1_554 S
Nd184 O215 2.424 . S
Nd185 C195 2.836 . S
Nd185 O207 2.414 . S
Nd185 O209 2.424 . S
Nd185 O210 2.500 . S
Nd185 O211 2.492 . S
Nd185 O212 2.487 . S
Nd185 O213 2.682 . S
Nd185 O214 2.410 . S
C186 Nd184 2.836 . S
C186 C187 1.498 . S
C186 O204 1.258 . S
C186 O205 1.239 . S
C187 C186 1.498 . S
C187 C188 1.366 . S
C187 C192 1.407 . S
C188 C187 1.366 . S
C188 C189 1.392 . S
C188 H216 0.930 . S
C189 C188 1.392 . S
C189 C190 1.398 . S
C189 H217 0.929 . S
C190 C189 1.398 . S
C190 C191 1.352 . S
C191 C190 1.352 . S
C191 C192 1.384 . S
C191 H218 0.930 . S
C192 C187 1.407 . S
C192 C191 1.384 . S
C192 H219 0.929 . S
C193 O206 1.241 1_556 S
C193 O207 1.273 . S
C194 O208 1.251 . S
C194 O209 1.268 . S
C195 Nd185 2.836 . S
C195 C196 1.498 . S
C195 O210 1.258 . S
C195 O211 1.239 . S
C196 C195 1.498 . S
C196 C197 1.366 . S
C196 C201 1.407 . S
C197 C196 1.366 . S
C197 C198 1.392 . S
C197 H220 0.930 . S
C198 C197 1.392 . S
C198 C199 1.398 . S
C198 H221 0.929 . S
C199 C198 1.398 . S
C199 C200 1.352 . S
C200 C199 1.352 . S
C200 C201 1.384 . S
C200 H222 0.930 . S
C201 C196 1.407 . S
C201 C200 1.384 . S
C201 H223 0.929 . S
C202 O212 1.241 . S
C202 O213 1.273 . S
C203 O214 1.251 1_554 S
C203 O215 1.268 . S
O204 Nd184 2.500 . S
O204 C186 1.258 . S
O205 Nd184 2.492 . S
O205 C186 1.239 . S
O206 Nd184 2.487 . S
O206 C193 1.241 1_554 S
O207 Nd184 2.682 1_556 S
O207 Nd185 2.414 . S
O207 C193 1.273 . S
O208 Nd184 2.410 1_556 S
O208 C194 1.251 . S
O209 Nd185 2.424 . S
O209 C194 1.268 . S
O210 Nd185 2.500 . S
O210 C195 1.258 . S
O211 Nd185 2.492 . S
O211 C195 1.239 . S
O212 Nd185 2.487 . S
O212 C202 1.241 . S
O213 Nd184 2.414 1_556 S
O213 Nd185 2.682 . S
O213 C202 1.273 . S
O214 Nd185 2.410 . S
O214 C203 1.251 1_556 S
O215 Nd184 2.424 . S
O215 C203 1.268 . S
H216 C188 0.930 . S
H217 C189 0.929 . S
H218 C191 0.930 . S
H219 C192 0.929 . S
H220 C197 0.930 . S
H221 C198 0.929 . S
H222 C200 0.930 . S
H223 C201 0.929 . S
Nd224 C226 2.836 1_455 S
Nd224 O244 2.500 1_455 S
Nd224 O245 2.492 1_455 S
Nd224 O246 2.487 . S
Nd224 O247 2.682 . S
Nd224 O248 2.410 1_455 S
Nd224 O253 2.414 . S
Nd224 O255 2.424 . S
Nd225 C235 2.836 . S
Nd225 O247 2.414 1_554 S
Nd225 O249 2.424 1_455 S
Nd225 O250 2.500 . S
Nd225 O251 2.492 . S
Nd225 O252 2.487 . S
Nd225 O253 2.682 1_554 S
Nd225 O254 2.410 1_554 S
C226 Nd224 2.836 1_655 S
C226 C227 1.498 . S
C226 O244 1.258 . S
C226 O245 1.239 . S
C227 C226 1.498 . S
C227 C228 1.366 . S
C227 C232 1.407 . S
C228 C227 1.366 . S
C228 C229 1.392 . S
C228 H256 0.930 . S
C229 C228 1.392 . S
C229 C230 1.398 . S
C229 H257 0.929 . S
C230 C229 1.398 . S
C230 C231 1.352 . S
C231 C230 1.352 . S
C231 C232 1.384 . S
C231 H258 0.930 . S
C232 C227 1.407 . S
C232 C231 1.384 . S
C232 H259 0.929 . S
C233 O246 1.241 . S
C233 O247 1.273 . S
C234 O248 1.251 . S
C234 O249 1.268 1_556 S
C235 Nd225 2.836 . S
C235 C236 1.498 . S
C235 O250 1.258 . S
C235 O251 1.239 . S
C236 C235 1.498 . S
C236 C237 1.366 . S
C236 C241 1.407 . S
C237 C236 1.366 . S
C237 C238 1.392 . S
C237 H260 0.930 . S
C238 C237 1.392 . S
C238 C239 1.398 . S
C238 H261 0.929 . S
C239 C238 1.398 . S
C239 C240 1.352 . S
C240 C239 1.352 . S
C240 C241 1.384 . S
C240 H262 0.930 . S
C241 C236 1.407 . S
C241 C240 1.384 . S
C241 H263 0.929 . S
C242 O252 1.241 1_556 S
C242 O253 1.273 . S
C243 O254 1.251 . S
C243 O255 1.268 . S
O244 Nd224 2.500 1_655 S
O244 C226 1.258 . S
O245 Nd224 2.492 1_655 S
O245 C226 1.239 . S
O246 Nd224 2.487 . S
O246 C233 1.241 . S
O247 Nd224 2.682 . S
O247 Nd225 2.414 1_556 S
O247 C233 1.273 . S
O248 Nd224 2.410 1_655 S
O248 C234 1.251 . S
O249 Nd225 2.424 1_655 S
O249 C234 1.268 1_554 S
O250 Nd225 2.500 . S
O250 C235 1.258 . S
O251 Nd225 2.492 . S
O251 C235 1.239 . S
O252 Nd225 2.487 . S
O252 C242 1.241 1_554 S
O253 Nd224 2.414 . S
O253 Nd225 2.682 1_556 S
O253 C242 1.273 . S
O254 Nd225 2.410 1_556 S
O254 C243 1.251 . S
O255 Nd224 2.424 . S
O255 C243 1.268 . S
H256 C228 0.930 . S
H257 C229 0.929 . S
H258 C231 0.930 . S
H259 C232 0.929 . S
H260 C237 0.930 . S
H261 C238 0.929 . S
H262 C240 0.930 . S
H263 C241 0.929 . S
H264 C270 0.930 . S
H265 C273 0.930 . S
H266 C274 0.930 . S
H267 C275 0.930 . S
H268 C278 0.930 . S
H269 C279 0.930 . S
C270 H264 0.930 . S
C270 C271 1.355 . S
C270 C272 1.415 . S
C271 C270 1.355 . S
C271 C273 1.419 . S
C272 C270 1.415 . S
C272 C277 1.425 . S
C272 C279 1.409 . S
C273 H265 0.930 . S
C273 C271 1.419 . S
C273 C274 1.362 . S
C274 H266 0.930 . S
C274 C273 1.362 . S
C274 C277 1.409 . S
C275 H267 0.930 . S
C275 C276 1.355 . S
C275 C277 1.415 . S
C276 C275 1.355 . S
C276 C278 1.419 . S
C277 C272 1.425 . S
C277 C274 1.409 . S
C277 C275 1.415 . S
C278 H268 0.930 . S
C278 C276 1.419 . S
C278 C279 1.362 . S
C279 H269 0.930 . S
C279 C272 1.409 . S
C279 C278 1.362 . S
H280 C286 0.930 . S
H281 C289 0.930 . S
H282 C290 0.930 . S
H283 C291 0.930 . S
H284 C294 0.930 . S
H285 C295 0.930 . S
C286 H280 0.930 . S
C286 C287 1.355 . S
C286 C288 1.415 . S
C287 C286 1.355 . S
C287 C289 1.419 . S
C288 C286 1.415 . S
C288 C293 1.425 . S
C288 C295 1.409 . S
C289 H281 0.930 . S
C289 C287 1.419 . S
C289 C290 1.362 . S
C290 H282 0.930 . S
C290 C289 1.362 . S
C290 C293 1.409 . S
C291 H283 0.930 . S
C291 C292 1.355 . S
C291 C293 1.415 . S
C292 C291 1.355 . S
C292 C294 1.419 . S
C293 C288 1.425 . S
C293 C290 1.409 . S
C293 C291 1.415 . S
C294 H284 0.930 . S
C294 C292 1.419 . S
C294 C295 1.362 . S
C295 H285 0.930 . S
C295 C288 1.409 . S
C295 C294 1.362 . S
H296 C302 0.930 . S
H297 C305 0.930 . S
H298 C306 0.930 . S
H299 C307 0.930 . S
H300 C310 0.930 . S
H301 C311 0.930 . S
C302 H296 0.930 . S
C302 C303 1.355 . S
C302 C304 1.415 . S
C303 C302 1.355 . S
C303 C305 1.419 . S
C304 C302 1.415 . S
C304 C309 1.425 . S
C304 C311 1.409 . S
C305 H297 0.930 . S
C305 C303 1.419 . S
C305 C306 1.362 . S
C306 H298 0.930 . S
C306 C305 1.362 . S
C306 C309 1.409 . S
C307 H299 0.930 . S
C307 C308 1.355 . S
C307 C309 1.415 . S
C308 C307 1.355 . S
C308 C310 1.419 . S
C309 C304 1.425 . S
C309 C306 1.409 . S
C309 C307 1.415 . S
C310 H300 0.930 . S
C310 C308 1.419 . S
C310 C311 1.362 . S
C311 H301 0.930 . S
C311 C304 1.409 . S
C311 C310 1.362 . S
H312 C318 0.930 . S
H313 C321 0.930 . S
H314 C322 0.930 . S
H315 C323 0.930 . S
H316 C326 0.930 . S
H317 C327 0.930 . S
C318 H312 0.930 . S
C318 C319 1.355 . S
C318 C320 1.415 . S
C319 C318 1.355 . S
C319 C321 1.419 . S
C320 C318 1.415 . S
C320 C325 1.425 . S
C320 C327 1.409 . S
C321 H313 0.930 . S
C321 C319 1.419 . S
C321 C322 1.362 . S
C322 H314 0.930 . S
C322 C321 1.362 . S
C322 C325 1.409 . S
C323 H315 0.930 . S
C323 C324 1.355 . S
C323 C325 1.415 . S
C324 C323 1.355 . S
C324 C326 1.419 . S
C325 C320 1.425 . S
C325 C322 1.409 . S
C325 C323 1.415 . S
C326 H316 0.930 . S
C326 C324 1.419 . S
C326 C327 1.362 . S
C327 H317 0.930 . S
C327 C320 1.409 . S
C327 C326 1.362 . S
H328 C334 0.930 . S
H329 C337 0.930 1_545 S
H330 C338 0.930 . S
H331 C339 0.930 . S
H332 C342 0.930 . S
H333 C343 0.930 . S
C334 H328 0.930 . S
C334 C335 1.355 1_554 S
C334 C336 1.415 . S
C335 C334 1.355 1_556 S
C335 C337 1.419 . S
C336 C334 1.415 . S
C336 C341 1.425 1_554 S
C336 C343 1.409 . S
C337 H329 0.930 1_565 S
C337 C335 1.419 . S
C337 C338 1.362 1_565 S
C338 H330 0.930 . S
C338 C337 1.362 1_545 S
C338 C341 1.409 1_545 S
C339 H331 0.930 . S
C339 C340 1.355 . S
C339 C341 1.415 1_545 S
C340 C339 1.355 . S
C340 C342 1.419 1_546 S
C341 C336 1.425 1_556 S
C341 C338 1.409 1_565 S
C341 C339 1.415 1_565 S
C342 H332 0.930 . S
C342 C340 1.419 1_564 S
C342 C343 1.362 . S
C343 H333 0.930 . S
C343 C336 1.409 . S
C343 C342 1.362 . S
H344 C350 0.930 . S
H345 C353 0.930 . S
H346 C354 0.930 . S
H347 C355 0.930 . S
H348 C358 0.930 . S
H349 C359 0.930 . S
C350 H344 0.930 . S
C350 C351 1.355 . S
C350 C352 1.415 . S
C351 C350 1.355 . S
C351 C353 1.419 . S
C352 C350 1.415 . S
C352 C357 1.425 . S
C352 C359 1.409 . S
C353 H345 0.930 . S
C353 C351 1.419 . S
C353 C354 1.362 . S
C354 H346 0.930 . S
C354 C353 1.362 . S
C354 C357 1.409 . S
C355 H347 0.930 . S
C355 C356 1.355 . S
C355 C357 1.415 . S
C356 C355 1.355 . S
C356 C358 1.419 . S
C357 C352 1.425 . S
C357 C354 1.409 . S
C357 C355 1.415 . S
C358 H348 0.930 . S
C358 C356 1.419 . S
C358 C359 1.362 . S
C359 H349 0.930 . S
C359 C352 1.409 . S
C359 C358 1.362 . S
H360 C366 0.930 . S
H361 C369 0.930 . S
H362 C370 0.930 . S
H363 C371 0.930 1_554 S
H364 C374 0.930 . S
H365 C375 0.930 . S
C366 H360 0.930 . S
C366 C367 1.355 . S
C366 C368 1.415 . S
C367 C366 1.355 . S
C367 C369 1.419 1_556 S
C368 C366 1.415 . S
C368 C373 1.425 . S
C368 C375 1.409 . S
C369 H361 0.930 . S
C369 C367 1.419 1_554 S
C369 C370 1.362 . S
C370 H362 0.930 . S
C370 C369 1.362 . S
C370 C373 1.409 1_554 S
C371 H363 0.930 1_556 S
C371 C372 1.355 . S
C371 C373 1.415 . S
C372 C371 1.355 . S
C372 C374 1.419 . S
C373 C368 1.425 . S
C373 C370 1.409 1_556 S
C373 C371 1.415 . S
C374 H364 0.930 . S
C374 C372 1.419 . S
C374 C375 1.362 . S
C375 H365 0.930 . S
C375 C368 1.409 . S
C375 C374 1.362 . S
H376 C382 0.930 1_556 S
H377 C385 0.930 . S
H378 C386 0.930 . S
H379 C387 0.930 1_554 S
H380 C390 0.930 . S
H381 C391 0.930 . S
C382 H376 0.930 1_554 S
C382 C383 1.355 . S
C382 C384 1.415 1_554 S
C383 C382 1.355 . S
C383 C385 1.419 1_655 S
C384 C382 1.415 1_556 S
C384 C389 1.425 1_656 S
C384 C391 1.409 . S
C385 H377 0.930 . S
C385 C383 1.419 1_455 S
C385 C386 1.362 . S
C386 H378 0.930 . S
C386 C385 1.362 . S
C386 C389 1.409 . S
C387 H379 0.930 1_556 S
C387 C388 1.355 . S
C387 C389 1.415 1_556 S
C388 C387 1.355 . S
C388 C390 1.419 1_455 S
C389 C384 1.425 1_454 S
C389 C386 1.409 . S
C389 C387 1.415 1_554 S
C390 H380 0.930 . S
C390 C388 1.419 1_655 S
C390 C391 1.362 . S
C391 H381 0.930 . S
C391 C384 1.409 . S
C391 C390 1.362 . S
H392 C398 0.930 . S
H393 C401 0.930 . S
H394 C402 0.930 . S
H395 C403 0.930 . S
H396 C406 0.930 . S
H397 C407 0.930 . S
C398 H392 0.930 . S
C398 C399 1.355 . S
C398 C400 1.415 . S
C399 C398 1.355 . S
C399 C401 1.419 . S
C400 C398 1.415 . S
C400 C405 1.425 . S
C400 C407 1.409 . S
C401 H393 0.930 . S
C401 C399 1.419 . S
C401 C402 1.362 . S
C402 H394 0.930 . S
C402 C401 1.362 . S
C402 C405 1.409 . S
C403 H395 0.930 . S
C403 C404 1.355 . S
C403 C405 1.415 . S
C404 C403 1.355 . S
C404 C406 1.419 . S
C405 C400 1.425 . S
C405 C402 1.409 . S
C405 C403 1.415 . S
C406 H396 0.930 . S
C406 C404 1.419 . S
C406 C407 1.362 . S
C407 H397 0.930 . S
C407 C400 1.409 . S
C407 C406 1.362 . S
H408 C414 0.930 . S
H409 C417 0.930 . S
H410 C418 0.930 . S
H411 C419 0.930 . S
H412 C422 0.930 1_554 S
H413 C423 0.930 1_554 S
C414 H408 0.930 . S
C414 C415 1.355 . S
C414 C416 1.415 . S
C415 C414 1.355 . S
C415 C417 1.419 . S
C416 C414 1.415 . S
C416 C421 1.425 . S
C416 C423 1.409 . S
C417 H409 0.930 . S
C417 C415 1.419 . S
C417 C418 1.362 . S
C418 H410 0.930 . S
C418 C417 1.362 . S
C418 C421 1.409 . S
C419 H411 0.930 . S
C419 C420 1.355 . S
C419 C421 1.415 . S
C420 C419 1.355 . S
C420 C422 1.419 . S
C421 C416 1.425 . S
C421 C418 1.409 . S
C421 C419 1.415 . S
C422 H412 0.930 1_556 S
C422 C420 1.419 . S
C422 C423 1.362 . S
C423 H413 0.930 1_556 S
C423 C416 1.409 . S
C423 C422 1.362 . S
H424 C430 0.930 . S
H425 C433 0.930 . S
H426 C434 0.930 . S
H427 C435 0.930 . S
H428 C438 0.930 . S
H429 C439 0.930 . S
C430 H424 0.930 . S
C430 C431 1.355 . S
C430 C432 1.415 . S
C431 C430 1.355 . S
C431 C433 1.419 . S
C432 C430 1.415 . S
C432 C437 1.425 . S
C432 C439 1.409 . S
C433 H425 0.930 . S
C433 C431 1.419 . S
C433 C434 1.362 . S
C434 H426 0.930 . S
C434 C433 1.362 . S
C434 C437 1.409 . S
C435 H427 0.930 . S
C435 C436 1.355 . S
C435 C437 1.415 . S
C436 C435 1.355 . S
C436 C438 1.419 . S
C437 C432 1.425 . S
C437 C434 1.409 . S
C437 C435 1.415 . S
C438 H428 0.930 . S
C438 C436 1.419 . S
C438 C439 1.362 . S
C439 H429 0.930 . S
C439 C432 1.409 . S
C439 C438 1.362 . S
H440 C446 0.930 . S
H441 C449 0.930 . S
H442 C450 0.930 . S
H443 C451 0.930 . S
H444 C454 0.930 . S
H445 C455 0.930 . S
C446 H440 0.930 . S
C446 C447 1.355 . S
C446 C448 1.415 . S
C447 C446 1.355 . S
C447 C449 1.419 . S
C448 C446 1.415 . S
C448 C453 1.425 . S
C448 C455 1.409 . S
C449 H441 0.930 . S
C449 C447 1.419 . S
C449 C450 1.362 . S
C450 H442 0.930 . S
C450 C449 1.362 . S
C450 C453 1.409 . S
C451 H443 0.930 . S
C451 C452 1.355 . S
C451 C453 1.415 . S
C452 C451 1.355 . S
C452 C454 1.419 . S
C453 C448 1.425 . S
C453 C450 1.409 . S
C453 C451 1.415 . S
C454 H444 0.930 . S
C454 C452 1.419 . S
C454 C455 1.362 . S
C455 H445 0.930 . S
C455 C448 1.409 . S
C455 C454 1.362 . S
H456 C462 0.930 . S
H457 C465 0.930 . S
H458 C466 0.930 . S
H459 C467 0.930 . S
H460 C470 0.930 . S
H461 C471 0.930 . S
C462 H456 0.930 . S
C462 C463 1.355 . S
C462 C464 1.415 . S
C463 C462 1.355 . S
C463 C465 1.419 1_654 S
C464 C462 1.415 . S
C464 C469 1.425 1_654 S
C464 C471 1.409 . S
C465 H457 0.930 . S
C465 C463 1.419 1_456 S
C465 C466 1.362 . S
C466 H458 0.930 . S
C466 C465 1.362 . S
C466 C469 1.409 . S
C467 H459 0.930 . S
C467 C468 1.355 . S
C467 C469 1.415 . S
C468 C467 1.355 . S
C468 C470 1.419 1_456 S
C469 C464 1.425 1_456 S
C469 C466 1.409 . S
C469 C467 1.415 . S
C470 H460 0.930 . S
C470 C468 1.419 1_654 S
C470 C471 1.362 . S
C471 H461 0.930 . S
C471 C464 1.409 . S
C471 C470 1.362 . S
H472 C478 0.930 1_545 S
H473 C481 0.930 . S
H474 C482 0.930 . S
H475 C483 0.930 . S
H476 C486 0.930 . S
H477 C487 0.930 . S
C478 H472 0.930 1_565 S
C478 C479 1.355 . S
C478 C480 1.415 1_565 S
C479 C478 1.355 . S
C479 C481 1.419 1_556 S
C480 C478 1.415 1_545 S
C480 C485 1.425 1_545 S
C480 C487 1.409 . S
C481 H473 0.930 . S
C481 C479 1.419 1_554 S
C481 C482 1.362 . S
C482 H474 0.930 . S
C482 C481 1.362 . S
C482 C485 1.409 1_554 S
C483 H475 0.930 . S
C483 C484 1.355 1_565 S
C483 C485 1.415 . S
C484 C483 1.355 1_545 S
C484 C486 1.419 . S
C485 C480 1.425 1_565 S
C485 C482 1.409 1_556 S
C485 C483 1.415 . S
C486 H476 0.930 . S
C486 C484 1.419 . S
C486 C487 1.362 . S
C487 H477 0.930 . S
C487 C480 1.409 . S
C487 C486 1.362 . S
H488 C494 0.930 . S
H489 C497 0.930 . S
H490 C498 0.930 . S
H491 C499 0.930 . S
H492 C502 0.930 . S
H493 C503 0.930 . S
C494 H488 0.930 . S
C494 C495 1.355 . S
C494 C496 1.415 . S
C495 C494 1.355 . S
C495 C497 1.419 . S
C496 C494 1.415 . S
C496 C501 1.425 . S
C496 C503 1.409 . S
C497 H489 0.930 . S
C497 C495 1.419 . S
C497 C498 1.362 . S
C498 H490 0.930 . S
C498 C497 1.362 . S
C498 C501 1.409 . S
C499 H491 0.930 . S
C499 C500 1.355 . S
C499 C501 1.415 . S
C500 C499 1.355 . S
C500 C502 1.419 . S
C501 C496 1.425 . S
C501 C498 1.409 . S
C501 C499 1.415 . S
C502 H492 0.930 . S
C502 C500 1.419 . S
C502 C503 1.362 . S
C503 H493 0.930 . S
C503 C496 1.409 . S
C503 C502 1.362 . S
H504 C510 0.930 1_554 S
H505 C513 0.930 . S
H506 C514 0.930 . S
H507 C515 0.930 . S
H508 C518 0.930 . S
H509 C519 0.930 . S
C510 H504 0.930 1_556 S
C510 C511 1.355 . S
C510 C512 1.415 . S
C511 C510 1.355 . S
C511 C513 1.419 . S
C512 C510 1.415 . S
C512 C517 1.425 . S
C512 C519 1.409 1_556 S
C513 H505 0.930 . S
C513 C511 1.419 . S
C513 C514 1.362 . S
C514 H506 0.930 . S
C514 C513 1.362 . S
C514 C517 1.409 . S
C515 H507 0.930 . S
C515 C516 1.355 . S
C515 C517 1.415 . S
C516 C515 1.355 . S
C516 C518 1.419 1_556 S
C517 C512 1.425 . S
C517 C514 1.409 . S
C517 C515 1.415 . S
C518 H508 0.930 . S
C518 C516 1.419 1_554 S
C518 C519 1.362 . S
C519 H509 0.930 . S
C519 C512 1.409 1_554 S
C519 C518 1.362 . S
H520 C526 0.930 . S
H521 C529 0.930 . S
H522 C530 0.930 . S
H523 C531 0.930 . S
H524 C534 0.930 . S
H525 C535 0.930 . S
C526 H520 0.930 . S
C526 C527 1.355 . S
C526 C528 1.415 . S
C527 C526 1.355 . S
C527 C529 1.419 . S
C528 C526 1.415 . S
C528 C533 1.425 . S
C528 C535 1.409 . S
C529 H521 0.930 . S
C529 C527 1.419 . S
C529 C530 1.362 . S
C530 H522 0.930 . S
C530 C529 1.362 . S
C530 C533 1.409 . S
C531 H523 0.930 . S
C531 C532 1.355 . S
C531 C533 1.415 . S
C532 C531 1.355 . S
C532 C534 1.419 . S
C533 C528 1.425 . S
C533 C530 1.409 . S
C533 C531 1.415 . S
C534 H524 0.930 . S
C534 C532 1.419 . S
C534 C535 1.362 . S
C535 H525 0.930 . S
C535 C528 1.409 . S
C535 C534 1.362 . S
H536 C542 0.930 . S
H537 C545 0.930 . S
H538 C546 0.930 . S
H539 C547 0.930 . S
H540 C550 0.930 . S
H541 C551 0.930 . S
C542 H536 0.930 . S
C542 C543 1.355 . S
C542 C544 1.415 . S
C543 C542 1.355 . S
C543 C545 1.419 . S
C544 C542 1.415 . S
C544 C549 1.425 . S
C544 C551 1.409 . S
C545 H537 0.930 . S
C545 C543 1.419 . S
C545 C546 1.362 . S
C546 H538 0.930 . S
C546 C545 1.362 . S
C546 C549 1.409 . S
C547 H539 0.930 . S
C547 C548 1.355 . S
C547 C549 1.415 . S
C548 C547 1.355 . S
C548 C550 1.419 . S
C549 C544 1.425 . S
C549 C546 1.409 . S
C549 C547 1.415 . S
C550 H540 0.930 . S
C550 C548 1.419 . S
C550 C551 1.362 . S
C551 H541 0.930 . S
C551 C544 1.409 . S
C551 C550 1.362 . S
H552 C558 0.930 . S
H553 C561 0.930 . S
H554 C562 0.930 . S
H555 C563 0.930 . S
H556 C566 0.930 . S
H557 C567 0.930 . S
C558 H552 0.930 . S
C558 C559 1.355 . S
C558 C560 1.415 . S
C559 C558 1.355 . S
C559 C561 1.419 . S
C560 C558 1.415 . S
C560 C565 1.425 . S
C560 C567 1.409 . S
C561 H553 0.930 . S
C561 C559 1.419 . S
C561 C562 1.362 . S
C562 H554 0.930 . S
C562 C561 1.362 . S
C562 C565 1.409 . S
C563 H555 0.930 . S
C563 C564 1.355 . S
C563 C565 1.415 . S
C564 C563 1.355 . S
C564 C566 1.419 . S
C565 C560 1.425 . S
C565 C562 1.409 . S
C565 C563 1.415 . S
C566 H556 0.930 . S
C566 C564 1.419 . S
C566 C567 1.362 . S
C567 H557 0.930 . S
C567 C560 1.409 . S
C567 C566 1.362 . S
H568 C574 0.930 . S
H569 C577 0.930 . S
H570 C578 0.930 . S
H571 C579 0.930 . S
H572 C582 0.930 . S
H573 C583 0.930 . S
C574 H568 0.930 . S
C574 C575 1.355 . S
C574 C576 1.415 . S
C575 C574 1.355 . S
C575 C577 1.419 . S
C576 C574 1.415 . S
C576 C581 1.425 . S
C576 C583 1.409 . S
C577 H569 0.930 . S
C577 C575 1.419 . S
C577 C578 1.362 . S
C578 H570 0.930 . S
C578 C577 1.362 . S
C578 C581 1.409 . S
C579 H571 0.930 . S
C579 C580 1.355 . S
C579 C581 1.415 . S
C580 C579 1.355 . S
C580 C582 1.419 . S
C581 C576 1.425 . S
C581 C578 1.409 . S
C581 C579 1.415 . S
C582 H572 0.930 . S
C582 C580 1.419 . S
C582 C583 1.362 . S
C583 H573 0.930 . S
C583 C576 1.409 . S
C583 C582 1.362 . S
H584 C590 0.930 . S
H585 C593 0.930 . S
H586 C594 0.930 . S
H587 C595 0.930 . S
H588 C598 0.930 . S
H589 C599 0.930 . S
C590 H584 0.930 . S
C590 C591 1.355 . S
C590 C592 1.415 . S
C591 C590 1.355 . S
C591 C593 1.419 1_655 S
C592 C590 1.415 . S
C592 C597 1.425 1_655 S
C592 C599 1.409 . S
C593 H585 0.930 . S
C593 C591 1.419 1_455 S
C593 C594 1.362 . S
C594 H586 0.930 . S
C594 C593 1.362 . S
C594 C597 1.409 . S
C595 H587 0.930 . S
C595 C596 1.355 1_455 S
C595 C597 1.415 . S
C596 C595 1.355 1_655 S
C596 C598 1.419 . S
C597 C592 1.425 1_455 S
C597 C594 1.409 . S
C597 C595 1.415 . S
C598 H588 0.930 . S
C598 C596 1.419 . S
C598 C599 1.362 . S
C599 H589 0.930 . S
C599 C592 1.409 . S
C599 C598 1.362 . S
H600 C606 0.930 . S
H601 C609 0.930 . S
H602 C610 0.930 . S
H603 C611 0.930 . S
H604 C614 0.930 . S
H605 C615 0.930 . S
C606 H600 0.930 . S
C606 C607 1.355 . S
C606 C608 1.415 . S
C607 C606 1.355 . S
C607 C609 1.419 . S
C608 C606 1.415 . S
C608 C613 1.425 . S
C608 C615 1.409 . S
C609 H601 0.930 . S
C609 C607 1.419 . S
C609 C610 1.362 . S
C610 H602 0.930 . S
C610 C609 1.362 . S
C610 C613 1.409 . S
C611 H603 0.930 . S
C611 C612 1.355 . S
C611 C613 1.415 . S
C612 C611 1.355 . S
C612 C614 1.419 . S
C613 C608 1.425 . S
C613 C610 1.409 . S
C613 C611 1.415 . S
C614 H604 0.930 . S
C614 C612 1.419 . S
C614 C615 1.362 . S
C615 H605 0.930 . S
C615 C608 1.409 . S
C615 C614 1.362 . S
H616 C622 0.930 . S
H617 C625 0.930 . S
H618 C626 0.930 . S
H619 C627 0.930 . S
H620 C630 0.930 . S
H621 C631 0.930 . S
C622 H616 0.930 . S
C622 C623 1.355 . S
C622 C624 1.415 . S
C623 C622 1.355 . S
C623 C625 1.419 . S
C624 C622 1.415 . S
C624 C629 1.425 . S
C624 C631 1.409 . S
C625 H617 0.930 . S
C625 C623 1.419 . S
C625 C626 1.362 . S
C626 H618 0.930 . S
C626 C625 1.362 . S
C626 C629 1.409 . S
C627 H619 0.930 . S
C627 C628 1.355 . S
C627 C629 1.415 . S
C628 C627 1.355 . S
C628 C630 1.419 . S
C629 C624 1.425 . S
C629 C626 1.409 . S
C629 C627 1.415 . S
C630 H620 0.930 . S
C630 C628 1.419 . S
C630 C631 1.362 . S
C631 H621 0.930 . S
C631 C624 1.409 . S
C631 C630 1.362 . S
H632 C638 0.930 . S
H633 C641 0.930 . S
H634 C642 0.930 . S
H635 C643 0.930 . S
H636 C646 0.930 . S
H637 C647 0.930 . S
C638 H632 0.930 . S
C638 C639 1.355 . S
C638 C640 1.415 . S
C639 C638 1.355 . S
C639 C641 1.419 . S
C640 C638 1.415 . S
C640 C645 1.425 . S
C640 C647 1.409 . S
C641 H633 0.930 . S
C641 C639 1.419 . S
C641 C642 1.362 . S
C642 H634 0.930 . S
C642 C641 1.362 . S
C642 C645 1.409 . S
C643 H635 0.930 . S
C643 C644 1.355 . S
C643 C645 1.415 . S
C644 C643 1.355 . S
C644 C646 1.419 . S
C645 C640 1.425 . S
C645 C642 1.409 . S
C645 C643 1.415 . S
C646 H636 0.930 . S
C646 C644 1.419 . S
C646 C647 1.362 . S
C647 H637 0.930 . S
C647 C640 1.409 . S
C647 C646 1.362 . S
C271 C82 1.666 . S
C276 C113 1.629 . S
C292 C153 1.289 . S
C287 C95 1.177 . S
C308 C202 1.373 . S
C303 C56 1.363 . S
C324 C233 1.728 . S
C319 C69 1.777 . S
C340 C122 1.619 . S
C335 C30 1.533 . S
C351 C43 1.223 . S
C356 C162 1.303 . S
C367 C4 1.371 . S
C372 C193 1.379 . S
C383 C17 1.697 . S
C388 C242 1.742 . S
C404 C123 1.090 . S
C399 C74 1.072 . S
C420 C163 1.568 . S
C415 C87 1.345 . S
C436 C199 0.829 . S
C431 C100 0.873 . S
C447 C61 1.097 . S
C452 C243 1.258 . S
C463 C22 1.026 . S
C468 C114 1.090 . S
C484 C154 1.573 . S
C479 C35 1.365 1_556 S
C500 C190 0.885 . S
C495 C48 0.841 . S
C511 C9 1.170 . S
C516 C234 1.278 . S
C527 C73 1.619 . S
C532 C119 1.650 . S
C543 C86 1.444 . S
C548 C159 1.455 . S
C564 C203 1.954 . S
C559 C99 1.824 . S
C580 C239 1.444 . S
C575 C60 1.427 . S
C591 C21 1.616 . S
C596 C110 1.662 . S
C612 C150 1.446 . S
C607 C34 1.446 . S
C628 C194 1.959 . S
C623 C47 1.844 . S
C639 C8 1.433 . S
C644 C230 1.407 . S
