# Generated by pormake.
# Topology tbo, (3,4)-cn, num edge types: 1
# Building blocks:
#     Node 0, Type 0, BuildingBlock: BETDIP_clean_linker_0, # of connection points: 3
#     Node 1, Type 0, BuildingBlock: BETDIP_clean_linker_0, # of connection points: 3
#     Node 2, Type 0, BuildingBlock: BETDIP_clean_linker_0, # of connection points: 3
#     Node 3, Type 0, BuildingBlock: BETDIP_clean_linker_0, # of connection points: 3
#     Node 4, Type 0, BuildingBlock: BETDIP_clean_linker_0, # of connection points: 3
#     Node 5, Type 0, BuildingBlock: BETDIP_clean_linker_0, # of connection points: 3
#     Node 6, Type 0, BuildingBlock: BETDIP_clean_linker_0, # of connection points: 3
#     Node 7, Type 0, BuildingBlock: BETDIP_clean_linker_0, # of connection points: 3
#     Node 8, Type 0, BuildingBlock: BETDIP_clean_linker_0, # of connection points: 3
#     Node 9, Type 0, BuildingBlock: BETDIP_clean_linker_0, # of connection points: 3
#     Node 10, Type 0, BuildingBlock: BETDIP_clean_linker_0, # of connection points: 3
#     Node 11, Type 0, BuildingBlock: BETDIP_clean_linker_0, # of connection points: 3
#     Node 12, Type 0, BuildingBlock: BETDIP_clean_linker_0, # of connection points: 3
#     Node 13, Type 0, BuildingBlock: BETDIP_clean_linker_0, # of connection points: 3
#     Node 14, Type 0, BuildingBlock: BETDIP_clean_linker_0, # of connection points: 3
#     Node 15, Type 0, BuildingBlock: BETDIP_clean_linker_0, # of connection points: 3
#     Node 16, Type 0, BuildingBlock: BETDIP_clean_linker_0, # of connection points: 3
#     Node 17, Type 0, BuildingBlock: BETDIP_clean_linker_0, # of connection points: 3
#     Node 18, Type 0, BuildingBlock: BETDIP_clean_linker_0, # of connection points: 3
#     Node 19, Type 0, BuildingBlock: BETDIP_clean_linker_0, # of connection points: 3
#     Node 20, Type 0, BuildingBlock: BETDIP_clean_linker_0, # of connection points: 3
#     Node 21, Type 0, BuildingBlock: BETDIP_clean_linker_0, # of connection points: 3
#     Node 22, Type 0, BuildingBlock: BETDIP_clean_linker_0, # of connection points: 3
#     Node 23, Type 0, BuildingBlock: BETDIP_clean_linker_0, # of connection points: 3
#     Node 24, Type 0, BuildingBlock: BETDIP_clean_linker_0, # of connection points: 3
#     Node 25, Type 0, BuildingBlock: BETDIP_clean_linker_0, # of connection points: 3
#     Node 26, Type 0, BuildingBlock: BETDIP_clean_linker_0, # of connection points: 3
#     Node 27, Type 0, BuildingBlock: BETDIP_clean_linker_0, # of connection points: 3
#     Node 28, Type 0, BuildingBlock: BETDIP_clean_linker_0, # of connection points: 3
#     Node 29, Type 0, BuildingBlock: BETDIP_clean_linker_0, # of connection points: 3
#     Node 30, Type 0, BuildingBlock: BETDIP_clean_linker_0, # of connection points: 3
#     Node 31, Type 0, BuildingBlock: BETDIP_clean_linker_0, # of connection points: 3
#     Node 32, Type 1, BuildingBlock: ESEHIV_clean_sbu_0, # of connection points: 4
#     Node 33, Type 1, BuildingBlock: ESEHIV_clean_sbu_0, # of connection points: 4
#     Node 34, Type 1, BuildingBlock: ESEHIV_clean_sbu_0, # of connection points: 4
#     Node 35, Type 1, BuildingBlock: ESEHIV_clean_sbu_0, # of connection points: 4
#     Node 36, Type 1, BuildingBlock: ESEHIV_clean_sbu_0, # of connection points: 4
#     Node 37, Type 1, BuildingBlock: ESEHIV_clean_sbu_0, # of connection points: 4
#     Node 38, Type 1, BuildingBlock: ESEHIV_clean_sbu_0, # of connection points: 4
#     Node 39, Type 1, BuildingBlock: ESEHIV_clean_sbu_0, # of connection points: 4
#     Node 40, Type 1, BuildingBlock: ESEHIV_clean_sbu_0, # of connection points: 4
#     Node 41, Type 1, BuildingBlock: ESEHIV_clean_sbu_0, # of connection points: 4
#     Node 42, Type 1, BuildingBlock: ESEHIV_clean_sbu_0, # of connection points: 4
#     Node 43, Type 1, BuildingBlock: ESEHIV_clean_sbu_0, # of connection points: 4
#     Node 44, Type 1, BuildingBlock: ESEHIV_clean_sbu_0, # of connection points: 4
#     Node 45, Type 1, BuildingBlock: ESEHIV_clean_sbu_0, # of connection points: 4
#     Node 46, Type 1, BuildingBlock: ESEHIV_clean_sbu_0, # of connection points: 4
#     Node 47, Type 1, BuildingBlock: ESEHIV_clean_sbu_0, # of connection points: 4
#     Node 48, Type 1, BuildingBlock: ESEHIV_clean_sbu_0, # of connection points: 4
#     Node 49, Type 1, BuildingBlock: ESEHIV_clean_sbu_0, # of connection points: 4
#     Node 50, Type 1, BuildingBlock: ESEHIV_clean_sbu_0, # of connection points: 4
#     Node 51, Type 1, BuildingBlock: ESEHIV_clean_sbu_0, # of connection points: 4
#     Node 52, Type 1, BuildingBlock: ESEHIV_clean_sbu_0, # of connection points: 4
#     Node 53, Type 1, BuildingBlock: ESEHIV_clean_sbu_0, # of connection points: 4
#     Node 54, Type 1, BuildingBlock: ESEHIV_clean_sbu_0, # of connection points: 4
#     Node 55, Type 1, BuildingBlock: ESEHIV_clean_sbu_0, # of connection points: 4
#     Edge 56, Type (0, 1), BuildingBlock: CIFDUS_clean_linker_0, # of connection points: 2
#     Edge 57, Type (0, 1), BuildingBlock: CIFDUS_clean_linker_0, # of connection points: 2
#     Edge 58, Type (0, 1), BuildingBlock: CIFDUS_clean_linker_0, # of connection points: 2
#     Edge 59, Type (0, 1), BuildingBlock: CIFDUS_clean_linker_0, # of connection points: 2
#     Edge 60, Type (0, 1), BuildingBlock: CIFDUS_clean_linker_0, # of connection points: 2
#     Edge 61, Type (0, 1), BuildingBlock: CIFDUS_clean_linker_0, # of connection points: 2
#     Edge 62, Type (0, 1), BuildingBlock: CIFDUS_clean_linker_0, # of connection points: 2
#     Edge 63, Type (0, 1), BuildingBlock: CIFDUS_clean_linker_0, # of connection points: 2
#     Edge 64, Type (0, 1), BuildingBlock: CIFDUS_clean_linker_0, # of connection points: 2
#     Edge 65, Type (0, 1), BuildingBlock: CIFDUS_clean_linker_0, # of connection points: 2
#     Edge 66, Type (0, 1), BuildingBlock: CIFDUS_clean_linker_0, # of connection points: 2
#     Edge 67, Type (0, 1), BuildingBlock: CIFDUS_clean_linker_0, # of connection points: 2
#     Edge 68, Type (0, 1), BuildingBlock: CIFDUS_clean_linker_0, # of connection points: 2
#     Edge 69, Type (0, 1), BuildingBlock: CIFDUS_clean_linker_0, # of connection points: 2
#     Edge 70, Type (0, 1), BuildingBlock: CIFDUS_clean_linker_0, # of connection points: 2
#     Edge 71, Type (0, 1), BuildingBlock: CIFDUS_clean_linker_0, # of connection points: 2
#     Edge 72, Type (0, 1), BuildingBlock: CIFDUS_clean_linker_0, # of connection points: 2
#     Edge 73, Type (0, 1), BuildingBlock: CIFDUS_clean_linker_0, # of connection points: 2
#     Edge 74, Type (0, 1), BuildingBlock: CIFDUS_clean_linker_0, # of connection points: 2
#     Edge 75, Type (0, 1), BuildingBlock: CIFDUS_clean_linker_0, # of connection points: 2
#     Edge 76, Type (0, 1), BuildingBlock: CIFDUS_clean_linker_0, # of connection points: 2
#     Edge 77, Type (0, 1), BuildingBlock: CIFDUS_clean_linker_0, # of connection points: 2
#     Edge 78, Type (0, 1), BuildingBlock: CIFDUS_clean_linker_0, # of connection points: 2
#     Edge 79, Type (0, 1), BuildingBlock: CIFDUS_clean_linker_0, # of connection points: 2
#     Edge 80, Type (0, 1), BuildingBlock: CIFDUS_clean_linker_0, # of connection points: 2
#     Edge 81, Type (0, 1), BuildingBlock: CIFDUS_clean_linker_0, # of connection points: 2
#     Edge 82, Type (0, 1), BuildingBlock: CIFDUS_clean_linker_0, # of connection points: 2
#     Edge 83, Type (0, 1), BuildingBlock: CIFDUS_clean_linker_0, # of connection points: 2
#     Edge 84, Type (0, 1), BuildingBlock: CIFDUS_clean_linker_0, # of connection points: 2
#     Edge 85, Type (0, 1), BuildingBlock: CIFDUS_clean_linker_0, # of connection points: 2
#     Edge 86, Type (0, 1), BuildingBlock: CIFDUS_clean_linker_0, # of connection points: 2
#     Edge 87, Type (0, 1), BuildingBlock: CIFDUS_clean_linker_0, # of connection points: 2
#     Edge 88, Type (0, 1), BuildingBlock: CIFDUS_clean_linker_0, # of connection points: 2
#     Edge 89, Type (0, 1), BuildingBlock: CIFDUS_clean_linker_0, # of connection points: 2
#     Edge 90, Type (0, 1), BuildingBlock: CIFDUS_clean_linker_0, # of connection points: 2
#     Edge 91, Type (0, 1), BuildingBlock: CIFDUS_clean_linker_0, # of connection points: 2
#     Edge 92, Type (0, 1), BuildingBlock: CIFDUS_clean_linker_0, # of connection points: 2
#     Edge 93, Type (0, 1), BuildingBlock: CIFDUS_clean_linker_0, # of connection points: 2
#     Edge 94, Type (0, 1), BuildingBlock: CIFDUS_clean_linker_0, # of connection points: 2
#     Edge 95, Type (0, 1), BuildingBlock: CIFDUS_clean_linker_0, # of connection points: 2
#     Edge 96, Type (0, 1), BuildingBlock: CIFDUS_clean_linker_0, # of connection points: 2
#     Edge 97, Type (0, 1), BuildingBlock: CIFDUS_clean_linker_0, # of connection points: 2
#     Edge 98, Type (0, 1), BuildingBlock: CIFDUS_clean_linker_0, # of connection points: 2
#     Edge 99, Type (0, 1), BuildingBlock: CIFDUS_clean_linker_0, # of connection points: 2
#     Edge 100, Type (0, 1), BuildingBlock: CIFDUS_clean_linker_0, # of connection points: 2
#     Edge 101, Type (0, 1), BuildingBlock: CIFDUS_clean_linker_0, # of connection points: 2
#     Edge 102, Type (0, 1), BuildingBlock: CIFDUS_clean_linker_0, # of connection points: 2
#     Edge 103, Type (0, 1), BuildingBlock: CIFDUS_clean_linker_0, # of connection points: 2
#     Edge 104, Type (0, 1), BuildingBlock: CIFDUS_clean_linker_0, # of connection points: 2
#     Edge 105, Type (0, 1), BuildingBlock: CIFDUS_clean_linker_0, # of connection points: 2
#     Edge 106, Type (0, 1), BuildingBlock: CIFDUS_clean_linker_0, # of connection points: 2
#     Edge 107, Type (0, 1), BuildingBlock: CIFDUS_clean_linker_0, # of connection points: 2
#     Edge 108, Type (0, 1), BuildingBlock: CIFDUS_clean_linker_0, # of connection points: 2
#     Edge 109, Type (0, 1), BuildingBlock: CIFDUS_clean_linker_0, # of connection points: 2
#     Edge 110, Type (0, 1), BuildingBlock: CIFDUS_clean_linker_0, # of connection points: 2
#     Edge 111, Type (0, 1), BuildingBlock: CIFDUS_clean_linker_0, # of connection points: 2
#     Edge 112, Type (0, 1), BuildingBlock: CIFDUS_clean_linker_0, # of connection points: 2
#     Edge 113, Type (0, 1), BuildingBlock: CIFDUS_clean_linker_0, # of connection points: 2
#     Edge 114, Type (0, 1), BuildingBlock: CIFDUS_clean_linker_0, # of connection points: 2
#     Edge 115, Type (0, 1), BuildingBlock: CIFDUS_clean_linker_0, # of connection points: 2
#     Edge 116, Type (0, 1), BuildingBlock: CIFDUS_clean_linker_0, # of connection points: 2
#     Edge 117, Type (0, 1), BuildingBlock: CIFDUS_clean_linker_0, # of connection points: 2
#     Edge 118, Type (0, 1), BuildingBlock: CIFDUS_clean_linker_0, # of connection points: 2
#     Edge 119, Type (0, 1), BuildingBlock: CIFDUS_clean_linker_0, # of connection points: 2
#     Edge 120, Type (0, 1), BuildingBlock: CIFDUS_clean_linker_0, # of connection points: 2
#     Edge 121, Type (0, 1), BuildingBlock: CIFDUS_clean_linker_0, # of connection points: 2
#     Edge 122, Type (0, 1), BuildingBlock: CIFDUS_clean_linker_0, # of connection points: 2
#     Edge 123, Type (0, 1), BuildingBlock: CIFDUS_clean_linker_0, # of connection points: 2
#     Edge 124, Type (0, 1), BuildingBlock: CIFDUS_clean_linker_0, # of connection points: 2
#     Edge 125, Type (0, 1), BuildingBlock: CIFDUS_clean_linker_0, # of connection points: 2
#     Edge 126, Type (0, 1), BuildingBlock: CIFDUS_clean_linker_0, # of connection points: 2
#     Edge 127, Type (0, 1), BuildingBlock: CIFDUS_clean_linker_0, # of connection points: 2
#     Edge 128, Type (0, 1), BuildingBlock: CIFDUS_clean_linker_0, # of connection points: 2
#     Edge 129, Type (0, 1), BuildingBlock: CIFDUS_clean_linker_0, # of connection points: 2
#     Edge 130, Type (0, 1), BuildingBlock: CIFDUS_clean_linker_0, # of connection points: 2
#     Edge 131, Type (0, 1), BuildingBlock: CIFDUS_clean_linker_0, # of connection points: 2
#     Edge 132, Type (0, 1), BuildingBlock: CIFDUS_clean_linker_0, # of connection points: 2
#     Edge 133, Type (0, 1), BuildingBlock: CIFDUS_clean_linker_0, # of connection points: 2
#     Edge 134, Type (0, 1), BuildingBlock: CIFDUS_clean_linker_0, # of connection points: 2
#     Edge 135, Type (0, 1), BuildingBlock: CIFDUS_clean_linker_0, # of connection points: 2
#     Edge 136, Type (0, 1), BuildingBlock: CIFDUS_clean_linker_0, # of connection points: 2
#     Edge 137, Type (0, 1), BuildingBlock: CIFDUS_clean_linker_0, # of connection points: 2
#     Edge 138, Type (0, 1), BuildingBlock: CIFDUS_clean_linker_0, # of connection points: 2
#     Edge 139, Type (0, 1), BuildingBlock: CIFDUS_clean_linker_0, # of connection points: 2
#     Edge 140, Type (0, 1), BuildingBlock: CIFDUS_clean_linker_0, # of connection points: 2
#     Edge 141, Type (0, 1), BuildingBlock: CIFDUS_clean_linker_0, # of connection points: 2
#     Edge 142, Type (0, 1), BuildingBlock: CIFDUS_clean_linker_0, # of connection points: 2
#     Edge 143, Type (0, 1), BuildingBlock: CIFDUS_clean_linker_0, # of connection points: 2
#     Edge 144, Type (0, 1), BuildingBlock: CIFDUS_clean_linker_0, # of connection points: 2
#     Edge 145, Type (0, 1), BuildingBlock: CIFDUS_clean_linker_0, # of connection points: 2
#     Edge 146, Type (0, 1), BuildingBlock: CIFDUS_clean_linker_0, # of connection points: 2
#     Edge 147, Type (0, 1), BuildingBlock: CIFDUS_clean_linker_0, # of connection points: 2
#     Edge 148, Type (0, 1), BuildingBlock: CIFDUS_clean_linker_0, # of connection points: 2
#     Edge 149, Type (0, 1), BuildingBlock: CIFDUS_clean_linker_0, # of connection points: 2
#     Edge 150, Type (0, 1), BuildingBlock: CIFDUS_clean_linker_0, # of connection points: 2
#     Edge 151, Type (0, 1), BuildingBlock: CIFDUS_clean_linker_0, # of connection points: 2
# Relax obj value: 0.048
# Max RMSD: 0.175
# Mean RMSD: 0.122
data_MOF--net-tbo--node1-ESEHIV_clean_sbu_0--node2-BETDIP_clean_linker_0--edge1-CIFDUS_clean_linker_0
_symmetry_space_group_name_H-M    P1
_symmetry_Int_Tables_number       1
_symmetry_cell_setting            triclinic
loop_
_symmetry_equiv_pos_as_xyz
'x, y, z'
_cell_length_a     62.071521
_cell_length_b     60.888061
_cell_length_c     66.223152
_cell_angle_alpha  95.751848
_cell_angle_beta   86.379902
_cell_angle_gamma 100.29042
loop_
_atom_site_label
_atom_site_type_symbol
_atom_site_fract_x
_atom_site_fract_y
_atom_site_fract_z
_atom_type_partial_charge
H0 H 0.16731 0.16812 0.22699 0.0
H1 H 0.22377 0.18181 0.18642 0.0
H2 H 0.17112 0.21953 0.1863 0.0
H3 H 0.23986 0.16382 0.20883 0.0
C4 C 0.22677 0.15212 0.21558 0.0
C5 C 0.17606 0.17772 0.21516 0.0
C6 C 0.16667 0.1943 0.20748 0.0
C7 C 0.19676 0.17348 0.20813 0.0
C8 C 0.2082 0.1857 0.19261 0.0
C9 C 0.19899 0.20229 0.18436 0.0
C10 C 0.17833 0.20669 0.19223 0.0
N11 N 0.2048 0.15609 0.21663 0.0
H12 H 0.8805 0.25955 0.17882 0.0
H13 H 0.81682 0.21731 0.17513 0.0
H14 H 0.86431 0.20253 0.21369 0.0
H15 H 0.808 0.24283 0.15708 0.0
C16 C 0.82263 0.25387 0.15207 0.0
C17 C 0.86876 0.24543 0.18367 0.0
C18 C 0.87496 0.23156 0.19717 0.0
C19 C 0.8478 0.24067 0.17564 0.0
C20 C 0.83284 0.22173 0.1814 0.0
C21 C 0.8387 0.20818 0.19542 0.0
C22 C 0.85965 0.21329 0.20321 0.0
N23 N 0.84301 0.25478 0.16121 0.0
H24 H 0.88831 0.85875 0.16511 0.0
H25 H 0.88596 0.91439 0.21005 0.0
H26 H 0.844 0.90424 0.15925 0.0
H27 H 0.90232 0.89283 0.22946 0.0
C28 C 0.91221 0.8836 0.21881 0.0
C29 C 0.88129 0.87338 0.17076 0.0
C30 C 0.86519 0.88001 0.15982 0.0
C31 C 0.88864 0.88526 0.18898 0.0
C32 C 0.87977 0.90446 0.1965 0.0
C33 C 0.86372 0.91162 0.18572 0.0
C34 C 0.8563 0.89894 0.16764 0.0
N35 N 0.90587 0.87793 0.19839 0.0
H36 H 0.14976 0.8153 0.21452 0.0
H37 H 0.21365 0.85479 0.20516 0.0
H38 H 0.17309 0.87109 0.25744 0.0
H39 H 0.21925 0.81817 0.18867 0.0
C40 C 0.20545 0.81863 0.17947 0.0
C41 C 0.16259 0.82886 0.21967 0.0
C42 C 0.15935 0.84229 0.23774 0.0
C43 C 0.18232 0.83289 0.20812 0.0
C44 C 0.19866 0.85097 0.2144 0.0
C45 C 0.19544 0.86483 0.23213 0.0
C46 C 0.17593 0.86009 0.24398 0.0
N47 N 0.1847 0.81991 0.18935 0.0
H48 H 0.15289 0.84406 0.85775 0.0
H49 H 0.19481 0.90838 0.86398 0.0
H50 H 0.15942 0.8879 0.8097 0.0
H51 H 0.1728 0.83542 0.88228 0.0
C52 C 0.18044 0.85088 0.89049 0.0
C53 C 0.16022 0.85955 0.85151 0.0
C54 C 0.15415 0.86399 0.83232 0.0
C55 C 0.17515 0.87548 0.86284 0.0
C56 C 0.18343 0.89607 0.85517 0.0
C57 C 0.17787 0.9006 0.83601 0.0
C58 C 0.16344 0.88443 0.82461 0.0
N59 N 0.18228 0.87177 0.88202 0.0
H60 H 0.22751 0.21334 0.90167 0.0
H61 H 0.24087 0.1707 0.84859 0.0
H62 H 0.27401 0.16897 0.90367 0.0
H63 H 0.22862 0.20157 0.83306 0.0
C64 C 0.21424 0.20202 0.84322 0.0
C65 C 0.23666 0.20098 0.89422 0.0
C66 C 0.25165 0.19256 0.90517 0.0
C67 C 0.23297 0.19358 0.87384 0.0
C68 C 0.24447 0.17729 0.86405 0.0
C69 C 0.25922 0.16809 0.87472 0.0
C70 C 0.26295 0.1761 0.89524 0.0
N71 N 0.21591 0.20112 0.86446 0.0
H72 H 0.86932 0.23648 0.90127 0.0
H73 H 0.92514 0.28843 0.89371 0.0
H74 H 0.91846 0.22805 0.85349 0.0
H75 H 0.91912 0.29498 0.92792 0.0
C76 C 0.90139 0.2935 0.92884 0.0
C77 C 0.88467 0.24259 0.89329 0.0
C78 C 0.89237 0.22959 0.87655 0.0
C79 C 0.89658 0.26357 0.89983 0.0
C80 C 0.91608 0.27197 0.88916 0.0
C81 C 0.92407 0.25922 0.87251 0.0
C82 C 0.91224 0.23798 0.86632 0.0
N83 N 0.88826 0.2762 0.91678 0.0
H84 H 0.85591 0.88125 0.89821 0.0
H85 H 0.90161 0.88353 0.84639 0.0
H86 H 0.9033 0.83713 0.89074 0.0
H87 H 0.88967 0.91521 0.84083 0.0
C88 C 0.87518 0.91712 0.85041 0.0
C89 C 0.86956 0.87521 0.8898 0.0
C90 C 0.87843 0.85778 0.89676 0.0
C91 C 0.8779 0.88495 0.8719 0.0
C92 C 0.89518 0.87666 0.86042 0.0
C93 C 0.90437 0.85933 0.86728 0.0
C94 C 0.89601 0.85028 0.88545 0.0
N95 N 0.86811 0.90279 0.86621 0.0
H96 H 0.17997 0.68514 0.7078 0.0
H97 H 0.22777 0.69214 0.6578 0.0
H98 H 0.17466 0.72902 0.6618 0.0
H99 H 0.23092 0.6573 0.6643 0.0
C100 C 0.2305 0.65828 0.68078 0.0
C101 C 0.186 0.69239 0.69379 0.0
C102 C 0.17495 0.70784 0.68608 0.0
C103 C 0.20492 0.68632 0.68363 0.0
C104 C 0.21283 0.696 0.66553 0.0
C105 C 0.202 0.71141 0.65757 0.0
C106 C 0.18321 0.71737 0.66803 0.0
N107 N 0.21601 0.67106 0.6922 0.0
H108 H 0.87753 0.74003 0.64824 0.0
H109 H 0.82839 0.681 0.63705 0.0
H110 H 0.87047 0.68658 0.68704 0.0
H111 H 0.8274 0.69346 0.6064 0.0
C112 C 0.83133 0.71161 0.60868 0.0
C113 C 0.86967 0.72348 0.652 0.0
C114 C 0.8762 0.71452 0.66887 0.0
C115 C 0.85247 0.71155 0.64033 0.0
C116 C 0.84189 0.69023 0.64562 0.0
C117 C 0.84851 0.68088 0.66234 0.0
C118 C 0.86562 0.69326 0.67379 0.0
N119 N 0.84553 0.72217 0.62424 0.0
H120 H 0.90904 0.34918 0.69535 0.0
H121 H 0.89955 0.40323 0.74008 0.0
H122 H 0.85858 0.38733 0.68846 0.0
H123 H 0.91422 0.33526 0.72891 0.0
C124 C 0.92773 0.34917 0.73134 0.0
C125 C 0.90027 0.36263 0.70082 0.0
C126 C 0.88305 0.36663 0.68973 0.0
C127 C 0.90634 0.37576 0.71891 0.0
C128 C 0.89502 0.39336 0.72598 0.0
C129 C 0.87716 0.39733 0.71547 0.0
C130 C 0.87166 0.38401 0.69716 0.0
N131 N 0.92393 0.3714 0.72992 0.0
H132 H 0.22235 0.36093 0.74142 0.0
H133 H 0.26797 0.42308 0.7428 0.0
H134 H 0.22289 0.40907 0.79377 0.0
H135 H 0.28807 0.39619 0.72083 0.0
C136 C 0.27433 0.39189 0.71094 0.0
C137 C 0.2293 0.37679 0.7494 0.0
C138 C 0.22104 0.38301 0.76898 0.0
C139 C 0.24627 0.39106 0.73989 0.0
C140 C 0.25516 0.41168 0.75017 0.0
C141 C 0.2466 0.41827 0.76952 0.0
C142 C 0.22945 0.40398 0.7788 0.0
N143 N 0.25286 0.38515 0.71943 0.0
H144 H 0.1528 0.35911 0.38929 0.0
H145 H 0.20344 0.41495 0.37788 0.0
H146 H 0.15669 0.38869 0.33251 0.0
H147 H 0.17399 0.35394 0.41409 0.0
C148 C 0.18512 0.36946 0.41794 0.0
C149 C 0.16088 0.37136 0.3793 0.0
C150 C 0.15251 0.37188 0.36006 0.0
C151 C 0.17933 0.38692 0.38568 0.0
C152 C 0.18907 0.40325 0.37292 0.0
C153 C 0.18109 0.40408 0.35369 0.0
C154 C 0.16279 0.38831 0.34741 0.0
N155 N 0.18883 0.38691 0.40468 0.0
H156 H 0.2149 0.7154 0.37176 0.0
H157 H 0.20976 0.66455 0.32182 0.0
H158 H 0.25432 0.66336 0.36868 0.0
H159 H 0.18454 0.72409 0.36039 0.0
C160 C 0.18292 0.71761 0.34459 0.0
C161 C 0.21997 0.70055 0.36406 0.0
C162 C 0.23601 0.69084 0.3726 0.0
C163 C 0.21051 0.69107 0.34568 0.0
C164 C 0.21702 0.67164 0.33601 0.0
C165 C 0.23245 0.66116 0.34432 0.0
C166 C 0.24215 0.67113 0.36244 0.0
N167 N 0.19467 0.70048 0.33611 0.0
H168 H 0.83579 0.65534 0.34025 0.0
H169 H 0.88474 0.71451 0.34501 0.0
H170 H 0.89475 0.65899 0.30175 0.0
H171 H 0.83904 0.72265 0.34208 0.0
C172 C 0.84073 0.71771 0.35715 0.0
C173 C 0.85166 0.66435 0.33544 0.0
C174 C 0.8645 0.65459 0.32005 0.0
C175 C 0.85888 0.68605 0.34413 0.0
C176 C 0.87917 0.69785 0.3378 0.0
C177 C 0.89236 0.68831 0.32256 0.0
C178 C 0.88503 0.66642 0.31384 0.0
N179 N 0.8457 0.69621 0.35917 0.0
H180 H 0.83089 0.35672 0.41512 0.0
H181 H 0.86698 0.34146 0.35955 0.0
H182 H 0.87291 0.30731 0.41215 0.0
H183 H 0.86362 0.37545 0.35344 0.0
C184 C 0.84783 0.37831 0.36014 0.0
C185 C 0.84205 0.34706 0.40656 0.0
C186 C 0.85134 0.33166 0.4161 0.0
C187 C 0.8479 0.35104 0.38633 0.0
C188 C 0.86258 0.3387 0.37524 0.0
C189 C 0.87185 0.32284 0.38433 0.0
C190 C 0.86612 0.31954 0.40487 0.0
N191 N 0.83882 0.36766 0.37769 0.0
H192 H 0.68669 0.18912 0.7363 0.0
H193 H 0.73561 0.18461 0.68804 0.0
H194 H 0.67962 0.21448 0.67906 0.0
H195 H 0.74672 0.15969 0.70578 0.0
C196 C 0.74096 0.16232 0.72149 0.0
C197 C 0.69247 0.19194 0.72083 0.0
C198 C 0.68059 0.20279 0.70869 0.0
C199 C 0.71202 0.18486 0.71346 0.0
C200 C 0.72013 0.18916 0.69366 0.0
C201 C 0.70862 0.20008 0.68116 0.0
C202 C 0.68884 0.20671 0.68881 0.0
N203 N 0.72315 0.17406 0.72673 0.0
H204 H 0.39598 0.25787 0.66963 0.0
H205 H 0.34493 0.20315 0.65099 0.0
H206 H 0.3827 0.19889 0.7021 0.0
H207 H 0.33089 0.22946 0.63809 0.0
C208 C 0.34444 0.24229 0.63381 0.0
C209 C 0.38684 0.24122 0.67151 0.0
C210 C 0.39156 0.22933 0.6873 0.0
C211 C 0.36959 0.23227 0.65874 0.0
C212 C 0.35764 0.21067 0.66124 0.0
C213 C 0.36234 0.1984 0.6768 0.0
C214 C 0.37926 0.20796 0.68975 0.0
N215 N 0.3646 0.24558 0.64377 0.0
H216 H 0.38715 0.84645 0.68985 0.0
H217 H 0.38537 0.9054 0.73076 0.0
H218 H 0.34315 0.89117 0.6801 0.0
H219 H 0.41815 0.84487 0.70414 0.0
C220 C 0.41711 0.85288 0.71947 0.0
C221 C 0.38072 0.86168 0.69428 0.0
C222 C 0.36433 0.86707 0.68277 0.0
C223 C 0.38844 0.87554 0.71151 0.0
C224 C 0.37973 0.89507 0.71718 0.0
C225 C 0.36347 0.90106 0.70598 0.0
C226 C 0.35586 0.88691 0.68871 0.0
N227 N 0.40403 0.86991 0.72419 0.0
H228 H 0.68777 0.86735 0.67506 0.0
H229 H 0.72891 0.93259 0.67771 0.0
H230 H 0.69535 0.90794 0.73175 0.0
H231 H 0.73352 0.92639 0.6444 0.0
C232 C 0.72903 0.90855 0.64019 0.0
C233 C 0.69441 0.88301 0.68354 0.0
C234 C 0.68979 0.886 0.70447 0.0
C235 C 0.70857 0.89961 0.67365 0.0
C236 C 0.7177 0.91968 0.68491 0.0
C237 C 0.71258 0.92298 0.70587 0.0
C238 C 0.69871 0.90598 0.71546 0.0
N239 N 0.71441 0.89456 0.65283 0.0
H240 H 0.65818 0.83185 0.35925 0.0
H241 H 0.71291 0.8848 0.35097 0.0
H242 H 0.65376 0.88319 0.32018 0.0
H243 H 0.73067 0.85579 0.35601 0.0
C244 C 0.72162 0.84993 0.36961 0.0
C245 C 0.66525 0.84712 0.35245 0.0
C246 C 0.65336 0.85595 0.33868 0.0
C247 C 0.68675 0.85731 0.35689 0.0
C248 C 0.69636 0.87681 0.34763 0.0
C249 C 0.68473 0.88604 0.334 0.0
C250 C 0.66314 0.87567 0.32998 0.0
N251 N 0.69838 0.84776 0.37071 0.0
H252 H 0.70992 0.2182 0.39437 0.0
H253 H 0.70033 0.17799 0.33762 0.0
H254 H 0.7448 0.16291 0.37932 0.0
H255 H 0.66297 0.18161 0.35377 0.0
C256 C 0.66672 0.19963 0.35273 0.0
C257 C 0.7141 0.20465 0.38382 0.0
C258 C 0.729 0.19136 0.38916 0.0
C259 C 0.70331 0.1995 0.36545 0.0
C260 C 0.70827 0.18155 0.35198 0.0
C261 C 0.72309 0.1681 0.35683 0.0
C262 C 0.73353 0.17331 0.37537 0.0
N263 N 0.68664 0.21149 0.36093 0.0
H264 H 0.34264 0.21974 0.3792 0.0
H265 H 0.40362 0.26333 0.36647 0.0
H266 H 0.38104 0.20612 0.32479 0.0
H267 H 0.35451 0.23061 0.41175 0.0
C268 C 0.35916 0.2486 0.41104 0.0
C269 C 0.35709 0.22428 0.36945 0.0
C270 C 0.35998 0.21093 0.3513 0.0
C271 C 0.37276 0.2434 0.37484 0.0
C272 C 0.39131 0.249 0.36193 0.0
C273 C 0.39469 0.23533 0.34401 0.0
C274 C 0.37861 0.21673 0.3386 0.0
N275 N 0.37048 0.257 0.39333 0.0
H276 H 0.33486 0.8743 0.39869 0.0
H277 H 0.37021 0.85593 0.34327 0.0
H278 H 0.37407 0.82258 0.39676 0.0
H279 H 0.37041 0.89145 0.33758 0.0
C280 C 0.35498 0.89569 0.34397 0.0
C281 C 0.34554 0.86397 0.3903 0.0
C282 C 0.35356 0.84784 0.40005 0.0
C283 C 0.3521 0.86769 0.37006 0.0
C284 C 0.36595 0.85412 0.35918 0.0
C285 C 0.37384 0.83759 0.3686 0.0
C286 C 0.36771 0.83484 0.38912 0.0
N287 N 0.34458 0.8852 0.36118 0.0
H288 H 0.65749 0.66237 0.21549 0.0
H289 H 0.7167 0.66773 0.17825 0.0
H290 H 0.67283 0.71412 0.17401 0.0
H291 H 0.72905 0.65687 0.20698 0.0
C292 C 0.71575 0.64359 0.21094 0.0
C293 C 0.66822 0.67095 0.20413 0.0
C294 C 0.66252 0.68943 0.19577 0.0
C295 C 0.68798 0.6636 0.19847 0.0
C296 C 0.7018 0.67395 0.18332 0.0
C297 C 0.69642 0.69205 0.17427 0.0
C298 C 0.67668 0.69972 0.1805 0.0
N299 N 0.69371 0.64592 0.20842 0.0
H300 H 0.39268 0.73283 0.14059 0.0
H301 H 0.33173 0.6859 0.14006 0.0
H302 H 0.38327 0.67705 0.17702 0.0
H303 H 0.32398 0.702 0.11408 0.0
C304 C 0.33509 0.71769 0.1125 0.0
C305 C 0.38243 0.71797 0.14588 0.0
C306 C 0.39048 0.70579 0.15976 0.0
C307 C 0.36146 0.71074 0.13823 0.0
C308 C 0.34815 0.69142 0.14519 0.0
C309 C 0.35586 0.67929 0.15938 0.0
C310 C 0.37706 0.68653 0.16637 0.0
N311 N 0.3545 0.72345 0.1237 0.0
H312 H 0.40521 0.34762 0.17232 0.0
H313 H 0.4077 0.39014 0.22851 0.0
H314 H 0.35996 0.39377 0.18545 0.0
H315 H 0.43679 0.37532 0.23481 0.0
C316 C 0.43968 0.3623 0.22306 0.0
C317 C 0.39881 0.36038 0.18232 0.0
C318 C 0.38132 0.36973 0.17628 0.0
C319 C 0.40862 0.36757 0.20099 0.0
C320 C 0.40057 0.38441 0.21403 0.0
C321 C 0.38323 0.39419 0.20822 0.0
C322 C 0.37376 0.38669 0.18946 0.0
N323 N 0.42647 0.35732 0.20572 0.0
H324 H 0.75391 0.27592 0.20926 0.0
H325 H 0.79955 0.33766 0.20626 0.0
H326 H 0.73134 0.3388 0.22193 0.0
H327 H 0.82684 0.29599 0.18294 0.0
C328 C 0.81044 0.29993 0.1834 0.0
C329 C 0.75733 0.29408 0.21102 0.0
C330 C 0.74023 0.30621 0.21589 0.0
C331 C 0.77865 0.30543 0.2071 0.0
C332 C 0.783 0.32901 0.20922 0.0
C333 C 0.76608 0.34135 0.21446 0.0
C334 C 0.74467 0.32969 0.21765 0.0
N335 N 0.79536 0.29311 0.19965 0.0
H336 H 0.65889 0.3517 0.88942 0.0
H337 H 0.70541 0.41331 0.89263 0.0
H338 H 0.67235 0.39029 0.83752 0.0
H339 H 0.69669 0.41172 0.92684 0.0
C340 C 0.69598 0.39407 0.92867 0.0
C341 C 0.66754 0.36615 0.8822 0.0
C342 C 0.66339 0.3691 0.86206 0.0
C343 C 0.68247 0.38198 0.89346 0.0
C344 C 0.69348 0.40109 0.8844 0.0
C345 C 0.68982 0.40401 0.8642 0.0
C346 C 0.67491 0.38797 0.85316 0.0
N347 N 0.68672 0.37757 0.91342 0.0
H348 H 0.70955 0.71493 0.894 0.0
H349 H 0.7145 0.67247 0.83897 0.0
H350 H 0.76204 0.67625 0.88402 0.0
H351 H 0.70303 0.70359 0.82752 0.0
C352 C 0.68909 0.70465 0.83815 0.0
C353 C 0.71776 0.70274 0.88503 0.0
C354 C 0.73679 0.69669 0.89192 0.0
C355 C 0.70985 0.69435 0.86591 0.0
C356 C 0.72083 0.67931 0.85358 0.0
C357 C 0.73994 0.67301 0.8598 0.0
C358 C 0.74748 0.68134 0.87919 0.0
N359 N 0.69135 0.70191 0.85898 0.0
H360 H 0.39701 0.72009 0.87952 0.0
H361 H 0.45125 0.77365 0.88798 0.0
H362 H 0.45773 0.71729 0.84472 0.0
H363 H 0.42342 0.7945 0.89147 0.0
C364 C 0.41185 0.78421 0.90115 0.0
C365 C 0.41372 0.72742 0.87535 0.0
C366 C 0.4264 0.71572 0.8612 0.0
C367 C 0.42232 0.74871 0.88421 0.0
C368 C 0.44423 0.75795 0.87987 0.0
C369 C 0.45727 0.74689 0.86557 0.0
C370 C 0.44813 0.72575 0.85621 0.0
N371 N 0.40868 0.76044 0.89767 0.0
H372 H 0.34886 0.38897 0.89736 0.0
H373 H 0.40261 0.38254 0.85399 0.0
H374 H 0.38643 0.33646 0.89983 0.0
H375 H 0.38573 0.40254 0.83544 0.0
C376 C 0.37751 0.41351 0.84599 0.0
C377 C 0.3621 0.38038 0.89148 0.0
C378 C 0.36596 0.36166 0.90067 0.0
C379 C 0.37481 0.3878 0.87433 0.0
C380 C 0.39208 0.3766 0.86665 0.0
C381 C 0.39645 0.3581 0.87589 0.0
C382 C 0.38321 0.35077 0.89275 0.0
N383 N 0.3701 0.40689 0.86566 0.0
Cu384 Cu 0.293 0.28656 0.04679 0.0
N385 N 0.2941 0.31143 0.0318 0.0
N386 N 0.30352 0.33376 1.00658 0.0
C387 C 0.30545 0.31431 1.01394 0.0
C388 C 0.29038 0.34349 0.02038 0.0
C389 C 0.28451 0.32966 0.03585 0.0
O390 O 0.29465 0.26149 0.02572 0.0
C391 C 0.3167 0.31156 0.07808 0.0
O392 O 0.30184 0.32392 0.07595 0.0
H393 H 0.31527 0.30248 1.00668 0.0
H394 H 0.27409 0.3328 0.04914 0.0
N395 N 0.26654 0.28066 0.06241 0.0
N396 N 0.2416 0.26679 0.08598 0.0
C397 C 0.26243 0.26783 0.0782 0.0
C398 C 0.24775 0.28811 0.06025 0.0
C399 C 0.2324 0.2796 0.07468 0.0
C400 C 0.27785 0.25559 1.01492 0.0
O401 O 0.26065 0.26517 0.01975 0.0
H402 H 0.27438 0.25911 0.08359 0.0
H403 H 0.24526 0.29877 0.04881 0.0
O404 O 0.31654 0.29354 0.06632 0.0
H405 H 0.2852 0.35937 1.01931 0.0
H406 H 0.21575 0.28275 0.07672 0.0
Cu407 Cu 0.78092 0.36146 0.04985 0.0
N408 N 0.78398 0.3816 0.07292 0.0
N409 N 0.79207 0.38455 0.10558 0.0
C410 C 0.79913 0.38033 0.08619 0.0
C411 C 0.77212 0.39014 0.10439 0.0
C412 C 0.76717 0.38831 0.08422 0.0
O413 O 0.77887 0.33236 0.06093 0.0
C414 C 0.75611 0.38456 0.0295 0.0
O415 O 0.77073 0.40112 0.03717 0.0
H416 H 0.81298 0.372 0.08208 0.0
H417 H 0.75108 0.38789 0.07865 0.0
N418 N 0.80562 0.36672 0.03255 0.0
N419 N 0.82939 0.3605 1.00691 0.0
C420 C 0.80967 0.35331 1.01594 0.0
C421 C 0.82321 0.38318 0.03409 0.0
C422 C 0.83802 0.37931 1.01827 0.0
C423 C 0.79671 0.3264 0.06501 0.0
O424 O 0.81534 0.33735 0.05788 0.0
H425 H 0.79875 0.33799 1.01116 0.0
H426 H 0.8253 0.3967 0.04609 0.0
O427 O 0.75638 0.36482 0.03418 0.0
H428 H 0.76055 0.39172 0.11716 0.0
H429 H 0.85397 0.38936 1.01551 0.0
Cu430 Cu 0.79273 0.77475 0.03437 0.0
N431 N 0.81837 0.77546 1.01765 0.0
N432 N 0.84031 0.78486 0.99059 0.0
C433 C 0.82373 0.78997 1.00332 0.0
C434 C 0.84573 0.76641 0.9973 0.0
C435 C 0.83215 0.76063 1.01398 0.0
O436 O 0.76991 0.7684 1.01432 0.0
C437 C 0.81463 0.80618 0.06156 0.0
O438 O 0.82845 0.79229 0.05672 0.0
H439 H 0.81448 0.80304 1.00139 0.0
H440 H 0.83149 0.74586 0.02193 0.0
N441 N 0.78731 0.75204 0.05211 0.0
N442 N 0.76991 0.73358 0.07772 0.0
C443 C 0.7682 0.74677 0.06286 0.0
C444 C 0.80163 0.74177 0.06039 0.0
C445 C 0.79092 0.7303 0.07612 0.0
C446 C 0.7709 0.74993 1.00352 0.0
O447 O 0.7843 0.73722 1.00866 0.0
H448 H 0.7538 0.7539 0.06081 0.0
H449 H 0.81894 0.74368 0.05629 0.0
O450 O 0.79649 0.8026 0.0526 0.0
H451 H 0.85804 0.75724 0.99021 0.0
H452 H 0.79828 0.721 0.08609 0.0
Cu453 Cu 0.26713 0.81468 1.01459 0.0
N454 N 0.25908 0.83441 0.03607 0.0
N455 N 0.24973 0.84488 0.06823 0.0
C456 C 0.26158 0.83227 0.05576 0.0
C457 C 0.23935 0.85555 0.05599 0.0
C458 C 0.24519 0.84909 0.03612 0.0
O459 O 0.2719 0.78783 0.02663 0.0
C460 C 0.24519 0.82716 0.98421 0.0
O461 O 0.25939 0.84545 0.98885 0.0
H462 H 0.27007 0.82001 0.06093 0.0
H463 H 0.23827 0.8534 0.0228 0.0
N464 N 0.29375 0.82585 1.00168 0.0
N465 N 0.32446 0.82354 0.98291 0.0
C466 C 0.30469 0.81266 0.98905 0.0
C467 C 0.30686 0.84603 1.00356 0.0
C468 C 0.32591 0.84467 0.99181 0.0
C469 C 0.28966 0.79032 0.03604 0.0
O470 O 0.30281 0.80981 0.03641 0.0
H471 H 0.29831 0.79519 0.9848 0.0
H472 H 0.30312 0.8604 1.0132 0.0
O473 O 0.2452 0.8101 0.99393 0.0
H474 H 0.22737 0.86609 0.061 0.0
H475 H 0.33998 0.85789 0.99052 0.0
Cu476 Cu 1.01514 0.26981 0.2869 0.0
N477 N 0.03132 0.24732 0.27712 0.0
N478 N 0.05878 0.23139 0.26196 0.0
C479 C 0.05023 0.25043 0.26574 0.0
C480 C 0.04453 0.21573 0.27137 0.0
C481 C 0.02769 0.22559 0.28071 0.0
O482 O 0.03637 0.29606 0.29576 0.0
C483 C 0.98464 0.25709 0.25748 0.0
O484 O 0.98754 0.23745 0.2623 0.0
H485 H 0.05759 0.26646 0.26051 0.0
H486 H 1.01395 0.21755 0.28973 0.0
N487 N 0.99682 0.26227 0.30963 0.0
N488 N 0.97101 0.26576 0.33432 0.0
C489 C 0.97925 0.27175 0.31593 0.0
C490 C 0.99971 0.24966 0.3245 0.0
C491 C 0.98385 0.25185 0.33979 0.0
C492 C 0.04979 0.29254 0.30839 0.0
O493 O 0.04813 0.27221 0.31406 0.0
H494 H 0.97345 0.2839 0.30772 0.0
H495 H 1.01299 0.24037 0.32466 0.0
O496 O 0.99602 0.27465 0.26607 0.0
H497 H 0.0464 0.19849 0.27202 0.0
H498 H 0.98224 0.2443 0.35405 0.0
Cu499 Cu 0.77417 0.03797 0.25275 0.0
N500 N 0.77368 0.05488 0.23059 0.0
N501 N 0.77966 0.08437 0.21203 0.0
C502 C 0.78324 0.07647 0.22967 0.0
C503 C 0.76735 0.06701 0.20145 0.0
C504 C 0.76363 0.04892 0.21294 0.0
O505 O 0.7744 0.05924 0.27704 0.0
C506 C 0.80192 1.01114 0.23168 0.0
O507 O 0.78985 0.01385 0.21685 0.0
H508 H 0.79286 0.08606 0.24167 0.0
H509 H 0.75436 0.03253 0.20861 0.0
N510 N 0.74878 0.01636 0.25468 0.0
N511 N 0.72606 0.98607 0.26433 0.0
C512 C 0.746 0.99902 0.26628 0.0
C513 C 0.72987 0.01442 0.24522 0.0
C514 C 0.71587 0.99567 0.25106 0.0
C515 C 0.75728 0.06828 0.28002 0.0
O516 O 0.74149 0.0622 0.26724 0.0
H517 H 0.75851 0.9958 0.27572 0.0
H518 H 0.72634 0.02594 0.235 0.0
O519 O 0.79868 0.02116 0.2492 0.0
H520 H 0.76126 0.06737 0.18655 0.0
H521 H 0.69935 0.98976 0.24619 0.0
Cu522 Cu 0.03774 0.79841 0.28882 0.0
N523 N 0.03014 0.80822 0.26448 0.0
N524 N 1.01086 0.82329 0.24345 0.0
C525 C 0.01758 0.82389 0.26263 0.0
C526 C 0.01977 0.80668 0.23291 0.0
C527 C 0.03138 0.79738 0.24586 0.0
O528 O 1.01312 0.77577 0.29583 0.0
C529 C 0.05651 0.83611 0.31611 0.0
O530 O 0.05551 0.8498 0.33264 0.0
H531 H 1.01261 0.83472 0.27537 0.0
H532 H 0.03869 0.78255 0.24224 0.0
N533 N 0.06372 0.78594 0.28646 0.0
N534 N 0.09265 0.77184 0.2951 0.0
C535 C 0.07387 0.77929 0.30169 0.0
C536 C 0.0766 0.78262 0.2697 0.0
C537 C 0.09433 0.77398 0.27494 0.0
C538 C 0.99519 0.78283 0.30036 0.0
O539 O 0.99516 0.80447 0.30131 0.0
H540 H 0.06759 0.78 0.31732 0.0
H541 H 0.07376 0.78686 0.25476 0.0
O542 O 0.0394 0.82238 0.31084 0.0
H543 H 0.01684 0.80046 0.21727 0.0
H544 H 0.10777 0.77019 0.26474 0.0
Cu545 Cu 0.30255 0.03188 0.28486 0.0
N546 N 0.31232 0.05196 0.30886 0.0
N547 N 0.31865 0.08232 0.331 0.0
C548 C 0.30804 0.07274 0.31429 0.0
C549 C 0.32987 0.06693 0.33634 0.0
C550 C 0.32602 0.04829 0.32265 0.0
O551 O 0.29459 0.05804 0.27143 0.0
C552 C 0.29891 0.99448 0.31048 0.0
O553 O 0.28011 1.00049 0.31668 0.0
H554 H 0.29783 0.08093 0.30593 0.0
H555 H 0.33346 0.03351 0.32239 0.0
N556 N 0.29305 1.01179 0.26116 0.0
N557 N 0.27615 0.9818 0.24271 0.0
C558 C 0.2777 0.99324 0.26125 0.0
C559 C 0.30154 1.01237 0.24201 0.0
C560 C 0.29104 0.99386 0.23051 0.0
C561 C 0.27476 0.05968 0.269 0.0
O562 O 0.25898 0.04436 0.27567 0.0
H563 H 0.26803 0.9882 0.27471 0.0
H564 H 0.31474 0.02503 0.23693 0.0
O565 O 0.31105 1.00541 0.29734 0.0
H566 H 0.34112 0.06945 0.34854 0.0
H567 H 0.29462 0.98927 0.2146 0.0
Cu568 Cu 0.01981 0.76946 0.75175 0.0
N569 N 0.032 0.74324 0.74728 0.0
N570 N 0.05779 0.72236 0.73749 0.0
C571 C 0.05095 0.74207 0.73648 0.0
C572 C 0.04218 0.71052 0.74923 0.0
C573 C 0.02633 0.72346 0.75528 0.0
O574 O 0.04438 0.794 0.75614 0.0
C575 C 0.98315 0.75653 0.7302 0.0
O576 O 0.97972 0.74326 0.74498 0.0
H577 H 0.05977 0.75581 0.72847 0.0
H578 H 1.01216 0.71909 0.76538 0.0
N579 N 1.0021 0.77132 0.77562 0.0
N580 N 0.97935 0.78615 0.7984 0.0
C581 C 0.98763 0.7855 0.77908 0.0
C582 C 1.00294 0.76256 0.79336 0.0
C583 C 0.98893 0.77174 0.80749 0.0
C584 C 0.05691 0.79045 0.76959 0.0
O585 O 0.05228 0.77148 0.77809 0.0
H586 H 0.98411 0.79601 0.76789 0.0
H587 H 1.01361 0.75103 0.79608 0.0
O588 O 1.00115 0.77036 0.72926 0.0
H589 H 0.04256 0.69404 0.75384 0.0
H590 H 0.98629 0.7684 0.82329 0.0
Cu591 Cu 0.29482 0.0424 0.76206 0.0
N592 N 0.29619 0.05631 0.73813 0.0
N593 N 0.30785 0.08122 0.71556 0.0
C594 C 0.31242 0.07258 0.73245 0.0
C595 C 0.28791 0.06996 0.71041 0.0
C596 C 0.28077 0.05452 0.72437 0.0
O597 O 0.30319 0.06664 0.78344 0.0
C598 C 0.33144 0.01946 0.75057 0.0
O599 O 0.34295 0.03938 0.74803 0.0
H600 H 0.3268 0.07874 0.74116 0.0
H601 H 0.26515 0.04332 0.72486 0.0
N602 N 0.26597 0.02939 0.76798 0.0
N603 N 0.23805 1.00396 0.77817 0.0
C604 C 0.2589 1.00762 0.77057 0.0
C605 C 0.24897 0.03985 0.77393 0.0
C606 C 0.23169 0.02415 0.78039 0.0
C607 C 0.29507 0.06679 0.80165 0.0
O608 O 0.28404 0.04808 0.80802 0.0
H609 H 0.2693 0.995 0.76828 0.0
H610 H 0.24957 0.05777 0.77464 0.0
O611 O 0.31172 0.01786 0.75765 0.0
H612 H 0.279 0.07295 0.69771 0.0
H613 H 0.21599 0.02741 0.78687 0.0
Cu614 Cu 0.07554 0.28184 0.78844 0.0
N615 N 0.06049 0.2871 0.76616 0.0
N616 N 0.03378 0.29861 0.75088 0.0
C617 C 0.03873 0.28705 0.76585 0.0
C618 C 0.05311 0.30591 0.74118 0.0
C619 C 0.06951 0.2988 0.75062 0.0
O620 O 0.05428 0.27579 0.81053 0.0
C621 C 0.1107 0.31096 0.80815 0.0
O622 O 0.11079 0.29473 0.81979 0.0
H623 H 0.02699 0.28051 0.77749 0.0
H624 H 0.08695 0.30352 0.7475 0.0
N625 N 0.09011 0.25709 0.78393 0.0
N626 N 0.11566 0.23664 0.78897 0.0
C627 C 0.1117 0.25711 0.78574 0.0
C628 C 0.08026 0.23574 0.78555 0.0
C629 C 0.09592 0.22313 0.78872 0.0
C630 C 0.04212 0.2897 0.81763 0.0
O631 O 0.04547 0.30978 0.81113 0.0
H632 H 0.12398 0.27215 0.78675 0.0
H633 H 0.0627 0.23021 0.78643 0.0
O634 O 0.09649 0.30877 0.7948 0.0
H635 H 0.05534 0.31661 0.72883 0.0
H636 H 0.09285 0.20576 0.79201 0.0
Cu637 Cu 0.80697 0.0575 0.8123 0.0
N638 N 0.81042 0.07622 0.83646 0.0
N639 N 0.8229 0.10678 0.85689 0.0
C640 C 0.82363 0.09631 0.83796 0.0
C641 C 0.80871 0.09248 0.86779 0.0
C642 C 0.80106 0.07364 0.85516 0.0
O643 O 0.80827 0.07687 0.79014 0.0
C644 C 0.82332 0.02245 0.82487 0.0
O645 O 0.80666 0.02429 0.83779 0.0
H646 H 0.83371 0.10295 0.82529 0.0
H647 H 0.78953 0.05915 0.85937 0.0
N648 N 0.77929 0.03997 0.81027 0.0
N649 N 0.7529 0.01613 0.79416 0.0
C650 C 0.77365 0.02737 0.79301 0.0
C651 C 0.76144 0.03696 0.82297 0.0
C652 C 0.7451 0.02214 0.81306 0.0
C653 C 0.79391 0.0897 0.79284 0.0
O654 O 0.78175 0.0892 0.80982 0.0
H655 H 0.7847 0.02695 0.77974 0.0
H656 H 0.76026 0.04497 0.8382 0.0
O657 O 0.82759 0.03631 0.81127 0.0
H658 H 0.80391 0.09546 0.88368 0.0
H659 H 0.72889 0.01616 0.81943 0.0
Cu660 Cu 0.29124 0.77234 0.53035 0.0
N661 N 0.31305 0.77936 0.5497 0.0
N662 N 0.32947 0.79674 0.57768 0.0
C663 C 0.31641 0.79832 0.56246 0.0
C664 C 0.3346 0.77602 0.57426 0.0
C665 C 0.32437 0.76534 0.55718 0.0
O666 O 0.26446 0.76246 0.54669 0.0
C667 C 0.31072 0.80536 0.50702 0.0
O668 O 0.32759 0.79774 0.51293 0.0
H669 H 0.30812 0.81235 0.56144 0.0
H670 H 0.32401 0.74802 0.5516 0.0
N671 N 0.29526 0.74939 0.50979 0.0
N672 N 0.28932 0.72745 0.48066 0.0
C673 C 0.28347 0.74471 0.49294 0.0
C674 C 0.30933 0.73475 0.50788 0.0
C675 C 0.30554 0.72107 0.49006 0.0
C676 C 0.26249 0.74258 0.552 0.0
O677 O 0.27687 0.73016 0.54456 0.0
H678 H 0.27057 0.75362 0.48992 0.0
H679 H 0.32151 0.73394 0.51858 0.0
O680 O 0.29175 0.79792 0.51468 0.0
H681 H 0.34438 0.76872 0.58387 0.0
H682 H 0.31422 0.70764 0.48435 0.0
Cu683 Cu 0.79809 0.81685 0.50118 0.0
N684 N 0.82298 0.81226 0.48528 0.0
N685 N 0.84186 0.79608 0.46006 0.0
C686 C 0.82206 0.80025 0.46711 0.0
C687 C 0.85594 0.80576 0.47439 0.0
C688 C 0.8442 0.81587 0.48997 0.0
O689 O 0.7743 0.81405 0.48249 0.0
C690 C 0.80805 0.80142 0.53655 0.0
O691 O 0.82176 0.8205 0.53629 0.0
H692 H 0.80688 0.7934 0.45981 0.0
H693 H 0.85052 0.82427 0.50409 0.0
N694 N 0.80092 0.84563 0.51441 0.0
N695 N 0.79333 0.87217 0.53821 0.0
C696 C 0.78654 0.85151 0.52903 0.0
C697 C 0.81737 0.86329 0.51391 0.0
C698 C 0.81269 0.87977 0.52861 0.0
C699 C 0.77866 0.82786 0.46889 0.0
O700 O 0.7973 0.84203 0.46951 0.0
H701 H 0.77166 0.84037 0.53317 0.0
H702 H 0.83209 0.86375 0.50419 0.0
O703 O 0.79483 0.79569 0.52215 0.0
H704 H 0.87325 0.80498 0.4739 0.0
H705 H 0.82324 0.8956 0.53255 0.0
Cu706 Cu 0.78835 0.26951 0.55003 0.0
N707 N 0.78819 0.24683 0.52862 0.0
N708 N 0.78082 0.23052 0.49733 0.0
C709 C 0.77893 0.24813 0.51101 0.0
C710 C 0.79168 0.21745 0.50679 0.0
C711 C 0.79636 0.22763 0.52607 0.0
O712 O 0.79027 0.29594 0.53511 0.0
C713 C 0.76161 0.24408 0.57632 0.0
O714 O 0.77599 0.23121 0.56996 0.0
H715 H 0.77075 0.26178 0.50837 0.0
H716 H 0.80515 0.22153 0.53731 0.0
N717 N 0.81184 0.27369 0.56732 0.0
N718 N 0.83124 0.28871 0.59426 0.0
C719 C 0.81274 0.28785 0.58433 0.0
C720 C 0.83042 0.26504 0.56639 0.0
C721 C 0.8425 0.2744 0.58298 0.0
C722 C 0.80942 0.30402 0.52824 0.0
O723 O 0.82636 0.2983 0.53595 0.0
H724 H 0.80012 0.29772 0.58906 0.0
H725 H 0.83497 0.25304 0.55444 0.0
O726 O 0.7626 0.26245 0.56827 0.0
H727 H 0.79628 0.20187 0.50014 0.0
H728 H 0.85822 0.27081 0.58652 0.0
Cu729 Cu 0.28318 0.34759 0.53947 0.0
N730 N 0.2827 0.37156 0.55949 0.0
N731 N 0.27887 0.38865 0.59065 0.0
C732 C 0.28365 0.37019 0.57959 0.0
C733 C 0.27472 0.40226 0.57708 0.0
C734 C 0.27721 0.39173 0.55784 0.0
O735 O 0.28513 0.32132 0.55335 0.0
C736 C 0.2583 0.3587 0.51019 0.0
O737 O 0.27535 0.37492 0.50975 0.0
H738 H 0.28616 0.3553 0.58612 0.0
H739 H 0.27399 0.3979 0.54381 0.0
N740 N 0.30771 0.35154 0.52161 0.0
N741 N 0.33045 0.34164 0.49623 0.0
C742 C 0.31225 0.3351 0.50783 0.0
C743 C 0.32353 0.36932 0.51873 0.0
C744 C 0.33761 0.36325 0.50293 0.0
C745 C 0.30361 0.32168 0.56091 0.0
O746 O 0.31914 0.33913 0.55869 0.0
H747 H 0.30198 0.31874 0.50611 0.0
H748 H 0.32463 0.3855 0.52736 0.0
O749 O 0.25769 0.34403 0.52278 0.0
H750 H 0.26944 0.41825 0.58085 0.0
H751 H 0.352 0.37385 0.49694 0.0
Cu752 Cu 0.7988 0.53848 0.76955 0.0
N753 N 0.79754 0.5492 0.74415 0.0
N754 N 0.80567 0.57092 0.71845 0.0
C755 C 0.81238 0.56516 0.7359 0.0
C756 C 0.78589 0.55795 0.71554 0.0
C757 C 0.78096 0.5445 0.73137 0.0
O758 O 0.80181 0.56397 0.7908 0.0
C759 C 0.817 0.50149 0.7545 0.0
O760 O 0.79877 0.49842 0.74472 0.0
H761 H 0.8273 0.57318 0.74313 0.0
H762 H 0.76604 0.53263 0.73374 0.0
N763 N 0.77206 0.52099 0.77669 0.0
N764 N 0.74839 0.4954 0.79232 0.0
C765 C 0.76924 0.50149 0.78529 0.0
C766 C 0.75229 0.52739 0.77835 0.0
C767 C 0.73764 0.51162 0.78806 0.0
C768 C 0.79147 0.57992 0.78859 0.0
O769 O 0.78155 0.57957 0.77161 0.0
H770 H 0.78246 0.49268 0.78754 0.0
H771 H 0.74903 0.54298 0.77377 0.0
O772 O 0.82125 0.51899 0.76697 0.0
H773 H 0.7756 0.55837 0.70304 0.0
H774 H 0.72059 0.51228 0.79218 0.0
Cu775 Cu 0.32567 0.56882 0.79083 0.0
N776 N 0.34582 0.54905 0.78605 0.0
N777 N 0.36173 0.51942 0.78975 0.0
C778 C 0.34673 0.53203 0.79738 0.0
C779 C 0.37071 0.52915 0.77297 0.0
C780 C 0.36086 0.54734 0.77073 0.0
O781 O 0.30169 0.55135 0.80545 0.0
C782 C 0.35828 0.60124 0.81083 0.0
O783 O 0.37116 0.58648 0.80564 0.0
H784 H 0.33612 0.52871 0.8107 0.0
H785 H 0.36419 0.55835 0.75863 0.0
N786 N 0.31579 0.57564 0.76636 0.0
N787 N 0.2984 0.59142 0.74445 0.0
C788 C 0.30564 0.59288 0.76351 0.0
C789 C 0.31506 0.56291 0.74854 0.0
C790 C 0.30445 0.57258 0.73503 0.0
C791 C 0.28196 0.54728 0.80009 0.0
O792 O 0.27513 0.56104 0.78889 0.0
H793 H 0.30309 0.60583 0.77539 0.0
H794 H 0.32106 0.54721 0.74582 0.0
O795 O 0.33819 0.59653 0.80642 0.0
H796 H 0.38347 0.52358 0.76291 0.0
H797 H 0.30064 0.56564 0.71972 0.0
Cu798 Cu 0.29477 0.52606 0.25618 0.0
N799 N 0.26959 0.50398 0.25651 0.0
N800 N 0.24314 0.47735 0.26758 0.0
C801 C 0.2602 0.49364 0.27273 0.0
C802 C 0.24162 0.47765 0.24737 0.0
C803 C 0.2579 0.49411 0.24061 0.0
O804 O 0.32048 0.51099 0.25296 0.0
C805 C 0.27464 0.55587 0.28175 0.0
O806 O 0.25906 0.54712 0.26931 0.0
H807 H 0.26636 0.49742 0.28785 0.0
H808 H 0.26117 0.49828 0.22512 0.0
N809 N 0.29604 0.54143 0.23299 0.0
N810 N 0.304 0.56985 0.21324 0.0
C811 C 0.30042 0.56383 0.23246 0.0
C812 C 0.29686 0.53287 0.2135 0.0
C813 C 0.30161 0.55032 0.20128 0.0
C814 C 0.32153 0.49204 0.2592 0.0
O815 O 0.30622 0.48322 0.27206 0.0
H816 H 0.30189 0.57539 0.246 0.0
H817 H 0.29549 0.51522 0.20857 0.0
O818 O 0.2928 0.54855 0.2795 0.0
H819 H 0.2297 0.46664 0.2381 0.0
H820 H 0.30454 0.54864 0.18497 0.0
Cu821 Cu 0.77508 0.50035 0.27741 0.0
N822 N 0.77244 0.48722 0.30192 0.0
N823 N 0.7791 0.46502 0.32485 0.0
C824 C 0.78141 0.46945 0.3052 0.0
C825 C 0.76784 0.48045 0.33428 0.0
C826 C 0.76382 0.49421 0.32007 0.0
O827 O 0.77918 0.4772 0.25598 0.0
C828 C 0.81573 0.52736 0.28907 0.0
O829 O 0.81844 0.51046 0.29894 0.0
H830 H 0.78999 0.46028 0.29346 0.0
H831 H 0.75592 0.50876 0.3229 0.0
N832 N 0.74997 0.51169 0.27318 0.0
N833 N 0.7293 0.53458 0.26279 0.0
C834 C 0.74959 0.52937 0.26265 0.0
C835 C 0.72924 0.5053 0.28025 0.0
C836 C 0.71642 0.51938 0.27383 0.0
C837 C 0.79729 0.47017 0.25263 0.0
O838 O 0.8146 0.48083 0.26211 0.0
H839 H 0.76402 0.53816 0.25502 0.0
H840 H 0.72393 0.49163 0.28966 0.0
O841 O 0.79906 0.52557 0.2784 0.0
H842 H 0.76371 0.48233 0.35041 0.0
H843 H 0.6991 0.51876 0.27746 0.0
Cu844 Cu 0.53106 0.27601 0.77718 0.0
N845 N 0.51123 0.27717 0.79964 0.0
N846 N 0.48465 0.28963 0.81957 0.0
C847 C 0.49633 0.29092 0.80171 0.0
C848 C 0.49261 0.27445 0.82919 0.0
C849 C 0.509 0.26673 0.81682 0.0
O850 O 0.5143 0.27809 0.75367 0.0
C851 C 0.56659 0.29629 0.79782 0.0
O852 O 0.56074 0.27733 0.80619 0.0
H853 H 0.49449 0.30208 0.79044 0.0
H854 H 0.51874 0.25461 0.82021 0.0
N855 N 0.54266 0.24941 0.77284 0.0
N856 N 0.56679 0.22677 0.7624 0.0
C857 C 0.56231 0.24781 0.76348 0.0
C858 C 0.53424 0.22868 0.77791 0.0
C859 C 0.54904 0.21469 0.77149 0.0
C860 C 0.49663 0.2637 0.75308 0.0
O861 O 0.49279 0.24923 0.76687 0.0
H862 H 0.57324 0.26207 0.75797 0.0
H863 H 0.51848 0.22407 0.78572 0.0
O864 O 0.5555 0.3001 0.78337 0.0
H865 H 0.48695 0.26923 0.84405 0.0
H866 H 0.5467 0.19695 0.77329 0.0
Cu867 Cu 0.56494 0.80566 0.80103 0.0
N868 N 0.5657 0.77549 0.80371 0.0
N869 N 0.58095 0.74707 0.81173 0.0
C870 C 0.58433 0.76864 0.80761 0.0
C871 C 0.55918 0.73984 0.81039 0.0
C872 C 0.54978 0.75744 0.80523 0.0
O873 O 0.58186 0.81417 0.77667 0.0
C874 C 0.5724 0.82448 0.84262 0.0
O875 O 0.5839 0.83817 0.85613 0.0
H876 H 0.59999 0.77967 0.80871 0.0
H877 H 0.53251 0.75742 0.80379 0.0
N878 N 0.53733 0.81367 0.79925 0.0
N879 N 0.50686 0.82065 0.78634 0.0
C880 C 0.52171 0.80662 0.78554 0.0
C881 C 0.53243 0.83295 0.80848 0.0
C882 C 0.51366 0.83708 0.80094 0.0
C883 C 0.60267 0.81797 0.7765 0.0
O884 O 0.61249 0.81582 0.793 0.0
H885 H 0.52212 0.79245 0.77436 0.0
H886 H 0.54304 0.84446 0.81855 0.0
O887 O 0.57972 0.82309 0.82419 0.0
H888 H 0.55066 0.72328 0.81338 0.0
H889 H 0.50682 0.85222 0.80461 0.0
Cu890 Cu 0.51325 0.76723 0.26318 0.0
N891 N 0.48977 0.76554 0.28255 0.0
N892 N 0.46244 0.7767 0.30257 0.0
C893 C 0.4817 0.78312 0.2922 0.0
C894 C 0.45839 0.7541 0.29921 0.0
C895 C 0.47513 0.74732 0.28681 0.0
O896 O 0.50006 0.76761 0.23723 0.0
C897 C 0.54205 0.7938 0.2888 0.0
O898 O 0.53241 0.77858 0.30071 0.0
H899 H 0.48956 0.80031 0.29098 0.0
H900 H 0.47592 0.73041 0.28042 0.0
N901 N 0.5283 0.74301 0.26233 0.0
N902 N 0.55542 0.72324 0.25519 0.0
C903 C 0.54633 0.74052 0.25042 0.0
C904 C 0.52586 0.72674 0.27502 0.0
C905 C 0.54251 0.71451 0.27064 0.0
C906 C 0.49235 0.7488 0.22784 0.0
O907 O 0.49584 0.73035 0.2348 0.0
H908 H 0.55334 0.75196 0.23929 0.0
H909 H 0.51348 0.72455 0.28723 0.0
O910 O 0.53522 0.79318 0.27095 0.0
H911 H 0.4438 0.74318 0.30438 0.0
H912 H 0.54525 0.70063 0.27858 0.0
Cu913 Cu 0.56307 0.27518 0.26648 0.0
N914 N 0.53958 0.25164 0.26824 0.0
N915 N 0.50647 0.23469 0.27862 0.0
C916 C 0.52194 0.25322 0.28072 0.0
C917 C 0.51483 0.22073 0.2643 0.0
C918 C 0.5353 0.23133 0.2578 0.0
O919 O 0.54881 0.30156 0.26533 0.0
C920 C 0.58905 0.25528 0.28794 0.0
O921 O 0.58264 0.24027 0.27288 0.0
H922 H 0.52055 0.26783 0.29113 0.0
H923 H 0.54612 0.22484 0.24616 0.0
N924 N 0.58069 0.27134 0.24286 0.0
N925 N 0.61163 0.27198 0.22371 0.0
C926 C 0.60263 0.27722 0.24219 0.0
C927 C 0.5756 0.26194 0.22407 0.0
C928 C 0.59474 0.26255 0.21212 0.0
C929 C 0.53572 0.29933 0.25077 0.0
O930 O 0.53455 0.28121 0.23807 0.0
H931 H 0.61185 0.28525 0.25507 0.0
H932 H 0.55925 0.25482 0.21942 0.0
O933 O 0.58191 0.27386 0.28914 0.0
H934 H 0.50657 0.2043 0.2586 0.0
H935 H 0.59618 0.25617 0.19633 0.0
H936 H 0.18113 0.21343 0.15096 0.0
H937 H 0.24302 0.21862 0.17885 0.0
H938 H 0.26183 0.23844 0.15065 0.0
H939 H 0.26062 0.25512 0.11822 0.0
H940 H 0.1984 0.24999 0.09093 0.0
H941 H 0.1799 0.22984 0.11885 0.0
C942 C 0.19871 0.2191 0.15105 0.0
C943 C 0.21055 0.21454 0.16716 0.0
C944 C 0.20942 0.23065 0.13485 0.0
C945 C 0.23343 0.22165 0.16663 0.0
C946 C 0.24422 0.23311 0.15052 0.0
C947 C 0.24305 0.24944 0.1183 0.0
C948 C 0.23097 0.25428 0.10245 0.0
C949 C 0.23239 0.23775 0.13453 0.0
C950 C 0.20814 0.24692 0.103 0.0
C951 C 0.19751 0.23523 0.11895 0.0
H952 H 0.7863 0.25752 0.13249 0.0
H953 H 0.85548 0.28388 0.13557 0.0
H954 H 0.85323 0.30789 0.10884 0.0
H955 H 0.83213 0.32123 0.08446 0.0
H956 H 0.76264 0.29682 0.08142 0.0
H957 H 0.76452 0.27216 0.10821 0.0
C958 C 0.80086 0.26848 0.1272 0.0
C959 C 0.82105 0.26871 0.13592 0.0
C960 C 0.79944 0.28248 0.11177 0.0
C961 C 0.83975 0.28319 0.12912 0.0
C962 C 0.83849 0.29697 0.11379 0.0
C963 C 0.81734 0.31037 0.08942 0.0
C964 C 0.79732 0.31059 0.0806 0.0
C965 C 0.8185 0.29664 0.10494 0.0
C966 C 0.77831 0.29678 0.08772 0.0
C967 C 0.77939 0.28272 0.10307 0.0
H968 H 0.82405 0.86905 0.14395 0.0
H969 H 0.89203 0.86405 0.12991 0.0
H970 H 0.88234 0.8426 0.09784 0.0
H971 H 0.8548 0.82354 0.07455 0.0
H972 H 0.78665 0.82786 0.08736 0.0
H973 H 0.79626 0.85191 0.11874 0.0
C974 C 0.83677 0.86348 0.13378 0.0
C975 C 0.85876 0.86785 0.1397 0.0
C976 C 0.83109 0.85115 0.11504 0.0
C977 C 0.87494 0.86044 0.12619 0.0
C978 C 0.86945 0.84832 0.10769 0.0
C979 C 0.84198 0.8299 0.08407 0.0
C980 C 0.82 0.82377 0.07864 0.0
C981 C 0.84759 0.84329 0.10211 0.0
C982 C 0.80371 0.8324 0.09108 0.0
C983 C 0.80921 0.84598 0.10913 0.0
H984 H 0.24463 0.82455 0.15929 0.0
H985 H 0.17598 0.82394 0.15191 0.0
H986 H 0.18401 0.83392 0.11706 0.0
H987 H 0.21055 0.842 0.08841 0.0
H988 H 0.27899 0.84167 0.09551 0.0
H989 H 0.27118 0.83315 0.13086 0.0
C990 C 0.23146 0.82652 0.14998 0.0
C991 C 0.2098 0.82345 0.15806 0.0
C992 C 0.23621 0.83231 0.13002 0.0
C993 C 0.19281 0.82615 0.14598 0.0
C994 C 0.1974 0.83194 0.12608 0.0
C995 C 0.22375 0.8405 0.09786 0.0
C996 C 0.24533 0.84264 0.08954 0.0
C997 C 0.21904 0.8351 0.11796 0.0
C998 C 0.26228 0.84013 0.10173 0.0
C999 C 0.25781 0.83517 0.12184 0.0
H1000 H 0.18451 0.81373 0.90879 0.0
H1001 H 0.20139 0.88596 0.91499 0.0
H1002 H 0.22173 0.88459 0.94484 0.0
H1003 H 0.23624 0.86327 0.96823 0.0
H1004 H 0.22017 0.79109 0.9631 0.0
H1005 H 0.19781 0.79205 0.93398 0.0
C1006 C 0.19254 0.82913 0.91681 0.0
C1007 C 0.19156 0.84988 0.90951 0.0
C1008 C 0.20439 0.82825 0.93412 0.0
C1009 C 0.20196 0.86973 0.92008 0.0
C1010 C 0.21363 0.86899 0.93722 0.0
C1011 C 0.22783 0.84767 0.96083 0.0
C1012 C 0.23006 0.82711 0.96772 0.0
C1013 C 0.2152 0.84839 0.94419 0.0
C1014 C 0.21875 0.80714 0.95809 0.0
C1015 C 0.20604 0.8077 0.94139 0.0
H1016 H 0.28937 0.20725 0.92634 0.0
H1017 H 0.2188 0.19487 0.93383 0.0
H1018 H 0.22098 0.21132 0.96884 0.0
H1019 H 0.24239 0.23207 0.9964 0.0
H1020 H 0.31292 0.24546 0.99004 0.0
H1021 H 0.31136 0.22549 0.95585 0.0
C1022 C 0.27453 0.20786 0.93577 0.0
C1023 C 0.25391 0.20013 0.92727 0.0
C1024 C 0.27588 0.21762 0.95612 0.0
C1025 C 0.23485 0.20106 0.93977 0.0
C1026 C 0.23607 0.21042 0.95986 0.0
C1027 C 0.2575 0.2304 0.98767 0.0
C1028 C 0.27774 0.24038 0.99579 0.0
C1029 C 0.25643 0.21923 0.96803 0.0
C1030 C 0.29711 0.23785 0.98427 0.0
C1031 C 0.29619 0.22657 0.96462 0.0
H1032 H 0.85831 0.29746 0.93368 0.0
H1033 H 0.92186 0.32337 0.95751 0.0
H1034 H 0.90537 0.34777 0.98334 0.0
H1035 H 0.87258 0.36021 1.00007 0.0
H1036 H 0.80919 0.3344 0.97587 0.0
H1037 H 0.82594 0.31142 0.94919 0.0
C1038 C 0.86856 0.30844 0.94452 0.0
C1039 C 0.89122 0.3085 0.94393 0.0
C1040 C 0.85899 0.32239 0.95923 0.0
C1041 C 0.90433 0.32301 0.95786 0.0
C1042 C 0.89493 0.33694 0.97258 0.0
C1043 C 0.8625 0.34986 0.98876 0.0
C1044 C 0.83967 0.34887 0.99005 0.0
C1045 C 0.87224 0.33662 0.97351 0.0
C1046 C 0.82677 0.33516 0.97539 0.0
C1047 C 0.83633 0.32207 0.9601 0.0
H1048 H 0.87364 0.8137 0.90411 0.0
H1049 H 0.86336 0.87823 0.93253 0.0
H1050 H 0.85035 0.8613 0.96396 0.0
H1051 H 0.84295 0.82827 0.9838 0.0
H1052 H 0.85509 0.76438 0.95561 0.0
H1053 H 0.86712 0.78117 0.92396 0.0
C1054 C 0.86887 0.82423 0.91721 0.0
C1055 C 0.86964 0.84733 0.91581 0.0
C1056 C 0.86197 0.81451 0.93543 0.0
C1057 C 0.86272 0.8604 0.93293 0.0
C1058 C 0.85546 0.85075 0.95102 0.0
C1059 C 0.84818 0.81804 0.9707 0.0
C1060 C 0.84819 0.7951 0.97215 0.0
C1061 C 0.85514 0.82784 0.95249 0.0
C1062 C 0.85523 0.78211 0.95508 0.0
C1063 C 0.86195 0.79168 0.93689 0.0
H1064 H 0.1537 0.23407 0.22098 0.0
H1065 H 0.12996 0.16296 0.2119 0.0
H1066 H 0.09423 0.16822 0.22732 0.0
H1067 H 0.07011 0.19274 0.24441 0.0
H1068 H 0.09409 0.26376 0.2549 0.0
H1069 H 0.12901 0.25887 0.23763 0.0
C1070 C 0.14059 0.2198 0.22218 0.0
C1071 C 0.14452 0.19814 0.21538 0.0
C1072 C 0.12009 0.22291 0.23135 0.0
C1073 C 0.12743 0.17977 0.2172 0.0
C1074 C 0.10698 0.18277 0.22599 0.0
C1075 C 0.08296 0.20717 0.24308 0.0
C1076 C 0.07928 0.22858 0.25111 0.0
C1077 C 0.10321 0.20421 0.23339 0.0
C1078 C 0.09617 0.24709 0.24876 0.0
C1079 C 0.11629 0.2443 0.23896 0.0
H1080 H 0.82031 0.17215 0.17088 0.0
H1081 H 0.82473 0.19839 0.23364 0.0
H1082 H 0.80559 0.16247 0.24444 0.0
H1083 H 0.79021 0.12284 0.23611 0.0
H1084 H 0.78743 0.09589 0.17336 0.0
H1085 H 0.80296 0.13277 0.16248 0.0
C1086 C 0.81659 0.17007 0.18687 0.0
C1087 C 0.82379 0.18782 0.20147 0.0
C1088 C 0.8061 0.14916 0.19297 0.0
C1089 C 0.81926 0.1849 0.22218 0.0
C1090 C 0.80844 0.16436 0.22834 0.0
C1091 C 0.79306 0.12498 0.22006 0.0
C1092 C 0.78781 0.10647 0.20562 0.0
C1093 C 0.80229 0.1462 0.2139 0.0
C1094 C 0.79117 0.10978 0.18485 0.0
C1095 C 0.80017 0.13088 0.17859 0.0
H1096 H 0.94449 0.86489 0.19694 0.0
H1097 H 0.92092 0.88151 0.2582 0.0
H1098 H 0.9497 0.86499 0.27154 0.0
H1099 H 0.98075 0.84447 0.26571 0.0
H1100 H 1.00523 0.82966 0.20427 0.0
H1101 H 0.97697 0.84667 0.19123 0.0
C1102 C 0.94564 0.86492 0.21321 0.0
C1103 C 0.93039 0.87423 0.22657 0.0
C1104 C 0.96241 0.8556 0.22079 0.0
C1105 C 0.93238 0.87437 0.2476 0.0
C1106 C 0.94885 0.86491 0.25524 0.0
C1107 C 0.98019 0.84519 0.24949 0.0
C1108 C 0.99515 0.83535 0.23608 0.0
C1109 C 0.9639 0.85531 0.24197 0.0
C1110 C 0.99381 0.83652 0.21505 0.0
C1111 C 0.97764 0.8464 0.20752 0.0
H1112 H 0.21452 0.89562 0.20679 0.0
H1113 H 0.21206 0.88019 0.26915 0.0
H1114 H 0.23738 0.91509 0.27787 0.0
H1115 H 0.2597 0.94997 0.26776 0.0
H1116 H 0.26123 0.9659 0.20557 0.0
H1117 H 0.23714 0.9304 0.19664 0.0
C1118 C 0.21978 0.89976 0.22223 0.0
C1119 C 0.21157 0.88536 0.2373 0.0
C1120 C 0.23413 0.91986 0.22713 0.0
C1121 C 0.21813 0.89111 0.25733 0.0
C1122 C 0.2326 0.911 0.2623 0.0
C1123 C 0.25461 0.94585 0.2523 0.0
C1124 C 0.26219 0.96071 0.23739 0.0
C1125 C 0.24055 0.92557 0.24734 0.0
C1126 C 0.25581 0.95474 0.21731 0.0
C1127 C 0.24194 0.93449 0.21221 0.0
H1128 H 0.12223 0.8724 0.8089 0.0
H1129 H 0.15006 0.81827 0.82838 0.0
H1130 H 0.12327 0.79108 0.80949 0.0
H1131 H 0.09136 0.78258 0.78857 0.0
H1132 H 0.06376 0.83618 0.76806 0.0
H1133 H 0.09182 0.86382 0.78557 0.0
C1134 C 0.12273 0.85468 0.80877 0.0
C1135 C 0.13812 0.84746 0.82027 0.0
C1136 C 0.10749 0.83909 0.79754 0.0
C1137 C 0.13817 0.82436 0.8201 0.0
C1138 C 0.12298 0.80878 0.80913 0.0
C1139 C 0.09156 0.80033 0.78776 0.0
C1140 C 0.07542 0.80737 0.77719 0.0
C1141 C 0.10747 0.81596 0.79799 0.0
C1142 C 0.07607 0.83037 0.77605 0.0
C1143 C 0.09198 0.84614 0.7862 0.0
H1144 H 0.27982 0.1635 0.83711 0.0
H1145 H 0.25933 0.12832 0.8903 0.0
H1146 H 0.27029 0.09434 0.87309 0.0
H1147 H 0.28269 0.07361 0.84185 0.0
H1148 H 0.30404 0.10901 0.78886 0.0
H1149 H 0.29603 0.14374 0.80706 0.0
C1150 C 0.278 0.14845 0.84499 0.0
C1151 C 0.26867 0.14848 0.86497 0.0
C1152 C 0.28442 0.1289 0.83498 0.0
C1153 C 0.26661 0.12887 0.87502 0.0
C1154 C 0.27275 0.10935 0.86511 0.0
C1155 C 0.28593 0.08899 0.83437 0.0
C1156 C 0.29383 0.08852 0.81391 0.0
C1157 C 0.28127 0.10902 0.84495 0.0
C1158 C 0.29802 0.10874 0.80457 0.0
C1159 C 0.2933 0.12865 0.81494 0.0
H1160 H 0.9592 0.23866 0.86391 0.0
H1161 H 0.93572 0.30004 0.85778 0.0
H1162 H 0.97079 0.31557 0.84136 0.0
H1163 H 1.00782 0.31135 0.82822 0.0
H1164 H 0.03133 0.24989 0.83451 0.0
H1165 H 0.99667 0.23485 0.85161 0.0
C1166 C 0.96178 0.25536 0.85882 0.0
C1167 C 0.94498 0.26817 0.86189 0.0
C1168 C 0.98202 0.26423 0.84962 0.0
C1169 C 0.94852 0.28992 0.85556 0.0
C1170 C 0.96853 0.2988 0.84621 0.0
C1171 C 1.00547 0.29478 0.83355 0.0
C1172 C 0.02215 0.28179 0.83007 0.0
C1173 C 0.98541 0.28611 0.84318 0.0
C1174 C 0.01877 0.26027 0.83698 0.0
C1175 C 0.99891 0.25159 0.84668 0.0
H1176 H 0.88459 0.94857 0.82286 0.0
H1177 H 0.83871 0.92757 0.87189 0.0
H1178 H 0.81924 0.95806 0.86808 0.0
H1179 H 0.81503 0.99061 0.8513 0.0
H1180 H 0.85996 1.01263 0.80203 0.0
H1181 H 0.87996 0.9819 0.80547 0.0
C1182 C 0.87031 0.95071 0.83266 0.0
C1183 C 0.86321 0.93573 0.84766 0.0
C1184 C 0.85901 0.96848 0.83039 0.0
C1185 C 0.84466 0.93873 0.86024 0.0
C1186 C 0.83345 0.95623 0.85808 0.0
C1187 C 0.82921 0.98883 0.84124 0.0
C1188 C 0.83596 1.00406 0.82643 0.0
C1189 C 0.84049 0.9712 0.84328 0.0
C1190 C 0.85437 1.00124 0.81358 0.0
C1191 C 0.8658 0.98364 0.81555 0.0
H1192 H 0.26724 0.14386 0.2222 0.0
H1193 H 0.1984 0.11789 0.23188 0.0
H1194 H 0.20722 0.08732 0.24913 0.0
H1195 H 0.23435 0.0679 0.26172 0.0
H1196 H 0.30331 0.09378 0.25263 0.0
H1197 H 0.2946 0.12432 0.23505 0.0
C1198 C 0.25422 0.13146 0.22807 0.0
C1199 C 0.23222 0.13324 0.22576 0.0
C1200 C 0.25941 0.11388 0.23816 0.0
C1201 C 0.21548 0.11706 0.23348 0.0
C1202 C 0.22051 0.09951 0.24337 0.0
C1203 C 0.24751 0.0802 0.25592 0.0
C1204 C 0.26947 0.07845 0.25852 0.0
C1205 C 0.2424 0.09777 0.24585 0.0
C1206 C 0.28626 0.09464 0.25087 0.0
C1207 C 0.28129 0.11214 0.24079 0.0
H1208 H 0.19856 0.90646 0.79923 0.0
H1209 H 0.17847 0.94277 0.85439 0.0
H1210 H 0.19418 0.97839 0.84072 0.0
H1211 H 0.21453 0.99909 0.81333 0.0
H1212 H 0.23649 0.96267 0.7591 0.0
H1213 H 0.21901 0.92711 0.77197 0.0
C1214 C 0.19752 0.92221 0.80815 0.0
C1215 C 0.18736 0.9221 0.82772 0.0
C1216 C 0.20687 0.94252 0.80033 0.0
C1217 C 0.18635 0.94253 0.83932 0.0
C1218 C 0.19524 0.96285 0.83149 0.0
C1219 C 0.21515 0.98334 0.80428 0.0
C1220 C 0.22652 0.98335 0.78525 0.0
C1221 C 0.2056 0.96303 0.81204 0.0
C1222 C 0.22776 0.96291 0.77378 0.0
C1223 C 0.21781 0.94266 0.78114 0.0
H1224 H 0.20998 0.22319 0.80971 0.0
H1225 H 0.1725 0.19119 0.85907 0.0
H1226 H 0.13861 0.19822 0.84608 0.0
H1227 H 0.11949 0.21383 0.82088 0.0
H1228 H 0.15676 0.2488 0.7732 0.0
H1229 H 0.19083 0.24046 0.78526 0.0
C1230 C 0.19435 0.21777 0.81756 0.0
C1231 C 0.19374 0.20663 0.8353 0.0
C1232 C 0.1749 0.22244 0.81028 0.0
C1233 C 0.17344 0.19988 0.84546 0.0
C1234 C 0.15403 0.20385 0.838 0.0
C1235 C 0.13508 0.21942 0.81305 0.0
C1236 C 0.13565 0.23158 0.79597 0.0
C1237 C 0.15455 0.21512 0.82045 0.0
C1238 C 0.15598 0.23929 0.78628 0.0
C1239 C 0.1754 0.23451 0.79318 0.0
H1240 H 0.87354 0.1963 0.89984 0.0
H1241 H 0.88255 0.21316 0.83777 0.0
H1242 H 0.86149 0.17669 0.82624 0.0
H1243 H 0.84037 0.14036 0.83381 0.0
H1244 H 0.8323 0.12278 0.89575 0.0
H1245 H 0.85262 0.15947 0.90734 0.0
C1246 C 0.87076 0.19201 0.88381 0.0
C1247 C 0.8796 0.20739 0.86967 0.0
C1248 C 0.8587 0.17098 0.87728 0.0
C1249 C 0.87611 0.20151 0.84892 0.0
C1250 C 0.86399 0.18072 0.84234 0.0
C1251 C 0.84322 0.14432 0.84982 0.0
C1252 C 0.83478 0.1286 0.86382 0.0
C1253 C 0.85525 0.16532 0.85637 0.0
C1254 C 0.83833 0.13449 0.88459 0.0
C1255 C 0.8501 0.15547 0.89125 0.0
H1256 H 0.90626 0.84341 0.82726 0.0
H1257 H 0.94267 0.85329 0.88173 0.0
H1258 H 0.96926 0.83146 0.86517 0.0
H1259 H 0.98082 0.80732 0.83602 0.0
H1260 H 0.94515 0.79768 0.78122 0.0
H1261 H 0.9197 0.82159 0.79694 0.0
C1262 C 0.9203 0.84118 0.83529 0.0
C1263 C 0.92242 0.84982 0.85572 0.0
C1264 C 0.93547 0.82833 0.82572 0.0
C1265 C 0.9406 0.84664 0.86604 0.0
C1266 C 0.95576 0.83408 0.85662 0.0
C1267 C 0.96742 0.81042 0.82759 0.0
C1268 C 0.96466 0.80054 0.80761 0.0
C1269 C 0.95306 0.82437 0.83665 0.0
C1270 C 0.94755 0.8051 0.79664 0.0
C1271 C 0.93301 0.81875 0.80563 0.0
H1272 H 0.85178 0.92833 0.22441 0.0
H1273 H 0.85747 0.94351 0.16178 0.0
H1274 H 0.8405 0.97635 0.17089 0.0
H1275 H 0.82152 0.99924 0.19584 0.0
H1276 H 0.81594 0.98566 0.25875 0.0
H1277 H 0.83583 0.9542 0.25047 0.0
C1278 C 0.84957 0.939 0.21283 0.0
C1279 C 0.85542 0.93298 0.1923 0.0
C1280 C 0.83983 0.95821 0.21821 0.0
C1281 C 0.85253 0.94719 0.17756 0.0
C1282 C 0.84295 0.96614 0.18276 0.0
C1283 C 0.82489 0.98959 0.20783 0.0
C1284 C 0.81711 0.9947 0.22786 0.0
C1285 C 0.8361 0.97153 0.20292 0.0
C1286 C 0.82183 0.98216 0.24322 0.0
C1287 C 0.83305 0.96404 0.23843 0.0
H1288 H 0.15251 0.83911 0.27823 0.0
H1289 H 0.11873 0.83851 0.22319 0.0
H1290 H 0.08378 0.83679 0.24273 0.0
H1291 H 0.06334 0.83772 0.27569 0.0
H1292 H 0.09649 0.83646 0.33058 0.0
H1293 H 0.13148 0.83737 0.31104 0.0
C1294 C 0.13744 0.83848 0.27058 0.0
C1295 C 0.1381 0.83901 0.24938 0.0
C1296 C 0.11748 0.8375 0.28189 0.0
C1297 C 0.11853 0.83797 0.2395 0.0
C1298 C 0.09862 0.8372 0.25066 0.0
C1299 C 0.07813 0.83707 0.28322 0.0
C1300 C 0.07741 0.83648 0.30435 0.0
C1301 C 0.09797 0.83724 0.27187 0.0
C1302 C 0.0968 0.83677 0.31424 0.0
C1303 C 0.11671 0.83721 0.30309 0.0
H1304 H 0.89939 0.2696 0.21549 0.0
H1305 H 0.90138 0.20054 0.1946 0.0
H1306 H 0.93661 0.2032 0.20977 0.0
H1307 H 0.96499 0.22374 0.23152 0.0
H1308 H 0.96363 0.29257 0.25356 0.0
H1309 H 0.93031 0.2916 0.23514 0.0
C1310 C 0.90778 0.25532 0.21401 0.0
C1311 C 0.89767 0.2348 0.20419 0.0
C1312 C 0.92806 0.25688 0.22307 0.0
C1313 C 0.90868 0.21639 0.20237 0.0
C1314 C 0.92883 0.2179 0.21101 0.0
C1315 C 0.95757 0.23865 0.23215 0.0
C1316 C 0.96666 0.25812 0.24407 0.0
C1317 C 0.93837 0.23784 0.22183 0.0
C1318 C 0.95698 0.27736 0.24449 0.0
C1319 C 0.93784 0.27675 0.23405 0.0
H1320 H 0.21242 0.68895 0.62196 0.0
H1321 H 0.21014 0.75559 0.6498 0.0
H1322 H 0.22637 0.7715 0.61857 0.0
H1323 H 0.24425 0.76638 0.58414 0.0
H1324 H 0.2462 0.69926 0.55701 0.0
H1325 H 0.22684 0.6837 0.58688 0.0
C1326 C 0.21542 0.70696 0.62114 0.0
C1327 C 0.21037 0.72108 0.63821 0.0
C1328 C 0.22465 0.71592 0.60317 0.0
C1329 C 0.21394 0.74436 0.63684 0.0
C1330 C 0.22326 0.75346 0.619 0.0
C1331 C 0.23992 0.74837 0.5846 0.0
C1332 C 0.24675 0.73401 0.56838 0.0
C1333 C 0.22904 0.73942 0.60213 0.0
C1334 C 0.24124 0.7107 0.56931 0.0
C1335 C 0.23025 0.70174 0.58645 0.0
H1336 H 0.83371 0.75695 0.61115 0.0
H1337 H 0.81131 0.69636 0.57334 0.0
H1338 H 0.79994 0.71836 0.54812 0.0
H1339 H 0.7986 0.75538 0.53584 0.0
H1340 H 0.82154 0.81547 0.57428 0.0
H1341 H 0.8301 0.79319 0.60021 0.0
C1342 C 0.82631 0.74852 0.59742 0.0
C1343 C 0.82362 0.72507 0.59398 0.0
C1344 C 0.81979 0.76125 0.58307 0.0
C1345 C 0.81369 0.71444 0.57624 0.0
C1346 C 0.80717 0.72701 0.56183 0.0
C1347 C 0.80506 0.7635 0.55006 0.0
C1348 C 0.80952 0.78707 0.55305 0.0
C1349 C 0.81038 0.75051 0.56495 0.0
C1350 C 0.8181 0.79737 0.5715 0.0
C1351 C 0.82308 0.78465 0.58637 0.0
H1352 H 0.84194 0.34873 0.67732 0.0
H1353 H 0.91032 0.3523 0.65899 0.0
H1354 H 0.90045 0.32795 0.62817 0.0
H1355 H 0.8723 0.30582 0.60609 0.0
H1356 H 0.80399 0.3025 0.62451 0.0
H1357 H 0.8139 0.3267 0.65532 0.0
C1358 C 0.85469 0.34438 0.66649 0.0
C1359 C 0.87685 0.35237 0.67056 0.0
C1360 C 0.8489 0.33037 0.64872 0.0
C1361 C 0.89314 0.34622 0.65643 0.0
C1362 C 0.8875 0.33234 0.63872 0.0
C1363 C 0.85961 0.31022 0.61693 0.0
C1364 C 0.83741 0.30237 0.61285 0.0
C1365 C 0.86543 0.32424 0.63472 0.0
C1366 C 0.82118 0.30852 0.62703 0.0
C1367 C 0.82684 0.32231 0.64474 0.0
H1368 H 0.24769 0.39961 0.68248 0.0
H1369 H 0.31056 0.38152 0.68984 0.0
H1370 H 0.31761 0.37855 0.65289 0.0
H1371 H 0.30551 0.38079 0.61837 0.0
H1372 H 0.24423 0.40231 0.61139 0.0
H1373 H 0.23686 0.40448 0.64827 0.0
C1374 C 0.26288 0.39494 0.67593 0.0
C1375 C 0.27847 0.39041 0.68869 0.0
C1376 C 0.26709 0.39404 0.65479 0.0
C1377 C 0.29831 0.38491 0.68018 0.0
C1378 C 0.30232 0.38323 0.65911 0.0
C1379 C 0.29064 0.38604 0.62505 0.0
C1380 C 0.27539 0.39135 0.61235 0.0
C1381 C 0.2868 0.38771 0.64626 0.0
C1382 C 0.25623 0.39835 0.621 0.0
C1383 C 0.25198 0.39945 0.64202 0.0
H1384 H 0.1861 0.33781 0.44405 0.0
H1385 H 0.21455 0.40567 0.43236 0.0
H1386 H 0.23851 0.40834 0.46046 0.0
H1387 H 0.25277 0.39117 0.48719 0.0
H1388 H 0.2253 0.3234 0.49963 0.0
H1389 H 0.19941 0.32103 0.47262 0.0
C1390 C 0.19746 0.3532 0.4478 0.0
C1391 C 0.19863 0.37141 0.43597 0.0
C1392 C 0.21139 0.35465 0.46409 0.0
C1393 C 0.21336 0.3913 0.44103 0.0
C1394 C 0.22711 0.39288 0.45715 0.0
C1395 C 0.24108 0.37585 0.48411 0.0
C1396 C 0.24111 0.35742 0.49532 0.0
C1397 C 0.22647 0.3746 0.46857 0.0
C1398 C 0.22563 0.33784 0.49124 0.0
C1399 C 0.2109 0.33646 0.47573 0.0
H1400 H 0.24914 0.66975 0.40346 0.0
H1401 H 0.24609 0.73562 0.38607 0.0
H1402 H 0.26123 0.75255 0.41815 0.0
H1403 H 0.27588 0.74895 0.4513 0.0
H1404 H 0.28171 0.68352 0.46738 0.0
H1405 H 0.26553 0.66629 0.43558 0.0
C1406 C 0.25205 0.68784 0.40643 0.0
C1407 C 0.24613 0.70121 0.39215 0.0
C1408 C 0.26141 0.69765 0.42478 0.0
C1409 C 0.24985 0.72466 0.39676 0.0
C1410 C 0.25874 0.73447 0.41512 0.0
C1411 C 0.2735 0.73092 0.44783 0.0
C1412 C 0.2799 0.71752 0.46174 0.0
C1413 C 0.26453 0.72115 0.42929 0.0
C1414 C 0.27705 0.6942 0.45689 0.0
C1415 C 0.26772 0.68435 0.43873 0.0
H1416 H 0.86044 0.72071 0.39309 0.0
H1417 H 0.8175 0.75144 0.36049 0.0
H1418 H 0.81463 0.77927 0.38946 0.0
H1419 H 0.82392 0.79436 0.42423 0.0
H1420 H 0.86844 0.76513 0.45622 0.0
H1421 H 0.87161 0.73741 0.42715 0.0
C1422 C 0.85033 0.7334 0.39246 0.0
C1423 C 0.83879 0.73387 0.37497 0.0
C1424 C 0.84933 0.74971 0.4089 0.0
C1425 C 0.82626 0.75072 0.37398 0.0
C1426 C 0.8247 0.76662 0.39046 0.0
C1427 C 0.8344 0.78196 0.4247 0.0
C1428 C 0.84586 0.78162 0.44225 0.0
C1429 C 0.83612 0.76623 0.40799 0.0
C1430 C 0.85964 0.76576 0.44274 0.0
C1431 C 0.86127 0.74982 0.42624 0.0
H1432 H 0.81137 0.32516 0.43667 0.0
H1433 H 0.88081 0.33287 0.44487 0.0
H1434 H 0.87378 0.32823 0.48098 0.0
H1435 H 0.84818 0.31978 0.50958 0.0
H1436 H 0.77848 0.30909 0.50169 0.0
H1437 H 0.78531 0.31785 0.46626 0.0
C1438 C 0.82491 0.32597 0.44645 0.0
C1439 C 0.84659 0.32913 0.43809 0.0
C1440 C 0.82071 0.32297 0.46724 0.0
C1441 C 0.864 0.33008 0.45087 0.0
C1442 C 0.85999 0.32759 0.47154 0.0
C1443 C 0.83439 0.31965 0.50027 0.0
C1444 C 0.81283 0.31372 0.50835 0.0
C1445 C 0.83844 0.32374 0.47981 0.0
C1446 C 0.79525 0.31374 0.49596 0.0
C1447 C 0.79916 0.31852 0.47563 0.0
H1448 H 0.13886 0.68001 0.70026 0.0
H1449 H 0.16561 0.7498 0.69547 0.0
H1450 H 0.1319 0.76047 0.71129 0.0
H1451 H 0.09482 0.75006 0.72603 0.0
H1452 H 0.06708 0.68023 0.72966 0.0
H1453 H 0.10128 0.66957 0.71515 0.0
C1454 C 0.13734 0.69756 0.70288 0.0
C1455 C 0.15473 0.71409 0.69667 0.0
C1456 C 0.11774 0.70358 0.71177 0.0
C1457 C 0.15242 0.73675 0.69994 0.0
C1458 C 0.13316 0.74286 0.70902 0.0
C1459 C 0.09601 0.73247 0.72347 0.0
C1460 C 0.07812 0.71602 0.72892 0.0
C1461 C 0.11564 0.72641 0.71483 0.0
C1462 C 0.08048 0.69334 0.72583 0.0
C1463 C 0.10006 0.68719 0.71742 0.0
H1464 H 0.86685 0.64814 0.67622 0.0
H1465 H 0.80434 0.66406 0.66351 0.0
H1466 H 0.78552 0.63021 0.67832 0.0
H1467 H 0.78674 0.59798 0.69784 0.0
H1468 H 0.84928 0.58378 0.7124 0.0
H1469 H 0.86815 0.61537 0.6944 0.0
C1470 C 0.84909 0.64427 0.6767 0.0
C1471 C 0.83708 0.65884 0.6689 0.0
C1472 C 0.83836 0.62521 0.68586 0.0
C1473 C 0.81408 0.65314 0.6692 0.0
C1474 C 0.80327 0.63387 0.67788 0.0
C1475 C 0.80449 0.60161 0.6968 0.0
C1476 C 0.81661 0.5886 0.70654 0.0
C1477 C 0.81523 0.62005 0.68666 0.0
C1478 C 0.83961 0.5937 0.70527 0.0
C1479 C 0.85039 0.6117 0.69491 0.0
H1480 H 0.93624 0.30992 0.74141 0.0
H1481 H 0.96802 0.37685 0.73037 0.0
H1482 H 1.00383 0.36686 0.73497 0.0
H1483 H 0.0262 0.33871 0.7416 0.0
H1484 H 0.99411 0.27241 0.75424 0.0
H1485 H 0.95834 0.28244 0.74962 0.0
C1486 C 0.95102 0.32235 0.74015 0.0
C1487 C 0.94948 0.34408 0.73555 0.0
C1488 C 0.9715 0.31652 0.743 0.0
C1489 C 0.96873 0.36005 0.734 0.0
C1490 C 0.98922 0.35429 0.73654 0.0
C1491 C 1.01137 0.32645 0.74318 0.0
C1492 C 1.0128 0.30472 0.748 0.0
C1493 C 0.99083 0.33252 0.74089 0.0
C1494 C 0.9934 0.28917 0.7505 0.0
C1495 C 0.97299 0.29492 0.74784 0.0
H1496 H 0.22488 0.45302 0.77777 0.0
H1497 H 0.28727 0.43304 0.78328 0.0
H1498 H 0.30257 0.47102 0.79724 0.0
H1499 H 0.29922 0.51026 0.80412 0.0
H1500 H 0.23833 0.53171 0.79462 0.0
H1501 H 0.22105 0.49263 0.78654 0.0
C1502 C 0.24171 0.45705 0.78235 0.0
C1503 C 0.25505 0.44052 0.7796 0.0
C1504 C 0.25054 0.47906 0.78965 0.0
C1505 C 0.27686 0.44569 0.78529 0.0
C1506 C 0.28554 0.46731 0.79326 0.0
C1507 C 0.28204 0.50646 0.80075 0.0
C1508 C 0.27009 0.52392 0.79993 0.0
C1509 C 0.27267 0.48422 0.79503 0.0
C1510 C 0.24787 0.51857 0.79535 0.0
C1511 C 0.23806 0.49626 0.79058 0.0
H1512 H 0.11859 0.37781 0.33769 0.0
H1513 H 0.14409 0.32722 0.36562 0.0
H1514 H 0.1143 0.29873 0.35259 0.0
H1515 H 0.08194 0.28784 0.33247 0.0
H1516 H 0.05692 0.33755 0.30299 0.0
H1517 H 0.08599 0.36668 0.31708 0.0
C1518 C 0.11776 0.36053 0.34082 0.0
C1519 C 0.13365 0.35477 0.35272 0.0
C1520 C 0.1008 0.34405 0.33287 0.0
C1521 C 0.13197 0.33231 0.35686 0.0
C1522 C 0.11503 0.31592 0.34924 0.0
C1523 C 0.08274 0.30504 0.3291 0.0
C1524 C 0.06723 0.31048 0.31667 0.0
C1525 C 0.09948 0.32158 0.33713 0.0
C1526 C 0.06865 0.33288 0.31247 0.0
C1527 C 0.08525 0.34953 0.32056 0.0
H1528 H 0.27258 0.64712 0.3372 0.0
H1529 H 0.20328 0.62562 0.32905 0.0
H1530 H 0.2103 0.59101 0.31029 0.0
H1531 H 0.2358 0.56762 0.29455 0.0
H1532 H 0.30522 0.58775 0.30209 0.0
H1533 H 0.29846 0.62174 0.32303 0.0
C1534 C 0.25902 0.63474 0.33151 0.0
C1535 C 0.23741 0.63931 0.33427 0.0
C1536 C 0.26318 0.61457 0.32061 0.0
C1537 C 0.22009 0.62295 0.32677 0.0
C1538 C 0.22407 0.60302 0.31611 0.0
C1539 C 0.24953 0.57932 0.30086 0.0
C1540 C 0.27103 0.57513 0.29659 0.0
C1541 C 0.24552 0.59881 0.31265 0.0
C1542 C 0.28851 0.59045 0.30515 0.0
C1543 C 0.28462 0.60999 0.31703 0.0
H1544 H 0.8991 0.73167 0.31486 0.0
H1545 H 0.93254 0.67538 0.31475 0.0
H1546 H 0.96761 0.69951 0.30703 0.0
H1547 H 0.98889 0.73739 0.30258 0.0
H1548 H 0.95449 0.79341 0.30472 0.0
H1549 H 0.91974 0.76864 0.30987 0.0
C1550 C 0.91408 0.72466 0.31325 0.0
C1551 C 0.9133 0.70189 0.31568 0.0
C1552 C 0.93404 0.73866 0.30944 0.0
C1553 C 0.93273 0.69289 0.31292 0.0
C1554 C 0.95277 0.70672 0.30869 0.0
C1555 C 0.97377 0.74412 0.30416 0.0
C1556 C 0.97434 0.76726 0.30343 0.0
C1557 C 0.95367 0.72975 0.3073 0.0
C1558 C 0.95461 0.77573 0.30541 0.0
C1559 C 0.93466 0.76157 0.30828 0.0
H1560 H 0.81009 0.39384 0.37388 0.0
H1561 H 0.86143 0.39946 0.32665 0.0
H1562 H 0.84462 0.42676 0.31141 0.0
H1563 H 0.81588 0.44934 0.31175 0.0
H1564 H 0.76427 0.44421 0.35867 0.0
H1565 H 0.78084 0.41663 0.37403 0.0
C1566 C 0.81755 0.40102 0.36024 0.0
C1567 C 0.83698 0.39465 0.35135 0.0
C1568 C 0.80783 0.41685 0.3516 0.0
C1569 C 0.84649 0.40414 0.33374 0.0
C1570 C 0.8369 0.41974 0.32502 0.0
C1571 C 0.80803 0.442 0.32517 0.0
C1572 C 0.78872 0.44871 0.33394 0.0
C1573 C 0.81761 0.42621 0.33383 0.0
C1574 C 0.77918 0.43943 0.35168 0.0
C1575 C 0.7886 0.42359 0.3604 0.0
H1576 H 0.23498 0.65465 0.72157 0.0
H1577 H 0.25741 0.6323 0.6613 0.0
H1578 H 0.28082 0.61013 0.67553 0.0
H1579 H 0.29491 0.59693 0.70489 0.0
H1580 H 0.27233 0.61833 0.76539 0.0
H1581 H 0.24944 0.64125 0.75134 0.0
C1582 C 0.24498 0.64491 0.71159 0.0
C1583 C 0.24438 0.64506 0.69036 0.0
C1584 C 0.25853 0.63211 0.71992 0.0
C1585 C 0.25752 0.63241 0.67766 0.0
C1586 C 0.27094 0.61974 0.68579 0.0
C1587 C 0.28489 0.60643 0.71507 0.0
C1588 C 0.28542 0.60571 0.73622 0.0
C1589 C 0.27155 0.6194 0.70688 0.0
C1590 C 0.27255 0.61863 0.74907 0.0
C1591 C 0.25928 0.63167 0.74102 0.0
H1592 H 0.18982 0.39778 0.31285 0.0
H1593 H 0.19788 0.44832 0.36367 0.0
H1594 H 0.21782 0.47553 0.34147 0.0
H1595 H 0.23326 0.48491 0.30761 0.0
H1596 H 0.22447 0.43447 0.25683 0.0
H1597 H 0.20399 0.40751 0.27891 0.0
C1598 C 0.19562 0.41483 0.31905 0.0
C1599 C 0.19237 0.42092 0.33995 0.0
C1600 C 0.20688 0.43047 0.30617 0.0
C1601 C 0.2004 0.44304 0.34772 0.0
C1602 C 0.21171 0.45867 0.33501 0.0
C1603 C 0.22693 0.46799 0.30142 0.0
C1604 C 0.23043 0.46174 0.2806 0.0
C1605 C 0.21518 0.45253 0.31423 0.0
C1606 C 0.22181 0.43984 0.27273 0.0
C1607 C 0.21021 0.42434 0.28538 0.0
H1608 H 0.15534 0.74677 0.35743 0.0
H1609 H 0.17468 0.70674 0.30418 0.0
H1610 H 0.14853 0.71999 0.28434 0.0
H1611 H 0.1199 0.74274 0.28201 0.0
H1612 H 0.10038 0.78289 0.33508 0.0
H1613 H 0.12653 0.76967 0.35503 0.0
C1614 C 0.15381 0.74097 0.34148 0.0
C1615 C 0.167 0.72575 0.33237 0.0
C1616 C 0.13858 0.74862 0.3301 0.0
C1617 C 0.16479 0.71839 0.31167 0.0
C1618 C 0.1498 0.72599 0.30027 0.0
C1619 C 0.12144 0.74876 0.2979 0.0
C1620 C 0.10805 0.76383 0.30696 0.0
C1621 C 0.1366 0.7411 0.3093 0.0
C1622 C 0.11016 0.7711 0.3277 0.0
C1623 C 0.12526 0.76363 0.33912 0.0
H1624 H 0.87861 0.61519 0.32167 0.0
H1625 H 0.83001 0.64513 0.29597 0.0
H1626 H 0.81202 0.60823 0.28182 0.0
H1627 H 0.80817 0.56749 0.2796 0.0
H1628 H 0.85503 0.53688 0.30744 0.0
H1629 H 0.87584 0.57393 0.31771 0.0
C1630 C 0.86429 0.6135 0.31268 0.0
C1631 C 0.85554 0.63259 0.30976 0.0
C1632 C 0.85369 0.59217 0.30512 0.0
C1633 C 0.83689 0.63048 0.29832 0.0
C1634 C 0.82663 0.60945 0.2903 0.0
C1635 C 0.82312 0.56886 0.28764 0.0
C1636 C 0.82997 0.54945 0.29284 0.0
C1637 C 0.83459 0.59015 0.29401 0.0
C1638 C 0.84934 0.55158 0.30334 0.0
C1639 C 0.86122 0.57276 0.30926 0.0
H1640 H 0.90855 0.31037 0.3976 0.0
H1641 H 0.87125 0.30665 0.34407 0.0
H1642 H 0.89868 0.28892 0.32392 0.0
H1643 H 0.93387 0.27514 0.32115 0.0
H1644 H 0.96984 0.27651 0.37492 0.0
H1645 H 0.94207 0.29384 0.39537 0.0
C1646 C 0.90612 0.30535 0.38162 0.0
C1647 C 0.88786 0.31028 0.37243 0.0
C1648 C 0.92177 0.29462 0.37011 0.0
C1649 C 0.88534 0.30374 0.35157 0.0
C1650 C 0.90098 0.29339 0.34 0.0
C1651 C 0.93554 0.27921 0.33735 0.0
C1652 C 0.9539 0.27465 0.3465 0.0
C1653 C 0.91938 0.28898 0.34904 0.0
C1654 C 0.95577 0.2797 0.36756 0.0
C1655 C 0.93995 0.28973 0.37923 0.0
H1656 H 0.88998 0.4399 0.73494 0.0
H1657 H 0.83276 0.39309 0.71521 0.0
H1658 H 0.80969 0.42077 0.72589 0.0
H1659 H 0.80543 0.45844 0.73951 0.0
H1660 H 0.86134 0.50578 0.76082 0.0
H1661 H 0.88505 0.47767 0.75128 0.0
C1662 C 0.87245 0.43568 0.73317 0.0
C1663 C 0.86334 0.41442 0.72373 0.0
C1664 C 0.85895 0.45179 0.73966 0.0
C1665 C 0.84049 0.4094 0.72174 0.0
C1666 C 0.82715 0.42521 0.72802 0.0
C1667 C 0.82281 0.4627 0.74216 0.0
C1668 C 0.83159 0.48433 0.7507 0.0
C1669 C 0.83621 0.44652 0.7367 0.0
C1670 C 0.85411 0.48929 0.75429 0.0
C1671 C 0.86768 0.47322 0.74873 0.0
H1672 H 0.18135 0.39179 0.78307 0.0
H1673 H 0.2212 0.34016 0.77691 0.0
H1674 H 0.19122 0.3141 0.79196 0.0
H1675 H 0.1527 0.30517 0.80405 0.0
H1676 H 0.11153 0.35539 0.80627 0.0
H1677 H 0.14302 0.38313 0.7961 0.0
C1678 C 0.18345 0.3749 0.78529 0.0
C1679 C 0.20329 0.36776 0.77895 0.0
C1680 C 0.16595 0.3599 0.79335 0.0
C1681 C 0.20592 0.34583 0.7816 0.0
C1682 C 0.18885 0.33102 0.79025 0.0
C1683 C 0.15084 0.32237 0.80283 0.0
C1684 C 0.13008 0.3285 0.80621 0.0
C1685 C 0.16868 0.33775 0.79586 0.0
C1686 C 0.12754 0.35055 0.80398 0.0
C1687 C 0.14546 0.36629 0.79801 0.0
H1688 H 0.91836 0.73391 0.65845 0.0
H1689 H 0.87225 0.7235 0.70957 0.0
H1690 H 0.90121 0.7381 0.733 0.0
H1691 H 0.94006 0.74933 0.7391 0.0
H1692 H 0.98715 0.75999 0.6889 0.0
H1693 H 0.95746 0.7502 0.66492 0.0
C1694 C 0.91466 0.73534 0.6747 0.0
C1695 C 0.89328 0.7273 0.68231 0.0
C1696 C 0.93158 0.74358 0.68821 0.0
C1697 C 0.88864 0.72925 0.7034 0.0
C1698 C 0.90519 0.73758 0.7168 0.0
C1699 C 0.94379 0.74984 0.7229 0.0
C1700 C 0.96569 0.75506 0.7157 0.0
C1701 C 0.92679 0.74405 0.7094 0.0
C1702 C 0.97035 0.75602 0.69475 0.0
C1703 C 0.9534 0.75026 0.68107 0.0
H1704 H 0.70964 0.2379 0.66145 0.0
H1705 H 0.72688 0.17183 0.6533 0.0
H1706 H 0.74304 0.17916 0.61962 0.0
H1707 H 0.75406 0.20474 0.5933 0.0
H1708 H 0.73752 0.27103 0.60085 0.0
H1709 H 0.71871 0.26293 0.63367 0.0
C1710 C 0.71667 0.22499 0.6522 0.0
C1711 C 0.71726 0.20441 0.66009 0.0
C1712 C 0.72598 0.22931 0.6327 0.0
C1713 C 0.72659 0.18797 0.64787 0.0
C1714 C 0.73572 0.19209 0.62852 0.0
C1715 C 0.74616 0.21741 0.60199 0.0
C1716 C 0.74732 0.23853 0.59463 0.0
C1717 C 0.73579 0.21278 0.62092 0.0
C1718 C 0.73683 0.25462 0.60608 0.0
C1719 C 0.72621 0.25003 0.62493 0.0
H1720 H 0.30667 0.24291 0.61571 0.0
H1721 H 0.37373 0.27699 0.61937 0.0
H1722 H 0.3669 0.30377 0.59658 0.0
H1723 H 0.34186 0.31825 0.57659 0.0
H1724 H 0.27454 0.28503 0.57274 0.0
H1725 H 0.28153 0.25704 0.59453 0.0
C1726 C 0.31977 0.25617 0.61141 0.0
C1727 C 0.34061 0.25803 0.6193 0.0
C1728 C 0.31569 0.27164 0.59832 0.0
C1729 C 0.3575 0.27522 0.61362 0.0
C1730 C 0.35361 0.29056 0.60057 0.0
C1731 C 0.32865 0.30488 0.58042 0.0
C1732 C 0.30766 0.30382 0.57311 0.0
C1733 C 0.33276 0.28904 0.59299 0.0
C1734 C 0.29084 0.28626 0.57817 0.0
C1735 C 0.29483 0.27028 0.59067 0.0
H1736 H 0.35513 0.87697 0.64483 0.0
H1737 H 0.35421 0.82148 0.68083 0.0
H1738 H 0.34355 0.79505 0.65164 0.0
H1739 H 0.33534 0.78735 0.6157 0.0
H1740 H 0.3352 0.84212 0.57929 0.0
H1741 H 0.34499 0.86904 0.60876 0.0
C1742 C 0.35235 0.85911 0.64633 0.0
C1743 C 0.35587 0.85133 0.66503 0.0
C1744 C 0.34606 0.8438 0.62935 0.0
C1745 C 0.35217 0.82805 0.6666 0.0
C1746 C 0.34595 0.81285 0.6499 0.0
C1747 C 0.33761 0.80517 0.61412 0.0
C1748 C 0.33478 0.81266 0.59518 0.0
C1749 C 0.34314 0.8205 0.63114 0.0
C1750 C 0.33724 0.83587 0.59366 0.0
C1751 C 0.34291 0.85127 0.61051 0.0
H1752 H 0.75656 0.93015 0.61225 0.0
H1753 H 0.7235 0.8643 0.62588 0.0
H1754 H 0.74063 0.84756 0.59559 0.0
H1755 H 0.76553 0.85124 0.56596 0.0
H1756 H 0.79818 0.91663 0.55084 0.0
H1757 H 0.781 0.93388 0.58122 0.0
C1758 C 0.75307 0.91216 0.60846 0.0
C1759 C 0.73879 0.89854 0.62129 0.0
C1760 C 0.76301 0.90253 0.59089 0.0
C1761 C 0.73438 0.87524 0.6163 0.0
C1762 C 0.74421 0.86559 0.59897 0.0
C1763 C 0.76867 0.8693 0.56896 0.0
C1764 C 0.78305 0.88258 0.55593 0.0
C1765 C 0.75858 0.87905 0.58622 0.0
C1766 C 0.78732 0.90595 0.56063 0.0
C1767 C 0.7774 0.91584 0.57796 0.0
H1768 H 0.70679 0.83106 0.40552 0.0
H1769 H 0.76527 0.85837 0.3713 0.0
H1770 H 0.78786 0.85304 0.39854 0.0
H1771 H 0.79121 0.84211 0.43227 0.0
H1772 H 0.73383 0.81378 0.46719 0.0
H1773 H 0.71059 0.8177 0.43943 0.0
C1774 C 0.72447 0.83575 0.40406 0.0
C1775 C 0.73437 0.8453 0.38645 0.0
C1776 C 0.73753 0.83244 0.41987 0.0
C1777 C 0.75728 0.85109 0.38471 0.0
C1778 C 0.77023 0.84806 0.40027 0.0
C1779 C 0.7736 0.83673 0.43387 0.0
C1780 C 0.76422 0.82792 0.45187 0.0
C1781 C 0.76054 0.83898 0.41796 0.0
C1782 C 0.74144 0.82063 0.45348 0.0
C1783 C 0.72817 0.82298 0.43765 0.0
H1784 H 0.74521 0.23139 0.41041 0.0
H1785 H 0.73455 0.15988 0.41423 0.0
H1786 H 0.75053 0.16556 0.44741 0.0
H1787 H 0.76678 0.19081 0.47603 0.0
H1788 H 0.7768 0.26228 0.47262 0.0
H1789 H 0.7617 0.25665 0.43898 0.0
C1790 C 0.74627 0.21705 0.41854 0.0
C1791 C 0.73879 0.19523 0.4096 0.0
C1792 C 0.75534 0.22041 0.43785 0.0
C1793 C 0.74052 0.17687 0.42041 0.0
C1794 C 0.74955 0.18009 0.43953 0.0
C1795 C 0.76585 0.20512 0.46784 0.0
C1796 C 0.77282 0.22692 0.47698 0.0
C1797 C 0.75701 0.20177 0.44844 0.0
C1798 C 0.77126 0.24531 0.46616 0.0
C1799 C 0.76269 0.24211 0.44683 0.0
H1800 H 0.36714 0.29467 0.41575 0.0
H1801 H 0.34003 0.23608 0.44663 0.0
H1802 H 0.32999 0.25984 0.47639 0.0
H1803 H 0.32772 0.29695 0.49309 0.0
H1804 H 0.35351 0.35586 0.46232 0.0
H1805 H 0.3658 0.33233 0.43321 0.0
C1806 C 0.35914 0.28714 0.42903 0.0
C1807 C 0.35423 0.26365 0.42902 0.0
C1808 C 0.35327 0.30094 0.44609 0.0
C1809 C 0.3439 0.25413 0.44632 0.0
C1810 C 0.33817 0.26768 0.46332 0.0
C1811 C 0.33591 0.30468 0.47999 0.0
C1812 C 0.33942 0.32812 0.47979 0.0
C1813 C 0.34255 0.29106 0.46327 0.0
C1814 C 0.35066 0.33787 0.4629 0.0
C1815 C 0.35754 0.3244 0.4462 0.0
H1816 H 0.31307 0.83851 0.41944 0.0
H1817 H 0.3823 0.85054 0.42957 0.0
H1818 H 0.37471 0.84158 0.46469 0.0
H1819 H 0.34895 0.82662 0.49123 0.0
H1820 H 0.27965 0.81203 0.48131 0.0
H1821 H 0.28658 0.82619 0.44768 0.0
C1822 C 0.3264 0.8395 0.42951 0.0
C1823 C 0.34824 0.84497 0.42192 0.0
C1824 C 0.32189 0.83382 0.44968 0.0
C1825 C 0.3654 0.84612 0.43503 0.0
C1826 C 0.36107 0.84103 0.45511 0.0
C1827 C 0.33526 0.82684 0.48188 0.0
C1828 C 0.31382 0.81811 0.48875 0.0
C1829 C 0.33945 0.83429 0.46242 0.0
C1830 C 0.29631 0.81872 0.47646 0.0
C1831 C 0.30031 0.82663 0.45713 0.0
H1832 H 0.64823 0.18106 0.73335 0.0
H1833 H 0.6658 0.24133 0.70244 0.0
H1834 H 0.63192 0.25358 0.71567 0.0
H1835 H 0.59756 0.24753 0.73628 0.0
H1836 H 0.58103 0.18835 0.7689 0.0
H1837 H 0.6142 0.17549 0.75472 0.0
C1838 C 0.64483 0.197 0.72966 0.0
C1839 C 0.65971 0.21017 0.71682 0.0
C1840 C 0.62541 0.20419 0.73761 0.0
C1841 C 0.65463 0.2306 0.71197 0.0
C1842 C 0.63527 0.23773 0.71967 0.0
C1843 C 0.60118 0.23193 0.74054 0.0
C1844 C 0.58651 0.21905 0.75379 0.0
C1845 C 0.62056 0.22471 0.73256 0.0
C1846 C 0.59163 0.19862 0.75864 0.0
C1847 C 0.61077 0.19126 0.7506 0.0
H1848 H 0.37686 0.16152 0.68707 0.0
H1849 H 0.31787 0.18509 0.67467 0.0
H1850 H 0.2958 0.14979 0.68379 0.0
H1851 H 0.29303 0.11356 0.69827 0.0
H1852 H 0.35192 0.09124 0.71258 0.0
H1853 H 0.37423 0.12486 0.70011 0.0
C1854 C 0.35916 0.15899 0.6864 0.0
C1855 C 0.34908 0.17607 0.68035 0.0
C1856 C 0.34652 0.13893 0.69222 0.0
C1857 C 0.32615 0.17222 0.6791 0.0
C1858 C 0.31347 0.15209 0.68449 0.0
C1859 C 0.31075 0.11592 0.69832 0.0
C1860 C 0.32083 0.10002 0.70642 0.0
C1861 C 0.32345 0.1355 0.69145 0.0
C1862 C 0.34381 0.1034 0.70665 0.0
C1863 C 0.35655 0.12257 0.69947 0.0
H1864 H 0.44787 0.82599 0.71366 0.0
H1865 H 0.41753 0.86688 0.76012 0.0
H1866 H 0.44128 0.85847 0.78522 0.0
H1867 H 0.47164 0.84099 0.79374 0.0
H1868 H 0.50381 0.80184 0.74722 0.0
H1869 H 0.47794 0.80739 0.72262 0.0
C1870 C 0.44645 0.83297 0.72931 0.0
C1871 C 0.43108 0.84721 0.73493 0.0
C1872 C 0.46038 0.82823 0.7437 0.0
C1873 C 0.42932 0.85606 0.75528 0.0
C1874 C 0.44288 0.8512 0.76969 0.0
C1875 C 0.47311 0.8337 0.77822 0.0
C1876 C 0.48995 0.82125 0.77239 0.0
C1877 C 0.45864 0.83756 0.76402 0.0
C1878 C 0.49106 0.8114 0.75228 0.0
C1879 C 0.47636 0.81478 0.73811 0.0
H1880 H 0.6928 0.94802 0.73516 0.0
H1881 H 0.75566 0.94268 0.70518 0.0
H1882 H 0.77363 0.97185 0.72964 0.0
H1883 H 0.77178 0.99581 0.76116 0.0
H1884 H 0.709 1.00147 0.79143 0.0
H1885 H 0.69075 0.97447 0.76552 0.0
C1886 C 0.71043 0.95341 0.73391 0.0
C1887 C 0.72292 0.94314 0.71847 0.0
C1888 C 0.72068 0.9698 0.74828 0.0
C1889 C 0.74567 0.95047 0.7168 0.0
C1890 C 0.75597 0.96695 0.73092 0.0
C1891 C 0.75408 0.99162 0.76205 0.0
C1892 C 0.74189 1.00077 0.77846 0.0
C1893 C 0.74367 0.97632 0.74698 0.0
C1894 C 0.71893 0.99453 0.77927 0.0
C1895 C 0.70843 0.97919 0.76434 0.0
H1896 H 0.63582 0.85177 0.30133 0.0
H1897 H 0.62036 0.83408 0.3628 0.0
H1898 H 0.58429 0.81434 0.3529 0.0
H1899 H 0.55755 0.80127 0.32669 0.0
H1900 H 0.57243 0.81997 0.26553 0.0
H1901 H 0.60807 0.84098 0.2757 0.0
C1902 C 0.62448 0.844 0.31273 0.0
C1903 C 0.631 0.84443 0.33283 0.0
C1904 C 0.60357 0.83301 0.30703 0.0
C1905 C 0.61608 0.83374 0.34716 0.0
C1906 C 0.59533 0.8226 0.34155 0.0
C1907 C 0.56849 0.81011 0.31559 0.0
C1908 C 0.56235 0.80895 0.29533 0.0
C1909 C 0.58898 0.82199 0.3215 0.0
C1910 C 0.57668 0.82063 0.28122 0.0
C1911 C 0.59713 0.83252 0.287 0.0
H1912 H 0.76137 0.15159 0.3464 0.0
H1913 H 0.69194 0.13842 0.33644 0.0
H1914 H 0.69654 0.10638 0.31263 0.0
H1915 H 0.71998 0.08271 0.29378 0.0
H1916 H 0.78928 0.09422 0.30352 0.0
H1917 H 0.78492 0.1259 0.32859 0.0
C1918 C 0.74722 0.14159 0.33917 0.0
C1919 C 0.72638 0.14784 0.34301 0.0
C1920 C 0.74992 0.1228 0.32549 0.0
C1921 C 0.70827 0.13455 0.33343 0.0
C1922 C 0.71084 0.11604 0.31989 0.0
C1923 C 0.7342 0.09205 0.30141 0.0
C1924 C 0.75497 0.08615 0.29664 0.0
C1925 C 0.73157 0.11017 0.31564 0.0
C1926 C 0.7731 0.09834 0.30691 0.0
C1927 C 0.77061 0.11654 0.32118 0.0
H1928 H 0.41849 0.2041 0.32769 0.0
H1929 H 0.41805 0.27525 0.33285 0.0
H1930 H 0.45264 0.28125 0.31262 0.0
H1931 H 0.48271 0.26615 0.2934 0.0
H1932 H 0.48287 0.19498 0.28818 0.0
H1933 H 0.44804 0.18898 0.30793 0.0
C1934 C 0.42575 0.22091 0.32415 0.0
C1935 C 0.41561 0.2392 0.33166 0.0
C1936 C 0.44544 0.22417 0.3124 0.0
C1937 C 0.42559 0.26092 0.32737 0.0
C1938 C 0.44528 0.26433 0.31572 0.0
C1939 C 0.47523 0.24934 0.29672 0.0
C1940 C 0.48547 0.23104 0.28946 0.0
C1941 C 0.45534 0.24607 0.30821 0.0
C1942 C 0.47527 0.20931 0.29346 0.0
C1943 C 0.45544 0.2059 0.30487 0.0
H1944 H 0.31743 0.91291 0.35535 0.0
H1945 H 0.37409 0.91998 0.31378 0.0
H1946 H 0.3619 0.951 0.29967 0.0
H1947 H 0.33544 0.97638 0.29929 0.0
H1948 H 0.27847 0.96937 0.34053 0.0
H1949 H 0.29046 0.93816 0.35456 0.0
C1950 C 0.32708 0.92124 0.34321 0.0
C1951 C 0.3467 0.9142 0.33565 0.0
C1952 C 0.31994 0.93912 0.3351 0.0
C1953 C 0.35896 0.92512 0.31986 0.0
C1954 C 0.35201 0.94287 0.31179 0.0
C1955 C 0.32562 0.96806 0.31135 0.0
C1956 C 0.3061 0.97533 0.31885 0.0
C1957 C 0.33257 0.95007 0.31932 0.0
C1958 C 0.29357 0.9642 0.33444 0.0
C1959 C 0.30043 0.94632 0.3425 0.0
H1960 H 0.77167 0.13501 0.71616 0.0
H1961 H 0.73171 0.16587 0.76249 0.0
H1962 H 0.74596 0.14737 0.78834 0.0
H1963 H 0.76822 0.12133 0.7978 0.0
H1964 H 0.80794 0.08914 0.7523 0.0
H1965 H 0.79565 0.10952 0.7262 0.0
C1966 C 0.7662 0.13772 0.73195 0.0
C1967 C 0.75049 0.1517 0.7373 0.0
C1968 C 0.77444 0.12685 0.74689 0.0
C1969 C 0.74361 0.15513 0.75783 0.0
C1970 C 0.7518 0.14456 0.77268 0.0
C1971 C 0.77437 0.11878 0.7822 0.0
C1972 C 0.78892 0.10357 0.77703 0.0
C1973 C 0.76699 0.13022 0.76737 0.0
C1974 C 0.79679 0.10075 0.75674 0.0
C1975 C 0.78964 0.11232 0.7418 0.0
H1976 H 0.68031 0.8943 0.29491 0.0
H1977 H 0.71259 0.92337 0.34964 0.0
H1978 H 0.72912 0.95646 0.33255 0.0
H1979 H 0.73341 0.9778 0.3023 0.0
H1980 H 0.6992 0.94949 0.24853 0.0
H1981 H 0.68394 0.9157 0.26519 0.0
C1982 C 0.69071 0.90796 0.30326 0.0
C1983 C 0.69507 0.90625 0.32362 0.0
C1984 C 0.69972 0.92718 0.29352 0.0
C1985 C 0.7091 0.92399 0.33392 0.0
C1986 C 0.71845 0.94304 0.32419 0.0
C1987 C 0.72274 0.96413 0.29423 0.0
C1988 C 0.71743 0.96611 0.27422 0.0
C1989 C 0.7138 0.94487 0.30402 0.0
C1990 C 0.70334 0.94843 0.264 0.0
C1991 C 0.6947 0.92909 0.27349 0.0
H1992 H 0.65658 0.24262 0.35327 0.0
H1993 H 0.64672 0.17675 0.32089 0.0
H1994 H 0.62253 0.18837 0.29816 0.0
H1995 H 0.60315 0.21607 0.28806 0.0
H1996 H 0.61027 0.28207 0.31998 0.0
H1997 H 0.63626 0.27158 0.34241 0.0
C1998 C 0.64927 0.231 0.34108 0.0
C1999 C 0.65354 0.20882 0.33868 0.0
C2000 C 0.63467 0.2377 0.32817 0.0
C2001 C 0.6437 0.19384 0.32305 0.0
C2002 C 0.62981 0.20046 0.31005 0.0
C2003 C 0.61031 0.22835 0.29987 0.0
C2004 C 0.60463 0.24988 0.30226 0.0
C2005 C 0.62498 0.22218 0.3126 0.0
C2006 C 0.61422 0.26535 0.31778 0.0
C2007 C 0.62915 0.25934 0.33058 0.0
H2008 H 0.34807 0.17715 0.37541 0.0
H2009 H 0.33987 0.19634 0.31584 0.0
H2010 H 0.32314 0.15783 0.30493 0.0
H2011 H 0.31644 0.11808 0.31082 0.0
H2012 H 0.32637 0.09849 0.36987 0.0
H2013 H 0.33674 0.13781 0.3826 0.0
C2014 C 0.34196 0.17299 0.36026 0.0
C2015 C 0.34522 0.1894 0.34639 0.0
C2016 C 0.33309 0.1507 0.35391 0.0
C2017 C 0.33757 0.18385 0.3267 0.0
C2018 C 0.32813 0.16185 0.32045 0.0
C2019 C 0.32027 0.1224 0.32661 0.0
C2020 C 0.32094 0.10536 0.33931 0.0
C2021 C 0.32664 0.14499 0.33368 0.0
C2022 C 0.32616 0.1113 0.3597 0.0
C2023 C 0.33204 0.13377 0.36699 0.0
H2024 H 0.40802 0.84983 0.34141 0.0
H2025 H 0.37269 0.79266 0.37018 0.0
H2026 H 0.39733 0.76908 0.35289 0.0
H2027 H 0.42898 0.76461 0.32984 0.0
H2028 H 0.46338 0.82131 0.29975 0.0
H2029 H 0.43919 0.84498 0.3174 0.0
C2030 C 0.40554 0.83216 0.34373 0.0
C2031 C 0.38852 0.82315 0.35722 0.0
C2032 C 0.41973 0.81855 0.33359 0.0
C2033 C 0.38582 0.80022 0.36018 0.0
C2034 C 0.39986 0.78665 0.3502 0.0
C2035 C 0.43117 0.78206 0.32691 0.0
C2036 C 0.44821 0.79093 0.31334 0.0
C2037 C 0.41692 0.79564 0.33692 0.0
C2038 C 0.45076 0.81383 0.3102 0.0
C2039 C 0.43675 0.82746 0.32023 0.0
H2040 H 0.38536 0.94279 0.71841 0.0
H2041 H 0.3202 0.90547 0.70985 0.0
H2042 H 0.30452 0.93828 0.72368 0.0
H2043 H 0.30928 0.97764 0.73864 0.0
H2044 H 0.37456 0.01532 0.74573 0.0
H2045 H 0.39016 0.98233 0.73242 0.0
C2046 C 0.36772 0.94183 0.71958 0.0
C2047 C 0.354 0.92161 0.71309 0.0
C2048 C 0.35881 0.96082 0.7275 0.0
C2049 C 0.33117 0.92082 0.7145 0.0
C2050 C 0.32218 0.93956 0.72257 0.0
C2051 C 0.32692 0.97857 0.73744 0.0
C2052 C 0.34072 0.99894 0.74341 0.0
C2053 C 0.33582 0.95963 0.72924 0.0
C2054 C 0.36355 0.99991 0.74136 0.0
C2055 C 0.37249 0.98103 0.73369 0.0
H2056 H 0.64622 0.87033 0.70287 0.0
H2057 H 0.70451 0.86257 0.73146 0.0
H2058 H 0.6825 0.83836 0.75517 0.0
H2059 H 0.64666 0.82351 0.77026 0.0
H2060 H 0.58789 0.83248 0.74292 0.0
H2061 H 0.61001 0.85187 0.71606 0.0
C2062 C 0.65399 0.8628 0.71399 0.0
C2063 C 0.67679 0.86803 0.71558 0.0
C2064 C 0.64116 0.84944 0.72792 0.0
C2065 C 0.6869 0.85857 0.73009 0.0
C2066 C 0.67435 0.84489 0.74367 0.0
C2067 C 0.63866 0.82949 0.75832 0.0
C2068 C 0.61571 0.82691 0.75878 0.0
C2069 C 0.65144 0.84087 0.74316 0.0
C2070 C 0.60557 0.83443 0.74301 0.0
C2071 C 0.61821 0.84557 0.72766 0.0
H2072 H 0.43409 0.24968 0.67958 0.0
H2073 H 0.3868 0.23131 0.72829 0.0
H2074 H 0.41502 0.24251 0.753 0.0
H2075 H 0.45343 0.25385 0.7605 0.0
H2076 H 0.50171 0.27249 0.7128 0.0
H2077 H 0.47281 0.26535 0.68795 0.0
C2078 C 0.42998 0.24853 0.69564 0.0
C2079 C 0.40847 0.23924 0.70207 0.0
C2080 C 0.44645 0.25492 0.70988 0.0
C2081 C 0.40331 0.23791 0.72293 0.0
C2082 C 0.41942 0.24437 0.73708 0.0
C2083 C 0.45762 0.25658 0.74467 0.0
C2084 C 0.47963 0.26334 0.73836 0.0
C2085 C 0.4411 0.25227 0.73067 0.0
C2086 C 0.48483 0.26726 0.71795 0.0
C2087 C 0.46834 0.26302 0.70377 0.0
H2088 H 0.68843 0.70184 0.13618 0.0
H2089 H 0.74007 0.70641 0.17782 0.0
H2090 H 0.76737 0.71971 0.15166 0.0
H2091 H 0.77692 0.72843 0.11657 0.0
H2092 H 0.72586 0.72408 0.07446 0.0
H2093 H 0.69807 0.71251 0.10106 0.0
C2094 C 0.70563 0.70611 0.13955 0.0
C2095 C 0.71222 0.70298 0.15888 0.0
C2096 C 0.72139 0.71357 0.12428 0.0
C2097 C 0.73459 0.70845 0.16301 0.0
C2098 C 0.75024 0.71602 0.14805 0.0
C2099 C 0.75973 0.72478 0.11315 0.0
C2100 C 0.75352 0.72686 0.09346 0.0
C2101 C 0.74389 0.71824 0.12853 0.0
C2102 C 0.73109 0.72262 0.08948 0.0
C2103 C 0.71519 0.71597 0.10469 0.0
H2104 H 0.29893 0.71247 0.09017 0.0
H2105 H 0.3599 0.75718 0.10231 0.0
H2106 H 0.35138 0.78252 0.079 0.0
H2107 H 0.32661 0.79261 0.056 0.0
H2108 H 0.26495 0.74926 0.04375 0.0
H2109 H 0.27387 0.7226 0.06609 0.0
C2110 C 0.31032 0.72776 0.08763 0.0
C2111 C 0.32998 0.73293 0.09804 0.0
C2112 C 0.30525 0.74244 0.07418 0.0
C2113 C 0.34463 0.75276 0.09462 0.0
C2114 C 0.33979 0.76729 0.08124 0.0
C2115 C 0.31504 0.77731 0.05808 0.0
C2116 C 0.29507 0.773 0.04822 0.0
C2117 C 0.32013 0.76237 0.07107 0.0
C2118 C 0.28044 0.753 0.05111 0.0
C2119 C 0.28552 0.73781 0.06395 0.0
H2120 H 0.37344 0.32703 0.15631 0.0
H2121 H 0.36602 0.39535 0.1506 0.0
H2122 H 0.34643 0.38337 0.11968 0.0
H2123 H 0.32978 0.35361 0.09504 0.0
H2124 H 0.33809 0.28541 0.09894 0.0
H2125 H 0.35947 0.29734 0.12936 0.0
C2126 C 0.36786 0.3394 0.14818 0.0
C2127 C 0.37092 0.36211 0.15628 0.0
C2128 C 0.35678 0.33242 0.12997 0.0
C2129 C 0.36341 0.37771 0.14532 0.0
C2130 C 0.35232 0.3709 0.12744 0.0
C2131 C 0.33642 0.34132 0.10242 0.0
C2132 C 0.33218 0.3186 0.09477 0.0
C2133 C 0.34862 0.3483 0.11981 0.0
C2134 C 0.34115 0.303 0.10442 0.0
C2135 C 0.35325 0.30983 0.12191 0.0
H2136 H 0.8358 0.33463 0.16593 0.0
H2137 H 0.7714 0.29394 0.16535 0.0
H2138 H 0.7595 0.31803 0.14256 0.0
H2139 H 0.7672 0.35081 0.12312 0.0
H2140 H 0.83161 0.39101 0.12191 0.0
H2141 H 0.84384 0.36725 0.1453 0.0
C2142 C 0.81925 0.33106 0.16063 0.0
C2143 C 0.80431 0.31298 0.16763 0.0
C2144 C 0.81247 0.34511 0.14758 0.0
C2145 C 0.78296 0.3082 0.16058 0.0
C2146 C 0.77615 0.32194 0.14757 0.0
C2147 C 0.78372 0.35469 0.12849 0.0
C2148 C 0.79833 0.37304 0.12156 0.0
C2149 C 0.79064 0.34063 0.14127 0.0
C2150 C 0.82002 0.37732 0.12766 0.0
C2151 C 0.82701 0.36361 0.14077 0.0
H2152 H 0.71072 0.42183 0.96095 0.0
H2153 H 0.69977 0.35201 0.93841 0.0
H2154 H 0.71557 0.3425 0.96864 0.0
H2155 H 0.73483 0.35449 1.00057 0.0
H2156 H 0.74615 0.4246 0.02242 0.0
H2157 H 0.72765 0.43343 0.99366 0.0
C2158 C 0.71165 0.40451 0.96276 0.0
C2159 C 0.70421 0.38771 0.94744 0.0
C2160 C 0.72083 0.39919 0.98012 0.0
C2161 C 0.70543 0.36531 0.94996 0.0
C2162 C 0.71448 0.35985 0.96726 0.0
C2163 C 0.73289 0.37162 0.99921 0.0
C2164 C 0.74196 0.38886 1.01362 0.0
C2165 C 0.72252 0.3767 0.98234 0.0
C2166 C 0.73945 0.41101 1.01152 0.0
C2167 C 0.72891 0.41611 0.99503 0.0
H2168 H 0.7152 0.71193 0.92717 0.0
H2169 H 0.78017 0.707 0.90138 0.0
H2170 H 0.79589 0.72364 0.93309 0.0
H2171 H 0.79162 0.73879 0.96845 0.0
H2172 H 0.72776 0.74707 0.99407 0.0
H2173 H 0.71133 0.73089 0.96181 0.0
C2174 C 0.73283 0.71474 0.92823 0.0
C2175 C 0.74626 0.70751 0.91165 0.0
C2176 C 0.74206 0.72526 0.94647 0.0
C2177 C 0.76911 0.71136 0.91382 0.0
C2178 C 0.77827 0.72127 0.93196 0.0
C2179 C 0.77411 0.73732 0.96687 0.0
C2180 C 0.76087 0.74405 0.98356 0.0
C2181 C 0.76493 0.7281 0.9484 0.0
C2182 C 0.73827 0.7422 0.98135 0.0
C2183 C 0.72891 0.73275 0.96297 0.0
H2184 H 0.38378 0.76494 0.93009 0.0
H2185 H 0.40868 0.82827 0.90601 0.0
H2186 H 0.38438 0.84671 0.93002 0.0
H2187 H 0.35477 0.84426 0.95689 0.0
H2188 H 0.33083 0.78069 0.98096 0.0
H2189 H 0.35599 0.76291 0.9579 0.0
C2190 C 0.38391 0.78278 0.93009 0.0
C2191 C 0.39776 0.79524 0.91621 0.0
C2192 C 0.37 0.79319 0.94389 0.0
C2193 C 0.39799 0.81837 0.91656 0.0
C2194 C 0.38413 0.82889 0.93025 0.0
C2195 C 0.3553 0.8266 0.95721 0.0
C2196 C 0.3407 0.81377 0.97037 0.0
C2197 C 0.3699 0.81642 0.94388 0.0
C2198 C 0.3415 0.79085 0.97062 0.0
C2199 C 0.35598 0.78066 0.95752 0.0
H2200 H 0.35165 0.3859 0.93442 0.0
H2201 H 0.34931 0.31818 0.90709 0.0
H2202 H 0.32967 0.30359 0.93733 0.0
H2203 H 0.31411 0.30987 0.97199 0.0
H2204 H 0.31598 0.37739 0.99946 0.0
H2205 H 0.3344 0.3922 0.96869 0.0
C2206 C 0.34658 0.36797 0.93497 0.0
C2207 C 0.35222 0.35319 0.91854 0.0
C2208 C 0.33521 0.35962 0.95249 0.0
C2209 C 0.34559 0.32997 0.91963 0.0
C2210 C 0.33427 0.32158 0.93691 0.0
C2211 C 0.31864 0.32781 0.97129 0.0
C2212 C 0.31377 0.34246 0.98811 0.0
C2213 C 0.32926 0.33622 0.95355 0.0
C2214 C 0.31937 0.36571 0.98673 0.0
C2215 C 0.33001 0.3742 0.96915 0.0
H2216 H 0.64594 0.69213 0.2349 0.0
H2217 H 0.63332 0.70675 0.17474 0.0
H2218 H 0.59945 0.71945 0.18794 0.0
H2219 H 0.57244 0.72486 0.21656 0.0
H2220 H 0.58477 0.70784 0.27593 0.0
H2221 H 0.61932 0.69698 0.2629 0.0
C2222 C 0.6357 0.69774 0.2245 0.0
C2223 C 0.64222 0.69815 0.20373 0.0
C2224 C 0.61599 0.70443 0.23207 0.0
C2225 C 0.62892 0.70632 0.19079 0.0
C2226 C 0.60942 0.71344 0.19832 0.0
C2227 C 0.58277 0.71886 0.22661 0.0
C2228 C 0.57591 0.71703 0.24719 0.0
C2229 C 0.60266 0.71238 0.21892 0.0
C2230 C 0.58943 0.70908 0.26 0.0
C2231 C 0.60929 0.70299 0.25258 0.0
H2232 H 0.35057 0.66743 0.19809 0.0
H2233 H 0.33046 0.6449 0.13721 0.0
H2234 H 0.31105 0.6095 0.1489 0.0
H2235 H 0.30206 0.58398 0.17599 0.0
H2236 H 0.32437 0.60623 0.23634 0.0
H2237 H 0.34045 0.64262 0.22527 0.0
C2238 C 0.34197 0.65476 0.18735 0.0
C2239 C 0.34219 0.65873 0.16676 0.0
C2240 C 0.33125 0.63432 0.19408 0.0
C2241 C 0.33048 0.64235 0.15316 0.0
C2242 C 0.31952 0.62203 0.15982 0.0
C2243 C 0.31047 0.59672 0.18674 0.0
C2244 C 0.31202 0.59206 0.20698 0.0
C2245 C 0.32016 0.61765 0.18017 0.0
C2246 C 0.32261 0.60912 0.22074 0.0
C2247 C 0.33203 0.63002 0.21438 0.0
H2248 H 0.46767 0.36675 0.25421 0.0
H2249 H 0.45254 0.32917 0.19652 0.0
H2250 H 0.48149 0.30782 0.19984 0.0
H2251 H 0.51028 0.29887 0.21911 0.0
H2252 H 0.52606 0.33503 0.27718 0.0
H2253 H 0.49797 0.35806 0.27359 0.0
C2254 C 0.47079 0.35391 0.24237 0.0
C2255 C 0.45778 0.34959 0.22517 0.0
C2256 C 0.48764 0.34148 0.24439 0.0
C2257 C 0.46209 0.33291 0.20995 0.0
C2258 C 0.47873 0.32065 0.21181 0.0
C2259 C 0.50776 0.31183 0.23104 0.0
C2260 C 0.52034 0.31511 0.24845 0.0
C2261 C 0.49148 0.32468 0.22898 0.0
C2262 C 0.51675 0.33215 0.26359 0.0
C2263 C 0.50058 0.34524 0.26157 0.0
H2264 H 0.80187 0.36861 0.23058 0.0
H2265 H 0.74073 0.37043 0.20358 0.0
H2266 H 0.74603 0.41097 0.21132 0.0
H2267 H 0.76635 0.44535 0.22851 0.0
H2268 H 0.82806 0.44362 0.25442 0.0
H2269 H 0.82456 0.40372 0.24359 0.0
C2270 C 0.78991 0.37786 0.22594 0.0
C2271 C 0.77068 0.36631 0.21691 0.0
C2272 C 0.79318 0.40124 0.23018 0.0
C2273 C 0.75536 0.37872 0.21114 0.0
C2274 C 0.75845 0.40196 0.2154 0.0
C2275 C 0.77922 0.43633 0.23147 0.0
C2276 C 0.79729 0.4474 0.24247 0.0
C2277 C 0.77702 0.41331 0.22538 0.0
C2278 C 0.81395 0.43553 0.246 0.0
C2279 C 0.81189 0.41264 0.23995 0.0
H2280 H 0.63442 0.37749 0.83548 0.0
H2281 H 0.65567 0.32341 0.862 0.0
H2282 H 0.6282 0.29637 0.84378 0.0
H2283 H 0.5977 0.28809 0.82117 0.0
H2284 H 0.57679 0.3415 0.79352 0.0
H2285 H 0.60523 0.36881 0.81083 0.0
C2286 C 0.63332 0.35977 0.83706 0.0
C2287 C 0.64706 0.35259 0.85031 0.0
C2288 C 0.61767 0.34421 0.82624 0.0
C2289 C 0.64507 0.32953 0.85232 0.0
C2290 C 0.62947 0.31401 0.84175 0.0
C2291 C 0.59939 0.3057 0.81882 0.0
C2292 C 0.58504 0.3128 0.80622 0.0
C2293 C 0.6156 0.32118 0.82884 0.0
C2294 C 0.58766 0.33562 0.80312 0.0
C2295 C 0.60382 0.35123 0.81311 0.0
H2296 H 0.75902 0.63664 0.86649 0.0
H2297 H 0.74972 0.67845 0.81993 0.0
H2298 H 0.7669 0.65467 0.7945 0.0
H2299 H 0.78173 0.62056 0.78469 0.0
H2300 H 0.79143 0.57778 0.83013 0.0
H2301 H 0.77758 0.60358 0.85675 0.0
C2302 C 0.76102 0.64067 0.85083 0.0
C2303 C 0.75255 0.65911 0.84513 0.0
C2304 C 0.77105 0.62675 0.83603 0.0
C2305 C 0.75546 0.66409 0.82473 0.0
C2306 C 0.76544 0.65056 0.81014 0.0
C2307 C 0.78114 0.61698 0.80046 0.0
C2308 C 0.78751 0.59717 0.80536 0.0
C2309 C 0.77283 0.63161 0.81551 0.0
C2310 C 0.78679 0.59296 0.82591 0.0
C2311 C 0.77865 0.60763 0.84112 0.0
H2312 H 0.47288 0.79148 0.86372 0.0
H2313 H 0.49362 0.72696 0.85605 0.0
H2314 H 0.53119 0.74523 0.84852 0.0
H2315 H 0.55837 0.77991 0.84454 0.0
H2316 H 0.53783 0.844 0.85608 0.0
H2317 H 0.50006 0.8256 0.86292 0.0
C2318 C 0.48557 0.78129 0.86077 0.0
C2319 C 0.48022 0.75777 0.8605 0.0
C2320 C 0.50722 0.7919 0.85724 0.0
C2321 C 0.49702 0.74502 0.85602 0.0
C2322 C 0.5186 0.75548 0.85189 0.0
C2323 C 0.54542 0.78966 0.84806 0.0
C2324 C 0.55034 0.81309 0.84854 0.0
C2325 C 0.52387 0.77891 0.85238 0.0
C2326 C 0.53407 0.82585 0.85493 0.0
C2327 C 0.51254 0.81536 0.85878 0.0
H2328 H 0.38705 0.428 0.80868 0.0
H2329 H 0.35752 0.44625 0.86722 0.0
H2330 H 0.35022 0.48069 0.855 0.0
H2331 H 0.35248 0.50579 0.82773 0.0
H2332 H 0.38125 0.48686 0.76888 0.0
H2333 H 0.38881 0.45286 0.78127 0.0
C2334 C 0.37901 0.43954 0.81875 0.0
C2335 C 0.37285 0.43452 0.83882 0.0
C2336 C 0.37481 0.45932 0.8116 0.0
C2337 C 0.36243 0.44962 0.8517 0.0
C2338 C 0.35825 0.46936 0.8447 0.0
C2339 C 0.36023 0.49422 0.81749 0.0
C2340 C 0.3663 0.49922 0.79731 0.0
C2341 C 0.36437 0.4744 0.82467 0.0
C2342 C 0.37664 0.48391 0.78452 0.0
C2343 C 0.38087 0.46426 0.79157 0.0
H2344 H 0.68821 0.60575 0.22211 0.0
H2345 H 0.75565 0.63912 0.22194 0.0
H2346 H 0.76585 0.60852 0.23833 0.0
H2347 H 0.75569 0.5726 0.25276 0.0
H2348 H 0.6886 0.53815 0.25197 0.0
H2349 H 0.67813 0.56905 0.23625 0.0
C2350 C 0.70511 0.60631 0.2257 0.0
C2351 C 0.72118 0.62468 0.22089 0.0
C2352 C 0.71091 0.58854 0.23502 0.0
C2353 C 0.74302 0.62513 0.22553 0.0
C2354 C 0.74886 0.60767 0.2349 0.0
C2355 C 0.73882 0.5716 0.24895 0.0
C2356 C 0.72303 0.55289 0.25354 0.0
C2357 C 0.73296 0.58927 0.23967 0.0
C2358 C 0.70112 0.55235 0.24885 0.0
C2359 C 0.69512 0.57 0.23973 0.0
H2360 H 0.71648 0.4043 0.83034 0.0
H2361 H 0.6884 0.44782 0.87593 0.0
H2362 H 0.70394 0.48037 0.85741 0.0
H2363 H 0.72428 0.49607 0.82732 0.0
H2364 H 0.75424 0.45288 0.78294 0.0
H2365 H 0.73925 0.42041 0.80178 0.0
C2366 C 0.714 0.42099 0.83624 0.0
C2367 C 0.70132 0.42382 0.85434 0.0
C2368 C 0.72315 0.43952 0.82563 0.0
C2369 C 0.69824 0.44541 0.86204 0.0
C2370 C 0.70699 0.46393 0.85141 0.0
C2371 C 0.72741 0.47949 0.82186 0.0
C2372 C 0.73999 0.47662 0.80371 0.0
C2373 C 0.7192 0.46113 0.83304 0.0
C2374 C 0.74448 0.45528 0.79687 0.0
C2375 C 0.73593 0.43681 0.80761 0.0
H2376 H 0.64654 0.70039 0.85412 0.0
H2377 H 0.68952 0.72773 0.80564 0.0
H2378 H 0.65965 0.74264 0.79271 0.0
H2379 H 0.6216 0.74875 0.79549 0.0
H2380 H 0.57743 0.72003 0.84236 0.0
H2381 H 0.60717 0.70443 0.85543 0.0
C2382 C 0.64929 0.70967 0.84078 0.0
C2383 C 0.67029 0.71327 0.83099 0.0
C2384 C 0.63177 0.71774 0.83305 0.0
C2385 C 0.67355 0.72491 0.81349 0.0
C2386 C 0.65648 0.7334 0.80606 0.0
C2387 C 0.61851 0.73893 0.80848 0.0
C2388 C 0.59745 0.73558 0.81801 0.0
C2389 C 0.63558 0.73001 0.81574 0.0
C2390 C 0.59349 0.72264 0.83469 0.0
C2391 C 0.61054 0.71391 0.84225 0.0
H2392 H 0.3848 0.70127 0.84844 0.0
H2393 H 0.44657 0.67914 0.85258 0.0
H2394 H 0.43096 0.64196 0.83744 0.0
H2395 H 0.39974 0.6156 0.82337 0.0
H2396 H 0.3376 0.63732 0.82028 0.0
H2397 H 0.35329 0.67464 0.83518 0.0
C2398 C 0.39482 0.68828 0.84627 0.0
C2399 C 0.41688 0.69311 0.85168 0.0
C2400 C 0.38563 0.66679 0.83787 0.0
C2401 C 0.42967 0.67609 0.84831 0.0
C2402 C 0.42069 0.65473 0.8398 0.0
C2403 C 0.38957 0.62845 0.826 0.0
C2404 C 0.3675 0.62361 0.82069 0.0
C2405 C 0.39869 0.64988 0.83456 0.0
C2406 C 0.35461 0.64052 0.82425 0.0
C2407 C 0.36359 0.6619 0.83272 0.0
H2408 H 0.408 0.34517 0.83654 0.0
H2409 H 0.42626 0.34433 0.8982 0.0
H2410 H 0.4548 0.32263 0.88633 0.0
H2411 H 0.47447 0.30348 0.85844 0.0
H2412 H 0.45652 0.30448 0.79676 0.0
H2413 H 0.42826 0.32663 0.80854 0.0
C2414 C 0.4184 0.34046 0.84734 0.0
C2415 C 0.41485 0.34627 0.86825 0.0
C2416 C 0.43485 0.32792 0.8404 0.0
C2417 C 0.42838 0.33982 0.88205 0.0
C2418 C 0.44477 0.32745 0.87527 0.0
C2419 C 0.46426 0.3084 0.84761 0.0
C2420 C 0.46765 0.3023 0.82675 0.0
C2421 C 0.44804 0.32122 0.8545 0.0
C2422 C 0.45446 0.30913 0.81288 0.0
C2423 C 0.43822 0.32175 0.81961 0.0
H2424 H 0.37884 0.43576 0.19919 0.0
H2425 H 0.36719 0.39207 0.24748 0.0
H2426 H 0.34829 0.41913 0.26826 0.0
H2427 H 0.33251 0.45397 0.27152 0.0
H2428 H 0.34559 0.49825 0.22355 0.0
H2429 H 0.36665 0.47247 0.20403 0.0
C2430 C 0.37237 0.43233 0.21437 0.0
C2431 C 0.37428 0.41187 0.22175 0.0
C2432 C 0.3617 0.44808 0.22628 0.0
C2433 C 0.366 0.40771 0.2415 0.0
C2434 C 0.35509 0.42315 0.25333 0.0
C2435 C 0.34024 0.45816 0.25693 0.0
C2436 C 0.33726 0.47805 0.24903 0.0
C2437 C 0.35248 0.44322 0.24573 0.0
C2438 C 0.34757 0.48318 0.23012 0.0
C2439 C 0.35954 0.46834 0.21884 0.0
H2440 H 0.70753 0.3045 0.19066 0.0
H2441 H 0.72212 0.28312 0.24755 0.0
H2442 H 0.68302 0.26929 0.25467 0.0
H2443 H 0.64456 0.26629 0.2458 0.0
H2444 H 0.63002 0.28679 0.18853 0.0
H2445 H 0.66927 0.29775 0.18015 0.0
C2446 C 0.70205 0.29642 0.20442 0.0
C2447 C 0.7174 0.29475 0.21863 0.0
C2448 C 0.67967 0.28857 0.20832 0.0
C2449 C 0.71042 0.28437 0.23643 0.0
C2450 C 0.68814 0.27663 0.24052 0.0
C2451 C 0.65009 0.27302 0.23145 0.0
C2452 C 0.63458 0.27605 0.21787 0.0
C2453 C 0.6726 0.27912 0.22678 0.0
C2454 C 0.64177 0.28435 0.19914 0.0
C2455 C 0.66415 0.29069 0.19443 0.0
H2456 H 0.40967 0.74696 0.17676 0.0
H2457 H 0.42144 0.67964 0.16025 0.0
H2458 H 0.45575 0.68815 0.17777 0.0
H2459 H 0.47995 0.71302 0.20109 0.0
H2460 H 0.46835 0.78016 0.21887 0.0
H2461 H 0.43681 0.77366 0.19721 0.0
C2462 C 0.42003 0.73436 0.17666 0.0
C2463 C 0.41289 0.71259 0.16748 0.0
C2464 C 0.43969 0.73929 0.1871 0.0
C2465 C 0.42643 0.69639 0.16749 0.0
C2466 C 0.44605 0.70125 0.17749 0.0
C2467 C 0.47076 0.7264 0.19998 0.0
C2468 C 0.47635 0.74694 0.21176 0.0
C2469 C 0.45246 0.72238 0.18788 0.0
C2470 C 0.46442 0.76417 0.20996 0.0
C2471 C 0.44626 0.76039 0.19769 0.0
loop_
_geom_bond_atom_site_label_1
_geom_bond_atom_site_label_2
_geom_bond_distance
_geom_bond_site_symmetry_2
_ccdc_geom_bond_type
H0 C5 0.930 . S
H1 C8 0.930 . S
H2 C10 0.930 . S
H3 C4 1.016 . S
C4 H3 1.016 . S
C4 N11 1.286 . S
C5 H0 0.930 . S
C5 C6 1.397 . S
C5 C7 1.361 . S
C6 C5 1.397 . S
C6 C10 1.390 . S
C7 C5 1.361 . S
C7 C8 1.393 . S
C7 N11 1.413 . S
C8 H1 0.930 . S
C8 C7 1.393 . S
C8 C9 1.399 . S
C9 C8 1.399 . S
C9 C10 1.381 . S
C10 H2 0.930 . S
C10 C6 1.390 . S
C10 C9 1.381 . S
N11 C4 1.286 . S
N11 C7 1.413 . S
H12 C17 0.930 . S
H13 C20 0.930 . S
H14 C22 0.930 . S
H15 C16 1.016 . S
C16 H15 1.016 . S
C16 N23 1.286 . S
C17 H12 0.930 . S
C17 C18 1.397 . S
C17 C19 1.361 . S
C18 C17 1.397 . S
C18 C22 1.390 . S
C19 C17 1.361 . S
C19 C20 1.393 . S
C19 N23 1.413 . S
C20 H13 0.930 . S
C20 C19 1.393 . S
C20 C21 1.399 . S
C21 C20 1.399 . S
C21 C22 1.381 . S
C22 H14 0.930 . S
C22 C18 1.390 . S
C22 C21 1.381 . S
N23 C16 1.286 . S
N23 C19 1.413 . S
H24 C29 0.930 . S
H25 C32 0.930 . S
H26 C34 0.930 . S
H27 C28 1.016 . S
C28 H27 1.016 . S
C28 N35 1.286 . S
C29 H24 0.930 . S
C29 C30 1.397 . S
C29 C31 1.361 . S
C30 C29 1.397 . S
C30 C34 1.390 . S
C31 C29 1.361 . S
C31 C32 1.393 . S
C31 N35 1.413 . S
C32 H25 0.930 . S
C32 C31 1.393 . S
C32 C33 1.399 . S
C33 C32 1.399 . S
C33 C34 1.381 . S
C34 H26 0.930 . S
C34 C30 1.390 . S
C34 C33 1.381 . S
N35 C28 1.286 . S
N35 C31 1.413 . S
H36 C41 0.930 . S
H37 C44 0.930 . S
H38 C46 0.930 . S
H39 C40 1.016 . S
C40 H39 1.016 . S
C40 N47 1.286 . S
C41 H36 0.930 . S
C41 C42 1.397 . S
C41 C43 1.361 . S
C42 C41 1.397 . S
C42 C46 1.390 . S
C43 C41 1.361 . S
C43 C44 1.393 . S
C43 N47 1.413 . S
C44 H37 0.930 . S
C44 C43 1.393 . S
C44 C45 1.399 . S
C45 C44 1.399 . S
C45 C46 1.381 . S
C46 H38 0.930 . S
C46 C42 1.390 . S
C46 C45 1.381 . S
N47 C40 1.286 . S
N47 C43 1.413 . S
H48 C53 0.930 . S
H49 C56 0.930 . S
H50 C58 0.930 . S
H51 C52 1.016 . S
C52 H51 1.016 . S
C52 N59 1.286 . S
C53 H48 0.930 . S
C53 C54 1.397 . S
C53 C55 1.361 . S
C54 C53 1.397 . S
C54 C58 1.390 . S
C55 C53 1.361 . S
C55 C56 1.393 . S
C55 N59 1.413 . S
C56 H49 0.930 . S
C56 C55 1.393 . S
C56 C57 1.399 . S
C57 C56 1.399 . S
C57 C58 1.381 . S
C58 H50 0.930 . S
C58 C54 1.390 . S
C58 C57 1.381 . S
N59 C52 1.286 . S
N59 C55 1.413 . S
H60 C65 0.930 . S
H61 C68 0.930 . S
H62 C70 0.930 . S
H63 C64 1.016 . S
C64 H63 1.016 . S
C64 N71 1.286 . S
C65 H60 0.930 . S
C65 C66 1.397 . S
C65 C67 1.361 . S
C66 C65 1.397 . S
C66 C70 1.390 . S
C67 C65 1.361 . S
C67 C68 1.393 . S
C67 N71 1.413 . S
C68 H61 0.930 . S
C68 C67 1.393 . S
C68 C69 1.399 . S
C69 C68 1.399 . S
C69 C70 1.381 . S
C70 H62 0.930 . S
C70 C66 1.390 . S
C70 C69 1.381 . S
N71 C64 1.286 . S
N71 C67 1.413 . S
H72 C77 0.930 . S
H73 C80 0.930 . S
H74 C82 0.930 . S
H75 C76 1.016 . S
C76 H75 1.016 . S
C76 N83 1.286 . S
C77 H72 0.930 . S
C77 C78 1.397 . S
C77 C79 1.361 . S
C78 C77 1.397 . S
C78 C82 1.390 . S
C79 C77 1.361 . S
C79 C80 1.393 . S
C79 N83 1.413 . S
C80 H73 0.930 . S
C80 C79 1.393 . S
C80 C81 1.399 . S
C81 C80 1.399 . S
C81 C82 1.381 . S
C82 H74 0.930 . S
C82 C78 1.390 . S
C82 C81 1.381 . S
N83 C76 1.286 . S
N83 C79 1.413 . S
H84 C89 0.930 . S
H85 C92 0.930 . S
H86 C94 0.930 . S
H87 C88 1.016 . S
C88 H87 1.016 . S
C88 N95 1.286 . S
C89 H84 0.930 . S
C89 C90 1.397 . S
C89 C91 1.361 . S
C90 C89 1.397 . S
C90 C94 1.390 . S
C91 C89 1.361 . S
C91 C92 1.393 . S
C91 N95 1.413 . S
C92 H85 0.930 . S
C92 C91 1.393 . S
C92 C93 1.399 . S
C93 C92 1.399 . S
C93 C94 1.381 . S
C94 H86 0.930 . S
C94 C90 1.390 . S
C94 C93 1.381 . S
N95 C88 1.286 . S
N95 C91 1.413 . S
H96 C101 0.930 . S
H97 C104 0.930 . S
H98 C106 0.930 . S
H99 C100 1.016 . S
C100 H99 1.016 . S
C100 N107 1.286 . S
C101 H96 0.930 . S
C101 C102 1.397 . S
C101 C103 1.361 . S
C102 C101 1.397 . S
C102 C106 1.390 . S
C103 C101 1.361 . S
C103 C104 1.393 . S
C103 N107 1.413 . S
C104 H97 0.930 . S
C104 C103 1.393 . S
C104 C105 1.399 . S
C105 C104 1.399 . S
C105 C106 1.381 . S
C106 H98 0.930 . S
C106 C102 1.390 . S
C106 C105 1.381 . S
N107 C100 1.286 . S
N107 C103 1.413 . S
H108 C113 0.930 . S
H109 C116 0.930 . S
H110 C118 0.930 . S
H111 C112 1.016 . S
C112 H111 1.016 . S
C112 N119 1.286 . S
C113 H108 0.930 . S
C113 C114 1.397 . S
C113 C115 1.361 . S
C114 C113 1.397 . S
C114 C118 1.390 . S
C115 C113 1.361 . S
C115 C116 1.393 . S
C115 N119 1.413 . S
C116 H109 0.930 . S
C116 C115 1.393 . S
C116 C117 1.399 . S
C117 C116 1.399 . S
C117 C118 1.381 . S
C118 H110 0.930 . S
C118 C114 1.390 . S
C118 C117 1.381 . S
N119 C112 1.286 . S
N119 C115 1.413 . S
H120 C125 0.930 . S
H121 C128 0.930 . S
H122 C130 0.930 . S
H123 C124 1.016 . S
C124 H123 1.016 . S
C124 N131 1.286 . S
C125 H120 0.930 . S
C125 C126 1.397 . S
C125 C127 1.361 . S
C126 C125 1.397 . S
C126 C130 1.390 . S
C127 C125 1.361 . S
C127 C128 1.393 . S
C127 N131 1.413 . S
C128 H121 0.930 . S
C128 C127 1.393 . S
C128 C129 1.399 . S
C129 C128 1.399 . S
C129 C130 1.381 . S
C130 H122 0.930 . S
C130 C126 1.390 . S
C130 C129 1.381 . S
N131 C124 1.286 . S
N131 C127 1.413 . S
H132 C137 0.930 . S
H133 C140 0.930 . S
H134 C142 0.930 . S
H135 C136 1.016 . S
C136 H135 1.016 . S
C136 N143 1.286 . S
C137 H132 0.930 . S
C137 C138 1.397 . S
C137 C139 1.361 . S
C138 C137 1.397 . S
C138 C142 1.390 . S
C139 C137 1.361 . S
C139 C140 1.393 . S
C139 N143 1.413 . S
C140 H133 0.930 . S
C140 C139 1.393 . S
C140 C141 1.399 . S
C141 C140 1.399 . S
C141 C142 1.381 . S
C142 H134 0.930 . S
C142 C138 1.390 . S
C142 C141 1.381 . S
N143 C136 1.286 . S
N143 C139 1.413 . S
H144 C149 0.930 . S
H145 C152 0.930 . S
H146 C154 0.930 . S
H147 C148 1.016 . S
C148 H147 1.016 . S
C148 N155 1.286 . S
C149 H144 0.930 . S
C149 C150 1.397 . S
C149 C151 1.361 . S
C150 C149 1.397 . S
C150 C154 1.390 . S
C151 C149 1.361 . S
C151 C152 1.393 . S
C151 N155 1.413 . S
C152 H145 0.930 . S
C152 C151 1.393 . S
C152 C153 1.399 . S
C153 C152 1.399 . S
C153 C154 1.381 . S
C154 H146 0.930 . S
C154 C150 1.390 . S
C154 C153 1.381 . S
N155 C148 1.286 . S
N155 C151 1.413 . S
H156 C161 0.930 . S
H157 C164 0.930 . S
H158 C166 0.930 . S
H159 C160 1.016 . S
C160 H159 1.016 . S
C160 N167 1.286 . S
C161 H156 0.930 . S
C161 C162 1.397 . S
C161 C163 1.361 . S
C162 C161 1.397 . S
C162 C166 1.390 . S
C163 C161 1.361 . S
C163 C164 1.393 . S
C163 N167 1.413 . S
C164 H157 0.930 . S
C164 C163 1.393 . S
C164 C165 1.399 . S
C165 C164 1.399 . S
C165 C166 1.381 . S
C166 H158 0.930 . S
C166 C162 1.390 . S
C166 C165 1.381 . S
N167 C160 1.286 . S
N167 C163 1.413 . S
H168 C173 0.930 . S
H169 C176 0.930 . S
H170 C178 0.930 . S
H171 C172 1.016 . S
C172 H171 1.016 . S
C172 N179 1.286 . S
C173 H168 0.930 . S
C173 C174 1.397 . S
C173 C175 1.361 . S
C174 C173 1.397 . S
C174 C178 1.390 . S
C175 C173 1.361 . S
C175 C176 1.393 . S
C175 N179 1.413 . S
C176 H169 0.930 . S
C176 C175 1.393 . S
C176 C177 1.399 . S
C177 C176 1.399 . S
C177 C178 1.381 . S
C178 H170 0.930 . S
C178 C174 1.390 . S
C178 C177 1.381 . S
N179 C172 1.286 . S
N179 C175 1.413 . S
H180 C185 0.930 . S
H181 C188 0.930 . S
H182 C190 0.930 . S
H183 C184 1.016 . S
C184 H183 1.016 . S
C184 N191 1.286 . S
C185 H180 0.930 . S
C185 C186 1.397 . S
C185 C187 1.361 . S
C186 C185 1.397 . S
C186 C190 1.390 . S
C187 C185 1.361 . S
C187 C188 1.393 . S
C187 N191 1.413 . S
C188 H181 0.930 . S
C188 C187 1.393 . S
C188 C189 1.399 . S
C189 C188 1.399 . S
C189 C190 1.381 . S
C190 H182 0.930 . S
C190 C186 1.390 . S
C190 C189 1.381 . S
N191 C184 1.286 . S
N191 C187 1.413 . S
H192 C197 0.930 . S
H193 C200 0.930 . S
H194 C202 0.930 . S
H195 C196 1.016 . S
C196 H195 1.016 . S
C196 N203 1.286 . S
C197 H192 0.930 . S
C197 C198 1.397 . S
C197 C199 1.361 . S
C198 C197 1.397 . S
C198 C202 1.390 . S
C199 C197 1.361 . S
C199 C200 1.393 . S
C199 N203 1.413 . S
C200 H193 0.930 . S
C200 C199 1.393 . S
C200 C201 1.399 . S
C201 C200 1.399 . S
C201 C202 1.381 . S
C202 H194 0.930 . S
C202 C198 1.390 . S
C202 C201 1.381 . S
N203 C196 1.286 . S
N203 C199 1.413 . S
H204 C209 0.930 . S
H205 C212 0.930 . S
H206 C214 0.930 . S
H207 C208 1.016 . S
C208 H207 1.016 . S
C208 N215 1.286 . S
C209 H204 0.930 . S
C209 C210 1.397 . S
C209 C211 1.361 . S
C210 C209 1.397 . S
C210 C214 1.390 . S
C211 C209 1.361 . S
C211 C212 1.393 . S
C211 N215 1.413 . S
C212 H205 0.930 . S
C212 C211 1.393 . S
C212 C213 1.399 . S
C213 C212 1.399 . S
C213 C214 1.381 . S
C214 H206 0.930 . S
C214 C210 1.390 . S
C214 C213 1.381 . S
N215 C208 1.286 . S
N215 C211 1.413 . S
H216 C221 0.930 . S
H217 C224 0.930 . S
H218 C226 0.930 . S
H219 C220 1.016 . S
C220 H219 1.016 . S
C220 N227 1.286 . S
C221 H216 0.930 . S
C221 C222 1.397 . S
C221 C223 1.361 . S
C222 C221 1.397 . S
C222 C226 1.390 . S
C223 C221 1.361 . S
C223 C224 1.393 . S
C223 N227 1.413 . S
C224 H217 0.930 . S
C224 C223 1.393 . S
C224 C225 1.399 . S
C225 C224 1.399 . S
C225 C226 1.381 . S
C226 H218 0.930 . S
C226 C222 1.390 . S
C226 C225 1.381 . S
N227 C220 1.286 . S
N227 C223 1.413 . S
H228 C233 0.930 . S
H229 C236 0.930 . S
H230 C238 0.930 . S
H231 C232 1.016 . S
C232 H231 1.016 . S
C232 N239 1.286 . S
C233 H228 0.930 . S
C233 C234 1.397 . S
C233 C235 1.361 . S
C234 C233 1.397 . S
C234 C238 1.390 . S
C235 C233 1.361 . S
C235 C236 1.393 . S
C235 N239 1.413 . S
C236 H229 0.930 . S
C236 C235 1.393 . S
C236 C237 1.399 . S
C237 C236 1.399 . S
C237 C238 1.381 . S
C238 H230 0.930 . S
C238 C234 1.390 . S
C238 C237 1.381 . S
N239 C232 1.286 . S
N239 C235 1.413 . S
H240 C245 0.930 . S
H241 C248 0.930 . S
H242 C250 0.930 . S
H243 C244 1.016 . S
C244 H243 1.016 . S
C244 N251 1.286 . S
C245 H240 0.930 . S
C245 C246 1.397 . S
C245 C247 1.361 . S
C246 C245 1.397 . S
C246 C250 1.390 . S
C247 C245 1.361 . S
C247 C248 1.393 . S
C247 N251 1.413 . S
C248 H241 0.930 . S
C248 C247 1.393 . S
C248 C249 1.399 . S
C249 C248 1.399 . S
C249 C250 1.381 . S
C250 H242 0.930 . S
C250 C246 1.390 . S
C250 C249 1.381 . S
N251 C244 1.286 . S
N251 C247 1.413 . S
H252 C257 0.930 . S
H253 C260 0.930 . S
H254 C262 0.930 . S
H255 C256 1.016 . S
C256 H255 1.016 . S
C256 N263 1.286 . S
C257 H252 0.930 . S
C257 C258 1.397 . S
C257 C259 1.361 . S
C258 C257 1.397 . S
C258 C262 1.390 . S
C259 C257 1.361 . S
C259 C260 1.393 . S
C259 N263 1.413 . S
C260 H253 0.930 . S
C260 C259 1.393 . S
C260 C261 1.399 . S
C261 C260 1.399 . S
C261 C262 1.381 . S
C262 H254 0.930 . S
C262 C258 1.390 . S
C262 C261 1.381 . S
N263 C256 1.286 . S
N263 C259 1.413 . S
H264 C269 0.930 . S
H265 C272 0.930 . S
H266 C274 0.930 . S
H267 C268 1.016 . S
C268 H267 1.016 . S
C268 N275 1.286 . S
C269 H264 0.930 . S
C269 C270 1.397 . S
C269 C271 1.361 . S
C270 C269 1.397 . S
C270 C274 1.390 . S
C271 C269 1.361 . S
C271 C272 1.393 . S
C271 N275 1.413 . S
C272 H265 0.930 . S
C272 C271 1.393 . S
C272 C273 1.399 . S
C273 C272 1.399 . S
C273 C274 1.381 . S
C274 H266 0.930 . S
C274 C270 1.390 . S
C274 C273 1.381 . S
N275 C268 1.286 . S
N275 C271 1.413 . S
H276 C281 0.930 . S
H277 C284 0.930 . S
H278 C286 0.930 . S
H279 C280 1.016 . S
C280 H279 1.016 . S
C280 N287 1.286 . S
C281 H276 0.930 . S
C281 C282 1.397 . S
C281 C283 1.361 . S
C282 C281 1.397 . S
C282 C286 1.390 . S
C283 C281 1.361 . S
C283 C284 1.393 . S
C283 N287 1.413 . S
C284 H277 0.930 . S
C284 C283 1.393 . S
C284 C285 1.399 . S
C285 C284 1.399 . S
C285 C286 1.381 . S
C286 H278 0.930 . S
C286 C282 1.390 . S
C286 C285 1.381 . S
N287 C280 1.286 . S
N287 C283 1.413 . S
H288 C293 0.930 . S
H289 C296 0.930 . S
H290 C298 0.930 . S
H291 C292 1.016 . S
C292 H291 1.016 . S
C292 N299 1.286 . S
C293 H288 0.930 . S
C293 C294 1.397 . S
C293 C295 1.361 . S
C294 C293 1.397 . S
C294 C298 1.390 . S
C295 C293 1.361 . S
C295 C296 1.393 . S
C295 N299 1.413 . S
C296 H289 0.930 . S
C296 C295 1.393 . S
C296 C297 1.399 . S
C297 C296 1.399 . S
C297 C298 1.381 . S
C298 H290 0.930 . S
C298 C294 1.390 . S
C298 C297 1.381 . S
N299 C292 1.286 . S
N299 C295 1.413 . S
H300 C305 0.930 . S
H301 C308 0.930 . S
H302 C310 0.930 . S
H303 C304 1.016 . S
C304 H303 1.016 . S
C304 N311 1.286 . S
C305 H300 0.930 . S
C305 C306 1.397 . S
C305 C307 1.361 . S
C306 C305 1.397 . S
C306 C310 1.390 . S
C307 C305 1.361 . S
C307 C308 1.393 . S
C307 N311 1.413 . S
C308 H301 0.930 . S
C308 C307 1.393 . S
C308 C309 1.399 . S
C309 C308 1.399 . S
C309 C310 1.381 . S
C310 H302 0.930 . S
C310 C306 1.390 . S
C310 C309 1.381 . S
N311 C304 1.286 . S
N311 C307 1.413 . S
H312 C317 0.930 . S
H313 C320 0.930 . S
H314 C322 0.930 . S
H315 C316 1.016 . S
C316 H315 1.016 . S
C316 N323 1.286 . S
C317 H312 0.930 . S
C317 C318 1.397 . S
C317 C319 1.361 . S
C318 C317 1.397 . S
C318 C322 1.390 . S
C319 C317 1.361 . S
C319 C320 1.393 . S
C319 N323 1.413 . S
C320 H313 0.930 . S
C320 C319 1.393 . S
C320 C321 1.399 . S
C321 C320 1.399 . S
C321 C322 1.381 . S
C322 H314 0.930 . S
C322 C318 1.390 . S
C322 C321 1.381 . S
N323 C316 1.286 . S
N323 C319 1.413 . S
H324 C329 0.930 . S
H325 C332 0.930 . S
H326 C334 0.930 . S
H327 C328 1.016 . S
C328 H327 1.016 . S
C328 N335 1.286 . S
C329 H324 0.930 . S
C329 C330 1.397 . S
C329 C331 1.361 . S
C330 C329 1.397 . S
C330 C334 1.390 . S
C331 C329 1.361 . S
C331 C332 1.393 . S
C331 N335 1.413 . S
C332 H325 0.930 . S
C332 C331 1.393 . S
C332 C333 1.399 . S
C333 C332 1.399 . S
C333 C334 1.381 . S
C334 H326 0.930 . S
C334 C330 1.390 . S
C334 C333 1.381 . S
N335 C328 1.286 . S
N335 C331 1.413 . S
H336 C341 0.930 . S
H337 C344 0.930 . S
H338 C346 0.930 . S
H339 C340 1.016 . S
C340 H339 1.016 . S
C340 N347 1.286 . S
C341 H336 0.930 . S
C341 C342 1.397 . S
C341 C343 1.361 . S
C342 C341 1.397 . S
C342 C346 1.390 . S
C343 C341 1.361 . S
C343 C344 1.393 . S
C343 N347 1.413 . S
C344 H337 0.930 . S
C344 C343 1.393 . S
C344 C345 1.399 . S
C345 C344 1.399 . S
C345 C346 1.381 . S
C346 H338 0.930 . S
C346 C342 1.390 . S
C346 C345 1.381 . S
N347 C340 1.286 . S
N347 C343 1.413 . S
H348 C353 0.930 . S
H349 C356 0.930 . S
H350 C358 0.930 . S
H351 C352 1.016 . S
C352 H351 1.016 . S
C352 N359 1.286 . S
C353 H348 0.930 . S
C353 C354 1.397 . S
C353 C355 1.361 . S
C354 C353 1.397 . S
C354 C358 1.390 . S
C355 C353 1.361 . S
C355 C356 1.393 . S
C355 N359 1.413 . S
C356 H349 0.930 . S
C356 C355 1.393 . S
C356 C357 1.399 . S
C357 C356 1.399 . S
C357 C358 1.381 . S
C358 H350 0.930 . S
C358 C354 1.390 . S
C358 C357 1.381 . S
N359 C352 1.286 . S
N359 C355 1.413 . S
H360 C365 0.930 . S
H361 C368 0.930 . S
H362 C370 0.930 . S
H363 C364 1.016 . S
C364 H363 1.016 . S
C364 N371 1.286 . S
C365 H360 0.930 . S
C365 C366 1.397 . S
C365 C367 1.361 . S
C366 C365 1.397 . S
C366 C370 1.390 . S
C367 C365 1.361 . S
C367 C368 1.393 . S
C367 N371 1.413 . S
C368 H361 0.930 . S
C368 C367 1.393 . S
C368 C369 1.399 . S
C369 C368 1.399 . S
C369 C370 1.381 . S
C370 H362 0.930 . S
C370 C366 1.390 . S
C370 C369 1.381 . S
N371 C364 1.286 . S
N371 C367 1.413 . S
H372 C377 0.930 . S
H373 C380 0.930 . S
H374 C382 0.930 . S
H375 C376 1.016 . S
C376 H375 1.016 . S
C376 N383 1.286 . S
C377 H372 0.930 . S
C377 C378 1.397 . S
C377 C379 1.361 . S
C378 C377 1.397 . S
C378 C382 1.390 . S
C379 C377 1.361 . S
C379 C380 1.393 . S
C379 N383 1.413 . S
C380 H373 0.930 . S
C380 C379 1.393 . S
C380 C381 1.399 . S
C381 C380 1.399 . S
C381 C382 1.381 . S
C382 H374 0.930 . S
C382 C378 1.390 . S
C382 C381 1.381 . S
N383 C376 1.286 . S
N383 C379 1.413 . S
Cu384 N385 1.999 . S
Cu384 O390 1.974 1_554 S
Cu384 N395 1.985 . S
Cu384 O404 1.959 . S
N385 Cu384 1.999 . S
N385 C387 1.263 1_554 S
N385 C389 1.389 . S
N386 C387 1.358 . S
N386 C388 1.400 . S
C387 N385 1.263 1_556 S
C387 N386 1.358 . S
C387 H393 0.930 . S
C388 N386 1.400 . S
C388 C389 1.351 1_556 S
C388 H405 0.930 . S
C389 N385 1.389 . S
C389 C388 1.351 1_554 S
C389 H394 0.930 . S
O390 Cu384 1.974 1_556 S
O390 C400 1.282 . S
C391 O392 1.261 . S
C391 O404 1.251 . S
O392 C391 1.261 . S
H393 C387 0.930 . S
H394 C389 0.930 . S
N395 Cu384 1.985 . S
N395 C397 1.335 . S
N395 C398 1.390 . S
N396 C397 1.345 . S
N396 C399 1.336 . S
C397 N395 1.335 . S
C397 N396 1.345 . S
C397 H402 0.930 . S
C398 N395 1.390 . S
C398 C399 1.346 . S
C398 H403 0.930 . S
C399 N396 1.336 . S
C399 C398 1.346 . S
C399 H406 0.929 . S
C400 O390 1.282 . S
C400 O401 1.219 . S
O401 C400 1.219 . S
H402 C397 0.930 . S
H403 C398 0.930 . S
O404 Cu384 1.959 . S
O404 C391 1.251 . S
H405 C388 0.930 . S
H406 C399 0.929 . S
Cu407 N408 1.999 . S
Cu407 O413 1.974 . S
Cu407 N418 1.985 1_554 S
Cu407 O427 1.959 1_554 S
N408 Cu407 1.999 . S
N408 C410 1.263 . S
N408 C412 1.389 . S
N409 C410 1.358 . S
N409 C411 1.400 . S
C410 N408 1.263 . S
C410 N409 1.358 . S
C410 H416 0.930 . S
C411 N409 1.400 . S
C411 C412 1.351 . S
C411 H428 0.930 . S
C412 N408 1.389 . S
C412 C411 1.351 . S
C412 H417 0.930 . S
O413 Cu407 1.974 . S
O413 C423 1.282 . S
C414 O415 1.261 . S
C414 O427 1.251 . S
O415 C414 1.261 . S
H416 C410 0.930 . S
H417 C412 0.930 . S
N418 Cu407 1.985 1_556 S
N418 C420 1.335 . S
N418 C421 1.390 . S
N419 C420 1.345 . S
N419 C422 1.336 . S
C420 N418 1.335 . S
C420 N419 1.345 . S
C420 H425 0.930 . S
C421 N418 1.390 . S
C421 C422 1.346 . S
C421 H426 0.930 1_556 S
C422 N419 1.336 . S
C422 C421 1.346 . S
C422 H429 0.929 . S
C423 O413 1.282 . S
C423 O424 1.216 . S
O424 C423 1.216 . S
H425 C420 0.930 . S
H426 C421 0.930 1_554 S
O427 Cu407 1.959 1_556 S
O427 C414 1.251 . S
H428 C411 0.930 . S
H429 C422 0.929 . S
Cu430 N431 1.999 1_554 S
Cu430 O436 1.974 1_554 S
Cu430 N441 1.985 . S
Cu430 O450 1.959 . S
N431 Cu430 1.999 1_556 S
N431 C433 1.263 . S
N431 C435 1.389 . S
N432 C433 1.358 . S
N432 C434 1.400 . S
C433 N431 1.263 . S
C433 N432 1.358 . S
C433 H439 0.930 . S
C434 N432 1.400 . S
C434 C435 1.351 . S
C434 H451 0.930 . S
C435 N431 1.389 . S
C435 C434 1.351 . S
C435 H440 0.936 . S
O436 Cu430 1.974 1_556 S
O436 C446 1.282 . S
C437 O438 1.261 . S
C437 O450 1.251 . S
O438 C437 1.261 . S
H439 C433 0.930 . S
H440 C435 0.936 . S
N441 Cu430 1.985 . S
N441 C443 1.335 . S
N441 C444 1.390 . S
N442 C443 1.345 . S
N442 C445 1.336 . S
C443 N441 1.335 . S
C443 N442 1.345 . S
C443 H448 0.930 . S
C444 N441 1.390 . S
C444 C445 1.346 . S
C444 H449 0.930 . S
C445 N442 1.336 . S
C445 C444 1.346 . S
C445 H452 0.929 . S
C446 O436 1.282 . S
C446 O447 1.216 . S
O447 C446 1.216 . S
H448 C443 0.930 . S
H449 C444 0.930 . S
O450 Cu430 1.959 . S
O450 C437 1.251 . S
H451 C434 0.930 . S
H452 C445 0.929 . S
Cu453 N454 1.999 1_556 S
Cu453 O459 1.974 1_556 S
Cu453 N464 1.985 . S
Cu453 O473 1.959 . S
N454 Cu453 1.999 1_554 S
N454 C456 1.263 . S
N454 C458 1.389 . S
N455 C456 1.358 . S
N455 C457 1.400 . S
C456 N454 1.263 . S
C456 N455 1.358 . S
C456 H462 0.930 . S
C457 N455 1.400 . S
C457 C458 1.351 . S
C457 H474 0.930 . S
C458 N454 1.389 . S
C458 C457 1.351 . S
C458 H463 0.930 . S
O459 Cu453 1.974 1_554 S
O459 C469 1.282 . S
C460 O461 1.261 . S
C460 O473 1.251 . S
O461 C460 1.261 . S
H462 C456 0.930 . S
H463 C458 0.930 . S
N464 Cu453 1.985 . S
N464 C466 1.335 . S
N464 C467 1.390 . S
N465 C466 1.345 . S
N465 C468 1.336 . S
C466 N464 1.335 . S
C466 N465 1.345 . S
C466 H471 0.930 . S
C467 N464 1.390 . S
C467 C468 1.346 . S
C467 H472 0.930 . S
C468 N465 1.336 . S
C468 C467 1.346 . S
C468 H475 0.929 . S
C469 O459 1.282 . S
C469 O470 1.216 . S
O470 C469 1.216 . S
H471 C466 0.930 . S
H472 C467 0.930 . S
O473 Cu453 1.959 . S
O473 C460 1.251 . S
H474 C457 0.930 . S
H475 C468 0.929 . S
Cu476 N477 1.999 . S
Cu476 O482 1.974 . S
Cu476 N487 1.985 . S
Cu476 O496 1.959 . S
N477 Cu476 1.999 . S
N477 C479 1.263 . S
N477 C481 1.389 . S
N478 C479 1.358 . S
N478 C480 1.400 . S
C479 N477 1.263 . S
C479 N478 1.358 . S
C479 H485 0.930 . S
C480 N478 1.400 . S
C480 C481 1.351 . S
C480 H497 0.930 . S
C481 N477 1.389 . S
C481 C480 1.351 . S
C481 H486 0.930 . S
O482 Cu476 1.974 . S
O482 C492 1.282 . S
C483 O484 1.261 . S
C483 O496 1.251 1_655 S
O484 C483 1.261 . S
H485 C479 0.930 . S
H486 C481 0.930 . S
N487 Cu476 1.985 . S
N487 C489 1.335 1_455 S
N487 C490 1.390 . S
N488 C489 1.345 . S
N488 C491 1.336 . S
C489 N487 1.335 1_655 S
C489 N488 1.345 . S
C489 H494 0.930 . S
C490 N487 1.390 . S
C490 C491 1.346 1_455 S
C490 H495 0.930 . S
C491 N488 1.336 . S
C491 C490 1.346 1_655 S
C491 H498 0.929 . S
C492 O482 1.282 . S
C492 O493 1.216 . S
O493 C492 1.216 . S
H494 C489 0.930 . S
H495 C490 0.930 . S
O496 Cu476 1.959 . S
O496 C483 1.251 1_455 S
H497 C480 0.930 . S
H498 C491 0.929 . S
Cu499 N500 1.999 . S
Cu499 O505 1.974 . S
Cu499 N510 1.992 . S
Cu499 O519 1.959 1_545 S
N500 Cu499 1.999 . S
N500 C502 1.263 . S
N500 C504 1.389 . S
N501 C502 1.358 . S
N501 C503 1.400 . S
C502 N500 1.263 . S
C502 N501 1.358 . S
C502 H508 0.930 . S
C503 N501 1.400 . S
C503 C504 1.351 . S
C503 H520 0.930 . S
C504 N500 1.389 . S
C504 C503 1.351 . S
C504 H509 0.930 . S
O505 Cu499 1.974 . S
O505 C515 1.282 . S
C506 O507 1.261 1_565 S
C506 O519 1.251 . S
O507 C506 1.261 1_545 S
H508 C502 0.930 . S
H509 C504 0.930 . S
N510 Cu499 1.992 . S
N510 C512 1.324 1_545 S
N510 C513 1.393 . S
N511 C512 1.345 . S
N511 C514 1.336 . S
C512 N510 1.324 1_565 S
C512 N511 1.345 . S
C512 H517 0.930 . S
C513 N510 1.393 . S
C513 C514 1.346 1_545 S
C513 H518 0.930 . S
C514 N511 1.336 . S
C514 C513 1.346 1_565 S
C514 H521 0.929 . S
C515 O505 1.282 . S
C515 O516 1.216 . S
O516 C515 1.216 . S
H517 C512 0.930 . S
H518 C513 0.930 . S
O519 Cu499 1.959 1_565 S
O519 C506 1.251 . S
H520 C503 0.930 . S
H521 C514 0.929 . S
Cu522 N523 1.999 . S
Cu522 O528 1.974 . S
Cu522 N533 1.985 1_655 S
Cu522 O542 1.959 1_655 S
N523 Cu522 1.999 . S
N523 C525 1.263 . S
N523 C527 1.389 . S
N524 C525 1.358 . S
N524 C526 1.400 . S
C525 N523 1.263 . S
C525 N524 1.358 . S
C525 H531 0.930 . S
C526 N524 1.400 . S
C526 C527 1.351 . S
C526 H543 0.930 . S
C527 N523 1.389 . S
C527 C526 1.351 . S
C527 H532 0.930 1_655 S
O528 Cu522 1.974 . S
O528 C538 1.282 . S
C529 O530 1.261 . S
C529 O542 1.251 . S
O530 C529 1.261 . S
H531 C525 0.930 . S
H532 C527 0.930 1_455 S
N533 Cu522 1.985 1_455 S
N533 C535 1.335 . S
N533 C536 1.390 . S
N534 C535 1.345 . S
N534 C537 1.336 . S
C535 N533 1.335 . S
C535 N534 1.345 . S
C535 H540 0.930 . S
C536 N533 1.390 . S
C536 C537 1.346 . S
C536 H541 0.930 1_455 S
C537 N534 1.336 . S
C537 C536 1.346 . S
C537 H544 0.929 . S
C538 O528 1.282 . S
C538 O539 1.216 . S
O539 C538 1.216 . S
H540 C535 0.930 . S
H541 C536 0.930 1_655 S
O542 Cu522 1.959 1_455 S
O542 C529 1.251 . S
H543 C526 0.930 . S
H544 C537 0.929 . S
Cu545 N546 2.032 . S
Cu545 O551 2.012 . S
Cu545 N556 1.954 1_545 S
Cu545 O565 1.922 1_545 S
N546 Cu545 2.032 . S
N546 C548 1.263 . S
N546 C550 1.389 . S
N547 C548 1.358 . S
N547 C549 1.400 . S
C548 N546 1.263 . S
C548 N547 1.358 . S
C548 H554 0.930 . S
C549 N547 1.400 . S
C549 C550 1.351 . S
C549 H566 0.930 . S
C550 N546 1.389 . S
C550 C549 1.351 . S
C550 H555 0.930 . S
O551 Cu545 2.012 . S
O551 C561 1.282 . S
C552 O553 1.261 . S
C552 O565 1.251 . S
O553 C552 1.261 . S
H554 C548 0.930 . S
H555 C550 0.930 . S
N556 Cu545 1.954 1_565 S
N556 C558 1.335 . S
N556 C559 1.390 . S
N557 C558 1.345 . S
N557 C560 1.336 . S
C558 N556 1.335 . S
C558 N557 1.345 . S
C558 H563 0.930 . S
C559 N556 1.390 . S
C559 C560 1.346 . S
C559 H564 0.930 . S
C560 N557 1.336 . S
C560 C559 1.346 . S
C560 H567 0.929 . S
C561 O551 1.282 . S
C561 O562 1.216 . S
O562 C561 1.216 . S
H563 C558 0.930 . S
H564 C559 0.930 . S
O565 Cu545 1.922 1_565 S
O565 C552 1.251 . S
H566 C549 0.930 . S
H567 C560 0.929 . S
Cu568 N569 1.999 . S
Cu568 O574 1.974 . S
Cu568 N579 1.985 . S
Cu568 O588 1.959 . S
N569 Cu568 1.999 . S
N569 C571 1.263 . S
N569 C573 1.389 . S
N570 C571 1.358 . S
N570 C572 1.400 . S
C571 N569 1.263 . S
C571 N570 1.358 . S
C571 H577 0.930 . S
C572 N570 1.400 . S
C572 C573 1.351 . S
C572 H589 0.930 . S
C573 N569 1.389 . S
C573 C572 1.351 . S
C573 H578 0.930 . S
O574 Cu568 1.974 . S
O574 C584 1.282 . S
C575 O576 1.261 . S
C575 O588 1.251 1_655 S
O576 C575 1.261 . S
H577 C571 0.930 . S
H578 C573 0.930 . S
N579 Cu568 1.985 . S
N579 C581 1.335 1_455 S
N579 C582 1.390 . S
N580 C581 1.345 . S
N580 C583 1.336 . S
C581 N579 1.335 1_655 S
C581 N580 1.345 . S
C581 H586 0.930 . S
C582 N579 1.390 . S
C582 C583 1.346 1_455 S
C582 H587 0.930 . S
C583 N580 1.336 . S
C583 C582 1.346 1_655 S
C583 H590 0.929 . S
C584 O574 1.282 . S
C584 O585 1.216 . S
O585 C584 1.216 . S
H586 C581 0.930 . S
H587 C582 0.930 . S
O588 Cu568 1.959 . S
O588 C575 1.251 1_455 S
H589 C572 0.930 . S
H590 C583 0.929 . S
Cu591 N592 1.999 . S
Cu591 O597 1.974 . S
Cu591 N602 1.985 . S
Cu591 O611 1.959 . S
N592 Cu591 1.999 . S
N592 C594 1.263 . S
N592 C596 1.389 . S
N593 C594 1.358 . S
N593 C595 1.400 . S
C594 N592 1.263 . S
C594 N593 1.358 . S
C594 H600 0.930 . S
C595 N593 1.400 . S
C595 C596 1.351 . S
C595 H612 0.930 . S
C596 N592 1.389 . S
C596 C595 1.351 . S
C596 H601 0.930 . S
O597 Cu591 1.974 . S
O597 C607 1.282 . S
C598 O599 1.261 . S
C598 O611 1.251 . S
O599 C598 1.261 . S
H600 C594 0.930 . S
H601 C596 0.930 . S
N602 Cu591 1.985 . S
N602 C604 1.335 1_545 S
N602 C605 1.390 . S
N603 C604 1.345 . S
N603 C606 1.336 . S
C604 N602 1.335 1_565 S
C604 N603 1.345 . S
C604 H609 0.930 . S
C605 N602 1.390 . S
C605 C606 1.346 1_545 S
C605 H610 0.930 . S
C606 N603 1.336 . S
C606 C605 1.346 1_565 S
C606 H613 0.929 . S
C607 O597 1.282 . S
C607 O608 1.216 . S
O608 C607 1.216 . S
H609 C604 0.930 . S
H610 C605 0.930 . S
O611 Cu591 1.959 . S
O611 C598 1.251 . S
H612 C595 0.930 . S
H613 C606 0.929 . S
Cu614 N615 1.999 . S
Cu614 O620 1.974 . S
Cu614 N625 1.985 . S
Cu614 O634 1.959 . S
N615 Cu614 1.999 . S
N615 C617 1.263 . S
N615 C619 1.389 . S
N616 C617 1.358 . S
N616 C618 1.400 . S
C617 N615 1.263 . S
C617 N616 1.358 . S
C617 H623 0.930 . S
C618 N616 1.400 . S
C618 C619 1.351 . S
C618 H635 0.930 . S
C619 N615 1.389 . S
C619 C618 1.351 . S
C619 H624 0.930 . S
O620 Cu614 1.974 . S
O620 C630 1.282 . S
C621 O622 1.261 . S
C621 O634 1.251 . S
O622 C621 1.261 . S
H623 C617 0.930 . S
H624 C619 0.930 . S
N625 Cu614 1.985 . S
N625 C627 1.335 . S
N625 C628 1.390 . S
N626 C627 1.345 . S
N626 C629 1.336 . S
C627 N625 1.335 . S
C627 N626 1.345 . S
C627 H632 0.930 . S
C628 N625 1.390 . S
C628 C629 1.346 . S
C628 H633 0.930 . S
C629 N626 1.336 . S
C629 C628 1.346 . S
C629 H636 0.929 . S
C630 O620 1.282 . S
C630 O631 1.216 . S
O631 C630 1.216 . S
H632 C627 0.930 . S
H633 C628 0.930 . S
O634 Cu614 1.959 . S
O634 C621 1.251 . S
H635 C618 0.930 . S
H636 C629 0.929 . S
Cu637 N638 1.999 . S
Cu637 O643 1.974 . S
Cu637 N648 1.985 . S
Cu637 O657 1.959 . S
N638 Cu637 1.999 . S
N638 C640 1.263 . S
N638 C642 1.389 . S
N639 C640 1.358 . S
N639 C641 1.400 . S
C640 N638 1.263 . S
C640 N639 1.358 . S
C640 H646 0.930 . S
C641 N639 1.400 . S
C641 C642 1.351 . S
C641 H658 0.930 . S
C642 N638 1.389 . S
C642 C641 1.351 . S
C642 H647 0.930 . S
O643 Cu637 1.974 . S
O643 C653 1.282 . S
C644 O645 1.261 . S
C644 O657 1.251 . S
O645 C644 1.261 . S
H646 C640 0.930 . S
H647 C642 0.930 . S
N648 Cu637 1.985 . S
N648 C650 1.335 1_545 S
N648 C651 1.390 . S
N649 C650 1.345 . S
N649 C652 1.336 . S
C650 N648 1.335 1_565 S
C650 N649 1.345 . S
C650 H655 0.930 . S
C651 N648 1.390 . S
C651 C652 1.346 1_545 S
C651 H656 0.930 . S
C652 N649 1.336 . S
C652 C651 1.346 1_565 S
C652 H659 0.929 . S
C653 O643 1.282 . S
C653 O654 1.216 . S
O654 C653 1.216 . S
H655 C650 0.930 . S
H656 C651 0.930 . S
O657 Cu637 1.959 . S
O657 C644 1.251 . S
H658 C641 0.930 . S
H659 C652 0.929 . S
Cu660 N661 1.999 . S
Cu660 O666 1.974 . S
Cu660 N671 1.985 . S
Cu660 O680 1.959 . S
N661 Cu660 1.999 . S
N661 C663 1.263 . S
N661 C665 1.389 . S
N662 C663 1.358 . S
N662 C664 1.400 . S
C663 N661 1.263 . S
C663 N662 1.358 . S
C663 H669 0.930 . S
C664 N662 1.400 . S
C664 C665 1.351 . S
C664 H681 0.930 . S
C665 N661 1.389 . S
C665 C664 1.351 . S
C665 H670 0.930 . S
O666 Cu660 1.974 . S
O666 C676 1.282 . S
C667 O668 1.261 . S
C667 O680 1.251 . S
O668 C667 1.261 . S
H669 C663 0.930 . S
H670 C665 0.930 . S
N671 Cu660 1.985 . S
N671 C673 1.335 . S
N671 C674 1.390 . S
N672 C673 1.345 . S
N672 C675 1.336 . S
C673 N671 1.335 . S
C673 N672 1.345 . S
C673 H678 0.930 . S
C674 N671 1.390 . S
C674 C675 1.346 . S
C674 H679 0.930 . S
C675 N672 1.336 . S
C675 C674 1.346 . S
C675 H682 0.929 . S
C676 O666 1.282 . S
C676 O677 1.216 . S
O677 C676 1.216 . S
H678 C673 0.930 . S
H679 C674 0.930 . S
O680 Cu660 1.959 . S
O680 C667 1.251 . S
H681 C664 0.930 . S
H682 C675 0.929 . S
Cu683 N684 1.999 . S
Cu683 O689 1.974 . S
Cu683 N694 1.985 . S
Cu683 O703 1.959 . S
N684 Cu683 1.999 . S
N684 C686 1.263 . S
N684 C688 1.389 . S
N685 C686 1.358 . S
N685 C687 1.400 . S
C686 N684 1.263 . S
C686 N685 1.358 . S
C686 H692 0.930 . S
C687 N685 1.400 . S
C687 C688 1.351 . S
C687 H704 0.930 . S
C688 N684 1.389 . S
C688 C687 1.351 . S
C688 H693 0.930 . S
O689 Cu683 1.974 . S
O689 C699 1.282 . S
C690 O691 1.261 . S
C690 O703 1.251 . S
O691 C690 1.261 . S
H692 C686 0.930 . S
H693 C688 0.930 . S
N694 Cu683 1.985 . S
N694 C696 1.335 . S
N694 C697 1.390 . S
N695 C696 1.345 . S
N695 C698 1.336 . S
C696 N694 1.335 . S
C696 N695 1.345 . S
C696 H701 0.930 . S
C697 N694 1.390 . S
C697 C698 1.346 . S
C697 H702 0.930 . S
C698 N695 1.336 . S
C698 C697 1.346 . S
C698 H705 0.929 . S
C699 O689 1.282 . S
C699 O700 1.216 . S
O700 C699 1.216 . S
H701 C696 0.930 . S
H702 C697 0.930 . S
O703 Cu683 1.959 . S
O703 C690 1.251 . S
H704 C687 0.930 . S
H705 C698 0.929 . S
Cu706 N707 1.999 . S
Cu706 O712 1.974 . S
Cu706 N717 1.985 . S
Cu706 O726 1.959 . S
N707 Cu706 1.999 . S
N707 C709 1.263 . S
N707 C711 1.389 . S
N708 C709 1.358 . S
N708 C710 1.400 . S
C709 N707 1.263 . S
C709 N708 1.358 . S
C709 H715 0.930 . S
C710 N708 1.400 . S
C710 C711 1.351 . S
C710 H727 0.930 . S
C711 N707 1.389 . S
C711 C710 1.351 . S
C711 H716 0.930 . S
O712 Cu706 1.974 . S
O712 C722 1.282 . S
C713 O714 1.261 . S
C713 O726 1.251 . S
O714 C713 1.261 . S
H715 C709 0.930 . S
H716 C711 0.930 . S
N717 Cu706 1.985 . S
N717 C719 1.335 . S
N717 C720 1.390 . S
N718 C719 1.345 . S
N718 C721 1.336 . S
C719 N717 1.335 . S
C719 N718 1.345 . S
C719 H724 0.930 . S
C720 N717 1.390 . S
C720 C721 1.346 . S
C720 H725 0.930 . S
C721 N718 1.336 . S
C721 C720 1.346 . S
C721 H728 0.929 . S
C722 O712 1.282 . S
C722 O723 1.216 . S
O723 C722 1.216 . S
H724 C719 0.930 . S
H725 C720 0.930 . S
O726 Cu706 1.959 . S
O726 C713 1.251 . S
H727 C710 0.930 . S
H728 C721 0.929 . S
Cu729 N730 1.999 . S
Cu729 O735 1.974 . S
Cu729 N740 1.985 . S
Cu729 O749 1.959 . S
N730 Cu729 1.999 . S
N730 C732 1.263 . S
N730 C734 1.389 . S
N731 C732 1.358 . S
N731 C733 1.400 . S
C732 N730 1.263 . S
C732 N731 1.358 . S
C732 H738 0.930 . S
C733 N731 1.400 . S
C733 C734 1.351 . S
C733 H750 0.930 . S
C734 N730 1.389 . S
C734 C733 1.351 . S
C734 H739 0.930 . S
O735 Cu729 1.974 . S
O735 C745 1.282 . S
C736 O737 1.261 . S
C736 O749 1.251 . S
O737 C736 1.261 . S
H738 C732 0.930 . S
H739 C734 0.930 . S
N740 Cu729 1.985 . S
N740 C742 1.335 . S
N740 C743 1.390 . S
N741 C742 1.345 . S
N741 C744 1.336 . S
C742 N740 1.335 . S
C742 N741 1.345 . S
C742 H747 0.930 . S
C743 N740 1.390 . S
C743 C744 1.346 . S
C743 H748 0.930 . S
C744 N741 1.336 . S
C744 C743 1.346 . S
C744 H751 0.929 . S
C745 O735 1.282 . S
C745 O746 1.216 . S
O746 C745 1.216 . S
H747 C742 0.930 . S
H748 C743 0.930 . S
O749 Cu729 1.959 . S
O749 C736 1.251 . S
H750 C733 0.930 . S
H751 C744 0.929 . S
Cu752 N753 1.999 . S
Cu752 O758 1.974 . S
Cu752 N763 1.985 . S
Cu752 O772 1.959 . S
N753 Cu752 1.999 . S
N753 C755 1.263 . S
N753 C757 1.389 . S
N754 C755 1.358 . S
N754 C756 1.400 . S
C755 N753 1.263 . S
C755 N754 1.358 . S
C755 H761 0.930 . S
C756 N754 1.400 . S
C756 C757 1.351 . S
C756 H773 0.930 . S
C757 N753 1.389 . S
C757 C756 1.351 . S
C757 H762 0.930 . S
O758 Cu752 1.974 . S
O758 C768 1.282 . S
C759 O760 1.261 . S
C759 O772 1.251 . S
O760 C759 1.261 . S
H761 C755 0.930 . S
H762 C757 0.930 . S
N763 Cu752 1.985 . S
N763 C765 1.335 . S
N763 C766 1.390 . S
N764 C765 1.345 . S
N764 C767 1.336 . S
C765 N763 1.335 . S
C765 N764 1.345 . S
C765 H770 0.930 . S
C766 N763 1.390 . S
C766 C767 1.346 . S
C766 H771 0.930 . S
C767 N764 1.336 . S
C767 C766 1.346 . S
C767 H774 0.929 . S
C768 O758 1.282 . S
C768 O769 1.216 . S
O769 C768 1.216 . S
H770 C765 0.930 . S
H771 C766 0.930 . S
O772 Cu752 1.959 . S
O772 C759 1.251 . S
H773 C756 0.930 . S
H774 C767 0.929 . S
Cu775 N776 1.999 . S
Cu775 O781 1.974 . S
Cu775 N786 1.985 . S
Cu775 O795 1.959 . S
N776 Cu775 1.999 . S
N776 C778 1.263 . S
N776 C780 1.389 . S
N777 C778 1.358 . S
N777 C779 1.400 . S
C778 N776 1.263 . S
C778 N777 1.358 . S
C778 H784 0.930 . S
C779 N777 1.400 . S
C779 C780 1.351 . S
C779 H796 0.930 . S
C780 N776 1.389 . S
C780 C779 1.351 . S
C780 H785 0.930 . S
O781 Cu775 1.974 . S
O781 C791 1.282 . S
C782 O783 1.261 . S
C782 O795 1.251 . S
O783 C782 1.261 . S
H784 C778 0.930 . S
H785 C780 0.930 . S
N786 Cu775 1.985 . S
N786 C788 1.335 . S
N786 C789 1.390 . S
N787 C788 1.345 . S
N787 C790 1.336 . S
C788 N786 1.335 . S
C788 N787 1.345 . S
C788 H793 0.930 . S
C789 N786 1.390 . S
C789 C790 1.346 . S
C789 H794 0.930 . S
C790 N787 1.336 . S
C790 C789 1.346 . S
C790 H797 0.929 . S
C791 O781 1.282 . S
C791 O792 1.216 . S
O792 C791 1.216 . S
H793 C788 0.930 . S
H794 C789 0.930 . S
O795 Cu775 1.959 . S
O795 C782 1.251 . S
H796 C779 0.930 . S
H797 C790 0.929 . S
Cu798 N799 1.999 . S
Cu798 O804 1.974 . S
Cu798 N809 1.985 . S
Cu798 O818 1.959 . S
N799 Cu798 1.999 . S
N799 C801 1.263 . S
N799 C803 1.389 . S
N800 C801 1.358 . S
N800 C802 1.400 . S
C801 N799 1.263 . S
C801 N800 1.358 . S
C801 H807 0.930 . S
C802 N800 1.400 . S
C802 C803 1.351 . S
C802 H819 0.930 . S
C803 N799 1.389 . S
C803 C802 1.351 . S
C803 H808 0.930 . S
O804 Cu798 1.974 . S
O804 C814 1.282 . S
C805 O806 1.261 . S
C805 O818 1.251 . S
O806 C805 1.261 . S
H807 C801 0.930 . S
H808 C803 0.930 . S
N809 Cu798 1.985 . S
N809 C811 1.335 . S
N809 C812 1.390 . S
N810 C811 1.345 . S
N810 C813 1.336 . S
C811 N809 1.335 . S
C811 N810 1.345 . S
C811 H816 0.930 . S
C812 N809 1.390 . S
C812 C813 1.346 . S
C812 H817 0.930 . S
C813 N810 1.336 . S
C813 C812 1.346 . S
C813 H820 0.929 . S
C814 O804 1.282 . S
C814 O815 1.216 . S
O815 C814 1.216 . S
H816 C811 0.930 . S
H817 C812 0.930 . S
O818 Cu798 1.959 . S
O818 C805 1.251 . S
H819 C802 0.930 . S
H820 C813 0.929 . S
Cu821 N822 1.999 . S
Cu821 O827 1.974 . S
Cu821 N832 1.985 . S
Cu821 O841 1.959 . S
N822 Cu821 1.999 . S
N822 C824 1.263 . S
N822 C826 1.389 . S
N823 C824 1.358 . S
N823 C825 1.400 . S
C824 N822 1.263 . S
C824 N823 1.358 . S
C824 H830 0.930 . S
C825 N823 1.400 . S
C825 C826 1.351 . S
C825 H842 0.930 . S
C826 N822 1.389 . S
C826 C825 1.351 . S
C826 H831 0.930 . S
O827 Cu821 1.974 . S
O827 C837 1.282 . S
C828 O829 1.261 . S
C828 O841 1.251 . S
O829 C828 1.261 . S
H830 C824 0.930 . S
H831 C826 0.930 . S
N832 Cu821 1.985 . S
N832 C834 1.335 . S
N832 C835 1.390 . S
N833 C834 1.345 . S
N833 C836 1.336 . S
C834 N832 1.335 . S
C834 N833 1.345 . S
C834 H839 0.930 . S
C835 N832 1.390 . S
C835 C836 1.346 . S
C835 H840 0.930 . S
C836 N833 1.336 . S
C836 C835 1.346 . S
C836 H843 0.929 . S
C837 O827 1.282 . S
C837 O838 1.216 . S
O838 C837 1.216 . S
H839 C834 0.930 . S
H840 C835 0.930 . S
O841 Cu821 1.959 . S
O841 C828 1.251 . S
H842 C825 0.930 . S
H843 C836 0.929 . S
Cu844 N845 1.999 . S
Cu844 O850 1.974 . S
Cu844 N855 1.985 . S
Cu844 O864 1.959 . S
N845 Cu844 1.999 . S
N845 C847 1.263 . S
N845 C849 1.389 . S
N846 C847 1.358 . S
N846 C848 1.400 . S
C847 N845 1.263 . S
C847 N846 1.358 . S
C847 H853 0.930 . S
C848 N846 1.400 . S
C848 C849 1.351 . S
C848 H865 0.930 . S
C849 N845 1.389 . S
C849 C848 1.351 . S
C849 H854 0.930 . S
O850 Cu844 1.974 . S
O850 C860 1.282 . S
C851 O852 1.261 . S
C851 O864 1.251 . S
O852 C851 1.261 . S
H853 C847 0.930 . S
H854 C849 0.930 . S
N855 Cu844 1.985 . S
N855 C857 1.335 . S
N855 C858 1.390 . S
N856 C857 1.345 . S
N856 C859 1.336 . S
C857 N855 1.335 . S
C857 N856 1.345 . S
C857 H862 0.930 . S
C858 N855 1.390 . S
C858 C859 1.346 . S
C858 H863 0.930 . S
C859 N856 1.336 . S
C859 C858 1.346 . S
C859 H866 0.929 . S
C860 O850 1.282 . S
C860 O861 1.216 . S
O861 C860 1.216 . S
H862 C857 0.930 . S
H863 C858 0.930 . S
O864 Cu844 1.959 . S
O864 C851 1.251 . S
H865 C848 0.930 . S
H866 C859 0.929 . S
Cu867 N868 1.999 . S
Cu867 O873 1.974 . S
Cu867 N878 1.985 . S
Cu867 O887 1.959 . S
N868 Cu867 1.999 . S
N868 C870 1.263 . S
N868 C872 1.389 . S
N869 C870 1.358 . S
N869 C871 1.400 . S
C870 N868 1.263 . S
C870 N869 1.358 . S
C870 H876 0.930 . S
C871 N869 1.400 . S
C871 C872 1.351 . S
C871 H888 0.930 . S
C872 N868 1.389 . S
C872 C871 1.351 . S
C872 H877 0.930 . S
O873 Cu867 1.974 . S
O873 C883 1.282 . S
C874 O875 1.261 . S
C874 O887 1.251 . S
O875 C874 1.261 . S
H876 C870 0.930 . S
H877 C872 0.930 . S
N878 Cu867 1.985 . S
N878 C880 1.335 . S
N878 C881 1.390 . S
N879 C880 1.345 . S
N879 C882 1.336 . S
C880 N878 1.335 . S
C880 N879 1.345 . S
C880 H885 0.930 . S
C881 N878 1.390 . S
C881 C882 1.346 . S
C881 H886 0.930 . S
C882 N879 1.336 . S
C882 C881 1.346 . S
C882 H889 0.929 . S
C883 O873 1.282 . S
C883 O884 1.216 . S
O884 C883 1.216 . S
H885 C880 0.930 . S
H886 C881 0.930 . S
O887 Cu867 1.959 . S
O887 C874 1.251 . S
H888 C871 0.930 . S
H889 C882 0.929 . S
Cu890 N891 1.999 . S
Cu890 O896 1.974 . S
Cu890 N901 1.985 . S
Cu890 O910 1.959 . S
N891 Cu890 1.999 . S
N891 C893 1.263 . S
N891 C895 1.389 . S
N892 C893 1.358 . S
N892 C894 1.400 . S
C893 N891 1.263 . S
C893 N892 1.358 . S
C893 H899 0.930 . S
C894 N892 1.400 . S
C894 C895 1.351 . S
C894 H911 0.930 . S
C895 N891 1.389 . S
C895 C894 1.351 . S
C895 H900 0.930 . S
O896 Cu890 1.974 . S
O896 C906 1.282 . S
C897 O898 1.261 . S
C897 O910 1.251 . S
O898 C897 1.261 . S
H899 C893 0.930 . S
H900 C895 0.930 . S
N901 Cu890 1.985 . S
N901 C903 1.335 . S
N901 C904 1.390 . S
N902 C903 1.345 . S
N902 C905 1.336 . S
C903 N901 1.335 . S
C903 N902 1.345 . S
C903 H908 0.930 . S
C904 N901 1.390 . S
C904 C905 1.346 . S
C904 H909 0.930 . S
C905 N902 1.336 . S
C905 C904 1.346 . S
C905 H912 0.929 . S
C906 O896 1.282 . S
C906 O907 1.216 . S
O907 C906 1.216 . S
H908 C903 0.930 . S
H909 C904 0.930 . S
O910 Cu890 1.959 . S
O910 C897 1.251 . S
H911 C894 0.930 . S
H912 C905 0.929 . S
Cu913 N914 1.999 . S
Cu913 O919 1.974 . S
Cu913 N924 1.985 . S
Cu913 O933 1.959 . S
N914 Cu913 1.999 . S
N914 C916 1.263 . S
N914 C918 1.389 . S
N915 C916 1.358 . S
N915 C917 1.400 . S
C916 N914 1.263 . S
C916 N915 1.358 . S
C916 H922 0.930 . S
C917 N915 1.400 . S
C917 C918 1.351 . S
C917 H934 0.930 . S
C918 N914 1.389 . S
C918 C917 1.351 . S
C918 H923 0.930 . S
O919 Cu913 1.974 . S
O919 C929 1.282 . S
C920 O921 1.261 . S
C920 O933 1.251 . S
O921 C920 1.261 . S
H922 C916 0.930 . S
H923 C918 0.930 . S
N924 Cu913 1.985 . S
N924 C926 1.335 . S
N924 C927 1.390 . S
N925 C926 1.345 . S
N925 C928 1.336 . S
C926 N924 1.335 . S
C926 N925 1.345 . S
C926 H931 0.930 . S
C927 N924 1.390 . S
C927 C928 1.346 . S
C927 H932 0.930 . S
C928 N925 1.336 . S
C928 C927 1.346 . S
C928 H935 0.929 . S
C929 O919 1.282 . S
C929 O930 1.216 . S
O930 C929 1.216 . S
H931 C926 0.930 . S
H932 C927 0.930 . S
O933 Cu913 1.959 . S
O933 C920 1.251 . S
H934 C917 0.930 . S
H935 C928 0.929 . S
H936 C942 0.930 . S
H937 C945 0.930 . S
H938 C946 0.930 . S
H939 C947 0.930 . S
H940 C950 0.930 . S
H941 C951 0.930 . S
C942 H936 0.930 . S
C942 C943 1.355 . S
C942 C944 1.415 . S
C943 C942 1.355 . S
C943 C945 1.419 . S
C944 C942 1.415 . S
C944 C949 1.425 . S
C944 C951 1.409 . S
C945 H937 0.930 . S
C945 C943 1.419 . S
C945 C946 1.362 . S
C946 H938 0.930 . S
C946 C945 1.362 . S
C946 C949 1.409 . S
C947 H939 0.930 . S
C947 C948 1.355 . S
C947 C949 1.415 . S
C948 C947 1.355 . S
C948 C950 1.419 . S
C949 C944 1.425 . S
C949 C946 1.409 . S
C949 C947 1.415 . S
C950 H940 0.930 . S
C950 C948 1.419 . S
C950 C951 1.362 . S
C951 H941 0.930 . S
C951 C944 1.409 . S
C951 C950 1.362 . S
H952 C958 0.930 . S
H953 C961 0.930 . S
H954 C962 0.930 . S
H955 C963 0.930 . S
H956 C966 0.930 . S
H957 C967 0.930 . S
C958 H952 0.930 . S
C958 C959 1.355 . S
C958 C960 1.415 . S
C959 C958 1.355 . S
C959 C961 1.419 . S
C960 C958 1.415 . S
C960 C965 1.425 . S
C960 C967 1.409 . S
C961 H953 0.930 . S
C961 C959 1.419 . S
C961 C962 1.362 . S
C962 H954 0.930 . S
C962 C961 1.362 . S
C962 C965 1.409 . S
C963 H955 0.930 . S
C963 C964 1.355 . S
C963 C965 1.415 . S
C964 C963 1.355 . S
C964 C966 1.419 . S
C965 C960 1.425 . S
C965 C962 1.409 . S
C965 C963 1.415 . S
C966 H956 0.930 . S
C966 C964 1.419 . S
C966 C967 1.362 . S
C967 H957 0.930 . S
C967 C960 1.409 . S
C967 C966 1.362 . S
H968 C974 0.930 . S
H969 C977 0.930 . S
H970 C978 0.930 . S
H971 C979 0.930 . S
H972 C982 0.930 . S
H973 C983 0.930 . S
C974 H968 0.930 . S
C974 C975 1.355 . S
C974 C976 1.415 . S
C975 C974 1.355 . S
C975 C977 1.419 . S
C976 C974 1.415 . S
C976 C981 1.425 . S
C976 C983 1.409 . S
C977 H969 0.930 . S
C977 C975 1.419 . S
C977 C978 1.362 . S
C978 H970 0.930 . S
C978 C977 1.362 . S
C978 C981 1.409 . S
C979 H971 0.930 . S
C979 C980 1.355 . S
C979 C981 1.415 . S
C980 C979 1.355 . S
C980 C982 1.419 . S
C981 C976 1.425 . S
C981 C978 1.409 . S
C981 C979 1.415 . S
C982 H972 0.930 . S
C982 C980 1.419 . S
C982 C983 1.362 . S
C983 H973 0.930 . S
C983 C976 1.409 . S
C983 C982 1.362 . S
H984 C990 0.930 . S
H985 C993 0.930 . S
H986 C994 0.930 . S
H987 C995 0.930 . S
H988 C998 0.930 . S
H989 C999 0.930 . S
C990 H984 0.930 . S
C990 C991 1.355 . S
C990 C992 1.415 . S
C991 C990 1.355 . S
C991 C993 1.419 . S
C992 C990 1.415 . S
C992 C997 1.425 . S
C992 C999 1.409 . S
C993 H985 0.930 . S
C993 C991 1.419 . S
C993 C994 1.362 . S
C994 H986 0.930 . S
C994 C993 1.362 . S
C994 C997 1.409 . S
C995 H987 0.930 . S
C995 C996 1.355 . S
C995 C997 1.415 . S
C996 C995 1.355 . S
C996 C998 1.419 . S
C997 C992 1.425 . S
C997 C994 1.409 . S
C997 C995 1.415 . S
C998 H988 0.930 . S
C998 C996 1.419 . S
C998 C999 1.362 . S
C999 H989 0.930 . S
C999 C992 1.409 . S
C999 C998 1.362 . S
H1000 C1006 0.930 . S
H1001 C1009 0.930 . S
H1002 C1010 0.930 . S
H1003 C1011 0.930 . S
H1004 C1014 0.930 . S
H1005 C1015 0.930 . S
C1006 H1000 0.930 . S
C1006 C1007 1.355 . S
C1006 C1008 1.415 . S
C1007 C1006 1.355 . S
C1007 C1009 1.419 . S
C1008 C1006 1.415 . S
C1008 C1013 1.425 . S
C1008 C1015 1.409 . S
C1009 H1001 0.930 . S
C1009 C1007 1.419 . S
C1009 C1010 1.362 . S
C1010 H1002 0.930 . S
C1010 C1009 1.362 . S
C1010 C1013 1.409 . S
C1011 H1003 0.930 . S
C1011 C1012 1.355 . S
C1011 C1013 1.415 . S
C1012 C1011 1.355 . S
C1012 C1014 1.419 . S
C1013 C1008 1.425 . S
C1013 C1010 1.409 . S
C1013 C1011 1.415 . S
C1014 H1004 0.930 . S
C1014 C1012 1.419 . S
C1014 C1015 1.362 . S
C1015 H1005 0.930 . S
C1015 C1008 1.409 . S
C1015 C1014 1.362 . S
H1016 C1022 0.930 . S
H1017 C1025 0.930 . S
H1018 C1026 0.930 . S
H1019 C1027 0.930 . S
H1020 C1030 0.930 . S
H1021 C1031 0.930 . S
C1022 H1016 0.930 . S
C1022 C1023 1.355 . S
C1022 C1024 1.415 . S
C1023 C1022 1.355 . S
C1023 C1025 1.419 . S
C1024 C1022 1.415 . S
C1024 C1029 1.425 . S
C1024 C1031 1.409 . S
C1025 H1017 0.930 . S
C1025 C1023 1.419 . S
C1025 C1026 1.362 . S
C1026 H1018 0.930 . S
C1026 C1025 1.362 . S
C1026 C1029 1.409 . S
C1027 H1019 0.930 . S
C1027 C1028 1.355 . S
C1027 C1029 1.415 . S
C1028 C1027 1.355 . S
C1028 C1030 1.419 . S
C1029 C1024 1.425 . S
C1029 C1026 1.409 . S
C1029 C1027 1.415 . S
C1030 H1020 0.930 . S
C1030 C1028 1.419 . S
C1030 C1031 1.362 . S
C1031 H1021 0.930 . S
C1031 C1024 1.409 . S
C1031 C1030 1.362 . S
H1032 C1038 0.930 . S
H1033 C1041 0.930 . S
H1034 C1042 0.930 . S
H1035 C1043 0.930 . S
H1036 C1046 0.930 . S
H1037 C1047 0.930 . S
C1038 H1032 0.930 . S
C1038 C1039 1.355 . S
C1038 C1040 1.415 . S
C1039 C1038 1.355 . S
C1039 C1041 1.419 . S
C1040 C1038 1.415 . S
C1040 C1045 1.425 . S
C1040 C1047 1.409 . S
C1041 H1033 0.930 . S
C1041 C1039 1.419 . S
C1041 C1042 1.362 . S
C1042 H1034 0.930 . S
C1042 C1041 1.362 . S
C1042 C1045 1.409 . S
C1043 H1035 0.930 . S
C1043 C1044 1.355 . S
C1043 C1045 1.415 . S
C1044 C1043 1.355 . S
C1044 C1046 1.419 . S
C1045 C1040 1.425 . S
C1045 C1042 1.409 . S
C1045 C1043 1.415 . S
C1046 H1036 0.930 . S
C1046 C1044 1.419 . S
C1046 C1047 1.362 . S
C1047 H1037 0.930 . S
C1047 C1040 1.409 . S
C1047 C1046 1.362 . S
H1048 C1054 0.930 . S
H1049 C1057 0.930 . S
H1050 C1058 0.930 . S
H1051 C1059 0.930 . S
H1052 C1062 0.930 . S
H1053 C1063 0.930 . S
C1054 H1048 0.930 . S
C1054 C1055 1.355 . S
C1054 C1056 1.415 . S
C1055 C1054 1.355 . S
C1055 C1057 1.419 . S
C1056 C1054 1.415 . S
C1056 C1061 1.425 . S
C1056 C1063 1.409 . S
C1057 H1049 0.930 . S
C1057 C1055 1.419 . S
C1057 C1058 1.362 . S
C1058 H1050 0.930 . S
C1058 C1057 1.362 . S
C1058 C1061 1.409 . S
C1059 H1051 0.930 . S
C1059 C1060 1.355 . S
C1059 C1061 1.415 . S
C1060 C1059 1.355 . S
C1060 C1062 1.419 . S
C1061 C1056 1.425 . S
C1061 C1058 1.409 . S
C1061 C1059 1.415 . S
C1062 H1052 0.930 . S
C1062 C1060 1.419 . S
C1062 C1063 1.362 . S
C1063 H1053 0.930 . S
C1063 C1056 1.409 . S
C1063 C1062 1.362 . S
H1064 C1070 0.930 . S
H1065 C1073 0.930 . S
H1066 C1074 0.930 . S
H1067 C1075 0.930 . S
H1068 C1078 0.930 . S
H1069 C1079 0.930 . S
C1070 H1064 0.930 . S
C1070 C1071 1.355 . S
C1070 C1072 1.415 . S
C1071 C1070 1.355 . S
C1071 C1073 1.419 . S
C1072 C1070 1.415 . S
C1072 C1077 1.425 . S
C1072 C1079 1.409 . S
C1073 H1065 0.930 . S
C1073 C1071 1.419 . S
C1073 C1074 1.362 . S
C1074 H1066 0.930 . S
C1074 C1073 1.362 . S
C1074 C1077 1.409 . S
C1075 H1067 0.930 . S
C1075 C1076 1.355 . S
C1075 C1077 1.415 . S
C1076 C1075 1.355 . S
C1076 C1078 1.419 . S
C1077 C1072 1.425 . S
C1077 C1074 1.409 . S
C1077 C1075 1.415 . S
C1078 H1068 0.930 . S
C1078 C1076 1.419 . S
C1078 C1079 1.362 . S
C1079 H1069 0.930 . S
C1079 C1072 1.409 . S
C1079 C1078 1.362 . S
H1080 C1086 0.930 . S
H1081 C1089 0.930 . S
H1082 C1090 0.930 . S
H1083 C1091 0.930 . S
H1084 C1094 0.930 . S
H1085 C1095 0.930 . S
C1086 H1080 0.930 . S
C1086 C1087 1.355 . S
C1086 C1088 1.415 . S
C1087 C1086 1.355 . S
C1087 C1089 1.419 . S
C1088 C1086 1.415 . S
C1088 C1093 1.425 . S
C1088 C1095 1.409 . S
C1089 H1081 0.930 . S
C1089 C1087 1.419 . S
C1089 C1090 1.362 . S
C1090 H1082 0.930 . S
C1090 C1089 1.362 . S
C1090 C1093 1.409 . S
C1091 H1083 0.930 . S
C1091 C1092 1.355 . S
C1091 C1093 1.415 . S
C1092 C1091 1.355 . S
C1092 C1094 1.419 . S
C1093 C1088 1.425 . S
C1093 C1090 1.409 . S
C1093 C1091 1.415 . S
C1094 H1084 0.930 . S
C1094 C1092 1.419 . S
C1094 C1095 1.362 . S
C1095 H1085 0.930 . S
C1095 C1088 1.409 . S
C1095 C1094 1.362 . S
H1096 C1102 0.930 . S
H1097 C1105 0.930 . S
H1098 C1106 0.930 . S
H1099 C1107 0.930 . S
H1100 C1110 0.930 . S
H1101 C1111 0.930 . S
C1102 H1096 0.930 . S
C1102 C1103 1.355 . S
C1102 C1104 1.415 . S
C1103 C1102 1.355 . S
C1103 C1105 1.419 . S
C1104 C1102 1.415 . S
C1104 C1109 1.425 . S
C1104 C1111 1.409 . S
C1105 H1097 0.930 . S
C1105 C1103 1.419 . S
C1105 C1106 1.362 . S
C1106 H1098 0.930 . S
C1106 C1105 1.362 . S
C1106 C1109 1.409 . S
C1107 H1099 0.930 . S
C1107 C1108 1.355 . S
C1107 C1109 1.415 . S
C1108 C1107 1.355 . S
C1108 C1110 1.419 . S
C1109 C1104 1.425 . S
C1109 C1106 1.409 . S
C1109 C1107 1.415 . S
C1110 H1100 0.930 . S
C1110 C1108 1.419 . S
C1110 C1111 1.362 . S
C1111 H1101 0.930 . S
C1111 C1104 1.409 . S
C1111 C1110 1.362 . S
H1112 C1118 0.930 . S
H1113 C1121 0.930 . S
H1114 C1122 0.930 . S
H1115 C1123 0.930 . S
H1116 C1126 0.930 . S
H1117 C1127 0.930 . S
C1118 H1112 0.930 . S
C1118 C1119 1.355 . S
C1118 C1120 1.415 . S
C1119 C1118 1.355 . S
C1119 C1121 1.419 . S
C1120 C1118 1.415 . S
C1120 C1125 1.425 . S
C1120 C1127 1.409 . S
C1121 H1113 0.930 . S
C1121 C1119 1.419 . S
C1121 C1122 1.362 . S
C1122 H1114 0.930 . S
C1122 C1121 1.362 . S
C1122 C1125 1.409 . S
C1123 H1115 0.930 . S
C1123 C1124 1.355 . S
C1123 C1125 1.415 . S
C1124 C1123 1.355 . S
C1124 C1126 1.419 . S
C1125 C1120 1.425 . S
C1125 C1122 1.409 . S
C1125 C1123 1.415 . S
C1126 H1116 0.930 . S
C1126 C1124 1.419 . S
C1126 C1127 1.362 . S
C1127 H1117 0.930 . S
C1127 C1120 1.409 . S
C1127 C1126 1.362 . S
H1128 C1134 0.930 . S
H1129 C1137 0.930 . S
H1130 C1138 0.930 . S
H1131 C1139 0.930 . S
H1132 C1142 0.930 . S
H1133 C1143 0.930 . S
C1134 H1128 0.930 . S
C1134 C1135 1.355 . S
C1134 C1136 1.415 . S
C1135 C1134 1.355 . S
C1135 C1137 1.419 . S
C1136 C1134 1.415 . S
C1136 C1141 1.425 . S
C1136 C1143 1.409 . S
C1137 H1129 0.930 . S
C1137 C1135 1.419 . S
C1137 C1138 1.362 . S
C1138 H1130 0.930 . S
C1138 C1137 1.362 . S
C1138 C1141 1.409 . S
C1139 H1131 0.930 . S
C1139 C1140 1.355 . S
C1139 C1141 1.415 . S
C1140 C1139 1.355 . S
C1140 C1142 1.419 . S
C1141 C1136 1.425 . S
C1141 C1138 1.409 . S
C1141 C1139 1.415 . S
C1142 H1132 0.930 . S
C1142 C1140 1.419 . S
C1142 C1143 1.362 . S
C1143 H1133 0.930 . S
C1143 C1136 1.409 . S
C1143 C1142 1.362 . S
H1144 C1150 0.930 . S
H1145 C1153 0.930 . S
H1146 C1154 0.930 . S
H1147 C1155 0.930 . S
H1148 C1158 0.930 . S
H1149 C1159 0.930 . S
C1150 H1144 0.930 . S
C1150 C1151 1.355 . S
C1150 C1152 1.415 . S
C1151 C1150 1.355 . S
C1151 C1153 1.419 . S
C1152 C1150 1.415 . S
C1152 C1157 1.425 . S
C1152 C1159 1.409 . S
C1153 H1145 0.930 . S
C1153 C1151 1.419 . S
C1153 C1154 1.362 . S
C1154 H1146 0.930 . S
C1154 C1153 1.362 . S
C1154 C1157 1.409 . S
C1155 H1147 0.930 . S
C1155 C1156 1.355 . S
C1155 C1157 1.415 . S
C1156 C1155 1.355 . S
C1156 C1158 1.419 . S
C1157 C1152 1.425 . S
C1157 C1154 1.409 . S
C1157 C1155 1.415 . S
C1158 H1148 0.930 . S
C1158 C1156 1.419 . S
C1158 C1159 1.362 . S
C1159 H1149 0.930 . S
C1159 C1152 1.409 . S
C1159 C1158 1.362 . S
H1160 C1166 0.930 . S
H1161 C1169 0.930 . S
H1162 C1170 0.930 . S
H1163 C1171 0.930 . S
H1164 C1174 0.930 1_455 S
H1165 C1175 0.930 . S
C1166 H1160 0.930 . S
C1166 C1167 1.355 . S
C1166 C1168 1.415 . S
C1167 C1166 1.355 . S
C1167 C1169 1.419 . S
C1168 C1166 1.415 . S
C1168 C1173 1.425 . S
C1168 C1175 1.409 . S
C1169 H1161 0.930 . S
C1169 C1167 1.419 . S
C1169 C1170 1.362 . S
C1170 H1162 0.930 . S
C1170 C1169 1.362 . S
C1170 C1173 1.409 . S
C1171 H1163 0.930 . S
C1171 C1172 1.355 . S
C1171 C1173 1.415 . S
C1172 C1171 1.355 . S
C1172 C1174 1.419 . S
C1173 C1168 1.425 . S
C1173 C1170 1.409 . S
C1173 C1171 1.415 . S
C1174 H1164 0.930 1_655 S
C1174 C1172 1.419 . S
C1174 C1175 1.362 . S
C1175 H1165 0.930 . S
C1175 C1168 1.409 . S
C1175 C1174 1.362 . S
H1176 C1182 0.930 . S
H1177 C1185 0.930 . S
H1178 C1186 0.930 . S
H1179 C1187 0.930 1_545 S
H1180 C1190 0.930 . S
H1181 C1191 0.930 . S
C1182 H1176 0.930 . S
C1182 C1183 1.355 . S
C1182 C1184 1.415 . S
C1183 C1182 1.355 . S
C1183 C1185 1.419 . S
C1184 C1182 1.415 . S
C1184 C1189 1.425 . S
C1184 C1191 1.409 . S
C1185 H1177 0.930 . S
C1185 C1183 1.419 . S
C1185 C1186 1.362 . S
C1186 H1178 0.930 . S
C1186 C1185 1.362 . S
C1186 C1189 1.409 . S
C1187 H1179 0.930 1_565 S
C1187 C1188 1.355 1_565 S
C1187 C1189 1.415 . S
C1188 C1187 1.355 1_545 S
C1188 C1190 1.419 1_545 S
C1189 C1184 1.425 . S
C1189 C1186 1.409 . S
C1189 C1187 1.415 . S
C1190 H1180 0.930 . S
C1190 C1188 1.419 1_565 S
C1190 C1191 1.362 . S
C1191 H1181 0.930 . S
C1191 C1184 1.409 . S
C1191 C1190 1.362 . S
H1192 C1198 0.930 . S
H1193 C1201 0.930 . S
H1194 C1202 0.930 . S
H1195 C1203 0.930 . S
H1196 C1206 0.930 . S
H1197 C1207 0.930 . S
C1198 H1192 0.930 . S
C1198 C1199 1.355 . S
C1198 C1200 1.415 . S
C1199 C1198 1.355 . S
C1199 C1201 1.419 . S
C1200 C1198 1.415 . S
C1200 C1205 1.425 . S
C1200 C1207 1.409 . S
C1201 H1193 0.930 . S
C1201 C1199 1.419 . S
C1201 C1202 1.362 . S
C1202 H1194 0.930 . S
C1202 C1201 1.362 . S
C1202 C1205 1.409 . S
C1203 H1195 0.930 . S
C1203 C1204 1.355 . S
C1203 C1205 1.415 . S
C1204 C1203 1.355 . S
C1204 C1206 1.419 . S
C1205 C1200 1.425 . S
C1205 C1202 1.409 . S
C1205 C1203 1.415 . S
C1206 H1196 0.930 . S
C1206 C1204 1.419 . S
C1206 C1207 1.362 . S
C1207 H1197 0.930 . S
C1207 C1200 1.409 . S
C1207 C1206 1.362 . S
H1208 C1214 0.930 . S
H1209 C1217 0.930 . S
H1210 C1218 0.930 . S
H1211 C1219 0.930 . S
H1212 C1222 0.930 . S
H1213 C1223 0.930 . S
C1214 H1208 0.930 . S
C1214 C1215 1.355 . S
C1214 C1216 1.415 . S
C1215 C1214 1.355 . S
C1215 C1217 1.419 . S
C1216 C1214 1.415 . S
C1216 C1221 1.425 . S
C1216 C1223 1.409 . S
C1217 H1209 0.930 . S
C1217 C1215 1.419 . S
C1217 C1218 1.362 . S
C1218 H1210 0.930 . S
C1218 C1217 1.362 . S
C1218 C1221 1.409 . S
C1219 H1211 0.930 . S
C1219 C1220 1.355 . S
C1219 C1221 1.415 . S
C1220 C1219 1.355 . S
C1220 C1222 1.419 . S
C1221 C1216 1.425 . S
C1221 C1218 1.409 . S
C1221 C1219 1.415 . S
C1222 H1212 0.930 . S
C1222 C1220 1.419 . S
C1222 C1223 1.362 . S
C1223 H1213 0.930 . S
C1223 C1216 1.409 . S
C1223 C1222 1.362 . S
H1224 C1230 0.930 . S
H1225 C1233 0.930 . S
H1226 C1234 0.930 . S
H1227 C1235 0.930 . S
H1228 C1238 0.930 . S
H1229 C1239 0.930 . S
C1230 H1224 0.930 . S
C1230 C1231 1.355 . S
C1230 C1232 1.415 . S
C1231 C1230 1.355 . S
C1231 C1233 1.419 . S
C1232 C1230 1.415 . S
C1232 C1237 1.425 . S
C1232 C1239 1.409 . S
C1233 H1225 0.930 . S
C1233 C1231 1.419 . S
C1233 C1234 1.362 . S
C1234 H1226 0.930 . S
C1234 C1233 1.362 . S
C1234 C1237 1.409 . S
C1235 H1227 0.930 . S
C1235 C1236 1.355 . S
C1235 C1237 1.415 . S
C1236 C1235 1.355 . S
C1236 C1238 1.419 . S
C1237 C1232 1.425 . S
C1237 C1234 1.409 . S
C1237 C1235 1.415 . S
C1238 H1228 0.930 . S
C1238 C1236 1.419 . S
C1238 C1239 1.362 . S
C1239 H1229 0.930 . S
C1239 C1232 1.409 . S
C1239 C1238 1.362 . S
H1240 C1246 0.930 . S
H1241 C1249 0.930 . S
H1242 C1250 0.930 . S
H1243 C1251 0.930 . S
H1244 C1254 0.930 . S
H1245 C1255 0.930 . S
C1246 H1240 0.930 . S
C1246 C1247 1.355 . S
C1246 C1248 1.415 . S
C1247 C1246 1.355 . S
C1247 C1249 1.419 . S
C1248 C1246 1.415 . S
C1248 C1253 1.425 . S
C1248 C1255 1.409 . S
C1249 H1241 0.930 . S
C1249 C1247 1.419 . S
C1249 C1250 1.362 . S
C1250 H1242 0.930 . S
C1250 C1249 1.362 . S
C1250 C1253 1.409 . S
C1251 H1243 0.930 . S
C1251 C1252 1.355 . S
C1251 C1253 1.415 . S
C1252 C1251 1.355 . S
C1252 C1254 1.419 . S
C1253 C1248 1.425 . S
C1253 C1250 1.409 . S
C1253 C1251 1.415 . S
C1254 H1244 0.930 . S
C1254 C1252 1.419 . S
C1254 C1255 1.362 . S
C1255 H1245 0.930 . S
C1255 C1248 1.409 . S
C1255 C1254 1.362 . S
H1256 C1262 0.930 . S
H1257 C1265 0.930 . S
H1258 C1266 0.930 . S
H1259 C1267 0.930 . S
H1260 C1270 0.930 . S
H1261 C1271 0.930 . S
C1262 H1256 0.930 . S
C1262 C1263 1.355 . S
C1262 C1264 1.415 . S
C1263 C1262 1.355 . S
C1263 C1265 1.419 . S
C1264 C1262 1.415 . S
C1264 C1269 1.425 . S
C1264 C1271 1.409 . S
C1265 H1257 0.930 . S
C1265 C1263 1.419 . S
C1265 C1266 1.362 . S
C1266 H1258 0.930 . S
C1266 C1265 1.362 . S
C1266 C1269 1.409 . S
C1267 H1259 0.930 . S
C1267 C1268 1.355 . S
C1267 C1269 1.415 . S
C1268 C1267 1.355 . S
C1268 C1270 1.419 . S
C1269 C1264 1.425 . S
C1269 C1266 1.409 . S
C1269 C1267 1.415 . S
C1270 H1260 0.930 . S
C1270 C1268 1.419 . S
C1270 C1271 1.362 . S
C1271 H1261 0.930 . S
C1271 C1264 1.409 . S
C1271 C1270 1.362 . S
H1272 C1278 0.930 . S
H1273 C1281 0.930 . S
H1274 C1282 0.930 . S
H1275 C1283 0.930 . S
H1276 C1286 0.930 . S
H1277 C1287 0.930 . S
C1278 H1272 0.930 . S
C1278 C1279 1.355 . S
C1278 C1280 1.415 . S
C1279 C1278 1.355 . S
C1279 C1281 1.419 . S
C1280 C1278 1.415 . S
C1280 C1285 1.425 . S
C1280 C1287 1.409 . S
C1281 H1273 0.930 . S
C1281 C1279 1.419 . S
C1281 C1282 1.362 . S
C1282 H1274 0.930 . S
C1282 C1281 1.362 . S
C1282 C1285 1.409 . S
C1283 H1275 0.930 . S
C1283 C1284 1.355 . S
C1283 C1285 1.415 . S
C1284 C1283 1.355 . S
C1284 C1286 1.419 . S
C1285 C1280 1.425 . S
C1285 C1282 1.409 . S
C1285 C1283 1.415 . S
C1286 H1276 0.930 . S
C1286 C1284 1.419 . S
C1286 C1287 1.362 . S
C1287 H1277 0.930 . S
C1287 C1280 1.409 . S
C1287 C1286 1.362 . S
H1288 C1294 0.930 . S
H1289 C1297 0.930 . S
H1290 C1298 0.930 . S
H1291 C1299 0.930 . S
H1292 C1302 0.930 . S
H1293 C1303 0.930 . S
C1294 H1288 0.930 . S
C1294 C1295 1.355 . S
C1294 C1296 1.415 . S
C1295 C1294 1.355 . S
C1295 C1297 1.419 . S
C1296 C1294 1.415 . S
C1296 C1301 1.425 . S
C1296 C1303 1.409 . S
C1297 H1289 0.930 . S
C1297 C1295 1.419 . S
C1297 C1298 1.362 . S
C1298 H1290 0.930 . S
C1298 C1297 1.362 . S
C1298 C1301 1.409 . S
C1299 H1291 0.930 . S
C1299 C1300 1.355 . S
C1299 C1301 1.415 . S
C1300 C1299 1.355 . S
C1300 C1302 1.419 . S
C1301 C1296 1.425 . S
C1301 C1298 1.409 . S
C1301 C1299 1.415 . S
C1302 H1292 0.930 . S
C1302 C1300 1.419 . S
C1302 C1303 1.362 . S
C1303 H1293 0.930 . S
C1303 C1296 1.409 . S
C1303 C1302 1.362 . S
H1304 C1310 0.930 . S
H1305 C1313 0.930 . S
H1306 C1314 0.930 . S
H1307 C1315 0.930 . S
H1308 C1318 0.930 . S
H1309 C1319 0.930 . S
C1310 H1304 0.930 . S
C1310 C1311 1.355 . S
C1310 C1312 1.415 . S
C1311 C1310 1.355 . S
C1311 C1313 1.419 . S
C1312 C1310 1.415 . S
C1312 C1317 1.425 . S
C1312 C1319 1.409 . S
C1313 H1305 0.930 . S
C1313 C1311 1.419 . S
C1313 C1314 1.362 . S
C1314 H1306 0.930 . S
C1314 C1313 1.362 . S
C1314 C1317 1.409 . S
C1315 H1307 0.930 . S
C1315 C1316 1.355 . S
C1315 C1317 1.415 . S
C1316 C1315 1.355 . S
C1316 C1318 1.419 . S
C1317 C1312 1.425 . S
C1317 C1314 1.409 . S
C1317 C1315 1.415 . S
C1318 H1308 0.930 . S
C1318 C1316 1.419 . S
C1318 C1319 1.362 . S
C1319 H1309 0.930 . S
C1319 C1312 1.409 . S
C1319 C1318 1.362 . S
H1320 C1326 0.930 . S
H1321 C1329 0.930 . S
H1322 C1330 0.930 . S
H1323 C1331 0.930 . S
H1324 C1334 0.930 . S
H1325 C1335 0.930 . S
C1326 H1320 0.930 . S
C1326 C1327 1.355 . S
C1326 C1328 1.415 . S
C1327 C1326 1.355 . S
C1327 C1329 1.419 . S
C1328 C1326 1.415 . S
C1328 C1333 1.425 . S
C1328 C1335 1.409 . S
C1329 H1321 0.930 . S
C1329 C1327 1.419 . S
C1329 C1330 1.362 . S
C1330 H1322 0.930 . S
C1330 C1329 1.362 . S
C1330 C1333 1.409 . S
C1331 H1323 0.930 . S
C1331 C1332 1.355 . S
C1331 C1333 1.415 . S
C1332 C1331 1.355 . S
C1332 C1334 1.419 . S
C1333 C1328 1.425 . S
C1333 C1330 1.409 . S
C1333 C1331 1.415 . S
C1334 H1324 0.930 . S
C1334 C1332 1.419 . S
C1334 C1335 1.362 . S
C1335 H1325 0.930 . S
C1335 C1328 1.409 . S
C1335 C1334 1.362 . S
H1336 C1342 0.930 . S
H1337 C1345 0.930 . S
H1338 C1346 0.930 . S
H1339 C1347 0.930 . S
H1340 C1350 0.930 . S
H1341 C1351 0.930 . S
C1342 H1336 0.930 . S
C1342 C1343 1.355 . S
C1342 C1344 1.415 . S
C1343 C1342 1.355 . S
C1343 C1345 1.419 . S
C1344 C1342 1.415 . S
C1344 C1349 1.425 . S
C1344 C1351 1.409 . S
C1345 H1337 0.930 . S
C1345 C1343 1.419 . S
C1345 C1346 1.362 . S
C1346 H1338 0.930 . S
C1346 C1345 1.362 . S
C1346 C1349 1.409 . S
C1347 H1339 0.930 . S
C1347 C1348 1.355 . S
C1347 C1349 1.415 . S
C1348 C1347 1.355 . S
C1348 C1350 1.419 . S
C1349 C1344 1.425 . S
C1349 C1346 1.409 . S
C1349 C1347 1.415 . S
C1350 H1340 0.930 . S
C1350 C1348 1.419 . S
C1350 C1351 1.362 . S
C1351 H1341 0.930 . S
C1351 C1344 1.409 . S
C1351 C1350 1.362 . S
H1352 C1358 0.930 . S
H1353 C1361 0.930 . S
H1354 C1362 0.930 . S
H1355 C1363 0.930 . S
H1356 C1366 0.930 . S
H1357 C1367 0.930 . S
C1358 H1352 0.930 . S
C1358 C1359 1.355 . S
C1358 C1360 1.415 . S
C1359 C1358 1.355 . S
C1359 C1361 1.419 . S
C1360 C1358 1.415 . S
C1360 C1365 1.425 . S
C1360 C1367 1.409 . S
C1361 H1353 0.930 . S
C1361 C1359 1.419 . S
C1361 C1362 1.362 . S
C1362 H1354 0.930 . S
C1362 C1361 1.362 . S
C1362 C1365 1.409 . S
C1363 H1355 0.930 . S
C1363 C1364 1.355 . S
C1363 C1365 1.415 . S
C1364 C1363 1.355 . S
C1364 C1366 1.419 . S
C1365 C1360 1.425 . S
C1365 C1362 1.409 . S
C1365 C1363 1.415 . S
C1366 H1356 0.930 . S
C1366 C1364 1.419 . S
C1366 C1367 1.362 . S
C1367 H1357 0.930 . S
C1367 C1360 1.409 . S
C1367 C1366 1.362 . S
H1368 C1374 0.930 . S
H1369 C1377 0.930 . S
H1370 C1378 0.930 . S
H1371 C1379 0.930 . S
H1372 C1382 0.930 . S
H1373 C1383 0.930 . S
C1374 H1368 0.930 . S
C1374 C1375 1.355 . S
C1374 C1376 1.415 . S
C1375 C1374 1.355 . S
C1375 C1377 1.419 . S
C1376 C1374 1.415 . S
C1376 C1381 1.425 . S
C1376 C1383 1.409 . S
C1377 H1369 0.930 . S
C1377 C1375 1.419 . S
C1377 C1378 1.362 . S
C1378 H1370 0.930 . S
C1378 C1377 1.362 . S
C1378 C1381 1.409 . S
C1379 H1371 0.930 . S
C1379 C1380 1.355 . S
C1379 C1381 1.415 . S
C1380 C1379 1.355 . S
C1380 C1382 1.419 . S
C1381 C1376 1.425 . S
C1381 C1378 1.409 . S
C1381 C1379 1.415 . S
C1382 H1372 0.930 . S
C1382 C1380 1.419 . S
C1382 C1383 1.362 . S
C1383 H1373 0.930 . S
C1383 C1376 1.409 . S
C1383 C1382 1.362 . S
H1384 C1390 0.930 . S
H1385 C1393 0.930 . S
H1386 C1394 0.930 . S
H1387 C1395 0.930 . S
H1388 C1398 0.930 . S
H1389 C1399 0.930 . S
C1390 H1384 0.930 . S
C1390 C1391 1.355 . S
C1390 C1392 1.415 . S
C1391 C1390 1.355 . S
C1391 C1393 1.419 . S
C1392 C1390 1.415 . S
C1392 C1397 1.425 . S
C1392 C1399 1.409 . S
C1393 H1385 0.930 . S
C1393 C1391 1.419 . S
C1393 C1394 1.362 . S
C1394 H1386 0.930 . S
C1394 C1393 1.362 . S
C1394 C1397 1.409 . S
C1395 H1387 0.930 . S
C1395 C1396 1.355 . S
C1395 C1397 1.415 . S
C1396 C1395 1.355 . S
C1396 C1398 1.419 . S
C1397 C1392 1.425 . S
C1397 C1394 1.409 . S
C1397 C1395 1.415 . S
C1398 H1388 0.930 . S
C1398 C1396 1.419 . S
C1398 C1399 1.362 . S
C1399 H1389 0.930 . S
C1399 C1392 1.409 . S
C1399 C1398 1.362 . S
H1400 C1406 0.930 . S
H1401 C1409 0.930 . S
H1402 C1410 0.930 . S
H1403 C1411 0.930 . S
H1404 C1414 0.930 . S
H1405 C1415 0.930 . S
C1406 H1400 0.930 . S
C1406 C1407 1.355 . S
C1406 C1408 1.415 . S
C1407 C1406 1.355 . S
C1407 C1409 1.419 . S
C1408 C1406 1.415 . S
C1408 C1413 1.425 . S
C1408 C1415 1.409 . S
C1409 H1401 0.930 . S
C1409 C1407 1.419 . S
C1409 C1410 1.362 . S
C1410 H1402 0.930 . S
C1410 C1409 1.362 . S
C1410 C1413 1.409 . S
C1411 H1403 0.930 . S
C1411 C1412 1.355 . S
C1411 C1413 1.415 . S
C1412 C1411 1.355 . S
C1412 C1414 1.419 . S
C1413 C1408 1.425 . S
C1413 C1410 1.409 . S
C1413 C1411 1.415 . S
C1414 H1404 0.930 . S
C1414 C1412 1.419 . S
C1414 C1415 1.362 . S
C1415 H1405 0.930 . S
C1415 C1408 1.409 . S
C1415 C1414 1.362 . S
H1416 C1422 0.930 . S
H1417 C1425 0.930 . S
H1418 C1426 0.930 . S
H1419 C1427 0.930 . S
H1420 C1430 0.930 . S
H1421 C1431 0.930 . S
C1422 H1416 0.930 . S
C1422 C1423 1.355 . S
C1422 C1424 1.415 . S
C1423 C1422 1.355 . S
C1423 C1425 1.419 . S
C1424 C1422 1.415 . S
C1424 C1429 1.425 . S
C1424 C1431 1.409 . S
C1425 H1417 0.930 . S
C1425 C1423 1.419 . S
C1425 C1426 1.362 . S
C1426 H1418 0.930 . S
C1426 C1425 1.362 . S
C1426 C1429 1.409 . S
C1427 H1419 0.930 . S
C1427 C1428 1.355 . S
C1427 C1429 1.415 . S
C1428 C1427 1.355 . S
C1428 C1430 1.419 . S
C1429 C1424 1.425 . S
C1429 C1426 1.409 . S
C1429 C1427 1.415 . S
C1430 H1420 0.930 . S
C1430 C1428 1.419 . S
C1430 C1431 1.362 . S
C1431 H1421 0.930 . S
C1431 C1424 1.409 . S
C1431 C1430 1.362 . S
H1432 C1438 0.930 . S
H1433 C1441 0.930 . S
H1434 C1442 0.930 . S
H1435 C1443 0.930 . S
H1436 C1446 0.930 . S
H1437 C1447 0.930 . S
C1438 H1432 0.930 . S
C1438 C1439 1.355 . S
C1438 C1440 1.415 . S
C1439 C1438 1.355 . S
C1439 C1441 1.419 . S
C1440 C1438 1.415 . S
C1440 C1445 1.425 . S
C1440 C1447 1.409 . S
C1441 H1433 0.930 . S
C1441 C1439 1.419 . S
C1441 C1442 1.362 . S
C1442 H1434 0.930 . S
C1442 C1441 1.362 . S
C1442 C1445 1.409 . S
C1443 H1435 0.930 . S
C1443 C1444 1.355 . S
C1443 C1445 1.415 . S
C1444 C1443 1.355 . S
C1444 C1446 1.419 . S
C1445 C1440 1.425 . S
C1445 C1442 1.409 . S
C1445 C1443 1.415 . S
C1446 H1436 0.930 . S
C1446 C1444 1.419 . S
C1446 C1447 1.362 . S
C1447 H1437 0.930 . S
C1447 C1440 1.409 . S
C1447 C1446 1.362 . S
H1448 C1454 0.930 . S
H1449 C1457 0.930 . S
H1450 C1458 0.930 . S
H1451 C1459 0.930 . S
H1452 C1462 0.930 . S
H1453 C1463 0.930 . S
C1454 H1448 0.930 . S
C1454 C1455 1.355 . S
C1454 C1456 1.415 . S
C1455 C1454 1.355 . S
C1455 C1457 1.419 . S
C1456 C1454 1.415 . S
C1456 C1461 1.425 . S
C1456 C1463 1.409 . S
C1457 H1449 0.930 . S
C1457 C1455 1.419 . S
C1457 C1458 1.362 . S
C1458 H1450 0.930 . S
C1458 C1457 1.362 . S
C1458 C1461 1.409 . S
C1459 H1451 0.930 . S
C1459 C1460 1.355 . S
C1459 C1461 1.415 . S
C1460 C1459 1.355 . S
C1460 C1462 1.419 . S
C1461 C1456 1.425 . S
C1461 C1458 1.409 . S
C1461 C1459 1.415 . S
C1462 H1452 0.930 . S
C1462 C1460 1.419 . S
C1462 C1463 1.362 . S
C1463 H1453 0.930 . S
C1463 C1456 1.409 . S
C1463 C1462 1.362 . S
H1464 C1470 0.930 . S
H1465 C1473 0.930 . S
H1466 C1474 0.930 . S
H1467 C1475 0.930 . S
H1468 C1478 0.930 . S
H1469 C1479 0.930 . S
C1470 H1464 0.930 . S
C1470 C1471 1.355 . S
C1470 C1472 1.415 . S
C1471 C1470 1.355 . S
C1471 C1473 1.419 . S
C1472 C1470 1.415 . S
C1472 C1477 1.425 . S
C1472 C1479 1.409 . S
C1473 H1465 0.930 . S
C1473 C1471 1.419 . S
C1473 C1474 1.362 . S
C1474 H1466 0.930 . S
C1474 C1473 1.362 . S
C1474 C1477 1.409 . S
C1475 H1467 0.930 . S
C1475 C1476 1.355 . S
C1475 C1477 1.415 . S
C1476 C1475 1.355 . S
C1476 C1478 1.419 . S
C1477 C1472 1.425 . S
C1477 C1474 1.409 . S
C1477 C1475 1.415 . S
C1478 H1468 0.930 . S
C1478 C1476 1.419 . S
C1478 C1479 1.362 . S
C1479 H1469 0.930 . S
C1479 C1472 1.409 . S
C1479 C1478 1.362 . S
H1480 C1486 0.930 . S
H1481 C1489 0.930 . S
H1482 C1490 0.930 . S
H1483 C1491 0.930 1_455 S
H1484 C1494 0.930 . S
H1485 C1495 0.930 . S
C1486 H1480 0.930 . S
C1486 C1487 1.355 . S
C1486 C1488 1.415 . S
C1487 C1486 1.355 . S
C1487 C1489 1.419 . S
C1488 C1486 1.415 . S
C1488 C1493 1.425 . S
C1488 C1495 1.409 . S
C1489 H1481 0.930 . S
C1489 C1487 1.419 . S
C1489 C1490 1.362 . S
C1490 H1482 0.930 . S
C1490 C1489 1.362 . S
C1490 C1493 1.409 . S
C1491 H1483 0.930 1_655 S
C1491 C1492 1.355 . S
C1491 C1493 1.415 . S
C1492 C1491 1.355 . S
C1492 C1494 1.419 . S
C1493 C1488 1.425 . S
C1493 C1490 1.409 . S
C1493 C1491 1.415 . S
C1494 H1484 0.930 . S
C1494 C1492 1.419 . S
C1494 C1495 1.362 . S
C1495 H1485 0.930 . S
C1495 C1488 1.409 . S
C1495 C1494 1.362 . S
H1496 C1502 0.930 . S
H1497 C1505 0.930 . S
H1498 C1506 0.930 . S
H1499 C1507 0.930 . S
H1500 C1510 0.930 . S
H1501 C1511 0.930 . S
C1502 H1496 0.930 . S
C1502 C1503 1.355 . S
C1502 C1504 1.415 . S
C1503 C1502 1.355 . S
C1503 C1505 1.419 . S
C1504 C1502 1.415 . S
C1504 C1509 1.425 . S
C1504 C1511 1.409 . S
C1505 H1497 0.930 . S
C1505 C1503 1.419 . S
C1505 C1506 1.362 . S
C1506 H1498 0.930 . S
C1506 C1505 1.362 . S
C1506 C1509 1.409 . S
C1507 H1499 0.930 . S
C1507 C1508 1.355 . S
C1507 C1509 1.415 . S
C1508 C1507 1.355 . S
C1508 C1510 1.419 . S
C1509 C1504 1.425 . S
C1509 C1506 1.409 . S
C1509 C1507 1.415 . S
C1510 H1500 0.930 . S
C1510 C1508 1.419 . S
C1510 C1511 1.362 . S
C1511 H1501 0.930 . S
C1511 C1504 1.409 . S
C1511 C1510 1.362 . S
H1512 C1518 0.930 . S
H1513 C1521 0.930 . S
H1514 C1522 0.930 . S
H1515 C1523 0.930 . S
H1516 C1526 0.930 . S
H1517 C1527 0.930 . S
C1518 H1512 0.930 . S
C1518 C1519 1.355 . S
C1518 C1520 1.415 . S
C1519 C1518 1.355 . S
C1519 C1521 1.419 . S
C1520 C1518 1.415 . S
C1520 C1525 1.425 . S
C1520 C1527 1.409 . S
C1521 H1513 0.930 . S
C1521 C1519 1.419 . S
C1521 C1522 1.362 . S
C1522 H1514 0.930 . S
C1522 C1521 1.362 . S
C1522 C1525 1.409 . S
C1523 H1515 0.930 . S
C1523 C1524 1.355 . S
C1523 C1525 1.415 . S
C1524 C1523 1.355 . S
C1524 C1526 1.419 . S
C1525 C1520 1.425 . S
C1525 C1522 1.409 . S
C1525 C1523 1.415 . S
C1526 H1516 0.930 . S
C1526 C1524 1.419 . S
C1526 C1527 1.362 . S
C1527 H1517 0.930 . S
C1527 C1520 1.409 . S
C1527 C1526 1.362 . S
H1528 C1534 0.930 . S
H1529 C1537 0.930 . S
H1530 C1538 0.930 . S
H1531 C1539 0.930 . S
H1532 C1542 0.930 . S
H1533 C1543 0.930 . S
C1534 H1528 0.930 . S
C1534 C1535 1.355 . S
C1534 C1536 1.415 . S
C1535 C1534 1.355 . S
C1535 C1537 1.419 . S
C1536 C1534 1.415 . S
C1536 C1541 1.425 . S
C1536 C1543 1.409 . S
C1537 H1529 0.930 . S
C1537 C1535 1.419 . S
C1537 C1538 1.362 . S
C1538 H1530 0.930 . S
C1538 C1537 1.362 . S
C1538 C1541 1.409 . S
C1539 H1531 0.930 . S
C1539 C1540 1.355 . S
C1539 C1541 1.415 . S
C1540 C1539 1.355 . S
C1540 C1542 1.419 . S
C1541 C1536 1.425 . S
C1541 C1538 1.409 . S
C1541 C1539 1.415 . S
C1542 H1532 0.930 . S
C1542 C1540 1.419 . S
C1542 C1543 1.362 . S
C1543 H1533 0.930 . S
C1543 C1536 1.409 . S
C1543 C1542 1.362 . S
H1544 C1550 0.930 . S
H1545 C1553 0.930 . S
H1546 C1554 0.930 . S
H1547 C1555 0.930 . S
H1548 C1558 0.930 . S
H1549 C1559 0.930 . S
C1550 H1544 0.930 . S
C1550 C1551 1.355 . S
C1550 C1552 1.415 . S
C1551 C1550 1.355 . S
C1551 C1553 1.419 . S
C1552 C1550 1.415 . S
C1552 C1557 1.425 . S
C1552 C1559 1.409 . S
C1553 H1545 0.930 . S
C1553 C1551 1.419 . S
C1553 C1554 1.362 . S
C1554 H1546 0.930 . S
C1554 C1553 1.362 . S
C1554 C1557 1.409 . S
C1555 H1547 0.930 . S
C1555 C1556 1.355 . S
C1555 C1557 1.415 . S
C1556 C1555 1.355 . S
C1556 C1558 1.419 . S
C1557 C1552 1.425 . S
C1557 C1554 1.409 . S
C1557 C1555 1.415 . S
C1558 H1548 0.930 . S
C1558 C1556 1.419 . S
C1558 C1559 1.362 . S
C1559 H1549 0.930 . S
C1559 C1552 1.409 . S
C1559 C1558 1.362 . S
H1560 C1566 0.930 . S
H1561 C1569 0.930 . S
H1562 C1570 0.930 . S
H1563 C1571 0.930 . S
H1564 C1574 0.930 . S
H1565 C1575 0.930 . S
C1566 H1560 0.930 . S
C1566 C1567 1.355 . S
C1566 C1568 1.415 . S
C1567 C1566 1.355 . S
C1567 C1569 1.419 . S
C1568 C1566 1.415 . S
C1568 C1573 1.425 . S
C1568 C1575 1.409 . S
C1569 H1561 0.930 . S
C1569 C1567 1.419 . S
C1569 C1570 1.362 . S
C1570 H1562 0.930 . S
C1570 C1569 1.362 . S
C1570 C1573 1.409 . S
C1571 H1563 0.930 . S
C1571 C1572 1.355 . S
C1571 C1573 1.415 . S
C1572 C1571 1.355 . S
C1572 C1574 1.419 . S
C1573 C1568 1.425 . S
C1573 C1570 1.409 . S
C1573 C1571 1.415 . S
C1574 H1564 0.930 . S
C1574 C1572 1.419 . S
C1574 C1575 1.362 . S
C1575 H1565 0.930 . S
C1575 C1568 1.409 . S
C1575 C1574 1.362 . S
H1576 C1582 0.930 . S
H1577 C1585 0.930 . S
H1578 C1586 0.930 . S
H1579 C1587 0.930 . S
H1580 C1590 0.930 . S
H1581 C1591 0.930 . S
C1582 H1576 0.930 . S
C1582 C1583 1.355 . S
C1582 C1584 1.415 . S
C1583 C1582 1.355 . S
C1583 C1585 1.419 . S
C1584 C1582 1.415 . S
C1584 C1589 1.425 . S
C1584 C1591 1.409 . S
C1585 H1577 0.930 . S
C1585 C1583 1.419 . S
C1585 C1586 1.362 . S
C1586 H1578 0.930 . S
C1586 C1585 1.362 . S
C1586 C1589 1.409 . S
C1587 H1579 0.930 . S
C1587 C1588 1.355 . S
C1587 C1589 1.415 . S
C1588 C1587 1.355 . S
C1588 C1590 1.419 . S
C1589 C1584 1.425 . S
C1589 C1586 1.409 . S
C1589 C1587 1.415 . S
C1590 H1580 0.930 . S
C1590 C1588 1.419 . S
C1590 C1591 1.362 . S
C1591 H1581 0.930 . S
C1591 C1584 1.409 . S
C1591 C1590 1.362 . S
H1592 C1598 0.930 . S
H1593 C1601 0.930 . S
H1594 C1602 0.930 . S
H1595 C1603 0.930 . S
H1596 C1606 0.930 . S
H1597 C1607 0.930 . S
C1598 H1592 0.930 . S
C1598 C1599 1.355 . S
C1598 C1600 1.415 . S
C1599 C1598 1.355 . S
C1599 C1601 1.419 . S
C1600 C1598 1.415 . S
C1600 C1605 1.425 . S
C1600 C1607 1.409 . S
C1601 H1593 0.930 . S
C1601 C1599 1.419 . S
C1601 C1602 1.362 . S
C1602 H1594 0.930 . S
C1602 C1601 1.362 . S
C1602 C1605 1.409 . S
C1603 H1595 0.930 . S
C1603 C1604 1.355 . S
C1603 C1605 1.415 . S
C1604 C1603 1.355 . S
C1604 C1606 1.419 . S
C1605 C1600 1.425 . S
C1605 C1602 1.409 . S
C1605 C1603 1.415 . S
C1606 H1596 0.930 . S
C1606 C1604 1.419 . S
C1606 C1607 1.362 . S
C1607 H1597 0.930 . S
C1607 C1600 1.409 . S
C1607 C1606 1.362 . S
H1608 C1614 0.930 . S
H1609 C1617 0.930 . S
H1610 C1618 0.930 . S
H1611 C1619 0.930 . S
H1612 C1622 0.930 . S
H1613 C1623 0.930 . S
C1614 H1608 0.930 . S
C1614 C1615 1.355 . S
C1614 C1616 1.415 . S
C1615 C1614 1.355 . S
C1615 C1617 1.419 . S
C1616 C1614 1.415 . S
C1616 C1621 1.425 . S
C1616 C1623 1.409 . S
C1617 H1609 0.930 . S
C1617 C1615 1.419 . S
C1617 C1618 1.362 . S
C1618 H1610 0.930 . S
C1618 C1617 1.362 . S
C1618 C1621 1.409 . S
C1619 H1611 0.930 . S
C1619 C1620 1.355 . S
C1619 C1621 1.415 . S
C1620 C1619 1.355 . S
C1620 C1622 1.419 . S
C1621 C1616 1.425 . S
C1621 C1618 1.409 . S
C1621 C1619 1.415 . S
C1622 H1612 0.930 . S
C1622 C1620 1.419 . S
C1622 C1623 1.362 . S
C1623 H1613 0.930 . S
C1623 C1616 1.409 . S
C1623 C1622 1.362 . S
H1624 C1630 0.930 . S
H1625 C1633 0.930 . S
H1626 C1634 0.930 . S
H1627 C1635 0.930 . S
H1628 C1638 0.930 . S
H1629 C1639 0.930 . S
C1630 H1624 0.930 . S
C1630 C1631 1.355 . S
C1630 C1632 1.415 . S
C1631 C1630 1.355 . S
C1631 C1633 1.419 . S
C1632 C1630 1.415 . S
C1632 C1637 1.425 . S
C1632 C1639 1.409 . S
C1633 H1625 0.930 . S
C1633 C1631 1.419 . S
C1633 C1634 1.362 . S
C1634 H1626 0.930 . S
C1634 C1633 1.362 . S
C1634 C1637 1.409 . S
C1635 H1627 0.930 . S
C1635 C1636 1.355 . S
C1635 C1637 1.415 . S
C1636 C1635 1.355 . S
C1636 C1638 1.419 . S
C1637 C1632 1.425 . S
C1637 C1634 1.409 . S
C1637 C1635 1.415 . S
C1638 H1628 0.930 . S
C1638 C1636 1.419 . S
C1638 C1639 1.362 . S
C1639 H1629 0.930 . S
C1639 C1632 1.409 . S
C1639 C1638 1.362 . S
H1640 C1646 0.930 . S
H1641 C1649 0.930 . S
H1642 C1650 0.930 . S
H1643 C1651 0.930 . S
H1644 C1654 0.930 . S
H1645 C1655 0.930 . S
C1646 H1640 0.930 . S
C1646 C1647 1.355 . S
C1646 C1648 1.415 . S
C1647 C1646 1.355 . S
C1647 C1649 1.419 . S
C1648 C1646 1.415 . S
C1648 C1653 1.425 . S
C1648 C1655 1.409 . S
C1649 H1641 0.930 . S
C1649 C1647 1.419 . S
C1649 C1650 1.362 . S
C1650 H1642 0.930 . S
C1650 C1649 1.362 . S
C1650 C1653 1.409 . S
C1651 H1643 0.930 . S
C1651 C1652 1.355 . S
C1651 C1653 1.415 . S
C1652 C1651 1.355 . S
C1652 C1654 1.419 . S
C1653 C1648 1.425 . S
C1653 C1650 1.409 . S
C1653 C1651 1.415 . S
C1654 H1644 0.930 . S
C1654 C1652 1.419 . S
C1654 C1655 1.362 . S
C1655 H1645 0.930 . S
C1655 C1648 1.409 . S
C1655 C1654 1.362 . S
H1656 C1662 0.930 . S
H1657 C1665 0.930 . S
H1658 C1666 0.930 . S
H1659 C1667 0.930 . S
H1660 C1670 0.930 . S
H1661 C1671 0.930 . S
C1662 H1656 0.930 . S
C1662 C1663 1.355 . S
C1662 C1664 1.415 . S
C1663 C1662 1.355 . S
C1663 C1665 1.419 . S
C1664 C1662 1.415 . S
C1664 C1669 1.425 . S
C1664 C1671 1.409 . S
C1665 H1657 0.930 . S
C1665 C1663 1.419 . S
C1665 C1666 1.362 . S
C1666 H1658 0.930 . S
C1666 C1665 1.362 . S
C1666 C1669 1.409 . S
C1667 H1659 0.930 . S
C1667 C1668 1.355 . S
C1667 C1669 1.415 . S
C1668 C1667 1.355 . S
C1668 C1670 1.419 . S
C1669 C1664 1.425 . S
C1669 C1666 1.409 . S
C1669 C1667 1.415 . S
C1670 H1660 0.930 . S
C1670 C1668 1.419 . S
C1670 C1671 1.362 . S
C1671 H1661 0.930 . S
C1671 C1664 1.409 . S
C1671 C1670 1.362 . S
H1672 C1678 0.930 . S
H1673 C1681 0.930 . S
H1674 C1682 0.930 . S
H1675 C1683 0.930 . S
H1676 C1686 0.930 . S
H1677 C1687 0.930 . S
C1678 H1672 0.930 . S
C1678 C1679 1.355 . S
C1678 C1680 1.415 . S
C1679 C1678 1.355 . S
C1679 C1681 1.419 . S
C1680 C1678 1.415 . S
C1680 C1685 1.425 . S
C1680 C1687 1.409 . S
C1681 H1673 0.930 . S
C1681 C1679 1.419 . S
C1681 C1682 1.362 . S
C1682 H1674 0.930 . S
C1682 C1681 1.362 . S
C1682 C1685 1.409 . S
C1683 H1675 0.930 . S
C1683 C1684 1.355 . S
C1683 C1685 1.415 . S
C1684 C1683 1.355 . S
C1684 C1686 1.419 . S
C1685 C1680 1.425 . S
C1685 C1682 1.409 . S
C1685 C1683 1.415 . S
C1686 H1676 0.930 . S
C1686 C1684 1.419 . S
C1686 C1687 1.362 . S
C1687 H1677 0.930 . S
C1687 C1680 1.409 . S
C1687 C1686 1.362 . S
H1688 C1694 0.930 . S
H1689 C1697 0.930 . S
H1690 C1698 0.930 . S
H1691 C1699 0.930 . S
H1692 C1702 0.930 . S
H1693 C1703 0.930 . S
C1694 H1688 0.930 . S
C1694 C1695 1.355 . S
C1694 C1696 1.415 . S
C1695 C1694 1.355 . S
C1695 C1697 1.419 . S
C1696 C1694 1.415 . S
C1696 C1701 1.425 . S
C1696 C1703 1.409 . S
C1697 H1689 0.930 . S
C1697 C1695 1.419 . S
C1697 C1698 1.362 . S
C1698 H1690 0.930 . S
C1698 C1697 1.362 . S
C1698 C1701 1.409 . S
C1699 H1691 0.930 . S
C1699 C1700 1.355 . S
C1699 C1701 1.415 . S
C1700 C1699 1.355 . S
C1700 C1702 1.419 . S
C1701 C1696 1.425 . S
C1701 C1698 1.409 . S
C1701 C1699 1.415 . S
C1702 H1692 0.930 . S
C1702 C1700 1.419 . S
C1702 C1703 1.362 . S
C1703 H1693 0.930 . S
C1703 C1696 1.409 . S
C1703 C1702 1.362 . S
H1704 C1710 0.930 . S
H1705 C1713 0.930 . S
H1706 C1714 0.930 . S
H1707 C1715 0.930 . S
H1708 C1718 0.930 . S
H1709 C1719 0.930 . S
C1710 H1704 0.930 . S
C1710 C1711 1.355 . S
C1710 C1712 1.415 . S
C1711 C1710 1.355 . S
C1711 C1713 1.419 . S
C1712 C1710 1.415 . S
C1712 C1717 1.425 . S
C1712 C1719 1.409 . S
C1713 H1705 0.930 . S
C1713 C1711 1.419 . S
C1713 C1714 1.362 . S
C1714 H1706 0.930 . S
C1714 C1713 1.362 . S
C1714 C1717 1.409 . S
C1715 H1707 0.930 . S
C1715 C1716 1.355 . S
C1715 C1717 1.415 . S
C1716 C1715 1.355 . S
C1716 C1718 1.419 . S
C1717 C1712 1.425 . S
C1717 C1714 1.409 . S
C1717 C1715 1.415 . S
C1718 H1708 0.930 . S
C1718 C1716 1.419 . S
C1718 C1719 1.362 . S
C1719 H1709 0.930 . S
C1719 C1712 1.409 . S
C1719 C1718 1.362 . S
H1720 C1726 0.930 . S
H1721 C1729 0.930 . S
H1722 C1730 0.930 . S
H1723 C1731 0.930 . S
H1724 C1734 0.930 . S
H1725 C1735 0.930 . S
C1726 H1720 0.930 . S
C1726 C1727 1.355 . S
C1726 C1728 1.415 . S
C1727 C1726 1.355 . S
C1727 C1729 1.419 . S
C1728 C1726 1.415 . S
C1728 C1733 1.425 . S
C1728 C1735 1.409 . S
C1729 H1721 0.930 . S
C1729 C1727 1.419 . S
C1729 C1730 1.362 . S
C1730 H1722 0.930 . S
C1730 C1729 1.362 . S
C1730 C1733 1.409 . S
C1731 H1723 0.930 . S
C1731 C1732 1.355 . S
C1731 C1733 1.415 . S
C1732 C1731 1.355 . S
C1732 C1734 1.419 . S
C1733 C1728 1.425 . S
C1733 C1730 1.409 . S
C1733 C1731 1.415 . S
C1734 H1724 0.930 . S
C1734 C1732 1.419 . S
C1734 C1735 1.362 . S
C1735 H1725 0.930 . S
C1735 C1728 1.409 . S
C1735 C1734 1.362 . S
H1736 C1742 0.930 . S
H1737 C1745 0.930 . S
H1738 C1746 0.930 . S
H1739 C1747 0.930 . S
H1740 C1750 0.930 . S
H1741 C1751 0.930 . S
C1742 H1736 0.930 . S
C1742 C1743 1.355 . S
C1742 C1744 1.415 . S
C1743 C1742 1.355 . S
C1743 C1745 1.419 . S
C1744 C1742 1.415 . S
C1744 C1749 1.425 . S
C1744 C1751 1.409 . S
C1745 H1737 0.930 . S
C1745 C1743 1.419 . S
C1745 C1746 1.362 . S
C1746 H1738 0.930 . S
C1746 C1745 1.362 . S
C1746 C1749 1.409 . S
C1747 H1739 0.930 . S
C1747 C1748 1.355 . S
C1747 C1749 1.415 . S
C1748 C1747 1.355 . S
C1748 C1750 1.419 . S
C1749 C1744 1.425 . S
C1749 C1746 1.409 . S
C1749 C1747 1.415 . S
C1750 H1740 0.930 . S
C1750 C1748 1.419 . S
C1750 C1751 1.362 . S
C1751 H1741 0.930 . S
C1751 C1744 1.409 . S
C1751 C1750 1.362 . S
H1752 C1758 0.930 . S
H1753 C1761 0.930 . S
H1754 C1762 0.930 . S
H1755 C1763 0.930 . S
H1756 C1766 0.930 . S
H1757 C1767 0.930 . S
C1758 H1752 0.930 . S
C1758 C1759 1.355 . S
C1758 C1760 1.415 . S
C1759 C1758 1.355 . S
C1759 C1761 1.419 . S
C1760 C1758 1.415 . S
C1760 C1765 1.425 . S
C1760 C1767 1.409 . S
C1761 H1753 0.930 . S
C1761 C1759 1.419 . S
C1761 C1762 1.362 . S
C1762 H1754 0.930 . S
C1762 C1761 1.362 . S
C1762 C1765 1.409 . S
C1763 H1755 0.930 . S
C1763 C1764 1.355 . S
C1763 C1765 1.415 . S
C1764 C1763 1.355 . S
C1764 C1766 1.419 . S
C1765 C1760 1.425 . S
C1765 C1762 1.409 . S
C1765 C1763 1.415 . S
C1766 H1756 0.930 . S
C1766 C1764 1.419 . S
C1766 C1767 1.362 . S
C1767 H1757 0.930 . S
C1767 C1760 1.409 . S
C1767 C1766 1.362 . S
H1768 C1774 0.930 . S
H1769 C1777 0.930 . S
H1770 C1778 0.930 . S
H1771 C1779 0.930 . S
H1772 C1782 0.930 . S
H1773 C1783 0.930 . S
C1774 H1768 0.930 . S
C1774 C1775 1.355 . S
C1774 C1776 1.415 . S
C1775 C1774 1.355 . S
C1775 C1777 1.419 . S
C1776 C1774 1.415 . S
C1776 C1781 1.425 . S
C1776 C1783 1.409 . S
C1777 H1769 0.930 . S
C1777 C1775 1.419 . S
C1777 C1778 1.362 . S
C1778 H1770 0.930 . S
C1778 C1777 1.362 . S
C1778 C1781 1.409 . S
C1779 H1771 0.930 . S
C1779 C1780 1.355 . S
C1779 C1781 1.415 . S
C1780 C1779 1.355 . S
C1780 C1782 1.419 . S
C1781 C1776 1.425 . S
C1781 C1778 1.409 . S
C1781 C1779 1.415 . S
C1782 H1772 0.930 . S
C1782 C1780 1.419 . S
C1782 C1783 1.362 . S
C1783 H1773 0.930 . S
C1783 C1776 1.409 . S
C1783 C1782 1.362 . S
H1784 C1790 0.930 . S
H1785 C1793 0.930 . S
H1786 C1794 0.930 . S
H1787 C1795 0.930 . S
H1788 C1798 0.930 . S
H1789 C1799 0.930 . S
C1790 H1784 0.930 . S
C1790 C1791 1.355 . S
C1790 C1792 1.415 . S
C1791 C1790 1.355 . S
C1791 C1793 1.419 . S
C1792 C1790 1.415 . S
C1792 C1797 1.425 . S
C1792 C1799 1.409 . S
C1793 H1785 0.930 . S
C1793 C1791 1.419 . S
C1793 C1794 1.362 . S
C1794 H1786 0.930 . S
C1794 C1793 1.362 . S
C1794 C1797 1.409 . S
C1795 H1787 0.930 . S
C1795 C1796 1.355 . S
C1795 C1797 1.415 . S
C1796 C1795 1.355 . S
C1796 C1798 1.419 . S
C1797 C1792 1.425 . S
C1797 C1794 1.409 . S
C1797 C1795 1.415 . S
C1798 H1788 0.930 . S
C1798 C1796 1.419 . S
C1798 C1799 1.362 . S
C1799 H1789 0.930 . S
C1799 C1792 1.409 . S
C1799 C1798 1.362 . S
H1800 C1806 0.930 . S
H1801 C1809 0.930 . S
H1802 C1810 0.930 . S
H1803 C1811 0.930 . S
H1804 C1814 0.930 . S
H1805 C1815 0.930 . S
C1806 H1800 0.930 . S
C1806 C1807 1.355 . S
C1806 C1808 1.415 . S
C1807 C1806 1.355 . S
C1807 C1809 1.419 . S
C1808 C1806 1.415 . S
C1808 C1813 1.425 . S
C1808 C1815 1.409 . S
C1809 H1801 0.930 . S
C1809 C1807 1.419 . S
C1809 C1810 1.362 . S
C1810 H1802 0.930 . S
C1810 C1809 1.362 . S
C1810 C1813 1.409 . S
C1811 H1803 0.930 . S
C1811 C1812 1.355 . S
C1811 C1813 1.415 . S
C1812 C1811 1.355 . S
C1812 C1814 1.419 . S
C1813 C1808 1.425 . S
C1813 C1810 1.409 . S
C1813 C1811 1.415 . S
C1814 H1804 0.930 . S
C1814 C1812 1.419 . S
C1814 C1815 1.362 . S
C1815 H1805 0.930 . S
C1815 C1808 1.409 . S
C1815 C1814 1.362 . S
H1816 C1822 0.930 . S
H1817 C1825 0.930 . S
H1818 C1826 0.930 . S
H1819 C1827 0.930 . S
H1820 C1830 0.930 . S
H1821 C1831 0.930 . S
C1822 H1816 0.930 . S
C1822 C1823 1.355 . S
C1822 C1824 1.415 . S
C1823 C1822 1.355 . S
C1823 C1825 1.419 . S
C1824 C1822 1.415 . S
C1824 C1829 1.425 . S
C1824 C1831 1.409 . S
C1825 H1817 0.930 . S
C1825 C1823 1.419 . S
C1825 C1826 1.362 . S
C1826 H1818 0.930 . S
C1826 C1825 1.362 . S
C1826 C1829 1.409 . S
C1827 H1819 0.930 . S
C1827 C1828 1.355 . S
C1827 C1829 1.415 . S
C1828 C1827 1.355 . S
C1828 C1830 1.419 . S
C1829 C1824 1.425 . S
C1829 C1826 1.409 . S
C1829 C1827 1.415 . S
C1830 H1820 0.930 . S
C1830 C1828 1.419 . S
C1830 C1831 1.362 . S
C1831 H1821 0.930 . S
C1831 C1824 1.409 . S
C1831 C1830 1.362 . S
H1832 C1838 0.930 . S
H1833 C1841 0.930 . S
H1834 C1842 0.930 . S
H1835 C1843 0.930 . S
H1836 C1846 0.930 . S
H1837 C1847 0.930 . S
C1838 H1832 0.930 . S
C1838 C1839 1.355 . S
C1838 C1840 1.415 . S
C1839 C1838 1.355 . S
C1839 C1841 1.419 . S
C1840 C1838 1.415 . S
C1840 C1845 1.425 . S
C1840 C1847 1.409 . S
C1841 H1833 0.930 . S
C1841 C1839 1.419 . S
C1841 C1842 1.362 . S
C1842 H1834 0.930 . S
C1842 C1841 1.362 . S
C1842 C1845 1.409 . S
C1843 H1835 0.930 . S
C1843 C1844 1.355 . S
C1843 C1845 1.415 . S
C1844 C1843 1.355 . S
C1844 C1846 1.419 . S
C1845 C1840 1.425 . S
C1845 C1842 1.409 . S
C1845 C1843 1.415 . S
C1846 H1836 0.930 . S
C1846 C1844 1.419 . S
C1846 C1847 1.362 . S
C1847 H1837 0.930 . S
C1847 C1840 1.409 . S
C1847 C1846 1.362 . S
H1848 C1854 0.930 . S
H1849 C1857 0.930 . S
H1850 C1858 0.930 . S
H1851 C1859 0.930 . S
H1852 C1862 0.930 . S
H1853 C1863 0.930 . S
C1854 H1848 0.930 . S
C1854 C1855 1.355 . S
C1854 C1856 1.415 . S
C1855 C1854 1.355 . S
C1855 C1857 1.419 . S
C1856 C1854 1.415 . S
C1856 C1861 1.425 . S
C1856 C1863 1.409 . S
C1857 H1849 0.930 . S
C1857 C1855 1.419 . S
C1857 C1858 1.362 . S
C1858 H1850 0.930 . S
C1858 C1857 1.362 . S
C1858 C1861 1.409 . S
C1859 H1851 0.930 . S
C1859 C1860 1.355 . S
C1859 C1861 1.415 . S
C1860 C1859 1.355 . S
C1860 C1862 1.419 . S
C1861 C1856 1.425 . S
C1861 C1858 1.409 . S
C1861 C1859 1.415 . S
C1862 H1852 0.930 . S
C1862 C1860 1.419 . S
C1862 C1863 1.362 . S
C1863 H1853 0.930 . S
C1863 C1856 1.409 . S
C1863 C1862 1.362 . S
H1864 C1870 0.930 . S
H1865 C1873 0.930 . S
H1866 C1874 0.930 . S
H1867 C1875 0.930 . S
H1868 C1878 0.930 . S
H1869 C1879 0.930 . S
C1870 H1864 0.930 . S
C1870 C1871 1.355 . S
C1870 C1872 1.415 . S
C1871 C1870 1.355 . S
C1871 C1873 1.419 . S
C1872 C1870 1.415 . S
C1872 C1877 1.425 . S
C1872 C1879 1.409 . S
C1873 H1865 0.930 . S
C1873 C1871 1.419 . S
C1873 C1874 1.362 . S
C1874 H1866 0.930 . S
C1874 C1873 1.362 . S
C1874 C1877 1.409 . S
C1875 H1867 0.930 . S
C1875 C1876 1.355 . S
C1875 C1877 1.415 . S
C1876 C1875 1.355 . S
C1876 C1878 1.419 . S
C1877 C1872 1.425 . S
C1877 C1874 1.409 . S
C1877 C1875 1.415 . S
C1878 H1868 0.930 . S
C1878 C1876 1.419 . S
C1878 C1879 1.362 . S
C1879 H1869 0.930 . S
C1879 C1872 1.409 . S
C1879 C1878 1.362 . S
H1880 C1886 0.930 . S
H1881 C1889 0.930 . S
H1882 C1890 0.930 . S
H1883 C1891 0.930 . S
H1884 C1894 0.930 . S
H1885 C1895 0.930 . S
C1886 H1880 0.930 . S
C1886 C1887 1.355 . S
C1886 C1888 1.415 . S
C1887 C1886 1.355 . S
C1887 C1889 1.419 . S
C1888 C1886 1.415 . S
C1888 C1893 1.425 . S
C1888 C1895 1.409 . S
C1889 H1881 0.930 . S
C1889 C1887 1.419 . S
C1889 C1890 1.362 . S
C1890 H1882 0.930 . S
C1890 C1889 1.362 . S
C1890 C1893 1.409 . S
C1891 H1883 0.930 . S
C1891 C1892 1.355 . S
C1891 C1893 1.415 . S
C1892 C1891 1.355 . S
C1892 C1894 1.419 . S
C1893 C1888 1.425 . S
C1893 C1890 1.409 . S
C1893 C1891 1.415 . S
C1894 H1884 0.930 . S
C1894 C1892 1.419 . S
C1894 C1895 1.362 . S
C1895 H1885 0.930 . S
C1895 C1888 1.409 . S
C1895 C1894 1.362 . S
H1896 C1902 0.930 . S
H1897 C1905 0.930 . S
H1898 C1906 0.930 . S
H1899 C1907 0.930 . S
H1900 C1910 0.930 . S
H1901 C1911 0.930 . S
C1902 H1896 0.930 . S
C1902 C1903 1.355 . S
C1902 C1904 1.415 . S
C1903 C1902 1.355 . S
C1903 C1905 1.419 . S
C1904 C1902 1.415 . S
C1904 C1909 1.425 . S
C1904 C1911 1.409 . S
C1905 H1897 0.930 . S
C1905 C1903 1.419 . S
C1905 C1906 1.362 . S
C1906 H1898 0.930 . S
C1906 C1905 1.362 . S
C1906 C1909 1.409 . S
C1907 H1899 0.930 . S
C1907 C1908 1.355 . S
C1907 C1909 1.415 . S
C1908 C1907 1.355 . S
C1908 C1910 1.419 . S
C1909 C1904 1.425 . S
C1909 C1906 1.409 . S
C1909 C1907 1.415 . S
C1910 H1900 0.930 . S
C1910 C1908 1.419 . S
C1910 C1911 1.362 . S
C1911 H1901 0.930 . S
C1911 C1904 1.409 . S
C1911 C1910 1.362 . S
H1912 C1918 0.930 . S
H1913 C1921 0.930 . S
H1914 C1922 0.930 . S
H1915 C1923 0.930 . S
H1916 C1926 0.930 . S
H1917 C1927 0.930 . S
C1918 H1912 0.930 . S
C1918 C1919 1.355 . S
C1918 C1920 1.415 . S
C1919 C1918 1.355 . S
C1919 C1921 1.419 . S
C1920 C1918 1.415 . S
C1920 C1925 1.425 . S
C1920 C1927 1.409 . S
C1921 H1913 0.930 . S
C1921 C1919 1.419 . S
C1921 C1922 1.362 . S
C1922 H1914 0.930 . S
C1922 C1921 1.362 . S
C1922 C1925 1.409 . S
C1923 H1915 0.930 . S
C1923 C1924 1.355 . S
C1923 C1925 1.415 . S
C1924 C1923 1.355 . S
C1924 C1926 1.419 . S
C1925 C1920 1.425 . S
C1925 C1922 1.409 . S
C1925 C1923 1.415 . S
C1926 H1916 0.930 . S
C1926 C1924 1.419 . S
C1926 C1927 1.362 . S
C1927 H1917 0.930 . S
C1927 C1920 1.409 . S
C1927 C1926 1.362 . S
H1928 C1934 0.930 . S
H1929 C1937 0.930 . S
H1930 C1938 0.930 . S
H1931 C1939 0.930 . S
H1932 C1942 0.930 . S
H1933 C1943 0.930 . S
C1934 H1928 0.930 . S
C1934 C1935 1.355 . S
C1934 C1936 1.415 . S
C1935 C1934 1.355 . S
C1935 C1937 1.419 . S
C1936 C1934 1.415 . S
C1936 C1941 1.425 . S
C1936 C1943 1.409 . S
C1937 H1929 0.930 . S
C1937 C1935 1.419 . S
C1937 C1938 1.362 . S
C1938 H1930 0.930 . S
C1938 C1937 1.362 . S
C1938 C1941 1.409 . S
C1939 H1931 0.930 . S
C1939 C1940 1.355 . S
C1939 C1941 1.415 . S
C1940 C1939 1.355 . S
C1940 C1942 1.419 . S
C1941 C1936 1.425 . S
C1941 C1938 1.409 . S
C1941 C1939 1.415 . S
C1942 H1932 0.930 . S
C1942 C1940 1.419 . S
C1942 C1943 1.362 . S
C1943 H1933 0.930 . S
C1943 C1936 1.409 . S
C1943 C1942 1.362 . S
H1944 C1950 0.930 . S
H1945 C1953 0.930 . S
H1946 C1954 0.930 . S
H1947 C1955 0.930 . S
H1948 C1958 0.930 . S
H1949 C1959 0.930 . S
C1950 H1944 0.930 . S
C1950 C1951 1.355 . S
C1950 C1952 1.415 . S
C1951 C1950 1.355 . S
C1951 C1953 1.419 . S
C1952 C1950 1.415 . S
C1952 C1957 1.425 . S
C1952 C1959 1.409 . S
C1953 H1945 0.930 . S
C1953 C1951 1.419 . S
C1953 C1954 1.362 . S
C1954 H1946 0.930 . S
C1954 C1953 1.362 . S
C1954 C1957 1.409 . S
C1955 H1947 0.930 . S
C1955 C1956 1.355 . S
C1955 C1957 1.415 . S
C1956 C1955 1.355 . S
C1956 C1958 1.419 . S
C1957 C1952 1.425 . S
C1957 C1954 1.409 . S
C1957 C1955 1.415 . S
C1958 H1948 0.930 . S
C1958 C1956 1.419 . S
C1958 C1959 1.362 . S
C1959 H1949 0.930 . S
C1959 C1952 1.409 . S
C1959 C1958 1.362 . S
H1960 C1966 0.930 . S
H1961 C1969 0.930 . S
H1962 C1970 0.930 . S
H1963 C1971 0.930 . S
H1964 C1974 0.930 . S
H1965 C1975 0.930 . S
C1966 H1960 0.930 . S
C1966 C1967 1.355 . S
C1966 C1968 1.415 . S
C1967 C1966 1.355 . S
C1967 C1969 1.419 . S
C1968 C1966 1.415 . S
C1968 C1973 1.425 . S
C1968 C1975 1.409 . S
C1969 H1961 0.930 . S
C1969 C1967 1.419 . S
C1969 C1970 1.362 . S
C1970 H1962 0.930 . S
C1970 C1969 1.362 . S
C1970 C1973 1.409 . S
C1971 H1963 0.930 . S
C1971 C1972 1.355 . S
C1971 C1973 1.415 . S
C1972 C1971 1.355 . S
C1972 C1974 1.419 . S
C1973 C1968 1.425 . S
C1973 C1970 1.409 . S
C1973 C1971 1.415 . S
C1974 H1964 0.930 . S
C1974 C1972 1.419 . S
C1974 C1975 1.362 . S
C1975 H1965 0.930 . S
C1975 C1968 1.409 . S
C1975 C1974 1.362 . S
H1976 C1982 0.930 . S
H1977 C1985 0.930 . S
H1978 C1986 0.930 . S
H1979 C1987 0.930 . S
H1980 C1990 0.930 . S
H1981 C1991 0.930 . S
C1982 H1976 0.930 . S
C1982 C1983 1.355 . S
C1982 C1984 1.415 . S
C1983 C1982 1.355 . S
C1983 C1985 1.419 . S
C1984 C1982 1.415 . S
C1984 C1989 1.425 . S
C1984 C1991 1.409 . S
C1985 H1977 0.930 . S
C1985 C1983 1.419 . S
C1985 C1986 1.362 . S
C1986 H1978 0.930 . S
C1986 C1985 1.362 . S
C1986 C1989 1.409 . S
C1987 H1979 0.930 . S
C1987 C1988 1.355 . S
C1987 C1989 1.415 . S
C1988 C1987 1.355 . S
C1988 C1990 1.419 . S
C1989 C1984 1.425 . S
C1989 C1986 1.409 . S
C1989 C1987 1.415 . S
C1990 H1980 0.930 . S
C1990 C1988 1.419 . S
C1990 C1991 1.362 . S
C1991 H1981 0.930 . S
C1991 C1984 1.409 . S
C1991 C1990 1.362 . S
H1992 C1998 0.930 . S
H1993 C2001 0.930 . S
H1994 C2002 0.930 . S
H1995 C2003 0.930 . S
H1996 C2006 0.930 . S
H1997 C2007 0.930 . S
C1998 H1992 0.930 . S
C1998 C1999 1.355 . S
C1998 C2000 1.415 . S
C1999 C1998 1.355 . S
C1999 C2001 1.419 . S
C2000 C1998 1.415 . S
C2000 C2005 1.425 . S
C2000 C2007 1.409 . S
C2001 H1993 0.930 . S
C2001 C1999 1.419 . S
C2001 C2002 1.362 . S
C2002 H1994 0.930 . S
C2002 C2001 1.362 . S
C2002 C2005 1.409 . S
C2003 H1995 0.930 . S
C2003 C2004 1.355 . S
C2003 C2005 1.415 . S
C2004 C2003 1.355 . S
C2004 C2006 1.419 . S
C2005 C2000 1.425 . S
C2005 C2002 1.409 . S
C2005 C2003 1.415 . S
C2006 H1996 0.930 . S
C2006 C2004 1.419 . S
C2006 C2007 1.362 . S
C2007 H1997 0.930 . S
C2007 C2000 1.409 . S
C2007 C2006 1.362 . S
H2008 C2014 0.930 . S
H2009 C2017 0.930 . S
H2010 C2018 0.930 . S
H2011 C2019 0.930 . S
H2012 C2022 0.930 . S
H2013 C2023 0.930 . S
C2014 H2008 0.930 . S
C2014 C2015 1.355 . S
C2014 C2016 1.415 . S
C2015 C2014 1.355 . S
C2015 C2017 1.419 . S
C2016 C2014 1.415 . S
C2016 C2021 1.425 . S
C2016 C2023 1.409 . S
C2017 H2009 0.930 . S
C2017 C2015 1.419 . S
C2017 C2018 1.362 . S
C2018 H2010 0.930 . S
C2018 C2017 1.362 . S
C2018 C2021 1.409 . S
C2019 H2011 0.930 . S
C2019 C2020 1.355 . S
C2019 C2021 1.415 . S
C2020 C2019 1.355 . S
C2020 C2022 1.419 . S
C2021 C2016 1.425 . S
C2021 C2018 1.409 . S
C2021 C2019 1.415 . S
C2022 H2012 0.930 . S
C2022 C2020 1.419 . S
C2022 C2023 1.362 . S
C2023 H2013 0.930 . S
C2023 C2016 1.409 . S
C2023 C2022 1.362 . S
H2024 C2030 0.930 . S
H2025 C2033 0.930 . S
H2026 C2034 0.930 . S
H2027 C2035 0.930 . S
H2028 C2038 0.930 . S
H2029 C2039 0.930 . S
C2030 H2024 0.930 . S
C2030 C2031 1.355 . S
C2030 C2032 1.415 . S
C2031 C2030 1.355 . S
C2031 C2033 1.419 . S
C2032 C2030 1.415 . S
C2032 C2037 1.425 . S
C2032 C2039 1.409 . S
C2033 H2025 0.930 . S
C2033 C2031 1.419 . S
C2033 C2034 1.362 . S
C2034 H2026 0.930 . S
C2034 C2033 1.362 . S
C2034 C2037 1.409 . S
C2035 H2027 0.930 . S
C2035 C2036 1.355 . S
C2035 C2037 1.415 . S
C2036 C2035 1.355 . S
C2036 C2038 1.419 . S
C2037 C2032 1.425 . S
C2037 C2034 1.409 . S
C2037 C2035 1.415 . S
C2038 H2028 0.930 . S
C2038 C2036 1.419 . S
C2038 C2039 1.362 . S
C2039 H2029 0.930 . S
C2039 C2032 1.409 . S
C2039 C2038 1.362 . S
H2040 C2046 0.930 . S
H2041 C2049 0.930 . S
H2042 C2050 0.930 . S
H2043 C2051 0.930 . S
H2044 C2054 0.930 . S
H2045 C2055 0.930 . S
C2046 H2040 0.930 . S
C2046 C2047 1.355 . S
C2046 C2048 1.415 . S
C2047 C2046 1.355 . S
C2047 C2049 1.419 . S
C2048 C2046 1.415 . S
C2048 C2053 1.425 . S
C2048 C2055 1.409 . S
C2049 H2041 0.930 . S
C2049 C2047 1.419 . S
C2049 C2050 1.362 . S
C2050 H2042 0.930 . S
C2050 C2049 1.362 . S
C2050 C2053 1.409 . S
C2051 H2043 0.930 . S
C2051 C2052 1.355 . S
C2051 C2053 1.415 . S
C2052 C2051 1.355 . S
C2052 C2054 1.419 . S
C2053 C2048 1.425 . S
C2053 C2050 1.409 . S
C2053 C2051 1.415 . S
C2054 H2044 0.930 . S
C2054 C2052 1.419 . S
C2054 C2055 1.362 . S
C2055 H2045 0.930 . S
C2055 C2048 1.409 . S
C2055 C2054 1.362 . S
H2056 C2062 0.930 . S
H2057 C2065 0.930 . S
H2058 C2066 0.930 . S
H2059 C2067 0.930 . S
H2060 C2070 0.930 . S
H2061 C2071 0.930 . S
C2062 H2056 0.930 . S
C2062 C2063 1.355 . S
C2062 C2064 1.415 . S
C2063 C2062 1.355 . S
C2063 C2065 1.419 . S
C2064 C2062 1.415 . S
C2064 C2069 1.425 . S
C2064 C2071 1.409 . S
C2065 H2057 0.930 . S
C2065 C2063 1.419 . S
C2065 C2066 1.362 . S
C2066 H2058 0.930 . S
C2066 C2065 1.362 . S
C2066 C2069 1.409 . S
C2067 H2059 0.930 . S
C2067 C2068 1.355 . S
C2067 C2069 1.415 . S
C2068 C2067 1.355 . S
C2068 C2070 1.419 . S
C2069 C2064 1.425 . S
C2069 C2066 1.409 . S
C2069 C2067 1.415 . S
C2070 H2060 0.930 . S
C2070 C2068 1.419 . S
C2070 C2071 1.362 . S
C2071 H2061 0.930 . S
C2071 C2064 1.409 . S
C2071 C2070 1.362 . S
H2072 C2078 0.930 . S
H2073 C2081 0.930 . S
H2074 C2082 0.930 . S
H2075 C2083 0.930 . S
H2076 C2086 0.930 . S
H2077 C2087 0.930 . S
C2078 H2072 0.930 . S
C2078 C2079 1.355 . S
C2078 C2080 1.415 . S
C2079 C2078 1.355 . S
C2079 C2081 1.419 . S
C2080 C2078 1.415 . S
C2080 C2085 1.425 . S
C2080 C2087 1.409 . S
C2081 H2073 0.930 . S
C2081 C2079 1.419 . S
C2081 C2082 1.362 . S
C2082 H2074 0.930 . S
C2082 C2081 1.362 . S
C2082 C2085 1.409 . S
C2083 H2075 0.930 . S
C2083 C2084 1.355 . S
C2083 C2085 1.415 . S
C2084 C2083 1.355 . S
C2084 C2086 1.419 . S
C2085 C2080 1.425 . S
C2085 C2082 1.409 . S
C2085 C2083 1.415 . S
C2086 H2076 0.930 . S
C2086 C2084 1.419 . S
C2086 C2087 1.362 . S
C2087 H2077 0.930 . S
C2087 C2080 1.409 . S
C2087 C2086 1.362 . S
H2088 C2094 0.930 . S
H2089 C2097 0.930 . S
H2090 C2098 0.930 . S
H2091 C2099 0.930 . S
H2092 C2102 0.930 . S
H2093 C2103 0.930 . S
C2094 H2088 0.930 . S
C2094 C2095 1.355 . S
C2094 C2096 1.415 . S
C2095 C2094 1.355 . S
C2095 C2097 1.419 . S
C2096 C2094 1.415 . S
C2096 C2101 1.425 . S
C2096 C2103 1.409 . S
C2097 H2089 0.930 . S
C2097 C2095 1.419 . S
C2097 C2098 1.362 . S
C2098 H2090 0.930 . S
C2098 C2097 1.362 . S
C2098 C2101 1.409 . S
C2099 H2091 0.930 . S
C2099 C2100 1.355 . S
C2099 C2101 1.415 . S
C2100 C2099 1.355 . S
C2100 C2102 1.419 . S
C2101 C2096 1.425 . S
C2101 C2098 1.409 . S
C2101 C2099 1.415 . S
C2102 H2092 0.930 . S
C2102 C2100 1.419 . S
C2102 C2103 1.362 . S
C2103 H2093 0.930 . S
C2103 C2096 1.409 . S
C2103 C2102 1.362 . S
H2104 C2110 0.930 . S
H2105 C2113 0.930 . S
H2106 C2114 0.930 . S
H2107 C2115 0.930 . S
H2108 C2118 0.930 . S
H2109 C2119 0.930 . S
C2110 H2104 0.930 . S
C2110 C2111 1.355 . S
C2110 C2112 1.415 . S
C2111 C2110 1.355 . S
C2111 C2113 1.419 . S
C2112 C2110 1.415 . S
C2112 C2117 1.425 . S
C2112 C2119 1.409 . S
C2113 H2105 0.930 . S
C2113 C2111 1.419 . S
C2113 C2114 1.362 . S
C2114 H2106 0.930 . S
C2114 C2113 1.362 . S
C2114 C2117 1.409 . S
C2115 H2107 0.930 . S
C2115 C2116 1.355 . S
C2115 C2117 1.415 . S
C2116 C2115 1.355 . S
C2116 C2118 1.419 . S
C2117 C2112 1.425 . S
C2117 C2114 1.409 . S
C2117 C2115 1.415 . S
C2118 H2108 0.930 . S
C2118 C2116 1.419 . S
C2118 C2119 1.362 . S
C2119 H2109 0.930 . S
C2119 C2112 1.409 . S
C2119 C2118 1.362 . S
H2120 C2126 0.930 . S
H2121 C2129 0.930 . S
H2122 C2130 0.930 . S
H2123 C2131 0.930 . S
H2124 C2134 0.930 . S
H2125 C2135 0.930 . S
C2126 H2120 0.930 . S
C2126 C2127 1.355 . S
C2126 C2128 1.415 . S
C2127 C2126 1.355 . S
C2127 C2129 1.419 . S
C2128 C2126 1.415 . S
C2128 C2133 1.425 . S
C2128 C2135 1.409 . S
C2129 H2121 0.930 . S
C2129 C2127 1.419 . S
C2129 C2130 1.362 . S
C2130 H2122 0.930 . S
C2130 C2129 1.362 . S
C2130 C2133 1.409 . S
C2131 H2123 0.930 . S
C2131 C2132 1.355 . S
C2131 C2133 1.415 . S
C2132 C2131 1.355 . S
C2132 C2134 1.419 . S
C2133 C2128 1.425 . S
C2133 C2130 1.409 . S
C2133 C2131 1.415 . S
C2134 H2124 0.930 . S
C2134 C2132 1.419 . S
C2134 C2135 1.362 . S
C2135 H2125 0.930 . S
C2135 C2128 1.409 . S
C2135 C2134 1.362 . S
H2136 C2142 0.930 . S
H2137 C2145 0.930 . S
H2138 C2146 0.930 . S
H2139 C2147 0.930 . S
H2140 C2150 0.930 . S
H2141 C2151 0.930 . S
C2142 H2136 0.930 . S
C2142 C2143 1.355 . S
C2142 C2144 1.415 . S
C2143 C2142 1.355 . S
C2143 C2145 1.419 . S
C2144 C2142 1.415 . S
C2144 C2149 1.425 . S
C2144 C2151 1.409 . S
C2145 H2137 0.930 . S
C2145 C2143 1.419 . S
C2145 C2146 1.362 . S
C2146 H2138 0.930 . S
C2146 C2145 1.362 . S
C2146 C2149 1.409 . S
C2147 H2139 0.930 . S
C2147 C2148 1.355 . S
C2147 C2149 1.415 . S
C2148 C2147 1.355 . S
C2148 C2150 1.419 . S
C2149 C2144 1.425 . S
C2149 C2146 1.409 . S
C2149 C2147 1.415 . S
C2150 H2140 0.930 . S
C2150 C2148 1.419 . S
C2150 C2151 1.362 . S
C2151 H2141 0.930 . S
C2151 C2144 1.409 . S
C2151 C2150 1.362 . S
H2152 C2158 0.930 . S
H2153 C2161 0.930 . S
H2154 C2162 0.930 . S
H2155 C2163 0.930 . S
H2156 C2166 0.930 . S
H2157 C2167 0.930 . S
C2158 H2152 0.930 . S
C2158 C2159 1.355 . S
C2158 C2160 1.415 . S
C2159 C2158 1.355 . S
C2159 C2161 1.419 . S
C2160 C2158 1.415 . S
C2160 C2165 1.425 . S
C2160 C2167 1.409 . S
C2161 H2153 0.930 . S
C2161 C2159 1.419 . S
C2161 C2162 1.362 . S
C2162 H2154 0.930 . S
C2162 C2161 1.362 . S
C2162 C2165 1.409 . S
C2163 H2155 0.930 . S
C2163 C2164 1.355 . S
C2163 C2165 1.415 . S
C2164 C2163 1.355 . S
C2164 C2166 1.419 . S
C2165 C2160 1.425 . S
C2165 C2162 1.409 . S
C2165 C2163 1.415 . S
C2166 H2156 0.930 . S
C2166 C2164 1.419 . S
C2166 C2167 1.362 . S
C2167 H2157 0.930 . S
C2167 C2160 1.409 . S
C2167 C2166 1.362 . S
H2168 C2174 0.930 . S
H2169 C2177 0.930 . S
H2170 C2178 0.930 . S
H2171 C2179 0.930 . S
H2172 C2182 0.930 . S
H2173 C2183 0.930 . S
C2174 H2168 0.930 . S
C2174 C2175 1.355 . S
C2174 C2176 1.415 . S
C2175 C2174 1.355 . S
C2175 C2177 1.419 . S
C2176 C2174 1.415 . S
C2176 C2181 1.425 . S
C2176 C2183 1.409 . S
C2177 H2169 0.930 . S
C2177 C2175 1.419 . S
C2177 C2178 1.362 . S
C2178 H2170 0.930 . S
C2178 C2177 1.362 . S
C2178 C2181 1.409 . S
C2179 H2171 0.930 . S
C2179 C2180 1.355 . S
C2179 C2181 1.415 . S
C2180 C2179 1.355 . S
C2180 C2182 1.419 . S
C2181 C2176 1.425 . S
C2181 C2178 1.409 . S
C2181 C2179 1.415 . S
C2182 H2172 0.930 . S
C2182 C2180 1.419 . S
C2182 C2183 1.362 . S
C2183 H2173 0.930 . S
C2183 C2176 1.409 . S
C2183 C2182 1.362 . S
H2184 C2190 0.930 . S
H2185 C2193 0.930 . S
H2186 C2194 0.930 . S
H2187 C2195 0.930 . S
H2188 C2198 0.930 . S
H2189 C2199 0.930 . S
C2190 H2184 0.930 . S
C2190 C2191 1.355 . S
C2190 C2192 1.415 . S
C2191 C2190 1.355 . S
C2191 C2193 1.419 . S
C2192 C2190 1.415 . S
C2192 C2197 1.425 . S
C2192 C2199 1.409 . S
C2193 H2185 0.930 . S
C2193 C2191 1.419 . S
C2193 C2194 1.362 . S
C2194 H2186 0.930 . S
C2194 C2193 1.362 . S
C2194 C2197 1.409 . S
C2195 H2187 0.930 . S
C2195 C2196 1.355 . S
C2195 C2197 1.415 . S
C2196 C2195 1.355 . S
C2196 C2198 1.419 . S
C2197 C2192 1.425 . S
C2197 C2194 1.409 . S
C2197 C2195 1.415 . S
C2198 H2188 0.930 . S
C2198 C2196 1.419 . S
C2198 C2199 1.362 . S
C2199 H2189 0.930 . S
C2199 C2192 1.409 . S
C2199 C2198 1.362 . S
H2200 C2206 0.930 . S
H2201 C2209 0.930 . S
H2202 C2210 0.930 . S
H2203 C2211 0.930 . S
H2204 C2214 0.930 . S
H2205 C2215 0.930 . S
C2206 H2200 0.930 . S
C2206 C2207 1.355 . S
C2206 C2208 1.415 . S
C2207 C2206 1.355 . S
C2207 C2209 1.419 . S
C2208 C2206 1.415 . S
C2208 C2213 1.425 . S
C2208 C2215 1.409 . S
C2209 H2201 0.930 . S
C2209 C2207 1.419 . S
C2209 C2210 1.362 . S
C2210 H2202 0.930 . S
C2210 C2209 1.362 . S
C2210 C2213 1.409 . S
C2211 H2203 0.930 . S
C2211 C2212 1.355 . S
C2211 C2213 1.415 . S
C2212 C2211 1.355 . S
C2212 C2214 1.419 . S
C2213 C2208 1.425 . S
C2213 C2210 1.409 . S
C2213 C2211 1.415 . S
C2214 H2204 0.930 . S
C2214 C2212 1.419 . S
C2214 C2215 1.362 . S
C2215 H2205 0.930 . S
C2215 C2208 1.409 . S
C2215 C2214 1.362 . S
H2216 C2222 0.930 . S
H2217 C2225 0.930 . S
H2218 C2226 0.930 . S
H2219 C2227 0.930 . S
H2220 C2230 0.930 . S
H2221 C2231 0.930 . S
C2222 H2216 0.930 . S
C2222 C2223 1.355 . S
C2222 C2224 1.415 . S
C2223 C2222 1.355 . S
C2223 C2225 1.419 . S
C2224 C2222 1.415 . S
C2224 C2229 1.425 . S
C2224 C2231 1.409 . S
C2225 H2217 0.930 . S
C2225 C2223 1.419 . S
C2225 C2226 1.362 . S
C2226 H2218 0.930 . S
C2226 C2225 1.362 . S
C2226 C2229 1.409 . S
C2227 H2219 0.930 . S
C2227 C2228 1.355 . S
C2227 C2229 1.415 . S
C2228 C2227 1.355 . S
C2228 C2230 1.419 . S
C2229 C2224 1.425 . S
C2229 C2226 1.409 . S
C2229 C2227 1.415 . S
C2230 H2220 0.930 . S
C2230 C2228 1.419 . S
C2230 C2231 1.362 . S
C2231 H2221 0.930 . S
C2231 C2224 1.409 . S
C2231 C2230 1.362 . S
H2232 C2238 0.930 . S
H2233 C2241 0.930 . S
H2234 C2242 0.930 . S
H2235 C2243 0.930 . S
H2236 C2246 0.930 . S
H2237 C2247 0.930 . S
C2238 H2232 0.930 . S
C2238 C2239 1.355 . S
C2238 C2240 1.415 . S
C2239 C2238 1.355 . S
C2239 C2241 1.419 . S
C2240 C2238 1.415 . S
C2240 C2245 1.425 . S
C2240 C2247 1.409 . S
C2241 H2233 0.930 . S
C2241 C2239 1.419 . S
C2241 C2242 1.362 . S
C2242 H2234 0.930 . S
C2242 C2241 1.362 . S
C2242 C2245 1.409 . S
C2243 H2235 0.930 . S
C2243 C2244 1.355 . S
C2243 C2245 1.415 . S
C2244 C2243 1.355 . S
C2244 C2246 1.419 . S
C2245 C2240 1.425 . S
C2245 C2242 1.409 . S
C2245 C2243 1.415 . S
C2246 H2236 0.930 . S
C2246 C2244 1.419 . S
C2246 C2247 1.362 . S
C2247 H2237 0.930 . S
C2247 C2240 1.409 . S
C2247 C2246 1.362 . S
H2248 C2254 0.930 . S
H2249 C2257 0.930 . S
H2250 C2258 0.930 . S
H2251 C2259 0.930 . S
H2252 C2262 0.930 . S
H2253 C2263 0.930 . S
C2254 H2248 0.930 . S
C2254 C2255 1.355 . S
C2254 C2256 1.415 . S
C2255 C2254 1.355 . S
C2255 C2257 1.419 . S
C2256 C2254 1.415 . S
C2256 C2261 1.425 . S
C2256 C2263 1.409 . S
C2257 H2249 0.930 . S
C2257 C2255 1.419 . S
C2257 C2258 1.362 . S
C2258 H2250 0.930 . S
C2258 C2257 1.362 . S
C2258 C2261 1.409 . S
C2259 H2251 0.930 . S
C2259 C2260 1.355 . S
C2259 C2261 1.415 . S
C2260 C2259 1.355 . S
C2260 C2262 1.419 . S
C2261 C2256 1.425 . S
C2261 C2258 1.409 . S
C2261 C2259 1.415 . S
C2262 H2252 0.930 . S
C2262 C2260 1.419 . S
C2262 C2263 1.362 . S
C2263 H2253 0.930 . S
C2263 C2256 1.409 . S
C2263 C2262 1.362 . S
H2264 C2270 0.930 . S
H2265 C2273 0.930 . S
H2266 C2274 0.930 . S
H2267 C2275 0.930 . S
H2268 C2278 0.930 . S
H2269 C2279 0.930 . S
C2270 H2264 0.930 . S
C2270 C2271 1.355 . S
C2270 C2272 1.415 . S
C2271 C2270 1.355 . S
C2271 C2273 1.419 . S
C2272 C2270 1.415 . S
C2272 C2277 1.425 . S
C2272 C2279 1.409 . S
C2273 H2265 0.930 . S
C2273 C2271 1.419 . S
C2273 C2274 1.362 . S
C2274 H2266 0.930 . S
C2274 C2273 1.362 . S
C2274 C2277 1.409 . S
C2275 H2267 0.930 . S
C2275 C2276 1.355 . S
C2275 C2277 1.415 . S
C2276 C2275 1.355 . S
C2276 C2278 1.419 . S
C2277 C2272 1.425 . S
C2277 C2274 1.409 . S
C2277 C2275 1.415 . S
C2278 H2268 0.930 . S
C2278 C2276 1.419 . S
C2278 C2279 1.362 . S
C2279 H2269 0.930 . S
C2279 C2272 1.409 . S
C2279 C2278 1.362 . S
H2280 C2286 0.930 . S
H2281 C2289 0.930 . S
H2282 C2290 0.930 . S
H2283 C2291 0.930 . S
H2284 C2294 0.930 . S
H2285 C2295 0.930 . S
C2286 H2280 0.930 . S
C2286 C2287 1.355 . S
C2286 C2288 1.415 . S
C2287 C2286 1.355 . S
C2287 C2289 1.419 . S
C2288 C2286 1.415 . S
C2288 C2293 1.425 . S
C2288 C2295 1.409 . S
C2289 H2281 0.930 . S
C2289 C2287 1.419 . S
C2289 C2290 1.362 . S
C2290 H2282 0.930 . S
C2290 C2289 1.362 . S
C2290 C2293 1.409 . S
C2291 H2283 0.930 . S
C2291 C2292 1.355 . S
C2291 C2293 1.415 . S
C2292 C2291 1.355 . S
C2292 C2294 1.419 . S
C2293 C2288 1.425 . S
C2293 C2290 1.409 . S
C2293 C2291 1.415 . S
C2294 H2284 0.930 . S
C2294 C2292 1.419 . S
C2294 C2295 1.362 . S
C2295 H2285 0.930 . S
C2295 C2288 1.409 . S
C2295 C2294 1.362 . S
H2296 C2302 0.930 . S
H2297 C2305 0.930 . S
H2298 C2306 0.930 . S
H2299 C2307 0.930 . S
H2300 C2310 0.930 . S
H2301 C2311 0.930 . S
C2302 H2296 0.930 . S
C2302 C2303 1.355 . S
C2302 C2304 1.415 . S
C2303 C2302 1.355 . S
C2303 C2305 1.419 . S
C2304 C2302 1.415 . S
C2304 C2309 1.425 . S
C2304 C2311 1.409 . S
C2305 H2297 0.930 . S
C2305 C2303 1.419 . S
C2305 C2306 1.362 . S
C2306 H2298 0.930 . S
C2306 C2305 1.362 . S
C2306 C2309 1.409 . S
C2307 H2299 0.930 . S
C2307 C2308 1.355 . S
C2307 C2309 1.415 . S
C2308 C2307 1.355 . S
C2308 C2310 1.419 . S
C2309 C2304 1.425 . S
C2309 C2306 1.409 . S
C2309 C2307 1.415 . S
C2310 H2300 0.930 . S
C2310 C2308 1.419 . S
C2310 C2311 1.362 . S
C2311 H2301 0.930 . S
C2311 C2304 1.409 . S
C2311 C2310 1.362 . S
H2312 C2318 0.930 . S
H2313 C2321 0.930 . S
H2314 C2322 0.930 . S
H2315 C2323 0.930 . S
H2316 C2326 0.930 . S
H2317 C2327 0.930 . S
C2318 H2312 0.930 . S
C2318 C2319 1.355 . S
C2318 C2320 1.415 . S
C2319 C2318 1.355 . S
C2319 C2321 1.419 . S
C2320 C2318 1.415 . S
C2320 C2325 1.425 . S
C2320 C2327 1.409 . S
C2321 H2313 0.930 . S
C2321 C2319 1.419 . S
C2321 C2322 1.362 . S
C2322 H2314 0.930 . S
C2322 C2321 1.362 . S
C2322 C2325 1.409 . S
C2323 H2315 0.930 . S
C2323 C2324 1.355 . S
C2323 C2325 1.415 . S
C2324 C2323 1.355 . S
C2324 C2326 1.419 . S
C2325 C2320 1.425 . S
C2325 C2322 1.409 . S
C2325 C2323 1.415 . S
C2326 H2316 0.930 . S
C2326 C2324 1.419 . S
C2326 C2327 1.362 . S
C2327 H2317 0.930 . S
C2327 C2320 1.409 . S
C2327 C2326 1.362 . S
H2328 C2334 0.930 . S
H2329 C2337 0.930 . S
H2330 C2338 0.930 . S
H2331 C2339 0.930 . S
H2332 C2342 0.930 . S
H2333 C2343 0.930 . S
C2334 H2328 0.930 . S
C2334 C2335 1.355 . S
C2334 C2336 1.415 . S
C2335 C2334 1.355 . S
C2335 C2337 1.419 . S
C2336 C2334 1.415 . S
C2336 C2341 1.425 . S
C2336 C2343 1.409 . S
C2337 H2329 0.930 . S
C2337 C2335 1.419 . S
C2337 C2338 1.362 . S
C2338 H2330 0.930 . S
C2338 C2337 1.362 . S
C2338 C2341 1.409 . S
C2339 H2331 0.930 . S
C2339 C2340 1.355 . S
C2339 C2341 1.415 . S
C2340 C2339 1.355 . S
C2340 C2342 1.419 . S
C2341 C2336 1.425 . S
C2341 C2338 1.409 . S
C2341 C2339 1.415 . S
C2342 H2332 0.930 . S
C2342 C2340 1.419 . S
C2342 C2343 1.362 . S
C2343 H2333 0.930 . S
C2343 C2336 1.409 . S
C2343 C2342 1.362 . S
H2344 C2350 0.930 . S
H2345 C2353 0.930 . S
H2346 C2354 0.930 . S
H2347 C2355 0.930 . S
H2348 C2358 0.930 . S
H2349 C2359 0.930 . S
C2350 H2344 0.930 . S
C2350 C2351 1.355 . S
C2350 C2352 1.415 . S
C2351 C2350 1.355 . S
C2351 C2353 1.419 . S
C2352 C2350 1.415 . S
C2352 C2357 1.425 . S
C2352 C2359 1.409 . S
C2353 H2345 0.930 . S
C2353 C2351 1.419 . S
C2353 C2354 1.362 . S
C2354 H2346 0.930 . S
C2354 C2353 1.362 . S
C2354 C2357 1.409 . S
C2355 H2347 0.930 . S
C2355 C2356 1.355 . S
C2355 C2357 1.415 . S
C2356 C2355 1.355 . S
C2356 C2358 1.419 . S
C2357 C2352 1.425 . S
C2357 C2354 1.409 . S
C2357 C2355 1.415 . S
C2358 H2348 0.930 . S
C2358 C2356 1.419 . S
C2358 C2359 1.362 . S
C2359 H2349 0.930 . S
C2359 C2352 1.409 . S
C2359 C2358 1.362 . S
H2360 C2366 0.930 . S
H2361 C2369 0.930 . S
H2362 C2370 0.930 . S
H2363 C2371 0.930 . S
H2364 C2374 0.930 . S
H2365 C2375 0.930 . S
C2366 H2360 0.930 . S
C2366 C2367 1.355 . S
C2366 C2368 1.415 . S
C2367 C2366 1.355 . S
C2367 C2369 1.419 . S
C2368 C2366 1.415 . S
C2368 C2373 1.425 . S
C2368 C2375 1.409 . S
C2369 H2361 0.930 . S
C2369 C2367 1.419 . S
C2369 C2370 1.362 . S
C2370 H2362 0.930 . S
C2370 C2369 1.362 . S
C2370 C2373 1.409 . S
C2371 H2363 0.930 . S
C2371 C2372 1.355 . S
C2371 C2373 1.415 . S
C2372 C2371 1.355 . S
C2372 C2374 1.419 . S
C2373 C2368 1.425 . S
C2373 C2370 1.409 . S
C2373 C2371 1.415 . S
C2374 H2364 0.930 . S
C2374 C2372 1.419 . S
C2374 C2375 1.362 . S
C2375 H2365 0.930 . S
C2375 C2368 1.409 . S
C2375 C2374 1.362 . S
H2376 C2382 0.930 . S
H2377 C2385 0.930 . S
H2378 C2386 0.930 . S
H2379 C2387 0.930 . S
H2380 C2390 0.930 . S
H2381 C2391 0.930 . S
C2382 H2376 0.930 . S
C2382 C2383 1.355 . S
C2382 C2384 1.415 . S
C2383 C2382 1.355 . S
C2383 C2385 1.419 . S
C2384 C2382 1.415 . S
C2384 C2389 1.425 . S
C2384 C2391 1.409 . S
C2385 H2377 0.930 . S
C2385 C2383 1.419 . S
C2385 C2386 1.362 . S
C2386 H2378 0.930 . S
C2386 C2385 1.362 . S
C2386 C2389 1.409 . S
C2387 H2379 0.930 . S
C2387 C2388 1.355 . S
C2387 C2389 1.415 . S
C2388 C2387 1.355 . S
C2388 C2390 1.419 . S
C2389 C2384 1.425 . S
C2389 C2386 1.409 . S
C2389 C2387 1.415 . S
C2390 H2380 0.930 . S
C2390 C2388 1.419 . S
C2390 C2391 1.362 . S
C2391 H2381 0.930 . S
C2391 C2384 1.409 . S
C2391 C2390 1.362 . S
H2392 C2398 0.930 . S
H2393 C2401 0.930 . S
H2394 C2402 0.930 . S
H2395 C2403 0.930 . S
H2396 C2406 0.930 . S
H2397 C2407 0.930 . S
C2398 H2392 0.930 . S
C2398 C2399 1.355 . S
C2398 C2400 1.415 . S
C2399 C2398 1.355 . S
C2399 C2401 1.419 . S
C2400 C2398 1.415 . S
C2400 C2405 1.425 . S
C2400 C2407 1.409 . S
C2401 H2393 0.930 . S
C2401 C2399 1.419 . S
C2401 C2402 1.362 . S
C2402 H2394 0.930 . S
C2402 C2401 1.362 . S
C2402 C2405 1.409 . S
C2403 H2395 0.930 . S
C2403 C2404 1.355 . S
C2403 C2405 1.415 . S
C2404 C2403 1.355 . S
C2404 C2406 1.419 . S
C2405 C2400 1.425 . S
C2405 C2402 1.409 . S
C2405 C2403 1.415 . S
C2406 H2396 0.930 . S
C2406 C2404 1.419 . S
C2406 C2407 1.362 . S
C2407 H2397 0.930 . S
C2407 C2400 1.409 . S
C2407 C2406 1.362 . S
H2408 C2414 0.930 . S
H2409 C2417 0.930 . S
H2410 C2418 0.930 . S
H2411 C2419 0.930 . S
H2412 C2422 0.930 . S
H2413 C2423 0.930 . S
C2414 H2408 0.930 . S
C2414 C2415 1.355 . S
C2414 C2416 1.415 . S
C2415 C2414 1.355 . S
C2415 C2417 1.419 . S
C2416 C2414 1.415 . S
C2416 C2421 1.425 . S
C2416 C2423 1.409 . S
C2417 H2409 0.930 . S
C2417 C2415 1.419 . S
C2417 C2418 1.362 . S
C2418 H2410 0.930 . S
C2418 C2417 1.362 . S
C2418 C2421 1.409 . S
C2419 H2411 0.930 . S
C2419 C2420 1.355 . S
C2419 C2421 1.415 . S
C2420 C2419 1.355 . S
C2420 C2422 1.419 . S
C2421 C2416 1.425 . S
C2421 C2418 1.409 . S
C2421 C2419 1.415 . S
C2422 H2412 0.930 . S
C2422 C2420 1.419 . S
C2422 C2423 1.362 . S
C2423 H2413 0.930 . S
C2423 C2416 1.409 . S
C2423 C2422 1.362 . S
H2424 C2430 0.930 . S
H2425 C2433 0.930 . S
H2426 C2434 0.930 . S
H2427 C2435 0.930 . S
H2428 C2438 0.930 . S
H2429 C2439 0.930 . S
C2430 H2424 0.930 . S
C2430 C2431 1.355 . S
C2430 C2432 1.415 . S
C2431 C2430 1.355 . S
C2431 C2433 1.419 . S
C2432 C2430 1.415 . S
C2432 C2437 1.425 . S
C2432 C2439 1.409 . S
C2433 H2425 0.930 . S
C2433 C2431 1.419 . S
C2433 C2434 1.362 . S
C2434 H2426 0.930 . S
C2434 C2433 1.362 . S
C2434 C2437 1.409 . S
C2435 H2427 0.930 . S
C2435 C2436 1.355 . S
C2435 C2437 1.415 . S
C2436 C2435 1.355 . S
C2436 C2438 1.419 . S
C2437 C2432 1.425 . S
C2437 C2434 1.409 . S
C2437 C2435 1.415 . S
C2438 H2428 0.930 . S
C2438 C2436 1.419 . S
C2438 C2439 1.362 . S
C2439 H2429 0.930 . S
C2439 C2432 1.409 . S
C2439 C2438 1.362 . S
H2440 C2446 0.930 . S
H2441 C2449 0.930 . S
H2442 C2450 0.930 . S
H2443 C2451 0.930 . S
H2444 C2454 0.930 . S
H2445 C2455 0.930 . S
C2446 H2440 0.930 . S
C2446 C2447 1.355 . S
C2446 C2448 1.415 . S
C2447 C2446 1.355 . S
C2447 C2449 1.419 . S
C2448 C2446 1.415 . S
C2448 C2453 1.425 . S
C2448 C2455 1.409 . S
C2449 H2441 0.930 . S
C2449 C2447 1.419 . S
C2449 C2450 1.362 . S
C2450 H2442 0.930 . S
C2450 C2449 1.362 . S
C2450 C2453 1.409 . S
C2451 H2443 0.930 . S
C2451 C2452 1.355 . S
C2451 C2453 1.415 . S
C2452 C2451 1.355 . S
C2452 C2454 1.419 . S
C2453 C2448 1.425 . S
C2453 C2450 1.409 . S
C2453 C2451 1.415 . S
C2454 H2444 0.930 . S
C2454 C2452 1.419 . S
C2454 C2455 1.362 . S
C2455 H2445 0.930 . S
C2455 C2448 1.409 . S
C2455 C2454 1.362 . S
H2456 C2462 0.930 . S
H2457 C2465 0.930 . S
H2458 C2466 0.930 . S
H2459 C2467 0.930 . S
H2460 C2470 0.930 . S
H2461 C2471 0.930 . S
C2462 H2456 0.930 . S
C2462 C2463 1.355 . S
C2462 C2464 1.415 . S
C2463 C2462 1.355 . S
C2463 C2465 1.419 . S
C2464 C2462 1.415 . S
C2464 C2469 1.425 . S
C2464 C2471 1.409 . S
C2465 H2457 0.930 . S
C2465 C2463 1.419 . S
C2465 C2466 1.362 . S
C2466 H2458 0.930 . S
C2466 C2465 1.362 . S
C2466 C2469 1.409 . S
C2467 H2459 0.930 . S
C2467 C2468 1.355 . S
C2467 C2469 1.415 . S
C2468 C2467 1.355 . S
C2468 C2470 1.419 . S
C2469 C2464 1.425 . S
C2469 C2466 1.409 . S
C2469 C2467 1.415 . S
C2470 H2460 0.930 . S
C2470 C2468 1.419 . S
C2470 C2471 1.362 . S
C2471 H2461 0.930 . S
C2471 C2464 1.409 . S
C2471 C2470 1.362 . S
C948 N396 1.695 . S
C943 C9 1.757 . S
C964 C423 1.615 . S
C959 C16 1.619 . S
C975 C30 1.808 . S
C980 C437 1.811 . S
C996 N455 0.868 . S
C991 C40 0.841 . S
C1007 C52 1.552 . S
C1012 C460 1.543 . S
C1023 C66 1.782 . S
C1028 C400 1.799 . S
C1039 C76 0.730 . S
C1044 N419 0.807 . S
C1060 N432 1.718 . S
C1055 C90 1.766 . S
C1076 N478 1.694 . S
C1071 C6 1.762 . S
C1087 C21 1.648 . S
C1092 N501 1.603 . S
C1103 C28 1.672 . S
C1108 N524 1.634 . S
C1124 N557 1.186 . S
C1119 C45 1.233 . S
C1135 C54 1.573 . S
C1140 C584 1.566 . S
C1156 C607 2.011 . S
C1151 C69 2.001 . S
C1167 C81 1.073 . S
C1172 C630 1.057 1_655 S
C1188 C644 1.551 . S
C1183 C88 1.533 . S
C1199 C4 1.516 . S
C1204 C561 1.511 . S
C1215 C57 1.611 . S
C1220 N603 1.597 . S
C1236 N626 1.529 . S
C1231 C64 1.582 . S
C1247 C78 1.237 . S
C1252 N639 1.231 . S
C1268 N580 1.733 . S
C1263 C93 1.767 . S
C1284 C506 2.085 . S
C1279 C33 2.085 . S
C1295 C42 1.008 . S
C1300 C529 1.003 . S
C1316 C483 1.638 . S
C1311 C18 1.635 . S
C1332 C676 1.700 . S
C1327 C105 1.693 . S
C1343 C112 1.528 . S
C1348 C690 1.553 . S
C1359 C126 1.765 . S
C1364 N718 1.744 . S
C1380 N731 0.731 . S
C1375 C136 0.779 . S
C1391 C148 1.546 . S
C1396 C736 1.549 . S
C1407 C162 1.718 . S
C1412 N672 1.660 . S
C1423 C172 0.900 . S
C1428 N685 0.860 . S
C1439 C186 1.690 . S
C1444 C722 1.696 . S
C1460 N570 1.725 . S
C1455 C102 1.747 . S
C1471 C117 1.582 . S
C1476 N754 1.549 . S
C1492 N616 1.555 1_655 S
C1487 C124 1.590 . S
C1503 C141 1.246 . S
C1508 C791 1.231 . S
C1519 C150 1.674 . S
C1524 C492 1.659 . S
C1540 C805 2.058 . S
C1535 C165 2.058 . S
C1551 C177 1.122 . S
C1556 C538 1.144 . S
C1572 N823 1.407 . S
C1567 C184 1.460 . S
C1583 C100 1.507 . S
C1588 N787 1.509 . S
C1604 N800 1.496 . S
C1599 C153 1.572 . S
C1615 C160 1.607 . S
C1620 N534 1.591 . S
C1636 C828 1.017 . S
C1631 C174 1.023 . S
C1647 C189 1.744 . S
C1652 N488 1.671 . S
C1663 C129 1.974 . S
C1668 C759 1.988 . S
C1679 C138 1.136 . S
C1684 C621 1.122 . S
C1695 C114 1.650 . S
C1700 C575 1.672 . S
C1711 C201 1.773 . S
C1716 C713 1.784 . S
C1732 C745 1.515 . S
C1727 C208 1.516 . S
C1743 C222 1.755 . S
C1748 N662 1.710 . S
C1759 C232 0.862 . S
C1764 N695 0.801 . S
C1775 C244 1.529 . S
C1780 C699 1.547 . S
C1791 C258 1.849 . S
C1796 N708 1.811 . S
C1812 N741 0.751 . S
C1807 C268 0.679 . S
C1823 C282 1.761 . S
C1828 C667 1.763 . S
C1844 N856 1.742 . S
C1839 C198 1.786 . S
C1855 C213 1.552 . S
C1860 N593 1.509 . S
C1876 N879 1.458 . S
C1871 C220 1.509 . S
C1887 C237 1.316 . S
C1892 N649 1.211 . S
C1903 C246 1.622 . S
C1908 C897 1.628 . S
C1919 C261 2.096 . S
C1924 C515 2.081 . S
C1940 N915 1.027 . S
C1935 C273 1.069 . S
C1951 C280 1.554 . S
C1956 C552 1.567 . S
C1972 C653 1.517 . S
C1967 C196 1.541 . S
C1988 N511 1.587 . S
C1983 C249 1.610 . S
C1999 C256 1.714 . S
C2004 C920 1.736 . S
C2015 C270 1.053 . S
C2020 N547 1.004 . S
C2036 N892 1.760 . S
C2031 C285 1.807 . S
C2052 C598 1.967 1_565 S
C2047 C225 1.958 . S
C2068 C883 1.157 . S
C2063 C234 1.150 . S
C2084 C860 1.660 . S
C2079 C210 1.629 . S
C2095 C297 1.704 . S
C2100 N442 1.639 . S
C2111 C304 1.517 . S
C2116 C469 1.513 . S
C2132 C391 1.830 . S
C2127 C318 1.829 . S
C2148 N409 0.741 . S
C2143 C328 0.680 . S
C2164 C414 1.618 . S
C2159 C340 1.611 . S
C2180 C446 1.718 . S
C2175 C354 1.719 . S
C2196 N465 0.944 . S
C2191 C364 0.971 . S
C2207 C378 1.750 . S
C2212 N386 1.747 . S
C2223 C294 1.723 . S
C2228 N902 1.677 . S
C2244 N810 1.565 . S
C2239 C309 1.595 . S
C2260 C929 1.763 . S
C2255 C316 1.765 . S
C2276 C837 0.968 . S
C2271 C333 0.966 . S
C2287 C342 1.675 . S
C2292 C851 1.657 . S
C2308 C768 1.990 . S
C2303 C357 2.019 . S
C2324 C874 1.281 . S
C2319 C369 1.299 . S
C2335 C376 1.575 . S
C2340 N777 1.539 . S
C2356 N833 1.407 . S
C2351 C292 1.434 . S
C2372 N764 1.566 . S
C2367 C345 1.567 . S
C2388 N869 1.476 . S
C2383 C352 1.516 . S
C2399 C366 1.147 . S
C2404 C782 1.137 . S
C2415 C381 1.729 . S
C2420 N846 1.684 . S
C2431 C321 2.104 . S
C2436 C814 2.101 . S
C2447 C330 1.095 . S
C2452 N925 1.049 . S
C2468 C906 1.590 . S
C2463 C306 1.602 . S
