# Generated by pormake.
# Topology pyr, (3,6)-cn, num edge types: 1
# Building blocks:
#     Node 0, Type 0, BuildingBlock: QEWDON_clean_linker_0, # of connection points: 3
#     Node 1, Type 0, BuildingBlock: QEWDON_clean_linker_0, # of connection points: 3
#     Node 2, Type 0, BuildingBlock: QEWDON_clean_linker_0, # of connection points: 3
#     Node 3, Type 0, BuildingBlock: QEWDON_clean_linker_0, # of connection points: 3
#     Node 4, Type 0, BuildingBlock: QEWDON_clean_linker_0, # of connection points: 3
#     Node 5, Type 0, BuildingBlock: QEWDON_clean_linker_0, # of connection points: 3
#     Node 6, Type 0, BuildingBlock: QEWDON_clean_linker_0, # of connection points: 3
#     Node 7, Type 0, BuildingBlock: QEWDON_clean_linker_0, # of connection points: 3
#     Node 8, Type 1, BuildingBlock: INOVEN_clean_sbu_0, # of connection points: 6
#     Node 9, Type 1, BuildingBlock: INOVEN_clean_sbu_0, # of connection points: 6
#     Node 10, Type 1, BuildingBlock: INOVEN_clean_sbu_0, # of connection points: 6
#     Node 11, Type 1, BuildingBlock: INOVEN_clean_sbu_0, # of connection points: 6
#     Edge 12, Type (0, 1), None
#     Edge 13, Type (0, 1), None
#     Edge 14, Type (0, 1), None
#     Edge 15, Type (0, 1), None
#     Edge 16, Type (0, 1), None
#     Edge 17, Type (0, 1), None
#     Edge 18, Type (0, 1), None
#     Edge 19, Type (0, 1), None
#     Edge 20, Type (0, 1), None
#     Edge 21, Type (0, 1), None
#     Edge 22, Type (0, 1), None
#     Edge 23, Type (0, 1), None
#     Edge 24, Type (0, 1), None
#     Edge 25, Type (0, 1), None
#     Edge 26, Type (0, 1), None
#     Edge 27, Type (0, 1), None
#     Edge 28, Type (0, 1), None
#     Edge 29, Type (0, 1), None
#     Edge 30, Type (0, 1), None
#     Edge 31, Type (0, 1), None
#     Edge 32, Type (0, 1), None
#     Edge 33, Type (0, 1), None
#     Edge 34, Type (0, 1), None
#     Edge 35, Type (0, 1), None
# Relax obj value: 0.377
# Max RMSD: 0.268
# Mean RMSD: 0.202
data_MOF--net-pyr--node1-INOVEN_clean_sbu_0--node2-QEWDON_clean_linker_0--edge1-none
_symmetry_space_group_name_H-M    P1
_symmetry_Int_Tables_number       1
_symmetry_cell_setting            triclinic
loop_
_symmetry_equiv_pos_as_xyz
'x, y, z'
_cell_length_a     18.219582
_cell_length_b     19.773135
_cell_length_c     19.068382
_cell_angle_alpha  91.884642
_cell_angle_beta   89.001576
_cell_angle_gamma 117.75999
loop_
_atom_site_label
_atom_site_type_symbol
_atom_site_fract_x
_atom_site_fract_y
_atom_site_fract_z
_atom_type_partial_charge
H0 H 0.60103 0.43084 0.21114 0.0
C1 C 0.59459 0.4306 0.26781 0.0
C2 C 0.59502 0.37047 0.30567 0.0
C3 C 0.57417 0.48395 0.30176 0.0
H4 H 0.5633 0.31194 0.402 0.0
C5 C 0.57389 0.36398 0.37661 0.0
C6 C 0.54928 0.41474 0.40966 0.0
C7 C 0.55855 0.47897 0.37384 0.0
C8 C 0.54987 0.53368 0.26202 0.0
H9 H 0.54087 0.51906 0.39939 0.0
C10 C 0.4678 0.52345 0.26775 0.0
C11 C 0.44447 0.57558 0.23871 0.0
C12 C 0.60862 0.59453 0.22394 0.0
H13 H 0.67181 0.60341 0.21907 0.0
C14 C 0.58683 0.64629 0.1944 0.0
H15 H 0.42276 0.47429 0.29525 0.0
C16 C 0.50648 0.63785 0.20245 0.0
H17 H 0.49462 0.68176 0.18116 0.0
H18 H 0.63306 0.6944 0.16631 0.0
H19 H 0.06947 0.94277 0.92651 0.0
C20 C 0.11526 0.92655 0.9062 0.0
C21 C 0.18668 0.94724 0.94467 0.0
C22 C 0.10923 0.90011 0.83711 0.0
H23 H 0.30385 0.94599 0.94849 0.0
C24 C 0.24825 0.92955 0.91808 0.0
C25 C 0.24167 0.89724 0.84987 0.0
C26 C 0.17222 0.8847 0.80844 0.0
C27 C 1.05114 0.91445 0.79491 0.0
H28 H 0.16965 0.86768 0.75358 0.0
C29 C 0.08301 0.9861 0.76408 0.0
C30 C 1.03203 1.02011 0.75129 0.0
C31 C 0.96562 0.8744 0.80883 0.0
H32 H 0.93993 0.82057 0.83549 0.0
C33 C 0.91398 0.90679 0.79386 0.0
H34 H 0.14908 1.01773 0.75363 0.0
C35 C 0.94732 0.98016 0.76661 0.0
H36 H 0.9068 1.00411 0.75427 0.0
H37 H 0.84821 0.87535 0.80453 0.0
H38 H 0.81396 0.62177 1.00794 0.0
C39 C 0.77961 0.56166 1.01924 0.0
C40 C 0.81235 0.53019 1.06931 0.0
C41 C 0.70087 0.51925 0.98639 0.0
H42 H 0.78591 0.42648 0.12375 0.0
C43 C 0.76305 0.45153 0.08566 0.0
C44 C 0.68395 0.40496 1.05392 0.0
C45 C 0.65431 0.4406 1.00491 0.0
C46 C 0.65825 0.56375 0.95525 0.0
H47 H 0.59223 0.40807 0.98403 0.0
C48 C 0.6561 0.58465 0.8824 0.0
C49 C 0.61807 0.63277 0.86388 0.0
C50 C 0.62142 0.59115 1.00604 0.0
H51 H 0.62132 0.57767 1.06071 0.0
C52 C 0.58619 0.63746 0.98894 0.0
H53 H 0.68357 0.56442 0.84152 0.0
C54 C 0.58519 0.65829 0.92011 0.0
H55 H 0.55649 0.69447 0.91128 0.0
H56 H 0.55945 0.65818 1.03011 0.0
H57 H 0.97706 0.96237 0.45266 0.0
C58 C 0.9264 0.92606 0.48639 0.0
C59 C 0.90911 0.95899 0.54791 0.0
C60 C 0.8761 0.84764 0.46566 0.0
H61 H 0.83045 0.93331 0.63923 0.0
C62 C 0.84191 0.91043 0.59067 0.0
C63 C 0.78727 0.83361 0.57191 0.0
C64 C 0.80485 0.80315 0.50829 0.0
C65 C 0.8862 0.82079 0.39103 0.0
H66 H 0.76203 0.74579 0.49084 0.0
C67 C 0.92921 0.77706 0.37096 0.0
C68 C 0.94062 0.76126 0.29769 0.0
C69 C 0.85443 0.84561 0.33665 0.0
H70 H 0.82168 0.87838 0.34876 0.0
C71 C 0.86503 0.83022 0.26627 0.0
H72 H 0.95495 0.75733 0.41136 0.0
C73 C 0.90791 0.78952 0.24721 0.0
H74 H 0.91412 0.77857 0.19211 0.0
H75 H 0.83989 0.85052 0.22573 0.0
H76 H 0.66033 0.85638 0.08861 0.0
C77 C 0.66503 0.86887 1.03332 0.0
C78 C 0.73827 0.8839 0.99556 0.0
C79 C 0.60129 0.87725 0.99995 0.0
H80 H 0.80758 0.9325 0.90118 0.0
C81 C 0.74817 0.912 0.92751 0.0
C82 C 0.68478 0.92105 0.89618 0.0
C83 C 0.60873 0.89506 0.92925 0.0
C84 C 0.54164 0.89536 1.0379 0.0
H85 H 0.56088 0.90423 0.90467 0.0
C86 C 0.55956 0.97292 1.03959 0.0
C87 C 0.49609 0.99396 1.04483 0.0
C88 C 0.45984 0.83857 1.04711 0.0
H89 H 0.44446 0.77865 1.0429 0.0
C90 C 0.39649 0.85908 1.05624 0.0
H91 H 0.62294 1.01655 1.03136 0.0
C92 C 0.4142 0.93587 1.05397 0.0
H93 H 0.36392 0.94982 1.06096 0.0
H94 H 0.33307 0.81521 1.06293 0.0
H95 H 1.05465 0.43382 0.56336 0.0
C96 C 1.04489 0.40751 0.51123 0.0
C97 C 1.0463 0.33729 0.50025 0.0
C98 C 1.02247 0.44005 0.45692 0.0
H99 H 1.03181 0.2488 0.42488 0.0
C100 C 1.03156 0.30318 0.43292 0.0
C101 C 1.00577 0.33383 0.3786 0.0
C102 C 1.00271 0.40302 0.39122 0.0
C103 C 1.00522 0.50504 0.47136 0.0
H104 H 0.97805 0.42533 0.35199 0.0
C105 C 0.92293 0.49167 0.48149 0.0
C106 C 0.90478 0.553 0.49325 0.0
C107 C 0.06977 0.58012 0.47253 0.0
H108 H 0.13336 0.59125 0.46426 0.0
C109 C 1.05226 0.64135 0.48347 0.0
H110 H 0.87314 0.43342 0.47998 0.0
C111 C 0.97048 0.62805 0.49392 0.0
H112 H 0.95889 0.6764 0.50432 0.0
H113 H 0.10229 0.69934 0.48435 0.0
H114 H 0.52429 0.98606 0.32965 0.0
C115 C 0.46301 0.95106 0.30803 0.0
C116 C 0.43056 0.98447 0.25959 0.0
C117 C 0.42068 0.87174 0.32509 0.0
H118 H 0.3276 0.9576 0.18957 0.0
C119 C 0.35274 0.9347 0.22744 0.0
C120 C 0.30752 0.85533 0.24284 0.0
C121 C 0.34312 0.82585 0.29192 0.0
C122 C 0.46806 0.83269 0.35704 0.0
H123 H 0.31237 0.76516 0.30177 0.0
C124 C 0.45911 0.80149 0.42689 0.0
C125 C 0.50507 0.76131 0.44709 0.0
C126 C 0.52329 0.82322 0.31062 0.0
H127 H 0.53205 0.84506 0.25803 0.0
C128 C 0.5669 0.78474 0.32954 0.0
H129 H 0.4174 0.8081 0.46429 0.0
C130 C 0.55745 0.75384 0.39563 0.0
H131 H 0.59398 0.72517 0.40674 0.0
H132 H 0.60907 0.77877 0.29218 0.0
H133 H 0.33555 0.63092 0.81381 0.0
C134 C 0.29504 0.57403 0.79316 0.0
C135 C 0.31793 0.54734 0.72953 0.0
C136 C 0.22144 0.52562 0.83154 0.0
H137 H 0.28424 0.45011 0.65894 0.0
C138 C 0.26692 0.47113 0.70625 0.0
C139 C 0.19573 0.4203 0.74288 0.0
C140 C 0.17281 0.449 0.80422 0.0
C141 C 0.20364 0.54394 0.90771 0.0
H142 H 0.11851 0.41016 0.83315 0.0
C143 C 0.18192 0.60291 0.93296 0.0
C144 C 0.15625 0.60556 1.00572 0.0
C145 C 0.20274 0.4927 0.95749 0.0
H146 H 0.22001 0.44865 0.94248 0.0
C147 C 0.17686 0.49435 1.02619 0.0
H148 H 0.18261 0.64411 0.89662 0.0
C149 C 0.15209 0.54809 1.04889 0.0
H150 H 0.12891 0.5442 0.10139 0.0
H151 H 0.1744 0.45217 1.06226 0.0
Gd152 Gd 0.12419 0.19354 0.60929 0.0
Gd153 Gd 0.98356 0.19309 0.66779 0.0
C154 C 0.14716 0.338 0.71475 0.0
C155 C 0.26802 0.22312 0.56079 0.0
C156 C 0.34528 0.28731 0.53929 0.0
C157 C 0.4199 0.2854 0.55092 0.0
C158 C 0.34454 0.3454 0.50006 0.0
C159 C 0.48815 0.38595 0.46757 0.0
C160 C 0.41537 0.39416 0.46397 0.0
C161 C 0.49152 0.33526 0.51584 0.0
C162 C 0.06437 1.08563 0.70513 0.0
C163 C 0.95869 1.04342 0.56995 0.0
C164 C 0.8407 0.16613 0.71905 0.0
C165 C 0.77514 0.09807 0.75004 0.0
C166 C 0.73684 0.10611 0.81163 0.0
C167 C 0.76894 1.02674 0.73063 0.0
C168 C 0.70504 0.97714 0.84149 0.0
C169 C 0.73751 0.96763 0.77763 0.0
C170 C 0.70069 1.04525 0.8569 0.0
C171 C 1.04524 0.29348 0.56176 0.0
O172 O 0.17621 0.31435 0.66018 0.0
O173 O 0.0722 0.29186 0.73779 0.0
O174 O 0.25149 0.22017 0.62783 0.0
O175 O 0.20332 0.20477 0.52066 0.0
O176 O 0.10155 1.08246 0.64841 0.0
O177 O 0.06445 0.14998 0.71422 0.0
O178 O 0.93012 1.07065 0.62204 0.0
O179 O 1.03383 1.08802 0.54522 0.0
O180 O 0.85386 0.16152 0.65185 0.0
O181 O 0.90908 0.19599 0.7557 0.0
O182 O 1.01898 0.30633 0.6211 0.0
O183 O 1.03724 0.22637 0.5598 0.0
H184 H 0.42137 0.24168 0.58281 0.0
H185 H 0.28757 0.3488 0.49225 0.0
H186 H 0.40947 0.4324 0.42784 0.0
H187 H 0.54715 0.32912 0.52143 0.0
H188 H 0.7415 0.16106 0.82766 0.0
H189 H 0.79607 1.01943 0.68242 0.0
H190 H 0.74295 0.91644 0.7665 0.0
H191 H 0.67596 1.05371 0.90658 0.0
Gd192 Gd 0.6182 0.18562 0.17415 0.0
Gd193 Gd 0.49064 0.202 0.13563 0.0
C194 C 0.58294 0.30053 0.26727 0.0
C195 C 0.75214 0.17097 0.18439 0.0
C196 C 0.83224 0.2071 0.22082 0.0
C197 C 0.84347 0.1687 0.27685 0.0
C198 C 0.89318 0.28155 0.20669 0.0
C199 C 0.9618 0.28585 0.3163 0.0
C200 C 0.95865 0.32011 0.2536 0.0
C201 C 0.90699 0.20788 0.32476 0.0
C202 C 0.48124 1.06933 0.23896 0.0
C203 C 0.51637 1.07606 1.05147 0.0
C204 C 0.34954 0.19844 0.11901 0.0
C205 C 0.27583 0.12968 0.09548 0.0
C206 C 0.23545 0.1344 1.03562 0.0
C207 C 0.26854 1.05845 0.11381 0.0
C208 C 0.20493 1.00441 1.00205 0.0
C209 C 0.23425 0.99626 1.06668 0.0
C210 C 0.20055 1.07212 0.98883 0.0
C211 C 0.62966 0.32078 0.07492 0.0
O212 O 0.64523 0.29065 0.24262 0.0
O213 O 0.50888 0.25712 0.24226 0.0
O214 O 0.68828 0.13977 0.2259 0.0
O215 O 0.73959 0.20691 0.13342 0.0
O216 O 0.55061 0.11562 0.26926 0.0
O217 O 0.48377 1.09311 0.17712 0.0
O218 O 0.45824 1.09106 0.07704 0.0
O219 O 0.59244 0.12647 1.06719 0.0
O220 O 0.40771 0.2232 0.07126 0.0
O221 O 0.37777 0.19653 0.18111 0.0
O222 O 0.56103 0.27568 1.04318 0.0
O223 O 0.6248 0.29589 0.13664 0.0
H224 H 0.79836 0.11029 0.28746 0.0
H225 H 0.88745 0.31171 0.16242 0.0
H226 H 1.00229 0.37894 0.24406 0.0
H227 H 0.90694 0.17872 0.37181 0.0
H228 H 0.24084 0.18884 1.0203 0.0
H229 H 0.29863 1.05357 0.16033 0.0
H230 H 0.2352 0.94363 0.07857 0.0
H231 H 0.17732 1.07954 0.93927 0.0
Gd232 Gd 0.54993 0.62733 0.62731 0.0
Gd233 Gd 0.55734 0.75627 0.68247 0.0
C234 C 0.60587 0.65791 0.78994 0.0
C235 C 0.58642 0.52128 0.58206 0.0
C236 C 0.66117 0.52212 0.54992 0.0
C237 C 0.69088 0.47402 0.5761 0.0
C238 C 0.70879 0.57631 0.50023 0.0
C239 C 0.81837 0.53886 0.50849 0.0
C240 C 0.78681 0.58478 0.47982 0.0
C241 C 0.76843 0.48199 0.55541 0.0
C242 C 0.39625 0.5937 0.68659 0.0
C243 C 0.5071 0.72861 0.51945 0.0
C244 C 0.51773 0.86101 0.72866 0.0
C245 C 0.44694 0.86595 0.76419 0.0
C246 C 0.46131 0.93216 0.80345 0.0
C247 C 0.3644 0.80899 0.75392 0.0
C248 C 0.3121 0.88577 0.82023 0.0
C249 C 0.29774 0.81901 0.78129 0.0
C250 C 0.39499 0.9418 0.83144 0.0
C251 C 0.71055 0.78995 0.61841 0.0
O252 O 0.61797 0.62914 0.73009 0.0
O253 O 0.57304 0.70523 0.78487 0.0
O254 O 0.59662 0.54718 0.64658 0.0
O255 O 0.54357 0.54527 0.54552 0.0
O256 O 0.40919 0.56776 0.62682 0.0
O257 O 0.46663 0.63804 0.71223 0.0
O258 O 0.49181 0.75539 0.57904 0.0
O259 O 0.54069 0.68195 0.52494 0.0
O260 O 0.50365 0.83157 0.66528 0.0
O261 O 0.56225 0.83838 0.76445 0.0
O262 O 0.69916 0.81813 0.67745 0.0
O263 O 0.63909 0.74473 0.59569 0.0
H264 H 0.65542 0.4322 0.6149 0.0
H265 H 0.68667 0.61344 0.47875 0.0
H266 H 0.82307 0.62814 0.44259 0.0
H267 H 0.79095 0.44603 0.57886 0.0
H268 H 0.52401 0.97743 0.81122 0.0
H269 H 0.35136 0.75737 0.72355 0.0
H270 H 0.23496 0.7744 0.77225 0.0
H271 H 0.40879 0.99437 0.86043 0.0
Gd272 Gd 1.05508 0.62858 0.21095 0.0
Gd273 Gd 0.06563 0.7539 0.10354 0.0
C274 C 0.22361 0.80153 0.20828 0.0
C275 C 0.10882 0.54338 0.26802 0.0
C276 C 0.19254 0.54838 0.26005 0.0
C277 C 0.22111 0.51195 0.30603 0.0
C278 C 0.2473 0.5951 0.20889 0.0
C279 C 0.35701 0.56578 0.24656 0.0
C280 C 0.32688 0.60188 0.20079 0.0
C281 C 0.30244 0.52122 0.30003 0.0
C282 C 0.98385 0.71497 0.27032 0.0
C283 C 0.8971 0.58214 0.10426 0.0
C284 C 1.0287 0.85483 1.05577 0.0
C285 C 0.95274 0.86358 1.05222 0.0
C286 C 0.95927 0.93564 1.04023 0.0
C287 C 0.87357 0.80008 1.05631 0.0
C288 C 0.80928 0.87894 1.02704 0.0
C289 C 0.80224 0.80777 1.04424 0.0
C290 C 0.88821 0.94325 1.02736 0.0
C291 C 0.13026 0.66319 1.04022 0.0
O292 O 0.18543 0.7292 0.22799 0.0
O293 O 0.1893 0.82626 0.16092 0.0
O294 O 0.10764 0.60195 0.30078 0.0
O295 O 0.06112 0.52136 0.21232 0.0
O296 O 0.98396 0.65676 0.30039 0.0
O297 O 1.01835 0.71882 0.21068 0.0
O298 O 0.93428 0.65551 0.08706 0.0
O299 O 0.9327 0.55561 0.14958 0.0
O300 O 1.02958 0.79938 1.01684 0.0
O301 O 0.06088 0.86125 0.11803 0.0
O302 O 0.12925 0.72129 1.0106 0.0
O303 O 0.10118 0.66203 0.10224 0.0
H304 H 0.18124 0.47759 0.34759 0.0
H305 H 0.22892 0.62726 0.17498 0.0
H306 H 0.36395 0.63571 0.15796 0.0
H307 H 0.32213 0.49416 0.33851 0.0
H308 H 1.01956 0.9855 1.03763 0.0
H309 H 0.86699 0.74413 1.06653 0.0
H310 H 0.74229 0.75743 1.04395 0.0
H311 H 0.89519 0.9988 1.01407 0.0
loop_
_geom_bond_atom_site_label_1
_geom_bond_atom_site_label_2
_geom_bond_distance
_geom_bond_site_symmetry_2
_ccdc_geom_bond_type
H0 C1 0.949 . S
C1 H0 0.949 . S
C1 C2 1.395 . S
C1 C3 1.391 . S
C2 C1 1.395 . S
C2 C5 1.390 . S
C3 C1 1.391 . S
C3 C7 1.387 . S
C3 C8 1.491 . S
H4 C5 0.950 . S
C5 C2 1.390 . S
C5 H4 0.950 . S
C5 C6 1.378 . S
C6 C5 1.378 . S
C6 C7 1.409 . S
C7 C3 1.387 . S
C7 C6 1.409 . S
C7 H9 0.951 . S
C8 C3 1.491 . S
C8 C10 1.382 . S
C8 C12 1.404 . S
H9 C7 0.951 . S
C10 C8 1.382 . S
C10 C11 1.390 . S
C10 H15 0.949 . S
C11 C10 1.390 . S
C11 C16 1.399 . S
C12 C8 1.404 . S
C12 H13 0.950 . S
C12 C14 1.375 . S
H13 C12 0.950 . S
C14 C12 1.375 . S
C14 C16 1.382 . S
C14 H18 0.950 . S
H15 C10 0.949 . S
C16 C11 1.399 . S
C16 C14 1.382 . S
C16 H17 0.952 . S
H17 C16 0.952 . S
H18 C14 0.950 . S
H19 C20 0.949 . S
C20 H19 0.949 . S
C20 C21 1.395 . S
C20 C22 1.391 . S
C21 C20 1.395 . S
C21 C24 1.390 . S
C22 C20 1.391 . S
C22 C26 1.387 . S
C22 C27 1.491 . S
H23 C24 0.950 . S
C24 C21 1.390 . S
C24 H23 0.950 . S
C24 C25 1.378 . S
C25 C24 1.378 . S
C25 C26 1.409 . S
C26 C22 1.387 . S
C26 C25 1.409 . S
C26 H28 0.951 . S
C27 C22 1.491 . S
C27 C29 1.382 1_455 S
C27 C31 1.404 1_455 S
H28 C26 0.951 . S
C29 C27 1.382 1_655 S
C29 C30 1.389 . S
C29 H34 0.949 1_655 S
C30 C29 1.389 . S
C30 C35 1.399 . S
C31 C27 1.404 1_655 S
C31 H32 0.950 . S
C31 C33 1.375 . S
H32 C31 0.950 . S
C33 C31 1.375 . S
C33 C35 1.382 . S
C33 H37 0.950 . S
H34 C29 0.949 1_455 S
C35 C30 1.399 . S
C35 C33 1.382 . S
C35 H36 0.952 . S
H36 C35 0.952 . S
H37 C33 0.950 . S
H38 C39 0.949 . S
C39 H38 0.949 . S
C39 C40 1.395 . S
C39 C41 1.391 . S
C40 C39 1.395 . S
C40 C43 1.385 1_556 S
C41 C39 1.391 . S
C41 C45 1.387 . S
C41 C46 1.491 . S
H42 C43 0.958 . S
C43 C40 1.385 1_554 S
C43 H42 0.958 . S
C43 C44 1.375 1_554 S
C44 C43 1.375 1_556 S
C44 C45 1.409 . S
C45 C41 1.387 . S
C45 C44 1.409 . S
C45 H47 0.951 . S
C46 C41 1.491 . S
C46 C48 1.382 . S
C46 C50 1.404 . S
H47 C45 0.951 . S
C48 C46 1.382 . S
C48 C49 1.390 . S
C48 H53 0.949 . S
C49 C48 1.390 . S
C49 C54 1.399 . S
C50 C46 1.404 . S
C50 H51 0.950 . S
C50 C52 1.375 . S
H51 C50 0.950 . S
C52 C50 1.375 . S
C52 C54 1.382 . S
C52 H56 0.950 . S
H53 C48 0.949 . S
C54 C49 1.399 . S
C54 C52 1.382 . S
C54 H55 0.952 . S
H55 C54 0.952 . S
H56 C52 0.950 . S
H57 C58 0.949 . S
C58 H57 0.949 . S
C58 C59 1.395 . S
C58 C60 1.391 . S
C59 C58 1.395 . S
C59 C62 1.390 . S
C60 C58 1.391 . S
C60 C64 1.387 . S
C60 C65 1.491 . S
H61 C62 0.950 . S
C62 C59 1.390 . S
C62 H61 0.950 . S
C62 C63 1.378 . S
C63 C62 1.378 . S
C63 C64 1.409 . S
C64 C60 1.387 . S
C64 C63 1.409 . S
C64 H66 0.951 . S
C65 C60 1.491 . S
C65 C67 1.382 . S
C65 C69 1.404 . S
H66 C64 0.951 . S
C67 C65 1.382 . S
C67 C68 1.390 . S
C67 H72 0.949 . S
C68 C67 1.390 . S
C68 C73 1.399 . S
C69 C65 1.404 . S
C69 H70 0.950 . S
C69 C71 1.375 . S
H70 C69 0.950 . S
C71 C69 1.375 . S
C71 C73 1.382 . S
C71 H75 0.950 . S
H72 C67 0.949 . S
C73 C68 1.399 . S
C73 C71 1.382 . S
C73 H74 0.952 . S
H74 C73 0.952 . S
H75 C71 0.950 . S
H76 C77 0.949 . S
C77 H76 0.949 . S
C77 C78 1.395 . S
C77 C79 1.391 . S
C78 C77 1.395 . S
C78 C81 1.390 . S
C79 C77 1.391 . S
C79 C83 1.387 . S
C79 C84 1.491 . S
H80 C81 0.950 . S
C81 C78 1.390 . S
C81 H80 0.950 . S
C81 C82 1.378 . S
C82 C81 1.378 . S
C82 C83 1.409 . S
C83 C79 1.387 . S
C83 C82 1.409 . S
C83 H85 0.951 . S
C84 C79 1.491 . S
C84 C86 1.382 . S
C84 C88 1.404 . S
H85 C83 0.951 . S
C86 C84 1.382 . S
C86 C87 1.390 . S
C86 H91 0.949 . S
C87 C86 1.390 . S
C87 C92 1.399 . S
C88 C84 1.404 . S
C88 H89 0.950 . S
C88 C90 1.375 . S
H89 C88 0.950 . S
C90 C88 1.375 . S
C90 C92 1.382 . S
C90 H94 0.950 . S
H91 C86 0.949 . S
C92 C87 1.399 . S
C92 C90 1.382 . S
C92 H93 0.952 . S
H93 C92 0.952 . S
H94 C90 0.950 . S
H95 C96 0.949 . S
C96 H95 0.949 . S
C96 C97 1.395 . S
C96 C98 1.391 . S
C97 C96 1.395 . S
C97 C100 1.390 . S
C98 C96 1.391 . S
C98 C102 1.387 . S
C98 C103 1.491 . S
H99 C100 0.950 . S
C100 C97 1.390 . S
C100 H99 0.950 . S
C100 C101 1.378 . S
C101 C100 1.378 . S
C101 C102 1.409 . S
C102 C98 1.387 . S
C102 C101 1.409 . S
C102 H104 0.951 . S
C103 C98 1.491 . S
C103 C105 1.382 . S
C103 C107 1.404 . S
H104 C102 0.951 . S
C105 C103 1.382 . S
C105 C106 1.390 . S
C105 H110 0.949 . S
C106 C105 1.390 . S
C106 C111 1.399 . S
C107 C103 1.404 . S
C107 H108 0.950 . S
C107 C109 1.375 . S
H108 C107 0.950 . S
C109 C107 1.375 . S
C109 C111 1.382 . S
C109 H113 0.950 . S
H110 C105 0.949 . S
C111 C106 1.399 . S
C111 C109 1.382 . S
C111 H112 0.952 . S
H112 C111 0.952 . S
H113 C109 0.950 . S
H114 C115 0.949 . S
C115 H114 0.949 . S
C115 C116 1.395 . S
C115 C117 1.391 . S
C116 C115 1.395 . S
C116 C119 1.390 . S
C117 C115 1.391 . S
C117 C121 1.387 . S
C117 C122 1.491 . S
H118 C119 0.950 . S
C119 C116 1.390 . S
C119 H118 0.950 . S
C119 C120 1.378 . S
C120 C119 1.378 . S
C120 C121 1.409 . S
C121 C117 1.387 . S
C121 C120 1.409 . S
C121 H123 0.951 . S
C122 C117 1.491 . S
C122 C124 1.382 . S
C122 C126 1.404 . S
H123 C121 0.951 . S
C124 C122 1.382 . S
C124 C125 1.390 . S
C124 H129 0.949 . S
C125 C124 1.390 . S
C125 C130 1.399 . S
C126 C122 1.404 . S
C126 H127 0.950 . S
C126 C128 1.375 . S
H127 C126 0.950 . S
C128 C126 1.375 . S
C128 C130 1.382 . S
C128 H132 0.950 . S
H129 C124 0.949 . S
C130 C125 1.399 . S
C130 C128 1.382 . S
C130 H131 0.952 . S
H131 C130 0.952 . S
H132 C128 0.950 . S
H133 C134 0.949 . S
C134 H133 0.949 . S
C134 C135 1.395 . S
C134 C136 1.391 . S
C135 C134 1.395 . S
C135 C138 1.390 . S
C136 C134 1.391 . S
C136 C140 1.387 . S
C136 C141 1.491 . S
H137 C138 0.950 . S
C138 C135 1.390 . S
C138 H137 0.950 . S
C138 C139 1.378 . S
C139 C138 1.378 . S
C139 C140 1.409 . S
C140 C136 1.387 . S
C140 C139 1.409 . S
C140 H142 0.951 . S
C141 C136 1.491 . S
C141 C143 1.382 . S
C141 C145 1.404 . S
H142 C140 0.951 . S
C143 C141 1.382 . S
C143 C144 1.390 . S
C143 H148 0.949 . S
C144 C143 1.390 . S
C144 C149 1.399 . S
C145 C141 1.404 . S
C145 H146 0.950 . S
C145 C147 1.375 . S
H146 C145 0.950 . S
C147 C145 1.375 . S
C147 C149 1.382 . S
C147 H151 0.950 . S
H148 C143 0.949 . S
C149 C144 1.399 . S
C149 C147 1.382 . S
C149 H150 0.952 . S
H150 C149 0.952 . S
H151 C147 0.950 . S
Gd152 C155 2.818 . S
Gd152 O172 2.377 . S
Gd152 O174 2.448 . S
Gd152 O175 2.506 . S
Gd152 O176 2.435 . S
Gd152 O177 2.717 . S
Gd152 O179 2.395 1_445 S
Gd152 O183 2.327 1_455 S
Gd153 C164 2.818 1_545 S
Gd153 O173 2.395 1_655 S
Gd153 O177 2.327 1_655 S
Gd153 O178 2.377 1_545 S
Gd153 O180 2.447 1_545 S
Gd153 O181 2.506 1_545 S
Gd153 O182 2.435 . S
Gd153 O183 2.717 . S
C154 O172 1.240 . S
C154 O173 1.240 . S
C155 Gd152 2.818 . S
C155 C156 1.510 . S
C155 O174 1.249 . S
C155 O175 1.252 . S
C156 C155 1.510 . S
C156 C157 1.404 . S
C156 C158 1.352 . S
C157 C156 1.404 . S
C157 C161 1.389 . S
C157 H184 0.930 . S
C158 C156 1.352 . S
C158 C160 1.374 . S
C158 H185 0.931 . S
C159 C160 1.359 . S
C159 C161 1.364 . S
C160 C158 1.374 . S
C160 C159 1.359 . S
C160 H186 0.931 . S
C161 C157 1.389 . S
C161 C159 1.364 . S
C161 H187 0.931 . S
C162 O176 1.256 . S
C162 O177 1.257 . S
C163 O178 1.240 . S
C163 O179 1.240 . S
C164 Gd153 2.818 1_565 S
C164 C165 1.510 . S
C164 O180 1.262 . S
C164 O181 1.252 . S
C165 C164 1.510 . S
C165 C166 1.404 . S
C165 C167 1.352 . S
C166 C165 1.404 . S
C166 C170 1.389 . S
C166 H188 0.930 . S
C167 C165 1.352 . S
C167 C169 1.374 . S
C167 H189 0.931 . S
C168 C169 1.359 . S
C168 C170 1.364 . S
C169 C167 1.374 . S
C169 C168 1.359 . S
C169 H190 0.931 . S
C170 C166 1.389 . S
C170 C168 1.364 . S
C170 H191 0.931 . S
C171 O182 1.256 . S
C171 O183 1.257 . S
O172 Gd152 2.377 . S
O172 C154 1.240 . S
O173 Gd153 2.395 1_455 S
O173 C154 1.240 . S
O174 Gd152 2.448 . S
O174 C155 1.249 . S
O175 Gd152 2.506 . S
O175 C155 1.252 . S
O176 Gd152 2.435 . S
O176 C162 1.256 . S
O177 Gd152 2.717 . S
O177 Gd153 2.327 1_455 S
O177 C162 1.257 . S
O178 Gd153 2.377 1_565 S
O178 C163 1.240 . S
O179 Gd152 2.395 1_665 S
O179 C163 1.240 . S
O180 Gd153 2.447 1_565 S
O180 C164 1.262 . S
O181 Gd153 2.506 1_565 S
O181 C164 1.252 . S
O182 Gd153 2.435 . S
O182 C171 1.256 . S
O183 Gd152 2.327 1_655 S
O183 Gd153 2.717 . S
O183 C171 1.257 . S
H184 C157 0.930 . S
H185 C158 0.931 . S
H186 C160 0.931 . S
H187 C161 0.931 . S
H188 C166 0.930 . S
H189 C167 0.931 . S
H190 C169 0.931 . S
H191 C170 0.931 . S
Gd192 C195 2.818 . S
Gd192 O212 2.377 . S
Gd192 O214 2.448 . S
Gd192 O215 2.506 . S
Gd192 O216 2.435 1_545 S
Gd192 O217 2.717 1_545 S
Gd192 O219 2.395 1_545 S
Gd192 O223 2.327 . S
Gd193 C204 2.818 1_544 S
Gd193 O213 2.395 . S
Gd193 O217 2.327 1_545 S
Gd193 O218 2.377 1_554 S
Gd193 O220 2.448 1_554 S
Gd193 O221 2.506 1_545 S
Gd193 O222 2.435 1_554 S
Gd193 O223 2.717 . S
C194 O212 1.240 . S
C194 O213 1.240 . S
C195 Gd192 2.818 . S
C195 C196 1.510 . S
C195 O214 1.249 . S
C195 O215 1.252 . S
C196 C195 1.510 . S
C196 C197 1.404 . S
C196 C198 1.352 . S
C197 C196 1.404 . S
C197 C201 1.389 . S
C197 H224 0.930 . S
C198 C196 1.352 . S
C198 C200 1.374 . S
C198 H225 0.931 . S
C199 C200 1.359 . S
C199 C201 1.364 . S
C200 C198 1.374 . S
C200 C199 1.359 . S
C200 H226 0.931 . S
C201 C197 1.389 . S
C201 C199 1.364 . S
C201 H227 0.931 . S
C202 O216 1.256 . S
C202 O217 1.257 . S
C203 O218 1.240 1_564 S
C203 O219 1.240 . S
C204 Gd193 2.818 1_566 S
C204 C205 1.510 . S
C204 O220 1.249 1_565 S
C204 O221 1.252 1_556 S
C205 C204 1.510 . S
C205 C206 1.404 . S
C205 C207 1.352 . S
C206 C205 1.404 . S
C206 C210 1.389 . S
C206 H228 0.930 . S
C207 C205 1.352 . S
C207 C209 1.374 . S
C207 H229 0.931 . S
C208 C209 1.359 . S
C208 C210 1.364 . S
C209 C207 1.374 . S
C209 C208 1.359 . S
C209 H230 0.931 . S
C210 C206 1.389 . S
C210 C208 1.364 . S
C210 H231 0.931 . S
C211 O222 1.256 1_554 S
C211 O223 1.257 . S
O212 Gd192 2.377 . S
O212 C194 1.240 . S
O213 Gd193 2.395 . S
O213 C194 1.240 . S
O214 Gd192 2.448 . S
O214 C195 1.249 . S
O215 Gd192 2.506 . S
O215 C195 1.252 . S
O216 Gd192 2.435 1_565 S
O216 C202 1.256 . S
O217 Gd192 2.717 1_565 S
O217 Gd193 2.327 1_565 S
O217 C202 1.257 . S
O218 Gd193 2.377 1_556 S
O218 C203 1.240 1_546 S
O219 Gd192 2.395 1_565 S
O219 C203 1.240 . S
O220 Gd193 2.448 1_556 S
O220 C204 1.249 1_545 S
O221 Gd193 2.506 1_565 S
O221 C204 1.252 1_554 S
O222 Gd193 2.435 1_556 S
O222 C211 1.256 1_556 S
O223 Gd192 2.327 . S
O223 Gd193 2.717 . S
O223 C211 1.257 . S
H224 C197 0.930 . S
H225 C198 0.931 . S
H226 C200 0.931 . S
H227 C201 0.931 . S
H228 C206 0.930 . S
H229 C207 0.931 . S
H230 C209 0.931 . S
H231 C210 0.931 . S
Gd232 C235 2.818 . S
Gd232 O252 2.377 . S
Gd232 O254 2.448 . S
Gd232 O255 2.506 . S
Gd232 O256 2.435 . S
Gd232 O257 2.717 . S
Gd232 O259 2.395 . S
Gd232 O263 2.327 . S
Gd233 C244 2.818 . S
Gd233 O253 2.395 . S
Gd233 O257 2.327 . S
Gd233 O258 2.377 . S
Gd233 O260 2.448 . S
Gd233 O261 2.506 . S
Gd233 O262 2.435 . S
Gd233 O263 2.717 . S
C234 O252 1.240 . S
C234 O253 1.240 . S
C235 Gd232 2.818 . S
C235 C236 1.510 . S
C235 O254 1.249 . S
C235 O255 1.252 . S
C236 C235 1.510 . S
C236 C237 1.404 . S
C236 C238 1.352 . S
C237 C236 1.404 . S
C237 C241 1.389 . S
C237 H264 0.930 . S
C238 C236 1.352 . S
C238 C240 1.374 . S
C238 H265 0.931 . S
C239 C240 1.359 . S
C239 C241 1.364 . S
C240 C238 1.374 . S
C240 C239 1.359 . S
C240 H266 0.931 . S
C241 C237 1.389 . S
C241 C239 1.364 . S
C241 H267 0.931 . S
C242 O256 1.256 . S
C242 O257 1.257 . S
C243 O258 1.240 . S
C243 O259 1.240 . S
C244 Gd233 2.818 . S
C244 C245 1.510 . S
C244 O260 1.249 . S
C244 O261 1.252 . S
C245 C244 1.510 . S
C245 C246 1.404 . S
C245 C247 1.352 . S
C246 C245 1.404 . S
C246 C250 1.389 . S
C246 H268 0.930 . S
C247 C245 1.352 . S
C247 C249 1.374 . S
C247 H269 0.931 . S
C248 C249 1.359 . S
C248 C250 1.364 . S
C249 C247 1.374 . S
C249 C248 1.359 . S
C249 H270 0.931 . S
C250 C246 1.389 . S
C250 C248 1.364 . S
C250 H271 0.931 1_565 S
C251 O262 1.256 . S
C251 O263 1.257 . S
O252 Gd232 2.377 . S
O252 C234 1.240 . S
O253 Gd233 2.395 . S
O253 C234 1.240 . S
O254 Gd232 2.448 . S
O254 C235 1.249 . S
O255 Gd232 2.506 . S
O255 C235 1.252 . S
O256 Gd232 2.435 . S
O256 C242 1.256 . S
O257 Gd232 2.717 . S
O257 Gd233 2.327 . S
O257 C242 1.257 . S
O258 Gd233 2.377 . S
O258 C243 1.240 . S
O259 Gd232 2.395 . S
O259 C243 1.240 . S
O260 Gd233 2.448 . S
O260 C244 1.249 . S
O261 Gd233 2.506 . S
O261 C244 1.252 . S
O262 Gd233 2.435 . S
O262 C251 1.256 . S
O263 Gd232 2.327 . S
O263 Gd233 2.717 . S
O263 C251 1.257 . S
H264 C237 0.930 . S
H265 C238 0.931 . S
H266 C240 0.931 . S
H267 C241 0.931 . S
H268 C246 0.930 . S
H269 C247 0.931 . S
H270 C249 0.931 . S
H271 C250 0.931 1_545 S
Gd272 C275 2.818 . S
Gd272 O292 2.377 . S
Gd272 O294 2.448 . S
Gd272 O295 2.506 . S
Gd272 O296 2.435 1_455 S
Gd272 O297 2.717 1_455 S
Gd272 O299 2.395 1_455 S
Gd272 O303 2.327 1_554 S
Gd273 C284 2.818 1_455 S
Gd273 O293 2.395 1_556 S
Gd273 O297 2.327 1_456 S
Gd273 O298 2.377 1_455 S
Gd273 O300 2.448 1_455 S
Gd273 O301 2.506 1_455 S
Gd273 O302 2.435 . S
Gd273 O303 2.717 . S
C274 O292 1.240 . S
C274 O293 1.240 . S
C275 Gd272 2.818 . S
C275 C276 1.510 . S
C275 O294 1.249 . S
C275 O295 1.252 . S
C276 C275 1.510 . S
C276 C277 1.404 . S
C276 C278 1.352 . S
C277 C276 1.404 . S
C277 C281 1.389 . S
C277 H304 0.930 . S
C278 C276 1.352 . S
C278 C280 1.374 . S
C278 H305 0.931 . S
C279 C280 1.359 . S
C279 C281 1.364 . S
C280 C278 1.374 . S
C280 C279 1.359 . S
C280 H306 0.931 . S
C281 C277 1.389 . S
C281 C279 1.364 . S
C281 H307 0.931 . S
C282 O296 1.256 . S
C282 O297 1.257 . S
C283 O298 1.240 . S
C283 O299 1.240 1_556 S
C284 Gd273 2.818 1_655 S
C284 C285 1.510 . S
C284 O300 1.249 . S
C284 O301 1.252 . S
C285 C284 1.510 . S
C285 C286 1.404 . S
C285 C287 1.352 . S
C286 C285 1.404 . S
C286 C290 1.389 . S
C286 H308 0.930 . S
C287 C285 1.352 . S
C287 C289 1.374 . S
C287 H309 0.931 . S
C288 C289 1.359 . S
C288 C290 1.364 . S
C289 C287 1.374 . S
C289 C288 1.359 . S
C289 H310 0.931 . S
C290 C286 1.389 . S
C290 C288 1.364 . S
C290 H311 0.931 . S
C291 O302 1.256 . S
C291 O303 1.257 . S
O292 Gd272 2.377 . S
O292 C274 1.240 . S
O293 Gd273 2.395 1_554 S
O293 C274 1.240 . S
O294 Gd272 2.448 . S
O294 C275 1.249 . S
O295 Gd272 2.506 . S
O295 C275 1.252 . S
O296 Gd272 2.435 1_655 S
O296 C282 1.256 . S
O297 Gd272 2.717 1_655 S
O297 Gd273 2.327 1_654 S
O297 C282 1.257 . S
O298 Gd273 2.377 1_655 S
O298 C283 1.240 . S
O299 Gd272 2.395 1_655 S
O299 C283 1.240 1_554 S
O300 Gd273 2.448 1_655 S
O300 C284 1.249 . S
O301 Gd273 2.506 1_655 S
O301 C284 1.252 . S
O302 Gd273 2.435 . S
O302 C291 1.256 . S
O303 Gd272 2.327 1_556 S
O303 Gd273 2.717 . S
O303 C291 1.257 . S
H304 C277 0.930 . S
H305 C278 0.931 . S
H306 C280 0.931 . S
H307 C281 0.931 . S
H308 C286 0.930 . S
H309 C287 0.931 . S
H310 C289 0.931 . S
H311 C290 0.931 . S
C6 C159 1.800 . S
C21 C208 1.917 . S
C234 C49 3.342 . S
C68 C282 3.129 . S
C194 C2 3.785 . S
C162 C30 2.910 1_445 S
C283 C40 3.139 . S
C251 C63 2.717 . S
C11 C279 1.842 . S
C211 C44 3.917 1_554 S
C59 C163 2.884 . S
C25 C248 3.660 . S
C168 C82 1.162 . S
C101 C199 2.440 . S
C125 C243 3.240 . S
C144 C291 3.142 . S
C87 C203 3.841 1_556 S
C171 C97 1.891 . S
C274 C120 2.498 . S
C242 C135 2.748 . S
C78 C288 3.049 . S
C202 C116 2.762 . S
C154 C139 3.955 . S
C106 C239 1.496 . S
