# Generated by pormake.
# Topology zzz, (3,6)-cn, num edge types: 1
# Building blocks:
#     Node 0, Type 0, BuildingBlock: PAMTOO_clean_linker_0, # of connection points: 3
#     Node 1, Type 0, BuildingBlock: PAMTOO_clean_linker_0, # of connection points: 3
#     Node 2, Type 0, BuildingBlock: PAMTOO_clean_linker_0, # of connection points: 3
#     Node 3, Type 0, BuildingBlock: PAMTOO_clean_linker_0, # of connection points: 3
#     Node 4, Type 0, BuildingBlock: PAMTOO_clean_linker_0, # of connection points: 3
#     Node 5, Type 0, BuildingBlock: PAMTOO_clean_linker_0, # of connection points: 3
#     Node 6, Type 0, BuildingBlock: PAMTOO_clean_linker_0, # of connection points: 3
#     Node 7, Type 0, BuildingBlock: PAMTOO_clean_linker_0, # of connection points: 3
#     Node 8, Type 1, BuildingBlock: HISSIN_clean_sbu_0, # of connection points: 6
#     Node 9, Type 1, BuildingBlock: HISSIN_clean_sbu_0, # of connection points: 6
#     Node 10, Type 1, BuildingBlock: HISSIN_clean_sbu_0, # of connection points: 6
#     Node 11, Type 1, BuildingBlock: HISSIN_clean_sbu_0, # of connection points: 6
#     Edge 12, Type (0, 1), BuildingBlock: XUDNAN_clean_linker_2, # of connection points: 2
#     Edge 13, Type (0, 1), BuildingBlock: XUDNAN_clean_linker_2, # of connection points: 2
#     Edge 14, Type (0, 1), BuildingBlock: XUDNAN_clean_linker_2, # of connection points: 2
#     Edge 15, Type (0, 1), BuildingBlock: XUDNAN_clean_linker_2, # of connection points: 2
#     Edge 16, Type (0, 1), BuildingBlock: XUDNAN_clean_linker_2, # of connection points: 2
#     Edge 17, Type (0, 1), BuildingBlock: XUDNAN_clean_linker_2, # of connection points: 2
#     Edge 18, Type (0, 1), BuildingBlock: XUDNAN_clean_linker_2, # of connection points: 2
#     Edge 19, Type (0, 1), BuildingBlock: XUDNAN_clean_linker_2, # of connection points: 2
#     Edge 20, Type (0, 1), BuildingBlock: XUDNAN_clean_linker_2, # of connection points: 2
#     Edge 21, Type (0, 1), BuildingBlock: XUDNAN_clean_linker_2, # of connection points: 2
#     Edge 22, Type (0, 1), BuildingBlock: XUDNAN_clean_linker_2, # of connection points: 2
#     Edge 23, Type (0, 1), BuildingBlock: XUDNAN_clean_linker_2, # of connection points: 2
#     Edge 24, Type (0, 1), BuildingBlock: XUDNAN_clean_linker_2, # of connection points: 2
#     Edge 25, Type (0, 1), BuildingBlock: XUDNAN_clean_linker_2, # of connection points: 2
#     Edge 26, Type (0, 1), BuildingBlock: XUDNAN_clean_linker_2, # of connection points: 2
#     Edge 27, Type (0, 1), BuildingBlock: XUDNAN_clean_linker_2, # of connection points: 2
#     Edge 28, Type (0, 1), BuildingBlock: XUDNAN_clean_linker_2, # of connection points: 2
#     Edge 29, Type (0, 1), BuildingBlock: XUDNAN_clean_linker_2, # of connection points: 2
#     Edge 30, Type (0, 1), BuildingBlock: XUDNAN_clean_linker_2, # of connection points: 2
#     Edge 31, Type (0, 1), BuildingBlock: XUDNAN_clean_linker_2, # of connection points: 2
#     Edge 32, Type (0, 1), BuildingBlock: XUDNAN_clean_linker_2, # of connection points: 2
#     Edge 33, Type (0, 1), BuildingBlock: XUDNAN_clean_linker_2, # of connection points: 2
#     Edge 34, Type (0, 1), BuildingBlock: XUDNAN_clean_linker_2, # of connection points: 2
#     Edge 35, Type (0, 1), BuildingBlock: XUDNAN_clean_linker_2, # of connection points: 2
# Relax obj value: 0.265
# Max RMSD: 0.185
# Mean RMSD: 0.094
data_MOF--net-zzz--node1-HISSIN_clean_sbu_0--node2-PAMTOO_clean_linker_0--edge1-XUDNAN_clean_linker_2
_symmetry_space_group_name_H-M    P1
_symmetry_Int_Tables_number       1
_symmetry_cell_setting            triclinic
loop_
_symmetry_equiv_pos_as_xyz
'x, y, z'
_cell_length_a     49.769957
_cell_length_b     49.948132
_cell_length_c     16.322385
_cell_angle_alpha  89.668072
_cell_angle_beta   91.709048
_cell_angle_gamma 90.208096
loop_
_atom_site_label
_atom_site_type_symbol
_atom_site_fract_x
_atom_site_fract_y
_atom_site_fract_z
_atom_type_partial_charge
H0 H 0.82453 0.53886 0.26881 0.0
H1 H 0.74272 0.54333 0.17993 0.0
H2 H 0.76018 0.52981 0.43712 0.0
H3 H 0.69535 0.50468 0.34786 0.0
C4 C 0.70527 0.51339 0.29375 0.0
O5 O 0.72122 0.53486 0.31976 0.0
H6 H 0.71786 0.49721 0.26822 0.0
C7 C 0.80329 0.53948 0.28156 0.0
C8 C 0.79528 0.53569 0.36239 0.0
C9 C 0.78466 0.5424 0.21586 0.0
C10 C 0.75723 0.54127 0.23044 0.0
C11 C 0.74823 0.53624 0.30934 0.0
C12 C 0.76723 0.53332 0.37587 0.0
H13 H 0.0689 0.82079 0.25298 0.0
H14 H 0.05768 0.74921 0.11182 0.0
H15 H 1.00754 0.76382 0.31781 0.0
H16 H 0.02353 0.69683 0.26813 0.0
C17 C 0.02987 0.70442 0.20754 0.0
O18 O 1.01852 0.72965 0.19415 0.0
H19 H 0.05221 0.70593 0.21146 0.0
C20 C 0.05835 0.80199 0.24297 0.0
C21 C 0.03695 0.79509 0.29308 0.0
C22 C 0.06613 0.78537 0.17904 0.0
C23 C 0.05215 0.76159 0.16296 0.0
C24 C 0.03149 0.75313 0.21336 0.0
C25 C 0.02392 0.76988 0.27957 0.0
H26 H 0.7281 0.05567 0.28736 0.0
H27 H 0.80541 0.0568 0.17592 0.0
H28 H 0.78783 0.99702 0.35725 0.0
H29 H 0.81303 0.99328 0.14396 0.0
C30 C 0.83113 0.99764 0.18348 0.0
O31 O 0.82445 1.01494 0.24712 0.0
H32 H 0.83717 0.97816 0.21141 0.0
C33 C 0.74802 0.04741 0.28153 0.0
C34 C 0.7554 0.02549 0.33144 0.0
C35 C 0.76578 0.05909 0.22577 0.0
C36 C 0.79124 0.04772 0.21677 0.0
C37 C 0.79911 0.02476 0.26016 0.0
C38 C 0.78141 1.01397 0.32009 0.0
H39 H 0.49673 0.71389 0.29736 0.0
H40 H 0.50764 0.78994 0.17554 0.0
H41 H 0.56513 0.76315 0.35928 0.0
H42 H 0.57311 0.83157 0.29238 0.0
C43 C 0.55296 0.82585 0.26711 0.0
O44 O 0.55428 0.7996 0.23949 0.0
H45 H 0.53915 0.82708 0.31943 0.0
C46 C 0.5076 0.73251 0.28986 0.0
C47 C 0.53101 0.73645 0.3383 0.0
C48 C 0.49853 0.75162 0.23147 0.0
C49 C 0.51385 0.77498 0.2204 0.0
C50 C 0.53809 0.77905 0.26392 0.0
C51 C 0.54644 0.76005 0.32496 0.0
H52 H 0.23018 0.55923 0.10563 0.0
H53 H 0.30106 0.54413 0.25479 0.0
H54 H 0.28507 0.49709 0.03815 0.0
H55 H 0.34547 0.53594 0.14748 0.0
C56 C 0.3451 0.51412 0.16192 0.0
O57 O 0.31873 0.50496 0.16767 0.0
H58 H 0.35454 0.50356 0.11052 0.0
C59 C 0.24885 0.54838 0.11587 0.0
C60 C 0.2552 0.52738 0.06324 0.0
C61 C 0.2654 0.55474 0.18395 0.0
C62 C 0.28879 0.53997 0.20033 0.0
C63 C 0.29653 0.51973 0.14702 0.0
C64 C 0.27975 0.51347 0.07764 0.0
H65 H 0.98678 0.20902 0.11209 0.0
H66 H 0.98738 0.28739 0.22077 0.0
H67 H 0.04844 0.26581 0.05251 0.0
H68 H 0.06808 0.31006 0.20836 0.0
C69 C 0.04663 0.30998 0.22526 0.0
O70 O 0.03089 0.30386 0.15549 0.0
H71 H 0.04429 0.29411 0.27281 0.0
C72 C 0.99555 0.22877 0.11859 0.0
C73 C 1.01841 0.23491 0.07364 0.0
C74 C 0.98394 0.24737 0.17146 0.0
C75 C 0.996 0.27265 0.18095 0.0
C76 C 0.01964 0.27921 0.14106 0.0
C77 C 0.03063 0.26051 0.08555 0.0
H78 H 0.34058 0.05295 0.17511 0.0
H79 H 0.26114 0.05328 0.26742 0.0
H80 H 0.27488 0.01912 0.03047 0.0
H81 H 0.24056 0.99448 0.21402 0.0
C82 C 0.22507 1.00811 0.18642 0.0
O83 O 0.23746 0.02957 0.1463 0.0
H84 H 0.21409 0.996 0.13933 0.0
C85 C 0.31932 0.04925 0.16412 0.0
C86 C 0.31054 0.03684 0.09089 0.0
C87 C 0.30176 0.05487 0.22745 0.0
C88 C 0.27454 0.04867 0.21844 0.0
C89 C 0.26455 0.03519 0.14957 0.0
C90 C 0.28261 0.02917 0.08484 0.0
H91 H 0.57254 0.31936 0.16309 0.0
H92 H 0.57232 0.24035 0.27086 0.0
H93 H 0.50953 0.26373 0.09898 0.0
H94 H 0.49134 0.22296 0.25636 0.0
C95 C 0.51293 0.2194 0.27174 0.0
O96 O 0.52778 0.2249 0.20239 0.0
H97 H 0.51852 0.23359 0.32188 0.0
C98 C 0.56429 0.29934 0.16693 0.0
C99 C 0.54105 0.29354 0.11936 0.0
C100 C 0.57569 0.28071 0.22304 0.0
C101 C 0.56365 0.25534 0.22991 0.0
C102 C 0.53948 0.24927 0.18801 0.0
C103 C 0.52805 0.26846 0.13238 0.0
Eu104 Eu 1.01014 0.02516 0.60972 0.0
Eu105 Eu 0.04706 1.0049 0.76387 0.0
C106 C 0.03138 0.06786 0.74839 0.0
C107 C 0.95823 0.06597 0.49232 0.0
C108 C 0.96404 0.089 0.53817 0.0
C109 C 0.91986 0.08853 0.42842 0.0
C110 C 0.94883 0.11209 0.52594 0.0
C111 C 0.93547 0.06548 0.43976 0.0
C112 C 0.92713 0.11256 0.46839 0.0
C113 C 0.97665 0.04309 0.49655 0.0
O114 O 1.00536 1.00197 0.81879 0.0
O115 O 0.98224 0.02573 0.71946 0.0
C116 C 0.98326 1.01409 0.79242 0.0
O117 O 1.01232 0.98027 0.58579 0.0
O118 O 0.05667 0.97959 0.86945 0.0
O119 O 0.08486 1.01029 0.8334 0.0
O120 O 0.04082 0.9664 0.69089 0.0
C121 C 0.02633 0.96133 0.62373 0.0
O122 O 0.05025 0.01908 0.54757 0.0
O123 O 0.0768 0.01606 0.66411 0.0
O124 O 0.03626 0.04752 0.79798 0.0
O125 O 1.00221 0.04913 0.50014 0.0
O126 O 0.97057 0.02406 0.54784 0.0
O127 O 0.02575 0.06378 0.66988 0.0
C128 C 0.10219 0.96937 0.88284 0.0
C129 C 0.10755 0.95434 0.81286 0.0
C130 C 0.12944 0.93903 0.96554 0.0
C131 C 0.12267 0.93091 0.82005 0.0
C132 C 0.11428 0.96241 0.95829 0.0
C133 C 0.13242 0.92222 0.8974 0.0
C134 C 0.08084 0.98941 0.87976 0.0
C135 C 0.07428 0.01803 0.58345 0.0
H136 H 0.98128 0.08961 0.5803 0.0
H137 H 0.90295 0.08787 0.38518 0.0
H138 H 0.95552 0.13002 0.55745 0.0
H139 H 0.93039 0.04762 0.40514 0.0
H140 H 0.09835 0.95961 0.75396 0.0
H141 H 0.13638 0.93282 0.02621 0.0
H142 H 0.12474 0.91842 0.76657 0.0
H143 H 0.11029 0.97386 0.01277 0.0
Eu144 Eu 0.54669 0.03683 0.79963 0.0
Eu145 Eu 0.52941 0.9915 0.6718 0.0
C146 C 0.54417 0.97466 0.855 0.0
C147 C 0.58555 0.09296 0.90193 0.0
C148 C 0.60825 0.08758 0.85625 0.0
C149 C 0.6083 0.13157 0.96132 0.0
C150 C 0.63138 0.1031 0.86666 0.0
C151 C 0.58522 0.11567 0.95175 0.0
C152 C 0.63217 0.12458 0.9224 0.0
C153 C 0.56304 0.07397 0.90119 0.0
O154 O 0.4909 0.99832 0.74251 0.0
O155 O 0.50081 0.03672 0.81315 0.0
C156 C 0.48345 0.01786 0.79093 0.0
O157 O 0.54481 0.05868 0.67766 0.0
O158 O 0.51211 0.9518 0.65005 0.0
O159 O 0.52519 0.97554 0.54791 0.0
O160 O 0.51523 0.03075 0.61176 0.0
C161 C 0.52785 0.05398 0.61638 0.0
O162 O 0.58692 0.02359 0.74464 0.0
O163 O 0.57164 1.00116 0.63037 0.0
O164 O 0.54977 0.9691 0.77885 0.0
O165 O 0.54448 0.07787 0.84434 0.0
O166 O 0.56969 0.04876 0.90881 0.0
O167 O 0.53738 0.99926 0.87355 0.0
C168 C 0.48143 0.95814 0.53886 0.0
C169 C 0.46007 0.95546 0.5932 0.0
C170 C 0.45342 0.98656 0.4516 0.0
C171 C 0.43659 0.97026 0.58036 0.0
C172 C 0.47676 0.97159 0.46402 0.0
C173 C 0.4342 0.98755 0.51275 0.0
C174 C 0.50936 0.95626 0.57143 0.0
C175 C 0.59143 1.01262 0.67249 0.0
H176 H 0.60868 0.07036 0.81625 0.0
H177 H 0.60792 0.14831 1.00312 0.0
H178 H 0.64918 0.09666 0.83591 0.0
H179 H 0.56758 0.1204 0.98611 0.0
H180 H 0.46267 0.94464 0.65059 0.0
H181 H 0.45136 0.99895 0.39709 0.0
H182 H 0.42156 0.97013 0.62702 0.0
H183 H 0.49256 0.97349 0.42006 0.0
Eu184 Eu 0.49914 0.52619 0.79229 0.0
Eu185 Eu 0.54571 0.50496 0.67244 0.0
C186 C 0.56115 0.52522 0.85846 0.0
C187 C 0.44849 0.57098 0.89091 0.0
C188 C 0.46234 0.59344 0.86235 0.0
C189 C 0.41529 0.60006 0.94965 0.0
C190 C 0.45293 0.61905 0.87794 0.0
C191 C 0.42475 0.57431 0.93372 0.0
C192 C 0.42943 0.62271 0.9224 0.0
C193 C 0.45848 0.5442 0.87334 0.0
O194 O 0.53221 0.46684 0.73952 0.0
O195 O 0.50653 0.4843 0.84147 0.0
C196 C 0.51873 0.46396 0.80771 0.0
O197 O 0.47978 0.50072 0.69305 0.0
O198 O 0.5874 0.50393 0.63342 0.0
O199 O 0.55659 0.48085 0.5684 0.0
O200 O 0.50786 0.51187 0.59247 0.0
C201 C 0.4838 0.5047 0.6151 0.0
O202 O 0.50905 0.56313 0.71549 0.0
O203 O 0.54629 0.54979 0.64612 0.0
O204 O 0.56679 0.50927 0.79741 0.0
O205 O 0.45711 0.5377 0.79621 0.0
O206 O 0.48155 0.53775 0.90797 0.0
O207 O 0.53778 0.53743 0.86104 0.0
C208 C 0.59977 0.46221 0.57876 0.0
C209 C 0.59202 0.43877 0.61944 0.0
C210 C 0.63725 0.43838 0.52192 0.0
C211 C 0.60586 0.41495 0.60773 0.0
C212 C 0.62307 0.46218 0.53273 0.0
C213 C 0.62798 0.41415 0.55581 0.0
C214 C 0.58228 0.48581 0.57782 0.0
C215 C 0.52882 0.56829 0.66558 0.0
H216 H 0.48067 0.59116 0.82897 0.0
H217 H 0.39721 0.60227 0.98427 0.0
H218 H 0.46476 0.63598 0.85797 0.0
H219 H 0.41373 0.55706 0.95542 0.0
H220 H 0.57424 0.43848 0.65617 0.0
H221 H 0.65455 0.43872 0.48326 0.0
H222 H 0.59776 0.39687 0.63447 0.0
H223 H 0.62956 0.48025 0.50189 0.0
Eu224 Eu 0.03716 0.53782 0.61804 0.0
Eu225 Eu 0.02329 0.49317 0.75291 0.0
C226 C 0.08496 0.51378 0.73786 0.0
C227 C 0.07481 0.59148 0.50694 0.0
C228 C 0.09391 0.59216 0.5719 0.0
C229 C 0.10575 0.61527 0.42082 0.0
C230 C 0.11922 0.60347 0.56034 0.0
C231 C 0.08045 0.60397 0.4325 0.0
C232 C 0.12581 0.61406 0.48346 0.0
C233 C 0.05092 0.57449 0.51271 0.0
O234 O 1.0093 0.53325 0.80287 0.0
O235 O 0.04009 0.55934 0.74075 0.0
C236 C 0.02299 0.55581 0.79954 0.0
O237 O 0.99124 0.53792 0.6124 0.0
O238 O 0.02787 0.47736 0.87766 0.0
O239 O 1.00216 0.45678 0.78937 0.0
O240 O 0.98319 0.49977 0.68666 0.0
C241 C 0.97456 0.51951 0.63925 0.0
O242 O 0.02834 0.49938 0.54693 0.0
O243 O 0.03907 0.46888 0.64705 0.0
O244 O 0.0665 0.50386 0.78528 0.0
O245 O 0.05539 0.549 0.50321 0.0
O246 O 0.03541 0.57915 0.57401 0.0
O247 O 0.07847 0.52377 0.66505 0.0
C248 C 0.98372 0.46706 0.91441 0.0
C249 C 0.97954 0.49372 0.93726 0.0
C250 C 0.93643 0.45792 0.93438 0.0
C251 C 0.9539 0.50287 0.95186 0.0
C252 C 0.96218 0.44894 0.91616 0.0
C253 C 0.93172 0.48535 0.94841 0.0
C254 C 1.00753 0.46105 0.86687 0.0
C255 C 0.03428 0.47462 0.56918 0.0
H256 H 0.08984 0.58248 0.62986 0.0
H257 H 0.11024 0.6229 0.36048 0.0
H258 H 0.13419 0.60239 0.60981 0.0
H259 H 0.06593 0.60345 0.38171 0.0
H260 H 0.99568 0.5083 0.93671 0.0
H261 H 0.92018 0.44349 0.93418 0.0
H262 H 0.95164 0.52415 0.96078 0.0
H263 H 0.9649 0.42831 0.89814 0.0
H264 H 0.16834 1.00915 0.18187 0.0
H265 H 0.23681 0.02251 0.34679 0.0
H266 H 0.20616 0.02819 0.46171 0.0
H267 H 0.12145 0.05604 0.28136 0.0
H268 H 0.09275 0.03436 0.26567 0.0
H269 H 0.11981 0.03381 0.19471 0.0
H270 H 0.12493 0.98286 0.2181 0.0
H271 H 0.09808 0.98326 0.28971 0.0
H272 H 0.13052 0.97013 0.32077 0.0
H273 H 0.16798 0.02865 0.56289 0.0
H274 H 0.12614 0.02645 0.63954 0.0
H275 H 0.0807 1.01282 0.41248 0.0
C276 C 0.17685 1.01406 0.24173 0.0
C277 C 0.20535 0.01619 0.25387 0.0
C278 C 0.21535 0.02173 0.33431 0.0
C279 C 0.19795 0.02464 0.40059 0.0
C280 C 0.17017 0.02191 0.38686 0.0
C281 C 0.15961 0.01697 0.30915 0.0
C282 C 0.12898 1.01391 0.31208 0.0
C283 C 0.11491 0.03584 0.26037 0.0
C284 C 0.12011 0.98587 0.28345 0.0
C285 C 0.12398 0.01765 0.40347 0.0
C286 C 0.14814 0.02219 0.44525 0.0
C287 C 0.14902 0.02535 0.53028 0.0
C288 C 0.12491 0.02399 0.57366 0.0
C289 C 0.0996 0.01961 0.53319 0.0
C290 C 0.0994 0.01647 0.44616 0.0
H291 H 0.54103 0.20097 0.41129 0.0
H292 H 0.49116 0.17285 0.20738 0.0
H293 H 0.49009 0.12751 0.27026 0.0
H294 H 0.57997 0.13843 0.44246 0.0
H295 H 0.58122 0.14188 0.55237 0.0
H296 H 0.57962 0.17125 0.4878 0.0
H297 H 0.53734 0.18693 0.5624 0.0
H298 H 0.53862 0.15747 0.62648 0.0
H299 H 0.50853 0.16503 0.56675 0.0
H300 H 0.49143 0.08551 0.36364 0.0
H301 H 0.49795 0.05073 0.4711 0.0
H302 H 0.54759 0.10602 0.61364 0.0
C303 C 0.5304 0.18511 0.3789 0.0
C304 C 0.5163 0.19056 0.30365 0.0
C305 C 0.50232 0.16921 0.26429 0.0
C306 C 0.50149 0.14338 0.30002 0.0
C307 C 0.5149 0.13889 0.37539 0.0
C308 C 0.52943 0.15915 0.41375 0.0
C309 C 0.54155 0.14935 0.4953 0.0
C310 C 0.57242 0.15028 0.49441 0.0
C311 C 0.53087 0.16567 0.56695 0.0
C312 C 0.5313 0.12059 0.49769 0.0
C313 C 0.51593 0.1149 0.42801 0.0
C314 C 0.50369 0.08981 0.41788 0.0
C315 C 0.50744 0.0701 0.47966 0.0
C316 C 0.52339 0.07529 0.5514 0.0
C317 C 0.53539 0.10108 0.55979 0.0
H318 H 0.39865 0.52578 0.18959 0.0
H319 H 0.33013 0.49209 0.31265 0.0
H320 H 0.35848 0.4851 0.43755 0.0
H321 H 0.44917 0.48163 0.2809 0.0
H322 H 0.47457 0.50733 0.29049 0.0
H323 H 0.44909 0.50943 0.20994 0.0
H324 H 0.43578 0.55651 0.25983 0.0
H325 H 0.46126 0.55459 0.34037 0.0
H326 H 0.42682 0.56098 0.36507 0.0
H327 H 0.39423 0.48213 0.55059 0.0
H328 H 0.43397 0.48419 0.64383 0.0
H329 H 0.48028 0.51992 0.44999 0.0
C330 C 0.38966 0.51684 0.24286 0.0
C331 C 0.36208 0.50935 0.24045 0.0
C332 C 0.35109 0.49789 0.31187 0.0
C333 C 0.36712 0.49384 0.38347 0.0
C334 C 0.3942 0.50135 0.38348 0.0
C335 C 0.40541 0.51269 0.31508 0.0
C336 C 0.43498 0.51937 0.3319 0.0
C337 C 0.45302 0.50349 0.27491 0.0
C338 C 0.44 0.54966 0.32382 0.0
C339 C 0.43868 0.51003 0.42051 0.0
C340 C 0.41484 0.49968 0.44881 0.0
C341 C 0.41296 0.49014 0.52885 0.0
C342 C 0.4358 0.49141 0.58154 0.0
C343 C 0.46054 0.5021 0.55482 0.0
C344 C 0.46188 0.51137 0.47256 0.0
H345 H 0.04891 0.32468 0.38871 0.0
H346 H 0.03223 0.35774 0.14668 0.0
H347 H 0.02684 0.40272 0.20768 0.0
H348 H 1.00222 0.3668 0.49979 0.0
H349 H 0.02451 0.36999 0.58829 0.0
H350 H 0.02565 0.34043 0.52577 0.0
H351 H 0.07648 0.3482 0.50576 0.0
H352 H 0.07545 0.37788 0.56768 0.0
H353 H 0.08783 0.37978 0.46514 0.0
H354 H 0.02466 0.44492 0.29658 0.0
H355 H 0.02525 0.47987 0.40285 0.0
H356 H 0.04383 0.41972 0.58873 0.0
C357 C 0.04355 0.34129 0.34864 0.0
C358 C 0.04017 0.33732 0.26266 0.0
C359 C 0.03417 0.35992 0.21255 0.0
C360 C 0.03123 0.38564 0.24687 0.0
C361 C 0.03464 0.38877 0.33175 0.0
C362 C 0.04061 0.36713 0.382 0.0
C363 C 0.04402 0.37595 0.47106 0.0
C364 C 0.02284 0.36249 0.52437 0.0
C365 C 0.07265 0.3701 0.50435 0.0
C366 C 0.03916 0.40597 0.46341 0.0
C367 C 0.03376 0.41295 0.38245 0.0
C368 C 0.02881 0.43953 0.36001 0.0
C369 C 0.02923 0.45937 0.42126 0.0
C370 C 0.03461 0.4529 0.50504 0.0
C371 C 0.03967 0.42562 0.52572 0.0
H372 H 0.88429 0.97928 0.16995 0.0
H373 H 0.82864 0.03733 0.06453 0.0
H374 H 0.8614 0.04848 0.95837 0.0
H375 H 0.94703 0.01744 0.12752 0.0
H376 H 0.96563 0.98772 0.1038 0.0
H377 H 0.93885 0.98599 0.17563 0.0
H378 H 0.91597 0.94863 0.08936 0.0
H379 H 0.9425 0.95043 0.01682 0.0
H380 H 0.90802 0.95462 0.98234 0.0
H381 H 0.89905 0.05054 0.85455 0.0
H382 H 0.93878 0.04592 0.7693 0.0
H383 H 0.97178 0.98689 0.94008 0.0
C384 C 0.87929 0.99492 0.12598 0.0
C385 C 0.85376 1.0079 0.12775 0.0
C386 C 0.84805 0.02762 0.0669 0.0
C387 C 0.86657 0.03387 1.00541 0.0
C388 C 0.89116 0.02033 1.00442 0.0
C389 C 0.89772 1.00147 0.06386 0.0
C390 C 0.92523 0.98927 0.04714 0.0
C391 C 0.94538 0.99547 0.11773 0.0
C392 C 0.92277 0.95894 0.03309 0.0
C393 C 0.93296 1.00385 0.96845 0.0
C394 C 0.91291 0.02166 0.94501 0.0
C395 C 0.91488 0.0368 0.87317 0.0
C396 C 0.9377 0.03392 0.82456 0.0
C397 C 0.95893 0.01607 0.84678 0.0
C398 C 0.95627 1.00088 0.92061 0.0
H399 H 0.57973 0.84086 0.12407 0.0
H400 H 0.50863 0.85831 0.26094 0.0
H401 H 0.49872 0.89675 0.16962 0.0
H402 H 0.59952 0.90792 0.08692 0.0
H403 H 0.61019 0.903 0.98355 0.0
H404 H 0.61116 0.87553 0.05555 0.0
H405 H 0.58144 0.84705 0.95662 0.0
H406 H 0.58062 0.87434 0.88383 0.0
H407 H 0.54966 0.86011 0.919 0.0
H408 H 0.49907 0.93646 0.07445 0.0
H409 H 0.50622 0.97152 0.97037 0.0
H410 H 0.57506 0.92819 0.88346 0.0
C411 C 0.56169 0.85236 0.13324 0.0
C412 C 0.54481 0.8462 0.19985 0.0
C413 C 0.52173 0.86224 0.21043 0.0
C414 C 0.516 0.8843 0.15889 0.0
C415 C 0.5333 0.89026 0.0955 0.0
C416 C 0.5554 0.87448 0.08112 0.0
C417 C 0.57075 0.88574 1.00866 0.0
C418 C 0.59962 0.8935 0.03529 0.0
C419 C 0.57061 0.86561 0.93782 0.0
C420 C 0.55414 0.91053 0.98582 0.0
C421 C 0.53278 0.91275 0.0376 0.0
C422 C 0.51547 0.93464 0.03281 0.0
C423 C 0.51982 0.95463 0.97354 0.0
C424 C 0.54107 0.95276 0.91791 0.0
C425 C 0.55839 0.93016 0.92412 0.0
H426 H 0.69206 0.49074 0.14259 0.0
H427 H 0.66822 0.55402 0.30529 0.0
H428 H 0.62989 0.56494 0.21049 0.0
H429 H 0.67391 0.52495 0.94929 0.0
H430 H 0.66187 0.49474 0.90047 0.0
H431 H 0.68811 0.49305 0.97879 0.0
H432 H 0.65963 0.45933 0.06075 0.0
H433 H 0.63325 0.46104 0.98299 0.0
H434 H 0.62602 0.46828 0.08809 0.0
H435 H 0.59242 0.56725 0.10028 0.0
H436 H 0.56001 0.56169 0.98399 0.0
H437 H 0.60827 0.49696 0.89139 0.0
C438 C 0.67906 0.50724 0.15749 0.0
C439 C 0.68352 0.52192 0.23091 0.0
C440 C 0.66556 0.54288 0.2489 0.0
C441 C 0.64366 0.54911 0.19545 0.0
C442 C 0.63975 0.53416 0.12391 0.0
C443 C 0.65706 0.51371 0.10468 0.0
C444 C 0.64793 0.50016 0.02525 0.0
C445 C 0.66922 0.50343 0.95956 0.0
C446 C 0.64132 0.47045 0.0402 0.0
C447 C 0.62269 0.51601 1.0029 0.0
C448 C 0.61831 0.53552 0.06068 0.0
C449 C 0.59584 0.55215 0.05451 0.0
C450 C 0.57744 0.54879 0.988 0.0
C451 C 0.58144 0.52899 0.92757 0.0
C452 C 0.60458 0.5125 0.9356 0.0
H453 H 0.05898 0.68661 0.07431 0.0
H454 H 0.98311 0.67487 0.19291 0.0
H455 H 0.97264 0.63676 0.10054 0.0
H456 H 0.03441 0.66887 0.86464 0.0
H457 H 0.06525 0.65233 0.84003 0.0
H458 H 0.06582 0.67969 0.91157 0.0
H459 H 0.08974 0.64942 0.02006 0.0
H460 H 0.08899 0.6219 0.94922 0.0
H461 H 0.07447 0.61805 0.04847 0.0
H462 H 0.97237 0.59682 1.00266 0.0
H463 H 0.98029 0.56157 0.90062 0.0
H464 H 0.05574 0.59952 0.84044 0.0
C465 C 0.03989 0.67639 0.07957 0.0
C466 C 0.02178 0.68395 0.14114 0.0
C467 C 0.99719 0.66971 0.14624 0.0
C468 C 0.99117 0.64788 0.09416 0.0
C469 C 1.00977 0.64042 0.03598 0.0
C470 C 0.03349 0.65453 0.02752 0.0
C471 C 0.05028 0.64204 0.96105 0.0
C472 C 0.05417 0.66192 0.89011 0.0
C473 C 0.07748 0.63228 0.99686 0.0
C474 C 0.03254 0.61853 0.93409 0.0
C475 C 1.00931 0.6179 0.97847 0.0
C476 C 0.99037 0.59742 0.96711 0.0
C477 C 0.99513 0.5773 0.90897 0.0
C478 C 1.01856 0.57757 0.86149 0.0
C479 C 0.03744 0.59871 0.87464 0.0
H480 H 0.94278 0.21292 0.12877 0.0
H481 H 0.97278 0.26228 0.32946 0.0
H482 H 0.9424 0.23945 0.42208 0.0
H483 H 0.87375 0.1918 0.22028 0.0
H484 H 0.87894 0.15816 0.18481 0.0
H485 H 0.89044 0.18629 0.12537 0.0
H486 H 0.93854 0.16643 0.12756 0.0
H487 H 0.92708 0.13848 0.1855 0.0
H488 H 0.95482 0.15844 0.22479 0.0
H489 H 0.92113 0.20406 0.50105 0.0
H490 H 0.91944 0.15855 0.5582 0.0
H491 H 0.91112 0.12659 0.31234 0.0
C492 C 0.94252 0.21939 0.19186 0.0
C493 C 0.96062 0.23917 0.2215 0.0
C494 C 0.959 0.2475 0.30404 0.0
C495 C 0.94163 0.23454 0.35757 0.0
C496 C 0.92623 0.21301 0.32838 0.0
C497 C 0.92658 0.20546 0.24689 0.0
C498 C 0.91527 0.1775 0.23502 0.0
C499 C 0.88797 0.17851 0.18864 0.0
C500 C 0.93512 0.15917 0.19084 0.0
C501 C 0.91179 0.16927 0.32353 0.0
C502 C 0.91611 0.19069 0.37578 0.0
C503 C 0.91743 0.18727 0.46064 0.0
C504 C 0.91677 0.16121 0.49259 0.0
C505 C 0.91613 0.13883 0.43961 0.0
C506 C 0.91141 0.14313 0.35472 0.0
H507 H 0.29548 0.02676 0.36522 0.0
H508 H 0.33573 0.09619 0.26804 0.0
H509 H 0.36926 0.09407 0.38132 0.0
H510 H 0.32525 0.03439 0.59992 0.0
H511 H 0.32794 0.99843 0.60365 0.0
H512 H 0.29953 1.01395 0.55135 0.0
H513 H 0.31 0.98707 0.42163 0.0
H514 H 0.3386 0.97218 0.4716 0.0
H515 H 0.34263 0.99044 0.37704 0.0
H516 H 0.40644 0.07408 0.45376 0.0
H517 H 0.44144 0.04062 0.48404 0.0
H518 H 0.38045 0.98115 0.5325 0.0
C519 C 0.31027 0.04259 0.37208 0.0
C520 C 0.31326 0.06159 0.30894 0.0
C521 C 0.33316 0.08164 0.31669 0.0
C522 C 0.35225 0.08052 0.38115 0.0
C523 C 0.35113 0.05917 0.43667 0.0
C524 C 0.33003 0.0409 0.43448 0.0
C525 C 0.33692 0.01601 0.48444 0.0
C526 C 0.3215 0.01569 0.56461 0.0
C527 C 0.33179 0.98996 0.43561 0.0
C528 C 0.36652 0.02094 0.5016 0.0
C529 C 0.37387 0.04667 0.47864 0.0
C530 C 0.40077 0.0543 0.47456 0.0
C531 C 0.42054 0.03505 0.49041 0.0
C532 C 0.41333 1.00837 0.50923 0.0
C533 C 0.38617 1.0016 0.51909 0.0
H534 H 0.61581 0.31789 0.19791 0.0
H535 H 0.58512 0.26403 0.38307 0.0
H536 H 0.61261 0.28673 0.48767 0.0
H537 H 0.68232 0.33944 0.31255 0.0
H538 H 0.67664 0.37351 0.27963 0.0
H539 H 0.66661 0.34616 0.21367 0.0
H540 H 0.61807 0.36482 0.20429 0.0
H541 H 0.62803 0.39202 0.26905 0.0
H542 H 0.60046 0.37069 0.29748 0.0
H543 H 0.63105 0.32167 0.57729 0.0
H544 H 0.63245 0.36621 0.64042 0.0
H545 H 0.64384 0.40213 0.40136 0.0
C546 C 0.6153 0.3104 0.26013 0.0
C547 C 0.59783 0.28925 0.28136 0.0
C548 C 0.59849 0.27979 0.36354 0.0
C549 C 0.61418 0.29271 0.42415 0.0
C550 C 0.62893 0.31531 0.40247 0.0
C551 C 0.62962 0.32409 0.32194 0.0
C552 C 0.64033 0.35248 0.31684 0.0
C553 C 0.66814 0.35291 0.27841 0.0
C554 C 0.62053 0.37106 0.26929 0.0
C555 C 0.64253 0.3593 0.40711 0.0
C556 C 0.6377 0.33706 0.45546 0.0
C557 C 0.63526 0.3391 0.54009 0.0
C558 C 0.63578 0.3646 0.57538 0.0
C559 C 0.63761 0.38785 0.52567 0.0
C560 C 0.64285 0.38489 0.44151 0.0
H561 H 0.25336 0.54617 0.34204 0.0
H562 H 0.25404 0.6072 0.15331 0.0
H563 H 0.22692 0.6367 0.23888 0.0
H564 H 0.18986 0.5488 0.37286 0.0
H565 H 0.19018 0.54323 0.48216 0.0
H566 H 0.21759 0.53168 0.42361 0.0
H567 H 0.25102 0.55873 0.51575 0.0
H568 H 0.22343 0.5704 0.57509 0.0
H569 H 0.24601 0.59413 0.52954 0.0
H570 H 0.19039 0.65336 0.32183 0.0
H571 H 0.1469 0.65463 0.39018 0.0
H572 H 0.16825 0.58236 0.52458 0.0
C573 C 0.24908 0.5664 0.32145 0.0
C574 C 0.25608 0.5748 0.24244 0.0
C575 C 0.24915 0.60077 0.21461 0.0
C576 C 0.23388 0.61765 0.26304 0.0
C577 C 0.22572 0.6082 0.33903 0.0
C578 C 0.23336 0.58321 0.36862 0.0
C579 C 0.21741 0.57527 0.44255 0.0
C580 C 0.20289 0.54819 0.42936 0.0
C581 C 0.23556 0.57461 0.52035 0.0
C582 C 0.19784 0.59836 0.44477 0.0
C583 C 0.20369 0.61774 0.38698 0.0
C584 C 0.18607 0.63878 0.36897 0.0
C585 C 0.16132 0.63928 0.40771 0.0
C586 C 0.15428 0.61865 0.46291 0.0
C587 C 0.17342 0.59886 0.48467 0.0
H588 H 0.06203 0.79633 0.01707 0.0
H589 H 0.11803 0.79618 0.22449 0.0
H590 H 0.15096 0.82115 0.14352 0.0
H591 H 0.11597 0.8011 0.84452 0.0
H592 H 0.09408 0.82355 0.78742 0.0
H593 H 0.08005 0.7966 0.8467 0.0
H594 H 0.05099 0.83065 0.92376 0.0
H595 H 0.06467 0.85728 0.86455 0.0
H596 H 0.06722 0.85853 0.97495 0.0
H597 H 0.17064 0.85653 0.062 0.0
H598 H 0.17286 0.90081 0.9955 0.0
H599 H 0.10454 0.87976 0.83838 0.0
C600 C 0.08189 0.80034 0.04318 0.0
C601 C 0.08789 0.79417 0.12587 0.0
C602 C 0.11341 0.80056 0.16054 0.0
C603 C 0.13226 0.81453 0.11467 0.0
C604 C 0.12523 0.82197 0.03432 0.0
C605 C 0.10064 0.81482 0.99842 0.0
C606 C 0.09518 0.83032 0.91973 0.0
C607 C 0.09641 0.81178 0.84518 0.0
C608 C 0.06796 0.84508 0.92102 0.0
C609 C 0.11883 0.84951 0.92237 0.0
C610 C 0.13671 0.84343 0.98637 0.0
C611 C 0.15732 0.86103 1.01018 0.0
C612 C 0.15845 0.88622 0.97221 0.0
C613 C 0.13886 0.89363 0.91191 0.0
C614 C 0.12022 0.8743 0.88269 0.0
H615 H 0.73136 0.0996 0.26591 0.0
H616 H 0.77953 0.07123 0.06704 0.0
H617 H 0.75792 0.1038 0.97454 0.0
H618 H 0.67565 0.0924 0.16518 0.0
H619 H 0.65764 0.12044 0.20567 0.0
H620 H 0.68493 0.10618 0.26399 0.0
H621 H 0.70795 0.15283 0.27095 0.0
H622 H 0.68056 0.16707 0.21056 0.0
H623 H 0.71462 0.17085 0.17771 0.0
H624 H 0.72384 0.12828 0.89478 0.0
H625 H 0.67825 0.13278 0.83489 0.0
H626 H 0.64676 0.13875 0.07879 0.0
C627 C 0.73779 0.10055 0.20326 0.0
C628 C 0.75704 0.08248 0.17427 0.0
C629 C 0.76525 0.08499 0.09214 0.0
C630 C 0.75303 0.10365 0.03869 0.0
C631 C 0.73235 0.11951 0.06745 0.0
C632 C 0.72471 0.11801 0.14824 0.0
C633 C 0.69748 0.13072 0.1591 0.0
C634 C 0.6778 0.11126 0.20071 0.0
C635 C 0.70034 0.15693 0.20742 0.0
C636 C 0.6895 0.13633 0.07038 0.0
C637 C 0.71072 0.13181 0.01933 0.0
C638 C 0.70722 0.13214 0.93425 0.0
C639 C 0.68111 0.13446 0.90068 0.0
C640 C 0.65875 0.13507 0.95229 0.0
C641 C 0.66332 0.13846 0.0375 0.0
H642 H 0.45398 0.72092 0.26486 0.0
H643 H 0.48973 0.76724 0.06998 0.0
H644 H 0.45796 0.74759 0.97129 0.0
H645 H 0.46115 0.66553 0.17272 0.0
H646 H 0.43132 0.64829 0.20494 0.0
H647 H 0.445 0.67492 0.26571 0.0
H648 H 0.39923 0.6995 0.25573 0.0
H649 H 0.38542 0.67267 0.19387 0.0
H650 H 0.38386 0.70669 0.15669 0.0
H651 H 0.43526 0.71425 0.88818 0.0
H652 H 0.42995 0.66902 0.83161 0.0
H653 H 0.41459 0.638 0.07405 0.0
C654 C 0.45481 0.72741 0.20168 0.0
C655 C 0.47487 0.74546 0.17605 0.0
C656 C 0.47452 0.75389 0.09292 0.0
C657 C 0.45634 0.74271 0.03563 0.0
C658 C 0.43885 0.72271 0.06147 0.0
C659 C 0.43793 0.71511 0.14305 0.0
C660 C 0.4238 0.68838 0.15245 0.0
C661 C 0.44139 0.66812 0.20166 0.0
C662 C 0.39645 0.69204 0.192 0.0
C663 C 0.42017 0.68058 0.06326 0.0
C664 C 0.42709 0.7015 0.01186 0.0
C665 C 0.42924 0.69795 0.92764 0.0
C666 C 0.42642 0.6721 0.89603 0.0
C667 C 0.42228 0.65003 0.94891 0.0
C668 C 0.41724 0.65463 0.03225 0.0
H669 H 0.8252 0.57282 0.16105 0.0
H670 H 0.7681 0.51173 0.0855 0.0
H671 H 0.79764 0.49843 0.97475 0.0
H672 H 0.86385 0.58109 0.95555 0.0
H673 H 0.89489 0.58235 0.01519 0.0
H674 H 0.86482 0.59694 0.05455 0.0
H675 H 0.87118 0.56815 0.18606 0.0
H676 H 0.9005 0.55291 0.14687 0.0
H677 H 0.87277 0.5322 0.17756 0.0
H678 H 0.83805 0.48212 0.90543 0.0
H679 H 0.8836 0.46528 0.88318 0.0
H680 H 0.91636 0.53005 0.03284 0.0
C681 C 0.81837 0.55775 0.11769 0.0
C682 C 0.79475 0.54311 0.13176 0.0
C683 C 0.78612 0.52335 0.07513 0.0
C684 C 0.80293 0.51558 0.01219 0.0
C685 C 0.82817 0.5277 1.00762 0.0
C686 C 0.83573 0.54873 0.05862 0.0
C687 C 0.8658 0.55318 0.05989 0.0
C688 C 0.87274 0.57998 0.0188 0.0
C689 C 0.87825 0.55145 0.14769 0.0
C690 C 0.87416 0.52993 1.00809 0.0
C691 C 0.85229 0.51637 0.9747 0.0
C692 C 0.85533 0.4929 0.93016 0.0
C693 C 0.88137 0.48311 0.91959 0.0
C694 C 0.90402 0.4961 0.9566 0.0
C695 C 0.9 0.5199 1.00095 0.0
H696 H 0.02606 0.18063 0.09959 0.0
H697 H 0.02977 0.2414 0.9098 0.0
H698 H 0.03492 0.20579 0.80587 0.0
H699 H 0.07405 0.13334 1.01091 0.0
H700 H 0.05515 0.10449 0.04314 0.0
H701 H 0.05446 0.1349 0.10189 0.0
H702 H 1.0025 0.13529 0.08813 0.0
H703 H 1.00303 0.10509 0.02854 0.0
H704 H 0.98654 0.13453 0.9876 0.0
H705 H 0.03448 0.16198 0.71978 0.0
H706 H 0.03321 0.11597 0.66388 0.0
H707 H 0.0306 0.08392 0.91096 0.0
C708 C 0.02857 0.18657 0.03637 0.0
C709 C 0.02767 0.21413 0.01346 0.0
C710 C 0.03086 0.2207 0.92967 0.0
C711 C 0.0335 0.20046 0.86995 0.0
C712 C 0.03321 0.17352 0.89448 0.0
C713 C 0.03129 0.16665 0.97621 0.0
C714 C 0.03058 0.13634 0.98704 0.0
C715 C 0.05502 0.1267 0.03881 0.0
C716 C 1.00409 0.12729 0.02508 0.0
C717 C 0.03214 0.12703 0.89867 0.0
C718 C 0.0335 0.14874 0.84594 0.0
C719 C 0.03382 0.14498 0.76107 0.0
C720 C 0.033 0.11863 0.72965 0.0
C721 C 0.0321 0.09596 0.78246 0.0
C722 C 0.03168 0.10055 0.86835 0.0
H723 H 0.35614 0.06702 0.05245 0.0
H724 H 0.31486 0.99345 0.98405 0.0
H725 H 0.35298 0.98177 0.89644 0.0
H726 H 0.38819 0.08033 0.85803 0.0
H727 H 0.4188 0.09256 0.90657 0.0
H728 H 0.38729 0.0961 0.95697 0.0
H729 H 0.40716 0.0714 0.08449 0.0
H730 H 0.43869 0.06771 0.03445 0.0
H731 H 0.42155 0.03861 0.07301 0.0
H732 H 0.39849 0.97689 0.82106 0.0
H733 H 0.44424 0.97935 0.76737 0.0
H734 H 0.45718 0.05525 0.89018 0.0
C735 C 0.35483 0.04832 0.01942 0.0
C736 C 0.33188 0.03112 0.02703 0.0
C737 C 0.33155 1.0073 0.9799 0.0
C738 C 0.35344 1.00037 0.93014 0.0
C739 C 0.37597 0.01735 0.92705 0.0
C740 C 0.37664 0.04096 0.97047 0.0
C741 C 0.40352 0.05539 0.95986 0.0
C742 C 0.39918 0.08272 0.91786 0.0
C743 C 0.41862 0.05845 0.04289 0.0
C744 C 0.4182 0.0362 0.90418 0.0
C745 C 0.40186 1.01445 0.8854 0.0
C746 C 0.41115 0.99398 0.83559 0.0
C747 C 0.43742 0.99563 0.80485 0.0
C748 C 0.45489 0.01757 0.82316 0.0
C749 C 0.44473 0.03816 0.87393 0.0
H750 H 0.56941 0.32412 1.00921 0.0
H751 H 0.48938 0.31342 0.10197 0.0
H752 H 0.47452 0.35435 0.0269 0.0
H753 H 0.57239 0.39418 0.02597 0.0
H754 H 0.5904 0.39989 0.93327 0.0
H755 H 0.5941 0.36861 0.98772 0.0
H756 H 0.5797 0.34273 0.85662 0.0
H757 H 0.57616 0.37395 0.80148 0.0
H758 H 0.54832 0.35081 0.80441 0.0
H759 H 0.47008 0.40009 0.95511 0.0
H760 H 0.47484 0.44326 0.88205 0.0
H761 H 0.55716 0.42357 0.82812 0.0
C762 C 0.54856 0.33003 0.01236 0.0
C763 C 0.53052 0.31519 0.06165 0.0
C764 C 0.50351 0.32393 0.06408 0.0
C765 C 0.49497 0.3474 0.02201 0.0
C766 C 0.51351 0.36193 0.97631 0.0
C767 C 0.53966 0.35325 0.96998 0.0
C768 C 0.55586 0.37283 0.91865 0.0
C769 C 0.57959 0.38457 0.96944 0.0
C770 C 0.56558 0.35927 0.84065 0.0
C771 C 0.53492 0.3942 0.89797 0.0
C772 C 0.51067 0.38759 0.93244 0.0
C773 C 0.48885 0.40507 0.92678 0.0
C774 C 0.49178 0.42969 0.88516 0.0
C775 C 0.51621 0.43686 0.8479 0.0
C776 C 0.538 0.41857 0.85409 0.0
H777 H 0.2029 0.51274 0.08405 0.0
H778 H 0.26043 0.52742 0.89508 0.0
H779 H 0.22363 0.52408 0.789 0.0
H780 H 0.16003 0.46493 0.96688 0.0
H781 H 0.1297 0.47744 1.01043 0.0
H782 H 0.161 0.47875 0.06872 0.0
H783 H 0.15497 0.5298 0.08761 0.0
H784 H 0.12386 0.52873 0.02858 0.0
H785 H 0.15044 0.551 0.99853 0.0
H786 H 0.17832 0.52407 0.7047 0.0
H787 H 0.13116 0.52286 0.65123 0.0
H788 H 0.10409 0.50652 0.89667 0.0
C789 C 0.20788 0.51454 0.02009 0.0
C790 C 0.23469 0.52002 0.99782 0.0
C791 C 0.24023 0.52271 0.91357 0.0
C792 C 0.21934 0.52107 0.85301 0.0
C793 C 0.19296 0.51643 0.87745 0.0
C794 C 0.18737 0.51272 0.9592 0.0
C795 C 0.15743 0.50873 0.97054 0.0
C796 C 0.15171 0.4808 1.00624 0.0
C797 C 0.14601 0.53089 0.0245 0.0
C798 C 0.1468 0.51113 0.88268 0.0
C799 C 0.16749 0.51572 0.82961 0.0
C800 C 0.16214 0.52003 0.74592 0.0
C801 C 0.13519 0.51938 0.71598 0.0
C802 C 0.11369 0.51422 0.76915 0.0
C803 C 0.11989 0.51004 0.85367 0.0
H804 H 0.02263 0.848 0.27148 0.0
H805 H 0.03668 0.78834 0.46121 0.0
H806 H 0.03419 0.8238 0.56689 0.0
H807 H 0.06145 0.8996 0.35968 0.0
H808 H 0.03916 0.92648 0.32933 0.0
H809 H 0.0398 0.89628 0.26976 0.0
H810 H 0.98863 0.89 0.28656 0.0
H811 H 0.98775 0.9204 0.34536 0.0
H812 H 0.97514 0.8896 0.38785 0.0
H813 H 0.03572 0.86775 0.65128 0.0
H814 H 0.03544 0.91383 0.70631 0.0
H815 H 1.01745 0.94484 0.46231 0.0
C816 C 0.0244 0.84225 0.33548 0.0
C817 C 0.02946 0.81508 0.35777 0.0
C818 C 0.03221 0.80869 0.44229 0.0
C819 C 0.03109 0.82887 0.50276 0.0
C820 C 0.02683 0.85553 0.4784 0.0
C821 C 0.02293 0.8621 0.39657 0.0
C822 C 1.01909 0.89224 0.38594 0.0
C823 C 0.04119 0.90435 0.33304 0.0
C824 C 0.99098 0.89842 0.34926 0.0
C825 C 0.02189 0.90182 0.47427 0.0
C826 C 0.02659 0.88036 0.52673 0.0
C827 C 0.03153 0.88449 0.61054 0.0
C828 C 0.03143 0.91089 0.6414 0.0
C829 C 0.02602 0.93325 0.58941 0.0
C830 C 0.02111 0.92835 0.50447 0.0
H831 H 0.70075 1.01415 0.3125 0.0
H832 H 0.76405 0.02009 0.49932 0.0
H833 H 0.72986 0.01685 0.60685 0.0
H834 H 0.65282 0.05359 0.41043 0.0
H835 H 0.62405 0.0338 0.37859 0.0
H836 H 0.65353 0.03445 0.31726 0.0
H837 H 0.65668 0.98282 0.32575 0.0
H838 H 0.62699 0.98197 0.38628 0.0
H839 H 0.65757 0.96654 0.42466 0.0
H840 H 0.68651 0.01824 0.69562 0.0
H841 H 0.64097 0.01813 0.7535 0.0
H842 H 0.60596 1.00874 0.5091 0.0
C843 C 0.7076 1.01404 0.37609 0.0
C844 C 0.73557 0.01703 0.39655 0.0
C845 C 0.74315 0.01723 0.48107 0.0
C846 C 0.72365 0.01573 0.54286 0.0
C847 C 0.69628 1.01368 0.52028 0.0
C848 C 0.68839 1.01226 0.43851 0.0
C849 C 0.65777 1.01038 0.42969 0.0
C850 C 0.64638 0.03449 0.38111 0.0
C851 C 0.64925 0.98385 0.38919 0.0
C852 C 0.64945 1.01122 0.51897 0.0
C853 C 0.67191 1.01343 0.5705 0.0
C854 C 0.669 0.01604 0.65529 0.0
C855 C 0.64286 0.01605 0.68793 0.0
C856 C 0.61944 1.01303 0.63686 0.0
C857 C 0.62317 1.0106 0.55084 0.0
H858 H 0.54032 0.68248 0.31509 0.0
H859 H 0.53448 0.74192 0.50565 0.0
H860 H 0.53458 0.70572 0.61048 0.0
H861 H 0.49771 0.6344 0.39927 0.0
H862 H 0.51682 0.60556 0.37032 0.0
H863 H 0.51863 0.63601 0.31112 0.0
H864 H 0.57036 0.63706 0.33212 0.0
H865 H 0.56879 0.60636 0.39043 0.0
H866 H 0.5849 0.63551 0.43452 0.0
H867 H 0.52863 0.66195 0.69296 0.0
H868 H 0.52448 0.61572 0.74721 0.0
H869 H 0.53831 0.58427 0.50539 0.0
C870 C 0.53999 0.68793 0.37917 0.0
C871 C 0.53789 0.7153 0.40199 0.0
C872 C 0.53677 0.72136 0.48649 0.0
C873 C 0.5365 0.70079 0.54645 0.0
C874 C 0.53778 0.67404 0.52163 0.0
C875 C 0.5402 0.66762 0.43995 0.0
C876 C 0.54088 0.6373 0.42907 0.0
C877 C 0.5171 0.62777 0.37419 0.0
C878 C 0.56784 0.62854 0.39449 0.0
C879 C 0.53806 0.62754 0.51709 0.0
C880 C 0.5359 0.64907 0.56944 0.0
C881 C 0.53096 0.64508 0.65253 0.0
C882 C 0.52851 0.61866 0.68292 0.0
C883 C 0.53157 0.5962 0.63131 0.0
C884 C 0.53652 0.60091 0.5471 0.0
H885 H 0.84258 0.56456 0.37714 0.0
H886 H 0.79884 0.50043 0.49475 0.0
H887 H 0.8389 0.49133 0.5848 0.0
H888 H 0.90337 0.53021 0.36591 0.0
H889 H 0.92461 0.55904 0.38354 0.0
H890 H 0.89157 0.56315 0.33751 0.0
H891 H 0.87915 0.59655 0.45051 0.0
H892 H 0.9123 0.59296 0.49668 0.0
H893 H 0.88307 0.58683 0.55673 0.0
H894 H 0.88608 0.48671 0.65364 0.0
H895 H 0.93406 0.48737 0.69578 0.0
H896 H 0.94769 0.55327 0.52742 0.0
C897 C 0.84114 0.54876 0.42252 0.0
C898 C 0.81722 0.53316 0.42818 0.0
C899 C 0.81652 0.51293 0.48934 0.0
C900 C 0.83938 0.50748 0.54039 0.0
C901 C 0.86293 0.52247 0.53011 0.0
C902 C 0.8638 0.54286 0.47289 0.0
C903 C 0.89187 0.55499 0.46969 0.0
C904 C 0.90354 0.55163 0.3841 0.0
C905 C 0.89157 0.58459 0.49492 0.0
C906 C 0.907 0.53802 0.53327 0.0
C907 C 0.8899 0.51952 0.568 0.0
C908 C 0.89945 0.50124 0.62684 0.0
C909 C 0.92695 0.50176 0.6503 0.0
C910 C 0.94507 0.52035 0.61516 0.0
C911 C 0.93463 0.53885 0.5561 0.0
loop_
_geom_bond_atom_site_label_1
_geom_bond_atom_site_label_2
_geom_bond_distance
_geom_bond_site_symmetry_2
_ccdc_geom_bond_type
H0 C7 0.929 . S
H1 C10 0.930 . S
H2 C12 0.929 . S
H3 C4 0.969 . S
C4 H3 0.969 . S
C4 O5 1.550 . S
C4 H6 0.973 . S
O5 C4 1.550 . S
O5 C11 1.412 . S
H6 C4 0.973 . S
C7 H0 0.929 . S
C7 C8 1.400 . S
C7 C9 1.364 . S
C8 C7 1.400 . S
C8 C12 1.377 . S
C9 C7 1.364 . S
C9 C10 1.374 . S
C10 H1 0.930 . S
C10 C9 1.374 . S
C10 C11 1.383 . S
C11 O5 1.412 . S
C11 C10 1.383 . S
C11 C12 1.394 . S
C12 H2 0.929 . S
C12 C8 1.377 . S
C12 C11 1.394 . S
H13 C20 0.929 . S
H14 C23 0.930 . S
H15 C25 0.929 . S
H16 C17 0.969 . S
C17 H16 0.969 . S
C17 O18 1.550 . S
C17 H19 0.973 . S
O18 C17 1.550 . S
O18 C24 1.412 . S
H19 C17 0.973 . S
C20 H13 0.929 . S
C20 C21 1.400 . S
C20 C22 1.364 . S
C21 C20 1.400 . S
C21 C25 1.377 . S
C22 C20 1.364 . S
C22 C23 1.374 . S
C23 H14 0.930 . S
C23 C22 1.374 . S
C23 C24 1.383 . S
C24 O18 1.412 . S
C24 C23 1.383 . S
C24 C25 1.394 . S
C25 H15 0.929 . S
C25 C21 1.377 . S
C25 C24 1.394 . S
H26 C33 0.929 . S
H27 C36 0.930 . S
H28 C38 0.929 . S
H29 C30 0.968 . S
C30 H29 0.968 . S
C30 O31 1.550 . S
C30 H32 0.973 . S
O31 C30 1.550 . S
O31 C37 1.412 . S
H32 C30 0.973 . S
C33 H26 0.929 . S
C33 C34 1.400 . S
C33 C35 1.364 . S
C34 C33 1.400 . S
C34 C38 1.377 . S
C35 C33 1.364 . S
C35 C36 1.374 . S
C36 H27 0.930 . S
C36 C35 1.374 . S
C36 C37 1.383 . S
C37 O31 1.412 . S
C37 C36 1.383 . S
C37 C38 1.394 . S
C38 H28 0.929 . S
C38 C34 1.377 . S
C38 C37 1.394 . S
H39 C46 0.929 . S
H40 C49 0.930 . S
H41 C51 0.929 . S
H42 C43 0.969 . S
C43 H42 0.969 . S
C43 O44 1.550 . S
C43 H45 0.973 . S
O44 C43 1.550 . S
O44 C50 1.412 . S
H45 C43 0.973 . S
C46 H39 0.929 . S
C46 C47 1.400 . S
C46 C48 1.364 . S
C47 C46 1.400 . S
C47 C51 1.377 . S
C48 C46 1.364 . S
C48 C49 1.374 . S
C49 H40 0.930 . S
C49 C48 1.374 . S
C49 C50 1.383 . S
C50 O44 1.412 . S
C50 C49 1.383 . S
C50 C51 1.394 . S
C51 H41 0.929 . S
C51 C47 1.377 . S
C51 C50 1.394 . S
H52 C59 0.929 . S
H53 C62 0.930 . S
H54 C64 0.929 1_556 S
H55 C56 0.969 . S
C56 H55 0.969 . S
C56 O57 1.550 . S
C56 H58 0.973 . S
O57 C56 1.550 . S
O57 C63 1.412 . S
H58 C56 0.973 . S
C59 H52 0.929 . S
C59 C60 1.400 1_554 S
C59 C61 1.364 . S
C60 C59 1.400 1_556 S
C60 C64 1.377 1_556 S
C61 C59 1.364 . S
C61 C62 1.374 . S
C62 H53 0.930 . S
C62 C61 1.374 . S
C62 C63 1.383 . S
C63 O57 1.412 . S
C63 C62 1.383 . S
C63 C64 1.394 . S
C64 H54 0.929 1_554 S
C64 C60 1.377 1_554 S
C64 C63 1.394 . S
H65 C72 0.929 . S
H66 C75 0.930 . S
H67 C77 0.929 . S
H68 C69 0.969 . S
C69 H68 0.969 . S
C69 O70 1.550 . S
C69 H71 0.973 . S
O70 C69 1.550 . S
O70 C76 1.412 . S
H71 C69 0.973 . S
C72 H65 0.929 . S
C72 C73 1.400 1_554 S
C72 C74 1.364 . S
C73 C72 1.400 1_556 S
C73 C77 1.377 . S
C74 C72 1.364 . S
C74 C75 1.374 . S
C75 H66 0.930 . S
C75 C74 1.374 . S
C75 C76 1.383 . S
C76 O70 1.412 . S
C76 C75 1.383 . S
C76 C77 1.394 1_554 S
C77 H67 0.929 . S
C77 C73 1.377 . S
C77 C76 1.394 1_556 S
H78 C85 0.929 1_556 S
H79 C88 0.930 . S
H80 C90 0.929 . S
H81 C82 0.969 . S
C82 H81 0.969 . S
C82 O83 1.550 . S
C82 H84 0.973 . S
O83 C82 1.550 . S
O83 C89 1.412 . S
H84 C82 0.973 . S
C85 H78 0.929 1_554 S
C85 C86 1.400 1_554 S
C85 C87 1.364 . S
C86 C85 1.400 1_556 S
C86 C90 1.377 . S
C87 C85 1.364 . S
C87 C88 1.374 . S
C88 H79 0.930 . S
C88 C87 1.374 . S
C88 C89 1.383 . S
C89 O83 1.412 . S
C89 C88 1.383 . S
C89 C90 1.394 1_554 S
C90 H80 0.929 . S
C90 C86 1.377 . S
C90 C89 1.394 1_556 S
H91 C98 0.929 . S
H92 C101 0.930 . S
H93 C103 0.929 . S
H94 C95 0.969 . S
C95 H94 0.969 . S
C95 O96 1.550 . S
C95 H97 0.973 . S
O96 C95 1.550 . S
O96 C102 1.412 . S
H97 C95 0.973 . S
C98 H91 0.929 . S
C98 C99 1.400 1_554 S
C98 C100 1.364 . S
C99 C98 1.400 1_556 S
C99 C103 1.377 . S
C100 C98 1.364 . S
C100 C101 1.374 . S
C101 H92 0.930 . S
C101 C100 1.374 . S
C101 C102 1.383 . S
C102 O96 1.412 . S
C102 C101 1.383 . S
C102 C103 1.394 1_554 S
C103 H93 0.929 . S
C103 C99 1.377 . S
C103 C102 1.394 1_556 S
Eu104 C113 2.828 . S
Eu104 O115 2.392 . S
Eu104 O117 2.418 1_545 S
Eu104 O122 2.373 1_655 S
Eu104 O125 2.488 . S
Eu104 O126 2.475 . S
Eu104 O127 2.349 1_655 S
Eu105 O114 2.373 1_455 S
Eu105 O118 2.488 . S
Eu105 O119 2.471 . S
Eu105 O120 2.349 . S
Eu105 O123 2.392 1_565 S
Eu105 O124 2.418 1_565 S
Eu105 C134 2.828 . S
C106 O124 1.244 . S
C106 O127 1.265 . S
C107 C108 1.379 1_655 S
C107 C111 1.373 . S
C107 C113 1.505 . S
C108 C107 1.379 1_455 S
C108 C110 1.369 . S
C108 H136 0.930 . S
C109 C111 1.383 . S
C109 C112 1.382 1_655 S
C109 H137 0.930 . S
C110 C108 1.369 . S
C110 C112 1.392 . S
C110 H138 0.930 . S
C111 C107 1.373 . S
C111 C109 1.383 . S
C111 H139 0.931 . S
C112 C109 1.382 1_455 S
C112 C110 1.392 . S
C113 Eu104 2.828 . S
C113 C107 1.505 . S
C113 O125 1.249 . S
C113 O126 1.247 . S
O114 Eu105 2.373 1_655 S
O114 C116 1.258 1_565 S
O115 Eu104 2.392 . S
O115 C116 1.242 . S
C116 O114 1.258 1_545 S
C116 O115 1.242 . S
O117 Eu104 2.418 1_565 S
O117 C121 1.244 . S
O118 Eu105 2.488 . S
O118 C134 1.249 . S
O119 Eu105 2.471 . S
O119 C134 1.244 . S
O120 Eu105 2.349 . S
O120 C121 1.265 1_455 S
C121 O117 1.244 . S
C121 O120 1.265 1_655 S
O122 Eu104 2.373 1_455 S
O122 C135 1.258 . S
O123 Eu105 2.392 1_545 S
O123 C135 1.242 . S
O124 Eu105 2.418 1_545 S
O124 C106 1.244 . S
O125 Eu104 2.488 . S
O125 C113 1.249 . S
O126 Eu104 2.475 . S
O126 C113 1.247 . S
O127 Eu104 2.349 1_455 S
O127 C106 1.265 . S
C128 C129 1.379 . S
C128 C132 1.373 1_556 S
C128 C134 1.505 . S
C129 C128 1.379 . S
C129 C131 1.369 1_556 S
C129 H140 0.930 1_455 S
C130 C132 1.383 . S
C130 C133 1.382 . S
C130 H141 0.930 . S
C131 C129 1.369 1_554 S
C131 C133 1.392 . S
C131 H142 0.930 1_455 S
C132 C128 1.373 1_554 S
C132 C130 1.383 . S
C132 H143 0.931 . S
C133 C130 1.382 . S
C133 C131 1.392 . S
C134 Eu105 2.828 . S
C134 O118 1.249 . S
C134 O119 1.244 . S
C134 C128 1.505 . S
C135 O122 1.258 . S
C135 O123 1.242 . S
H136 C108 0.930 . S
H137 C109 0.930 . S
H138 C110 0.930 . S
H139 C111 0.931 . S
H140 C129 0.930 1_655 S
H141 C130 0.930 . S
H142 C131 0.930 1_655 S
H143 C132 0.931 . S
Eu144 C153 2.828 . S
Eu144 O155 2.392 . S
Eu144 O157 2.418 . S
Eu144 O162 2.373 . S
Eu144 O165 2.488 . S
Eu144 O166 2.471 . S
Eu144 O167 2.349 1_545 S
Eu145 O154 2.373 1_565 S
Eu145 O158 2.488 . S
Eu145 O159 2.471 1_565 S
Eu145 O160 2.349 1_565 S
Eu145 O163 2.392 . S
Eu145 O164 2.418 . S
Eu145 C174 2.828 . S
C146 O164 1.244 . S
C146 O167 1.265 . S
C147 C148 1.379 . S
C147 C151 1.373 . S
C147 C153 1.505 . S
C148 C147 1.379 . S
C148 C150 1.369 . S
C148 H176 0.930 1_545 S
C149 C151 1.383 . S
C149 C152 1.382 . S
C149 H177 0.930 . S
C150 C148 1.369 . S
C150 C152 1.392 . S
C150 H178 0.930 1_545 S
C151 C147 1.373 . S
C151 C149 1.383 . S
C151 H179 0.931 . S
C152 C149 1.382 . S
C152 C150 1.392 . S
C153 Eu144 2.828 . S
C153 C147 1.505 . S
C153 O165 1.249 . S
C153 O166 1.244 . S
O154 Eu145 2.373 1_545 S
O154 C156 1.258 . S
O155 Eu144 2.392 . S
O155 C156 1.242 . S
C156 O154 1.258 . S
C156 O155 1.242 . S
O157 Eu144 2.418 . S
O157 C161 1.244 . S
O158 Eu145 2.488 . S
O158 C174 1.249 . S
O159 Eu145 2.471 1_545 S
O159 C174 1.244 1_545 S
O160 Eu145 2.349 1_545 S
O160 C161 1.265 . S
C161 O157 1.244 . S
C161 O160 1.265 . S
O162 Eu144 2.373 . S
O162 C175 1.258 1_545 S
O163 Eu145 2.392 . S
O163 C175 1.242 . S
O164 Eu145 2.418 . S
O164 C146 1.244 . S
O165 Eu144 2.488 . S
O165 C153 1.249 . S
O166 Eu144 2.471 . S
O166 C153 1.244 . S
O167 Eu144 2.349 1_565 S
O167 C146 1.265 . S
C168 C169 1.379 1_565 S
C168 C172 1.373 . S
C168 C174 1.505 . S
C169 C168 1.379 1_545 S
C169 C171 1.369 . S
C169 H180 0.930 . S
C170 C172 1.383 . S
C170 C173 1.382 . S
C170 H181 0.930 . S
C171 C169 1.369 . S
C171 C173 1.392 1_545 S
C171 H182 0.930 . S
C172 C168 1.373 . S
C172 C170 1.383 . S
C172 H183 0.931 . S
C173 C170 1.382 . S
C173 C171 1.392 1_565 S
C174 Eu145 2.828 . S
C174 O158 1.249 . S
C174 O159 1.244 1_565 S
C174 C168 1.505 . S
C175 O162 1.258 1_565 S
C175 O163 1.242 . S
H176 C148 0.930 1_565 S
H177 C149 0.930 . S
H178 C150 0.930 1_565 S
H179 C151 0.931 . S
H180 C169 0.930 . S
H181 C170 0.930 . S
H182 C171 0.930 . S
H183 C172 0.931 . S
Eu184 C193 2.828 . S
Eu184 O195 2.392 . S
Eu184 O197 2.418 . S
Eu184 O202 2.373 . S
Eu184 O205 2.488 . S
Eu184 O206 2.471 . S
Eu184 O207 2.349 . S
Eu185 O194 2.373 . S
Eu185 O198 2.488 . S
Eu185 O199 2.471 . S
Eu185 O200 2.349 . S
Eu185 O203 2.392 . S
Eu185 O204 2.418 . S
Eu185 C214 2.828 . S
C186 O204 1.244 . S
C186 O207 1.265 . S
C187 C188 1.379 . S
C187 C191 1.373 . S
C187 C193 1.505 . S
C188 C187 1.379 . S
C188 C190 1.369 . S
C188 H216 0.930 . S
C189 C191 1.383 . S
C189 C192 1.382 . S
C189 H217 0.930 . S
C190 C188 1.369 . S
C190 C192 1.392 . S
C190 H218 0.930 . S
C191 C187 1.373 . S
C191 C189 1.383 . S
C191 H219 0.931 . S
C192 C189 1.382 . S
C192 C190 1.392 . S
C193 Eu184 2.828 . S
C193 C187 1.505 . S
C193 O205 1.249 . S
C193 O206 1.244 . S
O194 Eu185 2.373 . S
O194 C196 1.258 . S
O195 Eu184 2.392 . S
O195 C196 1.242 . S
C196 O194 1.258 . S
C196 O195 1.242 . S
O197 Eu184 2.418 . S
O197 C201 1.244 . S
O198 Eu185 2.488 . S
O198 C214 1.249 . S
O199 Eu185 2.471 . S
O199 C214 1.244 . S
O200 Eu185 2.349 . S
O200 C201 1.265 . S
C201 O197 1.244 . S
C201 O200 1.265 . S
O202 Eu184 2.373 . S
O202 C215 1.258 . S
O203 Eu185 2.392 . S
O203 C215 1.242 . S
O204 Eu185 2.418 . S
O204 C186 1.244 . S
O205 Eu184 2.488 . S
O205 C193 1.249 . S
O206 Eu184 2.471 . S
O206 C193 1.244 . S
O207 Eu184 2.349 . S
O207 C186 1.265 . S
C208 C209 1.379 . S
C208 C212 1.373 . S
C208 C214 1.505 . S
C209 C208 1.379 . S
C209 C211 1.369 . S
C209 H220 0.930 . S
C210 C212 1.383 . S
C210 C213 1.382 . S
C210 H221 0.930 . S
C211 C209 1.369 . S
C211 C213 1.392 . S
C211 H222 0.930 . S
C212 C208 1.373 . S
C212 C210 1.383 . S
C212 H223 0.931 . S
C213 C210 1.382 . S
C213 C211 1.392 . S
C214 Eu185 2.828 . S
C214 O198 1.249 . S
C214 O199 1.244 . S
C214 C208 1.505 . S
C215 O202 1.258 . S
C215 O203 1.242 . S
H216 C188 0.930 . S
H217 C189 0.930 . S
H218 C190 0.930 . S
H219 C191 0.931 . S
H220 C209 0.930 . S
H221 C210 0.930 . S
H222 C211 0.930 . S
H223 C212 0.931 . S
Eu224 C233 2.828 . S
Eu224 O235 2.392 . S
Eu224 O237 2.418 1_455 S
Eu224 O242 2.373 . S
Eu224 O245 2.488 . S
Eu224 O246 2.471 . S
Eu224 O247 2.349 . S
Eu225 O234 2.373 . S
Eu225 O238 2.488 . S
Eu225 O239 2.471 . S
Eu225 O240 2.349 . S
Eu225 O243 2.392 1_655 S
Eu225 O244 2.418 1_655 S
Eu225 C254 2.828 . S
C226 O244 1.244 . S
C226 O247 1.265 . S
C227 C228 1.379 . S
C227 C231 1.373 . S
C227 C233 1.505 . S
C228 C227 1.379 . S
C228 C230 1.369 . S
C228 H256 0.930 . S
C229 C231 1.383 . S
C229 C232 1.382 . S
C229 H257 0.930 . S
C230 C228 1.369 . S
C230 C232 1.392 . S
C230 H258 0.930 . S
C231 C227 1.373 . S
C231 C229 1.383 . S
C231 H259 0.931 . S
C232 C229 1.382 . S
C232 C230 1.392 . S
C233 Eu224 2.828 . S
C233 C227 1.505 . S
C233 O245 1.249 . S
C233 O246 1.244 . S
O234 Eu225 2.373 . S
O234 C236 1.258 1_655 S
O235 Eu224 2.392 . S
O235 C236 1.242 . S
C236 O234 1.258 1_455 S
C236 O235 1.242 . S
O237 Eu224 2.418 1_655 S
O237 C241 1.244 . S
O238 Eu225 2.488 . S
O238 C254 1.249 . S
O239 Eu225 2.471 . S
O239 C254 1.244 . S
O240 Eu225 2.349 . S
O240 C241 1.265 . S
C241 O237 1.244 . S
C241 O240 1.265 . S
O242 Eu224 2.373 . S
O242 C255 1.258 . S
O243 Eu225 2.392 1_455 S
O243 C255 1.242 . S
O244 Eu225 2.418 1_455 S
O244 C226 1.244 . S
O245 Eu224 2.488 . S
O245 C233 1.249 . S
O246 Eu224 2.471 . S
O246 C233 1.244 . S
O247 Eu224 2.349 . S
O247 C226 1.265 . S
C248 C249 1.379 . S
C248 C252 1.373 1_556 S
C248 C254 1.505 . S
C249 C248 1.379 . S
C249 C251 1.369 . S
C249 H260 0.930 . S
C250 C252 1.383 . S
C250 C253 1.382 . S
C250 H261 0.930 . S
C251 C249 1.369 . S
C251 C253 1.392 1_556 S
C251 H262 0.930 . S
C252 C248 1.373 1_554 S
C252 C250 1.383 . S
C252 H263 0.931 . S
C253 C250 1.382 . S
C253 C251 1.392 1_554 S
C254 Eu225 2.828 . S
C254 O238 1.249 . S
C254 O239 1.244 . S
C254 C248 1.505 . S
C255 O242 1.258 . S
C255 O243 1.242 . S
H256 C228 0.930 . S
H257 C229 0.930 . S
H258 C230 0.930 . S
H259 C231 0.931 . S
H260 C249 0.930 . S
H261 C250 0.930 . S
H262 C251 0.930 . S
H263 C252 0.931 . S
H264 C276 0.966 . S
H265 C278 0.930 . S
H266 C279 0.930 . S
H267 C283 0.959 . S
H268 C283 0.959 . S
H269 C283 0.961 . S
H270 C284 0.960 . S
H271 C284 0.961 . S
H272 C284 0.959 . S
H273 C287 0.929 . S
H274 C288 0.931 . S
H275 C290 0.930 1_565 S
C276 H264 0.966 . S
C276 C277 1.399 . S
C276 C281 1.399 . S
C277 C276 1.399 . S
C277 C278 1.376 . S
C278 H265 0.930 . S
C278 C277 1.376 . S
C278 C279 1.388 . S
C279 H266 0.930 . S
C279 C278 1.388 . S
C279 C280 1.390 . S
C280 C279 1.390 . S
C280 C281 1.394 . S
C280 C286 1.465 . S
C281 C276 1.399 . S
C281 C280 1.394 . S
C281 C282 1.516 1_545 S
C282 C281 1.516 1_565 S
C282 C283 1.502 . S
C282 C284 1.561 . S
C282 C285 1.526 1_565 S
C283 H267 0.959 . S
C283 H268 0.959 . S
C283 H269 0.961 . S
C283 C282 1.502 . S
C284 H270 0.960 . S
C284 H271 0.961 . S
C284 H272 0.959 . S
C284 C282 1.561 . S
C285 C282 1.526 1_545 S
C285 C286 1.396 . S
C285 C290 1.390 . S
C286 C280 1.465 . S
C286 C285 1.396 . S
C286 C287 1.399 . S
C287 H273 0.929 . S
C287 C286 1.399 . S
C287 C288 1.385 . S
C288 H274 0.931 . S
C288 C287 1.385 . S
C288 C289 1.389 . S
C289 C288 1.389 . S
C289 C290 1.387 . S
C290 H275 0.930 1_545 S
C290 C285 1.390 . S
C290 C289 1.387 . S
H291 C303 0.930 . S
H292 C305 0.930 . S
H293 C306 0.930 . S
H294 C310 0.959 . S
H295 C310 0.959 . S
H296 C310 0.961 . S
H297 C311 0.960 . S
H298 C311 0.961 . S
H299 C311 0.959 . S
H300 C314 0.929 . S
H301 C315 0.931 . S
H302 C317 0.930 . S
C303 H291 0.930 . S
C303 C304 1.399 . S
C303 C308 1.399 . S
C304 C303 1.399 . S
C304 C305 1.376 . S
C305 H292 0.930 . S
C305 C304 1.376 . S
C305 C306 1.388 . S
C306 H293 0.930 . S
C306 C305 1.388 . S
C306 C307 1.390 . S
C307 C306 1.390 . S
C307 C308 1.394 . S
C307 C313 1.465 . S
C308 C303 1.399 . S
C308 C307 1.394 . S
C308 C309 1.516 . S
C309 C308 1.516 . S
C309 C310 1.502 . S
C309 C311 1.561 . S
C309 C312 1.526 . S
C310 H294 0.959 . S
C310 H295 0.959 . S
C310 H296 0.961 . S
C310 C309 1.502 . S
C311 H297 0.960 . S
C311 H298 0.961 . S
C311 H299 0.959 . S
C311 C309 1.561 . S
C312 C309 1.526 . S
C312 C313 1.396 . S
C312 C317 1.390 . S
C313 C307 1.465 . S
C313 C312 1.396 . S
C313 C314 1.399 . S
C314 H300 0.929 . S
C314 C313 1.399 . S
C314 C315 1.385 . S
C315 H301 0.931 . S
C315 C314 1.385 . S
C315 C316 1.389 . S
C316 C315 1.389 . S
C316 C317 1.387 . S
C317 H302 0.930 . S
C317 C312 1.390 . S
C317 C316 1.387 . S
H318 C330 0.930 . S
H319 C332 0.930 . S
H320 C333 0.930 . S
H321 C337 0.959 . S
H322 C337 0.959 . S
H323 C337 0.961 . S
H324 C338 0.960 . S
H325 C338 0.961 . S
H326 C338 0.959 . S
H327 C341 0.929 . S
H328 C342 0.931 . S
H329 C344 0.930 . S
C330 H318 0.930 . S
C330 C331 1.399 . S
C330 C335 1.399 . S
C331 C330 1.399 . S
C331 C332 1.376 . S
C332 H319 0.930 . S
C332 C331 1.376 . S
C332 C333 1.388 . S
C333 H320 0.930 . S
C333 C332 1.388 . S
C333 C334 1.390 . S
C334 C333 1.390 . S
C334 C335 1.394 . S
C334 C340 1.465 . S
C335 C330 1.399 . S
C335 C334 1.394 . S
C335 C336 1.516 . S
C336 C335 1.516 . S
C336 C337 1.502 . S
C336 C338 1.561 . S
C336 C339 1.526 . S
C337 H321 0.959 . S
C337 H322 0.959 . S
C337 H323 0.961 . S
C337 C336 1.502 . S
C338 H324 0.960 . S
C338 H325 0.961 . S
C338 H326 0.959 . S
C338 C336 1.561 . S
C339 C336 1.526 . S
C339 C340 1.396 . S
C339 C344 1.390 . S
C340 C334 1.465 . S
C340 C339 1.396 . S
C340 C341 1.399 . S
C341 H327 0.929 . S
C341 C340 1.399 . S
C341 C342 1.385 . S
C342 H328 0.931 . S
C342 C341 1.385 . S
C342 C343 1.389 . S
C343 C342 1.389 . S
C343 C344 1.387 . S
C344 H329 0.930 . S
C344 C339 1.390 . S
C344 C343 1.387 . S
H345 C357 0.930 . S
H346 C359 0.930 . S
H347 C360 0.930 . S
H348 C364 0.959 . S
H349 C364 0.959 . S
H350 C364 0.961 . S
H351 C365 0.960 . S
H352 C365 0.961 . S
H353 C365 0.959 . S
H354 C368 0.929 . S
H355 C369 0.931 . S
H356 C371 0.930 . S
C357 H345 0.930 . S
C357 C358 1.399 . S
C357 C362 1.399 . S
C358 C357 1.399 . S
C358 C359 1.376 . S
C359 H346 0.930 . S
C359 C358 1.376 . S
C359 C360 1.388 . S
C360 H347 0.930 . S
C360 C359 1.388 . S
C360 C361 1.390 . S
C361 C360 1.390 . S
C361 C362 1.394 . S
C361 C367 1.465 . S
C362 C357 1.399 . S
C362 C361 1.394 . S
C362 C363 1.516 . S
C363 C362 1.516 . S
C363 C364 1.502 . S
C363 C365 1.561 . S
C363 C366 1.526 . S
C364 H348 0.959 . S
C364 H349 0.959 . S
C364 H350 0.961 . S
C364 C363 1.502 . S
C365 H351 0.960 . S
C365 H352 0.961 . S
C365 H353 0.959 . S
C365 C363 1.561 . S
C366 C363 1.526 . S
C366 C367 1.396 . S
C366 C371 1.390 . S
C367 C361 1.465 . S
C367 C366 1.396 . S
C367 C368 1.399 . S
C368 H354 0.929 . S
C368 C367 1.399 . S
C368 C369 1.385 . S
C369 H355 0.931 . S
C369 C368 1.385 . S
C369 C370 1.389 . S
C370 C369 1.389 . S
C370 C371 1.387 . S
C371 H356 0.930 . S
C371 C366 1.390 . S
C371 C370 1.387 . S
H372 C384 0.930 . S
H373 C386 0.930 . S
H374 C387 0.930 . S
H375 C391 0.959 . S
H376 C391 0.959 . S
H377 C391 0.961 . S
H378 C392 0.960 . S
H379 C392 0.961 . S
H380 C392 0.959 . S
H381 C395 0.929 . S
H382 C396 0.931 . S
H383 C398 0.930 . S
C384 H372 0.930 . S
C384 C385 1.399 . S
C384 C389 1.399 . S
C385 C384 1.399 . S
C385 C386 1.376 1_565 S
C386 H373 0.930 . S
C386 C385 1.376 1_545 S
C386 C387 1.388 . S
C387 H374 0.930 . S
C387 C386 1.388 . S
C387 C388 1.390 1_545 S
C388 C387 1.390 1_565 S
C388 C389 1.394 . S
C388 C394 1.464 1_565 S
C389 C384 1.399 . S
C389 C388 1.394 . S
C389 C390 1.516 . S
C390 C389 1.516 . S
C390 C391 1.502 . S
C390 C392 1.561 . S
C390 C393 1.526 . S
C391 H375 0.959 . S
C391 H376 0.959 . S
C391 H377 0.961 . S
C391 C390 1.502 . S
C392 H378 0.960 . S
C392 H379 0.961 . S
C392 H380 0.959 . S
C392 C390 1.561 . S
C393 C390 1.526 . S
C393 C394 1.388 1_565 S
C393 C398 1.390 1_554 S
C394 C388 1.464 1_545 S
C394 C393 1.388 1_545 S
C394 C395 1.406 1_554 S
C395 H381 0.929 . S
C395 C394 1.406 1_556 S
C395 C396 1.385 . S
C396 H382 0.931 . S
C396 C395 1.385 . S
C396 C397 1.389 1_545 S
C397 C396 1.389 1_565 S
C397 C398 1.387 . S
C398 H383 0.930 . S
C398 C393 1.390 1_556 S
C398 C397 1.387 . S
H399 C411 0.930 . S
H400 C413 0.930 . S
H401 C414 0.930 . S
H402 C418 0.959 . S
H403 C418 0.959 1_556 S
H404 C418 0.961 . S
H405 C419 0.960 . S
H406 C419 0.961 . S
H407 C419 0.959 . S
H408 C422 0.929 . S
H409 C423 0.931 . S
H410 C425 0.930 . S
C411 H399 0.930 . S
C411 C412 1.399 . S
C411 C416 1.399 . S
C412 C411 1.399 . S
C412 C413 1.376 . S
C413 H400 0.930 . S
C413 C412 1.376 . S
C413 C414 1.388 . S
C414 H401 0.930 . S
C414 C413 1.388 . S
C414 C415 1.390 . S
C415 C414 1.390 . S
C415 C416 1.394 . S
C415 C421 1.465 1_554 S
C416 C411 1.399 . S
C416 C415 1.394 . S
C416 C417 1.516 . S
C417 C416 1.516 . S
C417 C418 1.502 . S
C417 C419 1.561 1_554 S
C417 C420 1.526 1_554 S
C418 H402 0.959 . S
C418 H403 0.959 1_554 S
C418 H404 0.961 . S
C418 C417 1.502 . S
C419 H405 0.960 . S
C419 H406 0.961 . S
C419 H407 0.959 . S
C419 C417 1.561 1_556 S
C420 C417 1.526 1_556 S
C420 C421 1.396 . S
C420 C425 1.390 . S
C421 C415 1.465 1_556 S
C421 C420 1.396 . S
C421 C422 1.399 . S
C422 H408 0.929 . S
C422 C421 1.399 . S
C422 C423 1.385 . S
C423 H409 0.931 . S
C423 C422 1.385 . S
C423 C424 1.389 . S
C424 C423 1.389 . S
C424 C425 1.387 . S
C425 H410 0.930 . S
C425 C420 1.390 . S
C425 C424 1.387 . S
H426 C438 0.930 . S
H427 C440 0.930 . S
H428 C441 0.930 . S
H429 C445 0.959 . S
H430 C445 0.959 . S
H431 C445 0.961 1_554 S
H432 C446 0.960 . S
H433 C446 0.961 . S
H434 C446 0.959 . S
H435 C449 0.929 . S
H436 C450 0.931 . S
H437 C452 0.930 . S
C438 H426 0.930 . S
C438 C439 1.399 . S
C438 C443 1.399 . S
C439 C438 1.399 . S
C439 C440 1.376 . S
C440 H427 0.930 . S
C440 C439 1.376 . S
C440 C441 1.388 . S
C441 H428 0.930 . S
C441 C440 1.388 . S
C441 C442 1.390 . S
C442 C441 1.390 . S
C442 C443 1.394 . S
C442 C448 1.465 1_554 S
C443 C438 1.399 . S
C443 C442 1.394 . S
C443 C444 1.516 . S
C444 C443 1.516 . S
C444 C445 1.502 1_554 S
C444 C446 1.561 . S
C444 C447 1.526 1_554 S
C445 H429 0.959 . S
C445 H430 0.959 . S
C445 H431 0.961 1_556 S
C445 C444 1.502 1_556 S
C446 H432 0.960 . S
C446 H433 0.961 . S
C446 H434 0.959 . S
C446 C444 1.561 . S
C447 C444 1.526 1_556 S
C447 C448 1.396 . S
C447 C452 1.390 . S
C448 C442 1.465 1_556 S
C448 C447 1.396 . S
C448 C449 1.399 . S
C449 H435 0.929 . S
C449 C448 1.399 . S
C449 C450 1.385 . S
C450 H436 0.931 . S
C450 C449 1.385 . S
C450 C451 1.389 . S
C451 C450 1.389 . S
C451 C452 1.387 . S
C452 H437 0.930 . S
C452 C447 1.390 . S
C452 C451 1.387 . S
H453 C465 0.930 . S
H454 C467 0.930 . S
H455 C468 0.930 . S
H456 C472 0.959 . S
H457 C472 0.959 . S
H458 C472 0.961 . S
H459 C473 0.960 . S
H460 C473 0.961 1_556 S
H461 C473 0.959 . S
H462 C476 0.929 . S
H463 C477 0.931 . S
H464 C479 0.919 1_455 S
C465 H453 0.930 . S
C465 C466 1.399 . S
C465 C470 1.399 . S
C466 C465 1.399 . S
C466 C467 1.376 . S
C467 H454 0.930 . S
C467 C466 1.376 . S
C467 C468 1.388 . S
C468 H455 0.930 . S
C468 C467 1.388 . S
C468 C469 1.390 . S
C469 C468 1.390 . S
C469 C470 1.394 . S
C469 C475 1.465 . S
C470 C465 1.399 . S
C470 C469 1.394 . S
C470 C471 1.520 . S
C471 C470 1.520 . S
C471 C472 1.504 1_554 S
C471 C473 1.553 1_655 S
C471 C474 1.527 1_554 S
C472 H456 0.959 . S
C472 H457 0.959 . S
C472 H458 0.961 . S
C472 C471 1.504 1_556 S
C473 H459 0.960 . S
C473 H460 0.961 1_554 S
C473 H461 0.959 . S
C473 C471 1.553 1_455 S
C474 C471 1.527 1_556 S
C474 C475 1.396 1_556 S
C474 C479 1.396 . S
C475 C469 1.465 . S
C475 C474 1.396 1_554 S
C475 C476 1.399 . S
C476 H462 0.929 . S
C476 C475 1.399 . S
C476 C477 1.385 1_554 S
C477 H463 0.931 . S
C477 C476 1.385 1_556 S
C477 C478 1.389 . S
C478 C477 1.389 . S
C478 C479 1.392 . S
C479 H464 0.919 1_655 S
C479 C474 1.396 . S
C479 C478 1.392 . S
H480 C492 0.930 . S
H481 C494 0.930 . S
H482 C495 0.930 . S
H483 C499 0.959 . S
H484 C499 0.959 . S
H485 C499 0.961 1_455 S
H486 C500 0.960 . S
H487 C500 0.961 . S
H488 C500 0.959 . S
H489 C503 0.929 . S
H490 C504 0.931 . S
H491 C506 0.930 . S
C492 H480 0.930 . S
C492 C493 1.399 . S
C492 C497 1.399 . S
C493 C492 1.399 . S
C493 C494 1.376 . S
C494 H481 0.930 . S
C494 C493 1.376 . S
C494 C495 1.388 . S
C495 H482 0.930 . S
C495 C494 1.388 . S
C495 C496 1.390 . S
C496 C495 1.390 . S
C496 C497 1.394 . S
C496 C502 1.465 . S
C497 C492 1.399 . S
C497 C496 1.394 . S
C497 C498 1.516 . S
C498 C497 1.516 . S
C498 C499 1.502 1_455 S
C498 C500 1.561 . S
C498 C501 1.526 . S
C499 H483 0.959 . S
C499 H484 0.959 . S
C499 H485 0.961 1_655 S
C499 C498 1.502 1_655 S
C500 H486 0.960 . S
C500 H487 0.961 . S
C500 H488 0.959 . S
C500 C498 1.561 . S
C501 C498 1.526 . S
C501 C502 1.396 . S
C501 C506 1.390 . S
C502 C496 1.465 . S
C502 C501 1.396 . S
C502 C503 1.399 . S
C503 H489 0.929 . S
C503 C502 1.399 . S
C503 C504 1.385 . S
C504 H490 0.931 . S
C504 C503 1.385 . S
C504 C505 1.389 . S
C505 C504 1.389 . S
C505 C506 1.387 . S
C506 H491 0.930 . S
C506 C501 1.390 . S
C506 C505 1.387 . S
H507 C519 0.930 . S
H508 C521 0.930 . S
H509 C522 0.930 . S
H510 C526 0.959 . S
H511 C526 0.959 . S
H512 C526 0.961 . S
H513 C527 0.960 . S
H514 C527 0.961 . S
H515 C527 0.959 . S
H516 C530 0.929 . S
H517 C531 0.931 . S
H518 C533 0.930 . S
C519 H507 0.930 . S
C519 C520 1.399 . S
C519 C524 1.399 . S
C520 C519 1.399 . S
C520 C521 1.376 . S
C521 H508 0.930 . S
C521 C520 1.376 . S
C521 C522 1.388 . S
C522 H509 0.930 . S
C522 C521 1.388 . S
C522 C523 1.390 . S
C523 C522 1.390 . S
C523 C524 1.394 . S
C523 C529 1.465 . S
C524 C519 1.399 . S
C524 C523 1.394 . S
C524 C525 1.516 1_545 S
C525 C524 1.516 1_565 S
C525 C526 1.502 . S
C525 C527 1.561 . S
C525 C528 1.526 . S
C526 H510 0.959 . S
C526 H511 0.959 . S
C526 H512 0.961 . S
C526 C525 1.502 . S
C527 H513 0.960 . S
C527 H514 0.961 . S
C527 H515 0.959 . S
C527 C525 1.561 . S
C528 C525 1.526 . S
C528 C529 1.396 1_565 S
C528 C533 1.390 . S
C529 C523 1.465 . S
C529 C528 1.396 1_545 S
C529 C530 1.399 . S
C530 H516 0.929 . S
C530 C529 1.399 . S
C530 C531 1.385 . S
C531 H517 0.931 . S
C531 C530 1.385 . S
C531 C532 1.389 1_545 S
C532 C531 1.389 1_565 S
C532 C533 1.387 . S
C533 H518 0.930 . S
C533 C528 1.390 . S
C533 C532 1.387 . S
H534 C546 0.930 . S
H535 C548 0.930 . S
H536 C549 0.930 . S
H537 C553 0.959 . S
H538 C553 0.959 . S
H539 C553 0.961 . S
H540 C554 0.960 . S
H541 C554 0.961 . S
H542 C554 0.959 . S
H543 C557 0.929 . S
H544 C558 0.931 . S
H545 C560 0.930 . S
C546 H534 0.930 . S
C546 C547 1.399 . S
C546 C551 1.399 . S
C547 C546 1.399 . S
C547 C548 1.376 . S
C548 H535 0.930 . S
C548 C547 1.376 . S
C548 C549 1.388 . S
C549 H536 0.930 . S
C549 C548 1.388 . S
C549 C550 1.390 . S
C550 C549 1.390 . S
C550 C551 1.394 . S
C550 C556 1.465 . S
C551 C546 1.399 . S
C551 C550 1.394 . S
C551 C552 1.516 . S
C552 C551 1.516 . S
C552 C553 1.502 . S
C552 C554 1.561 . S
C552 C555 1.526 . S
C553 H537 0.959 . S
C553 H538 0.959 . S
C553 H539 0.961 . S
C553 C552 1.502 . S
C554 H540 0.960 . S
C554 H541 0.961 . S
C554 H542 0.959 . S
C554 C552 1.561 . S
C555 C552 1.526 . S
C555 C556 1.396 . S
C555 C560 1.390 . S
C556 C550 1.465 . S
C556 C555 1.396 . S
C556 C557 1.399 . S
C557 H543 0.929 . S
C557 C556 1.399 . S
C557 C558 1.385 . S
C558 H544 0.931 . S
C558 C557 1.385 . S
C558 C559 1.389 . S
C559 C558 1.389 . S
C559 C560 1.387 . S
C560 H545 0.930 . S
C560 C555 1.390 . S
C560 C559 1.387 . S
H561 C573 0.930 . S
H562 C575 0.930 . S
H563 C576 0.930 . S
H564 C580 0.959 . S
H565 C580 0.959 . S
H566 C580 0.961 . S
H567 C581 0.960 . S
H568 C581 0.961 . S
H569 C581 0.959 . S
H570 C584 0.929 . S
H571 C585 0.931 . S
H572 C587 0.930 . S
C573 H561 0.930 . S
C573 C574 1.399 . S
C573 C578 1.399 . S
C574 C573 1.399 . S
C574 C575 1.376 . S
C575 H562 0.930 . S
C575 C574 1.376 . S
C575 C576 1.388 . S
C576 H563 0.930 . S
C576 C575 1.388 . S
C576 C577 1.390 . S
C577 C576 1.390 . S
C577 C578 1.394 . S
C577 C583 1.465 . S
C578 C573 1.399 . S
C578 C577 1.394 . S
C578 C579 1.516 . S
C579 C578 1.516 . S
C579 C580 1.502 . S
C579 C581 1.561 . S
C579 C582 1.526 . S
C580 H564 0.959 . S
C580 H565 0.959 . S
C580 H566 0.961 . S
C580 C579 1.502 . S
C581 H567 0.960 . S
C581 H568 0.961 . S
C581 H569 0.959 . S
C581 C579 1.561 . S
C582 C579 1.526 . S
C582 C583 1.396 . S
C582 C587 1.390 . S
C583 C577 1.465 . S
C583 C582 1.396 . S
C583 C584 1.399 . S
C584 H570 0.929 . S
C584 C583 1.399 . S
C584 C585 1.385 . S
C585 H571 0.931 . S
C585 C584 1.385 . S
C585 C586 1.389 . S
C586 C585 1.389 . S
C586 C587 1.387 . S
C587 H572 0.930 . S
C587 C582 1.390 . S
C587 C586 1.387 . S
H588 C600 0.930 . S
H589 C602 0.930 . S
H590 C603 0.930 . S
H591 C607 0.959 . S
H592 C607 0.959 . S
H593 C607 0.961 . S
H594 C608 0.960 . S
H595 C608 0.961 . S
H596 C608 0.959 . S
H597 C611 0.929 . S
H598 C612 0.931 . S
H599 C614 0.930 . S
C600 H588 0.930 . S
C600 C601 1.399 . S
C600 C605 1.399 . S
C601 C600 1.399 . S
C601 C602 1.376 . S
C602 H589 0.930 . S
C602 C601 1.376 . S
C602 C603 1.388 . S
C603 H590 0.930 . S
C603 C602 1.388 . S
C603 C604 1.390 . S
C604 C603 1.390 . S
C604 C605 1.394 . S
C604 C610 1.465 . S
C605 C600 1.399 . S
C605 C604 1.394 . S
C605 C606 1.516 . S
C606 C605 1.516 . S
C606 C607 1.502 . S
C606 C608 1.561 1_655 S
C606 C609 1.526 . S
C607 H591 0.959 . S
C607 H592 0.959 . S
C607 H593 0.961 . S
C607 C606 1.502 . S
C608 H594 0.960 . S
C608 H595 0.961 . S
C608 H596 0.959 . S
C608 C606 1.561 1_455 S
C609 C606 1.526 . S
C609 C610 1.396 . S
C609 C614 1.390 1_655 S
C610 C604 1.465 . S
C610 C609 1.396 . S
C610 C611 1.399 1_655 S
C611 H597 0.929 . S
C611 C610 1.399 1_455 S
C611 C612 1.385 . S
C612 H598 0.931 . S
C612 C611 1.385 . S
C612 C613 1.389 . S
C613 C612 1.389 . S
C613 C614 1.387 . S
C614 H599 0.930 . S
C614 C609 1.390 1_455 S
C614 C613 1.387 . S
H615 C627 0.930 . S
H616 C629 0.930 . S
H617 C630 0.930 . S
H618 C634 0.959 1_565 S
H619 C634 0.959 . S
H620 C634 0.960 1_565 S
H621 C635 0.960 . S
H622 C635 0.961 . S
H623 C635 0.959 . S
H624 C638 0.929 1_566 S
H625 C639 0.931 . S
H626 C641 0.930 . S
C627 H615 0.930 . S
C627 C628 1.399 . S
C627 C632 1.399 . S
C628 C627 1.399 . S
C628 C629 1.376 . S
C629 H616 0.930 . S
C629 C628 1.376 . S
C629 C630 1.388 . S
C630 H617 0.930 . S
C630 C629 1.388 . S
C630 C631 1.390 . S
C631 C630 1.390 . S
C631 C632 1.394 . S
C631 C637 1.465 1_565 S
C632 C627 1.399 . S
C632 C631 1.394 . S
C632 C633 1.516 1_565 S
C633 C632 1.516 1_545 S
C633 C634 1.502 . S
C633 C635 1.561 . S
C633 C636 1.526 . S
C634 H618 0.959 1_545 S
C634 H619 0.959 . S
C634 H620 0.960 1_545 S
C634 C633 1.502 . S
C635 H621 0.960 . S
C635 H622 0.961 . S
C635 H623 0.959 . S
C635 C633 1.561 . S
C636 C633 1.526 . S
C636 C637 1.396 . S
C636 C641 1.390 . S
C637 C631 1.465 1_545 S
C637 C636 1.396 . S
C637 C638 1.399 . S
C638 H624 0.929 1_544 S
C638 C637 1.399 . S
C638 C639 1.385 1_554 S
C639 H625 0.931 . S
C639 C638 1.385 1_556 S
C639 C640 1.389 1_556 S
C640 C639 1.389 1_554 S
C640 C641 1.387 . S
C641 H626 0.930 . S
C641 C636 1.390 . S
C641 C640 1.387 . S
H642 C654 0.930 . S
H643 C656 0.930 . S
H644 C657 0.930 . S
H645 C661 0.959 . S
H646 C661 0.959 . S
H647 C661 0.961 . S
H648 C662 0.960 . S
H649 C662 0.961 . S
H650 C662 0.959 . S
H651 C665 0.929 . S
H652 C666 0.931 . S
H653 C668 0.930 . S
C654 H642 0.930 . S
C654 C655 1.399 . S
C654 C659 1.399 . S
C655 C654 1.399 . S
C655 C656 1.376 . S
C656 H643 0.930 . S
C656 C655 1.376 . S
C656 C657 1.388 . S
C657 H644 0.930 . S
C657 C656 1.388 . S
C657 C658 1.390 . S
C658 C657 1.390 . S
C658 C659 1.394 . S
C658 C664 1.465 . S
C659 C654 1.399 . S
C659 C658 1.394 . S
C659 C660 1.516 . S
C660 C659 1.516 . S
C660 C661 1.502 . S
C660 C662 1.561 1_554 S
C660 C663 1.526 . S
C661 H645 0.959 . S
C661 H646 0.959 . S
C661 H647 0.961 . S
C661 C660 1.502 . S
C662 H648 0.960 . S
C662 H649 0.961 . S
C662 H650 0.959 . S
C662 C660 1.561 1_556 S
C663 C660 1.526 . S
C663 C664 1.396 . S
C663 C668 1.390 1_554 S
C664 C658 1.465 . S
C664 C663 1.396 . S
C664 C665 1.399 . S
C665 H651 0.929 . S
C665 C664 1.399 . S
C665 C666 1.385 . S
C666 H652 0.931 . S
C666 C665 1.385 . S
C666 C667 1.389 1_554 S
C667 C666 1.389 1_556 S
C667 C668 1.387 . S
C668 H653 0.930 . S
C668 C663 1.390 1_556 S
C668 C667 1.387 . S
H669 C681 0.930 . S
H670 C683 0.930 . S
H671 C684 0.930 . S
H672 C688 0.959 . S
H673 C688 0.959 . S
H674 C688 0.961 . S
H675 C689 0.960 . S
H676 C689 0.961 . S
H677 C689 0.959 . S
H678 C692 0.929 . S
H679 C693 0.931 . S
H680 C695 0.930 . S
C681 H669 0.930 . S
C681 C682 1.399 . S
C681 C686 1.399 . S
C682 C681 1.399 . S
C682 C683 1.376 . S
C683 H670 0.930 . S
C683 C682 1.376 . S
C683 C684 1.388 . S
C684 H671 0.930 . S
C684 C683 1.388 . S
C684 C685 1.390 . S
C685 C684 1.390 . S
C685 C686 1.394 . S
C685 C691 1.465 . S
C686 C681 1.399 . S
C686 C685 1.394 . S
C686 C687 1.516 . S
C687 C686 1.516 . S
C687 C688 1.502 . S
C687 C689 1.561 . S
C687 C690 1.526 . S
C688 H672 0.959 . S
C688 H673 0.959 . S
C688 H674 0.961 . S
C688 C687 1.502 . S
C689 H675 0.960 . S
C689 H676 0.961 . S
C689 H677 0.959 . S
C689 C687 1.561 . S
C690 C687 1.526 . S
C690 C691 1.396 . S
C690 C695 1.390 . S
C691 C685 1.465 . S
C691 C690 1.396 . S
C691 C692 1.399 . S
C692 H678 0.929 . S
C692 C691 1.399 . S
C692 C693 1.385 . S
C693 H679 0.931 . S
C693 C692 1.385 . S
C693 C694 1.389 . S
C694 C693 1.389 . S
C694 C695 1.387 . S
C695 H680 0.930 . S
C695 C690 1.390 . S
C695 C694 1.387 . S
H696 C708 0.930 . S
H697 C710 0.930 . S
H698 C711 0.930 . S
H699 C715 0.959 . S
H700 C715 0.959 . S
H701 C715 0.961 1_554 S
H702 C716 0.960 . S
H703 C716 0.961 . S
H704 C716 0.959 . S
H705 C719 0.929 . S
H706 C720 0.931 . S
H707 C722 0.930 . S
C708 H696 0.930 . S
C708 C709 1.399 . S
C708 C713 1.399 . S
C709 C708 1.399 . S
C709 C710 1.376 . S
C710 H697 0.930 . S
C710 C709 1.376 . S
C710 C711 1.388 . S
C711 H698 0.930 . S
C711 C710 1.388 . S
C711 C712 1.390 . S
C712 C711 1.390 . S
C712 C713 1.394 . S
C712 C718 1.465 . S
C713 C708 1.399 . S
C713 C712 1.394 . S
C713 C714 1.516 . S
C714 C713 1.516 . S
C714 C715 1.502 . S
C714 C716 1.561 1_556 S
C714 C717 1.526 . S
C715 H699 0.959 . S
C715 H700 0.959 . S
C715 H701 0.961 1_556 S
C715 C714 1.502 . S
C716 H702 0.960 . S
C716 H703 0.961 . S
C716 H704 0.959 . S
C716 C714 1.561 1_554 S
C717 C714 1.526 . S
C717 C718 1.396 . S
C717 C722 1.390 . S
C718 C712 1.465 . S
C718 C717 1.396 . S
C718 C719 1.399 . S
C719 H705 0.929 . S
C719 C718 1.399 . S
C719 C720 1.385 . S
C720 H706 0.931 . S
C720 C719 1.385 . S
C720 C721 1.389 . S
C721 C720 1.389 . S
C721 C722 1.387 . S
C722 H707 0.930 . S
C722 C717 1.390 . S
C722 C721 1.387 . S
H723 C735 0.930 . S
H724 C737 0.930 . S
H725 C738 0.937 . S
H726 C742 0.959 . S
H727 C742 0.959 . S
H728 C742 0.961 . S
H729 C743 0.960 . S
H730 C743 0.961 . S
H731 C743 0.959 . S
H732 C746 0.929 1_565 S
H733 C747 0.931 1_565 S
H734 C749 0.930 . S
C735 H723 0.930 . S
C735 C736 1.399 . S
C735 C740 1.399 . S
C736 C735 1.399 . S
C736 C737 1.376 . S
C737 H724 0.930 . S
C737 C736 1.376 . S
C737 C738 1.388 . S
C738 H725 0.937 . S
C738 C737 1.388 . S
C738 C739 1.390 . S
C739 C738 1.390 . S
C739 C740 1.394 . S
C739 C745 1.465 . S
C740 C735 1.399 . S
C740 C739 1.394 . S
C740 C741 1.516 . S
C741 C740 1.516 . S
C741 C742 1.502 . S
C741 C743 1.561 . S
C741 C744 1.526 . S
C742 H726 0.959 . S
C742 H727 0.959 . S
C742 H728 0.961 . S
C742 C741 1.502 . S
C743 H729 0.960 . S
C743 H730 0.961 . S
C743 H731 0.959 . S
C743 C741 1.561 . S
C744 C741 1.526 . S
C744 C745 1.396 . S
C744 C749 1.390 . S
C745 C739 1.465 . S
C745 C744 1.396 . S
C745 C746 1.399 . S
C746 H732 0.929 1_545 S
C746 C745 1.399 . S
C746 C747 1.385 . S
C747 H733 0.931 1_545 S
C747 C746 1.385 . S
C747 C748 1.389 . S
C748 C747 1.389 . S
C748 C749 1.387 . S
C749 H734 0.930 . S
C749 C744 1.390 . S
C749 C748 1.387 . S
H750 C762 0.930 . S
H751 C764 0.930 1_554 S
H752 C765 0.930 1_554 S
H753 C769 0.959 . S
H754 C769 0.959 . S
H755 C769 0.961 . S
H756 C770 0.960 . S
H757 C770 0.961 . S
H758 C770 0.959 . S
H759 C773 0.929 . S
H760 C774 0.931 . S
H761 C776 0.930 . S
C762 H750 0.930 . S
C762 C763 1.399 . S
C762 C767 1.399 . S
C763 C762 1.399 . S
C763 C764 1.376 . S
C764 H751 0.930 1_556 S
C764 C763 1.376 . S
C764 C765 1.388 . S
C765 H752 0.930 1_556 S
C765 C764 1.388 . S
C765 C766 1.390 . S
C766 C765 1.390 . S
C766 C767 1.394 . S
C766 C772 1.465 . S
C767 C762 1.399 . S
C767 C766 1.394 . S
C767 C768 1.516 . S
C768 C767 1.516 . S
C768 C769 1.502 . S
C768 C770 1.561 . S
C768 C771 1.526 . S
C769 H753 0.959 . S
C769 H754 0.959 . S
C769 H755 0.961 . S
C769 C768 1.502 . S
C770 H756 0.960 . S
C770 H757 0.961 . S
C770 H758 0.959 . S
C770 C768 1.561 . S
C771 C768 1.526 . S
C771 C772 1.396 . S
C771 C776 1.390 . S
C772 C766 1.465 . S
C772 C771 1.396 . S
C772 C773 1.399 . S
C773 H759 0.929 . S
C773 C772 1.399 . S
C773 C774 1.385 . S
C774 H760 0.931 . S
C774 C773 1.385 . S
C774 C775 1.389 . S
C775 C774 1.389 . S
C775 C776 1.387 . S
C776 H761 0.930 . S
C776 C771 1.390 . S
C776 C775 1.387 . S
H777 C789 0.930 . S
H778 C791 0.930 . S
H779 C792 0.930 . S
H780 C796 0.959 . S
H781 C796 0.959 . S
H782 C796 0.961 . S
H783 C797 0.960 . S
H784 C797 0.961 . S
H785 C797 0.959 . S
H786 C800 0.929 1_554 S
H787 C801 0.931 . S
H788 C803 0.930 . S
C789 H777 0.930 . S
C789 C790 1.399 . S
C789 C794 1.399 . S
C790 C789 1.399 . S
C790 C791 1.376 1_556 S
C791 H778 0.930 . S
C791 C790 1.376 1_554 S
C791 C792 1.388 . S
C792 H779 0.930 . S
C792 C791 1.388 . S
C792 C793 1.390 1_554 S
C793 C792 1.390 1_556 S
C793 C794 1.394 . S
C793 C799 1.465 . S
C794 C789 1.399 . S
C794 C793 1.394 . S
C794 C795 1.516 . S
C795 C794 1.516 . S
C795 C796 1.502 . S
C795 C797 1.561 . S
C795 C798 1.526 . S
C796 H780 0.959 . S
C796 H781 0.959 . S
C796 H782 0.961 . S
C796 C795 1.502 . S
C797 H783 0.960 . S
C797 H784 0.961 . S
C797 H785 0.959 . S
C797 C795 1.561 . S
C798 C795 1.526 . S
C798 C799 1.396 . S
C798 C803 1.390 . S
C799 C793 1.465 . S
C799 C798 1.396 . S
C799 C800 1.399 . S
C800 H786 0.929 1_556 S
C800 C799 1.399 . S
C800 C801 1.385 . S
C801 H787 0.931 . S
C801 C800 1.385 . S
C801 C802 1.389 . S
C802 C801 1.389 . S
C802 C803 1.387 . S
C803 H788 0.930 . S
C803 C798 1.390 . S
C803 C802 1.387 . S
H804 C816 0.930 . S
H805 C818 0.930 . S
H806 C819 0.930 . S
H807 C823 0.959 . S
H808 C823 0.959 . S
H809 C823 0.961 . S
H810 C824 0.960 . S
H811 C824 0.961 . S
H812 C824 0.959 . S
H813 C827 0.929 . S
H814 C828 0.931 . S
H815 C830 0.930 . S
C816 H804 0.930 . S
C816 C817 1.399 . S
C816 C821 1.399 . S
C817 C816 1.399 . S
C817 C818 1.376 1_655 S
C818 H805 0.930 . S
C818 C817 1.376 1_455 S
C818 C819 1.388 . S
C819 H806 0.930 . S
C819 C818 1.388 . S
C819 C820 1.390 1_455 S
C820 C819 1.390 1_655 S
C820 C821 1.394 . S
C820 C826 1.465 . S
C821 C816 1.399 . S
C821 C820 1.394 . S
C821 C822 1.516 . S
C822 C821 1.516 . S
C822 C823 1.502 . S
C822 C824 1.561 . S
C822 C825 1.526 . S
C823 H807 0.959 . S
C823 H808 0.959 . S
C823 H809 0.961 . S
C823 C822 1.502 . S
C824 H810 0.960 . S
C824 H811 0.961 . S
C824 H812 0.959 . S
C824 C822 1.561 . S
C825 C822 1.526 . S
C825 C826 1.396 . S
C825 C830 1.390 . S
C826 C820 1.465 . S
C826 C825 1.396 . S
C826 C827 1.399 1_655 S
C827 H813 0.929 . S
C827 C826 1.399 1_455 S
C827 C828 1.385 . S
C828 H814 0.931 . S
C828 C827 1.385 . S
C828 C829 1.389 1_455 S
C829 C828 1.389 1_655 S
C829 C830 1.387 . S
C830 H815 0.930 . S
C830 C825 1.390 . S
C830 C829 1.387 . S
H831 C843 0.930 . S
H832 C845 0.930 . S
H833 C846 0.930 . S
H834 C850 0.959 . S
H835 C850 0.959 . S
H836 C850 0.961 . S
H837 C851 0.960 . S
H838 C851 0.961 . S
H839 C851 0.959 . S
H840 C854 0.929 . S
H841 C855 0.931 . S
H842 C857 0.930 . S
C843 H831 0.930 . S
C843 C844 1.399 . S
C843 C848 1.399 . S
C844 C843 1.399 . S
C844 C845 1.376 1_565 S
C845 H832 0.930 . S
C845 C844 1.376 1_545 S
C845 C846 1.388 . S
C846 H833 0.930 . S
C846 C845 1.388 . S
C846 C847 1.390 1_545 S
C847 C846 1.390 1_565 S
C847 C848 1.394 . S
C847 C853 1.465 . S
C848 C843 1.399 . S
C848 C847 1.394 . S
C848 C849 1.516 . S
C849 C848 1.516 . S
C849 C850 1.502 . S
C849 C851 1.561 . S
C849 C852 1.526 . S
C850 H834 0.959 . S
C850 H835 0.959 . S
C850 H836 0.961 . S
C850 C849 1.502 . S
C851 H837 0.960 . S
C851 H838 0.961 . S
C851 H839 0.959 . S
C851 C849 1.561 . S
C852 C849 1.526 . S
C852 C853 1.396 . S
C852 C857 1.390 . S
C853 C847 1.465 . S
C853 C852 1.396 . S
C853 C854 1.399 1_565 S
C854 H840 0.929 . S
C854 C853 1.399 1_545 S
C854 C855 1.385 . S
C855 H841 0.931 . S
C855 C854 1.385 . S
C855 C856 1.389 1_545 S
C856 C855 1.389 1_565 S
C856 C857 1.387 . S
C857 H842 0.930 . S
C857 C852 1.390 . S
C857 C856 1.387 . S
H858 C870 0.930 . S
H859 C872 0.930 . S
H860 C873 0.930 . S
H861 C877 0.959 . S
H862 C877 0.959 . S
H863 C877 0.961 . S
H864 C878 0.960 . S
H865 C878 0.961 . S
H866 C878 0.959 . S
H867 C881 0.929 . S
H868 C882 0.931 . S
H869 C884 0.930 . S
C870 H858 0.930 . S
C870 C871 1.399 . S
C870 C875 1.399 . S
C871 C870 1.399 . S
C871 C872 1.376 . S
C872 H859 0.930 . S
C872 C871 1.376 . S
C872 C873 1.388 . S
C873 H860 0.930 . S
C873 C872 1.388 . S
C873 C874 1.390 . S
C874 C873 1.390 . S
C874 C875 1.394 . S
C874 C880 1.465 . S
C875 C870 1.399 . S
C875 C874 1.394 . S
C875 C876 1.516 . S
C876 C875 1.516 . S
C876 C877 1.502 . S
C876 C878 1.561 . S
C876 C879 1.526 . S
C877 H861 0.959 . S
C877 H862 0.959 . S
C877 H863 0.961 . S
C877 C876 1.502 . S
C878 H864 0.960 . S
C878 H865 0.961 . S
C878 H866 0.959 . S
C878 C876 1.561 . S
C879 C876 1.526 . S
C879 C880 1.396 . S
C879 C884 1.390 . S
C880 C874 1.465 . S
C880 C879 1.396 . S
C880 C881 1.399 . S
C881 H867 0.929 . S
C881 C880 1.399 . S
C881 C882 1.385 . S
C882 H868 0.931 . S
C882 C881 1.385 . S
C882 C883 1.389 . S
C883 C882 1.389 . S
C883 C884 1.387 . S
C884 H869 0.930 . S
C884 C879 1.390 . S
C884 C883 1.387 . S
H885 C897 0.930 . S
H886 C899 0.930 . S
H887 C900 0.930 . S
H888 C904 0.959 . S
H889 C904 0.959 . S
H890 C904 0.961 . S
H891 C905 0.960 . S
H892 C905 0.961 . S
H893 C905 0.959 . S
H894 C908 0.929 . S
H895 C909 0.931 . S
H896 C911 0.930 . S
C897 H885 0.930 . S
C897 C898 1.399 . S
C897 C902 1.399 . S
C898 C897 1.399 . S
C898 C899 1.376 . S
C899 H886 0.930 . S
C899 C898 1.376 . S
C899 C900 1.388 . S
C900 H887 0.930 . S
C900 C899 1.388 . S
C900 C901 1.390 . S
C901 C900 1.390 . S
C901 C902 1.394 . S
C901 C907 1.465 . S
C902 C897 1.399 . S
C902 C901 1.394 . S
C902 C903 1.516 . S
C903 C902 1.516 . S
C903 C904 1.502 . S
C903 C905 1.561 . S
C903 C906 1.526 . S
C904 H888 0.959 . S
C904 H889 0.959 . S
C904 H890 0.961 . S
C904 C903 1.502 . S
C905 H891 0.960 . S
C905 H892 0.961 . S
C905 H893 0.959 . S
C905 C903 1.561 . S
C906 C903 1.526 . S
C906 C907 1.396 . S
C906 C911 1.390 . S
C907 C901 1.465 . S
C907 C906 1.396 . S
C907 C908 1.399 . S
C908 H894 0.929 . S
C908 C907 1.399 . S
C908 C909 1.385 . S
C909 H895 0.931 . S
C909 C908 1.385 . S
C909 C910 1.389 . S
C910 C909 1.389 . S
C910 C911 1.387 . S
C911 H896 0.930 . S
C911 C906 1.390 . S
C911 C910 1.387 . S
C277 C82 1.954 . S
C289 C135 2.321 . S
C316 C161 1.886 . S
C304 C95 1.520 . S
C343 C201 1.946 . S
C331 C56 1.630 . S
C370 C255 2.346 . S
C358 C69 2.113 . S
C397 C116 2.318 1_565 S
C385 C30 1.906 . S
C412 C43 1.571 . S
C424 C146 1.859 . S
C439 C4 1.694 . S
C451 C186 1.948 . S
C466 C17 2.069 . S
C478 C236 2.347 1_655 S
C505 C112 0.436 . S
C493 C74 0.662 . S
C532 C173 0.617 . S
C520 C87 0.703 . S
C559 C213 0.611 . S
C547 C100 0.610 . S
C574 C61 0.519 . S
C586 C232 0.430 . S
C601 C22 0.614 . S
C613 C133 0.450 . S
C640 C152 0.718 1_554 S
C628 C35 0.701 . S
C667 C192 0.503 . S
C655 C48 0.574 . S
C682 C9 0.429 . S
C694 C253 0.438 . S
C709 C73 1.912 . S
C721 C106 2.111 . S
C736 C86 2.337 . S
C748 C156 2.580 . S
C775 C196 2.377 . S
C763 C99 2.148 . S
C802 C226 1.873 . S
C790 C60 1.642 . S
C817 C21 1.892 . S
C829 C121 2.114 . S
C856 C175 2.576 . S
C844 C34 2.385 . S
C883 C215 2.375 . S
C871 C47 2.207 . S
C898 C8 1.711 . S
C910 C241 1.882 . S
