# Generated by pormake.
# Topology nom, (4,4)-cn, num edge types: 1
# Building blocks:
#     Node 0, Type 0, BuildingBlock: NAWXER_clean_linker_0, # of connection points: 4
#     Node 1, Type 0, BuildingBlock: NAWXER_clean_linker_0, # of connection points: 4
#     Node 2, Type 0, BuildingBlock: NAWXER_clean_linker_0, # of connection points: 4
#     Node 3, Type 0, BuildingBlock: NAWXER_clean_linker_0, # of connection points: 4
#     Node 4, Type 0, BuildingBlock: NAWXER_clean_linker_0, # of connection points: 4
#     Node 5, Type 0, BuildingBlock: NAWXER_clean_linker_0, # of connection points: 4
#     Node 6, Type 1, BuildingBlock: NAHDIM_clean_sbu_0, # of connection points: 4
#     Node 7, Type 1, BuildingBlock: NAHDIM_clean_sbu_0, # of connection points: 4
#     Node 8, Type 1, BuildingBlock: NAHDIM_clean_sbu_0, # of connection points: 4
#     Node 9, Type 1, BuildingBlock: NAHDIM_clean_sbu_0, # of connection points: 4
#     Node 10, Type 1, BuildingBlock: NAHDIM_clean_sbu_0, # of connection points: 4
#     Node 11, Type 1, BuildingBlock: NAHDIM_clean_sbu_0, # of connection points: 4
#     Edge 12, Type (0, 1), BuildingBlock: CIFDUS_clean_linker_0, # of connection points: 2
#     Edge 13, Type (0, 1), BuildingBlock: CIFDUS_clean_linker_0, # of connection points: 2
#     Edge 14, Type (0, 1), BuildingBlock: CIFDUS_clean_linker_0, # of connection points: 2
#     Edge 15, Type (0, 1), BuildingBlock: CIFDUS_clean_linker_0, # of connection points: 2
#     Edge 16, Type (0, 1), BuildingBlock: CIFDUS_clean_linker_0, # of connection points: 2
#     Edge 17, Type (0, 1), BuildingBlock: CIFDUS_clean_linker_0, # of connection points: 2
#     Edge 18, Type (0, 1), BuildingBlock: CIFDUS_clean_linker_0, # of connection points: 2
#     Edge 19, Type (0, 1), BuildingBlock: CIFDUS_clean_linker_0, # of connection points: 2
#     Edge 20, Type (0, 1), BuildingBlock: CIFDUS_clean_linker_0, # of connection points: 2
#     Edge 21, Type (0, 1), BuildingBlock: CIFDUS_clean_linker_0, # of connection points: 2
#     Edge 22, Type (0, 1), BuildingBlock: CIFDUS_clean_linker_0, # of connection points: 2
#     Edge 23, Type (0, 1), BuildingBlock: CIFDUS_clean_linker_0, # of connection points: 2
#     Edge 24, Type (0, 1), BuildingBlock: CIFDUS_clean_linker_0, # of connection points: 2
#     Edge 25, Type (0, 1), BuildingBlock: CIFDUS_clean_linker_0, # of connection points: 2
#     Edge 26, Type (0, 1), BuildingBlock: CIFDUS_clean_linker_0, # of connection points: 2
#     Edge 27, Type (0, 1), BuildingBlock: CIFDUS_clean_linker_0, # of connection points: 2
#     Edge 28, Type (0, 1), BuildingBlock: CIFDUS_clean_linker_0, # of connection points: 2
#     Edge 29, Type (0, 1), BuildingBlock: CIFDUS_clean_linker_0, # of connection points: 2
#     Edge 30, Type (0, 1), BuildingBlock: CIFDUS_clean_linker_0, # of connection points: 2
#     Edge 31, Type (0, 1), BuildingBlock: CIFDUS_clean_linker_0, # of connection points: 2
#     Edge 32, Type (0, 1), BuildingBlock: CIFDUS_clean_linker_0, # of connection points: 2
#     Edge 33, Type (0, 1), BuildingBlock: CIFDUS_clean_linker_0, # of connection points: 2
#     Edge 34, Type (0, 1), BuildingBlock: CIFDUS_clean_linker_0, # of connection points: 2
#     Edge 35, Type (0, 1), BuildingBlock: CIFDUS_clean_linker_0, # of connection points: 2
# Relax obj value: 0.024
# Max RMSD: 0.118
# Mean RMSD: 0.110
data_MOF--net-nom--node1-NAHDIM_clean_sbu_0--node2-NAWXER_clean_linker_0--edge1-CIFDUS_clean_linker_0
_symmetry_space_group_name_H-M    P1
_symmetry_Int_Tables_number       1
_symmetry_cell_setting            triclinic
loop_
_symmetry_equiv_pos_as_xyz
'x, y, z'
_cell_length_a     46.286814
_cell_length_b     47.786045
_cell_length_c     51.815386
_cell_angle_alpha  90.053794
_cell_angle_beta   90.637481
_cell_angle_gamma 120.99187
loop_
_atom_site_label
_atom_site_type_symbol
_atom_site_fract_x
_atom_site_fract_y
_atom_site_fract_z
_atom_type_partial_charge
C0 C 0.88303 0.49112 0.32878 0.0
C1 C 0.8682 0.469 0.34917 0.0
C2 C 0.91537 0.50048 0.3206 0.0
C3 C 0.93353 0.48771 0.33243 0.0
C4 C 0.88651 0.45639 0.36114 0.0
C5 C 0.91897 0.46583 0.35294 0.0
C6 C 0.96868 0.49943 0.32489 0.0
C7 C 0.90662 0.44308 0.25538 0.0
C8 C 0.91241 0.46176 0.23296 0.0
C9 C 0.92769 0.4565 0.27706 0.0
C10 C 0.95481 0.48892 0.27682 0.0
C11 C 0.93943 0.49429 0.23291 0.0
C12 C 0.96051 0.50762 0.25453 0.0
C13 C 0.97875 0.50285 0.29891 0.0
C14 C 0.13164 0.57011 0.30763 0.0
C15 C 0.13903 0.59193 0.28703 0.0
C16 C 0.09841 0.54992 0.31574 0.0
C17 C 0.07203 0.55202 0.30408 0.0
C18 C 0.11222 0.59251 0.27454 0.0
C19 C 0.07929 0.57307 0.28309 0.0
C20 C 0.03651 0.53206 0.3125 0.0
C21 C 0.09516 0.58347 0.38558 0.0
C22 C 0.09475 0.5612 0.40358 0.0
C23 C 0.07303 0.57243 0.36433 0.0
C24 C 0.05018 0.53893 0.36066 0.0
C25 C 0.07162 0.52766 0.39978 0.0
C26 C 0.04937 0.5167 0.37867 0.0
C27 C 0.02635 0.52676 0.33857 0.0
H28 H 0.86998 0.50188 0.31954 0.0
H29 H 0.9265 0.51839 0.30541 0.0
H30 H 0.87571 0.43911 0.37677 0.0
H31 H 0.93271 0.45602 0.36258 0.0
H32 H 0.88635 0.41782 0.25593 0.0
H33 H 0.92328 0.44126 0.29377 0.0
H34 H 0.94428 0.50953 0.21614 0.0
H35 H 0.98133 0.53265 0.25385 0.0
H36 H 0.15149 0.56883 0.31777 0.0
H37 H 0.09354 0.53278 0.3311 0.0
H38 H 0.11649 0.60797 0.25802 0.0
H39 H 0.05944 0.57477 0.27331 0.0
H40 H 0.11219 0.60949 0.38812 0.0
H41 H 0.0736 0.59001 0.35084 0.0
H42 H 0.07088 0.50975 0.41297 0.0
H43 H 0.0318 0.49075 0.37619 0.0
N44 N 0.99284 0.51086 0.34374 0.0
N45 N 0.0122 0.51949 0.2938 0.0
C46 C 0.42416 0.90065 0.48158 0.0
C47 C 0.43239 0.88655 0.50188 0.0
C48 C 0.44482 0.93369 0.47616 0.0
C49 C 0.4749 0.95311 0.49027 0.0
C50 C 0.46158 0.90605 0.51682 0.0
C51 C 0.48278 0.93913 0.51099 0.0
C52 C 0.49669 0.98832 0.48439 0.0
C53 C 0.4977 0.93465 0.41466 0.0
C54 C 0.47979 0.93658 0.39333 0.0
C55 C 0.50577 0.95578 0.43573 0.0
C56 C 0.49589 0.9791 0.43598 0.0
C57 C 0.47108 0.96078 0.39321 0.0
C58 C 0.47926 0.98198 0.41426 0.0
C59 C 0.50274 0.00032 0.45888 0.0
C60 C 0.57812 0.14634 0.46822 0.0
C61 C 0.55454 0.15265 0.45645 0.0
C62 C 0.56896 0.11437 0.47466 0.0
C63 C 0.53625 0.08842 0.4691 0.0
C64 C 0.52189 0.12656 0.45097 0.0
C65 C 0.51295 0.0947 0.45701 0.0
C66 C 0.52571 0.0544 0.47518 0.0
C67 C 0.53994 0.10768 0.55084 0.0
C68 C 0.5622 0.10494 0.56794 0.0
C69 C 0.5271 0.08756 0.52894 0.0
C70 C 0.53663 0.06463 0.52356 0.0
C71 C 0.57109 0.08148 0.5627 0.0
C72 C 0.55834 0.06149 0.54081 0.0
C73 C 0.5235 0.04291 0.50062 0.0
H74 H 0.40135 0.88618 0.4702 0.0
H75 H 0.43698 0.94407 0.46103 0.0
H76 H 0.46818 0.89559 0.53271 0.0
H77 H 0.5054 0.95371 0.52253 0.0
H78 H 0.50467 0.91623 0.41538 0.0
H79 H 0.51934 0.95359 0.45201 0.0
H80 H 0.45775 0.9632 0.37686 0.0
H81 H 0.47176 4e-05 0.41389 0.0
H82 H 0.60345 0.16613 0.47263 0.0
H83 H 0.58733 0.10987 0.4838 0.0
H84 H 0.50341 0.13076 0.44164 0.0
H85 H 0.48765 0.07491 0.45246 0.0
H86 H 0.53262 0.12553 0.55425 0.0
H87 H 0.50957 0.08981 0.51638 0.0
H88 H 0.5876 0.07824 0.57571 0.0
H89 H 0.56566 0.04365 0.53724 0.0
N90 N 0.50844 0.01016 0.50429 0.0
N91 N 0.51587 0.03278 0.45524 0.0
C92 C 0.55817 0.47805 0.59053 0.0
C93 C 0.53689 0.46083 0.5695 0.0
C94 C 0.54579 0.48669 0.61165 0.0
C95 C 0.51186 0.47817 0.61219 0.0
C96 C 0.50304 0.45264 0.56995 0.0
C97 C 0.49073 0.46145 0.59101 0.0
C98 C 0.49869 0.48779 0.63428 0.0
C99 C 0.5158 0.41118 0.66688 0.0
C100 C 0.53667 0.41928 0.68891 0.0
C101 C 0.50666 0.43278 0.6572 0.0
C102 C 0.51911 0.46363 0.66872 0.0
C103 C 0.5493 0.45021 0.7004 0.0
C104 C 0.54058 0.47213 0.6904 0.0
C105 C 0.50627 0.48499 0.66031 0.0
C106 C 0.43219 0.5343 0.7223 0.0
C107 C 0.45884 0.55747 0.73801 0.0
C108 C 0.4386 0.51995 0.7013 0.0
C109 C 0.47183 0.52899 0.69537 0.0
C110 C 0.49199 0.56611 0.73219 0.0
C111 C 0.49838 0.55192 0.71113 0.0
C112 C 0.47945 0.51384 0.67363 0.0
C113 C 0.42542 0.56208 0.63984 0.0
C114 C 0.39488 0.5388 0.62785 0.0
C115 C 0.44987 0.55421 0.64617 0.0
C116 C 0.44406 0.52294 0.64062 0.0
C117 C 0.38964 0.50786 0.62177 0.0
C118 C 0.41408 0.50011 0.62795 0.0
C119 C 0.46845 0.5131 0.64796 0.0
H120 H 0.58432 0.48459 0.59077 0.0
H121 H 0.56283 0.50026 0.62748 0.0
H122 H 0.48617 0.43978 0.55386 0.0
H123 H 0.46457 0.45491 0.59085 0.0
H124 H 0.50595 0.38782 0.65724 0.0
H125 H 0.48884 0.42469 0.64123 0.0
H126 H 0.56503 0.45715 0.71761 0.0
H127 H 0.55001 0.49546 0.69999 0.0
H128 H 0.40633 0.5267 0.7266 0.0
H129 H 0.41758 0.50153 0.68993 0.0
H130 H 0.51306 0.58402 0.74382 0.0
H131 H 0.52418 0.55903 0.70704 0.0
H132 H 0.4301 0.58611 0.64476 0.0
H133 H 0.4731 0.57235 0.65559 0.0
H134 H 0.36664 0.48964 0.61213 0.0
H135 H 0.40924 0.47593 0.62331 0.0
N136 N 0.47908 0.50071 0.6292 0.0
N137 N 0.49738 0.49919 0.67887 0.0
C138 C 0.88096 0.40009 0.79226 0.0
C139 C 0.86778 0.4134 0.77482 0.0
C140 C 0.91286 0.41962 0.80343 0.0
C141 C 0.93239 0.45285 0.79733 0.0
C142 C 0.88758 0.44674 0.76866 0.0
C143 C 0.91973 0.46618 0.77962 0.0
C144 C 0.96684 0.47301 0.80814 0.0
C145 C 0.89897 0.45642 0.87516 0.0
C146 C 0.90275 0.44025 0.89642 0.0
C147 C 0.9216 0.46663 0.85473 0.0
C148 C 0.94824 0.46052 0.85499 0.0
C149 C 0.9293 0.43399 0.89652 0.0
C150 C 0.95183 0.4441 0.87608 0.0
C151 C 0.97429 0.47384 0.83475 0.0
C152 C 0.12587 0.56327 0.83894 0.0
C153 C 0.13451 0.54401 0.85385 0.0
C154 C 0.09271 0.55071 0.83032 0.0
C155 C 0.06776 0.51847 0.83607 0.0
C156 C 0.10916 0.51228 0.86055 0.0
C157 C 0.07607 0.49968 0.85178 0.0
C158 C 0.03303 0.50383 0.82569 0.0
C159 C 0.10205 0.52708 0.75863 0.0
C160 C 0.10324 0.55153 0.74277 0.0
C161 C 0.0765 0.51127 0.7767 0.0
C162 C 0.05189 0.51985 0.77946 0.0
C163 C 0.07801 0.55945 0.74518 0.0
C164 C 0.05248 0.54361 0.76326 0.0
C165 C 0.02557 0.50434 0.79924 0.0
H166 H 0.8669 0.3744 0.79699 0.0
H167 H 0.92255 0.40858 0.81647 0.0
H168 H 0.87815 0.45795 0.75557 0.0
H169 H 0.93458 0.49172 0.77448 0.0
H170 H 0.8787 0.46148 0.87441 0.0
H171 H 0.91879 0.48015 0.83914 0.0
H172 H 0.93334 0.42212 0.91278 0.0
H173 H 0.97241 0.43947 0.87692 0.0
H174 H 0.14477 0.58803 0.8339 0.0
H175 H 0.08666 0.56604 0.81891 0.0
H176 H 0.1151 0.49683 0.8719 0.0
H177 H 0.05714 0.47484 0.85664 0.0
H178 H 0.12066 0.51993 0.7569 0.0
H179 H 0.07605 0.49243 0.78861 0.0
H180 H 0.07833 0.57832 0.73342 0.0
H181 H 0.0336 0.55044 0.76502 0.0
N182 N 0.99274 0.48878 0.79144 0.0
N183 N 0.00713 0.48877 0.84241 0.0
C184 C 0.46225 0.8832 0.9803 0.0
C185 C 0.43995 0.86804 0.95933 0.0
C186 C 0.47077 0.91437 0.98848 0.0
C187 C 0.45683 0.93094 0.97611 0.0
C188 C 0.42613 0.8847 0.94683 0.0
C189 C 0.43463 0.91595 0.9551 0.0
C190 C 0.46826 0.96511 0.98327 0.0
C191 C 0.41293 0.90857 0.05419 0.0
C192 C 0.4348 0.9132 0.07492 0.0
C193 C 0.42502 0.92837 0.03238 0.0
C194 C 0.45899 0.9534 0.03125 0.0
C195 C 0.46886 0.93791 0.07357 0.0
C196 C 0.48075 0.95813 0.05204 0.0
C197 C 0.4717 0.97584 0.00911 0.0
C198 C 0.53175 0.12212 0.99764 0.0
C199 C 0.55549 0.13236 0.01802 0.0
C200 C 0.51276 0.08918 0.99045 0.0
C201 C 0.51782 0.06597 0.00302 0.0
C202 C 0.55906 0.10872 0.03144 0.0
C203 C 0.54055 0.07598 0.02396 0.0
C204 C 0.49951 0.03113 0.99509 0.0
C205 C 0.55715 0.08651 0.92479 0.0
C206 C 0.53614 0.08385 0.90394 0.0
C207 C 0.54387 0.06606 0.9461 0.0
C208 C 0.5093 0.04275 0.94705 0.0
C209 C 0.50155 0.06033 0.90489 0.0
C210 C 0.48832 0.03978 0.92618 0.0
C211 C 0.49517 0.02035 0.96913 0.0
H212 H 0.47398 0.87137 0.98993 0.0
H213 H 0.48917 0.9259 0.00395 0.0
H214 H 0.40874 0.87358 0.93069 0.0
H215 H 0.42402 0.9285 0.94499 0.0
H216 H 0.38656 0.88964 0.05489 0.0
H217 H 0.40774 0.92463 0.01665 0.0
H218 H 0.48608 0.94207 0.08945 0.0
H219 H 0.507 0.97743 0.05158 0.0
H220 H 0.52828 0.13958 0.98684 0.0
H221 H 0.4944 0.08199 0.97491 0.0
H222 H 0.57632 0.11548 0.04772 0.0
H223 H 0.54449 0.05852 0.03433 0.0
H224 H 0.58386 0.10449 0.92465 0.0
H225 H 0.56064 0.0683 0.96177 0.0
H226 H 0.48484 0.05738 0.88896 0.0
H227 H 0.46165 0.02163 0.92642 0.0
N228 N 0.47972 0.98777 0.96425 0.0
N229 N 0.48747 0.00837 0.01402 0.0
C230 C 0.48189 0.5973 0.1678 0.0
C231 C 0.45375 0.58186 0.18391 0.0
C232 C 0.49647 0.58015 0.15827 0.0
C233 C 0.48319 0.54722 0.16464 0.0
C234 C 0.44057 0.54894 0.1904 0.0
C235 C 0.45543 0.53186 0.18106 0.0
C236 C 0.49948 0.5295 0.1553 0.0
C237 C 0.44943 0.54118 0.08454 0.0
C238 C 0.47187 0.5615 0.06556 0.0
C239 C 0.46113 0.5314 0.10562 0.0
C240 C 0.49547 0.54173 0.10806 0.0
C241 C 0.50626 0.57204 0.06817 0.0
C242 C 0.51788 0.562 0.08911 0.0
C243 C 0.50773 0.52949 0.12915 0.0
C244 C 0.57014 0.44551 0.12915 0.0
C245 C 0.5989 0.46519 0.11435 0.0
C246 C 0.54976 0.45735 0.13742 0.0
C247 C 0.55802 0.48922 0.1313 0.0
C248 C 0.60646 0.49671 0.10759 0.0
C249 C 0.58611 0.50854 0.11591 0.0
C250 C 0.53737 0.5026 0.14044 0.0
C251 C 0.58413 0.48574 0.2104 0.0
C252 C 0.56044 0.46174 0.22693 0.0
C253 C 0.57377 0.49894 0.1909 0.0
C254 C 0.53947 0.48816 0.18735 0.0
C255 C 0.52617 0.45151 0.22364 0.0
C256 C 0.51583 0.46474 0.20411 0.0
C257 C 0.52818 0.50162 0.1665 0.0
H258 H 0.49242 0.62257 0.16235 0.0
H259 H 0.51839 0.59275 0.14613 0.0
H260 H 0.41905 0.53655 0.20295 0.0
H261 H 0.44508 0.5066 0.18647 0.0
H262 H 0.42282 0.53281 0.08305 0.0
H263 H 0.44321 0.51513 0.11968 0.0
H264 H 0.52405 0.58739 0.05368 0.0
H265 H 0.54441 0.56996 0.09046 0.0
H266 H 0.56329 0.42088 0.13423 0.0
H267 H 0.52761 0.44162 0.1486 0.0
H268 H 0.62855 0.51254 0.09637 0.0
H269 H 0.59276 0.53311 0.11079 0.0
H270 H 0.61079 0.49471 0.21277 0.0
H271 H 0.59259 0.51768 0.17865 0.0
H272 H 0.50726 0.43293 0.23593 0.0
H273 H 0.48926 0.45627 0.20181 0.0
N274 N 0.50961 0.51517 0.17296 0.0
N275 N 0.52672 0.51642 0.12279 0.0
C276 C 0.62332 0.33257 0.40327 0.0
O277 O 0.64916 0.35027 0.38833 0.0
O278 O 0.67247 0.41678 0.40082 0.0
Zn279 Zn 0.6227 0.39261 0.40757 0.0
O280 O 0.6116 0.40876 0.43964 0.0
C281 C 0.60918 0.40021 0.35438 0.0
O282 O 0.63472 0.39604 0.35046 0.0
O283 O 0.60733 0.34517 0.41274 0.0
C284 C 0.62824 0.43787 0.44824 0.0
O285 O 0.65525 0.45963 0.436 0.0
C286 C 0.69414 0.41888 0.4172 0.0
O287 O 0.68434 0.40713 0.44048 0.0
O288 O 0.59894 0.39878 0.37727 0.0
C289 C 0.29832 0.70659 0.54754 0.0
O290 O 0.29649 0.68459 0.53128 0.0
O291 O 0.28212 0.63214 0.57628 0.0
Zn292 Zn 0.25034 0.64851 0.57069 0.0
O293 O 0.22267 0.62944 0.53804 0.0
C294 C 0.22677 0.63472 0.62383 0.0
O295 O 0.25789 0.64277 0.6294 0.0
O296 O 0.27934 0.69711 0.56709 0.0
C297 C 0.19399 0.60333 0.53893 0.0
O298 O 0.18336 0.58841 0.56112 0.0
C299 C 0.27386 0.60432 0.58527 0.0
O300 O 0.24216 0.58363 0.59073 0.0
O301 O 0.21875 0.63645 0.60061 0.0
C302 C 0.60626 0.30969 0.74634 0.0
O303 O 0.63374 0.31816 0.75989 0.0
O304 O 0.65155 0.2694 0.75006 0.0
Zn305 Zn 0.60172 0.24669 0.7424 0.0
O306 O 0.58826 0.21928 0.70988 0.0
C307 C 0.58985 0.20082 0.78133 0.0
O308 O 0.61629 0.20304 0.77015 0.0
O309 O 0.58846 0.28055 0.73789 0.0
C310 C 0.60647 0.21098 0.69781 0.0
O311 O 0.63689 0.22042 0.70663 0.0
C312 C 0.67464 0.29063 0.73588 0.0
O313 O 0.66652 0.29785 0.71352 0.0
O314 O 0.57777 0.21756 0.77253 0.0
C315 C 0.39984 0.68622 0.93513 0.0
O316 O 0.38814 0.66235 0.95189 0.0
O317 O 0.33755 0.6101 0.89777 0.0
Zn318 Zn 0.38768 0.6333 0.90339 0.0
O319 O 0.40062 0.61477 0.93317 0.0
C320 C 0.3957 0.62889 0.84894 0.0
O321 O 0.37106 0.63496 0.84789 0.0
O322 O 0.40312 0.68023 0.91177 0.0
C323 C 0.38641 0.58478 0.93903 0.0
O324 O 0.3612 0.56296 0.92471 0.0
C325 C 0.31522 0.59877 0.9151 0.0
O326 O 0.32431 0.60036 0.93942 0.0
O327 O 0.40815 0.62843 0.87082 0.0
C328 C 0.71686 0.39037 0.09495 0.0
O329 O 0.72145 0.37146 0.11076 0.0
O330 O 0.7257 0.32688 0.06418 0.0
Zn331 Zn 0.75785 0.3754 0.06632 0.0
O332 O 0.79017 0.38663 0.09636 0.0
C333 C 0.7927 0.37097 0.02381 0.0
O334 O 0.78634 0.34493 0.03694 0.0
O335 O 0.73096 0.39683 0.07307 0.0
C336 C 0.82155 0.40715 0.09468 0.0
O337 O 0.83399 0.42053 0.07227 0.0
C338 C 0.69664 0.31592 0.05409 0.0
O339 O 0.68777 0.33658 0.04615 0.0
O340 O 0.78284 0.38944 0.03268 0.0
C341 C 0.39847 0.707 0.22868 0.0
O342 O 0.36814 0.69732 0.21951 0.0
O343 O 0.34247 0.72963 0.2469 0.0
Zn344 Zn 0.39233 0.76117 0.24157 0.0
O345 O 0.40176 0.78497 0.20765 0.0
C346 C 0.39142 0.80243 0.28126 0.0
O347 O 0.36034 0.78923 0.27251 0.0
O348 O 0.4149 0.73461 0.24002 0.0
C349 C 0.39727 0.80862 0.20311 0.0
O350 O 0.38491 0.81867 0.22113 0.0
C351 C 0.31862 0.7316 0.23645 0.0
O352 O 0.32559 0.75554 0.22051 0.0
O353 O 0.41078 0.79404 0.27112 0.0
H354 H 0.16647 0.65385 0.26856 0.0
H355 H 0.19166 0.58055 0.28652 0.0
H356 H 0.24948 0.61757 0.27311 0.0
H357 H 0.29283 0.67059 0.25571 0.0
H358 H 0.26577 0.74142 0.23411 0.0
H359 H 0.20827 0.70488 0.24867 0.0
C360 C 0.18425 0.64551 0.26911 0.0
C361 C 0.17439 0.61426 0.27862 0.0
C362 C 0.21713 0.66642 0.26051 0.0
C363 C 0.19842 0.60459 0.2798 0.0
C364 C 0.23151 0.62565 0.27187 0.0
C365 C 0.27428 0.67794 0.25415 0.0
C366 C 0.2835 0.70867 0.24396 0.0
C367 C 0.24112 0.6566 0.26218 0.0
C368 C 0.25921 0.71782 0.24179 0.0
C369 C 0.22639 0.69701 0.25021 0.0
H370 H 0.60834 0.19643 0.42878 0.0
H371 H 0.5208 0.18356 0.46816 0.0
H372 H 0.53406 0.238 0.45493 0.0
H373 H 0.57021 0.28892 0.43186 0.0
H374 H 0.6571 0.30138 0.39142 0.0
H375 H 0.64432 0.2474 0.40522 0.0
C376 C 0.59243 0.20578 0.43462 0.0
C377 C 0.56377 0.18623 0.44947 0.0
C378 C 0.59991 0.23685 0.42659 0.0
C379 C 0.54296 0.19826 0.45664 0.0
C380 C 0.55052 0.22931 0.44909 0.0
C381 C 0.58632 0.27982 0.42599 0.0
C382 C 0.61456 0.2992 0.41063 0.0
C383 C 0.57882 0.24874 0.43394 0.0
C384 C 0.63512 0.28696 0.40317 0.0
C385 C 0.62792 0.25612 0.41113 0.0
H386 H 0.40266 0.59364 0.60544 0.0
H387 H 0.32747 0.50085 0.63646 0.0
H388 H 0.28325 0.51247 0.62549 0.0
H389 H 0.26596 0.54911 0.60729 0.0
H390 H 0.34131 0.64203 0.57629 0.0
H391 H 0.38535 0.63025 0.5871 0.0
C392 C 0.37662 0.57612 0.60998 0.0
C393 C 0.36834 0.54646 0.62172 0.0
C394 C 0.35131 0.58292 0.60356 0.0
C395 C 0.33443 0.52374 0.62718 0.0
C396 C 0.30915 0.5304 0.621 0.0
C397 C 0.29199 0.56675 0.60281 0.0
C398 C 0.30025 0.59639 0.591 0.0
C399 C 0.31728 0.55988 0.60912 0.0
C400 C 0.33416 0.61898 0.58538 0.0
C401 C 0.35943 0.61232 0.59158 0.0
H402 H 0.81197 0.36465 0.79796 0.0
H403 H 0.84635 0.41508 0.72548 0.0
H404 H 0.7899 0.38135 0.70688 0.0
H405 H 0.73051 0.33771 0.71133 0.0
H406 H 0.69746 0.28603 0.78346 0.0
H407 H 0.75395 0.31946 0.8017 0.0
C408 C 0.80738 0.36801 0.77796 0.0
C409 C 0.83351 0.39253 0.76324 0.0
C410 C 0.77508 0.34813 0.76722 0.0
C411 C 0.82668 0.39684 0.73748 0.0
C412 C 0.79443 0.37735 0.72673 0.0
C413 C 0.73572 0.33362 0.73098 0.0
C414 C 0.70968 0.30945 0.74599 0.0
C415 C 0.76839 0.35297 0.74145 0.0
C416 C 0.71694 0.30444 0.77141 0.0
C417 C 0.74926 0.32363 0.78194 0.0
H418 H 0.42605 0.81579 0.98878 0.0
H419 H 0.43599 0.84684 0.90957 0.0
H420 H 0.42491 0.79348 0.89494 0.0
H421 H 0.41316 0.73813 0.90481 0.0
H422 H 0.40355 0.70779 0.9843 0.0
H423 H 0.41438 0.76094 0.99862 0.0
C424 C 0.42602 0.81096 0.96832 0.0
C425 C 0.43191 0.83527 0.95032 0.0
C426 C 0.41992 0.78042 0.96009 0.0
C427 C 0.43116 0.82842 0.92383 0.0
C428 C 0.42508 0.798 0.91546 0.0
C429 C 0.41361 0.74323 0.92526 0.0
C430 C 0.40763 0.71903 0.94344 0.0
C431 C 0.41958 0.77385 0.93343 0.0
C432 C 0.40804 0.72593 0.96987 0.0
C433 C 0.4142 0.75633 0.97812 0.0
H434 H 0.62014 0.43196 0.14356 0.0
H435 H 0.62833 0.47175 0.06745 0.0
H436 H 0.66623 0.45286 0.05484 0.0
H437 H 0.69665 0.42456 0.06539 0.0
H438 H 0.68736 0.38409 0.14144 0.0
H439 H 0.65004 0.40346 0.15398 0.0
C440 C 0.6299 0.43618 0.12411 0.0
C441 C 0.62135 0.45315 0.10646 0.0
C442 C 0.65152 0.42515 0.11698 0.0
C443 C 0.63477 0.45899 0.08149 0.0
C444 C 0.65632 0.44808 0.07423 0.0
C445 C 0.68653 0.42006 0.08472 0.0
C446 C 0.69482 0.4029 0.10242 0.0
C447 C 0.6649 0.43116 0.09183 0.0
C448 C 0.68139 0.39719 0.12739 0.0
C449 C 0.66001 0.40825 0.13461 0.0
H450 H 0.39994 0.85922 0.5464 0.0
H451 H 0.41439 0.83596 0.46903 0.0
H452 H 0.37444 0.77798 0.47649 0.0
H453 H 0.33444 0.73434 0.50453 0.0
H454 H 0.3175 0.75743 0.58135 0.0
H455 H 0.3592 0.8151 0.57459 0.0
C456 C 0.3945 0.84128 0.53137 0.0
C457 C 0.41006 0.85152 0.5073 0.0
C458 C 0.3709 0.80814 0.53561 0.0
C459 C 0.4026 0.82838 0.48771 0.0
C460 C 0.37978 0.79535 0.49195 0.0
C461 C 0.33987 0.75195 0.51984 0.0
C462 C 0.32291 0.7416 0.5434 0.0
C463 C 0.36357 0.785 0.51573 0.0
C464 C 0.33011 0.76479 0.56297 0.0
C465 C 0.35404 0.79775 0.55916 0.0
H466 H 0.59558 0.43043 0.71132 0.0
H467 H 0.49414 0.35319 0.69244 0.0
H468 H 0.50662 0.31279 0.70874 0.0
H469 H 0.54653 0.299 0.72736 0.0
H470 H 0.64696 0.37603 0.74855 0.0
H471 H 0.63429 0.41687 0.733 0.0
C472 C 0.57602 0.40483 0.71108 0.0
C473 C 0.54413 0.39498 0.7002 0.0
C474 C 0.5831 0.38161 0.72102 0.0
C475 C 0.51924 0.36156 0.69996 0.0
C476 C 0.52622 0.33836 0.70952 0.0
C477 C 0.5656 0.32474 0.7287 0.0
C478 C 0.59768 0.33444 0.73893 0.0
C479 C 0.55813 0.34807 0.71984 0.0
C480 C 0.62202 0.3679 0.74078 0.0
C481 C 0.61485 0.39127 0.73179 0.0
H482 H 0.15846 0.53938 0.90092 0.0
H483 H 0.19018 0.57646 0.82405 0.0
H484 H 0.24871 0.59611 0.83617 0.0
H485 H 0.29068 0.6025 0.86836 0.0
H486 H 0.25964 0.56618 0.94553 0.0
H487 H 0.20088 0.54606 0.93341 0.0
C488 C 0.17821 0.55163 0.88682 0.0
C489 C 0.17004 0.55654 0.86165 0.0
C490 C 0.21182 0.56283 0.89392 0.0
C491 C 0.19589 0.57279 0.84364 0.0
C492 C 0.22932 0.58382 0.8505 0.0
C493 C 0.27109 0.59005 0.88255 0.0
C494 C 0.27953 0.58574 0.9078 0.0
C495 C 0.23754 0.57893 0.87555 0.0
C496 C 0.25382 0.5698 0.92596 0.0
C497 C 0.22023 0.55832 0.91905 0.0
H498 H 0.62151 0.16459 0.03297 0.0
H499 H 0.53834 0.17952 0.01844 0.0
H500 H 0.57467 0.23755 0.02837 0.0
H501 H 0.63019 0.28411 0.04083 0.0
H502 H 0.71227 0.26826 0.05745 0.0
H503 H 0.67577 0.2102 0.04778 0.0
C504 C 0.61103 0.18031 0.03241 0.0
C505 C 0.57715 0.16755 0.0249 0.0
C506 C 0.63182 0.21348 0.03863 0.0
C507 C 0.56442 0.18865 0.02373 0.0
C508 C 0.58511 0.22183 0.0296 0.0
C509 C 0.64005 0.26793 0.04242 0.0
C510 C 0.67392 0.28051 0.04974 0.0
C511 C 0.61889 0.23453 0.03695 0.0
C512 C 0.68627 0.2592 0.05191 0.0
C513 C 0.66546 0.22601 0.0463 0.0
H514 H 0.48508 0.64246 0.2056 0.0
H515 H 0.38701 0.56192 0.18357 0.0
H516 H 0.36108 0.59306 0.19674 0.0
H517 H 0.36667 0.64406 0.21233 0.0
H518 H 0.4646 0.7247 0.23474 0.0
H519 H 0.49023 0.69257 0.22366 0.0
C520 C 0.45803 0.63178 0.20372 0.0
C521 C 0.43798 0.60006 0.19348 0.0
C522 C 0.44332 0.64983 0.21132 0.0
C523 C 0.40292 0.58624 0.19153 0.0
C524 C 0.38812 0.60408 0.19892 0.0
C525 C 0.39361 0.6546 0.21492 0.0
C526 C 0.41374 0.68683 0.22413 0.0
C527 C 0.40813 0.63602 0.20854 0.0
C528 C 0.44854 0.69995 0.22765 0.0
C529 C 0.46323 0.68164 0.22124 0.0
H530 H 0.84606 0.46169 0.3987 0.0
H531 H 0.81331 0.45522 0.31942 0.0
H532 H 0.75741 0.44122 0.33362 0.0
H533 H 0.71752 0.4297 0.3683 0.0
H534 H 0.74897 0.43367 0.44763 0.0
H535 H 0.8057 0.44964 0.43361 0.0
C536 C 0.82659 0.45688 0.38452 0.0
C537 C 0.83395 0.45958 0.35803 0.0
C538 C 0.79433 0.44851 0.39281 0.0
C539 C 0.80853 0.45377 0.33994 0.0
C540 C 0.77649 0.44562 0.34802 0.0
C541 C 0.73682 0.43432 0.38258 0.0
C542 C 0.72904 0.43062 0.40899 0.0
C543 C 0.76912 0.44293 0.37439 0.0
C544 C 0.7543 0.43638 0.42718 0.0
C545 C 0.78672 0.44544 0.41918 0.0
H546 H 0.08093 0.53783 0.45264 0.0
H547 H 0.16092 0.61082 0.40595 0.0
H548 H 0.19865 0.63024 0.44356 0.0
H549 H 0.20894 0.62654 0.48979 0.0
H550 H 0.12924 0.55211 0.53584 0.0
H551 H 0.09174 0.53277 0.4982 0.0
C552 C 0.10675 0.55768 0.45053 0.0
C553 C 0.11795 0.57281 0.42642 0.0
C554 C 0.12847 0.56842 0.47212 0.0
C555 C 0.15137 0.59899 0.42431 0.0
C556 C 0.17308 0.60998 0.44578 0.0
C557 C 0.18341 0.60601 0.49158 0.0
C558 C 0.17195 0.59088 0.51566 0.0
C559 C 0.16188 0.59492 0.46981 0.0
C560 C 0.1388 0.56425 0.51758 0.0
C561 C 0.11725 0.55318 0.49606 0.0
H562 H 0.52884 0.12292 0.60074 0.0
H563 H 0.62638 0.13455 0.58779 0.0
H564 H 0.64852 0.16786 0.62689 0.0
H565 H 0.64024 0.19368 0.66485 0.0
H566 H 0.54296 0.18305 0.67714 0.0
H567 H 0.52091 0.14978 0.63807 0.0
C568 C 0.55505 0.13306 0.60628 0.0
C569 C 0.57584 0.12611 0.59134 0.0
C570 C 0.56772 0.1524 0.62871 0.0
C571 C 0.60964 0.13907 0.5991 0.0
C572 C 0.6224 0.15829 0.6214 0.0
C573 C 0.61421 0.18408 0.65901 0.0
C574 C 0.59333 0.19085 0.67399 0.0
C575 C 0.60164 0.16502 0.63642 0.0
C576 C 0.55967 0.17828 0.66602 0.0
C577 C 0.54698 0.15921 0.64365 0.0
H578 H 0.41633 0.58086 0.74087 0.0
H579 H 0.48631 0.56664 0.78638 0.0
H580 H 0.47453 0.58933 0.8243 0.0
H581 H 0.44269 0.61108 0.84497 0.0
H582 H 0.37207 0.6247 0.79967 0.0
H583 H 0.38581 0.60443 0.76129 0.0
C584 C 0.42887 0.58262 0.75913 0.0
C585 C 0.45207 0.57198 0.76081 0.0
C586 C 0.4219 0.5956 0.7809 0.0
C587 C 0.46856 0.57491 0.7845 0.0
C588 C 0.46174 0.58775 0.80623 0.0
C589 C 0.43047 0.60987 0.82668 0.0
C590 C 0.40626 0.61928 0.82528 0.0
C591 C 0.43828 0.59795 0.8047 0.0
C592 C 0.39075 0.61758 0.80136 0.0
C593 C 0.39852 0.60589 0.77938 0.0
H594 H 0.87593 0.38428 0.92426 0.0
H595 H 0.87867 0.47577 0.9193 0.0
H596 H 0.84375 0.46193 0.9576 0.0
H597 H 0.81445 0.42486 0.99368 0.0
H598 H 0.81355 0.33424 0.99914 0.0
H599 H 0.84611 0.34702 0.95975 0.0
C600 C 0.86905 0.40129 0.93162 0.0
C601 C 0.88002 0.43104 0.91892 0.0
C602 C 0.84945 0.39345 0.95388 0.0
C603 C 0.87028 0.45251 0.92847 0.0
C604 C 0.85052 0.44474 0.95052 0.0
C605 C 0.82127 0.40786 0.9862 0.0
C606 C 0.81166 0.3787 0.99944 0.0
C607 C 0.84022 0.41541 0.96353 0.0
C608 C 0.82071 0.35694 0.98945 0.0
C609 C 0.83933 0.36419 0.96688 0.0
H610 H 0.45781 0.87688 0.09679 0.0
H611 H 0.38361 0.90492 0.10542 0.0
H612 H 0.36524 0.87496 0.14608 0.0
H613 H 0.37178 0.84232 0.17986 0.0
H614 H 0.44392 0.81175 0.16986 0.0
H615 H 0.46164 0.84108 0.12904 0.0
C616 C 0.43753 0.87622 0.1076 0.0
C617 C 0.42214 0.89309 0.09838 0.0
C618 C 0.42688 0.85864 0.13069 0.0
C619 C 0.39565 0.89192 0.11223 0.0
C620 C 0.38529 0.87495 0.13548 0.0
C621 C 0.39135 0.84209 0.1687 0.0
C622 C 0.40675 0.82519 0.17793 0.0
C623 C 0.40096 0.85849 0.14502 0.0
C624 C 0.4317 0.82461 0.16313 0.0
C625 C 0.4419 0.84143 0.13983 0.0
H626 H 0.53832 0.4483 0.27644 0.0
H627 H 0.60776 0.44389 0.22407 0.0
H628 H 0.62812 0.42343 0.2586 0.0
H629 H 0.62741 0.40836 0.30395 0.0
H630 H 0.55765 0.4124 0.35625 0.0
H631 H 0.53577 0.43078 0.3213 0.0
C632 C 0.55757 0.44243 0.27247 0.0
C633 C 0.57161 0.44783 0.24772 0.0
C634 C 0.5691 0.43056 0.2924 0.0
C635 C 0.5969 0.4405 0.24304 0.0
C636 C 0.60842 0.42861 0.26274 0.0
C637 C 0.60726 0.41304 0.3077 0.0
C638 C 0.59433 0.40912 0.33274 0.0
C639 C 0.59493 0.42384 0.28755 0.0
C640 C 0.56817 0.41526 0.33719 0.0
C641 C 0.55565 0.42585 0.31722 0.0
H642 H 0.41861 0.90438 0.36957 0.0
H643 H 0.51678 0.9146 0.36907 0.0
H644 H 0.49823 0.87382 0.33445 0.0
H645 H 0.45385 0.83512 0.30431 0.0
H646 H 0.35582 0.82548 0.30533 0.0
H647 H 0.37473 0.86634 0.33953 0.0
C648 C 0.43609 0.89799 0.36166 0.0
C649 C 0.46905 0.91261 0.37179 0.0
C650 C 0.42526 0.87455 0.34186 0.0
C651 C 0.49118 0.90354 0.36172 0.0
C652 C 0.48063 0.88031 0.34187 0.0
C653 C 0.43665 0.84196 0.31202 0.0
C654 C 0.40346 0.82719 0.30222 0.0
C655 C 0.44766 0.86557 0.33183 0.0
C656 C 0.38149 0.83637 0.31247 0.0
C657 C 0.39227 0.8598 0.33205 0.0
H658 H 0.59594 0.49832 0.54436 0.0
H659 H 0.50687 0.4021 0.54442 0.0
H660 H 0.52751 0.38648 0.5072 0.0
H661 H 0.57048 0.40018 0.47453 0.0
H662 H 0.6595 0.49652 0.47394 0.0
H663 H 0.63939 0.51194 0.51167 0.0
C664 C 0.58122 0.47385 0.53634 0.0
C665 C 0.5499 0.45142 0.54711 0.0
C666 C 0.59321 0.46506 0.51488 0.0
C667 C 0.53086 0.41994 0.5363 0.0
C668 C 0.54272 0.41094 0.5151 0.0
C669 C 0.5856 0.42455 0.48266 0.0
C670 C 0.61649 0.44715 0.4714 0.0
C671 C 0.57379 0.43332 0.5042 0.0
C672 C 0.63562 0.47864 0.48219 0.0
C673 C 0.62414 0.48749 0.50377 0.0
H674 H 0.09769 0.56803 0.6935 0.0
H675 H 0.17036 0.5734 0.74928 0.0
H676 H 0.21516 0.60042 0.71771 0.0
H677 H 0.23353 0.62172 0.67401 0.0
H678 H 0.16063 0.61656 0.61847 0.0
H679 H 0.1163 0.5909 0.65041 0.0
C680 C 0.1234 0.57547 0.69888 0.0
C681 C 0.13059 0.56859 0.72371 0.0
C682 C 0.14906 0.59115 0.6807 0.0
C683 C 0.16399 0.57794 0.73018 0.0
C684 C 0.18969 0.5936 0.71219 0.0
C685 C 0.208 0.61521 0.66893 0.0
C686 C 0.20048 0.62107 0.64385 0.0
C687 C 0.18248 0.60018 0.68734 0.0
C688 C 0.1672 0.61235 0.63761 0.0
C689 C 0.14176 0.59759 0.65585 0.0
H690 H 0.51075 0.11611 0.87784 0.0
H691 H 0.5936 0.09894 0.87857 0.0
H692 H 0.61734 0.13348 0.84075 0.0
H693 H 0.6145 0.16825 0.80743 0.0
H694 H 0.53202 0.18603 0.80656 0.0
H695 H 0.50802 0.15129 0.84434 0.0
C696 C 0.53388 0.11979 0.86959 0.0
C697 C 0.55041 0.10501 0.88101 0.0
C698 C 0.54741 0.1397 0.84782 0.0
C699 C 0.58061 0.11034 0.87033 0.0
C700 C 0.5941 0.12994 0.84862 0.0
C701 C 0.59122 0.1645 0.81543 0.0
C702 C 0.57505 0.17967 0.80412 0.0
C703 C 0.57771 0.14472 0.83722 0.0
C704 C 0.545 0.17466 0.81487 0.0
C705 C 0.53125 0.15479 0.83648 0.0
H706 H 0.41757 0.52242 0.03497 0.0
H707 H 0.49864 0.62219 0.04493 0.0
H708 H 0.47932 0.6381 0.00666 0.0
H709 H 0.43974 0.62366 0.97039 0.0
H710 H 0.35891 0.52375 0.95982 0.0
H711 H 0.37774 0.50791 0.99842 0.0
C712 C 0.43078 0.54768 0.02886 0.0
C713 C 0.45944 0.57113 0.04275 0.0
C714 C 0.41966 0.55659 0.00674 0.0
C715 C 0.47667 0.60368 0.03443 0.0
C716 C 0.46558 0.61279 0.01261 0.0
C717 C 0.42618 0.59838 0.97649 0.0
C718 C 0.39793 0.57493 0.96221 0.0
C719 C 0.4372 0.58944 0.99859 0.0
C720 C 0.38077 0.5423 0.97041 0.0
C721 C 0.39149 0.53322 0.9925 0.0
H722 H 0.9322 0.46981 0.18292 0.0
H723 H 0.84385 0.42113 0.23043 0.0
H724 H 0.8082 0.3983 0.1919 0.0
H725 H 0.80191 0.39401 0.1447 0.0
H726 H 0.89016 0.44465 0.09724 0.0
H727 H 0.92601 0.46512 0.13582 0.0
C728 C 0.90511 0.45445 0.18487 0.0
C729 C 0.89074 0.44735 0.20956 0.0
C730 C 0.88473 0.44179 0.16265 0.0
C731 C 0.85564 0.42677 0.2117 0.0
C732 C 0.83521 0.41384 0.18967 0.0
C733 C 0.82901 0.40931 0.14277 0.0
C734 C 0.84332 0.41781 0.11809 0.0
C735 C 0.84946 0.42137 0.16504 0.0
C736 C 0.87847 0.43781 0.11598 0.0
C737 C 0.899 0.44955 0.13804 0.0
loop_
_geom_bond_atom_site_label_1
_geom_bond_atom_site_label_2
_geom_bond_distance
_geom_bond_site_symmetry_2
_ccdc_geom_bond_type
C0 C1 1.384 . S
C0 C2 1.384 . S
C0 H28 0.931 . S
C1 C0 1.384 . S
C1 C4 1.382 . S
C2 C0 1.384 . S
C2 C3 1.381 . S
C2 H29 0.930 . S
C3 C2 1.381 . S
C3 C5 1.381 . S
C3 C6 1.487 . S
C4 C1 1.382 . S
C4 C5 1.387 . S
C4 H30 0.930 . S
C5 C3 1.381 . S
C5 C4 1.387 . S
C5 H31 0.931 . S
C6 C3 1.487 . S
C6 C13 1.399 . S
C6 N44 1.343 . S
C7 C8 1.384 . S
C7 C9 1.384 . S
C7 H32 0.931 . S
C8 C7 1.384 . S
C8 C11 1.382 . S
C9 C7 1.384 . S
C9 C10 1.381 . S
C9 H33 0.930 . S
C10 C9 1.381 . S
C10 C12 1.381 . S
C10 C13 1.487 . S
C11 C8 1.382 . S
C11 C12 1.387 . S
C11 H34 0.930 . S
C12 C10 1.381 . S
C12 C11 1.387 . S
C12 H35 0.931 . S
C13 C6 1.399 . S
C13 C10 1.487 . S
C13 N45 1.343 1_655 S
C14 C15 1.384 . S
C14 C16 1.384 . S
C14 H36 0.931 . S
C15 C14 1.384 . S
C15 C18 1.382 . S
C16 C14 1.384 . S
C16 C17 1.381 . S
C16 H37 0.930 . S
C17 C16 1.381 . S
C17 C19 1.381 . S
C17 C20 1.487 . S
C18 C15 1.382 . S
C18 C19 1.387 . S
C18 H38 0.930 . S
C19 C17 1.381 . S
C19 C18 1.387 . S
C19 H39 0.931 . S
C20 C17 1.487 . S
C20 C27 1.399 . S
C20 N45 1.343 . S
C21 C22 1.384 . S
C21 C23 1.384 . S
C21 H40 0.931 . S
C22 C21 1.384 . S
C22 C25 1.382 . S
C23 C21 1.384 . S
C23 C24 1.381 . S
C23 H41 0.930 . S
C24 C23 1.381 . S
C24 C26 1.381 . S
C24 C27 1.487 . S
C25 C22 1.382 . S
C25 C26 1.387 . S
C25 H42 0.930 . S
C26 C24 1.381 . S
C26 C25 1.387 . S
C26 H43 0.931 . S
C27 C20 1.399 . S
C27 C24 1.487 . S
C27 N44 1.343 1_455 S
H28 C0 0.931 . S
H29 C2 0.930 . S
H30 C4 0.930 . S
H31 C5 0.931 . S
H32 C7 0.931 . S
H33 C9 0.930 . S
H34 C11 0.930 . S
H35 C12 0.931 . S
H36 C14 0.931 . S
H37 C16 0.930 . S
H38 C18 0.930 . S
H39 C19 0.931 . S
H40 C21 0.931 . S
H41 C23 0.930 . S
H42 C25 0.930 . S
H43 C26 0.931 . S
N44 C6 1.343 . S
N44 C27 1.343 1_655 S
N45 C13 1.343 1_455 S
N45 C20 1.343 . S
C46 C47 1.384 . S
C46 C48 1.384 . S
C46 H74 0.931 . S
C47 C46 1.384 . S
C47 C50 1.382 . S
C48 C46 1.384 . S
C48 C49 1.381 . S
C48 H75 0.930 . S
C49 C48 1.381 . S
C49 C51 1.381 . S
C49 C52 1.487 . S
C50 C47 1.382 . S
C50 C51 1.387 . S
C50 H76 0.930 . S
C51 C49 1.381 . S
C51 C50 1.387 . S
C51 H77 0.931 . S
C52 C49 1.487 . S
C52 C59 1.399 . S
C52 N90 1.343 1_565 S
C53 C54 1.384 . S
C53 C55 1.384 . S
C53 H78 0.931 . S
C54 C53 1.384 . S
C54 C57 1.382 . S
C55 C53 1.384 . S
C55 C56 1.381 . S
C55 H79 0.930 . S
C56 C55 1.381 . S
C56 C58 1.381 . S
C56 C59 1.487 . S
C57 C54 1.382 . S
C57 C58 1.387 . S
C57 H80 0.930 . S
C58 C56 1.381 . S
C58 C57 1.387 . S
C58 H81 0.931 . S
C59 C52 1.399 . S
C59 C56 1.487 . S
C59 N91 1.343 1_565 S
C60 C61 1.384 . S
C60 C62 1.384 . S
C60 H82 0.931 . S
C61 C60 1.384 . S
C61 C64 1.382 . S
C62 C60 1.384 . S
C62 C63 1.381 . S
C62 H83 0.930 . S
C63 C62 1.381 . S
C63 C65 1.381 . S
C63 C66 1.487 . S
C64 C61 1.382 . S
C64 C65 1.387 . S
C64 H84 0.930 . S
C65 C63 1.381 . S
C65 C64 1.387 . S
C65 H85 0.931 . S
C66 C63 1.487 . S
C66 C73 1.399 . S
C66 N91 1.343 . S
C67 C68 1.384 . S
C67 C69 1.384 . S
C67 H86 0.931 . S
C68 C67 1.384 . S
C68 C71 1.382 . S
C69 C67 1.384 . S
C69 C70 1.381 . S
C69 H87 0.930 . S
C70 C69 1.381 . S
C70 C72 1.381 . S
C70 C73 1.487 . S
C71 C68 1.382 . S
C71 C72 1.387 . S
C71 H88 0.930 . S
C72 C70 1.381 . S
C72 C71 1.387 . S
C72 H89 0.931 . S
C73 C66 1.399 . S
C73 C70 1.487 . S
C73 N90 1.343 . S
H74 C46 0.931 . S
H75 C48 0.930 . S
H76 C50 0.930 . S
H77 C51 0.931 . S
H78 C53 0.931 . S
H79 C55 0.930 . S
H80 C57 0.930 . S
H81 C58 0.931 . S
H82 C60 0.931 . S
H83 C62 0.930 . S
H84 C64 0.930 . S
H85 C65 0.931 . S
H86 C67 0.931 . S
H87 C69 0.930 . S
H88 C71 0.930 . S
H89 C72 0.931 . S
N90 C52 1.343 1_545 S
N90 C73 1.343 . S
N91 C59 1.343 1_545 S
N91 C66 1.343 . S
C92 C93 1.384 . S
C92 C94 1.384 . S
C92 H120 0.931 . S
C93 C92 1.384 . S
C93 C96 1.382 . S
C94 C92 1.384 . S
C94 C95 1.381 . S
C94 H121 0.930 . S
C95 C94 1.381 . S
C95 C97 1.381 . S
C95 C98 1.487 . S
C96 C93 1.382 . S
C96 C97 1.387 . S
C96 H122 0.930 . S
C97 C95 1.381 . S
C97 C96 1.387 . S
C97 H123 0.931 . S
C98 C95 1.487 . S
C98 C105 1.399 . S
C98 N136 1.343 . S
C99 C100 1.384 . S
C99 C101 1.384 . S
C99 H124 0.931 . S
C100 C99 1.384 . S
C100 C103 1.382 . S
C101 C99 1.384 . S
C101 C102 1.381 . S
C101 H125 0.930 . S
C102 C101 1.381 . S
C102 C104 1.381 . S
C102 C105 1.487 . S
C103 C100 1.382 . S
C103 C104 1.387 . S
C103 H126 0.930 . S
C104 C102 1.381 . S
C104 C103 1.387 . S
C104 H127 0.931 . S
C105 C98 1.399 . S
C105 C102 1.487 . S
C105 N137 1.343 . S
C106 C107 1.384 . S
C106 C108 1.384 . S
C106 H128 0.931 . S
C107 C106 1.384 . S
C107 C110 1.382 . S
C108 C106 1.384 . S
C108 C109 1.381 . S
C108 H129 0.930 . S
C109 C108 1.381 . S
C109 C111 1.381 . S
C109 C112 1.487 . S
C110 C107 1.382 . S
C110 C111 1.387 . S
C110 H130 0.930 . S
C111 C109 1.381 . S
C111 C110 1.387 . S
C111 H131 0.931 . S
C112 C109 1.487 . S
C112 C119 1.399 . S
C112 N137 1.343 . S
C113 C114 1.384 . S
C113 C115 1.384 . S
C113 H132 0.931 . S
C114 C113 1.384 . S
C114 C117 1.382 . S
C115 C113 1.384 . S
C115 C116 1.381 . S
C115 H133 0.930 . S
C116 C115 1.381 . S
C116 C118 1.381 . S
C116 C119 1.487 . S
C117 C114 1.382 . S
C117 C118 1.387 . S
C117 H134 0.930 . S
C118 C116 1.381 . S
C118 C117 1.387 . S
C118 H135 0.931 . S
C119 C112 1.399 . S
C119 C116 1.487 . S
C119 N136 1.343 . S
H120 C92 0.931 . S
H121 C94 0.930 . S
H122 C96 0.930 . S
H123 C97 0.931 . S
H124 C99 0.931 . S
H125 C101 0.930 . S
H126 C103 0.930 . S
H127 C104 0.931 . S
H128 C106 0.931 . S
H129 C108 0.930 . S
H130 C110 0.930 . S
H131 C111 0.931 . S
H132 C113 0.931 . S
H133 C115 0.930 . S
H134 C117 0.930 . S
H135 C118 0.931 . S
N136 C98 1.343 . S
N136 C119 1.343 . S
N137 C105 1.343 . S
N137 C112 1.343 . S
C138 C139 1.384 . S
C138 C140 1.384 . S
C138 H166 0.931 . S
C139 C138 1.384 . S
C139 C142 1.382 . S
C140 C138 1.384 . S
C140 C141 1.381 . S
C140 H167 0.930 . S
C141 C140 1.381 . S
C141 C143 1.381 . S
C141 C144 1.487 . S
C142 C139 1.382 . S
C142 C143 1.387 . S
C142 H168 0.930 . S
C143 C141 1.381 . S
C143 C142 1.387 . S
C143 H169 0.931 . S
C144 C141 1.487 . S
C144 C151 1.399 . S
C144 N182 1.343 . S
C145 C146 1.384 . S
C145 C147 1.384 . S
C145 H170 0.931 . S
C146 C145 1.384 . S
C146 C149 1.382 . S
C147 C145 1.384 . S
C147 C148 1.381 . S
C147 H171 0.930 . S
C148 C147 1.381 . S
C148 C150 1.381 . S
C148 C151 1.487 . S
C149 C146 1.382 . S
C149 C150 1.387 . S
C149 H172 0.930 . S
C150 C148 1.381 . S
C150 C149 1.387 . S
C150 H173 0.931 . S
C151 C144 1.399 . S
C151 C148 1.487 . S
C151 N183 1.343 1_655 S
C152 C153 1.384 . S
C152 C154 1.384 . S
C152 H174 0.931 . S
C153 C152 1.384 . S
C153 C156 1.382 . S
C154 C152 1.384 . S
C154 C155 1.381 . S
C154 H175 0.930 . S
C155 C154 1.381 . S
C155 C157 1.381 . S
C155 C158 1.487 . S
C156 C153 1.382 . S
C156 C157 1.387 . S
C156 H176 0.930 . S
C157 C155 1.381 . S
C157 C156 1.387 . S
C157 H177 0.931 . S
C158 C155 1.487 . S
C158 C165 1.399 . S
C158 N183 1.343 . S
C159 C160 1.384 . S
C159 C161 1.384 . S
C159 H178 0.931 . S
C160 C159 1.384 . S
C160 C163 1.382 . S
C161 C159 1.384 . S
C161 C162 1.381 . S
C161 H179 0.930 . S
C162 C161 1.381 . S
C162 C164 1.381 . S
C162 C165 1.487 . S
C163 C160 1.382 . S
C163 C164 1.387 . S
C163 H180 0.930 . S
C164 C162 1.381 . S
C164 C163 1.387 . S
C164 H181 0.931 . S
C165 C158 1.399 . S
C165 C162 1.487 . S
C165 N182 1.343 1_455 S
H166 C138 0.931 . S
H167 C140 0.930 . S
H168 C142 0.930 . S
H169 C143 0.931 . S
H170 C145 0.931 . S
H171 C147 0.930 . S
H172 C149 0.930 . S
H173 C150 0.931 . S
H174 C152 0.931 . S
H175 C154 0.930 . S
H176 C156 0.930 . S
H177 C157 0.931 . S
H178 C159 0.931 . S
H179 C161 0.930 . S
H180 C163 0.930 . S
H181 C164 0.931 . S
N182 C144 1.343 . S
N182 C165 1.343 1_655 S
N183 C151 1.343 1_455 S
N183 C158 1.343 . S
C184 C185 1.384 . S
C184 C186 1.384 . S
C184 H212 0.931 . S
C185 C184 1.384 . S
C185 C188 1.382 . S
C186 C184 1.384 . S
C186 C187 1.381 . S
C186 H213 0.916 1_556 S
C187 C186 1.381 . S
C187 C189 1.381 . S
C187 C190 1.487 . S
C188 C185 1.382 . S
C188 C189 1.387 . S
C188 H214 0.930 . S
C189 C187 1.381 . S
C189 C188 1.387 . S
C189 H215 0.931 . S
C190 C187 1.487 . S
C190 C197 1.399 1_556 S
C190 N228 1.343 . S
C191 C192 1.384 . S
C191 C193 1.384 . S
C191 H216 0.931 . S
C192 C191 1.384 . S
C192 C195 1.382 . S
C193 C191 1.384 . S
C193 C194 1.381 . S
C193 H217 0.930 . S
C194 C193 1.381 . S
C194 C196 1.381 . S
C194 C197 1.487 . S
C195 C192 1.382 . S
C195 C196 1.387 . S
C195 H218 0.930 . S
C196 C194 1.381 . S
C196 C195 1.387 . S
C196 H219 0.931 . S
C197 C190 1.399 1_554 S
C197 C194 1.487 . S
C197 N229 1.343 1_565 S
C198 C199 1.384 . S
C198 C200 1.384 1_554 S
C198 H220 0.921 1_554 S
C199 C198 1.384 . S
C199 C202 1.382 . S
C200 C198 1.384 1_556 S
C200 C201 1.381 1_556 S
C200 H221 0.930 . S
C201 C200 1.381 1_554 S
C201 C203 1.381 . S
C201 C204 1.487 1_554 S
C202 C199 1.382 . S
C202 C203 1.387 . S
C202 H222 0.930 . S
C203 C201 1.381 . S
C203 C202 1.387 . S
C203 H223 0.931 . S
C204 C201 1.487 1_556 S
C204 C211 1.399 . S
C204 N229 1.343 1_556 S
C205 C206 1.384 . S
C205 C207 1.384 . S
C205 H224 0.931 . S
C206 C205 1.384 . S
C206 C209 1.382 . S
C207 C205 1.384 . S
C207 C208 1.381 . S
C207 H225 0.930 . S
C208 C207 1.381 . S
C208 C210 1.381 . S
C208 C211 1.487 . S
C209 C206 1.382 . S
C209 C210 1.387 . S
C209 H226 0.930 . S
C210 C208 1.381 . S
C210 C209 1.387 . S
C210 H227 0.931 . S
C211 C204 1.399 . S
C211 C208 1.487 . S
C211 N228 1.343 1_545 S
H212 C184 0.931 . S
H213 C186 0.916 1_554 S
H214 C188 0.930 . S
H215 C189 0.931 . S
H216 C191 0.931 . S
H217 C193 0.930 . S
H218 C195 0.930 . S
H219 C196 0.931 . S
H220 C198 0.921 1_556 S
H221 C200 0.930 . S
H222 C202 0.930 . S
H223 C203 0.931 . S
H224 C205 0.931 . S
H225 C207 0.930 . S
H226 C209 0.930 . S
H227 C210 0.931 . S
N228 C190 1.343 . S
N228 C211 1.343 1_565 S
N229 C197 1.343 1_545 S
N229 C204 1.343 1_554 S
C230 C231 1.384 . S
C230 C232 1.384 . S
C230 H258 0.931 . S
C231 C230 1.384 . S
C231 C234 1.382 . S
C232 C230 1.384 . S
C232 C233 1.381 . S
C232 H259 0.930 . S
C233 C232 1.381 . S
C233 C235 1.381 . S
C233 C236 1.487 . S
C234 C231 1.382 . S
C234 C235 1.387 . S
C234 H260 0.930 . S
C235 C233 1.381 . S
C235 C234 1.387 . S
C235 H261 0.931 . S
C236 C233 1.487 . S
C236 C243 1.399 . S
C236 N274 1.343 . S
C237 C238 1.384 . S
C237 C239 1.384 . S
C237 H262 0.931 . S
C238 C237 1.384 . S
C238 C241 1.382 . S
C239 C237 1.384 . S
C239 C240 1.381 . S
C239 H263 0.930 . S
C240 C239 1.381 . S
C240 C242 1.381 . S
C240 C243 1.487 . S
C241 C238 1.382 . S
C241 C242 1.387 . S
C241 H264 0.930 . S
C242 C240 1.381 . S
C242 C241 1.387 . S
C242 H265 0.931 . S
C243 C236 1.399 . S
C243 C240 1.487 . S
C243 N275 1.343 . S
C244 C245 1.384 . S
C244 C246 1.384 . S
C244 H266 0.931 . S
C245 C244 1.384 . S
C245 C248 1.382 . S
C246 C244 1.384 . S
C246 C247 1.381 . S
C246 H267 0.930 . S
C247 C246 1.381 . S
C247 C249 1.381 . S
C247 C250 1.487 . S
C248 C245 1.382 . S
C248 C249 1.387 . S
C248 H268 0.930 . S
C249 C247 1.381 . S
C249 C248 1.387 . S
C249 H269 0.931 . S
C250 C247 1.487 . S
C250 C257 1.399 . S
C250 N275 1.343 . S
C251 C252 1.384 . S
C251 C253 1.384 . S
C251 H270 0.931 . S
C252 C251 1.384 . S
C252 C255 1.382 . S
C253 C251 1.384 . S
C253 C254 1.381 . S
C253 H271 0.930 . S
C254 C253 1.381 . S
C254 C256 1.381 . S
C254 C257 1.487 . S
C255 C252 1.382 . S
C255 C256 1.387 . S
C255 H272 0.930 . S
C256 C254 1.381 . S
C256 C255 1.387 . S
C256 H273 0.931 . S
C257 C250 1.399 . S
C257 C254 1.487 . S
C257 N274 1.343 . S
H258 C230 0.931 . S
H259 C232 0.930 . S
H260 C234 0.930 . S
H261 C235 0.931 . S
H262 C237 0.931 . S
H263 C239 0.930 . S
H264 C241 0.930 . S
H265 C242 0.931 . S
H266 C244 0.931 . S
H267 C246 0.930 . S
H268 C248 0.930 . S
H269 C249 0.931 . S
H270 C251 0.931 . S
H271 C253 0.930 . S
H272 C255 0.930 . S
H273 C256 0.931 . S
N274 C236 1.343 . S
N274 C257 1.343 . S
N275 C243 1.343 . S
N275 C250 1.343 . S
C276 O277 1.160 . S
C276 O283 1.185 . S
O277 C276 1.160 . S
O278 Zn279 1.899 . S
O278 C286 1.284 . S
Zn279 O278 1.899 . S
Zn279 O280 2.032 . S
Zn279 O283 2.086 . S
Zn279 O288 1.977 . S
O280 Zn279 2.032 . S
O280 C284 1.278 . S
C281 O282 1.203 . S
C281 O288 1.267 . S
O282 C281 1.203 . S
O283 C276 1.185 . S
O283 Zn279 2.086 . S
C284 O280 1.278 . S
C284 O285 1.211 . S
O285 C284 1.211 . S
C286 O278 1.284 . S
C286 O287 1.273 . S
O287 C286 1.273 . S
O288 Zn279 1.977 . S
O288 C281 1.267 . S
C289 O290 1.160 . S
C289 O296 1.185 . S
O290 C289 1.160 . S
O291 Zn292 1.899 . S
O291 C299 1.284 . S
Zn292 O291 1.899 . S
Zn292 O293 2.032 . S
Zn292 O296 2.086 . S
Zn292 O301 1.977 . S
O293 Zn292 2.032 . S
O293 C297 1.278 . S
C294 O295 1.203 . S
C294 O301 1.267 . S
O295 C294 1.203 . S
O296 C289 1.185 . S
O296 Zn292 2.086 . S
C297 O293 1.278 . S
C297 O298 1.211 . S
O298 C297 1.211 . S
C299 O291 1.284 . S
C299 O300 1.273 . S
O300 C299 1.273 . S
O301 Zn292 1.977 . S
O301 C294 1.267 . S
C302 O303 1.160 . S
C302 O309 1.185 . S
O303 C302 1.160 . S
O304 Zn305 1.899 . S
O304 C312 1.284 . S
Zn305 O304 1.899 . S
Zn305 O306 2.032 . S
Zn305 O309 2.086 . S
Zn305 O314 1.977 . S
O306 Zn305 2.032 . S
O306 C310 1.278 . S
C307 O308 1.203 . S
C307 O314 1.267 . S
O308 C307 1.203 . S
O309 C302 1.185 . S
O309 Zn305 2.086 . S
C310 O306 1.278 . S
C310 O311 1.211 . S
O311 C310 1.211 . S
C312 O304 1.284 . S
C312 O313 1.273 . S
O313 C312 1.273 . S
O314 Zn305 1.977 . S
O314 C307 1.267 . S
C315 O316 1.160 . S
C315 O322 1.185 . S
O316 C315 1.160 . S
O317 Zn318 1.899 . S
O317 C325 1.284 . S
Zn318 O317 1.899 . S
Zn318 O319 2.032 . S
Zn318 O322 2.086 . S
Zn318 O327 1.977 . S
O319 Zn318 2.032 . S
O319 C323 1.278 . S
C320 O321 1.203 . S
C320 O327 1.267 . S
O321 C320 1.203 . S
O322 C315 1.185 . S
O322 Zn318 2.086 . S
C323 O319 1.278 . S
C323 O324 1.211 . S
O324 C323 1.211 . S
C325 O317 1.284 . S
C325 O326 1.273 . S
O326 C325 1.273 . S
O327 Zn318 1.977 . S
O327 C320 1.267 . S
C328 O329 1.160 . S
C328 O335 1.185 . S
O329 C328 1.160 . S
O330 Zn331 1.899 . S
O330 C338 1.284 . S
Zn331 O330 1.899 . S
Zn331 O332 2.032 . S
Zn331 O335 2.086 . S
Zn331 O340 1.977 . S
O332 Zn331 2.032 . S
O332 C336 1.278 . S
C333 O334 1.203 . S
C333 O340 1.267 . S
O334 C333 1.203 . S
O335 C328 1.185 . S
O335 Zn331 2.086 . S
C336 O332 1.278 . S
C336 O337 1.211 . S
O337 C336 1.211 . S
C338 O330 1.284 . S
C338 O339 1.273 . S
O339 C338 1.273 . S
O340 Zn331 1.977 . S
O340 C333 1.267 . S
C341 O342 1.160 . S
C341 O348 1.185 . S
O342 C341 1.160 . S
O343 Zn344 1.899 . S
O343 C351 1.284 . S
Zn344 O343 1.899 . S
Zn344 O345 2.032 . S
Zn344 O348 2.086 . S
Zn344 O353 1.977 . S
O345 Zn344 2.032 . S
O345 C349 1.278 . S
C346 O347 1.203 . S
C346 O353 1.267 . S
O347 C346 1.203 . S
O348 C341 1.185 . S
O348 Zn344 2.086 . S
C349 O345 1.278 . S
C349 O350 1.211 . S
O350 C349 1.211 . S
C351 O343 1.284 . S
C351 O352 1.273 . S
O352 C351 1.273 . S
O353 Zn344 1.977 . S
O353 C346 1.267 . S
H354 C360 0.930 . S
H355 C363 0.930 . S
H356 C364 0.930 . S
H357 C365 0.930 . S
H358 C368 0.930 . S
H359 C369 0.930 . S
C360 H354 0.930 . S
C360 C361 1.355 . S
C360 C362 1.415 . S
C361 C360 1.355 . S
C361 C363 1.419 . S
C362 C360 1.415 . S
C362 C367 1.425 . S
C362 C369 1.409 . S
C363 H355 0.930 . S
C363 C361 1.419 . S
C363 C364 1.362 . S
C364 H356 0.930 . S
C364 C363 1.362 . S
C364 C367 1.409 . S
C365 H357 0.930 . S
C365 C366 1.355 . S
C365 C367 1.415 . S
C366 C365 1.355 . S
C366 C368 1.419 . S
C367 C362 1.425 . S
C367 C364 1.409 . S
C367 C365 1.415 . S
C368 H358 0.930 . S
C368 C366 1.419 . S
C368 C369 1.362 . S
C369 H359 0.930 . S
C369 C362 1.409 . S
C369 C368 1.362 . S
H370 C376 0.930 . S
H371 C379 0.930 . S
H372 C380 0.930 . S
H373 C381 0.930 . S
H374 C384 0.930 . S
H375 C385 0.930 . S
C376 H370 0.930 . S
C376 C377 1.355 . S
C376 C378 1.415 . S
C377 C376 1.355 . S
C377 C379 1.419 . S
C378 C376 1.415 . S
C378 C383 1.425 . S
C378 C385 1.409 . S
C379 H371 0.930 . S
C379 C377 1.419 . S
C379 C380 1.362 . S
C380 H372 0.930 . S
C380 C379 1.362 . S
C380 C383 1.409 . S
C381 H373 0.930 . S
C381 C382 1.355 . S
C381 C383 1.415 . S
C382 C381 1.355 . S
C382 C384 1.419 . S
C383 C378 1.425 . S
C383 C380 1.409 . S
C383 C381 1.415 . S
C384 H374 0.930 . S
C384 C382 1.419 . S
C384 C385 1.362 . S
C385 H375 0.930 . S
C385 C378 1.409 . S
C385 C384 1.362 . S
H386 C392 0.930 . S
H387 C395 0.930 . S
H388 C396 0.930 . S
H389 C397 0.930 . S
H390 C400 0.930 . S
H391 C401 0.930 . S
C392 H386 0.930 . S
C392 C393 1.355 . S
C392 C394 1.415 . S
C393 C392 1.355 . S
C393 C395 1.419 . S
C394 C392 1.415 . S
C394 C399 1.425 . S
C394 C401 1.409 . S
C395 H387 0.930 . S
C395 C393 1.419 . S
C395 C396 1.362 . S
C396 H388 0.930 . S
C396 C395 1.362 . S
C396 C399 1.409 . S
C397 H389 0.930 . S
C397 C398 1.355 . S
C397 C399 1.415 . S
C398 C397 1.355 . S
C398 C400 1.419 . S
C399 C394 1.425 . S
C399 C396 1.409 . S
C399 C397 1.415 . S
C400 H390 0.930 . S
C400 C398 1.419 . S
C400 C401 1.362 . S
C401 H391 0.930 . S
C401 C394 1.409 . S
C401 C400 1.362 . S
H402 C408 0.930 . S
H403 C411 0.930 . S
H404 C412 0.930 . S
H405 C413 0.930 . S
H406 C416 0.930 . S
H407 C417 0.930 . S
C408 H402 0.930 . S
C408 C409 1.355 . S
C408 C410 1.415 . S
C409 C408 1.355 . S
C409 C411 1.419 . S
C410 C408 1.415 . S
C410 C415 1.425 . S
C410 C417 1.409 . S
C411 H403 0.930 . S
C411 C409 1.419 . S
C411 C412 1.362 . S
C412 H404 0.930 . S
C412 C411 1.362 . S
C412 C415 1.409 . S
C413 H405 0.930 . S
C413 C414 1.355 . S
C413 C415 1.415 . S
C414 C413 1.355 . S
C414 C416 1.419 . S
C415 C410 1.425 . S
C415 C412 1.409 . S
C415 C413 1.415 . S
C416 H406 0.930 . S
C416 C414 1.419 . S
C416 C417 1.362 . S
C417 H407 0.930 . S
C417 C410 1.409 . S
C417 C416 1.362 . S
H418 C424 0.930 . S
H419 C427 0.930 . S
H420 C428 0.930 . S
H421 C429 0.930 . S
H422 C432 0.930 . S
H423 C433 0.930 . S
C424 H418 0.930 . S
C424 C425 1.355 . S
C424 C426 1.415 . S
C425 C424 1.355 . S
C425 C427 1.419 . S
C426 C424 1.415 . S
C426 C431 1.425 . S
C426 C433 1.409 . S
C427 H419 0.930 . S
C427 C425 1.419 . S
C427 C428 1.362 . S
C428 H420 0.930 . S
C428 C427 1.362 . S
C428 C431 1.409 . S
C429 H421 0.930 . S
C429 C430 1.355 . S
C429 C431 1.415 . S
C430 C429 1.355 . S
C430 C432 1.419 . S
C431 C426 1.425 . S
C431 C428 1.409 . S
C431 C429 1.415 . S
C432 H422 0.930 . S
C432 C430 1.419 . S
C432 C433 1.362 . S
C433 H423 0.930 . S
C433 C426 1.409 . S
C433 C432 1.362 . S
H434 C440 0.930 . S
H435 C443 0.930 . S
H436 C444 0.930 . S
H437 C445 0.930 . S
H438 C448 0.930 . S
H439 C449 0.930 . S
C440 H434 0.930 . S
C440 C441 1.355 . S
C440 C442 1.415 . S
C441 C440 1.355 . S
C441 C443 1.419 . S
C442 C440 1.415 . S
C442 C447 1.425 . S
C442 C449 1.409 . S
C443 H435 0.930 . S
C443 C441 1.419 . S
C443 C444 1.362 . S
C444 H436 0.930 . S
C444 C443 1.362 . S
C444 C447 1.409 . S
C445 H437 0.930 . S
C445 C446 1.355 . S
C445 C447 1.415 . S
C446 C445 1.355 . S
C446 C448 1.419 . S
C447 C442 1.425 . S
C447 C444 1.409 . S
C447 C445 1.415 . S
C448 H438 0.930 . S
C448 C446 1.419 . S
C448 C449 1.362 . S
C449 H439 0.930 . S
C449 C442 1.409 . S
C449 C448 1.362 . S
H450 C456 0.930 . S
H451 C459 0.930 . S
H452 C460 0.930 . S
H453 C461 0.930 . S
H454 C464 0.930 . S
H455 C465 0.930 . S
C456 H450 0.930 . S
C456 C457 1.355 . S
C456 C458 1.415 . S
C457 C456 1.355 . S
C457 C459 1.419 . S
C458 C456 1.415 . S
C458 C463 1.425 . S
C458 C465 1.409 . S
C459 H451 0.930 . S
C459 C457 1.419 . S
C459 C460 1.362 . S
C460 H452 0.930 . S
C460 C459 1.362 . S
C460 C463 1.409 . S
C461 H453 0.930 . S
C461 C462 1.355 . S
C461 C463 1.415 . S
C462 C461 1.355 . S
C462 C464 1.419 . S
C463 C458 1.425 . S
C463 C460 1.409 . S
C463 C461 1.415 . S
C464 H454 0.930 . S
C464 C462 1.419 . S
C464 C465 1.362 . S
C465 H455 0.930 . S
C465 C458 1.409 . S
C465 C464 1.362 . S
H466 C472 0.930 . S
H467 C475 0.930 . S
H468 C476 0.930 . S
H469 C477 0.930 . S
H470 C480 0.930 . S
H471 C481 0.930 . S
C472 H466 0.930 . S
C472 C473 1.355 . S
C472 C474 1.415 . S
C473 C472 1.355 . S
C473 C475 1.419 . S
C474 C472 1.415 . S
C474 C479 1.425 . S
C474 C481 1.409 . S
C475 H467 0.930 . S
C475 C473 1.419 . S
C475 C476 1.362 . S
C476 H468 0.930 . S
C476 C475 1.362 . S
C476 C479 1.409 . S
C477 H469 0.930 . S
C477 C478 1.355 . S
C477 C479 1.415 . S
C478 C477 1.355 . S
C478 C480 1.419 . S
C479 C474 1.425 . S
C479 C476 1.409 . S
C479 C477 1.415 . S
C480 H470 0.930 . S
C480 C478 1.419 . S
C480 C481 1.362 . S
C481 H471 0.930 . S
C481 C474 1.409 . S
C481 C480 1.362 . S
H482 C488 0.930 . S
H483 C491 0.930 . S
H484 C492 0.930 . S
H485 C493 0.930 . S
H486 C496 0.930 . S
H487 C497 0.930 . S
C488 H482 0.930 . S
C488 C489 1.355 . S
C488 C490 1.415 . S
C489 C488 1.355 . S
C489 C491 1.419 . S
C490 C488 1.415 . S
C490 C495 1.425 . S
C490 C497 1.409 . S
C491 H483 0.930 . S
C491 C489 1.419 . S
C491 C492 1.362 . S
C492 H484 0.930 . S
C492 C491 1.362 . S
C492 C495 1.409 . S
C493 H485 0.930 . S
C493 C494 1.355 . S
C493 C495 1.415 . S
C494 C493 1.355 . S
C494 C496 1.419 . S
C495 C490 1.425 . S
C495 C492 1.409 . S
C495 C493 1.415 . S
C496 H486 0.930 . S
C496 C494 1.419 . S
C496 C497 1.362 . S
C497 H487 0.930 . S
C497 C490 1.409 . S
C497 C496 1.362 . S
H498 C504 0.930 . S
H499 C507 0.930 . S
H500 C508 0.930 . S
H501 C509 0.930 . S
H502 C512 0.930 . S
H503 C513 0.930 . S
C504 H498 0.930 . S
C504 C505 1.355 . S
C504 C506 1.415 . S
C505 C504 1.355 . S
C505 C507 1.419 . S
C506 C504 1.415 . S
C506 C511 1.425 . S
C506 C513 1.409 . S
C507 H499 0.930 . S
C507 C505 1.419 . S
C507 C508 1.362 . S
C508 H500 0.930 . S
C508 C507 1.362 . S
C508 C511 1.409 . S
C509 H501 0.930 . S
C509 C510 1.355 . S
C509 C511 1.415 . S
C510 C509 1.355 . S
C510 C512 1.419 . S
C511 C506 1.425 . S
C511 C508 1.409 . S
C511 C509 1.415 . S
C512 H502 0.930 . S
C512 C510 1.419 . S
C512 C513 1.362 . S
C513 H503 0.930 . S
C513 C506 1.409 . S
C513 C512 1.362 . S
H514 C520 0.930 . S
H515 C523 0.930 . S
H516 C524 0.930 . S
H517 C525 0.930 . S
H518 C528 0.930 . S
H519 C529 0.930 . S
C520 H514 0.930 . S
C520 C521 1.355 . S
C520 C522 1.415 . S
C521 C520 1.355 . S
C521 C523 1.419 . S
C522 C520 1.415 . S
C522 C527 1.425 . S
C522 C529 1.409 . S
C523 H515 0.930 . S
C523 C521 1.419 . S
C523 C524 1.362 . S
C524 H516 0.930 . S
C524 C523 1.362 . S
C524 C527 1.409 . S
C525 H517 0.930 . S
C525 C526 1.355 . S
C525 C527 1.415 . S
C526 C525 1.355 . S
C526 C528 1.419 . S
C527 C522 1.425 . S
C527 C524 1.409 . S
C527 C525 1.415 . S
C528 H518 0.930 . S
C528 C526 1.419 . S
C528 C529 1.362 . S
C529 H519 0.930 . S
C529 C522 1.409 . S
C529 C528 1.362 . S
H530 C536 0.930 . S
H531 C539 0.930 . S
H532 C540 0.930 . S
H533 C541 0.930 . S
H534 C544 0.930 . S
H535 C545 0.930 . S
C536 H530 0.930 . S
C536 C537 1.355 . S
C536 C538 1.415 . S
C537 C536 1.355 . S
C537 C539 1.419 . S
C538 C536 1.415 . S
C538 C543 1.425 . S
C538 C545 1.409 . S
C539 H531 0.930 . S
C539 C537 1.419 . S
C539 C540 1.362 . S
C540 H532 0.930 . S
C540 C539 1.362 . S
C540 C543 1.409 . S
C541 H533 0.930 . S
C541 C542 1.355 . S
C541 C543 1.415 . S
C542 C541 1.355 . S
C542 C544 1.419 . S
C543 C538 1.425 . S
C543 C540 1.409 . S
C543 C541 1.415 . S
C544 H534 0.930 . S
C544 C542 1.419 . S
C544 C545 1.362 . S
C545 H535 0.930 . S
C545 C538 1.409 . S
C545 C544 1.362 . S
H546 C552 0.930 . S
H547 C555 0.930 . S
H548 C556 0.930 . S
H549 C557 0.930 . S
H550 C560 0.930 . S
H551 C561 0.930 . S
C552 H546 0.930 . S
C552 C553 1.355 . S
C552 C554 1.415 . S
C553 C552 1.355 . S
C553 C555 1.419 . S
C554 C552 1.415 . S
C554 C559 1.425 . S
C554 C561 1.409 . S
C555 H547 0.930 . S
C555 C553 1.419 . S
C555 C556 1.362 . S
C556 H548 0.930 . S
C556 C555 1.362 . S
C556 C559 1.409 . S
C557 H549 0.930 . S
C557 C558 1.355 . S
C557 C559 1.415 . S
C558 C557 1.355 . S
C558 C560 1.419 . S
C559 C554 1.425 . S
C559 C556 1.409 . S
C559 C557 1.415 . S
C560 H550 0.930 . S
C560 C558 1.419 . S
C560 C561 1.362 . S
C561 H551 0.930 . S
C561 C554 1.409 . S
C561 C560 1.362 . S
H562 C568 0.930 . S
H563 C571 0.930 . S
H564 C572 0.930 . S
H565 C573 0.930 . S
H566 C576 0.930 . S
H567 C577 0.930 . S
C568 H562 0.930 . S
C568 C569 1.355 . S
C568 C570 1.415 . S
C569 C568 1.355 . S
C569 C571 1.419 . S
C570 C568 1.415 . S
C570 C575 1.425 . S
C570 C577 1.409 . S
C571 H563 0.930 . S
C571 C569 1.419 . S
C571 C572 1.362 . S
C572 H564 0.930 . S
C572 C571 1.362 . S
C572 C575 1.409 . S
C573 H565 0.930 . S
C573 C574 1.355 . S
C573 C575 1.415 . S
C574 C573 1.355 . S
C574 C576 1.419 . S
C575 C570 1.425 . S
C575 C572 1.409 . S
C575 C573 1.415 . S
C576 H566 0.930 . S
C576 C574 1.419 . S
C576 C577 1.362 . S
C577 H567 0.930 . S
C577 C570 1.409 . S
C577 C576 1.362 . S
H578 C584 0.930 . S
H579 C587 0.930 . S
H580 C588 0.930 . S
H581 C589 0.930 . S
H582 C592 0.930 . S
H583 C593 0.930 . S
C584 H578 0.930 . S
C584 C585 1.355 . S
C584 C586 1.415 . S
C585 C584 1.355 . S
C585 C587 1.419 . S
C586 C584 1.415 . S
C586 C591 1.425 . S
C586 C593 1.409 . S
C587 H579 0.930 . S
C587 C585 1.419 . S
C587 C588 1.362 . S
C588 H580 0.930 . S
C588 C587 1.362 . S
C588 C591 1.409 . S
C589 H581 0.930 . S
C589 C590 1.355 . S
C589 C591 1.415 . S
C590 C589 1.355 . S
C590 C592 1.419 . S
C591 C586 1.425 . S
C591 C588 1.409 . S
C591 C589 1.415 . S
C592 H582 0.930 . S
C592 C590 1.419 . S
C592 C593 1.362 . S
C593 H583 0.930 . S
C593 C586 1.409 . S
C593 C592 1.362 . S
H594 C600 0.930 . S
H595 C603 0.930 . S
H596 C604 0.930 . S
H597 C605 0.930 . S
H598 C608 0.930 . S
H599 C609 0.930 . S
C600 H594 0.930 . S
C600 C601 1.355 . S
C600 C602 1.415 . S
C601 C600 1.355 . S
C601 C603 1.419 . S
C602 C600 1.415 . S
C602 C607 1.425 . S
C602 C609 1.409 . S
C603 H595 0.930 . S
C603 C601 1.419 . S
C603 C604 1.362 . S
C604 H596 0.930 . S
C604 C603 1.362 . S
C604 C607 1.409 . S
C605 H597 0.930 . S
C605 C606 1.355 1_556 S
C605 C607 1.415 . S
C606 C605 1.355 1_554 S
C606 C608 1.419 . S
C607 C602 1.425 . S
C607 C604 1.409 . S
C607 C605 1.415 . S
C608 H598 0.930 . S
C608 C606 1.419 . S
C608 C609 1.362 1_554 S
C609 H599 0.930 . S
C609 C602 1.409 . S
C609 C608 1.362 1_556 S
H610 C616 0.930 . S
H611 C619 0.930 . S
H612 C620 0.930 . S
H613 C621 0.930 . S
H614 C624 0.930 . S
H615 C625 0.930 . S
C616 H610 0.930 . S
C616 C617 1.355 . S
C616 C618 1.415 . S
C617 C616 1.355 . S
C617 C619 1.419 . S
C618 C616 1.415 . S
C618 C623 1.425 . S
C618 C625 1.409 . S
C619 H611 0.930 . S
C619 C617 1.419 . S
C619 C620 1.362 . S
C620 H612 0.930 . S
C620 C619 1.362 . S
C620 C623 1.409 . S
C621 H613 0.930 . S
C621 C622 1.355 . S
C621 C623 1.415 . S
C622 C621 1.355 . S
C622 C624 1.419 . S
C623 C618 1.425 . S
C623 C620 1.409 . S
C623 C621 1.415 . S
C624 H614 0.930 . S
C624 C622 1.419 . S
C624 C625 1.362 . S
C625 H615 0.930 . S
C625 C618 1.409 . S
C625 C624 1.362 . S
H626 C632 0.930 . S
H627 C635 0.930 . S
H628 C636 0.930 . S
H629 C637 0.930 . S
H630 C640 0.930 . S
H631 C641 0.930 . S
C632 H626 0.930 . S
C632 C633 1.355 . S
C632 C634 1.415 . S
C633 C632 1.355 . S
C633 C635 1.419 . S
C634 C632 1.415 . S
C634 C639 1.425 . S
C634 C641 1.409 . S
C635 H627 0.930 . S
C635 C633 1.419 . S
C635 C636 1.362 . S
C636 H628 0.930 . S
C636 C635 1.362 . S
C636 C639 1.409 . S
C637 H629 0.930 . S
C637 C638 1.355 . S
C637 C639 1.415 . S
C638 C637 1.355 . S
C638 C640 1.419 . S
C639 C634 1.425 . S
C639 C636 1.409 . S
C639 C637 1.415 . S
C640 H630 0.930 . S
C640 C638 1.419 . S
C640 C641 1.362 . S
C641 H631 0.930 . S
C641 C634 1.409 . S
C641 C640 1.362 . S
H642 C648 0.930 . S
H643 C651 0.930 . S
H644 C652 0.930 . S
H645 C653 0.930 . S
H646 C656 0.930 . S
H647 C657 0.930 . S
C648 H642 0.930 . S
C648 C649 1.355 . S
C648 C650 1.415 . S
C649 C648 1.355 . S
C649 C651 1.419 . S
C650 C648 1.415 . S
C650 C655 1.425 . S
C650 C657 1.409 . S
C651 H643 0.930 . S
C651 C649 1.419 . S
C651 C652 1.362 . S
C652 H644 0.930 . S
C652 C651 1.362 . S
C652 C655 1.409 . S
C653 H645 0.930 . S
C653 C654 1.355 . S
C653 C655 1.415 . S
C654 C653 1.355 . S
C654 C656 1.419 . S
C655 C650 1.425 . S
C655 C652 1.409 . S
C655 C653 1.415 . S
C656 H646 0.930 . S
C656 C654 1.419 . S
C656 C657 1.362 . S
C657 H647 0.930 . S
C657 C650 1.409 . S
C657 C656 1.362 . S
H658 C664 0.930 . S
H659 C667 0.930 . S
H660 C668 0.930 . S
H661 C669 0.930 . S
H662 C672 0.930 . S
H663 C673 0.930 . S
C664 H658 0.930 . S
C664 C665 1.355 . S
C664 C666 1.415 . S
C665 C664 1.355 . S
C665 C667 1.419 . S
C666 C664 1.415 . S
C666 C671 1.425 . S
C666 C673 1.409 . S
C667 H659 0.930 . S
C667 C665 1.419 . S
C667 C668 1.362 . S
C668 H660 0.930 . S
C668 C667 1.362 . S
C668 C671 1.409 . S
C669 H661 0.930 . S
C669 C670 1.355 . S
C669 C671 1.415 . S
C670 C669 1.355 . S
C670 C672 1.419 . S
C671 C666 1.425 . S
C671 C668 1.409 . S
C671 C669 1.415 . S
C672 H662 0.930 . S
C672 C670 1.419 . S
C672 C673 1.362 . S
C673 H663 0.930 . S
C673 C666 1.409 . S
C673 C672 1.362 . S
H674 C680 0.930 . S
H675 C683 0.930 . S
H676 C684 0.930 . S
H677 C685 0.930 . S
H678 C688 0.930 . S
H679 C689 0.930 . S
C680 H674 0.930 . S
C680 C681 1.355 . S
C680 C682 1.415 . S
C681 C680 1.355 . S
C681 C683 1.419 . S
C682 C680 1.415 . S
C682 C687 1.425 . S
C682 C689 1.409 . S
C683 H675 0.930 . S
C683 C681 1.419 . S
C683 C684 1.362 . S
C684 H676 0.930 . S
C684 C683 1.362 . S
C684 C687 1.409 . S
C685 H677 0.930 . S
C685 C686 1.355 . S
C685 C687 1.415 . S
C686 C685 1.355 . S
C686 C688 1.419 . S
C687 C682 1.425 . S
C687 C684 1.409 . S
C687 C685 1.415 . S
C688 H678 0.930 . S
C688 C686 1.419 . S
C688 C689 1.362 . S
C689 H679 0.930 . S
C689 C682 1.409 . S
C689 C688 1.362 . S
H690 C696 0.930 . S
H691 C699 0.930 . S
H692 C700 0.930 . S
H693 C701 0.930 . S
H694 C704 0.930 . S
H695 C705 0.930 . S
C696 H690 0.930 . S
C696 C697 1.355 . S
C696 C698 1.415 . S
C697 C696 1.355 . S
C697 C699 1.419 . S
C698 C696 1.415 . S
C698 C703 1.425 . S
C698 C705 1.409 . S
C699 H691 0.930 . S
C699 C697 1.419 . S
C699 C700 1.362 . S
C700 H692 0.930 . S
C700 C699 1.362 . S
C700 C703 1.409 . S
C701 H693 0.930 . S
C701 C702 1.355 . S
C701 C703 1.415 . S
C702 C701 1.355 . S
C702 C704 1.419 . S
C703 C698 1.425 . S
C703 C700 1.409 . S
C703 C701 1.415 . S
C704 H694 0.930 . S
C704 C702 1.419 . S
C704 C705 1.362 . S
C705 H695 0.930 . S
C705 C698 1.409 . S
C705 C704 1.362 . S
H706 C712 0.930 . S
H707 C715 0.930 . S
H708 C716 0.907 1_556 S
H709 C717 0.930 . S
H710 C720 0.930 . S
H711 C721 0.930 1_554 S
C712 H706 0.930 . S
C712 C713 1.355 . S
C712 C714 1.415 . S
C713 C712 1.355 . S
C713 C715 1.419 . S
C714 C712 1.415 . S
C714 C719 1.425 1_554 S
C714 C721 1.409 1_554 S
C715 H707 0.930 . S
C715 C713 1.419 . S
C715 C716 1.400 . S
C716 H708 0.907 1_554 S
C716 C715 1.400 . S
C716 C719 1.396 1_554 S
C717 H709 0.930 . S
C717 C718 1.355 . S
C717 C719 1.415 . S
C718 C717 1.355 . S
C718 C720 1.419 . S
C719 C714 1.425 1_556 S
C719 C716 1.396 1_556 S
C719 C717 1.415 . S
C720 H710 0.930 . S
C720 C718 1.419 . S
C720 C721 1.362 . S
C721 H711 0.930 1_556 S
C721 C714 1.409 1_556 S
C721 C720 1.362 . S
H722 C728 0.930 . S
H723 C731 0.930 . S
H724 C732 0.930 . S
H725 C733 0.930 . S
H726 C736 0.930 . S
H727 C737 0.930 . S
C728 H722 0.930 . S
C728 C729 1.355 . S
C728 C730 1.415 . S
C729 C728 1.355 . S
C729 C731 1.419 . S
C730 C728 1.415 . S
C730 C735 1.425 . S
C730 C737 1.409 . S
C731 H723 0.930 . S
C731 C729 1.419 . S
C731 C732 1.362 . S
C732 H724 0.930 . S
C732 C731 1.362 . S
C732 C735 1.409 . S
C733 H725 0.930 . S
C733 C734 1.355 . S
C733 C735 1.415 . S
C734 C733 1.355 . S
C734 C736 1.419 . S
C735 C730 1.425 . S
C735 C732 1.409 . S
C735 C733 1.415 . S
C736 H726 0.930 . S
C736 C734 1.419 . S
C736 C737 1.362 . S
C737 H727 0.930 . S
C737 C730 1.409 . S
C737 C736 1.362 . S
C366 C351 1.631 . S
C361 C15 1.612 . S
C377 C61 1.524 . S
C382 C276 1.451 . S
C393 C114 1.572 . S
C398 C299 1.633 . S
C409 C139 1.466 . S
C414 C312 1.475 . S
C430 C315 1.499 . S
C425 C185 1.590 . S
C441 C245 1.477 . S
C446 C328 1.414 . S
C457 C47 1.486 . S
C462 C289 1.426 . S
C473 C100 1.588 . S
C478 C302 1.497 . S
C489 C153 1.453 . S
C494 C325 1.463 . S
C510 C338 1.655 . S
C505 C199 1.618 . S
C526 C341 1.540 . S
C521 C231 1.595 . S
C542 C286 1.621 . S
C537 C1 1.608 . S
C553 C22 1.456 . S
C558 C297 1.406 . S
C569 C68 1.437 . S
C574 C310 1.414 . S
C590 C320 1.415 . S
C585 C107 1.481 . S
C601 C146 1.447 . S
C606 C333 1.377 . S
C622 C349 1.429 . S
C617 C192 1.481 . S
C638 C281 1.432 . S
C633 C252 1.445 . S
C654 C346 1.367 . S
C649 C54 1.439 . S
C665 C93 1.485 . S
C670 C284 1.449 . S
C686 C294 1.442 . S
C681 C160 1.463 . S
C697 C206 1.486 . S
C702 C307 1.467 . S
C713 C238 1.450 . S
C718 C323 1.438 . S
C729 C8 1.459 . S
C734 C336 1.405 . S
